1,2,3
q = -1.0

 61 62  0  0  0  0  0  0  0  0999 V2000
   -1.7214   -0.1381    0.2040 P   0  0  0  0  0  0  0  0  0  0  0  0
    0.9779    0.9115   -0.9067 Si  0  0  2  0  0  3  0  0  0  0  0  0
    2.5681   -1.3878    0.1160 N   0  0  0  0  0  0  0  0  0  0  0  0
    1.1940    1.0065   -2.7952 C   0  0  0  0  0  0  0  0  0  0  0  0
    0.2278    0.8846   -3.3207 H   0  0  0  0  0  0  0  0  0  0  0  0
    1.8892    0.2255   -3.1614 H   0  0  0  0  0  0  0  0  0  0  0  0
    1.6186    1.9975   -3.0648 H   0  0  0  0  0  0  0  0  0  0  0  0
   -0.3232    2.2221   -0.4315 C   0  0  0  0  0  0  0  0  0  0  0  0
   -1.5592    1.7173    0.0564 C   0  0  0  0  0  0  0  0  0  0  0  0
   -2.5931    2.6137    0.3999 C   0  0  0  0  0  0  0  0  0  0  0  0
   -3.5526    2.2386    0.7815 H   0  0  0  0  0  0  0  0  0  0  0  0
   -2.4083    3.9985    0.2711 C   0  0  0  0  0  0  0  0  0  0  0  0
   -3.2188    4.6863    0.5568 H   0  0  0  0  0  0  0  0  0  0  0  0
   -1.1957    4.5028   -0.2243 C   0  0  0  0  0  0  0  0  0  0  0  0
   -1.0521    5.5890   -0.3320 H   0  0  0  0  0  0  0  0  0  0  0  0
   -0.1689    3.6159   -0.5812 C   0  0  0  0  0  0  0  0  0  0  0  0
    0.7746    4.0224   -0.9809 H   0  0  0  0  0  0  0  0  0  0  0  0
    2.7190    1.0878   -0.1409 C   0  0  0  0  0  0  0  0  0  0  0  0
    3.2932   -0.1173    0.3334 C   0  0  0  0  0  0  0  0  0  0  0  0
    4.5543   -0.1134    0.9523 C   0  0  0  0  0  0  0  0  0  0  0  0
    5.0040   -1.0494    1.3134 H   0  0  0  0  0  0  0  0  0  0  0  0
    5.2518    1.0941    1.1193 C   0  0  0  0  0  0  0  0  0  0  0  0
    6.2329    1.0899    1.6182 H   0  0  0  0  0  0  0  0  0  0  0  0
    4.7002    2.2957    0.6538 C   0  0  0  0  0  0  0  0  0  0  0  0
    5.2438    3.2434    0.7878 H   0  0  0  0  0  0  0  0  0  0  0  0
    3.4460    2.2829    0.0221 C   0  0  0  0  0  0  0  0  0  0  0  0
    3.0155    3.2332   -0.3330 H   0  0  0  0  0  0  0  0  0  0  0  0
   -3.0050   -0.6139   -1.1398 C   0  0  0  0  0  0  0  0  0  0  0  0
   -2.2423   -0.4786   -2.4713 C   0  0  0  0  0  0  0  0  0  0  0  0
   -1.9088    0.5651   -2.6422 H   0  0  0  0  0  0  0  0  0  0  0  0
   -2.9223   -0.7544   -3.3053 H   0  0  0  0  0  0  0  0  0  0  0  0
   -1.3617   -1.1497   -2.4991 H   0  0  0  0  0  0  0  0  0  0  0  0
   -3.4164   -2.0833   -0.9422 C   0  0  0  0  0  0  0  0  0  0  0  0
   -4.0348   -2.2315   -0.0354 H   0  0  0  0  0  0  0  0  0  0  0  0
   -2.5283   -2.7458   -0.8942 H   0  0  0  0  0  0  0  0  0  0  0  0
   -4.0309   -2.3991   -1.8124 H   0  0  0  0  0  0  0  0  0  0  0  0
   -4.2429    0.2957   -1.1884 C   0  0  0  0  0  0  0  0  0  0  0  0
   -3.9780    1.3434   -1.4281 H   0  0  0  0  0  0  0  0  0  0  0  0
   -4.8299    0.2853   -0.2517 H   0  0  0  0  0  0  0  0  0  0  0  0
   -4.9112   -0.0686   -1.9979 H   0  0  0  0  0  0  0  0  0  0  0  0
   -2.3841   -0.4800    1.9785 C   0  0  0  0  0  0  0  0  0  0  0  0
   -1.6388    0.4614    2.9428 C   0  0  0  0  0  0  0  0  0  0  0  0
   -0.5410    0.3917    2.8074 H   0  0  0  0  0  0  0  0  0  0  0  0
   -1.8754    0.1675    3.9874 H   0  0  0  0  0  0  0  0  0  0  0  0
   -1.9346    1.5197    2.8099 H   0  0  0  0  0  0  0  0  0  0  0  0
   -1.9925   -1.9367    2.3013 C   0  0  0  0  0  0  0  0  0  0  0  0
   -2.4436   -2.6662    1.6031 H   0  0  0  0  0  0  0  0  0  0  0  0
   -2.3271   -2.1868    3.3309 H   0  0  0  0  0  0  0  0  0  0  0  0
   -0.8919   -2.0716    2.2526 H   0  0  0  0  0  0  0  0  0  0  0  0
   -3.8984   -0.3003    2.1686 C   0  0  0  0  0  0  0  0  0  0  0  0
   -4.4916   -0.9876    1.5369 H   0  0  0  0  0  0  0  0  0  0  0  0
   -4.2343    0.7360    1.9718 H   0  0  0  0  0  0  0  0  0  0  0  0
   -4.1520   -0.5257    3.2267 H   0  0  0  0  0  0  0  0  0  0  0  0
    3.0670   -2.0283   -1.1285 C   0  0  0  0  0  0  0  0  0  0  0  0
    2.4284   -2.9052   -1.3507 H   0  0  0  0  0  0  0  0  0  0  0  0
    4.1321   -2.3301   -1.0099 H   0  0  0  0  0  0  0  0  0  0  0  0
    2.9897   -1.3116   -1.9654 H   0  0  0  0  0  0  0  0  0  0  0  0
    2.6848   -2.3418    1.2414 C   0  0  0  0  0  0  0  0  0  0  0  0
    2.0086   -3.1928    1.0300 H   0  0  0  0  0  0  0  0  0  0  0  0
    2.3733   -1.8459    2.1793 H   0  0  0  0  0  0  0  0  0  0  0  0
    3.7208   -2.7340    1.3551 H   0  0  0  0  0  0  0  0  0  0  0  0
  1 41  1  0  0  0  0
  2  4  1  6  0  0  0
  2  8  1  0  0  0  0
  2 18  1  0  0  0  0
  3 19  1  0  0  0  0
  3 58  1  0  0  0  0
  5  4  1  0  0  0  0
  6  4  1  0  0  0  0
  7  4  1  0  0  0  0
  8  9  1  0  0  0  0
  9  1  1  0  0  0  0
  9 10  2  0  0  0  0
 10 11  1  0  0  0  0
 12 10  1  0  0  0  0
 12 13  1  0  0  0  0
 14 12  2  0  0  0  0
 15 14  1  0  0  0  0
 16  8  2  0  0  0  0
 16 14  1  0  0  0  0
 17 16  1  0  0  0  0
 18 26  2  0  0  0  0
 18 19  1  0  0  0  0
 19 20  2  0  0  0  0
 20 22  1  0  0  0  0
 20 21  1  0  0  0  0
 22 23  1  0  0  0  0
 24 25  1  0  0  0  0
 24 22  2  0  0  0  0
 26 24  1  0  0  0  0
 27 26  1  0  0  0  0
 28 33  1  0  0  0  0
 28  1  1  0  0  0  0
 29 28  1  0  0  0  0
 30 29  1  0  0  0  0
 31 29  1  0  0  0  0
 32 29  1  0  0  0  0
 33 35  1  0  0  0  0
 33 34  1  0  0  0  0
 36 33  1  0  0  0  0
 37 28  1  0  0  0  0
 37 39  1  0  0  0  0
 38 37  1  0  0  0  0
 40 37  1  0  0  0  0
 41 50  1  0  0  0  0
 41 46  1  0  0  0  0
 41 42  1  0  0  0  0
 42 44  1  0  0  0  0
 43 42  1  0  0  0  0
 45 42  1  0  0  0  0
 46 48  1  0  0  0  0
 47 46  1  0  0  0  0
 49 46  1  0  0  0  0
 50 53  1  0  0  0  0
 51 50  1  0  0  0  0
 52 50  1  0  0  0  0
 54 56  1  0  0  0  0
 54  3  1  0  0  0  0
 55 54  1  0  0  0  0
 57 54  1  0  0  0  0
 58 61  1  0  0  0  0
 58 60  1  0  0  0  0
 59 58  1  0  0  0  0
M  END
