1,2,3,4
q = -1.0, confidence = 0.226

 29 29  0  0  0  0  0  0  0  0999 V2000
   -2.6806    0.9288   -1.2503 S   0  0  0  0  0  1  0  0  0  0  0  0
   -1.6497   -0.9173    1.9885 S   0  0  0  0  0  1  0  0  0  0  0  0
   -0.0570   -1.4645   -0.9888 O   0  5  0  0  0  0  0  0  0  0  0  0
    0.0545    0.9702    0.1906 N   0  0  0  0  0  0  0  0  0  0  0  0
    1.1675   -0.9757   -0.7252 C   0  0  0  0  0  0  0  0  0  0  0  0
    1.3012    0.2783   -0.0819 C   0  0  0  0  0  0  0  0  0  0  0  0
    2.5697    0.7956    0.2133 C   0  0  0  0  0  0  0  0  0  0  0  0
    3.7401    0.0822   -0.1165 C   0  0  0  0  0  0  0  0  0  0  0  0
    3.5918   -1.1638   -0.7649 C   0  0  0  0  0  0  0  0  0  0  0  0
    2.3324   -1.6932   -1.0682 C   0  0  0  0  0  0  0  0  0  0  0  0
    5.1077    0.6199    0.2234 C   0  0  0  0  0  0  0  0  0  0  0  0
   -0.1802    2.0652   -0.7766 C   0  0  0  0  0  0  0  0  0  0  0  0
   -1.6579    2.4088   -0.8879 C   0  0  0  0  0  0  0  0  0  0  0  0
   -0.1140    1.3832    1.5949 C   0  0  0  0  0  0  0  0  0  0  0  0
   -0.2544    0.1701    2.4982 C   0  0  0  0  0  0  0  0  0  0  0  0
    2.6560    1.7757    0.7090 H   0  0  0  0  0  0  0  0  0  0  0  0
    4.4922   -1.7374   -1.0365 H   0  0  0  0  0  0  0  0  0  0  0  0
    2.2209   -2.6671   -1.5658 H   0  0  0  0  0  0  0  0  0  0  0  0
    5.7987    0.5495   -0.6413 H   0  0  0  0  0  0  0  0  0  0  0  0
    5.5732    0.0453    1.0528 H   0  0  0  0  0  0  0  0  0  0  0  0
    5.0645    1.6806    0.5385 H   0  0  0  0  0  0  0  0  0  0  0  0
    0.1881    1.7116   -1.7597 H   0  0  0  0  0  0  0  0  0  0  0  0
    0.4156    2.9705   -0.5037 H   0  0  0  0  0  0  0  0  0  0  0  0
   -1.8153    3.1359   -1.7104 H   0  0  0  0  0  0  0  0  0  0  0  0
   -2.0449    2.8833    0.0382 H   0  0  0  0  0  0  0  0  0  0  0  0
    0.7337    2.0252    1.9359 H   0  0  0  0  0  0  0  0  0  0  0  0
   -1.0369    1.9924    1.6599 H   0  0  0  0  0  0  0  0  0  0  0  0
    0.6759   -0.4348    2.4971 H   0  0  0  0  0  0  0  0  0  0  0  0
   -0.4464    0.4852    3.5435 H   0  0  0  0  0  0  0  0  0  0  0  0
  1 13  1  0  0  0  0
  2 15  1  0  0  0  0
  3  5  1  0  0  0  0
  4 14  1  0  0  0  0
  5  6  1  0  0  0  0
  6  4  1  0  0  0  0
  6  7  2  0  0  0  0
  7 16  1  0  0  0  0
  8  7  1  0  0  0  0
  8 11  1  0  0  0  0
  9  8  2  0  0  0  0
 10  9  1  0  0  0  0
 10  5  2  0  0  0  0
 11 21  1  0  0  0  0
 11 20  1  0  0  0  0
 12 23  1  0  0  0  0
 12  4  1  0  0  0  0
 13 12  1  0  0  0  0
 13 25  1  0  0  0  0
 14 27  1  0  0  0  0
 14 26  1  0  0  0  0
 14 15  1  0  0  0  0
 15 29  1  0  0  0  0
 17  9  1  0  0  0  0
 18 10  1  0  0  0  0
 19 11  1  0  0  0  0
 22 12  1  0  0  0  0
 24 13  1  0  0  0  0
 28 15  1  0  0  0  0
M  CHG  1   3  -1
M  END
