1,2,3,4
q = 0.0, confidence = 0.992

 54 54  0  0  0  0  0  0  0  0999 V2000
    2.1990   -0.1435   -0.4524 P   0  0  0  0  0  0  0  0  0  0  0  0
    0.1512    0.1699    1.9291 P   0  0  2  0  0  0  0  0  0  0  0  0
   -0.2571    1.8694   -0.2898 P   0  0  1  0  0  0  0  0  0  0  0  0
   -2.2205   -0.5542   -0.0691 P   0  0  0  0  0  0  0  0  0  0  0  0
    2.1313    2.0685    1.2530 N   0  0  0  0  0  0  0  0  0  0  0  0
   -2.2825    1.6441    1.6584 N   0  0  0  0  0  0  0  0  0  0  0  0
    4.2802   -0.6009   -2.1889 O   0  0  0  0  0  0  0  0  0  0  0  0
    4.2707   -1.5497   -1.9245 H   0  0  0  0  0  0  0  0  0  0  0  0
    3.2932   -2.6430   -0.5447 O   0  0  0  0  0  0  0  0  0  0  0  0
    2.3607   -2.9808   -0.5574 H   0  0  0  0  0  0  0  0  0  0  0  0
    1.2313   -2.1393    2.9645 O   0  0  0  0  0  0  0  0  0  0  0  0
    0.9985   -2.5545    2.0876 H   0  0  0  0  0  0  0  0  0  0  0  0
   -0.4649    4.1281   -1.6835 O   0  0  0  0  0  0  0  0  0  0  0  0
   -0.4964    4.5854   -2.5438 H   0  0  0  0  0  0  0  0  0  0  0  0
   -4.2608   -2.3947   -0.1621 O   0  0  0  0  0  0  0  0  0  0  0  0
   -4.2223   -2.3743   -1.1458 H   0  0  0  0  0  0  0  0  0  0  0  0
   -3.2036   -1.2710   -2.5111 O   0  0  0  0  0  0  0  0  0  0  0  0
   -2.2487   -1.3356   -2.7856 H   0  0  0  0  0  0  0  0  0  0  0  0
    2.9251   -0.2372   -2.1942 C   0  0  0  0  0  0  0  0  0  0  0  0
    2.2632   -0.9312   -2.7561 H   0  0  0  0  0  0  0  0  0  0  0  0
    2.8121    0.7645   -2.6608 H   0  0  0  0  0  0  0  0  0  0  0  0
    3.2520   -1.5160    0.3017 C   0  0  0  0  0  0  0  0  0  0  0  0
    4.2845   -1.1177    0.3823 H   0  0  0  0  0  0  0  0  0  0  0  0
    2.8669   -1.7354    1.3225 H   0  0  0  0  0  0  0  0  0  0  0  0
    0.2236   -1.2089    3.2120 C   0  0  0  0  0  0  0  0  0  0  0  0
    0.3956   -0.7438    4.2086 H   0  0  0  0  0  0  0  0  0  0  0  0
   -0.8048   -1.6515    3.2233 H   0  0  0  0  0  0  0  0  0  0  0  0
   -0.3388    2.7401   -1.9292 C   0  0  0  0  0  0  0  0  0  0  0  0
    0.5871    2.4555   -2.4850 H   0  0  0  0  0  0  0  0  0  0  0  0
   -1.1898    2.2950   -2.4961 H   0  0  0  0  0  0  0  0  0  0  0  0
   -2.9186   -2.2837    0.2320 C   0  0  0  0  0  0  0  0  0  0  0  0
   -2.2284   -2.9808   -0.2903 H   0  0  0  0  0  0  0  0  0  0  0  0
   -2.8303   -2.4968    1.3187 H   0  0  0  0  0  0  0  0  0  0  0  0
   -3.2288   -0.1824   -1.6217 C   0  0  0  0  0  0  0  0  0  0  0  0
   -4.2792   -0.0277   -1.2983 H   0  0  0  0  0  0  0  0  0  0  0  0
   -2.8487    0.7625   -2.0743 H   0  0  0  0  0  0  0  0  0  0  0  0
    3.0102    1.3679    0.3305 C   0  0  0  0  0  0  0  0  0  0  0  0
    3.9298    1.0506    0.8681 H   0  0  0  0  0  0  0  0  0  0  0  0
    3.3276    2.0681   -0.4700 H   0  0  0  0  0  0  0  0  0  0  0  0
    1.6536    1.2575    2.3594 C   0  0  0  0  0  0  0  0  0  0  0  0
    1.3729    1.9124    3.2153 H   0  0  0  0  0  0  0  0  0  0  0  0
    2.4671    0.5868    2.7052 H   0  0  0  0  0  0  0  0  0  0  0  0
    1.1146    2.8667    0.6079 C   0  0  0  0  0  0  0  0  0  0  0  0
    1.5766    3.5460   -0.1376 H   0  0  0  0  0  0  0  0  0  0  0  0
    0.6196    3.5122    1.3651 H   0  0  0  0  0  0  0  0  0  0  0  0
   -1.2785    1.2492    2.6214 C   0  0  0  0  0  0  0  0  0  0  0  0
   -1.7695    0.6829    3.4423 H   0  0  0  0  0  0  0  0  0  0  0  0
   -0.8283    2.1593    3.0747 H   0  0  0  0  0  0  0  0  0  0  0  0
   -1.8019    2.5312    0.6132 C   0  0  0  0  0  0  0  0  0  0  0  0
   -1.5505    3.5258    1.0406 H   0  0  0  0  0  0  0  0  0  0  0  0
   -2.6075    2.6931   -0.1315 H   0  0  0  0  0  0  0  0  0  0  0  0
   -3.1080    0.5461    1.1801 C   0  0  0  0  0  0  0  0  0  0  0  0
   -4.0305    0.9571    0.7158 H   0  0  0  0  0  0  0  0  0  0  0  0
   -3.4297   -0.0708    2.0450 H   0  0  0  0  0  0  0  0  0  0  0  0
  1 22  1  0  0  0  0
  1 37  1  0  0  0  0
  2 40  1  0  0  0  0
  2 46  1  0  0  0  0
  2 25  1  1  0  0  0
  3 28  1  6  0  0  0
  3 43  1  0  0  0  0
  3 49  1  0  0  0  0
  4 31  1  0  0  0  0
  4 52  1  0  0  0  0
  5 40  1  0  0  0  0
  6 46  1  0  0  0  0
  7  8  1  0  0  0  0
  9 22  1  0  0  0  0
 10  9  1  0  0  0  0
 11 25  1  0  0  0  0
 12 11  1  0  0  0  0
 14 13  1  0  0  0  0
 15 31  1  0  0  0  0
 16 15  1  0  0  0  0
 17 34  1  0  0  0  0
 18 17  1  0  0  0  0
 19  7  1  0  0  0  0
 19  1  1  0  0  0  0
 20 19  1  0  0  0  0
 21 19  1  0  0  0  0
 22 23  1  0  0  0  0
 22 24  1  0  0  0  0
 25 27  1  0  0  0  0
 25 26  1  0  0  0  0
 28 13  1  0  0  0  0
 29 28  1  0  0  0  0
 30 28  1  0  0  0  0
 31 33  1  0  0  0  0
 32 31  1  0  0  0  0
 34 35  1  0  0  0  0
 34  4  1  0  0  0  0
 36 34  1  0  0  0  0
 37 38  1  0  0  0  0
 37  5  1  0  0  0  0
 39 37  1  0  0  0  0
 40 42  1  0  0  0  0
 40 41  1  0  0  0  0
 43  5  1  0  0  0  0
 43 45  1  0  0  0  0
 44 43  1  0  0  0  0
 46 48  1  0  0  0  0
 46 47  1  0  0  0  0
 49 50  1  0  0  0  0
 49  6  1  0  0  0  0
 51 49  1  0  0  0  0
 52  6  1  0  0  0  0
 52 54  1  0  0  0  0
 53 52  1  0  0  0  0
M  END
