1,2,3,4
q = 0.0, confidence = 0.998

 55 54  0  0  0  0  0  0  0  0999 V2000
   -2.3644    0.0786   -0.7285 P   0  0  0  0  0  0  0  0  0  0  0  0
    0.0118    1.6287    1.4859 P   0  0  0  0  0  0  0  0  0  0  0  0
    2.2930    0.2816   -0.7566 P   0  0  0  0  0  0  0  0  0  0  0  0
    0.1385   -1.6960    0.8101 P   0  0  0  0  0  0  0  0  0  0  0  0
   -3.7178    0.9533    0.1954 C   0  0  0  0  0  0  0  0  0  0  0  0
   -2.8260    0.5514   -2.4476 C   0  0  0  0  0  0  0  0  0  0  0  0
   -3.0223   -1.6543   -0.6304 C   0  0  0  0  0  0  0  0  0  0  0  0
   -2.6979   -2.3601    0.6919 C   0  0  0  0  0  0  0  0  0  0  0  0
   -1.2759   -2.9219    0.7230 C   0  0  0  0  0  0  0  0  0  0  0  0
   -1.5471    2.4999    1.9730 C   0  0  0  0  0  0  0  0  0  0  0  0
    1.1236    3.1117    1.4485 C   0  0  0  0  0  0  0  0  0  0  0  0
    0.4875    0.8824    3.1270 C   0  0  0  0  0  0  0  0  0  0  0  0
   -0.1778   -0.4693    3.4111 C   0  0  0  0  0  0  0  0  0  0  0  0
    0.4758   -1.6267    2.6496 C   0  0  0  0  0  0  0  0  0  0  0  0
    3.5710    1.0542    0.3507 C   0  0  0  0  0  0  0  0  0  0  0  0
    2.6911    1.0753   -2.3663 C   0  0  0  0  0  0  0  0  0  0  0  0
    3.0693   -1.3921   -0.9844 C   0  0  0  0  0  0  0  0  0  0  0  0
    2.8912   -2.3430    0.2029 C   0  0  0  0  0  0  0  0  0  0  0  0
    1.4725   -2.9049    0.3122 C   0  0  0  0  0  0  0  0  0  0  0  0
   -3.7399    0.6515    1.2596 H   0  0  0  0  0  0  0  0  0  0  0  0
   -4.6906    0.6950   -0.2694 H   0  0  0  0  0  0  0  0  0  0  0  0
   -3.5733    2.0467    0.1347 H   0  0  0  0  0  0  0  0  0  0  0  0
   -2.1736   -0.0152   -3.1375 H   0  0  0  0  0  0  0  0  0  0  0  0
   -2.6135    1.6290   -2.5744 H   0  0  0  0  0  0  0  0  0  0  0  0
   -3.8957    0.3281   -2.6342 H   0  0  0  0  0  0  0  0  0  0  0  0
   -2.5675   -2.2025   -1.4811 H   0  0  0  0  0  0  0  0  0  0  0  0
   -4.1177   -1.6067   -0.8042 H   0  0  0  0  0  0  0  0  0  0  0  0
   -3.4072   -3.2034    0.8351 H   0  0  0  0  0  0  0  0  0  0  0  0
   -2.8713   -1.6791    1.5560 H   0  0  0  0  0  0  0  0  0  0  0  0
   -1.1434   -3.6287    1.5693 H   0  0  0  0  0  0  0  0  0  0  0  0
   -1.1003   -3.4974   -0.2098 H   0  0  0  0  0  0  0  0  0  0  0  0
   -2.3195    1.7771    2.2880 H   0  0  0  0  0  0  0  0  0  0  0  0
   -1.9068    3.0602    1.0898 H   0  0  0  0  0  0  0  0  0  0  0  0
   -1.3476    3.2057    2.8035 H   0  0  0  0  0  0  0  0  0  0  0  0
    2.1751    2.8145    1.5962 H   0  0  0  0  0  0  0  0  0  0  0  0
    0.8404    3.8259    2.2465 H   0  0  0  0  0  0  0  0  0  0  0  0
    1.0037    3.5797    0.4520 H   0  0  0  0  0  0  0  0  0  0  0  0
    0.2416    1.6243    3.9159 H   0  0  0  0  0  0  0  0  0  0  0  0
    1.5927    0.7647    3.1329 H   0  0  0  0  0  0  0  0  0  0  0  0
   -1.2646   -0.4189    3.1746 H   0  0  0  0  0  0  0  0  0  0  0  0
   -0.1165   -0.6808    4.5001 H   0  0  0  0  0  0  0  0  0  0  0  0
    1.5798   -1.5588    2.7635 H   0  0  0  0  0  0  0  0  0  0  0  0
    0.1745   -2.6056    3.0782 H   0  0  0  0  0  0  0  0  0  0  0  0
    3.4940    2.1550    0.2939 H   0  0  0  0  0  0  0  0  0  0  0  0
    4.5864    0.7567    0.0194 H   0  0  0  0  0  0  0  0  0  0  0  0
    3.4287    0.7385    1.4025 H   0  0  0  0  0  0  0  0  0  0  0  0
    2.3105    2.1139   -2.3464 H   0  0  0  0  0  0  0  0  0  0  0  0
    2.1269    0.5242   -3.1430 H   0  0  0  0  0  0  0  0  0  0  0  0
    3.7802    1.0432   -2.5699 H   0  0  0  0  0  0  0  0  0  0  0  0
    4.1445   -1.2253   -1.2053 H   0  0  0  0  0  0  0  0  0  0  0  0
    2.5918   -1.8184   -1.8899 H   0  0  0  0  0  0  0  0  0  0  0  0
    3.5952   -3.1949    0.0857 H   0  0  0  0  0  0  0  0  0  0  0  0
    3.1942   -1.8465    1.1536 H   0  0  0  0  0  0  0  0  0  0  0  0
    1.1521   -3.2908   -0.6771 H   0  0  0  0  0  0  0  0  0  0  0  0
    1.4328   -3.7477    1.0355 H   0  0  0  0  0  0  0  0  0  0  0  0
  1  7  1  0  0  0  0
  1  5  1  0  0  0  0
  2 10  1  0  0  0  0
  2 12  1  0  0  0  0
  3 15  1  0  0  0  0
  4 14  1  0  0  0  0
  5 20  1  0  0  0  0
  6  1  1  0  0  0  0
  7  8  1  0  0  0  0
  8  9  1  0  0  0  0
  8 28  1  0  0  0  0
  8 29  1  0  0  0  0
  9  4  1  0  0  0  0
  9 30  1  0  0  0  0
 10 32  1  0  0  0  0
 10 34  1  0  0  0  0
 11  2  1  0  0  0  0
 11 35  1  0  0  0  0
 11 36  1  0  0  0  0
 12 39  1  0  0  0  0
 12 13  1  0  0  0  0
 12 38  1  0  0  0  0
 13 41  1  0  0  0  0
 14 42  1  0  0  0  0
 14 43  1  0  0  0  0
 14 13  1  0  0  0  0
 15 46  1  0  0  0  0
 16 47  1  0  0  0  0
 16  3  1  0  0  0  0
 17  3  1  0  0  0  0
 17 18  1  0  0  0  0
 18 19  1  0  0  0  0
 18 53  1  0  0  0  0
 19  4  1  0  0  0  0
 19 55  1  0  0  0  0
 21  5  1  0  0  0  0
 22  5  1  0  0  0  0
 23  6  1  0  0  0  0
 24  6  1  0  0  0  0
 25  6  1  0  0  0  0
 26  7  1  0  0  0  0
 27  7  1  0  0  0  0
 31  9  1  0  0  0  0
 33 10  1  0  0  0  0
 37 11  1  0  0  0  0
 40 13  1  0  0  0  0
 44 15  1  0  0  0  0
 45 15  1  0  0  0  0
 48 16  1  0  0  0  0
 49 16  1  0  0  0  0
 50 17  1  0  0  0  0
 51 17  1  0  0  0  0
 52 18  1  0  0  0  0
 54 19  1  0  0  0  0
M  END
