1,2,3,4
q = 0.0, confidence = 0.996

 82 81  0  0  0  0  0  0  0  0999 V2000
   -2.0994   -1.0093    0.0985 P   0  0  0  0  0  0  0  0  0  0  0  0
    0.0547   -0.2208    2.0936 P   0  0  0  0  0  0  0  0  0  0  0  0
    2.2138   -0.8581    0.1256 P   0  0  0  0  0  0  0  0  0  0  0  0
   -0.1408    1.9823    0.1514 P   0  0  0  0  0  0  0  0  0  0  0  0
   -3.0902   -3.6844   -0.3625 C   0  0  0  0  0  0  0  0  0  0  0  0
   -4.1461   -3.3437   -0.3660 H   0  0  0  0  0  0  0  0  0  0  0  0
   -2.8376   -4.0145    0.6619 H   0  0  0  0  0  0  0  0  0  0  0  0
   -3.0430   -4.5816   -1.0133 H   0  0  0  0  0  0  0  0  0  0  0  0
   -2.1459   -2.6127   -0.9278 C   0  0  0  0  0  0  0  0  0  0  0  0
   -1.0980   -2.9739   -0.8140 H   0  0  0  0  0  0  0  0  0  0  0  0
   -2.4154   -2.4097   -2.4229 C   0  0  0  0  0  0  0  0  0  0  0  0
   -2.1300   -3.3308   -2.9708 H   0  0  0  0  0  0  0  0  0  0  0  0
   -1.8353   -1.5711   -2.8500 H   0  0  0  0  0  0  0  0  0  0  0  0
   -3.4941   -2.2446   -2.6138 H   0  0  0  0  0  0  0  0  0  0  0  0
   -4.2127    0.6295    1.0674 C   0  0  0  0  0  0  0  0  0  0  0  0
   -3.5532    1.5210    1.1146 H   0  0  0  0  0  0  0  0  0  0  0  0
   -4.1788    0.1228    2.0512 H   0  0  0  0  0  0  0  0  0  0  0  0
   -5.2478    1.0033    0.9299 H   0  0  0  0  0  0  0  0  0  0  0  0
   -3.8375   -0.2926   -0.0990 C   0  0  0  0  0  0  0  0  0  0  0  0
   -4.4831   -1.1976   -0.0438 H   0  0  0  0  0  0  0  0  0  0  0  0
   -4.0751    0.3954   -1.4472 C   0  0  0  0  0  0  0  0  0  0  0  0
   -5.1456    0.6718   -1.5361 H   0  0  0  0  0  0  0  0  0  0  0  0
   -3.8201   -0.2421   -2.3106 H   0  0  0  0  0  0  0  0  0  0  0  0
   -3.4856    1.3246   -1.5408 H   0  0  0  0  0  0  0  0  0  0  0  0
   -2.1925   -1.7525    1.8347 C   0  0  0  0  0  0  0  0  0  0  0  0
   -3.2408   -1.9948    2.1029 H   0  0  0  0  0  0  0  0  0  0  0  0
   -1.6493   -2.7176    1.7712 H   0  0  0  0  0  0  0  0  0  0  0  0
   -1.5138   -0.8581    2.8652 C   0  0  0  0  0  0  0  0  0  0  0  0
   -1.2997   -1.3885    3.8161 H   0  0  0  0  0  0  0  0  0  0  0  0
   -2.1384    0.0243    3.1132 H   0  0  0  0  0  0  0  0  0  0  0  0
    1.4824   -1.1382    2.8409 C   0  0  0  0  0  0  0  0  0  0  0  0
    1.6533   -0.8035    3.8852 H   0  0  0  0  0  0  0  0  0  0  0  0
    1.2092   -2.2101    2.8761 H   0  0  0  0  0  0  0  0  0  0  0  0
    2.6998   -0.8930    1.9446 C   0  0  0  0  0  0  0  0  0  0  0  0
    3.5001   -1.6406    2.1179 H   0  0  0  0  0  0  0  0  0  0  0  0
    3.1447    0.1019    2.1603 H   0  0  0  0  0  0  0  0  0  0  0  0
    1.6662   -3.6292    0.6474 C   0  0  0  0  0  0  0  0  0  0  0  0
    0.5853   -3.3988    0.7544 H   0  0  0  0  0  0  0  0  0  0  0  0
    2.1311   -3.6040    1.6508 H   0  0  0  0  0  0  0  0  0  0  0  0
    1.7412   -4.6743    0.2838 H   0  0  0  0  0  0  0  0  0  0  0  0
    2.3489   -2.6935   -0.3586 C   0  0  0  0  0  0  0  0  0  0  0  0
    3.4464   -2.8672   -0.2995 H   0  0  0  0  0  0  0  0  0  0  0  0
    1.8818   -3.0135   -1.7824 C   0  0  0  0  0  0  0  0  0  0  0  0
    2.1732   -4.0554   -2.0282 H   0  0  0  0  0  0  0  0  0  0  0  0
    2.3136   -2.3468   -2.5479 H   0  0  0  0  0  0  0  0  0  0  0  0
    0.7819   -2.9348   -1.8780 H   0  0  0  0  0  0  0  0  0  0  0  0
    3.7409   -0.1202   -2.1909 C   0  0  0  0  0  0  0  0  0  0  0  0
    4.4823    0.6047   -2.5841 H   0  0  0  0  0  0  0  0  0  0  0  0
    2.7504    0.1200   -2.6197 H   0  0  0  0  0  0  0  0  0  0  0  0
    4.0418   -1.1208   -2.5603 H   0  0  0  0  0  0  0  0  0  0  0  0
    3.7487   -0.0758   -0.6573 C   0  0  0  0  0  0  0  0  0  0  0  0
    3.6436    0.9860   -0.3439 H   0  0  0  0  0  0  0  0  0  0  0  0
    5.0733   -0.6054   -0.0928 C   0  0  0  0  0  0  0  0  0  0  0  0
    5.2124   -1.6857   -0.3037 H   0  0  0  0  0  0  0  0  0  0  0  0
    5.1831   -0.4474    0.9968 H   0  0  0  0  0  0  0  0  0  0  0  0
    5.9143   -0.0756   -0.5858 H   0  0  0  0  0  0  0  0  0  0  0  0
    0.2204    1.4851    2.8258 C   0  0  0  0  0  0  0  0  0  0  0  0
   -0.1303    1.4922    3.8785 H   0  0  0  0  0  0  0  0  0  0  0  0
    1.2975    1.7552    2.8307 H   0  0  0  0  0  0  0  0  0  0  0  0
   -0.5751    2.4149    1.9187 C   0  0  0  0  0  0  0  0  0  0  0  0
   -0.3935    3.4846    2.1342 H   0  0  0  0  0  0  0  0  0  0  0  0
   -1.6658    2.2371    2.0259 H   0  0  0  0  0  0  0  0  0  0  0  0
   -1.5030    4.4350   -0.4303 C   0  0  0  0  0  0  0  0  0  0  0  0
   -0.6411    4.9880   -0.8521 H   0  0  0  0  0  0  0  0  0  0  0  0
   -1.5429    4.6264    0.6587 H   0  0  0  0  0  0  0  0  0  0  0  0
   -2.4173    4.8790   -0.8748 H   0  0  0  0  0  0  0  0  0  0  0  0
   -1.4511    2.9437   -0.7981 C   0  0  0  0  0  0  0  0  0  0  0  0
   -2.3644    2.4564   -0.3908 H   0  0  0  0  0  0  0  0  0  0  0  0
   -1.4556    2.7552   -2.3177 C   0  0  0  0  0  0  0  0  0  0  0  0
   -2.3911    3.1843   -2.7318 H   0  0  0  0  0  0  0  0  0  0  0  0
   -1.3916    1.6919   -2.6112 H   0  0  0  0  0  0  0  0  0  0  0  0
   -0.6130    3.2872   -2.7977 H   0  0  0  0  0  0  0  0  0  0  0  0
    1.8879    2.9584   -1.5761 C   0  0  0  0  0  0  0  0  0  0  0  0
    1.3673    3.8309   -2.0174 H   0  0  0  0  0  0  0  0  0  0  0  0
    1.6157    2.0594   -2.1616 H   0  0  0  0  0  0  0  0  0  0  0  0
    2.9767    3.1344   -1.6948 H   0  0  0  0  0  0  0  0  0  0  0  0
    1.5423    2.8041   -0.0911 C   0  0  0  0  0  0  0  0  0  0  0  0
    2.2055    2.0211    0.3353 H   0  0  0  0  0  0  0  0  0  0  0  0
    1.7929    4.0955    0.6986 C   0  0  0  0  0  0  0  0  0  0  0  0
    2.8330    4.4331    0.5093 H   0  0  0  0  0  0  0  0  0  0  0  0
    1.6924    3.9615    1.7932 H   0  0  0  0  0  0  0  0  0  0  0  0
    1.1225    4.9190    0.3888 H   0  0  0  0  0  0  0  0  0  0  0  0
  1 25  1  0  0  0  0
  2 57  1  0  0  0  0
  2 31  1  0  0  0  0
  2 28  1  0  0  0  0
  3 34  1  0  0  0  0
  4 60  1  0  0  0  0
  5  7  1  0  0  0  0
  6  5  1  0  0  0  0
  8  5  1  0  0  0  0
  9 10  1  0  0  0  0
  9  5  1  0  0  0  0
  9  1  1  0  0  0  0
 11  9  1  0  0  0  0
 12 11  1  0  0  0  0
 13 11  1  0  0  0  0
 14 11  1  0  0  0  0
 15 16  1  0  0  0  0
 15 17  1  0  0  0  0
 18 15  1  0  0  0  0
 19 20  1  0  0  0  0
 19  1  1  0  0  0  0
 19 15  1  0  0  0  0
 21 19  1  0  0  0  0
 22 21  1  0  0  0  0
 23 21  1  0  0  0  0
 24 21  1  0  0  0  0
 25 26  1  0  0  0  0
 25 28  1  0  0  0  0
 27 25  1  0  0  0  0
 28 30  1  0  0  0  0
 28 29  1  0  0  0  0
 31 33  1  0  0  0  0
 31 32  1  0  0  0  0
 34 35  1  0  0  0  0
 34 36  1  0  0  0  0
 34 31  1  0  0  0  0
 37 38  1  0  0  0  0
 37 39  1  0  0  0  0
 40 37  1  0  0  0  0
 41 42  1  0  0  0  0
 41  3  1  0  0  0  0
 41 37  1  0  0  0  0
 43 41  1  0  0  0  0
 44 43  1  0  0  0  0
 45 43  1  0  0  0  0
 46 43  1  0  0  0  0
 47 51  1  0  0  0  0
 48 47  1  0  0  0  0
 49 47  1  0  0  0  0
 50 47  1  0  0  0  0
 51 52  1  0  0  0  0
 51 53  1  0  0  0  0
 51  3  1  0  0  0  0
 53 55  1  0  0  0  0
 54 53  1  0  0  0  0
 56 53  1  0  0  0  0
 57 59  1  0  0  0  0
 57 58  1  0  0  0  0
 60 62  1  0  0  0  0
 60 61  1  0  0  0  0
 60 57  1  0  0  0  0
 63 65  1  0  0  0  0
 64 63  1  0  0  0  0
 66 63  1  0  0  0  0
 67 63  1  0  0  0  0
 67 68  1  0  0  0  0
 67  4  1  0  0  0  0
 69 67  1  0  0  0  0
 70 69  1  0  0  0  0
 71 69  1  0  0  0  0
 72 69  1  0  0  0  0
 73 77  1  0  0  0  0
 74 73  1  0  0  0  0
 75 73  1  0  0  0  0
 76 73  1  0  0  0  0
 77  4  1  0  0  0  0
 77 78  1  0  0  0  0
 77 79  1  0  0  0  0
 79 81  1  0  0  0  0
 80 79  1  0  0  0  0
 82 79  1  0  0  0  0
M  END
