1,2,3,4
q = -2.0, confidence = 0.636

 53 54  0  0  0  0  0  0  0  0999 V2000
   -1.3479    0.0062   -1.1135 P   0  0  1  0  0  0  0  0  0  0  0  0
    0.5807   -2.1652    0.3545 P   0  0  2  0  0  0  0  0  0  0  0  0
    2.0581   -0.0083    1.6279 P   0  0  2  0  0  4  0  0  0  0  0  0
    0.6582    2.1839    0.2709 P   0  0  2  0  0  0  0  0  0  0  0  0
   -1.5956   -1.4460   -2.2286 C   0  0  0  0  0  0  0  0  0  0  0  0
   -1.4036   -2.8170   -1.5645 C   0  0  0  0  0  0  0  0  0  0  0  0
    0.0331   -3.1368   -1.1102 C   0  0  0  0  0  0  0  0  0  0  0  0
    2.3485   -2.6400    0.7541 C   0  0  0  0  0  0  0  0  0  0  0  0
    3.1797   -1.3992    1.1229 C   0  0  0  0  0  0  0  0  0  0  0  0
    3.0328    1.5940    1.5514 C   0  0  0  0  0  0  0  0  0  0  0  0
    2.4638    2.5396    0.4822 C   0  0  0  0  0  0  0  0  0  0  0  0
    0.0438    3.1548   -1.1657 C   0  0  0  0  0  0  0  0  0  0  0  0
   -1.4050    2.8237   -1.5710 C   0  0  0  0  0  0  0  0  0  0  0  0
   -1.6006    1.4535   -2.2352 C   0  0  0  0  0  0  0  0  0  0  0  0
   -2.8264    0.0186    0.0030 C   0  0  0  0  0  0  0  0  0  0  0  0
   -2.5843    0.0694    1.3999 C   0  0  0  0  0  0  0  0  0  0  0  0
   -3.6532    0.0881    2.3044 C   0  0  0  0  0  0  0  0  0  0  0  0
   -4.9816    0.0562    1.8406 C   0  0  0  0  0  0  0  0  0  0  0  0
   -5.2545    0.0039    0.4474 C   0  0  0  0  0  0  0  0  0  0  0  0
   -4.1390   -0.0107   -0.3576 C   0  0  0  0  0  3  0  0  0  0  0  0
   -0.4005   -2.7760    1.7777 C   0  0  0  0  0  0  0  0  0  0  0  0
   -0.1615    2.8594    1.7663 C   0  0  0  0  0  0  0  0  0  0  0  0
    1.3699   -0.2070    2.9913 O   0  0  0  0  0  0  0  0  0  0  0  0
   -0.8720   -1.3078   -3.0597 H   0  0  0  0  0  0  0  0  0  0  0  0
   -2.6200   -1.3587   -2.6492 H   0  0  0  0  0  0  0  0  0  0  0  0
   -2.1155   -2.9313   -0.7182 H   0  0  0  0  0  0  0  0  0  0  0  0
   -1.7021   -3.5898   -2.3027 H   0  0  0  0  0  0  0  0  0  0  0  0
    0.1268   -4.2128   -0.8528 H   0  0  0  0  0  0  0  0  0  0  0  0
    0.7612   -2.9160   -1.9186 H   0  0  0  0  0  0  0  0  0  0  0  0
    2.7709   -3.1551   -0.1309 H   0  0  0  0  0  0  0  0  0  0  0  0
    2.3105   -3.3731    1.5841 H   0  0  0  0  0  0  0  0  0  0  0  0
    3.8933   -1.6010    1.9477 H   0  0  0  0  0  0  0  0  0  0  0  0
    3.7442   -1.0301    0.2431 H   0  0  0  0  0  0  0  0  0  0  0  0
    4.1060    1.3795    1.3756 H   0  0  0  0  0  0  0  0  0  0  0  0
    2.9360    2.0116    2.5739 H   0  0  0  0  0  0  0  0  0  0  0  0
    2.6312    3.6095    0.7233 H   0  0  0  0  0  0  0  0  0  0  0  0
    2.9143    2.3282   -0.5089 H   0  0  0  0  0  0  0  0  0  0  0  0
    0.7424    2.9411   -2.0018 H   0  0  0  0  0  0  0  0  0  0  0  0
    0.1417    4.2314   -0.9127 H   0  0  0  0  0  0  0  0  0  0  0  0
   -1.7375    3.5981   -2.2925 H   0  0  0  0  0  0  0  0  0  0  0  0
   -2.0883    2.9236   -0.6992 H   0  0  0  0  0  0  0  0  0  0  0  0
   -2.6279    1.3646   -2.6480 H   0  0  0  0  0  0  0  0  0  0  0  0
   -0.8837    1.3153   -3.0722 H   0  0  0  0  0  0  0  0  0  0  0  0
   -1.5132    0.0869    1.7143 H   0  0  0  0  0  0  0  0  0  0  0  0
   -3.4532    0.1259    3.3858 H   0  0  0  0  0  0  0  0  0  0  0  0
   -5.8246    0.0694    2.5506 H   0  0  0  0  0  0  0  0  0  0  0  0
   -6.2921   -0.0231    0.0777 H   0  0  0  0  0  0  0  0  0  0  0  0
   -0.0516   -2.2115    2.6662 H   0  0  0  0  0  0  0  0  0  0  0  0
   -0.2393   -3.8633    1.9220 H   0  0  0  0  0  0  0  0  0  0  0  0
   -1.4781   -2.5779    1.6218 H   0  0  0  0  0  0  0  0  0  0  0  0
    0.1639    2.2562    2.6379 H   0  0  0  0  0  0  0  0  0  0  0  0
   -1.2603    2.7640    1.6700 H   0  0  0  0  0  0  0  0  0  0  0  0
    0.1061    3.9246    1.9165 H   0  0  0  0  0  0  0  0  0  0  0  0
  1 15  1  1  0  0  0
  2  8  1  0  0  0  0
  2 21  1  1  0  0  0
  3 23  2  1  0  0  0
  4 11  1  0  0  0  0
  4 22  1  1  0  0  0
  5  6  1  0  0  0  0
  5  1  1  0  0  0  0
  6  7  1  0  0  0  0
  6 26  1  0  0  0  0
  7 28  1  0  0  0  0
  7  2  1  0  0  0  0
  8  9  1  0  0  0  0
  8 31  1  0  0  0  0
  9  3  1  0  0  0  0
  9 32  1  0  0  0  0
 10  3  1  0  0  0  0
 10 35  1  0  0  0  0
 11 36  1  0  0  0  0
 11 10  1  0  0  0  0
 12 39  1  0  0  0  0
 12  4  1  0  0  0  0
 13 12  1  0  0  0  0
 13 41  1  0  0  0  0
 14 13  1  0  0  0  0
 14  1  1  0  0  0  0
 15 16  1  0  0  0  0
 16 44  1  0  0  0  0
 16 17  2  0  0  0  0
 17 45  1  0  0  0  0
 18 17  1  0  0  0  0
 18 46  1  0  0  0  0
 19 18  2  0  0  0  0
 20 15  2  0  0  0  0
 20 19  1  0  0  0  0
 21 49  1  0  0  0  0
 21 48  1  0  0  0  0
 22 53  1  0  0  0  0
 22 51  1  0  0  0  0
 24  5  1  0  0  0  0
 25  5  1  0  0  0  0
 27  6  1  0  0  0  0
 29  7  1  0  0  0  0
 30  8  1  0  0  0  0
 33  9  1  0  0  0  0
 34 10  1  0  0  0  0
 37 11  1  0  0  0  0
 38 12  1  0  0  0  0
 40 13  1  0  0  0  0
 42 14  1  0  0  0  0
 43 14  1  0  0  0  0
 47 19  1  0  0  0  0
 50 21  1  0  0  0  0
 52 22  1  0  0  0  0
M  END
