1,2,3,4
 OpenBabel05122313063D

 46 45  0  0  0  0  0  0  0  0999 V2000
   -3.1959   -0.2057   -0.3899 P   0  0  0  0  0  0  0  0  0  0  0  0
   -1.3961    2.1923   -0.6070 P   0  0  0  0  0  0  0  0  0  0  0  0
   -1.4872    0.2027    2.0318 P   0  0  0  0  0  0  0  0  0  0  0  0
   -1.0674   -2.3490   -0.2295 P   0  0  0  0  0  0  0  0  0  0  0  0
   -3.8580    1.0812   -1.5362 C   0  0  0  0  0  0  0  0  0  0  0  0
   -3.2137    2.3981   -1.1069 C   0  0  0  0  0  0  0  0  0  0  0  0
   -0.5289    2.9770   -2.0358 C   0  0  0  0  0  0  0  0  0  0  0  0
   -1.2954    3.6145    0.5841 C   0  0  0  0  0  0  0  0  0  0  0  0
   -4.1273    0.0726    1.2086 C   0  0  0  0  0  0  0  0  0  0  0  0
   -3.2354    0.8906    2.1425 C   0  0  0  0  0  0  0  0  0  0  0  0
   -0.5478    1.3219    3.1640 C   0  0  0  0  0  0  0  0  0  0  0  0
   -1.7607   -1.2282    3.1985 C   0  0  0  0  0  0  0  0  0  0  0  0
   -3.7201   -1.8754   -0.9802 C   0  0  0  0  0  0  0  0  0  0  0  0
   -2.8714   -2.8857   -0.2082 C   0  0  0  0  0  0  0  0  0  0  0  0
   -0.3472   -3.5486    0.9855 C   0  0  0  0  0  0  0  0  0  0  0  0
   -0.4906   -3.1832   -1.7730 C   0  0  0  0  0  0  0  0  0  0  0  0
   -3.5376    0.7879   -2.5538 H   0  0  0  0  0  0  0  0  0  0  0  0
   -4.9658    1.1153   -1.4959 H   0  0  0  0  0  0  0  0  0  0  0  0
   -3.7366    2.8141   -0.2207 H   0  0  0  0  0  0  0  0  0  0  0  0
   -3.2749    3.1692   -1.9010 H   0  0  0  0  0  0  0  0  0  0  0  0
   -0.9855    3.9691   -2.2205 H   0  0  0  0  0  0  0  0  0  0  0  0
    0.5434    3.1081   -1.8091 H   0  0  0  0  0  0  0  0  0  0  0  0
   -0.6361    2.3309   -2.9239 H   0  0  0  0  0  0  0  0  0  0  0  0
   -1.8587    3.4252    1.5159 H   0  0  0  0  0  0  0  0  0  0  0  0
   -0.2403    3.8281    0.8305 H   0  0  0  0  0  0  0  0  0  0  0  0
   -1.7238    4.5115    0.0941 H   0  0  0  0  0  0  0  0  0  0  0  0
   -5.1013    0.5632    1.0068 H   0  0  0  0  0  0  0  0  0  0  0  0
   -4.3528   -0.9214    1.6477 H   0  0  0  0  0  0  0  0  0  0  0  0
   -3.5872    0.8662    3.1942 H   0  0  0  0  0  0  0  0  0  0  0  0
   -3.2094    1.9538    1.8338 H   0  0  0  0  0  0  0  0  0  0  0  0
    0.4429    0.8782    3.3763 H   0  0  0  0  0  0  0  0  0  0  0  0
   -0.3990    2.3089    2.6935 H   0  0  0  0  0  0  0  0  0  0  0  0
   -1.0991    1.4527    4.1164 H   0  0  0  0  0  0  0  0  0  0  0  0
   -0.8128   -1.7078    3.4986 H   0  0  0  0  0  0  0  0  0  0  0  0
   -2.2554   -0.8492    4.1145 H   0  0  0  0  0  0  0  0  0  0  0  0
   -2.4157   -1.9900    2.7359 H   0  0  0  0  0  0  0  0  0  0  0  0
   -4.8100   -2.0287   -0.8422 H   0  0  0  0  0  0  0  0  0  0  0  0
   -3.4953   -1.9077   -2.0656 H   0  0  0  0  0  0  0  0  0  0  0  0
   -2.9570   -3.9110   -0.6227 H   0  0  0  0  0  0  0  0  0  0  0  0
   -3.1906   -2.9407    0.8547 H   0  0  0  0  0  0  0  0  0  0  0  0
   -0.6866   -4.5687    0.7165 H   0  0  0  0  0  0  0  0  0  0  0  0
    0.7566   -3.5176    0.9172 H   0  0  0  0  0  0  0  0  0  0  0  0
   -0.6541   -3.3377    2.0241 H   0  0  0  0  0  0  0  0  0  0  0  0
   -0.9408   -2.7032   -2.6582 H   0  0  0  0  0  0  0  0  0  0  0  0
    0.6077   -3.1029   -1.8566 H   0  0  0  0  0  0  0  0  0  0  0  0
   -0.7757   -4.2522   -1.7164 H   0  0  0  0  0  0  0  0  0  0  0  0
  1  9  1  0  0  0  0
  2  8  1  0  0  0  0
  3 10  1  0  0  0  0
  3 11  1  0  0  0  0
  3 12  1  0  0  0  0
  4 14  1  0  0  0  0
  4 15  1  0  0  0  0
  5 18  1  0  0  0  0
  5  6  1  0  0  0  0
  5  1  1  0  0  0  0
  6  2  1  0  0  0  0
  6 19  1  0  0  0  0
  7 22  1  0  0  0  0
  7  2  1  0  0  0  0
  8 25  1  0  0  0  0
  8 24  1  0  0  0  0
  9 28  1  0  0  0  0
  9 10  1  0  0  0  0
 10 29  1  0  0  0  0
 11 31  1  0  0  0  0
 11 33  1  0  0  0  0
 12 34  1  0  0  0  0
 12 35  1  0  0  0  0
 13 37  1  0  0  0  0
 13  1  1  0  0  0  0
 13 14  1  0  0  0  0
 14 40  1  0  0  0  0
 15 43  1  0  0  0  0
 16 46  1  0  0  0  0
 16  4  1  0  0  0  0
 17  5  1  0  0  0  0
 20  6  1  0  0  0  0
 21  7  1  0  0  0  0
 23  7  1  0  0  0  0
 26  8  1  0  0  0  0
 27  9  1  0  0  0  0
 30 10  1  0  0  0  0
 32 11  1  0  0  0  0
 36 12  1  0  0  0  0
 38 13  1  0  0  0  0
 39 14  1  0  0  0  0
 41 15  1  0  0  0  0
 42 15  1  0  0  0  0
 44 16  1  0  0  0  0
 45 16  1  0  0  0  0
M  END
