1,2,3,4
 OpenBabel05122313063D

 69 70  0  0  0  0  0  0  0  0999 V2000
   -1.5185   -0.9325   -1.7026 P   0  0  0  0  0  0  0  0  0  0  0  0
    0.8931    1.0356   -1.2009 P   0  0  2  0  0  0  0  0  0  0  0  0
   -0.8936    1.3227    0.8717 P   0  0  1  0  0  0  0  0  0  0  0  0
    1.5193   -0.4362    1.8871 P   0  0  0  0  0  0  0  0  0  0  0  0
   -1.2636    0.4936   -2.8855 C   0  0  0  0  0  0  0  0  0  0  0  0
    0.2029    0.9226   -2.9208 C   0  0  0  0  0  0  0  0  0  0  0  0
   -0.0038    2.4385   -0.3420 C   0  0  0  0  0  0  0  0  0  0  0  0
   -0.1950    1.6845    2.5534 C   0  0  0  0  0  0  0  0  0  0  0  0
    1.2718    1.2624    2.6291 C   0  0  0  0  0  0  0  0  0  0  0  0
   -1.2083   -2.4508   -2.7003 C   0  0  0  0  0  0  0  0  0  0  0  0
   -1.5690   -3.7433   -1.9658 C   0  0  0  0  0  0  0  0  0  0  0  0
   -3.3218   -0.9187   -1.3312 C   0  0  0  0  0  0  0  0  0  0  0  0
   -4.2439   -1.1794   -2.5230 C   0  0  0  0  0  0  0  0  0  0  0  0
    2.6536    1.4297   -1.3933 C   0  0  0  0  0  0  0  0  0  0  0  0
    3.4953    0.3811   -1.8320 C   0  0  0  0  0  0  0  0  0  0  0  0
    4.8644    0.6227   -2.0068 C   0  0  0  0  0  0  0  0  0  0  0  0
    5.3995    1.8938   -1.7373 C   0  0  0  0  0  0  0  0  0  0  0  0
    4.5640    2.9321   -1.2951 C   0  0  0  0  0  0  0  0  0  0  0  0
    3.1898    2.7057   -1.1240 C   0  0  0  0  0  0  0  0  0  0  0  0
   -2.6536    1.7551    0.9573 C   0  0  0  0  0  0  0  0  0  0  0  0
   -3.1884    2.9176    0.3650 C   0  0  0  0  0  0  0  0  0  0  0  0
   -4.5616    3.1844    0.4753 C   0  0  0  0  0  0  0  0  0  0  0  0
   -5.3972    2.3001    1.1766 C   0  0  0  0  0  0  0  0  0  0  0  0
   -4.8632    1.1426    1.7679 C   0  0  0  0  0  0  0  0  0  0  0  0
   -3.4951    0.8601    1.6581 C   0  0  0  0  0  0  0  0  0  0  0  0
    3.3219   -0.5340    1.5262 C   0  0  0  0  0  0  0  0  0  0  0  0
    4.2445   -0.4550    2.7432 C   0  0  0  0  0  0  0  0  0  0  0  0
    1.2043   -1.6180    3.2658 C   0  0  0  0  0  0  0  0  0  0  0  0
    1.5599   -3.0644    2.9168 C   0  0  0  0  0  0  0  0  0  0  0  0
   -1.9138    1.3195   -2.5244 H   0  0  0  0  0  0  0  0  0  0  0  0
   -1.6225    0.2217   -3.8989 H   0  0  0  0  0  0  0  0  0  0  0  0
    0.8355    0.1634   -3.4278 H   0  0  0  0  0  0  0  0  0  0  0  0
    0.3623    1.8887   -3.4434 H   0  0  0  0  0  0  0  0  0  0  0  0
   -0.6787    2.9925   -1.0239 H   0  0  0  0  0  0  0  0  0  0  0  0
    0.6641    3.1687    0.1560 H   0  0  0  0  0  0  0  0  0  0  0  0
   -0.8240    1.0925    3.2516 H   0  0  0  0  0  0  0  0  0  0  0  0
   -0.3535    2.7567    2.7928 H   0  0  0  0  0  0  0  0  0  0  0  0
    1.9185    1.9546    2.0479 H   0  0  0  0  0  0  0  0  0  0  0  0
    1.6376    1.2828    3.6758 H   0  0  0  0  0  0  0  0  0  0  0  0
   -0.1249   -2.4357   -2.9377 H   0  0  0  0  0  0  0  0  0  0  0  0
   -1.7751   -2.3343   -3.6489 H   0  0  0  0  0  0  0  0  0  0  0  0
   -1.3038   -4.6159   -2.5947 H   0  0  0  0  0  0  0  0  0  0  0  0
   -1.0111   -3.8199   -1.0135 H   0  0  0  0  0  0  0  0  0  0  0  0
   -2.6519   -3.8075   -1.7401 H   0  0  0  0  0  0  0  0  0  0  0  0
   -3.5293    0.0654   -0.8657 H   0  0  0  0  0  0  0  0  0  0  0  0
   -3.4498   -1.6668   -0.5213 H   0  0  0  0  0  0  0  0  0  0  0  0
   -5.3021   -1.1137   -2.2000 H   0  0  0  0  0  0  0  0  0  0  0  0
   -4.1041   -0.4381   -3.3359 H   0  0  0  0  0  0  0  0  0  0  0  0
   -4.0961   -2.1892   -2.9529 H   0  0  0  0  0  0  0  0  0  0  0  0
    3.0780   -0.6279   -1.9862 H   0  0  0  0  0  0  0  0  0  0  0  0
    5.5206   -0.1927   -2.3455 H   0  0  0  0  0  0  0  0  0  0  0  0
    6.4762    2.0767   -1.8707 H   0  0  0  0  0  0  0  0  0  0  0  0
    4.9824    3.9280   -1.0869 H   0  0  0  0  0  0  0  0  0  0  0  0
    2.5446    3.5328   -0.7911 H   0  0  0  0  0  0  0  0  0  0  0  0
   -2.5429    3.6269   -0.1747 H   0  0  0  0  0  0  0  0  0  0  0  0
   -4.9792    4.0920    0.0149 H   0  0  0  0  0  0  0  0  0  0  0  0
   -6.4730    2.5143    1.2608 H   0  0  0  0  0  0  0  0  0  0  0  0
   -5.5194    0.4461    2.3105 H   0  0  0  0  0  0  0  0  0  0  0  0
   -3.0781   -0.0738    2.0705 H   0  0  0  0  0  0  0  0  0  0  0  0
    3.5321    0.2798    0.8041 H   0  0  0  0  0  0  0  0  0  0  0  0
    3.4460   -1.4790    0.9575 H   0  0  0  0  0  0  0  0  0  0  0  0
    5.3026   -0.4866    2.4147 H   0  0  0  0  0  0  0  0  0  0  0  0
    4.1086    0.4845    3.3165 H   0  0  0  0  0  0  0  0  0  0  0  0
    4.0932   -1.3038    3.4384 H   0  0  0  0  0  0  0  0  0  0  0  0
    0.1214   -1.5336    3.4909 H   0  0  0  0  0  0  0  0  0  0  0  0
    1.7731   -1.2461    4.1450 H   0  0  0  0  0  0  0  0  0  0  0  0
    1.2923   -3.7286    3.7620 H   0  0  0  0  0  0  0  0  0  0  0  0
    1.0010   -3.3990    2.0225 H   0  0  0  0  0  0  0  0  0  0  0  0
    2.6425   -3.1919    2.7181 H   0  0  0  0  0  0  0  0  0  0  0  0
  1 12  1  0  0  0  0
  2  6  1  6  0  0  0
  2  7  1  0  0  0  0
  3  7  1  6  0  0  0
  3 20  1  0  0  0  0
  3  8  1  0  0  0  0
  4  9  1  0  0  0  0
  4 28  1  0  0  0  0
  5 30  1  0  0  0  0
  5  1  1  0  0  0  0
  6  5  1  0  0  0  0
  7 35  1  0  0  0  0
  8  9  1  0  0  0  0
  8 37  1  0  0  0  0
  8 36  1  0  0  0  0
  9 39  1  0  0  0  0
 10 11  1  0  0  0  0
 10  1  1  0  0  0  0
 11 44  1  0  0  0  0
 11 43  1  0  0  0  0
 12 45  1  0  0  0  0
 12 46  1  0  0  0  0
 13 47  1  0  0  0  0
 13 12  1  0  0  0  0
 14  2  1  0  0  0  0
 14 19  1  0  0  0  0
 15 14  2  0  0  0  0
 16 15  1  0  0  0  0
 16 17  2  0  0  0  0
 17 18  1  0  0  0  0
 18 19  2  0  0  0  0
 18 53  1  0  0  0  0
 19 54  1  0  0  0  0
 20 25  1  0  0  0  0
 21 22  1  0  0  0  0
 21 20  2  0  0  0  0
 22 23  2  0  0  0  0
 23 57  1  0  0  0  0
 23 24  1  0  0  0  0
 24 58  1  0  0  0  0
 25 24  2  0  0  0  0
 25 59  1  0  0  0  0
 26  4  1  0  0  0  0
 26 27  1  0  0  0  0
 27 63  1  0  0  0  0
 27 64  1  0  0  0  0
 28 65  1  0  0  0  0
 28 66  1  0  0  0  0
 29 28  1  0  0  0  0
 29 67  1  0  0  0  0
 31  5  1  0  0  0  0
 32  6  1  0  0  0  0
 33  6  1  0  0  0  0
 34  7  1  0  0  0  0
 38  9  1  0  0  0  0
 40 10  1  0  0  0  0
 41 10  1  0  0  0  0
 42 11  1  0  0  0  0
 48 13  1  0  0  0  0
 49 13  1  0  0  0  0
 50 15  1  0  0  0  0
 51 16  1  0  0  0  0
 52 17  1  0  0  0  0
 55 21  1  0  0  0  0
 56 22  1  0  0  0  0
 60 26  1  0  0  0  0
 61 26  1  0  0  0  0
 62 27  1  0  0  0  0
 68 29  1  0  0  0  0
 69 29  1  0  0  0  0
M  END
