1,2,13,24,25,36
q = -2.0, confidence = 0.91

 46 47  0  0  0  0  0  0  0  0999 V2000
    1.9322    1.1234   -1.1476 S   0  0  0  0  0  0  0  0  0  0  0  0
   -1.0134    1.1891   -0.6937 N   0  0  0  0  0  2  0  0  0  0  0  0
   -1.7490    1.0038   -1.8101 C   0  0  0  0  0  3  0  0  0  0  0  0
   -1.5419    0.0875   -2.3814 H   0  0  0  0  0  0  0  0  0  0  0  0
   -2.7222    1.9312   -2.1998 C   0  0  0  0  0  0  0  0  0  0  0  0
   -3.3037    1.7481   -3.1144 H   0  0  0  0  0  0  0  0  0  0  0  0
   -2.9370    3.0748   -1.4121 C   0  0  0  0  0  0  0  0  0  0  0  0
   -3.6930    3.8189   -1.7041 H   0  0  0  0  0  0  0  0  0  0  0  0
   -2.1820    3.2442   -0.2449 C   0  0  0  0  0  0  0  0  0  0  0  0
   -2.2960    4.1001    0.4368 H   0  0  0  0  0  0  0  0  0  0  0  0
   -1.2325    2.2738    0.0917 C   0  0  0  0  0  0  0  0  0  0  0  0
   -0.4197    2.3429    1.3585 C   0  0  0  0  0  0  0  0  0  0  0  0
    0.3340    1.2182    1.4846 N   0  0  0  0  0  2  0  0  0  0  0  0
    1.1983    1.0799    2.6417 C   0  0  0  0  0  0  0  0  0  0  0  0
    0.6877    1.4574    3.5556 H   0  0  0  0  0  0  0  0  0  0  0  0
    2.1141    1.7128    2.5480 H   0  0  0  0  0  0  0  0  0  0  0  0
    1.5658    0.3870   -2.8039 C   0  0  0  0  0  0  0  0  0  0  0  0
    0.7200    0.9980   -3.1765 H   0  0  0  0  0  0  0  0  0  0  0  0
    2.4358    0.5684   -3.4659 H   0  0  0  0  0  0  0  0  0  0  0  0
    3.4738    0.1874   -0.7330 C   0  0  0  0  0  0  0  0  0  0  0  0
    3.5115   -0.7086   -1.3833 H   0  0  0  0  0  0  0  0  0  0  0  0
    4.3371    0.8388   -0.9771 H   0  0  0  0  0  0  0  0  0  0  0  0
   -0.4954    3.2805    2.1574 O   0  0  0  0  0  0  0  0  0  0  0  0
    1.9317   -1.1243    1.1475 S   0  0  0  0  0  0  0  0  0  0  0  0
   -1.0140   -1.1886    0.6937 N   0  0  0  0  0  2  0  0  0  0  0  0
   -1.7494   -1.0030    1.8101 C   0  0  0  0  0  3  0  0  0  0  0  0
   -1.5419   -0.0868    2.3815 H   0  0  0  0  0  0  0  0  0  0  0  0
   -2.7230   -1.9300    2.1998 C   0  0  0  0  0  0  0  0  0  0  0  0
   -3.3044   -1.7466    3.1145 H   0  0  0  0  0  0  0  0  0  0  0  0
   -2.9385   -3.0735    1.4121 C   0  0  0  0  0  0  0  0  0  0  0  0
   -3.6947   -3.8172    1.7041 H   0  0  0  0  0  0  0  0  0  0  0  0
   -2.1835   -3.2431    0.2449 C   0  0  0  0  0  0  0  0  0  0  0  0
   -2.2980   -4.0990   -0.4368 H   0  0  0  0  0  0  0  0  0  0  0  0
   -1.2335   -2.2732   -0.0917 C   0  0  0  0  0  0  0  0  0  0  0  0
   -0.4208   -2.3427   -1.3585 C   0  0  0  0  0  0  0  0  0  0  0  0
    0.3334   -1.2183   -1.4846 N   0  0  0  0  0  2  0  0  0  0  0  0
    1.1978   -1.0804   -2.6417 C   0  0  0  0  0  0  0  0  0  0  0  0
    0.6870   -1.4578   -3.5556 H   0  0  0  0  0  0  0  0  0  0  0  0
    2.1133   -1.7137   -2.5480 H   0  0  0  0  0  0  0  0  0  0  0  0
    1.5656   -0.3878    2.8039 C   0  0  0  0  0  0  0  0  0  0  0  0
    0.7196   -0.9983    3.1765 H   0  0  0  0  0  0  0  0  0  0  0  0
    2.4355   -0.5696    3.4658 H   0  0  0  0  0  0  0  0  0  0  0  0
    3.4738   -0.1890    0.7329 C   0  0  0  0  0  0  0  0  0  0  0  0
    3.5118    0.7070    1.3832 H   0  0  0  0  0  0  0  0  0  0  0  0
    4.3367   -0.8407    0.9770 H   0  0  0  0  0  0  0  0  0  0  0  0
   -0.4970   -3.2803   -2.1574 O   0  0  0  0  0  0  0  0  0  0  0  0
  1 20  1  0  0  0  0
  2 11  1  0  0  0  0
  3  2  1  0  0  0  0
  4  3  1  0  0  0  0
  5  3  1  0  0  0  0
  5  7  2  0  0  0  0
  6  5  1  0  0  0  0
  7  9  1  0  0  0  0
  8  7  1  0  0  0  0
  9 11  2  0  0  0  0
  9 10  1  0  0  0  0
 11 12  1  0  0  0  0
 12 13  1  0  0  0  0
 12 23  2  0  0  0  0
 13 14  1  0  0  0  0
 14 40  1  0  0  0  0
 14 15  1  0  0  0  0
 16 14  1  0  0  0  0
 17 37  1  0  0  0  0
 17  1  1  0  0  0  0
 18 17  1  0  0  0  0
 19 17  1  0  0  0  0
 20 43  1  0  0  0  0
 21 20  1  0  0  0  0
 22 20  1  0  0  0  0
 24 40  1  0  0  0  0
 25 26  1  0  0  0  0
 26 28  1  0  0  0  0
 26 27  1  0  0  0  0
 28 29  1  0  0  0  0
 30 31  1  0  0  0  0
 30 28  2  0  0  0  0
 32 30  1  0  0  0  0
 33 32  1  0  0  0  0
 34 32  2  0  0  0  0
 34 25  1  0  0  0  0
 35 34  1  0  0  0  0
 36 35  1  0  0  0  0
 37 39  1  0  0  0  0
 37 36  1  0  0  0  0
 38 37  1  0  0  0  0
 40 41  1  0  0  0  0
 40 42  1  0  0  0  0
 43 45  1  0  0  0  0
 43 24  1  0  0  0  0
 43 44  1  0  0  0  0
 46 35  2  0  0  0  0
M  END
