1,2,3,34,35,36
 OpenBabel05122313063D

 66 71  0  0  1  0  0  0  0  0999 V2000
    1.2032    2.1269   -1.3246 S   0  0  0  0  0  0  0  0  0  0  0  0
    1.6521    0.5769    1.2732 N   0  0  0  0  0  2  0  0  0  0  0  0
   -0.4656   -1.1463    1.5572 N   0  0  0  0  0  2  0  0  0  0  0  0
    2.3544   -0.0391    3.4385 O   0  0  0  0  0  0  0  0  0  0  0  0
    2.6190    2.2335   -0.2401 C   0  0  0  0  0  0  0  0  0  0  0  0
   -1.5177   -2.0217    1.6399 C   0  0  1  0  0  3  0  0  0  0  0  0
    0.4175   -1.0651    2.5530 C   0  0  0  0  0  0  0  0  0  0  0  0
    1.5908   -0.0962    2.4576 C   0  0  0  0  0  0  0  0  0  0  0  0
    2.6893    1.4510    0.9613 C   0  0  0  0  0  0  0  0  0  0  0  0
   -1.6801   -2.8795    2.7866 C   0  0  0  0  0  0  0  0  0  0  0  0
   -2.4680   -2.0839    0.5829 C   0  0  0  0  0  0  0  0  0  0  0  0
   -2.3402   -1.4007   -0.2674 H   0  0  0  0  0  0  0  0  0  0  0  0
    3.6664    3.0918   -0.6205 C   0  0  0  0  0  0  0  0  0  0  0  0
    3.5685    3.6521   -1.5628 H   0  0  0  0  0  0  0  0  0  0  0  0
    3.8628    1.6211    1.7542 C   0  0  0  0  0  0  0  0  0  0  0  0
    3.9249    1.0535    2.6893 H   0  0  0  0  0  0  0  0  0  0  0  0
    0.1754    3.5375   -0.7396 C   0  0  0  0  0  0  0  0  0  0  0  0
    0.7173    4.4729   -0.9908 H   0  0  0  0  0  0  0  0  0  0  0  0
   -0.7375    3.4932   -1.3696 H   0  0  0  0  0  0  0  0  0  0  0  0
   -2.7815   -3.7804    2.8253 C   0  0  0  0  0  0  0  0  0  0  0  0
   -2.8995   -4.4344    3.7031 H   0  0  0  0  0  0  0  0  0  0  0  0
   -0.7210   -2.7715    3.8338 C   0  0  0  0  0  0  0  0  0  0  0  0
   -0.8229   -3.4126    4.7239 H   0  0  0  0  0  0  0  0  0  0  0  0
    0.3179   -1.8678    3.7236 C   0  0  0  0  0  0  0  0  0  0  0  0
    1.0886   -1.7272    4.4931 H   0  0  0  0  0  0  0  0  0  0  0  0
   -3.5313   -2.9714    0.6545 C   0  0  0  0  0  0  0  0  0  0  0  0
   -4.2628   -3.0075   -0.1667 H   0  0  0  0  0  0  0  0  0  0  0  0
    4.8075    3.2310    0.1777 C   0  0  0  0  0  0  0  0  0  0  0  0
    5.6205    3.9067   -0.1262 H   0  0  0  0  0  0  0  0  0  0  0  0
   -3.6895   -3.8278    1.7774 C   0  0  0  0  0  0  0  0  0  0  0  0
   -4.5393   -4.5257    1.8155 H   0  0  0  0  0  0  0  0  0  0  0  0
    4.8891    2.4873    1.3665 C   0  0  0  0  0  0  0  0  0  0  0  0
    5.7763    2.5808    2.0124 H   0  0  0  0  0  0  0  0  0  0  0  0
   -1.2032    2.1269    1.3246 S   0  0  0  0  0  0  0  0  0  0  0  0
   -1.6521    0.5769   -1.2732 N   0  0  0  0  0  2  0  0  0  0  0  0
    0.4656   -1.1463   -1.5572 N   0  0  0  0  0  2  0  0  0  0  0  0
   -2.3544   -0.0391   -3.4385 O   0  0  0  0  0  0  0  0  0  0  0  0
   -2.6190    2.2335    0.2401 C   0  0  0  0  0  0  0  0  0  0  0  0
    1.5177   -2.0217   -1.6399 C   0  0  0  0  0  0  0  0  0  0  0  0
   -0.4175   -1.0651   -2.5530 C   0  0  0  0  0  0  0  0  0  0  0  0
   -1.5908   -0.0962   -2.4576 C   0  0  0  0  0  0  0  0  0  0  0  0
   -2.6893    1.4510   -0.9613 C   0  0  0  0  0  0  0  0  0  0  0  0
    1.6801   -2.8795   -2.7866 C   0  0  0  0  0  0  0  0  0  0  0  0
    2.4680   -2.0839   -0.5829 C   0  0  0  0  0  0  0  0  0  0  0  0
    2.3402   -1.4006    0.2674 H   0  0  0  0  0  0  0  0  0  0  0  0
   -3.6664    3.0918    0.6205 C   0  0  0  0  0  0  0  0  0  0  0  0
   -3.5685    3.6521    1.5628 H   0  0  0  0  0  0  0  0  0  0  0  0
   -3.8628    1.6211   -1.7542 C   0  0  0  0  0  0  0  0  0  0  0  0
   -3.9249    1.0535   -2.6893 H   0  0  0  0  0  0  0  0  0  0  0  0
   -0.1754    3.5375    0.7396 C   0  0  0  0  0  0  0  0  0  0  0  0
   -0.7173    4.4729    0.9908 H   0  0  0  0  0  0  0  0  0  0  0  0
    0.7375    3.4932    1.3696 H   0  0  0  0  0  0  0  0  0  0  0  0
    2.7815   -3.7804   -2.8253 C   0  0  0  0  0  3  0  0  0  0  0  0
    2.8995   -4.4344   -3.7031 H   0  0  0  0  0  0  0  0  0  0  0  0
    0.7210   -2.7715   -3.8338 C   0  0  0  0  0  0  0  0  0  0  0  0
    0.8229   -3.4126   -4.7239 H   0  0  0  0  0  0  0  0  0  0  0  0
   -0.3179   -1.8678   -3.7236 C   0  0  0  0  0  0  0  0  0  0  0  0
   -1.0886   -1.7272   -4.4931 H   0  0  0  0  0  0  0  0  0  0  0  0
    3.5313   -2.9714   -0.6545 C   0  0  0  0  0  0  0  0  0  0  0  0
    4.2628   -3.0075    0.1667 H   0  0  0  0  0  0  0  0  0  0  0  0
   -4.8075    3.2310   -0.1777 C   0  0  0  0  0  0  0  0  0  0  0  0
   -5.6205    3.9067    0.1262 H   0  0  0  0  0  0  0  0  0  0  0  0
    3.6895   -3.8278   -1.7773 C   0  0  0  0  0  0  0  0  0  0  0  0
    4.5393   -4.5257   -1.8155 H   0  0  0  0  0  0  0  0  0  0  0  0
   -4.8891    2.4873   -1.3665 C   0  0  0  0  0  0  0  0  0  0  0  0
   -5.7763    2.5808   -2.0124 H   0  0  0  0  0  0  0  0  0  0  0  0
  1 17  1  0  0  0  0
  1  5  1  0  0  0  0
  2  8  1  0  0  0  0
  3  6  1  0  0  0  0
  3  7  1  0  0  0  0
  5  9  1  0  0  0  0
  6 11  1  1  0  0  0
  6 10  1  0  0  0  0
  7 24  2  0  0  0  0
  8  7  1  0  0  0  0
  8  4  2  0  0  0  0
  9  2  1  0  0  0  0
  9 15  2  0  0  0  0
 10 20  1  0  0  0  0
 10 22  2  0  0  0  0
 11 26  2  0  0  0  0
 12 11  1  0  0  0  0
 13  5  2  0  0  0  0
 13 28  1  0  0  0  0
 14 13  1  0  0  0  0
 15 16  1  0  0  0  0
 17 50  1  0  0  0  0
 18 17  1  0  0  0  0
 19 17  1  0  0  0  0
 20 21  1  0  0  0  0
 22 23  1  0  0  0  0
 24 22  1  0  0  0  0
 24 25  1  0  0  0  0
 26 30  1  0  0  0  0
 27 26  1  0  0  0  0
 28 32  2  0  0  0  0
 29 28  1  0  0  0  0
 30 31  1  0  0  0  0
 30 20  2  0  0  0  0
 32 15  1  0  0  0  0
 32 33  1  0  0  0  0
 35 42  1  0  0  0  0
 37 41  2  0  0  0  0
 38 46  1  0  0  0  0
 38 34  1  0  0  0  0
 39 36  1  0  0  0  0
 39 44  2  0  0  0  0
 40 41  1  0  0  0  0
 40 36  1  0  0  0  0
 41 35  1  0  0  0  0
 42 38  2  0  0  0  0
 43 39  1  0  0  0  0
 44 45  1  0  0  0  0
 46 47  1  0  0  0  0
 48 65  2  0  0  0  0
 48 42  1  0  0  0  0
 49 48  1  0  0  0  0
 50 51  1  0  0  0  0
 50 34  1  0  0  0  0
 50 52  1  0  0  0  0
 53 43  1  0  0  0  0
 53 63  1  0  0  0  0
 54 53  1  0  0  0  0
 55 57  1  0  0  0  0
 55 43  2  0  0  0  0
 56 55  1  0  0  0  0
 57 40  2  0  0  0  0
 58 57  1  0  0  0  0
 59 44  1  0  0  0  0
 59 60  1  0  0  0  0
 61 62  1  0  0  0  0
 61 46  2  0  0  0  0
 63 59  2  0  0  0  0
 64 63  1  0  0  0  0
 65 61  1  0  0  0  0
 66 65  1  0  0  0  0
M  END
