1,2,3,4,6,8
 OpenBabel05122313063D

 54 57  0  0  1  0  0  0  0  0999 V2000
   -0.6933   -1.6484    1.6323 S   0  0  0  0  0  0  0  0  0  0  0  0
    0.6930   -1.6490   -1.6320 S   0  0  0  0  0  0  0  0  0  0  0  0
    0.0317    1.6587    1.5444 N   0  0  0  0  0  2  0  0  0  0  0  0
   -0.0317    1.6589   -1.5444 N   0  0  0  0  0  2  0  0  0  0  0  0
    2.8839   -0.8267   -0.0622 C   0  0  0  0  0  0  0  0  0  0  0  0
    2.0225    0.0968    0.5178 N   0  0  0  0  0  2  0  0  0  0  0  0
    2.4121    0.9618    1.4997 C   0  0  0  0  0  0  0  0  0  0  0  0
   -2.0225    0.0970   -0.5179 N   0  0  0  0  0  2  0  0  0  0  0  0
   -1.2748    1.8230   -2.0387 C   0  0  2  0  0  3  0  0  0  0  0  0
    0.0745   -3.0732    0.7567 C   0  0  0  0  0  0  0  0  0  0  0  0
    1.1435   -3.0337    1.0545 H   0  0  0  0  0  0  0  0  0  0  0  0
   -0.3616   -4.0044    1.1743 H   0  0  0  0  0  0  0  0  0  0  0  0
   -0.0742   -3.0736   -0.7555 C   0  0  0  0  0  0  0  0  0  0  0  0
   -1.1432   -3.0347   -1.0533 H   0  0  0  0  0  0  0  0  0  0  0  0
    0.3624   -4.0049   -1.1726 H   0  0  0  0  0  0  0  0  0  0  0  0
    3.5361    1.1342    2.0037 O   0  0  0  0  0  0  0  0  0  0  0  0
    3.2308   -2.6720   -1.6847 C   0  0  0  0  0  0  0  0  0  0  0  0
    2.8086   -3.3179   -2.4700 H   0  0  0  0  0  0  0  0  0  0  0  0
    2.3909   -1.7253   -1.0700 C   0  0  0  0  0  0  0  0  0  0  0  0
   -2.3910   -1.7252    1.0697 C   0  0  0  0  0  0  0  0  0  0  0  0
    4.5748   -2.7906   -1.3137 C   0  0  0  0  0  0  0  0  0  0  0  0
    5.2219   -3.5370   -1.7975 H   0  0  0  0  0  0  0  0  0  0  0  0
   -4.2619   -0.9674   -0.2827 C   0  0  0  0  0  0  0  0  0  0  0  0
   -4.6564   -0.2903   -1.0490 H   0  0  0  0  0  0  0  0  0  0  0  0
   -2.8838   -0.8268    0.0618 C   0  0  0  0  0  0  0  0  0  0  0  0
    5.0763   -1.9265   -0.3258 C   0  0  0  0  0  0  0  0  0  0  0  0
    6.1327   -1.9951   -0.0218 H   0  0  0  0  0  0  0  0  0  0  0  0
   -3.2308   -2.6722    1.6840 C   0  0  0  0  0  0  0  0  0  0  0  0
   -2.8087   -3.3180    2.4695 H   0  0  0  0  0  0  0  0  0  0  0  0
    4.2622   -0.9670    0.2817 C   0  0  0  0  0  0  0  0  0  0  0  0
    4.6567   -0.2899    1.0480 H   0  0  0  0  0  0  0  0  0  0  0  0
   -3.5362    1.1348   -2.0033 O   0  0  0  0  0  0  0  0  0  0  0  0
   -0.4814    3.5337   -3.5471 C   0  0  0  0  0  0  0  0  0  0  0  0
   -0.6581    4.2759   -4.3407 H   0  0  0  0  0  0  0  0  0  0  0  0
    1.2747    1.8224    2.0390 C   0  0  2  0  0  3  0  0  0  0  0  0
    0.4812    3.5325    3.5480 C   0  0  0  0  0  0  0  0  0  0  0  0
    0.6578    4.2744    4.3420 H   0  0  0  0  0  0  0  0  0  0  0  0
   -2.4122    0.9622   -1.4995 C   0  0  0  0  0  0  0  0  0  0  0  0
   -5.0760   -1.9272    0.3245 C   0  0  0  0  0  0  0  0  0  0  0  0
   -6.1323   -1.9961    0.0201 H   0  0  0  0  0  0  0  0  0  0  0  0
    1.5384    2.7609    3.0522 C   0  0  0  0  0  0  0  0  0  0  0  0
    2.5724    2.8445    3.4145 H   0  0  0  0  0  0  0  0  0  0  0  0
   -1.5386    2.7620   -3.0515 C   0  0  0  0  0  0  0  0  0  0  0  0
   -2.5726    2.8458   -3.4135 H   0  0  0  0  0  0  0  0  0  0  0  0
   -0.9890    2.3937    2.0144 C   0  0  0  0  0  0  0  0  0  0  0  0
   -1.9750    2.1982    1.5604 H   0  0  0  0  0  0  0  0  0  0  0  0
    0.9890    2.3940   -2.0143 C   0  0  0  0  0  0  0  0  0  0  0  0
    1.9751    2.1982   -1.5605 H   0  0  0  0  0  0  0  0  0  0  0  0
   -0.8094    3.3487    3.0233 C   0  0  0  0  0  0  0  0  0  0  0  0
   -1.6659    3.9332    3.3885 H   0  0  0  0  0  0  0  0  0  0  0  0
   -4.5746   -2.7912    1.3125 C   0  0  0  0  0  0  0  0  0  0  0  0
   -5.2217   -3.5378    1.7960 H   0  0  0  0  0  0  0  0  0  0  0  0
    0.8093    3.3495   -3.0227 C   0  0  0  0  0  0  0  0  0  0  0  0
    1.6658    3.9341   -3.3877 H   0  0  0  0  0  0  0  0  0  0  0  0
  2 19  1  0  0  0  0
  2 13  1  0  0  0  0
  3 45  1  0  0  0  0
  3 35  1  0  0  0  0
  5 30  1  0  0  0  0
  5  6  1  0  0  0  0
  6  7  1  0  0  0  0
  7 16  2  0  0  0  0
  8 25  1  0  0  0  0
  9  4  1  0  0  0  0
  9 38  1  6  0  0  0
 10 11  1  0  0  0  0
 10 12  1  0  0  0  0
 10  1  1  0  0  0  0
 13 10  1  0  0  0  0
 14 13  1  0  0  0  0
 15 13  1  0  0  0  0
 17 21  2  0  0  0  0
 17 19  1  0  0  0  0
 18 17  1  0  0  0  0
 19  5  2  0  0  0  0
 20  1  1  0  0  0  0
 20 28  1  0  0  0  0
 21 26  1  0  0  0  0
 22 21  1  0  0  0  0
 23 25  1  0  0  0  0
 23 39  2  0  0  0  0
 24 23  1  0  0  0  0
 25 20  2  0  0  0  0
 26 27  1  0  0  0  0
 26 30  2  0  0  0  0
 28 29  1  0  0  0  0
 30 31  1  0  0  0  0
 32 38  2  0  0  0  0
 33 43  2  0  0  0  0
 33 53  1  0  0  0  0
 34 33  1  0  0  0  0
 35  7  1  1  0  0  0
 35 41  1  0  0  0  0
 36 37  1  0  0  0  0
 38  8  1  0  0  0  0
 39 51  1  0  0  0  0
 40 39  1  0  0  0  0
 41 42  1  0  0  0  0
 41 36  2  0  0  0  0
 43  9  1  0  0  0  0
 44 43  1  0  0  0  0
 45 49  2  0  0  0  0
 46 45  1  0  0  0  0
 47 48  1  0  0  0  0
 47  4  1  0  0  0  0
 49 50  1  0  0  0  0
 49 36  1  0  0  0  0
 51 28  2  0  0  0  0
 51 52  1  0  0  0  0
 53 47  2  0  0  0  0
 54 53  1  0  0  0  0
M  END
