1,2,4,5,8,9
 OpenBabel05122313063D

 59 62  0  0  1  0  0  0  0  0999 V2000
    1.8793   -2.2351   -0.0154 S   0  0  0  0  0  0  0  0  0  0  0  0
   -1.8050   -1.8499    1.3275 S   0  0  0  0  0  0  0  0  0  0  0  0
    1.0264    4.5344   -1.7468 O   0  0  0  0  0  0  0  0  0  0  0  0
    1.0357   -0.1224    2.0797 N   0  0  0  0  0  2  0  0  0  0  0  0
    1.3629    0.7278   -0.7535 N   0  0  0  0  0  2  0  0  0  0  0  0
    1.1558    1.9710   -1.0303 N   0  0  0  0  0  0  0  0  0  0  0  0
   -1.1899    2.2031   -0.2677 N   0  0  0  0  0  2  0  0  0  0  0  0
   -1.3800    1.0117    0.2124 N   0  0  0  0  0  2  0  0  0  0  0  0
   -0.9871   -1.3370   -1.6037 N   0  0  0  0  0  2  0  0  0  0  0  0
    0.7579    1.0270    2.7255 C   0  0  0  0  0  3  0  0  0  0  0  0
   -0.1193    1.5866    2.3624 H   0  0  0  0  0  0  0  0  0  0  0  0
    1.5372    1.5031    3.7850 C   0  0  0  0  0  0  0  0  0  0  0  0
    1.2750    2.4477    4.2818 H   0  0  0  0  0  0  0  0  0  0  0  0
    2.6587    0.7568    4.1736 C   0  0  0  0  0  0  0  0  0  0  0  0
    3.3086    1.1036    4.9907 H   0  0  0  0  0  0  0  0  0  0  0  0
    2.9468   -0.4370    3.4989 C   0  0  0  0  0  0  0  0  0  0  0  0
    3.8196   -1.0457    3.7770 H   0  0  0  0  0  0  0  0  0  0  0  0
    2.1029   -0.8572    2.4563 C   0  0  0  0  0  0  0  0  0  0  0  0
    2.3456   -2.1770    1.7607 C   0  0  0  0  0  0  0  0  0  0  0  0
    1.7193   -2.9726    2.2211 H   0  0  0  0  0  0  0  0  0  0  0  0
    3.4022   -2.4908    1.8624 H   0  0  0  0  0  0  0  0  0  0  0  0
    3.0354   -1.0696   -0.7487 C   0  0  0  0  0  0  0  0  0  0  0  0
    4.3266   -1.5352   -1.0569 C   0  0  0  0  0  0  0  0  0  0  0  0
    4.5855   -2.5817   -0.8365 H   0  0  0  0  0  0  0  0  0  0  0  0
    5.2668   -0.6789   -1.6444 C   0  0  0  0  0  0  0  0  0  0  0  0
    6.2742   -1.0515   -1.8803 H   0  0  0  0  0  0  0  0  0  0  0  0
    4.9090    0.6503   -1.9405 C   0  0  0  0  0  0  0  0  0  0  0  0
    5.6417    1.3259   -2.4066 H   0  0  0  0  0  0  0  0  0  0  0  0
    3.6269    1.1202   -1.6536 C   0  0  0  0  0  0  0  0  0  0  0  0
    3.3134    2.1520   -1.8718 H   0  0  0  0  0  0  0  0  0  0  0  0
    2.6665    0.2701   -1.0551 C   0  0  0  0  0  0  0  0  0  0  0  0
   -0.0175    2.6074   -0.8058 C   0  0  0  0  0  0  0  0  0  0  0  0
    0.0117    4.0596   -1.2617 C   0  0  0  0  0  0  0  0  0  0  0  0
   -1.2590    4.8661   -1.0837 C   0  0  0  0  0  0  0  0  0  0  0  0
   -1.0854    5.8889   -1.4620 H   0  0  0  0  0  0  0  0  0  0  0  0
   -1.5584    4.9020   -0.0168 H   0  0  0  0  0  0  0  0  0  0  0  0
   -2.1040    4.3977   -1.6274 H   0  0  0  0  0  0  0  0  0  0  0  0
   -2.6819    0.7624    0.6961 C   0  0  0  0  0  0  0  0  0  0  0  0
   -3.6929    1.7538    0.6778 C   0  0  0  0  0  0  0  0  0  0  0  0
   -3.4271    2.7388    0.2712 H   0  0  0  0  0  0  0  0  0  0  0  0
   -4.9749    1.4819    1.1565 C   0  0  0  0  0  0  0  0  0  0  0  0
   -5.7412    2.2711    1.1311 H   0  0  0  0  0  0  0  0  0  0  0  0
   -5.2905    0.2123    1.6753 C   0  0  0  0  0  0  0  0  0  0  0  0
   -6.2977    0.0001    2.0621 H   0  0  0  0  0  0  0  0  0  0  0  0
   -4.3039   -0.7805    1.7101 C   0  0  0  0  0  0  0  0  0  0  0  0
   -4.5261   -1.7724    2.1318 H   0  0  0  0  0  0  0  0  0  0  0  0
   -3.0122   -0.5227    1.2158 C   0  0  0  0  0  0  0  0  0  0  0  0
   -2.2199   -2.8760   -0.1390 C   0  0  0  0  0  0  0  0  0  0  0  0
   -1.5490   -3.7575   -0.0385 H   0  0  0  0  0  0  0  0  0  0  0  0
   -3.2598   -3.2412   -0.0368 H   0  0  0  0  0  0  0  0  0  0  0  0
   -2.0079   -2.2102   -1.4793 C   0  0  2  0  0  3  0  0  0  0  0  0
   -2.8298   -2.5330   -2.5728 C   0  0  0  0  0  0  0  0  0  0  0  0
   -3.6651   -3.2365   -2.4427 H   0  0  0  0  0  0  0  0  0  0  0  0
   -2.5670   -1.9519   -3.8206 C   0  0  0  0  0  0  0  0  0  0  0  0
   -3.1994   -2.1910   -4.6886 H   0  0  0  0  0  0  0  0  0  0  0  0
   -1.4938   -1.0578   -3.9415 C   0  0  0  0  0  0  0  0  0  0  0  0
   -1.2528   -0.5745   -4.8986 H   0  0  0  0  0  0  0  0  0  0  0  0
   -0.7345   -0.7740   -2.8013 C   0  0  0  0  0  0  0  0  0  0  0  0
    0.1040   -0.0598   -2.8352 H   0  0  0  0  0  0  0  0  0  0  0  0
  1 19  1  0  0  0  0
  3 33  2  0  0  0  0
  4 18  1  0  0  0  0
  4 10  1  0  0  0  0
  6 32  2  0  0  0  0
  6  5  1  0  0  0  0
  7  8  1  0  0  0  0
  8 38  1  0  0  0  0
  9 51  1  0  0  0  0
 10 12  1  0  0  0  0
 11 10  1  0  0  0  0
 12 14  2  0  0  0  0
 12 13  1  0  0  0  0
 14 15  1  0  0  0  0
 16 17  1  0  0  0  0
 16 14  1  0  0  0  0
 18 16  2  0  0  0  0
 19 21  1  0  0  0  0
 19 20  1  0  0  0  0
 19 18  1  0  0  0  0
 22  1  1  0  0  0  0
 23 24  1  0  0  0  0
 23 22  2  0  0  0  0
 25 23  1  0  0  0  0
 26 25  1  0  0  0  0
 27 29  1  0  0  0  0
 27 25  2  0  0  0  0
 28 27  1  0  0  0  0
 29 31  2  0  0  0  0
 30 29  1  0  0  0  0
 31  5  1  0  0  0  0
 31 22  1  0  0  0  0
 32  7  1  0  0  0  0
 33 34  1  0  0  0  0
 33 32  1  0  0  0  0
 34 36  1  0  0  0  0
 35 34  1  0  0  0  0
 37 34  1  0  0  0  0
 38 47  1  0  0  0  0
 39 38  2  0  0  0  0
 39 41  1  0  0  0  0
 40 39  1  0  0  0  0
 41 43  2  0  0  0  0
 42 41  1  0  0  0  0
 43 45  1  0  0  0  0
 43 44  1  0  0  0  0
 45 46  1  0  0  0  0
 47  2  1  0  0  0  0
 47 45  2  0  0  0  0
 48 49  1  0  0  0  0
 48 50  1  0  0  0  0
 48  2  1  0  0  0  0
 51 48  1  6  0  0  0
 52 53  1  0  0  0  0
 52 51  1  0  0  0  0
 54 52  2  0  0  0  0
 55 54  1  0  0  0  0
 56 54  1  0  0  0  0
 56 58  2  0  0  0  0
 57 56  1  0  0  0  0
 58  9  1  0  0  0  0
 59 58  1  0  0  0  0
M  END
