1,2,3
q = -1.0, confidence = 0.012

 67 68  0  0  0  0  0  0  0  0999 V2000
    2.1439   -0.4231   -0.0995 P   0  0  0  0  0  0  0  0  0  0  0  0
   -2.1525   -0.4377    0.0170 P   0  0  0  0  0  0  0  0  0  0  0  0
   -0.0026    1.4812    0.7132 Si  0  0  0  0  0  3  0  0  0  0  0  0
   -0.0789    1.8943    2.5784 C   0  0  0  0  0  0  0  0  0  0  0  0
   -0.0773    2.9986    2.7005 H   0  0  0  0  0  0  0  0  0  0  0  0
    0.7944    1.4847    3.1218 H   0  0  0  0  0  0  0  0  0  0  0  0
   -1.0013    1.4980    3.0441 H   0  0  0  0  0  0  0  0  0  0  0  0
    1.6189    2.2856    0.1086 C   0  0  0  0  0  0  0  0  0  0  0  0
    2.6418    1.3599   -0.2149 C   0  0  0  0  0  0  0  0  0  0  0  0
    3.9155    1.8151   -0.6153 C   0  0  0  0  0  0  0  0  0  0  0  0
    4.7112    1.1021   -0.8788 H   0  0  0  0  0  0  0  0  0  0  0  0
    4.1766    3.1911   -0.6947 C   0  0  0  0  0  0  0  0  0  0  0  0
    5.1692    3.5428   -1.0154 H   0  0  0  0  0  0  0  0  0  0  0  0
    3.1725    4.1171   -0.3659 C   0  0  0  0  0  0  0  0  0  0  0  0
    3.3793    5.1969   -0.4272 H   0  0  0  0  0  0  0  0  0  0  0  0
    1.9075    3.6647    0.0391 C   0  0  0  0  0  0  0  0  0  0  0  0
    1.1357    4.4044    0.3062 H   0  0  0  0  0  0  0  0  0  0  0  0
   -1.6023    2.2702    0.0263 C   0  0  0  0  0  0  0  0  0  0  0  0
   -2.6610    1.3375   -0.1123 C   0  0  0  0  0  0  0  0  0  0  0  0
   -3.9745    1.7784   -0.3737 C   0  0  0  0  0  0  0  0  0  0  0  0
   -4.8060    1.0606   -0.4393 H   0  0  0  0  0  0  0  0  0  0  0  0
   -4.2300    3.1459   -0.5569 C   0  0  0  0  0  0  0  0  0  0  0  0
   -5.2535    3.4884   -0.7739 H   0  0  0  0  0  0  0  0  0  0  0  0
   -3.1794    4.0748   -0.4682 C   0  0  0  0  0  0  0  0  0  0  0  0
   -3.3799    5.1466   -0.6222 H   0  0  0  0  0  0  0  0  0  0  0  0
   -1.8807    3.6397   -0.1617 C   0  0  0  0  0  0  0  0  0  0  0  0
   -1.0758    4.3852   -0.0620 H   0  0  0  0  0  0  0  0  0  0  0  0
    2.6221   -0.7859    2.6210 C   0  0  0  0  0  0  0  0  0  0  0  0
    3.1633   -1.3108    3.4356 H   0  0  0  0  0  0  0  0  0  0  0  0
    1.5454   -1.0364    2.7024 H   0  0  0  0  0  0  0  0  0  0  0  0
    2.7398    0.3052    2.7865 H   0  0  0  0  0  0  0  0  0  0  0  0
    3.1781   -1.2036    1.2566 C   0  0  0  0  0  0  0  0  0  0  0  0
    2.9446   -2.2812    1.1074 H   0  0  0  0  0  0  0  0  0  0  0  0
    4.6859   -0.9706    1.1511 C   0  0  0  0  0  0  0  0  0  0  0  0
    5.2156   -1.5743    1.9179 H   0  0  0  0  0  0  0  0  0  0  0  0
    4.9410    0.0927    1.3350 H   0  0  0  0  0  0  0  0  0  0  0  0
    5.0981   -1.2574    0.1631 H   0  0  0  0  0  0  0  0  0  0  0  0
    3.1407   -2.6105   -1.6943 C   0  0  0  0  0  0  0  0  0  0  0  0
    3.5290   -2.9177   -2.6882 H   0  0  0  0  0  0  0  0  0  0  0  0
    2.2223   -3.1927   -1.4805 H   0  0  0  0  0  0  0  0  0  0  0  0
    3.9042   -2.8866   -0.9411 H   0  0  0  0  0  0  0  0  0  0  0  0
    2.8458   -1.1088   -1.7106 C   0  0  0  0  0  0  0  0  0  0  0  0
    3.8017   -0.5556   -1.8405 H   0  0  0  0  0  0  0  0  0  0  0  0
    1.9022   -0.7287   -2.8562 C   0  0  0  0  0  0  0  0  0  0  0  0
    2.3680   -0.9646   -3.8356 H   0  0  0  0  0  0  0  0  0  0  0  0
    1.6465    0.3504   -2.8483 H   0  0  0  0  0  0  0  0  0  0  0  0
    0.9610   -1.3080   -2.7759 H   0  0  0  0  0  0  0  0  0  0  0  0
   -3.0841   -0.4927    2.6371 C   0  0  0  0  0  0  0  0  0  0  0  0
   -3.8177   -0.8546    3.3869 H   0  0  0  0  0  0  0  0  0  0  0  0
   -3.1575    0.6123    2.5936 H   0  0  0  0  0  0  0  0  0  0  0  0
   -2.0694   -0.7584    2.9992 H   0  0  0  0  0  0  0  0  0  0  0  0
   -3.3550   -1.1410    1.2749 C   0  0  0  0  0  0  0  0  0  0  0  0
   -4.3608   -0.8214    0.9209 H   0  0  0  0  0  0  0  0  0  0  0  0
   -3.3046   -2.6691    1.3568 C   0  0  0  0  0  0  0  0  0  0  0  0
   -4.0513   -3.0274    2.0964 H   0  0  0  0  0  0  0  0  0  0  0  0
   -2.3000   -3.0165    1.6684 H   0  0  0  0  0  0  0  0  0  0  0  0
   -3.5257   -3.1568    0.3875 H   0  0  0  0  0  0  0  0  0  0  0  0
   -4.1190   -1.3598   -1.9167 C   0  0  0  0  0  0  0  0  0  0  0  0
   -4.2573   -1.9128   -2.8698 H   0  0  0  0  0  0  0  0  0  0  0  0
   -4.6301   -0.3835   -2.0352 H   0  0  0  0  0  0  0  0  0  0  0  0
   -4.6399   -1.9343   -1.1264 H   0  0  0  0  0  0  0  0  0  0  0  0
   -2.6231   -1.1859   -1.6460 C   0  0  0  0  0  0  0  0  0  0  0  0
   -2.1348   -2.1834   -1.5764 H   0  0  0  0  0  0  0  0  0  0  0  0
   -1.9382   -0.3778   -2.7540 C   0  0  0  0  0  0  0  0  0  0  0  0
   -2.0375   -0.8982   -3.7291 H   0  0  0  0  0  0  0  0  0  0  0  0
   -0.8603   -0.2403   -2.5427 H   0  0  0  0  0  0  0  0  0  0  0  0
   -2.3914    0.6297   -2.8540 H   0  0  0  0  0  0  0  0  0  0  0  0
  1 32  1  0  0  0  0
  2 52  1  0  0  0  0
  3  4  1  0  0  0  0
  4  5  1  0  0  0  0
  4  7  1  0  0  0  0
  4  6  1  0  0  0  0
  8  3  1  0  0  0  0
  9  1  1  0  0  0  0
  9  8  2  0  0  0  0
 10  9  1  0  0  0  0
 11 10  1  0  0  0  0
 12 10  2  0  0  0  0
 12 14  1  0  0  0  0
 13 12  1  0  0  0  0
 14 16  2  0  0  0  0
 15 14  1  0  0  0  0
 16  8  1  0  0  0  0
 16 17  1  0  0  0  0
 18  3  1  0  0  0  0
 19  2  1  0  0  0  0
 19 18  1  0  0  0  0
 20 19  2  0  0  0  0
 21 20  1  0  0  0  0
 22 24  2  0  0  0  0
 22 20  1  0  0  0  0
 23 22  1  0  0  0  0
 24 26  1  0  0  0  0
 25 24  1  0  0  0  0
 26 27  1  0  0  0  0
 26 18  2  0  0  0  0
 28 30  1  0  0  0  0
 28 31  1  0  0  0  0
 28 29  1  0  0  0  0
 32 28  1  0  0  0  0
 33 32  1  0  0  0  0
 34 32  1  0  0  0  0
 34 36  1  0  0  0  0
 34 35  1  0  0  0  0
 37 34  1  0  0  0  0
 38 40  1  0  0  0  0
 38 41  1  0  0  0  0
 39 38  1  0  0  0  0
 42 38  1  0  0  0  0
 42  1  1  0  0  0  0
 43 42  1  0  0  0  0
 44 46  1  0  0  0  0
 44 47  1  0  0  0  0
 44 42  1  0  0  0  0
 45 44  1  0  0  0  0
 48 51  1  0  0  0  0
 48 49  1  0  0  0  0
 50 48  1  0  0  0  0
 52 54  1  0  0  0  0
 52 48  1  0  0  0  0
 53 52  1  0  0  0  0
 54 56  1  0  0  0  0
 54 55  1  0  0  0  0
 57 54  1  0  0  0  0
 58 62  1  0  0  0  0
 58 61  1  0  0  0  0
 59 58  1  0  0  0  0
 60 58  1  0  0  0  0
 62 63  1  0  0  0  0
 62  2  1  0  0  0  0
 64 66  1  0  0  0  0
 64 62  1  0  0  0  0
 65 64  1  0  0  0  0
 67 64  1  0  0  0  0
M  END
