1,2,3
q = -1.0, confidence = 0.006

 71 76  0  0  0  0  0  0  0  0999 V2000
   -2.1250   -0.0365    0.2160 P   0  0  0  0  0  0  0  0  0  0  0  0
    2.0125   -0.1056    0.1560 P   0  0  0  0  0  0  0  0  0  0  0  0
    0.0046    1.9884    0.5628 Si  0  0  0  0  0  3  0  0  0  0  0  0
    0.4031    2.8063    2.2357 C   0  0  0  0  0  0  0  0  0  0  0  0
   -1.6935    2.6597    0.0009 C   0  0  0  0  0  0  0  0  0  0  0  0
   -2.0327    4.0057   -0.2539 C   0  0  0  0  0  0  0  0  0  0  0  0
   -3.3510    4.3648   -0.5751 C   0  0  0  0  0  0  0  0  0  0  0  0
   -4.3569    3.3838   -0.6353 C   0  0  0  0  0  0  0  0  0  0  0  0
   -4.0443    2.0402   -0.3830 C   0  0  0  0  0  0  0  0  0  0  0  0
   -2.7174    1.6851   -0.0764 C   0  0  0  0  0  0  0  0  0  0  0  0
   -3.4376   -0.8935    1.1662 C   0  0  0  0  0  0  0  0  0  0  0  0
   -3.1978   -1.1393    2.5322 C   0  0  0  0  0  0  0  0  0  0  0  0
   -4.1837   -1.7549    3.3168 C   0  0  0  0  0  0  0  0  0  0  0  0
   -5.4054   -2.1379    2.7404 C   0  0  0  0  0  0  0  0  0  0  0  0
   -5.6384   -1.9159    1.3730 C   0  0  0  0  0  0  0  0  0  0  0  0
   -4.6557   -1.2997    0.5838 C   0  0  0  0  0  0  0  0  0  0  0  0
   -2.1680   -0.8242   -1.4460 C   0  0  0  0  0  0  0  0  0  0  0  0
   -2.0907   -0.0529   -2.6232 C   0  0  0  0  0  0  0  0  0  0  0  0
   -1.9891   -0.6858   -3.8719 C   0  0  0  0  0  0  0  0  0  0  0  0
   -1.9656   -2.0870   -3.9542 C   0  0  0  0  0  0  0  0  0  0  0  0
   -2.0365   -2.8575   -2.7803 C   0  0  0  0  0  0  0  0  0  0  0  0
   -2.1286   -2.2337   -1.5289 C   0  0  0  0  0  0  0  0  0  0  0  0
    1.4082    2.4519   -0.6499 C   0  0  0  0  0  0  0  0  0  0  0  0
    1.5886    3.6536   -1.3639 C   0  0  0  0  0  0  0  0  0  0  0  0
    2.6996    3.8271   -2.2056 C   0  0  0  0  0  0  0  0  0  0  0  0
    3.6535    2.8033   -2.3413 C   0  0  0  0  0  0  0  0  0  0  0  0
    3.4972    1.6000   -1.6364 C   0  0  0  0  0  0  0  0  0  0  0  0
    2.3798    1.4315   -0.7983 C   0  0  0  0  0  0  0  0  0  0  0  0
    3.2455   -0.1515    1.5144 C   0  0  0  0  0  0  0  0  0  0  0  0
    4.1643    0.8908    1.7471 C   0  0  0  0  0  0  0  0  0  0  0  0
    5.0413    0.8207    2.8420 C   0  0  0  0  0  0  0  0  0  0  0  0
    5.0047   -0.2845    3.7057 C   0  0  0  0  0  0  0  0  0  0  0  0
    4.0807   -1.3199    3.4799 C   0  0  0  0  0  0  0  0  0  0  0  0
    3.1964   -1.2557    2.3951 C   0  0  0  0  0  0  0  0  0  0  0  0
    2.5176   -1.4652   -0.9718 C   0  0  0  0  0  0  0  0  0  0  0  0
    3.8390   -1.9507   -1.0155 C   0  0  0  0  0  0  0  0  0  0  0  0
    4.1862   -2.9519   -1.9367 C   0  0  0  0  0  0  0  0  0  0  0  0
    3.2191   -3.4712   -2.8119 C   0  0  0  0  0  0  0  0  0  0  0  0
    1.8988   -2.9941   -2.7606 C   0  0  0  0  0  0  0  0  0  0  0  0
    1.5449   -1.9997   -1.8395 C   0  0  0  0  0  0  0  0  0  0  0  0
    1.3923    2.4703    2.6066 H   0  0  0  0  0  0  0  0  0  0  0  0
   -0.3640    2.5452    2.9920 H   0  0  0  0  0  0  0  0  0  0  0  0
    0.4255    3.9117    2.1275 H   0  0  0  0  0  0  0  0  0  0  0  0
   -1.2639    4.7924   -0.1830 H   0  0  0  0  0  0  0  0  0  0  0  0
   -3.6025    5.4193   -0.7680 H   0  0  0  0  0  0  0  0  0  0  0  0
   -5.3921    3.6702   -0.8763 H   0  0  0  0  0  0  0  0  0  0  0  0
   -4.8329    1.2736   -0.4207 H   0  0  0  0  0  0  0  0  0  0  0  0
   -2.2193   -0.8737    2.9600 H   0  0  0  0  0  0  0  0  0  0  0  0
   -3.9906   -1.9500    4.3826 H   0  0  0  0  0  0  0  0  0  0  0  0
   -6.1760   -2.6259    3.3566 H   0  0  0  0  0  0  0  0  0  0  0  0
   -6.5886   -2.2318    0.9160 H   0  0  0  0  0  0  0  0  0  0  0  0
   -4.8271   -1.1535   -0.4940 H   0  0  0  0  0  0  0  0  0  0  0  0
   -2.1041    1.0457   -2.5607 H   0  0  0  0  0  0  0  0  0  0  0  0
   -1.9264   -0.0771   -4.7868 H   0  0  0  0  0  0  0  0  0  0  0  0
   -1.8862   -2.5805   -4.9350 H   0  0  0  0  0  0  0  0  0  0  0  0
   -2.0063   -3.9564   -2.8373 H   0  0  0  0  0  0  0  0  0  0  0  0
   -2.1243   -2.8319   -0.6049 H   0  0  0  0  0  0  0  0  0  0  0  0
    0.8465    4.4635   -1.2789 H   0  0  0  0  0  0  0  0  0  0  0  0
    2.8206    4.7655   -2.7689 H   0  0  0  0  0  0  0  0  0  0  0  0
    4.5173    2.9395   -3.0099 H   0  0  0  0  0  0  0  0  0  0  0  0
    4.2305    0.7871   -1.7546 H   0  0  0  0  0  0  0  0  0  0  0  0
    4.1949    1.7577    1.0700 H   0  0  0  0  0  0  0  0  0  0  0  0
    5.7587    1.6369    3.0184 H   0  0  0  0  0  0  0  0  0  0  0  0
    5.6944   -0.3376    4.5620 H   0  0  0  0  0  0  0  0  0  0  0  0
    4.0420   -2.1833    4.1617 H   0  0  0  0  0  0  0  0  0  0  0  0
    2.4468   -2.0473    2.2271 H   0  0  0  0  0  0  0  0  0  0  0  0
    4.5939   -1.5548   -0.3188 H   0  0  0  0  0  0  0  0  0  0  0  0
    5.2188   -3.3323   -1.9653 H   0  0  0  0  0  0  0  0  0  0  0  0
    3.4939   -4.2587   -3.5304 H   0  0  0  0  0  0  0  0  0  0  0  0
    1.1297   -3.4051   -3.4322 H   0  0  0  0  0  0  0  0  0  0  0  0
    0.5054   -1.6461   -1.7799 H   0  0  0  0  0  0  0  0  0  0  0  0
  1 11  1  0  0  0  0
  2 29  1  0  0  0  0
  3  4  1  0  0  0  0
  4 41  1  0  0  0  0
  4 42  1  0  0  0  0
  5  3  1  0  0  0  0
  6 44  1  0  0  0  0
  6  5  2  0  0  0  0
  7  6  1  0  0  0  0
  8  7  2  0  0  0  0
  8  9  1  0  0  0  0
  9 10  2  0  0  0  0
 10  5  1  0  0  0  0
 10  1  1  0  0  0  0
 11 12  1  0  0  0  0
 12 48  1  0  0  0  0
 12 13  2  0  0  0  0
 13 49  1  0  0  0  0
 14 13  1  0  0  0  0
 14 50  1  0  0  0  0
 15 14  2  0  0  0  0
 16 11  2  0  0  0  0
 16 15  1  0  0  0  0
 17  1  1  0  0  0  0
 18 53  1  0  0  0  0
 18 17  2  0  0  0  0
 19 18  1  0  0  0  0
 20 19  2  0  0  0  0
 20 21  1  0  0  0  0
 21 22  2  0  0  0  0
 22 17  1  0  0  0  0
 22 57  1  0  0  0  0
 23  3  1  0  0  0  0
 24 58  1  0  0  0  0
 24 23  2  0  0  0  0
 25 24  1  0  0  0  0
 26 25  2  0  0  0  0
 26 27  1  0  0  0  0
 27 28  2  0  0  0  0
 28 23  1  0  0  0  0
 28  2  1  0  0  0  0
 29 30  2  0  0  0  0
 29 34  1  0  0  0  0
 30 31  1  0  0  0  0
 31 63  1  0  0  0  0
 31 32  2  0  0  0  0
 32 64  1  0  0  0  0
 33 32  1  0  0  0  0
 33 65  1  0  0  0  0
 34 33  2  0  0  0  0
 35  2  1  0  0  0  0
 36 35  1  0  0  0  0
 36 67  1  0  0  0  0
 37 36  2  0  0  0  0
 38 39  2  0  0  0  0
 38 37  1  0  0  0  0
 39 40  1  0  0  0  0
 40 71  1  0  0  0  0
 40 35  2  0  0  0  0
 43  4  1  0  0  0  0
 45  7  1  0  0  0  0
 46  8  1  0  0  0  0
 47  9  1  0  0  0  0
 51 15  1  0  0  0  0
 52 16  1  0  0  0  0
 54 19  1  0  0  0  0
 55 20  1  0  0  0  0
 56 21  1  0  0  0  0
 59 25  1  0  0  0  0
 60 26  1  0  0  0  0
 61 27  1  0  0  0  0
 62 30  1  0  0  0  0
 66 34  1  0  0  0  0
 68 37  1  0  0  0  0
 69 38  1  0  0  0  0
 70 39  1  0  0  0  0
M  END
