1,2,3
q = -1.0, confidence = 0.022

 64 65  0  0  0  0  0  0  0  0999 V2000
   -0.0001    1.3187    0.4920 Si  0  0  0  0  0  3  0  0  0  0  0  0
   -2.3275   -0.7376   -0.1100 P   0  0  0  0  0  0  0  0  0  0  0  0
    2.3276   -0.7374   -0.1097 P   0  0  0  0  0  0  0  0  0  0  0  0
    0.0001    1.6770    2.5604 Cl  0  0  0  0  0  0  0  0  0  0  0  0
    3.3570   -1.3636    1.3092 C   0  0  0  0  0  0  0  0  0  0  0  0
    4.4171   -1.1876    1.0211 H   0  0  0  0  0  0  0  0  0  0  0  0
    1.6514    1.9842   -0.1328 C   0  0  0  0  0  0  0  0  0  0  0  0
   -1.6516    1.9842   -0.1324 C   0  0  0  0  0  0  0  0  0  0  0  0
   -2.7116    1.0519   -0.2973 C   0  0  0  0  0  0  0  0  0  0  0  0
    2.7116    1.0520   -0.2972 C   0  0  0  0  0  0  0  0  0  0  0  0
    4.0146    1.5099   -0.5792 C   0  0  0  0  0  0  0  0  0  0  0  0
    4.8496    0.8006   -0.6705 H   0  0  0  0  0  0  0  0  0  0  0  0
    3.2117    3.8056   -0.6044 C   0  0  0  0  0  0  0  0  0  0  0  0
    3.4053    4.8812   -0.7302 H   0  0  0  0  0  0  0  0  0  0  0  0
    1.9198    3.3599   -0.2890 C   0  0  0  0  0  0  0  0  0  0  0  0
    1.1193    4.1023   -0.1505 H   0  0  0  0  0  0  0  0  0  0  0  0
    2.8820   -1.6161   -1.6718 C   0  0  0  0  0  0  0  0  0  0  0  0
    2.4350   -2.6273   -1.5366 H   0  0  0  0  0  0  0  0  0  0  0  0
   -4.0148    1.5097   -0.5791 C   0  0  0  0  0  0  0  0  0  0  0  0
   -4.8497    0.8002   -0.6707 H   0  0  0  0  0  0  0  0  0  0  0  0
   -1.9203    3.3599   -0.2881 C   0  0  0  0  0  0  0  0  0  0  0  0
   -1.1200    4.1024   -0.1492 H   0  0  0  0  0  0  0  0  0  0  0  0
   -2.8819   -1.6162   -1.6720 C   0  0  0  0  0  0  0  0  0  0  0  0
   -2.4347   -2.6273   -1.5369 H   0  0  0  0  0  0  0  0  0  0  0  0
    4.3963   -1.7751   -1.8420 C   0  0  0  0  0  0  0  0  0  0  0  0
    4.5981   -2.4277   -2.7158 H   0  0  0  0  0  0  0  0  0  0  0  0
    4.8858   -2.2410   -0.9648 H   0  0  0  0  0  0  0  0  0  0  0  0
    4.8891   -0.8046   -2.0463 H   0  0  0  0  0  0  0  0  0  0  0  0
   -3.3568   -1.3638    1.3090 C   0  0  0  0  0  0  0  0  0  0  0  0
   -4.4169   -1.1879    1.0211 H   0  0  0  0  0  0  0  0  0  0  0  0
   -2.2240   -0.9490   -2.8868 C   0  0  0  0  0  0  0  0  0  0  0  0
   -2.4273   -1.5409   -3.8016 H   0  0  0  0  0  0  0  0  0  0  0  0
   -1.1248   -0.8665   -2.7654 H   0  0  0  0  0  0  0  0  0  0  0  0
   -2.6237    0.0727   -3.0474 H   0  0  0  0  0  0  0  0  0  0  0  0
    4.2601    2.8818   -0.7384 C   0  0  0  0  0  0  0  0  0  0  0  0
    5.2785    3.2316   -0.9639 H   0  0  0  0  0  0  0  0  0  0  0  0
    2.2239   -0.9491   -2.8866 C   0  0  0  0  0  0  0  0  0  0  0  0
    2.6234    0.0725   -3.0474 H   0  0  0  0  0  0  0  0  0  0  0  0
    1.1247   -0.8667   -2.7651 H   0  0  0  0  0  0  0  0  0  0  0  0
    2.4272   -1.5411   -3.8014 H   0  0  0  0  0  0  0  0  0  0  0  0
   -4.2605    2.8816   -0.7379 C   0  0  0  0  0  0  0  0  0  0  0  0
   -5.2789    3.2313   -0.9634 H   0  0  0  0  0  0  0  0  0  0  0  0
    3.1138   -2.8666    1.4919 C   0  0  0  0  0  0  0  0  0  0  0  0
    3.7121   -3.2449    2.3452 H   0  0  0  0  0  0  0  0  0  0  0  0
    3.3956   -3.4609    0.6001 H   0  0  0  0  0  0  0  0  0  0  0  0
    2.0459   -3.0692    1.7206 H   0  0  0  0  0  0  0  0  0  0  0  0
   -3.2122    3.8055   -0.6034 C   0  0  0  0  0  0  0  0  0  0  0  0
   -3.4060    4.8812   -0.7289 H   0  0  0  0  0  0  0  0  0  0  0  0
    3.0343   -0.5585    2.5726 C   0  0  0  0  0  0  0  0  0  0  0  0
    1.9716   -0.6790    2.8655 H   0  0  0  0  0  0  0  0  0  0  0  0
    3.2239    0.5244    2.4394 H   0  0  0  0  0  0  0  0  0  0  0  0
    3.6638   -0.9140    3.4132 H   0  0  0  0  0  0  0  0  0  0  0  0
   -4.3962   -1.7755   -1.8420 C   0  0  0  0  0  0  0  0  0  0  0  0
   -4.8893   -0.8051   -2.0460 H   0  0  0  0  0  0  0  0  0  0  0  0
   -4.8853   -2.2418   -0.9648 H   0  0  0  0  0  0  0  0  0  0  0  0
   -4.5979   -2.4280   -2.7159 H   0  0  0  0  0  0  0  0  0  0  0  0
   -3.1134   -2.8669    1.4917 C   0  0  0  0  0  0  0  0  0  0  0  0
   -2.0455   -3.0693    1.7205 H   0  0  0  0  0  0  0  0  0  0  0  0
   -3.3950   -3.4611    0.5998 H   0  0  0  0  0  0  0  0  0  0  0  0
   -3.7119   -3.2453    2.3448 H   0  0  0  0  0  0  0  0  0  0  0  0
   -3.0340   -0.5587    2.5725 C   0  0  0  0  0  0  0  0  0  0  0  0
   -3.6632   -0.9144    3.4131 H   0  0  0  0  0  0  0  0  0  0  0  0
   -3.2239    0.5241    2.4394 H   0  0  0  0  0  0  0  0  0  0  0  0
   -1.9712   -0.6791    2.8651 H   0  0  0  0  0  0  0  0  0  0  0  0
  1  4  1  0  0  0  0
  2 29  1  0  0  0  0
  3  5  1  0  0  0  0
  5 43  1  0  0  0  0
  5 49  1  0  0  0  0
  6  5  1  0  0  0  0
  7  1  1  0  0  0  0
  8  1  1  0  0  0  0
  9  8  2  0  0  0  0
  9  2  1  0  0  0  0
 10  7  2  0  0  0  0
 10  3  1  0  0  0  0
 11 10  1  0  0  0  0
 12 11  1  0  0  0  0
 13 15  2  0  0  0  0
 14 13  1  0  0  0  0
 15 16  1  0  0  0  0
 15  7  1  0  0  0  0
 17 18  1  0  0  0  0
 17  3  1  0  0  0  0
 19  9  1  0  0  0  0
 20 19  1  0  0  0  0
 21 22  1  0  0  0  0
 21  8  1  0  0  0  0
 23 24  1  0  0  0  0
 23  2  1  0  0  0  0
 25 17  1  0  0  0  0
 25 27  1  0  0  0  0
 26 25  1  0  0  0  0
 28 25  1  0  0  0  0
 29 57  1  0  0  0  0
 29 61  1  0  0  0  0
 30 29  1  0  0  0  0
 31 33  1  0  0  0  0
 31 23  1  0  0  0  0
 32 31  1  0  0  0  0
 34 31  1  0  0  0  0
 35 13  1  0  0  0  0
 35 11  2  0  0  0  0
 36 35  1  0  0  0  0
 37 39  1  0  0  0  0
 37 17  1  0  0  0  0
 38 37  1  0  0  0  0
 40 37  1  0  0  0  0
 41 47  1  0  0  0  0
 41 19  2  0  0  0  0
 42 41  1  0  0  0  0
 43 46  1  0  0  0  0
 43 44  1  0  0  0  0
 45 43  1  0  0  0  0
 47 21  2  0  0  0  0
 48 47  1  0  0  0  0
 49 50  1  0  0  0  0
 49 52  1  0  0  0  0
 51 49  1  0  0  0  0
 53 23  1  0  0  0  0
 53 55  1  0  0  0  0
 54 53  1  0  0  0  0
 56 53  1  0  0  0  0
 57 58  1  0  0  0  0
 57 60  1  0  0  0  0
 59 57  1  0  0  0  0
 61 64  1  0  0  0  0
 61 62  1  0  0  0  0
 63 61  1  0  0  0  0
M  END
