2,3,4
q = -1.0, confidence = 0.002

 74 75  0  0  0  0  0  0  0  0999 V2000
   -0.0571    0.6525    3.4791 Cl  0  0  0  0  0  0  0  0  0  0  0  0
   -2.2045   -0.6159   -0.0626 P   0  0  0  0  0  0  0  0  0  0  0  0
    2.2871   -0.2911   -0.1293 P   0  0  0  0  0  0  0  0  0  0  0  0
   -0.0214    0.8284    1.3571 Si  0  0  0  0  0  3  0  0  0  0  0  0
   -1.4263    1.8293    0.9285 N   0  0  0  0  0  0  0  0  0  0  0  0
    1.1088    2.0645    0.7569 N   0  0  0  0  0  0  0  0  0  0  0  0
   -1.0316    3.0376    0.3524 C   0  0  0  0  0  0  0  0  0  0  0  0
   -1.8596    4.0536   -0.1491 C   0  0  0  0  0  0  0  0  0  0  0  0
   -2.9532    3.9567   -0.0697 H   0  0  0  0  0  0  0  0  0  0  0  0
   -1.2865    5.1901   -0.7552 C   0  0  0  0  0  0  0  0  0  0  0  0
   -1.9428    5.9815   -1.1473 H   0  0  0  0  0  0  0  0  0  0  0  0
    0.1055    5.3217   -0.8488 C   0  0  0  0  0  0  0  0  0  0  0  0
    0.5460    6.2154   -1.3153 H   0  0  0  0  0  0  0  0  0  0  0  0
    0.9523    4.3183   -0.3335 C   0  0  0  0  0  0  0  0  0  0  0  0
    2.0458    4.4264   -0.3952 H   0  0  0  0  0  0  0  0  0  0  0  0
    0.4010    3.1758    0.2630 C   0  0  0  0  0  0  0  0  0  0  0  0
   -2.6471    1.1033    0.6996 C   0  0  0  0  0  0  0  0  0  0  0  0
   -3.3368    1.6442    0.0206 H   0  0  0  0  0  0  0  0  0  0  0  0
   -3.1981    0.9148    1.6459 H   0  0  0  0  0  0  0  0  0  0  0  0
    2.3482    1.6082    0.1688 C   0  0  0  0  0  0  0  0  0  0  0  0
    3.2513    1.8402    0.7771 H   0  0  0  0  0  0  0  0  0  0  0  0
    2.4915    2.0914   -0.8203 H   0  0  0  0  0  0  0  0  0  0  0  0
   -2.7198   -0.3507   -1.8926 C   0  0  0  0  0  0  0  0  0  0  0  0
   -1.9654    0.9137   -2.3541 C   0  0  0  0  0  0  0  0  0  0  0  0
   -2.0667    1.0143   -3.4553 H   0  0  0  0  0  0  0  0  0  0  0  0
   -0.8865    0.8468   -2.1110 H   0  0  0  0  0  0  0  0  0  0  0  0
   -2.3546    1.8452   -1.9005 H   0  0  0  0  0  0  0  0  0  0  0  0
   -4.2322   -0.1488   -2.0670 C   0  0  0  0  0  0  0  0  0  0  0  0
   -4.4389    0.1505   -3.1168 H   0  0  0  0  0  0  0  0  0  0  0  0
   -4.6357    0.6519   -1.4151 H   0  0  0  0  0  0  0  0  0  0  0  0
   -4.8026   -1.0779   -1.8727 H   0  0  0  0  0  0  0  0  0  0  0  0
   -2.2527   -1.5374   -2.7523 C   0  0  0  0  0  0  0  0  0  0  0  0
   -2.5322   -1.3481   -3.8106 H   0  0  0  0  0  0  0  0  0  0  0  0
   -2.7126   -2.4962   -2.4488 H   0  0  0  0  0  0  0  0  0  0  0  0
   -1.1542   -1.6577   -2.7008 H   0  0  0  0  0  0  0  0  0  0  0  0
   -3.3614   -1.8261    0.8621 C   0  0  0  0  0  0  0  0  0  0  0  0
   -4.7829   -1.2909    1.1065 C   0  0  0  0  0  0  0  0  0  0  0  0
   -5.3525   -2.0421    1.6947 H   0  0  0  0  0  0  0  0  0  0  0  0
   -5.3412   -1.1146    0.1691 H   0  0  0  0  0  0  0  0  0  0  0  0
   -4.7872   -0.3525    1.6945 H   0  0  0  0  0  0  0  0  0  0  0  0
   -3.4287   -3.1609    0.1034 C   0  0  0  0  0  0  0  0  0  0  0  0
   -3.9328   -3.9179    0.7414 H   0  0  0  0  0  0  0  0  0  0  0  0
   -2.4201   -3.5471   -0.1423 H   0  0  0  0  0  0  0  0  0  0  0  0
   -4.0124   -3.0798   -0.8346 H   0  0  0  0  0  0  0  0  0  0  0  0
   -2.6533   -2.0497    2.2140 C   0  0  0  0  0  0  0  0  0  0  0  0
   -3.2479   -2.7582    2.8294 H   0  0  0  0  0  0  0  0  0  0  0  0
   -2.5366   -1.1124    2.7950 H   0  0  0  0  0  0  0  0  0  0  0  0
   -1.6378   -2.4709    2.0650 H   0  0  0  0  0  0  0  0  0  0  0  0
    2.9494   -0.3977   -1.9356 C   0  0  0  0  0  0  0  0  0  0  0  0
    4.1730    0.4938   -2.2160 C   0  0  0  0  0  0  0  0  0  0  0  0
    4.4286    0.4104   -3.2940 H   0  0  0  0  0  0  0  0  0  0  0  0
    5.0680    0.1954   -1.6427 H   0  0  0  0  0  0  0  0  0  0  0  0
    3.9760    1.5654   -2.0187 H   0  0  0  0  0  0  0  0  0  0  0  0
    1.7800    0.0732   -2.8206 C   0  0  0  0  0  0  0  0  0  0  0  0
    2.0812    0.0185   -3.8884 H   0  0  0  0  0  0  0  0  0  0  0  0
    1.4876    1.1221   -2.6094 H   0  0  0  0  0  0  0  0  0  0  0  0
    0.8879   -0.5654   -2.6681 H   0  0  0  0  0  0  0  0  0  0  0  0
    3.2846   -1.8563   -2.2843 C   0  0  0  0  0  0  0  0  0  0  0  0
    3.4993   -1.9291   -3.3717 H   0  0  0  0  0  0  0  0  0  0  0  0
    2.4420   -2.5389   -2.0628 H   0  0  0  0  0  0  0  0  0  0  0  0
    4.1823   -2.2203   -1.7478 H   0  0  0  0  0  0  0  0  0  0  0  0
    3.5527   -1.0287    1.1080 C   0  0  0  0  0  0  0  0  0  0  0  0
    3.1824   -0.4750    2.4951 C   0  0  0  0  0  0  0  0  0  0  0  0
    3.8575   -0.9267    3.2528 H   0  0  0  0  0  0  0  0  0  0  0  0
    2.1435   -0.7294    2.7783 H   0  0  0  0  0  0  0  0  0  0  0  0
    3.2945    0.6248    2.5690 H   0  0  0  0  0  0  0  0  0  0  0  0
    3.3444   -2.5543    1.1333 C   0  0  0  0  0  0  0  0  0  0  0  0
    3.9966   -2.9999    1.9143 H   0  0  0  0  0  0  0  0  0  0  0  0
    3.5922   -3.0384    0.1703 H   0  0  0  0  0  0  0  0  0  0  0  0
    2.2912   -2.8003    1.3772 H   0  0  0  0  0  0  0  0  0  0  0  0
    5.0172   -0.6884    0.7985 C   0  0  0  0  0  0  0  0  0  0  0  0
    5.6583   -1.0650    1.6241 H   0  0  0  0  0  0  0  0  0  0  0  0
    5.1899    0.4042    0.7229 H   0  0  0  0  0  0  0  0  0  0  0  0
    5.3740   -1.1659   -0.1340 H   0  0  0  0  0  0  0  0  0  0  0  0
  2 17  1  0  0  0  0
  2 36  1  0  0  0  0
  3 20  1  0  0  0  0
  3 62  1  0  0  0  0
  4  1  1  0  0  0  0
  5  4  1  0  0  0  0
  6  4  1  0  0  0  0
  7  5  1  0  0  0  0
  8  9  1  0  0  0  0
  8  7  2  0  0  0  0
 10  8  1  0  0  0  0
 11 10  1  0  0  0  0
 12 10  2  0  0  0  0
 12 14  1  0  0  0  0
 13 12  1  0  0  0  0
 14 16  2  0  0  0  0
 15 14  1  0  0  0  0
 16  7  1  0  0  0  0
 16  6  1  0  0  0  0
 17  5  1  0  0  0  0
 17 19  1  0  0  0  0
 18 17  1  0  0  0  0
 20  6  1  0  0  0  0
 20 21  1  0  0  0  0
 22 20  1  0  0  0  0
 23  2  1  0  0  0  0
 24 26  1  0  0  0  0
 24 27  1  0  0  0  0
 24 23  1  0  0  0  0
 25 24  1  0  0  0  0
 28 23  1  0  0  0  0
 28 31  1  0  0  0  0
 28 30  1  0  0  0  0
 29 28  1  0  0  0  0
 32 35  1  0  0  0  0
 32 34  1  0  0  0  0
 32 23  1  0  0  0  0
 33 32  1  0  0  0  0
 36 37  1  0  0  0  0
 36 45  1  0  0  0  0
 37 40  1  0  0  0  0
 37 38  1  0  0  0  0
 39 37  1  0  0  0  0
 41 42  1  0  0  0  0
 41 36  1  0  0  0  0
 43 41  1  0  0  0  0
 44 41  1  0  0  0  0
 45 47  1  0  0  0  0
 45 46  1  0  0  0  0
 48 45  1  0  0  0  0
 49  3  1  0  0  0  0
 50 53  1  0  0  0  0
 50 49  1  0  0  0  0
 50 52  1  0  0  0  0
 51 50  1  0  0  0  0
 54 57  1  0  0  0  0
 54 56  1  0  0  0  0
 54 49  1  0  0  0  0
 55 54  1  0  0  0  0
 58 60  1  0  0  0  0
 58 49  1  0  0  0  0
 58 61  1  0  0  0  0
 59 58  1  0  0  0  0
 62 67  1  0  0  0  0
 62 63  1  0  0  0  0
 63 66  1  0  0  0  0
 63 65  1  0  0  0  0
 63 64  1  0  0  0  0
 67 70  1  0  0  0  0
 67 68  1  0  0  0  0
 69 67  1  0  0  0  0
 71 62  1  0  0  0  0
 71 72  1  0  0  0  0
 73 71  1  0  0  0  0
 74 71  1  0  0  0  0
M  END
