2,3,40
q = -1.0, confidence = 0.034

 58 59  0  0  1  0  0  0  0  0999 V2000
   -2.6829    0.2523   -0.0210 P   0  0  0  0  0  4  0  0  0  0  0  0
    2.4443   -1.6612   -0.3355 S   0  0  0  0  0  1  0  0  0  0  0  0
   -2.2707   -1.7628    0.1741 S   0  0  0  0  0  1  0  0  0  0  0  0
    2.6255    0.3333    0.0941 P   0  0  0  0  0  4  0  0  0  0  0  0
   -3.5867    0.8799    1.4776 C   0  0  0  0  0  0  0  0  0  0  0  0
   -3.8357    1.9398    1.2477 H   0  0  0  0  0  0  0  0  0  0  0  0
   -4.8766    0.0804    1.6951 C   0  0  0  0  0  0  0  0  0  0  0  0
   -4.6463   -0.9961    1.8326 H   0  0  0  0  0  0  0  0  0  0  0  0
   -5.5845    0.1776    0.8479 H   0  0  0  0  0  0  0  0  0  0  0  0
   -5.3944    0.4385    2.6081 H   0  0  0  0  0  0  0  0  0  0  0  0
   -2.6427    0.8275    2.6838 C   0  0  0  0  0  0  0  0  0  0  0  0
   -3.1797    1.1495    3.5990 H   0  0  0  0  0  0  0  0  0  0  0  0
   -1.7671    1.4910    2.5446 H   0  0  0  0  0  0  0  0  0  0  0  0
   -2.2701   -0.2056    2.8387 H   0  0  0  0  0  0  0  0  0  0  0  0
   -1.1154    1.0681   -0.2314 C   0  0  1  0  0  3  0  0  0  0  0  0
   -0.6995    2.4707   -0.2363 C   0  0  0  0  0  0  0  0  0  0  0  0
    0.7049    2.5176   -0.5111 C   0  0  0  0  0  0  0  0  0  0  0  0
    1.1772    1.1045   -0.7486 C   0  0  2  0  0  0  0  0  0  0  0  0
    1.4230    0.9430   -1.8239 H   0  0  0  0  0  0  0  0  0  0  0  0
    2.6256    0.7008    1.9203 C   0  0  0  0  0  0  0  0  0  0  0  0
    3.3937   -0.0186    2.2831 H   0  0  0  0  0  0  0  0  0  0  0  0
    3.0635    2.1348    2.2482 C   0  0  0  0  0  0  0  0  0  0  0  0
    2.3534    2.8790    1.8368 H   0  0  0  0  0  0  0  0  0  0  0  0
    4.0785    2.3746    1.8748 H   0  0  0  0  0  0  0  0  0  0  0  0
    3.0812    2.2633    3.3499 H   0  0  0  0  0  0  0  0  0  0  0  0
    1.2827    0.3398    2.5641 C   0  0  0  0  0  0  0  0  0  0  0  0
    1.3801    0.3974    3.6673 H   0  0  0  0  0  0  0  0  0  0  0  0
    0.9483   -0.6793    2.2852 H   0  0  0  0  0  0  0  0  0  0  0  0
    0.4905    1.0478    2.2506 H   0  0  0  0  0  0  0  0  0  0  0  0
    4.2103    0.9876   -0.6215 C   0  0  0  0  0  0  0  0  0  0  0  0
    4.2359    2.0613   -0.3321 H   0  0  0  0  0  0  0  0  0  0  0  0
    4.2037    0.8705   -2.1501 C   0  0  0  0  0  0  0  0  0  0  0  0
    5.1839    1.1966   -2.5530 H   0  0  0  0  0  0  0  0  0  0  0  0
    3.4250    1.5052   -2.6174 H   0  0  0  0  0  0  0  0  0  0  0  0
    4.0307   -0.1791   -2.4624 H   0  0  0  0  0  0  0  0  0  0  0  0
    5.4020    0.2556    0.0125 C   0  0  0  0  0  0  0  0  0  0  0  0
    5.3499   -0.8322   -0.1959 H   0  0  0  0  0  0  0  0  0  0  0  0
    5.4492    0.3922    1.1109 H   0  0  0  0  0  0  0  0  0  0  0  0
    6.3494    0.6415   -0.4151 H   0  0  0  0  0  0  0  0  0  0  0  0
   -0.0287    0.2110   -0.4357 C   0  0  0  0  0  2  0  0  0  0  0  0
    1.3829    3.7354   -0.5890 C   0  0  0  0  0  0  0  0  0  0  0  0
    2.4584    3.7656   -0.8256 H   0  0  0  0  0  0  0  0  0  0  0  0
    0.6783    4.9332   -0.3507 C   0  0  0  0  0  0  0  0  0  0  0  0
    1.2046    5.8980   -0.3950 H   0  0  0  0  0  0  0  0  0  0  0  0
   -0.6953    4.8938   -0.0565 C   0  0  0  0  0  0  0  0  0  0  0  0
   -1.2367    5.8335    0.1321 H   0  0  0  0  0  0  0  0  0  0  0  0
   -1.3937    3.6748   -0.0042 C   0  0  0  0  0  0  0  0  0  0  0  0
   -2.4710    3.6693    0.2187 H   0  0  0  0  0  0  0  0  0  0  0  0
   -3.7655    0.5171   -1.5147 C   0  0  0  0  0  0  0  0  0  0  0  0
   -4.6262   -0.1626   -1.3245 H   0  0  0  0  0  0  0  0  0  0  0  0
   -3.0145    0.0293   -2.7586 C   0  0  0  0  0  0  0  0  0  0  0  0
   -3.6916    0.0394   -3.6365 H   0  0  0  0  0  0  0  0  0  0  0  0
   -2.6315   -1.0002   -2.6158 H   0  0  0  0  0  0  0  0  0  0  0  0
   -2.1497    0.6874   -2.9795 H   0  0  0  0  0  0  0  0  0  0  0  0
   -4.2603    1.9611   -1.6481 C   0  0  0  0  0  0  0  0  0  0  0  0
   -3.4141    2.6619   -1.7970 H   0  0  0  0  0  0  0  0  0  0  0  0
   -4.8433    2.2995   -0.7684 H   0  0  0  0  0  0  0  0  0  0  0  0
   -4.9213    2.0484   -2.5348 H   0  0  0  0  0  0  0  0  0  0  0  0
  1  3  1  0  0  0  0
  1  5  1  0  0  0  0
  2  4  1  0  0  0  0
  4 20  1  0  0  0  0
  5  7  1  0  0  0  0
  5 11  1  0  0  0  0
  6  5  1  0  0  0  0
  7  8  1  0  0  0  0
  7 10  1  0  0  0  0
  9  7  1  0  0  0  0
 11 14  1  0  0  0  0
 11 12  1  0  0  0  0
 13 11  1  0  0  0  0
 15  1  1  1  0  0  0
 16 15  1  0  0  0  0
 16 47  1  0  0  0  0
 17 16  2  0  0  0  0
 18 19  1  6  0  0  0
 18 17  1  0  0  0  0
 18 40  1  0  0  0  0
 18  4  1  0  0  0  0
 20 22  1  0  0  0  0
 20 21  1  0  0  0  0
 20 26  1  0  0  0  0
 22 25  1  0  0  0  0
 23 22  1  0  0  0  0
 24 22  1  0  0  0  0
 26 27  1  0  0  0  0
 28 26  1  0  0  0  0
 29 26  1  0  0  0  0
 30 31  1  0  0  0  0
 30 36  1  0  0  0  0
 30  4  1  0  0  0  0
 32 30  1  0  0  0  0
 33 32  1  0  0  0  0
 34 32  1  0  0  0  0
 35 32  1  0  0  0  0
 36 38  1  0  0  0  0
 37 36  1  0  0  0  0
 39 36  1  0  0  0  0
 40 15  1  0  0  0  0
 41 17  1  0  0  0  0
 41 43  2  0  0  0  0
 42 41  1  0  0  0  0
 43 45  1  0  0  0  0
 44 43  1  0  0  0  0
 45 47  2  0  0  0  0
 45 46  1  0  0  0  0
 47 48  1  0  0  0  0
 49 50  1  0  0  0  0
 49  1  1  0  0  0  0
 51 53  1  0  0  0  0
 51 49  1  0  0  0  0
 52 51  1  0  0  0  0
 54 51  1  0  0  0  0
 55 49  1  0  0  0  0
 55 57  1  0  0  0  0
 56 55  1  0  0  0  0
 58 55  1  0  0  0  0
M  END
