1,15,35
q = -1.0, confidence = 0.0

 65 69  0  0  0  0  0  0  0  0999 V2000
   -0.9897    2.1097   -0.6102 S   0  0  0  0  0  0  0  0  0  0  0  0
   -3.4134    0.9492   -1.0572 C   0  0  0  0  0  0  0  0  0  0  0  0
   -2.9133    0.5624   -1.9599 H   0  0  0  0  0  0  0  0  0  0  0  0
   -2.6937    1.7555   -0.1506 C   0  0  0  0  0  0  0  0  0  0  0  0
    1.1887    2.9094    0.8145 C   0  0  0  0  0  0  0  0  0  0  0  0
    1.7701    1.8015    1.4879 C   0  0  0  0  0  0  0  0  0  0  0  0
    2.0140    3.8185    0.1286 C   0  0  0  0  0  0  0  0  0  0  0  0
    1.5563    4.6694   -0.4002 H   0  0  0  0  0  0  0  0  0  0  0  0
   -3.3181    2.2376    1.0091 C   0  0  0  0  0  0  0  0  0  0  0  0
   -2.7824    2.8756    1.7246 H   0  0  0  0  0  0  0  0  0  0  0  0
   -4.7430    0.6226   -0.7832 C   0  0  0  0  0  0  0  0  0  0  0  0
   -5.2895   -0.0193   -1.4919 H   0  0  0  0  0  0  0  0  0  0  0  0
    3.4066    3.6505    0.1154 C   0  0  0  0  0  0  0  0  0  0  0  0
    4.0406    4.3667   -0.4284 H   0  0  0  0  0  0  0  0  0  0  0  0
   -0.0002    0.0019    1.4902 C   0  0  0  0  0  3  0  0  0  0  0  0
   -0.3068    3.0706    0.8198 C   0  0  0  0  0  0  0  0  0  0  0  0
   -0.6204    4.1222    0.6730 H   0  0  0  0  0  0  0  0  0  0  0  0
   -0.7465    2.6641    1.7496 H   0  0  0  0  0  0  0  0  0  0  0  0
   -4.6576    1.8967    1.2649 C   0  0  0  0  0  0  0  0  0  0  0  0
   -5.1386    2.2769    2.1800 H   0  0  0  0  0  0  0  0  0  0  0  0
   -0.0010    0.0059    4.3287 C   0  0  0  0  0  0  0  0  0  0  0  0
   -0.0013    0.0074    5.4293 H   0  0  0  0  0  0  0  0  0  0  0  0
    3.1686    1.6541    1.4822 C   0  0  0  0  0  0  0  0  0  0  0  0
    3.6147    0.7902    1.9972 H   0  0  0  0  0  0  0  0  0  0  0  0
   -5.3928    1.0839    0.3835 C   0  0  0  0  0  0  0  0  0  0  0  0
    0.8885    0.8380    2.2104 C   0  0  0  0  0  0  0  0  0  0  0  0
    0.9000    0.8146    3.6223 C   0  0  0  0  0  0  0  0  0  0  0  0
    1.6080    1.4640    4.1613 H   0  0  0  0  0  0  0  0  0  0  0  0
    3.9826    2.5677    0.7961 C   0  0  0  0  0  0  0  0  0  0  0  0
    5.0743    2.4258    0.7865 H   0  0  0  0  0  0  0  0  0  0  0  0
   -6.8212    0.6984    0.6709 C   0  0  0  0  0  0  0  0  0  0  0  0
   -6.9183   -0.3985    0.8180 H   0  0  0  0  0  0  0  0  0  0  0  0
   -7.4904    0.9661   -0.1727 H   0  0  0  0  0  0  0  0  0  0  0  0
   -7.2052    1.1950    1.5827 H   0  0  0  0  0  0  0  0  0  0  0  0
    0.9898   -2.1113   -0.6047 S   0  0  0  0  0  0  0  0  0  0  0  0
    3.4135   -0.9517   -1.0544 C   0  0  0  0  0  0  0  0  0  0  0  0
    2.9134   -0.5670   -1.9581 H   0  0  0  0  0  0  0  0  0  0  0  0
    2.6938   -1.7559   -0.1460 C   0  0  0  0  0  0  0  0  0  0  0  0
   -1.1888   -2.9073    0.8217 C   0  0  0  0  0  0  0  0  0  0  0  0
   -1.7705   -1.7977    1.4921 C   0  0  0  0  0  0  0  0  0  0  0  0
   -2.0137   -3.8184    0.1379 C   0  0  0  0  0  0  0  0  0  0  0  0
   -1.5557   -4.6705   -0.3885 H   0  0  0  0  0  0  0  0  0  0  0  0
    3.3182   -2.2354    1.0148 C   0  0  0  0  0  0  0  0  0  0  0  0
    2.7825   -2.8718    1.7316 H   0  0  0  0  0  0  0  0  0  0  0  0
    4.7431   -0.6245   -0.7812 C   0  0  0  0  0  0  0  0  0  0  0  0
    5.2897    0.0157   -1.4914 H   0  0  0  0  0  0  0  0  0  0  0  0
   -3.4063   -3.6506    0.1239 C   0  0  0  0  0  0  0  0  0  0  0  0
   -4.0400   -4.3684   -0.4182 H   0  0  0  0  0  0  0  0  0  0  0  0
    0.3067   -3.0683    0.8277 C   0  0  0  0  0  0  0  0  0  0  0  0
    0.6205   -4.1203    0.6839 H   0  0  0  0  0  0  0  0  0  0  0  0
    0.7463   -2.6592    1.7565 H   0  0  0  0  0  0  0  0  0  0  0  0
    4.6577   -1.8939    1.2698 C   0  0  0  0  0  0  0  0  0  0  0  0
    5.1387   -2.2721    2.1858 H   0  0  0  0  0  0  0  0  0  0  0  0
   -3.1691   -1.6506    1.4856 C   0  0  0  0  0  0  0  0  0  0  0  0
   -3.6154   -0.7855    1.9982 H   0  0  0  0  0  0  0  0  0  0  0  0
    5.3929   -1.0832    0.3866 C   0  0  0  0  0  0  0  0  0  0  0  0
   -0.8893   -0.8323    2.2123 C   0  0  0  0  0  0  0  0  0  0  0  0
   -0.9015   -0.8049    3.6241 C   0  0  0  0  0  0  0  0  0  0  0  0
   -1.6098   -1.4528    4.1645 H   0  0  0  0  0  0  0  0  0  0  0  0
   -3.9827   -2.5661    0.8016 C   0  0  0  0  0  0  0  0  0  0  0  0
   -5.0744   -2.4244    0.7914 H   0  0  0  0  0  0  0  0  0  0  0  0
    6.8212   -0.6967    0.6733 C   0  0  0  0  0  0  0  0  0  0  0  0
    6.9174    0.4001    0.8217 H   0  0  0  0  0  0  0  0  0  0  0  0
    7.4900   -0.9628   -0.1712 H   0  0  0  0  0  0  0  0  0  0  0  0
    7.2063   -1.1940    1.5842 H   0  0  0  0  0  0  0  0  0  0  0  0
  1  4  1  0  0  0  0
  1 16  1  0  0  0  0
  2 11  2  0  0  0  0
  2  4  1  0  0  0  0
  3  2  1  0  0  0  0
  4  9  2  0  0  0  0
  5 16  1  0  0  0  0
  5  6  1  0  0  0  0
  6 26  1  0  0  0  0
  7  5  2  0  0  0  0
  8  7  1  0  0  0  0
  9 19  1  0  0  0  0
  9 10  1  0  0  0  0
 11 25  1  0  0  0  0
 12 11  1  0  0  0  0
 13  7  1  0  0  0  0
 13 29  2  0  0  0  0
 14 13  1  0  0  0  0
 15 26  2  0  0  0  0
 15 57  1  0  0  0  0
 16 18  1  0  0  0  0
 17 16  1  0  0  0  0
 19 20  1  0  0  0  0
 21 22  1  0  0  0  0
 23  6  2  0  0  0  0
 23 24  1  0  0  0  0
 25 31  1  0  0  0  0
 25 19  2  0  0  0  0
 26 27  1  0  0  0  0
 27 28  1  0  0  0  0
 27 21  2  0  0  0  0
 29 23  1  0  0  0  0
 30 29  1  0  0  0  0
 31 32  1  0  0  0  0
 31 34  1  0  0  0  0
 33 31  1  0  0  0  0
 35 38  1  0  0  0  0
 35 49  1  0  0  0  0
 36 45  2  0  0  0  0
 36 38  1  0  0  0  0
 37 36  1  0  0  0  0
 38 43  2  0  0  0  0
 39 49  1  0  0  0  0
 39 40  1  0  0  0  0
 40 57  1  0  0  0  0
 41 39  2  0  0  0  0
 42 41  1  0  0  0  0
 43 52  1  0  0  0  0
 43 44  1  0  0  0  0
 45 56  1  0  0  0  0
 46 45  1  0  0  0  0
 47 41  1  0  0  0  0
 47 60  2  0  0  0  0
 48 47  1  0  0  0  0
 49 51  1  0  0  0  0
 50 49  1  0  0  0  0
 52 53  1  0  0  0  0
 54 40  2  0  0  0  0
 54 55  1  0  0  0  0
 56 62  1  0  0  0  0
 56 52  2  0  0  0  0
 57 58  2  0  0  0  0
 58 59  1  0  0  0  0
 58 21  1  0  0  0  0
 60 54  1  0  0  0  0
 61 60  1  0  0  0  0
 62 63  1  0  0  0  0
 62 65  1  0  0  0  0
 64 62  1  0  0  0  0
M  END
