2,15,18
q = -2.0, confidence = 0.794

 19 18  0  0  1  0  0  0  0  0999 V2000
   -1.8678   -2.2467    0.4779 P   0  0  0  0  0  4  0  0  0  0  0  0
   -0.2046   -1.9001    1.0692 C   0  0  0  0  0  3  0  0  0  0  0  0
    0.3883   -2.8244    0.9155 H   0  0  0  0  0  0  0  0  0  0  0  0
   -0.3160   -1.7414    2.1637 H   0  0  0  0  0  0  0  0  0  0  0  0
   -1.9642   -3.9887   -0.0963 C   0  0  0  0  0  0  0  0  0  0  0  0
   -1.3028   -4.0798   -0.9804 H   0  0  0  0  0  0  0  0  0  0  0  0
   -3.0002   -4.2639   -0.3760 H   0  0  0  0  0  0  0  0  0  0  0  0
   -1.6034   -4.6654    0.7023 H   0  0  0  0  0  0  0  0  0  0  0  0
   -3.1698   -2.0976    1.7522 C   0  0  0  0  0  0  0  0  0  0  0  0
   -2.9907   -2.8384    2.5562 H   0  0  0  0  0  0  0  0  0  0  0  0
   -4.1616   -2.2703    1.2912 H   0  0  0  0  0  0  0  0  0  0  0  0
   -3.1254   -1.0712    2.1629 H   0  0  0  0  0  0  0  0  0  0  0  0
   -2.3067   -1.3126   -1.0609 C   0  0  2  0  0  0  0  0  0  0  0  0
   -2.9074   -2.0157   -1.6803 H   0  0  0  0  0  0  0  0  0  0  0  0
   -0.7111   -1.0161   -1.8586 S   0  0  0  0  0  1  0  0  0  0  0  0
   -3.4562    0.1244   -0.9699 S   0  0  0  0  0  0  0  0  0  0  0  0
   -2.7704    1.2913    0.1678 C   0  0  0  0  0  0  0  0  0  0  0  0
   -1.4204    0.8927    1.1792 S   0  0  0  0  0  1  0  0  0  0  0  0
   -3.6066    2.7346    0.2491 S   0  0  0  0  0  0  0  0  0  0  0  0
  1  2  1  0  0  0  0
  1  9  1  0  0  0  0
  2  4  1  0  0  0  0
  3  2  1  0  0  0  0
  5  1  1  0  0  0  0
  5  8  1  0  0  0  0
  6  5  1  0  0  0  0
  7  5  1  0  0  0  0
  9 12  1  0  0  0  0
  9 10  1  0  0  0  0
 11  9  1  0  0  0  0
 13 14  1  6  0  0  0
 13 16  1  0  0  0  0
 13  1  1  0  0  0  0
 15 13  1  0  0  0  0
 16 17  1  0  0  0  0
 17 19  2  0  0  0  0
 17 18  1  0  0  0  0
M  END
