1,2,4
q = -1.0, confidence = 0.0

 30 31  0  0  0  0  0  0  0  0999 V2000
    0.4337   -2.3148   -0.2207 S   0  0  0  0  0  0  0  0  0  0  0  0
    0.4335    2.3148   -0.2207 S   0  0  0  0  0  0  0  0  0  0  0  0
    0.3306    0.0000    2.1560 O   0  0  0  0  0  0  0  0  0  0  0  0
   -1.3540   -0.0000   -0.6436 C   0  0  0  0  0  3  0  0  0  0  0  0
   -2.0773    1.2230   -0.6386 C   0  0  0  0  0  0  0  0  0  0  0  0
   -3.4852    1.2131   -0.6091 C   0  0  0  0  0  0  0  0  0  0  0  0
   -4.1862   -0.0001   -0.5892 C   0  0  0  0  0  0  0  0  0  0  0  0
   -3.4851   -1.2132   -0.6090 C   0  0  0  0  0  0  0  0  0  0  0  0
   -2.0772   -1.2230   -0.6386 C   0  0  0  0  0  0  0  0  0  0  0  0
   -1.3274   -2.5230   -0.7113 C   0  0  0  0  0  0  0  0  0  0  0  0
    0.3354   -2.3429    1.6310 C   0  0  0  0  0  0  0  0  0  0  0  0
   -0.3929   -1.2032    2.3345 C   0  0  0  0  0  0  0  0  0  0  0  0
   -0.3930    1.2032    2.3345 C   0  0  0  0  0  0  0  0  0  0  0  0
    0.3352    2.3430    1.6310 C   0  0  0  0  0  0  0  0  0  0  0  0
   -1.3275    2.5229   -0.7113 C   0  0  0  0  0  0  0  0  0  0  0  0
   -4.0378    2.1656   -0.6029 H   0  0  0  0  0  0  0  0  0  0  0  0
   -5.2855   -0.0001   -0.5600 H   0  0  0  0  0  0  0  0  0  0  0  0
   -4.0377   -2.1657   -0.6029 H   0  0  0  0  0  0  0  0  0  0  0  0
   -1.2643   -2.8999   -1.7549 H   0  0  0  0  0  0  0  0  0  0  0  0
   -1.7677   -3.3364   -0.0987 H   0  0  0  0  0  0  0  0  0  0  0  0
   -0.1203   -3.3187    1.8956 H   0  0  0  0  0  0  0  0  0  0  0  0
    1.3978   -2.3727    1.9475 H   0  0  0  0  0  0  0  0  0  0  0  0
   -0.4559   -1.4688    3.4173 H   0  0  0  0  0  0  0  0  0  0  0  0
   -1.4353   -1.1023    1.9546 H   0  0  0  0  0  0  0  0  0  0  0  0
   -1.4353    1.1022    1.9546 H   0  0  0  0  0  0  0  0  0  0  0  0
   -0.4560    1.4688    3.4173 H   0  0  0  0  0  0  0  0  0  0  0  0
    1.3976    2.3728    1.9476 H   0  0  0  0  0  0  0  0  0  0  0  0
   -0.1206    3.3187    1.8956 H   0  0  0  0  0  0  0  0  0  0  0  0
   -1.7679    3.3364   -0.0987 H   0  0  0  0  0  0  0  0  0  0  0  0
   -1.2644    2.8999   -1.7549 H   0  0  0  0  0  0  0  0  0  0  0  0
  1 11  1  0  0  0  0
  2 14  1  0  0  0  0
  3 12  1  0  0  0  0
  3 13  1  0  0  0  0
  4  5  2  0  0  0  0
  4  9  1  0  0  0  0
  5  6  1  0  0  0  0
  6 16  1  0  0  0  0
  6  7  2  0  0  0  0
  7 17  1  0  0  0  0
  8 18  1  0  0  0  0
  8  7  1  0  0  0  0
  9  8  2  0  0  0  0
 10  9  1  0  0  0  0
 10  1  1  0  0  0  0
 10 20  1  0  0  0  0
 11 21  1  0  0  0  0
 11 22  1  0  0  0  0
 11 12  1  0  0  0  0
 12 23  1  0  0  0  0
 13 26  1  0  0  0  0
 14 28  1  0  0  0  0
 14 27  1  0  0  0  0
 14 13  1  0  0  0  0
 15  5  1  0  0  0  0
 15  2  1  0  0  0  0
 15 29  1  0  0  0  0
 19 10  1  0  0  0  0
 24 12  1  0  0  0  0
 25 13  1  0  0  0  0
 30 15  1  0  0  0  0
M  END
