1,2,5
q = -2.0, confidence = 0.81

 49 52  0  0  0  0  0  0  0  0999 V2000
    0.4788   -1.0445   -2.7334 S   0  0  0  0  0  1  0  0  0  0  0  0
   -0.7907   -1.8675    2.1465 S   0  0  0  0  0  1  0  0  0  0  0  0
    0.6540    0.5780   -1.4610 P   0  0  0  0  0  4  0  0  0  0  0  0
   -0.6388    0.1020    1.5359 P   0  0  0  0  0  4  0  0  0  0  0  0
    0.0798    0.1046    0.0310 C   0  0  0  0  0  2  0  0  0  0  0  0
   -0.2096    2.0312   -2.1995 C   0  0  0  0  0  0  0  0  0  0  0  0
    0.0501    3.3146   -1.6746 C   0  0  0  0  0  0  0  0  0  0  0  0
    0.8624    3.4528   -0.9427 H   0  0  0  0  0  0  0  0  0  0  0  0
   -0.7207    4.4109   -2.0873 C   0  0  0  0  0  0  0  0  0  0  0  0
   -0.5142    5.4117   -1.6779 H   0  0  0  0  0  0  0  0  0  0  0  0
   -1.7522    4.2327   -3.0263 C   0  0  0  0  0  0  0  0  0  0  0  0
   -2.3574    5.0939   -3.3482 H   0  0  0  0  0  0  0  0  0  0  0  0
   -1.9988    2.9588   -3.5634 C   0  0  0  0  0  0  0  0  0  0  0  0
   -2.7946    2.8205   -4.3114 H   0  0  0  0  0  0  0  0  0  0  0  0
   -1.2269    1.8590   -3.1556 C   0  0  0  0  0  0  0  0  0  0  0  0
   -1.3970    0.8539   -3.5744 H   0  0  0  0  0  0  0  0  0  0  0  0
    2.4230    1.0855   -1.4085 C   0  0  0  0  0  0  0  0  0  0  0  0
    3.1608    1.2474   -2.5972 C   0  0  0  0  0  0  0  0  0  0  0  0
    2.6708    1.0814   -3.5696 H   0  0  0  0  0  0  0  0  0  0  0  0
    4.5178    1.5920   -2.5327 C   0  0  0  0  0  0  0  0  0  0  0  0
    5.0971    1.7154   -3.4608 H   0  0  0  0  0  0  0  0  0  0  0  0
    5.1414    1.7723   -1.2846 C   0  0  0  0  0  0  0  0  0  0  0  0
    6.2086    2.0386   -1.2379 H   0  0  0  0  0  0  0  0  0  0  0  0
    4.4058    1.6071   -0.1009 C   0  0  0  0  0  0  0  0  0  0  0  0
    4.8922    1.7391    0.8778 H   0  0  0  0  0  0  0  0  0  0  0  0
    3.0463    1.2611   -0.1610 C   0  0  0  0  0  0  0  0  0  0  0  0
    2.4572    1.1021    0.7558 H   0  0  0  0  0  0  0  0  0  0  0  0
   -2.3298    0.8441    1.5211 C   0  0  0  0  0  0  0  0  0  0  0  0
   -3.3849    0.2780    2.2579 C   0  0  0  0  0  0  0  0  0  0  0  0
   -3.1889   -0.6112    2.8775 H   0  0  0  0  0  0  0  0  0  0  0  0
   -4.6755    0.8214    2.1617 C   0  0  0  0  0  0  0  0  0  0  0  0
   -5.5022    0.3687    2.7304 H   0  0  0  0  0  0  0  0  0  0  0  0
   -4.9152    1.9312    1.3350 C   0  0  0  0  0  0  0  0  0  0  0  0
   -5.9297    2.3518    1.2580 H   0  0  0  0  0  0  0  0  0  0  0  0
   -3.8603    2.4994    0.6001 C   0  0  0  0  0  0  0  0  0  0  0  0
   -4.0414    3.3632   -0.0580 H   0  0  0  0  0  0  0  0  0  0  0  0
   -2.5707    1.9559    0.6889 C   0  0  0  0  0  0  0  0  0  0  0  0
   -1.7547    2.3755    0.0810 H   0  0  0  0  0  0  0  0  0  0  0  0
    0.2720    1.0626    2.8240 C   0  0  0  0  0  0  0  0  0  0  0  0
    0.7044    2.3659    2.5052 C   0  0  0  0  0  0  0  0  0  0  0  0
    0.4764    2.7896    1.5140 H   0  0  0  0  0  0  0  0  0  0  0  0
    1.4344    3.1124    3.4405 C   0  0  0  0  0  0  0  0  0  0  0  0
    1.7715    4.1294    3.1875 H   0  0  0  0  0  0  0  0  0  0  0  0
    1.7404    2.5598    4.6965 C   0  0  0  0  0  0  0  0  0  0  0  0
    2.3187    3.1444    5.4283 H   0  0  0  0  0  0  0  0  0  0  0  0
    1.3102    1.2621    5.0152 C   0  0  0  0  0  0  0  0  0  0  0  0
    1.5499    0.8276    5.9980 H   0  0  0  0  0  0  0  0  0  0  0  0
    0.5744    0.5132    4.0824 C   0  0  0  0  0  0  0  0  0  0  0  0
    0.2366   -0.5101    4.3125 H   0  0  0  0  0  0  0  0  0  0  0  0
  1  3  1  0  0  0  0
  3 17  1  0  0  0  0
  3  5  1  0  0  0  0
  4  2  1  0  0  0  0
  4 39  1  0  0  0  0
  5  4  1  0  0  0  0
  6  7  1  0  0  0  0
  6  3  1  0  0  0  0
  7  8  1  0  0  0  0
  9 10  1  0  0  0  0
  9  7  2  0  0  0  0
 11  9  1  0  0  0  0
 12 11  1  0  0  0  0
 13 15  1  0  0  0  0
 13 11  2  0  0  0  0
 14 13  1  0  0  0  0
 15  6  2  0  0  0  0
 16 15  1  0  0  0  0
 17 26  1  0  0  0  0
 18 20  1  0  0  0  0
 18 17  2  0  0  0  0
 19 18  1  0  0  0  0
 20 22  2  0  0  0  0
 21 20  1  0  0  0  0
 22 23  1  0  0  0  0
 22 24  1  0  0  0  0
 24 25  1  0  0  0  0
 26 24  2  0  0  0  0
 26 27  1  0  0  0  0
 28  4  1  0  0  0  0
 28 29  1  0  0  0  0
 29 30  1  0  0  0  0
 31 29  2  0  0  0  0
 31 32  1  0  0  0  0
 33 31  1  0  0  0  0
 34 33  1  0  0  0  0
 35 37  1  0  0  0  0
 35 33  2  0  0  0  0
 36 35  1  0  0  0  0
 37 28  2  0  0  0  0
 38 37  1  0  0  0  0
 39 48  1  0  0  0  0
 40 39  2  0  0  0  0
 40 42  1  0  0  0  0
 41 40  1  0  0  0  0
 42 44  2  0  0  0  0
 43 42  1  0  0  0  0
 44 46  1  0  0  0  0
 44 45  1  0  0  0  0
 46 47  1  0  0  0  0
 48 49  1  0  0  0  0
 48 46  2  0  0  0  0
M  END
