3,4,5
q = -1.0, confidence = 0.01

 65 70  0  0  1  0  0  0  0  0999 V2000
   -2.4834   -0.2473   -0.1927 P   0  0  0  0  0  4  0  0  0  0  0  0
    2.5426   -0.2365   -0.0056 P   0  0  0  0  0  4  0  0  0  0  0  0
   -2.2347   -2.2831   -0.1565 S   0  0  0  0  0  1  0  0  0  0  0  0
    2.5069   -2.2732   -0.0019 S   0  0  0  0  0  1  0  0  0  0  0  0
    0.1080   -0.4841   -0.8304 C   0  0  0  0  0  2  0  0  0  0  0  0
   -0.9125    0.4438   -0.6764 C   0  0  1  0  0  3  0  0  0  0  0  0
    1.3370    0.2688   -1.3526 C   0  0  2  0  0  0  0  0  0  0  0  0
    1.8285   -0.2437   -2.7155 C   0  0  0  0  0  0  0  0  0  0  0  0
    1.0255   -0.0802   -3.4606 H   0  0  0  0  0  0  0  0  0  0  0  0
    2.0450   -1.3282   -2.6649 H   0  0  0  0  0  0  0  0  0  0  0  0
    2.7330    0.3041   -3.0471 H   0  0  0  0  0  0  0  0  0  0  0  0
    0.9152    1.7200   -1.3652 C   0  0  0  0  0  0  0  0  0  0  0  0
    1.6337    2.8655   -1.7181 C   0  0  0  0  0  0  0  0  0  0  0  0
    2.6866    2.7926   -2.0325 H   0  0  0  0  0  0  0  0  0  0  0  0
    0.9957    4.1201   -1.6377 C   0  0  0  0  0  0  0  0  0  0  0  0
    1.5505    5.0341   -1.8969 H   0  0  0  0  0  0  0  0  0  0  0  0
   -0.3480    4.2083   -1.2300 C   0  0  0  0  0  0  0  0  0  0  0  0
   -0.8325    5.1950   -1.1718 H   0  0  0  0  0  0  0  0  0  0  0  0
   -1.0871    3.0573   -0.9044 C   0  0  0  0  0  0  0  0  0  0  0  0
   -2.1395    3.1394   -0.5970 H   0  0  0  0  0  0  0  0  0  0  0  0
   -0.4557    1.8026   -0.9747 C   0  0  0  0  0  0  0  0  0  0  0  0
   -3.7765    0.2479   -1.3900 C   0  0  0  0  0  0  0  0  0  0  0  0
   -3.9768   -0.5596   -2.5268 C   0  0  0  0  0  0  0  0  0  0  0  0
   -3.4088   -1.4990   -2.6206 H   0  0  0  0  0  0  0  0  0  0  0  0
   -4.9012   -0.1667   -3.5048 C   0  0  0  0  0  0  0  0  0  0  0  0
   -5.0604   -0.8005   -4.3902 H   0  0  0  0  0  0  0  0  0  0  0  0
   -5.6255    1.0271   -3.3524 C   0  0  0  0  0  0  0  0  0  0  0  0
   -6.3525    1.3315   -4.1206 H   0  0  0  0  0  0  0  0  0  0  0  0
   -5.4288    1.8301   -2.2172 C   0  0  0  0  0  0  0  0  0  0  0  0
   -6.0007    2.7621   -2.0935 H   0  0  0  0  0  0  0  0  0  0  0  0
   -4.5064    1.4441   -1.2334 C   0  0  0  0  0  0  0  0  0  0  0  0
   -4.3647    2.0664   -0.3367 H   0  0  0  0  0  0  0  0  0  0  0  0
   -3.0021    0.4428    1.4127 C   0  0  0  0  0  0  0  0  0  0  0  0
   -4.3107    0.2107    1.8862 C   0  0  0  0  0  0  0  0  0  0  0  0
   -5.0317   -0.3439    1.2659 H   0  0  0  0  0  0  0  0  0  0  0  0
   -4.6878    0.6848    3.1491 C   0  0  0  0  0  0  0  0  0  0  0  0
   -5.7082    0.5035    3.5188 H   0  0  0  0  0  0  0  0  0  0  0  0
   -3.7629    1.3850    3.9432 C   0  0  0  0  0  0  0  0  0  0  0  0
   -4.0621    1.7568    4.9349 H   0  0  0  0  0  0  0  0  0  0  0  0
   -2.4579    1.6032    3.4760 C   0  0  0  0  0  0  0  0  0  0  0  0
   -1.7283    2.1431    4.0971 H   0  0  0  0  0  0  0  0  0  0  0  0
   -2.0699    1.1298    2.2136 C   0  0  0  0  0  0  0  0  0  0  0  0
   -1.0428    1.2878    1.8520 H   0  0  0  0  0  0  0  0  0  0  0  0
    4.2141    0.3919   -0.3850 C   0  0  0  0  0  0  0  0  0  0  0  0
    4.9964   -0.3433   -1.3025 C   0  0  0  0  0  0  0  0  0  0  0  0
    4.6103   -1.2932   -1.7023 H   0  0  0  0  0  0  0  0  0  0  0  0
    6.2639    0.1251   -1.6741 C   0  0  0  0  0  0  0  0  0  0  0  0
    6.8703   -0.4545   -2.3862 H   0  0  0  0  0  0  0  0  0  0  0  0
    6.7610    1.3216   -1.1328 C   0  0  0  0  0  0  0  0  0  0  0  0
    7.7579    1.6857   -1.4239 H   0  0  0  0  0  0  0  0  0  0  0  0
    5.9913    2.0460   -0.2089 C   0  0  0  0  0  0  0  0  0  0  0  0
    6.3845    2.9751    0.2304 H   0  0  0  0  0  0  0  0  0  0  0  0
    4.7211    1.5858    0.1684 C   0  0  0  0  0  0  0  0  0  0  0  0
    4.1345    2.1497    0.9065 H   0  0  0  0  0  0  0  0  0  0  0  0
    1.9588    0.4943    1.5677 C   0  0  0  0  0  0  0  0  0  0  0  0
    1.7069   -0.3816    2.6426 C   0  0  0  0  0  0  0  0  0  0  0  0
    1.8369   -1.4651    2.4938 H   0  0  0  0  0  0  0  0  0  0  0  0
    1.2792    0.1304    3.8756 C   0  0  0  0  0  0  0  0  0  0  0  0
    1.0795   -0.5604    4.7080 H   0  0  0  0  0  0  0  0  0  0  0  0
    1.1031    1.5129    4.0435 C   0  0  0  0  0  0  0  0  0  0  0  0
    0.7790    1.9121    5.0168 H   0  0  0  0  0  0  0  0  0  0  0  0
    1.3301    2.3851    2.9669 C   0  0  0  0  0  0  0  0  0  0  0  0
    1.1723    3.4676    3.0855 H   0  0  0  0  0  0  0  0  0  0  0  0
    1.7534    1.8834    1.7261 C   0  0  0  0  0  0  0  0  0  0  0  0
    1.9018    2.5758    0.8865 H   0  0  0  0  0  0  0  0  0  0  0  0
  1  3  1  0  0  0  0
  1 33  1  0  0  0  0
  2  4  1  0  0  0  0
  2 55  1  0  0  0  0
  5  6  1  0  0  0  0
  6  1  1  6  0  0  0
  7  8  1  6  0  0  0
  7  5  1  0  0  0  0
  7  2  1  0  0  0  0
  8 10  1  0  0  0  0
  9  8  1  0  0  0  0
 11  8  1  0  0  0  0
 12  7  1  0  0  0  0
 12 21  1  0  0  0  0
 13 15  1  0  0  0  0
 13 12  2  0  0  0  0
 14 13  1  0  0  0  0
 15 17  2  0  0  0  0
 16 15  1  0  0  0  0
 17 18  1  0  0  0  0
 17 19  1  0  0  0  0
 19 20  1  0  0  0  0
 21 19  2  0  0  0  0
 21  6  1  0  0  0  0
 22 31  1  0  0  0  0
 22  1  1  0  0  0  0
 23 22  2  0  0  0  0
 24 23  1  0  0  0  0
 25 27  2  0  0  0  0
 25 23  1  0  0  0  0
 26 25  1  0  0  0  0
 27 29  1  0  0  0  0
 28 27  1  0  0  0  0
 29 30  1  0  0  0  0
 29 31  2  0  0  0  0
 31 32  1  0  0  0  0
 33 34  2  0  0  0  0
 33 42  1  0  0  0  0
 34 36  1  0  0  0  0
 35 34  1  0  0  0  0
 36 37  1  0  0  0  0
 36 38  2  0  0  0  0
 38 39  1  0  0  0  0
 40 38  1  0  0  0  0
 40 41  1  0  0  0  0
 42 40  2  0  0  0  0
 43 42  1  0  0  0  0
 44  2  1  0  0  0  0
 44 53  1  0  0  0  0
 45 44  2  0  0  0  0
 46 45  1  0  0  0  0
 47 45  1  0  0  0  0
 47 49  2  0  0  0  0
 48 47  1  0  0  0  0
 49 51  1  0  0  0  0
 50 49  1  0  0  0  0
 51 53  2  0  0  0  0
 51 52  1  0  0  0  0
 53 54  1  0  0  0  0
 55 64  2  0  0  0  0
 55 56  1  0  0  0  0
 56 58  2  0  0  0  0
 57 56  1  0  0  0  0
 58 60  1  0  0  0  0
 58 59  1  0  0  0  0
 60 61  1  0  0  0  0
 62 63  1  0  0  0  0
 62 60  2  0  0  0  0
 64 62  1  0  0  0  0
 65 64  1  0  0  0  0
M  END
