1,2,9
q = -2.0, confidence = 0.882

 26 26  0  0  0  0  0  0  0  0999 V2000
   -0.8949   -2.3038   -0.1224 S   0  0  0  0  0  1  0  0  0  0  0  0
   -0.8930    2.3574   -0.1168 S   0  0  0  0  0  1  0  0  0  0  0  0
   -3.3691   -1.1381   -0.0556 N   0  0  0  0  0  0  0  0  0  0  0  0
   -3.3707    1.2010   -0.0727 N   0  0  0  0  0  0  0  0  0  0  0  0
   -3.3577   -3.4615   -0.0112 N   0  0  0  0  0  0  0  0  0  0  0  0
   -3.3536    3.5244   -0.0742 N   0  0  0  0  0  0  0  0  0  0  0  0
   -2.6568   -2.3861   -0.0526 C   0  0  0  0  0  0  0  0  0  0  0  0
   -2.6542    2.4467   -0.0852 C   0  0  0  0  0  0  0  0  0  0  0  0
   -2.6862    0.0325   -0.0700 C   0  0  0  0  0  2  0  0  0  0  0  0
   -4.8396   -1.2096   -0.0403 C   0  0  0  0  0  0  0  0  0  0  0  0
   -5.4073    0.0370    0.6167 C   0  0  0  0  0  0  0  0  0  0  0  0
   -4.8409    1.2731   -0.0607 C   0  0  0  0  0  0  0  0  0  0  0  0
   -2.6805   -4.7340   -0.0043 C   0  0  0  0  0  0  0  0  0  0  0  0
   -2.6703    4.7937   -0.0827 C   0  0  0  0  0  0  0  0  0  0  0  0
   -5.2026   -1.3146   -1.0862 H   0  0  0  0  0  0  0  0  0  0  0  0
   -5.0996   -2.1502    0.4797 H   0  0  0  0  0  0  0  0  0  0  0  0
   -6.5119    0.0352    0.5363 H   0  0  0  0  0  0  0  0  0  0  0  0
   -5.1529    0.0461    1.6975 H   0  0  0  0  0  0  0  0  0  0  0  0
   -5.2031    1.3601   -1.1085 H   0  0  0  0  0  0  0  0  0  0  0  0
   -5.1017    2.2223    0.4429 H   0  0  0  0  0  0  0  0  0  0  0  0
   -3.4164   -5.5578    0.0843 H   0  0  0  0  0  0  0  0  0  0  0  0
   -1.9526   -4.8170    0.8373 H   0  0  0  0  0  0  0  0  0  0  0  0
   -2.0893   -4.8933   -0.9365 H   0  0  0  0  0  0  0  0  0  0  0  0
   -2.0496    4.9245   -1.0002 H   0  0  0  0  0  0  0  0  0  0  0  0
   -1.9681    4.8962    0.7785 H   0  0  0  0  0  0  0  0  0  0  0  0
   -3.4039    5.6230   -0.0380 H   0  0  0  0  0  0  0  0  0  0  0  0
  1  7  1  0  0  0  0
  2  8  1  0  0  0  0
  3  7  1  0  0  0  0
  3 10  1  0  0  0  0
  4  9  1  0  0  0  0
  4 12  1  0  0  0  0
  5 13  1  0  0  0  0
  7  5  2  0  0  0  0
  8  6  2  0  0  0  0
  8  4  1  0  0  0  0
  9  3  1  0  0  0  0
 10 16  1  0  0  0  0
 10 11  1  0  0  0  0
 11 18  1  0  0  0  0
 12 20  1  0  0  0  0
 12 11  1  0  0  0  0
 13 21  1  0  0  0  0
 13 22  1  0  0  0  0
 14  6  1  0  0  0  0
 14 26  1  0  0  0  0
 14 25  1  0  0  0  0
 15 10  1  0  0  0  0
 17 11  1  0  0  0  0
 19 12  1  0  0  0  0
 23 13  1  0  0  0  0
 24 14  1  0  0  0  0
M  END
