1,2,9
q = -2.0, confidence = 0.912

 32 32  0  0  0  0  0  0  0  0999 V2000
   -0.7221   -2.3076   -0.0615 S   0  0  0  0  0  1  0  0  0  0  0  0
   -0.7185    2.3545   -0.0305 S   0  0  0  0  0  1  0  0  0  0  0  0
   -3.1944   -1.1411    0.0503 N   0  0  0  0  0  0  0  0  0  0  0  0
   -3.1952    1.1982    0.0512 N   0  0  0  0  0  0  0  0  0  0  0  0
   -3.1829   -3.4648    0.0673 N   0  0  0  0  0  0  0  0  0  0  0  0
   -3.1763    3.5220    0.0426 N   0  0  0  0  0  0  0  0  0  0  0  0
   -2.4827   -2.3892    0.0297 C   0  0  0  0  0  0  0  0  0  0  0  0
   -2.4785    2.4437    0.0256 C   0  0  0  0  0  0  0  0  0  0  0  0
   -2.5116    0.0295    0.0206 C   0  0  0  0  0  2  0  0  0  0  0  0
   -4.6637   -1.2124    0.1147 C   0  0  0  0  0  0  0  0  0  0  0  0
   -5.2659    0.0300   -0.5191 C   0  0  0  0  0  0  0  0  0  0  0  0
   -4.6638    1.2709    0.1172 C   0  0  0  0  0  0  0  0  0  0  0  0
   -2.5159   -4.7484    0.0488 C   0  0  0  0  0  0  0  0  0  0  0  0
   -3.5171   -5.8943    0.1560 C   0  0  0  0  0  0  0  0  0  0  0  0
   -2.5019    4.8017    0.0188 C   0  0  0  0  0  0  0  0  0  0  0  0
   -3.4992    5.9545    0.0774 C   0  0  0  0  0  0  0  0  0  0  0  0
   -4.9698   -1.3112    1.1790 H   0  0  0  0  0  0  0  0  0  0  0  0
   -4.9532   -2.1556   -0.3842 H   0  0  0  0  0  0  0  0  0  0  0  0
   -5.0709    0.0312   -1.6123 H   0  0  0  0  0  0  0  0  0  0  0  0
   -6.3645    0.0291   -0.3788 H   0  0  0  0  0  0  0  0  0  0  0  0
   -4.9518    2.2157   -0.3799 H   0  0  0  0  0  0  0  0  0  0  0  0
   -4.9693    1.3670    1.1820 H   0  0  0  0  0  0  0  0  0  0  0  0
   -1.9090   -4.8485   -0.8843 H   0  0  0  0  0  0  0  0  0  0  0  0
   -1.7683   -4.8044    0.8778 H   0  0  0  0  0  0  0  0  0  0  0  0
   -3.0025   -6.8760    0.1421 H   0  0  0  0  0  0  0  0  0  0  0  0
   -4.2371   -5.8666   -0.6868 H   0  0  0  0  0  0  0  0  0  0  0  0
   -4.0992   -5.8193    1.0966 H   0  0  0  0  0  0  0  0  0  0  0  0
   -1.8678    4.8816   -0.8981 H   0  0  0  0  0  0  0  0  0  0  0  0
   -1.7781    4.8690    0.8680 H   0  0  0  0  0  0  0  0  0  0  0  0
   -4.1952    5.9154   -0.7849 H   0  0  0  0  0  0  0  0  0  0  0  0
   -4.1081    5.8994    1.0024 H   0  0  0  0  0  0  0  0  0  0  0  0
   -2.9790    6.9334    0.0604 H   0  0  0  0  0  0  0  0  0  0  0  0
  1  7  1  0  0  0  0
  2  8  1  0  0  0  0
  3 10  1  0  0  0  0
  4 12  1  0  0  0  0
  7  3  1  0  0  0  0
  7  5  2  0  0  0  0
  8  6  2  0  0  0  0
  8  4  1  0  0  0  0
  9  3  1  0  0  0  0
  9  4  1  0  0  0  0
 10 17  1  0  0  0  0
 11 20  1  0  0  0  0
 11 10  1  0  0  0  0
 11 12  1  0  0  0  0
 12 22  1  0  0  0  0
 13  5  1  0  0  0  0
 13 14  1  0  0  0  0
 13 24  1  0  0  0  0
 14 27  1  0  0  0  0
 15  6  1  0  0  0  0
 15 16  1  0  0  0  0
 15 29  1  0  0  0  0
 16 31  1  0  0  0  0
 18 10  1  0  0  0  0
 19 11  1  0  0  0  0
 21 12  1  0  0  0  0
 23 13  1  0  0  0  0
 25 14  1  0  0  0  0
 26 14  1  0  0  0  0
 28 15  1  0  0  0  0
 30 16  1  0  0  0  0
 32 16  1  0  0  0  0
M  END
