1,3,7
q = 0.0, confidence = 0.996

 35 34  0  0  1  0  0  0  0  0999 V2000
   -0.6847   -1.1096   -1.0612 S   0  0  0  0  0  1  0  0  0  0  0  0
   -0.9114    1.2481    0.8387 S   0  0  0  0  0  0  0  0  0  0  0  0
    1.6367    0.1477    2.0406 S   0  0  0  0  0  1  0  0  0  0  0  0
   -2.9823   -0.1669   -0.0336 N   0  0  0  0  0  0  0  0  0  0  0  0
    1.5460    1.6718   -0.2298 N   0  0  0  0  0  0  0  0  0  0  0  0
   -1.6366   -0.0573   -0.1114 C   0  0  2  0  0  3  0  0  0  0  0  0
    0.8888    0.8716    0.6765 C   0  0  2  0  0  3  0  0  0  0  0  0
   -3.8015    0.7549    0.7652 C   0  0  0  0  0  0  0  0  0  0  0  0
   -3.9858    0.2892    2.2094 C   0  0  0  0  0  0  0  0  0  0  0  0
   -3.6922   -1.2507   -0.7289 C   0  0  0  0  0  0  0  0  0  0  0  0
   -4.0890   -0.8784   -2.1559 C   0  0  0  0  0  0  0  0  0  0  0  0
    0.8967    2.1809   -1.4426 C   0  0  0  0  0  0  0  0  0  0  0  0
    0.5099    3.6557   -1.3474 C   0  0  0  0  0  0  0  0  0  0  0  0
    3.0082    1.8027   -0.1698 C   0  0  0  0  0  0  0  0  0  0  0  0
    3.7617    0.7061   -0.9243 C   0  0  0  0  0  0  0  0  0  0  0  0
   -4.6215    1.0081    2.7635 H   0  0  0  0  0  0  0  0  0  0  0  0
   -4.4758   -0.7040    2.2521 H   0  0  0  0  0  0  0  0  0  0  0  0
   -3.0091    0.2192    2.7271 H   0  0  0  0  0  0  0  0  0  0  0  0
    0.0733    4.0002   -2.3064 H   0  0  0  0  0  0  0  0  0  0  0  0
   -0.2405    3.8119   -0.5473 H   0  0  0  0  0  0  0  0  0  0  0  0
    1.3892    4.2942   -1.1272 H   0  0  0  0  0  0  0  0  0  0  0  0
   -4.7794    0.8521    0.2502 H   0  0  0  0  0  0  0  0  0  0  0  0
   -3.3347    1.7616    0.7291 H   0  0  0  0  0  0  0  0  0  0  0  0
    0.0187    1.5430   -1.6627 H   0  0  0  0  0  0  0  0  0  0  0  0
    1.6027    2.0182   -2.2843 H   0  0  0  0  0  0  0  0  0  0  0  0
    3.2934    1.7954    0.9008 H   0  0  0  0  0  0  0  0  0  0  0  0
    3.2523    2.8050   -0.5815 H   0  0  0  0  0  0  0  0  0  0  0  0
    4.8529    0.8922   -0.8656 H   0  0  0  0  0  0  0  0  0  0  0  0
    3.5578   -0.2997   -0.4982 H   0  0  0  0  0  0  0  0  0  0  0  0
    3.4815    0.6820   -1.9974 H   0  0  0  0  0  0  0  0  0  0  0  0
   -4.5840   -1.4967   -0.1165 H   0  0  0  0  0  0  0  0  0  0  0  0
   -3.0272   -2.1375   -0.7312 H   0  0  0  0  0  0  0  0  0  0  0  0
   -4.6445   -1.7141   -2.6257 H   0  0  0  0  0  0  0  0  0  0  0  0
   -4.7391    0.0199   -2.1795 H   0  0  0  0  0  0  0  0  0  0  0  0
   -3.1870   -0.6792   -2.7669 H   0  0  0  0  0  0  0  0  0  0  0  0
  4  8  1  0  0  0  0
  5 14  1  0  0  0  0
  5  7  1  0  0  0  0
  6  1  1  1  0  0  0
  6  4  1  0  0  0  0
  6  2  1  0  0  0  0
  7  2  1  0  0  0  0
  7  3  1  1  0  0  0
  8  9  1  0  0  0  0
  9 17  1  0  0  0  0
  9 18  1  0  0  0  0
  9 16  1  0  0  0  0
 10 31  1  0  0  0  0
 10  4  1  0  0  0  0
 11 10  1  0  0  0  0
 12 13  1  0  0  0  0
 12  5  1  0  0  0  0
 13 21  1  0  0  0  0
 13 20  1  0  0  0  0
 14 26  1  0  0  0  0
 15 28  1  0  0  0  0
 15 29  1  0  0  0  0
 15 14  1  0  0  0  0
 19 13  1  0  0  0  0
 22  8  1  0  0  0  0
 23  8  1  0  0  0  0
 24 12  1  0  0  0  0
 25 12  1  0  0  0  0
 27 14  1  0  0  0  0
 30 15  1  0  0  0  0
 32 10  1  0  0  0  0
 33 11  1  0  0  0  0
 34 11  1  0  0  0  0
 35 11  1  0  0  0  0
M  END
