1,2,11
q = -2.0, confidence = 0.74

 27 27  0  0  0  0  0  0  0  0999 V2000
    0.3277   -2.0332    0.0735 S   0  0  0  0  0  1  0  0  0  0  0  0
    1.3037    0.7750   -0.7753 S   0  0  0  0  0  0  0  0  0  0  0  0
    2.5399   -0.3675   -0.1649 C   0  0  0  0  0  0  0  0  0  0  0  0
    3.9068   -0.0523   -0.1219 C   0  0  0  0  0  0  0  0  0  0  0  0
    4.8307   -1.0437    0.2368 C   0  0  0  0  0  0  0  0  0  0  0  0
    4.3725   -2.3497    0.5011 C   0  0  0  0  0  0  0  0  0  0  0  0
    3.0116   -2.6645    0.4271 C   0  0  0  0  0  0  0  0  0  0  0  0
    2.0502   -1.6735    0.1045 C   0  0  0  0  0  0  0  0  0  0  0  0
    1.4398    2.3133    0.2425 C   0  0  0  0  0  0  0  0  0  0  0  0
    0.0492    2.9629    0.1033 C   0  0  0  0  0  0  0  0  0  0  0  0
   -0.9933    1.8637    0.4210 C   0  0  0  0  0  3  0  0  0  0  0  0
   -0.1521    3.4884   -1.3308 C   0  0  0  0  0  0  0  0  0  0  0  0
   -0.0624    4.1369    1.0950 C   0  0  0  0  0  0  0  0  0  0  0  0
    4.2460    0.9670   -0.3647 H   0  0  0  0  0  0  0  0  0  0  0  0
    5.9019   -0.8026    0.3000 H   0  0  0  0  0  0  0  0  0  0  0  0
    5.0935   -3.1370    0.7706 H   0  0  0  0  0  0  0  0  0  0  0  0
    2.6618   -3.6865    0.6376 H   0  0  0  0  0  0  0  0  0  0  0  0
    2.2709    2.9451   -0.1317 H   0  0  0  0  0  0  0  0  0  0  0  0
    1.6457    2.0029    1.2864 H   0  0  0  0  0  0  0  0  0  0  0  0
   -1.0166    1.6973    1.5277 H   0  0  0  0  0  0  0  0  0  0  0  0
   -2.0095    2.1883    0.1049 H   0  0  0  0  0  0  0  0  0  0  0  0
   -1.1444    3.9745   -1.4229 H   0  0  0  0  0  0  0  0  0  0  0  0
   -0.1140    2.6666   -2.0742 H   0  0  0  0  0  0  0  0  0  0  0  0
    0.6220    4.2364   -1.6015 H   0  0  0  0  0  0  0  0  0  0  0  0
    0.1012    3.7973    2.1383 H   0  0  0  0  0  0  0  0  0  0  0  0
   -1.0749    4.5870    1.0401 H   0  0  0  0  0  0  0  0  0  0  0  0
    0.6751    4.9370    0.8729 H   0  0  0  0  0  0  0  0  0  0  0  0
  1  8  1  0  0  0  0
  2  3  1  0  0  0  0
  2  9  1  0  0  0  0
  3  4  2  0  0  0  0
  3  8  1  0  0  0  0
  4  5  1  0  0  0  0
  5 15  1  0  0  0  0
  5  6  2  0  0  0  0
  6 16  1  0  0  0  0
  7  6  1  0  0  0  0
  7 17  1  0  0  0  0
  8  7  2  0  0  0  0
  9 19  1  0  0  0  0
 10  9  1  0  0  0  0
 10 11  1  0  0  0  0
 10 13  1  0  0  0  0
 11 20  1  0  0  0  0
 12 10  1  0  0  0  0
 13 25  1  0  0  0  0
 14  4  1  0  0  0  0
 18  9  1  0  0  0  0
 21 11  1  0  0  0  0
 22 12  1  0  0  0  0
 23 12  1  0  0  0  0
 24 12  1  0  0  0  0
 26 13  1  0  0  0  0
 27 13  1  0  0  0  0
M  END
