1,2,9
 OpenBabel05122313063D

 37 37  0  0  0  0  0  0  0  0999 V2000
    1.8815   -1.4091   -0.5197 S   0  0  0  0  0  0  0  0  0  0  0  0
   -1.8895    1.2517   -0.5438 S   0  0  0  0  0  0  0  0  0  0  0  0
    2.3841    1.3200   -0.4788 C   0  0  0  0  0  0  0  0  0  0  0  0
    2.9630    0.0228   -0.9743 C   0  0  0  0  0  0  0  0  0  0  0  0
    3.9968   -0.1751   -0.6255 H   0  0  0  0  0  0  0  0  0  0  0  0
    2.9789   -0.0146   -2.0846 H   0  0  0  0  0  0  0  0  0  0  0  0
    2.3146   -1.5871    1.2903 C   0  0  0  0  0  0  0  0  0  0  0  0
    2.2934   -0.5502    1.6871 H   0  0  0  0  0  0  0  0  0  0  0  0
    0.9821    1.3830   -0.2660 C   0  0  0  0  0  3  0  0  0  0  0  0
   -4.3145    1.7528    0.7013 C   0  0  0  0  0  0  0  0  0  0  0  0
   -5.1798    1.3569    1.2717 H   0  0  0  0  0  0  0  0  0  0  0  0
   -4.6723    2.0484   -0.3045 H   0  0  0  0  0  0  0  0  0  0  0  0
   -3.9619    2.6638    1.2285 H   0  0  0  0  0  0  0  0  0  0  0  0
   -1.0915    2.6641    0.3578 C   0  0  0  0  0  0  0  0  0  0  0  0
   -1.5596    3.6114    0.0225 H   0  0  0  0  0  0  0  0  0  0  0  0
   -1.3203    2.5302    1.4360 H   0  0  0  0  0  0  0  0  0  0  0  0
    0.3932    2.6184    0.1080 C   0  0  0  0  0  0  0  0  0  0  0  0
    3.7097   -2.1925    1.4256 C   0  0  0  0  0  0  0  0  0  0  0  0
    3.9742   -2.2711    2.5004 H   0  0  0  0  0  0  0  0  0  0  0  0
    4.4935   -1.5780    0.9397 H   0  0  0  0  0  0  0  0  0  0  0  0
    3.7444   -3.2113    0.9893 H   0  0  0  0  0  0  0  0  0  0  0  0
    1.2373   -2.4321    1.9631 C   0  0  0  0  0  0  0  0  0  0  0  0
    1.1850   -3.4477    1.5209 H   0  0  0  0  0  0  0  0  0  0  0  0
    0.2343   -1.9761    1.8549 H   0  0  0  0  0  0  0  0  0  0  0  0
    1.4751   -2.5368    3.0415 H   0  0  0  0  0  0  0  0  0  0  0  0
   -3.2226    0.6874    0.6249 C   0  0  0  0  0  0  0  0  0  0  0  0
   -3.5779   -0.2054    0.0658 H   0  0  0  0  0  0  0  0  0  0  0  0
   -2.6954    0.2289    1.9779 C   0  0  0  0  0  0  0  0  0  0  0  0
   -2.2180    1.0522    2.5487 H   0  0  0  0  0  0  0  0  0  0  0  0
   -1.9703   -0.5970    1.8450 H   0  0  0  0  0  0  0  0  0  0  0  0
   -3.5413   -0.1471    2.5899 H   0  0  0  0  0  0  0  0  0  0  0  0
    3.1802    2.4636   -0.2838 C   0  0  0  0  0  0  0  0  0  0  0  0
    4.2703    2.4081   -0.4358 H   0  0  0  0  0  0  0  0  0  0  0  0
    2.5874    3.6821    0.0849 C   0  0  0  0  0  0  0  0  0  0  0  0
    3.2126    4.5765    0.2257 H   0  0  0  0  0  0  0  0  0  0  0  0
    1.1988    3.7632    0.2667 C   0  0  0  0  0  0  0  0  0  0  0  0
    0.7383    4.7250    0.5444 H   0  0  0  0  0  0  0  0  0  0  0  0
  1  7  1  0  0  0  0
  2 14  1  0  0  0  0
  2 26  1  0  0  0  0
  3 32  2  0  0  0  0
  3  9  1  0  0  0  0
  4  5  1  0  0  0  0
  4  1  1  0  0  0  0
  4  3  1  0  0  0  0
  6  4  1  0  0  0  0
  7 18  1  0  0  0  0
  7  8  1  0  0  0  0
  7 22  1  0  0  0  0
  9 17  2  0  0  0  0
 10 13  1  0  0  0  0
 10 11  1  0  0  0  0
 12 10  1  0  0  0  0
 14 16  1  0  0  0  0
 15 14  1  0  0  0  0
 17 36  1  0  0  0  0
 17 14  1  0  0  0  0
 18 19  1  0  0  0  0
 20 18  1  0  0  0  0
 21 18  1  0  0  0  0
 22 25  1  0  0  0  0
 23 22  1  0  0  0  0
 24 22  1  0  0  0  0
 26 10  1  0  0  0  0
 26 28  1  0  0  0  0
 27 26  1  0  0  0  0
 28 29  1  0  0  0  0
 28 31  1  0  0  0  0
 30 28  1  0  0  0  0
 32 34  1  0  0  0  0
 33 32  1  0  0  0  0
 34 35  1  0  0  0  0
 34 36  2  0  0  0  0
 36 37  1  0  0  0  0
M  END
