1,2,5
 OpenBabel05122313063D

 51 54  0  0  1  0  0  0  0  0999 V2000
   -2.3432   -1.7249   -0.4553 S   0  0  0  0  0  1  0  0  0  0  0  0
    2.3432   -1.7249   -0.4554 S   0  0  0  0  0  1  0  0  0  0  0  0
   -3.6230    0.5935    0.0517 N   0  0  0  0  0  0  0  0  0  0  0  0
    3.6230    0.5935    0.0517 N   0  0  0  0  0  0  0  0  0  0  0  0
    0.0000   -0.1211   -0.2118 C   0  0  0  0  0  3  0  0  0  0  0  0
   -1.1668    0.7002   -0.2575 C   0  0  0  0  0  0  0  0  0  0  0  0
   -0.7510    2.0348   -0.5783 C   0  0  0  0  0  0  0  0  0  0  0  0
    0.7511    2.0348   -0.5783 C   0  0  0  0  0  0  0  0  0  0  0  0
   -1.5864    3.0882   -0.9933 C   0  0  0  0  0  0  0  0  0  0  0  0
    1.1668    0.7002   -0.2576 C   0  0  0  0  0  0  0  0  0  0  0  0
   -2.4291   -0.0085   -0.2079 C   0  0  1  0  0  3  0  0  0  0  0  0
   -1.2628    4.3865   -1.4203 C   0  0  0  0  0  0  0  0  0  0  0  0
   -0.0000    4.9770   -1.5895 C   0  0  0  0  0  0  0  0  0  0  0  0
    1.2627    4.3866   -1.4203 C   0  0  0  0  0  0  0  0  0  0  0  0
    1.5864    3.0882   -0.9933 C   0  0  0  0  0  0  0  0  0  0  0  0
   -3.7243    1.7074    1.0087 C   0  0  0  0  0  0  0  0  0  0  0  0
    2.4291   -0.0085   -0.2079 C   0  0  2  0  0  3  0  0  0  0  0  0
   -4.1836    1.1908    2.3817 C   0  0  0  0  0  0  0  0  0  0  0  0
   -5.4917    0.3982    2.2835 C   0  0  0  0  0  0  0  0  0  0  0  0
   -5.3687   -0.7170    1.2384 C   0  0  0  0  0  0  0  0  0  0  0  0
   -4.8841   -0.1444   -0.0988 C   0  0  0  0  0  0  0  0  0  0  0  0
    3.7243    1.7073    1.0088 C   0  0  0  0  0  0  0  0  0  0  0  0
    4.1836    1.1908    2.3817 C   0  0  0  0  0  0  0  0  0  0  0  0
    5.4917    0.3982    2.2835 C   0  0  0  0  0  0  0  0  0  0  0  0
    5.3688   -0.7170    1.2383 C   0  0  0  0  0  0  0  0  0  0  0  0
    4.8841   -0.1444   -0.0988 C   0  0  0  0  0  0  0  0  0  0  0  0
   -2.6598    2.8479   -1.0185 H   0  0  0  0  0  0  0  0  0  0  0  0
   -2.1249    5.0235   -1.6770 H   0  0  0  0  0  0  0  0  0  0  0  0
   -0.0000    6.0230   -1.9365 H   0  0  0  0  0  0  0  0  0  0  0  0
    2.1249    5.0236   -1.6769 H   0  0  0  0  0  0  0  0  0  0  0  0
    2.6598    2.8479   -1.0185 H   0  0  0  0  0  0  0  0  0  0  0  0
   -4.4542    2.4479    0.6119 H   0  0  0  0  0  0  0  0  0  0  0  0
   -2.7448    2.2068    1.0965 H   0  0  0  0  0  0  0  0  0  0  0  0
   -4.2894    2.0558    3.0694 H   0  0  0  0  0  0  0  0  0  0  0  0
   -3.3802    0.5441    2.7965 H   0  0  0  0  0  0  0  0  0  0  0  0
   -5.7656   -0.0208    3.2735 H   0  0  0  0  0  0  0  0  0  0  0  0
   -6.3176    1.0872    1.9942 H   0  0  0  0  0  0  0  0  0  0  0  0
   -4.6400   -1.4853    1.5734 H   0  0  0  0  0  0  0  0  0  0  0  0
   -6.3382   -1.2342    1.0859 H   0  0  0  0  0  0  0  0  0  0  0  0
   -4.7324   -0.9390   -0.8535 H   0  0  0  0  0  0  0  0  0  0  0  0
   -5.6324    0.5758   -0.4990 H   0  0  0  0  0  0  0  0  0  0  0  0
    2.7448    2.2067    1.0966 H   0  0  0  0  0  0  0  0  0  0  0  0
    4.4542    2.4479    0.6120 H   0  0  0  0  0  0  0  0  0  0  0  0
    3.3802    0.5440    2.7965 H   0  0  0  0  0  0  0  0  0  0  0  0
    4.2894    2.0557    3.0694 H   0  0  0  0  0  0  0  0  0  0  0  0
    6.3177    1.0872    1.9942 H   0  0  0  0  0  0  0  0  0  0  0  0
    5.7657   -0.0208    3.2734 H   0  0  0  0  0  0  0  0  0  0  0  0
    6.3383   -1.2342    1.0858 H   0  0  0  0  0  0  0  0  0  0  0  0
    4.6401   -1.4853    1.5734 H   0  0  0  0  0  0  0  0  0  0  0  0
    5.6324    0.5759   -0.4990 H   0  0  0  0  0  0  0  0  0  0  0  0
    4.7325   -0.9389   -0.8535 H   0  0  0  0  0  0  0  0  0  0  0  0
  3 16  1  0  0  0  0
  4 22  1  0  0  0  0
  6  5  1  0  0  0  0
  6 11  1  0  0  0  0
  7  6  2  0  0  0  0
  8  7  1  0  0  0  0
  8 10  1  0  0  0  0
  9  7  1  0  0  0  0
 10  5  2  0  0  0  0
 10 17  1  0  0  0  0
 11  1  1  1  0  0  0
 11  3  1  0  0  0  0
 12  9  2  0  0  0  0
 13 12  1  0  0  0  0
 13 14  2  0  0  0  0
 14 15  1  0  0  0  0
 15  8  2  0  0  0  0
 16 33  1  0  0  0  0
 16 18  1  0  0  0  0
 17  2  1  1  0  0  0
 17  4  1  0  0  0  0
 18 35  1  0  0  0  0
 18 34  1  0  0  0  0
 19 18  1  0  0  0  0
 19 36  1  0  0  0  0
 20 38  1  0  0  0  0
 20 19  1  0  0  0  0
 21  3  1  0  0  0  0
 21 20  1  0  0  0  0
 22 42  1  0  0  0  0
 22 23  1  0  0  0  0
 23 44  1  0  0  0  0
 23 45  1  0  0  0  0
 24 23  1  0  0  0  0
 24 47  1  0  0  0  0
 25 49  1  0  0  0  0
 25 24  1  0  0  0  0
 26  4  1  0  0  0  0
 26 25  1  0  0  0  0
 27  9  1  0  0  0  0
 28 12  1  0  0  0  0
 29 13  1  0  0  0  0
 30 14  1  0  0  0  0
 31 15  1  0  0  0  0
 32 16  1  0  0  0  0
 37 19  1  0  0  0  0
 39 20  1  0  0  0  0
 40 21  1  0  0  0  0
 41 21  1  0  0  0  0
 43 22  1  0  0  0  0
 46 24  1  0  0  0  0
 48 25  1  0  0  0  0
 50 26  1  0  0  0  0
 51 26  1  0  0  0  0
M  END
