1,3,13
 OpenBabel05122313063D

 53 53  0  0  0  0  0  0  0  0999 V2000
   -2.3787    0.8893   -0.6075 S   0  0  0  0  0  1  0  0  0  0  0  0
   -2.7972   -1.0022    0.0418 P   0  0  0  0  0  4  0  0  0  0  0  0
   -0.0259   -1.1777   -0.1006 C   0  0  0  0  0  3  0  0  0  0  0  0
    1.1678   -1.9593    0.0443 C   0  0  0  0  0  0  0  0  0  0  0  0
    1.1463   -3.3555    0.2427 C   0  0  0  0  0  0  0  0  0  0  0  0
    2.0887   -3.9201    0.3165 H   0  0  0  0  0  0  0  0  0  0  0  0
   -0.0693   -4.0461    0.3268 C   0  0  0  0  0  0  0  0  0  0  0  0
   -0.0856   -5.1371    0.4586 H   0  0  0  0  0  0  0  0  0  0  0  0
   -1.2636   -3.3189    0.2453 C   0  0  0  0  0  0  0  0  0  0  0  0
   -2.2230   -3.8539    0.3226 H   0  0  0  0  0  0  0  0  0  0  0  0
   -1.2421   -1.9232    0.0466 C   0  0  0  0  0  0  0  0  0  0  0  0
    2.7532   -1.0899    0.0071 P   0  0  0  0  0  4  0  0  0  0  0  0
    2.3943    0.7969   -0.6889 S   0  0  0  0  0  1  0  0  0  0  0  0
   -3.4733   -0.9517    1.7789 C   0  0  0  0  0  0  0  0  0  0  0  0
   -4.2926   -0.2034    1.6892 H   0  0  0  0  0  0  0  0  0  0  0  0
   -2.4025   -0.4072    2.7303 C   0  0  0  0  0  0  0  0  0  0  0  0
   -2.8498   -0.2324    3.7293 H   0  0  0  0  0  0  0  0  0  0  0  0
   -1.9673    0.5417    2.3642 H   0  0  0  0  0  0  0  0  0  0  0  0
   -1.5730   -1.1338    2.8499 H   0  0  0  0  0  0  0  0  0  0  0  0
   -4.0472   -2.2936    2.2465 C   0  0  0  0  0  0  0  0  0  0  0  0
   -3.2579   -3.0689    2.3183 H   0  0  0  0  0  0  0  0  0  0  0  0
   -4.8574   -2.6725    1.5936 H   0  0  0  0  0  0  0  0  0  0  0  0
   -4.4745   -2.1726    3.2626 H   0  0  0  0  0  0  0  0  0  0  0  0
   -4.0422   -1.8383   -1.0514 C   0  0  0  0  0  0  0  0  0  0  0  0
   -4.1884   -2.8425   -0.5940 H   0  0  0  0  0  0  0  0  0  0  0  0
   -5.3659   -1.0631   -1.0249 C   0  0  0  0  0  0  0  0  0  0  0  0
   -5.2195   -0.0252   -1.3876 H   0  0  0  0  0  0  0  0  0  0  0  0
   -5.8188   -1.0191   -0.0149 H   0  0  0  0  0  0  0  0  0  0  0  0
   -6.0974   -1.5543   -1.6973 H   0  0  0  0  0  0  0  0  0  0  0  0
   -3.4820   -1.9993   -2.4680 C   0  0  0  0  0  0  0  0  0  0  0  0
   -4.2154   -2.5424   -3.0972 H   0  0  0  0  0  0  0  0  0  0  0  0
   -2.5310   -2.5666   -2.4802 H   0  0  0  0  0  0  0  0  0  0  0  0
   -3.2989   -1.0085   -2.9293 H   0  0  0  0  0  0  0  0  0  0  0  0
    3.4658   -1.0453    1.7299 C   0  0  0  0  0  0  0  0  0  0  0  0
    4.3729   -0.4145    1.5953 H   0  0  0  0  0  0  0  0  0  0  0  0
    3.8743   -2.4295    2.2460 C   0  0  0  0  0  0  0  0  0  0  0  0
    4.3617   -2.3212    3.2361 H   0  0  0  0  0  0  0  0  0  0  0  0
    4.5949   -2.9460    1.5819 H   0  0  0  0  0  0  0  0  0  0  0  0
    2.9914   -3.0847    2.3878 H   0  0  0  0  0  0  0  0  0  0  0  0
    2.4991   -0.3261    2.6748 C   0  0  0  0  0  0  0  0  0  0  0  0
    1.5496   -0.8882    2.7864 H   0  0  0  0  0  0  0  0  0  0  0  0
    2.2521    0.6834    2.2995 H   0  0  0  0  0  0  0  0  0  0  0  0
    2.9617   -0.2290    3.6773 H   0  0  0  0  0  0  0  0  0  0  0  0
    3.9498   -1.9929   -1.0889 C   0  0  0  0  0  0  0  0  0  0  0  0
    4.0552   -2.9990   -0.6248 H   0  0  0  0  0  0  0  0  0  0  0  0
    3.3665   -2.1401   -2.4979 C   0  0  0  0  0  0  0  0  0  0  0  0
    3.2181   -1.1457   -2.9639 H   0  0  0  0  0  0  0  0  0  0  0  0
    2.3932   -2.6684   -2.4941 H   0  0  0  0  0  0  0  0  0  0  0  0
    4.0690   -2.7178   -3.1313 H   0  0  0  0  0  0  0  0  0  0  0  0
    5.3085   -1.2806   -1.0842 C   0  0  0  0  0  0  0  0  0  0  0  0
    6.0042   -1.8045   -1.7698 H   0  0  0  0  0  0  0  0  0  0  0  0
    5.7806   -1.2618   -0.0823 H   0  0  0  0  0  0  0  0  0  0  0  0
    5.2059   -0.2362   -1.4436 H   0  0  0  0  0  0  0  0  0  0  0  0
  1  2  1  0  0  0  0
  2 11  1  0  0  0  0
  2 14  1  0  0  0  0
  3  4  2  0  0  0  0
  3 11  1  0  0  0  0
  4  5  1  0  0  0  0
  5  6  1  0  0  0  0
  5  7  2  0  0  0  0
  7  8  1  0  0  0  0
  9 10  1  0  0  0  0
  9  7  1  0  0  0  0
 11  9  2  0  0  0  0
 12  4  1  0  0  0  0
 12 34  1  0  0  0  0
 13 12  1  0  0  0  0
 14 20  1  0  0  0  0
 14 16  1  0  0  0  0
 15 14  1  0  0  0  0
 16 19  1  0  0  0  0
 16 17  1  0  0  0  0
 18 16  1  0  0  0  0
 20 21  1  0  0  0  0
 20 23  1  0  0  0  0
 22 20  1  0  0  0  0
 24 26  1  0  0  0  0
 24 25  1  0  0  0  0
 24  2  1  0  0  0  0
 26 28  1  0  0  0  0
 27 26  1  0  0  0  0
 29 26  1  0  0  0  0
 30 24  1  0  0  0  0
 31 30  1  0  0  0  0
 32 30  1  0  0  0  0
 33 30  1  0  0  0  0
 34 36  1  0  0  0  0
 34 40  1  0  0  0  0
 35 34  1  0  0  0  0
 36 39  1  0  0  0  0
 36 37  1  0  0  0  0
 38 36  1  0  0  0  0
 40 41  1  0  0  0  0
 40 43  1  0  0  0  0
 42 40  1  0  0  0  0
 44 50  1  0  0  0  0
 44 45  1  0  0  0  0
 44 12  1  0  0  0  0
 46 48  1  0  0  0  0
 46 44  1  0  0  0  0
 47 46  1  0  0  0  0
 49 46  1  0  0  0  0
 50 52  1  0  0  0  0
 51 50  1  0  0  0  0
 53 50  1  0  0  0  0
M  END
