1,4,5
 OpenBabel05122313063D

 35 37  0  0  0  0  0  0  0  0999 V2000
   -0.0537    1.1368   -0.0180 C   0  0  0  0  0  2  0  0  0  0  0  0
   -1.1757    1.8958    0.1220 N   0  0  0  0  0  0  0  0  0  0  0  0
    1.0107    1.9627   -0.1976 N   0  0  0  0  0  0  0  0  0  0  0  0
   -1.9451   -0.8489   -1.2286 S   0  0  0  0  0  5  0  0  0  0  0  0
    1.9397   -0.6774    1.2845 S   0  0  0  0  0  5  0  0  0  0  0  0
   -2.5131    1.4520    0.3145 C   0  0  0  0  0  0  0  0  0  0  0  0
   -3.4070    2.2787    1.0272 C   0  0  0  0  0  0  0  0  0  0  0  0
   -4.7381    1.8864    1.2299 C   0  0  0  0  0  0  0  0  0  0  0  0
   -5.2029    0.6599    0.7345 C   0  0  0  0  0  0  0  0  0  0  0  0
   -4.3235   -0.1686    0.0230 C   0  0  0  0  0  0  0  0  0  0  0  0
   -2.9999    0.2246   -0.1943 C   0  0  0  0  0  0  0  0  0  0  0  0
    2.3737    1.5962   -0.3630 C   0  0  0  0  0  0  0  0  0  0  0  0
    3.2198    2.4445   -1.1073 C   0  0  0  0  0  0  0  0  0  0  0  0
    4.5738    2.1260   -1.2849 C   0  0  0  0  0  0  0  0  0  0  0  0
    5.1073    0.9537   -0.7314 C   0  0  0  0  0  0  0  0  0  0  0  0
    4.2736    0.1052    0.0111 C   0  0  0  0  0  0  0  0  0  0  0  0
    2.9265    0.4242    0.2032 C   0  0  0  0  0  0  0  0  0  0  0  0
   -0.8417    3.3291    0.2052 C   0  0  0  0  0  0  0  0  0  0  0  0
    0.5816    3.3641   -0.3503 C   0  0  0  0  0  0  0  0  0  0  0  0
   -1.8469   -0.1547   -2.5514 O   0  0  0  0  0  0  0  0  0  0  0  0
   -2.5898   -2.2205   -1.1812 O   0  0  0  0  0  0  0  0  0  0  0  0
    1.7596    0.0756    2.5679 O   0  0  0  0  0  0  0  0  0  0  0  0
    2.7247   -1.9727    1.3364 O   0  0  0  0  0  0  0  0  0  0  0  0
   -3.0631    3.2338    1.4466 H   0  0  0  0  0  0  0  0  0  0  0  0
   -5.4113    2.5486    1.7942 H   0  0  0  0  0  0  0  0  0  0  0  0
   -6.2449    0.3494    0.9012 H   0  0  0  0  0  0  0  0  0  0  0  0
   -4.6350   -1.1445   -0.3814 H   0  0  0  0  0  0  0  0  0  0  0  0
    2.8207    3.3569   -1.5709 H   0  0  0  0  0  0  0  0  0  0  0  0
    5.2104    2.8017   -1.8751 H   0  0  0  0  0  0  0  0  0  0  0  0
    6.1675    0.6996   -0.8779 H   0  0  0  0  0  0  0  0  0  0  0  0
    4.6395   -0.8307    0.4616 H   0  0  0  0  0  0  0  0  0  0  0  0
   -0.8803    3.6661    1.2634 H   0  0  0  0  0  0  0  0  0  0  0  0
   -1.5571    3.9304   -0.3865 H   0  0  0  0  0  0  0  0  0  0  0  0
    1.2536    4.0404    0.2107 H   0  0  0  0  0  0  0  0  0  0  0  0
    0.6003    3.6507   -1.4237 H   0  0  0  0  0  0  0  0  0  0  0  0
  1  2  1  0  0  0  0
  2 18  1  0  0  0  0
  2  6  1  0  0  0  0
  3  1  1  0  0  0  0
  4 21  2  0  0  0  0
  4 11  1  0  0  0  0
  5 23  2  0  0  0  0
  5 22  2  0  0  0  0
  6  7  1  0  0  0  0
  7  8  2  0  0  0  0
  7 24  1  0  0  0  0
  8 25  1  0  0  0  0
  9 26  1  0  0  0  0
  9  8  1  0  0  0  0
 10  9  2  0  0  0  0
 11 10  1  0  0  0  0
 11  6  2  0  0  0  0
 12  3  1  0  0  0  0
 12 17  1  0  0  0  0
 13 12  2  0  0  0  0
 14 13  1  0  0  0  0
 14 15  2  0  0  0  0
 15 16  1  0  0  0  0
 16 17  2  0  0  0  0
 16 31  1  0  0  0  0
 17  5  1  0  0  0  0
 18 32  1  0  0  0  0
 19  3  1  0  0  0  0
 19 18  1  0  0  0  0
 19 34  1  0  0  0  0
 20  4  2  0  0  0  0
 27 10  1  0  0  0  0
 28 13  1  0  0  0  0
 29 14  1  0  0  0  0
 30 15  1  0  0  0  0
 33 18  1  0  0  0  0
 35 19  1  0  0  0  0
M  END
