1,2,3
 OpenBabel05122313063D

 31 33  0  0  0  0  0  0  0  0999 V2000
   -1.4216    0.3156    1.3912 S   0  0  0  0  0  1  0  0  0  0  0  0
    1.5899   -1.6719   -1.1926 S   0  0  0  0  0  1  0  0  0  0  0  0
    1.0591    0.9200    0.0122 C   0  0  0  0  0  2  0  0  0  0  0  0
    0.5355    2.1695   -0.1677 N   0  0  0  0  0  0  0  0  0  0  0  0
    2.4096    1.0528    0.1290 N   0  0  0  0  0  0  0  0  0  0  0  0
   -0.8254    2.5311   -0.2204 C   0  0  0  0  0  0  0  0  0  0  0  0
   -1.2040    3.6998   -0.9140 C   0  0  0  0  0  0  0  0  0  0  0  0
   -2.5357    4.1327   -0.9207 C   0  0  0  0  0  0  0  0  0  0  0  0
   -3.5089    3.3934   -0.2287 C   0  0  0  0  0  0  0  0  0  0  0  0
   -3.1439    2.2236    0.4462 C   0  0  0  0  0  0  0  0  0  0  0  0
   -1.8068    1.7611    0.4685 C   0  0  0  0  0  0  0  0  0  0  0  0
    3.3703    0.0235    0.1800 C   0  0  0  0  0  0  0  0  0  0  0  0
    4.6262    0.2816    0.7694 C   0  0  0  0  0  0  0  0  0  0  0  0
    5.6368   -0.6866    0.7612 C   0  0  0  0  0  0  0  0  0  0  0  0
    5.3952   -1.9333    0.1598 C   0  0  0  0  0  0  0  0  0  0  0  0
    4.1456   -2.2037   -0.4058 C   0  0  0  0  0  0  0  0  0  0  0  0
    3.1030   -1.2450   -0.4110 C   0  0  0  0  0  0  0  0  0  0  0  0
    1.5914    3.1760   -0.3667 C   0  0  0  0  0  0  0  0  0  0  0  0
    2.8129    2.4672    0.2115 C   0  0  0  0  0  0  0  0  0  0  0  0
   -0.4486    4.2783   -1.4645 H   0  0  0  0  0  0  0  0  0  0  0  0
   -2.8096    5.0445   -1.4715 H   0  0  0  0  0  0  0  0  0  0  0  0
   -4.5585    3.7237   -0.2223 H   0  0  0  0  0  0  0  0  0  0  0  0
   -3.8988    1.6296    0.9829 H   0  0  0  0  0  0  0  0  0  0  0  0
    4.8160    1.2523    1.2492 H   0  0  0  0  0  0  0  0  0  0  0  0
    6.6074   -0.4667    1.2293 H   0  0  0  0  0  0  0  0  0  0  0  0
    6.1804   -2.7042    0.1425 H   0  0  0  0  0  0  0  0  0  0  0  0
    3.9391   -3.1837   -0.8616 H   0  0  0  0  0  0  0  0  0  0  0  0
    1.7135    3.4011   -1.4494 H   0  0  0  0  0  0  0  0  0  0  0  0
    1.3371    4.1145    0.1605 H   0  0  0  0  0  0  0  0  0  0  0  0
    3.0016    2.7537    1.2695 H   0  0  0  0  0  0  0  0  0  0  0  0
    3.7376    2.6409   -0.3699 H   0  0  0  0  0  0  0  0  0  0  0  0
  2 17  1  0  0  0  0
  3  5  1  0  0  0  0
  4  3  1  0  0  0  0
  5 12  1  0  0  0  0
  5 19  1  0  0  0  0
  6  4  1  0  0  0  0
  6 11  1  0  0  0  0
  7  6  2  0  0  0  0
  8  7  1  0  0  0  0
  8  9  2  0  0  0  0
  9 22  1  0  0  0  0
  9 10  1  0  0  0  0
 10 11  2  0  0  0  0
 10 23  1  0  0  0  0
 11  1  1  0  0  0  0
 12 13  1  0  0  0  0
 13 24  1  0  0  0  0
 14 13  2  0  0  0  0
 14 25  1  0  0  0  0
 15 14  1  0  0  0  0
 16 15  2  0  0  0  0
 17 16  1  0  0  0  0
 17 12  2  0  0  0  0
 18  4  1  0  0  0  0
 18 29  1  0  0  0  0
 18 19  1  0  0  0  0
 19 30  1  0  0  0  0
 20  7  1  0  0  0  0
 21  8  1  0  0  0  0
 26 15  1  0  0  0  0
 27 16  1  0  0  0  0
 28 18  1  0  0  0  0
 31 19  1  0  0  0  0
M  END
