1,12,23
 OpenBabel05122313063D

 24 24  0  0  0  0  0  0  0  0999 V2000
    0.0941    3.0061    1.3696 S   0  0  0  0  0  0  0  0  0  0  0  0
   -1.2992    3.1841    2.5394 C   0  0  0  0  0  0  0  0  0  0  0  0
   -1.3349    4.2205    2.9255 H   0  0  0  0  0  0  0  0  0  0  0  0
   -1.0580    2.4797    3.3592 H   0  0  0  0  0  0  0  0  0  0  0  0
   -2.2641    2.9037    2.0754 H   0  0  0  0  0  0  0  0  0  0  0  0
   -0.6315    3.8829   -0.0960 C   0  0  0  0  0  0  0  0  0  0  0  0
   -1.7359    3.8050   -0.0256 H   0  0  0  0  0  0  0  0  0  0  0  0
   -0.3496    4.9536   -0.0273 H   0  0  0  0  0  0  0  0  0  0  0  0
   -0.1324    3.2947   -1.4022 C   0  0  0  0  0  0  0  0  0  0  0  0
    0.9739    3.3355   -1.4804 H   0  0  0  0  0  0  0  0  0  0  0  0
   -0.6020    3.7887   -2.2766 H   0  0  0  0  0  0  0  0  0  0  0  0
   -0.4588    1.4666   -1.5260 S   0  0  0  0  0  0  0  0  0  0  0  0
   -2.2511    1.4605   -1.2500 C   0  0  0  0  0  0  0  0  0  0  0  0
   -3.1804    1.9110   -2.1901 C   0  0  0  0  0  0  0  0  0  0  0  0
   -2.8452    2.2859   -3.1697 H   0  0  0  0  0  0  0  0  0  0  0  0
   -4.5495    1.8851   -1.8619 C   0  0  0  0  0  0  0  0  0  0  0  0
   -5.2931    2.2431   -2.5899 H   0  0  0  0  0  0  0  0  0  0  0  0
   -4.9633    1.4115   -0.6042 C   0  0  0  0  0  0  0  0  0  0  0  0
   -6.0339    1.4078   -0.3480 H   0  0  0  0  0  0  0  0  0  0  0  0
   -4.0213    0.9463    0.3245 C   0  0  0  0  0  0  0  0  0  0  0  0
   -4.3412    0.5666    1.3068 H   0  0  0  0  0  0  0  0  0  0  0  0
   -2.6408    0.9504    0.0146 C   0  0  0  0  0  0  0  0  0  0  0  0
   -1.5906    0.4895    0.9305 C   0  0  0  0  0  2  0  0  0  0  0  0
   -1.9534    0.2400    1.9535 H   0  0  0  0  0  0  0  0  0  0  0  0
  1  2  1  0  0  0  0
  2  3  1  0  0  0  0
  2  4  1  0  0  0  0
  5  2  1  0  0  0  0
  6  8  1  0  0  0  0
  6  7  1  0  0  0  0
  6  1  1  0  0  0  0
  9  6  1  0  0  0  0
 10  9  1  0  0  0  0
 11  9  1  0  0  0  0
 12  9  1  0  0  0  0
 12 13  1  0  0  0  0
 13 22  1  0  0  0  0
 14 16  1  0  0  0  0
 14 13  2  0  0  0  0
 15 14  1  0  0  0  0
 16 18  2  0  0  0  0
 17 16  1  0  0  0  0
 18 19  1  0  0  0  0
 18 20  1  0  0  0  0
 20 21  1  0  0  0  0
 22 20  2  0  0  0  0
 22 23  1  0  0  0  0
 23 24  1  0  0  0  0
M  END
