1,2,5
 OpenBabel05122313063D

 39 39  0  0  0  0  0  0  0  0999 V2000
   -2.2136    0.2020   -0.6194 S   0  0  2  0  0  3  0  0  0  0  0  0
    2.2132    0.1793    0.6176 S   0  0  2  0  0  3  0  0  0  0  0  0
   -2.9340    1.1885   -1.4920 O   0  0  0  0  0  1  0  0  0  0  0  0
    2.9429    1.1603    1.4888 O   0  0  0  0  0  1  0  0  0  0  0  0
   -0.0095   -1.5265    0.0006 C   0  0  0  0  0  3  0  0  0  0  0  0
   -1.0388   -2.2325   -0.6728 C   0  0  0  0  0  0  0  0  0  0  0  0
   -1.0480   -3.6411   -0.6496 C   0  0  0  0  0  0  0  0  0  0  0  0
   -1.8491   -4.1925   -1.1651 H   0  0  0  0  0  0  0  0  0  0  0  0
   -0.0248   -4.3429    0.0037 C   0  0  0  0  0  0  0  0  0  0  0  0
   -0.0308   -5.4426    0.0048 H   0  0  0  0  0  0  0  0  0  0  0  0
    1.0059   -3.6509    0.6554 C   0  0  0  0  0  0  0  0  0  0  0  0
    1.8009   -4.2098    1.1722 H   0  0  0  0  0  0  0  0  0  0  0  0
    1.0121   -2.2422    0.6756 C   0  0  0  0  0  0  0  0  0  0  0  0
    2.0674   -1.4759    1.4241 C   0  0  0  0  0  0  0  0  0  0  0  0
    3.0643   -1.9572    1.4620 H   0  0  0  0  0  0  0  0  0  0  0  0
    1.7683   -1.2066    2.4596 H   0  0  0  0  0  0  0  0  0  0  0  0
   -2.0858   -1.4562   -1.4227 C   0  0  0  0  0  0  0  0  0  0  0  0
   -3.0879   -1.9267   -1.4599 H   0  0  0  0  0  0  0  0  0  0  0  0
   -1.7838   -1.1920   -2.4587 H   0  0  0  0  0  0  0  0  0  0  0  0
   -3.2279   -0.1443    0.9096 C   0  0  0  0  0  0  0  0  0  0  0  0
   -2.7467   -1.0580    1.3214 H   0  0  0  0  0  0  0  0  0  0  0  0
   -3.0385    1.0468    1.8444 C   0  0  0  0  0  0  0  0  0  0  0  0
   -3.4108    1.9787    1.3733 H   0  0  0  0  0  0  0  0  0  0  0  0
   -1.9736    1.1860    2.1208 H   0  0  0  0  0  0  0  0  0  0  0  0
   -3.6166    0.8799    2.7746 H   0  0  0  0  0  0  0  0  0  0  0  0
   -4.6716   -0.3800    0.4871 C   0  0  0  0  0  0  0  0  0  0  0  0
   -5.2961   -0.5103    1.3933 H   0  0  0  0  0  0  0  0  0  0  0  0
   -4.7949   -1.2893   -0.1327 H   0  0  0  0  0  0  0  0  0  0  0  0
   -5.0583    0.4898   -0.0795 H   0  0  0  0  0  0  0  0  0  0  0  0
    3.2252   -0.1809   -0.9096 C   0  0  0  0  0  0  0  0  0  0  0  0
    2.7357   -1.0912   -1.3191 H   0  0  0  0  0  0  0  0  0  0  0  0
    3.0480    1.0091   -1.8482 C   0  0  0  0  0  0  0  0  0  0  0  0
    3.4282    1.9390   -1.3795 H   0  0  0  0  0  0  0  0  0  0  0  0
    1.9847    1.1571   -2.1263 H   0  0  0  0  0  0  0  0  0  0  0  0
    3.6257    0.8340   -2.7772 H   0  0  0  0  0  0  0  0  0  0  0  0
    4.6663   -0.4291   -0.4851 C   0  0  0  0  0  0  0  0  0  0  0  0
    5.2902   -0.5687   -1.3904 H   0  0  0  0  0  0  0  0  0  0  0  0
    4.7802   -1.3374    0.1380 H   0  0  0  0  0  0  0  0  0  0  0  0
    5.0610    0.4388    0.0788 H   0  0  0  0  0  0  0  0  0  0  0  0
  1  3  1  6  0  0  0
  1 20  1  0  0  0  0
  2 14  1  0  0  0  0
  2  4  1  1  0  0  0
  5 13  1  0  0  0  0
  6  7  1  0  0  0  0
  6  5  2  0  0  0  0
  7  9  2  0  0  0  0
  8  7  1  0  0  0  0
  9 10  1  0  0  0  0
  9 11  1  0  0  0  0
 11 13  2  0  0  0  0
 11 12  1  0  0  0  0
 13 14  1  0  0  0  0
 14 15  1  0  0  0  0
 14 16  1  0  0  0  0
 17  6  1  0  0  0  0
 17  1  1  0  0  0  0
 18 17  1  0  0  0  0
 19 17  1  0  0  0  0
 20 21  1  0  0  0  0
 20 22  1  0  0  0  0
 22 24  1  0  0  0  0
 22 25  1  0  0  0  0
 23 22  1  0  0  0  0
 26 20  1  0  0  0  0
 26 27  1  0  0  0  0
 28 26  1  0  0  0  0
 29 26  1  0  0  0  0
 30 36  1  0  0  0  0
 30  2  1  0  0  0  0
 31 30  1  0  0  0  0
 32 33  1  0  0  0  0
 32 30  1  0  0  0  0
 34 32  1  0  0  0  0
 35 32  1  0  0  0  0
 36 39  1  0  0  0  0
 36 38  1  0  0  0  0
 37 36  1  0  0  0  0
M  END
