1,2,5
 OpenBabel05122313063D

 45 47  0  0  1  0  0  0  0  0999 V2000
    2.3430    0.7213   -0.2263 S   0  0  0  0  0  1  0  0  0  0  0  0
   -2.3432    0.7216   -0.2268 S   0  0  0  0  0  1  0  0  0  0  0  0
   -3.6626   -0.9565   -1.8352 N   0  0  0  0  0  0  0  0  0  0  0  0
    3.6625   -0.9567   -1.8347 N   0  0  0  0  0  0  0  0  0  0  0  0
   -0.0000   -0.4806   -1.4630 C   0  0  0  0  0  3  0  0  0  0  0  0
    2.4640   -0.4991   -1.4330 C   0  0  1  0  0  3  0  0  0  0  0  0
    1.2236   -1.0213   -2.0034 C   0  0  0  0  0  0  0  0  0  0  0  0
   -1.2236   -1.0212   -2.0036 C   0  0  0  0  0  0  0  0  0  0  0  0
   -2.4641   -0.4988   -1.4334 C   0  0  2  0  0  3  0  0  0  0  0  0
    1.2096   -2.0013   -3.0206 C   0  0  0  0  0  0  0  0  0  0  0  0
    5.5112   -1.6952   -0.3715 C   0  0  0  0  0  0  0  0  0  0  0  0
    4.8442   -2.0374    0.8244 C   0  0  0  0  0  0  0  0  0  0  0  0
   -1.2095   -2.0011   -3.0209 C   0  0  0  0  0  0  0  0  0  0  0  0
    4.9603   -0.6002   -1.2631 C   0  0  0  0  0  0  0  0  0  0  0  0
    5.3376   -3.0649    1.6391 C   0  0  0  0  0  0  0  0  0  0  0  0
    6.5028   -3.7604    1.2727 C   0  0  0  0  0  0  0  0  0  0  0  0
    6.6754   -2.3977   -0.7326 C   0  0  0  0  0  0  0  0  0  0  0  0
    0.0000   -2.4888   -3.5318 C   0  0  0  0  0  0  0  0  0  0  0  0
   -4.8442   -2.0368    0.8244 C   0  0  0  0  0  0  0  0  0  0  0  0
   -5.5109   -1.6952   -0.3717 C   0  0  0  0  0  0  0  0  0  0  0  0
   -4.9603   -0.6002   -1.2635 C   0  0  0  0  0  0  0  0  0  0  0  0
    7.1720   -3.4241    0.0869 C   0  0  0  0  0  0  0  0  0  0  0  0
   -5.3371   -3.0643    1.6392 C   0  0  0  0  0  0  0  0  0  0  0  0
   -6.5017   -3.7608    1.2725 C   0  0  0  0  0  0  0  0  0  0  0  0
   -6.6745   -2.3987   -0.7332 C   0  0  0  0  0  0  0  0  0  0  0  0
   -7.1707   -3.4253    0.0864 C   0  0  0  0  0  0  0  0  0  0  0  0
   -3.6619   -1.7532   -2.4768 H   0  0  0  0  0  0  0  0  0  0  0  0
    3.6619   -1.7533   -2.4765 H   0  0  0  0  0  0  0  0  0  0  0  0
    3.9371   -1.4849    1.1168 H   0  0  0  0  0  0  0  0  0  0  0  0
    4.8146   -3.3216    2.5729 H   0  0  0  0  0  0  0  0  0  0  0  0
    6.8911   -4.5641    1.9161 H   0  0  0  0  0  0  0  0  0  0  0  0
    7.2040   -2.1349   -1.6630 H   0  0  0  0  0  0  0  0  0  0  0  0
    8.0862   -3.9630   -0.2038 H   0  0  0  0  0  0  0  0  0  0  0  0
    5.6636   -0.3908   -2.0949 H   0  0  0  0  0  0  0  0  0  0  0  0
    4.8187    0.3442   -0.7003 H   0  0  0  0  0  0  0  0  0  0  0  0
   -3.9376   -1.4835    1.1171 H   0  0  0  0  0  0  0  0  0  0  0  0
   -4.8144   -3.3205    2.5733 H   0  0  0  0  0  0  0  0  0  0  0  0
   -6.8898   -4.5646    1.9160 H   0  0  0  0  0  0  0  0  0  0  0  0
   -7.2029   -2.1365   -1.6639 H   0  0  0  0  0  0  0  0  0  0  0  0
   -8.0844   -3.9648   -0.2046 H   0  0  0  0  0  0  0  0  0  0  0  0
    2.1460   -2.4007   -3.4445 H   0  0  0  0  0  0  0  0  0  0  0  0
   -2.1459   -2.4003   -3.4450 H   0  0  0  0  0  0  0  0  0  0  0  0
    0.0001   -3.2465   -4.3277 H   0  0  0  0  0  0  0  0  0  0  0  0
   -4.8190    0.3443   -0.7008 H   0  0  0  0  0  0  0  0  0  0  0  0
   -5.6638   -0.3910   -2.0953 H   0  0  0  0  0  0  0  0  0  0  0  0
  3  9  1  0  0  0  0
  3 21  1  0  0  0  0
  4  6  1  0  0  0  0
  4 14  1  0  0  0  0
  6  1  1  1  0  0  0
  7  5  1  0  0  0  0
  7  6  1  0  0  0  0
  8  5  2  0  0  0  0
  8  9  1  0  0  0  0
  9  2  1  1  0  0  0
 10  7  2  0  0  0  0
 11 12  1  0  0  0  0
 12 29  1  0  0  0  0
 12 15  2  0  0  0  0
 13  8  1  0  0  0  0
 14 35  1  0  0  0  0
 14 11  1  0  0  0  0
 15 30  1  0  0  0  0
 16 15  1  0  0  0  0
 16 31  1  0  0  0  0
 17 11  2  0  0  0  0
 17 22  1  0  0  0  0
 18 13  2  0  0  0  0
 18 10  1  0  0  0  0
 19 36  1  0  0  0  0
 19 23  1  0  0  0  0
 20 19  2  0  0  0  0
 21 44  1  0  0  0  0
 21 20  1  0  0  0  0
 22 16  2  0  0  0  0
 23 37  1  0  0  0  0
 24 23  2  0  0  0  0
 24 38  1  0  0  0  0
 25 20  1  0  0  0  0
 25 26  2  0  0  0  0
 26 24  1  0  0  0  0
 27  3  1  0  0  0  0
 28  4  1  0  0  0  0
 32 17  1  0  0  0  0
 33 22  1  0  0  0  0
 34 14  1  0  0  0  0
 39 25  1  0  0  0  0
 40 26  1  0  0  0  0
 41 10  1  0  0  0  0
 42 13  1  0  0  0  0
 43 18  1  0  0  0  0
 45 21  1  0  0  0  0
M  END
