1,2,7
 OpenBabel05122313063D

 64 68  0  0  0  0  0  0  0  0999 V2000
   -1.8194   -1.9299    1.1121 S   0  0  0  0  0  1  0  0  0  0  0  0
    2.1966   -1.3408   -1.3736 S   0  0  0  0  0  1  0  0  0  0  0  0
   -2.6133   -0.2449    0.2927 P   0  0  0  0  0  4  0  0  0  0  0  0
    2.7323    0.2382   -0.2068 P   0  0  0  0  0  4  0  0  0  0  0  0
   -0.1936    3.1052    0.3612 N   0  0  0  0  0  0  0  0  0  0  0  0
   -1.2207    0.9472    0.2840 C   0  0  0  0  0  0  0  0  0  0  0  0
    0.0368    0.2996    0.0798 C   0  0  0  0  0  3  0  0  0  0  0  0
    1.1699    1.1681    0.0301 C   0  0  0  0  0  0  0  0  0  0  0  0
    1.0401    2.5401    0.1758 C   0  0  0  0  0  3  0  0  0  0  0  0
   -1.3184    2.3221    0.4093 C   0  0  0  0  0  0  0  0  0  0  0  0
   -3.0970   -0.4354   -1.4500 C   0  0  0  0  0  0  0  0  0  0  0  0
   -3.5546    0.6820   -2.1821 C   0  0  0  0  0  0  0  0  0  0  0  0
   -3.8926    0.5277   -3.5328 C   0  0  0  0  0  0  0  0  0  0  0  0
   -3.7672   -0.7297   -4.1499 C   0  0  0  0  0  0  0  0  0  0  0  0
   -3.3035   -1.8347   -3.4197 C   0  0  0  0  0  0  0  0  0  0  0  0
   -2.9638   -1.6943   -2.0655 C   0  0  0  0  0  0  0  0  0  0  0  0
   -3.9889    0.4604    1.2367 C   0  0  0  0  0  0  0  0  0  0  0  0
   -5.2969    0.5160    0.7129 C   0  0  0  0  0  0  0  0  0  0  0  0
   -6.3379    1.0201    1.5069 C   0  0  0  0  0  0  0  0  0  0  0  0
   -6.0790    1.4609    2.8141 C   0  0  0  0  0  0  0  0  0  0  0  0
   -4.7770    1.3931    3.3404 C   0  0  0  0  0  0  0  0  0  0  0  0
   -3.7306    0.8879    2.5591 C   0  0  0  0  0  0  0  0  0  0  0  0
    3.9638    1.3299   -0.9637 C   0  0  0  0  0  0  0  0  0  0  0  0
    3.6153    1.9829   -2.1681 C   0  0  0  0  0  0  0  0  0  0  0  0
    4.5569    2.7935   -2.8141 C   0  0  0  0  0  0  0  0  0  0  0  0
    5.8457    2.9438   -2.2725 C   0  0  0  0  0  0  0  0  0  0  0  0
    6.1966    2.2809   -1.0861 C   0  0  0  0  0  0  0  0  0  0  0  0
    5.2606    1.4697   -0.4274 C   0  0  0  0  0  0  0  0  0  0  0  0
    3.2749   -0.2381    1.4622 C   0  0  0  0  0  0  0  0  0  0  0  0
    3.3385   -1.6032    1.7998 C   0  0  0  0  0  0  0  0  0  0  0  0
    3.7238   -1.9712    3.0979 C   0  0  0  0  0  0  0  0  0  0  0  0
    4.0386   -0.9869    4.0473 C   0  0  0  0  0  0  0  0  0  0  0  0
    3.9682    0.3759    3.7077 C   0  0  0  0  0  0  0  0  0  0  0  0
    3.5825    0.7566    2.4160 C   0  0  0  0  0  0  0  0  0  0  0  0
   -0.3399    4.5797    0.5089 C   0  0  0  0  0  0  0  0  0  0  0  0
   -1.2533    5.1641   -0.5305 C   0  0  0  0  0  0  0  0  0  0  0  0
   -2.3743    5.8439   -0.2355 C   0  0  0  0  0  0  0  0  0  0  0  0
    1.8924    3.2360    0.1449 H   0  0  0  0  0  0  0  0  0  0  0  0
   -2.2697    2.8591    0.5434 H   0  0  0  0  0  0  0  0  0  0  0  0
   -3.6499    1.6695   -1.7031 H   0  0  0  0  0  0  0  0  0  0  0  0
   -4.2540    1.3923   -4.1091 H   0  0  0  0  0  0  0  0  0  0  0  0
   -4.0303   -0.8453   -5.2120 H   0  0  0  0  0  0  0  0  0  0  0  0
   -3.1978   -2.8161   -3.9047 H   0  0  0  0  0  0  0  0  0  0  0  0
   -2.5818   -2.5511   -1.4878 H   0  0  0  0  0  0  0  0  0  0  0  0
   -5.5020    0.1608   -0.3076 H   0  0  0  0  0  0  0  0  0  0  0  0
   -7.3600    1.0605    1.1022 H   0  0  0  0  0  0  0  0  0  0  0  0
   -6.9004    1.8511    3.4336 H   0  0  0  0  0  0  0  0  0  0  0  0
   -4.5802    1.7233    4.3712 H   0  0  0  0  0  0  0  0  0  0  0  0
   -2.7158    0.8024    2.9789 H   0  0  0  0  0  0  0  0  0  0  0  0
    2.6159    1.8356   -2.6071 H   0  0  0  0  0  0  0  0  0  0  0  0
    4.2901    3.3004   -3.7532 H   0  0  0  0  0  0  0  0  0  0  0  0
    6.5854    3.5755   -2.7867 H   0  0  0  0  0  0  0  0  0  0  0  0
    7.2100    2.3884   -0.6719 H   0  0  0  0  0  0  0  0  0  0  0  0
    5.5396    0.9417    0.4961 H   0  0  0  0  0  0  0  0  0  0  0  0
    3.0731   -2.3678    1.0523 H   0  0  0  0  0  0  0  0  0  0  0  0
    3.7718   -3.0368    3.3659 H   0  0  0  0  0  0  0  0  0  0  0  0
    4.3386   -1.2814    5.0641 H   0  0  0  0  0  0  0  0  0  0  0  0
    4.2136    1.1451    4.4550 H   0  0  0  0  0  0  0  0  0  0  0  0
    3.5260    1.8251    2.1541 H   0  0  0  0  0  0  0  0  0  0  0  0
   -0.7125    4.7908    1.5324 H   0  0  0  0  0  0  0  0  0  0  0  0
    0.6811    5.0036    0.4295 H   0  0  0  0  0  0  0  0  0  0  0  0
   -0.9455    5.0225   -1.5816 H   0  0  0  0  0  0  0  0  0  0  0  0
   -2.6956    6.0056    0.8073 H   0  0  0  0  0  0  0  0  0  0  0  0
   -3.0012    6.2839   -1.0258 H   0  0  0  0  0  0  0  0  0  0  0  0
  2  4  1  0  0  0  0
  3  1  1  0  0  0  0
  3 17  1  0  0  0  0
  4  8  1  0  0  0  0
  4 29  1  0  0  0  0
  5 10  1  0  0  0  0
  5 35  1  0  0  0  0
  6  3  1  0  0  0  0
  6 10  2  0  0  0  0
  7  6  1  0  0  0  0
  8  7  2  0  0  0  0
  8  9  1  0  0  0  0
  9  5  1  0  0  0  0
 10 39  1  0  0  0  0
 11  3  1  0  0  0  0
 12 40  1  0  0  0  0
 12 11  2  0  0  0  0
 13 12  1  0  0  0  0
 14 13  2  0  0  0  0
 14 15  1  0  0  0  0
 15 16  2  0  0  0  0
 16 44  1  0  0  0  0
 16 11  1  0  0  0  0
 17 22  1  0  0  0  0
 18 17  2  0  0  0  0
 18 19  1  0  0  0  0
 19 20  2  0  0  0  0
 20 21  1  0  0  0  0
 20 47  1  0  0  0  0
 21 48  1  0  0  0  0
 22 49  1  0  0  0  0
 22 21  2  0  0  0  0
 23 28  1  0  0  0  0
 23  4  1  0  0  0  0
 24 23  2  0  0  0  0
 25 26  2  0  0  0  0
 25 24  1  0  0  0  0
 26 27  1  0  0  0  0
 27 53  1  0  0  0  0
 27 28  2  0  0  0  0
 28 54  1  0  0  0  0
 29 30  2  0  0  0  0
 29 34  1  0  0  0  0
 30 31  1  0  0  0  0
 31 56  1  0  0  0  0
 31 32  2  0  0  0  0
 32 57  1  0  0  0  0
 33 32  1  0  0  0  0
 33 58  1  0  0  0  0
 34 33  2  0  0  0  0
 35 60  1  0  0  0  0
 36 37  2  0  0  0  0
 36 35  1  0  0  0  0
 37 63  1  0  0  0  0
 38  9  1  0  0  0  0
 41 13  1  0  0  0  0
 42 14  1  0  0  0  0
 43 15  1  0  0  0  0
 45 18  1  0  0  0  0
 46 19  1  0  0  0  0
 50 24  1  0  0  0  0
 51 25  1  0  0  0  0
 52 26  1  0  0  0  0
 55 30  1  0  0  0  0
 59 34  1  0  0  0  0
 61 35  1  0  0  0  0
 62 36  1  0  0  0  0
 64 37  1  0  0  0  0
M  END
