1,2,7
 OpenBabel05122313063D

 65 68  0  0  0  0  0  0  0  0999 V2000
    2.5484    2.2786   -0.2877 S   0  0  0  0  0  0  0  0  0  0  0  0
    2.8486   -2.3042    0.2705 S   0  0  0  0  0  0  0  0  0  0  0  0
   -3.1633    2.9319    0.6168 O   0  0  0  0  0  0  0  0  0  0  0  0
   -5.4133    1.3830   -0.5334 O   0  0  0  0  0  0  0  0  0  0  0  0
   -5.0925   -1.3291   -1.1421 O   0  0  0  0  0  0  0  0  0  0  0  0
   -3.2875   -3.3859   -0.3771 O   0  0  0  0  0  0  0  0  0  0  0  0
    4.3897    0.0470   -0.3484 C   0  0  0  0  0  3  0  0  0  0  0  0
    5.1044   -1.1277   -0.6906 C   0  0  0  0  0  0  0  0  0  0  0  0
    6.4907   -1.0663   -0.9282 C   0  0  0  0  0  0  0  0  0  0  0  0
    7.1627    0.1628   -0.8647 C   0  0  0  0  0  0  0  0  0  0  0  0
    6.4633    1.3333   -0.5366 C   0  0  0  0  0  0  0  0  0  0  0  0
    5.0854    1.2781   -0.2546 C   0  0  0  0  0  0  0  0  0  0  0  0
    4.3261    2.4915    0.1982 C   0  0  0  0  0  0  0  0  0  0  0  0
    1.6759    3.1780    1.0957 C   0  0  0  0  0  0  0  0  0  0  0  0
    0.3866    3.7640    0.5945 C   0  0  0  0  0  0  0  0  0  0  0  0
    0.4084    4.9438   -0.1824 C   0  0  0  0  0  0  0  0  0  0  0  0
   -0.7898    5.4712   -0.6715 C   0  0  0  0  0  0  0  0  0  0  0  0
   -2.0170    4.8353   -0.4194 C   0  0  0  0  0  0  0  0  0  0  0  0
   -2.0402    3.6480    0.3405 C   0  0  0  0  0  0  0  0  0  0  0  0
   -0.8341    3.1274    0.8592 C   0  0  0  0  0  0  0  0  0  0  0  0
   -4.4162    3.4401    0.1707 C   0  0  0  0  0  0  0  0  0  0  0  0
   -5.4956    2.4139    0.4327 C   0  0  0  0  0  0  0  0  0  0  0  0
   -6.4917    0.4767   -0.4591 C   0  0  0  0  0  0  0  0  0  0  0  0
   -6.2837   -0.6293   -1.4715 C   0  0  0  0  0  0  0  0  0  0  0  0
   -4.8391   -2.4742   -1.9391 C   0  0  0  0  0  0  0  0  0  0  0  0
   -3.4106   -2.9225   -1.7164 C   0  0  0  0  0  0  0  0  0  0  0  0
   -2.0498   -3.6186    0.1393 C   0  0  0  0  0  0  0  0  0  0  0  0
   -2.0146   -4.1323    1.4529 C   0  0  0  0  0  0  0  0  0  0  0  0
   -0.7850   -4.3730    2.0730 C   0  0  0  0  0  0  0  0  0  0  0  0
    0.4209   -4.1113    1.4030 C   0  0  0  0  0  0  0  0  0  0  0  0
    0.3912   -3.6052    0.0898 C   0  0  0  0  0  0  0  0  0  0  0  0
   -0.8437   -3.3611   -0.5419 C   0  0  0  0  0  0  0  0  0  0  0  0
    1.6655   -3.3623   -0.6783 C   0  0  0  0  0  0  0  0  0  0  0  0
    4.3439   -2.4175   -0.8172 C   0  0  0  0  0  0  0  0  0  0  0  0
    7.0475   -1.9839   -1.1741 H   0  0  0  0  0  0  0  0  0  0  0  0
    8.2425    0.2083   -1.0684 H   0  0  0  0  0  0  0  0  0  0  0  0
    6.9966    2.2953   -0.4856 H   0  0  0  0  0  0  0  0  0  0  0  0
    4.6966    3.4398   -0.2402 H   0  0  0  0  0  0  0  0  0  0  0  0
    4.3396    2.5841    1.3046 H   0  0  0  0  0  0  0  0  0  0  0  0
    1.5341    2.4711    1.9340 H   0  0  0  0  0  0  0  0  0  0  0  0
    2.3873    3.9705    1.4027 H   0  0  0  0  0  0  0  0  0  0  0  0
    1.3638    5.4466   -0.3959 H   0  0  0  0  0  0  0  0  0  0  0  0
   -0.7794    6.3991   -1.2627 H   0  0  0  0  0  0  0  0  0  0  0  0
   -2.9409    5.2735   -0.8178 H   0  0  0  0  0  0  0  0  0  0  0  0
   -0.8808    2.2199    1.4772 H   0  0  0  0  0  0  0  0  0  0  0  0
   -4.6571    4.3862    0.7068 H   0  0  0  0  0  0  0  0  0  0  0  0
   -4.3913    3.6548   -0.9212 H   0  0  0  0  0  0  0  0  0  0  0  0
   -6.4862    2.9279    0.3752 H   0  0  0  0  0  0  0  0  0  0  0  0
   -5.3860    2.0037    1.4658 H   0  0  0  0  0  0  0  0  0  0  0  0
   -6.5748    0.0358    0.5660 H   0  0  0  0  0  0  0  0  0  0  0  0
   -7.4658    0.9828   -0.6729 H   0  0  0  0  0  0  0  0  0  0  0  0
   -6.2040   -0.1986   -2.4978 H   0  0  0  0  0  0  0  0  0  0  0  0
   -7.1672   -1.3104   -1.4522 H   0  0  0  0  0  0  0  0  0  0  0  0
   -5.5496   -3.2978   -1.6891 H   0  0  0  0  0  0  0  0  0  0  0  0
   -4.9649   -2.2341   -3.0213 H   0  0  0  0  0  0  0  0  0  0  0  0
   -2.7316   -2.0611   -1.8989 H   0  0  0  0  0  0  0  0  0  0  0  0
   -3.1516   -3.7332   -2.4354 H   0  0  0  0  0  0  0  0  0  0  0  0
   -2.9679   -4.3385    1.9605 H   0  0  0  0  0  0  0  0  0  0  0  0
   -0.7647   -4.7798    3.0952 H   0  0  0  0  0  0  0  0  0  0  0  0
    1.3836   -4.3072    1.8981 H   0  0  0  0  0  0  0  0  0  0  0  0
   -0.8492   -2.9659   -1.5662 H   0  0  0  0  0  0  0  0  0  0  0  0
    1.4749   -2.8882   -1.6600 H   0  0  0  0  0  0  0  0  0  0  0  0
    2.2205   -4.3104   -0.8447 H   0  0  0  0  0  0  0  0  0  0  0  0
    4.9305   -3.3094   -0.5185 H   0  0  0  0  0  0  0  0  0  0  0  0
    3.9702   -2.5717   -1.8517 H   0  0  0  0  0  0  0  0  0  0  0  0
  1 13  1  0  0  0  0
  1 14  1  0  0  0  0
  4 23  1  0  0  0  0
  4 22  1  0  0  0  0
  6 27  1  0  0  0  0
  7 12  1  0  0  0  0
  8  7  2  0  0  0  0
  9 10  2  0  0  0  0
  9  8  1  0  0  0  0
 10 11  1  0  0  0  0
 11 37  1  0  0  0  0
 11 12  2  0  0  0  0
 12 13  1  0  0  0  0
 13 39  1  0  0  0  0
 14 41  1  0  0  0  0
 14 40  1  0  0  0  0
 15 20  1  0  0  0  0
 15 14  1  0  0  0  0
 16 15  2  0  0  0  0
 17 18  2  0  0  0  0
 17 16  1  0  0  0  0
 18 19  1  0  0  0  0
 19  3  1  0  0  0  0
 19 20  2  0  0  0  0
 20 45  1  0  0  0  0
 21 22  1  0  0  0  0
 21  3  1  0  0  0  0
 21 46  1  0  0  0  0
 22 49  1  0  0  0  0
 23 50  1  0  0  0  0
 24 53  1  0  0  0  0
 24  5  1  0  0  0  0
 24 23  1  0  0  0  0
 25 26  1  0  0  0  0
 25 54  1  0  0  0  0
 25  5  1  0  0  0  0
 26  6  1  0  0  0  0
 27 28  1  0  0  0  0
 28 58  1  0  0  0  0
 28 29  2  0  0  0  0
 29 59  1  0  0  0  0
 30 60  1  0  0  0  0
 30 29  1  0  0  0  0
 31 30  2  0  0  0  0
 32 31  1  0  0  0  0
 32 27  2  0  0  0  0
 33 31  1  0  0  0  0
 33  2  1  0  0  0  0
 34  8  1  0  0  0  0
 34 64  1  0  0  0  0
 34  2  1  0  0  0  0
 35  9  1  0  0  0  0
 36 10  1  0  0  0  0
 38 13  1  0  0  0  0
 42 16  1  0  0  0  0
 43 17  1  0  0  0  0
 44 18  1  0  0  0  0
 47 21  1  0  0  0  0
 48 22  1  0  0  0  0
 51 23  1  0  0  0  0
 52 24  1  0  0  0  0
 55 25  1  0  0  0  0
 56 26  1  0  0  0  0
 57 26  1  0  0  0  0
 61 32  1  0  0  0  0
 62 33  1  0  0  0  0
 63 33  1  0  0  0  0
 65 34  1  0  0  0  0
M  END
