1,2,5
 OpenBabel05122313063D

 75 75  0  0  0  0  0  0  0  0999 V2000
    2.2633   -2.0311   -0.4952 S   0  0  0  0  0  0  0  0  0  0  0  0
   -2.2632   -2.0312    0.4952 S   0  0  0  0  0  0  0  0  0  0  0  0
    3.6531    2.6014    0.4049 S   0  0  0  0  0  0  0  0  0  0  0  0
   -3.6534    2.6008   -0.4049 S   0  0  0  0  0  0  0  0  0  0  0  0
    0.0000   -0.2010    0.0001 C   0  0  0  0  0  3  0  0  0  0  0  0
    1.1317    0.5146   -0.4664 C   0  0  0  0  0  0  0  0  0  0  0  0
    1.1391    1.9309   -0.4596 C   0  0  0  0  0  0  0  0  0  0  0  0
   -0.0001    2.6154   -0.0000 C   0  0  0  0  0  0  0  0  0  0  0  0
   -1.1393    1.9308    0.4596 C   0  0  0  0  0  0  0  0  0  0  0  0
   -1.1317    0.5145    0.4666 C   0  0  0  0  0  0  0  0  0  0  0  0
    2.3099   -0.2571   -0.9924 C   0  0  0  0  0  0  0  0  0  0  0  0
   -2.3097   -0.2573    0.9928 C   0  0  0  0  0  0  0  0  0  0  0  0
    2.3540    2.7069   -0.9044 C   0  0  0  0  0  0  0  0  0  0  0  0
   -2.3543    2.7067    0.9044 C   0  0  0  0  0  0  0  0  0  0  0  0
    3.1744   -2.0451    1.1672 C   0  0  0  0  0  0  0  0  0  0  0  0
    4.6145   -1.5854    0.9080 C   0  0  0  0  0  0  0  0  0  0  0  0
    2.4825   -1.1450    2.1911 C   0  0  0  0  0  0  0  0  0  0  0  0
    3.1298   -3.5189    1.5883 C   0  0  0  0  0  0  0  0  0  0  0  0
   -3.1741   -2.0449   -1.1673 C   0  0  0  0  0  0  0  0  0  0  0  0
   -2.4818   -1.1450   -2.1912 C   0  0  0  0  0  0  0  0  0  0  0  0
   -4.6141   -1.5848   -0.9082 C   0  0  0  0  0  0  0  0  0  0  0  0
   -3.1300   -3.5187   -1.5885 C   0  0  0  0  0  0  0  0  0  0  0  0
    5.2206    3.0571   -0.5080 C   0  0  0  0  0  0  0  0  0  0  0  0
    6.2836    3.1045    0.5994 C   0  0  0  0  0  0  0  0  0  0  0  0
    5.5782    1.9833   -1.5428 C   0  0  0  0  0  0  0  0  0  0  0  0
    5.0667    4.4328   -1.1670 C   0  0  0  0  0  0  0  0  0  0  0  0
   -5.2209    3.0566    0.5081 C   0  0  0  0  0  0  0  0  0  0  0  0
   -5.5788    1.9827    1.5426 C   0  0  0  0  0  0  0  0  0  0  0  0
   -5.0668    4.4322    1.1673 C   0  0  0  0  0  0  0  0  0  0  0  0
   -6.2838    3.1045   -0.5995 C   0  0  0  0  0  0  0  0  0  0  0  0
   -0.0002    3.7172   -0.0001 H   0  0  0  0  0  0  0  0  0  0  0  0
    3.2807    0.1775   -0.6780 H   0  0  0  0  0  0  0  0  0  0  0  0
    2.3108   -0.2944   -2.1037 H   0  0  0  0  0  0  0  0  0  0  0  0
   -3.2807    0.1772    0.6788 H   0  0  0  0  0  0  0  0  0  0  0  0
   -2.3102   -0.2950    2.1041 H   0  0  0  0  0  0  0  0  0  0  0  0
    2.0944    3.7691   -1.0819 H   0  0  0  0  0  0  0  0  0  0  0  0
    2.7735    2.2939   -1.8454 H   0  0  0  0  0  0  0  0  0  0  0  0
   -2.0947    3.7689    1.0817 H   0  0  0  0  0  0  0  0  0  0  0  0
   -2.7736    2.2938    1.8454 H   0  0  0  0  0  0  0  0  0  0  0  0
    5.0884   -2.1631    0.0895 H   0  0  0  0  0  0  0  0  0  0  0  0
    5.2102   -1.7486    1.8302 H   0  0  0  0  0  0  0  0  0  0  0  0
    4.6690   -0.5028    0.6733 H   0  0  0  0  0  0  0  0  0  0  0  0
    1.4412   -1.4775    2.3704 H   0  0  0  0  0  0  0  0  0  0  0  0
    2.4622   -0.0858    1.8677 H   0  0  0  0  0  0  0  0  0  0  0  0
    3.0434   -1.1973    3.1486 H   0  0  0  0  0  0  0  0  0  0  0  0
    2.0882   -3.8946    1.6473 H   0  0  0  0  0  0  0  0  0  0  0  0
    3.6099   -3.6206    2.5836 H   0  0  0  0  0  0  0  0  0  0  0  0
    3.6791   -4.1613    0.8715 H   0  0  0  0  0  0  0  0  0  0  0  0
   -1.4406   -1.4778   -2.3704 H   0  0  0  0  0  0  0  0  0  0  0  0
   -2.4613   -0.0858   -1.8678 H   0  0  0  0  0  0  0  0  0  0  0  0
   -3.0427   -1.1971   -3.1487 H   0  0  0  0  0  0  0  0  0  0  0  0
   -5.0883   -2.1622   -0.0898 H   0  0  0  0  0  0  0  0  0  0  0  0
   -5.2097   -1.7479   -1.8305 H   0  0  0  0  0  0  0  0  0  0  0  0
   -4.6683   -0.5021   -0.6737 H   0  0  0  0  0  0  0  0  0  0  0  0
   -2.0884   -3.8947   -1.6473 H   0  0  0  0  0  0  0  0  0  0  0  0
   -3.6099   -3.6203   -2.5839 H   0  0  0  0  0  0  0  0  0  0  0  0
   -3.6796   -4.1610   -0.8718 H   0  0  0  0  0  0  0  0  0  0  0  0
    6.0371    3.8716    1.3603 H   0  0  0  0  0  0  0  0  0  0  0  0
    7.2719    3.3551    0.1606 H   0  0  0  0  0  0  0  0  0  0  0  0
    6.3750    2.1245    1.1104 H   0  0  0  0  0  0  0  0  0  0  0  0
    5.7290    0.9969   -1.0615 H   0  0  0  0  0  0  0  0  0  0  0  0
    6.5183    2.2576   -2.0676 H   0  0  0  0  0  0  0  0  0  0  0  0
    4.7933    1.8749   -2.3185 H   0  0  0  0  0  0  0  0  0  0  0  0
    4.7690    5.1979   -0.4232 H   0  0  0  0  0  0  0  0  0  0  0  0
    4.3081    4.4200   -1.9749 H   0  0  0  0  0  0  0  0  0  0  0  0
    6.0301    4.7453   -1.6237 H   0  0  0  0  0  0  0  0  0  0  0  0
   -5.7297    0.9964    1.0611 H   0  0  0  0  0  0  0  0  0  0  0  0
   -6.5189    2.2570    2.0673 H   0  0  0  0  0  0  0  0  0  0  0  0
   -4.7940    1.8740    2.3183 H   0  0  0  0  0  0  0  0  0  0  0  0
   -4.3083    4.4191    1.9752 H   0  0  0  0  0  0  0  0  0  0  0  0
   -6.0302    4.7447    1.6241 H   0  0  0  0  0  0  0  0  0  0  0  0
   -4.7690    5.1974    0.4237 H   0  0  0  0  0  0  0  0  0  0  0  0
   -6.3754    2.1246   -1.1106 H   0  0  0  0  0  0  0  0  0  0  0  0
   -6.0370    3.8717   -1.3602 H   0  0  0  0  0  0  0  0  0  0  0  0
   -7.2721    3.3552   -0.1607 H   0  0  0  0  0  0  0  0  0  0  0  0
  1 15  1  0  0  0  0
  2 12  1  0  0  0  0
  4 27  1  0  0  0  0
  4 14  1  0  0  0  0
  5 10  1  0  0  0  0
  6  7  1  0  0  0  0
  6  5  2  0  0  0  0
  7  8  2  0  0  0  0
  8  9  1  0  0  0  0
  9 10  2  0  0  0  0
  9 14  1  0  0  0  0
 10 12  1  0  0  0  0
 11 32  1  0  0  0  0
 11  1  1  0  0  0  0
 11  6  1  0  0  0  0
 12 35  1  0  0  0  0
 13  7  1  0  0  0  0
 13  3  1  0  0  0  0
 14 38  1  0  0  0  0
 14 39  1  0  0  0  0
 15 18  1  0  0  0  0
 15 17  1  0  0  0  0
 16 15  1  0  0  0  0
 16 41  1  0  0  0  0
 17 43  1  0  0  0  0
 17 45  1  0  0  0  0
 18 46  1  0  0  0  0
 18 47  1  0  0  0  0
 19 21  1  0  0  0  0
 19  2  1  0  0  0  0
 20 50  1  0  0  0  0
 20 19  1  0  0  0  0
 21 54  1  0  0  0  0
 21 52  1  0  0  0  0
 22 19  1  0  0  0  0
 22 57  1  0  0  0  0
 23  3  1  0  0  0  0
 23 24  1  0  0  0  0
 24 60  1  0  0  0  0
 24 58  1  0  0  0  0
 25 61  1  0  0  0  0
 25 23  1  0  0  0  0
 26 23  1  0  0  0  0
 26 64  1  0  0  0  0
 27 29  1  0  0  0  0
 27 28  1  0  0  0  0
 28 68  1  0  0  0  0
 28 69  1  0  0  0  0
 29 71  1  0  0  0  0
 29 70  1  0  0  0  0
 30 75  1  0  0  0  0
 30 27  1  0  0  0  0
 31  8  1  0  0  0  0
 33 11  1  0  0  0  0
 34 12  1  0  0  0  0
 36 13  1  0  0  0  0
 37 13  1  0  0  0  0
 40 16  1  0  0  0  0
 42 16  1  0  0  0  0
 44 17  1  0  0  0  0
 48 18  1  0  0  0  0
 49 20  1  0  0  0  0
 51 20  1  0  0  0  0
 53 21  1  0  0  0  0
 55 22  1  0  0  0  0
 56 22  1  0  0  0  0
 59 24  1  0  0  0  0
 62 25  1  0  0  0  0
 63 25  1  0  0  0  0
 65 26  1  0  0  0  0
 66 26  1  0  0  0  0
 67 28  1  0  0  0  0
 72 29  1  0  0  0  0
 73 30  1  0  0  0  0
 74 30  1  0  0  0  0
M  END
