1,2,9
 OpenBabel05122313063D

 29 29  0  0  0  0  0  0  0  0999 V2000
   -0.6155   -2.0279   -0.6331 S   0  0  0  0  0  1  0  0  0  0  0  0
   -1.0625    0.7665    0.8608 S   0  0  0  0  0  0  0  0  0  0  0  0
   -2.4790   -0.2437    0.4175 C   0  0  0  0  0  0  0  0  0  0  0  0
   -3.7733    0.1814    0.7614 C   0  0  0  0  0  0  0  0  0  0  0  0
   -4.8767   -0.6149    0.4288 C   0  0  0  0  0  0  0  0  0  0  0  0
   -4.6618   -1.8443   -0.2252 C   0  0  0  0  0  0  0  0  0  0  0  0
   -3.3703   -2.2739   -0.5435 C   0  0  0  0  0  0  0  0  0  0  0  0
   -2.2342   -1.4816   -0.2299 C   0  0  0  0  0  0  0  0  0  0  0  0
    1.6971    1.2258    0.2635 C   0  0  0  0  0  3  0  0  0  0  0  0
    2.5454    1.5412    1.0904 O   0  0  0  0  0  0  0  0  0  0  0  0
    1.2879    2.2324   -0.8325 C   0  0  0  0  0  0  0  0  0  0  0  0
    0.0045    3.0311   -0.4724 C   0  0  0  0  0  0  0  0  0  0  0  0
   -1.2201    2.0996   -0.4218 C   0  0  0  0  0  0  0  0  0  0  0  0
   -0.2575    4.0528   -1.5960 C   0  0  0  0  0  0  0  0  0  0  0  0
    0.1799    3.7671    0.8680 C   0  0  0  0  0  0  0  0  0  0  0  0
   -3.9096    1.1363    1.2930 H   0  0  0  0  0  0  0  0  0  0  0  0
   -5.8940   -0.2869    0.6873 H   0  0  0  0  0  0  0  0  0  0  0  0
   -5.5207   -2.4832   -0.4836 H   0  0  0  0  0  0  0  0  0  0  0  0
   -3.2111   -3.2404   -1.0448 H   0  0  0  0  0  0  0  0  0  0  0  0
    2.1332    2.9414   -0.9615 H   0  0  0  0  0  0  0  0  0  0  0  0
    1.1220    1.7019   -1.7947 H   0  0  0  0  0  0  0  0  0  0  0  0
   -1.3789    1.5838   -1.3896 H   0  0  0  0  0  0  0  0  0  0  0  0
   -2.1354    2.6737   -0.1708 H   0  0  0  0  0  0  0  0  0  0  0  0
    0.5857    4.7684   -1.6730 H   0  0  0  0  0  0  0  0  0  0  0  0
   -0.3733    3.5521   -2.5788 H   0  0  0  0  0  0  0  0  0  0  0  0
   -1.1804    4.6354   -1.3960 H   0  0  0  0  0  0  0  0  0  0  0  0
   -0.7160    4.3802    1.0956 H   0  0  0  0  0  0  0  0  0  0  0  0
    0.3385    3.0636    1.7085 H   0  0  0  0  0  0  0  0  0  0  0  0
    1.0597    4.4398    0.8313 H   0  0  0  0  0  0  0  0  0  0  0  0
  1  8  1  0  0  0  0
  3  4  1  0  0  0  0
  3  2  1  0  0  0  0
  4 16  1  0  0  0  0
  5 17  1  0  0  0  0
  5  4  2  0  0  0  0
  6  5  1  0  0  0  0
  7  8  1  0  0  0  0
  7  6  2  0  0  0  0
  8  3  2  0  0  0  0
  9 10  2  0  0  0  0
 11 12  1  0  0  0  0
 11  9  1  0  0  0  0
 12 13  1  0  0  0  0
 12 15  1  0  0  0  0
 13 23  1  0  0  0  0
 13  2  1  0  0  0  0
 14 26  1  0  0  0  0
 14 12  1  0  0  0  0
 15 27  1  0  0  0  0
 15 28  1  0  0  0  0
 18  6  1  0  0  0  0
 19  7  1  0  0  0  0
 20 11  1  0  0  0  0
 21 11  1  0  0  0  0
 22 13  1  0  0  0  0
 24 14  1  0  0  0  0
 25 14  1  0  0  0  0
 29 15  1  0  0  0  0
M  END
