1,2,7
 OpenBabel05122313063D

 48 51  0  0  1  0  0  0  0  0999 V2000
   -1.6390    0.8335   -1.8961 S   0  0  0  0  0  1  0  0  0  0  0  0
    2.6945    1.0470   -0.2216 S   0  0  0  0  0  1  0  0  0  0  0  0
   -2.2987   -0.0884   -0.2221 P   0  0  0  0  0  4  0  0  0  0  0  0
    2.6386   -1.6434    0.1570 N   0  0  0  0  0  0  0  0  0  0  0  0
    3.2220   -2.4804    0.2514 H   0  0  0  0  0  0  0  0  0  0  0  0
    1.2542   -1.8935    0.2744 C   0  0  0  0  0  0  0  0  0  0  0  0
    0.2534   -0.9526   -0.0807 C   0  0  0  0  0  3  0  0  0  0  0  0
   -1.0834   -1.3735    0.1852 C   0  0  0  0  0  0  0  0  0  0  0  0
   -1.4302   -2.6264    0.7155 C   0  0  0  0  0  0  0  0  0  0  0  0
   -2.4849   -2.8920    0.8852 H   0  0  0  0  0  0  0  0  0  0  0  0
   -0.4069   -3.5440    1.0016 C   0  0  0  0  0  0  0  0  0  0  0  0
   -0.6429   -4.5415    1.4000 H   0  0  0  0  0  0  0  0  0  0  0  0
    0.9219   -3.1728    0.7842 C   0  0  0  0  0  0  0  0  0  0  0  0
    1.7318   -3.8809    1.0286 H   0  0  0  0  0  0  0  0  0  0  0  0
   -2.3982    1.0337    1.2174 C   0  0  0  0  0  0  0  0  0  0  0  0
   -2.7722    0.5213    2.4772 C   0  0  0  0  0  0  0  0  0  0  0  0
   -3.0261   -0.5443    2.5922 H   0  0  0  0  0  0  0  0  0  0  0  0
   -2.8074    1.3741    3.5890 C   0  0  0  0  0  0  0  0  0  0  0  0
   -3.0983    0.9778    4.5737 H   0  0  0  0  0  0  0  0  0  0  0  0
   -2.4606    2.7287    3.4461 C   0  0  0  0  0  0  0  0  0  0  0  0
   -2.4823    3.3947    4.3222 H   0  0  0  0  0  0  0  0  0  0  0  0
   -2.0748    3.2301    2.1933 C   0  0  0  0  0  0  0  0  0  0  0  0
   -1.7845    4.2855    2.0828 H   0  0  0  0  0  0  0  0  0  0  0  0
   -2.0405    2.3867    1.0719 C   0  0  0  0  0  0  0  0  0  0  0  0
   -1.7037    2.7642    0.0921 H   0  0  0  0  0  0  0  0  0  0  0  0
   -3.9397   -0.8545   -0.4440 C   0  0  0  0  0  0  0  0  0  0  0  0
   -5.0916   -0.3712    0.2069 C   0  0  0  0  0  0  0  0  0  0  0  0
   -5.0129    0.4654    0.9166 H   0  0  0  0  0  0  0  0  0  0  0  0
   -6.3392   -0.9578   -0.0563 C   0  0  0  0  0  0  0  0  0  0  0  0
   -7.2378   -0.5774    0.4523 H   0  0  0  0  0  0  0  0  0  0  0  0
   -6.4413   -2.0204   -0.9669 C   0  0  0  0  0  0  0  0  0  0  0  0
   -7.4214   -2.4779   -1.1705 H   0  0  0  0  0  0  0  0  0  0  0  0
   -5.2947   -2.4961   -1.6260 C   0  0  0  0  0  0  0  0  0  0  0  0
   -5.3749   -3.3230   -2.3476 H   0  0  0  0  0  0  0  0  0  0  0  0
   -4.0466   -1.9128   -1.3727 C   0  0  0  0  0  0  0  0  0  0  0  0
   -3.1484   -2.2688   -1.9006 H   0  0  0  0  0  0  0  0  0  0  0  0
    3.3374   -0.4927    0.0438 C   0  0  2  0  0  3  0  0  0  0  0  0
    4.8090   -0.6211    0.2031 C   0  0  0  0  0  0  0  0  0  0  0  0
    5.6836    0.1936   -0.5512 C   0  0  0  0  0  0  0  0  0  0  0  0
    5.2557    0.9104   -1.2672 H   0  0  0  0  0  0  0  0  0  0  0  0
    7.0698    0.0740   -0.3980 C   0  0  0  0  0  0  0  0  0  0  0  0
    7.7384    0.7085   -0.9987 H   0  0  0  0  0  0  0  0  0  0  0  0
    7.6066   -0.8546    0.5092 C   0  0  0  0  0  0  0  0  0  0  0  0
    8.6969   -0.9456    0.6268 H   0  0  0  0  0  0  0  0  0  0  0  0
    6.7471   -1.6626    1.2702 C   0  0  0  0  0  0  0  0  0  0  0  0
    7.1596   -2.3775    1.9979 H   0  0  0  0  0  0  0  0  0  0  0  0
    5.3589   -1.5475    1.1206 C   0  0  0  0  0  0  0  0  0  0  0  0
    4.6953   -2.1530    1.7582 H   0  0  0  0  0  0  0  0  0  0  0  0
  1  3  1  0  0  0  0
  3  8  1  0  0  0  0
  3 15  1  0  0  0  0
  4  5  1  0  0  0  0
  4  6  1  0  0  0  0
  6 13  1  0  0  0  0
  7  8  1  0  0  0  0
  7  6  2  0  0  0  0
  8  9  2  0  0  0  0
  9 10  1  0  0  0  0
  9 11  1  0  0  0  0
 11 12  1  0  0  0  0
 13 11  2  0  0  0  0
 13 14  1  0  0  0  0
 15 16  1  0  0  0  0
 16 17  1  0  0  0  0
 16 18  2  0  0  0  0
 18 19  1  0  0  0  0
 20 18  1  0  0  0  0
 20 21  1  0  0  0  0
 22 20  2  0  0  0  0
 23 22  1  0  0  0  0
 24 15  2  0  0  0  0
 24 22  1  0  0  0  0
 25 24  1  0  0  0  0
 26  3  1  0  0  0  0
 26 27  1  0  0  0  0
 27 28  1  0  0  0  0
 29 27  2  0  0  0  0
 29 30  1  0  0  0  0
 31 29  1  0  0  0  0
 32 31  1  0  0  0  0
 33 35  1  0  0  0  0
 33 31  2  0  0  0  0
 34 33  1  0  0  0  0
 35 26  2  0  0  0  0
 36 35  1  0  0  0  0
 37  2  1  1  0  0  0
 37  4  1  0  0  0  0
 37 38  1  0  0  0  0
 38 47  1  0  0  0  0
 39 41  1  0  0  0  0
 39 38  2  0  0  0  0
 40 39  1  0  0  0  0
 41 43  2  0  0  0  0
 42 41  1  0  0  0  0
 43 44  1  0  0  0  0
 43 45  1  0  0  0  0
 45 46  1  0  0  0  0
 47 45  2  0  0  0  0
 47 48  1  0  0  0  0
M  END
