2,4,9
 OpenBabel05122313063D

 54 56  0  0  0  0  0  0  0  0999 V2000
   -3.3395   -0.4065    0.2808 P   0  0  0  0  0  4  0  0  0  0  0  0
   -2.4510    1.3274    0.7538 S   0  0  0  0  0  1  0  0  0  0  0  0
    2.1997   -0.1428   -0.1949 P   0  0  0  0  0  4  0  0  0  0  0  0
    1.2563    0.1649   -1.9737 S   0  0  0  0  0  1  0  0  0  0  0  0
   -2.5495   -1.7425    0.8673 O   0  0  0  0  0  0  0  0  0  0  0  0
   -3.6143   -0.8092   -1.3320 N   0  0  0  0  0  0  0  0  0  0  0  0
   -4.8743   -0.4782    0.9590 N   0  0  0  0  0  0  0  0  0  0  0  0
   -1.1781   -1.8190    1.1002 C   0  0  0  0  0  0  0  0  0  0  0  0
   -0.2514   -0.9398    0.5005 C   0  0  0  0  0  3  0  0  0  0  0  0
    1.1138   -1.2320    0.7627 C   0  0  0  0  0  0  0  0  0  0  0  0
    1.5501   -2.2741    1.6012 C   0  0  0  0  0  0  0  0  0  0  0  0
    2.6236   -2.4560    1.7627 H   0  0  0  0  0  0  0  0  0  0  0  0
    0.5833   -3.0920    2.2045 C   0  0  0  0  0  0  0  0  0  0  0  0
    0.8863   -3.9173    2.8658 H   0  0  0  0  0  0  0  0  0  0  0  0
   -0.7776   -2.8682    1.9467 C   0  0  0  0  0  0  0  0  0  0  0  0
   -1.5541   -3.5110    2.3872 H   0  0  0  0  0  0  0  0  0  0  0  0
   -2.6722   -1.6523   -2.0671 C   0  0  0  0  0  0  0  0  0  0  0  0
   -3.2070   -2.0905   -2.9352 H   0  0  0  0  0  0  0  0  0  0  0  0
   -2.3130   -2.4761   -1.4254 H   0  0  0  0  0  0  0  0  0  0  0  0
   -1.7911   -1.0799   -2.4383 H   0  0  0  0  0  0  0  0  0  0  0  0
   -4.2042    0.2742   -2.1307 C   0  0  0  0  0  0  0  0  0  0  0  0
   -4.7362   -0.1704   -2.9968 H   0  0  0  0  0  0  0  0  0  0  0  0
   -3.4282    0.9890   -2.4894 H   0  0  0  0  0  0  0  0  0  0  0  0
   -4.9397    0.8295   -1.5177 H   0  0  0  0  0  0  0  0  0  0  0  0
   -5.7129   -1.6454    0.7094 C   0  0  0  0  0  0  0  0  0  0  0  0
   -5.6209   -2.4035    1.5208 H   0  0  0  0  0  0  0  0  0  0  0  0
   -5.4241   -2.1104   -0.2508 H   0  0  0  0  0  0  0  0  0  0  0  0
   -6.7767   -1.3324    0.6428 H   0  0  0  0  0  0  0  0  0  0  0  0
   -5.2022    0.2670    2.1670 C   0  0  0  0  0  0  0  0  0  0  0  0
   -6.2578    0.6082    2.1142 H   0  0  0  0  0  0  0  0  0  0  0  0
   -4.5539    1.1586    2.2557 H   0  0  0  0  0  0  0  0  0  0  0  0
   -5.0800   -0.3504    3.0865 H   0  0  0  0  0  0  0  0  0  0  0  0
    3.8249   -0.9407   -0.4132 C   0  0  0  0  0  0  0  0  0  0  0  0
    3.8457   -2.2504   -0.9404 C   0  0  0  0  0  0  0  0  0  0  0  0
    2.8978   -2.7612   -1.1699 H   0  0  0  0  0  0  0  0  0  0  0  0
    5.0703   -2.8884   -1.1753 C   0  0  0  0  0  0  0  0  0  0  0  0
    5.0847   -3.9106   -1.5826 H   0  0  0  0  0  0  0  0  0  0  0  0
    6.2763   -2.2221   -0.8977 C   0  0  0  0  0  0  0  0  0  0  0  0
    7.2373   -2.7246   -1.0860 H   0  0  0  0  0  0  0  0  0  0  0  0
    6.2571   -0.9152   -0.3871 C   0  0  0  0  0  0  0  0  0  0  0  0
    7.2009   -0.3895   -0.1778 H   0  0  0  0  0  0  0  0  0  0  0  0
    5.0343   -0.2703   -0.1448 C   0  0  0  0  0  0  0  0  0  0  0  0
    5.0185    0.7554    0.2519 H   0  0  0  0  0  0  0  0  0  0  0  0
    2.4638    1.3996    0.7454 C   0  0  0  0  0  0  0  0  0  0  0  0
    2.9963    1.3284    2.0495 C   0  0  0  0  0  0  0  0  0  0  0  0
    3.2658    0.3550    2.4885 H   0  0  0  0  0  0  0  0  0  0  0  0
    3.1668    2.5049    2.7921 C   0  0  0  0  0  0  0  0  0  0  0  0
    3.5791    2.4536    3.8112 H   0  0  0  0  0  0  0  0  0  0  0  0
    2.7989    3.7438    2.2394 C   0  0  0  0  0  0  0  0  0  0  0  0
    2.9261    4.6651    2.8281 H   0  0  0  0  0  0  0  0  0  0  0  0
    2.2577    3.8072    0.9460 C   0  0  0  0  0  0  0  0  0  0  0  0
    1.9504    4.7732    0.5187 H   0  0  0  0  0  0  0  0  0  0  0  0
    2.0864    2.6365    0.1911 C   0  0  0  0  0  0  0  0  0  0  0  0
    1.6254    2.6737   -0.8095 H   0  0  0  0  0  0  0  0  0  0  0  0
  1  2  1  0  0  0  0
  1  5  1  0  0  0  0
  1  7  1  0  0  0  0
  3 44  1  0  0  0  0
  3 10  1  0  0  0  0
  4  3  1  0  0  0  0
  5  8  1  0  0  0  0
  6  1  1  0  0  0  0
  7 29  1  0  0  0  0
  8 15  1  0  0  0  0
  9 10  1  0  0  0  0
  9  8  2  0  0  0  0
 10 11  2  0  0  0  0
 11 12  1  0  0  0  0
 11 13  1  0  0  0  0
 13 14  1  0  0  0  0
 15 13  2  0  0  0  0
 15 16  1  0  0  0  0
 17 19  1  0  0  0  0
 17  6  1  0  0  0  0
 18 17  1  0  0  0  0
 20 17  1  0  0  0  0
 21 24  1  0  0  0  0
 21  6  1  0  0  0  0
 22 21  1  0  0  0  0
 23 21  1  0  0  0  0
 25  7  1  0  0  0  0
 25 26  1  0  0  0  0
 27 25  1  0  0  0  0
 28 25  1  0  0  0  0
 29 31  1  0  0  0  0
 29 32  1  0  0  0  0
 30 29  1  0  0  0  0
 33  3  1  0  0  0  0
 33 42  1  0  0  0  0
 34 33  2  0  0  0  0
 35 34  1  0  0  0  0
 36 34  1  0  0  0  0
 36 38  2  0  0  0  0
 37 36  1  0  0  0  0
 38 40  1  0  0  0  0
 39 38  1  0  0  0  0
 40 41  1  0  0  0  0
 40 42  2  0  0  0  0
 42 43  1  0  0  0  0
 44 45  1  0  0  0  0
 45 46  1  0  0  0  0
 45 47  2  0  0  0  0
 47 48  1  0  0  0  0
 49 47  1  0  0  0  0
 49 50  1  0  0  0  0
 51 49  2  0  0  0  0
 52 51  1  0  0  0  0
 53 44  2  0  0  0  0
 53 51  1  0  0  0  0
 54 53  1  0  0  0  0
M  END
