1,2,22
 OpenBabel05122313063D

 39 41  0  0  0  0  0  0  0  0999 V2000
    1.8980   -0.4883   -1.3388 S   0  0  0  0  0  0  0  0  0  0  0  0
   -0.0004    1.3422    0.0006 C   0  0  0  0  0  3  0  0  0  0  0  0
    3.2444   -0.4862   -0.1460 C   0  0  0  0  0  0  0  0  0  0  0  0
    4.5011    0.0515   -0.4827 C   0  0  0  0  0  0  0  0  0  0  0  0
    3.1051   -1.1534    1.0862 C   0  0  0  0  0  0  0  0  0  0  0  0
    2.1374   -1.6266    1.3202 H   0  0  0  0  0  0  0  0  0  0  0  0
    5.5815   -0.0046    0.4023 C   0  0  0  0  0  0  0  0  0  0  0  0
    6.5353    0.4505    0.0992 H   0  0  0  0  0  0  0  0  0  0  0  0
    0.8705    2.0622   -0.8562 C   0  0  0  0  0  0  0  0  0  0  0  0
    5.4219   -0.6513    1.6362 C   0  0  0  0  0  0  0  0  0  0  0  0
    6.2701   -0.7036    2.3347 H   0  0  0  0  0  0  0  0  0  0  0  0
    4.6761    0.6419   -1.6848 F   0  0  0  0  0  0  0  0  0  0  0  0
    4.1891   -1.2345    1.9707 C   0  0  0  0  0  0  0  0  0  0  0  0
    4.0638   -1.7576    2.9298 H   0  0  0  0  0  0  0  0  0  0  0  0
    0.8770    3.4700   -0.8392 C   0  0  0  0  0  0  0  0  0  0  0  0
    1.5660    4.0233   -1.4974 H   0  0  0  0  0  0  0  0  0  0  0  0
    1.7299    1.3000   -1.8234 C   0  0  0  0  0  0  0  0  0  0  0  0
    2.7399    1.7217   -1.9784 H   0  0  0  0  0  0  0  0  0  0  0  0
    1.2464    1.2197   -2.8212 H   0  0  0  0  0  0  0  0  0  0  0  0
   -0.0022    4.1709   -0.0000 C   0  0  0  0  0  0  0  0  0  0  0  0
   -0.0029    5.2711   -0.0003 H   0  0  0  0  0  0  0  0  0  0  0  0
   -1.8982   -0.4896    1.3393 S   0  0  0  0  0  0  0  0  0  0  0  0
   -3.2440   -0.4873    0.1459 C   0  0  0  0  0  0  0  0  0  0  0  0
   -4.5007    0.0510    0.4815 C   0  0  0  0  0  0  0  0  0  0  0  0
   -3.1041   -1.1551   -1.0859 C   0  0  0  0  0  0  0  0  0  0  0  0
   -2.1365   -1.6288   -1.3191 H   0  0  0  0  0  0  0  0  0  0  0  0
   -5.5805   -0.0049   -0.4041 C   0  0  0  0  0  0  0  0  0  0  0  0
   -6.5343    0.4507   -0.1019 H   0  0  0  0  0  0  0  0  0  0  0  0
   -0.8720    2.0615    0.8571 C   0  0  0  0  0  0  0  0  0  0  0  0
   -5.4203   -0.6521   -1.6377 C   0  0  0  0  0  0  0  0  0  0  0  0
   -6.2681   -0.7042   -2.3368 H   0  0  0  0  0  0  0  0  0  0  0  0
   -4.6764    0.6417    1.6834 F   0  0  0  0  0  0  0  0  0  0  0  0
   -4.1876   -1.2360   -1.9712 C   0  0  0  0  0  0  0  0  0  0  0  0
   -4.0619   -1.7595   -2.9300 H   0  0  0  0  0  0  0  0  0  0  0  0
   -0.8804    3.4693    0.8394 C   0  0  0  0  0  0  0  0  0  0  0  0
   -1.5701    4.0219    1.4974 H   0  0  0  0  0  0  0  0  0  0  0  0
   -1.7302    1.2984    1.8247 C   0  0  0  0  0  0  0  0  0  0  0  0
   -2.7401    1.7199    1.9812 H   0  0  0  0  0  0  0  0  0  0  0  0
   -1.2455    1.2174    2.8219 H   0  0  0  0  0  0  0  0  0  0  0  0
  1  3  1  0  0  0  0
  2 29  1  0  0  0  0
  3  5  1  0  0  0  0
  4  3  2  0  0  0  0
  4  7  1  0  0  0  0
  5  6  1  0  0  0  0
  5 13  2  0  0  0  0
  7 10  2  0  0  0  0
  8  7  1  0  0  0  0
  9 15  1  0  0  0  0
  9  2  2  0  0  0  0
 10 13  1  0  0  0  0
 10 11  1  0  0  0  0
 12  4  1  0  0  0  0
 13 14  1  0  0  0  0
 15 20  2  0  0  0  0
 16 15  1  0  0  0  0
 17  1  1  0  0  0  0
 17  9  1  0  0  0  0
 18 17  1  0  0  0  0
 19 17  1  0  0  0  0
 20 35  1  0  0  0  0
 21 20  1  0  0  0  0
 22 37  1  0  0  0  0
 23 24  1  0  0  0  0
 23 22  1  0  0  0  0
 24 32  1  0  0  0  0
 25 23  2  0  0  0  0
 26 25  1  0  0  0  0
 27 28  1  0  0  0  0
 27 24  2  0  0  0  0
 29 37  1  0  0  0  0
 30 27  1  0  0  0  0
 31 30  1  0  0  0  0
 33 30  2  0  0  0  0
 33 25  1  0  0  0  0
 34 33  1  0  0  0  0
 35 29  2  0  0  0  0
 35 36  1  0  0  0  0
 37 38  1  0  0  0  0
 37 39  1  0  0  0  0
M  END
