1,2,9
 OpenBabel05122313063D

 45 47  0  0  0  0  0  0  0  0999 V2000
    1.2259   -0.3412    1.9300 S   0  0  0  0  0  0  0  0  0  0  0  0
   -1.2421   -0.3236   -1.9747 S   0  0  0  0  0  0  0  0  0  0  0  0
    7.2707    0.7449   -0.9175 F   0  0  0  0  0  0  0  0  0  0  0  0
    7.7104   -0.8884    0.4590 F   0  0  0  0  0  0  0  0  0  0  0  0
    6.9109   -1.3266   -1.5200 F   0  0  0  0  0  0  0  0  0  0  0  0
   -6.6878   -0.3510    1.9143 F   0  0  0  0  0  0  0  0  0  0  0  0
   -7.4064   -1.6555    0.3240 F   0  0  0  0  0  0  0  0  0  0  0  0
   -7.6122    0.5142    0.1386 F   0  0  0  0  0  0  0  0  0  0  0  0
   -0.0132    1.4847   -0.0107 C   0  0  0  0  0  3  0  0  0  0  0  0
   -0.4680    2.2108   -1.1414 C   0  0  0  0  0  0  0  0  0  0  0  0
   -0.4843    3.6182   -1.1210 C   0  0  0  0  0  0  0  0  0  0  0  0
   -0.8448    4.1782   -1.9989 H   0  0  0  0  0  0  0  0  0  0  0  0
   -0.0252    4.3131    0.0087 C   0  0  0  0  0  0  0  0  0  0  0  0
   -0.0300    5.4131    0.0163 H   0  0  0  0  0  0  0  0  0  0  0  0
    0.4399    3.6067    1.1287 C   0  0  0  0  0  0  0  0  0  0  0  0
    0.7955    4.1576    2.0143 H   0  0  0  0  0  0  0  0  0  0  0  0
    0.4357    2.1990    1.1298 C   0  0  0  0  0  0  0  0  0  0  0  0
    0.8364    1.4126    2.3496 C   0  0  0  0  0  0  0  0  0  0  0  0
   -0.0178    1.2904    3.0502 H   0  0  0  0  0  0  0  0  0  0  0  0
    1.6725    1.8468    2.9345 H   0  0  0  0  0  0  0  0  0  0  0  0
    2.8672   -0.2703    1.1907 C   0  0  0  0  0  0  0  0  0  0  0  0
    3.6486    0.8945    1.1329 C   0  0  0  0  0  0  0  0  0  0  0  0
    3.2659    1.8583    1.4931 H   0  0  0  0  0  0  0  0  0  0  0  0
    4.9322    0.8312    0.5720 C   0  0  0  0  0  0  0  0  0  0  0  0
    5.5479    1.7396    0.5113 H   0  0  0  0  0  0  0  0  0  0  0  0
    5.4287   -0.3820    0.0716 C   0  0  0  0  0  0  0  0  0  0  0  0
    4.6298   -1.5402    0.1193 C   0  0  0  0  0  0  0  0  0  0  0  0
    5.0075   -2.4847   -0.2980 H   0  0  0  0  0  0  0  0  0  0  0  0
    3.3499   -1.4916    0.6772 C   0  0  0  0  0  0  0  0  0  0  0  0
    2.6976   -2.3803    0.6750 H   0  0  0  0  0  0  0  0  0  0  0  0
    6.8312   -0.4604   -0.4823 C   0  0  0  0  0  0  0  0  0  0  0  0
   -0.8617    1.4375   -2.3717 C   0  0  0  0  0  0  0  0  0  0  0  0
   -0.0053    1.3283   -3.0718 H   0  0  0  0  0  0  0  0  0  0  0  0
   -1.6985    1.8747   -2.9534 H   0  0  0  0  0  0  0  0  0  0  0  0
   -2.8807   -0.2696   -1.2277 C   0  0  0  0  0  0  0  0  0  0  0  0
   -3.6753    0.8862   -1.1706 C   0  0  0  0  0  0  0  0  0  0  0  0
   -3.3083    1.8518   -1.5422 H   0  0  0  0  0  0  0  0  0  0  0  0
   -4.9554    0.8102   -0.6033 C   0  0  0  0  0  0  0  0  0  0  0  0
   -5.5866    1.7088   -0.5555 H   0  0  0  0  0  0  0  0  0  0  0  0
   -5.4356   -0.4067   -0.0964 C   0  0  0  0  0  0  0  0  0  0  0  0
   -4.6274   -1.5581   -0.1526 C   0  0  0  0  0  0  0  0  0  0  0  0
   -5.0011   -2.5111    0.2486 H   0  0  0  0  0  0  0  0  0  0  0  0
   -3.3503   -1.4965   -0.7154 C   0  0  0  0  0  0  0  0  0  0  0  0
   -2.6923   -2.3810   -0.7236 H   0  0  0  0  0  0  0  0  0  0  0  0
   -6.7905   -0.4741    0.5667 C   0  0  0  0  0  0  0  0  0  0  0  0
  1 18  1  0  0  0  0
  2 35  1  0  0  0  0
  3 31  1  0  0  0  0
  5 31  1  0  0  0  0
  7 45  1  0  0  0  0
  8 45  1  0  0  0  0
  9 17  1  0  0  0  0
 10 11  1  0  0  0  0
 10  9  2  0  0  0  0
 11 13  2  0  0  0  0
 12 11  1  0  0  0  0
 13 14  1  0  0  0  0
 13 15  1  0  0  0  0
 15 17  2  0  0  0  0
 15 16  1  0  0  0  0
 17 18  1  0  0  0  0
 18 20  1  0  0  0  0
 18 19  1  0  0  0  0
 21  1  1  0  0  0  0
 22 21  1  0  0  0  0
 22 23  1  0  0  0  0
 24 22  2  0  0  0  0
 25 24  1  0  0  0  0
 26 27  2  0  0  0  0
 26 24  1  0  0  0  0
 27 29  1  0  0  0  0
 28 27  1  0  0  0  0
 29 21  2  0  0  0  0
 30 29  1  0  0  0  0
 31 26  1  0  0  0  0
 31  4  1  0  0  0  0
 32  2  1  0  0  0  0
 32 10  1  0  0  0  0
 33 32  1  0  0  0  0
 34 32  1  0  0  0  0
 35 36  2  0  0  0  0
 35 43  1  0  0  0  0
 36 38  1  0  0  0  0
 37 36  1  0  0  0  0
 38 39  1  0  0  0  0
 38 40  2  0  0  0  0
 40 45  1  0  0  0  0
 41 40  1  0  0  0  0
 41 42  1  0  0  0  0
 43 41  2  0  0  0  0
 44 43  1  0  0  0  0
 45  6  1  0  0  0  0
M  END
