1,2,3
q = 0.0, confidence = 0.962

 72 73  0  0  1  0  0  0  0  0999 V2000
    2.4556    0.2041   -0.3543 P   0  0  0  0  0  0  0  0  0  0  0  0
    0.7274   -0.9161    1.4258 N   0  0  0  0  0  2  0  0  0  0  0  0
   -1.5150   -0.3455    0.4752 N   0  0  0  0  0  2  0  0  0  0  0  0
    2.9972   -0.6427    1.0907 O   0  0  0  0  0  0  0  0  0  0  0  0
    2.0046   -1.1463    1.8401 C   0  0  1  0  0  3  0  0  0  0  0  0
    2.2816   -1.8752    3.0058 C   0  0  0  0  0  0  0  0  0  0  0  0
    3.3295   -2.0313    3.2930 H   0  0  0  0  0  0  0  0  0  0  0  0
    1.2092   -2.3935    3.7520 C   0  0  0  0  0  0  0  0  0  0  0  0
    1.4074   -2.9705    4.6667 H   0  0  0  0  0  0  0  0  0  0  0  0
   -0.1053   -2.1799    3.3201 C   0  0  0  0  0  0  0  0  0  0  0  0
   -0.9598   -2.5835    3.8790 H   0  0  0  0  0  0  0  0  0  0  0  0
   -0.3257   -1.4431    2.1427 C   0  0  0  0  0  0  0  0  0  0  0  0
   -1.6103   -1.0709    1.5788 C   0  0  1  0  0  3  0  0  0  0  0  0
   -2.8984   -1.4524    2.2427 C   0  0  0  0  0  0  0  0  0  0  0  0
   -3.7511   -0.9124    1.7940 H   0  0  0  0  0  0  0  0  0  0  0  0
   -2.8709   -1.2452    3.3313 H   0  0  0  0  0  0  0  0  0  0  0  0
   -3.0790   -2.5417    2.1194 H   0  0  0  0  0  0  0  0  0  0  0  0
   -2.6814    0.2684   -0.0828 C   0  0  0  0  0  0  0  0  0  0  0  0
   -3.4956   -0.4319   -1.0050 C   0  0  0  0  0  0  0  0  0  0  0  0
   -4.6353    0.2256   -1.5072 C   0  0  0  0  0  0  0  0  0  0  0  0
   -5.2817   -0.3018   -2.2253 H   0  0  0  0  0  0  0  0  0  0  0  0
   -4.9545    1.5312   -1.1184 C   0  0  0  0  0  0  0  0  0  0  0  0
   -5.8514    2.0245   -1.5228 H   0  0  0  0  0  0  0  0  0  0  0  0
   -4.1203    2.2139   -0.2238 C   0  0  0  0  0  0  0  0  0  0  0  0
   -4.3641    3.2466    0.0683 H   0  0  0  0  0  0  0  0  0  0  0  0
   -2.9681    1.6052    0.3017 C   0  0  0  0  0  0  0  0  0  0  0  0
   -2.0650    2.3524    1.2746 C   0  0  0  0  0  0  0  0  0  0  0  0
   -1.1168    1.7781    1.3283 H   0  0  0  0  0  0  0  0  0  0  0  0
   -2.6686    2.3832    2.6893 C   0  0  0  0  0  0  0  0  0  0  0  0
   -3.6305    2.9371    2.6973 H   0  0  0  0  0  0  0  0  0  0  0  0
   -1.9818    2.8843    3.4026 H   0  0  0  0  0  0  0  0  0  0  0  0
   -2.8709    1.3622    3.0701 H   0  0  0  0  0  0  0  0  0  0  0  0
   -1.7082    3.7603    0.7793 C   0  0  0  0  0  0  0  0  0  0  0  0
   -1.2716    3.7109   -0.2375 H   0  0  0  0  0  0  0  0  0  0  0  0
   -0.9688    4.2335    1.4579 H   0  0  0  0  0  0  0  0  0  0  0  0
   -2.5953    4.4259    0.7456 H   0  0  0  0  0  0  0  0  0  0  0  0
   -3.1383   -1.8286   -1.4899 C   0  0  0  0  0  0  0  0  0  0  0  0
   -2.2767   -2.1878   -0.8926 H   0  0  0  0  0  0  0  0  0  0  0  0
   -2.6531   -1.7706   -2.9490 C   0  0  0  0  0  0  0  0  0  0  0  0
   -3.4619   -1.4301   -3.6294 H   0  0  0  0  0  0  0  0  0  0  0  0
   -2.3143   -2.7717   -3.2852 H   0  0  0  0  0  0  0  0  0  0  0  0
   -1.7988   -1.0729   -3.0430 H   0  0  0  0  0  0  0  0  0  0  0  0
   -4.2914   -2.8274   -1.3078 C   0  0  0  0  0  0  0  0  0  0  0  0
   -4.6299   -2.8723   -0.2521 H   0  0  0  0  0  0  0  0  0  0  0  0
   -3.9711   -3.8461   -1.6077 H   0  0  0  0  0  0  0  0  0  0  0  0
   -5.1727   -2.5636   -1.9292 H   0  0  0  0  0  0  0  0  0  0  0  0
    3.6127   -0.5434   -1.6612 C   0  0  0  0  0  0  0  0  0  0  0  0
    3.7313   -2.0522   -1.3701 C   0  0  0  0  0  0  0  0  0  0  0  0
    4.2909   -2.5231   -2.2061 H   0  0  0  0  0  0  0  0  0  0  0  0
    2.7383   -2.5348   -1.2992 H   0  0  0  0  0  0  0  0  0  0  0  0
    4.2893   -2.2386   -0.4323 H   0  0  0  0  0  0  0  0  0  0  0  0
    2.8726   -0.3132   -2.9958 C   0  0  0  0  0  0  0  0  0  0  0  0
    3.4730   -0.7519   -3.8206 H   0  0  0  0  0  0  0  0  0  0  0  0
    2.7250    0.7630   -3.2155 H   0  0  0  0  0  0  0  0  0  0  0  0
    1.8775   -0.7983   -2.9840 H   0  0  0  0  0  0  0  0  0  0  0  0
    5.0258    0.0551   -1.7126 C   0  0  0  0  0  0  0  0  0  0  0  0
    5.5761   -0.0974   -0.7641 H   0  0  0  0  0  0  0  0  0  0  0  0
    5.0328    1.1329   -1.9616 H   0  0  0  0  0  0  0  0  0  0  0  0
    5.5925   -0.4692   -2.5113 H   0  0  0  0  0  0  0  0  0  0  0  0
    2.9760    1.9613    0.1653 C   0  0  0  0  0  0  0  0  0  0  0  0
    4.3510    2.0142    0.8499 C   0  0  0  0  0  0  0  0  0  0  0  0
    5.1861    1.8413    0.1493 H   0  0  0  0  0  0  0  0  0  0  0  0
    4.4248    1.2770    1.6725 H   0  0  0  0  0  0  0  0  0  0  0  0
    4.4887    3.0266    1.2861 H   0  0  0  0  0  0  0  0  0  0  0  0
    1.8998    2.4007    1.1806 C   0  0  0  0  0  0  0  0  0  0  0  0
    2.1246    3.4340    1.5210 H   0  0  0  0  0  0  0  0  0  0  0  0
    1.8797    1.7513    2.0789 H   0  0  0  0  0  0  0  0  0  0  0  0
    0.8926    2.4112    0.7214 H   0  0  0  0  0  0  0  0  0  0  0  0
    2.9151    2.8848   -1.0638 C   0  0  0  0  0  0  0  0  0  0  0  0
    3.0586    3.9351   -0.7319 H   0  0  0  0  0  0  0  0  0  0  0  0
    1.9312    2.8141   -1.5701 H   0  0  0  0  0  0  0  0  0  0  0  0
    3.7105    2.6594   -1.8002 H   0  0  0  0  0  0  0  0  0  0  0  0
  1 60  1  0  0  0  0
  1  4  1  0  0  0  0
  2  5  1  0  0  0  0
  2 12  1  0  0  0  0
  5  4  1  1  0  0  0
  5  6  1  0  0  0  0
  6  7  1  0  0  0  0
  6  8  2  0  0  0  0
  8  9  1  0  0  0  0
 10  8  1  0  0  0  0
 10 11  1  0  0  0  0
 12 10  2  0  0  0  0
 13  3  1  1  0  0  0
 13 12  1  0  0  0  0
 13 14  1  0  0  0  0
 14 16  1  0  0  0  0
 15 14  1  0  0  0  0
 17 14  1  0  0  0  0
 18 26  1  0  0  0  0
 18  3  1  0  0  0  0
 19 18  2  0  0  0  0
 20 22  2  0  0  0  0
 20 19  1  0  0  0  0
 21 20  1  0  0  0  0
 22 24  1  0  0  0  0
 23 22  1  0  0  0  0
 24 25  1  0  0  0  0
 24 26  2  0  0  0  0
 26 27  1  0  0  0  0
 27 28  1  0  0  0  0
 27 29  1  0  0  0  0
 29 30  1  0  0  0  0
 29 32  1  0  0  0  0
 29 31  1  0  0  0  0
 33 27  1  0  0  0  0
 33 35  1  0  0  0  0
 34 33  1  0  0  0  0
 36 33  1  0  0  0  0
 37 43  1  0  0  0  0
 37 19  1  0  0  0  0
 37 38  1  0  0  0  0
 39 37  1  0  0  0  0
 40 39  1  0  0  0  0
 41 39  1  0  0  0  0
 42 39  1  0  0  0  0
 43 44  1  0  0  0  0
 45 43  1  0  0  0  0
 46 43  1  0  0  0  0
 47 48  1  0  0  0  0
 47  1  1  0  0  0  0
 48 50  1  0  0  0  0
 48 51  1  0  0  0  0
 49 48  1  0  0  0  0
 52 55  1  0  0  0  0
 52 47  1  0  0  0  0
 53 52  1  0  0  0  0
 54 52  1  0  0  0  0
 56 47  1  0  0  0  0
 56 57  1  0  0  0  0
 58 56  1  0  0  0  0
 59 56  1  0  0  0  0
 60 61  1  0  0  0  0
 60 65  1  0  0  0  0
 61 64  1  0  0  0  0
 61 63  1  0  0  0  0
 62 61  1  0  0  0  0
 65 66  1  0  0  0  0
 65 67  1  0  0  0  0
 68 65  1  0  0  0  0
 69 70  1  0  0  0  0
 69 60  1  0  0  0  0
 71 69  1  0  0  0  0
 72 69  1  0  0  0  0
M  END
