1,2,3
q = -2.0, confidence = 0.792

 62 66  0  0  0  0  0  0  0  0999 V2000
   -0.7753    0.5497    1.2017 P   0  0  0  0  0  0  0  0  0  0  0  0
    2.0466    0.4278    0.0505 N   0  0  0  0  0  2  0  0  0  0  0  0
   -1.3187   -1.0538   -1.1486 N   0  0  0  0  0  2  0  0  0  0  0  0
    0.5436    0.8389    2.4785 C   0  0  0  0  0  0  0  0  0  0  0  0
    1.0097    1.8088    2.2061 H   0  0  0  0  0  0  0  0  0  0  0  0
    0.1096    0.9182    3.4949 H   0  0  0  0  0  0  0  0  0  0  0  0
    1.5149   -0.3018    2.3561 C   0  0  0  0  0  0  0  0  0  0  0  0
    2.2174   -0.4844    1.1308 C   0  0  0  0  0  0  0  0  0  0  0  0
    3.1033   -1.5784    1.0123 C   0  0  0  0  0  0  0  0  0  0  0  0
    3.6683   -1.6899    0.0760 H   0  0  0  0  0  0  0  0  0  0  0  0
    3.2766   -2.4873    2.0640 C   0  0  0  0  0  0  0  0  0  0  0  0
    3.9679   -3.3352    1.9448 H   0  0  0  0  0  0  0  0  0  0  0  0
    2.5699   -2.3142    3.2647 C   0  0  0  0  0  0  0  0  0  0  0  0
    2.7009   -3.0239    4.0952 H   0  0  0  0  0  0  0  0  0  0  0  0
    1.6940   -1.2284    3.4003 C   0  0  0  0  0  0  0  0  0  0  0  0
    1.1415   -1.0816    4.3424 H   0  0  0  0  0  0  0  0  0  0  0  0
    3.0790    1.3478   -0.1773 C   0  0  0  0  0  0  0  0  0  0  0  0
    3.1069    2.1415   -1.3561 C   0  0  0  0  0  0  0  0  0  0  0  0
    2.3012    2.0325   -2.0925 H   0  0  0  0  0  0  0  0  0  0  0  0
    4.1360    3.0629   -1.5780 C   0  0  0  0  0  0  0  0  0  0  0  0
    4.1242    3.6610   -2.5028 H   0  0  0  0  0  0  0  0  0  0  0  0
    5.1744    3.2303   -0.6464 C   0  0  0  0  0  0  0  0  0  0  0  0
    5.9832    3.9529   -0.8299 H   0  0  0  0  0  0  0  0  0  0  0  0
    5.1549    2.4583    0.5262 C   0  0  0  0  0  0  0  0  0  0  0  0
    5.9514    2.5772    1.2777 H   0  0  0  0  0  0  0  0  0  0  0  0
    4.1294    1.5355    0.7648 C   0  0  0  0  0  0  0  0  0  0  0  0
    4.1339    0.9490    1.6943 H   0  0  0  0  0  0  0  0  0  0  0  0
   -1.5856   -1.0553    1.7218 C   0  0  0  0  0  0  0  0  0  0  0  0
   -1.5228   -1.1873    2.8199 H   0  0  0  0  0  0  0  0  0  0  0  0
   -2.6566   -0.9439    1.4461 H   0  0  0  0  0  0  0  0  0  0  0  0
   -0.9777   -2.2302    0.9972 C   0  0  0  0  0  0  0  0  0  0  0  0
   -0.9014   -2.2112   -0.4273 C   0  0  0  0  0  0  0  0  0  0  0  0
   -0.3359   -3.3066   -1.1119 C   0  0  0  0  0  0  0  0  0  0  0  0
   -0.3034   -3.2675   -2.2100 H   0  0  0  0  0  0  0  0  0  0  0  0
    0.1631   -4.4097   -0.4052 C   0  0  0  0  0  0  0  0  0  0  0  0
    0.6029   -5.2582   -0.9507 H   0  0  0  0  0  0  0  0  0  0  0  0
    0.1018   -4.4249    0.9966 C   0  0  0  0  0  0  0  0  0  0  0  0
    0.5039   -5.2803    1.5597 H   0  0  0  0  0  0  0  0  0  0  0  0
   -0.4664   -3.3434    1.6862 C   0  0  0  0  0  0  0  0  0  0  0  0
   -0.5027   -3.3532    2.7860 H   0  0  0  0  0  0  0  0  0  0  0  0
   -2.6910   -0.8257   -1.3159 C   0  0  0  0  0  0  0  0  0  0  0  0
   -3.1668    0.4052   -1.8353 C   0  0  0  0  0  0  0  0  0  0  0  0
   -2.4347    1.1787   -2.1061 H   0  0  0  0  0  0  0  0  0  0  0  0
   -4.5375    0.6330   -1.9867 C   0  0  0  0  0  0  0  0  0  0  0  0
   -4.8760    1.6025   -2.3844 H   0  0  0  0  0  0  0  0  0  0  0  0
   -5.4798   -0.3507   -1.6368 C   0  0  0  0  0  0  0  0  0  0  0  0
   -6.5570   -0.1637   -1.7569 H   0  0  0  0  0  0  0  0  0  0  0  0
   -5.0188   -1.5778   -1.1362 C   0  0  0  0  0  0  0  0  0  0  0  0
   -5.7367   -2.3676   -0.8644 H   0  0  0  0  0  0  0  0  0  0  0  0
   -3.6476   -1.8203   -0.9769 C   0  0  0  0  0  0  0  0  0  0  0  0
   -3.3045   -2.7925   -0.5939 H   0  0  0  0  0  0  0  0  0  0  0  0
   -2.0435    1.8398    1.4867 C   0  0  0  0  0  0  0  0  0  0  0  0
   -2.1436    2.9202    0.5878 C   0  0  0  0  0  0  0  0  0  0  0  0
   -1.4792    2.9554   -0.2904 H   0  0  0  0  0  0  0  0  0  0  0  0
   -3.0992    3.9243    0.8054 C   0  0  0  0  0  0  0  0  0  0  0  0
   -3.1758    4.7633    0.0975 H   0  0  0  0  0  0  0  0  0  0  0  0
   -3.9605    3.8540    1.9111 C   0  0  0  0  0  0  0  0  0  0  0  0
   -4.7144    4.6392    2.0742 H   0  0  0  0  0  0  0  0  0  0  0  0
   -3.8641    2.7778    2.8086 C   0  0  0  0  0  0  0  0  0  0  0  0
   -4.5398    2.7181    3.6754 H   0  0  0  0  0  0  0  0  0  0  0  0
   -2.9075    1.7743    2.6010 C   0  0  0  0  0  0  0  0  0  0  0  0
   -2.8403    0.9356    3.3114 H   0  0  0  0  0  0  0  0  0  0  0  0
  1 52  1  0  0  0  0
  1 28  1  0  0  0  0
  1  4  1  0  0  0  0
  2  8  1  0  0  0  0
  3 32  1  0  0  0  0
  4  6  1  0  0  0  0
  5  4  1  0  0  0  0
  7  4  1  0  0  0  0
  7 15  1  0  0  0  0
  8  7  2  0  0  0  0
  9  8  1  0  0  0  0
  9 11  2  0  0  0  0
 10  9  1  0  0  0  0
 11 13  1  0  0  0  0
 12 11  1  0  0  0  0
 13 15  2  0  0  0  0
 13 14  1  0  0  0  0
 15 16  1  0  0  0  0
 17  2  1  0  0  0  0
 17 26  1  0  0  0  0
 18 17  2  0  0  0  0
 19 18  1  0  0  0  0
 20 18  1  0  0  0  0
 20 22  2  0  0  0  0
 21 20  1  0  0  0  0
 22 24  1  0  0  0  0
 23 22  1  0  0  0  0
 24 26  2  0  0  0  0
 24 25  1  0  0  0  0
 26 27  1  0  0  0  0
 28 29  1  0  0  0  0
 30 28  1  0  0  0  0
 31 39  1  0  0  0  0
 31 28  1  0  0  0  0
 32 31  2  0  0  0  0
 33 32  1  0  0  0  0
 33 35  2  0  0  0  0
 34 33  1  0  0  0  0
 35 37  1  0  0  0  0
 36 35  1  0  0  0  0
 37 38  1  0  0  0  0
 37 39  2  0  0  0  0
 39 40  1  0  0  0  0
 41  3  1  0  0  0  0
 41 50  1  0  0  0  0
 42 41  2  0  0  0  0
 43 42  1  0  0  0  0
 44 42  1  0  0  0  0
 44 46  2  0  0  0  0
 45 44  1  0  0  0  0
 46 48  1  0  0  0  0
 47 46  1  0  0  0  0
 48 50  2  0  0  0  0
 48 49  1  0  0  0  0
 50 51  1  0  0  0  0
 52 61  1  0  0  0  0
 53 55  1  0  0  0  0
 53 52  2  0  0  0  0
 54 53  1  0  0  0  0
 55 57  2  0  0  0  0
 56 55  1  0  0  0  0
 57 58  1  0  0  0  0
 57 59  1  0  0  0  0
 59 60  1  0  0  0  0
 61 59  2  0  0  0  0
 61 62  1  0  0  0  0
M  END
