1,2,3
q = -2.0, confidence = 0.69

 74 78  0  0  0  0  0  0  0  0999 V2000
    0.5675    1.1738    0.2911 P   0  0  0  0  0  0  0  0  0  0  0  0
   -2.2098    0.1742   -0.5911 N   0  0  0  0  0  2  0  0  0  0  0  0
    1.4233   -1.0575   -1.1922 N   0  0  0  0  0  2  0  0  0  0  0  0
   -0.6176    2.4780    0.7799 C   0  0  0  0  0  0  0  0  0  0  0  0
   -1.7920    2.5603   -0.0138 C   0  0  0  0  0  0  0  0  0  0  0  0
   -2.7225    3.5709    0.2806 C   0  0  0  0  0  0  0  0  0  0  0  0
   -3.6306    3.6648   -0.3347 H   0  0  0  0  0  0  0  0  0  0  0  0
   -2.5139    4.4579    1.3500 C   0  0  0  0  0  0  0  0  0  0  0  0
   -3.2610    5.2365    1.5666 H   0  0  0  0  0  0  0  0  0  0  0  0
   -1.3650    4.3456    2.1463 C   0  0  0  0  0  0  0  0  0  0  0  0
   -1.2059    5.0319    2.9917 H   0  0  0  0  0  0  0  0  0  0  0  0
   -0.4114    3.3561    1.8575 C   0  0  0  0  0  0  0  0  0  0  0  0
    0.4987    3.2623    2.4700 H   0  0  0  0  0  0  0  0  0  0  0  0
   -2.0262    1.5303   -1.1148 C   0  0  0  0  0  0  0  0  0  0  0  0
   -2.8874    1.8411   -1.7433 H   0  0  0  0  0  0  0  0  0  0  0  0
   -1.1556    1.5338   -1.8086 H   0  0  0  0  0  0  0  0  0  0  0  0
   -3.4799   -0.1539   -0.0934 C   0  0  0  0  0  0  0  0  0  0  0  0
   -3.6881   -1.4050    0.5528 C   0  0  0  0  0  0  0  0  0  0  0  0
   -2.8297   -2.0691    0.7146 H   0  0  0  0  0  0  0  0  0  0  0  0
   -4.9479   -1.8035    1.0146 C   0  0  0  0  0  0  0  0  0  0  0  0
   -6.0524   -0.9417    0.8407 C   0  0  0  0  0  0  0  0  0  0  0  0
   -7.0489   -1.2471    1.1986 H   0  0  0  0  0  0  0  0  0  0  0  0
   -5.8873    0.3075    0.2235 C   0  0  0  0  0  0  0  0  0  0  0  0
   -4.6108    0.6913   -0.2313 C   0  0  0  0  0  0  0  0  0  0  0  0
   -4.5201    1.6745   -0.7091 H   0  0  0  0  0  0  0  0  0  0  0  0
   -5.1223   -3.1363    1.7025 C   0  0  0  0  0  0  0  0  0  0  0  0
   -5.9193   -3.7399    1.2198 H   0  0  0  0  0  0  0  0  0  0  0  0
   -5.4212   -3.0048    2.7641 H   0  0  0  0  0  0  0  0  0  0  0  0
   -4.1865   -3.7282    1.6878 H   0  0  0  0  0  0  0  0  0  0  0  0
   -7.0539    1.2512    0.0485 C   0  0  0  0  0  0  0  0  0  0  0  0
   -7.2072    1.5162   -1.0189 H   0  0  0  0  0  0  0  0  0  0  0  0
   -6.8869    2.2044    0.5939 H   0  0  0  0  0  0  0  0  0  0  0  0
   -7.9968    0.8094    0.4253 H   0  0  0  0  0  0  0  0  0  0  0  0
    1.4729    1.9534   -1.1179 C   0  0  0  0  0  0  0  0  0  0  0  0
    1.8307    1.1981   -2.2618 C   0  0  0  0  0  0  0  0  0  0  0  0
    2.5042    1.8472   -3.3144 C   0  0  0  0  0  0  0  0  0  0  0  0
    2.7879    1.2616   -4.2041 H   0  0  0  0  0  0  0  0  0  0  0  0
    2.8256    3.2092   -3.2459 C   0  0  0  0  0  0  0  0  0  0  0  0
    3.3597    3.6898   -4.0796 H   0  0  0  0  0  0  0  0  0  0  0  0
    2.4680    3.9545   -2.1114 C   0  0  0  0  0  0  0  0  0  0  0  0
    2.7139    5.0249   -2.0467 H   0  0  0  0  0  0  0  0  0  0  0  0
    1.7912    3.3267   -1.0580 C   0  0  0  0  0  0  0  0  0  0  0  0
    1.4944    3.9093   -0.1726 H   0  0  0  0  0  0  0  0  0  0  0  0
    1.4585   -0.2749   -2.4173 C   0  0  0  0  0  0  0  0  0  0  0  0
    0.4484   -0.3193   -2.8949 H   0  0  0  0  0  0  0  0  0  0  0  0
    2.1329   -0.7431   -3.1698 H   0  0  0  0  0  0  0  0  0  0  0  0
    2.6626   -1.3507   -0.5930 C   0  0  0  0  0  0  0  0  0  0  0  0
    2.7080   -2.0885    0.6167 C   0  0  0  0  0  0  0  0  0  0  0  0
    1.7589   -2.4229    1.0593 H   0  0  0  0  0  0  0  0  0  0  0  0
    3.9167   -2.3492    1.2695 C   0  0  0  0  0  0  0  0  0  0  0  0
    5.1241   -1.8861    0.6985 C   0  0  0  0  0  0  0  0  0  0  0  0
    6.0804   -2.0847    1.2092 H   0  0  0  0  0  0  0  0  0  0  0  0
    5.1192   -1.1766   -0.5110 C   0  0  0  0  0  0  0  0  0  0  0  0
    3.8894   -0.9110   -1.1474 C   0  0  0  0  0  0  0  0  0  0  0  0
    3.9103   -0.3275   -2.0771 H   0  0  0  0  0  0  0  0  0  0  0  0
    3.9321   -3.0853    2.5863 C   0  0  0  0  0  0  0  0  0  0  0  0
    2.9479   -3.5395    2.8104 H   0  0  0  0  0  0  0  0  0  0  0  0
    4.1751   -2.3912    3.4192 H   0  0  0  0  0  0  0  0  0  0  0  0
    4.6983   -3.8877    2.5974 H   0  0  0  0  0  0  0  0  0  0  0  0
    6.4049   -0.6965   -1.1411 C   0  0  0  0  0  0  0  0  0  0  0  0
    7.2590   -0.7796   -0.4411 H   0  0  0  0  0  0  0  0  0  0  0  0
    6.3287    0.3622   -1.4655 H   0  0  0  0  0  0  0  0  0  0  0  0
    6.6573   -1.2905   -2.0457 H   0  0  0  0  0  0  0  0  0  0  0  0
    1.7895    1.0046    1.6392 C   0  0  0  0  0  0  0  0  0  0  0  0
    3.1486    1.3268    1.4660 C   0  0  0  0  0  0  0  0  0  0  0  0
    3.5016    1.7399    0.5108 H   0  0  0  0  0  0  0  0  0  0  0  0
    4.0606    1.0815    2.5039 C   0  0  0  0  0  0  0  0  0  0  0  0
    5.1259    1.3113    2.3546 H   0  0  0  0  0  0  0  0  0  0  0  0
    3.6182    0.5365    3.7183 C   0  0  0  0  0  0  0  0  0  0  0  0
    4.3366    0.3456    4.5302 H   0  0  0  0  0  0  0  0  0  0  0  0
    2.2605    0.2174    3.8919 C   0  0  0  0  0  0  0  0  0  0  0  0
    1.9124   -0.2262    4.8369 H   0  0  0  0  0  0  0  0  0  0  0  0
    1.3477    0.4347    2.8521 C   0  0  0  0  0  0  0  0  0  0  0  0
    0.2957    0.1306    2.9640 H   0  0  0  0  0  0  0  0  0  0  0  0
  1  4  1  0  0  0  0
  1 64  1  0  0  0  0
  2 17  1  0  0  0  0
  3 47  1  0  0  0  0
  4 12  1  0  0  0  0
  5  6  1  0  0  0  0
  5  4  2  0  0  0  0
  6  8  2  0  0  0  0
  7  6  1  0  0  0  0
  8  9  1  0  0  0  0
  8 10  1  0  0  0  0
 10 11  1  0  0  0  0
 12 10  2  0  0  0  0
 12 13  1  0  0  0  0
 14  2  1  0  0  0  0
 14  5  1  0  0  0  0
 15 14  1  0  0  0  0
 16 14  1  0  0  0  0
 17 18  1  0  0  0  0
 18 19  1  0  0  0  0
 18 20  2  0  0  0  0
 20 26  1  0  0  0  0
 21 20  1  0  0  0  0
 21 22  1  0  0  0  0
 23 21  2  0  0  0  0
 24 17  2  0  0  0  0
 24 23  1  0  0  0  0
 25 24  1  0  0  0  0
 26 28  1  0  0  0  0
 27 26  1  0  0  0  0
 29 26  1  0  0  0  0
 30 23  1  0  0  0  0
 30 33  1  0  0  0  0
 30 32  1  0  0  0  0
 31 30  1  0  0  0  0
 34 42  1  0  0  0  0
 34  1  1  0  0  0  0
 35 34  2  0  0  0  0
 36 38  2  0  0  0  0
 36 35  1  0  0  0  0
 37 36  1  0  0  0  0
 38 40  1  0  0  0  0
 39 38  1  0  0  0  0
 40 41  1  0  0  0  0
 40 42  2  0  0  0  0
 42 43  1  0  0  0  0
 44 35  1  0  0  0  0
 44  3  1  0  0  0  0
 45 44  1  0  0  0  0
 46 44  1  0  0  0  0
 47 48  1  0  0  0  0
 48 49  1  0  0  0  0
 48 50  2  0  0  0  0
 50 56  1  0  0  0  0
 51 52  1  0  0  0  0
 51 50  1  0  0  0  0
 53 51  2  0  0  0  0
 54 47  2  0  0  0  0
 54 53  1  0  0  0  0
 55 54  1  0  0  0  0
 56 59  1  0  0  0  0
 56 57  1  0  0  0  0
 56 58  1  0  0  0  0
 60 53  1  0  0  0  0
 60 61  1  0  0  0  0
 62 60  1  0  0  0  0
 63 60  1  0  0  0  0
 64 73  1  0  0  0  0
 65 64  2  0  0  0  0
 65 67  1  0  0  0  0
 66 65  1  0  0  0  0
 67 69  2  0  0  0  0
 68 67  1  0  0  0  0
 69 71  1  0  0  0  0
 69 70  1  0  0  0  0
 71 72  1  0  0  0  0
 73 74  1  0  0  0  0
 73 71  2  0  0  0  0
M  END
