1,2,3
q = -2.0, confidence = 0.906

 72 74  0  0  0  0  0  0  0  0999 V2000
   -2.0169   -1.4312   -0.2065 P   0  0  0  0  0  0  0  0  0  0  0  0
    1.5522    0.1733    0.5965 N   0  0  0  0  0  2  0  0  0  0  0  0
   -0.9338    1.2203    0.1278 N   0  0  0  0  0  2  0  0  0  0  0  0
    1.4288    1.3470    1.5079 C   0  0  0  0  0  0  0  0  0  0  0  0
    2.4060    1.5219    1.9985 H   0  0  0  0  0  0  0  0  0  0  0  0
    0.6880    1.1118    2.3066 H   0  0  0  0  0  0  0  0  0  0  0  0
    0.9843    2.5714    0.7665 C   0  0  0  0  0  0  0  0  0  0  0  0
   -0.2452    2.4634    0.0782 C   0  0  0  0  0  0  0  0  0  0  0  0
   -0.6767    3.5368   -0.7303 C   0  0  0  0  0  0  0  0  0  0  0  0
   -1.6104    3.4418   -1.3037 H   0  0  0  0  0  0  0  0  0  0  0  0
    0.0899    4.7045   -0.8159 C   0  0  0  0  0  0  0  0  0  0  0  0
   -0.2612    5.5318   -1.4533 H   0  0  0  0  0  0  0  0  0  0  0  0
    1.3131    4.8361   -0.1232 C   0  0  0  0  0  0  0  0  0  0  0  0
    1.7467    3.7438    0.6529 C   0  0  0  0  0  0  0  0  0  0  0  0
    2.7115    3.8021    1.1831 H   0  0  0  0  0  0  0  0  0  0  0  0
    2.1204    6.1072   -0.2071 C   0  0  0  0  0  0  0  0  0  0  0  0
    2.0975    6.5381   -1.2284 H   0  0  0  0  0  0  0  0  0  0  0  0
    3.1794    5.9372    0.0696 H   0  0  0  0  0  0  0  0  0  0  0  0
    1.7218    6.8851    0.4800 H   0  0  0  0  0  0  0  0  0  0  0  0
   -2.3056    1.1937    0.4392 C   0  0  0  0  0  0  0  0  0  0  0  0
   -3.0403   -0.0188    0.2945 C   0  0  0  0  0  0  0  0  0  0  0  0
   -4.4193   -0.0712    0.5706 C   0  0  0  0  0  0  0  0  0  0  0  0
   -4.9664   -1.0158    0.4197 H   0  0  0  0  0  0  0  0  0  0  0  0
   -5.1218    1.0541    1.0344 C   0  0  0  0  0  0  0  0  0  0  0  0
   -4.3737    2.2367    1.2350 C   0  0  0  0  0  0  0  0  0  0  0  0
   -4.8826    3.1320    1.6275 H   0  0  0  0  0  0  0  0  0  0  0  0
   -3.0082    2.3151    0.9518 C   0  0  0  0  0  0  0  0  0  0  0  0
   -2.4688    3.2559    1.1254 H   0  0  0  0  0  0  0  0  0  0  0  0
   -6.6026    1.0096    1.3122 C   0  0  0  0  0  0  0  0  0  0  0  0
   -7.1689    1.6484    0.6013 H   0  0  0  0  0  0  0  0  0  0  0  0
   -6.8381    1.3804    2.3315 H   0  0  0  0  0  0  0  0  0  0  0  0
   -7.0030   -0.0194    1.2258 H   0  0  0  0  0  0  0  0  0  0  0  0
    2.8773   -0.3754    0.5518 C   0  0  0  0  0  0  0  0  0  0  0  0
    3.3218   -1.2328    1.5939 C   0  0  0  0  0  0  0  0  0  0  0  0
    4.6355   -1.7232    1.5576 C   0  0  0  0  0  0  0  0  0  0  0  0
    4.9720   -2.3933    2.3662 H   0  0  0  0  0  0  0  0  0  0  0  0
    5.5262   -1.3959    0.5170 C   0  0  0  0  0  0  0  0  0  0  0  0
    6.9259   -1.9582    0.4963 C   0  0  0  0  0  0  0  0  0  0  0  0
    6.9152   -3.0571    0.3337 H   0  0  0  0  0  0  0  0  0  0  0  0
    7.4502   -1.7833    1.4588 H   0  0  0  0  0  0  0  0  0  0  0  0
    7.5354   -1.5074   -0.3110 H   0  0  0  0  0  0  0  0  0  0  0  0
   -2.8238   -2.2450   -1.6757 C   0  0  0  0  0  0  0  0  0  0  0  0
   -3.8487   -2.4861   -1.3113 H   0  0  0  0  0  0  0  0  0  0  0  0
   -2.9340   -1.2500   -2.8357 C   0  0  0  0  0  0  0  0  0  0  0  0
   -3.4641   -0.3247   -2.5347 H   0  0  0  0  0  0  0  0  0  0  0  0
   -3.4977   -1.7147   -3.6702 H   0  0  0  0  0  0  0  0  0  0  0  0
   -1.9314   -0.9642   -3.2118 H   0  0  0  0  0  0  0  0  0  0  0  0
   -2.0932   -3.5359   -2.0608 C   0  0  0  0  0  0  0  0  0  0  0  0
   -2.5771   -3.9819   -2.9539 H   0  0  0  0  0  0  0  0  0  0  0  0
   -2.1174   -4.2917   -1.2512 H   0  0  0  0  0  0  0  0  0  0  0  0
   -1.0283   -3.3383   -2.2949 H   0  0  0  0  0  0  0  0  0  0  0  0
   -1.9690   -2.6401    1.2139 C   0  0  0  0  0  0  0  0  0  0  0  0
   -1.1906   -3.3586    0.8740 H   0  0  0  0  0  0  0  0  0  0  0  0
   -1.4481   -1.8966    2.4499 C   0  0  0  0  0  0  0  0  0  0  0  0
   -0.4767   -1.4007    2.2484 H   0  0  0  0  0  0  0  0  0  0  0  0
   -1.2907   -2.6094    3.2847 H   0  0  0  0  0  0  0  0  0  0  0  0
   -2.1685   -1.1234    2.7869 H   0  0  0  0  0  0  0  0  0  0  0  0
   -3.2928   -3.3597    1.4763 C   0  0  0  0  0  0  0  0  0  0  0  0
   -4.0787   -2.6524    1.8100 H   0  0  0  0  0  0  0  0  0  0  0  0
   -3.1554   -4.1042    2.2879 H   0  0  0  0  0  0  0  0  0  0  0  0
   -3.6672   -3.9063    0.5881 H   0  0  0  0  0  0  0  0  0  0  0  0
    3.3240    0.9104   -1.6064 C   0  0  0  0  0  0  0  0  0  0  0  0
    2.7520    1.7779   -1.2228 H   0  0  0  0  0  0  0  0  0  0  0  0
    2.6552    0.3969   -2.3292 H   0  0  0  0  0  0  0  0  0  0  0  0
    4.1996    1.2878   -2.1687 H   0  0  0  0  0  0  0  0  0  0  0  0
    2.3818   -1.6548    2.6913 C   0  0  0  0  0  0  0  0  0  0  0  0
    2.9097   -2.2412    3.4676 H   0  0  0  0  0  0  0  0  0  0  0  0
    1.5765   -2.2882    2.2649 H   0  0  0  0  0  0  0  0  0  0  0  0
    1.8909   -0.7933    3.1875 H   0  0  0  0  0  0  0  0  0  0  0  0
    3.7577   -0.0138   -0.4989 C   0  0  0  0  0  0  0  0  0  0  0  0
    5.0647   -0.5405   -0.4950 C   0  0  0  0  0  0  0  0  0  0  0  0
    5.7473   -0.2595   -1.3139 H   0  0  0  0  0  0  0  0  0  0  0  0
  1 21  1  0  0  0  0
  1 52  1  0  0  0  0
  2  4  1  0  0  0  0
  3 20  1  0  0  0  0
  4  5  1  0  0  0  0
  4  6  1  0  0  0  0
  7  4  1  0  0  0  0
  8  3  1  0  0  0  0
  8  7  2  0  0  0  0
  9  8  1  0  0  0  0
 10  9  1  0  0  0  0
 11  9  2  0  0  0  0
 11 13  1  0  0  0  0
 12 11  1  0  0  0  0
 13 14  2  0  0  0  0
 14  7  1  0  0  0  0
 14 15  1  0  0  0  0
 16 13  1  0  0  0  0
 16 18  1  0  0  0  0
 16 19  1  0  0  0  0
 17 16  1  0  0  0  0
 20 27  1  0  0  0  0
 21 20  2  0  0  0  0
 21 22  1  0  0  0  0
 22 24  2  0  0  0  0
 23 22  1  0  0  0  0
 24 25  1  0  0  0  0
 24 29  1  0  0  0  0
 25 26  1  0  0  0  0
 27 28  1  0  0  0  0
 27 25  2  0  0  0  0
 29 31  1  0  0  0  0
 30 29  1  0  0  0  0
 32 29  1  0  0  0  0
 33  2  1  0  0  0  0
 33 34  1  0  0  0  0
 34 66  1  0  0  0  0
 35 34  2  0  0  0  0
 35 36  1  0  0  0  0
 37 35  1  0  0  0  0
 38 37  1  0  0  0  0
 38 40  1  0  0  0  0
 39 38  1  0  0  0  0
 41 38  1  0  0  0  0
 42 43  1  0  0  0  0
 42  1  1  0  0  0  0
 44 45  1  0  0  0  0
 44 42  1  0  0  0  0
 46 44  1  0  0  0  0
 47 44  1  0  0  0  0
 48 42  1  0  0  0  0
 48 50  1  0  0  0  0
 49 48  1  0  0  0  0
 51 48  1  0  0  0  0
 52 58  1  0  0  0  0
 52 54  1  0  0  0  0
 53 52  1  0  0  0  0
 54 57  1  0  0  0  0
 54 56  1  0  0  0  0
 55 54  1  0  0  0  0
 58 59  1  0  0  0  0
 58 60  1  0  0  0  0
 61 58  1  0  0  0  0
 62 63  1  0  0  0  0
 62 70  1  0  0  0  0
 64 62  1  0  0  0  0
 65 62  1  0  0  0  0
 66 69  1  0  0  0  0
 66 67  1  0  0  0  0
 68 66  1  0  0  0  0
 70 71  1  0  0  0  0
 70 33  2  0  0  0  0
 71 37  2  0  0  0  0
 72 71  1  0  0  0  0
M  END
