1,2,3
q = 0.0, confidence = 0.998

 48 48  0  0  0  0  0  0  0  0999 V2000
    1.2618   -0.4898    0.2509 P   0  0  0  0  0  0  0  0  0  0  0  0
   -2.0589   -0.2459   -0.1783 N   0  0  0  0  0  2  0  0  0  0  0  0
   -0.8091    1.1498    1.7997 N   0  0  0  0  0  0  0  0  0  0  0  0
   -0.8365    2.1490    2.0332 H   0  0  0  0  0  0  0  0  0  0  0  0
   -2.6224   -0.9050   -1.2190 C   0  0  0  0  0  3  0  0  0  0  0  0
   -2.1818   -0.7264   -2.2099 H   0  0  0  0  0  0  0  0  0  0  0  0
   -3.7042   -1.7746   -1.0639 C   0  0  0  0  0  0  0  0  0  0  0  0
   -4.1229   -2.2797   -1.9454 H   0  0  0  0  0  0  0  0  0  0  0  0
   -4.2212   -1.9919    0.2212 C   0  0  0  0  0  0  0  0  0  0  0  0
   -5.0543   -2.6911    0.3840 H   0  0  0  0  0  0  0  0  0  0  0  0
   -3.6733   -1.2743    1.2920 C   0  0  0  0  0  0  0  0  0  0  0  0
   -4.0776   -1.3761    2.3097 H   0  0  0  0  0  0  0  0  0  0  0  0
   -2.6188   -0.3818    1.0510 C   0  0  0  0  0  0  0  0  0  0  0  0
   -2.1585    0.6051    2.0863 C   0  0  0  0  0  0  0  0  0  0  0  0
   -2.8772    1.4533    2.0567 H   0  0  0  0  0  0  0  0  0  0  0  0
   -2.2154    0.1782    3.1102 H   0  0  0  0  0  0  0  0  0  0  0  0
    0.2755    0.5533    2.6346 C   0  0  0  0  0  0  0  0  0  0  0  0
   -0.1028    0.3842    3.6669 H   0  0  0  0  0  0  0  0  0  0  0  0
    1.0775    1.3091    2.7030 H   0  0  0  0  0  0  0  0  0  0  0  0
    0.8191   -0.7388    2.0437 C   0  0  0  0  0  0  0  0  0  0  0  0
    0.0517   -1.5404    2.0772 H   0  0  0  0  0  0  0  0  0  0  0  0
    1.6863   -1.1011    2.6321 H   0  0  0  0  0  0  0  0  0  0  0  0
    3.0666    0.1934    0.2406 C   0  0  0  0  0  0  0  0  0  0  0  0
    3.2128    1.3006    1.3041 C   0  0  0  0  0  0  0  0  0  0  0  0
    2.4849    2.1233    1.2037 H   0  0  0  0  0  0  0  0  0  0  0  0
    4.2174    1.7568    1.1869 H   0  0  0  0  0  0  0  0  0  0  0  0
    3.1693    0.8942    2.3340 H   0  0  0  0  0  0  0  0  0  0  0  0
    4.1235   -0.8731    0.5833 C   0  0  0  0  0  0  0  0  0  0  0  0
    3.9536   -1.3361    1.5754 H   0  0  0  0  0  0  0  0  0  0  0  0
    5.1118   -0.3706    0.6290 H   0  0  0  0  0  0  0  0  0  0  0  0
    4.2055   -1.6721   -0.1743 H   0  0  0  0  0  0  0  0  0  0  0  0
    3.3542    0.7744   -1.1583 C   0  0  0  0  0  0  0  0  0  0  0  0
    3.2632    0.0195   -1.9600 H   0  0  0  0  0  0  0  0  0  0  0  0
    4.3967    1.1541   -1.1783 H   0  0  0  0  0  0  0  0  0  0  0  0
    2.6956    1.6244   -1.4115 H   0  0  0  0  0  0  0  0  0  0  0  0
    1.2826   -2.2891   -0.4409 C   0  0  0  0  0  0  0  0  0  0  0  0
    1.9177   -3.2858    0.5486 C   0  0  0  0  0  0  0  0  0  0  0  0
    2.9673   -3.0631    0.7983 H   0  0  0  0  0  0  0  0  0  0  0  0
    1.8989   -4.2923    0.0808 H   0  0  0  0  0  0  0  0  0  0  0  0
    1.3421   -3.3636    1.4916 H   0  0  0  0  0  0  0  0  0  0  0  0
    2.0005   -2.3277   -1.8031 C   0  0  0  0  0  0  0  0  0  0  0  0
    1.5764   -1.5957   -2.5183 H   0  0  0  0  0  0  0  0  0  0  0  0
    1.8647   -3.3368   -2.2445 H   0  0  0  0  0  0  0  0  0  0  0  0
    3.0888   -2.1532   -1.7266 H   0  0  0  0  0  0  0  0  0  0  0  0
   -0.1709   -2.7288   -0.6710 C   0  0  0  0  0  0  0  0  0  0  0  0
   -0.8098   -2.6255    0.2285 H   0  0  0  0  0  0  0  0  0  0  0  0
   -0.1744   -3.8022   -0.9519 H   0  0  0  0  0  0  0  0  0  0  0  0
   -0.6320   -2.1720   -1.5036 H   0  0  0  0  0  0  0  0  0  0  0  0
  1 20  1  0  0  0  0
  2 13  1  0  0  0  0
  3  4  1  0  0  0  0
  3 14  1  0  0  0  0
  3 17  1  0  0  0  0
  5  7  1  0  0  0  0
  5  2  1  0  0  0  0
  6  5  1  0  0  0  0
  7  9  2  0  0  0  0
  8  7  1  0  0  0  0
  9 10  1  0  0  0  0
  9 11  1  0  0  0  0
 11 12  1  0  0  0  0
 13 11  2  0  0  0  0
 13 14  1  0  0  0  0
 14 16  1  0  0  0  0
 15 14  1  0  0  0  0
 17 19  1  0  0  0  0
 17 18  1  0  0  0  0
 20 21  1  0  0  0  0
 20 22  1  0  0  0  0
 20 17  1  0  0  0  0
 23  1  1  0  0  0  0
 23 28  1  0  0  0  0
 23 24  1  0  0  0  0
 24 27  1  0  0  0  0
 25 24  1  0  0  0  0
 26 24  1  0  0  0  0
 28 30  1  0  0  0  0
 28 29  1  0  0  0  0
 31 28  1  0  0  0  0
 32 23  1  0  0  0  0
 33 32  1  0  0  0  0
 34 32  1  0  0  0  0
 35 32  1  0  0  0  0
 36  1  1  0  0  0  0
 36 37  1  0  0  0  0
 37 38  1  0  0  0  0
 37 40  1  0  0  0  0
 39 37  1  0  0  0  0
 41 44  1  0  0  0  0
 41 36  1  0  0  0  0
 42 41  1  0  0  0  0
 43 41  1  0  0  0  0
 45 36  1  0  0  0  0
 45 46  1  0  0  0  0
 47 45  1  0  0  0  0
 48 45  1  0  0  0  0
M  END
