1,2,3
q = 0.0, confidence = 1.0

 45 47  0  0  0  0  0  0  0  0999 V2000
    1.2470    0.0608    0.5742 P   0  0  0  0  0  0  0  0  0  0  0  0
   -2.9749   -0.2596   -0.5509 N   0  0  0  0  0  2  0  0  0  0  0  0
   -1.8026    0.3953    1.7499 N   0  0  0  0  0  2  0  0  0  0  0  0
   -3.7958    0.1332    0.4659 C   0  0  0  0  0  0  0  0  0  0  0  0
   -3.1036    0.4767    1.7000 C   0  0  0  0  0  0  0  0  0  0  0  0
   -3.6853    0.7874    2.5879 H   0  0  0  0  0  0  0  0  0  0  0  0
    1.3490    0.3866    2.3927 C   0  0  0  0  0  0  0  0  0  0  0  0
    1.3156   -0.5875    2.9223 H   0  0  0  0  0  0  0  0  0  0  0  0
    2.3518    0.8205    2.5807 H   0  0  0  0  0  0  0  0  0  0  0  0
    2.2900   -1.3963    0.2583 C   0  0  0  0  0  0  0  0  0  0  0  0
   -3.4903   -0.6127   -1.7364 C   0  0  0  0  0  0  0  0  0  0  0  0
   -2.7556   -0.9099   -2.5039 H   0  0  0  0  0  0  0  0  0  0  0  0
    1.3598    2.3002   -1.1399 C   0  0  0  0  0  0  0  0  0  0  0  0
    0.3414    2.0222   -1.4481 H   0  0  0  0  0  0  0  0  0  0  0  0
    3.1728   -1.4118   -0.8414 C   0  0  0  0  0  0  0  0  0  0  0  0
    3.2624   -0.5293   -1.4908 H   0  0  0  0  0  0  0  0  0  0  0  0
    2.1502   -2.5447    1.0668 C   0  0  0  0  0  0  0  0  0  0  0  0
    1.4377   -2.5606    1.9062 H   0  0  0  0  0  0  0  0  0  0  0  0
    0.2451    1.3213    2.8996 C   0  0  0  0  0  0  0  0  0  0  0  0
    0.5219    1.6706    3.9152 H   0  0  0  0  0  0  0  0  0  0  0  0
    0.1749    2.2344    2.2703 H   0  0  0  0  0  0  0  0  0  0  0  0
    2.0473    1.5065   -0.2007 C   0  0  0  0  0  0  0  0  0  0  0  0
    3.3715    1.8361    0.1668 C   0  0  0  0  0  0  0  0  0  0  0  0
    3.9288    1.2090    0.8806 H   0  0  0  0  0  0  0  0  0  0  0  0
   -1.1288    0.6591    3.0231 C   0  0  0  0  0  0  0  0  0  0  0  0
   -1.0131   -0.3223    3.5367 H   0  0  0  0  0  0  0  0  0  0  0  0
   -1.7942    1.2796    3.6601 H   0  0  0  0  0  0  0  0  0  0  0  0
   -5.1904    0.1799    0.3048 C   0  0  0  0  0  0  0  0  0  0  0  0
   -5.8313    0.5016    1.1383 H   0  0  0  0  0  0  0  0  0  0  0  0
    3.9328   -2.5597   -1.1050 C   0  0  0  0  0  0  0  0  0  0  0  0
    4.6250   -2.5677   -1.9599 H   0  0  0  0  0  0  0  0  0  0  0  0
   -4.8772   -0.5935   -1.9657 C   0  0  0  0  0  0  0  0  0  0  0  0
   -5.2675   -0.8926   -2.9487 H   0  0  0  0  0  0  0  0  0  0  0  0
    3.9939    2.9564   -0.3990 C   0  0  0  0  0  0  0  0  0  0  0  0
    5.0270    3.2072   -0.1160 H   0  0  0  0  0  0  0  0  0  0  0  0
   -5.7362   -0.1917   -0.9333 C   0  0  0  0  0  0  0  0  0  0  0  0
   -6.8247   -0.1668   -1.0892 H   0  0  0  0  0  0  0  0  0  0  0  0
    1.9898    3.4230   -1.6981 C   0  0  0  0  0  0  0  0  0  0  0  0
    1.4511    4.0397   -2.4326 H   0  0  0  0  0  0  0  0  0  0  0  0
    3.8081   -3.6945   -0.2881 C   0  0  0  0  0  0  0  0  0  0  0  0
    4.4063   -4.5932   -0.5001 H   0  0  0  0  0  0  0  0  0  0  0  0
    3.3024    3.7522   -1.3284 C   0  0  0  0  0  0  0  0  0  0  0  0
    3.7948    4.6312   -1.7707 H   0  0  0  0  0  0  0  0  0  0  0  0
    2.9140   -3.6874    0.7951 C   0  0  0  0  0  0  0  0  0  0  0  0
    2.8072   -4.5791    1.4303 H   0  0  0  0  0  0  0  0  0  0  0  0
  1  7  1  0  0  0  0
  2  4  1  0  0  0  0
  3 25  1  0  0  0  0
  4  5  2  0  0  0  0
  5  3  1  0  0  0  0
  5  6  1  0  0  0  0
  7  9  1  0  0  0  0
  7 19  1  0  0  0  0
  7  8  1  0  0  0  0
 10  1  1  0  0  0  0
 10 17  1  0  0  0  0
 11  2  1  0  0  0  0
 12 11  1  0  0  0  0
 13 22  1  0  0  0  0
 14 13  1  0  0  0  0
 15 10  2  0  0  0  0
 16 15  1  0  0  0  0
 17 18  1  0  0  0  0
 19 25  1  0  0  0  0
 19 20  1  0  0  0  0
 21 19  1  0  0  0  0
 22 23  2  0  0  0  0
 22  1  1  0  0  0  0
 23 24  1  0  0  0  0
 25 26  1  0  0  0  0
 25 27  1  0  0  0  0
 28  4  1  0  0  0  0
 28 29  1  0  0  0  0
 30 15  1  0  0  0  0
 30 40  2  0  0  0  0
 31 30  1  0  0  0  0
 32 11  2  0  0  0  0
 32 36  1  0  0  0  0
 33 32  1  0  0  0  0
 34 35  1  0  0  0  0
 34 23  1  0  0  0  0
 36 28  2  0  0  0  0
 37 36  1  0  0  0  0
 38 42  1  0  0  0  0
 38 13  2  0  0  0  0
 39 38  1  0  0  0  0
 40 44  1  0  0  0  0
 41 40  1  0  0  0  0
 42 34  2  0  0  0  0
 43 42  1  0  0  0  0
 44 17  2  0  0  0  0
 44 45  1  0  0  0  0
M  END
