1,2,9
q = 0.0, confidence = 1.0

 47 49  0  0  0  0  0  0  0  0999 V2000
    0.9314    0.0066    0.4634 P   0  0  0  0  0  0  0  0  0  0  0  0
   -1.8880    0.5735    1.4233 N   0  0  0  0  0  0  0  0  0  0  0  0
   -2.7336   -0.5392    1.9397 C   0  0  0  0  0  0  0  0  0  0  0  0
   -3.3564   -0.1647    2.7831 H   0  0  0  0  0  0  0  0  0  0  0  0
   -2.0703   -1.3322    2.3318 H   0  0  0  0  0  0  0  0  0  0  0  0
   -3.6046   -1.0726    0.7708 C   0  0  0  0  0  0  0  0  0  0  0  0
   -3.3631   -2.1292    0.5500 H   0  0  0  0  0  0  0  0  0  0  0  0
   -4.6899   -1.0163    1.0179 H   0  0  0  0  0  0  0  0  0  0  0  0
   -3.3239   -0.2734   -0.4487 N   0  0  0  0  0  0  0  0  0  0  0  0
   -3.6742    1.1428   -0.1825 C   0  0  0  0  0  0  0  0  0  0  0  0
   -4.7577    1.2249    0.0643 H   0  0  0  0  0  0  0  0  0  0  0  0
   -3.4946    1.7196   -1.1090 H   0  0  0  0  0  0  0  0  0  0  0  0
   -2.7851    1.6738    0.9711 C   0  0  0  0  0  0  0  0  0  0  0  0
   -2.1479    2.5084    0.6240 H   0  0  0  0  0  0  0  0  0  0  0  0
   -3.3924    2.0357    1.8306 H   0  0  0  0  0  0  0  0  0  0  0  0
   -0.8195    1.0270    2.3658 C   0  0  0  0  0  0  0  0  0  0  0  0
   -1.2185    1.0479    3.4035 H   0  0  0  0  0  0  0  0  0  0  0  0
   -0.5677    2.0692    2.0859 H   0  0  0  0  0  0  0  0  0  0  0  0
    0.4312    0.1543    2.2617 C   0  0  0  0  0  0  0  0  0  0  0  0
    0.2457   -0.8841    2.6064 H   0  0  0  0  0  0  0  0  0  0  0  0
    1.2535    0.5513    2.8912 H   0  0  0  0  0  0  0  0  0  0  0  0
   -3.9862   -0.8099   -1.6467 C   0  0  0  0  0  0  0  0  0  0  0  0
   -5.0928   -0.7966   -1.5321 H   0  0  0  0  0  0  0  0  0  0  0  0
   -3.6415   -1.8458   -1.8191 H   0  0  0  0  0  0  0  0  0  0  0  0
   -3.6955   -0.2032   -2.5236 H   0  0  0  0  0  0  0  0  0  0  0  0
    2.1470   -1.3334    0.3509 C   0  0  0  0  0  0  0  0  0  0  0  0
    3.5298   -1.0564    0.3533 C   0  0  0  0  0  0  0  0  0  0  0  0
    3.8896   -0.0169    0.3837 H   0  0  0  0  0  0  0  0  0  0  0  0
    4.4448   -2.1179    0.3059 C   0  0  0  0  0  0  0  0  0  0  0  0
    5.5243   -1.9063    0.3054 H   0  0  0  0  0  0  0  0  0  0  0  0
    3.9856   -3.4436    0.2495 C   0  0  0  0  0  0  0  0  0  0  0  0
    4.7083   -4.2720    0.2047 H   0  0  0  0  0  0  0  0  0  0  0  0
    2.6073   -3.7163    0.2346 C   0  0  0  0  0  0  0  0  0  0  0  0
    2.2502   -4.7547    0.1711 H   0  0  0  0  0  0  0  0  0  0  0  0
    1.6837   -2.6643    0.2793 C   0  0  0  0  0  0  0  0  0  0  0  0
    0.6030   -2.8694    0.2306 H   0  0  0  0  0  0  0  0  0  0  0  0
    1.7295    1.5616   -0.0360 C   0  0  0  0  0  0  0  0  0  0  0  0
    2.3546    2.4277    0.8862 C   0  0  0  0  0  0  0  0  0  0  0  0
    2.3711    2.1948    1.9617 H   0  0  0  0  0  0  0  0  0  0  0  0
    2.9791    3.5974    0.4271 C   0  0  0  0  0  0  0  0  0  0  0  0
    3.4676    4.2726    1.1453 H   0  0  0  0  0  0  0  0  0  0  0  0
    2.9852    3.9010   -0.9438 C   0  0  0  0  0  0  0  0  0  0  0  0
    3.4775    4.8187   -1.2989 H   0  0  0  0  0  0  0  0  0  0  0  0
    2.3644    3.0375   -1.8620 C   0  0  0  0  0  0  0  0  0  0  0  0
    2.3697    3.2762   -2.9359 H   0  0  0  0  0  0  0  0  0  0  0  0
    1.7307    1.8701   -1.4154 C   0  0  0  0  0  0  0  0  0  0  0  0
    1.2325    1.1907   -2.1266 H   0  0  0  0  0  0  0  0  0  0  0  0
  1 19  1  0  0  0  0
  2  3  1  0  0  0  0
  2 16  1  0  0  0  0
  3  5  1  0  0  0  0
  3  4  1  0  0  0  0
  6  8  1  0  0  0  0
  6  3  1  0  0  0  0
  7  6  1  0  0  0  0
  9 10  1  0  0  0  0
  9  6  1  0  0  0  0
 10 11  1  0  0  0  0
 10 13  1  0  0  0  0
 12 10  1  0  0  0  0
 13  2  1  0  0  0  0
 13 15  1  0  0  0  0
 14 13  1  0  0  0  0
 16 17  1  0  0  0  0
 18 16  1  0  0  0  0
 19 16  1  0  0  0  0
 19 20  1  0  0  0  0
 19 21  1  0  0  0  0
 22 23  1  0  0  0  0
 22  9  1  0  0  0  0
 24 22  1  0  0  0  0
 25 22  1  0  0  0  0
 26 27  1  0  0  0  0
 26  1  1  0  0  0  0
 27 28  1  0  0  0  0
 29 27  2  0  0  0  0
 30 29  1  0  0  0  0
 31 29  1  0  0  0  0
 32 31  1  0  0  0  0
 33 31  2  0  0  0  0
 33 35  1  0  0  0  0
 34 33  1  0  0  0  0
 35 26  2  0  0  0  0
 36 35  1  0  0  0  0
 37  1  1  0  0  0  0
 37 38  1  0  0  0  0
 38 39  1  0  0  0  0
 40 38  2  0  0  0  0
 40 41  1  0  0  0  0
 42 40  1  0  0  0  0
 43 42  1  0  0  0  0
 44 46  1  0  0  0  0
 44 42  2  0  0  0  0
 45 44  1  0  0  0  0
 46 37  2  0  0  0  0
 47 46  1  0  0  0  0
M  END
