1,4,8
q = 0.0, confidence = 0.994

 49 48  0  0  0  0  0  0  0  0999 V2000
    3.0125   -1.2876   -0.3098 N   0  0  0  0  0  0  0  0  0  0  0  0
    3.5524   -1.4051    1.0665 C   0  0  0  0  0  0  0  0  0  0  0  0
    3.0580   -0.2172    1.8792 C   0  0  0  0  0  0  0  0  0  0  0  0
    1.5627   -0.1517    1.8292 N   0  0  0  0  0  0  0  0  0  0  0  0
    1.0493    1.0630    2.5217 C   0  0  0  0  0  0  0  0  0  0  0  0
   -0.4649    1.2056    2.4567 C   0  0  0  0  0  0  0  0  0  0  0  0
   -0.9337    1.6388    1.1751 O   0  0  0  0  0  0  0  0  0  0  0  0
   -0.9756    0.5103   -0.0443 P   0  0  2  0  0  0  0  0  0  0  0  0
   -1.3409    1.5398   -1.2645 O   0  0  0  0  0  0  0  0  0  0  0  0
   -0.4229    2.1798   -2.1583 C   0  0  0  0  0  0  0  0  0  0  0  0
    0.4003    3.3070   -1.5070 C   0  0  0  0  0  0  0  0  0  0  0  0
    1.5498    2.8393   -0.7374 C   0  0  0  0  0  0  0  0  0  0  0  0
    2.4671    2.4216   -0.1399 N   0  0  0  0  0  0  0  0  0  0  0  0
   -2.3149   -0.4287    0.2351 N   0  0  0  0  0  0  0  0  0  0  0  0
   -2.2384   -1.8679   -0.1684 C   0  0  0  0  0  0  0  0  0  0  0  0
   -2.7140   -2.7864    0.9584 C   0  0  0  0  0  0  0  0  0  0  0  0
   -2.9434   -2.1201   -1.5024 C   0  0  0  0  0  0  0  0  0  0  0  0
   -3.6671    0.1104    0.5902 C   0  0  0  0  0  0  0  0  0  0  0  0
   -3.8053    0.3982    2.0892 C   0  0  0  0  0  0  0  0  0  0  0  0
   -4.1076    1.3027   -0.2620 C   0  0  0  0  0  0  0  0  0  0  0  0
    3.0505   -2.1739   -0.8351 H   0  0  0  0  0  0  0  0  0  0  0  0
    3.5418   -0.5942   -0.8621 H   0  0  0  0  0  0  0  0  0  0  0  0
    3.1857   -2.3595    1.4975 H   0  0  0  0  0  0  0  0  0  0  0  0
    4.6614   -1.4397    1.0791 H   0  0  0  0  0  0  0  0  0  0  0  0
    3.4265    0.7343    1.4446 H   0  0  0  0  0  0  0  0  0  0  0  0
    3.4039   -0.2822    2.9325 H   0  0  0  0  0  0  0  0  0  0  0  0
    1.1881   -0.9755    2.3302 H   0  0  0  0  0  0  0  0  0  0  0  0
    1.5345    1.9404    2.0530 H   0  0  0  0  0  0  0  0  0  0  0  0
    1.3598    1.0203    3.5884 H   0  0  0  0  0  0  0  0  0  0  0  0
   -0.9729    0.2615    2.7605 H   0  0  0  0  0  0  0  0  0  0  0  0
   -0.7735    1.9900    3.1750 H   0  0  0  0  0  0  0  0  0  0  0  0
   -1.0643    2.6267   -2.9413 H   0  0  0  0  0  0  0  0  0  0  0  0
    0.2341    1.4196   -2.6305 H   0  0  0  0  0  0  0  0  0  0  0  0
    0.7792    3.9775   -2.3079 H   0  0  0  0  0  0  0  0  0  0  0  0
   -0.2500    3.9234   -0.8513 H   0  0  0  0  0  0  0  0  0  0  0  0
   -1.1554   -2.0662   -0.3218 H   0  0  0  0  0  0  0  0  0  0  0  0
   -2.1489   -2.5980    1.8934 H   0  0  0  0  0  0  0  0  0  0  0  0
   -2.5576   -3.8440    0.6687 H   0  0  0  0  0  0  0  0  0  0  0  0
   -3.7943   -2.6653    1.1772 H   0  0  0  0  0  0  0  0  0  0  0  0
   -2.5013   -1.4888   -2.2972 H   0  0  0  0  0  0  0  0  0  0  0  0
   -4.0318   -1.9131   -1.4451 H   0  0  0  0  0  0  0  0  0  0  0  0
   -2.8236   -3.1798   -1.8024 H   0  0  0  0  0  0  0  0  0  0  0  0
   -4.3503   -0.7289    0.3491 H   0  0  0  0  0  0  0  0  0  0  0  0
   -3.4548   -0.4555    2.7011 H   0  0  0  0  0  0  0  0  0  0  0  0
   -4.8694    0.5793    2.3399 H   0  0  0  0  0  0  0  0  0  0  0  0
   -3.2408    1.3063    2.3769 H   0  0  0  0  0  0  0  0  0  0  0  0
   -4.0295    1.0795   -1.3425 H   0  0  0  0  0  0  0  0  0  0  0  0
   -3.4987    2.2028   -0.0498 H   0  0  0  0  0  0  0  0  0  0  0  0
   -5.1630    1.5460   -0.0291 H   0  0  0  0  0  0  0  0  0  0  0  0
  1  2  1  0  0  0  0
  2 24  1  0  0  0  0
  2 23  1  0  0  0  0
  2  3  1  0  0  0  0
  3 26  1  0  0  0  0
  4  3  1  0  0  0  0
  4 27  1  0  0  0  0
  4  5  1  0  0  0  0
  5 29  1  0  0  0  0
  6  5  1  0  0  0  0
  6 30  1  0  0  0  0
  6 31  1  0  0  0  0
  7  6  1  0  0  0  0
  8  9  1  6  0  0  0
  8 14  1  0  0  0  0
  8  7  1  0  0  0  0
 10 11  1  0  0  0  0
 10  9  1  0  0  0  0
 11 35  1  0  0  0  0
 11 12  1  0  0  0  0
 12 13  3  0  0  0  0
 14 18  1  0  0  0  0
 15 14  1  0  0  0  0
 15 16  1  0  0  0  0
 16 39  1  0  0  0  0
 16 37  1  0  0  0  0
 17 41  1  0  0  0  0
 17 15  1  0  0  0  0
 18 19  1  0  0  0  0
 19 45  1  0  0  0  0
 19 46  1  0  0  0  0
 19 44  1  0  0  0  0
 20 48  1  0  0  0  0
 20 49  1  0  0  0  0
 20 18  1  0  0  0  0
 21  1  1  0  0  0  0
 22  1  1  0  0  0  0
 25  3  1  0  0  0  0
 28  5  1  0  0  0  0
 32 10  1  0  0  0  0
 33 10  1  0  0  0  0
 34 11  1  0  0  0  0
 36 15  1  0  0  0  0
 38 16  1  0  0  0  0
 40 17  1  0  0  0  0
 42 17  1  0  0  0  0
 43 18  1  0  0  0  0
 47 20  1  0  0  0  0
M  END
