1,2,4
q = -1.0, confidence = 0.01

 53 57  0  0  1  0  0  0  0  0999 V2000
    1.4566   -0.0124    0.1152 P   0  0  0  0  0  0  0  0  0  0  0  0
   -2.5114   -0.8398   -0.1291 N   0  0  0  0  0  2  0  0  0  0  0  0
   -1.5736   -2.9243   -0.6743 N   0  0  0  0  0  2  0  0  0  0  0  0
   -0.4180   -2.2627   -0.4911 N   0  0  0  0  0  2  0  0  0  0  0  0
   -3.6295   -0.0806    0.1504 C   0  0  2  0  0  3  0  0  0  0  0  0
   -3.5164    1.2315    0.6877 C   0  0  0  0  0  0  0  0  0  0  0  0
   -2.5133    1.6357    0.8626 H   0  0  0  0  0  0  0  0  0  0  0  0
   -4.6522    1.9853    0.9679 C   0  0  0  0  0  0  0  0  0  0  0  0
   -4.5332    2.9975    1.3847 H   0  0  0  0  0  0  0  0  0  0  0  0
   -5.9502    1.4724    0.7357 C   0  0  0  0  0  0  0  0  0  0  0  0
   -6.8376    2.0830    0.9588 H   0  0  0  0  0  0  0  0  0  0  0  0
   -6.0890    0.1814    0.2387 C   0  0  0  0  0  0  0  0  0  0  0  0
   -7.0878   -0.2514    0.0704 H   0  0  0  0  0  0  0  0  0  0  0  0
   -4.9534   -0.6182   -0.0505 C   0  0  0  0  0  0  0  0  0  0  0  0
   -5.0741   -1.9683   -0.5124 C   0  0  0  0  0  0  0  0  0  0  0  0
   -6.0784   -2.3878   -0.6800 H   0  0  0  0  0  0  0  0  0  0  0  0
   -3.9519   -2.7283   -0.7168 C   0  0  0  0  0  0  0  0  0  0  0  0
   -3.9882   -3.7747   -1.0466 H   0  0  0  0  0  0  0  0  0  0  0  0
   -2.6551   -2.1459   -0.5073 C   0  0  0  0  0  0  0  0  0  0  0  0
    0.6694   -3.0163   -0.6457 C   0  0  0  0  0  3  0  0  0  0  0  0
    0.4428   -4.0602   -0.9208 H   0  0  0  0  0  0  0  0  0  0  0  0
    2.0622   -2.6749   -0.5065 C   0  0  0  0  0  0  0  0  0  0  0  0
    2.5934   -1.3892   -0.1884 C   0  0  0  0  0  0  0  0  0  0  0  0
    3.9847   -1.1830   -0.1242 C   0  0  0  0  0  0  0  0  0  0  0  0
    4.3660   -0.1749    0.1016 H   0  0  0  0  0  0  0  0  0  0  0  0
    4.8818   -2.2354   -0.3462 C   0  0  0  0  0  0  0  0  0  0  0  0
    5.9661   -2.0599   -0.2917 H   0  0  0  0  0  0  0  0  0  0  0  0
    4.3751   -3.5143   -0.6481 C   0  0  0  0  0  0  0  0  0  0  0  0
    5.0656   -4.3520   -0.8297 H   0  0  0  0  0  0  0  0  0  0  0  0
    2.9996   -3.7266   -0.7296 C   0  0  0  0  0  0  0  0  0  0  0  0
    2.6137   -4.7274   -0.9776 H   0  0  0  0  0  0  0  0  0  0  0  0
    2.2257    1.4049   -0.7566 C   0  0  0  0  0  0  0  0  0  0  0  0
    2.1761    1.4023   -2.1671 C   0  0  0  0  0  0  0  0  0  0  0  0
    1.6529    0.5930   -2.6966 H   0  0  0  0  0  0  0  0  0  0  0  0
    2.7555    2.4555   -2.8872 C   0  0  0  0  0  0  0  0  0  0  0  0
    2.7049    2.4534   -3.9864 H   0  0  0  0  0  0  0  0  0  0  0  0
    3.3856    3.5135   -2.2107 C   0  0  0  0  0  0  0  0  0  0  0  0
    3.8358    4.3411   -2.7798 H   0  0  0  0  0  0  0  0  0  0  0  0
    3.4379    3.5153   -0.8082 C   0  0  0  0  0  0  0  0  0  0  0  0
    3.9318    4.3411   -0.2738 H   0  0  0  0  0  0  0  0  0  0  0  0
    2.8591    2.4644   -0.0788 C   0  0  0  0  0  0  0  0  0  0  0  0
    2.8987    2.4704    1.0203 H   0  0  0  0  0  0  0  0  0  0  0  0
    1.5596    0.3597    1.9080 C   0  0  0  0  0  0  0  0  0  0  0  0
    0.8367    1.4645    2.4154 C   0  0  0  0  0  0  0  0  0  0  0  0
    0.2533    2.0895    1.7226 H   0  0  0  0  0  0  0  0  0  0  0  0
    0.8587    1.7407    3.7887 C   0  0  0  0  0  0  0  0  0  0  0  0
    0.2965    2.6032    4.1778 H   0  0  0  0  0  0  0  0  0  0  0  0
    1.5833    0.9174    4.6674 C   0  0  0  0  0  0  0  0  0  0  0  0
    1.5932    1.1354    5.7462 H   0  0  0  0  0  0  0  0  0  0  0  0
    2.2896   -0.1867    4.1668 C   0  0  0  0  0  0  0  0  0  0  0  0
    2.8548   -0.8381    4.8506 H   0  0  0  0  0  0  0  0  0  0  0  0
    2.2815   -0.4678    2.7918 C   0  0  0  0  0  0  0  0  0  0  0  0
    2.8378   -1.3336    2.4034 H   0  0  0  0  0  0  0  0  0  0  0  0
  1 43  1  0  0  0  0
  3 19  1  0  0  0  0
  3  4  1  0  0  0  0
  5  2  1  1  0  0  0
  5  6  1  0  0  0  0
  6  7  1  0  0  0  0
  6  8  2  0  0  0  0
  8  9  1  0  0  0  0
 10 11  1  0  0  0  0
 10  8  1  0  0  0  0
 12 10  2  0  0  0  0
 13 12  1  0  0  0  0
 14  5  1  0  0  0  0
 14 12  1  0  0  0  0
 15 14  2  0  0  0  0
 16 15  1  0  0  0  0
 17 15  1  0  0  0  0
 17 19  2  0  0  0  0
 18 17  1  0  0  0  0
 19  2  1  0  0  0  0
 20 22  1  0  0  0  0
 20  4  1  0  0  0  0
 21 20  1  0  0  0  0
 22 23  1  0  0  0  0
 23 24  2  0  0  0  0
 23  1  1  0  0  0  0
 24 25  1  0  0  0  0
 26 27  1  0  0  0  0
 26 24  1  0  0  0  0
 28 26  2  0  0  0  0
 29 28  1  0  0  0  0
 30 28  1  0  0  0  0
 30 22  2  0  0  0  0
 31 30  1  0  0  0  0
 32 41  1  0  0  0  0
 32  1  1  0  0  0  0
 33 32  2  0  0  0  0
 34 33  1  0  0  0  0
 35 37  2  0  0  0  0
 35 33  1  0  0  0  0
 36 35  1  0  0  0  0
 37 39  1  0  0  0  0
 38 37  1  0  0  0  0
 39 40  1  0  0  0  0
 39 41  2  0  0  0  0
 41 42  1  0  0  0  0
 43 44  2  0  0  0  0
 43 52  1  0  0  0  0
 44 46  1  0  0  0  0
 45 44  1  0  0  0  0
 46 47  1  0  0  0  0
 46 48  2  0  0  0  0
 48 49  1  0  0  0  0
 50 48  1  0  0  0  0
 50 51  1  0  0  0  0
 52 50  2  0  0  0  0
 53 52  1  0  0  0  0
M  END
