1,3,4
q = -1.0, confidence = 0.002

 45 47  0  0  0  0  0  0  0  0999 V2000
   -0.9466    0.1472   -0.0434 P   0  0  0  0  0  0  0  0  0  0  0  0
    2.1892    3.3729    0.6908 O   0  0  0  0  0  0  0  0  0  0  0  0
    2.0809    1.2503   -0.1415 N   0  0  0  0  0  2  0  0  0  0  0  0
    3.4551   -1.1276   -0.6466 N   0  0  0  0  0  0  0  0  0  0  0  0
    3.7486   -1.5868    0.2270 H   0  0  0  0  0  0  0  0  0  0  0  0
    3.6180   -1.7972   -1.4114 H   0  0  0  0  0  0  0  0  0  0  0  0
    3.5391    1.2183    0.0642 C   0  0  0  0  0  0  0  0  0  0  0  0
    3.7682    0.9917    1.1329 H   0  0  0  0  0  0  0  0  0  0  0  0
    3.9760    2.2179   -0.1335 H   0  0  0  0  0  0  0  0  0  0  0  0
    4.1589    0.1660   -0.8469 C   0  0  0  0  0  0  0  0  0  0  0  0
    4.0078    0.4561   -1.9057 H   0  0  0  0  0  0  0  0  0  0  0  0
    5.2509    0.0762   -0.6632 H   0  0  0  0  0  0  0  0  0  0  0  0
    1.5132    2.4619    0.1892 C   0  0  0  0  0  0  0  0  0  0  0  0
   -1.0651    1.9480   -0.3483 C   0  0  0  0  0  0  0  0  0  0  0  0
    0.0643    2.7972   -0.1840 C   0  0  0  0  0  0  0  0  0  0  0  0
   -0.1379    4.1866   -0.3629 C   0  0  0  0  0  0  0  0  0  0  0  0
    0.7328    4.8366   -0.1991 H   0  0  0  0  0  0  0  0  0  0  0  0
   -1.3789    4.7188   -0.7244 C   0  0  0  0  0  0  0  0  0  0  0  0
   -1.4854    5.8046   -0.8698 H   0  0  0  0  0  0  0  0  0  0  0  0
   -2.4807    3.8684   -0.8999 C   0  0  0  0  0  0  0  0  0  0  0  0
   -3.4641    4.2718   -1.1851 H   0  0  0  0  0  0  0  0  0  0  0  0
   -2.3185    2.4929   -0.7032 C   0  0  0  0  0  0  0  0  0  0  0  0
   -3.1787    1.8192   -0.8304 H   0  0  0  0  0  0  0  0  0  0  0  0
   -2.2880   -0.6183   -1.0398 C   0  0  0  0  0  0  0  0  0  0  0  0
   -3.5787   -0.8050   -0.5027 C   0  0  0  0  0  0  0  0  0  0  0  0
   -3.7896   -0.5191    0.5387 H   0  0  0  0  0  0  0  0  0  0  0  0
   -4.5924   -1.3662   -1.2938 C   0  0  0  0  0  0  0  0  0  0  0  0
   -5.5972   -1.5123   -0.8689 H   0  0  0  0  0  0  0  0  0  0  0  0
   -4.3237   -1.7440   -2.6186 C   0  0  0  0  0  0  0  0  0  0  0  0
   -5.1188   -2.1889   -3.2363 H   0  0  0  0  0  0  0  0  0  0  0  0
   -3.0373   -1.5629   -3.1513 C   0  0  0  0  0  0  0  0  0  0  0  0
   -2.8197   -1.8689   -4.1857 H   0  0  0  0  0  0  0  0  0  0  0  0
   -2.0172   -1.0050   -2.3677 C   0  0  0  0  0  0  0  0  0  0  0  0
   -1.0039   -0.8810   -2.7780 H   0  0  0  0  0  0  0  0  0  0  0  0
   -1.4664   -0.1049    1.6943 C   0  0  0  0  0  0  0  0  0  0  0  0
   -1.5693   -1.4363    2.1521 C   0  0  0  0  0  0  0  0  0  0  0  0
   -1.3157   -2.2660    1.4707 H   0  0  0  0  0  0  0  0  0  0  0  0
   -1.9629   -1.6834    3.4740 C   0  0  0  0  0  0  0  0  0  0  0  0
   -2.0463   -2.7212    3.8310 H   0  0  0  0  0  0  0  0  0  0  0  0
   -2.2393   -0.6132    4.3431 C   0  0  0  0  0  0  0  0  0  0  0  0
   -2.5445   -0.8121    5.3818 H   0  0  0  0  0  0  0  0  0  0  0  0
   -2.1211    0.7089    3.8880 C   0  0  0  0  0  0  0  0  0  0  0  0
   -2.3305    1.5488    4.5677 H   0  0  0  0  0  0  0  0  0  0  0  0
   -1.7377    0.9682    2.5618 C   0  0  0  0  0  0  0  0  0  0  0  0
   -1.6493    2.0043    2.2027 H   0  0  0  0  0  0  0  0  0  0  0  0
  1 35  1  0  0  0  0
  3  7  1  0  0  0  0
  3 13  1  0  0  0  0
  4  5  1  0  0  0  0
  6  4  1  0  0  0  0
  7  8  1  0  0  0  0
  9  7  1  0  0  0  0
 10 12  1  0  0  0  0
 10  4  1  0  0  0  0
 10  7  1  0  0  0  0
 11 10  1  0  0  0  0
 13  2  2  0  0  0  0
 14 15  1  0  0  0  0
 14  1  1  0  0  0  0
 15 13  1  0  0  0  0
 16 17  1  0  0  0  0
 16 15  2  0  0  0  0
 18 16  1  0  0  0  0
 19 18  1  0  0  0  0
 20 18  2  0  0  0  0
 20 22  1  0  0  0  0
 21 20  1  0  0  0  0
 22 14  2  0  0  0  0
 23 22  1  0  0  0  0
 24 25  1  0  0  0  0
 24  1  1  0  0  0  0
 25 26  1  0  0  0  0
 27 28  1  0  0  0  0
 27 25  2  0  0  0  0
 29 27  1  0  0  0  0
 30 29  1  0  0  0  0
 31 29  2  0  0  0  0
 31 33  1  0  0  0  0
 32 31  1  0  0  0  0
 33 24  2  0  0  0  0
 34 33  1  0  0  0  0
 35 36  2  0  0  0  0
 35 44  1  0  0  0  0
 36 38  1  0  0  0  0
 37 36  1  0  0  0  0
 38 39  1  0  0  0  0
 38 40  2  0  0  0  0
 40 41  1  0  0  0  0
 42 40  1  0  0  0  0
 42 43  1  0  0  0  0
 44 42  2  0  0  0  0
 45 44  1  0  0  0  0
M  END
