1,2,3
q = -1.0, confidence = 0.004

 61 65  0  0  1  0  0  0  0  0999 V2000
    0.9040   -0.7306    0.3352 P   0  0  0  0  0  0  0  0  0  0  0  0
   -0.9486    1.2776   -0.2869 N   0  0  0  0  0  2  0  0  0  0  0  0
   -2.4221   -0.9806   -0.2212 N   0  0  0  0  0  2  0  0  0  0  0  0
    2.0172    0.7515    0.0621 C   0  0  1  0  0  0  0  0  0  0  0  0
    2.6042    0.4039   -0.8162 H   0  0  0  0  0  0  0  0  0  0  0  0
    1.3457    2.0825   -0.2355 C   0  0  2  0  0  3  0  0  0  0  0  0
    3.5713    2.8747   -0.4521 O   0  0  0  0  0  0  0  0  0  0  0  0
    1.8842    4.3160   -0.9204 O   0  0  0  0  0  0  0  0  0  0  0  0
    2.8723    1.4828    2.2448 O   0  0  0  0  0  0  0  0  0  0  0  0
    4.1400    0.1508    0.9186 O   0  0  0  0  0  0  0  0  0  0  0  0
    3.0388    0.8821    1.1989 C   0  0  0  0  0  0  0  0  0  0  0  0
    2.3592    3.0939   -0.5179 C   0  0  0  0  0  0  0  0  0  0  0  0
    5.1563    0.1648    1.9237 C   0  0  0  0  0  0  0  0  0  0  0  0
    5.5608    1.1894    2.0482 H   0  0  0  0  0  0  0  0  0  0  0  0
    5.9452   -0.5224    1.5698 H   0  0  0  0  0  0  0  0  0  0  0  0
    4.7536   -0.1764    2.8990 H   0  0  0  0  0  0  0  0  0  0  0  0
    2.8934    5.2788   -1.2242 C   0  0  0  0  0  0  0  0  0  0  0  0
    3.5482    5.4677   -0.3487 H   0  0  0  0  0  0  0  0  0  0  0  0
    2.3583    6.2024   -1.5117 H   0  0  0  0  0  0  0  0  0  0  0  0
    3.5354    4.9325   -2.0597 H   0  0  0  0  0  0  0  0  0  0  0  0
   -0.0412    2.3196   -0.1264 C   0  0  0  0  0  0  0  0  0  0  0  0
   -0.5936    3.5955    0.2859 C   0  0  0  0  0  0  0  0  0  0  0  0
    0.0632    4.4708    0.2387 H   0  0  0  0  0  0  0  0  0  0  0  0
   -1.8499    3.6799    0.8329 C   0  0  0  0  0  0  0  0  0  0  0  0
   -2.2242    4.6404    1.2195 H   0  0  0  0  0  0  0  0  0  0  0  0
   -2.6558    2.5008    0.9788 C   0  0  0  0  0  0  0  0  0  0  0  0
   -2.1538    1.3267    0.3583 C   0  0  0  0  0  0  0  0  0  0  0  0
   -2.9201    0.1176    0.4337 C   0  0  0  0  0  0  0  0  0  0  0  0
   -3.0674   -2.1509   -0.1210 C   0  0  0  0  0  0  0  0  0  0  0  0
   -2.6317   -3.0001   -0.6670 H   0  0  0  0  0  0  0  0  0  0  0  0
   -4.2532   -2.2931    0.6314 C   0  0  0  0  0  0  0  0  0  0  0  0
   -4.7400   -3.2771    0.6813 H   0  0  0  0  0  0  0  0  0  0  0  0
   -4.7913   -1.1868    1.2787 C   0  0  0  0  0  0  0  0  0  0  0  0
   -5.7244   -1.2698    1.8570 H   0  0  0  0  0  0  0  0  0  0  0  0
   -4.1341    0.0691    1.1953 C   0  0  0  0  0  0  0  0  0  0  0  0
   -4.6047    1.2645    1.8188 C   0  0  0  0  0  0  0  0  0  0  0  0
   -5.5421    1.2316    2.3929 H   0  0  0  0  0  0  0  0  0  0  0  0
   -3.8886    2.4437    1.6925 C   0  0  0  0  0  0  0  0  0  0  0  0
   -4.2603    3.3676    2.1624 H   0  0  0  0  0  0  0  0  0  0  0  0
    0.0533   -0.6358    1.9545 C   0  0  0  0  0  0  0  0  0  0  0  0
   -0.7051   -1.7645    2.3390 C   0  0  0  0  0  0  0  0  0  0  0  0
   -0.6460   -2.6920    1.7480 H   0  0  0  0  0  0  0  0  0  0  0  0
   -1.5462   -1.7041    3.4575 C   0  0  0  0  0  0  0  0  0  0  0  0
   -2.1372   -2.5870    3.7443 H   0  0  0  0  0  0  0  0  0  0  0  0
   -1.6448   -0.5138    4.1978 C   0  0  0  0  0  0  0  0  0  0  0  0
   -2.3164   -0.4601    5.0681 H   0  0  0  0  0  0  0  0  0  0  0  0
   -0.8824    0.6036    3.8268 C   0  0  0  0  0  0  0  0  0  0  0  0
   -0.9484    1.5355    4.4080 H   0  0  0  0  0  0  0  0  0  0  0  0
   -0.0311    0.5497    2.7116 C   0  0  0  0  0  0  0  0  0  0  0  0
    0.5826    1.4204    2.4419 H   0  0  0  0  0  0  0  0  0  0  0  0
    2.0919   -2.1169    0.4938 C   0  0  0  0  0  0  0  0  0  0  0  0
    2.5629   -2.5509    1.7492 C   0  0  0  0  0  0  0  0  0  0  0  0
    2.1831   -2.0812    2.6691 H   0  0  0  0  0  0  0  0  0  0  0  0
    3.5196   -3.5736    1.8213 C   0  0  0  0  0  0  0  0  0  0  0  0
    3.8848   -3.9105    2.8035 H   0  0  0  0  0  0  0  0  0  0  0  0
    4.0135   -4.1623    0.6456 C   0  0  0  0  0  0  0  0  0  0  0  0
    4.7644   -4.9648    0.7054 H   0  0  0  0  0  0  0  0  0  0  0  0
    3.5457   -3.7306   -0.6058 C   0  0  0  0  0  0  0  0  0  0  0  0
    3.9272   -4.1920   -1.5290 H   0  0  0  0  0  0  0  0  0  0  0  0
    2.5838   -2.7134   -0.6837 C   0  0  0  0  0  0  0  0  0  0  0  0
    2.2126   -2.3764   -1.6638 H   0  0  0  0  0  0  0  0  0  0  0  0
  1 51  1  0  0  0  0
  1 40  1  0  0  0  0
  2 21  1  0  0  0  0
  2 27  1  0  0  0  0
  3 29  1  0  0  0  0
  3 28  1  0  0  0  0
  4  5  1  6  0  0  0
  4  1  1  0  0  0  0
  4 11  1  0  0  0  0
  6 12  1  1  0  0  0
  6 21  1  0  0  0  0
  6  4  1  0  0  0  0
  8 12  1  0  0  0  0
 10 11  1  0  0  0  0
 10 13  1  0  0  0  0
 11  9  2  0  0  0  0
 12  7  2  0  0  0  0
 13 14  1  0  0  0  0
 13 16  1  0  0  0  0
 15 13  1  0  0  0  0
 17  8  1  0  0  0  0
 17 18  1  0  0  0  0
 19 17  1  0  0  0  0
 20 17  1  0  0  0  0
 21 22  2  0  0  0  0
 22 24  1  0  0  0  0
 23 22  1  0  0  0  0
 24 26  2  0  0  0  0
 24 25  1  0  0  0  0
 26 38  1  0  0  0  0
 27 28  2  0  0  0  0
 27 26  1  0  0  0  0
 28 35  1  0  0  0  0
 29 31  2  0  0  0  0
 30 29  1  0  0  0  0
 31 32  1  0  0  0  0
 31 33  1  0  0  0  0
 33 34  1  0  0  0  0
 35 33  2  0  0  0  0
 35 36  1  0  0  0  0
 36 37  1  0  0  0  0
 38 36  2  0  0  0  0
 38 39  1  0  0  0  0
 40 41  2  0  0  0  0
 40 49  1  0  0  0  0
 41 43  1  0  0  0  0
 42 41  1  0  0  0  0
 43 44  1  0  0  0  0
 43 45  2  0  0  0  0
 45 46  1  0  0  0  0
 47 45  1  0  0  0  0
 47 48  1  0  0  0  0
 49 47  2  0  0  0  0
 50 49  1  0  0  0  0
 51 52  1  0  0  0  0
 52 54  2  0  0  0  0
 52 53  1  0  0  0  0
 54 55  1  0  0  0  0
 56 57  1  0  0  0  0
 56 54  1  0  0  0  0
 58 56  2  0  0  0  0
 59 58  1  0  0  0  0
 60 58  1  0  0  0  0
 60 51  2  0  0  0  0
 61 60  1  0  0  0  0
M  END
