1,2,3
q = 0.0, confidence = 1.0

 48 51  0  0  1  0  0  0  0  0999 V2000
    1.4506   -0.1596    0.4366 P   0  0  0  0  0  0  0  0  0  0  0  0
   -2.6242    0.7075   -0.9191 N   0  0  0  0  0  2  0  0  0  0  0  0
   -1.7617   -1.0577    0.8816 N   0  0  0  0  0  2  0  0  0  0  0  0
   -2.9964    1.5354   -1.9211 C   0  0  0  0  0  3  0  0  0  0  0  0
   -4.3300    1.8628   -2.1701 C   0  0  0  0  0  0  0  0  0  0  0  0
   -5.3293    1.3113   -1.3525 C   0  0  0  0  0  0  0  0  0  0  0  0
   -4.9479    0.4405   -0.3293 C   0  0  0  0  0  0  0  0  0  0  0  0
   -3.5861    0.1443   -0.1301 C   0  0  0  0  0  0  0  0  0  0  0  0
   -3.1031   -0.8128    0.8816 C   0  0  1  0  0  3  0  0  0  0  0  0
   -3.9691   -1.4787    1.7680 C   0  0  0  0  0  0  0  0  0  0  0  0
   -3.4447   -2.4198    2.6548 C   0  0  0  0  0  0  0  0  0  0  0  0
   -2.0738   -2.6920    2.6126 C   0  0  0  0  0  0  0  0  0  0  0  0
   -1.2488   -2.0010    1.7053 C   0  0  0  0  0  0  0  0  0  0  0  0
    0.2174   -2.3393    1.6184 C   0  0  0  0  0  0  0  0  0  0  0  0
    1.1786   -1.1771    1.9502 C   0  0  0  0  0  0  0  0  0  0  0  0
    2.5332   -1.1938   -0.6399 C   0  0  0  0  0  0  0  0  0  0  0  0
    3.1319   -2.3953   -0.2157 C   0  0  0  0  0  0  0  0  0  0  0  0
    3.9746   -3.1138   -1.0804 C   0  0  0  0  0  0  0  0  0  0  0  0
    4.2305   -2.6343   -2.3725 C   0  0  0  0  0  0  0  0  0  0  0  0
    3.6374   -1.4347   -2.8004 C   0  0  0  0  0  0  0  0  0  0  0  0
    2.7881   -0.7229   -1.9450 C   0  0  0  0  0  0  0  0  0  0  0  0
    2.6222    1.1691    0.9513 C   0  0  0  0  0  0  0  0  0  0  0  0
    3.9691    0.8364    1.2154 C   0  0  0  0  0  0  0  0  0  0  0  0
    4.8769    1.8277    1.6124 C   0  0  0  0  0  0  0  0  0  0  0  0
    4.4519    3.1606    1.7383 C   0  0  0  0  0  0  0  0  0  0  0  0
    3.1160    3.4948    1.4706 C   0  0  0  0  0  0  0  0  0  0  0  0
    2.1989    2.5064    1.0798 C   0  0  0  0  0  0  0  0  0  0  0  0
   -2.1847    1.9488   -2.5346 H   0  0  0  0  0  0  0  0  0  0  0  0
   -4.5734    2.5438   -2.9974 H   0  0  0  0  0  0  0  0  0  0  0  0
   -6.3901    1.5503   -1.5149 H   0  0  0  0  0  0  0  0  0  0  0  0
   -5.7100   -0.0179    0.3138 H   0  0  0  0  0  0  0  0  0  0  0  0
   -5.0439   -1.2590    1.7642 H   0  0  0  0  0  0  0  0  0  0  0  0
   -4.1007   -2.9444    3.3649 H   0  0  0  0  0  0  0  0  0  0  0  0
   -1.6252   -3.4436    3.2773 H   0  0  0  0  0  0  0  0  0  0  0  0
    0.4049   -2.7044    0.5829 H   0  0  0  0  0  0  0  0  0  0  0  0
    0.4121   -3.1885    2.3018 H   0  0  0  0  0  0  0  0  0  0  0  0
    0.7463   -0.4851    2.7014 H   0  0  0  0  0  0  0  0  0  0  0  0
    2.1433   -1.5496    2.3492 H   0  0  0  0  0  0  0  0  0  0  0  0
    2.9503   -2.7877    0.7955 H   0  0  0  0  0  0  0  0  0  0  0  0
    4.4331   -4.0539   -0.7374 H   0  0  0  0  0  0  0  0  0  0  0  0
    4.8903   -3.1973   -3.0499 H   0  0  0  0  0  0  0  0  0  0  0  0
    3.8280   -1.0553   -3.8156 H   0  0  0  0  0  0  0  0  0  0  0  0
    2.3184    0.2079   -2.2942 H   0  0  0  0  0  0  0  0  0  0  0  0
    4.3163   -0.2008    1.0903 H   0  0  0  0  0  0  0  0  0  0  0  0
    5.9250    1.5587    1.8141 H   0  0  0  0  0  0  0  0  0  0  0  0
    5.1670    3.9405    2.0424 H   0  0  0  0  0  0  0  0  0  0  0  0
    2.7771    4.5375    1.5673 H   0  0  0  0  0  0  0  0  0  0  0  0
    1.1418    2.7596    0.9076 H   0  0  0  0  0  0  0  0  0  0  0  0
  1 22  1  0  0  0  0
  1 15  1  0  0  0  0
  2  8  1  0  0  0  0
  3  9  1  0  0  0  0
  3 13  1  0  0  0  0
  4  2  1  0  0  0  0
  5  4  1  0  0  0  0
  5  6  2  0  0  0  0
  6  7  1  0  0  0  0
  7  8  2  0  0  0  0
  7 31  1  0  0  0  0
  9  8  1  6  0  0  0
  9 10  1  0  0  0  0
 10 11  2  0  0  0  0
 11 33  1  0  0  0  0
 12 11  1  0  0  0  0
 12 34  1  0  0  0  0
 13 12  2  0  0  0  0
 14 13  1  0  0  0  0
 14 15  1  0  0  0  0
 14 36  1  0  0  0  0
 15 38  1  0  0  0  0
 15 37  1  0  0  0  0
 16 17  1  0  0  0  0
 16  1  1  0  0  0  0
 17 39  1  0  0  0  0
 18 40  1  0  0  0  0
 18 17  2  0  0  0  0
 19 18  1  0  0  0  0
 20 19  2  0  0  0  0
 20 21  1  0  0  0  0
 21 16  2  0  0  0  0
 22 27  2  0  0  0  0
 22 23  1  0  0  0  0
 23 24  2  0  0  0  0
 24 25  1  0  0  0  0
 24 45  1  0  0  0  0
 25 46  1  0  0  0  0
 26 47  1  0  0  0  0
 26 25  2  0  0  0  0
 27 26  1  0  0  0  0
 28  4  1  0  0  0  0
 29  5  1  0  0  0  0
 30  6  1  0  0  0  0
 32 10  1  0  0  0  0
 35 14  1  0  0  0  0
 41 19  1  0  0  0  0
 42 20  1  0  0  0  0
 43 21  1  0  0  0  0
 44 23  1  0  0  0  0
 48 27  1  0  0  0  0
M  END
