1,2,3
q = 0.0, confidence = 1.0

 49 50  0  0  1  0  0  0  0  0999 V2000
   -1.9675   -0.3195    0.3297 P   0  0  0  0  0  0  0  0  0  0  0  0
   -0.0105    1.7267   -0.3076 N   0  0  0  0  0  2  0  0  0  0  0  0
    1.9945    0.2226   -1.4220 N   0  0  0  0  0  0  0  0  0  0  0  0
    2.1985   -0.2022   -2.3346 H   0  0  0  0  0  0  0  0  0  0  0  0
    2.0853    1.6999   -1.5413 C   0  0  0  0  0  0  0  0  0  0  0  0
    1.8129    1.9601   -2.5863 H   0  0  0  0  0  0  0  0  0  0  0  0
    3.1251    2.0503   -1.3707 H   0  0  0  0  0  0  0  0  0  0  0  0
    1.1178    2.4154   -0.6280 C   0  0  1  0  0  3  0  0  0  0  0  0
    1.3131    3.7283   -0.1846 C   0  0  0  0  0  0  0  0  0  0  0  0
    2.2375    4.2647   -0.4418 H   0  0  0  0  0  0  0  0  0  0  0  0
    0.3130    4.3360    0.5886 C   0  0  0  0  0  0  0  0  0  0  0  0
    0.4446    5.3647    0.9551 H   0  0  0  0  0  0  0  0  0  0  0  0
   -0.8592    3.6272    0.8831 C   0  0  0  0  0  0  0  0  0  0  0  0
   -1.6650    4.0900    1.4698 H   0  0  0  0  0  0  0  0  0  0  0  0
   -1.0083    2.3122    0.4144 C   0  0  0  0  0  0  0  0  0  0  0  0
   -2.2650    1.5089    0.6142 C   0  0  0  0  0  0  0  0  0  0  0  0
   -3.0086    1.8295   -0.1489 H   0  0  0  0  0  0  0  0  0  0  0  0
   -2.7261    1.7032    1.6035 H   0  0  0  0  0  0  0  0  0  0  0  0
    2.8346   -0.4038   -0.4161 C   0  0  0  0  0  0  0  0  0  0  0  0
    3.0668    0.2120    0.8271 C   0  0  0  0  0  0  0  0  0  0  0  0
    2.6283    1.1918    1.0630 H   0  0  0  0  0  0  0  0  0  0  0  0
    3.8593   -0.4408    1.7843 C   0  0  0  0  0  0  0  0  0  0  0  0
    4.0400    0.0451    2.7546 H   0  0  0  0  0  0  0  0  0  0  0  0
    4.4169   -1.6986    1.5121 C   0  0  0  0  0  0  0  0  0  0  0  0
    5.0359   -2.2048    2.2667 H   0  0  0  0  0  0  0  0  0  0  0  0
    4.1850   -2.3047    0.2665 C   0  0  0  0  0  0  0  0  0  0  0  0
    4.6240   -3.2868    0.0378 H   0  0  0  0  0  0  0  0  0  0  0  0
    3.3995   -1.6609   -0.6979 C   0  0  0  0  0  0  0  0  0  0  0  0
    3.2166   -2.1411   -1.6725 H   0  0  0  0  0  0  0  0  0  0  0  0
   -1.8210   -1.0446    2.0427 C   0  0  0  0  0  0  0  0  0  0  0  0
   -2.7478   -0.7327    2.5744 H   0  0  0  0  0  0  0  0  0  0  0  0
   -1.7580   -2.5748    1.9836 C   0  0  0  0  0  0  0  0  0  0  0  0
   -0.8718   -2.9169    1.4114 H   0  0  0  0  0  0  0  0  0  0  0  0
   -2.6610   -3.0239    1.5252 H   0  0  0  0  0  0  0  0  0  0  0  0
   -1.6711   -2.9850    3.0100 H   0  0  0  0  0  0  0  0  0  0  0  0
   -0.6013   -0.4425    2.7522 C   0  0  0  0  0  0  0  0  0  0  0  0
   -0.5299   -0.8429    3.7836 H   0  0  0  0  0  0  0  0  0  0  0  0
   -0.6549    0.6625    2.8300 H   0  0  0  0  0  0  0  0  0  0  0  0
    0.3349   -0.7019    2.2148 H   0  0  0  0  0  0  0  0  0  0  0  0
   -3.5315   -0.9790   -0.4338 C   0  0  0  0  0  0  0  0  0  0  0  0
   -3.3192   -2.0686   -0.5133 H   0  0  0  0  0  0  0  0  0  0  0  0
   -4.7686   -0.7671    0.4461 C   0  0  0  0  0  0  0  0  0  0  0  0
   -4.9846    0.3106    0.5991 H   0  0  0  0  0  0  0  0  0  0  0  0
   -4.6740   -1.2456    1.4404 H   0  0  0  0  0  0  0  0  0  0  0  0
   -5.6585   -1.2078   -0.0474 H   0  0  0  0  0  0  0  0  0  0  0  0
   -3.7000   -0.4213   -1.8525 C   0  0  0  0  0  0  0  0  0  0  0  0
   -4.5475   -0.9262   -2.3578 H   0  0  0  0  0  0  0  0  0  0  0  0
   -2.7878   -0.5742   -2.4632 H   0  0  0  0  0  0  0  0  0  0  0  0
   -3.9283    0.6650   -1.8441 H   0  0  0  0  0  0  0  0  0  0  0  0
  1 16  1  0  0  0  0
  1 30  1  0  0  0  0
  2 15  1  0  0  0  0
  3 19  1  0  0  0  0
  4  3  1  0  0  0  0
  5  3  1  0  0  0  0
  5  7  1  0  0  0  0
  6  5  1  0  0  0  0
  8  5  1  6  0  0  0
  8  2  1  0  0  0  0
  8  9  1  0  0  0  0
  9 11  2  0  0  0  0
 10  9  1  0  0  0  0
 11 13  1  0  0  0  0
 11 12  1  0  0  0  0
 13 14  1  0  0  0  0
 15 16  1  0  0  0  0
 15 13  2  0  0  0  0
 16 18  1  0  0  0  0
 17 16  1  0  0  0  0
 19 20  1  0  0  0  0
 20 21  1  0  0  0  0
 20 22  2  0  0  0  0
 22 23  1  0  0  0  0
 24 22  1  0  0  0  0
 24 25  1  0  0  0  0
 26 24  2  0  0  0  0
 27 26  1  0  0  0  0
 28 19  2  0  0  0  0
 28 26  1  0  0  0  0
 29 28  1  0  0  0  0
 30 31  1  0  0  0  0
 30 36  1  0  0  0  0
 32 30  1  0  0  0  0
 32 35  1  0  0  0  0
 33 32  1  0  0  0  0
 34 32  1  0  0  0  0
 36 38  1  0  0  0  0
 36 37  1  0  0  0  0
 39 36  1  0  0  0  0
 40  1  1  0  0  0  0
 40 42  1  0  0  0  0
 41 40  1  0  0  0  0
 42 43  1  0  0  0  0
 42 44  1  0  0  0  0
 45 42  1  0  0  0  0
 46 49  1  0  0  0  0
 46 40  1  0  0  0  0
 47 46  1  0  0  0  0
 48 46  1  0  0  0  0
M  END
