1,2,3
q = 0.0, confidence = 1.0

 51 54  0  0  1  0  0  0  0  0999 V2000
   -1.4317    0.1111   -0.3059 P   0  0  0  0  0  0  0  0  0  0  0  0
    0.8633   -1.6037   -0.6269 N   0  0  0  0  0  2  0  0  0  0  0  0
    2.5685   -0.6899    1.2786 N   0  0  0  0  0  0  0  0  0  0  0  0
    2.6479   -0.6302    2.3007 H   0  0  0  0  0  0  0  0  0  0  0  0
    2.7072   -2.1120    0.8687 C   0  0  0  0  0  0  0  0  0  0  0  0
    2.2996   -2.7295    1.6967 H   0  0  0  0  0  0  0  0  0  0  0  0
    3.7752   -2.3892    0.7397 H   0  0  0  0  0  0  0  0  0  0  0  0
    1.9167   -2.4243   -0.3809 C   0  0  1  0  0  3  0  0  0  0  0  0
    2.1915   -3.5117   -1.2182 C   0  0  0  0  0  0  0  0  0  0  0  0
    3.0522   -4.1636   -1.0120 H   0  0  0  0  0  0  0  0  0  0  0  0
    1.3435   -3.7530   -2.3094 C   0  0  0  0  0  0  0  0  0  0  0  0
    1.5299   -4.6083   -2.9755 H   0  0  0  0  0  0  0  0  0  0  0  0
    0.2634   -2.8934   -2.5534 C   0  0  0  0  0  0  0  0  0  0  0  0
   -0.4049   -3.0564   -3.4104 H   0  0  0  0  0  0  0  0  0  0  0  0
    0.0478   -1.7997   -1.7009 C   0  0  0  0  0  0  0  0  0  0  0  0
   -1.0245   -0.7688   -1.9193 C   0  0  0  0  0  0  0  0  0  0  0  0
   -1.9256   -1.1978   -2.3998 H   0  0  0  0  0  0  0  0  0  0  0  0
   -0.6399    0.0224   -2.5994 H   0  0  0  0  0  0  0  0  0  0  0  0
   -2.0515    1.7534   -0.8096 C   0  0  0  0  0  0  0  0  0  0  0  0
   -3.3787    2.1691   -0.5859 C   0  0  0  0  0  0  0  0  0  0  0  0
   -4.1012    1.4923   -0.1073 H   0  0  0  0  0  0  0  0  0  0  0  0
   -3.7762    3.4600   -0.9687 C   0  0  0  0  0  0  0  0  0  0  0  0
   -4.8124    3.7839   -0.7910 H   0  0  0  0  0  0  0  0  0  0  0  0
   -2.8584    4.3339   -1.5704 C   0  0  0  0  0  0  0  0  0  0  0  0
   -3.1756    5.3445   -1.8681 H   0  0  0  0  0  0  0  0  0  0  0  0
   -1.5301    3.9251   -1.7812 C   0  0  0  0  0  0  0  0  0  0  0  0
   -0.8053    4.6149   -2.2384 H   0  0  0  0  0  0  0  0  0  0  0  0
   -1.1223    2.6427   -1.3938 C   0  0  0  0  0  0  0  0  0  0  0  0
   -0.0713    2.3347   -1.5236 H   0  0  0  0  0  0  0  0  0  0  0  0
   -2.8338   -0.8127    0.4124 C   0  0  0  0  0  0  0  0  0  0  0  0
   -2.7809   -1.1899    1.7697 C   0  0  0  0  0  0  0  0  0  0  0  0
   -1.8916   -0.9327    2.3660 H   0  0  0  0  0  0  0  0  0  0  0  0
   -3.8504   -1.8935    2.3439 C   0  0  0  0  0  0  0  0  0  0  0  0
   -3.8064   -2.1845    3.4038 H   0  0  0  0  0  0  0  0  0  0  0  0
   -4.9709   -2.2266    1.5674 C   0  0  0  0  0  0  0  0  0  0  0  0
   -5.8080   -2.7801    2.0186 H   0  0  0  0  0  0  0  0  0  0  0  0
   -5.0263   -1.8555    0.2131 C   0  0  0  0  0  0  0  0  0  0  0  0
   -5.9052   -2.1158   -0.3953 H   0  0  0  0  0  0  0  0  0  0  0  0
   -3.9631   -1.1497   -0.3664 C   0  0  0  0  0  0  0  0  0  0  0  0
   -4.0244   -0.8525   -1.4253 H   0  0  0  0  0  0  0  0  0  0  0  0
    3.4931    0.2616    0.6875 C   0  0  0  0  0  0  0  0  0  0  0  0
    3.9849    0.0953   -0.6188 C   0  0  0  0  0  0  0  0  0  0  0  0
    3.6913   -0.7701   -1.2291 H   0  0  0  0  0  0  0  0  0  0  0  0
    4.8581    1.0550   -1.1556 C   0  0  0  0  0  0  0  0  0  0  0  0
    5.2425    0.9198   -2.1774 H   0  0  0  0  0  0  0  0  0  0  0  0
    5.2411    2.1733   -0.4018 C   0  0  0  0  0  0  0  0  0  0  0  0
    5.9259    2.9203   -0.8283 H   0  0  0  0  0  0  0  0  0  0  0  0
    4.7483    2.3306    0.9042 C   0  0  0  0  0  0  0  0  0  0  0  0
    5.0465    3.2000    1.5083 H   0  0  0  0  0  0  0  0  0  0  0  0
    3.8783    1.3795    1.4504 C   0  0  0  0  0  0  0  0  0  0  0  0
    3.4888    1.5089    2.4729 H   0  0  0  0  0  0  0  0  0  0  0  0
  1 30  1  0  0  0  0
  2  8  1  0  0  0  0
  3  4  1  0  0  0  0
  5  3  1  0  0  0  0
  5  6  1  0  0  0  0
  7  5  1  0  0  0  0
  8  5  1  1  0  0  0
  9 10  1  0  0  0  0
  9  8  1  0  0  0  0
 11  9  2  0  0  0  0
 12 11  1  0  0  0  0
 13 11  1  0  0  0  0
 13 15  2  0  0  0  0
 14 13  1  0  0  0  0
 15  2  1  0  0  0  0
 16 15  1  0  0  0  0
 16  1  1  0  0  0  0
 17 16  1  0  0  0  0
 18 16  1  0  0  0  0
 19 20  1  0  0  0  0
 19  1  1  0  0  0  0
 20 21  1  0  0  0  0
 22 23  1  0  0  0  0
 22 20  2  0  0  0  0
 24 22  1  0  0  0  0
 25 24  1  0  0  0  0
 26 24  2  0  0  0  0
 26 28  1  0  0  0  0
 27 26  1  0  0  0  0
 28 19  2  0  0  0  0
 29 28  1  0  0  0  0
 30 31  1  0  0  0  0
 31 33  2  0  0  0  0
 31 32  1  0  0  0  0
 33 34  1  0  0  0  0
 35 36  1  0  0  0  0
 35 33  1  0  0  0  0
 37 35  2  0  0  0  0
 38 37  1  0  0  0  0
 39 37  1  0  0  0  0
 39 30  2  0  0  0  0
 40 39  1  0  0  0  0
 41  3  1  0  0  0  0
 41 50  1  0  0  0  0
 42 41  2  0  0  0  0
 43 42  1  0  0  0  0
 44 42  1  0  0  0  0
 44 46  2  0  0  0  0
 45 44  1  0  0  0  0
 46 48  1  0  0  0  0
 47 46  1  0  0  0  0
 48 50  2  0  0  0  0
 48 49  1  0  0  0  0
 50 51  1  0  0  0  0
M  END
