1,3,4
q = 0.0, confidence = 1.0

 50 52  0  0  0  0  0  0  0  0999 V2000
    1.9518    0.2808   -0.1121 P   0  0  0  0  0  0  0  0  0  0  0  0
    1.3310    1.9505   -0.2171 N   0  0  0  0  0  0  0  0  0  0  0  0
   -0.7912    1.0675   -0.1578 N   0  0  0  0  0  2  0  0  0  0  0  0
   -2.0919   -1.2209   -0.3317 N   0  0  0  0  0  2  0  0  0  0  0  0
   -2.7318   -2.3975   -0.3902 C   0  0  0  0  0  0  0  0  0  0  0  0
   -2.0979   -3.2927   -0.4596 H   0  0  0  0  0  0  0  0  0  0  0  0
   -4.1401   -2.4940   -0.3603 C   0  0  0  0  0  0  0  0  0  0  0  0
   -4.6038   -3.4894   -0.4112 H   0  0  0  0  0  0  0  0  0  0  0  0
   -4.9192   -1.3439   -0.2672 C   0  0  0  0  0  0  0  0  0  0  0  0
   -6.0180   -1.4016   -0.2461 H   0  0  0  0  0  0  0  0  0  0  0  0
   -4.2754   -0.0809   -0.1938 C   0  0  0  0  0  0  0  0  0  0  0  0
   -4.9591    1.1828   -0.0983 C   0  0  0  0  0  0  0  0  0  0  0  0
   -6.0592    1.1795   -0.0747 H   0  0  0  0  0  0  0  0  0  0  0  0
   -4.2658    2.3748   -0.0433 C   0  0  0  0  0  0  0  0  0  0  0  0
   -4.8104    3.3293    0.0216 H   0  0  0  0  0  0  0  0  0  0  0  0
   -2.8304    2.4015   -0.0680 C   0  0  0  0  0  0  0  0  0  0  0  0
   -2.0134    3.5680   -0.0286 C   0  0  0  0  0  0  0  0  0  0  0  0
   -2.4860    4.5599    0.0345 H   0  0  0  0  0  0  0  0  0  0  0  0
   -0.6284    3.4625   -0.0717 C   0  0  0  0  0  0  0  0  0  0  0  0
    0.0053    4.3604   -0.0464 H   0  0  0  0  0  0  0  0  0  0  0  0
   -0.0185    2.1735   -0.1448 C   0  0  0  0  0  0  0  0  0  0  0  0
   -2.1437    1.1610   -0.1396 C   0  0  0  0  0  0  0  0  0  0  0  0
   -2.8517   -0.0801   -0.2191 C   0  0  0  0  0  0  0  0  0  0  0  0
    2.9398    0.3116    1.5400 C   0  0  0  0  0  0  0  0  0  0  0  0
    2.0766    1.0893    2.5525 C   0  0  0  0  0  0  0  0  0  0  0  0
    2.5336    0.9743    3.5585 H   0  0  0  0  0  0  0  0  0  0  0  0
    1.0457    0.6809    2.6043 H   0  0  0  0  0  0  0  0  0  0  0  0
    2.0430    2.1737    2.3238 H   0  0  0  0  0  0  0  0  0  0  0  0
    4.3332    0.9561    1.4928 C   0  0  0  0  0  0  0  0  0  0  0  0
    4.7555    0.9363    2.5202 H   0  0  0  0  0  0  0  0  0  0  0  0
    4.3021    2.0201    1.1816 H   0  0  0  0  0  0  0  0  0  0  0  0
    5.0453    0.4161    0.8400 H   0  0  0  0  0  0  0  0  0  0  0  0
    3.0462   -1.1612    1.9862 C   0  0  0  0  0  0  0  0  0  0  0  0
    3.5775   -1.7936    1.2476 H   0  0  0  0  0  0  0  0  0  0  0  0
    2.0361   -1.5820    2.1652 H   0  0  0  0  0  0  0  0  0  0  0  0
    3.6170   -1.2060    2.9382 H   0  0  0  0  0  0  0  0  0  0  0  0
    3.1531    0.2439   -1.6073 C   0  0  0  0  0  0  0  0  0  0  0  0
    4.0417    1.4972   -1.7090 C   0  0  0  0  0  0  0  0  0  0  0  0
    4.7288    1.6268   -0.8567 H   0  0  0  0  0  0  0  0  0  0  0  0
    3.4328    2.4177   -1.8214 H   0  0  0  0  0  0  0  0  0  0  0  0
    4.6641    1.4182   -2.6254 H   0  0  0  0  0  0  0  0  0  0  0  0
    4.0002   -1.0364   -1.4948 C   0  0  0  0  0  0  0  0  0  0  0  0
    4.5996   -1.1608   -2.4213 H   0  0  0  0  0  0  0  0  0  0  0  0
    3.3626   -1.9370   -1.3877 H   0  0  0  0  0  0  0  0  0  0  0  0
    4.7076   -1.0094   -0.6438 H   0  0  0  0  0  0  0  0  0  0  0  0
    2.3063    0.1733   -2.8902 C   0  0  0  0  0  0  0  0  0  0  0  0
    1.5981    1.0229   -2.9617 H   0  0  0  0  0  0  0  0  0  0  0  0
    1.7158   -0.7589   -2.9420 H   0  0  0  0  0  0  0  0  0  0  0  0
    2.9871    0.2161   -3.7668 H   0  0  0  0  0  0  0  0  0  0  0  0
    1.9482    2.7600   -0.1311 H   0  0  0  0  0  0  0  0  0  0  0  0
  1 24  1  0  0  0  0
  2 21  1  0  0  0  0
  2 50  1  0  0  0  0
  2  1  1  0  0  0  0
  3 21  1  0  0  0  0
  3 22  1  0  0  0  0
  4 23  1  0  0  0  0
  5  7  2  0  0  0  0
  5  4  1  0  0  0  0
  6  5  1  0  0  0  0
  7  9  1  0  0  0  0
  8  7  1  0  0  0  0
  9 10  1  0  0  0  0
  9 11  2  0  0  0  0
 11 12  1  0  0  0  0
 12 13  1  0  0  0  0
 12 14  2  0  0  0  0
 14 15  1  0  0  0  0
 16 14  1  0  0  0  0
 16 17  2  0  0  0  0
 17 18  1  0  0  0  0
 19 20  1  0  0  0  0
 19 17  1  0  0  0  0
 21 19  2  0  0  0  0
 22 16  1  0  0  0  0
 23 11  1  0  0  0  0
 23 22  2  0  0  0  0
 24 33  1  0  0  0  0
 24 25  1  0  0  0  0
 25 27  1  0  0  0  0
 25 26  1  0  0  0  0
 28 25  1  0  0  0  0
 29 24  1  0  0  0  0
 29 30  1  0  0  0  0
 31 29  1  0  0  0  0
 32 29  1  0  0  0  0
 33 35  1  0  0  0  0
 33 36  1  0  0  0  0
 34 33  1  0  0  0  0
 37 42  1  0  0  0  0
 37  1  1  0  0  0  0
 38 37  1  0  0  0  0
 38 39  1  0  0  0  0
 40 38  1  0  0  0  0
 41 38  1  0  0  0  0
 42 44  1  0  0  0  0
 42 45  1  0  0  0  0
 43 42  1  0  0  0  0
 46 37  1  0  0  0  0
 47 46  1  0  0  0  0
 48 46  1  0  0  0  0
 49 46  1  0  0  0  0
M  END
