1,2,3
q = -1.0, confidence = 0.008

 71 75  0  0  0  0  0  0  0  0999 V2000
    1.9930   -0.1227    0.1710 P   0  0  0  0  0  0  0  0  0  0  0  0
   -0.9302    0.1704    1.2271 N   0  0  0  0  0  2  0  0  0  0  0  0
   -1.5542    2.2768   -0.2954 N   0  0  0  0  0  2  0  0  0  0  0  0
    1.3553   -1.8328    0.4472 C   0  0  0  0  0  0  0  0  0  0  0  0
    2.1276   -2.9266    0.0155 C   0  0  0  0  0  0  0  0  0  0  0  0
    3.0603   -2.7364   -0.5365 H   0  0  0  0  0  0  0  0  0  0  0  0
    1.7280   -4.2502    0.2614 C   0  0  0  0  0  0  0  0  0  0  0  0
    2.3473   -5.0851   -0.0993 H   0  0  0  0  0  0  0  0  0  0  0  0
    0.5414   -4.4943    0.9679 C   0  0  0  0  0  0  0  0  0  0  0  0
    0.2142   -5.5248    1.1718 H   0  0  0  0  0  0  0  0  0  0  0  0
   -0.2363   -3.4183    1.4047 C   0  0  0  0  0  0  0  0  0  0  0  0
   -1.1806   -3.6074    1.9371 H   0  0  0  0  0  0  0  0  0  0  0  0
    0.1286   -2.0726    1.1410 C   0  0  0  0  0  0  0  0  0  0  0  0
   -0.8359   -1.0778    1.6026 C   0  0  0  0  0  3  0  0  0  0  0  0
   -1.6100   -1.4765    2.2831 H   0  0  0  0  0  0  0  0  0  0  0  0
   -1.9503    1.0200    1.7191 C   0  0  0  0  0  0  0  0  0  0  0  0
   -2.6270    0.7983    2.9345 C   0  0  0  0  0  0  0  0  0  0  0  0
   -2.3048   -0.0205    3.5943 H   0  0  0  0  0  0  0  0  0  0  0  0
   -3.6779    1.6356    3.3211 C   0  0  0  0  0  0  0  0  0  0  0  0
   -4.1856    1.4754    4.2836 H   0  0  0  0  0  0  0  0  0  0  0  0
   -4.0567    2.6987    2.4788 C   0  0  0  0  0  0  0  0  0  0  0  0
   -4.8811    3.3644    2.7780 H   0  0  0  0  0  0  0  0  0  0  0  0
   -3.3820    2.9534    1.2799 C   0  0  0  0  0  0  0  0  0  0  0  0
   -3.6652    3.7842    0.6248 H   0  0  0  0  0  0  0  0  0  0  0  0
   -2.2930    2.1364    0.8790 C   0  0  0  0  0  0  0  0  0  0  0  0
   -2.0929    2.8705   -1.4196 C   0  0  0  0  0  0  0  0  0  0  0  0
   -3.0595    3.6422   -1.4423 O   0  0  0  0  0  0  0  0  0  0  0  0
   -1.5649    2.3191   -2.7618 C   0  0  0  0  0  0  0  0  0  0  0  0
   -1.7465    3.0805   -3.5451 H   0  0  0  0  0  0  0  0  0  0  0  0
   -0.4977    2.0447   -2.7372 H   0  0  0  0  0  0  0  0  0  0  0  0
   -2.3259    1.1109   -3.0565 N   0  0  0  0  0  0  0  0  0  0  0  0
   -3.3453    1.1945   -3.0346 H   0  0  0  0  0  0  0  0  0  0  0  0
   -1.8338   -0.1416   -2.8395 C   0  0  0  0  0  0  0  0  0  0  0  0
   -0.6570   -0.4560   -2.7185 O   0  0  0  0  0  0  0  0  0  0  0  0
   -2.8788   -1.0379   -2.7958 O   0  0  0  0  0  0  0  0  0  0  0  0
   -2.5708   -2.3509   -2.3355 C   0  0  0  0  0  0  0  0  0  0  0  0
   -1.4654   -2.4721   -2.3183 H   0  0  0  0  0  0  0  0  0  0  0  0
   -2.9869   -3.0705   -3.0717 H   0  0  0  0  0  0  0  0  0  0  0  0
   -3.1575   -2.6102   -0.9631 C   0  0  0  0  0  0  0  0  0  0  0  0
   -3.6450   -1.5620   -0.1621 C   0  0  0  0  0  0  0  0  0  0  0  0
   -3.6029   -0.5298   -0.5377 H   0  0  0  0  0  0  0  0  0  0  0  0
   -4.1847   -1.8248    1.1078 C   0  0  0  0  0  0  0  0  0  0  0  0
   -4.5612   -0.9890    1.7167 H   0  0  0  0  0  0  0  0  0  0  0  0
   -4.2365   -3.1401    1.5950 C   0  0  0  0  0  0  0  0  0  0  0  0
   -4.6656   -3.3478    2.5872 H   0  0  0  0  0  0  0  0  0  0  0  0
   -3.7485   -4.1928    0.8012 C   0  0  0  0  0  0  0  0  0  0  0  0
   -3.7916   -5.2291    1.1710 H   0  0  0  0  0  0  0  0  0  0  0  0
   -3.2149   -3.9286   -0.4683 C   0  0  0  0  0  0  0  0  0  0  0  0
   -2.8393   -4.7592   -1.0878 H   0  0  0  0  0  0  0  0  0  0  0  0
    3.1766   -0.3070   -1.2178 C   0  0  0  0  0  0  0  0  0  0  0  0
    2.6278   -0.5286   -2.5008 C   0  0  0  0  0  0  0  0  0  0  0  0
    1.5344   -0.5820   -2.6301 H   0  0  0  0  0  0  0  0  0  0  0  0
    3.4828   -0.6625   -3.6031 C   0  0  0  0  0  0  0  0  0  0  0  0
    3.0547   -0.8365   -4.6020 H   0  0  0  0  0  0  0  0  0  0  0  0
    4.8755   -0.5624   -3.4400 C   0  0  0  0  0  0  0  0  0  0  0  0
    5.5410   -0.6609   -4.3112 H   0  0  0  0  0  0  0  0  0  0  0  0
    5.4167   -0.3271   -2.1673 C   0  0  0  0  0  0  0  0  0  0  0  0
    6.5061   -0.2388   -2.0367 H   0  0  0  0  0  0  0  0  0  0  0  0
    4.5703   -0.2001   -1.0534 C   0  0  0  0  0  0  0  0  0  0  0  0
    4.9965   -0.0141   -0.0564 H   0  0  0  0  0  0  0  0  0  0  0  0
    3.0285    0.1974    1.6596 C   0  0  0  0  0  0  0  0  0  0  0  0
    3.0666    1.5124    2.1669 C   0  0  0  0  0  0  0  0  0  0  0  0
    2.4530    2.2890    1.6837 H   0  0  0  0  0  0  0  0  0  0  0  0
    3.8610    1.8121    3.2839 C   0  0  0  0  0  0  0  0  0  0  0  0
    3.8849    2.8402    3.6757 H   0  0  0  0  0  0  0  0  0  0  0  0
    4.6131    0.8024    3.9047 C   0  0  0  0  0  0  0  0  0  0  0  0
    5.2312    1.0376    4.7846 H   0  0  0  0  0  0  0  0  0  0  0  0
    4.5687   -0.5113    3.4091 C   0  0  0  0  0  0  0  0  0  0  0  0
    5.1497   -1.3067    3.9004 H   0  0  0  0  0  0  0  0  0  0  0  0
    3.7786   -0.8161    2.2910 C   0  0  0  0  0  0  0  0  0  0  0  0
    3.7381   -1.8490    1.9135 H   0  0  0  0  0  0  0  0  0  0  0  0
  1  4  1  0  0  0  0
  1 61  1  0  0  0  0
  2 14  1  0  0  0  0
  2 16  1  0  0  0  0
  3 25  1  0  0  0  0
  4 13  1  0  0  0  0
  5  7  1  0  0  0  0
  5  4  2  0  0  0  0
  6  5  1  0  0  0  0
  7  9  2  0  0  0  0
  8  7  1  0  0  0  0
  9 10  1  0  0  0  0
  9 11  1  0  0  0  0
 11 12  1  0  0  0  0
 13 11  2  0  0  0  0
 13 14  1  0  0  0  0
 14 15  1  0  0  0  0
 16 17  1  0  0  0  0
 17 19  2  0  0  0  0
 17 18  1  0  0  0  0
 19 20  1  0  0  0  0
 21 22  1  0  0  0  0
 21 19  1  0  0  0  0
 23 21  2  0  0  0  0
 24 23  1  0  0  0  0
 25 23  1  0  0  0  0
 25 16  2  0  0  0  0
 26  3  1  0  0  0  0
 27 26  2  0  0  0  0
 28 30  1  0  0  0  0
 28 26  1  0  0  0  0
 29 28  1  0  0  0  0
 31 32  1  0  0  0  0
 31 33  1  0  0  0  0
 31 28  1  0  0  0  0
 33 35  1  0  0  0  0
 33 34  2  0  0  0  0
 35 36  1  0  0  0  0
 36 37  1  0  0  0  0
 36 39  1  0  0  0  0
 38 36  1  0  0  0  0
 39 48  2  0  0  0  0
 39 40  1  0  0  0  0
 40 42  2  0  0  0  0
 41 40  1  0  0  0  0
 42 44  1  0  0  0  0
 42 43  1  0  0  0  0
 44 45  1  0  0  0  0
 46 47  1  0  0  0  0
 46 44  2  0  0  0  0
 48 46  1  0  0  0  0
 49 48  1  0  0  0  0
 50 59  1  0  0  0  0
 50  1  1  0  0  0  0
 51 50  2  0  0  0  0
 52 51  1  0  0  0  0
 53 55  2  0  0  0  0
 53 51  1  0  0  0  0
 54 53  1  0  0  0  0
 55 57  1  0  0  0  0
 56 55  1  0  0  0  0
 57 58  1  0  0  0  0
 57 59  2  0  0  0  0
 59 60  1  0  0  0  0
 61 62  2  0  0  0  0
 61 70  1  0  0  0  0
 62 64  1  0  0  0  0
 63 62  1  0  0  0  0
 64 65  1  0  0  0  0
 64 66  2  0  0  0  0
 66 67  1  0  0  0  0
 68 69  1  0  0  0  0
 68 66  1  0  0  0  0
 70 68  2  0  0  0  0
 71 70  1  0  0  0  0
M  END
