1,2,3
q = 0.0, confidence = 0.992

 52 55  0  0  0  0  0  0  0  0999 V2000
   -1.0105    0.1090   -0.0177 P   0  0  0  0  0  0  0  0  0  0  0  0
    3.1017    0.5421    0.2648 N   0  0  0  0  0  2  0  0  0  0  0  0
    1.2857   -1.5846    0.5415 N   0  0  0  0  0  2  0  0  0  0  0  0
    3.5869    1.6247    0.9124 C   0  0  0  0  0  3  0  0  0  0  0  0
    2.8415    2.3060    1.3469 H   0  0  0  0  0  0  0  0  0  0  0  0
    4.9580    1.8799    0.9933 C   0  0  0  0  0  0  0  0  0  0  0  0
    5.3157    2.7664    1.5352 H   0  0  0  0  0  0  0  0  0  0  0  0
    5.8474    0.9991    0.3612 C   0  0  0  0  0  0  0  0  0  0  0  0
    6.9322    1.1790    0.3939 H   0  0  0  0  0  0  0  0  0  0  0  0
    5.3341   -0.1133   -0.3190 C   0  0  0  0  0  0  0  0  0  0  0  0
    5.9994   -0.8216   -0.8333 H   0  0  0  0  0  0  0  0  0  0  0  0
    3.9464   -0.3203   -0.3482 C   0  0  0  0  0  0  0  0  0  0  0  0
    3.2885   -1.4982   -1.0092 C   0  0  0  0  0  0  0  0  0  0  0  0
    4.0550   -2.1646   -1.4493 H   0  0  0  0  0  0  0  0  0  0  0  0
    2.6426   -1.1522   -1.8459 H   0  0  0  0  0  0  0  0  0  0  0  0
    2.4605   -2.3115   -0.0146 C   0  0  0  0  0  0  0  0  0  0  0  0
    2.0887   -3.2248   -0.5218 H   0  0  0  0  0  0  0  0  0  0  0  0
    3.1065   -2.6331    0.8300 H   0  0  0  0  0  0  0  0  0  0  0  0
    0.4990   -2.3305    1.2714 C   0  0  0  0  0  3  0  0  0  0  0  0
    0.8234   -3.3734    1.4618 H   0  0  0  0  0  0  0  0  0  0  0  0
   -0.7803   -1.9731    1.8657 C   0  0  0  0  0  0  0  0  0  0  0  0
   -1.2656   -2.7930    2.9113 C   0  0  0  0  0  0  0  0  0  0  0  0
   -0.6600   -3.6490    3.2475 H   0  0  0  0  0  0  0  0  0  0  0  0
   -2.4907   -2.5176    3.5303 C   0  0  0  0  0  0  0  0  0  0  0  0
   -2.8449   -3.1537    4.3544 H   0  0  0  0  0  0  0  0  0  0  0  0
   -3.2635   -1.4326    3.0902 C   0  0  0  0  0  0  0  0  0  0  0  0
   -4.2303   -1.2119    3.5664 H   0  0  0  0  0  0  0  0  0  0  0  0
   -2.8136   -0.6290    2.0276 C   0  0  0  0  0  0  0  0  0  0  0  0
   -3.4345    0.2059    1.6717 H   0  0  0  0  0  0  0  0  0  0  0  0
   -1.5783   -0.8862    1.4105 C   0  0  0  0  0  0  0  0  0  0  0  0
   -2.0766    1.5832    0.0115 C   0  0  0  0  0  0  0  0  0  0  0  0
   -1.8392    2.5788    0.9830 C   0  0  0  0  0  0  0  0  0  0  0  0
   -0.9687    2.5005    1.6511 H   0  0  0  0  0  0  0  0  0  0  0  0
   -2.7017    3.6769    1.0756 C   0  0  0  0  0  0  0  0  0  0  0  0
   -2.5153    4.4551    1.8304 H   0  0  0  0  0  0  0  0  0  0  0  0
   -3.7940    3.7926    0.1974 C   0  0  0  0  0  0  0  0  0  0  0  0
   -4.4652    4.6614    0.2683 H   0  0  0  0  0  0  0  0  0  0  0  0
   -4.0244    2.8067   -0.7732 C   0  0  0  0  0  0  0  0  0  0  0  0
   -4.8753    2.8982   -1.4644 H   0  0  0  0  0  0  0  0  0  0  0  0
   -3.1684    1.6977   -0.8701 C   0  0  0  0  0  0  0  0  0  0  0  0
   -3.3513    0.9250   -1.6311 H   0  0  0  0  0  0  0  0  0  0  0  0
   -1.4357   -0.8361   -1.5209 C   0  0  0  0  0  0  0  0  0  0  0  0
   -2.2140   -2.0094   -1.4819 C   0  0  0  0  0  0  0  0  0  0  0  0
   -2.6085   -2.3838   -0.5253 H   0  0  0  0  0  0  0  0  0  0  0  0
   -2.4947   -2.6943   -2.6747 C   0  0  0  0  0  0  0  0  0  0  0  0
   -3.1062   -3.6085   -2.6470 H   0  0  0  0  0  0  0  0  0  0  0  0
   -2.0046   -2.2113   -3.8983 C   0  0  0  0  0  0  0  0  0  0  0  0
   -2.2301   -2.7502   -4.8307 H   0  0  0  0  0  0  0  0  0  0  0  0
   -1.2290   -1.0395   -3.9353 C   0  0  0  0  0  0  0  0  0  0  0  0
   -0.8484   -0.6590   -4.8949 H   0  0  0  0  0  0  0  0  0  0  0  0
   -0.9350   -0.3515   -2.7504 C   0  0  0  0  0  0  0  0  0  0  0  0
   -0.3274    0.5678   -2.7702 H   0  0  0  0  0  0  0  0  0  0  0  0
  1 31  1  0  0  0  0
  1 30  1  0  0  0  0
  2  4  1  0  0  0  0
  3 19  1  0  0  0  0
  4  6  1  0  0  0  0
  4  5  1  0  0  0  0
  6  7  1  0  0  0  0
  8  9  1  0  0  0  0
  8  6  2  0  0  0  0
 10  8  1  0  0  0  0
 11 10  1  0  0  0  0
 12 10  2  0  0  0  0
 12  2  1  0  0  0  0
 13 12  1  0  0  0  0
 13 16  1  0  0  0  0
 14 13  1  0  0  0  0
 15 13  1  0  0  0  0
 16  3  1  0  0  0  0
 16 18  1  0  0  0  0
 17 16  1  0  0  0  0
 19 20  1  0  0  0  0
 19 21  1  0  0  0  0
 21 22  1  0  0  0  0
 22 23  1  0  0  0  0
 22 24  2  0  0  0  0
 24 25  1  0  0  0  0
 26 24  1  0  0  0  0
 26 27  1  0  0  0  0
 28 26  2  0  0  0  0
 29 28  1  0  0  0  0
 30 21  2  0  0  0  0
 30 28  1  0  0  0  0
 31 32  1  0  0  0  0
 32 34  2  0  0  0  0
 32 33  1  0  0  0  0
 34 35  1  0  0  0  0
 36 37  1  0  0  0  0
 36 34  1  0  0  0  0
 38 36  2  0  0  0  0
 39 38  1  0  0  0  0
 40 38  1  0  0  0  0
 40 31  2  0  0  0  0
 41 40  1  0  0  0  0
 42 43  1  0  0  0  0
 42  1  1  0  0  0  0
 43 44  1  0  0  0  0
 45 46  1  0  0  0  0
 45 43  2  0  0  0  0
 47 45  1  0  0  0  0
 48 47  1  0  0  0  0
 49 47  2  0  0  0  0
 49 51  1  0  0  0  0
 50 49  1  0  0  0  0
 51 42  2  0  0  0  0
 52 51  1  0  0  0  0
M  END
