1,2,3
q = 0.0, confidence = 0.994

 58 59  0  0  1  0  0  0  0  0999 V2000
    2.0177    0.1223   -0.0154 P   0  0  0  0  0  0  0  0  0  0  0  0
   -0.6806    1.2853   -0.4112 N   0  0  0  0  0  2  0  0  0  0  0  0
   -2.1694   -1.1886    0.3189 N   0  0  0  0  0  2  0  0  0  0  0  0
    1.5851    1.2816   -1.4051 C   0  0  0  0  0  0  0  0  0  0  0  0
    2.3566    2.0372   -1.6536 H   0  0  0  0  0  0  0  0  0  0  0  0
    1.4608    0.5838   -2.2663 H   0  0  0  0  0  0  0  0  0  0  0  0
    0.2442    1.9254   -1.1876 C   0  0  1  0  0  3  0  0  0  0  0  0
   -0.0402    3.1507   -1.8103 C   0  0  0  0  0  0  0  0  0  0  0  0
    0.7328    3.6357   -2.4226 H   0  0  0  0  0  0  0  0  0  0  0  0
   -1.3058    3.7144   -1.6569 C   0  0  0  0  0  0  0  0  0  0  0  0
   -1.5656    4.6631   -2.1498 H   0  0  0  0  0  0  0  0  0  0  0  0
   -2.2419    3.0527   -0.8573 C   0  0  0  0  0  0  0  0  0  0  0  0
   -3.2352    3.4917   -0.7229 H   0  0  0  0  0  0  0  0  0  0  0  0
   -1.9074    1.8423   -0.2204 C   0  0  0  0  0  0  0  0  0  0  0  0
   -2.9074    1.1714    0.7513 C   0  0  0  0  0  0  0  0  0  0  0  0
   -4.2207    1.9774    0.8083 C   0  0  0  0  0  0  0  0  0  0  0  0
   -4.7330    2.0598   -0.1699 H   0  0  0  0  0  0  0  0  0  0  0  0
   -4.0212    2.9994    1.1819 H   0  0  0  0  0  0  0  0  0  0  0  0
   -4.9181    1.5060    1.5258 H   0  0  0  0  0  0  0  0  0  0  0  0
   -2.3364    1.2041    2.1940 C   0  0  0  0  0  0  0  0  0  0  0  0
   -3.0838    0.7864    2.8971 H   0  0  0  0  0  0  0  0  0  0  0  0
   -2.1190    2.2505    2.4873 H   0  0  0  0  0  0  0  0  0  0  0  0
   -1.4072    0.6076    2.2677 H   0  0  0  0  0  0  0  0  0  0  0  0
   -3.1915   -0.2896    0.3392 C   0  0  2  0  0  3  0  0  0  0  0  0
   -4.5018   -0.7051    0.0260 C   0  0  0  0  0  0  0  0  0  0  0  0
   -5.3196    0.0228    0.0185 H   0  0  0  0  0  0  0  0  0  0  0  0
   -4.7808   -2.0419   -0.2737 C   0  0  0  0  0  0  0  0  0  0  0  0
   -5.8076   -2.3560   -0.5139 H   0  0  0  0  0  0  0  0  0  0  0  0
   -3.7246   -2.9577   -0.2607 C   0  0  0  0  0  0  0  0  0  0  0  0
   -3.8713   -4.0233   -0.4851 H   0  0  0  0  0  0  0  0  0  0  0  0
   -2.4442   -2.4859    0.0221 C   0  0  0  0  0  0  0  0  0  0  0  0
   -1.5816   -3.1628    0.0013 H   0  0  0  0  0  0  0  0  0  0  0  0
    2.7086    1.2471    1.3858 C   0  0  0  0  0  0  0  0  0  0  0  0
    1.6802    2.3728    1.6115 C   0  0  0  0  0  0  0  0  0  0  0  0
    1.9890    2.9631    2.5002 H   0  0  0  0  0  0  0  0  0  0  0  0
    0.6687    1.9670    1.8006 H   0  0  0  0  0  0  0  0  0  0  0  0
    1.6240    3.0721    0.7541 H   0  0  0  0  0  0  0  0  0  0  0  0
    4.0635    1.8923    1.0554 C   0  0  0  0  0  0  0  0  0  0  0  0
    4.3355    2.5976    1.8698 H   0  0  0  0  0  0  0  0  0  0  0  0
    4.0297    2.4792    0.1149 H   0  0  0  0  0  0  0  0  0  0  0  0
    4.8839    1.1545    0.9769 H   0  0  0  0  0  0  0  0  0  0  0  0
    2.8032    0.4202    2.6817 C   0  0  0  0  0  0  0  0  0  0  0  0
    3.5714   -0.3721    2.6298 H   0  0  0  0  0  0  0  0  0  0  0  0
    1.8300   -0.0564    2.9125 H   0  0  0  0  0  0  0  0  0  0  0  0
    3.0701    1.0927    3.5245 H   0  0  0  0  0  0  0  0  0  0  0  0
    3.4319   -0.9545   -0.7403 C   0  0  0  0  0  0  0  0  0  0  0  0
    4.3724   -0.1330   -1.6423 C   0  0  0  0  0  0  0  0  0  0  0  0
    5.1853   -0.7976   -2.0051 H   0  0  0  0  0  0  0  0  0  0  0  0
    4.8487    0.7195   -1.1253 H   0  0  0  0  0  0  0  0  0  0  0  0
    3.8466    0.2497   -2.5387 H   0  0  0  0  0  0  0  0  0  0  0  0
    4.2227   -1.6239    0.3982 C   0  0  0  0  0  0  0  0  0  0  0  0
    3.5564   -2.1803    1.0868 H   0  0  0  0  0  0  0  0  0  0  0  0
    4.8273   -0.9086    0.9876 H   0  0  0  0  0  0  0  0  0  0  0  0
    4.9252   -2.3602   -0.0466 H   0  0  0  0  0  0  0  0  0  0  0  0
    2.7908   -2.0669   -1.5908 C   0  0  0  0  0  0  0  0  0  0  0  0
    2.0794   -1.6854   -2.3482 H   0  0  0  0  0  0  0  0  0  0  0  0
    2.2243   -2.7814   -0.9662 H   0  0  0  0  0  0  0  0  0  0  0  0
    3.6039   -2.6247   -2.1030 H   0  0  0  0  0  0  0  0  0  0  0  0
  1 33  1  0  0  0  0
  2 14  1  0  0  0  0
  3 24  1  0  0  0  0
  4  1  1  0  0  0  0
  5  4  1  0  0  0  0
  6  4  1  0  0  0  0
  7  4  1  6  0  0  0
  7  2  1  0  0  0  0
  8 10  2  0  0  0  0
  8  7  1  0  0  0  0
  9  8  1  0  0  0  0
 10 12  1  0  0  0  0
 11 10  1  0  0  0  0
 12 13  1  0  0  0  0
 12 14  2  0  0  0  0
 14 15  1  0  0  0  0
 15 16  1  0  0  0  0
 15 20  1  0  0  0  0
 16 18  1  0  0  0  0
 16 19  1  0  0  0  0
 17 16  1  0  0  0  0
 20 23  1  0  0  0  0
 20 22  1  0  0  0  0
 20 21  1  0  0  0  0
 24 15  1  1  0  0  0
 25 24  1  0  0  0  0
 26 25  1  0  0  0  0
 27 29  1  0  0  0  0
 27 25  2  0  0  0  0
 28 27  1  0  0  0  0
 29 31  2  0  0  0  0
 30 29  1  0  0  0  0
 31  3  1  0  0  0  0
 32 31  1  0  0  0  0
 33 34  1  0  0  0  0
 33 42  1  0  0  0  0
 34 36  1  0  0  0  0
 34 35  1  0  0  0  0
 37 34  1  0  0  0  0
 38 33  1  0  0  0  0
 38 39  1  0  0  0  0
 40 38  1  0  0  0  0
 41 38  1  0  0  0  0
 42 44  1  0  0  0  0
 42 45  1  0  0  0  0
 43 42  1  0  0  0  0
 46  1  1  0  0  0  0
 46 51  1  0  0  0  0
 47 49  1  0  0  0  0
 47 46  1  0  0  0  0
 48 47  1  0  0  0  0
 50 47  1  0  0  0  0
 51 53  1  0  0  0  0
 51 52  1  0  0  0  0
 54 51  1  0  0  0  0
 55 57  1  0  0  0  0
 55 46  1  0  0  0  0
 56 55  1  0  0  0  0
 58 55  1  0  0  0  0
M  END
