1,2,4
q = 0.0, confidence = 1.0

 48 51  0  0  1  0  0  0  0  0999 V2000
   -1.1929   -0.0110    0.0065 P   0  0  0  0  0  0  0  0  0  0  0  0
    1.4537    1.7148    0.1524 N   0  0  0  0  0  2  0  0  0  0  0  0
    2.7952    1.9572    0.0056 N   0  0  0  0  0  0  0  0  0  0  0  0
    3.1574   -0.3275    0.0534 N   0  0  0  0  0  2  0  0  0  0  0  0
   -0.7665    2.7868    0.5292 C   0  0  0  0  0  0  0  0  0  0  0  0
   -1.6690    1.6802    0.5258 C   0  0  0  0  0  0  0  0  0  0  0  0
   -3.0194    1.8900    0.8626 C   0  0  0  0  0  0  0  0  0  0  0  0
   -3.7065    1.0306    0.8788 H   0  0  0  0  0  0  0  0  0  0  0  0
   -3.5056    3.1681    1.1757 C   0  0  0  0  0  0  0  0  0  0  0  0
   -4.5656    3.3018    1.4367 H   0  0  0  0  0  0  0  0  0  0  0  0
   -2.6337    4.2674    1.1502 C   0  0  0  0  0  0  0  0  0  0  0  0
   -3.0013    5.2763    1.3874 H   0  0  0  0  0  0  0  0  0  0  0  0
   -1.2878    4.0747    0.8327 C   0  0  0  0  0  0  0  0  0  0  0  0
   -0.6042    4.9378    0.8316 H   0  0  0  0  0  0  0  0  0  0  0  0
    0.6654    2.7576    0.2965 C   0  0  0  0  0  3  0  0  0  0  0  0
    1.1584    3.7476    0.2911 H   0  0  0  0  0  0  0  0  0  0  0  0
    3.6978    0.9141    0.0014 C   0  0  1  0  0  3  0  0  0  0  0  0
    5.0908    1.1166   -0.0590 C   0  0  0  0  0  0  0  0  0  0  0  0
    5.5082    2.1326   -0.0979 H   0  0  0  0  0  0  0  0  0  0  0  0
    5.9136   -0.0113   -0.0668 C   0  0  0  0  0  0  0  0  0  0  0  0
    7.0053    0.1139   -0.1142 H   0  0  0  0  0  0  0  0  0  0  0  0
    5.3461   -1.2991   -0.0133 C   0  0  0  0  0  0  0  0  0  0  0  0
    5.9719   -2.2014   -0.0203 H   0  0  0  0  0  0  0  0  0  0  0  0
    3.9587   -1.4171    0.0471 C   0  0  0  0  0  0  0  0  0  0  0  0
    3.4283   -2.3820    0.0865 H   0  0  0  0  0  0  0  0  0  0  0  0
   -2.1701   -1.1362    1.0532 C   0  0  0  0  0  0  0  0  0  0  0  0
   -1.7361   -1.3633    2.3759 C   0  0  0  0  0  0  0  0  0  0  0  0
   -0.8009   -0.9064    2.7349 H   0  0  0  0  0  0  0  0  0  0  0  0
   -2.4915   -2.1855    3.2206 C   0  0  0  0  0  0  0  0  0  0  0  0
   -2.1525   -2.3681    4.2510 H   0  0  0  0  0  0  0  0  0  0  0  0
   -3.6716   -2.7861    2.7489 C   0  0  0  0  0  0  0  0  0  0  0  0
   -4.2585   -3.4378    3.4133 H   0  0  0  0  0  0  0  0  0  0  0  0
   -4.0982   -2.5647    1.4306 C   0  0  0  0  0  0  0  0  0  0  0  0
   -5.0175   -3.0413    1.0593 H   0  0  0  0  0  0  0  0  0  0  0  0
   -3.3505   -1.7392    0.5762 C   0  0  0  0  0  0  0  0  0  0  0  0
   -3.6798   -1.5732   -0.4603 H   0  0  0  0  0  0  0  0  0  0  0  0
   -1.8024   -0.1879   -1.7095 C   0  0  0  0  0  0  0  0  0  0  0  0
   -1.5367   -1.4032   -2.3796 C   0  0  0  0  0  0  0  0  0  0  0  0
   -0.9646   -2.1965   -1.8730 H   0  0  0  0  0  0  0  0  0  0  0  0
   -1.9991   -1.5860   -3.6891 C   0  0  0  0  0  0  0  0  0  0  0  0
   -1.7965   -2.5347   -4.2081 H   0  0  0  0  0  0  0  0  0  0  0  0
   -2.7102   -0.5630   -4.3391 C   0  0  0  0  0  0  0  0  0  0  0  0
   -3.0672   -0.7101   -5.3693 H   0  0  0  0  0  0  0  0  0  0  0  0
   -2.9613    0.6484   -3.6769 C   0  0  0  0  0  0  0  0  0  0  0  0
   -3.5147    1.4521   -4.1850 H   0  0  0  0  0  0  0  0  0  0  0  0
   -2.5109    0.8414   -2.3618 C   0  0  0  0  0  0  0  0  0  0  0  0
   -2.7161    1.7919   -1.8490 H   0  0  0  0  0  0  0  0  0  0  0  0
    3.1180    2.9281    0.0255 H   0  0  0  0  0  0  0  0  0  0  0  0
  1  6  1  0  0  0  0
  1 26  1  0  0  0  0
  2 15  1  0  0  0  0
  3 48  1  0  0  0  0
  3  2  1  0  0  0  0
  5 13  1  0  0  0  0
  6  5  2  0  0  0  0
  6  7  1  0  0  0  0
  7  8  1  0  0  0  0
  7  9  2  0  0  0  0
  9 10  1  0  0  0  0
 11  9  1  0  0  0  0
 11 12  1  0  0  0  0
 13 11  2  0  0  0  0
 14 13  1  0  0  0  0
 15  5  1  0  0  0  0
 16 15  1  0  0  0  0
 17  3  1  6  0  0  0
 17  4  1  0  0  0  0
 18 17  1  0  0  0  0
 19 18  1  0  0  0  0
 20 18  2  0  0  0  0
 20 22  1  0  0  0  0
 21 20  1  0  0  0  0
 22 24  2  0  0  0  0
 23 22  1  0  0  0  0
 24  4  1  0  0  0  0
 24 25  1  0  0  0  0
 26 27  1  0  0  0  0
 27 28  1  0  0  0  0
 27 29  2  0  0  0  0
 29 30  1  0  0  0  0
 31 29  1  0  0  0  0
 31 32  1  0  0  0  0
 33 31  2  0  0  0  0
 34 33  1  0  0  0  0
 35 26  2  0  0  0  0
 35 33  1  0  0  0  0
 36 35  1  0  0  0  0
 37  1  1  0  0  0  0
 38 39  1  0  0  0  0
 38 37  2  0  0  0  0
 40 38  1  0  0  0  0
 41 40  1  0  0  0  0
 42 40  2  0  0  0  0
 42 44  1  0  0  0  0
 43 42  1  0  0  0  0
 44 46  2  0  0  0  0
 45 44  1  0  0  0  0
 46 47  1  0  0  0  0
 46 37  1  0  0  0  0
M  END
