1,2,3
 OpenBabel05122313063D

 45 48  0  0  1  0  0  0  0  0999 V2000
   -1.8917   -0.2607    0.0956 P   0  0  0  0  0  0  0  0  0  0  0  0
    2.0934   -0.8269   -0.9772 N   0  0  0  0  0  2  0  0  0  0  0  0
    0.3316   -1.9766    0.5233 N   0  0  0  0  0  2  0  0  0  0  0  0
    2.9273   -0.2569   -1.8746 C   0  0  0  0  0  3  0  0  0  0  0  0
    2.4673    0.4504   -2.5783 H   0  0  0  0  0  0  0  0  0  0  0  0
    4.2980   -0.5161   -1.9014 C   0  0  0  0  0  0  0  0  0  0  0  0
    4.9288   -0.0040   -2.6404 H   0  0  0  0  0  0  0  0  0  0  0  0
    4.8424   -1.4096   -0.9623 C   0  0  0  0  0  0  0  0  0  0  0  0
    5.9193   -1.6319   -0.9530 H   0  0  0  0  0  0  0  0  0  0  0  0
    3.9864   -2.0092   -0.0372 C   0  0  0  0  0  0  0  0  0  0  0  0
    4.3753   -2.7217    0.7031 H   0  0  0  0  0  0  0  0  0  0  0  0
    2.6128   -1.7003   -0.0588 C   0  0  0  0  0  0  0  0  0  0  0  0
    1.6159   -2.3079    0.8279 C   0  0  2  0  0  3  0  0  0  0  0  0
    1.8987   -3.1906    1.8881 C   0  0  0  0  0  0  0  0  0  0  0  0
    2.9373   -3.4522    2.1306 H   0  0  0  0  0  0  0  0  0  0  0  0
    0.8406   -3.7056    2.6418 C   0  0  0  0  0  0  0  0  0  0  0  0
    1.0394   -4.3873    3.4819 H   0  0  0  0  0  0  0  0  0  0  0  0
   -0.4773   -3.3335    2.3279 C   0  0  0  0  0  0  0  0  0  0  0  0
   -1.3287   -3.7088    2.9127 H   0  0  0  0  0  0  0  0  0  0  0  0
   -0.7030   -2.4605    1.2517 C   0  0  0  0  0  0  0  0  0  0  0  0
   -2.0666   -1.9847    0.8380 C   0  0  0  0  0  0  0  0  0  0  0  0
   -2.8017   -2.0478    1.6639 H   0  0  0  0  0  0  0  0  0  0  0  0
   -2.4409   -2.6071   -0.0041 H   0  0  0  0  0  0  0  0  0  0  0  0
   -3.4135   -0.1092   -0.9256 C   0  0  0  0  0  0  0  0  0  0  0  0
   -3.3233    0.3257   -2.2620 C   0  0  0  0  0  0  0  0  0  0  0  0
   -2.3438    0.5776   -2.6919 H   0  0  0  0  0  0  0  0  0  0  0  0
   -4.4833    0.4465   -3.0440 C   0  0  0  0  0  0  0  0  0  0  0  0
   -4.4023    0.7883   -4.0868 H   0  0  0  0  0  0  0  0  0  0  0  0
   -5.7374    0.1312   -2.5005 C   0  0  0  0  0  0  0  0  0  0  0  0
   -6.6448    0.2233   -3.1168 H   0  0  0  0  0  0  0  0  0  0  0  0
   -5.8349   -0.2990   -1.1662 C   0  0  0  0  0  0  0  0  0  0  0  0
   -6.8178   -0.5416   -0.7341 H   0  0  0  0  0  0  0  0  0  0  0  0
   -4.6799   -0.4145   -0.3810 C   0  0  0  0  0  0  0  0  0  0  0  0
   -4.7646   -0.7324    0.6700 H   0  0  0  0  0  0  0  0  0  0  0  0
   -2.2206    0.8725    1.5010 C   0  0  0  0  0  0  0  0  0  0  0  0
   -2.9680    2.0508    1.3076 C   0  0  0  0  0  0  0  0  0  0  0  0
   -3.4353    2.2500    0.3311 H   0  0  0  0  0  0  0  0  0  0  0  0
   -3.1201    2.9721    2.3561 C   0  0  0  0  0  0  0  0  0  0  0  0
   -3.7081    3.8886    2.1955 H   0  0  0  0  0  0  0  0  0  0  0  0
   -2.5209    2.7264    3.6008 C   0  0  0  0  0  0  0  0  0  0  0  0
   -2.6368    3.4505    4.4216 H   0  0  0  0  0  0  0  0  0  0  0  0
   -1.7680    1.5562    3.7953 C   0  0  0  0  0  0  0  0  0  0  0  0
   -1.2886    1.3642    4.7674 H   0  0  0  0  0  0  0  0  0  0  0  0
   -1.6106    0.6339    2.7513 C   0  0  0  0  0  0  0  0  0  0  0  0
   -0.9887   -0.2594    2.8993 H   0  0  0  0  0  0  0  0  0  0  0  0
  1 21  1  0  0  0  0
  1 35  1  0  0  0  0
  2 12  1  0  0  0  0
  3 13  1  0  0  0  0
  3 20  1  0  0  0  0
  4  2  1  0  0  0  0
  5  4  1  0  0  0  0
  6  4  1  0  0  0  0
  6  8  2  0  0  0  0
  7  6  1  0  0  0  0
  8  9  1  0  0  0  0
  8 10  1  0  0  0  0
 10 11  1  0  0  0  0
 12 10  2  0  0  0  0
 13 12  1  6  0  0  0
 13 14  1  0  0  0  0
 14 15  1  0  0  0  0
 14 16  2  0  0  0  0
 16 17  1  0  0  0  0
 18 16  1  0  0  0  0
 18 19  1  0  0  0  0
 20 18  2  0  0  0  0
 21 20  1  0  0  0  0
 21 22  1  0  0  0  0
 23 21  1  0  0  0  0
 24 33  1  0  0  0  0
 24  1  1  0  0  0  0
 25 24  2  0  0  0  0
 26 25  1  0  0  0  0
 27 29  2  0  0  0  0
 27 25  1  0  0  0  0
 28 27  1  0  0  0  0
 29 31  1  0  0  0  0
 30 29  1  0  0  0  0
 31 32  1  0  0  0  0
 31 33  2  0  0  0  0
 33 34  1  0  0  0  0
 35 44  1  0  0  0  0
 36 35  2  0  0  0  0
 36 38  1  0  0  0  0
 37 36  1  0  0  0  0
 38 40  2  0  0  0  0
 39 38  1  0  0  0  0
 40 42  1  0  0  0  0
 40 41  1  0  0  0  0
 42 43  1  0  0  0  0
 44 45  1  0  0  0  0
 44 42  2  0  0  0  0
M  END
