1,2,4
 OpenBabel05122313063D

 72 73  0  0  0  0  0  0  0  0999 V2000
    1.4485   -0.2013    0.5585 N   0  0  0  0  0  2  0  0  0  0  0  0
   -0.7421   -0.7540    1.5560 N   0  0  0  0  0  2  0  0  0  0  0  0
   -2.9990   -0.6407    1.1144 O   0  0  0  0  0  0  0  0  0  0  0  0
   -2.4172    0.0874   -0.3522 P   0  0  0  0  0  0  0  0  0  0  0  0
    2.6077    0.2762   -0.1349 C   0  0  0  0  0  0  0  0  0  0  0  0
    2.8871    1.6702   -0.0978 C   0  0  0  0  0  0  0  0  0  0  0  0
    4.0161    2.1445   -0.7888 C   0  0  0  0  0  0  0  0  0  0  0  0
    4.2451    3.2211   -0.7671 H   0  0  0  0  0  0  0  0  0  0  0  0
    4.8488    1.2737   -1.5023 C   0  0  0  0  0  0  0  0  0  0  0  0
    5.7270    1.6634   -2.0390 H   0  0  0  0  0  0  0  0  0  0  0  0
    4.5560   -0.0942   -1.5315 C   0  0  0  0  0  0  0  0  0  0  0  0
    5.2097   -0.7777   -2.0953 H   0  0  0  0  0  0  0  0  0  0  0  0
    3.4406   -0.6207   -0.8523 C   0  0  0  0  0  0  0  0  0  0  0  0
    3.1578   -2.1152   -0.9072 C   0  0  0  0  0  0  0  0  0  0  0  0
    2.2200   -2.2943   -0.3460 H   0  0  0  0  0  0  0  0  0  0  0  0
    4.2708   -2.9292   -0.2247 C   0  0  0  0  0  0  0  0  0  0  0  0
    5.2415   -2.8064   -0.7489 H   0  0  0  0  0  0  0  0  0  0  0  0
    4.0229   -4.0106   -0.2292 H   0  0  0  0  0  0  0  0  0  0  0  0
    4.4192   -2.6157    0.8279 H   0  0  0  0  0  0  0  0  0  0  0  0
    2.9309   -2.5862   -2.3531 C   0  0  0  0  0  0  0  0  0  0  0  0
    2.1486   -1.9823   -2.8519 H   0  0  0  0  0  0  0  0  0  0  0  0
    2.6034   -3.6451   -2.3724 H   0  0  0  0  0  0  0  0  0  0  0  0
    3.8601   -2.5050   -2.9548 H   0  0  0  0  0  0  0  0  0  0  0  0
    2.0069    2.6328    0.6885 C   0  0  0  0  0  0  0  0  0  0  0  0
    1.1086    2.0594    0.9932 H   0  0  0  0  0  0  0  0  0  0  0  0
    1.5291    3.8165   -0.1671 C   0  0  0  0  0  0  0  0  0  0  0  0
    2.3708    4.4754   -0.4655 H   0  0  0  0  0  0  0  0  0  0  0  0
    0.8093    4.4401    0.4020 H   0  0  0  0  0  0  0  0  0  0  0  0
    1.0307    3.4665   -1.0920 H   0  0  0  0  0  0  0  0  0  0  0  0
    2.7109    3.1150    1.9687 C   0  0  0  0  0  0  0  0  0  0  0  0
    3.0142    2.2645    2.6108 H   0  0  0  0  0  0  0  0  0  0  0  0
    2.0414    3.7704    2.5634 H   0  0  0  0  0  0  0  0  0  0  0  0
    3.6262    3.6955    1.7281 H   0  0  0  0  0  0  0  0  0  0  0  0
    2.8629   -0.6900    2.5897 C   0  0  0  0  0  0  0  0  0  0  0  0
    3.1381   -1.7475    2.7932 H   0  0  0  0  0  0  0  0  0  0  0  0
    2.7955   -0.1778    3.5715 H   0  0  0  0  0  0  0  0  0  0  0  0
    3.6885   -0.2327    2.0148 H   0  0  0  0  0  0  0  0  0  0  0  0
    1.5647   -0.6030    1.8419 C   0  0  0  0  0  0  0  0  0  0  0  0
    0.3158   -0.9459    2.4343 C   0  0  0  0  0  0  0  0  0  0  0  0
    0.0769   -1.4186    3.7508 C   0  0  0  0  0  0  0  0  0  0  0  0
    0.9273   -1.5970    4.4228 H   0  0  0  0  0  0  0  0  0  0  0  0
   -1.2303   -1.6426    4.1675 C   0  0  0  0  0  0  0  0  0  0  0  0
   -1.4362   -2.0020    5.1862 H   0  0  0  0  0  0  0  0  0  0  0  0
   -2.3106   -1.3847    3.2840 C   0  0  0  0  0  0  0  0  0  0  0  0
   -3.3591   -1.5049    3.5847 H   0  0  0  0  0  0  0  0  0  0  0  0
   -2.0179   -0.9427    1.9978 C   0  0  0  0  0  0  0  0  0  0  0  0
   -2.9552    1.8957   -0.0246 C   0  0  0  0  0  0  0  0  0  0  0  0
   -1.9089    2.4431    0.9655 C   0  0  0  0  0  0  0  0  0  0  0  0
   -0.8818    2.3381    0.5689 H   0  0  0  0  0  0  0  0  0  0  0  0
   -1.9504    1.9223    1.9430 H   0  0  0  0  0  0  0  0  0  0  0  0
   -2.1120    3.5198    1.1465 H   0  0  0  0  0  0  0  0  0  0  0  0
   -4.3454    2.0224    0.6209 C   0  0  0  0  0  0  0  0  0  0  0  0
   -4.4714    3.0620    0.9908 H   0  0  0  0  0  0  0  0  0  0  0  0
   -4.4503    1.3407    1.4870 H   0  0  0  0  0  0  0  0  0  0  0  0
   -5.1710    1.8229   -0.0833 H   0  0  0  0  0  0  0  0  0  0  0  0
   -2.8661    2.6846   -1.3422 C   0  0  0  0  0  0  0  0  0  0  0  0
   -3.0219    3.7637   -1.1303 H   0  0  0  0  0  0  0  0  0  0  0  0
   -3.6398    2.3778   -2.0729 H   0  0  0  0  0  0  0  0  0  0  0  0
   -1.8727    2.5832   -1.8222 H   0  0  0  0  0  0  0  0  0  0  0  0
   -3.5623   -0.7621   -1.6103 C   0  0  0  0  0  0  0  0  0  0  0  0
   -3.5998   -2.2612   -1.2546 C   0  0  0  0  0  0  0  0  0  0  0  0
   -4.0916   -2.4308   -0.2781 H   0  0  0  0  0  0  0  0  0  0  0  0
   -2.5955   -2.7189   -1.2255 H   0  0  0  0  0  0  0  0  0  0  0  0
   -4.1850   -2.7906   -2.0357 H   0  0  0  0  0  0  0  0  0  0  0  0
   -2.9131   -0.5627   -2.9942 C   0  0  0  0  0  0  0  0  0  0  0  0
   -3.5497   -1.0466   -3.7645 H   0  0  0  0  0  0  0  0  0  0  0  0
   -1.9092   -1.0246   -3.0456 H   0  0  0  0  0  0  0  0  0  0  0  0
   -2.8118    0.5065   -3.2658 H   0  0  0  0  0  0  0  0  0  0  0  0
   -5.0056   -0.2353   -1.6194 C   0  0  0  0  0  0  0  0  0  0  0  0
   -5.0762    0.8181   -1.9497 H   0  0  0  0  0  0  0  0  0  0  0  0
   -5.4879   -0.3328   -0.6280 H   0  0  0  0  0  0  0  0  0  0  0  0
   -5.5950   -0.8434   -2.3379 H   0  0  0  0  0  0  0  0  0  0  0  0
  1 38  1  0  0  0  0
  2 46  1  0  0  0  0
  2 39  1  0  0  0  0
  3 46  1  0  0  0  0
  4 47  1  0  0  0  0
  4  3  1  0  0  0  0
  5  6  1  0  0  0  0
  5  1  1  0  0  0  0
  6 24  1  0  0  0  0
  7  8  1  0  0  0  0
  7  6  2  0  0  0  0
  9  7  1  0  0  0  0
 10  9  1  0  0  0  0
 11  9  2  0  0  0  0
 11 13  1  0  0  0  0
 12 11  1  0  0  0  0
 13  5  2  0  0  0  0
 14 13  1  0  0  0  0
 14 15  1  0  0  0  0
 14 16  1  0  0  0  0
 16 19  1  0  0  0  0
 17 16  1  0  0  0  0
 18 16  1  0  0  0  0
 20 14  1  0  0  0  0
 21 20  1  0  0  0  0
 22 20  1  0  0  0  0
 23 20  1  0  0  0  0
 24 25  1  0  0  0  0
 24 30  1  0  0  0  0
 26 28  1  0  0  0  0
 26 24  1  0  0  0  0
 27 26  1  0  0  0  0
 29 26  1  0  0  0  0
 30 32  1  0  0  0  0
 30 31  1  0  0  0  0
 33 30  1  0  0  0  0
 34 35  1  0  0  0  0
 34 36  1  0  0  0  0
 37 34  1  0  0  0  0
 38 39  2  0  0  0  0
 38 34  1  0  0  0  0
 39 40  1  0  0  0  0
 40 42  2  0  0  0  0
 40 41  1  0  0  0  0
 42 43  1  0  0  0  0
 44 45  1  0  0  0  0
 44 42  1  0  0  0  0
 46 44  2  0  0  0  0
 47 52  1  0  0  0  0
 47 48  1  0  0  0  0
 48 51  1  0  0  0  0
 48 50  1  0  0  0  0
 49 48  1  0  0  0  0
 52 53  1  0  0  0  0
 52 54  1  0  0  0  0
 55 52  1  0  0  0  0
 56 57  1  0  0  0  0
 56 47  1  0  0  0  0
 58 56  1  0  0  0  0
 59 56  1  0  0  0  0
 60 61  1  0  0  0  0
 60  4  1  0  0  0  0
 61 63  1  0  0  0  0
 61 62  1  0  0  0  0
 64 61  1  0  0  0  0
 65 60  1  0  0  0  0
 66 65  1  0  0  0  0
 67 65  1  0  0  0  0
 68 65  1  0  0  0  0
 69 60  1  0  0  0  0
 69 71  1  0  0  0  0
 70 69  1  0  0  0  0
 72 69  1  0  0  0  0
M  END
