1,2,3
 OpenBabel05122313063D

 67 71  0  0  1  0  0  0  0  0999 V2000
   -1.6207    0.9279    0.1307 P   0  0  0  0  0  0  0  0  0  0  0  0
    0.9312   -1.0965   -0.2427 N   0  0  0  0  0  0  0  0  0  0  0  0
   -1.4764   -2.3641    0.1729 N   0  0  0  0  0  2  0  0  0  0  0  0
    5.6723    1.8382    1.5545 F   0  0  0  0  0  0  0  0  0  0  0  0
    7.5346    1.0732    0.7054 F   0  0  0  0  0  0  0  0  0  0  0  0
    6.1729    2.2619   -0.5234 F   0  0  0  0  0  0  0  0  0  0  0  0
   -2.3596    0.4270    1.7435 C   0  0  0  0  0  0  0  0  0  0  0  0
   -3.6714   -0.0961    1.6987 C   0  0  0  0  0  0  0  0  0  0  0  0
   -4.1990   -0.1367    0.7321 H   0  0  0  0  0  0  0  0  0  0  0  0
   -4.2872   -0.5500    2.8723 C   0  0  0  0  0  0  0  0  0  0  0  0
   -5.3118   -0.9501    2.8295 H   0  0  0  0  0  0  0  0  0  0  0  0
   -3.6021   -0.4949    4.0980 C   0  0  0  0  0  0  0  0  0  0  0  0
   -4.0871   -0.8537    5.0185 H   0  0  0  0  0  0  0  0  0  0  0  0
   -2.3029    0.0326    4.1476 C   0  0  0  0  0  0  0  0  0  0  0  0
   -1.7689    0.0968    5.1080 H   0  0  0  0  0  0  0  0  0  0  0  0
   -1.6828    0.4986    2.9763 C   0  0  0  0  0  0  0  0  0  0  0  0
   -0.6786    0.9460    3.0298 H   0  0  0  0  0  0  0  0  0  0  0  0
   -2.8253    2.2032   -0.4329 C   0  0  0  0  0  0  0  0  0  0  0  0
   -3.1059    2.4219   -1.7954 C   0  0  0  0  0  0  0  0  0  0  0  0
   -2.6202    1.7931   -2.5535 H   0  0  0  0  0  0  0  0  0  0  0  0
   -3.9972    3.4402   -2.1652 C   0  0  0  0  0  0  0  0  0  0  0  0
   -4.2163    3.6000   -3.2317 H   0  0  0  0  0  0  0  0  0  0  0  0
   -4.6094    4.2442   -1.1914 C   0  0  0  0  0  0  0  0  0  0  0  0
   -5.3090    5.0397   -1.4907 H   0  0  0  0  0  0  0  0  0  0  0  0
   -4.3308    4.0282    0.1674 C   0  0  0  0  0  0  0  0  0  0  0  0
   -4.8073    4.6517    0.9391 H   0  0  0  0  0  0  0  0  0  0  0  0
   -3.4458    3.0090    0.5481 C   0  0  0  0  0  0  0  0  0  0  0  0
   -3.2393    2.8406    1.6155 H   0  0  0  0  0  0  0  0  0  0  0  0
   -0.1030    1.8677    0.5722 C   0  0  0  0  0  0  0  0  0  0  0  0
   -0.0652    3.2730    0.5006 C   0  0  0  0  0  0  0  0  0  0  0  0
   -0.9530    3.8208    0.1550 H   0  0  0  0  0  0  0  0  0  0  0  0
    1.0917    3.9768    0.8661 C   0  0  0  0  0  0  0  0  0  0  0  0
    1.1059    5.0749    0.7968 H   0  0  0  0  0  0  0  0  0  0  0  0
    2.2174    3.2801    1.3267 C   0  0  0  0  0  0  0  0  0  0  0  0
    3.1291    3.8163    1.6297 H   0  0  0  0  0  0  0  0  0  0  0  0
    2.1889    1.8798    1.3829 C   0  0  0  0  0  0  0  0  0  0  0  0
    3.0772    1.3367    1.7371 H   0  0  0  0  0  0  0  0  0  0  0  0
    1.0527    1.1528    0.9781 C   0  0  0  0  0  0  0  0  0  0  0  0
    1.0905   -0.3535    1.0482 C   0  0  0  0  0  0  0  0  0  0  0  0
    0.2887   -0.7350    1.7142 H   0  0  0  0  0  0  0  0  0  0  0  0
    2.0569   -0.6605    1.5040 H   0  0  0  0  0  0  0  0  0  0  0  0
    0.9268   -2.5480    0.0990 C   0  0  0  0  0  0  0  0  0  0  0  0
    0.9900   -3.0896   -0.8730 H   0  0  0  0  0  0  0  0  0  0  0  0
    1.7849   -2.8117    0.7515 H   0  0  0  0  0  0  0  0  0  0  0  0
   -0.3761   -2.9533    0.7162 C   0  0  2  0  0  3  0  0  0  0  0  0
   -0.4969   -3.9448    1.6971 C   0  0  0  0  0  0  0  0  0  0  0  0
    0.4114   -4.3866    2.1313 H   0  0  0  0  0  0  0  0  0  0  0  0
   -1.7741   -4.3670    2.0932 C   0  0  0  0  0  0  0  0  0  0  0  0
   -1.8902   -5.1451    2.8621 H   0  0  0  0  0  0  0  0  0  0  0  0
   -2.8937   -3.7907    1.4802 C   0  0  0  0  0  0  0  0  0  0  0  0
   -3.9150   -4.1039    1.7378 H   0  0  0  0  0  0  0  0  0  0  0  0
   -2.7076   -2.7871    0.5241 C   0  0  0  0  0  0  0  0  0  0  0  0
   -3.5318   -2.3043   -0.0231 H   0  0  0  0  0  0  0  0  0  0  0  0
    1.9932   -0.7726   -1.2586 C   0  0  0  0  0  0  0  0  0  0  0  0
    1.8084    0.2720   -1.5699 H   0  0  0  0  0  0  0  0  0  0  0  0
    1.7468   -1.4107   -2.1321 H   0  0  0  0  0  0  0  0  0  0  0  0
    3.4188   -0.9550   -0.7937 C   0  0  0  0  0  0  0  0  0  0  0  0
    4.1893    0.1777   -0.4779 C   0  0  0  0  0  0  0  0  0  0  0  0
    3.7547    1.1776   -0.6173 H   0  0  0  0  0  0  0  0  0  0  0  0
    5.4998    0.0506    0.0107 C   0  0  0  0  0  0  0  0  0  0  0  0
    6.0816   -1.2188    0.1517 C   0  0  0  0  0  0  0  0  0  0  0  0
    7.1092   -1.3117    0.5298 H   0  0  0  0  0  0  0  0  0  0  0  0
    5.3436   -2.3543   -0.2165 C   0  0  0  0  0  0  0  0  0  0  0  0
    5.8040   -3.3510   -0.1439 H   0  0  0  0  0  0  0  0  0  0  0  0
    4.0277   -2.2254   -0.6837 C   0  0  0  0  0  0  0  0  0  0  0  0
    3.4713   -3.1234   -0.9908 H   0  0  0  0  0  0  0  0  0  0  0  0
    6.2330    1.3019    0.4277 C   0  0  0  0  0  0  0  0  0  0  0  0
  1 29  1  0  0  0  0
  1  7  1  0  0  0  0
  2 42  1  0  0  0  0
  2 39  1  0  0  0  0
  3 52  1  0  0  0  0
  3 45  1  0  0  0  0
  6 67  1  0  0  0  0
  7 16  1  0  0  0  0
  8  7  2  0  0  0  0
  8 10  1  0  0  0  0
  9  8  1  0  0  0  0
 10 12  2  0  0  0  0
 11 10  1  0  0  0  0
 12 14  1  0  0  0  0
 12 13  1  0  0  0  0
 14 15  1  0  0  0  0
 16 17  1  0  0  0  0
 16 14  2  0  0  0  0
 18  1  1  0  0  0  0
 18 27  1  0  0  0  0
 19 18  2  0  0  0  0
 20 19  1  0  0  0  0
 21 19  1  0  0  0  0
 21 23  2  0  0  0  0
 22 21  1  0  0  0  0
 23 25  1  0  0  0  0
 24 23  1  0  0  0  0
 25 27  2  0  0  0  0
 25 26  1  0  0  0  0
 27 28  1  0  0  0  0
 29 38  1  0  0  0  0
 30 29  2  0  0  0  0
 30 32  1  0  0  0  0
 31 30  1  0  0  0  0
 32 34  2  0  0  0  0
 33 32  1  0  0  0  0
 34 36  1  0  0  0  0
 34 35  1  0  0  0  0
 36 37  1  0  0  0  0
 38 39  1  0  0  0  0
 38 36  2  0  0  0  0
 39 41  1  0  0  0  0
 39 40  1  0  0  0  0
 42 44  1  0  0  0  0
 43 42  1  0  0  0  0
 45 42  1  6  0  0  0
 45 46  1  0  0  0  0
 46 48  2  0  0  0  0
 46 47  1  0  0  0  0
 48 49  1  0  0  0  0
 50 51  1  0  0  0  0
 50 48  1  0  0  0  0
 52 50  2  0  0  0  0
 53 52  1  0  0  0  0
 54 57  1  0  0  0  0
 54  2  1  0  0  0  0
 55 54  1  0  0  0  0
 56 54  1  0  0  0  0
 57 65  2  0  0  0  0
 57 58  1  0  0  0  0
 58 60  2  0  0  0  0
 59 58  1  0  0  0  0
 60 61  1  0  0  0  0
 60 67  1  0  0  0  0
 61 62  1  0  0  0  0
 63 64  1  0  0  0  0
 63 61  2  0  0  0  0
 65 63  1  0  0  0  0
 66 65  1  0  0  0  0
 67  5  1  0  0  0  0
 67  4  1  0  0  0  0
M  END
