1,2,3
 OpenBabel05122313063D

 64 68  0  0  1  0  0  0  0  0999 V2000
    1.3917   -0.6015    0.1802 P   0  0  0  0  0  0  0  0  0  0  0  0
   -1.7692    0.2391   -0.0669 N   0  0  0  0  0  0  0  0  0  0  0  0
   -0.0073    2.3601   -0.1247 N   0  0  0  0  0  2  0  0  0  0  0  0
    2.0066    0.3775    1.6156 C   0  0  0  0  0  0  0  0  0  0  0  0
    2.9995    1.3440    1.3391 C   0  0  0  0  0  0  0  0  0  0  0  0
    3.4831    2.1673    2.3642 C   0  0  0  0  0  0  0  0  0  0  0  0
    2.9788    2.0425    3.6698 C   0  0  0  0  0  0  0  0  0  0  0  0
    1.9994    1.0775    3.9498 C   0  0  0  0  0  0  0  0  0  0  0  0
    1.5169    0.2417    2.9288 C   0  0  0  0  0  0  0  0  0  0  0  0
    2.9464   -1.4041   -0.3989 C   0  0  0  0  0  0  0  0  0  0  0  0
    3.1639   -1.7234   -1.7532 C   0  0  0  0  0  0  0  0  0  0  0  0
    4.3459   -2.3781   -2.1302 C   0  0  0  0  0  0  0  0  0  0  0  0
    5.3122   -2.7197   -1.1715 C   0  0  0  0  0  0  0  0  0  0  0  0
    5.0972   -2.4030    0.1790 C   0  0  0  0  0  0  0  0  0  0  0  0
    3.9212   -1.7438    0.5658 C   0  0  0  0  0  0  0  0  0  0  0  0
    0.4019   -1.9621    0.9210 C   0  0  0  0  0  0  0  0  0  0  0  0
    0.9162   -3.2687    1.0156 C   0  0  0  0  0  0  0  0  0  0  0  0
    0.1633   -4.2924    1.6077 C   0  0  0  0  0  0  0  0  0  0  0  0
   -1.1091   -4.0131    2.1247 C   0  0  0  0  0  0  0  0  0  0  0  0
   -1.6341   -2.7180    2.0110 C   0  0  0  0  0  0  0  0  0  0  0  0
   -0.9083   -1.6843    1.3881 C   0  0  0  0  0  0  0  0  0  0  0  0
   -1.5263   -0.3099    1.3038 C   0  0  0  0  0  0  0  0  0  0  0  0
   -2.2903    1.6244    0.1113 C   0  0  0  0  0  0  0  0  0  0  0  0
   -2.6318    1.9508   -0.8980 H   0  0  0  0  0  0  0  0  0  0  0  0
   -3.1320    1.6499    0.8336 H   0  0  0  0  0  0  0  0  0  0  0  0
   -1.1980    2.5710    0.5000 C   0  0  2  0  0  3  0  0  0  0  0  0
   -1.3867    3.6733    1.3424 C   0  0  0  0  0  0  0  0  0  0  0  0
   -0.3451    4.5976    1.5078 C   0  0  0  0  0  0  0  0  0  0  0  0
    0.8514    4.3956    0.8087 C   0  0  0  0  0  0  0  0  0  0  0  0
    0.9876    3.2612    0.0020 C   0  0  0  0  0  0  0  0  0  0  0  0
   -2.7166   -0.6027   -0.8823 C   0  0  0  0  0  0  0  0  0  0  0  0
   -4.1027   -0.7909   -0.3071 C   0  0  0  0  0  0  0  0  0  0  0  0
   -4.4672   -2.0193    0.2827 C   0  0  0  0  0  0  0  0  0  0  0  0
   -5.7534   -2.2199    0.8064 C   0  0  0  0  0  0  0  0  0  0  0  0
   -6.7061   -1.1914    0.7433 C   0  0  0  0  0  0  0  0  0  0  0  0
   -6.3707    0.0259    0.1288 C   0  0  0  0  0  0  0  0  0  0  0  0
   -5.0855    0.2197   -0.3986 C   0  0  0  0  0  0  0  0  0  0  0  0
    3.3863    1.4348    0.3112 H   0  0  0  0  0  0  0  0  0  0  0  0
    4.2611    2.9136    2.1414 H   0  0  0  0  0  0  0  0  0  0  0  0
    3.3586    2.6917    4.4731 H   0  0  0  0  0  0  0  0  0  0  0  0
    1.6146    0.9620    4.9746 H   0  0  0  0  0  0  0  0  0  0  0  0
    0.7760   -0.5375    3.1637 H   0  0  0  0  0  0  0  0  0  0  0  0
    2.4015   -1.4583   -2.4981 H   0  0  0  0  0  0  0  0  0  0  0  0
    4.5111   -2.6178   -3.1915 H   0  0  0  0  0  0  0  0  0  0  0  0
    6.2380   -3.2312   -1.4769 H   0  0  0  0  0  0  0  0  0  0  0  0
    5.8495   -2.6646    0.9385 H   0  0  0  0  0  0  0  0  0  0  0  0
    3.7642   -1.4919    1.6252 H   0  0  0  0  0  0  0  0  0  0  0  0
    1.9197   -3.4841    0.6229 H   0  0  0  0  0  0  0  0  0  0  0  0
    0.5799   -5.3089    1.6717 H   0  0  0  0  0  0  0  0  0  0  0  0
   -1.7000   -4.8044    2.6100 H   0  0  0  0  0  0  0  0  0  0  0  0
   -2.6354   -2.4958    2.4098 H   0  0  0  0  0  0  0  0  0  0  0  0
   -0.8871    0.4369    1.8194 H   0  0  0  0  0  0  0  0  0  0  0  0
   -2.4991   -0.3262    1.8421 H   0  0  0  0  0  0  0  0  0  0  0  0
   -2.3537    3.8045    1.8488 H   0  0  0  0  0  0  0  0  0  0  0  0
   -0.4739    5.4704    2.1649 H   0  0  0  0  0  0  0  0  0  0  0  0
    1.6882    5.1039    0.8845 H   0  0  0  0  0  0  0  0  0  0  0  0
    1.8828    3.0434   -0.6007 H   0  0  0  0  0  0  0  0  0  0  0  0
   -2.7485   -0.1012   -1.8711 H   0  0  0  0  0  0  0  0  0  0  0  0
   -2.2080   -1.5721   -1.0333 H   0  0  0  0  0  0  0  0  0  0  0  0
   -3.7308   -2.8363    0.3074 H   0  0  0  0  0  0  0  0  0  0  0  0
   -6.0164   -3.1896    1.2564 H   0  0  0  0  0  0  0  0  0  0  0  0
   -7.7161   -1.3450    1.1527 H   0  0  0  0  0  0  0  0  0  0  0  0
   -7.1221    0.8257    0.0438 H   0  0  0  0  0  0  0  0  0  0  0  0
   -4.8503    1.1612   -0.9171 H   0  0  0  0  0  0  0  0  0  0  0  0
  1 16  1  0  0  0  0
  1  4  1  0  0  0  0
  2 23  1  0  0  0  0
  2 22  1  0  0  0  0
  3 30  1  0  0  0  0
  3 26  1  0  0  0  0
  4  9  1  0  0  0  0
  5  4  2  0  0  0  0
  5  6  1  0  0  0  0
  6  7  2  0  0  0  0
  7  8  1  0  0  0  0
  7 40  1  0  0  0  0
  8 41  1  0  0  0  0
  9 42  1  0  0  0  0
  9  8  2  0  0  0  0
 10  1  1  0  0  0  0
 10 15  1  0  0  0  0
 11 10  2  0  0  0  0
 12 11  1  0  0  0  0
 12 13  2  0  0  0  0
 13 14  1  0  0  0  0
 14 15  2  0  0  0  0
 14 46  1  0  0  0  0
 15 47  1  0  0  0  0
 16 17  2  0  0  0  0
 16 21  1  0  0  0  0
 17 18  1  0  0  0  0
 18 49  1  0  0  0  0
 18 19  2  0  0  0  0
 19 50  1  0  0  0  0
 20 19  1  0  0  0  0
 20 51  1  0  0  0  0
 21 20  2  0  0  0  0
 22 21  1  0  0  0  0
 22 52  1  0  0  0  0
 22 53  1  0  0  0  0
 23 25  1  0  0  0  0
 24 23  1  0  0  0  0
 26 23  1  6  0  0  0
 26 27  1  0  0  0  0
 27 28  2  0  0  0  0
 27 54  1  0  0  0  0
 28 55  1  0  0  0  0
 29 56  1  0  0  0  0
 29 28  1  0  0  0  0
 30 29  2  0  0  0  0
 31 32  1  0  0  0  0
 31  2  1  0  0  0  0
 32 33  1  0  0  0  0
 33 60  1  0  0  0  0
 33 34  2  0  0  0  0
 34 61  1  0  0  0  0
 35 34  1  0  0  0  0
 35 62  1  0  0  0  0
 36 35  2  0  0  0  0
 37 32  2  0  0  0  0
 37 36  1  0  0  0  0
 38  5  1  0  0  0  0
 39  6  1  0  0  0  0
 43 11  1  0  0  0  0
 44 12  1  0  0  0  0
 45 13  1  0  0  0  0
 48 17  1  0  0  0  0
 57 30  1  0  0  0  0
 58 31  1  0  0  0  0
 59 31  1  0  0  0  0
 63 36  1  0  0  0  0
 64 37  1  0  0  0  0
M  END
