1,2,3
 OpenBabel05122313063D

 49 50  0  0  1  0  0  0  0  0999 V2000
    1.5997    0.1712    0.0605 P   0  0  0  0  0  0  0  0  0  0  0  0
   -2.2077   -0.9416    0.2266 N   0  0  0  0  0  2  0  0  0  0  0  0
   -0.9314    1.1303   -0.4069 N   0  0  0  0  0  2  0  0  0  0  0  0
   -2.8215   -2.1181    0.5636 C   0  0  0  0  0  3  0  0  0  0  0  0
   -2.1655   -2.9975    0.6248 H   0  0  0  0  0  0  0  0  0  0  0  0
   -4.1777   -2.2244    0.8243 C   0  0  0  0  0  0  0  0  0  0  0  0
   -4.5943   -3.2034    1.1010 H   0  0  0  0  0  0  0  0  0  0  0  0
   -5.0019   -1.0727    0.7303 C   0  0  0  0  0  0  0  0  0  0  0  0
   -6.0821   -1.1320    0.9254 H   0  0  0  0  0  0  0  0  0  0  0  0
   -4.4049    0.1306    0.3819 C   0  0  0  0  0  0  0  0  0  0  0  0
   -5.0039    1.0475    0.2882 H   0  0  0  0  0  0  0  0  0  0  0  0
   -3.0117    0.1923    0.1390 C   0  0  0  0  0  0  0  0  0  0  0  0
   -2.2804    1.3767   -0.2133 C   0  0  1  0  0  3  0  0  0  0  0  0
   -2.8021    2.6858   -0.3421 C   0  0  0  0  0  0  0  0  0  0  0  0
   -3.8782    2.8542   -0.1970 H   0  0  0  0  0  0  0  0  0  0  0  0
   -1.9515    3.7438   -0.6341 C   0  0  0  0  0  0  0  0  0  0  0  0
   -2.3407    4.7675   -0.7284 H   0  0  0  0  0  0  0  0  0  0  0  0
   -0.5649    3.4841   -0.7910 C   0  0  0  0  0  0  0  0  0  0  0  0
    0.1428    4.2992   -0.9986 H   0  0  0  0  0  0  0  0  0  0  0  0
   -0.0904    2.1831   -0.6772 C   0  0  0  0  0  0  0  0  0  0  0  0
    1.3595    1.8081   -0.8092 C   0  0  0  0  0  0  0  0  0  0  0  0
    2.0351    2.6202   -0.4728 H   0  0  0  0  0  0  0  0  0  0  0  0
    1.5957    1.5989   -1.8760 H   0  0  0  0  0  0  0  0  0  0  0  0
    3.2146   -0.5098   -0.7148 C   0  0  0  0  0  0  0  0  0  0  0  0
    3.8014   -1.6252    0.1691 C   0  0  0  0  0  0  0  0  0  0  0  0
    4.6369   -2.1125   -0.3767 H   0  0  0  0  0  0  0  0  0  0  0  0
    3.0524   -2.4079    0.3993 H   0  0  0  0  0  0  0  0  0  0  0  0
    4.2136   -1.2397    1.1210 H   0  0  0  0  0  0  0  0  0  0  0  0
    4.2639    0.5933   -0.9487 C   0  0  0  0  0  0  0  0  0  0  0  0
    4.5701    1.1075   -0.0206 H   0  0  0  0  0  0  0  0  0  0  0  0
    3.9107    1.3574   -1.6685 H   0  0  0  0  0  0  0  0  0  0  0  0
    5.1741    0.1324   -1.3884 H   0  0  0  0  0  0  0  0  0  0  0  0
    2.8380   -1.1219   -2.0762 C   0  0  0  0  0  0  0  0  0  0  0  0
    2.3300   -0.4010   -2.7464 H   0  0  0  0  0  0  0  0  0  0  0  0
    2.1736   -1.9981   -1.9643 H   0  0  0  0  0  0  0  0  0  0  0  0
    3.7671   -1.4554   -2.5856 H   0  0  0  0  0  0  0  0  0  0  0  0
    1.8942    0.6278    1.9098 C   0  0  0  0  0  0  0  0  0  0  0  0
    1.7965   -0.6570    2.7520 C   0  0  0  0  0  0  0  0  0  0  0  0
    2.5973   -1.3859    2.5319 H   0  0  0  0  0  0  0  0  0  0  0  0
    0.8224   -1.1582    2.5863 H   0  0  0  0  0  0  0  0  0  0  0  0
    1.8677   -0.3909    3.8280 H   0  0  0  0  0  0  0  0  0  0  0  0
    0.7252    1.5418    2.3262 C   0  0  0  0  0  0  0  0  0  0  0  0
    0.7806    1.7149    3.4217 H   0  0  0  0  0  0  0  0  0  0  0  0
   -0.2491    1.0669    2.0986 H   0  0  0  0  0  0  0  0  0  0  0  0
    0.7553    2.5309    1.8293 H   0  0  0  0  0  0  0  0  0  0  0  0
    3.2197    1.3545    2.1765 C   0  0  0  0  0  0  0  0  0  0  0  0
    3.3320    2.2664    1.5555 H   0  0  0  0  0  0  0  0  0  0  0  0
    4.1021    0.7073    2.0112 H   0  0  0  0  0  0  0  0  0  0  0  0
    3.2486    1.6793    3.2389 H   0  0  0  0  0  0  0  0  0  0  0  0
  1 37  1  0  0  0  0
  2  4  1  0  0  0  0
  3 13  1  0  0  0  0
  4  5  1  0  0  0  0
  4  6  1  0  0  0  0
  6  7  1  0  0  0  0
  8  6  2  0  0  0  0
  8  9  1  0  0  0  0
 10  8  1  0  0  0  0
 11 10  1  0  0  0  0
 12  2  1  0  0  0  0
 12 10  2  0  0  0  0
 13 12  1  1  0  0  0
 14 13  1  0  0  0  0
 14 15  1  0  0  0  0
 16 14  2  0  0  0  0
 17 16  1  0  0  0  0
 18 20  2  0  0  0  0
 18 16  1  0  0  0  0
 19 18  1  0  0  0  0
 20  3  1  0  0  0  0
 21 20  1  0  0  0  0
 21 22  1  0  0  0  0
 21  1  1  0  0  0  0
 23 21  1  0  0  0  0
 24  1  1  0  0  0  0
 24 25  1  0  0  0  0
 25 27  1  0  0  0  0
 25 28  1  0  0  0  0
 26 25  1  0  0  0  0
 29 24  1  0  0  0  0
 29 30  1  0  0  0  0
 31 29  1  0  0  0  0
 32 29  1  0  0  0  0
 33 35  1  0  0  0  0
 33 24  1  0  0  0  0
 34 33  1  0  0  0  0
 36 33  1  0  0  0  0
 37 46  1  0  0  0  0
 37 42  1  0  0  0  0
 37 38  1  0  0  0  0
 38 41  1  0  0  0  0
 39 38  1  0  0  0  0
 40 38  1  0  0  0  0
 42 43  1  0  0  0  0
 44 42  1  0  0  0  0
 45 42  1  0  0  0  0
 46 49  1  0  0  0  0
 47 46  1  0  0  0  0
 48 46  1  0  0  0  0
M  END
