1,4,5
 OpenBabel05122313063D

 49 50  0  0  1  0  0  0  0  0999 V2000
    1.7131    0.1193   -0.0638 P   0  0  0  0  0  0  0  0  0  0  0  0
    1.4441    1.8671   -0.1498 N   0  0  0  0  0  0  0  0  0  0  0  0
    2.2123    2.5308   -0.0365 H   0  0  0  0  0  0  0  0  0  0  0  0
   -0.8387    1.4704   -0.1379 N   0  0  0  0  0  2  0  0  0  0  0  0
   -2.5126   -0.4760   -0.3947 N   0  0  0  0  0  2  0  0  0  0  0  0
   -3.5070   -1.3695   -0.3411 N   0  0  0  0  0  0  0  0  0  0  0  0
    0.1698    2.3799   -0.1104 C   0  0  2  0  0  3  0  0  0  0  0  0
   -0.1174    3.7652   -0.0629 C   0  0  0  0  0  0  0  0  0  0  0  0
    0.7038    4.4942   -0.0169 H   0  0  0  0  0  0  0  0  0  0  0  0
   -1.4529    4.1779   -0.0860 C   0  0  0  0  0  0  0  0  0  0  0  0
   -1.6898    5.2517   -0.0529 H   0  0  0  0  0  0  0  0  0  0  0  0
   -2.4879    3.2317   -0.1621 C   0  0  0  0  0  0  0  0  0  0  0  0
   -3.5422    3.5351   -0.2030 H   0  0  0  0  0  0  0  0  0  0  0  0
   -2.1419    1.8730   -0.1888 C   0  0  0  0  0  0  0  0  0  0  0  0
   -3.0733    0.7560   -0.2681 C   0  0  2  0  0  3  0  0  0  0  0  0
   -4.4812    0.6270   -0.1629 C   0  0  0  0  0  0  0  0  0  0  0  0
   -5.2232    1.4223   -0.0489 H   0  0  0  0  0  0  0  0  0  0  0  0
   -4.7168   -0.7439   -0.2041 C   0  0  0  0  0  0  0  0  0  0  0  0
   -5.6434   -1.3230   -0.1399 H   0  0  0  0  0  0  0  0  0  0  0  0
   -3.2063   -2.7862   -0.2560 C   0  0  0  0  0  0  0  0  0  0  0  0
   -4.1576   -3.3419   -0.1793 H   0  0  0  0  0  0  0  0  0  0  0  0
   -2.5802   -2.9512    0.6458 H   0  0  0  0  0  0  0  0  0  0  0  0
   -2.6501   -3.1147   -1.1544 H   0  0  0  0  0  0  0  0  0  0  0  0
    2.5804   -0.0787    1.6392 C   0  0  0  0  0  0  0  0  0  0  0  0
    1.7582    0.7642    2.6340 C   0  0  0  0  0  0  0  0  0  0  0  0
    2.1306    0.5548    3.6593 H   0  0  0  0  0  0  0  0  0  0  0  0
    0.6837    0.4884    2.6063 H   0  0  0  0  0  0  0  0  0  0  0  0
    1.8723    1.8515    2.4510 H   0  0  0  0  0  0  0  0  0  0  0  0
    4.0453    0.3786    1.7035 C   0  0  0  0  0  0  0  0  0  0  0  0
    4.3944    0.2797    2.7536 H   0  0  0  0  0  0  0  0  0  0  0  0
    4.1724    1.4450    1.4246 H   0  0  0  0  0  0  0  0  0  0  0  0
    4.7228   -0.2336    1.0779 H   0  0  0  0  0  0  0  0  0  0  0  0
    2.4610   -1.5683    2.0193 C   0  0  0  0  0  0  0  0  0  0  0  0
    2.9678   -2.2365    1.2962 H   0  0  0  0  0  0  0  0  0  0  0  0
    1.3940   -1.8597    2.1010 H   0  0  0  0  0  0  0  0  0  0  0  0
    2.9390   -1.7237    3.0101 H   0  0  0  0  0  0  0  0  0  0  0  0
    2.9744   -0.1361   -1.4865 C   0  0  0  0  0  0  0  0  0  0  0  0
    4.0546    0.9603   -1.5371 C   0  0  0  0  0  0  0  0  0  0  0  0
    4.6872    1.0031   -0.6343 H   0  0  0  0  0  0  0  0  0  0  0  0
    3.6078    1.9607   -1.7096 H   0  0  0  0  0  0  0  0  0  0  0  0
    4.7246    0.7604   -2.4000 H   0  0  0  0  0  0  0  0  0  0  0  0
    3.6082   -1.5300   -1.3282 C   0  0  0  0  0  0  0  0  0  0  0  0
    4.2258   -1.7518   -2.2243 H   0  0  0  0  0  0  0  0  0  0  0  0
    2.8383   -2.3235   -1.2517 H   0  0  0  0  0  0  0  0  0  0  0  0
    4.2707   -1.6009   -0.4443 H   0  0  0  0  0  0  0  0  0  0  0  0
    2.1996   -0.0874   -2.8151 C   0  0  0  0  0  0  0  0  0  0  0  0
    1.6430    0.8639   -2.9305 H   0  0  0  0  0  0  0  0  0  0  0  0
    1.4706   -0.9134   -2.8975 H   0  0  0  0  0  0  0  0  0  0  0  0
    2.9259   -0.1675   -3.6520 H   0  0  0  0  0  0  0  0  0  0  0  0
  1 24  1  0  0  0  0
  2  1  1  0  0  0  0
  2  3  1  0  0  0  0
  4  7  1  0  0  0  0
  5  6  1  0  0  0  0
  5 15  1  0  0  0  0
  6 20  1  0  0  0  0
  6 18  1  0  0  0  0
  7  2  1  6  0  0  0
  7  8  1  0  0  0  0
  8  9  1  0  0  0  0
 10  8  2  0  0  0  0
 10 11  1  0  0  0  0
 12 10  1  0  0  0  0
 13 12  1  0  0  0  0
 14 12  2  0  0  0  0
 14  4  1  0  0  0  0
 15 14  1  1  0  0  0
 15 16  1  0  0  0  0
 16 17  1  0  0  0  0
 18 16  2  0  0  0  0
 18 19  1  0  0  0  0
 20 21  1  0  0  0  0
 20 22  1  0  0  0  0
 23 20  1  0  0  0  0
 24 29  1  0  0  0  0
 24 33  1  0  0  0  0
 24 25  1  0  0  0  0
 25 26  1  0  0  0  0
 27 25  1  0  0  0  0
 28 25  1  0  0  0  0
 29 30  1  0  0  0  0
 31 29  1  0  0  0  0
 32 29  1  0  0  0  0
 33 35  1  0  0  0  0
 33 36  1  0  0  0  0
 34 33  1  0  0  0  0
 37 42  1  0  0  0  0
 37  1  1  0  0  0  0
 38 37  1  0  0  0  0
 38 39  1  0  0  0  0
 40 38  1  0  0  0  0
 41 38  1  0  0  0  0
 42 44  1  0  0  0  0
 42 45  1  0  0  0  0
 43 42  1  0  0  0  0
 46 37  1  0  0  0  0
 47 46  1  0  0  0  0
 48 46  1  0  0  0  0
 49 46  1  0  0  0  0
M  END
