1,2,3
 OpenBabel05122313063D

 48 50  0  0  0  0  0  0  0  0999 V2000
    2.1791    0.0896   -0.0923 P   0  0  0  0  0  0  0  0  0  0  0  0
   -0.3655    0.9372   -0.4097 N   0  0  0  0  0  2  0  0  0  0  0  0
   -1.6579   -1.2400    0.0205 N   0  0  0  0  0  2  0  0  0  0  0  0
    2.1402    1.3243    2.3882 C   0  0  0  0  0  0  0  0  0  0  0  0
    2.6002    1.5071    3.3819 H   0  0  0  0  0  0  0  0  0  0  0  0
    1.1992    0.7562    2.5321 H   0  0  0  0  0  0  0  0  0  0  0  0
    1.8708    2.3122    1.9587 H   0  0  0  0  0  0  0  0  0  0  0  0
   -2.4330   -0.0915    0.0137 C   0  0  0  0  0  0  0  0  0  0  0  0
    2.8102   -1.1440   -2.5084 C   0  0  0  0  0  0  0  0  0  0  0  0
    3.5620   -1.5875   -3.1945 H   0  0  0  0  0  0  0  0  0  0  0  0
    2.3226   -0.3023   -3.0400 H   0  0  0  0  0  0  0  0  0  0  0  0
    2.0269   -1.9036   -2.3077 H   0  0  0  0  0  0  0  0  0  0  0  0
   -3.8496   -0.0678    0.1595 C   0  0  0  0  0  0  0  0  0  0  0  0
   -1.5292   -3.6953   -0.1178 C   0  0  0  0  0  0  0  0  0  0  0  0
   -0.6186   -3.5091   -0.7165 H   0  0  0  0  0  0  0  0  0  0  0  0
   -2.1444   -4.4754   -0.6065 H   0  0  0  0  0  0  0  0  0  0  0  0
   -1.1957   -4.0893    0.8632 H   0  0  0  0  0  0  0  0  0  0  0  0
    3.4716   -0.7076   -1.1960 C   0  0  0  0  0  0  0  0  0  0  0  0
    4.2378    0.0716   -1.4089 H   0  0  0  0  0  0  0  0  0  0  0  0
    0.3906    2.0533   -0.6713 C   0  0  0  0  0  0  0  0  0  0  0  0
   -1.5656    3.5150   -0.4833 C   0  0  0  0  0  0  0  0  0  0  0  0
   -2.0140    4.5185   -0.5136 H   0  0  0  0  0  0  0  0  0  0  0  0
    4.1321   -1.8965   -0.4882 C   0  0  0  0  0  0  0  0  0  0  0  0
    3.3714   -2.6437   -0.1831 H   0  0  0  0  0  0  0  0  0  0  0  0
    4.6931   -1.5957    0.4186 H   0  0  0  0  0  0  0  0  0  0  0  0
    4.8473   -2.4009   -1.1708 H   0  0  0  0  0  0  0  0  0  0  0  0
    3.1060    0.5587    1.4753 C   0  0  0  0  0  0  0  0  0  0  0  0
    3.3182   -0.4258    1.9481 H   0  0  0  0  0  0  0  0  0  0  0  0
   -4.4985   -1.3209    0.2601 C   0  0  0  0  0  0  0  0  0  0  0  0
   -5.5912   -1.3730    0.3810 H   0  0  0  0  0  0  0  0  0  0  0  0
   -1.7211    1.1125   -0.2095 C   0  0  0  0  0  0  0  0  0  0  0  0
   -2.3721    2.3770   -0.2333 C   0  0  0  0  0  0  0  0  0  0  0  0
   -0.1883    3.3313   -0.7025 C   0  0  0  0  0  0  0  0  0  0  0  0
    0.4567    4.1959   -0.9197 H   0  0  0  0  0  0  0  0  0  0  0  0
    4.4242    1.3035    1.2538 C   0  0  0  0  0  0  0  0  0  0  0  0
    4.2648    2.2753    0.7412 H   0  0  0  0  0  0  0  0  0  0  0  0
    5.1492    0.7194    0.6528 H   0  0  0  0  0  0  0  0  0  0  0  0
    4.9079    1.5297    2.2277 H   0  0  0  0  0  0  0  0  0  0  0  0
    1.8468    1.7544   -0.9075 C   0  0  0  0  0  0  0  0  0  0  0  0
    2.5112    2.5623   -0.5394 H   0  0  0  0  0  0  0  0  0  0  0  0
    2.0468    1.6441   -1.9964 H   0  0  0  0  0  0  0  0  0  0  0  0
   -3.7285   -2.4801    0.1603 C   0  0  0  0  0  0  0  0  0  0  0  0
   -4.2086   -3.4694    0.1840 H   0  0  0  0  0  0  0  0  0  0  0  0
   -4.5032    1.2144    0.1637 C   0  0  0  0  0  0  0  0  0  0  0  0
   -5.5952    1.2428    0.3028 H   0  0  0  0  0  0  0  0  0  0  0  0
   -2.3167   -2.4260    0.0335 C   0  0  0  0  0  0  0  0  0  0  0  0
   -3.7964    2.3854   -0.0167 C   0  0  0  0  0  0  0  0  0  0  0  0
   -4.3207    3.3536   -0.0152 H   0  0  0  0  0  0  0  0  0  0  0  0
  1 27  1  0  0  0  0
  2 31  1  0  0  0  0
  3 46  1  0  0  0  0
  4  6  1  0  0  0  0
  4  5  1  0  0  0  0
  7  4  1  0  0  0  0
  8  3  1  0  0  0  0
  8 13  1  0  0  0  0
  9 12  1  0  0  0  0
  9 18  1  0  0  0  0
 10  9  1  0  0  0  0
 11  9  1  0  0  0  0
 13 44  1  0  0  0  0
 13 29  2  0  0  0  0
 14 46  1  0  0  0  0
 14 17  1  0  0  0  0
 15 14  1  0  0  0  0
 16 14  1  0  0  0  0
 18 23  1  0  0  0  0
 18  1  1  0  0  0  0
 19 18  1  0  0  0  0
 20  2  1  0  0  0  0
 21 32  2  0  0  0  0
 22 21  1  0  0  0  0
 23 24  1  0  0  0  0
 23 25  1  0  0  0  0
 26 23  1  0  0  0  0
 27 28  1  0  0  0  0
 27  4  1  0  0  0  0
 29 30  1  0  0  0  0
 31  8  2  0  0  0  0
 32 31  1  0  0  0  0
 32 47  1  0  0  0  0
 33 20  2  0  0  0  0
 33 21  1  0  0  0  0
 34 33  1  0  0  0  0
 35 27  1  0  0  0  0
 35 38  1  0  0  0  0
 36 35  1  0  0  0  0
 37 35  1  0  0  0  0
 39 20  1  0  0  0  0
 39 40  1  0  0  0  0
 39  1  1  0  0  0  0
 41 39  1  0  0  0  0
 42 43  1  0  0  0  0
 42 29  1  0  0  0  0
 44 45  1  0  0  0  0
 46 42  2  0  0  0  0
 47 48  1  0  0  0  0
 47 44  2  0  0  0  0
M  END
