1,4,5
 OpenBabel05122313063D

 66 68  0  0  0  0  0  0  0  0999 V2000
    1.3649   -0.5059    1.0028 P   0  0  0  0  0  0  0  0  0  0  0  0
   -1.4633    3.0782    0.7317 Si  0  0  0  0  0  0  0  0  0  0  0  0
   -1.6316   -3.2227   -0.5673 Si  0  0  0  0  0  0  0  0  0  0  0  0
   -0.2561    1.9943   -0.0109 N   0  0  0  0  0  2  0  0  0  0  0  0
   -1.4018   -1.5688    0.0335 N   0  0  0  0  0  2  0  0  0  0  0  0
    1.7177    1.0726    1.9182 C   0  0  0  0  0  0  0  0  0  0  0  0
    0.7609    1.3057    2.4277 H   0  0  0  0  0  0  0  0  0  0  0  0
    2.5051    0.9628    2.6899 H   0  0  0  0  0  0  0  0  0  0  0  0
    0.5180   -1.5861    2.2642 C   0  0  0  0  0  0  0  0  0  0  0  0
    0.6032   -2.6129    1.8560 H   0  0  0  0  0  0  0  0  0  0  0  0
    1.0729   -1.5568    3.2236 H   0  0  0  0  0  0  0  0  0  0  0  0
    2.0635    2.1110    0.8849 C   0  0  0  0  0  0  0  0  0  0  0  0
    1.0710    2.5012   -0.0710 C   0  0  0  0  0  0  0  0  0  0  0  0
    1.4605    3.3900   -1.1035 C   0  0  0  0  0  0  0  0  0  0  0  0
    0.7018    3.6789   -1.8454 H   0  0  0  0  0  0  0  0  0  0  0  0
    2.7672    3.8864   -1.1953 C   0  0  0  0  0  0  0  0  0  0  0  0
    3.0333    4.5743   -2.0125 H   0  0  0  0  0  0  0  0  0  0  0  0
    3.7330    3.4999   -0.2531 C   0  0  0  0  0  0  0  0  0  0  0  0
    4.7633    3.8800   -0.3192 H   0  0  0  0  0  0  0  0  0  0  0  0
    3.3744    2.6109    0.7704 C   0  0  0  0  0  0  0  0  0  0  0  0
    4.1305    2.2894    1.5046 H   0  0  0  0  0  0  0  0  0  0  0  0
   -3.2093    2.4244    0.4627 C   0  0  0  0  0  0  0  0  0  0  0  0
   -3.9161    3.0855    1.0068 H   0  0  0  0  0  0  0  0  0  0  0  0
   -3.3328    1.4003    0.8631 H   0  0  0  0  0  0  0  0  0  0  0  0
   -3.4906    2.4201   -0.6074 H   0  0  0  0  0  0  0  0  0  0  0  0
   -1.1469    3.2071    2.5971 C   0  0  0  0  0  0  0  0  0  0  0  0
   -1.3174    2.2280    3.0916 H   0  0  0  0  0  0  0  0  0  0  0  0
   -1.8347    3.9453    3.0601 H   0  0  0  0  0  0  0  0  0  0  0  0
   -0.1089    3.5359    2.8100 H   0  0  0  0  0  0  0  0  0  0  0  0
   -1.3504    4.8168   -0.0142 C   0  0  0  0  0  0  0  0  0  0  0  0
   -0.3475    5.2667    0.1274 H   0  0  0  0  0  0  0  0  0  0  0  0
   -2.0952    5.4819    0.4710 H   0  0  0  0  0  0  0  0  0  0  0  0
   -1.5689    4.7988   -1.1018 H   0  0  0  0  0  0  0  0  0  0  0  0
   -0.9261   -1.1990    2.4482 C   0  0  0  0  0  0  0  0  0  0  0  0
   -1.8407   -1.2568    1.3466 C   0  0  0  0  0  0  0  0  0  0  0  0
   -3.2032   -0.9578    1.6014 C   0  0  0  0  0  0  0  0  0  0  0  0
   -3.9075   -1.0196    0.7595 H   0  0  0  0  0  0  0  0  0  0  0  0
   -3.6510   -0.5753    2.8728 C   0  0  0  0  0  0  0  0  0  0  0  0
   -4.7154   -0.3415    3.0284 H   0  0  0  0  0  0  0  0  0  0  0  0
   -2.7400   -0.4717    3.9345 C   0  0  0  0  0  0  0  0  0  0  0  0
   -3.0767   -0.1567    4.9333 H   0  0  0  0  0  0  0  0  0  0  0  0
   -1.3914   -0.7866    3.7119 C   0  0  0  0  0  0  0  0  0  0  0  0
   -0.6727   -0.7291    4.5454 H   0  0  0  0  0  0  0  0  0  0  0  0
   -3.4342   -3.7752   -0.3774 C   0  0  0  0  0  0  0  0  0  0  0  0
   -3.7576   -3.7296    0.6823 H   0  0  0  0  0  0  0  0  0  0  0  0
   -3.5501   -4.8238   -0.7227 H   0  0  0  0  0  0  0  0  0  0  0  0
   -4.1243   -3.1436   -0.9726 H   0  0  0  0  0  0  0  0  0  0  0  0
   -0.5640   -4.4654    0.3916 C   0  0  0  0  0  0  0  0  0  0  0  0
    0.5193   -4.2639    0.2626 H   0  0  0  0  0  0  0  0  0  0  0  0
   -0.7595   -5.4979    0.0335 H   0  0  0  0  0  0  0  0  0  0  0  0
   -0.7964   -4.4405    1.4762 H   0  0  0  0  0  0  0  0  0  0  0  0
   -1.1308   -3.2632   -2.3847 C   0  0  0  0  0  0  0  0  0  0  0  0
   -1.7735   -2.6020   -2.9995 H   0  0  0  0  0  0  0  0  0  0  0  0
   -1.2268   -4.2961   -2.7779 H   0  0  0  0  0  0  0  0  0  0  0  0
   -0.0798   -2.9382   -2.5210 H   0  0  0  0  0  0  0  0  0  0  0  0
    2.9737   -1.3606    0.7628 C   0  0  0  0  0  0  0  0  0  0  0  0
    4.1324   -1.1107    1.5237 C   0  0  0  0  0  0  0  0  0  0  0  0
    4.1209   -0.3510    2.3195 H   0  0  0  0  0  0  0  0  0  0  0  0
    5.3124   -1.8288    1.2742 C   0  0  0  0  0  0  0  0  0  0  0  0
    6.2137   -1.6218    1.8713 H   0  0  0  0  0  0  0  0  0  0  0  0
    5.3447   -2.8085    0.2693 C   0  0  0  0  0  0  0  0  0  0  0  0
    6.2715   -3.3699    0.0763 H   0  0  0  0  0  0  0  0  0  0  0  0
    4.1942   -3.0639   -0.4949 C   0  0  0  0  0  0  0  0  0  0  0  0
    4.2158   -3.8237   -1.2908 H   0  0  0  0  0  0  0  0  0  0  0  0
    3.0191   -2.3375   -0.2568 C   0  0  0  0  0  0  0  0  0  0  0  0
    2.1244   -2.5080   -0.8779 H   0  0  0  0  0  0  0  0  0  0  0  0
  1  6  1  0  0  0  0
  1  9  1  0  0  0  0
  2 26  1  0  0  0  0
  3 44  1  0  0  0  0
  3  5  1  0  0  0  0
  3 48  1  0  0  0  0
  4  2  1  0  0  0  0
  5 35  1  0  0  0  0
  6  7  1  0  0  0  0
  6  8  1  0  0  0  0
  9 34  1  0  0  0  0
  9 11  1  0  0  0  0
 10  9  1  0  0  0  0
 12  6  1  0  0  0  0
 13  4  1  0  0  0  0
 13 12  2  0  0  0  0
 14 13  1  0  0  0  0
 15 14  1  0  0  0  0
 16 14  2  0  0  0  0
 16 18  1  0  0  0  0
 17 16  1  0  0  0  0
 18 20  2  0  0  0  0
 19 18  1  0  0  0  0
 20 12  1  0  0  0  0
 20 21  1  0  0  0  0
 22  2  1  0  0  0  0
 22 24  1  0  0  0  0
 22 23  1  0  0  0  0
 25 22  1  0  0  0  0
 26 29  1  0  0  0  0
 26 28  1  0  0  0  0
 26 27  1  0  0  0  0
 30 31  1  0  0  0  0
 30 32  1  0  0  0  0
 30  2  1  0  0  0  0
 33 30  1  0  0  0  0
 34 42  1  0  0  0  0
 35 36  1  0  0  0  0
 35 34  2  0  0  0  0
 36 38  2  0  0  0  0
 37 36  1  0  0  0  0
 38 39  1  0  0  0  0
 38 40  1  0  0  0  0
 40 41  1  0  0  0  0
 42 40  2  0  0  0  0
 42 43  1  0  0  0  0
 44 45  1  0  0  0  0
 46 44  1  0  0  0  0
 47 44  1  0  0  0  0
 48 51  1  0  0  0  0
 49 48  1  0  0  0  0
 50 48  1  0  0  0  0
 52  3  1  0  0  0  0
 53 52  1  0  0  0  0
 54 52  1  0  0  0  0
 55 52  1  0  0  0  0
 56  1  1  0  0  0  0
 56 57  1  0  0  0  0
 57 58  1  0  0  0  0
 59 57  2  0  0  0  0
 59 60  1  0  0  0  0
 61 59  1  0  0  0  0
 62 61  1  0  0  0  0
 63 65  1  0  0  0  0
 63 61  2  0  0  0  0
 64 63  1  0  0  0  0
 65 56  2  0  0  0  0
 66 65  1  0  0  0  0
M  END
