1,2,3
 OpenBabel05122313063D

 54 56  0  0  0  0  0  0  0  0999 V2000
    0.3768   -1.5606    0.0831 P   0  0  0  0  0  0  0  0  0  0  0  0
   -2.2396   -0.4155    0.7632 N   0  0  0  0  0  2  0  0  0  0  0  0
    0.1644    1.2765   -0.7486 N   0  0  0  0  0  2  0  0  0  0  0  0
   -0.3140   -3.0092    1.0024 C   0  0  0  0  0  0  0  0  0  0  0  0
   -0.0194   -3.9653    0.5206 H   0  0  0  0  0  0  0  0  0  0  0  0
    0.1843   -2.9658    1.9946 H   0  0  0  0  0  0  0  0  0  0  0  0
   -1.8383   -2.9049    1.1595 C   0  0  0  0  0  0  0  0  0  0  0  0
   -2.3341   -3.1227    0.1910 H   0  0  0  0  0  0  0  0  0  0  0  0
   -2.1776   -3.6955    1.8626 H   0  0  0  0  0  0  0  0  0  0  0  0
   -2.3247   -1.5451    1.7014 C   0  0  0  0  0  0  0  0  0  0  0  0
   -3.3747   -1.6335    2.0542 H   0  0  0  0  0  0  0  0  0  0  0  0
   -1.7214   -1.2892    2.5995 H   0  0  0  0  0  0  0  0  0  0  0  0
   -3.3259   -0.1618   -0.0830 C   0  0  0  0  0  0  0  0  0  0  0  0
   -4.2975   -1.1496   -0.4006 C   0  0  0  0  0  0  0  0  0  0  0  0
   -4.2330   -2.1538    0.0386 H   0  0  0  0  0  0  0  0  0  0  0  0
   -5.3506   -0.8638   -1.2802 C   0  0  0  0  0  0  0  0  0  0  0  0
   -6.0855   -1.6517   -1.5074 H   0  0  0  0  0  0  0  0  0  0  0  0
   -5.4754    0.4037   -1.8687 C   0  0  0  0  0  0  0  0  0  0  0  0
   -6.3037    0.6204   -2.5591 H   0  0  0  0  0  0  0  0  0  0  0  0
   -4.5362    1.3967   -1.5434 C   0  0  0  0  0  0  0  0  0  0  0  0
   -4.6337    2.4089   -1.9651 H   0  0  0  0  0  0  0  0  0  0  0  0
   -3.4835    1.1284   -0.6622 C   0  0  0  0  0  0  0  0  0  0  0  0
   -2.7996    1.9370   -0.3621 H   0  0  0  0  0  0  0  0  0  0  0  0
   -0.2450   -1.7506   -1.6576 C   0  0  0  0  0  0  0  0  0  0  0  0
    0.1333   -2.7007   -2.0899 H   0  0  0  0  0  0  0  0  0  0  0  0
   -1.3516   -1.8251   -1.5954 H   0  0  0  0  0  0  0  0  0  0  0  0
    0.1613   -0.5511   -2.5217 C   0  0  0  0  0  0  0  0  0  0  0  0
   -0.2229   -0.7050   -3.5528 H   0  0  0  0  0  0  0  0  0  0  0  0
    1.2677   -0.5127   -2.6004 H   0  0  0  0  0  0  0  0  0  0  0  0
   -0.3876    0.8008   -2.0176 C   0  0  0  0  0  0  0  0  0  0  0  0
   -0.2294    1.5807   -2.7947 H   0  0  0  0  0  0  0  0  0  0  0  0
   -1.4898    0.7116   -1.9085 H   0  0  0  0  0  0  0  0  0  0  0  0
    1.3893    1.9569   -0.7537 C   0  0  0  0  0  0  0  0  0  0  0  0
    1.8020    2.6493    0.4187 C   0  0  0  0  0  0  0  0  0  0  0  0
    1.1143    2.7219    1.2743 H   0  0  0  0  0  0  0  0  0  0  0  0
    3.0517    3.2729    0.4816 C   0  0  0  0  0  0  0  0  0  0  0  0
    3.3404    3.7954    1.4064 H   0  0  0  0  0  0  0  0  0  0  0  0
    3.9207    3.2585   -0.6231 C   0  0  0  0  0  0  0  0  0  0  0  0
    4.9015    3.7538   -0.5709 H   0  0  0  0  0  0  0  0  0  0  0  0
    3.5053    2.6209   -1.8021 C   0  0  0  0  0  0  0  0  0  0  0  0
    4.1621    2.6136   -2.6857 H   0  0  0  0  0  0  0  0  0  0  0  0
    2.2617    1.9792   -1.8747 C   0  0  0  0  0  0  0  0  0  0  0  0
    1.9797    1.4790   -2.8099 H   0  0  0  0  0  0  0  0  0  0  0  0
    2.1792   -1.8678   -0.0676 C   0  0  0  0  0  0  0  0  0  0  0  0
    3.0851   -0.8677    0.3405 C   0  0  0  0  0  0  0  0  0  0  0  0
    2.7095    0.0581    0.7982 H   0  0  0  0  0  0  0  0  0  0  0  0
    4.4652   -1.0569    0.1701 C   0  0  0  0  0  0  0  0  0  0  0  0
    5.1607   -0.2634    0.4819 H   0  0  0  0  0  0  0  0  0  0  0  0
    4.9505   -2.2448   -0.3968 C   0  0  0  0  0  0  0  0  0  0  0  0
    6.0334   -2.3912   -0.5294 H   0  0  0  0  0  0  0  0  0  0  0  0
    4.0532   -3.2500   -0.7961 C   0  0  0  0  0  0  0  0  0  0  0  0
    4.4310   -4.1846   -1.2383 H   0  0  0  0  0  0  0  0  0  0  0  0
    2.6732   -3.0617   -0.6358 C   0  0  0  0  0  0  0  0  0  0  0  0
    1.9787   -3.8534   -0.9603 H   0  0  0  0  0  0  0  0  0  0  0  0
  1  4  1  0  0  0  0
  2 10  1  0  0  0  0
  4  7  1  0  0  0  0
  4  6  1  0  0  0  0
  5  4  1  0  0  0  0
  7 10  1  0  0  0  0
  7  9  1  0  0  0  0
  8  7  1  0  0  0  0
 10 11  1  0  0  0  0
 10 12  1  0  0  0  0
 13  2  1  0  0  0  0
 14 13  1  0  0  0  0
 14 15  1  0  0  0  0
 16 14  2  0  0  0  0
 17 16  1  0  0  0  0
 18 20  2  0  0  0  0
 18 16  1  0  0  0  0
 19 18  1  0  0  0  0
 20 22  1  0  0  0  0
 21 20  1  0  0  0  0
 22 23  1  0  0  0  0
 22 13  2  0  0  0  0
 24 26  1  0  0  0  0
 24  1  1  0  0  0  0
 25 24  1  0  0  0  0
 27 30  1  0  0  0  0
 27 24  1  0  0  0  0
 28 27  1  0  0  0  0
 29 27  1  0  0  0  0
 30 32  1  0  0  0  0
 30  3  1  0  0  0  0
 31 30  1  0  0  0  0
 33  3  1  0  0  0  0
 33 34  1  0  0  0  0
 34 36  2  0  0  0  0
 34 35  1  0  0  0  0
 36 37  1  0  0  0  0
 38 39  1  0  0  0  0
 38 36  1  0  0  0  0
 40 38  2  0  0  0  0
 41 40  1  0  0  0  0
 42 40  1  0  0  0  0
 42 33  2  0  0  0  0
 43 42  1  0  0  0  0
 44  1  1  0  0  0  0
 44 45  1  0  0  0  0
 45 46  1  0  0  0  0
 47 45  2  0  0  0  0
 47 48  1  0  0  0  0
 49 47  1  0  0  0  0
 50 49  1  0  0  0  0
 51 53  1  0  0  0  0
 51 49  2  0  0  0  0
 52 51  1  0  0  0  0
 53 44  2  0  0  0  0
 54 53  1  0  0  0  0
M  END
