1,2,4
 OpenBabel05122313063D

 53 55  0  0  1  0  0  0  0  0999 V2000
   -0.1178    1.3957    0.0988 P   0  0  0  0  0  0  0  0  0  0  0  0
   -1.8072   -2.4930   -0.3062 N   0  0  0  0  0  0  0  0  0  0  0  0
   -0.8518   -2.6995    0.0821 H   0  0  0  0  0  0  0  0  0  0  0  0
   -1.5276   -0.6189    1.5106 N   0  0  0  0  0  2  0  0  0  0  0  0
   -2.8250   -2.4938    0.7571 C   0  0  0  0  0  0  0  0  0  0  0  0
   -3.0330   -3.5057    1.1677 H   0  0  0  0  0  0  0  0  0  0  0  0
   -3.7813   -2.1141    0.3330 H   0  0  0  0  0  0  0  0  0  0  0  0
   -2.3872   -1.5932    1.8784 C   0  0  1  0  0  3  0  0  0  0  0  0
   -2.8132   -1.7304    3.2071 C   0  0  0  0  0  0  0  0  0  0  0  0
   -3.5138   -2.5328    3.4797 H   0  0  0  0  0  0  0  0  0  0  0  0
   -2.3284   -0.8290    4.1651 C   0  0  0  0  0  0  0  0  0  0  0  0
   -2.6578   -0.8986    5.2124 H   0  0  0  0  0  0  0  0  0  0  0  0
   -1.3936    0.1427    3.7799 C   0  0  0  0  0  0  0  0  0  0  0  0
   -0.9620    0.8373    4.5145 H   0  0  0  0  0  0  0  0  0  0  0  0
   -0.9832    0.2094    2.4387 C   0  0  0  0  0  0  0  0  0  0  0  0
    0.1010    1.1177    1.9443 C   0  0  0  0  0  0  0  0  0  0  0  0
    1.0571    0.5531    2.0057 H   0  0  0  0  0  0  0  0  0  0  0  0
    0.1834    2.0460    2.5421 H   0  0  0  0  0  0  0  0  0  0  0  0
   -2.0930   -3.4057   -1.4673 C   0  0  0  0  0  0  0  0  0  0  0  0
   -0.7738   -3.6292   -2.2211 C   0  0  0  0  0  0  0  0  0  0  0  0
   -0.9478   -4.3023   -3.0833 H   0  0  0  0  0  0  0  0  0  0  0  0
   -0.0150   -4.1007   -1.5640 H   0  0  0  0  0  0  0  0  0  0  0  0
   -0.3545   -2.6827   -2.6032 H   0  0  0  0  0  0  0  0  0  0  0  0
   -2.6018   -4.7794   -0.9776 C   0  0  0  0  0  0  0  0  0  0  0  0
   -3.6181   -4.7274   -0.5392 H   0  0  0  0  0  0  0  0  0  0  0  0
   -1.9136   -5.2180   -0.2254 H   0  0  0  0  0  0  0  0  0  0  0  0
   -2.6533   -5.4809   -1.8331 H   0  0  0  0  0  0  0  0  0  0  0  0
   -3.1382   -2.7660   -2.3929 C   0  0  0  0  0  0  0  0  0  0  0  0
   -4.0655   -2.4990   -1.8472 H   0  0  0  0  0  0  0  0  0  0  0  0
   -3.4166   -3.4776   -3.1956 H   0  0  0  0  0  0  0  0  0  0  0  0
   -2.7441   -1.8465   -2.8623 H   0  0  0  0  0  0  0  0  0  0  0  0
    1.5784    1.8902   -0.4323 C   0  0  0  0  0  0  0  0  0  0  0  0
    1.9837    1.6425   -1.7595 C   0  0  0  0  0  0  0  0  0  0  0  0
    1.2882    1.1744   -2.4698 H   0  0  0  0  0  0  0  0  0  0  0  0
    3.2788    1.9861   -2.1798 C   0  0  0  0  0  0  0  0  0  0  0  0
    3.5849    1.7787   -3.2163 H   0  0  0  0  0  0  0  0  0  0  0  0
    4.1804    2.5785   -1.2832 C   0  0  0  0  0  0  0  0  0  0  0  0
    5.1992    2.8345   -1.6112 H   0  0  0  0  0  0  0  0  0  0  0  0
    3.7771    2.8464    0.0353 C   0  0  0  0  0  0  0  0  0  0  0  0
    4.4763    3.3187    0.7422 H   0  0  0  0  0  0  0  0  0  0  0  0
    2.4830    2.5094    0.4567 C   0  0  0  0  0  0  0  0  0  0  0  0
    2.1823    2.7323    1.4909 H   0  0  0  0  0  0  0  0  0  0  0  0
   -1.0323    2.9971    0.0295 C   0  0  0  0  0  0  0  0  0  0  0  0
   -2.2839    3.0840    0.6766 C   0  0  0  0  0  0  0  0  0  0  0  0
   -2.6897    2.2123    1.2125 H   0  0  0  0  0  0  0  0  0  0  0  0
   -3.0260    4.2715    0.6284 C   0  0  0  0  0  0  0  0  0  0  0  0
   -3.9995    4.3266    1.1388 H   0  0  0  0  0  0  0  0  0  0  0  0
   -2.5374    5.3811   -0.0813 C   0  0  0  0  0  0  0  0  0  0  0  0
   -3.1255    6.3103   -0.1261 H   0  0  0  0  0  0  0  0  0  0  0  0
   -1.3009    5.2970   -0.7383 C   0  0  0  0  0  0  0  0  0  0  0  0
   -0.9141    6.1606   -1.3007 H   0  0  0  0  0  0  0  0  0  0  0  0
   -0.5483    4.1131   -0.6813 C   0  0  0  0  0  0  0  0  0  0  0  0
    0.4243    4.0572   -1.1925 H   0  0  0  0  0  0  0  0  0  0  0  0
  1 16  1  0  0  0  0
  2  3  1  0  0  0  0
  2  5  1  0  0  0  0
  4  8  1  0  0  0  0
  4 15  1  0  0  0  0
  5  6  1  0  0  0  0
  7  5  1  0  0  0  0
  8  5  1  1  0  0  0
  8  9  1  0  0  0  0
  9 10  1  0  0  0  0
  9 11  2  0  0  0  0
 11 12  1  0  0  0  0
 13 11  1  0  0  0  0
 13 14  1  0  0  0  0
 15 13  2  0  0  0  0
 16 17  1  0  0  0  0
 16 15  1  0  0  0  0
 16 18  1  0  0  0  0
 19 24  1  0  0  0  0
 19  2  1  0  0  0  0
 20 22  1  0  0  0  0
 20 19  1  0  0  0  0
 21 20  1  0  0  0  0
 23 20  1  0  0  0  0
 24 25  1  0  0  0  0
 24 26  1  0  0  0  0
 27 24  1  0  0  0  0
 28 29  1  0  0  0  0
 28 19  1  0  0  0  0
 30 28  1  0  0  0  0
 31 28  1  0  0  0  0
 32  1  1  0  0  0  0
 32 41  1  0  0  0  0
 33 32  2  0  0  0  0
 34 33  1  0  0  0  0
 35 33  1  0  0  0  0
 35 37  2  0  0  0  0
 36 35  1  0  0  0  0
 37 39  1  0  0  0  0
 38 37  1  0  0  0  0
 39 41  2  0  0  0  0
 39 40  1  0  0  0  0
 41 42  1  0  0  0  0
 43  1  1  0  0  0  0
 43 44  1  0  0  0  0
 44 45  1  0  0  0  0
 46 44  2  0  0  0  0
 46 47  1  0  0  0  0
 48 46  1  0  0  0  0
 49 48  1  0  0  0  0
 50 52  1  0  0  0  0
 50 48  2  0  0  0  0
 51 50  1  0  0  0  0
 52 43  2  0  0  0  0
 53 52  1  0  0  0  0
M  END
