1,2,3
 OpenBabel05122313063D

 46 48  0  0  0  0  0  0  0  0999 V2000
    2.4365   -0.0705   -0.1141 N   0  0  0  0  0  2  0  0  0  0  0  0
    0.3170    1.2764   -0.2352 N   0  0  0  0  0  2  0  0  0  0  0  0
   -1.6485   -0.6872   -0.0667 P   0  0  0  0  0  0  0  0  0  0  0  0
    3.4857   -0.9109    0.0256 C   0  0  0  0  0  3  0  0  0  0  0  0
    3.2280   -1.9669    0.1918 H   0  0  0  0  0  0  0  0  0  0  0  0
    4.8074   -0.4711   -0.0585 C   0  0  0  0  0  0  0  0  0  0  0  0
    5.6278   -1.1922    0.0632 H   0  0  0  0  0  0  0  0  0  0  0  0
    5.0611    0.8929   -0.3025 C   0  0  0  0  0  0  0  0  0  0  0  0
    6.0924    1.2664   -0.3836 H   0  0  0  0  0  0  0  0  0  0  0  0
    3.9818    1.7687   -0.4306 C   0  0  0  0  0  0  0  0  0  0  0  0
    4.1456    2.8403   -0.6095 H   0  0  0  0  0  0  0  0  0  0  0  0
    2.6692    1.2668   -0.3167 C   0  0  0  0  0  0  0  0  0  0  0  0
    1.4455    2.0445   -0.3729 C   0  0  0  0  0  0  0  0  0  0  0  0
    1.3691    3.4525   -0.5258 C   0  0  0  0  0  0  0  0  0  0  0  0
    2.2992    4.0225   -0.6572 H   0  0  0  0  0  0  0  0  0  0  0  0
    0.1482    4.0999   -0.4852 C   0  0  0  0  0  0  0  0  0  0  0  0
    0.0804    5.1926   -0.5880 H   0  0  0  0  0  0  0  0  0  0  0  0
   -1.0413    3.3326   -0.2835 C   0  0  0  0  0  0  0  0  0  0  0  0
   -2.3384    3.9045   -0.1763 C   0  0  0  0  0  3  0  0  0  0  0  0
   -2.4398    4.9976   -0.2583 H   0  0  0  0  0  0  0  0  0  0  0  0
   -3.4585    3.1060    0.0363 C   0  0  0  0  0  0  0  0  0  0  0  0
   -4.4527    3.5682    0.1282 H   0  0  0  0  0  0  0  0  0  0  0  0
   -3.3297    1.6993    0.1283 C   0  0  0  0  0  0  0  0  0  0  0  0
   -4.2257    1.0814    0.2874 H   0  0  0  0  0  0  0  0  0  0  0  0
   -2.0736    1.0982    0.0193 C   0  0  0  0  0  0  0  0  0  0  0  0
   -0.9221    1.9092   -0.1695 C   0  0  0  0  0  0  0  0  0  0  0  0
   -2.3246   -1.1611   -1.7684 C   0  0  0  0  0  0  0  0  0  0  0  0
   -1.9238   -2.1906   -1.8974 H   0  0  0  0  0  0  0  0  0  0  0  0
   -1.6798   -0.2628   -2.8315 C   0  0  0  0  0  0  0  0  0  0  0  0
   -1.9275   -0.6383   -3.8457 H   0  0  0  0  0  0  0  0  0  0  0  0
   -0.5770   -0.2501   -2.7352 H   0  0  0  0  0  0  0  0  0  0  0  0
   -2.0536    0.7793   -2.7569 H   0  0  0  0  0  0  0  0  0  0  0  0
   -3.8482   -1.1719   -1.9008 C   0  0  0  0  0  0  0  0  0  0  0  0
   -4.2814   -0.1648   -1.7293 H   0  0  0  0  0  0  0  0  0  0  0  0
   -4.3413   -1.8860   -1.2127 H   0  0  0  0  0  0  0  0  0  0  0  0
   -4.1269   -1.4713   -2.9329 H   0  0  0  0  0  0  0  0  0  0  0  0
   -2.7099   -1.6361    1.1528 C   0  0  0  0  0  0  0  0  0  0  0  0
   -3.6997   -1.7467    0.6611 H   0  0  0  0  0  0  0  0  0  0  0  0
   -2.9076   -0.9208    2.4933 C   0  0  0  0  0  0  0  0  0  0  0  0
   -3.5456   -1.5475    3.1514 H   0  0  0  0  0  0  0  0  0  0  0  0
   -3.4033    0.0624    2.3772 H   0  0  0  0  0  0  0  0  0  0  0  0
   -1.9371   -0.7538    2.9992 H   0  0  0  0  0  0  0  0  0  0  0  0
   -2.0772   -3.0262    1.3215 C   0  0  0  0  0  0  0  0  0  0  0  0
   -1.0823   -2.9380    1.8025 H   0  0  0  0  0  0  0  0  0  0  0  0
   -1.9332   -3.5458    0.3528 H   0  0  0  0  0  0  0  0  0  0  0  0
   -2.7219   -3.6630    1.9619 H   0  0  0  0  0  0  0  0  0  0  0  0
  1  4  1  0  0  0  0
  2 26  1  0  0  0  0
  3 25  1  0  0  0  0
  3 37  1  0  0  0  0
  4  5  1  0  0  0  0
  6  4  1  0  0  0  0
  6  7  1  0  0  0  0
  8  6  2  0  0  0  0
  9  8  1  0  0  0  0
 10 12  2  0  0  0  0
 10  8  1  0  0  0  0
 11 10  1  0  0  0  0
 12  1  1  0  0  0  0
 13 12  1  0  0  0  0
 13  2  1  0  0  0  0
 14 16  1  0  0  0  0
 14 13  2  0  0  0  0
 15 14  1  0  0  0  0
 16 18  2  0  0  0  0
 17 16  1  0  0  0  0
 18 19  1  0  0  0  0
 18 26  1  0  0  0  0
 19 21  1  0  0  0  0
 20 19  1  0  0  0  0
 21 22  1  0  0  0  0
 21 23  2  0  0  0  0
 23 24  1  0  0  0  0
 25 23  1  0  0  0  0
 26 25  2  0  0  0  0
 27  3  1  0  0  0  0
 28 27  1  0  0  0  0
 29 32  1  0  0  0  0
 29 31  1  0  0  0  0
 29 27  1  0  0  0  0
 30 29  1  0  0  0  0
 33 27  1  0  0  0  0
 33 34  1  0  0  0  0
 33 35  1  0  0  0  0
 36 33  1  0  0  0  0
 37 43  1  0  0  0  0
 37 39  1  0  0  0  0
 38 37  1  0  0  0  0
 39 42  1  0  0  0  0
 39 40  1  0  0  0  0
 41 39  1  0  0  0  0
 43 44  1  0  0  0  0
 43 46  1  0  0  0  0
 45 43  1  0  0  0  0
M  END
