1,2,3
 OpenBabel05122313063D

 70 76  0  0  0  0  0  0  0  0999 V2000
   -0.0110    1.2261    0.5743 P   0  0  0  0  0  0  0  0  0  0  0  0
   -3.1255   -1.6957   -0.4655 N   0  0  0  0  0  2  0  0  0  0  0  0
   -0.4093   -1.6584   -0.8373 N   0  0  0  0  0  0  0  0  0  0  0  0
    1.1180    0.1372    1.5882 C   0  0  0  0  0  0  0  0  0  0  0  0
    2.3831    2.6120    0.0728 C   0  0  0  0  0  0  0  0  0  0  0  0
    2.4601   -1.9192    1.7231 C   0  0  0  0  0  0  0  0  0  0  0  0
    1.7932   -0.9116    0.9429 C   0  0  0  0  0  0  0  0  0  0  0  0
   -1.2278   -2.5603   -1.6832 C   0  0  0  0  0  0  0  0  0  0  0  0
    4.3126   -0.1932   -0.2963 C   0  0  0  0  0  0  0  0  0  0  0  0
    1.8737   -0.6712    3.7651 C   0  0  0  0  0  0  0  0  0  0  0  0
    3.3798   -0.5672   -2.5398 C   0  0  0  0  0  0  0  0  0  0  0  0
    1.2462    2.0270   -0.5289 C   0  0  0  0  0  0  0  0  0  0  0  0
    1.1944    0.2623    3.0027 C   0  0  0  0  0  0  0  0  0  0  0  0
    4.6422   -0.2053   -3.0918 C   0  0  0  0  0  0  0  0  0  0  0  0
   -0.5158    2.5938    1.7021 C   0  0  0  0  0  0  0  0  0  0  0  0
   -4.3471   -1.7889    0.1025 C   0  0  0  0  0  3  0  0  0  0  0  0
   -4.5519   -4.0948   -0.5857 C   0  0  0  0  0  0  0  0  0  0  0  0
   -2.5815   -2.7830   -1.0713 C   0  0  0  0  0  0  0  0  0  0  0  0
   -5.0960   -2.9689    0.0474 C   0  0  0  0  0  0  0  0  0  0  0  0
    5.7027    0.1460   -2.2712 C   0  0  0  0  0  0  0  0  0  0  0  0
    2.4919   -1.7996    3.1597 C   0  0  0  0  0  0  0  0  0  0  0  0
   -1.3447    2.2658    2.7995 C   0  0  0  0  0  0  0  0  0  0  0  0
   -0.2177    3.9459    1.4415 C   0  0  0  0  0  0  0  0  0  0  0  0
    3.3903    3.1819   -0.7160 C   0  0  0  0  0  0  0  0  0  0  0  0
    3.0943   -3.0485    1.1212 C   0  0  0  0  0  0  0  0  0  0  0  0
    3.2034   -0.5747   -1.1103 C   0  0  0  0  0  0  0  0  0  0  0  0
    1.0480   -1.2415   -2.8119 C   0  0  0  0  0  0  0  0  0  0  0  0
   -3.2682   -4.0012   -1.1433 C   0  0  0  0  0  0  0  0  0  0  0  0
    0.8713   -1.2831   -1.4003 C   0  0  0  0  0  0  0  0  0  0  0  0
   -1.8142    3.2757    3.6498 C   0  0  0  0  0  0  0  0  0  0  0  0
    1.9299   -0.9462   -0.5458 C   0  0  0  0  0  0  0  0  0  0  0  0
    3.7504   -3.8926    3.3118 C   0  0  0  0  0  0  0  0  0  0  0  0
    2.2685   -0.8984   -3.3613 C   0  0  0  0  0  0  0  0  0  0  0  0
   -1.4999    4.6209    3.3965 C   0  0  0  0  0  0  0  0  0  0  0  0
    3.2792    3.1714   -2.1165 C   0  0  0  0  0  0  0  0  0  0  0  0
   -0.7112    4.9542    2.2853 C   0  0  0  0  0  0  0  0  0  0  0  0
    3.7189   -4.0139    1.8965 C   0  0  0  0  0  0  0  0  0  0  0  0
    5.5304    0.1537   -0.8624 C   0  0  0  0  0  0  0  0  0  0  0  0
    1.1448    2.0110   -1.9322 C   0  0  0  0  0  0  0  0  0  0  0  0
    2.1570    2.5856   -2.7180 C   0  0  0  0  0  0  0  0  0  0  0  0
    3.1494   -2.8055    3.9270 C   0  0  0  0  0  0  0  0  0  0  0  0
   -0.2709   -2.0793    0.1071 H   0  0  0  0  0  0  0  0  0  0  0  0
    2.4857    2.6044    1.1688 H   0  0  0  0  0  0  0  0  0  0  0  0
   -0.7067   -3.5203   -1.8852 H   0  0  0  0  0  0  0  0  0  0  0  0
   -1.3861   -2.0417   -2.6514 H   0  0  0  0  0  0  0  0  0  0  0  0
    4.1907   -0.1711    0.7948 H   0  0  0  0  0  0  0  0  0  0  0  0
    1.9220   -0.5603    4.8596 H   0  0  0  0  0  0  0  0  0  0  0  0
    0.6973    1.1086    3.4952 H   0  0  0  0  0  0  0  0  0  0  0  0
    4.7551   -0.2049   -4.1872 H   0  0  0  0  0  0  0  0  0  0  0  0
   -4.6893   -0.8685    0.6052 H   0  0  0  0  0  0  0  0  0  0  0  0
   -5.1105   -5.0415   -0.6309 H   0  0  0  0  0  0  0  0  0  0  0  0
   -6.0906   -2.9996    0.5146 H   0  0  0  0  0  0  0  0  0  0  0  0
    6.6739    0.4240   -2.7078 H   0  0  0  0  0  0  0  0  0  0  0  0
   -1.6308    1.2160    2.9681 H   0  0  0  0  0  0  0  0  0  0  0  0
    0.4023    4.2185    0.5753 H   0  0  0  0  0  0  0  0  0  0  0  0
    4.2762    3.6230   -0.2346 H   0  0  0  0  0  0  0  0  0  0  0  0
    3.0751   -3.1460    0.0260 H   0  0  0  0  0  0  0  0  0  0  0  0
    0.2018   -1.4335   -3.4791 H   0  0  0  0  0  0  0  0  0  0  0  0
   -2.7931   -4.8658   -1.6285 H   0  0  0  0  0  0  0  0  0  0  0  0
   -2.4525    3.0081    4.5054 H   0  0  0  0  0  0  0  0  0  0  0  0
    4.2513   -4.6637    3.9165 H   0  0  0  0  0  0  0  0  0  0  0  0
    2.3837   -0.8667   -4.4555 H   0  0  0  0  0  0  0  0  0  0  0  0
   -1.8812    5.4122    4.0601 H   0  0  0  0  0  0  0  0  0  0  0  0
    4.0778    3.6058   -2.7367 H   0  0  0  0  0  0  0  0  0  0  0  0
   -0.4727    6.0073    2.0708 H   0  0  0  0  0  0  0  0  0  0  0  0
    4.1943   -4.8806    1.4124 H   0  0  0  0  0  0  0  0  0  0  0  0
    6.3687    0.4448   -0.2115 H   0  0  0  0  0  0  0  0  0  0  0  0
    0.3085    1.5035   -2.4348 H   0  0  0  0  0  0  0  0  0  0  0  0
    2.0707    2.5478   -3.8145 H   0  0  0  0  0  0  0  0  0  0  0  0
    3.1655   -2.7026    5.0233 H   0  0  0  0  0  0  0  0  0  0  0  0
  1  4  1  0  0  0  0
  1 15  1  0  0  0  0
  2 16  1  0  0  0  0
  3 42  1  0  0  0  0
  4 13  1  0  0  0  0
  5 43  1  0  0  0  0
  6 21  1  0  0  0  0
  7  4  2  0  0  0  0
  7  6  1  0  0  0  0
  8 18  1  0  0  0  0
  8  3  1  0  0  0  0
  9 46  1  0  0  0  0
 10 47  1  0  0  0  0
 11 26  1  0  0  0  0
 12  5  1  0  0  0  0
 12  1  1  0  0  0  0
 13 48  1  0  0  0  0
 13 10  2  0  0  0  0
 14 11  2  0  0  0  0
 14 20  1  0  0  0  0
 15 22  1  0  0  0  0
 16 50  1  0  0  0  0
 17 19  2  0  0  0  0
 18  2  1  0  0  0  0
 19 16  1  0  0  0  0
 19 52  1  0  0  0  0
 20 38  2  0  0  0  0
 21 10  1  0  0  0  0
 21 41  2  0  0  0  0
 22 54  1  0  0  0  0
 22 30  2  0  0  0  0
 23 15  2  0  0  0  0
 23 36  1  0  0  0  0
 24 56  1  0  0  0  0
 24  5  2  0  0  0  0
 25  6  2  0  0  0  0
 25 37  1  0  0  0  0
 26 31  1  0  0  0  0
 26  9  2  0  0  0  0
 27 29  1  0  0  0  0
 28 18  2  0  0  0  0
 28 17  1  0  0  0  0
 29  3  1  0  0  0  0
 29 31  2  0  0  0  0
 30 60  1  0  0  0  0
 31  7  1  0  0  0  0
 32 61  1  0  0  0  0
 32 41  1  0  0  0  0
 33 27  2  0  0  0  0
 33 11  1  0  0  0  0
 34 30  1  0  0  0  0
 34 63  1  0  0  0  0
 35 24  1  0  0  0  0
 36 34  2  0  0  0  0
 37 32  2  0  0  0  0
 38  9  1  0  0  0  0
 38 67  1  0  0  0  0
 39 12  2  0  0  0  0
 40 35  2  0  0  0  0
 40 39  1  0  0  0  0
 41 70  1  0  0  0  0
 44  8  1  0  0  0  0
 45  8  1  0  0  0  0
 49 14  1  0  0  0  0
 51 17  1  0  0  0  0
 53 20  1  0  0  0  0
 55 23  1  0  0  0  0
 57 25  1  0  0  0  0
 58 27  1  0  0  0  0
 59 28  1  0  0  0  0
 62 33  1  0  0  0  0
 64 35  1  0  0  0  0
 65 36  1  0  0  0  0
 66 37  1  0  0  0  0
 68 39  1  0  0  0  0
 69 40  1  0  0  0  0
M  END
