1,2,3
 OpenBabel05122313063D

 51 54  0  0  1  0  0  0  0  0999 V2000
   -1.6762   -0.0962   -0.5038 P   0  0  0  0  0  0  0  0  0  0  0  0
    2.3488   -0.6694   -0.0807 N   0  0  0  0  0  2  0  0  0  0  0  0
    0.4414   -2.0335   -1.1755 N   0  0  0  0  0  2  0  0  0  0  0  0
    3.3194    0.1554    0.4429 C   0  0  2  0  0  3  0  0  0  0  0  0
    3.0119    1.4998    0.7900 C   0  0  0  0  0  0  0  0  0  0  0  0
    1.9933    1.8634    0.6093 H   0  0  0  0  0  0  0  0  0  0  0  0
    3.9938    2.3212    1.3251 C   0  0  0  0  0  0  0  0  0  0  0  0
    3.7415    3.3606    1.5836 H   0  0  0  0  0  0  0  0  0  0  0  0
    5.3131    1.8441    1.5389 C   0  0  0  0  0  0  0  0  0  0  0  0
    6.0742    2.5102    1.9724 H   0  0  0  0  0  0  0  0  0  0  0  0
    5.6447    0.5442    1.1847 C   0  0  0  0  0  0  0  0  0  0  0  0
    6.6690    0.1649    1.3235 H   0  0  0  0  0  0  0  0  0  0  0  0
    4.6697   -0.3230    0.6185 C   0  0  0  0  0  0  0  0  0  0  0  0
    4.9870   -1.6464    0.1887 C   0  0  0  0  0  0  0  0  0  0  0  0
    6.0134   -2.0222    0.3184 H   0  0  0  0  0  0  0  0  0  0  0  0
    4.0147   -2.4230   -0.4052 C   0  0  0  0  0  0  0  0  0  0  0  0
    4.2296   -3.4340   -0.7798 H   0  0  0  0  0  0  0  0  0  0  0  0
    2.6942   -1.9061   -0.5296 C   0  0  0  0  0  0  0  0  0  0  0  0
    1.6251   -2.6093   -1.1831 C   0  0  0  0  0  3  0  0  0  0  0  0
    1.8071   -3.5606   -1.7172 H   0  0  0  0  0  0  0  0  0  0  0  0
   -0.6195   -2.6072   -1.9952 C   0  0  0  0  0  0  0  0  0  0  0  0
   -0.2170   -3.4476   -2.6024 H   0  0  0  0  0  0  0  0  0  0  0  0
   -1.4065   -3.0259   -1.3297 H   0  0  0  0  0  0  0  0  0  0  0  0
   -1.2171   -1.5329   -2.9199 C   0  0  0  0  0  0  0  0  0  0  0  0
   -1.7546   -2.0407   -3.7472 H   0  0  0  0  0  0  0  0  0  0  0  0
   -0.3760   -0.9652   -3.3685 H   0  0  0  0  0  0  0  0  0  0  0  0
   -2.1783   -0.5437   -2.2427 C   0  0  0  0  0  0  0  0  0  0  0  0
   -3.2088   -0.9498   -2.1827 H   0  0  0  0  0  0  0  0  0  0  0  0
   -2.2147    0.3980   -2.8215 H   0  0  0  0  0  0  0  0  0  0  0  0
   -2.6132   -1.3385    0.4938 C   0  0  0  0  0  0  0  0  0  0  0  0
   -1.9260   -2.2722    1.2922 C   0  0  0  0  0  0  0  0  0  0  0  0
   -0.8311   -2.2013    1.3707 H   0  0  0  0  0  0  0  0  0  0  0  0
   -2.6383   -3.2587    1.9909 C   0  0  0  0  0  0  0  0  0  0  0  0
   -2.0933   -3.9831    2.6149 H   0  0  0  0  0  0  0  0  0  0  0  0
   -4.0385   -3.3136    1.9066 C   0  0  0  0  0  0  0  0  0  0  0  0
   -4.5955   -4.0844    2.4610 H   0  0  0  0  0  0  0  0  0  0  0  0
   -4.7291   -2.3781    1.1189 C   0  0  0  0  0  0  0  0  0  0  0  0
   -5.8275   -2.4109    1.0555 H   0  0  0  0  0  0  0  0  0  0  0  0
   -4.0202   -1.3951    0.4125 C   0  0  0  0  0  0  0  0  0  0  0  0
   -4.5695   -0.6569   -0.1931 H   0  0  0  0  0  0  0  0  0  0  0  0
   -2.5079    1.4940   -0.1488 C   0  0  0  0  0  0  0  0  0  0  0  0
   -2.5199    2.5302   -1.1048 C   0  0  0  0  0  0  0  0  0  0  0  0
   -1.9983    2.3995   -2.0635 H   0  0  0  0  0  0  0  0  0  0  0  0
   -3.1504    3.7481   -0.8105 C   0  0  0  0  0  0  0  0  0  0  0  0
   -3.1531    4.5518   -1.5622 H   0  0  0  0  0  0  0  0  0  0  0  0
   -3.7608    3.9456    0.4374 C   0  0  0  0  0  0  0  0  0  0  0  0
   -4.2530    4.9034    0.6657 H   0  0  0  0  0  0  0  0  0  0  0  0
   -3.7316    2.9229    1.3992 C   0  0  0  0  0  0  0  0  0  0  0  0
   -4.1939    3.0768    2.3859 H   0  0  0  0  0  0  0  0  0  0  0  0
   -3.1033    1.7034    1.1133 C   0  0  0  0  0  0  0  0  0  0  0  0
   -3.0623    0.9120    1.8746 H   0  0  0  0  0  0  0  0  0  0  0  0
  1 41  1  0  0  0  0
  1 30  1  0  0  0  0
  4  2  1  6  0  0  0
  4 13  1  0  0  0  0
  4  5  1  0  0  0  0
  5  7  2  0  0  0  0
  6  5  1  0  0  0  0
  7  9  1  0  0  0  0
  7  8  1  0  0  0  0
  9 10  1  0  0  0  0
 11 12  1  0  0  0  0
 11  9  2  0  0  0  0
 13 11  1  0  0  0  0
 14 15  1  0  0  0  0
 14 13  2  0  0  0  0
 16 14  1  0  0  0  0
 17 16  1  0  0  0  0
 18 16  2  0  0  0  0
 18  2  1  0  0  0  0
 19  3  1  0  0  0  0
 19 18  1  0  0  0  0
 20 19  1  0  0  0  0
 21 23  1  0  0  0  0
 21  3  1  0  0  0  0
 22 21  1  0  0  0  0
 24 27  1  0  0  0  0
 24 21  1  0  0  0  0
 25 24  1  0  0  0  0
 26 24  1  0  0  0  0
 27 28  1  0  0  0  0
 27  1  1  0  0  0  0
 29 27  1  0  0  0  0
 30 31  1  0  0  0  0
 31 32  1  0  0  0  0
 31 33  2  0  0  0  0
 33 34  1  0  0  0  0
 35 33  1  0  0  0  0
 35 36  1  0  0  0  0
 37 35  2  0  0  0  0
 38 37  1  0  0  0  0
 39 30  2  0  0  0  0
 39 37  1  0  0  0  0
 40 39  1  0  0  0  0
 41 50  1  0  0  0  0
 42 44  1  0  0  0  0
 42 41  2  0  0  0  0
 43 42  1  0  0  0  0
 44 46  2  0  0  0  0
 45 44  1  0  0  0  0
 46 47  1  0  0  0  0
 46 48  1  0  0  0  0
 48 49  1  0  0  0  0
 50 48  2  0  0  0  0
 50 51  1  0  0  0  0
M  END
