1,15,21
 OpenBabel05122313063D

 57 60  0  0  1  0  0  0  0  0999 V2000
   -1.2554    0.4168   -0.0127 P   0  0  0  0  0  0  0  0  0  0  0  0
   -0.9903    2.0748   -0.7970 C   0  0  0  0  0  0  0  0  0  0  0  0
    0.1854    2.8006   -0.4704 C   0  0  0  0  0  0  0  0  0  0  0  0
    0.3816    4.0727   -1.0393 C   0  0  0  0  0  0  0  0  0  0  0  0
    1.2969    4.6328   -0.7886 H   0  0  0  0  0  0  0  0  0  0  0  0
   -0.5615    4.6338   -1.9133 C   0  0  0  0  0  0  0  0  0  0  0  0
   -0.3870    5.6309   -2.3449 H   0  0  0  0  0  0  0  0  0  0  0  0
   -1.7201    3.9138   -2.2341 C   0  0  0  0  0  0  0  0  0  0  0  0
   -2.4689    4.3412   -2.9182 H   0  0  0  0  0  0  0  0  0  0  0  0
   -1.9304    2.6431   -1.6767 C   0  0  0  0  0  0  0  0  0  0  0  0
   -2.8446    2.0839   -1.9228 H   0  0  0  0  0  0  0  0  0  0  0  0
    1.2495    2.2261    0.4362 C   0  0  0  0  0  0  0  0  0  0  0  0
    2.0132    3.0107    0.6169 H   0  0  0  0  0  0  0  0  0  0  0  0
    0.8538    1.9076    1.4236 H   0  0  0  0  0  0  0  0  0  0  0  0
    1.8688    1.0277   -0.1924 N   0  0  0  0  0  0  0  0  0  0  0  0
    1.8614    1.1424   -1.2243 H   0  0  0  0  0  0  0  0  0  0  0  0
    3.2654    0.7530    0.2385 C   0  0  1  0  0  0  0  0  0  0  0  0
    3.2334    0.6763    1.3484 H   0  0  0  0  0  0  0  0  0  0  0  0
    3.6764   -0.6134   -0.3313 C   0  0  2  0  0  0  0  0  0  0  0  0
    3.6026   -0.5481   -1.4401 H   0  0  0  0  0  0  0  0  0  0  0  0
    2.6763   -1.6212    0.0787 N   0  0  0  0  0  0  0  0  0  0  0  0
    2.7775   -1.8411    1.0866 H   0  0  0  0  0  0  0  0  0  0  0  0
    2.8009   -2.4811   -0.4716 H   0  0  0  0  0  0  0  0  0  0  0  0
    5.1076   -0.9866    0.0727 C   0  0  0  0  0  0  0  0  0  0  0  0
    5.3737   -1.9677   -0.3755 H   0  0  0  0  0  0  0  0  0  0  0  0
    5.1398   -1.1204    1.1779 H   0  0  0  0  0  0  0  0  0  0  0  0
    6.1114    0.0942   -0.3440 C   0  0  0  0  0  0  0  0  0  0  0  0
    7.1320   -0.1797   -0.0063 H   0  0  0  0  0  0  0  0  0  0  0  0
    6.1512    0.1484   -1.4546 H   0  0  0  0  0  0  0  0  0  0  0  0
    5.7041    1.4612    0.2162 C   0  0  0  0  0  0  0  0  0  0  0  0
    5.7694    1.4384    1.3267 H   0  0  0  0  0  0  0  0  0  0  0  0
    6.4095    2.2475   -0.1225 H   0  0  0  0  0  0  0  0  0  0  0  0
    4.2728    1.8291   -0.1956 C   0  0  0  0  0  0  0  0  0  0  0  0
    4.2184    1.9376   -1.3028 H   0  0  0  0  0  0  0  0  0  0  0  0
    3.9966    2.8133    0.2335 H   0  0  0  0  0  0  0  0  0  0  0  0
   -1.9914    0.9022    1.6152 C   0  0  0  0  0  0  0  0  0  0  0  0
   -2.3445    2.2351    1.9084 C   0  0  0  0  0  0  0  0  0  0  0  0
   -2.2023    3.0241    1.1557 H   0  0  0  0  0  0  0  0  0  0  0  0
   -2.8837    2.5647    3.1623 C   0  0  0  0  0  0  0  0  0  0  0  0
   -3.1541    3.6093    3.3810 H   0  0  0  0  0  0  0  0  0  0  0  0
   -3.0798    1.5668    4.1288 C   0  0  0  0  0  0  0  0  0  0  0  0
   -3.5031    1.8260    5.1116 H   0  0  0  0  0  0  0  0  0  0  0  0
   -2.7329    0.2375    3.8374 C   0  0  0  0  0  0  0  0  0  0  0  0
   -2.8823   -0.5501    4.5918 H   0  0  0  0  0  0  0  0  0  0  0  0
   -2.1827   -0.0989    2.5925 C   0  0  0  0  0  0  0  0  0  0  0  0
   -1.9130   -1.1391    2.3545 H   0  0  0  0  0  0  0  0  0  0  0  0
   -2.6910   -0.2575   -0.9585 C   0  0  0  0  0  0  0  0  0  0  0  0
   -3.9487   -0.4732   -0.3652 C   0  0  0  0  0  0  0  0  0  0  0  0
   -4.1057   -0.2198    0.6928 H   0  0  0  0  0  0  0  0  0  0  0  0
   -4.9978   -1.0222   -1.1187 C   0  0  0  0  0  0  0  0  0  0  0  0
   -5.9755   -1.1942   -0.6430 H   0  0  0  0  0  0  0  0  0  0  0  0
   -4.8030   -1.3544   -2.4680 C   0  0  0  0  0  0  0  0  0  0  0  0
   -5.6286   -1.7839   -3.0561 H   0  0  0  0  0  0  0  0  0  0  0  0
   -3.5488   -1.1393   -3.0638 C   0  0  0  0  0  0  0  0  0  0  0  0
   -3.3866   -1.3997   -4.1213 H   0  0  0  0  0  0  0  0  0  0  0  0
   -2.4930   -0.5986   -2.3148 C   0  0  0  0  0  0  0  0  0  0  0  0
   -1.4987   -0.4586   -2.7700 H   0  0  0  0  0  0  0  0  0  0  0  0
  1 36  1  0  0  0  0
  2  3  1  0  0  0  0
  2  1  1  0  0  0  0
  3 12  1  0  0  0  0
  4  5  1  0  0  0  0
  4  3  2  0  0  0  0
  6  4  1  0  0  0  0
  7  6  1  0  0  0  0
  8  6  2  0  0  0  0
  8 10  1  0  0  0  0
  9  8  1  0  0  0  0
 10  2  2  0  0  0  0
 11 10  1  0  0  0  0
 12 13  1  0  0  0  0
 12 14  1  0  0  0  0
 15 17  1  0  0  0  0
 15 12  1  0  0  0  0
 16 15  1  0  0  0  0
 17 18  1  1  0  0  0
 19 20  1  6  0  0  0
 19 24  1  0  0  0  0
 19 21  1  0  0  0  0
 19 17  1  0  0  0  0
 21 22  1  0  0  0  0
 23 21  1  0  0  0  0
 24 26  1  0  0  0  0
 25 24  1  0  0  0  0
 27 28  1  0  0  0  0
 27 24  1  0  0  0  0
 27 30  1  0  0  0  0
 29 27  1  0  0  0  0
 30 31  1  0  0  0  0
 32 30  1  0  0  0  0
 33 30  1  0  0  0  0
 33 35  1  0  0  0  0
 33 17  1  0  0  0  0
 34 33  1  0  0  0  0
 36 37  2  0  0  0  0
 36 45  1  0  0  0  0
 37 39  1  0  0  0  0
 38 37  1  0  0  0  0
 39 40  1  0  0  0  0
 39 41  2  0  0  0  0
 41 42  1  0  0  0  0
 43 41  1  0  0  0  0
 43 44  1  0  0  0  0
 45 43  2  0  0  0  0
 46 45  1  0  0  0  0
 47 48  1  0  0  0  0
 47  1  1  0  0  0  0
 48 49  1  0  0  0  0
 50 51  1  0  0  0  0
 50 48  2  0  0  0  0
 52 50  1  0  0  0  0
 53 52  1  0  0  0  0
 54 52  2  0  0  0  0
 54 56  1  0  0  0  0
 55 54  1  0  0  0  0
 56 47  2  0  0  0  0
 57 56  1  0  0  0  0
M  END
