1,60,61
 OpenBabel05122313063D

 62 66  0  0  1  0  0  0  0  0999 V2000
   -1.6855   -0.0796    0.0008 P   0  0  0  0  0  0  0  0  0  0  0  0
    3.0564    2.1641   -0.7472 C   0  0  2  0  0  0  0  0  0  0  0  0
    2.6254    2.6666   -1.6365 H   0  0  0  0  0  0  0  0  0  0  0  0
    4.5447    1.8029   -0.9483 C   0  0  0  0  0  0  0  0  0  0  0  0
    4.8632    1.8645   -2.0098 H   0  0  0  0  0  0  0  0  0  0  0  0
    5.2428    2.3966   -0.3271 H   0  0  0  0  0  0  0  0  0  0  0  0
    3.3817   -0.0620   -0.4495 C   0  0  0  0  0  0  0  0  0  0  0  0
    3.2074   -1.4864   -0.2268 C   0  0  0  0  0  0  0  0  0  0  0  0
    4.3192   -2.3232   -0.5003 C   0  0  0  0  0  3  0  0  0  0  0  0
    5.2506   -1.8412   -0.8282 H   0  0  0  0  0  0  0  0  0  0  0  0
    4.2421   -3.7080   -0.3873 C   0  0  0  0  0  0  0  0  0  0  0  0
    5.1139   -4.3377   -0.6149 H   0  0  0  0  0  0  0  0  0  0  0  0
    3.0092   -4.2826   -0.0152 C   0  0  0  0  0  0  0  0  0  0  0  0
    2.9003   -5.3778    0.0251 H   0  0  0  0  0  0  0  0  0  0  0  0
    1.9093   -3.4834    0.2810 C   0  0  0  0  0  0  0  0  0  0  0  0
    0.9544   -3.9584    0.5422 H   0  0  0  0  0  0  0  0  0  0  0  0
    1.9642   -2.0560    0.2337 C   0  0  0  0  0  0  0  0  0  0  0  0
   -0.1099   -1.7664    1.4596 C   0  0  0  0  0  0  0  0  0  0  0  0
    0.1623   -2.6354    2.5528 C   0  0  0  0  0  0  0  0  0  0  0  0
    1.1936   -2.9710    2.7289 H   0  0  0  0  0  0  0  0  0  0  0  0
   -0.8541   -3.0336    3.4257 C   0  0  0  0  0  0  0  0  0  0  0  0
   -0.6000   -3.6926    4.2706 H   0  0  0  0  0  0  0  0  0  0  0  0
   -2.1795   -2.5855    3.2641 C   0  0  0  0  0  0  0  0  0  0  0  0
   -2.9671   -2.8957    3.9658 H   0  0  0  0  0  0  0  0  0  0  0  0
   -2.4668   -1.7025    2.2156 C   0  0  0  0  0  0  0  0  0  0  0  0
   -3.4827   -1.2947    2.0931 H   0  0  0  0  0  0  0  0  0  0  0  0
   -1.4536   -1.3010    1.3278 C   0  0  0  0  0  0  0  0  0  0  0  0
   -2.6156   -0.8473   -1.3727 C   0  0  0  0  0  0  0  0  0  0  0  0
   -3.1945   -2.1262   -1.2635 C   0  0  0  0  0  0  0  0  0  0  0  0
   -3.0918   -2.6968   -0.3280 H   0  0  0  0  0  0  0  0  0  0  0  0
   -3.8948   -2.6676   -2.3535 C   0  0  0  0  0  0  0  0  0  0  0  0
   -4.3470   -3.6675   -2.2685 H   0  0  0  0  0  0  0  0  0  0  0  0
   -4.0143   -1.9388   -3.5470 C   0  0  0  0  0  0  0  0  0  0  0  0
   -4.5624   -2.3673   -4.3999 H   0  0  0  0  0  0  0  0  0  0  0  0
   -3.4258   -0.6669   -3.6575 C   0  0  0  0  0  0  0  0  0  0  0  0
   -3.5079   -0.1004   -4.5975 H   0  0  0  0  0  0  0  0  0  0  0  0
   -2.7217   -0.1183   -2.5775 C   0  0  0  0  0  0  0  0  0  0  0  0
   -2.2330    0.8670   -2.6589 H   0  0  0  0  0  0  0  0  0  0  0  0
   -2.7887    1.2148    0.6712 C   0  0  0  0  0  0  0  0  0  0  0  0
   -4.1825    1.1693    0.4738 C   0  0  0  0  0  0  0  0  0  0  0  0
   -4.6251    0.3735   -0.1447 H   0  0  0  0  0  0  0  0  0  0  0  0
   -5.0022    2.1483    1.0572 C   0  0  0  0  0  0  0  0  0  0  0  0
   -6.0910    2.1126    0.8999 H   0  0  0  0  0  0  0  0  0  0  0  0
   -4.4348    3.1718    1.8316 C   0  0  0  0  0  0  0  0  0  0  0  0
   -5.0793    3.9413    2.2834 H   0  0  0  0  0  0  0  0  0  0  0  0
   -3.0432    3.2212    2.0215 C   0  0  0  0  0  0  0  0  0  0  0  0
   -2.5959    4.0307    2.6179 H   0  0  0  0  0  0  0  0  0  0  0  0
   -2.2186    2.2495    1.4404 C   0  0  0  0  0  0  0  0  0  0  0  0
   -1.1258    2.2911    1.5645 H   0  0  0  0  0  0  0  0  0  0  0  0
    2.7363    3.0442    0.4860 C   0  0  0  0  0  0  0  0  0  0  0  0
    1.6266    3.1124    0.4893 H   0  0  0  0  0  0  0  0  0  0  0  0
    3.1895    2.4123    1.8049 C   0  0  0  0  0  0  0  0  0  0  0  0
    4.2923    2.2865    1.8525 H   0  0  0  0  0  0  0  0  0  0  0  0
    2.7235    1.4177    1.9555 H   0  0  0  0  0  0  0  0  0  0  0  0
    2.8973    3.0511    2.6626 H   0  0  0  0  0  0  0  0  0  0  0  0
    3.2930    4.4580    0.2914 C   0  0  0  0  0  0  0  0  0  0  0  0
    4.4040    4.4663    0.2576 H   0  0  0  0  0  0  0  0  0  0  0  0
    2.9900    5.1178    1.1288 H   0  0  0  0  0  0  0  0  0  0  0  0
    2.9192    4.9128   -0.6486 H   0  0  0  0  0  0  0  0  0  0  0  0
    2.4463    0.8307   -0.6300 N   0  0  0  0  0  2  0  0  0  0  0  0
    0.8708   -1.2875    0.5855 N   0  0  0  0  0  2  0  0  0  0  0  0
    4.6464    0.4165   -0.5314 O   0  0  0  0  0  0  0  0  0  0  0  0
  1 39  1  0  0  0  0
  1 27  1  0  0  0  0
  2  3  1  6  0  0  0
  2 60  1  0  0  0  0
  2 50  1  0  0  0  0
  4  2  1  0  0  0  0
  4 62  1  0  0  0  0
  4  6  1  0  0  0  0
  5  4  1  0  0  0  0
  7  8  2  0  0  0  0
  8 17  1  0  0  0  0
  9 11  1  0  0  0  0
  9  8  1  0  0  0  0
 10  9  1  0  0  0  0
 11 13  2  0  0  0  0
 12 11  1  0  0  0  0
 13 14  1  0  0  0  0
 13 15  1  0  0  0  0
 15 16  1  0  0  0  0
 17 15  2  0  0  0  0
 17 61  1  0  0  0  0
 18 19  1  0  0  0  0
 19 20  1  0  0  0  0
 19 21  2  0  0  0  0
 21 22  1  0  0  0  0
 23 21  1  0  0  0  0
 23 24  1  0  0  0  0
 25 23  2  0  0  0  0
 26 25  1  0  0  0  0
 27 18  2  0  0  0  0
 27 25  1  0  0  0  0
 28 29  1  0  0  0  0
 28  1  1  0  0  0  0
 29 30  1  0  0  0  0
 31 32  1  0  0  0  0
 31 29  2  0  0  0  0
 33 31  1  0  0  0  0
 34 33  1  0  0  0  0
 35 33  2  0  0  0  0
 35 37  1  0  0  0  0
 36 35  1  0  0  0  0
 37 28  2  0  0  0  0
 38 37  1  0  0  0  0
 39 48  1  0  0  0  0
 40 39  2  0  0  0  0
 40 42  1  0  0  0  0
 41 40  1  0  0  0  0
 42 44  2  0  0  0  0
 43 42  1  0  0  0  0
 44 46  1  0  0  0  0
 44 45  1  0  0  0  0
 46 47  1  0  0  0  0
 48 49  1  0  0  0  0
 48 46  2  0  0  0  0
 50 51  1  0  0  0  0
 50 52  1  0  0  0  0
 52 53  1  0  0  0  0
 52 54  1  0  0  0  0
 52 55  1  0  0  0  0
 56 50  1  0  0  0  0
 56 58  1  0  0  0  0
 57 56  1  0  0  0  0
 59 56  1  0  0  0  0
 60  7  1  0  0  0  0
 61 18  1  0  0  0  0
 62  7  1  0  0  0  0
M  END
