1,57,58
 OpenBabel05122313063D

 59 63  0  0  0  0  0  0  0  0999 V2000
   -1.5757    0.1193    0.0042 P   0  0  0  0  0  0  0  0  0  0  0  0
    2.1950    1.7586    0.1912 C   0  0  0  0  0  0  0  0  0  0  0  0
    2.2490    3.1645   -0.0557 C   0  0  0  0  0  0  0  0  0  0  0  0
    1.3235    3.7468    0.0472 H   0  0  0  0  0  0  0  0  0  0  0  0
    3.4219    3.8064   -0.4425 C   0  0  0  0  0  0  0  0  0  0  0  0
    3.4003    4.8905   -0.6350 H   0  0  0  0  0  0  0  0  0  0  0  0
    4.6197    3.0820   -0.6102 C   0  0  0  0  0  0  0  0  0  0  0  0
    5.5488    3.5877   -0.9092 H   0  0  0  0  0  0  0  0  0  0  0  0
    4.5940    1.7026   -0.4212 C   0  0  0  0  0  3  0  0  0  0  0  0
    5.5022    1.1033   -0.5737 H   0  0  0  0  0  0  0  0  0  0  0  0
    3.4065    1.0215   -0.0545 C   0  0  0  0  0  0  0  0  0  0  0  0
    3.4777   -0.4273    0.0586 C   0  0  0  0  0  0  0  0  0  0  0  0
    4.5303   -2.3775    0.4332 C   0  0  0  0  0  0  0  0  0  0  0  0
    4.7002   -2.5694    1.5149 H   0  0  0  0  0  0  0  0  0  0  0  0
    5.2827   -2.9323   -0.1597 H   0  0  0  0  0  0  0  0  0  0  0  0
    3.0676   -2.6681    0.0055 C   0  0  0  0  0  0  0  0  0  0  0  0
    3.0033   -3.2472   -1.4166 C   0  0  0  0  0  0  0  0  0  0  0  0
    1.9485   -3.3081   -1.7464 H   0  0  0  0  0  0  0  0  0  0  0  0
    3.4482   -4.2633   -1.4334 H   0  0  0  0  0  0  0  0  0  0  0  0
    3.5649   -2.6045   -2.1243 H   0  0  0  0  0  0  0  0  0  0  0  0
    2.3438   -3.5601    1.0159 C   0  0  0  0  0  0  0  0  0  0  0  0
    2.3457   -3.0935    2.0212 H   0  0  0  0  0  0  0  0  0  0  0  0
    2.8496   -4.5452    1.0828 H   0  0  0  0  0  0  0  0  0  0  0  0
    1.2960   -3.7187    0.6958 H   0  0  0  0  0  0  0  0  0  0  0  0
    0.0514    1.8666    1.3118 C   0  0  0  0  0  0  0  0  0  0  0  0
    0.3393    2.8980    2.2481 C   0  0  0  0  0  0  0  0  0  0  0  0
    1.3857    3.1730    2.4401 H   0  0  0  0  0  0  0  0  0  0  0  0
   -0.6876    3.5335    2.9520 C   0  0  0  0  0  0  0  0  0  0  0  0
   -0.4258    4.3134    3.6840 H   0  0  0  0  0  0  0  0  0  0  0  0
   -2.0376    3.1755    2.7670 C   0  0  0  0  0  0  0  0  0  0  0  0
   -2.8337    3.6735    3.3389 H   0  0  0  0  0  0  0  0  0  0  0  0
   -2.3443    2.1470    1.8669 C   0  0  0  0  0  0  0  0  0  0  0  0
   -3.3863    1.8169    1.7297 H   0  0  0  0  0  0  0  0  0  0  0  0
   -1.3193    1.5074    1.1489 C   0  0  0  0  0  0  0  0  0  0  0  0
   -2.2566    0.7683   -1.5645 C   0  0  0  0  0  0  0  0  0  0  0  0
   -2.6445    2.1150   -1.7038 C   0  0  0  0  0  0  0  0  0  0  0  0
   -2.5423    2.8058   -0.8531 H   0  0  0  0  0  0  0  0  0  0  0  0
   -3.1554    2.5685   -2.9304 C   0  0  0  0  0  0  0  0  0  0  0  0
   -3.4583    3.6211   -3.0388 H   0  0  0  0  0  0  0  0  0  0  0  0
   -3.2765    1.6847   -4.0139 C   0  0  0  0  0  0  0  0  0  0  0  0
   -3.6759    2.0442   -4.9745 H   0  0  0  0  0  0  0  0  0  0  0  0
   -2.8790    0.3434   -3.8758 C   0  0  0  0  0  0  0  0  0  0  0  0
   -2.9621   -0.3475   -4.7284 H   0  0  0  0  0  0  0  0  0  0  0  0
   -2.3645   -0.1193   -2.6574 C   0  0  0  0  0  0  0  0  0  0  0  0
   -2.0251   -1.1620   -2.5427 H   0  0  0  0  0  0  0  0  0  0  0  0
   -2.9004   -0.9102    0.7279 C   0  0  0  0  0  0  0  0  0  0  0  0
   -4.2481   -0.7373    0.3576 C   0  0  0  0  0  0  0  0  0  0  0  0
   -4.5145   -0.0162   -0.4300 H   0  0  0  0  0  0  0  0  0  0  0  0
   -5.2475   -1.4956    0.9880 C   0  0  0  0  0  0  0  0  0  0  0  0
   -6.3000   -1.3610    0.6957 H   0  0  0  0  0  0  0  0  0  0  0  0
   -4.9048   -2.4252    1.9816 C   0  0  0  0  0  0  0  0  0  0  0  0
   -5.6897   -3.0221    2.4706 H   0  0  0  0  0  0  0  0  0  0  0  0
   -3.5587   -2.6021    2.3454 C   0  0  0  0  0  0  0  0  0  0  0  0
   -3.2874   -3.3396    3.1157 H   0  0  0  0  0  0  0  0  0  0  0  0
   -2.5558   -1.8513    1.7193 C   0  0  0  0  0  0  0  0  0  0  0  0
   -1.4969   -1.9984    1.9805 H   0  0  0  0  0  0  0  0  0  0  0  0
    1.0327    1.1494    0.6224 N   0  0  0  0  0  2  0  0  0  0  0  0
    2.4989   -1.2892   -0.0135 N   0  0  0  0  0  2  0  0  0  0  0  0
    4.7146   -0.9655    0.1987 O   0  0  0  0  0  0  0  0  0  0  0  0
  1 46  1  0  0  0  0
  1 34  1  0  0  0  0
  2 57  1  0  0  0  0
  3  4  1  0  0  0  0
  3  2  2  0  0  0  0
  5  3  1  0  0  0  0
  6  5  1  0  0  0  0
  7  5  2  0  0  0  0
  7  9  1  0  0  0  0
  8  7  1  0  0  0  0
  9 11  1  0  0  0  0
 10  9  1  0  0  0  0
 11 12  2  0  0  0  0
 11  2  1  0  0  0  0
 12 59  1  0  0  0  0
 13 14  1  0  0  0  0
 15 13  1  0  0  0  0
 16 13  1  0  0  0  0
 16 21  1  0  0  0  0
 17 16  1  0  0  0  0
 18 17  1  0  0  0  0
 19 17  1  0  0  0  0
 20 17  1  0  0  0  0
 21 23  1  0  0  0  0
 21 22  1  0  0  0  0
 24 21  1  0  0  0  0
 25 26  1  0  0  0  0
 26 27  1  0  0  0  0
 26 28  2  0  0  0  0
 28 29  1  0  0  0  0
 30 28  1  0  0  0  0
 30 31  1  0  0  0  0
 32 30  2  0  0  0  0
 33 32  1  0  0  0  0
 34 25  2  0  0  0  0
 34 32  1  0  0  0  0
 35  1  1  0  0  0  0
 36 35  1  0  0  0  0
 36 37  1  0  0  0  0
 38 36  2  0  0  0  0
 39 38  1  0  0  0  0
 40 42  2  0  0  0  0
 40 38  1  0  0  0  0
 41 40  1  0  0  0  0
 42 44  1  0  0  0  0
 43 42  1  0  0  0  0
 44 45  1  0  0  0  0
 44 35  2  0  0  0  0
 46 55  1  0  0  0  0
 47 46  2  0  0  0  0
 47 49  1  0  0  0  0
 48 47  1  0  0  0  0
 49 51  2  0  0  0  0
 50 49  1  0  0  0  0
 51 53  1  0  0  0  0
 51 52  1  0  0  0  0
 53 54  1  0  0  0  0
 55 56  1  0  0  0  0
 55 53  2  0  0  0  0
 57 25  1  0  0  0  0
 58 16  1  0  0  0  0
 58 12  1  0  0  0  0
 59 13  1  0  0  0  0
M  END
