1,2,4
 OpenBabel05122313063D

 42 42  0  0  0  0  0  0  0  0999 V2000
   -1.9170    0.3592    0.0626 P   0  0  0  0  0  0  0  0  0  0  0  0
    0.7240    1.7993    0.4222 N   0  0  0  0  0  0  0  0  0  0  0  0
    0.8315    1.5871    1.4405 H   0  0  0  0  0  0  0  0  0  0  0  0
    2.3872   -0.2283   -0.2595 N   0  0  0  0  0  2  0  0  0  0  0  0
    3.1916   -1.3218   -0.2746 C   0  0  0  0  0  3  0  0  0  0  0  0
    2.6780   -2.2885   -0.3702 H   0  0  0  0  0  0  0  0  0  0  0  0
    4.5809   -1.2327   -0.1705 C   0  0  0  0  0  0  0  0  0  0  0  0
    5.1812   -2.1532   -0.1926 H   0  0  0  0  0  0  0  0  0  0  0  0
    5.1797    0.0277   -0.0248 C   0  0  0  0  0  0  0  0  0  0  0  0
    6.2703    0.1294    0.0723 H   0  0  0  0  0  0  0  0  0  0  0  0
    4.3497    1.1578    0.0061 C   0  0  0  0  0  0  0  0  0  0  0  0
    4.7699    2.1668    0.1294 H   0  0  0  0  0  0  0  0  0  0  0  0
    2.9652    1.0054   -0.1229 C   0  0  0  0  0  0  0  0  0  0  0  0
    2.0143    2.1779   -0.1706 C   0  0  0  0  0  0  0  0  0  0  0  0
    2.4674    3.0721    0.3135 H   0  0  0  0  0  0  0  0  0  0  0  0
    1.8201    2.4319   -1.2370 H   0  0  0  0  0  0  0  0  0  0  0  0
   -0.3981    2.7321    0.2028 C   0  0  0  0  0  0  0  0  0  0  0  0
   -0.4593    2.9239   -0.8877 H   0  0  0  0  0  0  0  0  0  0  0  0
   -0.2046    3.7084    0.7054 H   0  0  0  0  0  0  0  0  0  0  0  0
   -1.6998    2.1124    0.7186 C   0  0  0  0  0  0  0  0  0  0  0  0
   -2.5664    2.7634    0.4858 H   0  0  0  0  0  0  0  0  0  0  0  0
   -1.6482    2.0051    1.8229 H   0  0  0  0  0  0  0  0  0  0  0  0
   -2.9184   -0.4352    1.4336 C   0  0  0  0  0  0  0  0  0  0  0  0
   -2.1846   -0.3399    2.2667 H   0  0  0  0  0  0  0  0  0  0  0  0
   -4.2136    0.3031    1.7817 C   0  0  0  0  0  0  0  0  0  0  0  0
   -4.9617    0.2323    0.9642 H   0  0  0  0  0  0  0  0  0  0  0  0
   -4.0514    1.3770    2.0032 H   0  0  0  0  0  0  0  0  0  0  0  0
   -4.6777   -0.1505    2.6826 H   0  0  0  0  0  0  0  0  0  0  0  0
   -3.1466   -1.9319    1.1990 C   0  0  0  0  0  0  0  0  0  0  0  0
   -3.5089   -2.4054    2.1350 H   0  0  0  0  0  0  0  0  0  0  0  0
   -2.2146   -2.4480    0.8993 H   0  0  0  0  0  0  0  0  0  0  0  0
   -3.9157   -2.1171    0.4211 H   0  0  0  0  0  0  0  0  0  0  0  0
   -3.0528    0.5056   -1.4264 C   0  0  0  0  0  0  0  0  0  0  0  0
   -4.0688    0.7060   -1.0194 H   0  0  0  0  0  0  0  0  0  0  0  0
   -2.6403    1.6661   -2.3389 C   0  0  0  0  0  0  0  0  0  0  0  0
   -1.5918    1.5373   -2.6796 H   0  0  0  0  0  0  0  0  0  0  0  0
   -2.7332    2.6545   -1.8461 H   0  0  0  0  0  0  0  0  0  0  0  0
   -3.2866    1.6865   -3.2410 H   0  0  0  0  0  0  0  0  0  0  0  0
   -3.0572   -0.8175   -2.2035 C   0  0  0  0  0  0  0  0  0  0  0  0
   -3.7627   -0.7564   -3.0582 H   0  0  0  0  0  0  0  0  0  0  0  0
   -3.3530   -1.6813   -1.5790 H   0  0  0  0  0  0  0  0  0  0  0  0
   -2.0448   -1.0298   -2.6018 H   0  0  0  0  0  0  0  0  0  0  0  0
  1 20  1  0  0  0  0
  1 23  1  0  0  0  0
  2  3  1  0  0  0  0
  4 13  1  0  0  0  0
  5  4  1  0  0  0  0
  5  7  1  0  0  0  0
  6  5  1  0  0  0  0
  7  9  2  0  0  0  0
  8  7  1  0  0  0  0
  9 11  1  0  0  0  0
  9 10  1  0  0  0  0
 11 12  1  0  0  0  0
 13 11  2  0  0  0  0
 14 13  1  0  0  0  0
 14 15  1  0  0  0  0
 14  2  1  0  0  0  0
 16 14  1  0  0  0  0
 17  2  1  0  0  0  0
 17 19  1  0  0  0  0
 17 20  1  0  0  0  0
 18 17  1  0  0  0  0
 20 22  1  0  0  0  0
 21 20  1  0  0  0  0
 23 25  1  0  0  0  0
 23 24  1  0  0  0  0
 25 27  1  0  0  0  0
 25 28  1  0  0  0  0
 26 25  1  0  0  0  0
 29 23  1  0  0  0  0
 29 30  1  0  0  0  0
 31 29  1  0  0  0  0
 32 29  1  0  0  0  0
 33 34  1  0  0  0  0
 33  1  1  0  0  0  0
 35 37  1  0  0  0  0
 35 33  1  0  0  0  0
 36 35  1  0  0  0  0
 38 35  1  0  0  0  0
 39 41  1  0  0  0  0
 39 33  1  0  0  0  0
 40 39  1  0  0  0  0
 42 39  1  0  0  0  0
M  END
