1,2,3
 OpenBabel05122313063D

 61 65  0  0  1  0  0  0  0  0999 V2000
   -0.6642   -0.5999    0.4648 P   0  0  0  0  0  0  0  0  0  0  0  0
    0.8881    1.1698   -1.1364 N   0  0  0  0  0  2  0  0  0  0  0  0
    2.5741   -0.4887    0.1261 N   0  0  0  0  0  2  0  0  0  0  0  0
   -1.8465    0.7144   -0.0754 C   0  0  0  0  0  0  0  0  0  0  0  0
   -4.2389    0.3579   -0.2193 O   0  0  0  0  0  0  0  0  0  0  0  0
   -1.5588    1.6859   -0.9820 C   0  0  0  0  0  0  0  0  0  0  0  0
   -2.8521    2.7708   -2.6804 O   0  0  0  0  0  0  0  0  0  0  0  0
   -3.2477    0.5597    0.4551 C   0  0  0  0  0  0  0  0  0  0  0  0
   -3.2479    0.6296    1.8069 O   0  0  0  0  0  0  0  0  0  0  0  0
   -2.6616    2.5687   -1.4955 C   0  0  0  0  0  0  0  0  0  0  0  0
   -3.3730    3.1307   -0.4928 O   0  0  0  0  0  0  0  0  0  0  0  0
   -4.5139    0.3844    2.4337 C   0  0  0  0  0  0  0  0  0  0  0  0
   -4.8457   -0.6549    2.2353 H   0  0  0  0  0  0  0  0  0  0  0  0
   -5.2831    1.0836    2.0502 H   0  0  0  0  0  0  0  0  0  0  0  0
   -4.3525    0.5367    3.5153 H   0  0  0  0  0  0  0  0  0  0  0  0
   -4.5445    3.8531   -0.8959 C   0  0  0  0  0  0  0  0  0  0  0  0
   -4.3179    4.5322   -1.7409 H   0  0  0  0  0  0  0  0  0  0  0  0
   -4.8770    4.4221   -0.0098 H   0  0  0  0  0  0  0  0  0  0  0  0
   -5.3310    3.1370   -1.2106 H   0  0  0  0  0  0  0  0  0  0  0  0
   -0.2066    1.9631   -1.6668 C   0  0  1  0  0  0  0  0  0  0  0  0
   -0.3940    1.6620   -2.7254 H   0  0  0  0  0  0  0  0  0  0  0  0
    0.0856    3.4565   -1.6455 C   0  0  0  0  0  0  0  0  0  0  0  0
   -0.4997    4.0896   -2.3273 H   0  0  0  0  0  0  0  0  0  0  0  0
    1.0064    3.9816   -0.8015 C   0  0  0  0  0  0  0  0  0  0  0  0
    1.1801    5.0695   -0.7741 H   0  0  0  0  0  0  0  0  0  0  0  0
    1.8397    3.1240    0.0198 C   0  0  0  0  0  0  0  0  0  0  0  0
    1.7519    1.7261   -0.2524 C   0  0  0  0  0  0  0  0  0  0  0  0
    2.6657    0.8452    0.4268 C   0  0  1  0  0  3  0  0  0  0  0  0
    3.5992    1.3485    1.3986 C   0  0  0  0  0  0  0  0  0  0  0  0
    4.4447    0.3910    2.0255 C   0  0  0  0  0  0  0  0  0  0  0  0
    5.1766    0.7316    2.7742 H   0  0  0  0  0  0  0  0  0  0  0  0
    4.3454   -0.9526    1.6891 C   0  0  0  0  0  0  0  0  0  0  0  0
    4.9919   -1.7079    2.1577 H   0  0  0  0  0  0  0  0  0  0  0  0
    3.3896   -1.3640    0.7346 C   0  0  0  0  0  0  0  0  0  0  0  0
    3.2743   -2.4208    0.4550 H   0  0  0  0  0  0  0  0  0  0  0  0
    2.7698    3.5958    0.9757 C   0  0  0  0  0  0  0  0  0  0  0  0
    2.8138    4.6813    1.1605 H   0  0  0  0  0  0  0  0  0  0  0  0
    3.6252    2.7431    1.6709 C   0  0  0  0  0  0  0  0  0  0  0  0
    4.3351    3.1329    2.4142 H   0  0  0  0  0  0  0  0  0  0  0  0
   -1.7911   -1.9784    0.9374 C   0  0  0  0  0  0  0  0  0  0  0  0
   -2.3206   -2.7791   -0.0956 C   0  0  0  0  0  0  0  0  0  0  0  0
   -2.0414   -2.5857   -1.1413 H   0  0  0  0  0  0  0  0  0  0  0  0
   -3.2103   -3.8199    0.2064 C   0  0  0  0  0  0  0  0  0  0  0  0
   -3.6211   -4.4358   -0.6074 H   0  0  0  0  0  0  0  0  0  0  0  0
   -3.5684   -4.0774    1.5388 C   0  0  0  0  0  0  0  0  0  0  0  0
   -4.2597   -4.9006    1.7746 H   0  0  0  0  0  0  0  0  0  0  0  0
   -3.0407   -3.2840    2.5704 C   0  0  0  0  0  0  0  0  0  0  0  0
   -3.3182   -3.4821    3.6171 H   0  0  0  0  0  0  0  0  0  0  0  0
   -2.1600   -2.2334    2.2736 C   0  0  0  0  0  0  0  0  0  0  0  0
   -1.7609   -1.6034    3.0813 H   0  0  0  0  0  0  0  0  0  0  0  0
    0.0549    0.0031    2.0385 C   0  0  0  0  0  0  0  0  0  0  0  0
   -0.0429    1.3529    2.4256 C   0  0  0  0  0  0  0  0  0  0  0  0
   -0.6486    2.0504    1.8296 H   0  0  0  0  0  0  0  0  0  0  0  0
    0.6406    1.8040    3.5644 C   0  0  0  0  0  0  0  0  0  0  0  0
    0.5715    2.8629    3.8541 H   0  0  0  0  0  0  0  0  0  0  0  0
    1.4149    0.9132    4.3236 C   0  0  0  0  0  0  0  0  0  0  0  0
    1.9544    1.2726    5.2129 H   0  0  0  0  0  0  0  0  0  0  0  0
    1.5077   -0.4357    3.9436 C   0  0  0  0  0  0  0  0  0  0  0  0
    2.1185   -1.1364    4.5323 H   0  0  0  0  0  0  0  0  0  0  0  0
    0.8364   -0.8912    2.8005 C   0  0  0  0  0  0  0  0  0  0  0  0
    0.9269   -1.9443    2.4919 H   0  0  0  0  0  0  0  0  0  0  0  0
  1 40  1  0  0  0  0
  1 51  1  0  0  0  0
  2 27  1  0  0  0  0
  3 28  1  0  0  0  0
  3 34  1  0  0  0  0
  4  8  1  0  0  0  0
  4  1  1  0  0  0  0
  5  8  2  0  0  0  0
  6  4  2  0  0  0  0
  7 10  2  0  0  0  0
  8  9  1  0  0  0  0
  9 12  1  0  0  0  0
 10  6  1  0  0  0  0
 10 11  1  0  0  0  0
 12 15  1  0  0  0  0
 13 12  1  0  0  0  0
 14 12  1  0  0  0  0
 16 11  1  0  0  0  0
 16 18  1  0  0  0  0
 17 16  1  0  0  0  0
 19 16  1  0  0  0  0
 20 21  1  6  0  0  0
 20 22  1  0  0  0  0
 20  2  1  0  0  0  0
 20  6  1  0  0  0  0
 22 24  2  0  0  0  0
 23 22  1  0  0  0  0
 24 25  1  0  0  0  0
 24 26  1  0  0  0  0
 26 36  1  0  0  0  0
 27 26  2  0  0  0  0
 28 27  1  1  0  0  0
 28 29  1  0  0  0  0
 29 38  1  0  0  0  0
 29 30  2  0  0  0  0
 30 31  1  0  0  0  0
 32 30  1  0  0  0  0
 32 33  1  0  0  0  0
 34 32  2  0  0  0  0
 35 34  1  0  0  0  0
 36 37  1  0  0  0  0
 36 38  2  0  0  0  0
 38 39  1  0  0  0  0
 40 49  1  0  0  0  0
 41 43  1  0  0  0  0
 41 40  2  0  0  0  0
 42 41  1  0  0  0  0
 43 45  2  0  0  0  0
 44 43  1  0  0  0  0
 45 46  1  0  0  0  0
 45 47  1  0  0  0  0
 47 48  1  0  0  0  0
 49 47  2  0  0  0  0
 49 50  1  0  0  0  0
 51 52  2  0  0  0  0
 51 60  1  0  0  0  0
 52 54  1  0  0  0  0
 53 52  1  0  0  0  0
 54 55  1  0  0  0  0
 54 56  2  0  0  0  0
 56 57  1  0  0  0  0
 58 56  1  0  0  0  0
 58 59  1  0  0  0  0
 60 58  2  0  0  0  0
 61 60  1  0  0  0  0
M  END
