2,69,70
 OpenBabel05122313063D

 71 72  0  0  0  0  0  0  0  0999 V2000
    2.5218   -0.8386    0.5697 P   0  0  0  0  0  4  0  0  0  0  0  0
   -2.2966    0.1858   -0.2835 P   0  0  0  0  0  0  0  0  0  0  0  0
    2.7584    0.6327   -0.4358 C   0  0  0  0  0  0  0  0  0  0  0  0
    4.0064    0.9983   -0.9830 C   0  0  0  0  0  0  0  0  0  0  0  0
    4.8931    0.3773   -0.7810 H   0  0  0  0  0  0  0  0  0  0  0  0
    4.1638    2.1419   -1.7784 C   0  0  0  0  0  0  0  0  0  0  0  0
    3.0029    2.9141   -2.0287 C   0  0  0  0  0  0  0  0  0  0  0  0
    3.0783    3.8010   -2.6794 H   0  0  0  0  0  0  0  0  0  0  0  0
    1.7655    2.5788   -1.4876 C   0  0  0  0  0  0  0  0  0  0  0  0
    0.8854    3.1981   -1.7135 H   0  0  0  0  0  0  0  0  0  0  0  0
    1.5922    1.4347   -0.6516 C   0  0  0  0  0  0  0  0  0  0  0  0
   -1.8904    1.8488    0.3470 C   0  0  0  0  0  0  0  0  0  0  0  0
   -2.7977    2.8070    0.8326 C   0  0  0  0  0  0  0  0  0  0  0  0
   -3.8757    2.5767    0.8480 H   0  0  0  0  0  0  0  0  0  0  0  0
   -2.3676    4.0559    1.3150 C   0  0  0  0  0  0  0  0  0  0  0  0
   -0.9750    4.3045    1.2987 C   0  0  0  0  0  0  0  0  0  0  0  0
   -0.5978    5.2634    1.6911 H   0  0  0  0  0  0  0  0  0  0  0  0
   -0.0573    3.3669    0.8221 C   0  0  0  0  0  0  0  0  0  0  0  0
    1.0180    3.5954    0.8521 H   0  0  0  0  0  0  0  0  0  0  0  0
   -0.4883    2.1038    0.3250 C   0  0  0  0  0  0  0  0  0  0  0  0
    5.5002    2.5336   -2.3553 C   0  0  0  0  0  0  0  0  0  0  0  0
    6.2888    1.8017   -2.0913 H   0  0  0  0  0  0  0  0  0  0  0  0
    5.8301    3.5288   -1.9875 H   0  0  0  0  0  0  0  0  0  0  0  0
    5.4627    2.6011   -3.4634 H   0  0  0  0  0  0  0  0  0  0  0  0
   -3.3379    5.0836    1.8407 C   0  0  0  0  0  0  0  0  0  0  0  0
   -4.3817    4.7149    1.7994 H   0  0  0  0  0  0  0  0  0  0  0  0
   -3.2936    6.0272    1.2558 H   0  0  0  0  0  0  0  0  0  0  0  0
   -3.1198    5.3537    2.8960 H   0  0  0  0  0  0  0  0  0  0  0  0
    2.2286   -0.1889    2.2987 C   0  0  0  0  0  0  0  0  0  0  0  0
    1.5584    0.6655    2.0570 H   0  0  0  0  0  0  0  0  0  0  0  0
    3.5062    0.3487    2.9483 C   0  0  0  0  0  0  0  0  0  0  0  0
    3.2602    0.9092    3.8739 H   0  0  0  0  0  0  0  0  0  0  0  0
    4.0451    1.0447    2.2732 H   0  0  0  0  0  0  0  0  0  0  0  0
    4.2042   -0.4649    3.2352 H   0  0  0  0  0  0  0  0  0  0  0  0
    1.4251   -1.1649    3.1611 C   0  0  0  0  0  0  0  0  0  0  0  0
    2.0177   -2.0478    3.4745 H   0  0  0  0  0  0  0  0  0  0  0  0
    0.5368   -1.5211    2.6007 H   0  0  0  0  0  0  0  0  0  0  0  0
    1.0672   -0.6570    4.0800 H   0  0  0  0  0  0  0  0  0  0  0  0
    4.0596   -1.8819    0.5287 C   0  0  0  0  0  0  0  0  0  0  0  0
    4.8974   -1.2004    0.7936 H   0  0  0  0  0  0  0  0  0  0  0  0
    4.2644   -2.4398   -0.8879 C   0  0  0  0  0  0  0  0  0  0  0  0
    5.2008   -3.0334   -0.9283 H   0  0  0  0  0  0  0  0  0  0  0  0
    4.3235   -1.6425   -1.6525 H   0  0  0  0  0  0  0  0  0  0  0  0
    3.4202   -3.0987   -1.1708 H   0  0  0  0  0  0  0  0  0  0  0  0
    3.9932   -3.0114    1.5674 C   0  0  0  0  0  0  0  0  0  0  0  0
    3.1032   -3.6555    1.4105 H   0  0  0  0  0  0  0  0  0  0  0  0
    3.9622   -2.6340    2.6069 H   0  0  0  0  0  0  0  0  0  0  0  0
    4.8875   -3.6606    1.4714 H   0  0  0  0  0  0  0  0  0  0  0  0
   -3.0108    0.4456   -2.0005 C   0  0  0  0  0  0  0  0  0  0  0  0
   -3.2778   -0.5838   -2.3264 H   0  0  0  0  0  0  0  0  0  0  0  0
   -1.8976    0.9790   -2.9099 C   0  0  0  0  0  0  0  0  0  0  0  0
   -2.2542    1.0569   -3.9580 H   0  0  0  0  0  0  0  0  0  0  0  0
   -1.0043    0.3232   -2.8861 H   0  0  0  0  0  0  0  0  0  0  0  0
   -1.5731    1.9893   -2.5847 H   0  0  0  0  0  0  0  0  0  0  0  0
   -4.2574    1.3324   -2.0316 C   0  0  0  0  0  0  0  0  0  0  0  0
   -4.0253    2.3563   -1.6738 H   0  0  0  0  0  0  0  0  0  0  0  0
   -5.0837    0.9299   -1.4122 H   0  0  0  0  0  0  0  0  0  0  0  0
   -4.6367    1.4213   -3.0715 H   0  0  0  0  0  0  0  0  0  0  0  0
   -3.7289   -0.3772    0.7796 C   0  0  0  0  0  0  0  0  0  0  0  0
   -4.4294    0.4876    0.7832 H   0  0  0  0  0  0  0  0  0  0  0  0
   -3.2264   -0.6013    2.2106 C   0  0  0  0  0  0  0  0  0  0  0  0
   -4.0758   -0.8389    2.8846 H   0  0  0  0  0  0  0  0  0  0  0  0
   -2.7108    0.2957    2.6081 H   0  0  0  0  0  0  0  0  0  0  0  0
   -2.5157   -1.4502    2.2432 H   0  0  0  0  0  0  0  0  0  0  0  0
   -4.4685   -1.5974    0.2195 C   0  0  0  0  0  0  0  0  0  0  0  0
   -3.8135   -2.4883    0.1770 H   0  0  0  0  0  0  0  0  0  0  0  0
   -4.8663   -1.4195   -0.7991 H   0  0  0  0  0  0  0  0  0  0  0  0
   -5.3316   -1.8400    0.8745 H   0  0  0  0  0  0  0  0  0  0  0  0
    0.3711    1.0900   -0.0933 N   0  0  0  0  0  2  0  0  0  0  0  0
    1.2734   -1.6655   -0.0850 N   0  0  0  0  0  2  0  0  0  0  0  0
    1.2278   -2.6633    0.1576 H   0  0  0  0  0  0  0  0  0  0  0  0
  1 29  1  0  0  0  0
  2 12  1  0  0  0  0
  2 59  1  0  0  0  0
  3  1  1  0  0  0  0
  4  5  1  0  0  0  0
  4  3  2  0  0  0  0
  6  4  1  0  0  0  0
  7  6  2  0  0  0  0
  7  9  1  0  0  0  0
  8  7  1  0  0  0  0
  9 11  2  0  0  0  0
 10  9  1  0  0  0  0
 11  3  1  0  0  0  0
 11 69  1  0  0  0  0
 12 13  1  0  0  0  0
 13 14  1  0  0  0  0
 13 15  2  0  0  0  0
 15 25  1  0  0  0  0
 16 15  1  0  0  0  0
 16 17  1  0  0  0  0
 18 19  1  0  0  0  0
 18 16  2  0  0  0  0
 20 12  2  0  0  0  0
 20 18  1  0  0  0  0
 21 22  1  0  0  0  0
 21 23  1  0  0  0  0
 21  6  1  0  0  0  0
 24 21  1  0  0  0  0
 25 28  1  0  0  0  0
 26 25  1  0  0  0  0
 27 25  1  0  0  0  0
 29 31  1  0  0  0  0
 29 35  1  0  0  0  0
 30 29  1  0  0  0  0
 31 34  1  0  0  0  0
 31 32  1  0  0  0  0
 33 31  1  0  0  0  0
 35 36  1  0  0  0  0
 35 38  1  0  0  0  0
 37 35  1  0  0  0  0
 39  1  1  0  0  0  0
 39 40  1  0  0  0  0
 39 45  1  0  0  0  0
 41 39  1  0  0  0  0
 42 41  1  0  0  0  0
 43 41  1  0  0  0  0
 44 41  1  0  0  0  0
 45 47  1  0  0  0  0
 46 45  1  0  0  0  0
 48 45  1  0  0  0  0
 49  2  1  0  0  0  0
 50 49  1  0  0  0  0
 51 53  1  0  0  0  0
 51 54  1  0  0  0  0
 51 49  1  0  0  0  0
 52 51  1  0  0  0  0
 55 49  1  0  0  0  0
 55 56  1  0  0  0  0
 55 57  1  0  0  0  0
 58 55  1  0  0  0  0
 59 60  1  0  0  0  0
 59 61  1  0  0  0  0
 61 64  1  0  0  0  0
 61 63  1  0  0  0  0
 61 62  1  0  0  0  0
 65 59  1  0  0  0  0
 65 68  1  0  0  0  0
 66 65  1  0  0  0  0
 67 65  1  0  0  0  0
 69 20  1  0  0  0  0
 70 71  1  0  0  0  0
 70  1  1  0  0  0  0
M  END
