1,2,3
 OpenBabel05122313063D

 78 83  0  0  0  0  0  0  0  0999 V2000
    2.6852    0.6070   -0.3355 P   0  0  0  0  0  0  0  0  0  0  0  0
    0.0675    1.4350   -0.6517 N   0  0  0  0  0  2  0  0  0  0  0  0
   -1.2326   -0.6731    0.0233 N   0  0  0  0  0  2  0  0  0  0  0  0
   -2.2260    2.5824   -1.1104 C   0  0  0  0  0  0  0  0  0  0  0  0
   -2.1940    3.9217   -1.5018 C   0  0  0  0  0  0  0  0  0  0  0  0
   -1.2490    4.4708   -1.6199 H   0  0  0  0  0  0  0  0  0  0  0  0
   -3.4240    4.5987   -1.7511 C   0  0  0  0  0  0  0  0  0  0  0  0
   -3.3847    5.6532   -2.0640 H   0  0  0  0  0  0  0  0  0  0  0  0
   -4.6651    3.9793   -1.6140 C   0  0  0  0  0  0  0  0  0  0  0  0
   -5.5898    4.5401   -1.8190 H   0  0  0  0  0  0  0  0  0  0  0  0
   -4.7419    2.6127   -1.1980 C   0  0  0  0  0  0  0  0  0  0  0  0
   -5.9244    1.8350   -0.9937 C   0  0  0  0  0  0  0  0  0  0  0  0
   -6.9105    2.2918   -1.1700 H   0  0  0  0  0  0  0  0  0  0  0  0
   -5.8340    0.5078   -0.5719 C   0  0  0  0  0  0  0  0  0  0  0  0
   -6.7592   -0.0692   -0.4225 H   0  0  0  0  0  0  0  0  0  0  0  0
   -4.5865   -0.1312   -0.3166 C   0  0  0  0  0  0  0  0  0  0  0  0
   -4.5540   -1.1738    0.0307 H   0  0  0  0  0  0  0  0  0  0  0  0
   -3.4173    0.6029   -0.5067 C   0  0  0  0  0  0  0  0  0  0  0  0
   -3.5132    1.9591   -0.9530 C   0  0  0  0  0  0  0  0  0  0  0  0
   -1.2555    1.5375   -0.7722 C   0  0  0  0  0  0  0  0  0  0  0  0
   -1.9794    0.3397   -0.3854 C   0  0  0  0  0  0  0  0  0  0  0  0
    0.9490    2.5644   -0.9806 C   0  0  0  0  0  0  0  0  0  0  0  0
    1.0601    3.2022   -0.0745 H   0  0  0  0  0  0  0  0  0  0  0  0
    0.4793    3.1865   -1.7701 H   0  0  0  0  0  0  0  0  0  0  0  0
    2.3139    2.0490   -1.4428 C   0  0  0  0  0  0  0  0  0  0  0  0
    3.0865    2.8420   -1.4131 H   0  0  0  0  0  0  0  0  0  0  0  0
    2.2377    1.6253   -2.4646 H   0  0  0  0  0  0  0  0  0  0  0  0
    4.0799   -0.3131   -1.0673 C   0  0  0  0  0  0  0  0  0  0  0  0
    4.3088   -1.6177   -0.5809 C   0  0  0  0  0  0  0  0  0  0  0  0
    3.6482   -2.0249    0.2011 H   0  0  0  0  0  0  0  0  0  0  0  0
    5.3618   -2.3818   -1.1009 C   0  0  0  0  0  0  0  0  0  0  0  0
    5.5358   -3.3998   -0.7207 H   0  0  0  0  0  0  0  0  0  0  0  0
    6.1855   -1.8560   -2.1105 C   0  0  0  0  0  0  0  0  0  0  0  0
    7.0084   -2.4607   -2.5211 H   0  0  0  0  0  0  0  0  0  0  0  0
    5.9544   -0.5616   -2.6012 C   0  0  0  0  0  0  0  0  0  0  0  0
    6.5942   -0.1496   -3.3965 H   0  0  0  0  0  0  0  0  0  0  0  0
    4.9035    0.2112   -2.0823 C   0  0  0  0  0  0  0  0  0  0  0  0
    4.7278    1.2233   -2.4766 H   0  0  0  0  0  0  0  0  0  0  0  0
    3.3766    1.3883    1.1796 C   0  0  0  0  0  0  0  0  0  0  0  0
    4.7506    1.6704    1.3140 C   0  0  0  0  0  0  0  0  0  0  0  0
    5.4527    1.3677    0.5218 H   0  0  0  0  0  0  0  0  0  0  0  0
    5.2246    2.3250    2.4609 C   0  0  0  0  0  0  0  0  0  0  0  0
    6.2999    2.5375    2.5627 H   0  0  0  0  0  0  0  0  0  0  0  0
    4.3330    2.7011    3.4786 C   0  0  0  0  0  0  0  0  0  0  0  0
    4.7085    3.2105    4.3792 H   0  0  0  0  0  0  0  0  0  0  0  0
    2.9643    2.4150    3.3516 C   0  0  0  0  0  0  0  0  0  0  0  0
    2.2638    2.6933    4.1537 H   0  0  0  0  0  0  0  0  0  0  0  0
    2.4864    1.7554    2.2101 C   0  0  0  0  0  0  0  0  0  0  0  0
    1.4213    1.4934    2.1224 H   0  0  0  0  0  0  0  0  0  0  0  0
   -1.8708   -1.7724    0.6764 C   0  0  0  0  0  0  0  0  0  0  0  0
   -2.2436   -1.6246    2.0414 C   0  0  0  0  0  0  0  0  0  0  0  0
   -2.9275   -2.6911    2.6528 C   0  0  0  0  0  0  0  0  0  0  0  0
   -3.2326   -2.5972    3.7064 H   0  0  0  0  0  0  0  0  0  0  0  0
   -3.2192   -3.8675    1.9512 C   0  0  0  0  0  0  0  0  0  0  0  0
   -3.7581   -4.6877    2.4498 H   0  0  0  0  0  0  0  0  0  0  0  0
   -2.8088   -4.0037    0.6193 C   0  0  0  0  0  0  0  0  0  0  0  0
   -3.0224   -4.9364    0.0754 H   0  0  0  0  0  0  0  0  0  0  0  0
   -2.1243   -2.9670   -0.0418 C   0  0  0  0  0  0  0  0  0  0  0  0
   -1.9241   -0.3642    2.8405 C   0  0  0  0  0  0  0  0  0  0  0  0
   -1.2363    0.2450    2.2202 H   0  0  0  0  0  0  0  0  0  0  0  0
   -1.1786   -0.6898    4.1452 C   0  0  0  0  0  0  0  0  0  0  0  0
   -0.2655   -1.2790    3.9357 H   0  0  0  0  0  0  0  0  0  0  0  0
   -1.8149   -1.2621    4.8518 H   0  0  0  0  0  0  0  0  0  0  0  0
   -0.8780    0.2470    4.6590 H   0  0  0  0  0  0  0  0  0  0  0  0
   -3.1859    0.4712    3.1211 C   0  0  0  0  0  0  0  0  0  0  0  0
   -3.7025    0.7665    2.1876 H   0  0  0  0  0  0  0  0  0  0  0  0
   -2.9265    1.3955    3.6777 H   0  0  0  0  0  0  0  0  0  0  0  0
   -3.9102   -0.0998    3.7393 H   0  0  0  0  0  0  0  0  0  0  0  0
   -1.6325   -3.1412   -1.4696 C   0  0  0  0  0  0  0  0  0  0  0  0
   -1.3138   -2.1466   -1.8406 H   0  0  0  0  0  0  0  0  0  0  0  0
   -0.3791   -4.0346   -1.4805 C   0  0  0  0  0  0  0  0  0  0  0  0
    0.3980   -3.6239   -0.8064 H   0  0  0  0  0  0  0  0  0  0  0  0
    0.0526   -4.0881   -2.5004 H   0  0  0  0  0  0  0  0  0  0  0  0
   -0.6193   -5.0655   -1.1445 H   0  0  0  0  0  0  0  0  0  0  0  0
   -2.7195   -3.6649   -2.4186 C   0  0  0  0  0  0  0  0  0  0  0  0
   -3.6162   -3.0121   -2.4054 H   0  0  0  0  0  0  0  0  0  0  0  0
   -3.0454   -4.6935   -2.1568 H   0  0  0  0  0  0  0  0  0  0  0  0
   -2.3370   -3.6978   -3.4590 H   0  0  0  0  0  0  0  0  0  0  0  0
  1 39  1  0  0  0  0
  3 50  1  0  0  0  0
  4 19  1  0  0  0  0
  4 20  1  0  0  0  0
  5  4  2  0  0  0  0
  6  5  1  0  0  0  0
  7  9  2  0  0  0  0
  7  5  1  0  0  0  0
  8  7  1  0  0  0  0
  9 11  1  0  0  0  0
 10  9  1  0  0  0  0
 11 12  2  0  0  0  0
 11 19  1  0  0  0  0
 12 14  1  0  0  0  0
 13 12  1  0  0  0  0
 14 15  1  0  0  0  0
 14 16  2  0  0  0  0
 16 17  1  0  0  0  0
 18 21  1  0  0  0  0
 18 16  1  0  0  0  0
 19 18  2  0  0  0  0
 20  2  1  0  0  0  0
 20 21  2  0  0  0  0
 21  3  1  0  0  0  0
 22  2  1  0  0  0  0
 22 23  1  0  0  0  0
 24 22  1  0  0  0  0
 25 26  1  0  0  0  0
 25 22  1  0  0  0  0
 25  1  1  0  0  0  0
 27 25  1  0  0  0  0
 28 29  1  0  0  0  0
 28  1  1  0  0  0  0
 29 30  1  0  0  0  0
 31 32  1  0  0  0  0
 31 29  2  0  0  0  0
 33 31  1  0  0  0  0
 34 33  1  0  0  0  0
 35 33  2  0  0  0  0
 35 37  1  0  0  0  0
 36 35  1  0  0  0  0
 37 28  2  0  0  0  0
 38 37  1  0  0  0  0
 39 40  2  0  0  0  0
 39 48  1  0  0  0  0
 40 42  1  0  0  0  0
 41 40  1  0  0  0  0
 42 43  1  0  0  0  0
 42 44  2  0  0  0  0
 44 45  1  0  0  0  0
 46 44  1  0  0  0  0
 46 47  1  0  0  0  0
 48 46  2  0  0  0  0
 49 48  1  0  0  0  0
 50 51  1  0  0  0  0
 51 52  2  0  0  0  0
 51 59  1  0  0  0  0
 52 53  1  0  0  0  0
 54 55  1  0  0  0  0
 54 52  1  0  0  0  0
 56 54  2  0  0  0  0
 57 56  1  0  0  0  0
 58 56  1  0  0  0  0
 58 50  2  0  0  0  0
 59 65  1  0  0  0  0
 59 61  1  0  0  0  0
 60 59  1  0  0  0  0
 61 64  1  0  0  0  0
 61 63  1  0  0  0  0
 62 61  1  0  0  0  0
 65 67  1  0  0  0  0
 65 68  1  0  0  0  0
 66 65  1  0  0  0  0
 69 58  1  0  0  0  0
 70 69  1  0  0  0  0
 71 69  1  0  0  0  0
 71 74  1  0  0  0  0
 71 72  1  0  0  0  0
 73 71  1  0  0  0  0
 75 76  1  0  0  0  0
 75 77  1  0  0  0  0
 75 69  1  0  0  0  0
 78 75  1  0  0  0  0
M  END
