1,2,3
 OpenBabel05122313063D

 50 54  0  0  0  0  0  0  0  0999 V2000
   -1.4311    0.2080    0.0053 P   0  0  0  0  0  0  0  0  0  0  0  0
    1.4446    0.3110    0.0158 N   0  0  0  0  0  2  0  0  0  0  0  0
    2.0740   -2.2475   -0.0781 N   0  0  0  0  0  2  0  0  0  0  0  0
   -0.4283    1.6563    0.0755 N   0  0  0  0  0  0  0  0  0  0  0  0
   -0.8504    2.5794    0.1966 H   0  0  0  0  0  0  0  0  0  0  0  0
    1.3560    4.0368    0.1875 C   0  0  0  0  0  0  0  0  0  0  0  0
    0.2781    4.2583    0.1877 H   0  0  0  0  0  0  0  0  0  0  0  0
    2.2574    5.0938    0.2401 C   0  0  0  0  0  0  0  0  0  0  0  0
    1.8864    6.1280    0.2839 H   0  0  0  0  0  0  0  0  0  0  0  0
    3.6525    4.8441    0.2363 C   0  0  0  0  0  0  0  0  0  0  0  0
    4.3565    5.6881    0.2787 H   0  0  0  0  0  0  0  0  0  0  0  0
    4.1333    3.5425    0.1778 C   0  0  0  0  0  0  0  0  0  0  0  0
    5.2161    3.3478    0.1727 H   0  0  0  0  0  0  0  0  0  0  0  0
    3.2378    2.4385    0.1227 C   0  0  0  0  0  0  0  0  0  0  0  0
    1.8212    2.6968    0.1314 C   0  0  0  0  0  0  0  0  0  0  0  0
    3.7070    1.0921    0.0579 C   0  0  0  0  0  0  0  0  0  0  0  0
    4.7881    0.9007    0.0539 H   0  0  0  0  0  0  0  0  0  0  0  0
    2.8022    0.0478    0.0039 C   0  0  0  0  0  0  0  0  0  0  0  0
    0.9416    1.5560    0.0773 C   0  0  0  0  0  0  0  0  0  0  0  0
    3.1392   -1.3895   -0.0591 C   0  0  0  0  0  0  0  0  0  0  0  0
    4.4496   -1.8968   -0.0976 C   0  0  0  0  0  0  0  0  0  0  0  0
    5.3084   -1.2125   -0.0840 H   0  0  0  0  0  0  0  0  0  0  0  0
    4.6485   -3.2817   -0.1552 C   0  0  0  0  0  0  0  0  0  0  0  0
    5.6697   -3.6892   -0.1864 H   0  0  0  0  0  0  0  0  0  0  0  0
    3.5383   -4.1395   -0.1730 C   0  0  0  0  0  0  0  0  0  0  0  0
    3.6561   -5.2311   -0.2181 H   0  0  0  0  0  0  0  0  0  0  0  0
    2.2564   -3.5786   -0.1328 C   0  0  0  0  0  0  0  0  0  0  0  0
    1.3317   -4.1799   -0.1421 H   0  0  0  0  0  0  0  0  0  0  0  0
   -2.4551    0.4304   -1.4717 C   0  0  0  0  0  0  0  0  0  0  0  0
   -2.1020    1.3376   -2.4913 C   0  0  0  0  0  0  0  0  0  0  0  0
   -2.8934    1.4209   -3.6458 C   0  0  0  0  0  0  0  0  0  0  0  0
   -4.0183    0.5930   -3.7899 C   0  0  0  0  0  0  0  0  0  0  0  0
   -4.3568   -0.3242   -2.7803 C   0  0  0  0  0  0  0  0  0  0  0  0
   -3.5791   -0.4126   -1.6190 C   0  0  0  0  0  0  0  0  0  0  0  0
   -1.2125    1.9760   -2.3828 H   0  0  0  0  0  0  0  0  0  0  0  0
   -2.6270    2.1346   -4.4394 H   0  0  0  0  0  0  0  0  0  0  0  0
   -4.6344    0.6591   -4.6990 H   0  0  0  0  0  0  0  0  0  0  0  0
   -5.2327   -0.9788   -2.8992 H   0  0  0  0  0  0  0  0  0  0  0  0
   -3.8345   -1.1406   -0.8340 H   0  0  0  0  0  0  0  0  0  0  0  0
   -2.5406    0.2744    1.4350 C   0  0  0  0  0  0  0  0  0  0  0  0
   -3.5918    1.2177    1.4747 C   0  0  0  0  0  0  0  0  0  0  0  0
   -4.4109    1.2881    2.6088 C   0  0  0  0  0  0  0  0  0  0  0  0
   -4.1946    0.4139    3.6885 C   0  0  0  0  0  0  0  0  0  0  0  0
   -3.1618   -0.5358    3.6379 C   0  0  0  0  0  0  0  0  0  0  0  0
   -2.3286   -0.6103    2.5127 C   0  0  0  0  0  0  0  0  0  0  0  0
   -3.7805    1.8820    0.6165 H   0  0  0  0  0  0  0  0  0  0  0  0
   -5.2309    2.0205    2.6465 H   0  0  0  0  0  0  0  0  0  0  0  0
   -4.8471    0.4671    4.5729 H   0  0  0  0  0  0  0  0  0  0  0  0
   -3.0082   -1.2308    4.4765 H   0  0  0  0  0  0  0  0  0  0  0  0
   -1.5351   -1.3703    2.4476 H   0  0  0  0  0  0  0  0  0  0  0  0
  1  4  1  0  0  0  0
  1 40  1  0  0  0  0
  2 19  1  0  0  0  0
  3 20  1  0  0  0  0
  4 19  1  0  0  0  0
  4  5  1  0  0  0  0
  6  7  1  0  0  0  0
  6  8  2  0  0  0  0
  8  9  1  0  0  0  0
 10  8  1  0  0  0  0
 10 11  1  0  0  0  0
 12 10  2  0  0  0  0
 13 12  1  0  0  0  0
 14 15  1  0  0  0  0
 14 12  1  0  0  0  0
 15  6  1  0  0  0  0
 16 14  2  0  0  0  0
 17 16  1  0  0  0  0
 18  2  1  0  0  0  0
 18 16  1  0  0  0  0
 19 15  2  0  0  0  0
 20 18  2  0  0  0  0
 21 22  1  0  0  0  0
 21 20  1  0  0  0  0
 23 21  2  0  0  0  0
 24 23  1  0  0  0  0
 25 23  1  0  0  0  0
 25 27  2  0  0  0  0
 26 25  1  0  0  0  0
 27  3  1  0  0  0  0
 28 27  1  0  0  0  0
 29  1  1  0  0  0  0
 30 35  1  0  0  0  0
 30 29  2  0  0  0  0
 31 30  1  0  0  0  0
 32 31  2  0  0  0  0
 32 33  1  0  0  0  0
 33 34  2  0  0  0  0
 34 29  1  0  0  0  0
 34 39  1  0  0  0  0
 36 31  1  0  0  0  0
 37 32  1  0  0  0  0
 38 33  1  0  0  0  0
 40 41  2  0  0  0  0
 40 45  1  0  0  0  0
 41 42  1  0  0  0  0
 42 47  1  0  0  0  0
 42 43  2  0  0  0  0
 43 48  1  0  0  0  0
 44 43  1  0  0  0  0
 44 49  1  0  0  0  0
 45 44  2  0  0  0  0
 46 41  1  0  0  0  0
 50 45  1  0  0  0  0
M  END
