1,3,4
 OpenBabel05122313063D

 48 49  0  0  1  0  0  0  0  0999 V2000
    1.7490    0.1248   -0.1070 P   0  0  0  0  0  0  0  0  0  0  0  0
    1.3717    1.8469   -0.3013 N   0  0  0  0  0  0  0  0  0  0  0  0
   -0.8820    1.3138   -0.1996 N   0  0  0  0  0  2  0  0  0  0  0  0
   -2.4499   -0.7644   -0.3468 N   0  0  0  0  0  2  0  0  0  0  0  0
   -3.1905   -1.8928   -0.4020 C   0  0  0  0  0  3  0  0  0  0  0  0
   -2.6260   -2.8319   -0.4813 H   0  0  0  0  0  0  0  0  0  0  0  0
   -4.5867   -1.8813   -0.3537 C   0  0  0  0  0  0  0  0  0  0  0  0
   -5.1368   -2.8315   -0.4023 H   0  0  0  0  0  0  0  0  0  0  0  0
   -5.2538   -0.6522   -0.2349 C   0  0  0  0  0  0  0  0  0  0  0  0
   -6.3514   -0.6066   -0.1874 H   0  0  0  0  0  0  0  0  0  0  0  0
   -4.4920    0.5180   -0.1697 C   0  0  0  0  0  0  0  0  0  0  0  0
   -4.9807    1.4958   -0.0647 H   0  0  0  0  0  0  0  0  0  0  0  0
   -3.0892    0.4438   -0.2252 C   0  0  0  0  0  0  0  0  0  0  0  0
   -2.2065    1.6228   -0.1801 C   0  0  2  0  0  3  0  0  0  0  0  0
   -2.6336    2.9598   -0.1587 C   0  0  0  0  0  0  0  0  0  0  0  0
   -3.7018    3.2095   -0.1462 H   0  0  0  0  0  0  0  0  0  0  0  0
   -1.6606    3.9720   -0.1591 C   0  0  0  0  0  0  0  0  0  0  0  0
   -1.9665    5.0282   -0.1346 H   0  0  0  0  0  0  0  0  0  0  0  0
   -0.3018    3.6467   -0.1960 C   0  0  0  0  0  0  0  0  0  0  0  0
    0.4712    4.4280   -0.2025 H   0  0  0  0  0  0  0  0  0  0  0  0
    0.0718    2.2827   -0.2279 C   0  0  0  0  0  0  0  0  0  0  0  0
    2.9625   -0.1600   -1.5642 C   0  0  0  0  0  0  0  0  0  0  0  0
    2.1421   -0.2000   -2.8654 C   0  0  0  0  0  0  0  0  0  0  0  0
    1.5503    0.7265   -3.0055 H   0  0  0  0  0  0  0  0  0  0  0  0
    1.4391   -1.0519   -2.8836 H   0  0  0  0  0  0  0  0  0  0  0  0
    2.8426   -0.2962   -3.7222 H   0  0  0  0  0  0  0  0  0  0  0  0
    4.0067    0.9623   -1.7121 C   0  0  0  0  0  0  0  0  0  0  0  0
    4.6383    0.7460   -2.5996 H   0  0  0  0  0  0  0  0  0  0  0  0
    4.6818    1.0601   -0.8459 H   0  0  0  0  0  0  0  0  0  0  0  0
    3.5227    1.9423   -1.9014 H   0  0  0  0  0  0  0  0  0  0  0  0
    3.6376   -1.5278   -1.3567 C   0  0  0  0  0  0  0  0  0  0  0  0
    4.2334   -1.7813   -2.2590 H   0  0  0  0  0  0  0  0  0  0  0  0
    2.8893   -2.3333   -1.2155 H   0  0  0  0  0  0  0  0  0  0  0  0
    4.3268   -1.5390   -0.4908 H   0  0  0  0  0  0  0  0  0  0  0  0
    2.6988    0.0918    1.5667 C   0  0  0  0  0  0  0  0  0  0  0  0
    4.1615    0.5584    1.5288 C   0  0  0  0  0  0  0  0  0  0  0  0
    4.5570    0.5369    2.5667 H   0  0  0  0  0  0  0  0  0  0  0  0
    4.2673    1.6023    1.1691 H   0  0  0  0  0  0  0  0  0  0  0  0
    4.8158   -0.0942    0.9197 H   0  0  0  0  0  0  0  0  0  0  0  0
    2.6111   -1.3627    2.0724 C   0  0  0  0  0  0  0  0  0  0  0  0
    3.1462   -1.4373    3.0431 H   0  0  0  0  0  0  0  0  0  0  0  0
    3.0803   -2.0855    1.3761 H   0  0  0  0  0  0  0  0  0  0  0  0
    1.5526   -1.6495    2.2362 H   0  0  0  0  0  0  0  0  0  0  0  0
    1.9184    1.0119    2.5258 C   0  0  0  0  0  0  0  0  0  0  0  0
    0.8436    0.7376    2.5662 H   0  0  0  0  0  0  0  0  0  0  0  0
    2.0253    2.0815    2.2545 H   0  0  0  0  0  0  0  0  0  0  0  0
    2.3355    0.8827    3.5473 H   0  0  0  0  0  0  0  0  0  0  0  0
    2.0994    2.5616   -0.2411 H   0  0  0  0  0  0  0  0  0  0  0  0
  1 35  1  0  0  0  0
  2 48  1  0  0  0  0
  2 21  1  0  0  0  0
  2  1  1  0  0  0  0
  3 14  1  0  0  0  0
  4 13  1  0  0  0  0
  5  7  1  0  0  0  0
  5  4  1  0  0  0  0
  6  5  1  0  0  0  0
  7  9  2  0  0  0  0
  8  7  1  0  0  0  0
  9 10  1  0  0  0  0
  9 11  1  0  0  0  0
 11 12  1  0  0  0  0
 13 11  2  0  0  0  0
 14 13  1  6  0  0  0
 14 15  1  0  0  0  0
 15 16  1  0  0  0  0
 17 15  2  0  0  0  0
 17 18  1  0  0  0  0
 19 17  1  0  0  0  0
 20 19  1  0  0  0  0
 21  3  1  0  0  0  0
 21 19  2  0  0  0  0
 22 31  1  0  0  0  0
 22  1  1  0  0  0  0
 23 22  1  0  0  0  0
 24 23  1  0  0  0  0
 25 23  1  0  0  0  0
 26 23  1  0  0  0  0
 27 22  1  0  0  0  0
 27 29  1  0  0  0  0
 28 27  1  0  0  0  0
 30 27  1  0  0  0  0
 31 33  1  0  0  0  0
 31 34  1  0  0  0  0
 32 31  1  0  0  0  0
 35 40  1  0  0  0  0
 35 44  1  0  0  0  0
 36 35  1  0  0  0  0
 36 37  1  0  0  0  0
 38 36  1  0  0  0  0
 39 36  1  0  0  0  0
 40 43  1  0  0  0  0
 40 41  1  0  0  0  0
 42 40  1  0  0  0  0
 44 45  1  0  0  0  0
 44 47  1  0  0  0  0
 46 44  1  0  0  0  0
M  END
