2,3,4
 OpenBabel05122313063D

 66 71  0  0  1  0  0  0  0  0999 V2000
   -1.0897    1.3671    0.1595 P   0  0  0  0  0  4  0  0  0  0  0  0
    1.5619    0.0597    0.8008 P   0  0  0  0  0  0  0  0  0  0  0  0
   -0.1507   -2.5120   -1.2646 N   0  0  0  0  0  2  0  0  0  0  0  0
   -1.0645   -0.0908   -0.5859 N   0  0  0  0  0  2  0  0  0  0  0  0
    0.3574   -3.7179   -1.5641 C   0  0  0  0  0  0  0  0  0  0  0  0
   -0.4171   -4.8991   -1.5540 C   0  0  0  0  0  0  0  0  0  0  0  0
   -1.7625   -4.8314   -1.2227 C   0  0  0  0  0  0  0  0  0  0  0  0
   -2.3422   -3.5732   -0.8876 C   0  0  0  0  0  0  0  0  0  0  0  0
   -3.7110   -3.4133   -0.5336 C   0  0  0  0  0  0  0  0  0  0  0  0
   -4.1982   -2.1472   -0.2314 C   0  0  0  0  0  0  0  0  0  0  0  0
   -3.3616   -1.0088   -0.2509 C   0  0  0  0  0  0  0  0  0  0  0  0
   -1.9951   -1.1171   -0.5649 C   0  0  0  0  0  0  0  0  0  0  0  0
   -1.4832   -2.4209   -0.9187 C   0  0  1  0  0  3  0  0  0  0  0  0
    0.5281    1.6259    1.0086 C   0  0  0  0  0  0  0  0  0  0  0  0
    3.2458    0.6495    1.2537 C   0  0  0  0  0  0  0  0  0  0  0  0
    3.4972    1.7962    2.0354 C   0  0  0  0  0  0  0  0  0  0  0  0
    4.8148    2.1687    2.3435 C   0  0  0  0  0  0  0  0  0  0  0  0
    5.8916    1.3993    1.8766 C   0  0  0  0  0  0  0  0  0  0  0  0
    5.6478    0.2610    1.0916 C   0  0  0  0  0  0  0  0  0  0  0  0
    4.3335   -0.1104    0.7744 C   0  0  0  0  0  0  0  0  0  0  0  0
    1.0124   -0.8667    2.3184 C   0  0  0  0  0  0  0  0  0  0  0  0
    0.2973   -2.0632    2.1208 C   0  0  0  0  0  0  0  0  0  0  0  0
   -0.2521   -2.7521    3.2147 C   0  0  0  0  0  0  0  0  0  0  0  0
   -0.0782   -2.2556    4.5156 C   0  0  0  0  0  0  0  0  0  0  0  0
    0.6588   -1.0755    4.7222 C   0  0  0  0  0  0  0  0  0  0  0  0
    1.2037   -0.3847    3.6301 C   0  0  0  0  0  0  0  0  0  0  0  0
   -1.3048    2.6971   -1.0552 C   0  0  0  0  0  0  0  0  0  0  0  0
   -1.1325    4.0479   -0.6909 C   0  0  0  0  0  0  0  0  0  0  0  0
   -1.2768    5.0495   -1.6611 C   0  0  0  0  0  0  0  0  0  0  0  0
   -1.5809    4.7026   -2.9882 C   0  0  0  0  0  0  0  0  0  0  0  0
   -1.7461    3.3555   -3.3481 C   0  0  0  0  0  0  0  0  0  0  0  0
   -1.6105    2.3472   -2.3836 C   0  0  0  0  0  0  0  0  0  0  0  0
   -2.3678    1.5426    1.4528 C   0  0  0  0  0  0  0  0  0  0  0  0
   -3.4472    2.4383    1.3203 C   0  0  0  0  0  0  0  0  0  0  0  0
   -4.4451    2.4760    2.3065 C   0  0  0  0  0  0  0  0  0  0  0  0
   -4.3725    1.6195    3.4166 C   0  0  0  0  0  0  0  0  0  0  0  0
   -3.2984    0.7227    3.5454 C   0  0  0  0  0  0  0  0  0  0  0  0
   -2.2958    0.6800    2.5682 C   0  0  0  0  0  0  0  0  0  0  0  0
    1.4238   -3.7380   -1.8333 H   0  0  0  0  0  0  0  0  0  0  0  0
    0.0608   -5.8542   -1.8151 H   0  0  0  0  0  0  0  0  0  0  0  0
   -2.3940   -5.7331   -1.2153 H   0  0  0  0  0  0  0  0  0  0  0  0
   -4.3683   -4.2953   -0.5208 H   0  0  0  0  0  0  0  0  0  0  0  0
   -5.2615   -2.0158    0.0215 H   0  0  0  0  0  0  0  0  0  0  0  0
   -3.7891   -0.0239   -0.0238 H   0  0  0  0  0  0  0  0  0  0  0  0
    1.0647    2.4367    0.4758 H   0  0  0  0  0  0  0  0  0  0  0  0
    0.3524    1.9216    2.0624 H   0  0  0  0  0  0  0  0  0  0  0  0
    2.6663    2.4178    2.4015 H   0  0  0  0  0  0  0  0  0  0  0  0
    5.0001    3.0699    2.9478 H   0  0  0  0  0  0  0  0  0  0  0  0
    6.9245    1.6949    2.1155 H   0  0  0  0  0  0  0  0  0  0  0  0
    6.4879   -0.3366    0.7070 H   0  0  0  0  0  0  0  0  0  0  0  0
    4.1482   -0.9810    0.1278 H   0  0  0  0  0  0  0  0  0  0  0  0
    0.1671   -2.4407    1.0973 H   0  0  0  0  0  0  0  0  0  0  0  0
   -0.8200   -3.6793    3.0442 H   0  0  0  0  0  0  0  0  0  0  0  0
   -0.5084   -2.7930    5.3746 H   0  0  0  0  0  0  0  0  0  0  0  0
    0.8116   -0.6927    5.7431 H   0  0  0  0  0  0  0  0  0  0  0  0
    1.7860    0.5340    3.8018 H   0  0  0  0  0  0  0  0  0  0  0  0
   -0.8837    4.3203    0.3472 H   0  0  0  0  0  0  0  0  0  0  0  0
   -1.1406    6.1053   -1.3828 H   0  0  0  0  0  0  0  0  0  0  0  0
   -1.6800    5.4904   -3.7502 H   0  0  0  0  0  0  0  0  0  0  0  0
   -1.9666    3.0821   -4.3905 H   0  0  0  0  0  0  0  0  0  0  0  0
   -1.7040    1.2851   -2.6545 H   0  0  0  0  0  0  0  0  0  0  0  0
   -3.5089    3.1009    0.4441 H   0  0  0  0  0  0  0  0  0  0  0  0
   -5.2863    3.1780    2.2043 H   0  0  0  0  0  0  0  0  0  0  0  0
   -5.1590    1.6496    4.1858 H   0  0  0  0  0  0  0  0  0  0  0  0
   -3.2391    0.0455    4.4105 H   0  0  0  0  0  0  0  0  0  0  0  0
   -1.4649   -0.0349    2.6677 H   0  0  0  0  0  0  0  0  0  0  0  0
  1 14  1  0  0  0  0
  1 33  1  0  0  0  0
  2 14  1  0  0  0  0
  2 15  1  0  0  0  0
  2 21  1  0  0  0  0
  4 12  1  0  0  0  0
  4  1  1  0  0  0  0
  5  6  2  0  0  0  0
  5  3  1  0  0  0  0
  6  7  1  0  0  0  0
  7 41  1  0  0  0  0
  7  8  2  0  0  0  0
  8  9  1  0  0  0  0
  9 42  1  0  0  0  0
  9 10  2  0  0  0  0
 10 43  1  0  0  0  0
 11 10  1  0  0  0  0
 11 44  1  0  0  0  0
 12 11  2  0  0  0  0
 13  3  1  1  0  0  0
 13  8  1  0  0  0  0
 13 12  1  0  0  0  0
 14 46  1  0  0  0  0
 15 16  1  0  0  0  0
 16 17  2  0  0  0  0
 16 47  1  0  0  0  0
 17 48  1  0  0  0  0
 18 49  1  0  0  0  0
 18 17  1  0  0  0  0
 19 18  2  0  0  0  0
 20 19  1  0  0  0  0
 20 15  2  0  0  0  0
 21 26  1  0  0  0  0
 22 21  2  0  0  0  0
 22 23  1  0  0  0  0
 23 24  2  0  0  0  0
 24 25  1  0  0  0  0
 24 54  1  0  0  0  0
 25 55  1  0  0  0  0
 26 56  1  0  0  0  0
 26 25  2  0  0  0  0
 27 28  1  0  0  0  0
 27  1  1  0  0  0  0
 28 57  1  0  0  0  0
 29 58  1  0  0  0  0
 29 28  2  0  0  0  0
 30 29  1  0  0  0  0
 31 30  2  0  0  0  0
 31 32  1  0  0  0  0
 32 27  2  0  0  0  0
 33 38  1  0  0  0  0
 34 33  2  0  0  0  0
 34 35  1  0  0  0  0
 35 36  2  0  0  0  0
 36 37  1  0  0  0  0
 36 64  1  0  0  0  0
 37 65  1  0  0  0  0
 38 66  1  0  0  0  0
 38 37  2  0  0  0  0
 39  5  1  0  0  0  0
 40  6  1  0  0  0  0
 45 14  1  0  0  0  0
 50 19  1  0  0  0  0
 51 20  1  0  0  0  0
 52 22  1  0  0  0  0
 53 23  1  0  0  0  0
 59 30  1  0  0  0  0
 60 31  1  0  0  0  0
 61 32  1  0  0  0  0
 62 34  1  0  0  0  0
 63 35  1  0  0  0  0
M  END
