1,2,3
 OpenBabel05122313063D

 52 53  0  0  0  0  0  0  0  0999 V2000
    1.2656   -0.0376    0.4686 P   0  0  0  0  0  0  0  0  0  0  0  0
   -1.2277    0.0288    2.0695 N   0  0  0  0  0  0  0  0  0  0  0  0
   -3.1547    0.2892   -0.0863 N   0  0  0  0  0  0  0  0  0  0  0  0
    1.1856   -0.1772    2.3360 C   0  0  0  0  0  0  0  0  0  0  0  0
    1.1121   -1.2681    2.5295 H   0  0  0  0  0  0  0  0  0  0  0  0
    2.1030    0.1840    2.8409 H   0  0  0  0  0  0  0  0  0  0  0  0
   -0.0747    0.5341    2.8327 C   0  0  0  0  0  0  0  0  0  0  0  0
   -0.2162    0.3719    3.9270 H   0  0  0  0  0  0  0  0  0  0  0  0
   -0.0008    1.6285    2.6601 H   0  0  0  0  0  0  0  0  0  0  0  0
   -2.5377    0.6372    2.3231 C   0  0  0  0  0  0  0  0  0  0  0  0
   -2.4451    1.7360    2.1999 H   0  0  0  0  0  0  0  0  0  0  0  0
   -2.8928    0.4511    3.3641 H   0  0  0  0  0  0  0  0  0  0  0  0
   -3.5370    0.0392    1.3343 C   0  0  0  0  0  0  0  0  0  0  0  0
   -3.5498   -1.0613    1.4726 H   0  0  0  0  0  0  0  0  0  0  0  0
   -4.5570    0.4307    1.5475 H   0  0  0  0  0  0  0  0  0  0  0  0
   -3.5143    1.6940   -0.4466 C   0  0  0  0  0  0  0  0  0  0  0  0
   -2.9530    2.3526    0.2428 H   0  0  0  0  0  0  0  0  0  0  0  0
   -4.5986    1.8473   -0.2312 H   0  0  0  0  0  0  0  0  0  0  0  0
   -3.2110    2.0988   -1.8802 C   0  0  0  0  0  0  0  0  0  0  0  0
   -2.1415    1.9380   -2.1134 H   0  0  0  0  0  0  0  0  0  0  0  0
   -3.4367    3.1764   -2.0065 H   0  0  0  0  0  0  0  0  0  0  0  0
   -3.8221    1.5445   -2.6192 H   0  0  0  0  0  0  0  0  0  0  0  0
   -3.8146   -0.7085   -0.9876 C   0  0  0  0  0  0  0  0  0  0  0  0
   -3.4342   -1.6973   -0.6617 H   0  0  0  0  0  0  0  0  0  0  0  0
   -3.4030   -0.5433   -2.0011 H   0  0  0  0  0  0  0  0  0  0  0  0
   -5.3424   -0.6833   -1.0210 C   0  0  0  0  0  0  0  0  0  0  0  0
   -5.7936   -0.8760   -0.0267 H   0  0  0  0  0  0  0  0  0  0  0  0
   -5.6967   -1.4870   -1.6967 H   0  0  0  0  0  0  0  0  0  0  0  0
   -5.7543    0.2720   -1.4056 H   0  0  0  0  0  0  0  0  0  0  0  0
    2.4907   -1.3281   -0.0140 C   0  0  0  0  0  0  0  0  0  0  0  0
    2.0087   -2.5982   -0.3917 C   0  0  0  0  0  0  0  0  0  0  0  0
    0.9209   -2.7843   -0.3933 H   0  0  0  0  0  0  0  0  0  0  0  0
    2.9162   -3.6090   -0.7444 C   0  0  0  0  0  0  0  0  0  0  0  0
    2.5361   -4.5991   -1.0393 H   0  0  0  0  0  0  0  0  0  0  0  0
    4.2978   -3.3600   -0.7298 C   0  0  0  0  0  0  0  0  0  0  0  0
    5.0052   -4.1543   -1.0141 H   0  0  0  0  0  0  0  0  0  0  0  0
    4.7778   -2.0930   -0.3593 C   0  0  0  0  0  0  0  0  0  0  0  0
    5.8602   -1.8918   -0.3533 H   0  0  0  0  0  0  0  0  0  0  0  0
    3.8787   -1.0768   -0.0038 C   0  0  0  0  0  0  0  0  0  0  0  0
    4.2572   -0.0805    0.2717 H   0  0  0  0  0  0  0  0  0  0  0  0
    2.1871    1.5234    0.1164 C   0  0  0  0  0  0  0  0  0  0  0  0
    2.2512    1.9434   -1.2302 C   0  0  0  0  0  0  0  0  0  0  0  0
    1.7558    1.3480   -2.0125 H   0  0  0  0  0  0  0  0  0  0  0  0
    2.9319    3.1179   -1.5748 C   0  0  0  0  0  0  0  0  0  0  0  0
    2.9781    3.4306   -2.6291 H   0  0  0  0  0  0  0  0  0  0  0  0
    3.5449    3.8992   -0.5799 C   0  0  0  0  0  0  0  0  0  0  0  0
    4.0732    4.8258   -0.8514 H   0  0  0  0  0  0  0  0  0  0  0  0
    3.4769    3.4946    0.7607 C   0  0  0  0  0  0  0  0  0  0  0  0
    3.9516    4.1019    1.5466 H   0  0  0  0  0  0  0  0  0  0  0  0
    2.8053    2.3095    1.1072 C   0  0  0  0  0  0  0  0  0  0  0  0
    2.7712    2.0058    2.1640 H   0  0  0  0  0  0  0  0  0  0  0  0
   -1.3030   -1.0064    2.1777 H   0  0  0  0  0  0  0  0  0  0  0  0
  1  4  1  0  0  0  0
  2 52  1  0  0  0  0
  2 10  1  0  0  0  0
  2  7  1  0  0  0  0
  3 13  1  0  0  0  0
  4  5  1  0  0  0  0
  4  7  1  0  0  0  0
  4  6  1  0  0  0  0
  7  8  1  0  0  0  0
  9  7  1  0  0  0  0
 10 12  1  0  0  0  0
 11 10  1  0  0  0  0
 13 14  1  0  0  0  0
 13 15  1  0  0  0  0
 13 10  1  0  0  0  0
 16 18  1  0  0  0  0
 16  3  1  0  0  0  0
 16 17  1  0  0  0  0
 19 16  1  0  0  0  0
 20 19  1  0  0  0  0
 21 19  1  0  0  0  0
 22 19  1  0  0  0  0
 23 24  1  0  0  0  0
 23  3  1  0  0  0  0
 25 23  1  0  0  0  0
 26 23  1  0  0  0  0
 26 27  1  0  0  0  0
 28 26  1  0  0  0  0
 29 26  1  0  0  0  0
 30 39  1  0  0  0  0
 30  1  1  0  0  0  0
 31 30  2  0  0  0  0
 32 31  1  0  0  0  0
 33 35  2  0  0  0  0
 33 31  1  0  0  0  0
 34 33  1  0  0  0  0
 35 37  1  0  0  0  0
 36 35  1  0  0  0  0
 37 38  1  0  0  0  0
 37 39  2  0  0  0  0
 39 40  1  0  0  0  0
 41  1  1  0  0  0  0
 41 50  1  0  0  0  0
 42 41  2  0  0  0  0
 43 42  1  0  0  0  0
 44 42  1  0  0  0  0
 44 46  2  0  0  0  0
 45 44  1  0  0  0  0
 46 48  1  0  0  0  0
 47 46  1  0  0  0  0
 48 50  2  0  0  0  0
 48 49  1  0  0  0  0
 50 51  1  0  0  0  0
M  END
