1,2,4
 OpenBabel05122313063D

 56 55  0  0  0  0  0  0  0  0999 V2000
   -1.7463    0.0210    0.1022 P   0  0  0  0  0  0  0  0  0  0  0  0
    0.6270   -0.3427    1.9456 N   0  0  0  0  0  0  0  0  0  0  0  0
    0.6825   -1.3828    1.8937 H   0  0  0  0  0  0  0  0  0  0  0  0
    2.7054    0.2793   -0.0364 N   0  0  0  0  0  0  0  0  0  0  0  0
    2.9861   -0.2218    1.3452 C   0  0  0  0  0  0  0  0  0  0  0  0
    3.9885    0.1164    1.6907 H   0  0  0  0  0  0  0  0  0  0  0  0
    2.9863   -1.3289    1.2787 H   0  0  0  0  0  0  0  0  0  0  0  0
    1.9247    0.1944    2.3666 C   0  0  0  0  0  0  0  0  0  0  0  0
    2.2336   -0.1735    3.3744 H   0  0  0  0  0  0  0  0  0  0  0  0
    1.8356    1.2988    2.4376 H   0  0  0  0  0  0  0  0  0  0  0  0
   -0.5671    0.0895    2.6856 C   0  0  0  0  0  0  0  0  0  0  0  0
   -0.5253    1.1934    2.7661 H   0  0  0  0  0  0  0  0  0  0  0  0
   -0.5670   -0.3158    3.7255 H   0  0  0  0  0  0  0  0  0  0  0  0
   -1.8429   -0.3499    1.9532 C   0  0  0  0  0  0  0  0  0  0  0  0
   -2.7426    0.0942    2.4264 H   0  0  0  0  0  0  0  0  0  0  0  0
   -1.9507   -1.4525    2.0272 H   0  0  0  0  0  0  0  0  0  0  0  0
    3.4486   -0.5366   -1.0499 C   0  0  0  0  0  0  0  0  0  0  0  0
    3.0663   -1.5700   -0.9290 H   0  0  0  0  0  0  0  0  0  0  0  0
    3.0987   -0.1977   -2.0426 H   0  0  0  0  0  0  0  0  0  0  0  0
    4.9735   -0.4904   -0.9657 C   0  0  0  0  0  0  0  0  0  0  0  0
    5.3930   -1.1554   -1.7468 H   0  0  0  0  0  0  0  0  0  0  0  0
    5.3574   -0.8562    0.0082 H   0  0  0  0  0  0  0  0  0  0  0  0
    5.3918    0.5221   -1.1405 H   0  0  0  0  0  0  0  0  0  0  0  0
    3.0612    1.7278   -0.1204 C   0  0  0  0  0  0  0  0  0  0  0  0
    4.1181    1.8554    0.2135 H   0  0  0  0  0  0  0  0  0  0  0  0
    2.4246    2.2529    0.6171 H   0  0  0  0  0  0  0  0  0  0  0  0
    2.8660    2.3550   -1.4926 C   0  0  0  0  0  0  0  0  0  0  0  0
    2.9969    3.4526   -1.4162 H   0  0  0  0  0  0  0  0  0  0  0  0
    1.8444    2.1437   -1.8653 H   0  0  0  0  0  0  0  0  0  0  0  0
    3.5977    1.9841   -2.2369 H   0  0  0  0  0  0  0  0  0  0  0  0
   -2.9464   -1.2810   -0.6542 C   0  0  0  0  0  0  0  0  0  0  0  0
   -2.1938   -2.6211   -0.6687 C   0  0  0  0  0  0  0  0  0  0  0  0
   -2.8667   -3.3991   -1.0894 H   0  0  0  0  0  0  0  0  0  0  0  0
   -1.8839   -2.9520    0.3421 H   0  0  0  0  0  0  0  0  0  0  0  0
   -1.2690   -2.5748   -1.2716 H   0  0  0  0  0  0  0  0  0  0  0  0
   -4.2473   -1.4710    0.1472 C   0  0  0  0  0  0  0  0  0  0  0  0
   -4.8392   -2.2809   -0.3308 H   0  0  0  0  0  0  0  0  0  0  0  0
   -4.8878   -0.5733    0.1799 H   0  0  0  0  0  0  0  0  0  0  0  0
   -4.0493   -1.7944    1.1884 H   0  0  0  0  0  0  0  0  0  0  0  0
   -3.2490   -0.8906   -2.1109 C   0  0  0  0  0  0  0  0  0  0  0  0
   -3.7672   -1.7352   -2.6130 H   0  0  0  0  0  0  0  0  0  0  0  0
   -2.3131   -0.6890   -2.6700 H   0  0  0  0  0  0  0  0  0  0  0  0
   -3.9089   -0.0052   -2.1923 H   0  0  0  0  0  0  0  0  0  0  0  0
   -2.5349    1.7772   -0.0822 C   0  0  0  0  0  0  0  0  0  0  0  0
   -1.8971    2.7019    0.9729 C   0  0  0  0  0  0  0  0  0  0  0  0
   -2.2330    3.7440    0.7854 H   0  0  0  0  0  0  0  0  0  0  0  0
   -0.7910    2.6838    0.9145 H   0  0  0  0  0  0  0  0  0  0  0  0
   -2.2102    2.4398    2.0035 H   0  0  0  0  0  0  0  0  0  0  0  0
   -2.1913    2.3248   -1.4802 C   0  0  0  0  0  0  0  0  0  0  0  0
   -2.5622    3.3689   -1.5643 H   0  0  0  0  0  0  0  0  0  0  0  0
   -2.6573    1.7353   -2.2910 H   0  0  0  0  0  0  0  0  0  0  0  0
   -1.0972    2.3211   -1.6465 H   0  0  0  0  0  0  0  0  0  0  0  0
   -4.0566    1.8120    0.1314 C   0  0  0  0  0  0  0  0  0  0  0  0
   -4.3957    2.8700    0.1110 H   0  0  0  0  0  0  0  0  0  0  0  0
   -4.3578    1.3933    1.1129 H   0  0  0  0  0  0  0  0  0  0  0  0
   -4.6120    1.2795   -0.6629 H   0  0  0  0  0  0  0  0  0  0  0  0
  1 14  1  0  0  0  0
  2  8  1  0  0  0  0
  2 11  1  0  0  0  0
  3  2  1  0  0  0  0
  4  5  1  0  0  0  0
  5  6  1  0  0  0  0
  5  8  1  0  0  0  0
  7  5  1  0  0  0  0
  8 10  1  0  0  0  0
  8  9  1  0  0  0  0
 11 12  1  0  0  0  0
 11 13  1  0  0  0  0
 14 16  1  0  0  0  0
 14 15  1  0  0  0  0
 14 11  1  0  0  0  0
 17 20  1  0  0  0  0
 17 18  1  0  0  0  0
 17  4  1  0  0  0  0
 19 17  1  0  0  0  0
 20 22  1  0  0  0  0
 21 20  1  0  0  0  0
 23 20  1  0  0  0  0
 24  4  1  0  0  0  0
 24 25  1  0  0  0  0
 24 26  1  0  0  0  0
 27 28  1  0  0  0  0
 27 24  1  0  0  0  0
 29 27  1  0  0  0  0
 30 27  1  0  0  0  0
 31  1  1  0  0  0  0
 31 36  1  0  0  0  0
 32 31  1  0  0  0  0
 32 34  1  0  0  0  0
 33 32  1  0  0  0  0
 35 32  1  0  0  0  0
 36 38  1  0  0  0  0
 36 39  1  0  0  0  0
 37 36  1  0  0  0  0
 40 31  1  0  0  0  0
 41 40  1  0  0  0  0
 42 40  1  0  0  0  0
 43 40  1  0  0  0  0
 44  1  1  0  0  0  0
 44 53  1  0  0  0  0
 44 45  1  0  0  0  0
 45 48  1  0  0  0  0
 46 45  1  0  0  0  0
 47 45  1  0  0  0  0
 49 44  1  0  0  0  0
 50 49  1  0  0  0  0
 51 49  1  0  0  0  0
 52 49  1  0  0  0  0
 53 55  1  0  0  0  0
 54 53  1  0  0  0  0
 56 53  1  0  0  0  0
M  END
