1,2,3
 OpenBabel05122313063D

 62 66  0  0  1  0  0  0  0  0999 V2000
    1.4475   -0.1727    0.0836 P   0  0  0  0  0  0  0  0  0  0  0  0
   -1.2790    0.0391   -1.3638 N   0  0  0  0  0  2  0  0  0  0  0  0
   -1.2878    2.4330   -0.2824 N   0  0  0  0  0  2  0  0  0  0  0  0
    1.9276    0.4260    1.7541 C   0  0  0  0  0  0  0  0  0  0  0  0
    3.1771    0.1519    2.3444 C   0  0  0  0  0  0  0  0  0  0  0  0
    3.9214   -0.4461    1.7969 H   0  0  0  0  0  0  0  0  0  0  0  0
    3.4724    0.6480    3.6246 C   0  0  0  0  0  0  0  0  0  0  0  0
    4.4521    0.4342    4.0788 H   0  0  0  0  0  0  0  0  0  0  0  0
    2.5262    1.4153    4.3215 C   0  0  0  0  0  0  0  0  0  0  0  0
    2.7621    1.8043    5.3237 H   0  0  0  0  0  0  0  0  0  0  0  0
    1.2826    1.6988    3.7309 C   0  0  0  0  0  0  0  0  0  0  0  0
    0.5438    2.3140    4.2670 H   0  0  0  0  0  0  0  0  0  0  0  0
    0.9874    1.2164    2.4492 C   0  0  0  0  0  0  0  0  0  0  0  0
    0.0295    1.4643    1.9644 H   0  0  0  0  0  0  0  0  0  0  0  0
    3.0201   -0.7684   -0.6510 C   0  0  0  0  0  0  0  0  0  0  0  0
    3.7820    0.1915   -1.3541 C   0  0  0  0  0  0  0  0  0  0  0  0
    3.3866    1.2177   -1.4752 H   0  0  0  0  0  0  0  0  0  0  0  0
    5.0055   -0.1838   -1.9281 C   0  0  0  0  0  0  0  0  0  0  0  0
    5.5968    0.5646   -2.4776 H   0  0  0  0  0  0  0  0  0  0  0  0
    5.4662   -1.5067   -1.8206 C   0  0  0  0  0  0  0  0  0  0  0  0
    6.4241   -1.7965   -2.2794 H   0  0  0  0  0  0  0  0  0  0  0  0
    4.6974   -2.4640   -1.1388 C   0  0  0  0  0  0  0  0  0  0  0  0
    5.0498   -3.5043   -1.0631 H   0  0  0  0  0  0  0  0  0  0  0  0
    3.4750   -2.0991   -0.5534 C   0  0  0  0  0  0  0  0  0  0  0  0
    2.8718   -2.8517   -0.0235 H   0  0  0  0  0  0  0  0  0  0  0  0
    0.4849   -1.7121    0.4496 C   0  0  0  0  0  0  0  0  0  0  0  0
    0.7665   -2.4592    1.6128 C   0  0  0  0  0  0  0  0  0  0  0  0
    1.5583   -2.1132    2.2947 H   0  0  0  0  0  0  0  0  0  0  0  0
    0.0481   -3.6240    1.9194 C   0  0  0  0  0  0  0  0  0  0  0  0
    0.2820   -4.1885    2.8348 H   0  0  0  0  0  0  0  0  0  0  0  0
   -0.9710   -4.0536    1.0584 C   0  0  0  0  0  0  0  0  0  0  0  0
   -1.5532   -4.9583    1.2903 H   0  0  0  0  0  0  0  0  0  0  0  0
   -1.2660   -3.3106   -0.0931 C   0  0  0  0  0  0  0  0  0  0  0  0
   -2.0909   -3.6285   -0.7500 H   0  0  0  0  0  0  0  0  0  0  0  0
   -0.5585   -2.1366   -0.4161 C   0  0  0  0  0  0  0  0  0  0  0  0
   -0.9769   -1.3675   -1.6757 C   0  0  2  0  0  0  0  0  0  0  0  0
   -1.9037   -1.8631   -2.0322 H   0  0  0  0  0  0  0  0  0  0  0  0
    0.0580   -1.4298   -2.8040 C   0  0  0  0  0  0  0  0  0  0  0  0
   -0.3588   -0.9744   -3.7238 H   0  0  0  0  0  0  0  0  0  0  0  0
    0.3446   -2.4778   -3.0187 H   0  0  0  0  0  0  0  0  0  0  0  0
    0.9709   -0.8588   -2.5387 H   0  0  0  0  0  0  0  0  0  0  0  0
   -2.3747    0.3539   -0.6964 C   0  0  1  0  0  3  0  0  0  0  0  0
   -3.4320   -0.6187   -0.2965 C   0  0  0  0  0  0  0  0  0  0  0  0
   -3.5564   -1.0034    1.0555 C   0  0  0  0  0  0  0  0  0  0  0  0
   -2.8809   -0.5619    1.8039 H   0  0  0  0  0  0  0  0  0  0  0  0
   -4.5073   -1.9596    1.4382 C   0  0  0  0  0  0  0  0  0  0  0  0
   -4.5853   -2.2600    2.4941 H   0  0  0  0  0  0  0  0  0  0  0  0
   -5.3525   -2.5368    0.4767 C   0  0  0  0  0  0  0  0  0  0  0  0
   -6.0993   -3.2873    0.7774 H   0  0  0  0  0  0  0  0  0  0  0  0
   -5.2478   -2.1487   -0.8689 C   0  0  0  0  0  0  0  0  0  0  0  0
   -5.9168   -2.5887   -1.6240 H   0  0  0  0  0  0  0  0  0  0  0  0
   -4.2935   -1.1951   -1.2543 C   0  0  0  0  0  0  0  0  0  0  0  0
   -4.2146   -0.8839   -2.3075 H   0  0  0  0  0  0  0  0  0  0  0  0
   -2.4744    1.7556   -0.2780 C   0  0  2  0  0  3  0  0  0  0  0  0
   -3.6773    2.3907    0.1034 C   0  0  0  0  0  0  0  0  0  0  0  0
   -4.6190    1.8227    0.0941 H   0  0  0  0  0  0  0  0  0  0  0  0
   -3.6427    3.7408    0.4616 C   0  0  0  0  0  0  0  0  0  0  0  0
   -4.5667    4.2595    0.7587 H   0  0  0  0  0  0  0  0  0  0  0  0
   -2.4156    4.4348    0.4180 C   0  0  0  0  0  0  0  0  0  0  0  0
   -2.3519    5.4976    0.6925 H   0  0  0  0  0  0  0  0  0  0  0  0
   -1.2653    3.7419    0.0252 C   0  0  0  0  0  0  0  0  0  0  0  0
   -0.2744    4.2206   -0.0606 H   0  0  0  0  0  0  0  0  0  0  0  0
  1 26  1  0  0  0  0
  1  4  1  0  0  0  0
  3 54  1  0  0  0  0
  3 61  1  0  0  0  0
  4  5  2  0  0  0  0
  4 13  1  0  0  0  0
  5  7  1  0  0  0  0
  6  5  1  0  0  0  0
  7  8  1  0  0  0  0
  7  9  2  0  0  0  0
  9 10  1  0  0  0  0
 11 12  1  0  0  0  0
 11  9  1  0  0  0  0
 13 11  2  0  0  0  0
 14 13  1  0  0  0  0
 15 24  1  0  0  0  0
 15  1  1  0  0  0  0
 16 15  2  0  0  0  0
 17 16  1  0  0  0  0
 18 20  2  0  0  0  0
 18 16  1  0  0  0  0
 19 18  1  0  0  0  0
 20 22  1  0  0  0  0
 21 20  1  0  0  0  0
 22 23  1  0  0  0  0
 22 24  2  0  0  0  0
 24 25  1  0  0  0  0
 26 27  1  0  0  0  0
 27 29  2  0  0  0  0
 27 28  1  0  0  0  0
 29 30  1  0  0  0  0
 31 32  1  0  0  0  0
 31 29  1  0  0  0  0
 33 31  2  0  0  0  0
 34 33  1  0  0  0  0
 35 33  1  0  0  0  0
 35 26  2  0  0  0  0
 36 37  1  6  0  0  0
 36  2  1  0  0  0  0
 36 35  1  0  0  0  0
 38 41  1  0  0  0  0
 38 36  1  0  0  0  0
 39 38  1  0  0  0  0
 40 38  1  0  0  0  0
 42  2  1  1  0  0  0
 42 43  1  0  0  0  0
 43 44  1  0  0  0  0
 44 46  2  0  0  0  0
 44 45  1  0  0  0  0
 46 47  1  0  0  0  0
 48 49  1  0  0  0  0
 48 46  1  0  0  0  0
 50 48  2  0  0  0  0
 51 50  1  0  0  0  0
 52 50  1  0  0  0  0
 52 43  2  0  0  0  0
 53 52  1  0  0  0  0
 54 42  1  6  0  0  0
 54 55  1  0  0  0  0
 55 57  2  0  0  0  0
 56 55  1  0  0  0  0
 57 58  1  0  0  0  0
 59 57  1  0  0  0  0
 59 60  1  0  0  0  0
 61 59  2  0  0  0  0
 62 61  1  0  0  0  0
M  END
