1,2,3
 OpenBabel05122313063D

 70 71  0  0  0  0  0  0  0  0999 V2000
    2.5306   -0.1628    0.2528 P   0  0  0  0  0  0  0  0  0  0  0  0
    0.6485    1.6627   -0.9263 N   0  0  0  0  0  2  0  0  0  0  0  0
   -1.6738    0.5716   -0.4599 N   0  0  0  0  0  2  0  0  0  0  0  0
    1.9539    2.1239   -1.0881 C   0  0  0  0  0  0  0  0  0  0  0  0
    2.1076    3.3684   -1.8171 C   0  0  0  0  0  0  0  0  0  0  0  0
    3.1244    3.7605   -1.9645 H   0  0  0  0  0  0  0  0  0  0  0  0
    1.0135    4.0477   -2.3172 C   0  0  0  0  0  0  0  0  0  0  0  0
    1.1606    4.9898   -2.8672 H   0  0  0  0  0  0  0  0  0  0  0  0
   -0.3028    3.5383   -2.1279 C   0  0  0  0  0  0  0  0  0  0  0  0
   -1.1907    4.0570   -2.5127 H   0  0  0  0  0  0  0  0  0  0  0  0
   -0.4255    2.3396   -1.4226 C   0  0  0  0  0  0  0  0  0  0  0  0
   -1.6954    1.6891   -1.1412 C   0  0  0  0  0  0  0  0  0  0  0  0
   -2.6482    2.1203   -1.5008 H   0  0  0  0  0  0  0  0  0  0  0  0
    2.9946    1.3697   -0.5497 C   0  0  0  0  0  3  0  0  0  0  0  0
    4.0384    1.6896   -0.6710 H   0  0  0  0  0  0  0  0  0  0  0  0
   -2.8816   -0.1027   -0.1157 C   0  0  0  0  0  0  0  0  0  0  0  0
   -3.7229    0.4326    0.8983 C   0  0  0  0  0  0  0  0  0  0  0  0
   -4.8785   -0.2992    1.2296 C   0  0  0  0  0  0  0  0  0  0  0  0
   -5.5514    0.0825    2.0103 H   0  0  0  0  0  0  0  0  0  0  0  0
   -5.1841   -1.5099    0.5939 C   0  0  0  0  0  0  0  0  0  0  0  0
   -6.0964   -2.0593    0.8713 H   0  0  0  0  0  0  0  0  0  0  0  0
   -3.1556   -1.3398   -0.7545 C   0  0  0  0  0  0  0  0  0  0  0  0
   -4.3248   -2.0267   -0.3830 C   0  0  0  0  0  0  0  0  0  0  0  0
   -4.5643   -2.9844   -0.8676 H   0  0  0  0  0  0  0  0  0  0  0  0
   -2.2169   -1.8665   -1.8309 C   0  0  0  0  0  0  0  0  0  0  0  0
   -1.2059   -1.4588   -1.5896 H   0  0  0  0  0  0  0  0  0  0  0  0
   -2.0937   -3.3943   -1.8382 C   0  0  0  0  0  0  0  0  0  0  0  0
   -1.3035   -3.7086   -2.5499 H   0  0  0  0  0  0  0  0  0  0  0  0
   -3.0333   -3.8924   -2.1567 H   0  0  0  0  0  0  0  0  0  0  0  0
   -1.8233   -3.7788   -0.8345 H   0  0  0  0  0  0  0  0  0  0  0  0
   -2.6106   -1.3209   -3.2150 C   0  0  0  0  0  0  0  0  0  0  0  0
   -1.8894   -1.6545   -3.9895 H   0  0  0  0  0  0  0  0  0  0  0  0
   -2.6299   -0.2124   -3.2257 H   0  0  0  0  0  0  0  0  0  0  0  0
   -3.6203   -1.6768   -3.5088 H   0  0  0  0  0  0  0  0  0  0  0  0
   -3.3259    1.6886    1.6712 C   0  0  0  0  0  0  0  0  0  0  0  0
   -2.8993    2.4144    0.9471 H   0  0  0  0  0  0  0  0  0  0  0  0
   -2.2116    1.3545    2.6827 C   0  0  0  0  0  0  0  0  0  0  0  0
   -1.3200    0.9260    2.1766 H   0  0  0  0  0  0  0  0  0  0  0  0
   -2.5716    0.6126    3.4251 H   0  0  0  0  0  0  0  0  0  0  0  0
   -1.8907    2.2653    3.2288 H   0  0  0  0  0  0  0  0  0  0  0  0
   -4.5024    2.3904    2.3594 C   0  0  0  0  0  0  0  0  0  0  0  0
   -4.9159    1.7831    3.1909 H   0  0  0  0  0  0  0  0  0  0  0  0
   -5.3281    2.6061    1.6515 H   0  0  0  0  0  0  0  0  0  0  0  0
   -4.1667    3.3512    2.7983 H   0  0  0  0  0  0  0  0  0  0  0  0
    3.2380   -0.0753    2.0251 C   0  0  0  0  0  0  0  0  0  0  0  0
    2.3222    0.9307    2.7502 C   0  0  0  0  0  0  0  0  0  0  0  0
    2.7038    1.1012    3.7798 H   0  0  0  0  0  0  0  0  0  0  0  0
    1.2810    0.5572    2.8133 H   0  0  0  0  0  0  0  0  0  0  0  0
    2.3023    1.9048    2.2209 H   0  0  0  0  0  0  0  0  0  0  0  0
    4.6768    0.4674    2.0367 C   0  0  0  0  0  0  0  0  0  0  0  0
    5.3944   -0.2084    1.5351 H   0  0  0  0  0  0  0  0  0  0  0  0
    5.0112    0.5861    3.0897 H   0  0  0  0  0  0  0  0  0  0  0  0
    4.7344    1.4621    1.5532 H   0  0  0  0  0  0  0  0  0  0  0  0
    3.2895   -1.5843   -0.7829 C   0  0  0  0  0  0  0  0  0  0  0  0
    4.8245   -1.5644   -0.7474 C   0  0  0  0  0  0  0  0  0  0  0  0
    5.2240   -1.8625    0.2417 H   0  0  0  0  0  0  0  0  0  0  0  0
    5.2313   -0.5659   -1.0057 H   0  0  0  0  0  0  0  0  0  0  0  0
    5.2198   -2.2878   -1.4928 H   0  0  0  0  0  0  0  0  0  0  0  0
    2.7987   -1.3173   -2.2191 C   0  0  0  0  0  0  0  0  0  0  0  0
    3.1382   -2.1413   -2.8822 H   0  0  0  0  0  0  0  0  0  0  0  0
    3.1902   -0.3596   -2.6132 H   0  0  0  0  0  0  0  0  0  0  0  0
    1.6897   -1.2727   -2.2540 H   0  0  0  0  0  0  0  0  0  0  0  0
    3.1706   -1.4372    2.7303 C   0  0  0  0  0  0  0  0  0  0  0  0
    3.8999   -2.1599    2.3145 H   0  0  0  0  0  0  0  0  0  0  0  0
    2.1596   -1.8870    2.6740 H   0  0  0  0  0  0  0  0  0  0  0  0
    3.4179   -1.3041    3.8052 H   0  0  0  0  0  0  0  0  0  0  0  0
    2.7557   -2.9528   -0.3297 C   0  0  0  0  0  0  0  0  0  0  0  0
    3.1728   -3.7418   -0.9919 H   0  0  0  0  0  0  0  0  0  0  0  0
    1.6521   -2.9973   -0.4037 H   0  0  0  0  0  0  0  0  0  0  0  0
    3.0402   -3.2065    0.7079 H   0  0  0  0  0  0  0  0  0  0  0  0
  1 45  1  0  0  0  0
  3 16  1  0  0  0  0
  4  2  1  0  0  0  0
  4 14  1  0  0  0  0
  5  4  2  0  0  0  0
  6  5  1  0  0  0  0
  7  9  2  0  0  0  0
  7  5  1  0  0  0  0
  8  7  1  0  0  0  0
  9 11  1  0  0  0  0
 10  9  1  0  0  0  0
 11 12  2  0  0  0  0
 11  2  1  0  0  0  0
 12  3  1  0  0  0  0
 13 12  1  0  0  0  0
 14  1  1  0  0  0  0
 15 14  1  0  0  0  0
 16 17  1  0  0  0  0
 17 18  2  0  0  0  0
 17 35  1  0  0  0  0
 18 19  1  0  0  0  0
 20 21  1  0  0  0  0
 20 18  1  0  0  0  0
 22 23  1  0  0  0  0
 22 16  2  0  0  0  0
 23 20  2  0  0  0  0
 24 23  1  0  0  0  0
 25 26  1  0  0  0  0
 25 22  1  0  0  0  0
 27 25  1  0  0  0  0
 27 30  1  0  0  0  0
 28 27  1  0  0  0  0
 29 27  1  0  0  0  0
 31 25  1  0  0  0  0
 32 31  1  0  0  0  0
 33 31  1  0  0  0  0
 34 31  1  0  0  0  0
 35 41  1  0  0  0  0
 35 37  1  0  0  0  0
 36 35  1  0  0  0  0
 37 40  1  0  0  0  0
 37 39  1  0  0  0  0
 38 37  1  0  0  0  0
 41 44  1  0  0  0  0
 41 42  1  0  0  0  0
 43 41  1  0  0  0  0
 45 50  1  0  0  0  0
 45 63  1  0  0  0  0
 45 46  1  0  0  0  0
 46 48  1  0  0  0  0
 46 47  1  0  0  0  0
 49 46  1  0  0  0  0
 50 52  1  0  0  0  0
 51 50  1  0  0  0  0
 53 50  1  0  0  0  0
 54 55  1  0  0  0  0
 54 67  1  0  0  0  0
 54  1  1  0  0  0  0
 55 56  1  0  0  0  0
 57 55  1  0  0  0  0
 58 55  1  0  0  0  0
 59 54  1  0  0  0  0
 60 59  1  0  0  0  0
 61 59  1  0  0  0  0
 62 59  1  0  0  0  0
 63 66  1  0  0  0  0
 64 63  1  0  0  0  0
 65 63  1  0  0  0  0
 67 70  1  0  0  0  0
 68 67  1  0  0  0  0
 69 67  1  0  0  0  0
M  END
