2,3,4
 OpenBabel05122313063D

 73 78  0  0  1  0  0  0  0  0999 V2000
   -2.6542   -0.1856    0.1357 P   0  0  0  0  0  4  0  0  0  0  0  0
    2.8319    0.2391   -0.2929 P   0  0  0  0  0  0  0  0  0  0  0  0
   -1.4090    0.8423   -0.1462 N   0  0  0  0  0  2  0  0  0  0  0  0
    0.7367    2.1023   -1.0313 N   0  0  0  0  0  2  0  0  0  0  0  0
   -0.3833    2.8707   -1.0111 C   0  0  2  0  0  3  0  0  0  0  0  0
   -0.3663    4.1496   -1.5857 C   0  0  0  0  0  0  0  0  0  0  0  0
   -1.2769    4.7653   -1.5705 H   0  0  0  0  0  0  0  0  0  0  0  0
    0.8187    4.6238   -2.1623 C   0  0  0  0  0  0  0  0  0  0  0  0
    0.8528    5.6268   -2.6125 H   0  0  0  0  0  0  0  0  0  0  0  0
    1.9631    3.8105   -2.1702 C   0  0  0  0  0  0  0  0  0  0  0  0
    2.9007    4.1588   -2.6255 H   0  0  0  0  0  0  0  0  0  0  0  0
    1.8995    2.5313   -1.6026 C   0  0  0  0  0  0  0  0  0  0  0  0
   -1.5752    2.2790   -0.2927 C   0  0  0  0  0  0  0  0  0  0  0  0
   -1.6486    2.8096    0.6918 H   0  0  0  0  0  0  0  0  0  0  0  0
   -2.5041    2.5489   -0.8462 H   0  0  0  0  0  0  0  0  0  0  0  0
    3.0403    1.5469   -1.6230 C   0  0  0  0  0  0  0  0  0  0  0  0
    4.0315    2.0407   -1.5874 H   0  0  0  0  0  0  0  0  0  0  0  0
    3.0051    0.9721   -2.5748 H   0  0  0  0  0  0  0  0  0  0  0  0
   -4.1668    0.4266   -0.6782 C   0  0  0  0  0  0  0  0  0  0  0  0
   -4.5299   -0.0286   -1.9624 C   0  0  0  0  0  0  0  0  0  0  0  0
   -3.9440   -0.8196   -2.4539 H   0  0  0  0  0  0  0  0  0  0  0  0
   -5.6514    0.5167   -2.6045 C   0  0  0  0  0  0  0  0  0  0  0  0
   -5.9395    0.1513   -3.6014 H   0  0  0  0  0  0  0  0  0  0  0  0
   -6.4090    1.5170   -1.9744 C   0  0  0  0  0  0  0  0  0  0  0  0
   -7.2904    1.9391   -2.4801 H   0  0  0  0  0  0  0  0  0  0  0  0
   -6.0491    1.9739   -0.6958 C   0  0  0  0  0  0  0  0  0  0  0  0
   -6.6462    2.7528   -0.1986 H   0  0  0  0  0  0  0  0  0  0  0  0
   -4.9324    1.4309   -0.0447 C   0  0  0  0  0  0  0  0  0  0  0  0
   -4.6634    1.7770    0.9654 H   0  0  0  0  0  0  0  0  0  0  0  0
   -3.0871   -0.4113    1.8886 C   0  0  0  0  0  0  0  0  0  0  0  0
   -4.3493   -0.9211    2.2642 C   0  0  0  0  0  0  0  0  0  0  0  0
   -5.1037   -1.1599    1.4985 H   0  0  0  0  0  0  0  0  0  0  0  0
   -4.6435   -1.1130    3.6212 C   0  0  0  0  0  0  0  0  0  0  0  0
   -5.6259   -1.5102    3.9172 H   0  0  0  0  0  0  0  0  0  0  0  0
   -3.6871   -0.7927    4.5998 C   0  0  0  0  0  0  0  0  0  0  0  0
   -3.9228   -0.9418    5.6643 H   0  0  0  0  0  0  0  0  0  0  0  0
   -2.4346   -0.2820    4.2245 C   0  0  0  0  0  0  0  0  0  0  0  0
   -1.6864   -0.0344    4.9920 H   0  0  0  0  0  0  0  0  0  0  0  0
   -2.1272   -0.0918    2.8694 C   0  0  0  0  0  0  0  0  0  0  0  0
   -1.1398    0.2848    2.5649 H   0  0  0  0  0  0  0  0  0  0  0  0
   -2.1957   -1.7849   -0.5872 C   0  0  0  0  0  0  0  0  0  0  0  0
   -2.5090   -2.9956    0.0568 C   0  0  0  0  0  0  0  0  0  0  0  0
   -3.0289   -2.9899    1.0259 H   0  0  0  0  0  0  0  0  0  0  0  0
   -2.1204   -4.2101   -0.5261 C   0  0  0  0  0  0  0  0  0  0  0  0
   -2.3530   -5.1570   -0.0172 H   0  0  0  0  0  0  0  0  0  0  0  0
   -1.4228   -4.2178   -1.7442 C   0  0  0  0  0  0  0  0  0  0  0  0
   -1.1168   -5.1742   -2.1945 H   0  0  0  0  0  0  0  0  0  0  0  0
   -1.1124   -3.0080   -2.3879 C   0  0  0  0  0  0  0  0  0  0  0  0
   -0.5645   -3.0133   -3.3423 H   0  0  0  0  0  0  0  0  0  0  0  0
   -1.4940   -1.7892   -1.8111 C   0  0  0  0  0  0  0  0  0  0  0  0
   -1.2296   -0.8355   -2.2917 H   0  0  0  0  0  0  0  0  0  0  0  0
    3.5943   -1.2759   -0.9496 C   0  0  0  0  0  0  0  0  0  0  0  0
    4.9985   -1.3741   -1.0538 C   0  0  0  0  0  0  0  0  0  0  0  0
    5.6428   -0.5610   -0.6844 H   0  0  0  0  0  0  0  0  0  0  0  0
    5.5714   -2.5222   -1.6179 C   0  0  0  0  0  0  0  0  0  0  0  0
    6.6656   -2.6027   -1.7001 H   0  0  0  0  0  0  0  0  0  0  0  0
    4.7506   -3.5702   -2.0683 C   0  0  0  0  0  0  0  0  0  0  0  0
    5.2055   -4.4724   -2.5041 H   0  0  0  0  0  0  0  0  0  0  0  0
    3.3548   -3.4749   -1.9517 C   0  0  0  0  0  0  0  0  0  0  0  0
    2.7136   -4.3036   -2.2875 H   0  0  0  0  0  0  0  0  0  0  0  0
    2.7691   -2.3299   -1.3921 C   0  0  0  0  0  0  0  0  0  0  0  0
    1.6782   -2.2626   -1.2619 H   0  0  0  0  0  0  0  0  0  0  0  0
    3.8095    0.7572    1.1485 C   0  0  0  0  0  0  0  0  0  0  0  0
    4.0638   -0.2081    2.1480 C   0  0  0  0  0  0  0  0  0  0  0  0
    3.7086   -1.2415    2.0169 H   0  0  0  0  0  0  0  0  0  0  0  0
    4.7556    0.1621    3.3083 C   0  0  0  0  0  0  0  0  0  0  0  0
    4.9583   -0.5911    4.0841 H   0  0  0  0  0  0  0  0  0  0  0  0
    5.1859    1.4884    3.4832 C   0  0  0  0  0  0  0  0  0  0  0  0
    5.7305    1.7738    4.3955 H   0  0  0  0  0  0  0  0  0  0  0  0
    4.9183    2.4514    2.4976 C   0  0  0  0  0  0  0  0  0  0  0  0
    5.2508    3.4910    2.6357 H   0  0  0  0  0  0  0  0  0  0  0  0
    4.2271    2.0914    1.3311 C   0  0  0  0  0  0  0  0  0  0  0  0
    4.0151    2.8586    0.5710 H   0  0  0  0  0  0  0  0  0  0  0  0
  1 30  1  0  0  0  0
  2 63  1  0  0  0  0
  3  1  1  0  0  0  0
  4  5  1  0  0  0  0
  5 13  1  1  0  0  0
  6  7  1  0  0  0  0
  6  5  1  0  0  0  0
  8  6  2  0  0  0  0
  9  8  1  0  0  0  0
 10  8  1  0  0  0  0
 10 12  2  0  0  0  0
 11 10  1  0  0  0  0
 12  4  1  0  0  0  0
 13  3  1  0  0  0  0
 13 14  1  0  0  0  0
 15 13  1  0  0  0  0
 16 12  1  0  0  0  0
 16 17  1  0  0  0  0
 16  2  1  0  0  0  0
 18 16  1  0  0  0  0
 19 28  1  0  0  0  0
 19  1  1  0  0  0  0
 20 19  2  0  0  0  0
 21 20  1  0  0  0  0
 22 24  2  0  0  0  0
 22 20  1  0  0  0  0
 23 22  1  0  0  0  0
 24 26  1  0  0  0  0
 25 24  1  0  0  0  0
 26 27  1  0  0  0  0
 26 28  2  0  0  0  0
 28 29  1  0  0  0  0
 30 31  2  0  0  0  0
 30 39  1  0  0  0  0
 31 33  1  0  0  0  0
 32 31  1  0  0  0  0
 33 34  1  0  0  0  0
 33 35  2  0  0  0  0
 35 36  1  0  0  0  0
 37 35  1  0  0  0  0
 37 38  1  0  0  0  0
 39 37  2  0  0  0  0
 40 39  1  0  0  0  0
 41 42  1  0  0  0  0
 41  1  1  0  0  0  0
 42 43  1  0  0  0  0
 44 45  1  0  0  0  0
 44 42  2  0  0  0  0
 46 44  1  0  0  0  0
 47 46  1  0  0  0  0
 48 50  1  0  0  0  0
 48 46  2  0  0  0  0
 49 48  1  0  0  0  0
 50 41  2  0  0  0  0
 51 50  1  0  0  0  0
 52  2  1  0  0  0  0
 53 52  1  0  0  0  0
 53 54  1  0  0  0  0
 55 53  2  0  0  0  0
 56 55  1  0  0  0  0
 57 59  2  0  0  0  0
 57 55  1  0  0  0  0
 58 57  1  0  0  0  0
 59 61  1  0  0  0  0
 60 59  1  0  0  0  0
 61 62  1  0  0  0  0
 61 52  2  0  0  0  0
 63 72  2  0  0  0  0
 63 64  1  0  0  0  0
 64 66  2  0  0  0  0
 65 64  1  0  0  0  0
 66 68  1  0  0  0  0
 66 67  1  0  0  0  0
 68 69  1  0  0  0  0
 70 71  1  0  0  0  0
 70 68  2  0  0  0  0
 72 70  1  0  0  0  0
 73 72  1  0  0  0  0
M  END
