1,2,4
 OpenBabel05122313063D

 43 43  0  0  1  0  0  0  0  0999 V2000
    3.0773   -0.6532    0.2962 P   0  0  0  0  0  0  0  0  0  0  0  0
    0.8533    1.7740   -0.5676 N   0  0  0  0  0  2  0  0  0  0  0  0
    0.4029    3.8734   -0.0018 N   0  0  0  0  0  0  0  0  0  0  0  0
    0.9112    0.7480    1.9245 N   0  0  0  0  0  0  0  0  0  0  0  0
    0.4206    0.1634    2.6162 H   0  0  0  0  0  0  0  0  0  0  0  0
    1.0382    2.5659   -1.6787 C   0  0  0  0  0  0  0  0  0  0  0  0
    1.3525    2.1510   -2.6415 H   0  0  0  0  0  0  0  0  0  0  0  0
    0.7544    3.8774   -1.3420 C   0  0  0  0  0  0  0  0  0  0  0  0
    0.7689    4.8004   -1.9295 H   0  0  0  0  0  0  0  0  0  0  0  0
    0.4745    2.5802    0.4315 C   0  0  1  0  0  3  0  0  0  0  0  0
   -0.0773    5.0141    0.7631 C   0  0  0  0  0  0  0  0  0  0  0  0
   -1.1842    4.9963    0.8306 H   0  0  0  0  0  0  0  0  0  0  0  0
    0.2394    5.9468    0.2632 H   0  0  0  0  0  0  0  0  0  0  0  0
    0.3517    5.0023    1.7833 H   0  0  0  0  0  0  0  0  0  0  0  0
    0.1645    2.0218    1.7834 C   0  0  0  0  0  0  0  0  0  0  0  0
    0.4088    2.7397    2.5983 H   0  0  0  0  0  0  0  0  0  0  0  0
   -0.9193    1.7931    1.8647 H   0  0  0  0  0  0  0  0  0  0  0  0
    2.3133    0.9822    2.3721 C   0  0  0  0  0  0  0  0  0  0  0  0
    2.3263    1.2715    3.4466 H   0  0  0  0  0  0  0  0  0  0  0  0
    2.6919    1.8551    1.8002 H   0  0  0  0  0  0  0  0  0  0  0  0
    3.1911   -0.2333    2.1129 C   0  0  0  0  0  0  0  0  0  0  0  0
    2.8186   -1.1076    2.6829 H   0  0  0  0  0  0  0  0  0  0  0  0
    4.2335   -0.0458    2.4403 H   0  0  0  0  0  0  0  0  0  0  0  0
    3.8433   -2.3550    0.1113 C   0  0  0  0  0  0  0  0  0  0  0  0
    4.9410   -2.1780    0.1171 H   0  0  0  0  0  0  0  0  0  0  0  0
    3.4864   -3.2825    1.2788 C   0  0  0  0  0  0  0  0  0  0  0  0
    2.3857   -3.3610    1.4028 H   0  0  0  0  0  0  0  0  0  0  0  0
    3.9305   -2.9588    2.2400 H   0  0  0  0  0  0  0  0  0  0  0  0
    3.8686   -4.3022    1.0696 H   0  0  0  0  0  0  0  0  0  0  0  0
    3.4408   -2.9882   -1.2279 C   0  0  0  0  0  0  0  0  0  0  0  0
    4.0131   -3.9249   -1.3837 H   0  0  0  0  0  0  0  0  0  0  0  0
    3.6281   -2.3306   -2.0971 H   0  0  0  0  0  0  0  0  0  0  0  0
    2.3631   -3.2443   -1.2278 H   0  0  0  0  0  0  0  0  0  0  0  0
    4.2647    0.5602   -0.5122 C   0  0  0  0  0  0  0  0  0  0  0  0
    3.8018    1.5353   -0.2374 H   0  0  0  0  0  0  0  0  0  0  0  0
    5.7010    0.5205    0.0187 C   0  0  0  0  0  0  0  0  0  0  0  0
    6.2045   -0.4350   -0.2336 H   0  0  0  0  0  0  0  0  0  0  0  0
    5.7634    0.6600    1.1160 H   0  0  0  0  0  0  0  0  0  0  0  0
    6.2988    1.3306   -0.4474 H   0  0  0  0  0  0  0  0  0  0  0  0
    4.2175    0.4429   -2.0417 C   0  0  0  0  0  0  0  0  0  0  0  0
    4.7160    1.3179   -2.5062 H   0  0  0  0  0  0  0  0  0  0  0  0
    3.1798    0.3941   -2.4247 H   0  0  0  0  0  0  0  0  0  0  0  0
    4.7523   -0.4614   -2.3950 H   0  0  0  0  0  0  0  0  0  0  0  0
  1 21  1  0  0  0  0
  2 10  1  0  0  0  0
  3 10  1  0  0  0  0
  3 11  1  0  0  0  0
  4 18  1  0  0  0  0
  4  5  1  0  0  0  0
  6  8  2  0  0  0  0
  6  2  1  0  0  0  0
  7  6  1  0  0  0  0
  8  3  1  0  0  0  0
  9  8  1  0  0  0  0
 10 15  1  6  0  0  0
 11 12  1  0  0  0  0
 11 14  1  0  0  0  0
 13 11  1  0  0  0  0
 15 17  1  0  0  0  0
 15  4  1  0  0  0  0
 15 16  1  0  0  0  0
 18 19  1  0  0  0  0
 20 18  1  0  0  0  0
 21 18  1  0  0  0  0
 21 23  1  0  0  0  0
 21 22  1  0  0  0  0
 24 25  1  0  0  0  0
 24  1  1  0  0  0  0
 24 26  1  0  0  0  0
 26 27  1  0  0  0  0
 26 28  1  0  0  0  0
 29 26  1  0  0  0  0
 30 33  1  0  0  0  0
 30 24  1  0  0  0  0
 31 30  1  0  0  0  0
 32 30  1  0  0  0  0
 34 35  1  0  0  0  0
 34 36  1  0  0  0  0
 34  1  1  0  0  0  0
 36 38  1  0  0  0  0
 37 36  1  0  0  0  0
 39 36  1  0  0  0  0
 40 34  1  0  0  0  0
 41 40  1  0  0  0  0
 42 40  1  0  0  0  0
 43 40  1  0  0  0  0
M  END
