1,2,4
 OpenBabel05122313063D

 45 47  0  0  1  0  0  0  0  0999 V2000
    1.4962   -1.4996    0.1063 P   0  0  0  0  0  0  0  0  0  0  0  0
   -2.8136   -0.9849   -0.1039 N   0  0  0  0  0  2  0  0  0  0  0  0
   -4.6295   -2.2649   -0.1280 N   0  0  0  0  0  0  0  0  0  0  0  0
   -1.0743   -3.0461    0.1490 N   0  0  0  0  0  0  0  0  0  0  0  0
   -1.0830   -3.2306   -0.8745 H   0  0  0  0  0  0  0  0  0  0  0  0
   -3.8480   -0.2517   -0.6416 C   0  0  0  0  0  0  0  0  0  0  0  0
   -3.7124    0.7760   -0.9884 H   0  0  0  0  0  0  0  0  0  0  0  0
   -4.9893   -1.0294   -0.6498 C   0  0  0  0  0  0  0  0  0  0  0  0
   -6.0121   -0.8195   -0.9765 H   0  0  0  0  0  0  0  0  0  0  0  0
   -3.3020   -2.1957    0.1908 C   0  0  1  0  0  3  0  0  0  0  0  0
   -5.5186   -3.3888    0.0977 C   0  0  0  0  0  0  0  0  0  0  0  0
   -5.0167   -4.3377   -0.1738 H   0  0  0  0  0  0  0  0  0  0  0  0
   -6.4137   -3.2771   -0.5410 H   0  0  0  0  0  0  0  0  0  0  0  0
   -5.8411   -3.4470    1.1579 H   0  0  0  0  0  0  0  0  0  0  0  0
   -2.4140   -3.2698    0.7252 C   0  0  0  0  0  0  0  0  0  0  0  0
   -2.8078   -4.2898    0.5132 H   0  0  0  0  0  0  0  0  0  0  0  0
   -2.3102   -3.1502    1.8261 H   0  0  0  0  0  0  0  0  0  0  0  0
    0.0118   -3.7806    0.8227 C   0  0  0  0  0  0  0  0  0  0  0  0
   -0.1468   -4.8820    0.7471 H   0  0  0  0  0  0  0  0  0  0  0  0
   -0.0432   -3.4971    1.8943 H   0  0  0  0  0  0  0  0  0  0  0  0
    1.3538   -3.3833    0.2199 C   0  0  0  0  0  0  0  0  0  0  0  0
    1.4304   -3.7395   -0.8288 H   0  0  0  0  0  0  0  0  0  0  0  0
    2.1991   -3.8208    0.7869 H   0  0  0  0  0  0  0  0  0  0  0  0
    2.5753   -1.0502    1.5386 C   0  0  0  0  0  0  0  0  0  0  0  0
    2.3740   -1.6327    2.8071 C   0  0  0  0  0  0  0  0  0  0  0  0
    1.5952   -2.3941    2.9483 H   0  0  0  0  0  0  0  0  0  0  0  0
    3.1436   -1.2216    3.9063 C   0  0  0  0  0  0  0  0  0  0  0  0
    2.9759   -1.6851    4.8905 H   0  0  0  0  0  0  0  0  0  0  0  0
    4.1172   -0.2215    3.7552 C   0  0  0  0  0  0  0  0  0  0  0  0
    4.7194    0.0991    4.6192 H   0  0  0  0  0  0  0  0  0  0  0  0
    4.3129    0.3733    2.4988 C   0  0  0  0  0  0  0  0  0  0  0  0
    5.0632    1.1686    2.3736 H   0  0  0  0  0  0  0  0  0  0  0  0
    3.5441   -0.0338    1.4001 C   0  0  0  0  0  0  0  0  0  0  0  0
    3.6984    0.4428    0.4204 H   0  0  0  0  0  0  0  0  0  0  0  0
    2.7246   -1.3660   -1.2777 C   0  0  0  0  0  0  0  0  0  0  0  0
    4.0008   -1.9551   -1.1259 C   0  0  0  0  0  0  0  0  0  0  0  0
    4.2717   -2.4451   -0.1775 H   0  0  0  0  0  0  0  0  0  0  0  0
    4.9364   -1.9026   -2.1675 C   0  0  0  0  0  0  0  0  0  0  0  0
    5.9279   -2.3629   -2.0362 H   0  0  0  0  0  0  0  0  0  0  0  0
    4.6096   -1.2570   -3.3730 C   0  0  0  0  0  0  0  0  0  0  0  0
    5.3461   -1.2107   -4.1902 H   0  0  0  0  0  0  0  0  0  0  0  0
    3.3437   -0.6758   -3.5296 C   0  0  0  0  0  0  0  0  0  0  0  0
    3.0754   -0.1682   -4.4684 H   0  0  0  0  0  0  0  0  0  0  0  0
    2.3999   -0.7322   -2.4900 C   0  0  0  0  0  0  0  0  0  0  0  0
    1.3959   -0.3125   -2.6289 H   0  0  0  0  0  0  0  0  0  0  0  0
  1 21  1  0  0  0  0
  1 24  1  0  0  0  0
  2 10  1  0  0  0  0
  3 11  1  0  0  0  0
  3 10  1  0  0  0  0
  4 15  1  0  0  0  0
  4 18  1  0  0  0  0
  5  4  1  0  0  0  0
  6  2  1  0  0  0  0
  7  6  1  0  0  0  0
  8  6  2  0  0  0  0
  8  3  1  0  0  0  0
  9  8  1  0  0  0  0
 10 15  1  6  0  0  0
 11 14  1  0  0  0  0
 12 11  1  0  0  0  0
 13 11  1  0  0  0  0
 15 17  1  0  0  0  0
 16 15  1  0  0  0  0
 18 20  1  0  0  0  0
 19 18  1  0  0  0  0
 21 23  1  0  0  0  0
 21 18  1  0  0  0  0
 22 21  1  0  0  0  0
 24 25  1  0  0  0  0
 25 26  1  0  0  0  0
 25 27  2  0  0  0  0
 27 28  1  0  0  0  0
 29 27  1  0  0  0  0
 29 30  1  0  0  0  0
 31 29  2  0  0  0  0
 32 31  1  0  0  0  0
 33 24  2  0  0  0  0
 33 31  1  0  0  0  0
 34 33  1  0  0  0  0
 35 36  1  0  0  0  0
 35  1  1  0  0  0  0
 36 37  1  0  0  0  0
 38 39  1  0  0  0  0
 38 36  2  0  0  0  0
 40 38  1  0  0  0  0
 41 40  1  0  0  0  0
 42 40  2  0  0  0  0
 42 44  1  0  0  0  0
 43 42  1  0  0  0  0
 44 35  2  0  0  0  0
 45 44  1  0  0  0  0
M  END
