1,3,5
 OpenBabel05122313063D

 74 79  0  0  1  0  0  0  0  0999 V2000
   -1.9279    0.0335    0.1652 P   0  0  0  0  0  0  0  0  0  0  0  0
    0.6893    0.9779    1.1665 P   0  0  0  0  0  4  0  0  0  0  0  0
    0.8180    0.1961   -0.2740 N   0  0  0  0  0  2  0  0  0  0  0  0
    2.1888   -1.9647   -1.4587 N   0  0  0  0  0  0  0  0  0  0  0  0
    0.9173   -2.4352   -1.2367 N   0  0  0  0  0  2  0  0  0  0  0  0
   -3.5622   -0.5334    0.7381 C   0  0  0  0  0  0  0  0  0  0  0  0
   -4.6571   -0.4260   -0.1462 C   0  0  0  0  0  0  0  0  0  0  0  0
   -4.5152    0.0191   -1.1414 H   0  0  0  0  0  0  0  0  0  0  0  0
   -5.9164   -0.9059    0.2387 C   0  0  0  0  0  0  0  0  0  0  0  0
   -6.7660   -0.8208   -0.4556 H   0  0  0  0  0  0  0  0  0  0  0  0
   -6.0897   -1.5017    1.4983 C   0  0  0  0  0  0  0  0  0  0  0  0
   -7.0801   -1.8768    1.7987 H   0  0  0  0  0  0  0  0  0  0  0  0
   -4.9940   -1.6350    2.3660 C   0  0  0  0  0  0  0  0  0  0  0  0
   -5.1194   -2.1252    3.3434 H   0  0  0  0  0  0  0  0  0  0  0  0
   -3.7286   -1.1637    1.9882 C   0  0  0  0  0  0  0  0  0  0  0  0
   -2.8541   -1.3361    2.6326 H   0  0  0  0  0  0  0  0  0  0  0  0
   -2.2706    1.5034   -0.8889 C   0  0  0  0  0  0  0  0  0  0  0  0
   -3.1126    2.5467   -0.4501 C   0  0  0  0  0  0  0  0  0  0  0  0
   -3.6751    2.4431    0.4916 H   0  0  0  0  0  0  0  0  0  0  0  0
   -3.2381    3.7160   -1.2160 C   0  0  0  0  0  0  0  0  0  0  0  0
   -3.8978    4.5277   -0.8728 H   0  0  0  0  0  0  0  0  0  0  0  0
   -2.5232    3.8475   -2.4194 C   0  0  0  0  0  0  0  0  0  0  0  0
   -2.6188    4.7672   -3.0169 H   0  0  0  0  0  0  0  0  0  0  0  0
   -1.6997    2.8014   -2.8652 C   0  0  0  0  0  0  0  0  0  0  0  0
   -1.1474    2.8955   -3.8125 H   0  0  0  0  0  0  0  0  0  0  0  0
   -1.5759    1.6276   -2.1063 C   0  0  0  0  0  0  0  0  0  0  0  0
   -0.9533    0.7864   -2.4466 H   0  0  0  0  0  0  0  0  0  0  0  0
   -1.0802    0.8284    1.6371 C   0  0  0  0  0  0  0  0  0  0  0  0
   -1.5058    1.8051    1.9372 H   0  0  0  0  0  0  0  0  0  0  0  0
   -1.1237    0.0893    2.4607 H   0  0  0  0  0  0  0  0  0  0  0  0
    1.1214    2.7471    1.1214 C   0  0  0  0  0  0  0  0  0  0  0  0
    0.1771    3.6905    0.6560 C   0  0  0  0  0  0  0  0  0  0  0  0
   -0.8539    3.3841    0.4261 H   0  0  0  0  0  0  0  0  0  0  0  0
    0.5605    5.0206    0.4422 C   0  0  0  0  0  0  0  0  0  0  0  0
   -0.1834    5.7446    0.0772 H   0  0  0  0  0  0  0  0  0  0  0  0
    1.8856    5.4228    0.6825 C   0  0  0  0  0  0  0  0  0  0  0  0
    2.1849    6.4677    0.5099 H   0  0  0  0  0  0  0  0  0  0  0  0
    2.8290    4.4869    1.1377 C   0  0  0  0  0  0  0  0  0  0  0  0
    3.8691    4.7958    1.3217 H   0  0  0  0  0  0  0  0  0  0  0  0
    2.4541    3.1536    1.3536 C   0  0  0  0  0  0  0  0  0  0  0  0
    3.1995    2.4208    1.6959 H   0  0  0  0  0  0  0  0  0  0  0  0
    1.7563    0.2274    2.4325 C   0  0  0  0  0  0  0  0  0  0  0  0
    1.9696    0.8544    3.6773 C   0  0  0  0  0  0  0  0  0  0  0  0
    1.5041    1.8279    3.8976 H   0  0  0  0  0  0  0  0  0  0  0  0
    2.7855    0.2354    4.6350 C   0  0  0  0  0  0  0  0  0  0  0  0
    2.9540    0.7216    5.6077 H   0  0  0  0  0  0  0  0  0  0  0  0
    3.3856   -1.0033    4.3501 C   0  0  0  0  0  0  0  0  0  0  0  0
    4.0261   -1.4869    5.1035 H   0  0  0  0  0  0  0  0  0  0  0  0
    3.1655   -1.6275    3.1123 C   0  0  0  0  0  0  0  0  0  0  0  0
    3.6210   -2.6051    2.8946 H   0  0  0  0  0  0  0  0  0  0  0  0
    2.3438   -1.0215    2.1517 C   0  0  0  0  0  0  0  0  0  0  0  0
    2.1295   -1.5113    1.1926 H   0  0  0  0  0  0  0  0  0  0  0  0
    1.7291    0.4537   -1.2974 C   0  0  0  0  0  0  0  0  0  0  0  0
    1.9618    1.7472   -1.8337 C   0  0  0  0  0  0  0  0  0  0  0  0
    1.4269    2.5997   -1.3987 H   0  0  0  0  0  0  0  0  0  0  0  0
    2.8323    1.9513   -2.9087 C   0  0  0  0  0  0  0  0  0  0  0  0
    2.9890    2.9728   -3.2874 H   0  0  0  0  0  0  0  0  0  0  0  0
    3.4710    0.8624   -3.5245 C   0  0  0  0  0  0  0  0  0  0  0  0
    4.1290    1.0114   -4.3927 H   0  0  0  0  0  0  0  0  0  0  0  0
    3.2269   -0.4297   -3.0443 C   0  0  0  0  0  0  0  0  0  0  0  0
    3.6679   -1.2986   -3.5507 H   0  0  0  0  0  0  0  0  0  0  0  0
    2.3971   -0.6401   -1.9285 C   0  0  0  0  0  0  0  0  0  0  0  0
    3.1045   -2.9923   -1.3812 C   0  0  2  0  0  3  0  0  0  0  0  0
    2.3717   -4.1496   -1.1232 C   0  0  0  0  0  0  0  0  0  0  0  0
    2.7760   -5.1575   -0.9843 H   0  0  0  0  0  0  0  0  0  0  0  0
    1.0096   -3.7646   -1.0442 C   0  0  0  0  0  0  0  0  0  0  0  0
    4.5822   -2.8050   -1.4996 C   0  0  0  0  0  0  0  0  0  0  0  0
    5.0979   -3.5820   -0.9033 H   0  0  0  0  0  0  0  0  0  0  0  0
    4.8960   -1.8101   -1.1281 H   0  0  0  0  0  0  0  0  0  0  0  0
    4.9468   -2.8979   -2.5442 H   0  0  0  0  0  0  0  0  0  0  0  0
   -0.1902   -4.5964   -0.7471 C   0  0  0  0  0  0  0  0  0  0  0  0
   -0.5152   -4.4057    0.2983 H   0  0  0  0  0  0  0  0  0  0  0  0
    0.0375   -5.6704   -0.8819 H   0  0  0  0  0  0  0  0  0  0  0  0
   -1.0332   -4.2992   -1.4011 H   0  0  0  0  0  0  0  0  0  0  0  0
  1  6  1  0  0  0  0
  1 28  1  0  0  0  0
  2 28  1  0  0  0  0
  2 42  1  0  0  0  0
  3  2  1  0  0  0  0
  4 63  1  0  0  0  0
  4  5  1  0  0  0  0
  5 66  1  0  0  0  0
  6 15  1  0  0  0  0
  7  9  1  0  0  0  0
  7  6  2  0  0  0  0
  8  7  1  0  0  0  0
  9 11  2  0  0  0  0
 10  9  1  0  0  0  0
 11 12  1  0  0  0  0
 11 13  1  0  0  0  0
 13 14  1  0  0  0  0
 15 13  2  0  0  0  0
 15 16  1  0  0  0  0
 17 18  1  0  0  0  0
 17  1  1  0  0  0  0
 18 19  1  0  0  0  0
 20 21  1  0  0  0  0
 20 18  2  0  0  0  0
 22 20  1  0  0  0  0
 23 22  1  0  0  0  0
 24 22  2  0  0  0  0
 24 26  1  0  0  0  0
 25 24  1  0  0  0  0
 26 17  2  0  0  0  0
 27 26  1  0  0  0  0
 28 29  1  0  0  0  0
 28 30  1  0  0  0  0
 31  2  1  0  0  0  0
 31 40  1  0  0  0  0
 32 31  2  0  0  0  0
 33 32  1  0  0  0  0
 34 32  1  0  0  0  0
 34 36  2  0  0  0  0
 35 34  1  0  0  0  0
 36 38  1  0  0  0  0
 37 36  1  0  0  0  0
 38 39  1  0  0  0  0
 38 40  2  0  0  0  0
 40 41  1  0  0  0  0
 42 43  1  0  0  0  0
 43 44  1  0  0  0  0
 43 45  2  0  0  0  0
 45 46  1  0  0  0  0
 47 45  1  0  0  0  0
 47 48  1  0  0  0  0
 49 47  2  0  0  0  0
 50 49  1  0  0  0  0
 51 42  2  0  0  0  0
 51 49  1  0  0  0  0
 52 51  1  0  0  0  0
 53  3  1  0  0  0  0
 54 55  1  0  0  0  0
 54 53  1  0  0  0  0
 56 54  2  0  0  0  0
 57 56  1  0  0  0  0
 58 60  2  0  0  0  0
 58 56  1  0  0  0  0
 59 58  1  0  0  0  0
 60 62  1  0  0  0  0
 61 60  1  0  0  0  0
 62  4  1  0  0  0  0
 62 53  2  0  0  0  0
 63 67  1  1  0  0  0
 63 64  1  0  0  0  0
 64 66  2  0  0  0  0
 64 65  1  0  0  0  0
 66 71  1  0  0  0  0
 67 69  1  0  0  0  0
 67 68  1  0  0  0  0
 70 67  1  0  0  0  0
 71 72  1  0  0  0  0
 73 71  1  0  0  0  0
 74 71  1  0  0  0  0
M  END
