1,2,16
 OpenBabel05122313063D

 40 42  0  0  1  0  0  0  0  0999 V2000
    1.5036    0.7700    1.0069 P   0  0  2  0  0  0  0  0  0  0  0  0
    0.4999   -1.7914    1.2363 N   0  0  0  0  0  2  0  0  0  0  0  0
    0.5359   -3.1592    1.1880 C   0  0  1  0  0  3  0  0  0  0  0  0
    0.5874   -3.8016    0.0372 O   0  0  0  0  0  0  0  0  0  0  0  0
    0.3178   -3.2064   -0.7427 H   0  0  0  0  0  0  0  0  0  0  0  0
    0.5423   -3.9536    2.3613 C   0  0  0  0  0  0  0  0  0  0  0  0
    0.5633   -5.0431    2.2275 H   0  0  0  0  0  0  0  0  0  0  0  0
    0.5051   -3.3472    3.6082 C   0  0  0  0  0  0  0  0  0  0  0  0
    0.4951   -3.9515    4.5272 H   0  0  0  0  0  0  0  0  0  0  0  0
    0.4901   -1.9433    3.6702 C   0  0  0  0  0  0  0  0  0  0  0  0
    0.4817   -1.4142    4.6325 H   0  0  0  0  0  0  0  0  0  0  0  0
    0.4928   -1.2018    2.4873 C   0  0  0  0  0  0  0  0  0  0  0  0
    0.5880    0.3019    2.5409 C   0  0  0  0  0  0  0  0  0  0  0  0
    1.0519    0.6348    3.4908 H   0  0  0  0  0  0  0  0  0  0  0  0
   -0.4104    0.7814    2.4581 H   0  0  0  0  0  0  0  0  0  0  0  0
    2.7376   -1.0833   -0.8706 N   0  0  0  0  0  2  0  0  0  0  0  0
    3.1832   -1.6396   -2.0342 C   0  0  2  0  0  3  0  0  0  0  0  0
    2.3545   -2.1133   -2.9401 O   0  0  0  0  0  0  0  0  0  0  0  0
    1.3860   -1.9941   -2.6832 H   0  0  0  0  0  0  0  0  0  0  0  0
    4.5674   -1.7431   -2.3362 C   0  0  0  0  0  0  0  0  0  0  0  0
    4.8406   -2.2043   -3.2943 H   0  0  0  0  0  0  0  0  0  0  0  0
    5.5032   -1.2552   -1.4392 C   0  0  0  0  0  0  0  0  0  0  0  0
    6.5789   -1.3184   -1.6622 H   0  0  0  0  0  0  0  0  0  0  0  0
    5.0513   -0.6693   -0.2432 C   0  0  0  0  0  0  0  0  0  0  0  0
    5.7544   -0.2634    0.4965 H   0  0  0  0  0  0  0  0  0  0  0  0
    3.6786   -0.6071    0.0087 C   0  0  0  0  0  0  0  0  0  0  0  0
    3.1812   -0.0018    1.2901 C   0  0  0  0  0  0  0  0  0  0  0  0
    3.9139    0.7077    1.7195 H   0  0  0  0  0  0  0  0  0  0  0  0
    3.0093   -0.8055    2.0393 H   0  0  0  0  0  0  0  0  0  0  0  0
    1.8096    2.5684    1.0463 C   0  0  0  0  0  0  0  0  0  0  0  0
    1.4171    3.3841    2.1254 C   0  0  0  0  0  0  0  0  0  0  0  0
    0.8934    2.9536    2.9915 H   0  0  0  0  0  0  0  0  0  0  0  0
    1.6743    4.7627    2.0918 C   0  0  0  0  0  0  0  0  0  0  0  0
    1.3597    5.3970    2.9342 H   0  0  0  0  0  0  0  0  0  0  0  0
    2.3227    5.3313    0.9841 C   0  0  0  0  0  0  0  0  0  0  0  0
    2.5202    6.4138    0.9585 H   0  0  0  0  0  0  0  0  0  0  0  0
    2.7105    4.5196   -0.0955 C   0  0  0  0  0  0  0  0  0  0  0  0
    3.2062    4.9650   -0.9714 H   0  0  0  0  0  0  0  0  0  0  0  0
    2.4550    3.1415   -0.0717 C   0  0  0  0  0  0  0  0  0  0  0  0
    2.7028    2.5091   -0.9391 H   0  0  0  0  0  0  0  0  0  0  0  0
  1 30  1  0  0  0  0
  1 27  1  1  0  0  0
  1 13  1  0  0  0  0
  2 12  1  0  0  0  0
  3  4  1  1  0  0  0
  3  2  1  0  0  0  0
  3  6  1  0  0  0  0
  5  4  1  0  0  0  0
  6  8  2  0  0  0  0
  7  6  1  0  0  0  0
  8 10  1  0  0  0  0
  8  9  1  0  0  0  0
 10 11  1  0  0  0  0
 12 13  1  0  0  0  0
 12 10  2  0  0  0  0
 13 14  1  0  0  0  0
 15 13  1  0  0  0  0
 16 26  1  0  0  0  0
 17 18  1  1  0  0  0
 17 16  1  0  0  0  0
 18 19  1  0  0  0  0
 20 17  1  0  0  0  0
 20 22  2  0  0  0  0
 21 20  1  0  0  0  0
 22 24  1  0  0  0  0
 23 22  1  0  0  0  0
 24 26  2  0  0  0  0
 24 25  1  0  0  0  0
 26 27  1  0  0  0  0
 27 28  1  0  0  0  0
 27 29  1  0  0  0  0
 30 31  1  0  0  0  0
 31 32  1  0  0  0  0
 33 31  2  0  0  0  0
 33 34  1  0  0  0  0
 35 33  1  0  0  0  0
 36 35  1  0  0  0  0
 37 39  1  0  0  0  0
 37 35  2  0  0  0  0
 38 37  1  0  0  0  0
 39 30  2  0  0  0  0
 40 39  1  0  0  0  0
M  END
