1,2,3
 OpenBabel05122313063D

 38 40  0  0  1  0  0  0  0  0999 V2000
   -0.0001   -0.8652    0.8409 P   0  0  2  0  0  0  0  0  0  0  0  0
    2.0479    0.9693    0.0400 N   0  0  0  0  0  2  0  0  0  0  0  0
   -2.0477    0.9699    0.0400 N   0  0  0  0  0  2  0  0  0  0  0  0
    1.5654   -0.6799    1.8191 C   0  0  0  0  0  0  0  0  0  0  0  0
    1.2964   -0.0686    2.7086 H   0  0  0  0  0  0  0  0  0  0  0  0
    1.9828   -1.6390    2.1834 H   0  0  0  0  0  0  0  0  0  0  0  0
    2.5526    0.0877    0.9610 C   0  0  2  0  0  3  0  0  0  0  0  0
    3.9375   -0.0664    1.1084 C   0  0  0  0  0  0  0  0  0  0  0  0
    4.3267   -0.7791    1.8495 H   0  0  0  0  0  0  0  0  0  0  0  0
    4.8097    0.6967    0.3178 C   0  0  0  0  0  0  0  0  0  0  0  0
    5.8984    0.5830    0.4277 H   0  0  0  0  0  0  0  0  0  0  0  0
    4.2738    1.6021   -0.6062 C   0  0  0  0  0  0  0  0  0  0  0  0
    4.9178    2.2249   -1.2425 H   0  0  0  0  0  0  0  0  0  0  0  0
    2.8844    1.7133   -0.7196 C   0  0  0  0  0  0  0  0  0  0  0  0
    2.3903    2.4192   -1.4061 H   0  0  0  0  0  0  0  0  0  0  0  0
   -1.5655   -0.6794    1.8191 C   0  0  0  0  0  0  0  0  0  0  0  0
   -1.9832   -1.6383    2.1836 H   0  0  0  0  0  0  0  0  0  0  0  0
   -1.2963   -0.0680    2.7085 H   0  0  0  0  0  0  0  0  0  0  0  0
   -2.5525    0.0884    0.9609 C   0  0  1  0  0  3  0  0  0  0  0  0
   -3.9375   -0.0654    1.1083 C   0  0  0  0  0  0  0  0  0  0  0  0
   -4.3269   -0.7780    1.8494 H   0  0  0  0  0  0  0  0  0  0  0  0
   -4.8095    0.6979    0.3176 C   0  0  0  0  0  0  0  0  0  0  0  0
   -5.8982    0.5844    0.4274 H   0  0  0  0  0  0  0  0  0  0  0  0
   -4.2733    1.6031   -0.6063 C   0  0  0  0  0  0  0  0  0  0  0  0
   -4.9172    2.2261   -1.2427 H   0  0  0  0  0  0  0  0  0  0  0  0
   -2.8840    1.7141   -0.7196 C   0  0  0  0  0  0  0  0  0  0  0  0
   -2.3897    2.4198   -1.4062 H   0  0  0  0  0  0  0  0  0  0  0  0
   -0.0004   -2.4595   -0.0088 C   0  0  0  0  0  0  0  0  0  0  0  0
   -1.2241   -3.0614   -0.3786 C   0  0  0  0  0  0  0  0  0  0  0  0
   -2.1853   -2.5944   -0.1150 H   0  0  0  0  0  0  0  0  0  0  0  0
   -1.2178   -4.2647   -1.0963 C   0  0  0  0  0  0  0  0  0  0  0  0
   -2.1711   -4.7351   -1.3784 H   0  0  0  0  0  0  0  0  0  0  0  0
   -0.0007   -4.8675   -1.4539 C   0  0  0  0  0  0  0  0  0  0  0  0
   -0.0008   -5.8127   -2.0165 H   0  0  0  0  0  0  0  0  0  0  0  0
    1.2165   -4.2646   -1.0970 C   0  0  0  0  0  0  0  0  0  0  0  0
    2.1698   -4.7349   -1.3797 H   0  0  0  0  0  0  0  0  0  0  0  0
    1.2232   -3.0613   -0.3794 C   0  0  0  0  0  0  0  0  0  0  0  0
    2.1844   -2.5942   -0.1162 H   0  0  0  0  0  0  0  0  0  0  0  0
  1  4  1  1  0  0  0
  1 16  1  0  0  0  0
  2  7  1  0  0  0  0
  3 19  1  0  0  0  0
  4  6  1  0  0  0  0
  4  5  1  0  0  0  0
  7  8  1  0  0  0  0
  7  4  1  1  0  0  0
  8  9  1  0  0  0  0
 10 11  1  0  0  0  0
 10  8  2  0  0  0  0
 12 10  1  0  0  0  0
 13 12  1  0  0  0  0
 14 12  2  0  0  0  0
 14  2  1  0  0  0  0
 15 14  1  0  0  0  0
 16 17  1  0  0  0  0
 16 18  1  0  0  0  0
 19 20  1  0  0  0  0
 19 16  1  1  0  0  0
 20 21  1  0  0  0  0
 22 23  1  0  0  0  0
 22 20  2  0  0  0  0
 24 22  1  0  0  0  0
 25 24  1  0  0  0  0
 26 24  2  0  0  0  0
 26  3  1  0  0  0  0
 27 26  1  0  0  0  0
 28  1  1  0  0  0  0
 29 30  1  0  0  0  0
 29 28  1  0  0  0  0
 31 29  2  0  0  0  0
 32 31  1  0  0  0  0
 33 35  2  0  0  0  0
 33 31  1  0  0  0  0
 34 33  1  0  0  0  0
 35 37  1  0  0  0  0
 36 35  1  0  0  0  0
 37 38  1  0  0  0  0
 37 28  2  0  0  0  0
M  END
