1,2,3
 OpenBabel05122313063D

 43 46  0  0  0  0  0  0  0  0999 V2000
    1.2897    0.1980    0.2409 P   0  0  0  0  0  0  0  0  0  0  0  0
   -2.8280   -0.6061   -0.7235 N   0  0  0  0  0  2  0  0  0  0  0  0
   -1.4228    0.8164    0.9531 N   0  0  0  0  0  2  0  0  0  0  0  0
   -0.9650    2.2998    2.7557 N   0  0  0  0  0  0  0  0  0  0  0  0
    0.7698    1.2874    1.5232 N   0  0  0  0  0  0  0  0  0  0  0  0
    1.4237    1.7560    2.1588 H   0  0  0  0  0  0  0  0  0  0  0  0
    2.3589   -1.0493    0.9988 C   0  0  0  0  0  0  0  0  0  0  0  0
    1.9008   -2.3779    1.1163 C   0  0  0  0  0  0  0  0  0  0  0  0
    0.9248   -2.6605    0.6933 H   0  0  0  0  0  0  0  0  0  0  0  0
    2.7177   -3.3340    1.7365 C   0  0  0  0  0  0  0  0  0  0  0  0
    2.3709   -4.3743    1.8213 H   0  0  0  0  0  0  0  0  0  0  0  0
    3.9767   -2.9666    2.2375 C   0  0  0  0  0  0  0  0  0  0  0  0
    4.6143   -3.7206    2.7229 H   0  0  0  0  0  0  0  0  0  0  0  0
    4.4349   -1.6434    2.1108 C   0  0  0  0  0  0  0  0  0  0  0  0
    5.4275   -1.3630    2.4932 H   0  0  0  0  0  0  0  0  0  0  0  0
    3.6336   -0.6805    1.4848 C   0  0  0  0  0  0  0  0  0  0  0  0
    4.0044    0.3493    1.3620 H   0  0  0  0  0  0  0  0  0  0  0  0
    2.3220    1.2142   -0.8419 C   0  0  0  0  0  0  0  0  0  0  0  0
    2.2336    2.6215   -0.8447 C   0  0  0  0  0  0  0  0  0  0  0  0
    1.5664    3.1392   -0.1397 H   0  0  0  0  0  0  0  0  0  0  0  0
    3.0084    3.3587   -1.7512 C   0  0  0  0  0  0  0  0  0  0  0  0
    2.9522    4.4573   -1.7486 H   0  0  0  0  0  0  0  0  0  0  0  0
    3.8504    2.6969   -2.6596 C   0  0  0  0  0  0  0  0  0  0  0  0
    4.4542    3.2798   -3.3711 H   0  0  0  0  0  0  0  0  0  0  0  0
    3.9217    1.2934   -2.6671 C   0  0  0  0  0  0  0  0  0  0  0  0
    4.5760    0.7769   -3.3847 H   0  0  0  0  0  0  0  0  0  0  0  0
    3.1591    0.5446   -1.7622 C   0  0  0  0  0  0  0  0  0  0  0  0
    3.2060   -0.5550   -1.7743 H   0  0  0  0  0  0  0  0  0  0  0  0
   -0.5626    1.4885    1.7712 C   0  0  0  0  0  0  0  0  0  0  0  0
   -2.2877    2.4413    2.9176 C   0  0  0  0  0  0  0  0  0  0  0  0
   -2.6088    3.1121    3.7324 H   0  0  0  0  0  0  0  0  0  0  0  0
   -3.2484    1.7905    2.1188 C   0  0  0  0  0  0  0  0  0  0  0  0
   -4.3214    1.9384    2.2931 H   0  0  0  0  0  0  0  0  0  0  0  0
   -2.7684    0.9491    1.1061 C   0  0  0  0  0  0  0  0  0  0  0  0
   -3.5635    0.1506    0.1491 C   0  0  0  0  0  0  0  0  0  0  0  0
   -4.9656    0.1354    0.1004 C   0  0  0  0  0  0  0  0  0  0  0  0
   -5.5517    0.7442    0.8022 H   0  0  0  0  0  0  0  0  0  0  0  0
   -5.6060   -0.6658   -0.8565 C   0  0  0  0  0  0  0  0  0  0  0  0
   -6.7043   -0.6890   -0.9094 H   0  0  0  0  0  0  0  0  0  0  0  0
   -4.8331   -1.4320   -1.7397 C   0  0  0  0  0  0  0  0  0  0  0  0
   -5.2997   -2.0713   -2.5024 H   0  0  0  0  0  0  0  0  0  0  0  0
   -3.4348   -1.3756   -1.6410 C   0  0  0  0  0  0  0  0  0  0  0  0
   -2.7592   -1.9497   -2.2976 H   0  0  0  0  0  0  0  0  0  0  0  0
  1  7  1  0  0  0  0
  1  5  1  0  0  0  0
  2 35  1  0  0  0  0
  3 34  1  0  0  0  0
  3 29  1  0  0  0  0
  4 30  1  0  0  0  0
  5 29  1  0  0  0  0
  5  6  1  0  0  0  0
  7  8  2  0  0  0  0
  7 16  1  0  0  0  0
  8 10  1  0  0  0  0
  9  8  1  0  0  0  0
 10 11  1  0  0  0  0
 10 12  2  0  0  0  0
 12 13  1  0  0  0  0
 14 12  1  0  0  0  0
 14 15  1  0  0  0  0
 16 14  2  0  0  0  0
 17 16  1  0  0  0  0
 18  1  1  0  0  0  0
 19 18  1  0  0  0  0
 19 20  1  0  0  0  0
 21 22  1  0  0  0  0
 21 19  2  0  0  0  0
 23 21  1  0  0  0  0
 24 23  1  0  0  0  0
 25 23  2  0  0  0  0
 25 27  1  0  0  0  0
 26 25  1  0  0  0  0
 27 18  2  0  0  0  0
 28 27  1  0  0  0  0
 29  4  2  0  0  0  0
 30 31  1  0  0  0  0
 32 33  1  0  0  0  0
 32 30  2  0  0  0  0
 34 32  1  0  0  0  0
 35 34  2  0  0  0  0
 36 35  1  0  0  0  0
 36 37  1  0  0  0  0
 38 36  2  0  0  0  0
 39 38  1  0  0  0  0
 40 42  2  0  0  0  0
 40 38  1  0  0  0  0
 41 40  1  0  0  0  0
 42  2  1  0  0  0  0
 43 42  1  0  0  0  0
M  END
