1,2,3
 OpenBabel05122313063D

 56 56  0  0  1  0  0  0  0  0999 V2000
   -1.5865    0.0086    0.0903 P   0  0  0  0  0  0  0  0  0  0  0  0
    0.6563    1.5855   -0.3500 N   0  0  0  0  0  2  0  0  0  0  0  0
    2.3085   -0.2840    0.2207 N   0  0  0  0  0  2  0  0  0  0  0  0
   -1.7548    1.7666   -0.5552 C   0  0  0  0  0  0  0  0  0  0  0  0
   -2.0280    1.6407   -1.6258 H   0  0  0  0  0  0  0  0  0  0  0  0
   -2.5510    2.3782   -0.0833 H   0  0  0  0  0  0  0  0  0  0  0  0
   -0.4104    2.4299   -0.4567 C   0  0  1  0  0  3  0  0  0  0  0  0
   -0.2217    3.8171   -0.4419 C   0  0  0  0  0  0  0  0  0  0  0  0
   -1.0924    4.4828   -0.5280 H   0  0  0  0  0  0  0  0  0  0  0  0
    1.0776    4.3384   -0.3144 C   0  0  0  0  0  0  0  0  0  0  0  0
    1.2407    5.4262   -0.3059 H   0  0  0  0  0  0  0  0  0  0  0  0
    2.1558    3.4567   -0.1747 C   0  0  0  0  0  0  0  0  0  0  0  0
    3.1835    3.8257   -0.0443 H   0  0  0  0  0  0  0  0  0  0  0  0
    1.9065    2.0759   -0.1852 C   0  0  0  0  0  0  0  0  0  0  0  0
    2.9339    1.0141    0.0372 C   0  0  0  0  0  0  0  0  0  0  0  0
    3.6381    1.0192   -0.8358 H   0  0  0  0  0  0  0  0  0  0  0  0
    3.5603    1.3321    0.9046 H   0  0  0  0  0  0  0  0  0  0  0  0
   -1.8258    0.1618    1.9978 C   0  0  0  0  0  0  0  0  0  0  0  0
   -3.2371    0.5663    2.4424 C   0  0  0  0  0  0  0  0  0  0  0  0
   -3.2450    0.7194    3.5434 H   0  0  0  0  0  0  0  0  0  0  0  0
   -3.9925   -0.2103    2.2169 H   0  0  0  0  0  0  0  0  0  0  0  0
   -3.5662    1.5190    1.9791 H   0  0  0  0  0  0  0  0  0  0  0  0
   -0.8203    1.2245    2.4840 C   0  0  0  0  0  0  0  0  0  0  0  0
   -1.0653    2.2437    2.1249 H   0  0  0  0  0  0  0  0  0  0  0  0
    0.2109    0.9756    2.1623 H   0  0  0  0  0  0  0  0  0  0  0  0
   -0.8361    1.2506    3.5943 H   0  0  0  0  0  0  0  0  0  0  0  0
   -1.4139   -1.1825    2.6288 C   0  0  0  0  0  0  0  0  0  0  0  0
   -1.4190   -1.0851    3.7355 H   0  0  0  0  0  0  0  0  0  0  0  0
   -0.3890   -1.4639    2.3135 H   0  0  0  0  0  0  0  0  0  0  0  0
   -2.0920   -2.0127    2.3604 H   0  0  0  0  0  0  0  0  0  0  0  0
   -3.1003   -0.8683   -0.6934 C   0  0  0  0  0  0  0  0  0  0  0  0
   -4.3547    0.0249   -0.7222 C   0  0  0  0  0  0  0  0  0  0  0  0
   -5.1943   -0.5519   -1.1659 H   0  0  0  0  0  0  0  0  0  0  0  0
   -4.2127    0.9228   -1.3552 H   0  0  0  0  0  0  0  0  0  0  0  0
   -4.6763    0.3566    0.2812 H   0  0  0  0  0  0  0  0  0  0  0  0
   -2.7137   -1.2195   -2.1424 C   0  0  0  0  0  0  0  0  0  0  0  0
   -1.8968   -1.9629   -2.1813 H   0  0  0  0  0  0  0  0  0  0  0  0
   -2.3937   -0.3374   -2.7310 H   0  0  0  0  0  0  0  0  0  0  0  0
   -3.6002   -1.6563   -2.6499 H   0  0  0  0  0  0  0  0  0  0  0  0
   -3.3977   -2.1800    0.0558 C   0  0  0  0  0  0  0  0  0  0  0  0
   -3.8028   -2.0065    1.0712 H   0  0  0  0  0  0  0  0  0  0  0  0
   -2.4985   -2.8215    0.1326 H   0  0  0  0  0  0  0  0  0  0  0  0
   -4.1660   -2.7481   -0.5106 H   0  0  0  0  0  0  0  0  0  0  0  0
    3.2787   -1.3895    0.4920 C   0  0  0  0  0  0  0  0  0  0  0  0
    3.5520   -2.1545   -0.8198 C   0  0  0  0  0  0  0  0  0  0  0  0
    2.6207   -2.6088   -1.2052 H   0  0  0  0  0  0  0  0  0  0  0  0
    4.3023   -2.9578   -0.6666 H   0  0  0  0  0  0  0  0  0  0  0  0
    3.9405   -1.4641   -1.5966 H   0  0  0  0  0  0  0  0  0  0  0  0
    4.6325   -0.8904    1.0512 C   0  0  0  0  0  0  0  0  0  0  0  0
    5.1983   -0.2728    0.3261 H   0  0  0  0  0  0  0  0  0  0  0  0
    5.2664   -1.7651    1.2949 H   0  0  0  0  0  0  0  0  0  0  0  0
    4.5019   -0.3078    1.9862 H   0  0  0  0  0  0  0  0  0  0  0  0
    2.6846   -2.3309    1.5570 C   0  0  0  0  0  0  0  0  0  0  0  0
    2.4670   -1.7644    2.4850 H   0  0  0  0  0  0  0  0  0  0  0  0
    3.3992   -3.1433    1.8015 H   0  0  0  0  0  0  0  0  0  0  0  0
    1.7467   -2.7983    1.2107 H   0  0  0  0  0  0  0  0  0  0  0  0
  1 18  1  0  0  0  0
  2 14  1  0  0  0  0
  3 44  1  0  0  0  0
  4  6  1  0  0  0  0
  4  1  1  0  0  0  0
  5  4  1  0  0  0  0
  7  4  1  1  0  0  0
  7  8  1  0  0  0  0
  7  2  1  0  0  0  0
  8 10  2  0  0  0  0
  9  8  1  0  0  0  0
 10 11  1  0  0  0  0
 10 12  1  0  0  0  0
 12 13  1  0  0  0  0
 14 12  2  0  0  0  0
 14 15  1  0  0  0  0
 15  3  1  0  0  0  0
 15 17  1  0  0  0  0
 16 15  1  0  0  0  0
 18 19  1  0  0  0  0
 18 23  1  0  0  0  0
 18 27  1  0  0  0  0
 19 20  1  0  0  0  0
 21 19  1  0  0  0  0
 22 19  1  0  0  0  0
 23 26  1  0  0  0  0
 24 23  1  0  0  0  0
 25 23  1  0  0  0  0
 27 28  1  0  0  0  0
 29 27  1  0  0  0  0
 30 27  1  0  0  0  0
 31 40  1  0  0  0  0
 31  1  1  0  0  0  0
 32 31  1  0  0  0  0
 32 35  1  0  0  0  0
 33 32  1  0  0  0  0
 34 32  1  0  0  0  0
 36 31  1  0  0  0  0
 37 36  1  0  0  0  0
 38 36  1  0  0  0  0
 39 36  1  0  0  0  0
 40 42  1  0  0  0  0
 40 41  1  0  0  0  0
 43 40  1  0  0  0  0
 44 49  1  0  0  0  0
 44 53  1  0  0  0  0
 45 47  1  0  0  0  0
 45 44  1  0  0  0  0
 46 45  1  0  0  0  0
 48 45  1  0  0  0  0
 49 51  1  0  0  0  0
 49 52  1  0  0  0  0
 50 49  1  0  0  0  0
 53 55  1  0  0  0  0
 53 54  1  0  0  0  0
 56 53  1  0  0  0  0
M  END
