1,2,3
q = -1.0, confidence = 0.012

 66 69  0  0  1  0  0  0  0  0999 V2000
   -1.7747    0.3501   -0.1026 P   0  0  0  0  0  0  0  0  0  0  0  0
    2.4062    0.0561    0.6677 N   0  0  0  0  0  2  0  0  0  0  0  0
    0.2641   -1.4090    1.1596 N   0  0  0  0  0  2  0  0  0  0  0  0
    3.7634   -1.6171    1.5592 O   0  0  0  0  0  0  0  0  0  0  0  0
    3.4580    0.9913    0.5655 C   0  0  0  0  0  0  0  0  0  0  0  0
    3.4013    2.2154    1.2527 C   0  0  0  0  0  0  0  0  0  0  0  0
    2.5224    2.3976    1.8893 H   0  0  0  0  0  0  0  0  0  0  0  0
    4.4286    3.1652    1.1420 C   0  0  0  0  0  0  0  0  0  0  0  0
    4.3634    4.1141    1.6947 H   0  0  0  0  0  0  0  0  0  0  0  0
    5.5383    2.8881    0.3331 C   0  0  0  0  0  0  0  0  0  0  0  0
    6.3574    3.6177    0.2422 H   0  0  0  0  0  0  0  0  0  0  0  0
    5.6131    1.6783   -0.3783 C   0  0  0  0  0  0  0  0  0  0  0  0
    6.4809    1.4843   -1.0231 H   0  0  0  0  0  0  0  0  0  0  0  0
    4.5750    0.7333   -0.2827 C   0  0  0  0  0  0  0  0  0  0  0  0
    2.6930   -1.2063    1.1086 C   0  0  0  0  0  0  0  0  0  0  0  0
    1.4889   -2.1729    0.9598 C   0  0  2  0  0  0  0  0  0  0  0  0
    1.4870   -2.8486   -0.4448 C   0  0  0  0  0  0  0  0  0  0  0  0
    0.2833   -3.7820   -0.6103 C   0  0  0  0  0  0  0  0  0  0  0  0
    2.8075   -3.5840   -0.6974 C   0  0  0  0  0  0  0  0  0  0  0  0
   -0.6612   -1.8658    1.9488 C   0  0  0  0  0  3  0  0  0  0  0  0
   -1.9424   -1.2305    2.2588 C   0  0  0  0  0  0  0  0  0  0  0  0
   -2.6129   -1.6981    3.4138 C   0  0  0  0  0  0  0  0  0  0  0  0
   -3.8292   -1.1443    3.8286 C   0  0  0  0  0  0  0  0  0  0  0  0
   -4.4118   -0.1146    3.0754 C   0  0  0  0  0  0  0  0  0  0  0  0
   -3.7813    0.3394    1.9050 C   0  0  0  0  0  0  0  0  0  0  0  0
   -2.5567   -0.2043    1.4781 C   0  0  0  0  0  0  0  0  0  0  0  0
   -2.3246   -0.9477   -1.2969 C   0  0  0  0  0  0  0  0  0  0  0  0
   -3.4247   -1.7945   -1.0561 C   0  0  0  0  0  0  0  0  0  0  0  0
   -4.0157   -1.6806   -0.1346 H   0  0  0  0  0  0  0  0  0  0  0  0
   -3.7594   -2.7932   -1.9849 C   0  0  0  0  0  0  0  0  0  0  0  0
   -4.6143   -3.4579   -1.7876 H   0  0  0  0  0  0  0  0  0  0  0  0
   -3.0038   -2.9475   -3.1579 C   0  0  0  0  0  0  0  0  0  0  0  0
   -3.2653   -3.7348   -3.8813 H   0  0  0  0  0  0  0  0  0  0  0  0
   -1.9078   -2.1031   -3.4025 C   0  0  0  0  0  0  0  0  0  0  0  0
   -1.3080   -2.2266   -4.3170 H   0  0  0  0  0  0  0  0  0  0  0  0
   -1.5628   -1.1124   -2.4727 C   0  0  0  0  0  0  0  0  0  0  0  0
   -0.6812   -0.4713   -2.6328 H   0  0  0  0  0  0  0  0  0  0  0  0
   -2.7349    1.8447   -0.5671 C   0  0  0  0  0  0  0  0  0  0  0  0
   -3.8034    1.8051   -1.4843 C   0  0  0  0  0  0  0  0  0  0  0  0
   -4.0852    0.8529   -1.9580 H   0  0  0  0  0  0  0  0  0  0  0  0
   -4.5023    2.9820   -1.7968 C   0  0  0  0  0  0  0  0  0  0  0  0
   -5.3320    2.9474   -2.5192 H   0  0  0  0  0  0  0  0  0  0  0  0
   -4.1434    4.1976   -1.1941 C   0  0  0  0  0  0  0  0  0  0  0  0
   -4.6915    5.1189   -1.4434 H   0  0  0  0  0  0  0  0  0  0  0  0
   -3.0774    4.2397   -0.2797 C   0  0  0  0  0  0  0  0  0  0  0  0
   -2.7871    5.1926    0.1878 H   0  0  0  0  0  0  0  0  0  0  0  0
   -2.3700    3.0701    0.0290 C   0  0  0  0  0  0  0  0  0  0  0  0
   -1.5213    3.0984    0.7309 H   0  0  0  0  0  0  0  0  0  0  0  0
    4.5296   -0.4273   -0.9945 O   0  0  0  0  0  0  0  0  0  0  0  0
    5.6517   -0.7844   -1.7723 C   0  0  0  0  0  0  0  0  0  0  0  0
    5.8409   -0.0569   -2.5945 H   0  0  0  0  0  0  0  0  0  0  0  0
    5.4232   -1.7728   -2.2139 H   0  0  0  0  0  0  0  0  0  0  0  0
    6.5724   -0.8706   -1.1528 H   0  0  0  0  0  0  0  0  0  0  0  0
    1.5900   -2.9624    1.7379 H   0  0  0  0  0  0  0  0  0  0  0  0
   -0.4645   -2.8252    2.4695 H   0  0  0  0  0  0  0  0  0  0  0  0
   -2.1482   -2.5039    4.0035 H   0  0  0  0  0  0  0  0  0  0  0  0
   -4.3201   -1.5150    4.7406 H   0  0  0  0  0  0  0  0  0  0  0  0
   -5.3673    0.3322    3.3889 H   0  0  0  0  0  0  0  0  0  0  0  0
   -4.2554    1.1304    1.3053 H   0  0  0  0  0  0  0  0  0  0  0  0
   -0.6829   -3.2488   -0.5148 H   0  0  0  0  0  0  0  0  0  0  0  0
    0.2969   -4.2524   -1.6140 H   0  0  0  0  0  0  0  0  0  0  0  0
    0.3067   -4.6004    0.1414 H   0  0  0  0  0  0  0  0  0  0  0  0
    2.8041   -4.0276   -1.7138 H   0  0  0  0  0  0  0  0  0  0  0  0
    3.6747   -2.9050   -0.6044 H   0  0  0  0  0  0  0  0  0  0  0  0
    2.9490   -4.4098    0.0313 H   0  0  0  0  0  0  0  0  0  0  0  0
    1.3934   -2.0162   -1.1783 H   0  0  0  0  0  0  0  0  0  0  0  0
  1 26  1  0  0  0  0
  2 15  1  0  0  0  0
  3 20  1  0  0  0  0
  5  2  1  0  0  0  0
  5  6  1  0  0  0  0
  6  7  1  0  0  0  0
  8  6  2  0  0  0  0
  8  9  1  0  0  0  0
 10  8  1  0  0  0  0
 11 10  1  0  0  0  0
 12 14  1  0  0  0  0
 12 10  2  0  0  0  0
 13 12  1  0  0  0  0
 14  5  2  0  0  0  0
 15  4  2  0  0  0  0
 16 15  1  0  0  0  0
 16  3  1  0  0  0  0
 16 54  1  1  0  0  0
 17 16  1  0  0  0  0
 18 60  1  0  0  0  0
 18 17  1  0  0  0  0
 18 62  1  0  0  0  0
 19 64  1  0  0  0  0
 19 17  1  0  0  0  0
 19 65  1  0  0  0  0
 20 21  1  0  0  0  0
 20 55  1  0  0  0  0
 21 22  1  0  0  0  0
 22 23  2  0  0  0  0
 22 56  1  0  0  0  0
 23 57  1  0  0  0  0
 24 58  1  0  0  0  0
 24 23  1  0  0  0  0
 25 24  2  0  0  0  0
 26 25  1  0  0  0  0
 26 21  2  0  0  0  0
 27 28  1  0  0  0  0
 27  1  1  0  0  0  0
 28 29  1  0  0  0  0
 30 31  1  0  0  0  0
 30 28  2  0  0  0  0
 32 30  1  0  0  0  0
 33 32  1  0  0  0  0
 34 32  2  0  0  0  0
 34 36  1  0  0  0  0
 35 34  1  0  0  0  0
 36 27  2  0  0  0  0
 37 36  1  0  0  0  0
 38  1  1  0  0  0  0
 38 47  1  0  0  0  0
 39 38  2  0  0  0  0
 40 39  1  0  0  0  0
 41 39  1  0  0  0  0
 41 43  2  0  0  0  0
 42 41  1  0  0  0  0
 43 45  1  0  0  0  0
 44 43  1  0  0  0  0
 45 47  2  0  0  0  0
 45 46  1  0  0  0  0
 47 48  1  0  0  0  0
 49 14  1  0  0  0  0
 50 53  1  0  0  0  0
 50 49  1  0  0  0  0
 51 50  1  0  0  0  0
 52 50  1  0  0  0  0
 59 25  1  0  0  0  0
 61 18  1  0  0  0  0
 63 19  1  0  0  0  0
 66 17  1  0  0  0  0
M  END
