1,3,5
q = -1.0, confidence = 0.0

 48 51  0  0  1  0  0  0  0  0999 V2000
    1.1906   -0.0332   -0.0075 P   0  0  0  0  0  0  0  0  0  0  0  0
   -1.4245    3.8200   -0.1066 O   0  0  0  0  0  0  0  0  0  0  0  0
   -1.4548    1.5544   -0.1002 N   0  0  0  0  0  2  0  0  0  0  0  0
   -2.8154    1.7627    0.0527 N   0  0  0  0  0  0  0  0  0  0  0  0
   -3.1001   -0.5214   -0.0500 N   0  0  0  0  0  2  0  0  0  0  0  0
    1.6234    1.6852   -0.4772 C   0  0  0  0  0  0  0  0  0  0  0  0
    2.9730    1.9288   -0.8138 C   0  0  0  0  0  0  0  0  0  0  0  0
    3.4305    3.2197   -1.1042 C   0  0  0  0  0  0  0  0  0  0  0  0
    2.5288    4.2933   -1.0543 C   0  0  0  0  0  0  0  0  0  0  0  0
    1.1886    4.0622   -0.7339 C   0  0  0  0  0  0  0  0  0  0  0  0
    0.6967    2.7655   -0.4508 C   0  0  0  0  0  0  0  0  0  0  0  0
   -0.7863    2.7423   -0.1865 C   0  0  0  0  0  0  0  0  0  0  0  0
   -3.6709    0.7237    0.0319 C   0  0  1  0  0  3  0  0  0  0  0  0
   -5.0849    0.8669    0.0981 C   0  0  0  0  0  0  0  0  0  0  0  0
   -5.8679   -0.2791    0.0827 C   0  0  0  0  0  0  0  0  0  0  0  0
   -5.2639   -1.5574    0.0007 C   0  0  0  0  0  0  0  0  0  0  0  0
   -3.8769   -1.6292   -0.0649 C   0  0  0  0  0  0  0  0  0  0  0  0
    1.8579   -0.2572    1.6895 C   0  0  0  0  0  0  0  0  0  0  0  0
    1.6095   -1.4914    2.3300 C   0  0  0  0  0  0  0  0  0  0  0  0
    2.1013   -1.7131    3.6230 C   0  0  0  0  0  0  0  0  0  0  0  0
    2.8248   -0.7089    4.2891 C   0  0  0  0  0  0  0  0  0  0  0  0
    3.0572    0.5222    3.6578 C   0  0  0  0  0  0  0  0  0  0  0  0
    2.5775    0.7518    2.3581 C   0  0  0  0  0  0  0  0  0  0  0  0
    2.2298   -1.0946   -1.0809 C   0  0  0  0  0  0  0  0  0  0  0  0
    1.7725   -1.3574   -2.3880 C   0  0  0  0  0  0  0  0  0  0  0  0
    2.5528   -2.1294   -3.2578 C   0  0  0  0  0  0  0  0  0  0  0  0
    3.7842   -2.6513   -2.8262 C   0  0  0  0  0  0  0  0  0  0  0  0
    4.2345   -2.4002   -1.5212 C   0  0  0  0  0  0  0  0  0  0  0  0
    3.4602   -1.6223   -0.6456 C   0  0  0  0  0  0  0  0  0  0  0  0
    3.6774    1.0844   -0.8492 H   0  0  0  0  0  0  0  0  0  0  0  0
    4.4864    3.3818   -1.3676 H   0  0  0  0  0  0  0  0  0  0  0  0
    2.8695    5.3165   -1.2744 H   0  0  0  0  0  0  0  0  0  0  0  0
    0.4557    4.8805   -0.6962 H   0  0  0  0  0  0  0  0  0  0  0  0
   -5.5256    1.8716    0.1575 H   0  0  0  0  0  0  0  0  0  0  0  0
   -6.9634   -0.1872    0.1328 H   0  0  0  0  0  0  0  0  0  0  0  0
   -5.8633   -2.4772   -0.0099 H   0  0  0  0  0  0  0  0  0  0  0  0
   -3.3165   -2.5764   -0.1252 H   0  0  0  0  0  0  0  0  0  0  0  0
    1.0198   -2.2643    1.8092 H   0  0  0  0  0  0  0  0  0  0  0  0
    1.9083   -2.6765    4.1188 H   0  0  0  0  0  0  0  0  0  0  0  0
    3.2026   -0.8852    5.3078 H   0  0  0  0  0  0  0  0  0  0  0  0
    3.6154    1.3149    4.1788 H   0  0  0  0  0  0  0  0  0  0  0  0
    2.7615    1.7185    1.8672 H   0  0  0  0  0  0  0  0  0  0  0  0
    0.7951   -0.9652   -2.7090 H   0  0  0  0  0  0  0  0  0  0  0  0
    2.1918   -2.3361   -4.2765 H   0  0  0  0  0  0  0  0  0  0  0  0
    4.3914   -3.2647   -3.5092 H   0  0  0  0  0  0  0  0  0  0  0  0
    5.1937   -2.8160   -1.1774 H   0  0  0  0  0  0  0  0  0  0  0  0
    3.8081   -1.4334    0.3811 H   0  0  0  0  0  0  0  0  0  0  0  0
   -3.0420    2.7719    0.0628 H   0  0  0  0  0  0  0  0  0  0  0  0
  1 18  1  0  0  0  0
  3  4  1  0  0  0  0
  4 48  1  0  0  0  0
  5 13  1  0  0  0  0
  6 11  1  0  0  0  0
  6  1  1  0  0  0  0
  7  6  2  0  0  0  0
  8  9  2  0  0  0  0
  8  7  1  0  0  0  0
  9 10  1  0  0  0  0
 10 33  1  0  0  0  0
 10 11  2  0  0  0  0
 11 12  1  0  0  0  0
 12  2  2  0  0  0  0
 12  3  1  0  0  0  0
 13  4  1  1  0  0  0
 13 14  1  0  0  0  0
 14 34  1  0  0  0  0
 15 14  2  0  0  0  0
 15 35  1  0  0  0  0
 16 15  1  0  0  0  0
 17  5  1  0  0  0  0
 17 16  2  0  0  0  0
 18 19  2  0  0  0  0
 18 23  1  0  0  0  0
 19 20  1  0  0  0  0
 20 39  1  0  0  0  0
 20 21  2  0  0  0  0
 21 40  1  0  0  0  0
 22 41  1  0  0  0  0
 22 21  1  0  0  0  0
 23 22  2  0  0  0  0
 24 29  1  0  0  0  0
 24  1  1  0  0  0  0
 25 24  2  0  0  0  0
 26 27  2  0  0  0  0
 26 25  1  0  0  0  0
 27 28  1  0  0  0  0
 28 46  1  0  0  0  0
 28 29  2  0  0  0  0
 29 47  1  0  0  0  0
 30  7  1  0  0  0  0
 31  8  1  0  0  0  0
 32  9  1  0  0  0  0
 36 16  1  0  0  0  0
 37 17  1  0  0  0  0
 38 19  1  0  0  0  0
 42 23  1  0  0  0  0
 43 25  1  0  0  0  0
 44 26  1  0  0  0  0
 45 27  1  0  0  0  0
M  END
