1,2,3
q = 0.0, confidence = 0.998

 42 43  0  0  1  0  0  0  0  0999 V2000
    1.6211    1.5478    0.6696 P   0  0  1  0  0  0  0  0  0  0  0  0
    2.8563   -0.3744   -0.9918 N   0  0  0  0  0  2  0  0  0  0  0  0
    1.0512   -1.1952    1.2504 N   0  0  0  0  0  2  0  0  0  0  0  0
    2.2012   -2.3619   -1.8263 O   0  0  0  0  0  0  0  0  0  0  0  0
    2.5059   -3.1413   -2.3288 H   0  0  0  0  0  0  0  0  0  0  0  0
    0.0473   -2.8962    0.1480 O   0  0  0  0  0  0  0  0  0  0  0  0
   -0.4749   -3.7077    0.2982 H   0  0  0  0  0  0  0  0  0  0  0  0
    3.2252   -1.5097   -1.6207 C   0  0  2  0  0  3  0  0  0  0  0  0
    4.5530   -1.7586   -2.0051 C   0  0  0  0  0  0  0  0  0  0  0  0
    4.8185   -2.6977   -2.5127 H   0  0  0  0  0  0  0  0  0  0  0  0
    5.5155   -0.7843   -1.7239 C   0  0  0  0  0  0  0  0  0  0  0  0
    6.5648   -0.9506   -2.0078 H   0  0  0  0  0  0  0  0  0  0  0  0
    5.1300    0.4088   -1.0938 C   0  0  0  0  0  0  0  0  0  0  0  0
    5.8609    1.2018   -0.8860 H   0  0  0  0  0  0  0  0  0  0  0  0
    3.7834    0.5967   -0.7572 C   0  0  0  0  0  0  0  0  0  0  0  0
    3.2537    1.8751   -0.1795 C   0  0  0  0  0  0  0  0  0  0  0  0
    3.0061    2.5603   -1.0197 H   0  0  0  0  0  0  0  0  0  0  0  0
    3.9959    2.3813    0.4681 H   0  0  0  0  0  0  0  0  0  0  0  0
    2.1063    0.7651    2.3025 C   0  0  0  0  0  0  0  0  0  0  0  0
    3.2128    0.7989    2.3907 H   0  0  0  0  0  0  0  0  0  0  0  0
    1.7103    1.3495    3.1579 H   0  0  0  0  0  0  0  0  0  0  0  0
    1.6182   -0.6590    2.3787 C   0  0  1  0  0  3  0  0  0  0  0  0
    1.7096   -1.3915    3.5682 C   0  0  0  0  0  0  0  0  0  0  0  0
    2.1660   -0.9263    4.4528 H   0  0  0  0  0  0  0  0  0  0  0  0
    1.2091   -2.7000    3.6205 C   0  0  0  0  0  0  0  0  0  0  0  0
    1.2647   -3.2862    4.5489 H   0  0  0  0  0  0  0  0  0  0  0  0
    0.6313   -3.2488    2.4732 C   0  0  0  0  0  0  0  0  0  0  0  0
    0.2210   -4.2690    2.4668 H   0  0  0  0  0  0  0  0  0  0  0  0
    0.5767   -2.4672    1.3107 C   0  0  0  0  0  0  0  0  0  0  0  0
    0.9607    3.2726    1.0624 C   0  0  0  0  0  0  0  0  0  0  0  0
   -0.2962    3.1412    1.9340 C   0  0  0  0  0  0  0  0  0  0  0  0
   -0.0880    2.6538    2.9083 H   0  0  0  0  0  0  0  0  0  0  0  0
   -1.0998    2.5881    1.4159 H   0  0  0  0  0  0  0  0  0  0  0  0
   -0.6889    4.1545    2.1567 H   0  0  0  0  0  0  0  0  0  0  0  0
    0.6168    3.9569   -0.2706 C   0  0  0  0  0  0  0  0  0  0  0  0
   -0.0839    3.3499   -0.8718 H   0  0  0  0  0  0  0  0  0  0  0  0
    1.5164    4.1507   -0.8870 H   0  0  0  0  0  0  0  0  0  0  0  0
    0.1393    4.9366   -0.0631 H   0  0  0  0  0  0  0  0  0  0  0  0
    2.0434    4.0656    1.8181 C   0  0  0  0  0  0  0  0  0  0  0  0
    1.6279    5.0585    2.0885 H   0  0  0  0  0  0  0  0  0  0  0  0
    2.9449    4.2499    1.2026 H   0  0  0  0  0  0  0  0  0  0  0  0
    2.3539    3.5767    2.7639 H   0  0  0  0  0  0  0  0  0  0  0  0
  1 16  1  6  0  0  0
  1 30  1  0  0  0  0
  1 19  1  0  0  0  0
  2 15  1  0  0  0  0
  3 29  1  0  0  0  0
  3 22  1  0  0  0  0
  5  4  1  0  0  0  0
  6  7  1  0  0  0  0
  6 29  1  0  0  0  0
  8  4  1  1  0  0  0
  8  2  1  0  0  0  0
  9 11  2  0  0  0  0
  9  8  1  0  0  0  0
 10  9  1  0  0  0  0
 11 13  1  0  0  0  0
 12 11  1  0  0  0  0
 13 14  1  0  0  0  0
 13 15  2  0  0  0  0
 15 16  1  0  0  0  0
 16 18  1  0  0  0  0
 17 16  1  0  0  0  0
 19 20  1  0  0  0  0
 19 21  1  0  0  0  0
 22 19  1  1  0  0  0
 22 23  1  0  0  0  0
 23 25  2  0  0  0  0
 23 24  1  0  0  0  0
 25 26  1  0  0  0  0
 27 25  1  0  0  0  0
 28 27  1  0  0  0  0
 29 27  2  0  0  0  0
 30 39  1  0  0  0  0
 30 31  1  0  0  0  0
 31 34  1  0  0  0  0
 31 32  1  0  0  0  0
 33 31  1  0  0  0  0
 35 38  1  0  0  0  0
 35 30  1  0  0  0  0
 36 35  1  0  0  0  0
 37 35  1  0  0  0  0
 39 40  1  0  0  0  0
 39 42  1  0  0  0  0
 41 39  1  0  0  0  0
M  END
