1,2,3,4
q = -1.0

 70 71  0  0  1  0  0  0  0  0999 V2000
    2.1880   -0.7200    0.1033 P   0  0  0  0  0  0  0  0  0  0  0  0
   -0.9670   -0.0847   -1.3605 O   0  0  0  0  0  1  0  0  0  0  0  0
   -1.0955    2.2426    0.1724 N   0  0  0  0  0  0  0  0  0  0  0  0
   -0.3397   -0.0993    1.3267 N   0  0  0  0  0  2  0  0  0  0  0  0
   -2.1249    1.1619    0.3545 C   0  0  1  0  0  0  0  0  0  0  0  0
   -3.1114    1.5929    0.6313 H   0  0  0  0  0  0  0  0  0  0  0  0
   -2.2071    0.3515   -1.0142 C   0  0  2  0  0  0  0  0  0  0  0  0
   -2.6474    1.0913   -1.7473 H   0  0  0  0  0  0  0  0  0  0  0  0
   -3.2874   -0.7313   -0.8957 C   0  0  0  0  0  0  0  0  0  0  0  0
   -4.6181   -0.4028   -0.5623 C   0  0  0  0  0  0  0  0  0  0  0  0
   -4.8993    0.6518   -0.4019 H   0  0  0  0  0  0  0  0  0  0  0  0
   -5.5973   -1.3994   -0.4410 C   0  0  0  0  0  0  0  0  0  0  0  0
   -6.6297   -1.1251   -0.1730 H   0  0  0  0  0  0  0  0  0  0  0  0
   -5.2637   -2.7454   -0.6719 C   0  0  0  0  0  0  0  0  0  0  0  0
   -6.0310   -3.5294   -0.5802 H   0  0  0  0  0  0  0  0  0  0  0  0
   -3.9502   -3.0765   -1.0373 C   0  0  0  0  0  0  0  0  0  0  0  0
   -3.6840   -4.1256   -1.2414 H   0  0  0  0  0  0  0  0  0  0  0  0
   -2.9721   -2.0751   -1.1503 C   0  0  0  0  0  0  0  0  0  0  0  0
   -1.9423   -2.3076   -1.4496 H   0  0  0  0  0  0  0  0  0  0  0  0
   -1.0014    3.0443    1.4287 C   0  0  0  0  0  0  0  0  0  0  0  0
   -0.7198    2.3352    2.2303 H   0  0  0  0  0  0  0  0  0  0  0  0
   -2.0151    3.4316    1.6877 H   0  0  0  0  0  0  0  0  0  0  0  0
    0.0032    4.1863    1.3833 C   0  0  0  0  0  0  0  0  0  0  0  0
    0.9811    3.8124    1.0193 H   0  0  0  0  0  0  0  0  0  0  0  0
    0.1414    4.5918    2.4051 H   0  0  0  0  0  0  0  0  0  0  0  0
   -0.3251    5.0247    0.7379 H   0  0  0  0  0  0  0  0  0  0  0  0
   -1.3487    3.1073   -1.0193 C   0  0  0  0  0  0  0  0  0  0  0  0
   -1.2651    2.4606   -1.9105 H   0  0  0  0  0  0  0  0  0  0  0  0
   -0.4933    3.8048   -1.0785 H   0  0  0  0  0  0  0  0  0  0  0  0
   -2.6677    3.8788   -1.0183 C   0  0  0  0  0  0  0  0  0  0  0  0
   -3.5492    3.2064   -1.0163 H   0  0  0  0  0  0  0  0  0  0  0  0
   -2.7295    4.4915   -1.9395 H   0  0  0  0  0  0  0  0  0  0  0  0
   -2.7593    4.5706   -0.1566 H   0  0  0  0  0  0  0  0  0  0  0  0
   -1.6622    0.1908    1.4036 C   0  0  1  0  0  3  0  0  0  0  0  0
   -2.4954   -0.5167    2.2828 C   0  0  0  0  0  0  0  0  0  0  0  0
   -3.5695   -0.2908    2.3228 H   0  0  0  0  0  0  0  0  0  0  0  0
   -1.9315   -1.5324    3.0665 C   0  0  0  0  0  0  0  0  0  0  0  0
   -2.5636   -2.1096    3.7576 H   0  0  0  0  0  0  0  0  0  0  0  0
   -0.5610   -1.8249    2.9580 C   0  0  0  0  0  0  0  0  0  0  0  0
   -0.1059   -2.6278    3.5551 H   0  0  0  0  0  0  0  0  0  0  0  0
    0.2302   -1.0832    2.0684 C   0  0  0  0  0  0  0  0  0  0  0  0
    1.7039   -1.2940    1.8425 C   0  0  0  0  0  0  0  0  0  0  0  0
    2.0112   -2.3335    2.0738 H   0  0  0  0  0  0  0  0  0  0  0  0
    2.2702   -0.6223    2.5237 H   0  0  0  0  0  0  0  0  0  0  0  0
    1.9415   -2.2688   -1.0020 C   0  0  0  0  0  0  0  0  0  0  0  0
    0.5721   -2.8368   -0.5901 C   0  0  0  0  0  0  0  0  0  0  0  0
    0.2665   -3.6082   -1.3291 H   0  0  0  0  0  0  0  0  0  0  0  0
   -0.1908   -2.0323   -0.6008 H   0  0  0  0  0  0  0  0  0  0  0  0
    0.5919   -3.3254    0.4045 H   0  0  0  0  0  0  0  0  0  0  0  0
    1.8265   -1.7562   -2.4517 C   0  0  0  0  0  0  0  0  0  0  0  0
    2.7525   -1.2651   -2.8071 H   0  0  0  0  0  0  0  0  0  0  0  0
    0.9875   -1.0371   -2.5377 H   0  0  0  0  0  0  0  0  0  0  0  0
    1.6210   -2.6163   -3.1244 H   0  0  0  0  0  0  0  0  0  0  0  0
    3.0023   -3.3706   -0.8856 C   0  0  0  0  0  0  0  0  0  0  0  0
    2.6864   -4.2352   -1.5085 H   0  0  0  0  0  0  0  0  0  0  0  0
    3.1104   -3.7432    0.1535 H   0  0  0  0  0  0  0  0  0  0  0  0
    3.9985   -3.0549   -1.2508 H   0  0  0  0  0  0  0  0  0  0  0  0
    4.0545   -0.3236    0.2901 C   0  0  0  0  0  0  0  0  0  0  0  0
    4.6713   -0.1787   -1.1136 C   0  0  0  0  0  0  0  0  0  0  0  0
    4.1275    0.5674   -1.7253 H   0  0  0  0  0  0  0  0  0  0  0  0
    4.6953   -1.1360   -1.6683 H   0  0  0  0  0  0  0  0  0  0  0  0
    5.7208    0.1715   -1.0136 H   0  0  0  0  0  0  0  0  0  0  0  0
    4.8105   -1.3903    1.1046 C   0  0  0  0  0  0  0  0  0  0  0  0
    5.8794   -1.0955    1.1758 H   0  0  0  0  0  0  0  0  0  0  0  0
    4.7760   -2.3941    0.6473 H   0  0  0  0  0  0  0  0  0  0  0  0
    4.4298   -1.4686    2.1425 H   0  0  0  0  0  0  0  0  0  0  0  0
    4.1897    1.0249    1.0201 C   0  0  0  0  0  0  0  0  0  0  0  0
    5.2696    1.2470    1.1582 H   0  0  0  0  0  0  0  0  0  0  0  0
    3.7188    1.0116    2.0239 H   0  0  0  0  0  0  0  0  0  0  0  0
    3.7256    1.8480    0.4478 H   0  0  0  0  0  0  0  0  0  0  0  0
  1 58  1  0  0  0  0
  1 42  1  0  0  0  0
  2  7  1  0  0  0  0
  3  5  1  0  0  0  0
  3 20  1  0  0  0  0
  4 34  1  0  0  0  0
  4 41  1  0  0  0  0
  5  6  1  1  0  0  0
  7  8  1  6  0  0  0
  7  9  1  0  0  0  0
  7  5  1  0  0  0  0
  9 10  1  0  0  0  0
 10 12  2  0  0  0  0
 10 11  1  0  0  0  0
 12 13  1  0  0  0  0
 14 15  1  0  0  0  0
 14 12  1  0  0  0  0
 16 14  2  0  0  0  0
 17 16  1  0  0  0  0
 18 16  1  0  0  0  0
 18  9  2  0  0  0  0
 19 18  1  0  0  0  0
 20 22  1  0  0  0  0
 20 21  1  0  0  0  0
 23 20  1  0  0  0  0
 23 25  1  0  0  0  0
 24 23  1  0  0  0  0
 26 23  1  0  0  0  0
 27 30  1  0  0  0  0
 27  3  1  0  0  0  0
 28 27  1  0  0  0  0
 29 27  1  0  0  0  0
 30 31  1  0  0  0  0
 30 33  1  0  0  0  0
 32 30  1  0  0  0  0
 34  5  1  6  0  0  0
 34 35  1  0  0  0  0
 35 36  1  0  0  0  0
 35 37  2  0  0  0  0
 37 38  1  0  0  0  0
 39 37  1  0  0  0  0
 39 40  1  0  0  0  0
 41 39  2  0  0  0  0
 42 41  1  0  0  0  0
 42 43  1  0  0  0  0
 42 44  1  0  0  0  0
 45 54  1  0  0  0  0
 45 46  1  0  0  0  0
 45  1  1  0  0  0  0
 46 49  1  0  0  0  0
 47 46  1  0  0  0  0
 48 46  1  0  0  0  0
 50 45  1  0  0  0  0
 51 50  1  0  0  0  0
 52 50  1  0  0  0  0
 53 50  1  0  0  0  0
 54 56  1  0  0  0  0
 55 54  1  0  0  0  0
 57 54  1  0  0  0  0
 58 67  1  0  0  0  0
 58 63  1  0  0  0  0
 59 62  1  0  0  0  0
 59 58  1  0  0  0  0
 60 59  1  0  0  0  0
 61 59  1  0  0  0  0
 63 64  1  0  0  0  0
 63 66  1  0  0  0  0
 65 63  1  0  0  0  0
 67 68  1  0  0  0  0
 67 69  1  0  0  0  0
 70 67  1  0  0  0  0
M  END
