1,2,3,4
q = -2.0, confidence = 0.878

 59 62  0  0  1  0  0  0  0  0999 V2000
   -1.3875    0.3597   -0.0183 P   0  0  0  0  0  0  0  0  0  0  0  0
   -0.1185   -2.4758   -0.1738 N   0  0  0  0  0  2  0  0  0  0  0  0
    2.3988   -1.6078   -0.3624 N   0  0  0  0  0  2  0  0  0  0  0  0
    1.4928    1.1594   -0.2017 O   0  5  0  0  0  0  0  0  0  0  0  0
   -2.7371   -0.7557   -0.5549 C   0  0  0  0  0  0  0  0  0  0  0  0
   -3.9856   -0.1987   -0.8960 C   0  0  0  0  0  0  0  0  0  0  0  0
   -4.1028    0.8955   -0.8802 H   0  0  0  0  0  0  0  0  0  0  0  0
   -5.0734   -1.0048   -1.2569 C   0  0  0  0  0  0  0  0  0  0  0  0
   -6.0364   -0.5427   -1.5204 H   0  0  0  0  0  0  0  0  0  0  0  0
   -4.9233   -2.4020   -1.2756 C   0  0  0  0  0  0  0  0  0  0  0  0
   -5.7691   -3.0491   -1.5518 H   0  0  0  0  0  0  0  0  0  0  0  0
   -3.6904   -2.9692   -0.9514 C   0  0  0  0  0  0  0  0  0  0  0  0
   -3.5712   -4.0636   -0.9797 H   0  0  0  0  0  0  0  0  0  0  0  0
   -2.5646   -2.1748   -0.6003 C   0  0  0  0  0  0  0  0  0  0  0  0
   -1.3408   -2.9186   -0.3355 C   0  0  0  0  0  3  0  0  0  0  0  0
   -1.4689   -4.0169   -0.2938 H   0  0  0  0  0  0  0  0  0  0  0  0
    0.9477   -3.4811    0.1312 C   0  0  2  0  0  0  0  0  0  0  0  0
    0.6119   -4.4612   -0.2714 H   0  0  0  0  0  0  0  0  0  0  0  0
    1.1308   -3.5819    1.6491 C   0  0  0  0  0  0  0  0  0  0  0  0
    1.5117   -2.6236    2.0532 H   0  0  0  0  0  0  0  0  0  0  0  0
    1.8654   -4.3777    1.8811 H   0  0  0  0  0  0  0  0  0  0  0  0
    0.1747   -3.8246    2.1540 H   0  0  0  0  0  0  0  0  0  0  0  0
    2.2272   -3.0325   -0.5855 C   0  0  0  0  0  0  0  0  0  0  0  0
    3.1157   -3.5778   -0.2055 H   0  0  0  0  0  0  0  0  0  0  0  0
    2.1408   -3.2631   -1.6731 H   0  0  0  0  0  0  0  0  0  0  0  0
    3.6724   -1.1133   -0.2692 C   0  0  0  0  0  0  0  0  0  0  0  0
    4.6648   -1.8612   -0.3408 O   0  0  0  0  0  0  0  0  0  0  0  0
    3.8389    0.3716   -0.0821 C   0  0  0  0  0  0  0  0  0  0  0  0
    2.8094    1.3655   -0.0687 C   0  0  0  0  0  0  0  0  0  0  0  0
    3.1804    2.7317    0.0855 C   0  0  0  0  0  0  0  0  0  0  0  0
    2.3658    3.4715    0.0810 H   0  0  0  0  0  0  0  0  0  0  0  0
    4.5117    3.1145    0.2332 C   0  0  0  0  0  0  0  0  0  0  0  0
    4.7612    4.1807    0.3531 H   0  0  0  0  0  0  0  0  0  0  0  0
    5.5291    2.1398    0.2264 C   0  0  0  0  0  0  0  0  0  0  0  0
    6.5841    2.4300    0.3410 H   0  0  0  0  0  0  0  0  0  0  0  0
    5.1792    0.7987    0.0655 C   0  0  0  0  0  0  0  0  0  0  0  0
    5.9374    0.0016    0.0402 H   0  0  0  0  0  0  0  0  0  0  0  0
   -1.8009    0.8600    1.6994 C   0  0  0  0  0  0  0  0  0  0  0  0
   -0.8273    1.6322    2.3715 C   0  0  0  0  0  0  0  0  0  0  0  0
    0.1096    1.8942    1.8523 H   0  0  0  0  0  0  0  0  0  0  0  0
   -1.0584    2.0486    3.6888 C   0  0  0  0  0  0  0  0  0  0  0  0
   -0.2996    2.6519    4.2098 H   0  0  0  0  0  0  0  0  0  0  0  0
   -2.2478    1.6879    4.3461 C   0  0  0  0  0  0  0  0  0  0  0  0
   -2.4228    2.0106    5.3837 H   0  0  0  0  0  0  0  0  0  0  0  0
   -3.2084    0.9097    3.6825 C   0  0  0  0  0  0  0  0  0  0  0  0
   -4.1371    0.6206    4.1977 H   0  0  0  0  0  0  0  0  0  0  0  0
   -2.9894    0.4949    2.3582 C   0  0  0  0  0  0  0  0  0  0  0  0
   -3.7438   -0.1161    1.8403 H   0  0  0  0  0  0  0  0  0  0  0  0
   -1.5966    1.8960   -0.9964 C   0  0  0  0  0  0  0  0  0  0  0  0
   -2.3580    2.9857   -0.5288 C   0  0  0  0  0  0  0  0  0  0  0  0
   -2.8326    2.9399    0.4634 H   0  0  0  0  0  0  0  0  0  0  0  0
   -2.4944    4.1348   -1.3228 C   0  0  0  0  0  0  0  0  0  0  0  0
   -3.0872    4.9858   -0.9545 H   0  0  0  0  0  0  0  0  0  0  0  0
   -1.8677    4.2023   -2.5773 C   0  0  0  0  0  0  0  0  0  0  0  0
   -1.9698    5.1077   -3.1947 H   0  0  0  0  0  0  0  0  0  0  0  0
   -1.0988    3.1210   -3.0387 C   0  0  0  0  0  0  0  0  0  0  0  0
   -0.5927    3.1790   -4.0140 H   0  0  0  0  0  0  0  0  0  0  0  0
   -0.9579    1.9707   -2.2509 C   0  0  0  0  0  0  0  0  0  0  0  0
   -0.3361    1.1290   -2.5925 H   0  0  0  0  0  0  0  0  0  0  0  0
  1 38  1  0  0  0  0
  2 17  1  0  0  0  0
  3 26  1  0  0  0  0
  4 29  1  0  0  0  0
  5  1  1  0  0  0  0
  6  7  1  0  0  0  0
  6  5  2  0  0  0  0
  8  6  1  0  0  0  0
  9  8  1  0  0  0  0
 10  8  2  0  0  0  0
 10 12  1  0  0  0  0
 11 10  1  0  0  0  0
 12 14  2  0  0  0  0
 13 12  1  0  0  0  0
 14  5  1  0  0  0  0
 14 15  1  0  0  0  0
 15 16  1  0  0  0  0
 15  2  1  0  0  0  0
 17 18  1  6  0  0  0
 17 19  1  0  0  0  0
 19 21  1  0  0  0  0
 19 20  1  0  0  0  0
 19 22  1  0  0  0  0
 23  3  1  0  0  0  0
 23 24  1  0  0  0  0
 23 17  1  0  0  0  0
 25 23  1  0  0  0  0
 26 28  1  0  0  0  0
 27 26  2  0  0  0  0
 28 29  2  0  0  0  0
 28 36  1  0  0  0  0
 29 30  1  0  0  0  0
 30 32  2  0  0  0  0
 31 30  1  0  0  0  0
 32 33  1  0  0  0  0
 34 32  1  0  0  0  0
 34 35  1  0  0  0  0
 36 34  2  0  0  0  0
 37 36  1  0  0  0  0
 38 47  2  0  0  0  0
 38 39  1  0  0  0  0
 39 41  2  0  0  0  0
 40 39  1  0  0  0  0
 41 42  1  0  0  0  0
 41 43  1  0  0  0  0
 43 44  1  0  0  0  0
 45 46  1  0  0  0  0
 45 43  2  0  0  0  0
 47 45  1  0  0  0  0
 48 47  1  0  0  0  0
 49 50  1  0  0  0  0
 49  1  1  0  0  0  0
 50 51  1  0  0  0  0
 52 53  1  0  0  0  0
 52 50  2  0  0  0  0
 54 52  1  0  0  0  0
 55 54  1  0  0  0  0
 56 54  2  0  0  0  0
 56 58  1  0  0  0  0
 57 56  1  0  0  0  0
 58 49  2  0  0  0  0
 59 58  1  0  0  0  0
M  CHG  1   4  -1
M  END
