2,3,5,7
q = -2.0, confidence = 0.912

 65 68  0  0  1  0  0  0  0  0999 V2000
   -2.0244    4.2767    0.5536 S   0  0  0  0  0  0  0  0  0  0  0  0
   -0.4841   -1.1395    0.2054 P   0  0  0  0  0  0  0  0  0  0  0  0
    2.0926   -0.1802   -0.3793 O   0  0  0  0  0  1  0  0  0  0  0  0
   -2.4552    0.6074   -1.2499 O   0  0  0  0  0  0  0  0  0  0  0  0
    1.3650    2.4494    0.1107 N   0  0  0  0  0  2  0  0  0  0  0  0
    0.5324    3.5168    0.3115 N   0  0  0  0  0  0  0  0  0  0  0  0
   -1.0020    1.7657    0.2211 N   0  0  0  0  0  2  0  0  0  0  0  0
   -0.7183    3.0890    0.3397 C   0  0  0  0  0  0  0  0  0  0  0  0
   -1.0649    5.8212    0.5291 C   0  0  0  0  0  0  0  0  0  0  0  0
    2.6638    2.6739    0.0546 C   0  0  0  0  0  0  0  0  0  0  0  0
   -2.3407    1.2723    0.0020 C   0  0  2  0  0  0  0  0  0  0  0  0
   -2.0928    1.4008   -2.3806 C   0  0  0  0  0  0  0  0  0  0  0  0
   -2.3330    0.5832   -3.6352 C   0  0  0  0  0  0  0  0  0  0  0  0
    3.3221    0.2847   -0.3752 C   0  0  1  0  0  3  0  0  0  0  0  0
    4.3862   -0.6399   -0.5861 C   0  0  0  0  0  0  0  0  0  0  0  0
    5.7146   -0.2250   -0.6026 C   0  0  0  0  0  0  0  0  0  0  0  0
    6.0490    1.1366   -0.4066 C   0  0  0  0  0  0  0  0  0  0  0  0
    5.0314    2.0594   -0.1942 C   0  0  0  0  0  0  0  0  0  0  0  0
    3.6604    1.6723   -0.1709 C   0  0  0  0  0  0  0  0  0  0  0  0
   -2.0186   -0.9472    1.1908 C   0  0  0  0  0  0  0  0  0  0  0  0
   -2.4173   -1.9022    2.1444 C   0  0  0  0  0  0  0  0  0  0  0  0
   -3.5530   -1.6790    2.9390 C   0  0  0  0  0  0  0  0  0  0  0  0
   -4.2869   -0.4929    2.7927 C   0  0  0  0  0  0  0  0  0  0  0  0
   -3.8907    0.4635    1.8445 C   0  0  0  0  0  0  0  0  0  0  0  0
   -2.7626    0.2487    1.0390 C   0  0  0  0  0  0  0  0  0  0  0  0
    0.5250   -2.3323    1.1686 C   0  0  0  0  0  0  0  0  0  0  0  0
    1.4038   -1.8254    2.1473 C   0  0  0  0  0  0  0  0  0  0  0  0
    2.1749   -2.7024    2.9212 C   0  0  0  0  0  0  0  0  0  0  0  0
    2.0811   -4.0896    2.7186 C   0  0  0  0  0  0  0  0  0  0  0  0
    1.2152   -4.5979    1.7379 C   0  0  0  0  0  0  0  0  0  0  0  0
    0.4399   -3.7229    0.9603 C   0  0  0  0  0  0  0  0  0  0  0  0
   -0.9072   -2.0615   -1.3179 C   0  0  0  0  0  0  0  0  0  0  0  0
   -2.1954   -2.5655   -1.5727 C   0  0  0  0  0  0  0  0  0  0  0  0
   -2.4516   -3.2416   -2.7752 C   0  0  0  0  0  0  0  0  0  0  0  0
   -1.4296   -3.4102   -3.7234 C   0  0  0  0  0  0  0  0  0  0  0  0
   -0.1444   -2.9009   -3.4695 C   0  0  0  0  0  0  0  0  0  0  0  0
    0.1209   -2.2240   -2.2705 C   0  0  0  0  0  0  0  0  0  0  0  0
   -1.8068    6.6329    0.6538 H   0  0  0  0  0  0  0  0  0  0  0  0
   -0.5288    5.9308   -0.4312 H   0  0  0  0  0  0  0  0  0  0  0  0
   -0.3339    5.8326    1.3576 H   0  0  0  0  0  0  0  0  0  0  0  0
    2.9795    3.7238    0.1958 H   0  0  0  0  0  0  0  0  0  0  0  0
   -3.0501    2.1370    0.0327 H   0  0  0  0  0  0  0  0  0  0  0  0
   -1.0226    1.7008   -2.3013 H   0  0  0  0  0  0  0  0  0  0  0  0
   -2.6951    2.3416   -2.3836 H   0  0  0  0  0  0  0  0  0  0  0  0
   -2.0778    1.1786   -4.5343 H   0  0  0  0  0  0  0  0  0  0  0  0
   -3.3945    0.2732   -3.7087 H   0  0  0  0  0  0  0  0  0  0  0  0
   -1.7079   -0.3312   -3.6332 H   0  0  0  0  0  0  0  0  0  0  0  0
    4.1112   -1.6954   -0.7288 H   0  0  0  0  0  0  0  0  0  0  0  0
    6.5116   -0.9671   -0.7671 H   0  0  0  0  0  0  0  0  0  0  0  0
    7.1000    1.4597   -0.4200 H   0  0  0  0  0  0  0  0  0  0  0  0
    5.2721    3.1234   -0.0388 H   0  0  0  0  0  0  0  0  0  0  0  0
   -1.8284   -2.8226    2.2735 H   0  0  0  0  0  0  0  0  0  0  0  0
   -3.8576   -2.4328    3.6806 H   0  0  0  0  0  0  0  0  0  0  0  0
   -5.1721   -0.3090    3.4201 H   0  0  0  0  0  0  0  0  0  0  0  0
   -4.4631    1.3968    1.7266 H   0  0  0  0  0  0  0  0  0  0  0  0
    1.4934   -0.7365    2.2801 H   0  0  0  0  0  0  0  0  0  0  0  0
    2.8640   -2.2993    3.6785 H   0  0  0  0  0  0  0  0  0  0  0  0
    2.6933   -4.7769    3.3222 H   0  0  0  0  0  0  0  0  0  0  0  0
    1.1459   -5.6836    1.5704 H   0  0  0  0  0  0  0  0  0  0  0  0
   -0.2289   -4.1213    0.1821 H   0  0  0  0  0  0  0  0  0  0  0  0
   -2.9988   -2.4114   -0.8376 H   0  0  0  0  0  0  0  0  0  0  0  0
   -3.4606   -3.6331   -2.9761 H   0  0  0  0  0  0  0  0  0  0  0  0
   -1.6365   -3.9366   -4.6676 H   0  0  0  0  0  0  0  0  0  0  0  0
    0.6564   -3.0256   -4.2141 H   0  0  0  0  0  0  0  0  0  0  0  0
    1.1197   -1.8074   -2.0627 H   0  0  0  0  0  0  0  0  0  0  0  0
  2 26  1  0  0  0  0
  2 20  1  0  0  0  0
  4 11  1  0  0  0  0
  5  6  1  0  0  0  0
  6  8  2  0  0  0  0
  7  8  1  0  0  0  0
  8  1  1  0  0  0  0
  9  1  1  0  0  0  0
  9 38  1  0  0  0  0
  9 40  1  0  0  0  0
 10  5  1  0  0  0  0
 10 41  1  0  0  0  0
 11 42  1  1  0  0  0
 11  7  1  0  0  0  0
 11 25  1  0  0  0  0
 12 43  1  0  0  0  0
 12  4  1  0  0  0  0
 13 47  1  0  0  0  0
 13 12  1  0  0  0  0
 14  3  1  6  0  0  0
 14 19  1  0  0  0  0
 15 14  1  0  0  0  0
 16 15  2  0  0  0  0
 16 17  1  0  0  0  0
 17 18  2  0  0  0  0
 18 19  1  0  0  0  0
 18 51  1  0  0  0  0
 19 10  2  0  0  0  0
 20 21  1  0  0  0  0
 21 52  1  0  0  0  0
 21 22  2  0  0  0  0
 22 53  1  0  0  0  0
 23 22  1  0  0  0  0
 23 54  1  0  0  0  0
 24 23  2  0  0  0  0
 25 20  2  0  0  0  0
 25 24  1  0  0  0  0
 26 27  1  0  0  0  0
 27 56  1  0  0  0  0
 27 28  2  0  0  0  0
 28 57  1  0  0  0  0
 29 28  1  0  0  0  0
 29 58  1  0  0  0  0
 30 29  2  0  0  0  0
 31 26  2  0  0  0  0
 31 30  1  0  0  0  0
 32  2  1  0  0  0  0
 33 32  1  0  0  0  0
 33 61  1  0  0  0  0
 34 33  2  0  0  0  0
 35 36  2  0  0  0  0
 35 34  1  0  0  0  0
 36 37  1  0  0  0  0
 37 65  1  0  0  0  0
 37 32  2  0  0  0  0
 39  9  1  0  0  0  0
 44 12  1  0  0  0  0
 45 13  1  0  0  0  0
 46 13  1  0  0  0  0
 48 15  1  0  0  0  0
 49 16  1  0  0  0  0
 50 17  1  0  0  0  0
 55 24  1  0  0  0  0
 59 30  1  0  0  0  0
 60 31  1  0  0  0  0
 62 34  1  0  0  0  0
 63 35  1  0  0  0  0
 64 36  1  0  0  0  0
M  END
