1,4
q = 0.0, confidence = 0.506

  4  3  0  0  0  0  0  0  0  0999 V2000
   -0.1599   -3.0537   -0.3223 N   0  0  0  0  0  0  0  0  0  0  0  0
   -1.3747   -4.0363   -0.0012 S   0  0  0  0  0  0  0  0  0  0  0  0
   -2.7856   -3.3204    0.2444 N   0  0  0  0  0  0  0  0  0  0  0  0
   -2.8049   -1.6264    0.1374 S   0  0  0  0  0  0  0  0  0  0  0  0
  1  2  1  0  0  0  0
  2  3  1  0  0  0  0
  4  3  1  0  0  0  0
M  END
