1,2
 OpenBabel05122313063D

 26 27  0  0  0  0  0  0  0  0999 V2000
   -0.0719   -0.5972    1.7140 S   0  0  0  0  0  0  0  0  0  0  0  0
    0.0548   -1.0906   -1.1970 N   0  0  0  0  0  1  0  0  0  0  0  0
   -1.1440   -1.3895   -0.6478 C   0  0  0  0  0  0  0  0  0  0  0  0
   -2.1879   -1.8941   -1.4937 C   0  0  0  0  0  0  0  0  0  0  0  0
   -1.9523   -2.0340   -2.5585 H   0  0  0  0  0  0  0  0  0  0  0  0
   -3.4368   -2.2016   -0.9585 C   0  0  0  0  0  0  0  0  0  0  0  0
   -4.2287   -2.6016   -1.6091 H   0  0  0  0  0  0  0  0  0  0  0  0
   -3.7049   -1.9781    0.4093 C   0  0  0  0  0  0  0  0  0  0  0  0
   -4.7027   -2.2026    0.8152 H   0  0  0  0  0  0  0  0  0  0  0  0
   -2.7080   -1.4692    1.2661 C   0  0  0  0  0  0  0  0  0  0  0  0
   -2.9209   -1.3008    2.3330 H   0  0  0  0  0  0  0  0  0  0  0  0
   -1.4449   -1.1993    0.7450 C   0  0  0  0  0  0  0  0  0  0  0  0
   -0.5561    1.2085    1.9975 C   0  0  0  0  0  0  0  0  0  0  0  0
   -1.3145    1.1820    2.8036 H   0  0  0  0  0  0  0  0  0  0  0  0
    0.4008    1.6126    2.3839 H   0  0  0  0  0  0  0  0  0  0  0  0
   -1.0315    1.8774    0.7492 C   0  0  0  0  0  0  0  0  0  0  0  0
   -0.1043    2.4202   -0.1673 C   0  0  0  0  0  0  0  0  0  0  0  0
    0.9701    2.3983    0.0736 H   0  0  0  0  0  0  0  0  0  0  0  0
   -0.5467    2.9632   -1.3813 C   0  0  0  0  0  0  0  0  0  0  0  0
    0.1871    3.3764   -2.0889 H   0  0  0  0  0  0  0  0  0  0  0  0
   -1.9152    2.9694   -1.6961 C   0  0  0  0  0  0  0  0  0  0  0  0
   -2.2588    3.3897   -2.6534 H   0  0  0  0  0  0  0  0  0  0  0  0
   -2.8452    2.4428   -0.7854 C   0  0  0  0  0  0  0  0  0  0  0  0
   -3.9199    2.4568   -1.0218 H   0  0  0  0  0  0  0  0  0  0  0  0
   -2.4053    1.8987    0.4300 C   0  0  0  0  0  0  0  0  0  0  0  0
   -3.1365    1.4883    1.1436 H   0  0  0  0  0  0  0  0  0  0  0  0
  1 13  1  0  0  0  0
  2  3  1  0  0  0  0
  3 12  1  0  0  0  0
  4  6  1  0  0  0  0
  4  3  2  0  0  0  0
  5  4  1  0  0  0  0
  6  8  2  0  0  0  0
  7  6  1  0  0  0  0
  8  9  1  0  0  0  0
  8 10  1  0  0  0  0
 10 11  1  0  0  0  0
 12 10  2  0  0  0  0
 12  1  1  0  0  0  0
 13 15  1  0  0  0  0
 13 14  1  0  0  0  0
 16 13  1  0  0  0  0
 17 18  1  0  0  0  0
 17 16  2  0  0  0  0
 19 17  1  0  0  0  0
 20 19  1  0  0  0  0
 21 19  2  0  0  0  0
 21 23  1  0  0  0  0
 22 21  1  0  0  0  0
 23 25  2  0  0  0  0
 24 23  1  0  0  0  0
 25 16  1  0  0  0  0
 25 26  1  0  0  0  0
M  END
