3,4
 OpenBabel05122313063D

 13 12  0  0  1  0  0  0  0  0999 V2000
   -1.7738    1.5667   -1.7128 S   0  0  0  0  0  0  0  0  0  0  0  0
   -2.2008    1.8809   -0.0073 C   0  0  1  0  0  3  0  0  0  0  0  0
   -1.2544    1.1004    1.1767 S   0  0  0  0  0  1  0  0  0  0  0  0
   -0.5566    0.4921   -1.5261 N   0  0  0  0  0  1  0  0  0  0  0  0
   -3.2389    2.7172    0.2455 N   0  0  0  0  0  0  0  0  0  0  0  0
   -3.9318    3.3733   -0.8531 C   0  0  0  0  0  0  0  0  0  0  0  0
   -3.5690    3.1387    1.5994 C   0  0  0  0  0  0  0  0  0  0  0  0
   -4.1175    2.6473   -1.6723 H   0  0  0  0  0  0  0  0  0  0  0  0
   -4.9062    3.7565   -0.4969 H   0  0  0  0  0  0  0  0  0  0  0  0
   -3.3440    4.2223   -1.2693 H   0  0  0  0  0  0  0  0  0  0  0  0
   -3.0862    2.4508    2.3175 H   0  0  0  0  0  0  0  0  0  0  0  0
   -3.2064    4.1719    1.7980 H   0  0  0  0  0  0  0  0  0  0  0  0
   -4.6687    3.1161    1.7424 H   0  0  0  0  0  0  0  0  0  0  0  0
  1  4  1  0  0  0  0
  1  2  1  0  0  0  0
  2  5  1  0  0  0  0
  2  3  1  1  0  0  0
  5  7  1  0  0  0  0
  6  9  1  0  0  0  0
  6  5  1  0  0  0  0
  7 13  1  0  0  0  0
  7 12  1  0  0  0  0
  7 11  1  0  0  0  0
  8  6  1  0  0  0  0
 10  6  1  0  0  0  0
M  END
