1,2,3,4,23
 OpenBabel05122313063D

 42 43  0  0  1  0  0  0  0  0999 V2000
   -1.2733   -1.3325    0.0662 O   0  5  0  0  0  0  0  0  0  0  0  0
    1.2518   -1.3358    0.1272 O   0  5  0  0  0  0  0  0  0  0  0  0
   -1.2551    1.2899   -0.7005 N   0  0  0  0  0  2  0  0  0  0  0  0
    1.2799    1.3276   -0.4488 N   0  0  0  0  0  2  0  0  0  0  0  0
   -2.5671   -1.2405   -0.0089 C   0  0  0  0  0  0  0  0  0  0  0  0
   -3.3589   -2.3931    0.2999 C   0  0  0  0  0  0  0  0  0  0  0  0
   -4.7453   -2.3600    0.2246 C   0  0  0  0  0  0  0  0  0  0  0  0
   -5.4323   -1.1816   -0.1669 C   0  0  0  0  0  0  0  0  0  0  0  0
   -4.6965   -0.0472   -0.4809 C   0  0  0  0  0  0  0  0  0  0  0  0
   -3.2737   -0.0414   -0.4111 C   0  0  0  0  0  0  0  0  0  0  0  0
   -2.5592    1.1419   -0.7699 C   0  0  0  0  0  3  0  0  0  0  0  0
   -0.6469    2.5637   -1.1006 C   0  0  0  0  0  0  0  0  0  0  0  0
    0.6907    2.6674   -0.3652 C   0  0  1  0  0  0  0  0  0  0  0  0
    2.5851    1.1791   -0.5004 C   0  0  0  0  0  3  0  0  0  0  0  0
    3.2725   -0.0603   -0.3264 C   0  0  0  0  0  0  0  0  0  0  0  0
    4.6908   -0.0991   -0.4512 C   0  0  0  0  0  0  0  0  0  0  0  0
    5.4020   -1.2776   -0.2722 C   0  0  0  0  0  0  0  0  0  0  0  0
    4.6938   -2.4660    0.0437 C   0  0  0  0  0  0  0  0  0  0  0  0
    3.3114   -2.4660    0.1774 C   0  0  0  0  0  0  0  0  0  0  0  0
    2.5439   -1.2703   -0.0011 C   0  0  0  0  0  0  0  0  0  0  0  0
    0.5553    3.0472    1.1264 C   0  0  0  0  0  0  0  0  0  0  0  0
   -0.3515    2.0963    1.9244 C   0  0  0  0  0  0  0  0  0  0  0  0
   -0.0480    0.6201    1.7382 C   0  0  0  0  0  3  0  0  0  0  0  0
   -2.8174   -3.3016    0.6009 H   0  0  0  0  0  0  0  0  0  0  0  0
   -5.3205   -3.2658    0.4738 H   0  0  0  0  0  0  0  0  0  0  0  0
   -6.5303   -1.1702   -0.2228 H   0  0  0  0  0  0  0  0  0  0  0  0
   -5.2081    0.8779   -0.7936 H   0  0  0  0  0  0  0  0  0  0  0  0
   -3.1569    2.0026   -1.1333 H   0  0  0  0  0  0  0  0  0  0  0  0
   -1.3122    3.4235   -0.8708 H   0  0  0  0  0  0  0  0  0  0  0  0
   -0.4643    2.5572   -2.1980 H   0  0  0  0  0  0  0  0  0  0  0  0
    1.3465    3.4106   -0.8708 H   0  0  0  0  0  0  0  0  0  0  0  0
    3.1988    2.0855   -0.6797 H   0  0  0  0  0  0  0  0  0  0  0  0
    5.2191    0.8373   -0.6948 H   0  0  0  0  0  0  0  0  0  0  0  0
    6.4969   -1.2918   -0.3715 H   0  0  0  0  0  0  0  0  0  0  0  0
    5.2490   -3.4063    0.1888 H   0  0  0  0  0  0  0  0  0  0  0  0
    2.7544   -3.3814    0.4242 H   0  0  0  0  0  0  0  0  0  0  0  0
    0.1826    4.0911    1.2005 H   0  0  0  0  0  0  0  0  0  0  0  0
    1.5796    3.0433    1.5576 H   0  0  0  0  0  0  0  0  0  0  0  0
   -0.2484    2.3510    3.0053 H   0  0  0  0  0  0  0  0  0  0  0  0
   -1.4147    2.2958    1.6770 H   0  0  0  0  0  0  0  0  0  0  0  0
    0.9519    0.3363    2.1265 H   0  0  0  0  0  0  0  0  0  0  0  0
   -0.8197   -0.0334    2.1885 H   0  0  0  0  0  0  0  0  0  0  0  0
  4 13  1  0  0  0  0
  5  1  1  0  0  0  0
  5  6  1  0  0  0  0
  6 24  1  0  0  0  0
  7  6  2  0  0  0  0
  7 25  1  0  0  0  0
  8  7  1  0  0  0  0
  9 10  1  0  0  0  0
  9  8  2  0  0  0  0
 10  5  2  0  0  0  0
 11  3  1  0  0  0  0
 11 10  1  0  0  0  0
 12 29  1  0  0  0  0
 12  3  1  0  0  0  0
 12 13  1  0  0  0  0
 13 31  1  6  0  0  0
 13 21  1  0  0  0  0
 14  4  1  0  0  0  0
 14 15  1  0  0  0  0
 15 20  1  0  0  0  0
 16 15  2  0  0  0  0
 16 17  1  0  0  0  0
 17 18  2  0  0  0  0
 18 19  1  0  0  0  0
 18 35  1  0  0  0  0
 19 36  1  0  0  0  0
 20  2  1  0  0  0  0
 20 19  2  0  0  0  0
 21 37  1  0  0  0  0
 21 38  1  0  0  0  0
 21 22  1  0  0  0  0
 22 39  1  0  0  0  0
 23 22  1  0  0  0  0
 23 41  1  0  0  0  0
 23 42  1  0  0  0  0
 26  8  1  0  0  0  0
 27  9  1  0  0  0  0
 28 11  1  0  0  0  0
 30 12  1  0  0  0  0
 32 14  1  0  0  0  0
 33 16  1  0  0  0  0
 34 17  1  0  0  0  0
 40 22  1  0  0  0  0
M  CHG  2   1  -1   2  -1
M  END
