1,2,4,5
q = -1.0

 39 40  0  0  0  0  0  0  0  0999 V2000
    2.0968    0.6990    1.5672 S   0  0  0  0  0  0  0  0  0  0  0  0
   -1.5261   -1.7933    0.6831 O   0  5  0  0  0  0  0  0  0  0  0  0
   -5.1528   -0.2172   -0.6923 O   0  0  0  0  0  0  0  0  0  0  0  0
    1.4914   -1.6195   -0.4208 N   0  0  0  0  0  2  0  0  0  0  0  0
   -0.6616    0.8676    0.1957 N   0  0  0  0  0  2  0  0  0  0  0  0
   -1.8846    0.9882   -0.2102 N   0  0  0  0  0  2  0  0  0  0  0  0
    1.0101   -2.5189   -1.3090 C   0  0  0  0  0  3  0  0  0  0  0  0
   -0.0192   -2.8689   -1.1300 H   0  0  0  0  0  0  0  0  0  0  0  0
    1.7686   -2.9726   -2.3895 C   0  0  0  0  0  0  0  0  0  0  0  0
    1.3457   -3.7063   -3.0898 H   0  0  0  0  0  0  0  0  0  0  0  0
    3.0635   -2.4584   -2.5578 C   0  0  0  0  0  0  0  0  0  0  0  0
    3.6882   -2.7803   -3.4044 H   0  0  0  0  0  0  0  0  0  0  0  0
    3.5533   -1.5251   -1.6357 C   0  0  0  0  0  0  0  0  0  0  0  0
    4.5649   -1.1067   -1.7417 H   0  0  0  0  0  0  0  0  0  0  0  0
    2.7416   -1.1256   -0.5600 C   0  0  0  0  0  0  0  0  0  0  0  0
    3.2963   -0.1888    0.4936 C   0  0  0  0  0  0  0  0  0  0  0  0
    3.9652    0.5646    0.0337 H   0  0  0  0  0  0  0  0  0  0  0  0
    3.9146   -0.7691    1.2132 H   0  0  0  0  0  0  0  0  0  0  0  0
    1.4828    2.0194    0.5114 C   0  0  0  0  0  0  0  0  0  0  0  0
    2.3186    3.1336    0.3093 C   0  0  0  0  0  0  0  0  0  0  0  0
    3.3220    3.1433    0.7616 H   0  0  0  0  0  0  0  0  0  0  0  0
    1.8722    4.2241   -0.4450 C   0  0  0  0  0  0  0  0  0  0  0  0
    2.5327    5.0883   -0.6057 H   0  0  0  0  0  0  0  0  0  0  0  0
    0.5686    4.2096   -0.9751 C   0  0  0  0  0  0  0  0  0  0  0  0
    0.2049    5.0665   -1.5615 H   0  0  0  0  0  0  0  0  0  0  0  0
   -0.2746    3.1179   -0.7615 C   0  0  0  0  0  0  0  0  0  0  0  0
   -1.2948    3.0917   -1.1666 H   0  0  0  0  0  0  0  0  0  0  0  0
    0.1613    1.9987   -0.0153 C   0  0  0  0  0  0  0  0  0  0  0  0
   -2.8280    0.0282   -0.1701 C   0  0  0  0  0  0  0  0  0  0  0  0
   -2.6559   -1.3468    0.2771 C   0  0  0  0  0  0  0  0  0  0  0  0
   -3.7817   -2.3356    0.2781 C   0  0  0  0  0  0  0  0  0  0  0  0
   -3.3986   -3.3075    0.6401 H   0  0  0  0  0  0  0  0  0  0  0  0
   -4.2278   -2.4335   -0.7312 H   0  0  0  0  0  0  0  0  0  0  0  0
   -4.6238   -1.9796    0.9038 H   0  0  0  0  0  0  0  0  0  0  0  0
   -4.1671    0.5128   -0.6749 C   0  0  0  0  0  0  0  0  0  0  0  0
   -4.2503    1.9469   -1.1633 C   0  0  0  0  0  0  0  0  0  0  0  0
   -5.2910    2.1424   -1.4760 H   0  0  0  0  0  0  0  0  0  0  0  0
   -3.5640    2.1147   -2.0174 H   0  0  0  0  0  0  0  0  0  0  0  0
   -3.9491    2.6604   -0.3715 H   0  0  0  0  0  0  0  0  0  0  0  0
  3 35  2  0  0  0  0
  6 29  1  0  0  0  0
  6  5  1  0  0  0  0
  7  8  1  0  0  0  0
  7  4  1  0  0  0  0
  9  7  1  0  0  0  0
 10  9  1  0  0  0  0
 11  9  2  0  0  0  0
 11 13  1  0  0  0  0
 12 11  1  0  0  0  0
 13 15  2  0  0  0  0
 14 13  1  0  0  0  0
 15  4  1  0  0  0  0
 15 16  1  0  0  0  0
 16 18  1  0  0  0  0
 16  1  1  0  0  0  0
 17 16  1  0  0  0  0
 19  1  1  0  0  0  0
 20 19  1  0  0  0  0
 20 21  1  0  0  0  0
 22 20  2  0  0  0  0
 23 22  1  0  0  0  0
 24 26  2  0  0  0  0
 24 22  1  0  0  0  0
 25 24  1  0  0  0  0
 26 28  1  0  0  0  0
 27 26  1  0  0  0  0
 28  5  1  0  0  0  0
 28 19  2  0  0  0  0
 29 30  2  0  0  0  0
 30 31  1  0  0  0  0
 30  2  1  0  0  0  0
 31 32  1  0  0  0  0
 31 34  1  0  0  0  0
 33 31  1  0  0  0  0
 35 29  1  0  0  0  0
 36 35  1  0  0  0  0
 36 39  1  0  0  0  0
 37 36  1  0  0  0  0
 38 36  1  0  0  0  0
M  CHG  1   2  -1
M  END
