2,4,5,6
q = -2.0, confidence = 0.85

 51 53  0  0  1  0  0  0  0  0999 V2000
  -11.0631   -0.2417    0.1378 Cl  0  0  0  0  0  0  0  0  0  0  0  0
    3.6144    1.5108   -0.0351 S   0  0  0  0  0  1  0  0  0  0  0  0
    6.4153    2.5841   -0.1080 S   0  0  0  0  0  0  0  0  0  0  0  0
    1.0461    0.8232   -0.1139 O   0  5  0  0  0  0  0  0  0  0  0  0
    1.4116   -1.8566   -0.3717 N   0  0  0  0  0  2  0  0  0  0  0  0
    3.9399   -1.5390    0.0465 N   0  0  0  0  0  2  0  0  0  0  0  0
   -4.4147   -0.2025   -0.0508 N   0  0  0  0  0  2  0  0  0  0  0  0
   -5.1981    0.7953    0.0726 N   0  0  0  0  0  2  0  0  0  0  0  0
   -0.2187    0.5507   -0.0986 C   0  0  0  0  0  0  0  0  0  0  0  0
   -1.1505    1.6388    0.0301 C   0  0  0  0  0  0  0  0  0  0  0  0
   -0.7208    2.6480    0.1132 H   0  0  0  0  0  0  0  0  0  0  0  0
   -2.5134    1.4249    0.0516 C   0  0  0  0  0  0  0  0  0  0  0  0
   -3.2280    2.2545    0.1532 H   0  0  0  0  0  0  0  0  0  0  0  0
   -3.0521    0.1026   -0.0605 C   0  0  0  0  0  0  0  0  0  0  0  0
   -2.1662   -0.9742   -0.1938 C   0  0  0  0  0  3  0  0  0  0  0  0
   -2.5956   -1.9843   -0.2849 H   0  0  0  0  0  0  0  0  0  0  0  0
   -0.7658   -0.7851   -0.2139 C   0  0  0  0  0  0  0  0  0  0  0  0
    0.1032   -1.9106   -0.3793 C   0  0  0  0  0  0  0  0  0  0  0  0
   -0.3744   -2.8986   -0.5392 H   0  0  0  0  0  0  0  0  0  0  0  0
    2.2010   -3.0506   -0.6492 C   0  0  0  0  0  0  0  0  0  0  0  0
    1.6407   -3.9813   -0.4134 H   0  0  0  0  0  0  0  0  0  0  0  0
    2.4553   -3.0661   -1.7326 H   0  0  0  0  0  0  0  0  0  0  0  0
    3.4733   -2.9275    0.1682 C   0  0  0  0  0  0  0  0  0  0  0  0
    4.2283   -3.6549   -0.1919 H   0  0  0  0  0  0  0  0  0  0  0  0
    3.2604   -3.1641    1.2364 H   0  0  0  0  0  0  0  0  0  0  0  0
    5.2404   -1.2956    0.1891 C   0  0  1  0  0  3  0  0  0  0  0  0
    6.2775   -2.3972    0.3931 C   0  0  0  0  0  0  0  0  0  0  0  0
    5.9509   -3.1655    1.1222 H   0  0  0  0  0  0  0  0  0  0  0  0
    6.4406   -2.9262   -0.5746 H   0  0  0  0  0  0  0  0  0  0  0  0
    7.5427   -1.6493    0.8444 C   0  0  0  0  0  0  0  0  0  0  0  0
    7.5329   -1.5557    1.9500 H   0  0  0  0  0  0  0  0  0  0  0  0
    8.4769   -2.1739    0.5644 H   0  0  0  0  0  0  0  0  0  0  0  0
    7.4124   -0.2512    0.2159 C   0  0  0  0  0  0  0  0  0  0  0  0
    7.8701   -0.2185   -0.8003 H   0  0  0  0  0  0  0  0  0  0  0  0
    7.9224    0.5342    0.8121 H   0  0  0  0  0  0  0  0  0  0  0  0
    5.9112   -0.0407    0.1348 C   0  0  0  0  0  0  0  0  0  0  0  0
    5.3019    1.2117    0.0043 C   0  0  0  0  0  0  0  0  0  0  0  0
    5.3153    4.0241   -0.1804 C   0  0  0  0  0  0  0  0  0  0  0  0
    5.9874    4.8998   -0.2617 H   0  0  0  0  0  0  0  0  0  0  0  0
    4.7002    4.1038    0.7365 H   0  0  0  0  0  0  0  0  0  0  0  0
    4.6525    3.9719   -1.0654 H   0  0  0  0  0  0  0  0  0  0  0  0
   -6.5685    0.4731    0.0801 C   0  0  0  0  0  0  0  0  0  0  0  0
   -7.4644    1.5565    0.2162 C   0  0  0  0  0  0  0  0  0  0  0  0
   -7.0391    2.5669    0.3065 H   0  0  0  0  0  0  0  0  0  0  0  0
   -8.8470    1.3466    0.2350 C   0  0  0  0  0  0  0  0  0  0  0  0
   -9.5486    2.1858    0.3406 H   0  0  0  0  0  0  0  0  0  0  0  0
   -9.3406    0.0362    0.1162 C   0  0  0  0  0  0  0  0  0  0  0  0
   -8.4642   -1.0595   -0.0206 C   0  0  0  0  0  0  0  0  0  0  0  0
   -8.8791   -2.0738   -0.1116 H   0  0  0  0  0  0  0  0  0  0  0  0
   -7.0870   -0.8400   -0.0382 C   0  0  0  0  0  0  0  0  0  0  0  0
   -6.3725   -1.6686   -0.1432 H   0  0  0  0  0  0  0  0  0  0  0  0
  2 37  1  0  0  0  0
  3 37  1  0  0  0  0
  4  9  1  0  0  0  0
  6 23  1  0  0  0  0
  7  8  1  0  0  0  0
  8 42  1  0  0  0  0
  9 10  2  0  0  0  0
 10 12  1  0  0  0  0
 10 11  1  0  0  0  0
 12 13  1  0  0  0  0
 14  7  1  0  0  0  0
 14 12  2  0  0  0  0
 15 14  1  0  0  0  0
 16 15  1  0  0  0  0
 17 15  1  0  0  0  0
 17  9  1  0  0  0  0
 18  5  1  0  0  0  0
 18 17  2  0  0  0  0
 19 18  1  0  0  0  0
 20 21  1  0  0  0  0
 20  5  1  0  0  0  0
 20 23  1  0  0  0  0
 22 20  1  0  0  0  0
 23 25  1  0  0  0  0
 24 23  1  0  0  0  0
 26  6  1  6  0  0  0
 26 27  1  0  0  0  0
 27 30  1  0  0  0  0
 27 28  1  0  0  0  0
 29 27  1  0  0  0  0
 30 31  1  0  0  0  0
 32 30  1  0  0  0  0
 33 35  1  0  0  0  0
 33 30  1  0  0  0  0
 34 33  1  0  0  0  0
 36 26  1  0  0  0  0
 36 33  1  0  0  0  0
 37 36  2  0  0  0  0
 38  3  1  0  0  0  0
 38 40  1  0  0  0  0
 39 38  1  0  0  0  0
 41 38  1  0  0  0  0
 42 43  1  0  0  0  0
 43 45  2  0  0  0  0
 43 44  1  0  0  0  0
 45 46  1  0  0  0  0
 47  1  1  0  0  0  0
 47 45  1  0  0  0  0
 48 47  2  0  0  0  0
 49 48  1  0  0  0  0
 50 48  1  0  0  0  0
 50 42  2  0  0  0  0
 51 50  1  0  0  0  0
M  CHG  1   4  -1
M  END
