1,2,8,9
q = -2.0, confidence = 0.78

 64 66  0  0  0  0  0  0  0  0999 V2000
    2.5276    1.7473   -0.5346 S   0  0  2  0  0  3  0  0  0  0  0  0
   -0.0690   -1.5170    0.0300 O   0  5  0  0  0  0  0  0  0  0  0  0
   -0.9094    3.3315    0.8237 C   0  0  0  0  0  0  0  0  0  0  0  0
   -1.9201    2.9874    1.0727 H   0  0  0  0  0  0  0  0  0  0  0  0
   -3.9047    0.1832   -0.1249 C   0  0  0  0  0  0  0  0  0  0  0  0
    5.1172   -2.1257    0.4550 C   0  0  0  0  0  0  0  0  0  0  0  0
    6.1358   -1.8525    0.7669 H   0  0  0  0  0  0  0  0  0  0  0  0
   -0.2495    1.1255   -0.1514 N   0  0  0  0  0  2  0  0  0  0  0  0
    2.9145   -1.4095   -0.1684 N   0  0  0  0  0  2  0  0  0  0  0  0
   -1.3174   -1.0009    0.0455 C   0  0  0  0  0  0  0  0  0  0  0  0
    0.7565    5.1443    0.8176 C   0  0  0  0  0  0  0  0  0  0  0  0
    1.0139    6.1936    1.0176 H   0  0  0  0  0  0  0  0  0  0  0  0
   -2.4704   -1.8227    0.1712 C   0  0  0  0  0  0  0  0  0  0  0  0
    2.5582   -2.7132   -0.3109 C   0  0  0  0  0  3  0  0  0  0  0  0
    1.5014   -2.8807   -0.5708 H   0  0  0  0  0  0  0  0  0  0  0  0
   -1.4703    0.4147   -0.0882 C   0  0  0  0  0  0  0  0  0  0  0  0
   -3.7328   -1.1965    0.0904 C   0  0  0  0  0  0  0  0  0  0  0  0
   -4.6232   -1.8277    0.1806 H   0  0  0  0  0  0  0  0  0  0  0  0
   -1.6676   -3.9501   -0.9056 C   0  0  0  0  0  0  0  0  0  0  0  0
   -2.3057   -3.7887   -1.7980 H   0  0  0  0  0  0  0  0  0  0  0  0
   -1.5185   -5.0439   -0.7821 H   0  0  0  0  0  0  0  0  0  0  0  0
   -0.6867   -3.4774   -1.1001 H   0  0  0  0  0  0  0  0  0  0  0  0
    3.4468   -3.7659   -0.0967 C   0  0  0  0  0  0  0  0  0  0  0  0
    3.1005   -4.8003   -0.2292 H   0  0  0  0  0  0  0  0  0  0  0  0
   -2.3325   -3.3459    0.3538 C   0  0  0  0  0  0  0  0  0  0  0  0
   -5.2899    0.8416   -0.2688 C   0  0  0  0  0  0  0  0  0  0  0  0
    0.0137    2.4107    0.2300 C   0  0  0  0  0  0  0  0  0  0  0  0
    1.7082    4.2624    0.2983 C   0  0  0  0  0  0  0  0  0  0  0  0
    2.7351    4.5908    0.0750 H   0  0  0  0  0  0  0  0  0  0  0  0
    4.1877   -1.0970    0.2074 C   0  0  0  0  0  0  0  0  0  0  0  0
   -0.5367    4.6469    1.0983 C   0  0  0  0  0  0  0  0  0  0  0  0
   -1.2851    5.3174    1.5494 H   0  0  0  0  0  0  0  0  0  0  0  0
   -1.4731   -3.6461    1.6041 C   0  0  0  0  0  0  0  0  0  0  0  0
   -0.4773   -3.1720    1.5220 H   0  0  0  0  0  0  0  0  0  0  0  0
   -1.3399   -4.7418    1.7279 H   0  0  0  0  0  0  0  0  0  0  0  0
   -1.9674   -3.2563    2.5173 H   0  0  0  0  0  0  0  0  0  0  0  0
    4.7584   -3.4680    0.2986 C   0  0  0  0  0  0  0  0  0  0  0  0
    5.4902   -4.2673    0.4874 H   0  0  0  0  0  0  0  0  0  0  0  0
    4.6769    0.3385    0.2984 C   0  0  0  0  0  0  0  0  0  0  0  0
    5.5905    0.3389    0.9251 H   0  0  0  0  0  0  0  0  0  0  0  0
    5.0084    0.6592   -0.7164 H   0  0  0  0  0  0  0  0  0  0  0  0
    1.3469    2.9282    0.0663 C   0  0  0  0  0  0  0  0  0  0  0  0
   -2.7482    0.9816   -0.2236 C   0  0  0  0  0  0  0  0  0  0  0  0
   -2.8399    2.0533   -0.4408 H   0  0  0  0  0  0  0  0  0  0  0  0
    3.7328    1.4295    0.8136 C   0  0  0  0  0  0  0  0  0  0  0  0
    4.2838    2.3766    0.9823 H   0  0  0  0  0  0  0  0  0  0  0  0
    3.1581    1.1508    1.7190 H   0  0  0  0  0  0  0  0  0  0  0  0
   -3.6951   -4.0360    0.5436 C   0  0  0  0  0  0  0  0  0  0  0  0
   -4.2329   -3.6513    1.4338 H   0  0  0  0  0  0  0  0  0  0  0  0
   -3.5411   -5.1247    0.6892 H   0  0  0  0  0  0  0  0  0  0  0  0
   -4.3541   -3.9093   -0.3390 H   0  0  0  0  0  0  0  0  0  0  0  0
   -5.4188    1.4585   -1.6802 C   0  0  0  0  0  0  0  0  0  0  0  0
   -5.3163    0.6777   -2.4608 H   0  0  0  0  0  0  0  0  0  0  0  0
   -4.6368    2.2217   -1.8658 H   0  0  0  0  0  0  0  0  0  0  0  0
   -6.4070    1.9489   -1.8073 H   0  0  0  0  0  0  0  0  0  0  0  0
    3.3394    2.2539   -1.7004 O   0  0  0  0  0  1  0  0  0  0  0  0
   -5.4479    1.9545    0.7922 C   0  0  0  0  0  0  0  0  0  0  0  0
   -6.4419    2.4418    0.7063 H   0  0  0  0  0  0  0  0  0  0  0  0
   -4.6786    2.7444    0.6763 H   0  0  0  0  0  0  0  0  0  0  0  0
   -5.3529    1.5394    1.8161 H   0  0  0  0  0  0  0  0  0  0  0  0
   -6.4345   -0.1686   -0.0770 C   0  0  0  0  0  0  0  0  0  0  0  0
   -6.4038   -0.6379    0.9270 H   0  0  0  0  0  0  0  0  0  0  0  0
   -6.4008   -0.9768   -0.8351 H   0  0  0  0  0  0  0  0  0  0  0  0
   -7.4122    0.3447   -0.1790 H   0  0  0  0  0  0  0  0  0  0  0  0
  1 56  1  6  0  0  0
  1 42  1  0  0  0  0
  1 45  1  0  0  0  0
  2 10  1  0  0  0  0
  3  4  1  0  0  0  0
  3 31  1  0  0  0  0
  5 17  1  0  0  0  0
  6  7  1  0  0  0  0
  8 16  1  0  0  0  0
  8 27  1  0  0  0  0
  9 30  1  0  0  0  0
 10 13  1  0  0  0  0
 11 12  1  0  0  0  0
 11 31  2  0  0  0  0
 13 25  1  0  0  0  0
 14  9  1  0  0  0  0
 14 23  1  0  0  0  0
 15 14  1  0  0  0  0
 16 10  2  0  0  0  0
 17 13  2  0  0  0  0
 17 18  1  0  0  0  0
 19 21  1  0  0  0  0
 19 25  1  0  0  0  0
 20 19  1  0  0  0  0
 22 19  1  0  0  0  0
 23 37  2  0  0  0  0
 24 23  1  0  0  0  0
 25 48  1  0  0  0  0
 25 33  1  0  0  0  0
 26  5  1  0  0  0  0
 26 61  1  0  0  0  0
 26 57  1  0  0  0  0
 27  3  2  0  0  0  0
 28 11  1  0  0  0  0
 29 28  1  0  0  0  0
 30 39  1  0  0  0  0
 30  6  2  0  0  0  0
 31 32  1  0  0  0  0
 33 35  1  0  0  0  0
 33 36  1  0  0  0  0
 34 33  1  0  0  0  0
 37  6  1  0  0  0  0
 37 38  1  0  0  0  0
 39 45  1  0  0  0  0
 39 40  1  0  0  0  0
 41 39  1  0  0  0  0
 42 27  1  0  0  0  0
 42 28  2  0  0  0  0
 43  5  2  0  0  0  0
 43 16  1  0  0  0  0
 44 43  1  0  0  0  0
 45 46  1  0  0  0  0
 45 47  1  0  0  0  0
 48 50  1  0  0  0  0
 48 49  1  0  0  0  0
 51 48  1  0  0  0  0
 52 26  1  0  0  0  0
 53 52  1  0  0  0  0
 54 52  1  0  0  0  0
 55 52  1  0  0  0  0
 57 60  1  0  0  0  0
 58 57  1  0  0  0  0
 59 57  1  0  0  0  0
 61 62  1  0  0  0  0
 63 61  1  0  0  0  0
 64 61  1  0  0  0  0
M  CHG  1   2  -1
M  END
