1,3,4,5
q = -1.0

 27 26  0  0  1  0  0  0  0  0999 V2000
   -1.4884   -1.9803   -0.4398 S   0  0  0  0  0  1  0  0  0  0  0  0
   -3.6813    1.2367   -0.9566 O   0  0  0  0  0  0  0  0  0  0  0  0
    1.3524   -1.5238   -0.1632 O   0  5  0  0  0  0  0  0  0  0  0  0
   -1.5941    0.8376   -0.0819 N   0  0  0  0  0  2  0  0  0  0  0  0
    0.9185    1.2857    0.0458 N   0  0  0  0  0  2  0  0  0  0  0  0
   -3.0776   -1.0665   -0.4885 C   0  0  0  0  0  0  0  0  0  0  0  0
   -2.8471    0.4376   -0.5452 C   0  0  0  0  0  0  0  0  0  0  0  0
   -1.2811    2.2560   -0.2899 C   0  0  0  0  0  0  0  0  0  0  0  0
    0.1203    2.5060    0.2497 C   0  0  0  0  0  0  0  0  0  0  0  0
    2.2267    1.3350   -0.2240 C   0  0  1  0  0  3  0  0  0  0  0  0
    3.0160    0.1773   -0.4478 C   0  0  0  0  0  0  0  0  0  0  0  0
    2.5625   -1.1472   -0.4377 C   0  0  0  0  0  0  0  0  0  0  0  0
    3.4931   -2.2826   -0.7731 C   0  0  0  0  0  0  0  0  0  0  0  0
    2.9222    2.6738   -0.3162 C   0  0  0  0  0  0  0  0  0  0  0  0
    4.0746    0.3408   -0.6855 H   0  0  0  0  0  0  0  0  0  0  0  0
   -3.6686   -1.3047    0.4213 H   0  0  0  0  0  0  0  0  0  0  0  0
   -3.6795   -1.3651   -1.3686 H   0  0  0  0  0  0  0  0  0  0  0  0
   -2.0323    2.9007    0.2120 H   0  0  0  0  0  0  0  0  0  0  0  0
   -1.3426    2.4939   -1.3753 H   0  0  0  0  0  0  0  0  0  0  0  0
    0.5660    3.3911   -0.2453 H   0  0  0  0  0  0  0  0  0  0  0  0
    0.0871    2.7168    1.3426 H   0  0  0  0  0  0  0  0  0  0  0  0
    3.1075   -2.8196   -1.6639 H   0  0  0  0  0  0  0  0  0  0  0  0
    4.5258   -1.9423   -0.9688 H   0  0  0  0  0  0  0  0  0  0  0  0
    3.4935   -3.0145    0.0600 H   0  0  0  0  0  0  0  0  0  0  0  0
    4.0031    2.5429   -0.4984 H   0  0  0  0  0  0  0  0  0  0  0  0
    2.5055    3.2862   -1.1427 H   0  0  0  0  0  0  0  0  0  0  0  0
    2.7916    3.2563    0.6184 H   0  0  0  0  0  0  0  0  0  0  0  0
  2  7  2  0  0  0  0
  5  9  1  0  0  0  0
  6  1  1  0  0  0  0
  6 16  1  0  0  0  0
  7  6  1  0  0  0  0
  7  4  1  0  0  0  0
  8  4  1  0  0  0  0
  8 18  1  0  0  0  0
  8  9  1  0  0  0  0
  9 21  1  0  0  0  0
 10 11  1  6  0  0  0
 10  5  1  0  0  0  0
 11 12  2  0  0  0  0
 12  3  1  0  0  0  0
 13 12  1  0  0  0  0
 13 24  1  0  0  0  0
 14 10  1  0  0  0  0
 14 27  1  0  0  0  0
 15 11  1  0  0  0  0
 17  6  1  0  0  0  0
 19  8  1  0  0  0  0
 20  9  1  0  0  0  0
 22 13  1  0  0  0  0
 23 13  1  0  0  0  0
 25 14  1  0  0  0  0
 26 14  1  0  0  0  0
M  CHG  1   3  -1
M  END
