1,2,3,6
q = -1.0

 49 51  0  0  1  0  0  0  0  0999 V2000
   -1.0509    0.7429   -0.4243 O   0  0  0  0  0  1  0  0  0  0  0  0
   -3.5619    1.1925   -0.1374 N   0  0  0  0  0  2  0  0  0  0  0  0
   -4.3097   -1.6298   -0.4173 S   0  0  0  0  0  0  0  0  0  0  0  0
   -3.3135    2.2245   -0.9770 C   0  0  0  0  0  3  0  0  0  0  0  0
   -2.5253    2.0589   -1.7243 H   0  0  0  0  0  0  0  0  0  0  0  0
   -1.4689   -1.9580   -0.3054 N   0  0  0  0  0  2  0  0  0  0  0  0
   -3.9941    3.4396   -0.8755 C   0  0  0  0  0  0  0  0  0  0  0  0
   -3.7659    4.2498   -1.5820 H   0  0  0  0  0  0  0  0  0  0  0  0
   -4.9525    3.5949    0.1349 C   0  0  0  0  0  0  0  0  0  0  0  0
   -5.5023    4.5409    0.2484 H   0  0  0  0  0  0  0  0  0  0  0  0
    4.3950   -0.3483    0.0111 N   0  0  0  0  0  2  0  0  0  0  0  0
    5.1679    0.6585    0.0170 N   0  0  0  0  0  2  0  0  0  0  0  0
   -5.1982    2.5239    1.0045 C   0  0  0  0  0  0  0  0  0  0  0  0
   -5.9348    2.6126    1.8157 H   0  0  0  0  0  0  0  0  0  0  0  0
   -4.4896    1.3225    0.8498 C   0  0  0  0  0  0  0  0  0  0  0  0
   -4.7372    0.1238    1.7305 C   0  0  0  0  0  0  0  0  0  0  0  0
   -5.4125    0.4114    2.5610 H   0  0  0  0  0  0  0  0  0  0  0  0
   -3.7822   -0.2116    2.1890 H   0  0  0  0  0  0  0  0  0  0  0  0
   -5.3815   -1.0344    0.9620 C   0  0  0  0  0  0  0  0  0  0  0  0
   -6.3359   -0.7300    0.4896 H   0  0  0  0  0  0  0  0  0  0  0  0
   -5.5829   -1.9069    1.6141 H   0  0  0  0  0  0  0  0  0  0  0  0
   -3.5184   -3.1345    0.2824 C   0  0  0  0  0  0  0  0  0  0  0  0
   -3.3787   -2.9878    1.3720 H   0  0  0  0  0  0  0  0  0  0  0  0
   -4.1716   -4.0098    0.0977 H   0  0  0  0  0  0  0  0  0  0  0  0
   -2.1863   -3.2353   -0.4400 C   0  0  0  0  0  0  0  0  0  0  0  0
   -1.5868   -4.0727   -0.0241 H   0  0  0  0  0  0  0  0  0  0  0  0
   -2.3555   -3.4578   -1.5177 H   0  0  0  0  0  0  0  0  0  0  0  0
   -0.1507   -1.9981   -0.2602 C   0  0  0  0  0  0  0  0  0  0  0  0
    0.3208   -3.0002   -0.2417 H   0  0  0  0  0  0  0  0  0  0  0  0
    0.7316   -0.8836   -0.2287 C   0  0  0  0  0  0  0  0  0  0  0  0
    2.1334   -1.0991   -0.1241 C   0  0  0  0  0  0  0  0  0  0  0  0
    2.5420   -2.1193   -0.0623 H   0  0  0  0  0  0  0  0  0  0  0  0
    3.0278   -0.0308   -0.0973 C   0  0  0  0  0  0  0  0  0  0  0  0
    2.5143    1.3024   -0.1750 C   0  0  0  0  0  0  0  0  0  0  0  0
    3.2456    2.1239   -0.1507 H   0  0  0  0  0  0  0  0  0  0  0  0
    1.1562    1.5416   -0.2726 C   0  0  0  0  0  0  0  0  0  0  0  0
    0.7540    2.5634   -0.3309 H   0  0  0  0  0  0  0  0  0  0  0  0
    0.2206    0.4611   -0.3090 C   0  0  1  0  0  3  0  0  0  0  0  0
    6.5416    0.3719    0.1307 C   0  0  0  0  0  0  0  0  0  0  0  0
    7.0794   -0.9341    0.2410 C   0  0  0  0  0  0  0  0  0  0  0  0
    6.3861   -1.7865    0.2380 H   0  0  0  0  0  0  0  0  0  0  0  0
    8.4607   -1.1028    0.3489 C   0  0  0  0  0  0  0  0  0  0  0  0
    8.8852   -2.1147    0.4347 H   0  0  0  0  0  0  0  0  0  0  0  0
    9.3171    0.0172    0.3485 C   0  0  0  0  0  0  0  0  0  0  0  0
   10.4050   -0.1257    0.4340 H   0  0  0  0  0  0  0  0  0  0  0  0
    8.7870    1.3134    0.2395 C   0  0  0  0  0  0  0  0  0  0  0  0
    9.4571    2.1858    0.2393 H   0  0  0  0  0  0  0  0  0  0  0  0
    7.4028    1.4918    0.1309 C   0  0  0  0  0  0  0  0  0  0  0  0
    6.9506    2.4907    0.0437 H   0  0  0  0  0  0  0  0  0  0  0  0
  2 15  1  0  0  0  0
  3 22  1  0  0  0  0
  3 19  1  0  0  0  0
  4  7  1  0  0  0  0
  4  2  1  0  0  0  0
  5  4  1  0  0  0  0
  6 28  1  0  0  0  0
  7  9  2  0  0  0  0
  8  7  1  0  0  0  0
  9 10  1  0  0  0  0
  9 13  1  0  0  0  0
 11 12  1  0  0  0  0
 12 39  1  0  0  0  0
 13 14  1  0  0  0  0
 15 13  2  0  0  0  0
 15 16  1  0  0  0  0
 16 18  1  0  0  0  0
 16 17  1  0  0  0  0
 19 21  1  0  0  0  0
 19 16  1  0  0  0  0
 20 19  1  0  0  0  0
 22 23  1  0  0  0  0
 24 22  1  0  0  0  0
 25  6  1  0  0  0  0
 25 26  1  0  0  0  0
 25 22  1  0  0  0  0
 27 25  1  0  0  0  0
 28 29  1  0  0  0  0
 28 30  2  0  0  0  0
 30 31  1  0  0  0  0
 31 33  2  0  0  0  0
 31 32  1  0  0  0  0
 33 11  1  0  0  0  0
 34 35  1  0  0  0  0
 34 33  1  0  0  0  0
 36 34  2  0  0  0  0
 37 36  1  0  0  0  0
 38  1  1  6  0  0  0
 38 36  1  0  0  0  0
 38 30  1  0  0  0  0
 39 48  2  0  0  0  0
 39 40  1  0  0  0  0
 40 42  2  0  0  0  0
 41 40  1  0  0  0  0
 42 43  1  0  0  0  0
 44 42  1  0  0  0  0
 44 45  1  0  0  0  0
 46 44  2  0  0  0  0
 47 46  1  0  0  0  0
 48 46  1  0  0  0  0
 49 48  1  0  0  0  0
M  END
