1,2,3,4
 OpenBabel05122313063D

 53 56  0  0  0  0  0  0  0  0999 V2000
    1.3467   -0.1957   -0.0077 P   0  0  0  0  0  0  0  0  0  0  0  0
   -0.4741    2.3674    0.0349 N   0  0  0  0  0  2  0  0  0  0  0  0
   -2.7563    0.9562   -0.0080 N   0  0  0  0  0  2  0  0  0  0  0  0
   -1.5913   -1.4310   -0.1020 O   0  5  0  0  0  0  0  0  0  0  0  0
    2.4651    1.2350   -0.2412 C   0  0  0  0  0  0  0  0  0  0  0  0
    3.8288    0.9790   -0.4934 C   0  0  0  0  0  0  0  0  0  0  0  0
    4.1649   -0.0647   -0.5904 H   0  0  0  0  0  0  0  0  0  0  0  0
    4.7599    2.0157   -0.6305 C   0  0  0  0  0  0  0  0  0  0  0  0
    5.8173    1.7839   -0.8261 H   0  0  0  0  0  0  0  0  0  0  0  0
    4.3287    3.3494   -0.5180 C   0  0  0  0  0  0  0  0  0  0  0  0
    5.0464    4.1770   -0.6191 H   0  0  0  0  0  0  0  0  0  0  0  0
    2.9804    3.6227   -0.2924 C   0  0  0  0  0  0  0  0  0  0  0  0
    2.6427    4.6688   -0.2262 H   0  0  0  0  0  0  0  0  0  0  0  0
    2.0085    2.5905   -0.1607 C   0  0  0  0  0  0  0  0  0  0  0  0
    0.6414    3.0581    0.0028 C   0  0  0  0  0  3  0  0  0  0  0  0
    0.5360    4.1573    0.0727 H   0  0  0  0  0  0  0  0  0  0  0  0
   -1.7394    3.1393    0.1598 C   0  0  0  0  0  0  0  0  0  0  0  0
   -1.7856    3.9137   -0.6353 H   0  0  0  0  0  0  0  0  0  0  0  0
   -1.7478    3.6734    1.1347 H   0  0  0  0  0  0  0  0  0  0  0  0
   -3.0287    2.2897    0.0836 C   0  0  0  0  0  0  0  0  0  0  0  0
   -4.1297    2.8395    0.1237 O   0  0  0  0  0  0  0  0  0  0  0  0
   -3.6272   -0.1392   -0.0391 C   0  0  0  0  0  0  0  0  0  0  0  0
   -5.0353   -0.0931   -0.0211 C   0  0  0  0  0  0  0  0  0  0  0  0
   -5.5267    0.8875    0.0179 H   0  0  0  0  0  0  0  0  0  0  0  0
   -5.7609   -1.2934   -0.0522 C   0  0  0  0  0  0  0  0  0  0  0  0
   -6.8608   -1.2607   -0.0390 H   0  0  0  0  0  0  0  0  0  0  0  0
   -5.0948   -2.5336   -0.1002 C   0  0  0  0  0  0  0  0  0  0  0  0
   -5.6756   -3.4685   -0.1254 H   0  0  0  0  0  0  0  0  0  0  0  0
   -3.6944   -2.5912   -0.1173 C   0  0  0  0  0  0  0  0  0  0  0  0
   -3.1542   -3.5486   -0.1561 H   0  0  0  0  0  0  0  0  0  0  0  0
   -2.9442   -1.3988   -0.0858 C   0  0  0  0  0  0  0  0  0  0  0  0
    1.8243   -0.9878    1.5797 C   0  0  0  0  0  0  0  0  0  0  0  0
    0.9826   -2.0327    2.0230 C   0  0  0  0  0  0  0  0  0  0  0  0
    0.0951   -2.3078    1.4278 H   0  0  0  0  0  0  0  0  0  0  0  0
    1.2720   -2.6946    3.2233 C   0  0  0  0  0  0  0  0  0  0  0  0
    0.6163   -3.5091    3.5665 H   0  0  0  0  0  0  0  0  0  0  0  0
    2.3840   -2.3114    3.9933 C   0  0  0  0  0  0  0  0  0  0  0  0
    2.6029   -2.8287    4.9398 H   0  0  0  0  0  0  0  0  0  0  0  0
    3.2079   -1.2612    3.5613 C   0  0  0  0  0  0  0  0  0  0  0  0
    4.0723   -0.9513    4.1681 H   0  0  0  0  0  0  0  0  0  0  0  0
    2.9320   -0.5973    2.3544 C   0  0  0  0  0  0  0  0  0  0  0  0
    3.5773    0.2295    2.0228 H   0  0  0  0  0  0  0  0  0  0  0  0
    1.8563   -1.4097   -1.2871 C   0  0  0  0  0  0  0  0  0  0  0  0
    2.7860   -2.4353   -1.0242 C   0  0  0  0  0  0  0  0  0  0  0  0
    3.2106   -2.5476   -0.0149 H   0  0  0  0  0  0  0  0  0  0  0  0
    3.1539   -3.3238   -2.0466 C   0  0  0  0  0  0  0  0  0  0  0  0
    3.8774   -4.1265   -1.8376 H   0  0  0  0  0  0  0  0  0  0  0  0
    2.5939   -3.1956   -3.3274 C   0  0  0  0  0  0  0  0  0  0  0  0
    2.8798   -3.8976   -4.1254 H   0  0  0  0  0  0  0  0  0  0  0  0
    1.6579   -2.1807   -3.5872 C   0  0  0  0  0  0  0  0  0  0  0  0
    1.2054   -2.0886   -4.5860 H   0  0  0  0  0  0  0  0  0  0  0  0
    1.2847   -1.2914   -2.5704 C   0  0  0  0  0  0  0  0  0  0  0  0
    0.5336   -0.5080   -2.7585 H   0  0  0  0  0  0  0  0  0  0  0  0
  1 32  1  0  0  0  0
  2 17  1  0  0  0  0
  3 20  1  0  0  0  0
  4 31  1  0  0  0  0
  5 14  1  0  0  0  0
  5  1  1  0  0  0  0
  6  5  2  0  0  0  0
  7  6  1  0  0  0  0
  8 10  2  0  0  0  0
  8  6  1  0  0  0  0
  9  8  1  0  0  0  0
 10 12  1  0  0  0  0
 11 10  1  0  0  0  0
 12 13  1  0  0  0  0
 12 14  2  0  0  0  0
 14 15  1  0  0  0  0
 15  2  1  0  0  0  0
 15 16  1  0  0  0  0
 17 19  1  0  0  0  0
 18 17  1  0  0  0  0
 20 21  2  0  0  0  0
 20 17  1  0  0  0  0
 22 23  1  0  0  0  0
 22  3  1  0  0  0  0
 23 24  1  0  0  0  0
 25 26  1  0  0  0  0
 25 23  2  0  0  0  0
 27 25  1  0  0  0  0
 28 27  1  0  0  0  0
 29 27  2  0  0  0  0
 29 31  1  0  0  0  0
 30 29  1  0  0  0  0
 31 22  2  0  0  0  0
 32 33  2  0  0  0  0
 32 41  1  0  0  0  0
 33 35  1  0  0  0  0
 34 33  1  0  0  0  0
 35 36  1  0  0  0  0
 35 37  2  0  0  0  0
 37 38  1  0  0  0  0
 39 37  1  0  0  0  0
 39 40  1  0  0  0  0
 41 39  2  0  0  0  0
 42 41  1  0  0  0  0
 43 44  1  0  0  0  0
 43  1  1  0  0  0  0
 44 45  1  0  0  0  0
 46 47  1  0  0  0  0
 46 44  2  0  0  0  0
 48 46  1  0  0  0  0
 49 48  1  0  0  0  0
 50 48  2  0  0  0  0
 50 52  1  0  0  0  0
 51 50  1  0  0  0  0
 52 43  2  0  0  0  0
 53 52  1  0  0  0  0
M  CHG  1   4  -1
M  END
