1,2,3
q = -2.0, confidence = 0.716

 26 26  0  0  0  0  0  0  0  0999 V2000
    3.4138    1.2740    0.3786 S   0  0  0  0  0  1  0  0  0  0  0  0
    0.7090   -0.5590    2.3872 S   0  0  0  0  0  1  0  0  0  0  0  0
    0.4171    1.8139    0.3596 P   0  0  0  0  0  0  0  0  0  0  0  0
    2.8470    2.6424   -0.7298 C   0  0  0  0  0  0  0  0  0  0  0  0
    1.4262    3.1594   -0.4442 C   0  0  0  0  0  0  0  0  0  0  0  0
    0.4406    2.2546    2.1620 C   0  0  0  0  0  0  0  0  0  0  0  0
    0.0808    1.0589    3.0369 C   0  0  0  0  0  0  0  0  0  0  0  0
   -1.3020    1.9936   -0.2462 C   0  0  0  0  0  0  0  0  0  0  0  0
   -2.4059    2.0668    0.6271 C   0  0  0  0  0  0  0  0  0  0  0  0
   -3.7117    2.1132    0.1155 C   0  0  0  0  0  0  0  0  0  0  0  0
   -3.9292    2.0912   -1.2698 C   0  0  0  0  0  0  0  0  0  0  0  0
   -2.8342    2.0092   -2.1460 C   0  0  0  0  0  0  0  0  0  0  0  0
   -1.5276    1.9526   -1.6412 C   0  0  0  0  0  0  0  0  0  0  0  0
    2.9118    2.2647   -1.7715 H   0  0  0  0  0  0  0  0  0  0  0  0
    3.5873    3.4615   -0.6284 H   0  0  0  0  0  0  0  0  0  0  0  0
    1.4281    4.0219    0.2543 H   0  0  0  0  0  0  0  0  0  0  0  0
    0.9111    3.4888   -1.3692 H   0  0  0  0  0  0  0  0  0  0  0  0
   -0.1929    3.1443    2.3671 H   0  0  0  0  0  0  0  0  0  0  0  0
    1.5029    2.5308    2.3198 H   0  0  0  0  0  0  0  0  0  0  0  0
    0.5015    1.1826    4.0559 H   0  0  0  0  0  0  0  0  0  0  0  0
   -1.0186    0.9515    3.1503 H   0  0  0  0  0  0  0  0  0  0  0  0
   -2.2546    2.0813    1.7159 H   0  0  0  0  0  0  0  0  0  0  0  0
   -4.5649    2.1590    0.8086 H   0  0  0  0  0  0  0  0  0  0  0  0
   -4.9545    2.1289   -1.6678 H   0  0  0  0  0  0  0  0  0  0  0  0
   -2.9983    1.9857   -3.2345 H   0  0  0  0  0  0  0  0  0  0  0  0
   -0.6704    1.8465   -2.3262 H   0  0  0  0  0  0  0  0  0  0  0  0
  2  7  1  0  0  0  0
  3  6  1  0  0  0  0
  4 15  1  0  0  0  0
  4  5  1  0  0  0  0
  4  1  1  0  0  0  0
  5 16  1  0  0  0  0
  5  3  1  0  0  0  0
  6 19  1  0  0  0  0
  6 18  1  0  0  0  0
  6  7  1  0  0  0  0
  7 21  1  0  0  0  0
  7 20  1  0  0  0  0
  8  3  1  0  0  0  0
  8  9  1  0  0  0  0
  9 22  1  0  0  0  0
 10  9  2  0  0  0  0
 10 23  1  0  0  0  0
 11 10  1  0  0  0  0
 12 13  1  0  0  0  0
 12 11  2  0  0  0  0
 13  8  2  0  0  0  0
 14  4  1  0  0  0  0
 17  5  1  0  0  0  0
 24 11  1  0  0  0  0
 25 12  1  0  0  0  0
 26 13  1  0  0  0  0
M  END
