1,2,3
q = -1.0, confidence = 0.014

 11 10  0  0  0  0  0  0  0  0999 V2000
    0.2235    2.6748   -1.8172 S   0  0  0  0  0  1  0  0  0  0  0  0
    0.2318    2.6612    1.6171 S   0  0  0  0  0  1  0  0  0  0  0  0
   -0.1458    3.7041   -0.0881 P   0  0  0  0  0  4  0  0  0  0  0  0
    0.8506    5.2468   -0.0855 C   0  0  0  0  0  0  0  0  0  0  0  0
    0.6046    5.8458    0.8138 H   0  0  0  0  0  0  0  0  0  0  0  0
    0.6480    5.8267   -1.0077 H   0  0  0  0  0  0  0  0  0  0  0  0
    1.9182    4.9588   -0.0513 H   0  0  0  0  0  0  0  0  0  0  0  0
   -1.8870    4.2843   -0.0780 C   0  0  0  0  0  0  0  0  0  0  0  0
   -2.5431    3.3941   -0.0573 H   0  0  0  0  0  0  0  0  0  0  0  0
   -2.0943    4.8731   -0.9934 H   0  0  0  0  0  0  0  0  0  0  0  0
   -2.0638    4.8943    0.8297 H   0  0  0  0  0  0  0  0  0  0  0  0
  1  3  1  0  0  0  0
  3  4  1  0  0  0  0
  3  8  1  0  0  0  0
  3  2  1  0  0  0  0
  4  7  1  0  0  0  0
  4  5  1  0  0  0  0
  6  4  1  0  0  0  0
  8  9  1  0  0  0  0
  8 11  1  0  0  0  0
 10  8  1  0  0  0  0
M  END
