1,2,3
q = 0.0, confidence = 1.0

 29 28  0  0  0  0  0  0  0  0999 V2000
   -1.3414    1.4755    1.1777 S   0  0  0  0  0  0  0  0  0  0  0  0
   -0.4870    0.7955   -2.0486 S   0  0  0  0  0  0  0  0  0  0  0  0
    1.8058    0.1778    0.2394 P   0  0  0  0  0  0  0  0  0  0  0  0
    1.6351    2.3171    1.7820 O   0  0  0  0  0  0  0  0  0  0  0  0
    1.8297    2.7799    2.6184 H   0  0  0  0  0  0  0  0  0  0  0  0
    4.3764   -0.4502    0.0392 O   0  0  0  0  0  0  0  0  0  0  0  0
    5.0853   -1.1130   -0.0631 H   0  0  0  0  0  0  0  0  0  0  0  0
   -3.1662    1.4941    1.0976 C   0  0  0  0  0  0  0  0  0  0  0  0
   -3.5250    2.4599    1.5016 H   0  0  0  0  0  0  0  0  0  0  0  0
   -3.5160    0.6735    1.7511 H   0  0  0  0  0  0  0  0  0  0  0  0
   -3.5429    1.3301    0.0712 H   0  0  0  0  0  0  0  0  0  0  0  0
   -0.9230    2.7886   -0.0385 C   0  0  0  0  0  0  0  0  0  0  0  0
   -1.5190    3.6837    0.2363 H   0  0  0  0  0  0  0  0  0  0  0  0
    0.1375    3.0070    0.1887 H   0  0  0  0  0  0  0  0  0  0  0  0
   -1.1690    2.4178   -1.4909 C   0  0  0  0  0  0  0  0  0  0  0  0
   -0.7611    3.1902   -2.1753 H   0  0  0  0  0  0  0  0  0  0  0  0
   -2.2517    2.3311   -1.7150 H   0  0  0  0  0  0  0  0  0  0  0  0
    1.3068    1.1412   -2.3616 C   0  0  0  0  0  0  0  0  0  0  0  0
    1.6225    0.2361   -2.9202 H   0  0  0  0  0  0  0  0  0  0  0  0
    1.3416    1.9901   -3.0740 H   0  0  0  0  0  0  0  0  0  0  0  0
    2.1728    1.3789   -1.1335 C   0  0  0  0  0  0  0  0  0  0  0  0
    2.0246    2.3923   -0.7106 H   0  0  0  0  0  0  0  0  0  0  0  0
    3.2510    1.2807   -1.3800 H   0  0  0  0  0  0  0  0  0  0  0  0
    2.3647    1.1075    1.7497 C   0  0  0  0  0  0  0  0  0  0  0  0
    2.1611    0.4429    2.6219 H   0  0  0  0  0  0  0  0  0  0  0  0
    3.4661    1.2519    1.6625 H   0  0  0  0  0  0  0  0  0  0  0  0
    3.1355   -1.1101    0.0894 C   0  0  0  0  0  0  0  0  0  0  0  0
    3.0150   -1.7926    0.9663 H   0  0  0  0  0  0  0  0  0  0  0  0
    2.9031   -1.7085   -0.8235 H   0  0  0  0  0  0  0  0  0  0  0  0
  2 15  1  0  0  0  0
  3 24  1  0  0  0  0
  4  5  1  0  0  0  0
  6 27  1  0  0  0  0
  7  6  1  0  0  0  0
  8  1  1  0  0  0  0
  8  9  1  0  0  0  0
  8 10  1  0  0  0  0
 11  8  1  0  0  0  0
 12 14  1  0  0  0  0
 12 13  1  0  0  0  0
 12  1  1  0  0  0  0
 15 12  1  0  0  0  0
 16 15  1  0  0  0  0
 17 15  1  0  0  0  0
 18  2  1  0  0  0  0
 18 21  1  0  0  0  0
 19 18  1  0  0  0  0
 20 18  1  0  0  0  0
 21 22  1  0  0  0  0
 21  3  1  0  0  0  0
 23 21  1  0  0  0  0
 24  4  1  0  0  0  0
 24 25  1  0  0  0  0
 26 24  1  0  0  0  0
 27  3  1  0  0  0  0
 27 28  1  0  0  0  0
 29 27  1  0  0  0  0
M  END
