1,2,25
q = -2.0, confidence = 0.932

 58 60  0  0  0  0  0  0  0  0999 V2000
    0.0060    1.0058    0.1082 P   0  0  0  0  0  0  0  0  0  0  0  0
   -2.3604   -0.9067   -0.6560 S   0  0  0  0  0  1  0  0  0  0  0  0
   -1.4600    1.0264    1.1745 C   0  0  0  0  0  0  0  0  0  0  0  0
   -2.5321    0.1966    0.7337 C   0  0  0  0  0  0  0  0  0  0  0  0
   -3.7869    0.2628    1.4112 C   0  0  0  0  0  0  0  0  0  0  0  0
   -3.8880    1.1331    2.5171 C   0  0  0  0  0  0  0  0  0  0  0  0
   -4.8429    1.1880    3.0622 H   0  0  0  0  0  0  0  0  0  0  0  0
   -2.8156    1.9205    2.9712 C   0  0  0  0  0  0  0  0  0  0  0  0
   -2.9314    2.5652    3.8545 H   0  0  0  0  0  0  0  0  0  0  0  0
   -1.5961    1.8737    2.2886 C   0  0  0  0  0  0  0  0  0  0  0  0
   -0.7467    2.4839    2.6276 H   0  0  0  0  0  0  0  0  0  0  0  0
   -5.3036   -0.8007    0.9145 Si  0  0  0  0  0  0  0  0  0  0  0  0
   -4.9096   -2.6367    1.1230 C   0  0  0  0  0  0  0  0  0  0  0  0
   -4.0573   -2.9436    0.4862 H   0  0  0  0  0  0  0  0  0  0  0  0
   -5.7936   -3.2484    0.8472 H   0  0  0  0  0  0  0  0  0  0  0  0
   -4.6512   -2.8615    2.1779 H   0  0  0  0  0  0  0  0  0  0  0  0
   -6.7328   -0.3489    2.0748 C   0  0  0  0  0  0  0  0  0  0  0  0
   -7.6281   -0.9416    1.7943 H   0  0  0  0  0  0  0  0  0  0  0  0
   -7.0090    0.7232    2.0043 H   0  0  0  0  0  0  0  0  0  0  0  0
   -6.5014   -0.5810    3.1346 H   0  0  0  0  0  0  0  0  0  0  0  0
   -5.8259   -0.3905   -0.8577 C   0  0  0  0  0  0  0  0  0  0  0  0
   -5.0160   -0.5998   -1.5839 H   0  0  0  0  0  0  0  0  0  0  0  0
   -6.1012    0.6806   -0.9462 H   0  0  0  0  0  0  0  0  0  0  0  0
   -6.7112   -0.9964   -1.1422 H   0  0  0  0  0  0  0  0  0  0  0  0
    2.3862   -1.0759   -0.4945 S   0  0  0  0  0  1  0  0  0  0  0  0
    1.6230    1.2667    0.8749 C   0  0  0  0  0  0  0  0  0  0  0  0
    2.6400    0.3116    0.5900 C   0  0  0  0  0  0  0  0  0  0  0  0
    3.9437    0.4959    1.1498 C   0  0  0  0  0  0  0  0  0  0  0  0
    4.1627    1.6440    1.9367 C   0  0  0  0  0  0  0  0  0  0  0  0
    5.1582    1.8007    2.3797 H   0  0  0  0  0  0  0  0  0  0  0  0
    3.1685    2.6106    2.1755 C   0  0  0  0  0  0  0  0  0  0  0  0
    3.3901    3.5029    2.7789 H   0  0  0  0  0  0  0  0  0  0  0  0
    1.8950    2.4231    1.6348 C   0  0  0  0  0  0  0  0  0  0  0  0
    1.1126    3.1823    1.7844 H   0  0  0  0  0  0  0  0  0  0  0  0
    5.3889   -0.7399    0.8910 Si  0  0  0  0  0  0  0  0  0  0  0  0
    4.9223   -2.4381    1.5764 C   0  0  0  0  0  0  0  0  0  0  0  0
    4.7044   -2.3735    2.6620 H   0  0  0  0  0  0  0  0  0  0  0  0
    5.7643   -3.1474    1.4361 H   0  0  0  0  0  0  0  0  0  0  0  0
    4.0291   -2.8510    1.0687 H   0  0  0  0  0  0  0  0  0  0  0  0
    6.8846   -0.0895    1.8573 C   0  0  0  0  0  0  0  0  0  0  0  0
    6.6802   -0.0118    2.9448 H   0  0  0  0  0  0  0  0  0  0  0  0
    7.2226    0.9024    1.4933 H   0  0  0  0  0  0  0  0  0  0  0  0
    7.7312   -0.7955    1.7289 H   0  0  0  0  0  0  0  0  0  0  0  0
    5.8599   -0.8273   -0.9393 C   0  0  0  0  0  0  0  0  0  0  0  0
    6.1660    0.1716   -1.3122 H   0  0  0  0  0  0  0  0  0  0  0  0
    5.0194   -1.1861   -1.5647 H   0  0  0  0  0  0  0  0  0  0  0  0
    6.7155   -1.5211   -1.0755 H   0  0  0  0  0  0  0  0  0  0  0  0
   -0.2127    2.2960   -1.1576 C   0  0  0  0  0  0  0  0  0  0  0  0
   -1.4878    2.8304   -1.4290 C   0  0  0  0  0  0  0  0  0  0  0  0
   -2.3603    2.4979   -0.8472 H   0  0  0  0  0  0  0  0  0  0  0  0
   -1.6317    3.7871   -2.4436 C   0  0  0  0  0  0  0  0  0  0  0  0
   -2.6251    4.2103   -2.6548 H   0  0  0  0  0  0  0  0  0  0  0  0
   -0.5155    4.2013   -3.1884 C   0  0  0  0  0  0  0  0  0  0  0  0
   -0.6348    4.9513   -3.9849 H   0  0  0  0  0  0  0  0  0  0  0  0
    0.7527    3.6583   -2.9220 C   0  0  0  0  0  0  0  0  0  0  0  0
    1.6266    3.9792   -3.5084 H   0  0  0  0  0  0  0  0  0  0  0  0
    0.9098    2.7034   -1.9090 C   0  0  0  0  0  0  0  0  0  0  0  0
    1.8998    2.2701   -1.6993 H   0  0  0  0  0  0  0  0  0  0  0  0
  1 26  1  0  0  0  0
  1  3  1  0  0  0  0
  2  4  1  0  0  0  0
  3 10  1  0  0  0  0
  4  3  2  0  0  0  0
  4  5  1  0  0  0  0
  5  6  2  0  0  0  0
  6  8  1  0  0  0  0
  6  7  1  0  0  0  0
  8  9  1  0  0  0  0
 10 11  1  0  0  0  0
 10  8  2  0  0  0  0
 12 13  1  0  0  0  0
 12  5  1  0  0  0  0
 12 17  1  0  0  0  0
 13 16  1  0  0  0  0
 14 13  1  0  0  0  0
 15 13  1  0  0  0  0
 17 20  1  0  0  0  0
 18 17  1  0  0  0  0
 19 17  1  0  0  0  0
 21 12  1  0  0  0  0
 22 21  1  0  0  0  0
 23 21  1  0  0  0  0
 24 21  1  0  0  0  0
 25 27  1  0  0  0  0
 26 33  1  0  0  0  0
 27 26  2  0  0  0  0
 27 28  1  0  0  0  0
 28 29  2  0  0  0  0
 29 31  1  0  0  0  0
 29 30  1  0  0  0  0
 31 32  1  0  0  0  0
 33 34  1  0  0  0  0
 33 31  2  0  0  0  0
 35 28  1  0  0  0  0
 35 36  1  0  0  0  0
 35 40  1  0  0  0  0
 36 37  1  0  0  0  0
 38 36  1  0  0  0  0
 39 36  1  0  0  0  0
 40 41  1  0  0  0  0
 42 40  1  0  0  0  0
 43 40  1  0  0  0  0
 44 35  1  0  0  0  0
 45 44  1  0  0  0  0
 46 44  1  0  0  0  0
 47 44  1  0  0  0  0
 48  1  1  0  0  0  0
 49 48  1  0  0  0  0
 49 50  1  0  0  0  0
 51 49  2  0  0  0  0
 52 51  1  0  0  0  0
 53 55  2  0  0  0  0
 53 51  1  0  0  0  0
 54 53  1  0  0  0  0
 55 57  1  0  0  0  0
 56 55  1  0  0  0  0
 57 58  1  0  0  0  0
 57 48  2  0  0  0  0
M  END
