1,8,15
q = 0.0, confidence = 1.0

 32 33  0  0  0  0  0  0  0  0999 V2000
    0.9155   -0.7525   -0.0832 P   0  0  0  0  0  0  0  0  0  0  0  0
    0.7744   -1.7364   -1.6768 C   0  0  0  0  0  0  0  0  0  0  0  0
    1.1191   -1.0433   -2.4718 H   0  0  0  0  0  0  0  0  0  0  0  0
    1.4617   -2.6093   -1.6729 H   0  0  0  0  0  0  0  0  0  0  0  0
   -0.6559   -2.1923   -1.9305 C   0  0  0  0  0  0  0  0  0  0  0  0
   -0.9303   -3.0399   -1.2708 H   0  0  0  0  0  0  0  0  0  0  0  0
   -0.7966   -2.5241   -2.9779 H   0  0  0  0  0  0  0  0  0  0  0  0
   -1.9201   -0.8291   -1.6360 S   0  0  0  0  0  0  0  0  0  0  0  0
   -3.1300   -1.7438   -0.5745 C   0  0  0  0  0  0  0  0  0  0  0  0
   -3.9678   -1.0251   -0.4731 H   0  0  0  0  0  0  0  0  0  0  0  0
   -3.5023   -2.6207   -1.1446 H   0  0  0  0  0  0  0  0  0  0  0  0
   -2.6023   -2.1762    0.7839 C   0  0  0  0  0  0  0  0  0  0  0  0
   -1.8608   -2.9938    0.6837 H   0  0  0  0  0  0  0  0  0  0  0  0
   -3.4353   -2.5557    1.4093 H   0  0  0  0  0  0  0  0  0  0  0  0
   -1.7951   -0.7823    1.7301 S   0  0  0  0  0  0  0  0  0  0  0  0
   -0.2655   -1.6522    2.3313 C   0  0  0  0  0  0  0  0  0  0  0  0
    0.1972   -0.8841    2.9831 H   0  0  0  0  0  0  0  0  0  0  0  0
   -0.5855   -2.4970    2.9755 H   0  0  0  0  0  0  0  0  0  0  0  0
    0.6945   -2.0958    1.2328 C   0  0  0  0  0  0  0  0  0  0  0  0
    0.3279   -3.0176    0.7343 H   0  0  0  0  0  0  0  0  0  0  0  0
    1.6820   -2.3438    1.6723 H   0  0  0  0  0  0  0  0  0  0  0  0
    2.7070   -0.3443   -0.0313 C   0  0  0  0  0  0  0  0  0  0  0  0
    3.0757    1.0151   -0.0032 C   0  0  0  0  0  0  0  0  0  0  0  0
    2.2877    1.7834    0.0022 H   0  0  0  0  0  0  0  0  0  0  0  0
    4.4321    1.3760    0.0195 C   0  0  0  0  0  0  0  0  0  0  0  0
    4.7114    2.4400    0.0427 H   0  0  0  0  0  0  0  0  0  0  0  0
    5.4256    0.3851    0.0155 C   0  0  0  0  0  0  0  0  0  0  0  0
    6.4886    0.6698    0.0349 H   0  0  0  0  0  0  0  0  0  0  0  0
    5.0640   -0.9726   -0.0127 C   0  0  0  0  0  0  0  0  0  0  0  0
    5.8417   -1.7515   -0.0174 H   0  0  0  0  0  0  0  0  0  0  0  0
    3.7102   -1.3369   -0.0371 C   0  0  0  0  0  0  0  0  0  0  0  0
    3.4383   -2.4047   -0.0629 H   0  0  0  0  0  0  0  0  0  0  0  0
  1 22  1  0  0  0  0
  1 19  1  0  0  0  0
  2  4  1  0  0  0  0
  2  1  1  0  0  0  0
  3  2  1  0  0  0  0
  5  2  1  0  0  0  0
  5  8  1  0  0  0  0
  5  6  1  0  0  0  0
  7  5  1  0  0  0  0
  8  9  1  0  0  0  0
  9 10  1  0  0  0  0
  9 12  1  0  0  0  0
 11  9  1  0  0  0  0
 12 14  1  0  0  0  0
 12 15  1  0  0  0  0
 13 12  1  0  0  0  0
 15 16  1  0  0  0  0
 16 18  1  0  0  0  0
 16 17  1  0  0  0  0
 19 21  1  0  0  0  0
 19 16  1  0  0  0  0
 20 19  1  0  0  0  0
 22 23  1  0  0  0  0
 23 24  1  0  0  0  0
 23 25  2  0  0  0  0
 25 26  1  0  0  0  0
 27 25  1  0  0  0  0
 27 28  1  0  0  0  0
 29 27  2  0  0  0  0
 30 29  1  0  0  0  0
 31 22  2  0  0  0  0
 31 29  1  0  0  0  0
 32 31  1  0  0  0  0
M  END
