1,4,5
 OpenBabel05122313063D

 35 37  0  0  0  0  0  0  0  0999 V2000
   -0.5263   -2.5831    0.3892 S   0  0  0  0  0  1  0  0  0  0  0  0
    0.5621    1.0452    2.4459 S   0  0  0  0  0  0  0  0  0  0  0  0
    0.6487    0.1896    1.2697 H   0  0  0  0  0  0  0  0  0  0  0  0
    1.1335    0.8895   -1.6754 S   0  0  0  0  0  1  0  0  0  0  0  0
   -1.4242    0.1722   -0.1871 P   0  0  0  0  0  0  0  0  0  0  0  0
   -2.1284   -2.4004   -0.3344 C   0  0  0  0  0  0  0  0  0  0  0  0
   -2.9891   -3.5041   -0.5482 C   0  0  0  0  0  0  0  0  0  0  0  0
   -2.6608   -4.5054   -0.2288 H   0  0  0  0  0  0  0  0  0  0  0  0
   -4.2195   -3.3319   -1.1978 C   0  0  0  0  0  0  0  0  0  0  0  0
   -4.8591   -4.2113   -1.3776 H   0  0  0  0  0  0  0  0  0  0  0  0
   -4.6375   -2.0637   -1.6440 C   0  0  0  0  0  0  0  0  0  0  0  0
   -5.5909   -1.9456   -2.1809 H   0  0  0  0  0  0  0  0  0  0  0  0
   -3.8178   -0.9479   -1.3973 C   0  0  0  0  0  0  0  0  0  0  0  0
   -4.1248    0.0563   -1.7313 H   0  0  0  0  0  0  0  0  0  0  0  0
   -2.5930   -1.1131   -0.7359 C   0  0  0  0  0  0  0  0  0  0  0  0
   -1.1987    1.0545    2.5248 C   0  0  0  0  0  0  0  0  0  0  0  0
   -2.0717    0.6599    1.4692 C   0  0  0  0  0  0  0  0  0  0  0  0
   -3.4658    0.6773    1.6807 C   0  0  0  0  0  0  0  0  0  0  0  0
   -4.1287    0.3196    0.8779 H   0  0  0  0  0  0  0  0  0  0  0  0
   -4.0206    1.1221    2.8877 C   0  0  0  0  0  0  0  0  0  0  0  0
   -5.1126    1.1307    3.0242 H   0  0  0  0  0  0  0  0  0  0  0  0
   -3.1626    1.5408    3.9187 C   0  0  0  0  0  0  0  0  0  0  0  0
   -3.5753    1.8881    4.8792 H   0  0  0  0  0  0  0  0  0  0  0  0
   -1.7770    1.4948    3.7424 C   0  0  0  0  0  0  0  0  0  0  0  0
   -1.1048    1.7886    4.5634 H   0  0  0  0  0  0  0  0  0  0  0  0
   -0.2790    1.9186   -1.8966 C   0  0  0  0  0  0  0  0  0  0  0  0
   -1.5064    1.6656   -1.2183 C   0  0  0  0  0  0  0  0  0  0  0  0
   -2.6097    2.5257   -1.3545 C   0  0  0  0  0  0  0  0  0  0  0  0
   -3.5253    2.3322   -0.7727 H   0  0  0  0  0  0  0  0  0  0  0  0
   -2.5368    3.6358   -2.2085 C   0  0  0  0  0  0  0  0  0  0  0  0
   -3.3988    4.3107   -2.3201 H   0  0  0  0  0  0  0  0  0  0  0  0
   -1.3379    3.8807   -2.9109 C   0  0  0  0  0  0  0  0  0  0  0  0
   -1.2672    4.7529   -3.5811 H   0  0  0  0  0  0  0  0  0  0  0  0
   -0.2263    3.0467   -2.7579 C   0  0  0  0  0  0  0  0  0  0  0  0
    0.7120    3.2611   -3.2928 H   0  0  0  0  0  0  0  0  0  0  0  0
  2 16  1  0  0  0  0
  3  2  1  0  0  0  0
  5 17  1  0  0  0  0
  6  1  1  0  0  0  0
  7  6  1  0  0  0  0
  7  8  1  0  0  0  0
  9  7  2  0  0  0  0
 10  9  1  0  0  0  0
 11 13  2  0  0  0  0
 11  9  1  0  0  0  0
 12 11  1  0  0  0  0
 13 15  1  0  0  0  0
 14 13  1  0  0  0  0
 15  6  2  0  0  0  0
 15  5  1  0  0  0  0
 16 24  1  0  0  0  0
 17 18  1  0  0  0  0
 17 16  2  0  0  0  0
 18 20  2  0  0  0  0
 19 18  1  0  0  0  0
 20 21  1  0  0  0  0
 20 22  1  0  0  0  0
 22 23  1  0  0  0  0
 24 22  2  0  0  0  0
 24 25  1  0  0  0  0
 26  4  1  0  0  0  0
 26 27  1  0  0  0  0
 27  5  1  0  0  0  0
 28 27  2  0  0  0  0
 28 29  1  0  0  0  0
 30 28  1  0  0  0  0
 31 30  1  0  0  0  0
 32 34  1  0  0  0  0
 32 30  2  0  0  0  0
 33 32  1  0  0  0  0
 34 26  2  0  0  0  0
 35 34  1  0  0  0  0
M  END
