1,2,3
 OpenBabel05122313063D

 61 64  0  0  0  0  0  0  0  0999 V2000
   -2.1701    1.1301   -0.0742 S   0  0  0  0  0  0  0  0  0  0  0  0
    1.1469    0.8269   -0.2897 P   0  0  0  0  0  0  0  0  0  0  0  0
   -0.8080   -2.0311   -0.1663 S   0  0  0  0  0  0  0  0  0  0  0  0
    2.1886    3.1583   -1.5556 C   0  0  0  0  0  0  0  0  0  0  0  0
    2.9202    2.4787   -2.0210 H   0  0  0  0  0  0  0  0  0  0  0  0
    5.6580   -0.0586    0.4953 C   0  0  0  0  0  0  0  0  0  0  0  0
    6.7155   -0.2698    0.7152 H   0  0  0  0  0  0  0  0  0  0  0  0
    2.2336    4.5283   -1.8474 C   0  0  0  0  0  0  0  0  0  0  0  0
    2.9886    4.9133   -2.5501 H   0  0  0  0  0  0  0  0  0  0  0  0
    0.3772    4.9132   -0.3287 C   0  0  0  0  0  0  0  0  0  0  0  0
   -0.3300    5.5972    0.1643 H   0  0  0  0  0  0  0  0  0  0  0  0
    0.3304    3.5402   -0.0350 C   0  0  0  0  0  0  0  0  0  0  0  0
   -0.4080    3.1551    0.6823 H   0  0  0  0  0  0  0  0  0  0  0  0
    4.8361    0.5221    1.4760 C   0  0  0  0  0  0  0  0  0  0  0  0
    5.2446    0.7656    2.4682 H   0  0  0  0  0  0  0  0  0  0  0  0
    1.5879   -4.9453   -1.7414 C   0  0  0  0  0  0  0  0  0  0  0  0
    1.4627   -5.7978   -2.4263 H   0  0  0  0  0  0  0  0  0  0  0  0
    1.8858   -2.7869    0.0329 C   0  0  0  0  0  0  0  0  0  0  0  0
    1.9942   -1.9451    0.7274 H   0  0  0  0  0  0  0  0  0  0  0  0
   -0.8423   -0.0608   -3.8779 C   0  0  0  0  0  0  0  0  0  0  0  0
   -1.8705   -0.3248   -4.2006 H   0  0  0  0  0  0  0  0  0  0  0  0
   -0.1410   -0.7970   -4.3209 H   0  0  0  0  0  0  0  0  0  0  0  0
   -0.5977    0.9377   -4.2946 H   0  0  0  0  0  0  0  0  0  0  0  0
    2.9813   -3.6138   -0.2637 C   0  0  0  0  0  0  0  0  0  0  0  0
    3.9533   -3.4002    0.2056 H   0  0  0  0  0  0  0  0  0  0  0  0
   -3.7929    0.3438   -0.2535 C   0  0  0  0  0  0  0  0  0  0  0  0
    1.3248    5.4092   -1.2357 C   0  0  0  0  0  0  0  0  0  0  0  0
    1.3637    6.4858   -1.4616 H   0  0  0  0  0  0  0  0  0  0  0  0
    0.6429   -3.0355   -0.5686 C   0  0  0  0  0  0  0  0  0  0  0  0
    5.1248   -0.3715   -0.7641 C   0  0  0  0  0  0  0  0  0  0  0  0
    5.7622   -0.8279   -1.5369 H   0  0  0  0  0  0  0  0  0  0  0  0
   -1.6137    1.1146   -1.8465 C   0  0  0  0  0  0  0  0  0  0  0  0
   -2.5492    1.1497   -2.4383 H   0  0  0  0  0  0  0  0  0  0  0  0
   -1.0909    2.0807   -1.9908 H   0  0  0  0  0  0  0  0  0  0  0  0
    0.7794    0.1332   -1.9897 C   0  0  0  0  0  0  0  0  0  0  0  0
    1.2533    0.7956   -2.7430 H   0  0  0  0  0  0  0  0  0  0  0  0
    1.2842   -0.8519   -2.0544 H   0  0  0  0  0  0  0  0  0  0  0  0
    3.7740   -0.1085   -1.0456 C   0  0  0  0  0  0  0  0  0  0  0  0
    3.3754   -0.3690   -2.0365 H   0  0  0  0  0  0  0  0  0  0  0  0
   -4.8033    1.0669   -0.9186 C   0  0  0  0  0  0  0  0  0  0  0  0
   -4.5855    2.0688   -1.3199 H   0  0  0  0  0  0  0  0  0  0  0  0
    2.9436    0.4656   -0.0630 C   0  0  0  0  0  0  0  0  0  0  0  0
   -0.7235   -0.0545   -2.3352 C   0  0  0  0  0  0  0  0  0  0  0  0
    0.4864   -4.1330   -1.4399 C   0  0  0  0  0  0  0  0  0  0  0  0
   -0.5008   -4.3594   -1.8718 H   0  0  0  0  0  0  0  0  0  0  0  0
   -5.3658   -1.4526    0.1824 C   0  0  0  0  0  0  0  0  0  0  0  0
   -5.5823   -2.4364    0.6252 H   0  0  0  0  0  0  0  0  0  0  0  0
   -6.0845    0.5137   -1.0507 C   0  0  0  0  0  0  0  0  0  0  0  0
   -6.8710    1.0802   -1.5721 H   0  0  0  0  0  0  0  0  0  0  0  0
    1.2291    2.6507   -0.6534 C   0  0  0  0  0  0  0  0  0  0  0  0
    3.4869    0.7798    1.2009 C   0  0  0  0  0  0  0  0  0  0  0  0
    2.8367    1.2164    1.9748 H   0  0  0  0  0  0  0  0  0  0  0  0
   -4.0759   -0.9117    0.3078 C   0  0  0  0  0  0  0  0  0  0  0  0
   -3.2867   -1.4610    0.8397 H   0  0  0  0  0  0  0  0  0  0  0  0
    2.8396   -4.6864   -1.1557 C   0  0  0  0  0  0  0  0  0  0  0  0
    3.7009   -5.3302   -1.3893 H   0  0  0  0  0  0  0  0  0  0  0  0
   -1.2649   -1.4233   -1.8560 C   0  0  0  0  0  0  0  0  0  0  0  0
   -0.9265   -2.2197   -2.5464 H   0  0  0  0  0  0  0  0  0  0  0  0
   -2.3728   -1.4220   -1.8709 H   0  0  0  0  0  0  0  0  0  0  0  0
   -6.3685   -0.7476   -0.5000 C   0  0  0  0  0  0  0  0  0  0  0  0
   -7.3776   -1.1759   -0.5953 H   0  0  0  0  0  0  0  0  0  0  0  0
  2 42  1  0  0  0  0
  4 50  1  0  0  0  0
  5  4  1  0  0  0  0
  6  7  1  0  0  0  0
  6 14  1  0  0  0  0
  8  4  2  0  0  0  0
  8 27  1  0  0  0  0
  9  8  1  0  0  0  0
 10 12  1  0  0  0  0
 10 11  1  0  0  0  0
 12 13  1  0  0  0  0
 14 15  1  0  0  0  0
 16 44  2  0  0  0  0
 16 55  1  0  0  0  0
 17 16  1  0  0  0  0
 18 19  1  0  0  0  0
 20 43  1  0  0  0  0
 21 20  1  0  0  0  0
 22 20  1  0  0  0  0
 23 20  1  0  0  0  0
 24 18  1  0  0  0  0
 24 25  1  0  0  0  0
 26  1  1  0  0  0  0
 26 53  1  0  0  0  0
 27 10  2  0  0  0  0
 28 27  1  0  0  0  0
 29  3  1  0  0  0  0
 29 18  2  0  0  0  0
 30  6  2  0  0  0  0
 31 30  1  0  0  0  0
 32  1  1  0  0  0  0
 33 32  1  0  0  0  0
 34 32  1  0  0  0  0
 35  2  1  0  0  0  0
 36 35  1  0  0  0  0
 37 35  1  0  0  0  0
 38 30  1  0  0  0  0
 38 42  2  0  0  0  0
 39 38  1  0  0  0  0
 40 26  2  0  0  0  0
 41 40  1  0  0  0  0
 42 51  1  0  0  0  0
 43 35  1  0  0  0  0
 43 57  1  0  0  0  0
 43 32  1  0  0  0  0
 44 29  1  0  0  0  0
 45 44  1  0  0  0  0
 46 53  2  0  0  0  0
 46 47  1  0  0  0  0
 48 40  1  0  0  0  0
 48 60  2  0  0  0  0
 49 48  1  0  0  0  0
 50  2  1  0  0  0  0
 50 12  2  0  0  0  0
 51 14  2  0  0  0  0
 51 52  1  0  0  0  0
 53 54  1  0  0  0  0
 55 24  2  0  0  0  0
 56 55  1  0  0  0  0
 57  3  1  0  0  0  0
 58 57  1  0  0  0  0
 59 57  1  0  0  0  0
 60 46  1  0  0  0  0
 61 60  1  0  0  0  0
M  END
