1,2,4
 OpenBabel05122313063D

 33 34  0  0  0  0  0  0  0  0999 V2000
    1.4932    0.0334   -1.6958 S   0  0  0  0  0  1  0  0  0  0  0  0
    1.7018    0.1050    1.4848 S   0  0  0  0  0  1  0  0  0  0  0  0
    4.1597   -0.6682   -0.2884 O   0  0  0  0  0  0  0  0  0  0  0  0
    2.5440   -0.7639   -0.1509 P   0  0  0  0  0  4  0  0  0  0  0  0
    2.4696   -2.3906   -0.0832 O   0  0  0  0  0  0  0  0  0  0  0  0
    6.2056    0.2470   -1.1643 C   0  0  0  0  0  0  0  0  0  0  0  0
    6.2007   -0.7745   -1.5905 H   0  0  0  0  0  0  0  0  0  0  0  0
    6.4891    0.9396   -1.9816 H   0  0  0  0  0  0  0  0  0  0  0  0
    1.1681   -2.9904    0.1086 C   0  0  0  0  0  0  0  0  0  0  0  0
    0.4703   -2.2020    0.4879 H   0  0  0  0  0  0  0  0  0  0  0  0
    4.7940    0.5972   -0.6653 C   0  0  0  0  0  0  0  0  0  0  0  0
    4.1565    1.0831   -1.4332 H   0  0  0  0  0  0  0  0  0  0  0  0
    5.0293    1.4616    0.5769 C   0  0  0  0  0  0  0  0  0  0  0  0
    5.3104    2.4820    0.2362 H   0  0  0  0  0  0  0  0  0  0  0  0
    4.1224    1.5550    1.2062 H   0  0  0  0  0  0  0  0  0  0  0  0
    1.2307   -4.1468    1.1118 C   0  0  0  0  0  0  0  0  0  0  0  0
    2.2001   -4.6682    0.9739 H   0  0  0  0  0  0  0  0  0  0  0  0
    1.1987   -3.7822    2.1570 H   0  0  0  0  0  0  0  0  0  0  0  0
    0.5767   -3.5984   -1.1611 C   0  0  0  0  0  0  0  0  0  0  0  0
    0.2435   -2.8270   -1.8822 H   0  0  0  0  0  0  0  0  0  0  0  0
    1.3485   -4.2286   -1.6536 H   0  0  0  0  0  0  0  0  0  0  0  0
    7.1455    0.3996    0.0673 C   0  0  0  0  0  0  0  0  0  0  0  0
    7.7335   -0.5178    0.2652 H   0  0  0  0  0  0  0  0  0  0  0  0
    7.8782    1.2130   -0.1121 H   0  0  0  0  0  0  0  0  0  0  0  0
    6.2208    0.7671    1.2502 C   0  0  0  0  0  0  0  0  0  0  0  0
    6.7181    1.3924    2.0172 H   0  0  0  0  0  0  0  0  0  0  0  0
    5.8594   -0.1533    1.7535 H   0  0  0  0  0  0  0  0  0  0  0  0
    0.0329   -5.0569    0.7254 C   0  0  0  0  0  0  0  0  0  0  0  0
    0.3778   -6.0959    0.5521 H   0  0  0  0  0  0  0  0  0  0  0  0
   -0.7274   -5.1088    1.5294 H   0  0  0  0  0  0  0  0  0  0  0  0
   -0.5594   -4.4474   -0.5770 C   0  0  0  0  0  0  0  0  0  0  0  0
   -1.4130   -3.7799   -0.3324 H   0  0  0  0  0  0  0  0  0  0  0  0
   -0.9390   -5.2130   -1.2815 H   0  0  0  0  0  0  0  0  0  0  0  0
  1  4  1  0  0  0  0
  3  4  1  0  0  0  0
  4  5  1  0  0  0  0
  4  2  1  0  0  0  0
  5  9  1  0  0  0  0
  6 11  1  0  0  0  0
  6 22  1  0  0  0  0
  7  6  1  0  0  0  0
  8  6  1  0  0  0  0
  9 10  1  0  0  0  0
  9 16  1  0  0  0  0
 11  3  1  0  0  0  0
 11 13  1  0  0  0  0
 12 11  1  0  0  0  0
 13 15  1  0  0  0  0
 13 25  1  0  0  0  0
 14 13  1  0  0  0  0
 16 18  1  0  0  0  0
 17 16  1  0  0  0  0
 19 31  1  0  0  0  0
 19  9  1  0  0  0  0
 20 19  1  0  0  0  0
 21 19  1  0  0  0  0
 22 23  1  0  0  0  0
 22 25  1  0  0  0  0
 24 22  1  0  0  0  0
 25 27  1  0  0  0  0
 25 26  1  0  0  0  0
 28 16  1  0  0  0  0
 28 30  1  0  0  0  0
 29 28  1  0  0  0  0
 31 32  1  0  0  0  0
 31 28  1  0  0  0  0
 33 31  1  0  0  0  0
M  END
