1,2,3
q = -1.0, confidence = 0.004

 39 40  0  0  0  0  0  0  0  0999 V2000
    1.9361    0.9840    0.5985 S   0  0  0  0  0  1  0  0  0  0  0  0
    0.1014    1.0492   -1.9980 S   0  0  0  0  0  1  0  0  0  0  0  0
    2.0461    0.9822   -1.4268 P   0  0  0  0  0  4  0  0  0  0  0  0
    2.8643   -0.2713   -2.0698 O   0  0  0  0  0  0  0  0  0  0  0  0
    2.9947    2.1510   -2.0574 O   0  0  0  0  0  0  0  0  0  0  0  0
    2.1973   -1.4805   -2.4961 C   0  0  0  0  0  0  0  0  0  0  0  0
    1.2689   -1.2018   -3.0402 H   0  0  0  0  0  0  0  0  0  0  0  0
    2.9049   -1.9498   -3.2082 H   0  0  0  0  0  0  0  0  0  0  0  0
    1.8617   -2.4324   -1.3464 C   0  0  0  0  0  0  0  0  0  0  0  0
    1.2052   -1.8909   -0.6251 H   0  0  0  0  0  0  0  0  0  0  0  0
    1.2374   -3.2422   -1.7797 H   0  0  0  0  0  0  0  0  0  0  0  0
    3.0552   -3.0224   -0.6358 C   0  0  0  0  0  0  0  0  0  0  0  0
    3.5789   -4.2711   -1.0296 C   0  0  0  0  0  0  0  0  0  0  0  0
    3.0943   -4.8253   -1.8502 H   0  0  0  0  0  0  0  0  0  0  0  0
    4.6980   -4.8207   -0.3863 C   0  0  0  0  0  0  0  0  0  0  0  0
    5.0890   -5.7989   -0.7064 H   0  0  0  0  0  0  0  0  0  0  0  0
    5.3107   -4.1278    0.6698 C   0  0  0  0  0  0  0  0  0  0  0  0
    6.1836   -4.5596    1.1830 H   0  0  0  0  0  0  0  0  0  0  0  0
    4.7978   -2.8837    1.0695 C   0  0  0  0  0  0  0  0  0  0  0  0
    5.2659   -2.3351    1.9013 H   0  0  0  0  0  0  0  0  0  0  0  0
    3.6832   -2.3314    0.4205 C   0  0  0  0  0  0  0  0  0  0  0  0
    3.2958   -1.3485    0.7300 H   0  0  0  0  0  0  0  0  0  0  0  0
    3.0489    3.4593   -1.4550 C   0  0  0  0  0  0  0  0  0  0  0  0
    2.7297    4.1871   -2.2293 H   0  0  0  0  0  0  0  0  0  0  0  0
    2.3373    3.5149   -0.6026 H   0  0  0  0  0  0  0  0  0  0  0  0
    4.4774    3.7438   -0.9834 C   0  0  0  0  0  0  0  0  0  0  0  0
    4.4986    4.7806   -0.5870 H   0  0  0  0  0  0  0  0  0  0  0  0
    5.1503    3.7176   -1.8655 H   0  0  0  0  0  0  0  0  0  0  0  0
    4.9458    2.7620    0.0654 C   0  0  0  0  0  0  0  0  0  0  0  0
    5.4725    1.5105   -0.3153 C   0  0  0  0  0  0  0  0  0  0  0  0
    5.5796    1.2713   -1.3839 H   0  0  0  0  0  0  0  0  0  0  0  0
    5.8404    0.5634    0.6508 C   0  0  0  0  0  0  0  0  0  0  0  0
    6.2394   -0.4112    0.3334 H   0  0  0  0  0  0  0  0  0  0  0  0
    5.6809    0.8508    2.0149 C   0  0  0  0  0  0  0  0  0  0  0  0
    5.9667    0.1072    2.7749 H   0  0  0  0  0  0  0  0  0  0  0  0
    5.1544    2.0915    2.4073 C   0  0  0  0  0  0  0  0  0  0  0  0
    5.0255    2.3240    3.4754 H   0  0  0  0  0  0  0  0  0  0  0  0
    4.7905    3.0382    1.4384 C   0  0  0  0  0  0  0  0  0  0  0  0
    4.3725    4.0086    1.7513 H   0  0  0  0  0  0  0  0  0  0  0  0
  2  3  1  0  0  0  0
  3  1  1  0  0  0  0
  4  3  1  0  0  0  0
  5 23  1  0  0  0  0
  5  3  1  0  0  0  0
  6  4  1  0  0  0  0
  6  9  1  0  0  0  0
  7  6  1  0  0  0  0
  8  6  1  0  0  0  0
  9 12  1  0  0  0  0
  9 10  1  0  0  0  0
 11  9  1  0  0  0  0
 12 21  1  0  0  0  0
 13 12  2  0  0  0  0
 13 15  1  0  0  0  0
 14 13  1  0  0  0  0
 15 17  2  0  0  0  0
 16 15  1  0  0  0  0
 17 19  1  0  0  0  0
 17 18  1  0  0  0  0
 19 20  1  0  0  0  0
 21 22  1  0  0  0  0
 21 19  2  0  0  0  0
 23 26  1  0  0  0  0
 23 25  1  0  0  0  0
 24 23  1  0  0  0  0
 26 27  1  0  0  0  0
 26 29  1  0  0  0  0
 28 26  1  0  0  0  0
 29 38  1  0  0  0  0
 30 29  2  0  0  0  0
 30 32  1  0  0  0  0
 31 30  1  0  0  0  0
 32 34  2  0  0  0  0
 33 32  1  0  0  0  0
 34 36  1  0  0  0  0
 34 35  1  0  0  0  0
 36 37  1  0  0  0  0
 38 39  1  0  0  0  0
 38 36  2  0  0  0  0
M  END
