1,2,3
 OpenBabel05122313063D

 25 24  0  0  0  0  0  0  0  0999 V2000
    1.8759   -0.1307    1.2361 S   0  0  0  0  0  1  0  0  0  0  0  0
    1.2087   -0.4758   -1.8533 S   0  0  0  0  0  1  0  0  0  0  0  0
    2.5949    0.3249   -0.6079 P   0  0  0  0  0  4  0  0  0  0  0  0
    2.8481    1.9108   -0.8603 O   0  0  0  0  0  0  0  0  0  0  0  0
    4.1357   -0.1307   -0.8651 O   0  0  0  0  0  0  0  0  0  0  0  0
    1.7285    2.8008   -1.0961 C   0  0  0  0  0  0  0  0  0  0  0  0
    0.7750    2.2326   -0.9857 H   0  0  0  0  0  0  0  0  0  0  0  0
    1.8022    3.1308   -2.1531 H   0  0  0  0  0  0  0  0  0  0  0  0
    1.7820    3.9779   -0.1363 C   0  0  0  0  0  0  0  0  0  0  0  0
    2.7625    4.4874   -0.2565 H   0  0  0  0  0  0  0  0  0  0  0  0
    1.0126    4.7051   -0.4772 H   0  0  0  0  0  0  0  0  0  0  0  0
    1.5475    3.5971    1.3247 C   0  0  0  0  0  0  0  0  0  0  0  0
    0.5475    3.1368    1.4638 H   0  0  0  0  0  0  0  0  0  0  0  0
    1.6154    4.4824    1.9876 H   0  0  0  0  0  0  0  0  0  0  0  0
    2.2937    2.8520    1.6650 H   0  0  0  0  0  0  0  0  0  0  0  0
    4.5021   -1.5161   -0.6513 C   0  0  0  0  0  0  0  0  0  0  0  0
    4.6894   -1.9623   -1.6501 H   0  0  0  0  0  0  0  0  0  0  0  0
    3.6518   -2.0606   -0.1835 H   0  0  0  0  0  0  0  0  0  0  0  0
    5.7403   -1.5822    0.2300 C   0  0  0  0  0  0  0  0  0  0  0  0
    6.5619   -1.0303   -0.2754 H   0  0  0  0  0  0  0  0  0  0  0  0
    6.0588   -2.6468    0.2682 H   0  0  0  0  0  0  0  0  0  0  0  0
    5.5198   -1.0354    1.6401 C   0  0  0  0  0  0  0  0  0  0  0  0
    5.2016    0.0257    1.6067 H   0  0  0  0  0  0  0  0  0  0  0  0
    6.4469   -1.0928    2.2440 H   0  0  0  0  0  0  0  0  0  0  0  0
    4.7276   -1.6000    2.1734 H   0  0  0  0  0  0  0  0  0  0  0  0
  2  3  1  0  0  0  0
  3  1  1  0  0  0  0
  4  3  1  0  0  0  0
  5 16  1  0  0  0  0
  5  3  1  0  0  0  0
  6  7  1  0  0  0  0
  6  4  1  0  0  0  0
  6  9  1  0  0  0  0
  8  6  1  0  0  0  0
  9 12  1  0  0  0  0
 10  9  1  0  0  0  0
 11  9  1  0  0  0  0
 12 13  1  0  0  0  0
 12 15  1  0  0  0  0
 12 14  1  0  0  0  0
 16 18  1  0  0  0  0
 16 19  1  0  0  0  0
 17 16  1  0  0  0  0
 19 21  1  0  0  0  0
 19 22  1  0  0  0  0
 20 19  1  0  0  0  0
 22 25  1  0  0  0  0
 22 24  1  0  0  0  0
 23 22  1  0  0  0  0
M  END
