1,2,3
 OpenBabel05122313063D

 21 20  0  0  0  0  0  0  0  0999 V2000
   -1.5956    0.0268    1.5968 S   0  0  0  0  0  1  0  0  0  0  0  0
   -1.5952    0.0278   -1.5972 S   0  0  0  0  0  1  0  0  0  0  0  0
   -2.5892    0.8047   -0.0001 P   0  0  0  0  0  4  0  0  0  0  0  0
   -4.2050    0.5092   -0.0005 O   0  0  0  0  0  0  0  0  0  0  0  0
   -2.6250    2.6321    0.0004 C   0  0  0  0  0  0  0  0  0  0  0  0
   -1.2334    3.2569    0.0006 C   0  0  0  0  0  0  0  0  0  0  0  0
   -4.6386   -0.8889   -0.0001 C   0  0  0  0  0  0  0  0  0  0  0  0
   -5.4238   -1.1272    1.2805 C   0  0  0  0  0  0  0  0  0  0  0  0
   -5.4247   -1.1274   -1.2801 C   0  0  0  0  0  0  0  0  0  0  0  0
   -3.2177    2.9149    0.8960 H   0  0  0  0  0  0  0  0  0  0  0  0
   -3.2175    2.9153   -0.8952 H   0  0  0  0  0  0  0  0  0  0  0  0
   -1.3064    4.3627    0.0011 H   0  0  0  0  0  0  0  0  0  0  0  0
   -0.6590    2.9428    0.8948 H   0  0  0  0  0  0  0  0  0  0  0  0
   -0.6590    2.9436   -0.8938 H   0  0  0  0  0  0  0  0  0  0  0  0
   -3.7279   -1.5299   -0.0004 H   0  0  0  0  0  0  0  0  0  0  0  0
   -5.7842   -2.1745    1.3245 H   0  0  0  0  0  0  0  0  0  0  0  0
   -6.3014   -0.4513    1.3313 H   0  0  0  0  0  0  0  0  0  0  0  0
   -4.7817   -0.9411    2.1635 H   0  0  0  0  0  0  0  0  0  0  0  0
   -5.7851   -2.1747   -1.3238 H   0  0  0  0  0  0  0  0  0  0  0  0
   -6.3024   -0.4516   -1.3305 H   0  0  0  0  0  0  0  0  0  0  0  0
   -4.7833   -0.9414   -2.1636 H   0  0  0  0  0  0  0  0  0  0  0  0
  2  3  1  0  0  0  0
  3  5  1  0  0  0  0
  3  1  1  0  0  0  0
  4  7  1  0  0  0  0
  4  3  1  0  0  0  0
  5  6  1  0  0  0  0
  5 10  1  0  0  0  0
  6 12  1  0  0  0  0
  6 13  1  0  0  0  0
  7  8  1  0  0  0  0
  8 16  1  0  0  0  0
  8 17  1  0  0  0  0
  8 18  1  0  0  0  0
  9  7  1  0  0  0  0
 11  5  1  0  0  0  0
 14  6  1  0  0  0  0
 15  7  1  0  0  0  0
 19  9  1  0  0  0  0
 20  9  1  0  0  0  0
 21  9  1  0  0  0  0
M  END
