1,2,3
 OpenBabel05122313063D

 38 40  0  0  0  0  0  0  0  0999 V2000
   -1.4078    0.0452   -0.2324 P   0  0  0  0  0  0  0  0  0  0  0  0
   -0.5324   -2.6012    0.7681 S   0  0  0  0  0  1  0  0  0  0  0  0
    1.2080    0.6048   -1.6778 S   0  0  0  0  0  1  0  0  0  0  0  0
    0.3917    1.7141    1.9843 S   0  0  0  0  0  0  0  0  0  0  0  0
   -2.1171   -2.5239   -0.0025 C   0  0  0  0  0  0  0  0  0  0  0  0
   -2.9816   -3.6458   -0.0631 C   0  0  0  0  0  0  0  0  0  0  0  0
   -2.6658   -4.5857    0.4161 H   0  0  0  0  0  0  0  0  0  0  0  0
   -4.1944   -3.5759   -0.7612 C   0  0  0  0  0  0  0  0  0  0  0  0
   -4.8338   -4.4721   -0.8179 H   0  0  0  0  0  0  0  0  0  0  0  0
   -4.5961   -2.3913   -1.4097 C   0  0  0  0  0  0  0  0  0  0  0  0
   -5.5350   -2.3574   -1.9830 H   0  0  0  0  0  0  0  0  0  0  0  0
   -3.7767   -1.2519   -1.3170 C   0  0  0  0  0  0  0  0  0  0  0  0
   -4.0737   -0.3103   -1.8065 H   0  0  0  0  0  0  0  0  0  0  0  0
   -2.5672   -1.3122   -0.6100 C   0  0  0  0  0  0  0  0  0  0  0  0
   -0.2095    1.5347   -2.1419 C   0  0  0  0  0  0  0  0  0  0  0  0
   -0.1338    2.5299   -3.1545 C   0  0  0  0  0  0  0  0  0  0  0  0
    0.8261    2.6834   -3.6720 H   0  0  0  0  0  0  0  0  0  0  0  0
   -1.2458    3.3140   -3.4733 C   0  0  0  0  0  0  0  0  0  0  0  0
   -1.1542    4.0828   -4.2579 H   0  0  0  0  0  0  0  0  0  0  0  0
   -2.4752    3.1503   -2.7970 C   0  0  0  0  0  0  0  0  0  0  0  0
   -3.3395    3.7849   -3.0446 H   0  0  0  0  0  0  0  0  0  0  0  0
   -2.5744    2.1693   -1.7993 C   0  0  0  0  0  0  0  0  0  0  0  0
   -3.5149    2.0409   -1.2387 H   0  0  0  0  0  0  0  0  0  0  0  0
   -1.4685    1.3569   -1.4912 C   0  0  0  0  0  0  0  0  0  0  0  0
   -2.1732    0.8073    1.2810 C   0  0  0  0  0  0  0  0  0  0  0  0
   -3.5462    0.6438    1.5580 C   0  0  0  0  0  0  0  0  0  0  0  0
   -4.1632    0.0483    0.8683 H   0  0  0  0  0  0  0  0  0  0  0  0
   -4.1248    1.1964    2.7103 C   0  0  0  0  0  0  0  0  0  0  0  0
   -5.1992    1.0511    2.9036 H   0  0  0  0  0  0  0  0  0  0  0  0
   -3.3320    1.9126    3.6196 C   0  0  0  0  0  0  0  0  0  0  0  0
   -3.7754    2.3375    4.5337 H   0  0  0  0  0  0  0  0  0  0  0  0
   -1.9632    2.0781    3.3624 C   0  0  0  0  0  0  0  0  0  0  0  0
   -1.3181    2.6263    4.0654 H   0  0  0  0  0  0  0  0  0  0  0  0
   -1.3771    1.5422    2.1989 C   0  0  0  0  0  0  0  0  0  0  0  0
    0.5004    3.0965    0.7905 C   0  0  0  0  0  0  0  0  0  0  0  0
   -0.3840    3.0974    0.1273 H   0  0  0  0  0  0  0  0  0  0  0  0
    1.3900    2.9003    0.1593 H   0  0  0  0  0  0  0  0  0  0  0  0
    0.5884    4.0677    1.3157 H   0  0  0  0  0  0  0  0  0  0  0  0
  1 25  1  0  0  0  0
  4 34  1  0  0  0  0
  5  2  1  0  0  0  0
  6  5  1  0  0  0  0
  6  7  1  0  0  0  0
  8  6  2  0  0  0  0
  9  8  1  0  0  0  0
 10 12  2  0  0  0  0
 10  8  1  0  0  0  0
 11 10  1  0  0  0  0
 12 14  1  0  0  0  0
 13 12  1  0  0  0  0
 14  1  1  0  0  0  0
 14  5  2  0  0  0  0
 15  3  1  0  0  0  0
 15 24  1  0  0  0  0
 16 15  2  0  0  0  0
 17 16  1  0  0  0  0
 18 16  1  0  0  0  0
 18 20  2  0  0  0  0
 19 18  1  0  0  0  0
 20 22  1  0  0  0  0
 21 20  1  0  0  0  0
 22 24  2  0  0  0  0
 22 23  1  0  0  0  0
 24  1  1  0  0  0  0
 25 26  2  0  0  0  0
 25 34  1  0  0  0  0
 26 28  1  0  0  0  0
 27 26  1  0  0  0  0
 28 29  1  0  0  0  0
 28 30  2  0  0  0  0
 30 31  1  0  0  0  0
 32 30  1  0  0  0  0
 32 33  1  0  0  0  0
 34 32  2  0  0  0  0
 35 38  1  0  0  0  0
 35  4  1  0  0  0  0
 36 35  1  0  0  0  0
 37 35  1  0  0  0  0
M  END
