1,2,3
 OpenBabel05122313063D

 53 54  0  0  0  0  0  0  0  0999 V2000
   -1.3232   -2.0309    0.7073 S   0  0  0  0  0  0  0  0  0  0  0  0
   -1.9771    1.2721    1.1930 S   0  0  0  0  0  0  0  0  0  0  0  0
    1.0546    0.3849    0.2842 P   0  0  0  0  0  0  0  0  0  0  0  0
    0.8443    0.5095    2.1464 C   0  0  0  0  0  0  0  0  0  0  0  0
    1.8249    0.3280    2.6318 H   0  0  0  0  0  0  0  0  0  0  0  0
    0.6181    1.5797    2.3329 H   0  0  0  0  0  0  0  0  0  0  0  0
   -0.3001   -1.8084    2.2305 C   0  0  0  0  0  0  0  0  0  0  0  0
   -0.7367   -2.4940    2.9860 H   0  0  0  0  0  0  0  0  0  0  0  0
    0.7266   -2.1595    2.0078 H   0  0  0  0  0  0  0  0  0  0  0  0
   -1.6517    0.3107    2.7395 C   0  0  0  0  0  0  0  0  0  0  0  0
   -1.7541    1.0355    3.5733 H   0  0  0  0  0  0  0  0  0  0  0  0
   -2.4532   -0.4495    2.8476 H   0  0  0  0  0  0  0  0  0  0  0  0
   -0.2569   -0.3696    2.8062 C   0  0  0  0  0  0  0  0  0  0  0  0
    0.1000   -0.5085    4.3037 C   0  0  0  0  0  0  0  0  0  0  0  0
   -0.7106   -1.0179    4.8643 H   0  0  0  0  0  0  0  0  0  0  0  0
    0.2647    0.4877    4.7619 H   0  0  0  0  0  0  0  0  0  0  0  0
    1.0285   -1.1016    4.4334 H   0  0  0  0  0  0  0  0  0  0  0  0
    2.3661   -0.9022    0.0508 C   0  0  0  0  0  0  0  0  0  0  0  0
    2.6497   -1.2791   -1.2804 C   0  0  0  0  0  0  0  0  0  0  0  0
    2.1040   -0.8044   -2.1078 H   0  0  0  0  0  0  0  0  0  0  0  0
    3.6109   -2.2615   -1.5553 C   0  0  0  0  0  0  0  0  0  0  0  0
    3.8141   -2.5420   -2.5998 H   0  0  0  0  0  0  0  0  0  0  0  0
    4.2988   -2.8924   -0.5053 C   0  0  0  0  0  0  0  0  0  0  0  0
    5.0443   -3.6729   -0.7208 H   0  0  0  0  0  0  0  0  0  0  0  0
    4.0315   -2.5197    0.8201 C   0  0  0  0  0  0  0  0  0  0  0  0
    4.5710   -3.0014    1.6500 H   0  0  0  0  0  0  0  0  0  0  0  0
    3.0775   -1.5257    1.0960 C   0  0  0  0  0  0  0  0  0  0  0  0
    2.8999   -1.2411    2.1435 H   0  0  0  0  0  0  0  0  0  0  0  0
    1.9877    1.9540   -0.0107 C   0  0  0  0  0  0  0  0  0  0  0  0
    1.2408    3.1487   -0.0882 C   0  0  0  0  0  0  0  0  0  0  0  0
    0.1441    3.1119    0.0013 H   0  0  0  0  0  0  0  0  0  0  0  0
    1.8901    4.3741   -0.2903 C   0  0  0  0  0  0  0  0  0  0  0  0
    1.2977    5.2994   -0.3539 H   0  0  0  0  0  0  0  0  0  0  0  0
    3.2870    4.4178   -0.4323 C   0  0  0  0  0  0  0  0  0  0  0  0
    3.7944    5.3793   -0.6040 H   0  0  0  0  0  0  0  0  0  0  0  0
    4.0326    3.2311   -0.3640 C   0  0  0  0  0  0  0  0  0  0  0  0
    5.1270    3.2590   -0.4791 H   0  0  0  0  0  0  0  0  0  0  0  0
    3.3883    2.0019   -0.1505 C   0  0  0  0  0  0  0  0  0  0  0  0
    3.9787    1.0750   -0.0984 H   0  0  0  0  0  0  0  0  0  0  0  0
   -0.4566   -3.5038    0.0123 C   0  0  0  0  0  0  0  0  0  0  0  0
    0.5453   -3.1698   -0.3264 H   0  0  0  0  0  0  0  0  0  0  0  0
   -0.3330   -4.2212    0.8504 H   0  0  0  0  0  0  0  0  0  0  0  0
   -1.2702   -4.1074   -1.1226 C   0  0  0  0  0  0  0  0  0  0  0  0
   -0.7353   -4.9853   -1.5377 H   0  0  0  0  0  0  0  0  0  0  0  0
   -1.4126   -3.3797   -1.9441 H   0  0  0  0  0  0  0  0  0  0  0  0
   -2.2675   -4.4416   -0.7736 H   0  0  0  0  0  0  0  0  0  0  0  0
   -3.8185    1.2945    1.2709 C   0  0  0  0  0  0  0  0  0  0  0  0
   -4.1684    0.2547    1.1079 H   0  0  0  0  0  0  0  0  0  0  0  0
   -4.0921    1.6118    2.2990 H   0  0  0  0  0  0  0  0  0  0  0  0
   -4.3708    2.2491    0.2228 C   0  0  0  0  0  0  0  0  0  0  0  0
   -4.0366    3.2894    0.4074 H   0  0  0  0  0  0  0  0  0  0  0  0
   -5.4789    2.2301    0.2442 H   0  0  0  0  0  0  0  0  0  0  0  0
   -4.0448    1.9546   -0.7937 H   0  0  0  0  0  0  0  0  0  0  0  0
  1  7  1  0  0  0  0
  2 47  1  0  0  0  0
  2 10  1  0  0  0  0
  3  4  1  0  0  0  0
  4  6  1  0  0  0  0
  4  5  1  0  0  0  0
  4 13  1  0  0  0  0
  7 13  1  0  0  0  0
  7  8  1  0  0  0  0
  9  7  1  0  0  0  0
 10 13  1  0  0  0  0
 10 12  1  0  0  0  0
 10 11  1  0  0  0  0
 13 14  1  0  0  0  0
 14 17  1  0  0  0  0
 14 16  1  0  0  0  0
 14 15  1  0  0  0  0
 18  3  1  0  0  0  0
 18 27  1  0  0  0  0
 19 18  2  0  0  0  0
 20 19  1  0  0  0  0
 21 19  1  0  0  0  0
 21 23  2  0  0  0  0
 22 21  1  0  0  0  0
 23 25  1  0  0  0  0
 24 23  1  0  0  0  0
 25 27  2  0  0  0  0
 25 26  1  0  0  0  0
 27 28  1  0  0  0  0
 29  3  1  0  0  0  0
 30 29  1  0  0  0  0
 30 31  1  0  0  0  0
 32 30  2  0  0  0  0
 33 32  1  0  0  0  0
 34 36  2  0  0  0  0
 34 32  1  0  0  0  0
 35 34  1  0  0  0  0
 36 38  1  0  0  0  0
 37 36  1  0  0  0  0
 38 39  1  0  0  0  0
 38 29  2  0  0  0  0
 40  1  1  0  0  0  0
 40 42  1  0  0  0  0
 41 40  1  0  0  0  0
 43 46  1  0  0  0  0
 43 40  1  0  0  0  0
 44 43  1  0  0  0  0
 45 43  1  0  0  0  0
 47 49  1  0  0  0  0
 48 47  1  0  0  0  0
 50 52  1  0  0  0  0
 50 51  1  0  0  0  0
 50 47  1  0  0  0  0
 53 50  1  0  0  0  0
M  END
