1,2,3
 OpenBabel05122313063D

 71 74  0  0  0  0  0  0  0  0999 V2000
    0.8573    0.7482   -1.1487 S   0  0  0  0  0  0  0  0  0  0  0  0
   -0.0025   -1.6903    1.2856 S   0  0  0  0  0  0  0  0  0  0  0  0
   -2.1422    0.4619    0.2893 P   0  0  0  0  0  0  0  0  0  0  0  0
    2.2114    2.0015    2.8876 O   0  0  0  0  0  0  0  0  0  0  0  0
    0.7953    1.7337    0.4016 C   0  0  0  0  0  0  0  0  0  0  0  0
    1.8243    2.1186    0.5490 H   0  0  0  0  0  0  0  0  0  0  0  0
    0.1512    2.6008    0.1517 H   0  0  0  0  0  0  0  0  0  0  0  0
    0.9313   -0.2875    2.0128 C   0  0  0  0  0  0  0  0  0  0  0  0
    0.9514   -0.4634    3.1091 H   0  0  0  0  0  0  0  0  0  0  0  0
    1.9788   -0.3104    1.6590 H   0  0  0  0  0  0  0  0  0  0  0  0
   -1.2450    1.0638    1.8404 C   0  0  0  0  0  0  0  0  0  0  0  0
   -1.6279    2.0798    2.0686 H   0  0  0  0  0  0  0  0  0  0  0  0
   -1.5463    0.4087    2.6821 H   0  0  0  0  0  0  0  0  0  0  0  0
    0.2997    1.0966    1.7281 C   0  0  0  0  0  0  0  0  0  0  0  0
    0.8032    2.0425    2.8432 C   0  0  0  0  0  0  0  0  0  0  0  0
    0.4414    3.0819    2.6373 H   0  0  0  0  0  0  0  0  0  0  0  0
    0.3621    1.7302    3.8241 H   0  0  0  0  0  0  0  0  0  0  0  0
   -3.6692   -1.1675    2.0025 C   0  0  0  0  0  0  0  0  0  0  0  0
   -2.6992   -1.4646    2.4321 H   0  0  0  0  0  0  0  0  0  0  0  0
   -4.8446   -1.7858    2.4500 C   0  0  0  0  0  0  0  0  0  0  0  0
   -4.7920   -2.5366    3.2532 H   0  0  0  0  0  0  0  0  0  0  0  0
   -6.0801   -1.4639    1.8657 C   0  0  0  0  0  0  0  0  0  0  0  0
   -7.0014   -1.9545    2.2144 H   0  0  0  0  0  0  0  0  0  0  0  0
   -6.1312   -0.5272    0.8224 C   0  0  0  0  0  0  0  0  0  0  0  0
   -7.0928   -0.2821    0.3462 H   0  0  0  0  0  0  0  0  0  0  0  0
   -4.9582    0.0991    0.3741 C   0  0  0  0  0  0  0  0  0  0  0  0
   -5.0078    0.8237   -0.4521 H   0  0  0  0  0  0  0  0  0  0  0  0
   -3.7185   -0.2034    0.9731 C   0  0  0  0  0  0  0  0  0  0  0  0
   -2.1760    2.4578   -1.7203 C   0  0  0  0  0  0  0  0  0  0  0  0
   -1.5528    1.7555   -2.2917 H   0  0  0  0  0  0  0  0  0  0  0  0
   -2.5029    3.7136   -2.2586 C   0  0  0  0  0  0  0  0  0  0  0  0
   -2.1332    3.9878   -3.2581 H   0  0  0  0  0  0  0  0  0  0  0  0
   -3.2996    4.6081   -1.5297 C   0  0  0  0  0  0  0  0  0  0  0  0
   -3.5584    5.5902   -1.9539 H   0  0  0  0  0  0  0  0  0  0  0  0
   -3.7711    4.2457   -0.2557 C   0  0  0  0  0  0  0  0  0  0  0  0
   -4.4018    4.9415    0.3187 H   0  0  0  0  0  0  0  0  0  0  0  0
   -3.4423    2.9956    0.2851 C   0  0  0  0  0  0  0  0  0  0  0  0
   -3.8256    2.7146    1.2790 H   0  0  0  0  0  0  0  0  0  0  0  0
   -2.6403    2.0892   -0.4442 C   0  0  0  0  0  0  0  0  0  0  0  0
    2.5997    0.0889   -1.1072 C   0  0  0  0  0  0  0  0  0  0  0  0
    2.6845   -0.6605   -0.3015 H   0  0  0  0  0  0  0  0  0  0  0  0
    2.6561   -0.4537   -2.0713 H   0  0  0  0  0  0  0  0  0  0  0  0
    3.8465    2.0707   -2.0649 C   0  0  0  0  0  0  0  0  0  0  0  0
    3.2730    1.9450   -2.9967 H   0  0  0  0  0  0  0  0  0  0  0  0
    4.7772    3.1110   -1.9465 C   0  0  0  0  0  0  0  0  0  0  0  0
    4.9435    3.7954   -2.7924 H   0  0  0  0  0  0  0  0  0  0  0  0
    5.4984    3.2813   -0.7519 C   0  0  0  0  0  0  0  0  0  0  0  0
    6.2294    4.0990   -0.6599 H   0  0  0  0  0  0  0  0  0  0  0  0
    5.2821    2.4033    0.3208 C   0  0  0  0  0  0  0  0  0  0  0  0
    5.8430    2.5294    1.2599 H   0  0  0  0  0  0  0  0  0  0  0  0
    4.3510    1.3599    0.2005 C   0  0  0  0  0  0  0  0  0  0  0  0
    4.1811    0.6740    1.0433 H   0  0  0  0  0  0  0  0  0  0  0  0
    3.6245    1.1780   -0.9944 C   0  0  0  0  0  0  0  0  0  0  0  0
    1.1835   -3.0846    1.6667 C   0  0  0  0  0  0  0  0  0  0  0  0
    1.2269   -3.1406    2.7729 H   0  0  0  0  0  0  0  0  0  0  0  0
    0.6300   -3.9651    1.2875 H   0  0  0  0  0  0  0  0  0  0  0  0
    3.5992   -2.3373    1.7547 C   0  0  0  0  0  0  0  0  0  0  0  0
    3.4391   -2.0016    2.7917 H   0  0  0  0  0  0  0  0  0  0  0  0
    4.8503   -2.1533    1.1469 C   0  0  0  0  0  0  0  0  0  0  0  0
    5.6644   -1.6665    1.7052 H   0  0  0  0  0  0  0  0  0  0  0  0
    5.0631   -2.5867   -0.1721 C   0  0  0  0  0  0  0  0  0  0  0  0
    6.0406   -2.4309   -0.6526 H   0  0  0  0  0  0  0  0  0  0  0  0
    4.0251   -3.2251   -0.8700 C   0  0  0  0  0  0  0  0  0  0  0  0
    4.1796   -3.5744   -1.9019 H   0  0  0  0  0  0  0  0  0  0  0  0
    2.7774   -3.4152   -0.2604 C   0  0  0  0  0  0  0  0  0  0  0  0
    1.9707   -3.9123   -0.8157 H   0  0  0  0  0  0  0  0  0  0  0  0
    2.5421   -2.9594    1.0532 C   0  0  0  0  0  0  0  0  0  0  0  0
    2.7750    2.9090    3.8051 C   0  0  0  0  0  0  0  0  0  0  0  0
    3.8759    2.8162    3.7323 H   0  0  0  0  0  0  0  0  0  0  0  0
    2.4645    2.6914    4.8557 H   0  0  0  0  0  0  0  0  0  0  0  0
    2.4915    3.9643    3.5750 H   0  0  0  0  0  0  0  0  0  0  0  0
  1 40  1  0  0  0  0
  1  5  1  0  0  0  0
  2 54  1  0  0  0  0
  2  8  1  0  0  0  0
  3 28  1  0  0  0  0
  3 11  1  0  0  0  0
  4 68  1  0  0  0  0
  5  6  1  0  0  0  0
  5 14  1  0  0  0  0
  7  5  1  0  0  0  0
  8  9  1  0  0  0  0
 10  8  1  0  0  0  0
 11 12  1  0  0  0  0
 11 13  1  0  0  0  0
 14 11  1  0  0  0  0
 14  8  1  0  0  0  0
 14 15  1  0  0  0  0
 15  4  1  0  0  0  0
 15 17  1  0  0  0  0
 16 15  1  0  0  0  0
 18 19  1  0  0  0  0
 18 20  1  0  0  0  0
 20 21  1  0  0  0  0
 22 23  1  0  0  0  0
 22 20  2  0  0  0  0
 24 22  1  0  0  0  0
 25 24  1  0  0  0  0
 26 24  2  0  0  0  0
 26 28  1  0  0  0  0
 27 26  1  0  0  0  0
 28 18  2  0  0  0  0
 29 39  1  0  0  0  0
 30 29  1  0  0  0  0
 31 29  2  0  0  0  0
 31 33  1  0  0  0  0
 32 31  1  0  0  0  0
 33 35  2  0  0  0  0
 34 33  1  0  0  0  0
 35 37  1  0  0  0  0
 35 36  1  0  0  0  0
 37 38  1  0  0  0  0
 39 37  2  0  0  0  0
 39  3  1  0  0  0  0
 40 53  1  0  0  0  0
 40 41  1  0  0  0  0
 42 40  1  0  0  0  0
 43 45  2  0  0  0  0
 43 53  1  0  0  0  0
 44 43  1  0  0  0  0
 45 47  1  0  0  0  0
 46 45  1  0  0  0  0
 47 48  1  0  0  0  0
 47 49  2  0  0  0  0
 49 50  1  0  0  0  0
 51 49  1  0  0  0  0
 51 52  1  0  0  0  0
 53 51  2  0  0  0  0
 54 55  1  0  0  0  0
 56 54  1  0  0  0  0
 57 58  1  0  0  0  0
 59 60  1  0  0  0  0
 59 57  1  0  0  0  0
 61 59  2  0  0  0  0
 62 61  1  0  0  0  0
 63 65  2  0  0  0  0
 63 61  1  0  0  0  0
 64 63  1  0  0  0  0
 65 67  1  0  0  0  0
 66 65  1  0  0  0  0
 67 54  1  0  0  0  0
 67 57  2  0  0  0  0
 68 70  1  0  0  0  0
 69 68  1  0  0  0  0
 71 68  1  0  0  0  0
M  END
