1,2,4
 OpenBabel05122313063D

 40 42  0  0  0  0  0  0  0  0999 V2000
   -0.4130   -0.4537    2.1037 S   0  0  0  0  0  0  0  0  0  0  0  0
    0.0878    2.4530    0.2106 S   0  0  0  0  0  0  0  0  0  0  0  0
   -3.8387   -2.5168    0.1900 S   0  0  0  0  0  0  0  0  0  0  0  0
   -2.1787    0.4370   -0.2686 P   0  0  0  0  0  0  0  0  0  0  0  0
   -2.9613    0.2047    1.3106 N   0  0  0  0  0  0  0  0  0  0  0  0
   -2.5603    2.1698   -0.4723 N   0  0  0  0  0  0  0  0  0  0  0  0
   -3.4312   -0.2006   -1.3209 N   0  0  0  0  0  0  0  0  0  0  0  0
   -4.2450    0.4040    1.7784 C   0  0  0  0  0  0  0  0  0  0  0  0
   -4.2370    0.2181    3.1572 C   0  0  0  0  0  0  0  0  0  0  0  0
   -2.8966   -0.0903    3.5458 C   0  0  0  0  0  0  0  0  0  0  0  0
   -2.1305   -0.0968    2.3832 C   0  0  0  0  0  0  0  0  0  0  0  0
   -0.4412   -2.2768    2.2975 C   0  0  0  0  0  0  0  0  0  0  0  0
   -3.7245    2.8864   -0.6883 C   0  0  0  0  0  0  0  0  0  0  0  0
   -3.4330    4.2400   -0.5562 C   0  0  0  0  0  0  0  0  0  0  0  0
   -2.0441    4.3569   -0.2409 C   0  0  0  0  0  0  0  0  0  0  0  0
   -1.5348    3.0637   -0.1812 C   0  0  0  0  0  0  0  0  0  0  0  0
    0.1743    2.8488    2.0035 C   0  0  0  0  0  0  0  0  0  0  0  0
   -3.6931    0.3149   -2.5938 C   0  0  0  0  0  0  0  0  0  0  0  0
   -4.4709   -0.5993   -3.2819 C   0  0  0  0  0  0  0  0  0  0  0  0
   -4.6914   -1.7163   -2.4201 C   0  0  0  0  0  0  0  0  0  0  0  0
   -4.0186   -1.4740   -1.2256 C   0  0  0  0  0  0  0  0  0  0  0  0
   -3.3268   -4.0775   -0.6133 C   0  0  0  0  0  0  0  0  0  0  0  0
   -5.0571    0.6701    1.0942 H   0  0  0  0  0  0  0  0  0  0  0  0
   -5.1075    0.3025    3.8185 H   0  0  0  0  0  0  0  0  0  0  0  0
   -2.5267   -0.2971    4.5564 H   0  0  0  0  0  0  0  0  0  0  0  0
   -0.6546   -2.5171    3.3554 H   0  0  0  0  0  0  0  0  0  0  0  0
    0.5622   -2.6436    2.0146 H   0  0  0  0  0  0  0  0  0  0  0  0
   -1.2135   -2.6915    1.6246 H   0  0  0  0  0  0  0  0  0  0  0  0
   -4.6570    2.3772   -0.9523 H   0  0  0  0  0  0  0  0  0  0  0  0
   -4.1450    5.0626   -0.6933 H   0  0  0  0  0  0  0  0  0  0  0  0
   -1.4729    5.2775   -0.0767 H   0  0  0  0  0  0  0  0  0  0  0  0
    0.0804    3.9427    2.1339 H   0  0  0  0  0  0  0  0  0  0  0  0
    1.1789    2.5198    2.3322 H   0  0  0  0  0  0  0  0  0  0  0  0
   -0.6125    2.3171    2.5711 H   0  0  0  0  0  0  0  0  0  0  0  0
   -3.2917    1.2875   -2.8938 H   0  0  0  0  0  0  0  0  0  0  0  0
   -4.8545   -0.4686   -4.3002 H   0  0  0  0  0  0  0  0  0  0  0  0
   -5.2826   -2.6126   -2.6381 H   0  0  0  0  0  0  0  0  0  0  0  0
   -3.1735   -4.7979    0.2142 H   0  0  0  0  0  0  0  0  0  0  0  0
   -2.3756   -3.9299   -1.1577 H   0  0  0  0  0  0  0  0  0  0  0  0
   -4.1182   -4.4661   -1.2817 H   0  0  0  0  0  0  0  0  0  0  0  0
  1 12  1  0  0  0  0
  1 11  1  0  0  0  0
  2 17  1  0  0  0  0
  4  5  1  0  0  0  0
  5  8  1  0  0  0  0
  5 11  1  0  0  0  0
  6  4  1  0  0  0  0
  6 16  1  0  0  0  0
  7 21  1  0  0  0  0
  7  4  1  0  0  0  0
  8  9  2  0  0  0  0
  9 10  1  0  0  0  0
  9 24  1  0  0  0  0
 10 25  1  0  0  0  0
 11 10  2  0  0  0  0
 12 26  1  0  0  0  0
 13 14  2  0  0  0  0
 13  6  1  0  0  0  0
 14 15  1  0  0  0  0
 15 16  2  0  0  0  0
 15 31  1  0  0  0  0
 16  2  1  0  0  0  0
 17 32  1  0  0  0  0
 17 33  1  0  0  0  0
 17 34  1  0  0  0  0
 18  7  1  0  0  0  0
 19 18  2  0  0  0  0
 19 20  1  0  0  0  0
 20 21  2  0  0  0  0
 21  3  1  0  0  0  0
 22  3  1  0  0  0  0
 22 38  1  0  0  0  0
 23  8  1  0  0  0  0
 27 12  1  0  0  0  0
 28 12  1  0  0  0  0
 29 13  1  0  0  0  0
 30 14  1  0  0  0  0
 35 18  1  0  0  0  0
 36 19  1  0  0  0  0
 37 20  1  0  0  0  0
 39 22  1  0  0  0  0
 40 22  1  0  0  0  0
M  END
