1,2,3
q = -1.0, confidence = 0.0

 34 34  0  0  0  0  0  0  0  0999 V2000
    1.5834    0.0019    1.6408 S   0  0  0  0  0  1  0  0  0  0  0  0
    1.5902    0.0558   -1.5649 S   0  0  0  0  0  1  0  0  0  0  0  0
    2.5924   -0.7474    0.0245 P   0  0  0  0  0  4  0  0  0  0  0  0
    8.4329    0.5964    0.1145 O   0  0  0  0  0  0  0  0  0  0  0  0
    2.4563   -2.5882   -0.0253 C   0  0  0  0  0  0  0  0  0  0  0  0
    2.9006   -2.8830   -1.0012 H   0  0  0  0  0  0  0  0  0  0  0  0
    3.1042   -2.9982    0.7775 H   0  0  0  0  0  0  0  0  0  0  0  0
    4.3712   -0.3649    0.0121 C   0  0  0  0  0  0  0  0  0  0  0  0
    7.1047    0.3347    0.0316 C   0  0  0  0  0  0  0  0  0  0  0  0
    1.0036   -3.0461    0.1014 C   0  0  0  0  0  0  0  0  0  0  0  0
    0.6660   -2.8886    1.1482 H   0  0  0  0  0  0  0  0  0  0  0  0
    0.3700   -2.3698   -0.5178 H   0  0  0  0  0  0  0  0  0  0  0  0
    5.2636   -0.9957    0.9095 C   0  0  0  0  0  0  0  0  0  0  0  0
    4.8997   -1.7574    1.6165 H   0  0  0  0  0  0  0  0  0  0  0  0
    6.2170    0.9759   -0.8589 C   0  0  0  0  0  0  0  0  0  0  0  0
    6.5707    1.7499   -1.5526 H   0  0  0  0  0  0  0  0  0  0  0  0
    4.8594    0.6269   -0.8555 C   0  0  0  0  0  0  0  0  0  0  0  0
    4.1555    1.1318   -1.5368 H   0  0  0  0  0  0  0  0  0  0  0  0
    6.6142   -0.6524    0.9187 C   0  0  0  0  0  0  0  0  0  0  0  0
    7.3240   -1.1315    1.6082 H   0  0  0  0  0  0  0  0  0  0  0  0
    8.9848    1.5803   -0.7431 C   0  0  0  0  0  0  0  0  0  0  0  0
   10.0639    1.6287   -0.5080 H   0  0  0  0  0  0  0  0  0  0  0  0
    8.5308    2.5813   -0.5696 H   0  0  0  0  0  0  0  0  0  0  0  0
    8.8592    1.3113   -1.8155 H   0  0  0  0  0  0  0  0  0  0  0  0
    0.7322   -4.4993   -0.3194 C   0  0  0  0  0  0  0  0  0  0  0  0
    1.0730   -4.6100   -1.3753 H   0  0  0  0  0  0  0  0  0  0  0  0
   -0.7778   -4.7655   -0.2802 C   0  0  0  0  0  0  0  0  0  0  0  0
   -1.3281   -4.0369   -0.9097 H   0  0  0  0  0  0  0  0  0  0  0  0
   -1.1667   -4.6645    0.7553 H   0  0  0  0  0  0  0  0  0  0  0  0
   -1.0215   -5.7877   -0.6353 H   0  0  0  0  0  0  0  0  0  0  0  0
    1.5017   -5.5123    0.5365 C   0  0  0  0  0  0  0  0  0  0  0  0
    2.5996   -5.3708    0.4658 H   0  0  0  0  0  0  0  0  0  0  0  0
    1.2815   -6.5536    0.2238 H   0  0  0  0  0  0  0  0  0  0  0  0
    1.2181   -5.4169    1.6068 H   0  0  0  0  0  0  0  0  0  0  0  0
  2  3  1  0  0  0  0
  3  1  1  0  0  0  0
  5  3  1  0  0  0  0
  5 10  1  0  0  0  0
  5  7  1  0  0  0  0
  6  5  1  0  0  0  0
  8  3  1  0  0  0  0
  8 13  1  0  0  0  0
  9  4  1  0  0  0  0
  9 19  1  0  0  0  0
 10 11  1  0  0  0  0
 12 10  1  0  0  0  0
 13 19  2  0  0  0  0
 13 14  1  0  0  0  0
 15 17  1  0  0  0  0
 15  9  2  0  0  0  0
 16 15  1  0  0  0  0
 17  8  2  0  0  0  0
 18 17  1  0  0  0  0
 19 20  1  0  0  0  0
 21 23  1  0  0  0  0
 21 22  1  0  0  0  0
 21  4  1  0  0  0  0
 24 21  1  0  0  0  0
 25 27  1  0  0  0  0
 25 10  1  0  0  0  0
 25 31  1  0  0  0  0
 26 25  1  0  0  0  0
 27 29  1  0  0  0  0
 28 27  1  0  0  0  0
 30 27  1  0  0  0  0
 31 34  1  0  0  0  0
 32 31  1  0  0  0  0
 33 31  1  0  0  0  0
M  END
