1,3
q = -1.0

 20 21  0  0  0  0  0  0  0  0999 V2000
   -0.4046   -1.8388    1.1036 O   0  5  0  0  0  0  0  0  0  0  0  0
   -0.9284   -3.9157    0.4143 O   0  0  0  0  0  0  0  0  0  0  0  0
    1.7535   -0.5432   -0.3500 N   0  0  0  0  0  2  0  0  0  0  0  0
    3.9124   -1.0371   -0.6924 N   0  0  0  0  0  0  0  0  0  0  0  0
    1.8421   -1.8513   -0.7780 C   0  0  0  0  0  0  0  0  0  0  0  0
    3.1779   -2.1727   -0.9982 C   0  0  0  0  0  0  0  0  0  0  0  0
    3.6520   -3.0957   -1.3434 H   0  0  0  0  0  0  0  0  0  0  0  0
    5.2665   -0.7978   -0.7318 C   0  0  0  0  0  3  0  0  0  0  0  0
    5.9006   -1.6308   -1.0635 H   0  0  0  0  0  0  0  0  0  0  0  0
    5.7431    0.4421   -0.3578 C   0  0  0  0  0  0  0  0  0  0  0  0
    6.8259    0.6239   -0.3920 H   0  0  0  0  0  0  0  0  0  0  0  0
    4.8462    1.4625    0.0704 C   0  0  0  0  0  0  0  0  0  0  0  0
    5.2409    2.4427    0.3739 H   0  0  0  0  0  0  0  0  0  0  0  0
    3.4790    1.2253    0.1092 C   0  0  0  0  0  0  0  0  0  0  0  0
    2.7343    1.9641    0.4431 H   0  0  0  0  0  0  0  0  0  0  0  0
    3.0033   -0.0447   -0.2850 C   0  0  0  0  0  0  0  0  0  0  0  0
    0.6286   -2.6960   -0.9425 C   0  0  0  0  0  0  0  0  0  0  0  0
    0.8930   -3.7049   -1.3064 H   0  0  0  0  0  0  0  0  0  0  0  0
   -0.0259   -2.2331   -1.7153 H   0  0  0  0  0  0  0  0  0  0  0  0
   -0.3015   -2.8631    0.3134 C   0  0  0  0  0  0  0  0  0  0  0  0
  3 16  1  0  0  0  0
  4 16  1  0  0  0  0
  5  3  1  0  0  0  0
  6  5  2  0  0  0  0
  6  4  1  0  0  0  0
  7  6  1  0  0  0  0
  8  4  1  0  0  0  0
  8 10  1  0  0  0  0
  9  8  1  0  0  0  0
 10 12  2  0  0  0  0
 11 10  1  0  0  0  0
 12 14  1  0  0  0  0
 12 13  1  0  0  0  0
 14 15  1  0  0  0  0
 16 14  2  0  0  0  0
 17  5  1  0  0  0  0
 17 20  1  0  0  0  0
 18 17  1  0  0  0  0
 19 17  1  0  0  0  0
 20  2  2  0  0  0  0
 20  1  1  0  0  0  0
M  CHG  1   1  -1
M  END
