1,3
q = -1.0, confidence = 0.01

 12 11  0  0  1  0  0  0  0  0999 V2000
   -1.0495   -1.4208   -0.1437 O   0  5  0  0  0  0  0  0  0  0  0  0
   -3.2924   -1.5862    0.0269 O   0  0  0  0  0  0  0  0  0  0  0  0
   -1.1173    1.2642   -0.2005 N   0  0  0  0  0  0  0  0  0  0  0  0
   -0.8799    2.1680    0.2406 H   0  0  0  0  0  0  0  0  0  0  0  0
   -1.2837    1.4571   -1.2014 H   0  0  0  0  0  0  0  0  0  0  0  0
   -2.2416   -0.9397    0.0523 C   0  0  0  0  0  0  0  0  0  0  0  0
   -2.3006    0.5894    0.3949 C   0  0  2  0  0  0  0  0  0  0  0  0
   -2.1550    0.6446    1.4950 H   0  0  0  0  0  0  0  0  0  0  0  0
   -3.6290    1.2197    0.0014 C   0  0  0  0  0  0  0  0  0  0  0  0
   -4.4433    0.5766    0.3868 H   0  0  0  0  0  0  0  0  0  0  0  0
   -3.7378    1.2491   -1.1038 H   0  0  0  0  0  0  0  0  0  0  0  0
   -3.7433    2.2511    0.3964 H   0  0  0  0  0  0  0  0  0  0  0  0
  1  6  1  0  0  0  0
  2  6  2  0  0  0  0
  3  4  1  0  0  0  0
  3  7  1  0  0  0  0
  5  3  1  0  0  0  0
  6  7  1  0  0  0  0
  7  8  1  1  0  0  0
  9 10  1  0  0  0  0
  9  7  1  0  0  0  0
  9 12  1  0  0  0  0
 11  9  1  0  0  0  0
M  CHG  1   1  -1
M  END
