2,3
q = -1.0

 32 33  0  0  1  0  0  0  0  0999 V2000
   -6.5106   -2.0744   -0.7835 F   0  0  0  0  0  0  0  0  0  0  0  0
   -1.2799    0.4187    0.5066 O   0  5  0  0  0  0  0  0  0  0  0  0
    0.9786   -1.2871   -0.1507 N   0  0  0  0  0  2  0  0  0  0  0  0
   -3.4170   -0.5233    0.3742 C   0  0  0  0  0  0  0  0  0  0  0  0
    0.0126   -2.2007   -0.2168 C   0  0  1  0  0  3  0  0  0  0  0  0
    3.2151   -1.8714    0.6578 C   0  0  0  0  0  0  0  0  0  0  0  0
    2.8206   -1.7583    1.6795 H   0  0  0  0  0  0  0  0  0  0  0  0
    2.3269   -1.6601   -0.4179 C   0  0  0  0  0  0  0  0  0  0  0  0
   -1.9297   -0.6742    0.2901 C   0  0  0  0  0  0  0  0  0  0  0  0
   -1.3627   -1.9221   -0.0024 C   0  0  0  0  0  0  0  0  0  0  0  0
   -2.0431   -2.7776   -0.0802 H   0  0  0  0  0  0  0  0  0  0  0  0
    4.5596   -2.1727    0.4020 C   0  0  0  0  0  0  0  0  0  0  0  0
    5.2488   -2.3348    1.2452 H   0  0  0  0  0  0  0  0  0  0  0  0
    5.0322   -2.2649   -0.9196 C   0  0  0  0  0  0  0  0  0  0  0  0
    6.0898   -2.4974   -1.1148 H   0  0  0  0  0  0  0  0  0  0  0  0
    0.3833   -3.6327   -0.5431 C   0  0  0  0  0  0  0  0  0  0  0  0
    0.7943   -3.7239   -1.5682 H   0  0  0  0  0  0  0  0  0  0  0  0
   -0.4961   -4.2953   -0.4572 H   0  0  0  0  0  0  0  0  0  0  0  0
    1.1741   -3.9941    0.1443 H   0  0  0  0  0  0  0  0  0  0  0  0
    2.7969   -1.7617   -1.7428 C   0  0  0  0  0  0  0  0  0  0  0  0
    2.0944   -1.5935   -2.5734 H   0  0  0  0  0  0  0  0  0  0  0  0
   -5.3365    0.7395    1.2014 C   0  0  0  0  0  0  0  0  0  0  0  0
   -5.7426    1.5819    1.7816 H   0  0  0  0  0  0  0  0  0  0  0  0
   -5.6779   -1.2184   -0.1581 C   0  0  0  0  0  0  0  0  0  0  0  0
    4.1465   -2.0603   -1.9896 C   0  0  0  0  0  0  0  0  0  0  0  0
    4.5082   -2.1318   -3.0269 H   0  0  0  0  0  0  0  0  0  0  0  0
   -3.9503    0.5627    1.1035 C   0  0  0  0  0  0  0  0  0  0  0  0
   -3.2517    1.2514    1.5974 H   0  0  0  0  0  0  0  0  0  0  0  0
   -4.2993   -1.4188   -0.2658 C   0  0  0  0  0  0  0  0  0  0  0  0
   -3.9333   -2.2584   -0.8721 H   0  0  0  0  0  0  0  0  0  0  0  0
   -6.2187   -0.1509    0.5696 C   0  0  0  0  0  0  0  0  0  0  0  0
   -7.3102   -0.0335    0.6271 H   0  0  0  0  0  0  0  0  0  0  0  0
  1 24  1  0  0  0  0
  4 27  1  0  0  0  0
  5  3  1  6  0  0  0
  5 10  1  0  0  0  0
  6  7  1  0  0  0  0
  8  3  1  0  0  0  0
  8  6  2  0  0  0  0
  9  4  1  0  0  0  0
  9  2  1  0  0  0  0
 10  9  2  0  0  0  0
 11 10  1  0  0  0  0
 12  6  1  0  0  0  0
 12 13  1  0  0  0  0
 14 12  2  0  0  0  0
 15 14  1  0  0  0  0
 16 18  1  0  0  0  0
 16  5  1  0  0  0  0
 16 19  1  0  0  0  0
 17 16  1  0  0  0  0
 20  8  1  0  0  0  0
 21 20  1  0  0  0  0
 22 23  1  0  0  0  0
 24 31  2  0  0  0  0
 25 20  2  0  0  0  0
 25 14  1  0  0  0  0
 26 25  1  0  0  0  0
 27 22  2  0  0  0  0
 27 28  1  0  0  0  0
 29 24  1  0  0  0  0
 29  4  2  0  0  0  0
 30 29  1  0  0  0  0
 31 32  1  0  0  0  0
 31 22  1  0  0  0  0
M  CHG  1   2  -1
M  END
