1,16
q = -1.0

 17 18  0  0  1  0  0  0  0  0999 V2000
    1.7422    1.1391   -1.6491 O   0  5  0  0  0  0  0  0  0  0  0  0
    1.6225    2.2307   -0.9049 C   0  0  0  0  0  0  0  0  0  0  0  0
    1.0883    3.2188    1.3285 C   0  0  0  0  0  0  0  0  0  0  0  0
    1.8690    3.5198   -1.3944 C   0  0  0  0  0  0  0  0  0  0  0  0
    2.1666    3.6370   -2.4460 H   0  0  0  0  0  0  0  0  0  0  0  0
    0.6302    0.5886    2.1400 C   0  0  0  0  0  0  0  0  0  0  0  0
    0.4526   -0.4613    2.4277 H   0  0  0  0  0  0  0  0  0  0  0  0
    0.4512    1.6451    3.0719 C   0  0  0  0  0  0  0  0  0  0  0  0
    0.1320    1.4162    4.0990 H   0  0  0  0  0  0  0  0  0  0  0  0
    1.3498    4.5126    0.7919 C   0  0  0  0  0  0  0  0  0  0  0  0
    1.2411    5.3973    1.4368 H   0  0  0  0  0  0  0  0  0  0  0  0
    1.7314    4.6428   -0.5405 C   0  0  0  0  0  0  0  0  0  0  0  0
    1.9295    5.6449   -0.9507 H   0  0  0  0  0  0  0  0  0  0  0  0
    0.6821    2.9534    2.6675 C   0  0  0  0  0  0  0  0  0  0  0  0
    0.5515    3.7923    3.3692 H   0  0  0  0  0  0  0  0  0  0  0  0
    1.0065    0.8038    0.8858 N   0  0  0  0  0  2  0  0  0  0  0  0
    1.2294    2.0782    0.4720 C   0  0  1  0  0  3  0  0  0  0  0  0
  1  2  1  0  0  0  0
  3 14  2  0  0  0  0
  4  2  2  0  0  0  0
  4 12  1  0  0  0  0
  5  4  1  0  0  0  0
  6  7  1  0  0  0  0
  6  8  2  0  0  0  0
  8  9  1  0  0  0  0
 10  3  1  0  0  0  0
 10 11  1  0  0  0  0
 12 10  2  0  0  0  0
 13 12  1  0  0  0  0
 14  8  1  0  0  0  0
 14 15  1  0  0  0  0
 16  6  1  0  0  0  0
 17  2  1  6  0  0  0
 17 16  1  0  0  0  0
 17  3  1  0  0  0  0
M  CHG  1   1  -1
M  END
