1,2
q = -1.0

 15 14  0  0  1  0  0  0  0  0999 V2000
   -1.3013    1.4604    0.0859 O   0  5  0  0  0  0  0  0  0  0  0  0
   -1.3255   -1.4263   -0.0772 N   0  0  0  0  0  2  0  0  0  0  0  0
   -1.0658   -2.4207   -0.1289 H   0  0  0  0  0  0  0  0  0  0  0  0
   -3.5538   -2.4372   -0.1532 C   0  0  0  0  0  0  0  0  0  0  0  0
   -2.9977   -3.3860   -0.0221 H   0  0  0  0  0  0  0  0  0  0  0  0
   -4.0548   -2.4644   -1.1433 H   0  0  0  0  0  0  0  0  0  0  0  0
   -4.3526   -2.3893    0.6131 H   0  0  0  0  0  0  0  0  0  0  0  0
   -2.6420   -1.2342   -0.0592 C   0  0  2  0  0  3  0  0  0  0  0  0
   -3.2470    0.0479    0.0172 C   0  0  0  0  0  0  0  0  0  0  0  0
   -4.3452    0.0730    0.0223 H   0  0  0  0  0  0  0  0  0  0  0  0
   -2.5834    1.2834    0.0770 C   0  0  0  0  0  0  0  0  0  0  0  0
   -3.3815    2.5651    0.1415 C   0  0  0  0  0  0  0  0  0  0  0  0
   -3.1111    3.1228    1.0617 H   0  0  0  0  0  0  0  0  0  0  0  0
   -4.4731    2.3916    0.1293 H   0  0  0  0  0  0  0  0  0  0  0  0
   -3.1056    3.2149   -0.7143 H   0  0  0  0  0  0  0  0  0  0  0  0
  3  2  1  0  0  0  0
  4  8  1  0  0  0  0
  4  5  1  0  0  0  0
  4  7  1  0  0  0  0
  6  4  1  0  0  0  0
  8  2  1  6  0  0  0
  8  9  1  0  0  0  0
  9 10  1  0  0  0  0
  9 11  2  0  0  0  0
 11  1  1  0  0  0  0
 11 12  1  0  0  0  0
 12 13  1  0  0  0  0
 14 12  1  0  0  0  0
 15 12  1  0  0  0  0
M  CHG  1   1  -1
M  END
