1,3
q = -1.0

 16 16  0  0  1  0  0  0  0  0999 V2000
    2.5374    1.6661    0.4507 O   0  5  0  0  0  0  0  0  0  0  0  0
    4.5842    2.6002    0.5790 O   0  0  0  0  0  0  0  0  0  0  0  0
    3.5669   -0.7900   -0.0470 N   0  0  0  0  0  0  0  0  0  0  0  0
    3.6700   -1.7185    0.3856 H   0  0  0  0  0  0  0  0  0  0  0  0
    3.8384    1.6267    0.5444 C   0  0  0  0  0  0  0  0  0  0  0  0
    4.4408    0.1906    0.6677 C   0  0  2  0  0  0  0  0  0  0  0  0
    4.4252   -0.0535    1.7496 H   0  0  0  0  0  0  0  0  0  0  0  0
    5.8461    0.0671    0.0338 C   0  0  0  0  0  0  0  0  0  0  0  0
    6.1879    1.0898   -0.2216 H   0  0  0  0  0  0  0  0  0  0  0  0
    6.5849   -0.3603    0.7385 H   0  0  0  0  0  0  0  0  0  0  0  0
    5.6528   -0.8401   -1.2071 C   0  0  0  0  0  0  0  0  0  0  0  0
    6.0153   -1.8706   -1.0069 H   0  0  0  0  0  0  0  0  0  0  0  0
    6.1941   -0.4732   -2.1007 H   0  0  0  0  0  0  0  0  0  0  0  0
    4.1328   -0.8576   -1.4216 C   0  0  0  0  0  0  0  0  0  0  0  0
    3.7938    0.0475   -1.9652 H   0  0  0  0  0  0  0  0  0  0  0  0
    3.7333   -1.7442   -1.9501 H   0  0  0  0  0  0  0  0  0  0  0  0
  1  5  1  0  0  0  0
  3  4  1  0  0  0  0
  3  6  1  0  0  0  0
  5  2  2  0  0  0  0
  5  6  1  0  0  0  0
  6  7  1  1  0  0  0
  8  6  1  0  0  0  0
  8 10  1  0  0  0  0
  9  8  1  0  0  0  0
 11 12  1  0  0  0  0
 11  8  1  0  0  0  0
 13 11  1  0  0  0  0
 14 11  1  0  0  0  0
 14  3  1  0  0  0  0
 15 14  1  0  0  0  0
 16 14  1  0  0  0  0
M  CHG  1   1  -1
M  END
