2,6
q = -1.0, confidence = 0.002

 18 18  0  0  0  0  0  0  0  0999 V2000
    7.1037   -1.1561   -0.3611 Cl  0  0  0  0  0  0  0  0  0  0  0  0
    1.6907    0.7950    0.9447 O   0  5  0  0  0  0  0  0  0  0  0  0
    4.0041    0.7416    1.3844 C   0  0  0  0  0  0  0  0  0  0  0  0
    3.8229    1.4243    2.2266 H   0  0  0  0  0  0  0  0  0  0  0  0
    2.8888    0.3492    0.6027 C   0  0  0  0  0  0  0  0  0  0  0  0
    0.7775   -0.6797   -1.2676 N   0  0  0  0  0  2  0  0  0  0  0  0
    5.2892    0.2895    1.0881 C   0  0  0  0  0  0  0  0  0  0  0  0
    6.1484    0.6102    1.6943 H   0  0  0  0  0  0  0  0  0  0  0  0
    4.4134   -1.0042   -0.7733 C   0  0  0  0  0  0  0  0  0  0  0  0
    4.5783   -1.6958   -1.6128 H   0  0  0  0  0  0  0  0  0  0  0  0
    3.1024   -0.5427   -0.4959 C   0  0  0  0  0  0  0  0  0  0  0  0
    5.4944   -0.5881    0.0023 C   0  0  0  0  0  0  0  0  0  0  0  0
    2.0180   -1.0505   -1.3151 C   0  0  0  0  0  3  0  0  0  0  0  0
    2.3082   -1.8445   -2.0400 H   0  0  0  0  0  0  0  0  0  0  0  0
   -0.1683   -1.3461   -2.1444 C   0  0  0  0  0  0  0  0  0  0  0  0
    0.3171   -2.1310   -2.7644 H   0  0  0  0  0  0  0  0  0  0  0  0
   -0.6570   -0.6000   -2.8016 H   0  0  0  0  0  0  0  0  0  0  0  0
   -0.9757   -1.8091   -1.5402 H   0  0  0  0  0  0  0  0  0  0  0  0
  1 12  1  0  0  0  0
  3  4  1  0  0  0  0
  5  2  1  0  0  0  0
  5  3  2  0  0  0  0
  7  3  1  0  0  0  0
  7  8  1  0  0  0  0
  9 11  2  0  0  0  0
  9 12  1  0  0  0  0
 10  9  1  0  0  0  0
 11  5  1  0  0  0  0
 12  7  2  0  0  0  0
 13  6  1  0  0  0  0
 13 11  1  0  0  0  0
 14 13  1  0  0  0  0
 15 18  1  0  0  0  0
 15  6  1  0  0  0  0
 16 15  1  0  0  0  0
 17 15  1  0  0  0  0
M  CHG  1   2  -1
M  END
