2,3
q = -1.0, confidence = 0.004

 18 18  0  0  0  0  0  0  0  0999 V2000
   -7.2561   -1.0350   -0.2318 Br  0  0  0  0  0  0  0  0  0  0  0  0
   -1.6689    0.9609    0.9835 O   0  5  0  0  0  0  0  0  0  0  0  0
   -0.8064   -0.5133   -1.2498 N   0  0  0  0  0  2  0  0  0  0  0  0
   -2.8745    0.5168    0.6684 C   0  0  0  0  0  0  0  0  0  0  0  0
   -3.9715    0.9100    1.4751 C   0  0  0  0  0  0  0  0  0  0  0  0
   -3.7712    1.5922    2.3133 H   0  0  0  0  0  0  0  0  0  0  0  0
   -5.2639    0.4592    1.2074 C   0  0  0  0  0  0  0  0  0  0  0  0
   -6.1052    0.7840    1.8363 H   0  0  0  0  0  0  0  0  0  0  0  0
   -5.4928   -0.4175    0.1261 C   0  0  0  0  0  0  0  0  0  0  0  0
   -4.4308   -0.8347   -0.6742 C   0  0  0  0  0  0  0  0  0  0  0  0
   -4.6088   -1.5258   -1.5116 H   0  0  0  0  0  0  0  0  0  0  0  0
   -3.1131   -0.3742   -0.4257 C   0  0  0  0  0  0  0  0  0  0  0  0
   -2.0480   -0.8828   -1.2696 C   0  0  0  0  0  3  0  0  0  0  0  0
   -2.3554   -1.6761   -1.9881 H   0  0  0  0  0  0  0  0  0  0  0  0
    0.1188   -1.1802   -2.1480 C   0  0  0  0  0  0  0  0  0  0  0  0
   -0.3812   -1.9642   -2.7574 H   0  0  0  0  0  0  0  0  0  0  0  0
    0.9390   -1.6445   -1.5621 H   0  0  0  0  0  0  0  0  0  0  0  0
    0.5935   -0.4343   -2.8156 H   0  0  0  0  0  0  0  0  0  0  0  0
  1  9  1  0  0  0  0
  4  2  1  0  0  0  0
  4  5  1  0  0  0  0
  5  6  1  0  0  0  0
  7  5  2  0  0  0  0
  7  8  1  0  0  0  0
  9  7  1  0  0  0  0
 10 12  1  0  0  0  0
 10  9  2  0  0  0  0
 11 10  1  0  0  0  0
 12  4  2  0  0  0  0
 13  3  1  0  0  0  0
 13 12  1  0  0  0  0
 14 13  1  0  0  0  0
 15 17  1  0  0  0  0
 15  3  1  0  0  0  0
 16 15  1  0  0  0  0
 18 15  1  0  0  0  0
M  CHG  1   2  -1
M  END
