1,2
q = -1.0

 18 18  0  0  0  0  0  0  0  0999 V2000
    1.9945   -0.8784    0.8097 O   0  5  0  0  0  0  0  0  0  0  0  0
    0.4619   -0.7646   -1.6557 N   0  0  0  0  0  2  0  0  0  0  0  0
    2.9890   -1.1457    0.0102 C   0  0  0  0  0  0  0  0  0  0  0  0
    4.2757   -1.3848    0.5888 C   0  0  0  0  0  0  0  0  0  0  0  0
    5.3987   -1.6088   -0.2011 C   0  0  0  0  0  0  0  0  0  0  0  0
    5.3066   -1.6155   -1.6138 C   0  0  0  0  0  0  0  0  0  0  0  0
    4.0653   -1.3974   -2.2019 C   0  0  0  0  0  3  0  0  0  0  0  0
    2.8929   -1.1696   -1.4293 C   0  0  0  0  0  0  0  0  0  0  0  0
    1.6674   -0.9215   -2.1402 C   0  0  0  0  0  0  0  0  0  0  0  0
   -0.5950   -0.4491   -2.6053 C   0  0  0  0  0  0  0  0  0  0  0  0
    4.3398   -1.3704    1.6870 H   0  0  0  0  0  0  0  0  0  0  0  0
    6.3727   -1.7817    0.2840 H   0  0  0  0  0  0  0  0  0  0  0  0
    6.1982   -1.7902   -2.2328 H   0  0  0  0  0  0  0  0  0  0  0  0
    3.9695   -1.3923   -3.3002 H   0  0  0  0  0  0  0  0  0  0  0  0
    1.7698   -0.8599   -3.2433 H   0  0  0  0  0  0  0  0  0  0  0  0
   -1.4864   -1.0748   -2.4145 H   0  0  0  0  0  0  0  0  0  0  0  0
   -0.9021    0.6111   -2.4889 H   0  0  0  0  0  0  0  0  0  0  0  0
   -0.2603   -0.6014   -3.6545 H   0  0  0  0  0  0  0  0  0  0  0  0
  3  4  2  0  0  0  0
  3  1  1  0  0  0  0
  4 11  1  0  0  0  0
  5 12  1  0  0  0  0
  5  4  1  0  0  0  0
  6  5  2  0  0  0  0
  7  6  1  0  0  0  0
  7  8  1  0  0  0  0
  8  3  1  0  0  0  0
  9  2  1  0  0  0  0
  9  8  2  0  0  0  0
 10 17  1  0  0  0  0
 10 16  1  0  0  0  0
 10  2  1  0  0  0  0
 13  6  1  0  0  0  0
 14  7  1  0  0  0  0
 15  9  1  0  0  0  0
 18 10  1  0  0  0  0
M  CHG  1   1  -1
M  END
