2,3
q = -1.0

 17 18  0  0  1  0  0  0  0  0999 V2000
    6.5468   -0.2811   -0.0786 Cl  0  0  0  0  0  0  0  0  0  0  0  0
    0.8461   -0.7658   -1.6689 O   0  5  0  0  0  0  0  0  0  0  0  0
    1.4445    0.3146    0.7517 N   0  0  0  0  0  2  0  0  0  0  0  0
    1.6938    0.8765    1.9393 C   0  0  0  0  0  0  0  0  0  0  0  0
    0.8152    1.1893    2.5246 H   0  0  0  0  0  0  0  0  0  0  0  0
    3.0156    1.0510    2.4144 C   0  0  0  0  0  0  0  0  0  0  0  0
    3.1773    1.5154    3.3977 H   0  0  0  0  0  0  0  0  0  0  0  0
    4.0845    0.6334    1.6352 C   0  0  0  0  0  0  0  0  0  0  0  0
    5.1236    0.7510    1.9757 H   0  0  0  0  0  0  0  0  0  0  0  0
    3.8482    0.0396    0.3619 C   0  0  0  0  0  0  0  0  0  0  0  0
    4.8574   -0.4211   -0.5275 C   0  0  1  0  0  3  0  0  0  0  0  0
    4.5080   -0.9827   -1.7581 C   0  0  0  0  0  0  0  0  0  0  0  0
    5.3111   -1.3303   -2.4246 H   0  0  0  0  0  0  0  0  0  0  0  0
    3.1656   -1.1109   -2.1585 C   0  0  0  0  0  0  0  0  0  0  0  0
    2.9146   -1.5548   -3.1325 H   0  0  0  0  0  0  0  0  0  0  0  0
    2.1014   -0.6786   -1.3308 C   0  0  0  0  0  0  0  0  0  0  0  0
    2.4745   -0.0996   -0.0510 C   0  0  0  0  0  0  0  0  0  0  0  0
  2 16  1  0  0  0  0
  3  4  1  0  0  0  0
  4  6  2  0  0  0  0
  4  5  1  0  0  0  0
  6  7  1  0  0  0  0
  8  9  1  0  0  0  0
  8  6  1  0  0  0  0
 10  8  2  0  0  0  0
 11  1  1  6  0  0  0
 11 10  1  0  0  0  0
 12 11  1  0  0  0  0
 13 12  1  0  0  0  0
 14 12  2  0  0  0  0
 14 16  1  0  0  0  0
 15 14  1  0  0  0  0
 16 17  2  0  0  0  0
 17 10  1  0  0  0  0
 17  3  1  0  0  0  0
M  CHG  1   2  -1
M  END
