1,2
q = 0.0, confidence = 0.996

 21 21  0  0  1  0  0  0  0  0999 V2000
   -0.5451    2.2699   -0.0886 O   0  0  0  0  0  1  0  0  0  0  0  0
    1.2346    0.2729   -0.0970 N   0  0  0  0  0  2  0  0  0  0  0  0
    1.6236    1.5839   -0.2530 N   0  0  0  0  0  0  0  0  0  0  0  0
    2.6210    1.7726   -0.4018 H   0  0  0  0  0  0  0  0  0  0  0  0
    1.0751    3.8399   -0.4739 N   0  0  0  0  0  0  0  0  0  0  0  0
    0.3310    4.5177   -0.6365 H   0  0  0  0  0  0  0  0  0  0  0  0
    1.9780    4.0391   -0.9023 H   0  0  0  0  0  0  0  0  0  0  0  0
    0.6601    2.5542   -0.2821 C   0  0  2  0  0  3  0  0  0  0  0  0
    2.1497   -0.6531    0.0126 C   0  0  0  0  0  3  0  0  0  0  0  0
    1.7208   -1.6778    0.0185 H   0  0  0  0  0  0  0  0  0  0  0  0
    3.6027   -0.4593    0.0610 C   0  0  0  0  0  0  0  0  0  0  0  0
    4.2327    0.5804    0.7946 C   0  0  0  0  0  0  0  0  0  0  0  0
    3.6249    1.2667    1.4046 H   0  0  0  0  0  0  0  0  0  0  0  0
    5.6301    0.6909    0.8158 C   0  0  0  0  0  0  0  0  0  0  0  0
    6.1031    1.4923    1.4036 H   0  0  0  0  0  0  0  0  0  0  0  0
    6.4252   -0.2285    0.1128 C   0  0  0  0  0  0  0  0  0  0  0  0
    7.5216   -0.1372    0.1299 H   0  0  0  0  0  0  0  0  0  0  0  0
    5.8144   -1.2787   -0.5937 C   0  0  0  0  0  0  0  0  0  0  0  0
    6.4326   -2.0135   -1.1313 H   0  0  0  0  0  0  0  0  0  0  0  0
    4.4204   -1.4010   -0.6112 C   0  0  0  0  0  0  0  0  0  0  0  0
    3.9399   -2.2272   -1.1567 H   0  0  0  0  0  0  0  0  0  0  0  0
  2  9  1  0  0  0  0
  3  2  1  0  0  0  0
  4  3  1  0  0  0  0
  5  8  1  0  0  0  0
  6  5  1  0  0  0  0
  7  5  1  0  0  0  0
  8  3  1  0  0  0  0
  8  1  1  1  0  0  0
  9 10  1  0  0  0  0
  9 11  1  0  0  0  0
 11 12  1  0  0  0  0
 12 14  2  0  0  0  0
 12 13  1  0  0  0  0
 14 15  1  0  0  0  0
 16 17  1  0  0  0  0
 16 14  1  0  0  0  0
 18 16  2  0  0  0  0
 19 18  1  0  0  0  0
 20 18  1  0  0  0  0
 20 11  2  0  0  0  0
 21 20  1  0  0  0  0
M  END
