1,3
q = -1.0

 30 30  0  0  0  0  0  0  0  0999 V2000
   -0.5310    2.0721    0.4352 N   0  0  0  0  0  2  0  0  0  0  0  0
   -3.3125   -2.0334   -1.5060 O   0  0  0  0  0  0  0  0  0  0  0  0
   -1.4631   -0.6416   -0.3765 O   0  5  0  0  0  0  0  0  0  0  0  0
   -4.2988   -2.8615   -2.0812 C   0  0  0  0  0  0  0  0  0  0  0  0
   -3.4085   -0.6873   -1.6862 C   0  0  0  0  0  0  0  0  0  0  0  0
   -4.3910   -0.0352   -2.4273 C   0  0  0  0  0  0  0  0  0  0  0  0
   -4.3897    1.3811   -2.5306 C   0  0  0  0  0  0  0  0  0  0  0  0
   -3.4178    2.1190   -1.8779 C   0  0  0  0  0  0  0  0  0  0  0  0
   -2.3971    1.4887   -1.0962 C   0  0  0  0  0  0  0  0  0  0  0  0
   -2.3605    0.0486   -1.0096 C   0  0  0  0  0  0  0  0  0  0  0  0
   -1.4750    2.3689   -0.4218 C   0  0  0  0  0  3  0  0  0  0  0  0
    0.3184    3.1390    0.9281 C   0  0  0  0  0  0  0  0  0  0  0  0
    1.6602    3.2279    0.1026 C   0  0  0  0  0  0  0  0  0  0  0  0
    0.6669    2.9295    2.4015 C   0  0  0  0  0  0  0  0  0  0  0  0
    1.5047    2.9231   -1.2464 O   0  0  0  0  0  0  0  0  0  0  0  0
   -0.4567    2.7751    3.2750 O   0  0  0  0  0  0  0  0  0  0  0  0
    1.6575    1.9439   -1.2931 H   0  0  0  0  0  0  0  0  0  0  0  0
   -1.1217    3.4519    3.0455 H   0  0  0  0  0  0  0  0  0  0  0  0
   -5.3190   -2.6117   -1.7090 H   0  0  0  0  0  0  0  0  0  0  0  0
   -4.0480   -3.8961   -1.7819 H   0  0  0  0  0  0  0  0  0  0  0  0
   -4.3031   -2.7928   -3.1932 H   0  0  0  0  0  0  0  0  0  0  0  0
   -5.1732   -0.6127   -2.9398 H   0  0  0  0  0  0  0  0  0  0  0  0
   -5.1666    1.8814   -3.1264 H   0  0  0  0  0  0  0  0  0  0  0  0
   -3.4168    3.2184   -1.9457 H   0  0  0  0  0  0  0  0  0  0  0  0
   -1.6255    3.4477   -0.6505 H   0  0  0  0  0  0  0  0  0  0  0  0
   -0.2216    4.1116    0.8095 H   0  0  0  0  0  0  0  0  0  0  0  0
    2.4022    2.5496    0.5824 H   0  0  0  0  0  0  0  0  0  0  0  0
    2.0358    4.2709    0.2060 H   0  0  0  0  0  0  0  0  0  0  0  0
    1.2541    1.9913    2.5036 H   0  0  0  0  0  0  0  0  0  0  0  0
    1.3200    3.7637    2.7461 H   0  0  0  0  0  0  0  0  0  0  0  0
  1 12  1  0  0  0  0
  4 20  1  0  0  0  0
  4 19  1  0  0  0  0
  4  2  1  0  0  0  0
  5  2  1  0  0  0  0
  5 10  1  0  0  0  0
  6  5  2  0  0  0  0
  7  6  1  0  0  0  0
  7  8  2  0  0  0  0
  8  9  1  0  0  0  0
  9 10  2  0  0  0  0
  9 11  1  0  0  0  0
 10  3  1  0  0  0  0
 11  1  1  0  0  0  0
 12 14  1  0  0  0  0
 13 28  1  0  0  0  0
 13 27  1  0  0  0  0
 13 12  1  0  0  0  0
 14 29  1  0  0  0  0
 14 30  1  0  0  0  0
 14 16  1  0  0  0  0
 15 13  1  0  0  0  0
 17 15  1  0  0  0  0
 18 16  1  0  0  0  0
 21  4  1  0  0  0  0
 22  6  1  0  0  0  0
 23  7  1  0  0  0  0
 24  8  1  0  0  0  0
 25 11  1  0  0  0  0
 26 12  1  0  0  0  0
M  CHG  1   3  -1
M  END
