3,4
q = -1.0, confidence = 0.028

 31 32  0  0  0  0  0  0  0  0999 V2000
   -2.7531   -2.9353    0.3935 I   0  0  0  0  0  0  0  0  0  0  0  0
   -6.7846    1.6358    0.2354 I   0  0  0  0  0  0  0  0  0  0  0  0
   -0.8521   -0.4208    0.1759 O   0  5  0  0  0  0  0  0  0  0  0  0
   -0.0515    2.2580   -0.1904 N   0  0  0  0  0  2  0  0  0  0  0  0
   -2.0591    0.0345    0.1689 C   0  0  0  0  0  0  0  0  0  0  0  0
   -3.1797   -0.8623    0.2793 C   0  0  0  0  0  0  0  0  0  0  0  0
   -4.4979   -0.4187    0.3012 C   0  0  0  0  0  0  0  0  0  0  0  0
   -5.3210   -1.1411    0.3895 H   0  0  0  0  0  0  0  0  0  0  0  0
   -4.7685    0.9689    0.2020 C   0  0  0  0  0  0  0  0  0  0  0  0
   -3.7305    1.8817    0.0741 C   0  0  0  0  0  3  0  0  0  0  0  0
   -3.9367    2.9588   -0.0139 H   0  0  0  0  0  0  0  0  0  0  0  0
   -2.3777    1.4390    0.0517 C   0  0  0  0  0  0  0  0  0  0  0  0
   -1.3563    2.4312   -0.1256 C   0  0  0  0  0  0  0  0  0  0  0  0
   -1.7231    3.4713   -0.2431 H   0  0  0  0  0  0  0  0  0  0  0  0
    0.7084    3.4439   -0.4721 C   0  0  0  0  0  0  0  0  0  0  0  0
    0.9127    3.8035   -1.8249 C   0  0  0  0  0  0  0  0  0  0  0  0
    1.7318    4.9144   -2.0972 C   0  0  0  0  0  0  0  0  0  0  0  0
    1.9113    5.2001   -3.1456 H   0  0  0  0  0  0  0  0  0  0  0  0
    2.3289    5.6400   -1.0579 C   0  0  0  0  0  0  0  0  0  0  0  0
    2.9808    6.4961   -1.2880 H   0  0  0  0  0  0  0  0  0  0  0  0
    2.0967    5.2742    0.2745 C   0  0  0  0  0  0  0  0  0  0  0  0
    2.5619    5.8450    1.0932 H   0  0  0  0  0  0  0  0  0  0  0  0
    1.2757    4.1775    0.5948 C   0  0  0  0  0  0  0  0  0  0  0  0
    0.9857    3.7965    2.0209 C   0  0  0  0  0  0  0  0  0  0  0  0
    1.0353    2.6995    2.1580 H   0  0  0  0  0  0  0  0  0  0  0  0
   -0.0368    4.1116    2.3217 H   0  0  0  0  0  0  0  0  0  0  0  0
    1.7059    4.2658    2.7171 H   0  0  0  0  0  0  0  0  0  0  0  0
    0.2990    2.9849   -2.9309 C   0  0  0  0  0  0  0  0  0  0  0  0
    0.5252    1.9053   -2.7938 H   0  0  0  0  0  0  0  0  0  0  0  0
    0.6763    3.3022   -3.9215 H   0  0  0  0  0  0  0  0  0  0  0  0
   -0.8084    3.0654   -2.9461 H   0  0  0  0  0  0  0  0  0  0  0  0
  4 13  1  0  0  0  0
  5  3  1  0  0  0  0
  5  6  2  0  0  0  0
  6  7  1  0  0  0  0
  6  1  1  0  0  0  0
  7  8  1  0  0  0  0
  9  2  1  0  0  0  0
  9  7  2  0  0  0  0
 10  9  1  0  0  0  0
 11 10  1  0  0  0  0
 12 10  1  0  0  0  0
 12  5  1  0  0  0  0
 13 12  2  0  0  0  0
 14 13  1  0  0  0  0
 15  4  1  0  0  0  0
 15 23  1  0  0  0  0
 16 15  2  0  0  0  0
 17 16  1  0  0  0  0
 17 19  2  0  0  0  0
 18 17  1  0  0  0  0
 19 21  1  0  0  0  0
 20 19  1  0  0  0  0
 21 23  2  0  0  0  0
 21 22  1  0  0  0  0
 23 24  1  0  0  0  0
 24 25  1  0  0  0  0
 24 26  1  0  0  0  0
 24 27  1  0  0  0  0
 28 29  1  0  0  0  0
 28 16  1  0  0  0  0
 30 28  1  0  0  0  0
 31 28  1  0  0  0  0
M  CHG  1   3  -1
M  END
