1,5
q = -1.0, confidence = 0.01

 24 25  0  0  1  0  0  0  0  0999 V2000
   -1.8578   -0.2509   -0.0099 O   0  5  0  0  0  0  0  0  0  0  0  0
   -2.6216    1.9740    0.0838 N   0  0  0  0  0  0  0  0  0  0  0  0
   -1.2186    3.8610    0.1310 N   0  0  0  0  0  0  0  0  0  0  0  0
   -2.0206    4.4339   -0.1347 H   0  0  0  0  0  0  0  0  0  0  0  0
   -0.2091    1.8575   -0.0578 N   0  0  0  0  0  2  0  0  0  0  0  0
   -2.7798    0.6556    0.0279 C   0  0  0  0  0  0  0  0  0  0  0  0
   -1.3770    2.4907    0.0523 C   0  0  2  0  0  3  0  0  0  0  0  0
    0.1362    4.1915   -0.2965 C   0  0  0  0  0  0  0  0  0  0  0  0
    0.1734    4.4519   -1.3813 H   0  0  0  0  0  0  0  0  0  0  0  0
    0.5636    5.0393    0.2755 H   0  0  0  0  0  0  0  0  0  0  0  0
    0.8658    2.8573   -0.0187 C   0  0  0  0  0  0  0  0  0  0  0  0
    1.3464    2.8549    0.9858 H   0  0  0  0  0  0  0  0  0  0  0  0
    1.6533    2.6266   -0.7595 H   0  0  0  0  0  0  0  0  0  0  0  0
   -4.1853    0.1457    0.0029 C   0  0  0  0  0  0  0  0  0  0  0  0
   -5.2667    1.0396    0.1531 C   0  0  0  0  0  0  0  0  0  0  0  0
   -5.0379    2.1062    0.2854 H   0  0  0  0  0  0  0  0  0  0  0  0
   -6.5839    0.5649    0.1332 C   0  0  0  0  0  0  0  0  0  0  0  0
   -7.4212    1.2691    0.2552 H   0  0  0  0  0  0  0  0  0  0  0  0
   -6.8385   -0.8060   -0.0428 C   0  0  0  0  0  0  0  0  0  0  0  0
   -7.8747   -1.1776   -0.0600 H   0  0  0  0  0  0  0  0  0  0  0  0
   -5.7667   -1.7004   -0.1989 C   0  0  0  0  0  0  0  0  0  0  0  0
   -5.9620   -2.7743   -0.3418 H   0  0  0  0  0  0  0  0  0  0  0  0
   -4.4476   -1.2288   -0.1750 C   0  0  0  0  0  0  0  0  0  0  0  0
   -3.6003   -1.9158   -0.3011 H   0  0  0  0  0  0  0  0  0  0  0  0
  1  6  1  0  0  0  0
  4  3  1  0  0  0  0
  5 11  1  0  0  0  0
  5  7  1  0  0  0  0
  6  2  2  0  0  0  0
  7  2  1  6  0  0  0
  7  3  1  0  0  0  0
  8 11  1  0  0  0  0
  8  3  1  0  0  0  0
  8 10  1  0  0  0  0
  9  8  1  0  0  0  0
 11 12  1  0  0  0  0
 13 11  1  0  0  0  0
 14  6  1  0  0  0  0
 14 15  1  0  0  0  0
 15 16  1  0  0  0  0
 17 15  2  0  0  0  0
 17 18  1  0  0  0  0
 19 17  1  0  0  0  0
 20 19  1  0  0  0  0
 21 23  1  0  0  0  0
 21 19  2  0  0  0  0
 22 21  1  0  0  0  0
 23 14  2  0  0  0  0
 24 23  1  0  0  0  0
M  CHG  1   1  -1
M  END
