1,3
q = -1.0

 16 16  0  0  1  0  0  0  0  0999 V2000
   -0.5012    1.8751   -0.2465 O   0  5  0  0  0  0  0  0  0  0  0  0
   -2.2485    3.2389   -0.7015 O   0  0  0  0  0  0  0  0  0  0  0  0
   -2.1624   -0.2521    0.0447 N   0  0  0  0  0  2  0  0  0  0  0  0
   -2.6990    0.9324   -0.3263 C   0  0  2  0  0  3  0  0  0  0  0  0
   -4.0623    1.0799   -0.6150 C   0  0  0  0  0  0  0  0  0  0  0  0
   -4.8854   -0.0478   -0.5300 C   0  0  0  0  0  0  0  0  0  0  0  0
   -4.3217   -1.2735   -0.1500 C   0  0  0  0  0  0  0  0  0  0  0  0
   -2.9463   -1.3550    0.1429 C   0  0  0  0  0  0  0  0  0  0  0  0
   -1.7613    2.1420   -0.4393 C   0  0  0  0  0  0  0  0  0  0  0  0
   -2.3105   -2.6436    0.5845 C   0  0  0  0  0  0  0  0  0  0  0  0
   -4.4188    2.0784   -0.9033 H   0  0  0  0  0  0  0  0  0  0  0  0
   -5.9599    0.0209   -0.7599 H   0  0  0  0  0  0  0  0  0  0  0  0
   -4.9403   -2.1798   -0.0765 H   0  0  0  0  0  0  0  0  0  0  0  0
   -2.9450   -3.5107    0.3229 H   0  0  0  0  0  0  0  0  0  0  0  0
   -1.3049   -2.7604    0.1301 H   0  0  0  0  0  0  0  0  0  0  0  0
   -2.1885   -2.6625    1.6906 H   0  0  0  0  0  0  0  0  0  0  0  0
  2  9  2  0  0  0  0
  3  8  1  0  0  0  0
  4  9  1  6  0  0  0
  4  3  1  0  0  0  0
  5  6  2  0  0  0  0
  5  4  1  0  0  0  0
  6  7  1  0  0  0  0
  7 13  1  0  0  0  0
  7  8  2  0  0  0  0
  8 10  1  0  0  0  0
  9  1  1  0  0  0  0
 10 16  1  0  0  0  0
 11  5  1  0  0  0  0
 12  6  1  0  0  0  0
 14 10  1  0  0  0  0
 15 10  1  0  0  0  0
M  CHG  1   1  -1
M  END
