1,3
q = 0.0, confidence = 0.97

 44 45  0  0  0  0  0  0  0  0999 V2000
    2.0017   -0.4511   -0.2138 O   0  5  0  0  0  0  0  0  0  0  0  0
    4.5140   -1.0881   -0.3719 O   0  0  0  0  0  0  0  0  0  0  0  0
    0.0013    1.7100    0.0505 N   0  0  0  0  0  2  0  0  0  0  0  0
   -3.2044    0.8152    0.1729 N   0  3  0  0  0  0  0  0  0  0  0  0
    2.4683    1.9296    0.0447 C   0  0  0  0  0  0  0  0  0  0  0  0
    2.8271    0.5349   -0.1227 C   0  0  0  0  0  0  0  0  0  0  0  0
    4.2499    0.2320   -0.2040 C   0  0  0  0  0  0  0  0  0  0  0  0
    5.2096    1.2362   -0.1027 C   0  0  0  0  0  0  0  0  0  0  0  0
    6.2777    0.9841   -0.1562 H   0  0  0  0  0  0  0  0  0  0  0  0
    4.8296    2.5955    0.0710 C   0  0  0  0  0  0  0  0  0  0  0  0
    5.6070    3.3695    0.1464 H   0  0  0  0  0  0  0  0  0  0  0  0
    3.4921    2.9299    0.1389 C   0  0  0  0  0  0  0  0  0  0  0  0
    3.1846    3.9803    0.2651 H   0  0  0  0  0  0  0  0  0  0  0  0
    1.1164    2.4013    0.0830 C   0  0  0  0  0  3  0  0  0  0  0  0
    1.0211    3.5112    0.1358 H   0  0  0  0  0  0  0  0  0  0  0  0
   -1.2485    2.4438   -0.0147 C   0  0  0  0  0  0  0  0  0  0  0  0
   -1.5916    2.4845   -1.0747 H   0  0  0  0  0  0  0  0  0  0  0  0
   -1.0965    3.5029    0.2971 H   0  0  0  0  0  0  0  0  0  0  0  0
   -2.3513    1.8417    0.8662 C   0  0  0  0  0  0  0  0  0  0  0  0
   -1.8876    1.3304    1.7354 H   0  0  0  0  0  0  0  0  0  0  0  0
   -3.0427    2.6279    1.2305 H   0  0  0  0  0  0  0  0  0  0  0  0
   -4.1398    1.4212   -0.8341 C   0  0  0  0  0  0  0  0  0  0  0  0
   -4.8011    2.1154   -0.2725 H   0  0  0  0  0  0  0  0  0  0  0  0
   -3.5283    2.0162   -1.5389 H   0  0  0  0  0  0  0  0  0  0  0  0
   -4.9402    0.3488   -1.5685 C   0  0  0  0  0  0  0  0  0  0  0  0
   -5.6318    0.8578   -2.2702 H   0  0  0  0  0  0  0  0  0  0  0  0
   -4.2378   -0.2531   -2.1828 H   0  0  0  0  0  0  0  0  0  0  0  0
   -5.6962   -0.5597   -0.5933 C   0  0  0  0  0  0  0  0  0  0  0  0
   -6.2077   -1.3726   -1.1468 H   0  0  0  0  0  0  0  0  0  0  0  0
   -6.4918    0.0229   -0.0764 H   0  0  0  0  0  0  0  0  0  0  0  0
   -4.7267   -1.1393    0.4418 C   0  0  0  0  0  0  0  0  0  0  0  0
   -5.2595   -1.7399    1.2061 H   0  0  0  0  0  0  0  0  0  0  0  0
   -3.9982   -1.8200   -0.0491 H   0  0  0  0  0  0  0  0  0  0  0  0
   -3.9477   -0.0451    1.1609 C   0  0  0  0  0  0  0  0  0  0  0  0
   -4.6141    0.6341    1.7351 H   0  0  0  0  0  0  0  0  0  0  0  0
   -3.1740   -0.4705    1.8341 H   0  0  0  0  0  0  0  0  0  0  0  0
    5.8691   -1.5041   -0.4489 C   0  0  0  0  0  0  0  0  0  0  0  0
    6.4134   -1.2073    0.4798 H   0  0  0  0  0  0  0  0  0  0  0  0
    6.3788   -0.9931   -1.3009 H   0  0  0  0  0  0  0  0  0  0  0  0
    5.8859   -3.0105   -0.6301 C   0  0  0  0  0  0  0  0  0  0  0  0
    5.3857   -3.5106    0.2224 H   0  0  0  0  0  0  0  0  0  0  0  0
    6.9285   -3.3798   -0.6945 H   0  0  0  0  0  0  0  0  0  0  0  0
    5.3516   -3.2974   -1.5570 H   0  0  0  0  0  0  0  0  0  0  0  0
   -2.5534    0.1576   -0.3925 H   0  0  0  0  0  0  0  0  0  0  0  0
  1  6  1  0  0  0  0
  2  7  1  0  0  0  0
  3 14  1  0  0  0  0
  4 19  1  0  0  0  0
  4 34  1  0  0  0  0
  5 14  1  0  0  0  0
  5 12  1  0  0  0  0
  6  5  2  0  0  0  0
  7  6  1  0  0  0  0
  7  8  2  0  0  0  0
  8 10  1  0  0  0  0
  9  8  1  0  0  0  0
 10 12  2  0  0  0  0
 10 11  1  0  0  0  0
 12 13  1  0  0  0  0
 14 15  1  0  0  0  0
 16  3  1  0  0  0  0
 16 18  1  0  0  0  0
 16 19  1  0  0  0  0
 17 16  1  0  0  0  0
 19 21  1  0  0  0  0
 19 20  1  0  0  0  0
 22 23  1  0  0  0  0
 22  4  1  0  0  0  0
 24 22  1  0  0  0  0
 25 22  1  0  0  0  0
 25 28  1  0  0  0  0
 26 25  1  0  0  0  0
 27 25  1  0  0  0  0
 28 30  1  0  0  0  0
 28 31  1  0  0  0  0
 29 28  1  0  0  0  0
 31 34  1  0  0  0  0
 31 32  1  0  0  0  0
 33 31  1  0  0  0  0
 34 35  1  0  0  0  0
 34 36  1  0  0  0  0
 37  2  1  0  0  0  0
 37 38  1  0  0  0  0
 39 37  1  0  0  0  0
 40 37  1  0  0  0  0
 40 41  1  0  0  0  0
 42 40  1  0  0  0  0
 43 40  1  0  0  0  0
 44  4  1  0  0  0  0
M  CHG  2   1  -1   4   1
M  END
