3,4
q = -1.0

 24 24  0  0  0  0  0  0  0  0999 V2000
   -3.4875    2.3835    2.0497 Cl  0  0  0  0  0  0  0  0  0  0  0  0
   -7.2411   -0.8309   -0.2144 Cl  0  0  0  0  0  0  0  0  0  0  0  0
   -0.9381   -1.4812   -1.1974 N   0  0  0  0  0  2  0  0  0  0  0  0
   -1.5923    0.6773    0.6806 O   0  5  0  0  0  0  0  0  0  0  0  0
   -3.1864   -0.7971   -0.4295 C   0  0  0  0  0  0  0  0  0  0  0  0
   -2.8062    0.3032    0.4349 C   0  0  0  0  0  0  0  0  0  0  0  0
   -3.8973    1.0258    1.0427 C   0  0  0  0  0  0  0  0  0  0  0  0
   -5.2313    0.6864    0.8479 C   0  0  0  0  0  0  0  0  0  0  0  0
   -6.0224    1.2704    1.3370 H   0  0  0  0  0  0  0  0  0  0  0  0
   -5.5615   -0.4088    0.0164 C   0  0  0  0  0  0  0  0  0  0  0  0
   -4.5588   -1.1342   -0.6106 C   0  0  0  0  0  0  0  0  0  0  0  0
   -4.8238   -1.9802   -1.2618 H   0  0  0  0  0  0  0  0  0  0  0  0
   -2.2358   -1.6149   -1.1446 C   0  0  0  0  0  3  0  0  0  0  0  0
   -2.6836   -2.4561   -1.7199 H   0  0  0  0  0  0  0  0  0  0  0  0
   -0.1468   -2.4758   -1.9154 C   0  0  0  0  0  0  0  0  0  0  0  0
    0.5926   -1.9376   -2.5467 H   0  0  0  0  0  0  0  0  0  0  0  0
   -0.8055   -3.0631   -2.5978 H   0  0  0  0  0  0  0  0  0  0  0  0
    0.5950   -3.4231   -0.9571 C   0  0  0  0  0  0  0  0  0  0  0  0
    1.2573   -2.8231   -0.2985 H   0  0  0  0  0  0  0  0  0  0  0  0
    1.2569   -4.0657   -1.5762 H   0  0  0  0  0  0  0  0  0  0  0  0
   -0.3351   -4.2833   -0.1043 C   0  0  0  0  0  0  0  0  0  0  0  0
   -0.9716   -3.6606    0.5573 H   0  0  0  0  0  0  0  0  0  0  0  0
    0.2462   -4.9623    0.5502 H   0  0  0  0  0  0  0  0  0  0  0  0
   -1.0076   -4.9100   -0.7280 H   0  0  0  0  0  0  0  0  0  0  0  0
  2 10  1  0  0  0  0
  3 13  1  0  0  0  0
  5  6  1  0  0  0  0
  6  4  1  0  0  0  0
  6  7  2  0  0  0  0
  7  1  1  0  0  0  0
  8  7  1  0  0  0  0
  8  9  1  0  0  0  0
 10  8  2  0  0  0  0
 11  5  2  0  0  0  0
 11 10  1  0  0  0  0
 12 11  1  0  0  0  0
 13  5  1  0  0  0  0
 14 13  1  0  0  0  0
 15  3  1  0  0  0  0
 15 18  1  0  0  0  0
 16 15  1  0  0  0  0
 17 15  1  0  0  0  0
 18 19  1  0  0  0  0
 18 21  1  0  0  0  0
 20 18  1  0  0  0  0
 21 23  1  0  0  0  0
 21 22  1  0  0  0  0
 24 21  1  0  0  0  0
M  CHG  1   4  -1
M  END
