1,5
q = -1.0

 13 13  0  0  0  0  0  0  0  0999 V2000
   -0.1278   -1.8626   -0.2243 O   0  5  0  0  0  0  0  0  0  0  0  0
   -1.6631   -3.5241   -0.3793 O   0  0  0  0  0  0  0  0  0  0  0  0
   -4.6660    2.0031    0.4649 O   0  0  0  0  0  0  0  0  0  0  0  0
   -4.0173    2.7321    0.5885 H   0  0  0  0  0  0  0  0  0  0  0  0
   -1.8633   -0.0376    0.1369 N   0  0  0  0  0  2  0  0  0  0  0  0
   -2.6128    1.0297    0.3277 N   0  0  0  0  0  0  0  0  0  0  0  0
   -3.9443    0.8942    0.2785 C   0  0  0  0  0  0  0  0  0  0  0  0
   -4.5963   -0.3442    0.0464 C   0  0  0  0  0  3  0  0  0  0  0  0
   -5.6934   -0.3916    0.0160 H   0  0  0  0  0  0  0  0  0  0  0  0
   -3.7777   -1.4504   -0.1348 C   0  0  0  0  0  0  0  0  0  0  0  0
   -4.1567   -2.4665   -0.3185 H   0  0  0  0  0  0  0  0  0  0  0  0
   -2.3876   -1.2610   -0.0882 C   0  0  0  0  0  0  0  0  0  0  0  0
   -1.3542   -2.3464   -0.2544 C   0  0  0  0  0  0  0  0  0  0  0  0
  2 13  2  0  0  0  0
  3  4  1  0  0  0  0
  5  6  1  0  0  0  0
  7  6  2  0  0  0  0
  7  3  1  0  0  0  0
  8  7  1  0  0  0  0
  9  8  1  0  0  0  0
 10 12  2  0  0  0  0
 10  8  1  0  0  0  0
 11 10  1  0  0  0  0
 12  5  1  0  0  0  0
 13  1  1  0  0  0  0
 13 12  1  0  0  0  0
M  CHG  1   1  -1
M  END
