1,2
q = 0.0, confidence = 0.992

 23 24  0  0  1  0  0  0  0  0999 V2000
   -1.9107   -0.8670   -0.0514 O   0  0  0  0  0  1  0  0  0  0  0  0
   -1.0220    1.6189   -0.2122 N   0  0  0  0  0  2  0  0  0  0  0  0
   -2.3318    1.4081   -0.4915 C   0  0  1  0  0  3  0  0  0  0  0  0
   -3.1210    2.4106   -1.0789 C   0  0  0  0  0  0  0  0  0  0  0  0
   -4.1625    2.2040   -1.3580 H   0  0  0  0  0  0  0  0  0  0  0  0
   -2.5444    3.6663   -1.3295 C   0  0  0  0  0  0  0  0  0  0  0  0
   -3.1412    4.4670   -1.7908 H   0  0  0  0  0  0  0  0  0  0  0  0
   -1.2036    3.8812   -0.9889 C   0  0  0  0  0  0  0  0  0  0  0  0
   -0.7188    4.8530   -1.1589 H   0  0  0  0  0  0  0  0  0  0  0  0
   -0.4690    2.8196   -0.4358 C   0  0  0  0  0  0  0  0  0  0  0  0
    0.5944    2.9197   -0.1686 H   0  0  0  0  0  0  0  0  0  0  0  0
   -2.7933    0.0003   -0.2061 C   0  0  1  0  0  3  0  0  0  0  0  0
   -4.2219   -0.3503   -0.1304 C   0  0  0  0  0  0  0  0  0  0  0  0
   -5.1951    0.5473    0.3749 C   0  0  0  0  0  0  0  0  0  0  0  0
   -4.9005    1.5454    0.7292 H   0  0  0  0  0  0  0  0  0  0  0  0
   -6.5280    0.1380    0.4977 C   0  0  0  0  0  0  0  0  0  0  0  0
   -7.2757    0.8290    0.9138 H   0  0  0  0  0  0  0  0  0  0  0  0
   -6.9066   -1.1560    0.1034 C   0  0  0  0  0  0  0  0  0  0  0  0
   -7.9576   -1.4696    0.1909 H   0  0  0  0  0  0  0  0  0  0  0  0
   -5.9449   -2.0568   -0.3899 C   0  0  0  0  0  0  0  0  0  0  0  0
   -6.2442   -3.0714   -0.6909 H   0  0  0  0  0  0  0  0  0  0  0  0
   -4.6083   -1.6645   -0.4903 C   0  0  0  0  0  0  0  0  0  0  0  0
   -3.8421   -2.3597   -0.8620 H   0  0  0  0  0  0  0  0  0  0  0  0
  3  2  1  0  0  0  0
  3 12  1  6  0  0  0
  4  3  1  0  0  0  0
  5  4  1  0  0  0  0
  6  4  2  0  0  0  0
  6  8  1  0  0  0  0
  7  6  1  0  0  0  0
  8 10  2  0  0  0  0
  9  8  1  0  0  0  0
 10  2  1  0  0  0  0
 10 11  1  0  0  0  0
 12 13  1  0  0  0  0
 12  1  1  6  0  0  0
 13 14  1  0  0  0  0
 14 16  2  0  0  0  0
 14 15  1  0  0  0  0
 16 17  1  0  0  0  0
 18 19  1  0  0  0  0
 18 16  1  0  0  0  0
 20 18  2  0  0  0  0
 21 20  1  0  0  0  0
 22 20  1  0  0  0  0
 22 13  2  0  0  0  0
 23 22  1  0  0  0  0
M  END
