1,2
q = -1.0

 66 70  0  0  1  0  0  0  0  0999 V2000
    0.7235    0.3681   -0.7026 O   0  5  0  0  0  0  0  0  0  0  0  0
   -1.9760    0.4505   -0.0780 N   0  0  0  0  0  2  0  0  0  0  0  0
   -0.4535    2.3960   -0.3169 C   0  0  0  0  0  0  0  0  0  0  0  0
   -1.6945    1.7490   -0.0622 C   0  0  0  0  0  0  0  0  0  0  0  0
   -2.5152    2.4160    0.2681 H   0  0  0  0  0  0  0  0  0  0  0  0
    0.7578    1.6337   -0.4667 C   0  0  0  0  0  0  0  0  0  0  0  0
    2.0458    2.3223   -0.3350 C   0  0  0  0  0  0  0  0  0  0  0  0
   -5.6544   -0.5362    1.7729 C   0  0  0  0  0  0  0  0  0  0  0  0
   -6.6063   -0.7766    2.2705 H   0  0  0  0  0  0  0  0  0  0  0  0
   -4.9739    2.3364   -1.6281 C   0  0  0  0  0  0  0  0  0  0  0  0
   -4.3489    3.0001   -0.9979 H   0  0  0  0  0  0  0  0  0  0  0  0
   -6.0160    2.4068   -1.2523 H   0  0  0  0  0  0  0  0  0  0  0  0
   -4.9591    2.7366   -2.6629 H   0  0  0  0  0  0  0  0  0  0  0  0
   -3.2361    0.1024    0.5175 C   0  0  0  0  0  0  0  0  0  0  0  0
   -4.4511    0.3278   -0.1746 C   0  0  0  0  0  0  0  0  0  0  0  0
    2.0391    3.7639   -0.3822 C   0  0  2  0  0  3  0  0  0  0  0  0
    3.8372   -2.4346    1.5295 C   0  0  0  0  0  0  0  0  0  0  0  0
    2.8657   -2.9296    1.3255 H   0  0  0  0  0  0  0  0  0  0  0  0
    4.4357   -3.1306    2.1524 H   0  0  0  0  0  0  0  0  0  0  0  0
   -4.4735    0.8815   -1.5953 C   0  0  0  0  0  0  0  0  0  0  0  0
   -3.4276    0.8730   -1.9646 H   0  0  0  0  0  0  0  0  0  0  0  0
    3.2952    1.6249   -0.1538 C   0  0  0  0  0  0  0  0  0  0  0  0
    3.2710    4.4707   -0.3774 C   0  0  0  0  0  0  0  0  0  0  0  0
    3.2508    5.5699   -0.4363 H   0  0  0  0  0  0  0  0  0  0  0  0
    3.3423    0.1258    0.1191 C   0  0  1  0  0  0  0  0  0  0  0  0
    2.8436   -0.3818   -0.7261 H   0  0  0  0  0  0  0  0  0  0  0  0
   -0.3994    3.8281   -0.3004 C   0  0  0  0  0  0  0  0  0  0  0  0
   -1.3461    4.3877   -0.2274 H   0  0  0  0  0  0  0  0  0  0  0  0
   -5.6553    0.0086    0.4846 C   0  0  0  0  0  0  0  0  0  0  0  0
   -6.6127    0.1842   -0.0299 H   0  0  0  0  0  0  0  0  0  0  0  0
   -4.4386   -0.7909    2.4238 C   0  0  0  0  0  0  0  0  0  0  0  0
   -4.4451   -1.2368    3.4294 H   0  0  0  0  0  0  0  0  0  0  0  0
    0.7990    4.4910   -0.3907 C   0  0  0  0  0  0  0  0  0  0  0  0
    0.8365    5.5902   -0.4159 H   0  0  0  0  0  0  0  0  0  0  0  0
   -3.2114   -0.4834    1.8123 C   0  0  0  0  0  0  0  0  0  0  0  0
    4.4742    2.3799   -0.1391 C   0  0  0  0  0  0  0  0  0  0  0  0
    5.4375    1.8728    0.0042 H   0  0  0  0  0  0  0  0  0  0  0  0
    4.4720    3.7851   -0.2771 C   0  0  0  0  0  0  0  0  0  0  0  0
    5.4267    4.3334   -0.2711 H   0  0  0  0  0  0  0  0  0  0  0  0
    4.7446   -0.5018    0.3486 C   0  0  1  0  0  0  0  0  0  0  0  0
    5.5374   -0.0998   -0.3099 H   0  0  0  0  0  0  0  0  0  0  0  0
    4.9522   -0.3369    1.8703 C   0  0  0  0  0  0  0  0  0  0  0  0
    4.9603    0.7207    2.2025 H   0  0  0  0  0  0  0  0  0  0  0  0
    5.8674   -0.8402    2.2463 H   0  0  0  0  0  0  0  0  0  0  0  0
   -1.8780   -0.7469    2.5010 C   0  0  0  0  0  0  0  0  0  0  0  0
   -1.1480   -0.9323    1.6797 H   0  0  0  0  0  0  0  0  0  0  0  0
   -1.8860   -1.9895    3.3977 C   0  0  0  0  0  0  0  0  0  0  0  0
   -2.2603   -2.8808    2.8543 H   0  0  0  0  0  0  0  0  0  0  0  0
   -2.5189   -1.8520    4.2993 H   0  0  0  0  0  0  0  0  0  0  0  0
   -0.8591   -2.2092    3.7546 H   0  0  0  0  0  0  0  0  0  0  0  0
   -5.2990   -0.0036   -2.5443 C   0  0  0  0  0  0  0  0  0  0  0  0
   -4.9439   -1.0533   -2.5265 H   0  0  0  0  0  0  0  0  0  0  0  0
   -5.2214    0.3681   -3.5865 H   0  0  0  0  0  0  0  0  0  0  0  0
   -6.3751   -0.0065   -2.2743 H   0  0  0  0  0  0  0  0  0  0  0  0
    2.5990   -0.2622    1.4560 C   0  0  0  0  0  0  0  0  0  0  0  0
    1.6688   -0.8282    1.2580 H   0  0  0  0  0  0  0  0  0  0  0  0
    2.3116    0.6515    2.0152 H   0  0  0  0  0  0  0  0  0  0  0  0
    4.5977   -2.0376    0.2260 C   0  0  0  0  0  0  0  0  0  0  0  0
    5.5966   -2.5176    0.1817 H   0  0  0  0  0  0  0  0  0  0  0  0
    4.0531   -2.3270   -0.6939 H   0  0  0  0  0  0  0  0  0  0  0  0
   -1.3852    0.4933    3.2674 C   0  0  0  0  0  0  0  0  0  0  0  0
   -1.3056    1.3778    2.6054 H   0  0  0  0  0  0  0  0  0  0  0  0
   -0.3816    0.3102    3.7043 H   0  0  0  0  0  0  0  0  0  0  0  0
   -2.0808    0.7483    4.0941 H   0  0  0  0  0  0  0  0  0  0  0  0
    3.6478   -1.0756    2.2394 C   0  0  1  0  0  0  0  0  0  0  0  0
    3.4247   -1.1600    3.3215 H   0  0  0  0  0  0  0  0  0  0  0  0
  1  6  1  0  0  0  0
  2  4  1  0  0  0  0
  2 14  1  0  0  0  0
  3 27  1  0  0  0  0
  3  4  2  0  0  0  0
  4  5  1  0  0  0  0
  6  7  2  0  0  0  0
  6  3  1  0  0  0  0
  7 22  1  0  0  0  0
  8  9  1  0  0  0  0
  8 31  1  0  0  0  0
 10 20  1  0  0  0  0
 10 12  1  0  0  0  0
 10 11  1  0  0  0  0
 13 10  1  0  0  0  0
 14 35  1  0  0  0  0
 15 29  1  0  0  0  0
 15 14  2  0  0  0  0
 16 33  1  1  0  0  0
 16 23  1  0  0  0  0
 16  7  1  0  0  0  0
 17 19  1  0  0  0  0
 17 65  1  0  0  0  0
 18 17  1  0  0  0  0
 20 15  1  0  0  0  0
 21 20  1  0  0  0  0
 22 36  2  0  0  0  0
 22 25  1  0  0  0  0
 23 38  2  0  0  0  0
 24 23  1  0  0  0  0
 25 26  1  6  0  0  0
 25 40  1  0  0  0  0
 25 55  1  0  0  0  0
 27 28  1  0  0  0  0
 29  8  2  0  0  0  0
 30 29  1  0  0  0  0
 31 32  1  0  0  0  0
 33 27  2  0  0  0  0
 34 33  1  0  0  0  0
 35 31  2  0  0  0  0
 35 45  1  0  0  0  0
 36 37  1  0  0  0  0
 38 39  1  0  0  0  0
 38 36  1  0  0  0  0
 40 41  1  6  0  0  0
 40 42  1  0  0  0  0
 42 43  1  0  0  0  0
 42 65  1  0  0  0  0
 42 44  1  0  0  0  0
 45 61  1  0  0  0  0
 45 47  1  0  0  0  0
 46 45  1  0  0  0  0
 47 50  1  0  0  0  0
 47 49  1  0  0  0  0
 48 47  1  0  0  0  0
 51 52  1  0  0  0  0
 51 54  1  0  0  0  0
 51 20  1  0  0  0  0
 53 51  1  0  0  0  0
 55 57  1  0  0  0  0
 55 65  1  0  0  0  0
 56 55  1  0  0  0  0
 58 40  1  0  0  0  0
 58 17  1  0  0  0  0
 59 58  1  0  0  0  0
 60 58  1  0  0  0  0
 61 63  1  0  0  0  0
 61 64  1  0  0  0  0
 62 61  1  0  0  0  0
 65 66  1  1  0  0  0
M  CHG  1   1  -1
M  END
