12,13
q = -1.0

 33 34  0  0  1  0  0  0  0  0999 V2000
    3.5910    1.8334   -0.8837 F   0  0  0  0  0  0  0  0  0  0  0  0
    1.9028   -1.2830   -0.7341 F   0  0  0  0  0  0  0  0  0  0  0  0
    2.3116    0.0485   -2.4480 F   0  0  0  0  0  0  0  0  0  0  0  0
    4.9801   -0.1367   -1.9798 F   0  0  0  0  0  0  0  0  0  0  0  0
    4.0258   -2.1176   -1.9934 F   0  0  0  0  0  0  0  0  0  0  0  0
    4.0427   -2.2841    0.6512 F   0  0  0  0  0  0  0  0  0  0  0  0
    6.0310   -1.6492   -0.0569 F   0  0  0  0  0  0  0  0  0  0  0  0
    5.6093    0.8633    0.6691 F   0  0  0  0  0  0  0  0  0  0  0  0
    5.0113   -0.4762    2.3121 F   0  0  0  0  0  0  0  0  0  0  0  0
    3.3966    1.7742    1.8341 F   0  0  0  0  0  0  0  0  0  0  0  0
    2.4384   -0.2082    1.7688 F   0  0  0  0  0  0  0  0  0  0  0  0
    0.3440    0.7517   -0.1216 O   0  0  0  0  0  1  0  0  0  0  0  0
   -1.3332    2.9748    0.0048 N   0  0  0  0  0  2  0  0  0  0  0  0
    3.0716    4.7418   -0.0110 N   0  0  0  0  0  0  0  0  0  0  0  0
    1.2989    1.5923   -0.1716 C   0  0  1  0  0  3  0  0  0  0  0  0
    1.1446    2.9946   -0.0996 C   0  0  0  0  0  0  0  0  0  0  0  0
   -0.1648    3.6004   -0.0106 C   0  0  0  0  0  0  0  0  0  0  0  0
    2.2448    3.9073   -0.0652 C   0  0  0  0  0  0  0  0  0  0  0  0
    2.7028    0.9585   -0.2892 C   0  0  0  0  0  0  0  0  0  0  0  0
    2.7176   -0.3087   -1.2017 C   0  0  0  0  0  0  0  0  0  0  0  0
    4.1394   -0.9539   -1.3089 C   0  0  0  0  0  0  0  0  0  0  0  0
    4.7445   -1.2631    0.0956 C   0  0  0  0  0  0  0  0  0  0  0  0
    4.6923   -0.0461    1.0680 C   0  0  0  0  0  0  0  0  0  0  0  0
    3.2843    0.6307    1.1198 C   0  0  0  0  0  0  0  0  0  0  0  0
   -2.4238    3.9659    0.1529 C   0  0  0  0  0  0  0  0  0  0  0  0
   -2.7928    3.9240    1.2016 H   0  0  0  0  0  0  0  0  0  0  0  0
   -3.2829    3.6870   -0.4835 H   0  0  0  0  0  0  0  0  0  0  0  0
   -1.7971    5.3188   -0.2029 C   0  0  0  0  0  0  0  0  0  0  0  0
   -1.9165    5.5156   -1.2883 H   0  0  0  0  0  0  0  0  0  0  0  0
   -2.2553    6.1641    0.3440 H   0  0  0  0  0  0  0  0  0  0  0  0
   -0.3166    5.1035    0.1268 C   0  0  0  0  0  0  0  0  0  0  0  0
    0.3919    5.6603   -0.5154 H   0  0  0  0  0  0  0  0  0  0  0  0
   -0.0663    5.3841    1.1750 H   0  0  0  0  0  0  0  0  0  0  0  0
  1 19  1  0  0  0  0
  3 20  1  0  0  0  0
  4 21  1  0  0  0  0
  5 21  1  0  0  0  0
  7 22  1  0  0  0  0
  8 23  1  0  0  0  0
 13 25  1  0  0  0  0
 15 12  1  1  0  0  0
 15 16  1  0  0  0  0
 16 18  1  0  0  0  0
 16 17  2  0  0  0  0
 17 13  1  0  0  0  0
 17 31  1  0  0  0  0
 18 14  3  0  0  0  0
 19 15  1  0  0  0  0
 19 24  1  0  0  0  0
 20  2  1  0  0  0  0
 20 19  1  0  0  0  0
 21 20  1  0  0  0  0
 21 22  1  0  0  0  0
 22  6  1  0  0  0  0
 22 23  1  0  0  0  0
 23 24  1  0  0  0  0
 23  9  1  0  0  0  0
 24 11  1  0  0  0  0
 24 10  1  0  0  0  0
 25 26  1  0  0  0  0
 27 25  1  0  0  0  0
 28 31  1  0  0  0  0
 28 25  1  0  0  0  0
 28 30  1  0  0  0  0
 29 28  1  0  0  0  0
 31 33  1  0  0  0  0
 32 31  1  0  0  0  0
M  END
