3,9
q = -1.0

 17 18  0  0  1  0  0  0  0  0999 V2000
   -1.7657    3.4934    0.0000 I   0  0  0  0  0  0  0  0  0  0  0  0
   -4.8923   -1.7093    0.0000 I   0  0  0  0  0  0  0  0  0  0  0  0
    0.6372    1.3227   -0.0001 O   0  5  0  0  0  0  0  0  0  0  0  0
   -1.7685    1.3859   -0.0000 C   0  0  0  0  0  0  0  0  0  0  0  0
   -3.0102   -0.7232    0.0000 C   0  0  0  0  0  0  0  0  0  0  0  0
   -1.7946   -1.4702   -0.0000 C   0  0  0  0  0  0  0  0  0  0  0  0
   -0.5705   -0.7177   -0.0001 C   0  0  1  0  0  3  0  0  0  0  0  0
   -0.5269    0.7160   -0.0001 C   0  0  0  0  0  0  0  0  0  0  0  0
    0.6629   -1.3412   -0.0001 N   0  0  0  0  0  2  0  0  0  0  0  0
   -2.9882    0.6717    0.0000 C   0  0  0  0  0  0  0  0  0  0  0  0
   -3.9313    1.2356    0.0000 H   0  0  0  0  0  0  0  0  0  0  0  0
    0.7443   -2.6772   -0.0001 C   0  0  0  0  0  0  0  0  0  0  0  0
    1.7634   -3.1009   -0.0003 H   0  0  0  0  0  0  0  0  0  0  0  0
   -1.6745   -2.8871    0.0001 C   0  0  0  0  0  0  0  0  0  0  0  0
   -2.5899   -3.4979    0.0001 H   0  0  0  0  0  0  0  0  0  0  0  0
   -0.4192   -3.4783    0.0000 C   0  0  0  0  0  0  0  0  0  0  0  0
   -0.3069   -4.5713    0.0001 H   0  0  0  0  0  0  0  0  0  0  0  0
  2  5  1  0  0  0  0
  3  8  1  0  0  0  0
  4  1  1  0  0  0  0
  4 10  1  0  0  0  0
  6  5  1  0  0  0  0
  6 14  2  0  0  0  0
  7  9  1  1  0  0  0
  7  8  1  0  0  0  0
  7  6  1  0  0  0  0
  8  4  2  0  0  0  0
  9 12  1  0  0  0  0
 10 11  1  0  0  0  0
 10  5  2  0  0  0  0
 12 16  2  0  0  0  0
 13 12  1  0  0  0  0
 14 15  1  0  0  0  0
 16 14  1  0  0  0  0
 16 17  1  0  0  0  0
M  CHG  1   3  -1
M  END
