1,2
q = -1.0

 16 16  0  0  1  0  0  0  0  0999 V2000
   -1.7542    0.7271   -0.1372 N   0  0  0  0  0  0  0  0  0  0  0  0
   -0.8088   -1.6715   -0.1312 O   0  5  0  0  0  0  0  0  0  0  0  0
   -2.6499   -0.2808   -0.7656 C   0  0  1  0  0  0  0  0  0  0  0  0
   -2.3871    1.0440    1.1678 C   0  0  0  0  0  0  0  0  0  0  0  0
   -1.6921    1.6292   -0.6786 H   0  0  0  0  0  0  0  0  0  0  0  0
   -2.1088   -1.6836   -0.3986 C   0  0  0  0  0  0  0  0  0  0  0  0
   -4.0744   -0.0111   -0.2239 C   0  0  0  0  0  0  0  0  0  0  0  0
   -2.5777   -0.1855   -1.8685 H   0  0  0  0  0  0  0  0  0  0  0  0
   -3.8870    1.0946    0.8447 C   0  0  0  0  0  0  0  0  0  0  0  0
   -1.9532    1.9829    1.5609 H   0  0  0  0  0  0  0  0  0  0  0  0
   -2.1597    0.2279    1.8849 H   0  0  0  0  0  0  0  0  0  0  0  0
   -2.8060   -2.6842   -0.3799 O   0  0  0  0  0  0  0  0  0  0  0  0
   -4.7684    0.3070   -1.0244 H   0  0  0  0  0  0  0  0  0  0  0  0
   -4.4729   -0.9548    0.1988 H   0  0  0  0  0  0  0  0  0  0  0  0
   -4.1408    2.0901    0.4249 H   0  0  0  0  0  0  0  0  0  0  0  0
   -4.5171    0.9425    1.7422 H   0  0  0  0  0  0  0  0  0  0  0  0
  1  4  1  0  0  0  0
  3  8  1  6  0  0  0
  3  6  1  0  0  0  0
  3  7  1  0  0  0  0
  3  1  1  0  0  0  0
  4 10  1  0  0  0  0
  4 11  1  0  0  0  0
  5  1  1  0  0  0  0
  6 12  2  0  0  0  0
  6  2  1  0  0  0  0
  7 14  1  0  0  0  0
  7  9  1  0  0  0  0
  9  4  1  0  0  0  0
  9 16  1  0  0  0  0
 13  7  1  0  0  0  0
 15  9  1  0  0  0  0
M  CHG  1   2  -1
M  END
