1,6
q = -1.0

 17 17  0  0  1  0  0  0  0  0999 V2000
    0.2811    1.6575   -0.8658 O   0  0  0  0  0  1  0  0  0  0  0  0
    1.6444    2.3123   -0.6332 S   0  0  0  0  0  0  0  0  0  0  0  0
    2.1986    3.0718   -1.7651 O   0  0  0  0  0  1  0  0  0  0  0  0
    1.6754    3.0075    0.7125 O   0  0  0  0  0  1  0  0  0  0  0  0
    2.7094    0.8498   -0.3891 C   0  0  2  0  0  3  0  0  0  0  0  0
    2.1150   -0.1799    0.2295 N   0  0  0  0  0  2  0  0  0  0  0  0
    2.8141   -1.2991    0.4862 C   0  0  0  0  0  0  0  0  0  0  0  0
    4.1686   -1.4397    0.1343 C   0  0  0  0  0  0  0  0  0  0  0  0
    4.7795   -0.3436   -0.5139 C   0  0  0  0  0  0  0  0  0  0  0  0
    4.0502    0.8202   -0.7837 C   0  0  0  0  0  0  0  0  0  0  0  0
    4.4814    1.6879   -1.3021 H   0  0  0  0  0  0  0  0  0  0  0  0
    5.8368   -0.4109   -0.8164 H   0  0  0  0  0  0  0  0  0  0  0  0
    4.9198   -2.7107    0.4204 C   0  0  0  0  0  0  0  0  0  0  0  0
    4.3037   -3.4265    0.9967 H   0  0  0  0  0  0  0  0  0  0  0  0
    5.2257   -3.2099   -0.5224 H   0  0  0  0  0  0  0  0  0  0  0  0
    5.8463   -2.5090    0.9958 H   0  0  0  0  0  0  0  0  0  0  0  0
    2.2575   -2.1071    0.9879 H   0  0  0  0  0  0  0  0  0  0  0  0
  1  2  1  0  0  0  0
  2  4  1  0  0  0  0
  3  2  1  0  0  0  0
  5  2  1  1  0  0  0
  5  6  1  0  0  0  0
  6  7  1  0  0  0  0
  7 17  1  0  0  0  0
  8 13  1  0  0  0  0
  8  7  2  0  0  0  0
  9  8  1  0  0  0  0
 10  9  2  0  0  0  0
 10  5  1  0  0  0  0
 11 10  1  0  0  0  0
 12  9  1  0  0  0  0
 13 16  1  0  0  0  0
 13 14  1  0  0  0  0
 15 13  1  0  0  0  0
M  END
