3,4
q = -1.0

 40 43  0  0  0  0  0  0  0  0999 V2000
    8.2268   -0.7080    1.4017 Cl  0  0  0  0  0  0  0  0  0  0  0  0
    1.4566   -0.5743    1.3074 N   0  0  0  0  0  0  0  0  0  0  0  0
    0.1572   -0.4488    0.9023 N   0  0  0  0  0  2  0  0  0  0  0  0
    1.9374   -0.0572   -0.8948 O   0  5  0  0  0  0  0  0  0  0  0  0
    2.3043   -0.3687    0.3105 C   0  0  0  0  0  0  0  0  0  0  0  0
    3.7577   -0.4601    0.5878 C   0  0  0  0  0  0  0  0  0  0  0  0
    4.6843   -0.2858   -0.4608 C   0  0  0  0  0  0  0  0  0  0  0  0
    4.3052   -0.0973   -1.4751 H   0  0  0  0  0  0  0  0  0  0  0  0
    6.0601   -0.3609   -0.2173 C   0  0  0  0  0  0  0  0  0  0  0  0
    6.7881   -0.2285   -1.0298 H   0  0  0  0  0  0  0  0  0  0  0  0
    6.5129   -0.6143    1.0885 C   0  0  0  0  0  0  0  0  0  0  0  0
    5.6045   -0.7962    2.1467 C   0  0  0  0  0  0  0  0  0  0  0  0
    5.9822   -0.9977    3.1589 H   0  0  0  0  0  0  0  0  0  0  0  0
    4.2322   -0.7200    1.8913 C   0  0  0  0  0  0  0  0  0  0  0  0
    3.4998   -0.8617    2.6982 H   0  0  0  0  0  0  0  0  0  0  0  0
   -0.7439   -0.7046    1.8152 C   0  0  0  0  0  3  0  0  0  0  0  0
   -0.3476   -1.0185    2.8005 H   0  0  0  0  0  0  0  0  0  0  0  0
   -2.1998   -0.5165    1.6344 C   0  0  0  0  0  0  0  0  0  0  0  0
   -3.0136   -1.5572    1.1102 C   0  0  0  0  0  0  0  0  0  0  0  0
   -2.4681   -2.8164    0.7013 C   0  0  0  0  0  0  0  0  0  0  0  0
   -1.3830   -2.9747    0.7696 H   0  0  0  0  0  0  0  0  0  0  0  0
   -3.2805   -3.7984    0.1675 C   0  0  0  0  0  0  0  0  0  0  0  0
   -2.8369   -4.7515   -0.1566 H   0  0  0  0  0  0  0  0  0  0  0  0
   -4.6826   -3.5810    0.0130 C   0  0  0  0  0  0  0  0  0  0  0  0
   -5.3129   -4.3753   -0.4152 H   0  0  0  0  0  0  0  0  0  0  0  0
   -5.2474   -2.3790    0.3944 C   0  0  0  0  0  0  0  0  0  0  0  0
   -6.3278   -2.2020    0.2770 H   0  0  0  0  0  0  0  0  0  0  0  0
   -4.4411   -1.3335    0.9523 C   0  0  0  0  0  0  0  0  0  0  0  0
   -4.9930   -0.0942    1.3307 C   0  0  0  0  0  0  0  0  0  0  0  0
   -6.0738    0.0741    1.1994 H   0  0  0  0  0  0  0  0  0  0  0  0
   -4.2009    0.9343    1.8743 C   0  0  0  0  0  0  0  0  0  0  0  0
   -4.7581    2.2000    2.2533 C   0  0  0  0  0  0  0  0  0  0  0  0
   -5.8401    2.3551    2.1204 H   0  0  0  0  0  0  0  0  0  0  0  0
   -3.9628    3.2032    2.7708 C   0  0  0  0  0  0  0  0  0  0  0  0
   -4.4060    4.1691    3.0564 H   0  0  0  0  0  0  0  0  0  0  0  0
   -2.5602    2.9916    2.9397 C   0  0  0  0  0  0  0  0  0  0  0  0
   -1.9358    3.7960    3.3571 H   0  0  0  0  0  0  0  0  0  0  0  0
   -1.9840    1.7859    2.5858 C   0  0  0  0  0  0  0  0  0  0  0  0
   -0.9020    1.6311    2.7115 H   0  0  0  0  0  0  0  0  0  0  0  0
   -2.7742    0.7183    2.0414 C   0  0  0  0  0  0  0  0  0  0  0  0
  3  2  1  0  0  0  0
  3 16  1  0  0  0  0
  4  5  1  0  0  0  0
  5  6  1  0  0  0  0
  5  2  2  0  0  0  0
  6 14  1  0  0  0  0
  7  9  1  0  0  0  0
  7  6  2  0  0  0  0
  8  7  1  0  0  0  0
  9 11  2  0  0  0  0
 10  9  1  0  0  0  0
 11  1  1  0  0  0  0
 11 12  1  0  0  0  0
 12 13  1  0  0  0  0
 14 12  2  0  0  0  0
 14 15  1  0  0  0  0
 16 17  1  0  0  0  0
 18 16  1  0  0  0  0
 18 40  1  0  0  0  0
 19 18  2  0  0  0  0
 20 21  1  0  0  0  0
 20 19  1  0  0  0  0
 22 20  2  0  0  0  0
 23 22  1  0  0  0  0
 24 22  1  0  0  0  0
 24 26  2  0  0  0  0
 25 24  1  0  0  0  0
 26 28  1  0  0  0  0
 27 26  1  0  0  0  0
 28 19  1  0  0  0  0
 28 29  2  0  0  0  0
 29 31  1  0  0  0  0
 30 29  1  0  0  0  0
 31 40  2  0  0  0  0
 31 32  1  0  0  0  0
 32 34  2  0  0  0  0
 33 32  1  0  0  0  0
 34 36  1  0  0  0  0
 34 35  1  0  0  0  0
 36 37  1  0  0  0  0
 38 39  1  0  0  0  0
 38 36  2  0  0  0  0
 40 38  1  0  0  0  0
M  CHG  1   4  -1
M  END
