1,2
q = -1.0

 29 29  0  0  0  0  0  0  0  0999 V2000
    1.3441   -0.0047    0.9251 O   0  5  0  0  0  0  0  0  0  0  0  0
    1.6257    1.4925   -1.3885 N   0  0  0  0  0  0  0  0  0  0  0  0
    2.4796   -0.6306    0.5957 C   0  0  0  0  0  0  0  0  0  0  0  0
    3.3667    0.0273   -0.2855 C   0  0  0  0  0  0  0  0  0  0  0  0
    4.5526   -0.6146   -0.6717 C   0  0  0  0  0  0  0  0  0  0  0  0
    4.8827   -1.8950   -0.1873 C   0  0  0  0  0  0  0  0  0  0  0  0
    3.9693   -2.5296    0.6812 C   0  0  0  0  0  0  0  0  0  0  0  0
    2.7634   -1.9319    1.0817 C   0  0  0  0  0  0  0  0  0  0  0  0
    2.9857    1.4010   -0.7590 C   0  0  0  0  0  0  0  0  0  0  0  0
    1.4705    0.4963   -2.4698 C   0  0  0  0  0  0  0  0  0  0  0  0
    1.4979    2.8561   -1.9515 C   0  0  0  0  0  0  0  0  0  0  0  0
    6.1785   -2.5664   -0.5688 C   0  0  0  0  0  0  0  0  0  0  0  0
    1.7677   -2.6256    1.9699 C   0  0  0  0  0  0  0  0  0  0  0  0
    5.2374   -0.1012   -1.3668 H   0  0  0  0  0  0  0  0  0  0  0  0
    4.2004   -3.5416    1.0536 H   0  0  0  0  0  0  0  0  0  0  0  0
    2.9688    2.1168    0.0899 H   0  0  0  0  0  0  0  0  0  0  0  0
    3.7383    1.7600   -1.4973 H   0  0  0  0  0  0  0  0  0  0  0  0
    0.4714    0.6197   -2.9238 H   0  0  0  0  0  0  0  0  0  0  0  0
    1.5544   -0.5272   -2.0610 H   0  0  0  0  0  0  0  0  0  0  0  0
    2.2533    0.6376   -3.2496 H   0  0  0  0  0  0  0  0  0  0  0  0
    2.3107    3.0362   -2.6914 H   0  0  0  0  0  0  0  0  0  0  0  0
    1.5656    3.5933   -1.1308 H   0  0  0  0  0  0  0  0  0  0  0  0
    0.5119    2.9647   -2.4343 H   0  0  0  0  0  0  0  0  0  0  0  0
    6.9335   -2.4773    0.2422 H   0  0  0  0  0  0  0  0  0  0  0  0
    6.6203   -2.1150   -1.4787 H   0  0  0  0  0  0  0  0  0  0  0  0
    6.0373   -3.6498   -0.7579 H   0  0  0  0  0  0  0  0  0  0  0  0
    1.5846   -2.0510    2.9024 H   0  0  0  0  0  0  0  0  0  0  0  0
    2.1128   -3.6383    2.2519 H   0  0  0  0  0  0  0  0  0  0  0  0
    0.7874   -2.7194    1.4575 H   0  0  0  0  0  0  0  0  0  0  0  0
  2  9  1  0  0  0  0
  3  1  1  0  0  0  0
  3  8  1  0  0  0  0
  4  3  2  0  0  0  0
  5  4  1  0  0  0  0
  5  6  2  0  0  0  0
  6  7  1  0  0  0  0
  7 15  1  0  0  0  0
  7  8  2  0  0  0  0
  8 13  1  0  0  0  0
  9  4  1  0  0  0  0
  9 16  1  0  0  0  0
 10 19  1  0  0  0  0
 10  2  1  0  0  0  0
 11  2  1  0  0  0  0
 11 22  1  0  0  0  0
 12  6  1  0  0  0  0
 12 24  1  0  0  0  0
 13 28  1  0  0  0  0
 13 27  1  0  0  0  0
 14  5  1  0  0  0  0
 17  9  1  0  0  0  0
 18 10  1  0  0  0  0
 20 10  1  0  0  0  0
 21 11  1  0  0  0  0
 23 11  1  0  0  0  0
 25 12  1  0  0  0  0
 26 12  1  0  0  0  0
 29 13  1  0  0  0  0
M  CHG  1   1  -1
M  END
