1,3
q = 0.0, confidence = 0.992

 15 15  0  0  1  0  0  0  0  0999 V2000
    1.3144   -1.7517   -0.9915 O   0  0  0  0  0  1  0  0  0  0  0  0
    3.4111   -2.6279   -0.9951 N   0  0  0  0  0  0  0  0  0  0  0  0
    2.1523    0.4384    0.4586 N   0  0  0  0  0  2  0  0  0  0  0  0
    3.8917    2.0149    1.0128 C   0  0  0  0  0  0  0  0  0  0  0  0
    4.1689    2.9688    1.4833 H   0  0  0  0  0  0  0  0  0  0  0  0
    4.8464    1.2020    0.3898 C   0  0  0  0  0  0  0  0  0  0  0  0
    4.4290   -0.0056   -0.1874 C   0  0  0  0  0  0  0  0  0  0  0  0
    3.0726   -0.3653   -0.1253 C   0  0  2  0  0  3  0  0  0  0  0  0
    2.5205   -1.6405   -0.7355 C   0  0  1  0  0  3  0  0  0  0  0  0
    2.5538    1.5963    1.0180 C   0  0  0  0  0  0  0  0  0  0  0  0
    5.9027    1.5053    0.3449 H   0  0  0  0  0  0  0  0  0  0  0  0
    5.1556   -0.6429   -0.7113 H   0  0  0  0  0  0  0  0  0  0  0  0
    1.7708    2.2125    1.4858 H   0  0  0  0  0  0  0  0  0  0  0  0
    3.0577   -3.4910   -1.4124 H   0  0  0  0  0  0  0  0  0  0  0  0
    4.3706   -2.6143   -0.6536 H   0  0  0  0  0  0  0  0  0  0  0  0
  2  9  1  0  0  0  0
  2 15  1  0  0  0  0
  3 10  1  0  0  0  0
  4 10  2  0  0  0  0
  4  5  1  0  0  0  0
  6  4  1  0  0  0  0
  7  8  1  0  0  0  0
  7  6  2  0  0  0  0
  8  9  1  6  0  0  0
  8  3  1  0  0  0  0
  9  1  1  6  0  0  0
 10 13  1  0  0  0  0
 11  6  1  0  0  0  0
 12  7  1  0  0  0  0
 14  2  1  0  0  0  0
M  END
