2,3
q = -1.0

 17 18  0  0  1  0  0  0  0  0999 V2000
   -2.5339   -2.3276   -1.7530 Cl  0  0  0  0  0  0  0  0  0  0  0  0
   -0.0449    1.1260    1.0107 O   0  5  0  0  0  0  0  0  0  0  0  0
   -1.9689   -0.1740   -0.3035 N   0  0  0  0  0  2  0  0  0  0  0  0
   -2.2995    1.0224    0.3039 C   0  0  1  0  0  3  0  0  0  0  0  0
   -1.2372    1.6878    1.0009 C   0  0  0  0  0  0  0  0  0  0  0  0
   -1.5254    2.9085    1.6347 C   0  0  0  0  0  0  0  0  0  0  0  0
   -4.2523   -0.3616   -1.0696 C   0  0  0  0  0  0  0  0  0  0  0  0
   -3.6180    1.5788    0.2502 C   0  0  0  0  0  0  0  0  0  0  0  0
   -3.8660    2.8161    0.9035 C   0  0  0  0  0  0  0  0  0  0  0  0
   -4.5964    0.8335   -0.4648 C   0  0  0  0  0  0  0  0  0  0  0  0
   -2.9163   -0.8346   -0.9670 C   0  0  0  0  0  0  0  0  0  0  0  0
   -2.8267    3.4549    1.5775 C   0  0  0  0  0  0  0  0  0  0  0  0
   -0.7149    3.4211    2.1714 H   0  0  0  0  0  0  0  0  0  0  0  0
   -4.9789   -0.9627   -1.6308 H   0  0  0  0  0  0  0  0  0  0  0  0
   -4.8754    3.2502    0.8687 H   0  0  0  0  0  0  0  0  0  0  0  0
   -5.6270    1.2137   -0.5343 H   0  0  0  0  0  0  0  0  0  0  0  0
   -3.0197    4.4128    2.0844 H   0  0  0  0  0  0  0  0  0  0  0  0
  1 11  1  0  0  0  0
  4  3  1  6  0  0  0
  4  5  1  0  0  0  0
  5  2  1  0  0  0  0
  5  6  2  0  0  0  0
  6 13  1  0  0  0  0
  7 11  2  0  0  0  0
  7 10  1  0  0  0  0
  8  4  1  0  0  0  0
  8  9  1  0  0  0  0
  9 12  2  0  0  0  0
 10  8  2  0  0  0  0
 11  3  1  0  0  0  0
 12  6  1  0  0  0  0
 12 17  1  0  0  0  0
 14  7  1  0  0  0  0
 15  9  1  0  0  0  0
 16 10  1  0  0  0  0
M  CHG  1   2  -1
M  END
