1,5
q = -1.0

 31 31  0  0  1  0  0  0  0  0999 V2000
   -1.6706   -0.7974   -0.2420 O   0  0  0  0  0  1  0  0  0  0  0  0
   -1.9382   -2.0528   -0.3054 C   0  0  1  0  0  3  0  0  0  0  0  0
   -1.0416   -3.1066   -0.2312 C   0  0  0  0  0  0  0  0  0  0  0  0
    0.3600   -2.9122   -0.0485 C   0  0  0  0  0  0  0  0  0  0  0  0
    0.9278   -1.7067   -0.0018 N   0  0  0  0  0  2  0  0  0  0  0  0
    2.3393   -1.6473    0.2385 C   0  0  0  0  0  0  0  0  0  0  0  0
    3.2329   -1.6346   -0.8588 C   0  0  0  0  0  0  0  0  0  0  0  0
    4.6110   -1.5572   -0.5913 C   0  0  0  0  0  0  0  0  0  0  0  0
    5.3168   -1.5383   -1.4361 H   0  0  0  0  0  0  0  0  0  0  0  0
    5.0869   -1.4759    0.7240 C   0  0  0  0  0  0  0  0  0  0  0  0
    6.1684   -1.4070    0.9147 H   0  0  0  0  0  0  0  0  0  0  0  0
    4.1841   -1.4571    1.7955 C   0  0  0  0  0  0  0  0  0  0  0  0
    4.5545   -1.3668    2.8286 H   0  0  0  0  0  0  0  0  0  0  0  0
    2.7977   -1.5339    1.5728 C   0  0  0  0  0  0  0  0  0  0  0  0
    1.8109   -1.4545    2.7074 C   0  0  0  0  0  0  0  0  0  0  0  0
    1.1777   -2.3638    2.7808 H   0  0  0  0  0  0  0  0  0  0  0  0
    2.3233   -1.3135    3.6777 H   0  0  0  0  0  0  0  0  0  0  0  0
    1.1113   -0.6052    2.5521 H   0  0  0  0  0  0  0  0  0  0  0  0
    2.7033   -1.6357   -2.2667 C   0  0  0  0  0  0  0  0  0  0  0  0
    3.5266   -1.6349   -3.0055 H   0  0  0  0  0  0  0  0  0  0  0  0
    2.0502   -2.5086   -2.4748 H   0  0  0  0  0  0  0  0  0  0  0  0
    2.0832   -0.7300   -2.4333 H   0  0  0  0  0  0  0  0  0  0  0  0
    1.2160   -4.1487    0.1098 C   0  0  0  0  0  0  0  0  0  0  0  0
    1.7314   -4.1452    1.0914 H   0  0  0  0  0  0  0  0  0  0  0  0
    0.6067   -5.0663    0.0282 H   0  0  0  0  0  0  0  0  0  0  0  0
    2.0179   -4.1766   -0.6546 H   0  0  0  0  0  0  0  0  0  0  0  0
   -1.4270   -4.1304   -0.2882 H   0  0  0  0  0  0  0  0  0  0  0  0
   -3.4407   -2.3064   -0.4697 C   0  0  0  0  0  0  0  0  0  0  0  0
   -3.9049   -1.6878   -1.5797 F   0  0  0  0  0  0  0  0  0  0  0  0
   -3.7296   -3.6233   -0.5805 F   0  0  0  0  0  0  0  0  0  0  0  0
   -4.1247   -1.8200    0.5873 F   0  0  0  0  0  0  0  0  0  0  0  0
  2  1  1  1  0  0  0
  2  3  1  0  0  0  0
  3  4  2  0  0  0  0
  4  5  1  0  0  0  0
  4 23  1  0  0  0  0
  5  6  1  0  0  0  0
  6 14  1  0  0  0  0
  7  8  1  0  0  0  0
  7  6  2  0  0  0  0
  8 10  2  0  0  0  0
  9  8  1  0  0  0  0
 10 11  1  0  0  0  0
 10 12  1  0  0  0  0
 12 13  1  0  0  0  0
 14 12  2  0  0  0  0
 14 15  1  0  0  0  0
 15 16  1  0  0  0  0
 15 17  1  0  0  0  0
 18 15  1  0  0  0  0
 19  7  1  0  0  0  0
 20 19  1  0  0  0  0
 21 19  1  0  0  0  0
 22 19  1  0  0  0  0
 23 24  1  0  0  0  0
 25 23  1  0  0  0  0
 26 23  1  0  0  0  0
 27  3  1  0  0  0  0
 28  2  1  0  0  0  0
 28 31  1  0  0  0  0
 29 28  1  0  0  0  0
 30 28  1  0  0  0  0
M  END
