1,2
q = -1.0, confidence = 0.0

 38 39  0  0  1  0  0  0  0  0999 V2000
    1.7930   -0.5049   -0.0100 O   0  5  0  0  0  0  0  0  0  0  0  0
   -0.6251   -1.8368   -0.0421 N   0  0  0  0  0  2  0  0  0  0  0  0
   -2.0140   -2.0976    0.1812 C   0  0  0  0  0  0  0  0  0  0  0  0
   -2.4678   -2.2884    1.5091 C   0  0  0  0  0  0  0  0  0  0  0  0
   -3.8147   -2.6470    1.7115 C   0  0  0  0  0  0  0  0  0  0  0  0
   -4.1756   -2.8083    2.7395 H   0  0  0  0  0  0  0  0  0  0  0  0
   -4.6901   -2.7963    0.6262 C   0  0  0  0  0  0  0  0  0  0  0  0
   -5.7385   -3.0834    0.7988 H   0  0  0  0  0  0  0  0  0  0  0  0
   -4.2358   -2.5473   -0.6767 C   0  0  0  0  0  0  0  0  0  0  0  0
   -4.9317   -2.6216   -1.5268 H   0  0  0  0  0  0  0  0  0  0  0  0
   -2.8982   -2.1862   -0.9210 C   0  0  0  0  0  0  0  0  0  0  0  0
   -1.5183   -2.0964    2.6617 C   0  0  0  0  0  0  0  0  0  0  0  0
   -2.0379   -2.1958    3.6336 H   0  0  0  0  0  0  0  0  0  0  0  0
   -1.0472   -1.0922    2.6092 H   0  0  0  0  0  0  0  0  0  0  0  0
   -0.6827   -2.8276    2.6396 H   0  0  0  0  0  0  0  0  0  0  0  0
   -2.4017   -1.8799   -2.3074 C   0  0  0  0  0  0  0  0  0  0  0  0
   -1.9177   -0.8817   -2.3217 H   0  0  0  0  0  0  0  0  0  0  0  0
   -3.2288   -1.8874   -3.0423 H   0  0  0  0  0  0  0  0  0  0  0  0
   -1.6320   -2.6054   -2.6461 H   0  0  0  0  0  0  0  0  0  0  0  0
    0.1533   -2.9143   -0.2099 C   0  0  1  0  0  3  0  0  0  0  0  0
    1.5611   -2.8504   -0.3472 C   0  0  0  0  0  0  0  0  0  0  0  0
    2.0964   -3.7983   -0.4713 H   0  0  0  0  0  0  0  0  0  0  0  0
    2.3085   -1.6751   -0.2152 C   0  0  0  0  0  0  0  0  0  0  0  0
   -0.4720   -4.2943   -0.2271 C   0  0  0  0  0  0  0  0  0  0  0  0
   -0.9693   -4.5155    0.7390 H   0  0  0  0  0  0  0  0  0  0  0  0
    0.2917   -5.0692   -0.4181 H   0  0  0  0  0  0  0  0  0  0  0  0
   -1.2630   -4.3691   -0.9994 H   0  0  0  0  0  0  0  0  0  0  0  0
    3.7989   -1.7123   -0.2609 C   0  0  0  0  0  0  0  0  0  0  0  0
    4.5055   -2.7325   -0.9365 C   0  0  0  0  0  0  0  0  0  0  0  0
    3.9541   -3.5178   -1.4740 H   0  0  0  0  0  0  0  0  0  0  0  0
    5.9062   -2.7320   -0.9595 C   0  0  0  0  0  0  0  0  0  0  0  0
    6.4427   -3.5272   -1.4993 H   0  0  0  0  0  0  0  0  0  0  0  0
    6.6241   -1.7162   -0.3057 C   0  0  0  0  0  0  0  0  0  0  0  0
    7.7247   -1.7185   -0.3244 H   0  0  0  0  0  0  0  0  0  0  0  0
    5.9290   -0.6962    0.3635 C   0  0  0  0  0  0  0  0  0  0  0  0
    6.4789    0.1098    0.8730 H   0  0  0  0  0  0  0  0  0  0  0  0
    4.5290   -0.6903    0.3818 C   0  0  0  0  0  0  0  0  0  0  0  0
    3.9784    0.1072    0.8971 H   0  0  0  0  0  0  0  0  0  0  0  0
  2  3  1  0  0  0  0
  3  4  1  0  0  0  0
  4  5  2  0  0  0  0
  4 12  1  0  0  0  0
  5  6  1  0  0  0  0
  7  8  1  0  0  0  0
  7  5  1  0  0  0  0
  9  7  2  0  0  0  0
 10  9  1  0  0  0  0
 11  9  1  0  0  0  0
 11  3  2  0  0  0  0
 12 13  1  0  0  0  0
 14 12  1  0  0  0  0
 15 12  1  0  0  0  0
 16 11  1  0  0  0  0
 17 16  1  0  0  0  0
 18 16  1  0  0  0  0
 19 16  1  0  0  0  0
 20 21  1  1  0  0  0
 20  2  1  0  0  0  0
 21 23  2  0  0  0  0
 22 21  1  0  0  0  0
 23  1  1  0  0  0  0
 24 20  1  0  0  0  0
 24 25  1  0  0  0  0
 26 24  1  0  0  0  0
 27 24  1  0  0  0  0
 28 23  1  0  0  0  0
 28 37  1  0  0  0  0
 29 28  2  0  0  0  0
 30 29  1  0  0  0  0
 31 29  1  0  0  0  0
 31 33  2  0  0  0  0
 32 31  1  0  0  0  0
 33 35  1  0  0  0  0
 34 33  1  0  0  0  0
 35 37  2  0  0  0  0
 35 36  1  0  0  0  0
 37 38  1  0  0  0  0
M  CHG  1   1  -1
M  END
