23,27
q = -1.0

 29 29  0  0  1  0  0  0  0  0999 V2000
    5.0061    1.0316   -0.5597 C   0  0  0  0  0  0  0  0  0  0  0  0
    3.9537    0.3175   -1.2228 C   0  0  0  0  0  0  0  0  0  0  0  0
    4.2208   -0.3245   -2.4544 C   0  0  0  0  0  0  0  0  0  0  0  0
    3.3838   -0.8533   -2.9338 H   0  0  0  0  0  0  0  0  0  0  0  0
    5.4875   -0.2829   -3.0346 C   0  0  0  0  0  0  0  0  0  0  0  0
    5.6799   -0.7894   -3.9915 H   0  0  0  0  0  0  0  0  0  0  0  0
    6.5199    0.4218   -2.3786 C   0  0  0  0  0  0  0  0  0  0  0  0
    7.5252    0.4646   -2.8262 H   0  0  0  0  0  0  0  0  0  0  0  0
    6.2858    1.0693   -1.1653 C   0  0  0  0  0  0  0  0  0  0  0  0
    7.0806    1.6232   -0.6449 H   0  0  0  0  0  0  0  0  0  0  0  0
    2.5769    0.2584   -0.6879 C   0  0  0  0  0  0  0  0  0  0  0  0
    0.7776    1.8234    1.8474 C   0  0  2  0  0  3  0  0  0  0  0  0
   -0.6203    1.8133    2.3110 C   0  0  0  0  0  0  0  0  0  0  0  0
   -1.4046    3.0805    2.4943 C   0  0  0  0  0  0  0  0  0  0  0  0
   -1.9287    3.0865    3.4711 H   0  0  0  0  0  0  0  0  0  0  0  0
   -2.1933    3.1202    1.7131 H   0  0  0  0  0  0  0  0  0  0  0  0
   -0.7756    3.9835    2.4028 H   0  0  0  0  0  0  0  0  0  0  0  0
    1.7791    2.8129    2.3624 C   0  0  0  0  0  0  0  0  0  0  0  0
    1.3027    3.6003    2.9731 H   0  0  0  0  0  0  0  0  0  0  0  0
    2.3463    3.2743    1.5282 H   0  0  0  0  0  0  0  0  0  0  0  0
    2.5298    2.2949    2.9978 H   0  0  0  0  0  0  0  0  0  0  0  0
    2.4286    0.8250    0.5767 N   0  0  0  0  0  0  0  0  0  0  0  0
    1.1247    0.9271    0.9480 N   0  0  0  0  0  2  0  0  0  0  0  0
   -1.1469    0.6283    2.4545 N   0  0  0  0  0  0  0  0  0  0  0  0
    4.8347    1.6646    0.6071 O   0  0  0  0  0  0  0  0  0  0  0  0
    3.8575    1.4951    0.8638 H   0  0  0  0  0  0  0  0  0  0  0  0
    1.6268   -0.2696   -1.3118 O   0  5  0  0  0  0  0  0  0  0  0  0
   -2.5016    0.7010    2.7290 O   0  0  0  0  0  0  0  0  0  0  0  0
   -2.7500   -0.2393    2.8118 H   0  0  0  0  0  0  0  0  0  0  0  0
  1 25  1  0  0  0  0
  2 11  1  0  0  0  0
  2  1  2  0  0  0  0
  3  2  1  0  0  0  0
  4  3  1  0  0  0  0
  5  3  2  0  0  0  0
  5  7  1  0  0  0  0
  6  5  1  0  0  0  0
  7  9  2  0  0  0  0
  8  7  1  0  0  0  0
  9 10  1  0  0  0  0
  9  1  1  0  0  0  0
 11 22  2  0  0  0  0
 12 23  1  6  0  0  0
 12 13  1  0  0  0  0
 12 18  1  0  0  0  0
 13 24  2  0  0  0  0
 13 14  1  0  0  0  0
 14 15  1  0  0  0  0
 16 14  1  0  0  0  0
 17 14  1  0  0  0  0
 18 19  1  0  0  0  0
 18 21  1  0  0  0  0
 20 18  1  0  0  0  0
 22 23  1  0  0  0  0
 24 28  1  0  0  0  0
 25 26  1  0  0  0  0
 27 11  1  0  0  0  0
 28 29  1  0  0  0  0
M  CHG  1  27  -1
M  END
