1,2
q = -1.0, confidence = 0.016

 15 15  0  0  1  0  0  0  0  0999 V2000
   -1.4166   -0.6945    0.3536 N   0  0  0  0  0  2  0  0  0  0  0  0
   -0.7785    0.6119   -1.7361 O   0  5  0  0  0  0  0  0  0  0  0  0
   -2.0041   -1.1557   -0.7779 C   0  0  1  0  0  3  0  0  0  0  0  0
   -2.9288   -2.2179   -0.7304 C   0  0  0  0  0  0  0  0  0  0  0  0
   -3.4053   -2.5733   -1.6540 H   0  0  0  0  0  0  0  0  0  0  0  0
   -3.2350   -2.7995    0.5031 C   0  0  0  0  0  0  0  0  0  0  0  0
   -3.9581   -3.6272    0.5610 H   0  0  0  0  0  0  0  0  0  0  0  0
   -2.6121   -2.3130    1.6660 C   0  0  0  0  0  0  0  0  0  0  0  0
   -2.8243   -2.7441    2.6546 H   0  0  0  0  0  0  0  0  0  0  0  0
   -1.7047   -1.2562    1.5422 C   0  0  0  0  0  0  0  0  0  0  0  0
   -1.1775   -0.8341    2.4117 H   0  0  0  0  0  0  0  0  0  0  0  0
   -1.5671   -0.4237   -2.0008 C   0  0  0  0  0  0  0  0  0  0  0  0
   -1.9341   -0.7969   -3.2617 C   0  0  0  0  0  0  0  0  0  0  0  0
   -1.5813   -0.2176   -4.1259 H   0  0  0  0  0  0  0  0  0  0  0  0
   -2.5874   -1.6597   -3.4415 H   0  0  0  0  0  0  0  0  0  0  0  0
  1 10  1  0  0  0  0
  3 12  1  1  0  0  0
  3  4  1  0  0  0  0
  3  1  1  0  0  0  0
  4  6  2  0  0  0  0
  5  4  1  0  0  0  0
  6  7  1  0  0  0  0
  6  8  1  0  0  0  0
  8  9  1  0  0  0  0
 10  8  2  0  0  0  0
 10 11  1  0  0  0  0
 12  2  1  0  0  0  0
 13 12  2  0  0  0  0
 14 13  1  0  0  0  0
 15 13  1  0  0  0  0
M  CHG  1   2  -1
M  END
