2,3
q = -1.0

 20 21  0  0  1  0  0  0  0  0999 V2000
   -4.2940    0.9363   -0.2924 S   0  0  0  0  0  0  0  0  0  0  0  0
    0.0627    0.0697   -1.3248 O   0  5  0  0  0  0  0  0  0  0  0  0
   -2.1376   -0.4913    0.1467 N   0  0  0  0  0  2  0  0  0  0  0  0
   -0.3805    1.3070   -1.4201 C   0  0  0  0  0  0  0  0  0  0  0  0
    0.4174    2.2942   -2.0516 C   0  0  0  0  0  0  0  0  0  0  0  0
    1.3945    1.9786   -2.4442 H   0  0  0  0  0  0  0  0  0  0  0  0
   -0.0197    3.6164   -2.1396 C   0  0  0  0  0  0  0  0  0  0  0  0
    0.6267    4.3700   -2.6153 H   0  0  0  0  0  0  0  0  0  0  0  0
   -1.2758    3.9965   -1.6191 C   0  0  0  0  0  0  0  0  0  0  0  0
   -1.6129    5.0409   -1.6851 H   0  0  0  0  0  0  0  0  0  0  0  0
   -2.0890    3.0348   -1.0197 C   0  0  0  0  0  0  0  0  0  0  0  0
   -3.0694    3.3178   -0.6052 H   0  0  0  0  0  0  0  0  0  0  0  0
   -1.6680    1.6854   -0.9023 C   0  0  0  0  0  0  0  0  0  0  0  0
   -2.5392    0.6768   -0.3288 C   0  0  1  0  0  3  0  0  0  0  0  0
   -4.4740   -0.5128    0.8220 C   0  0  0  0  0  0  0  0  0  0  0  0
   -4.4922   -0.1557    1.8721 H   0  0  0  0  0  0  0  0  0  0  0  0
   -5.4271   -1.0269    0.5984 H   0  0  0  0  0  0  0  0  0  0  0  0
   -3.2484   -1.3788    0.5246 C   0  0  0  0  0  0  0  0  0  0  0  0
   -2.9459   -1.9863    1.3995 H   0  0  0  0  0  0  0  0  0  0  0  0
   -3.4071   -2.0782   -0.3260 H   0  0  0  0  0  0  0  0  0  0  0  0
  1 15  1  0  0  0  0
  3 18  1  0  0  0  0
  4  2  1  0  0  0  0
  4 13  1  0  0  0  0
  5  4  2  0  0  0  0
  6  5  1  0  0  0  0
  7  5  1  0  0  0  0
  7  9  2  0  0  0  0
  8  7  1  0  0  0  0
  9 11  1  0  0  0  0
 10  9  1  0  0  0  0
 11 13  2  0  0  0  0
 11 12  1  0  0  0  0
 14 13  1  6  0  0  0
 14  1  1  0  0  0  0
 14  3  1  0  0  0  0
 15 16  1  0  0  0  0
 17 15  1  0  0  0  0
 18 15  1  0  0  0  0
 18 19  1  0  0  0  0
 20 18  1  0  0  0  0
M  CHG  1   2  -1
M  END
