2,3
q = -2.0, confidence = 0.932

 21 21  0  0  0  0  0  0  0  0999 V2000
   -5.5096   -0.4153    0.8695 Cl  0  0  0  0  0  0  0  0  0  0  0  0
   -1.7988    0.3648   -0.6422 N   0  0  0  0  0  2  0  0  0  0  0  0
    0.7147    0.1430   -1.4180 O   0  5  0  0  0  0  0  0  0  0  0  0
   -2.5494    2.5254   -0.5868 O   0  0  0  0  0  0  0  0  0  0  0  0
    0.8782    1.4582   -1.2907 C   0  0  0  0  0  0  0  0  0  0  0  0
    2.1462    2.0350   -1.5334 C   0  0  0  0  0  0  0  0  0  0  0  0
    2.9713    1.3714   -1.8290 H   0  0  0  0  0  0  0  0  0  0  0  0
    2.3256    3.4120   -1.3763 C   0  0  0  0  0  0  0  0  0  0  0  0
    3.3185    3.8520   -1.5570 H   0  0  0  0  0  0  0  0  0  0  0  0
    1.2499    4.2370   -0.9880 C   0  0  0  0  0  0  0  0  0  0  0  0
    1.3976    5.3204   -0.8698 H   0  0  0  0  0  0  0  0  0  0  0  0
   -0.0086    3.6702   -0.7684 C   0  0  0  0  0  0  0  0  0  0  0  0
   -0.8802    4.2813   -0.4906 H   0  0  0  0  0  0  0  0  0  0  0  0
   -0.2122    2.2803   -0.9052 C   0  0  0  0  0  0  0  0  0  0  0  0
   -1.5905    1.7542   -0.7061 C   0  0  0  0  0  0  0  0  0  0  0  0
   -3.2227   -0.0204   -0.5641 C   0  0  0  0  0  0  0  0  0  0  0  0
   -3.3415   -1.0574   -0.9296 H   0  0  0  0  0  0  0  0  0  0  0  0
   -3.7902    0.6563   -1.2333 H   0  0  0  0  0  0  0  0  0  0  0  0
   -3.7845    0.1018    0.8517 C   0  0  0  0  0  0  0  0  0  0  0  0
   -3.7484    1.1557    1.1842 H   0  0  0  0  0  0  0  0  0  0  0  0
   -3.2369   -0.5511    1.5567 H   0  0  0  0  0  0  0  0  0  0  0  0
  2 16  1  0  0  0  0
  3  5  1  0  0  0  0
  5 14  1  0  0  0  0
  6  8  1  0  0  0  0
  6  5  2  0  0  0  0
  7  6  1  0  0  0  0
  8 10  2  0  0  0  0
  9  8  1  0  0  0  0
 10 11  1  0  0  0  0
 10 12  1  0  0  0  0
 12 13  1  0  0  0  0
 14 12  2  0  0  0  0
 14 15  1  0  0  0  0
 15  2  1  0  0  0  0
 15  4  2  0  0  0  0
 16 19  1  0  0  0  0
 17 16  1  0  0  0  0
 18 16  1  0  0  0  0
 19  1  1  0  0  0  0
 19 20  1  0  0  0  0
 19 21  1  0  0  0  0
M  CHG  1   3  -1
M  END
