1,2
q = -1.0, confidence = 0.0

 20 21  0  0  1  0  0  0  0  0999 V2000
    0.3760    0.1435    1.3041 N   0  0  0  0  0  2  0  0  0  0  0  0
    1.2359   -2.0408   -0.0604 O   0  5  0  0  0  0  0  0  0  0  0  0
    1.9450    1.1444    2.5684 O   0  0  0  0  0  0  0  0  0  0  0  0
    2.4722   -1.5842    0.1440 C   0  0  0  0  0  0  0  0  0  0  0  0
    3.5550   -2.2961   -0.4179 C   0  0  0  0  0  0  0  0  0  0  0  0
    3.3277   -3.1872   -1.0194 H   0  0  0  0  0  0  0  0  0  0  0  0
    4.8670   -1.8600   -0.2145 C   0  0  0  0  0  0  0  0  0  0  0  0
    5.6975   -2.4208   -0.6697 H   0  0  0  0  0  0  0  0  0  0  0  0
    5.1341   -0.7105    0.5554 C   0  0  0  0  0  0  0  0  0  0  0  0
    6.1689   -0.3712    0.7060 H   0  0  0  0  0  0  0  0  0  0  0  0
    4.0745   -0.0048    1.1284 C   0  0  0  0  0  0  0  0  0  0  0  0
    4.2555    0.8921    1.7371 H   0  0  0  0  0  0  0  0  0  0  0  0
    2.7398   -0.4251    0.9340 C   0  0  0  0  0  0  0  0  0  0  0  0
    1.6449    0.2829    1.5776 C   0  0  1  0  0  3  0  0  0  0  0  0
    0.6990    1.8113    2.9231 C   0  0  0  0  0  0  0  0  0  0  0  0
    0.7239    2.8262    2.4736 H   0  0  0  0  0  0  0  0  0  0  0  0
    0.6551    1.8907    4.0247 H   0  0  0  0  0  0  0  0  0  0  0  0
   -0.3827    0.9160    2.2963 C   0  0  0  0  0  0  0  0  0  0  0  0
   -0.8522    0.2148    3.0203 H   0  0  0  0  0  0  0  0  0  0  0  0
   -1.1924    1.4990    1.8190 H   0  0  0  0  0  0  0  0  0  0  0  0
  1 14  1  0  0  0  0
  1 18  1  0  0  0  0
  2  4  1  0  0  0  0
  3 15  1  0  0  0  0
  4 13  1  0  0  0  0
  5  7  1  0  0  0  0
  5  4  2  0  0  0  0
  6  5  1  0  0  0  0
  7  9  2  0  0  0  0
  8  7  1  0  0  0  0
  9 10  1  0  0  0  0
  9 11  1  0  0  0  0
 11 12  1  0  0  0  0
 13 11  2  0  0  0  0
 14 13  1  1  0  0  0
 14  3  1  0  0  0  0
 15 17  1  0  0  0  0
 16 15  1  0  0  0  0
 18 15  1  0  0  0  0
 18 19  1  0  0  0  0
 20 18  1  0  0  0  0
M  CHG  1   2  -1
M  END
