1,14
q = -1.0

 16 15  0  0  1  0  0  0  0  0999 V2000
   -1.1481    1.6730   -0.1173 O   0  5  0  0  0  0  0  0  0  0  0  0
   -3.2985    2.3334   -0.1737 O   0  0  0  0  0  0  0  0  0  0  0  0
   -2.4342    1.4674   -0.2793 C   0  0  0  0  0  0  0  0  0  0  0  0
   -2.8280    0.0002   -0.6110 C   0  0  2  0  0  0  0  0  0  0  0  0
   -2.7141   -0.1399   -1.7069 H   0  0  0  0  0  0  0  0  0  0  0  0
   -4.2687   -0.2767   -0.1513 C   0  0  2  0  0  0  0  0  0  0  0  0
   -4.9053    0.4607   -0.6906 H   0  0  0  0  0  0  0  0  0  0  0  0
   -4.3310   -0.0594    1.2563 O   0  0  0  0  0  0  0  0  0  0  0  0
   -4.2537    0.9125    1.3619 H   0  0  0  0  0  0  0  0  0  0  0  0
   -4.7536   -1.6900   -0.4411 C   0  0  0  0  0  0  0  0  0  0  0  0
   -4.1502   -2.4475    0.1014 H   0  0  0  0  0  0  0  0  0  0  0  0
   -5.8003   -1.8052   -0.1009 H   0  0  0  0  0  0  0  0  0  0  0  0
   -4.7086   -1.9125   -1.5257 H   0  0  0  0  0  0  0  0  0  0  0  0
   -1.8504   -0.8966    0.0717 N   0  0  0  0  0  0  0  0  0  0  0  0
   -2.1736   -0.9827    1.0549 H   0  0  0  0  0  0  0  0  0  0  0  0
   -1.8483   -1.8462   -0.3288 H   0  0  0  0  0  0  0  0  0  0  0  0
  3  2  2  0  0  0  0
  3  1  1  0  0  0  0
  4  5  1  6  0  0  0
  4  3  1  0  0  0  0
  4  6  1  0  0  0  0
  4 14  1  0  0  0  0
  6  7  1  6  0  0  0
  6  8  1  0  0  0  0
  8  9  1  0  0  0  0
 10  6  1  0  0  0  0
 10 12  1  0  0  0  0
 10 11  1  0  0  0  0
 13 10  1  0  0  0  0
 14 15  1  0  0  0  0
 16 14  1  0  0  0  0
M  CHG  1   1  -1
M  END
