1,4
q = -1.0, confidence = 0.008

 16 15  0  0  1  0  0  0  0  0999 V2000
   -1.6250   -0.6363    1.0869 N   0  0  0  0  0  0  0  0  0  0  0  0
   -1.3759   -0.5822    2.0849 H   0  0  0  0  0  0  0  0  0  0  0  0
   -1.9108   -1.6190    0.9094 H   0  0  0  0  0  0  0  0  0  0  0  0
   -1.1267    1.6775   -0.2021 O   0  5  0  0  0  0  0  0  0  0  0  0
   -2.3779    1.6030    0.2057 C   0  0  0  0  0  0  0  0  0  0  0  0
   -2.8015    0.2360    0.7902 C   0  0  1  0  0  0  0  0  0  0  0  0
   -3.3653    0.4276    1.7276 H   0  0  0  0  0  0  0  0  0  0  0  0
   -3.2044    2.4980    0.1028 O   0  0  0  0  0  0  0  0  0  0  0  0
   -3.7482   -0.5079   -0.1894 C   0  0  1  0  0  0  0  0  0  0  0  0
   -4.6828    0.0954   -0.2243 H   0  0  0  0  0  0  0  0  0  0  0  0
   -3.1995   -0.6530   -1.6023 C   0  0  0  0  0  0  0  0  0  0  0  0
   -3.9167   -1.2332   -2.2133 H   0  0  0  0  0  0  0  0  0  0  0  0
   -3.0543    0.3409   -2.0660 H   0  0  0  0  0  0  0  0  0  0  0  0
   -2.2246   -1.1820   -1.6073 H   0  0  0  0  0  0  0  0  0  0  0  0
   -3.9916   -1.8276    0.3083 O   0  0  0  0  0  0  0  0  0  0  0  0
   -4.5750   -1.7506    1.0863 H   0  0  0  0  0  0  0  0  0  0  0  0
  1  2  1  0  0  0  0
  3  1  1  0  0  0  0
  4  5  1  0  0  0  0
  5  6  1  0  0  0  0
  6  1  1  0  0  0  0
  6  7  1  1  0  0  0
  8  5  2  0  0  0  0
  9 10  1  6  0  0  0
  9 15  1  0  0  0  0
  9  6  1  0  0  0  0
 11  9  1  0  0  0  0
 12 11  1  0  0  0  0
 13 11  1  0  0  0  0
 14 11  1  0  0  0  0
 15 16  1  0  0  0  0
M  CHG  1   4  -1
M  END
