1,4
q = -1.0, confidence = 0.008

 16 15  0  0  1  0  0  0  0  0999 V2000
    1.6250    0.6363   -1.0870 N   0  0  0  0  0  0  0  0  0  0  0  0
    1.3760    0.5821   -2.0850 H   0  0  0  0  0  0  0  0  0  0  0  0
    1.9108    1.6190   -0.9095 H   0  0  0  0  0  0  0  0  0  0  0  0
    1.1267   -1.6776    0.2020 O   0  5  0  0  0  0  0  0  0  0  0  0
    2.3779   -1.6029   -0.2056 C   0  0  0  0  0  0  0  0  0  0  0  0
    2.8016   -0.2360   -0.7902 C   0  0  2  0  0  0  0  0  0  0  0  0
    3.3654   -0.4276   -1.7275 H   0  0  0  0  0  0  0  0  0  0  0  0
    3.2045   -2.4979   -0.1026 O   0  0  0  0  0  0  0  0  0  0  0  0
    3.7482    0.5080    0.1895 C   0  0  2  0  0  0  0  0  0  0  0  0
    4.6828   -0.0952    0.2245 H   0  0  0  0  0  0  0  0  0  0  0  0
    3.1994    0.6531    1.6023 C   0  0  0  0  0  0  0  0  0  0  0  0
    3.9165    1.2333    2.2134 H   0  0  0  0  0  0  0  0  0  0  0  0
    3.0542   -0.3408    2.0661 H   0  0  0  0  0  0  0  0  0  0  0  0
    2.2245    1.1821    1.6073 H   0  0  0  0  0  0  0  0  0  0  0  0
    3.9915    1.8276   -0.3082 O   0  0  0  0  0  0  0  0  0  0  0  0
    4.5749    1.7507   -1.0862 H   0  0  0  0  0  0  0  0  0  0  0  0
  1  3  1  0  0  0  0
  1  6  1  0  0  0  0
  2  1  1  0  0  0  0
  5  8  2  0  0  0  0
  5  4  1  0  0  0  0
  6  7  1  6  0  0  0
  6  5  1  0  0  0  0
  6  9  1  0  0  0  0
  9 10  1  1  0  0  0
  9 11  1  0  0  0  0
 11 14  1  0  0  0  0
 11 13  1  0  0  0  0
 11 12  1  0  0  0  0
 15  9  1  0  0  0  0
 16 15  1  0  0  0  0
M  CHG  1   4  -1
M  END
