1,4
q = -1.0

 23 23  0  0  1  0  0  0  0  0999 V2000
   -1.5404   -0.4652   -0.5610 N   0  0  0  0  0  0  0  0  0  0  0  0
   -1.4410    0.4933   -0.1863 H   0  0  0  0  0  0  0  0  0  0  0  0
   -1.6665   -0.3354   -1.5792 H   0  0  0  0  0  0  0  0  0  0  0  0
   -1.4600   -3.0181   -0.0886 O   0  5  0  0  0  0  0  0  0  0  0  0
   -3.6862   -3.2960   -0.1950 O   0  0  0  0  0  0  0  0  0  0  0  0
   -3.6370    5.2613   -0.2284 O   0  0  0  0  0  0  0  0  0  0  0  0
   -3.8464    5.5734    0.6722 H   0  0  0  0  0  0  0  0  0  0  0  0
   -2.7130   -2.5721   -0.1123 C   0  0  0  0  0  0  0  0  0  0  0  0
   -2.8033   -1.0422    0.0034 C   0  0  2  0  0  0  0  0  0  0  0  0
   -2.7587   -0.8232    1.0909 H   0  0  0  0  0  0  0  0  0  0  0  0
   -4.0573   -0.4178   -0.6125 C   0  0  0  0  0  0  0  0  0  0  0  0
   -4.1494   -0.7381   -1.6725 H   0  0  0  0  0  0  0  0  0  0  0  0
   -4.9290   -0.8556   -0.0859 H   0  0  0  0  0  0  0  0  0  0  0  0
   -4.0184    1.0907   -0.5104 C   0  0  0  0  0  0  0  0  0  0  0  0
   -4.2098    1.7377    0.7284 C   0  0  0  0  0  0  0  0  0  0  0  0
   -4.4700    1.1461    1.6209 H   0  0  0  0  0  0  0  0  0  0  0  0
   -4.0901    3.1274    0.8490 C   0  0  0  0  0  0  0  0  0  0  0  0
   -4.2574    3.6109    1.8252 H   0  0  0  0  0  0  0  0  0  0  0  0
   -3.7680    3.9141   -0.2781 C   0  0  0  0  0  0  0  0  0  0  0  0
   -3.5716    3.2821   -1.5236 C   0  0  0  0  0  0  0  0  0  0  0  0
   -3.3431    3.9049   -2.4003 H   0  0  0  0  0  0  0  0  0  0  0  0
   -3.6972    1.8917   -1.6278 C   0  0  0  0  0  0  0  0  0  0  0  0
   -3.5726    1.4182   -2.6164 H   0  0  0  0  0  0  0  0  0  0  0  0
  1  2  1  0  0  0  0
  1  9  1  0  0  0  0
  3  1  1  0  0  0  0
  5  8  2  0  0  0  0
  6  7  1  0  0  0  0
  8  4  1  0  0  0  0
  8  9  1  0  0  0  0
  9 10  1  1  0  0  0
 11 14  1  0  0  0  0
 11 13  1  0  0  0  0
 11  9  1  0  0  0  0
 12 11  1  0  0  0  0
 14 15  1  0  0  0  0
 15 17  2  0  0  0  0
 15 16  1  0  0  0  0
 17 18  1  0  0  0  0
 19  6  1  0  0  0  0
 19 17  1  0  0  0  0
 20 19  2  0  0  0  0
 21 20  1  0  0  0  0
 22 20  1  0  0  0  0
 22 14  2  0  0  0  0
 23 22  1  0  0  0  0
M  CHG  1   4  -1
M  END
