1,2
q = -1.0, confidence = 0.0

 23 24  0  0  1  0  0  0  0  0999 V2000
   -1.3096   -1.5445   -0.0002 O   0  5  0  0  0  0  0  0  0  0  0  0
   -1.6810    1.0954    0.0000 N   0  0  0  0  0  2  0  0  0  0  0  0
   -1.7758    2.4264    0.0001 C   0  0  0  0  0  0  0  0  0  0  0  0
   -0.8226    2.9776    0.0002 H   0  0  0  0  0  0  0  0  0  0  0  0
   -3.0403    3.0606    0.0001 C   0  0  0  0  0  0  0  0  0  0  0  0
   -3.0887    4.1586    0.0001 H   0  0  0  0  0  0  0  0  0  0  0  0
   -4.1990    2.2907    0.0000 C   0  0  0  0  0  0  0  0  0  0  0  0
   -5.1830    2.7827    0.0000 H   0  0  0  0  0  0  0  0  0  0  0  0
   -4.1243    0.8680   -0.0000 C   0  0  0  0  0  0  0  0  0  0  0  0
   -5.2431   -0.0218   -0.0000 C   0  0  0  0  0  0  0  0  0  0  0  0
   -4.9744   -1.3960   -0.0000 C   0  0  0  0  0  0  0  0  0  0  0  0
   -5.8315   -2.0905    0.0000 H   0  0  0  0  0  0  0  0  0  0  0  0
   -3.6777   -1.9705   -0.0000 C   0  0  0  0  0  0  0  0  0  0  0  0
   -2.5587   -1.1078   -0.0001 C   0  0  0  0  0  0  0  0  0  0  0  0
   -2.8048    0.3031   -0.0000 C   0  0  1  0  0  3  0  0  0  0  0  0
   -6.6543    0.5066   -0.0000 C   0  0  0  0  0  0  0  0  0  0  0  0
   -7.3863   -0.3237   -0.0001 H   0  0  0  0  0  0  0  0  0  0  0  0
   -6.8667    1.1350   -0.8919 H   0  0  0  0  0  0  0  0  0  0  0  0
   -6.8668    1.1349    0.8918 H   0  0  0  0  0  0  0  0  0  0  0  0
   -3.4521   -3.4551    0.0000 C   0  0  0  0  0  0  0  0  0  0  0  0
   -2.8594   -3.7666   -0.8863 H   0  0  0  0  0  0  0  0  0  0  0  0
   -4.4065   -4.0154    0.0004 H   0  0  0  0  0  0  0  0  0  0  0  0
   -2.8587   -3.7664    0.8859 H   0  0  0  0  0  0  0  0  0  0  0  0
  1 14  1  0  0  0  0
  2  3  1  0  0  0  0
  3  4  1  0  0  0  0
  5  3  2  0  0  0  0
  5  6  1  0  0  0  0
  7  5  1  0  0  0  0
  8  7  1  0  0  0  0
  9  7  2  0  0  0  0
 10  9  1  0  0  0  0
 10 11  2  0  0  0  0
 11 13  1  0  0  0  0
 11 12  1  0  0  0  0
 13 20  1  0  0  0  0
 14 13  2  0  0  0  0
 15 14  1  6  0  0  0
 15  9  1  0  0  0  0
 15  2  1  0  0  0  0
 16 10  1  0  0  0  0
 16 19  1  0  0  0  0
 17 16  1  0  0  0  0
 18 16  1  0  0  0  0
 20 22  1  0  0  0  0
 20 23  1  0  0  0  0
 21 20  1  0  0  0  0
M  CHG  1   1  -1
M  END
