1,2
q = -1.0

 27 28  0  0  0  0  0  0  0  0999 V2000
   -2.2646    0.8446    0.8720 O   0  5  0  0  0  0  0  0  0  0  0  0
    0.2657    1.4904   -0.3986 N   0  0  0  0  0  2  0  0  0  0  0  0
    5.8593    0.7103   -1.0595 N   0  0  0  0  0  0  0  0  0  0  0  0
   -2.5383    2.1015    0.6316 C   0  0  0  0  0  0  0  0  0  0  0  0
   -3.8203    2.5964    1.0210 C   0  0  0  0  0  0  0  0  0  0  0  0
   -4.5155    1.8804    1.4828 H   0  0  0  0  0  0  0  0  0  0  0  0
   -4.1762    3.9234    0.8178 C   0  0  0  0  0  0  0  0  0  0  0  0
   -5.1772    4.2660    1.1225 H   0  0  0  0  0  0  0  0  0  0  0  0
   -3.2708    4.8423    0.2270 C   0  0  0  0  0  0  0  0  0  0  0  0
   -3.5616    5.8913    0.0765 H   0  0  0  0  0  0  0  0  0  0  0  0
   -2.0134    4.3978   -0.1473 C   0  0  0  0  0  0  0  0  0  0  0  0
   -1.2909    5.0985   -0.5955 H   0  0  0  0  0  0  0  0  0  0  0  0
   -1.6120    3.0365    0.0296 C   0  0  0  0  0  0  0  0  0  0  0  0
   -0.2768    2.6955   -0.3473 C   0  0  0  0  0  3  0  0  0  0  0  0
    0.3740    3.5409   -0.6452 H   0  0  0  0  0  0  0  0  0  0  0  0
    1.6694    1.4029   -0.6233 C   0  0  0  0  0  0  0  0  0  0  0  0
    2.1695    0.7946   -1.7949 C   0  0  0  0  0  0  0  0  0  0  0  0
    1.4691    0.4690   -2.5760 H   0  0  0  0  0  0  0  0  0  0  0  0
    3.5411    0.5862   -1.9509 C   0  0  0  0  0  0  0  0  0  0  0  0
    3.9622    0.1012   -2.8414 H   0  0  0  0  0  0  0  0  0  0  0  0
    4.4079    0.9973   -0.9286 C   0  0  0  0  0  0  0  0  0  0  0  0
    3.9442    1.6487    0.2199 C   0  0  0  0  0  0  0  0  0  0  0  0
    4.6684    1.9665    0.9820 H   0  0  0  0  0  0  0  0  0  0  0  0
    2.5675    1.8518    0.3689 C   0  0  0  0  0  0  0  0  0  0  0  0
    2.1694    2.3297    1.2760 H   0  0  0  0  0  0  0  0  0  0  0  0
    6.2196    0.0909   -2.0592 O   0  0  0  0  0  0  0  0  0  0  0  0
    6.5921    1.0966   -0.1512 O   0  0  0  0  0  0  0  0  0  0  0  0
  2 14  1  0  0  0  0
  3 21  1  0  0  0  0
  3 27  2  0  0  0  0
  4  1  1  0  0  0  0
  4  5  1  0  0  0  0
  5  6  1  0  0  0  0
  7  5  2  0  0  0  0
  7  8  1  0  0  0  0
  9  7  1  0  0  0  0
 10  9  1  0  0  0  0
 11 13  1  0  0  0  0
 11  9  2  0  0  0  0
 12 11  1  0  0  0  0
 13  4  2  0  0  0  0
 14 13  1  0  0  0  0
 15 14  1  0  0  0  0
 16  2  1  0  0  0  0
 16 24  1  0  0  0  0
 17 16  2  0  0  0  0
 18 17  1  0  0  0  0
 19 17  1  0  0  0  0
 19 21  2  0  0  0  0
 20 19  1  0  0  0  0
 21 22  1  0  0  0  0
 22 24  2  0  0  0  0
 22 23  1  0  0  0  0
 24 25  1  0  0  0  0
 26  3  2  0  0  0  0
M  CHG  1   1  -1
M  END
