1,2
q = -1.0, confidence = 0.008

 31 32  0  0  0  0  0  0  0  0999 V2000
   -1.7041   -0.5003    1.3247 O   0  5  0  0  0  0  0  0  0  0  0  0
    0.4074   -1.5717   -0.3577 N   0  0  0  0  0  2  0  0  0  0  0  0
   -2.2294   -1.6918    1.1713 C   0  0  0  0  0  0  0  0  0  0  0  0
   -3.4785   -1.9640    1.8061 C   0  0  0  0  0  0  0  0  0  0  0  0
   -3.9395   -1.1454    2.3777 H   0  0  0  0  0  0  0  0  0  0  0  0
   -4.0940   -3.2051    1.6944 C   0  0  0  0  0  0  0  0  0  0  0  0
   -5.0649   -3.3719    2.1860 H   0  0  0  0  0  0  0  0  0  0  0  0
   -3.4903   -4.2566    0.9604 C   0  0  0  0  0  0  0  0  0  0  0  0
   -3.9815   -5.2368    0.8842 H   0  0  0  0  0  0  0  0  0  0  0  0
   -2.2623   -4.0326    0.3559 C   0  0  0  0  0  0  0  0  0  0  0  0
   -1.7641   -4.8444   -0.1984 H   0  0  0  0  0  0  0  0  0  0  0  0
   -1.6072   -2.7661    0.4281 C   0  0  0  0  0  0  0  0  0  0  0  0
   -0.3050   -2.6647   -0.1641 C   0  0  0  0  0  3  0  0  0  0  0  0
    0.1597   -3.6200   -0.4798 H   0  0  0  0  0  0  0  0  0  0  0  0
    1.7879   -1.7410   -0.7314 C   0  0  0  0  0  0  0  0  0  0  0  0
    2.7282   -2.1175    0.2632 C   0  0  0  0  0  0  0  0  0  0  0  0
    4.0970   -2.1153   -0.0791 C   0  0  0  0  0  0  0  0  0  0  0  0
    4.8344   -2.3881    0.6921 H   0  0  0  0  0  0  0  0  0  0  0  0
    4.5235   -1.7906   -1.3698 C   0  0  0  0  0  0  0  0  0  0  0  0
    5.5958   -1.7909   -1.6156 H   0  0  0  0  0  0  0  0  0  0  0  0
    3.5736   -1.5058   -2.3612 C   0  0  0  0  0  0  0  0  0  0  0  0
    3.8980   -1.3052   -3.3938 H   0  0  0  0  0  0  0  0  0  0  0  0
    2.1996   -1.4879   -2.0676 C   0  0  0  0  0  0  0  0  0  0  0  0
    2.3195   -2.5706    1.6423 C   0  0  0  0  0  0  0  0  0  0  0  0
    1.2902   -2.2782    1.9099 H   0  0  0  0  0  0  0  0  0  0  0  0
    3.0090   -2.1744    2.4132 H   0  0  0  0  0  0  0  0  0  0  0  0
    2.3685   -3.6782    1.7087 H   0  0  0  0  0  0  0  0  0  0  0  0
    1.1959   -1.2819   -3.1694 C   0  0  0  0  0  0  0  0  0  0  0  0
    1.6950   -0.9986   -4.1148 H   0  0  0  0  0  0  0  0  0  0  0  0
    0.4575   -0.4983   -2.9214 H   0  0  0  0  0  0  0  0  0  0  0  0
    0.6233   -2.2146   -3.3619 H   0  0  0  0  0  0  0  0  0  0  0  0
  2 13  1  0  0  0  0
  3  1  1  0  0  0  0
  3  4  1  0  0  0  0
  4  5  1  0  0  0  0
  6  4  2  0  0  0  0
  6  7  1  0  0  0  0
  8  6  1  0  0  0  0
  9  8  1  0  0  0  0
 10 12  1  0  0  0  0
 10  8  2  0  0  0  0
 11 10  1  0  0  0  0
 12  3  2  0  0  0  0
 13 12  1  0  0  0  0
 14 13  1  0  0  0  0
 15  2  1  0  0  0  0
 15 16  1  0  0  0  0
 16 24  1  0  0  0  0
 17 16  2  0  0  0  0
 17 18  1  0  0  0  0
 19 17  1  0  0  0  0
 20 19  1  0  0  0  0
 21 23  1  0  0  0  0
 21 19  2  0  0  0  0
 22 21  1  0  0  0  0
 23 15  2  0  0  0  0
 24 27  1  0  0  0  0
 24 25  1  0  0  0  0
 24 26  1  0  0  0  0
 28 30  1  0  0  0  0
 28 23  1  0  0  0  0
 29 28  1  0  0  0  0
 31 28  1  0  0  0  0
M  CHG  1   1  -1
M  END
