1,2
q = -1.0, confidence = 0.006

 11 11  0  0  1  0  0  0  0  0999 V2000
    1.3194    0.7041   -1.6381 O   0  0  0  0  0  1  0  0  0  0  0  0
    1.8792   -0.7695   -0.1149 N   0  0  0  0  0  2  0  0  0  0  0  0
    2.3163    0.0046   -1.1569 C   0  0  2  0  0  3  0  0  0  0  0  0
    3.6721   -0.0145   -1.5539 C   0  0  0  0  0  0  0  0  0  0  0  0
    4.0059    0.6127   -2.3917 H   0  0  0  0  0  0  0  0  0  0  0  0
    4.5391   -0.8513   -0.8468 C   0  0  0  0  0  0  0  0  0  0  0  0
    5.6007   -0.8989   -1.1328 H   0  0  0  0  0  0  0  0  0  0  0  0
    4.0725   -1.6341    0.2350 C   0  0  0  0  0  0  0  0  0  0  0  0
    4.7490   -2.2921    0.7964 H   0  0  0  0  0  0  0  0  0  0  0  0
    2.7227   -1.5594    0.5795 C   0  0  0  0  0  0  0  0  0  0  0  0
    2.3071   -2.1442    1.4182 H   0  0  0  0  0  0  0  0  0  0  0  0
  2 10  1  0  0  0  0
  3  1  1  1  0  0  0
  3  2  1  0  0  0  0
  4  3  1  0  0  0  0
  4  6  2  0  0  0  0
  5  4  1  0  0  0  0
  6  8  1  0  0  0  0
  7  6  1  0  0  0  0
  8 10  2  0  0  0  0
  8  9  1  0  0  0  0
 10 11  1  0  0  0  0
M  END
