1,3
q = -2.0, confidence = 0.802

 18 18  0  0  0  0  0  0  0  0999 V2000
   -1.3152   -1.7823   -0.2747 O   0  5  0  0  0  0  0  0  0  0  0  0
   -2.9604    2.7206   -0.8527 O   0  0  0  0  0  0  0  0  0  0  0  0
   -1.7129    0.8842   -0.2773 N   0  0  0  0  0  2  0  0  0  0  0  0
   -2.5580   -1.3489    0.0140 C   0  0  0  0  0  0  0  0  0  0  0  0
   -3.6067   -2.2619    0.2413 C   0  0  0  0  0  0  0  0  0  0  0  0
   -3.3902   -3.3361    0.1434 H   0  0  0  0  0  0  0  0  0  0  0  0
   -4.8778   -1.7968    0.6091 C   0  0  0  0  0  0  0  0  0  0  0  0
   -5.6849   -2.5201    0.8036 H   0  0  0  0  0  0  0  0  0  0  0  0
   -5.1163   -0.4195    0.7398 C   0  0  0  0  0  0  0  0  0  0  0  0
   -6.1118   -0.0543    1.0336 H   0  0  0  0  0  0  0  0  0  0  0  0
   -4.0921    0.5089    0.4886 C   0  0  0  0  0  0  0  0  0  0  0  0
   -4.2746    1.5861    0.5537 H   0  0  0  0  0  0  0  0  0  0  0  0
   -2.8151    0.0549    0.1030 C   0  0  0  0  0  0  0  0  0  0  0  0
   -1.8797    2.1301   -0.8770 C   0  0  0  0  0  0  0  0  0  0  0  0
   -0.6997    2.7438   -1.6220 C   0  0  0  0  0  0  0  0  0  0  0  0
   -1.1290    3.3478   -2.4425 H   0  0  0  0  0  0  0  0  0  0  0  0
    0.0102    2.0039   -2.0343 H   0  0  0  0  0  0  0  0  0  0  0  0
   -0.1341    3.4289   -0.9606 H   0  0  0  0  0  0  0  0  0  0  0  0
  1  4  1  0  0  0  0
  3 13  1  0  0  0  0
  4 13  2  0  0  0  0
  4  5  1  0  0  0  0
  5  7  2  0  0  0  0
  6  5  1  0  0  0  0
  7  9  1  0  0  0  0
  7  8  1  0  0  0  0
  9 10  1  0  0  0  0
 11 12  1  0  0  0  0
 11  9  2  0  0  0  0
 13 11  1  0  0  0  0
 14  2  2  0  0  0  0
 14  3  1  0  0  0  0
 15 18  1  0  0  0  0
 15 14  1  0  0  0  0
 16 15  1  0  0  0  0
 17 15  1  0  0  0  0
M  CHG  1   1  -1
M  END
