15,17
q = -1.0

 28 29  0  0  1  0  0  0  0  0999 V2000
    2.5326   -1.2322   -0.0474 C   0  0  0  0  0  0  0  0  0  0  0  0
    2.6242    1.1114    0.0100 C   0  0  1  0  0  3  0  0  0  0  0  0
    3.5304    2.2986    0.0022 C   0  0  0  0  0  0  0  0  0  0  0  0
    4.8764    2.1463    0.3973 C   0  0  0  0  0  0  0  0  0  0  0  0
    5.7401    3.2487    0.4167 C   0  0  0  0  0  0  0  0  0  0  0  0
    5.2779    4.5164    0.0269 C   0  0  0  0  0  0  0  0  0  0  0  0
    3.9450    4.6749   -0.3862 C   0  0  0  0  0  0  0  0  0  0  0  0
    3.0781    3.5747   -0.3992 C   0  0  0  0  0  0  0  0  0  0  0  0
    3.3110   -2.5079   -0.0541 C   0  0  0  0  0  0  0  0  0  0  0  0
    2.6494   -3.7501    0.0481 C   0  0  0  0  0  0  0  0  0  0  0  0
    3.3812   -4.9441    0.0457 C   0  0  0  0  0  0  0  0  0  0  0  0
    4.7816   -4.9120   -0.0625 C   0  0  0  0  0  0  0  0  0  0  0  0
    5.4467   -3.6786   -0.1677 C   0  0  0  0  0  0  0  0  0  0  0  0
    4.7178   -2.4830   -0.1626 C   0  0  0  0  0  0  0  0  0  0  0  0
    1.2453   -1.3750   -0.0723 O   0  5  0  0  0  0  0  0  0  0  0  0
    3.2322   -0.0999   -0.0251 N   0  0  0  0  0  0  0  0  0  0  0  0
    1.3146    1.2825    0.0652 N   0  0  0  0  0  2  0  0  0  0  0  0
    0.9871    2.2518    0.1592 H   0  0  0  0  0  0  0  0  0  0  0  0
    5.2167    1.1443    0.6927 H   0  0  0  0  0  0  0  0  0  0  0  0
    6.7848    3.1181    0.7375 H   0  0  0  0  0  0  0  0  0  0  0  0
    5.9586    5.3812    0.0374 H   0  0  0  0  0  0  0  0  0  0  0  0
    3.5806    5.6610   -0.7113 H   0  0  0  0  0  0  0  0  0  0  0  0
    2.0453    3.7087   -0.7577 H   0  0  0  0  0  0  0  0  0  0  0  0
    1.5540   -3.7596    0.1332 H   0  0  0  0  0  0  0  0  0  0  0  0
    2.8571   -5.9084    0.1291 H   0  0  0  0  0  0  0  0  0  0  0  0
    5.3561   -5.8510   -0.0657 H   0  0  0  0  0  0  0  0  0  0  0  0
    6.5434   -3.6502   -0.2562 H   0  0  0  0  0  0  0  0  0  0  0  0
    5.2126   -1.5058   -0.2487 H   0  0  0  0  0  0  0  0  0  0  0  0
  1 16  2  0  0  0  0
  2 16  1  1  0  0  0
  2 17  1  0  0  0  0
  3  2  1  0  0  0  0
  3  4  1  0  0  0  0
  4  5  2  0  0  0  0
  4 19  1  0  0  0  0
  5 20  1  0  0  0  0
  6 21  1  0  0  0  0
  6  5  1  0  0  0  0
  7  6  2  0  0  0  0
  8  7  1  0  0  0  0
  8  3  2  0  0  0  0
  9  1  1  0  0  0  0
  9 10  1  0  0  0  0
 10 24  1  0  0  0  0
 11 10  2  0  0  0  0
 11 25  1  0  0  0  0
 12 11  1  0  0  0  0
 13 14  1  0  0  0  0
 13 12  2  0  0  0  0
 14  9  2  0  0  0  0
 15  1  1  0  0  0  0
 17 18  1  0  0  0  0
 22  7  1  0  0  0  0
 23  8  1  0  0  0  0
 26 12  1  0  0  0  0
 27 13  1  0  0  0  0
 28 14  1  0  0  0  0
M  CHG  1  15  -1
M  END
