1,2
q = -1.0

 18 17  0  0  1  0  0  0  0  0999 V2000
   -0.0725    1.7326    1.0951 O   0  5  0  0  0  0  0  0  0  0  0  0
   -1.4074    0.9602   -1.2711 N   0  0  0  0  0  2  0  0  0  0  0  0
   -1.1393    2.4540    1.2998 C   0  0  0  0  0  0  0  0  0  0  0  0
   -2.2467    2.4469    0.4575 C   0  0  0  0  0  0  0  0  0  0  0  0
   -3.0847    3.1025    0.7307 H   0  0  0  0  0  0  0  0  0  0  0  0
   -2.3283    1.7995   -0.8255 C   0  0  1  0  0  3  0  0  0  0  0  0
   -1.0886    3.3370    2.5210 C   0  0  0  0  0  0  0  0  0  0  0  0
   -0.9397    2.7131    3.4273 H   0  0  0  0  0  0  0  0  0  0  0  0
   -2.0015    3.9476    2.6466 H   0  0  0  0  0  0  0  0  0  0  0  0
   -0.2074    4.0083    2.4531 H   0  0  0  0  0  0  0  0  0  0  0  0
   -3.5139    2.1710   -1.6917 C   0  0  0  0  0  0  0  0  0  0  0  0
   -4.0420    1.2644   -2.0523 H   0  0  0  0  0  0  0  0  0  0  0  0
   -3.1846    2.7228   -2.5974 H   0  0  0  0  0  0  0  0  0  0  0  0
   -4.2339    2.8073   -1.1468 H   0  0  0  0  0  0  0  0  0  0  0  0
   -1.4988    0.5104   -2.6542 C   0  0  0  0  0  0  0  0  0  0  0  0
   -2.3732   -0.1586   -2.8194 H   0  0  0  0  0  0  0  0  0  0  0  0
   -0.5849   -0.0537   -2.9139 H   0  0  0  0  0  0  0  0  0  0  0  0
   -1.5857    1.3584   -3.3690 H   0  0  0  0  0  0  0  0  0  0  0  0
  1  3  1  0  0  0  0
  3  7  1  0  0  0  0
  4  5  1  0  0  0  0
  4  3  2  0  0  0  0
  6  2  1  6  0  0  0
  6  4  1  0  0  0  0
  7  9  1  0  0  0  0
  7  8  1  0  0  0  0
 10  7  1  0  0  0  0
 11 14  1  0  0  0  0
 11  6  1  0  0  0  0
 12 11  1  0  0  0  0
 13 11  1  0  0  0  0
 15  2  1  0  0  0  0
 16 15  1  0  0  0  0
 17 15  1  0  0  0  0
 18 15  1  0  0  0  0
M  CHG  1   1  -1
M  END
