1,2
q = -1.0

 28 29  0  0  1  0  0  0  0  0999 V2000
   -0.8510    0.4832   -1.4300 O   0  5  0  0  0  0  0  0  0  0  0  0
   -0.7458    0.3258    1.2716 N   0  0  0  0  0  2  0  0  0  0  0  0
   -3.1945    0.0828    2.6888 N   0  0  0  0  0  0  0  0  0  0  0  0
   -4.3281   -0.1443    0.6445 N   0  0  0  0  0  0  0  0  0  0  0  0
   -3.1219    0.0789   -1.4581 N   0  0  0  0  0  0  0  0  0  0  0  0
   -5.4091   -0.3394   -1.4002 N   0  0  0  0  0  0  0  0  0  0  0  0
   -0.7856    0.5027    2.6156 C   0  0  0  0  0  0  0  0  0  0  0  0
   -2.0454    0.3422    3.3022 C   0  0  0  0  0  0  0  0  0  0  0  0
   -3.1838    0.0279    1.3209 C   0  0  0  0  0  0  0  0  0  0  0  0
   -4.2494   -0.1343   -0.7053 C   0  0  0  0  0  0  0  0  0  0  0  0
   -1.9761    0.2208   -0.8135 C   0  0  0  0  0  0  0  0  0  0  0  0
   -1.9400    0.1510    0.6333 C   0  0  1  0  0  3  0  0  0  0  0  0
    0.4409    0.9421    3.3618 C   0  0  0  0  0  0  0  0  0  0  0  0
   -2.0837    0.4685    4.8027 C   0  0  0  0  0  0  0  0  0  0  0  0
   -5.4543   -0.3313   -2.8500 C   0  0  0  0  0  0  0  0  0  0  0  0
   -6.6707   -0.5637   -0.7174 C   0  0  0  0  0  0  0  0  0  0  0  0
    1.2905    1.0950    2.6722 H   0  0  0  0  0  0  0  0  0  0  0  0
    0.7467    0.2291    4.1557 H   0  0  0  0  0  0  0  0  0  0  0  0
    0.2445    1.9011    3.8875 H   0  0  0  0  0  0  0  0  0  0  0  0
   -1.3661   -0.2186    5.2970 H   0  0  0  0  0  0  0  0  0  0  0  0
   -3.1057    0.2430    5.1544 H   0  0  0  0  0  0  0  0  0  0  0  0
   -1.8158    1.4961    5.1279 H   0  0  0  0  0  0  0  0  0  0  0  0
   -4.4451   -0.1241   -3.2433 H   0  0  0  0  0  0  0  0  0  0  0  0
   -5.8097   -1.3131   -3.2330 H   0  0  0  0  0  0  0  0  0  0  0  0
   -6.1614    0.4480   -3.2089 H   0  0  0  0  0  0  0  0  0  0  0  0
   -7.0995   -1.5461   -1.0121 H   0  0  0  0  0  0  0  0  0  0  0  0
   -6.4980   -0.5436    0.3719 H   0  0  0  0  0  0  0  0  0  0  0  0
   -7.4040    0.2250   -0.9932 H   0  0  0  0  0  0  0  0  0  0  0  0
  1 11  1  0  0  0  0
  2  7  1  0  0  0  0
  3  8  1  0  0  0  0
  4  9  1  0  0  0  0
  5 11  2  0  0  0  0
  5 10  1  0  0  0  0
  6 16  1  0  0  0  0
  6 10  1  0  0  0  0
  7  8  2  0  0  0  0
  7 13  1  0  0  0  0
  8 14  1  0  0  0  0
  9  3  2  0  0  0  0
 10  4  2  0  0  0  0
 12 11  1  6  0  0  0
 12  2  1  0  0  0  0
 12  9  1  0  0  0  0
 13 19  1  0  0  0  0
 13 18  1  0  0  0  0
 14 22  1  0  0  0  0
 14 21  1  0  0  0  0
 14 20  1  0  0  0  0
 15  6  1  0  0  0  0
 16 27  1  0  0  0  0
 17 13  1  0  0  0  0
 23 15  1  0  0  0  0
 24 15  1  0  0  0  0
 25 15  1  0  0  0  0
 26 16  1  0  0  0  0
 28 16  1  0  0  0  0
M  CHG  1   1  -1
M  END
