1,18
q = -1.0, confidence = 0.0

 18 18  0  0  0  0  0  0  0  0999 V2000
   -2.1662    0.3671   -0.9670 N   0  0  0  0  0  2  0  0  0  0  0  0
   -2.7359    1.1625   -0.0496 N   0  0  0  0  0  0  0  0  0  0  0  0
   -3.5519    2.0785   -0.6395 C   0  0  0  0  0  3  0  0  0  0  0  0
   -4.1117    2.8065   -0.0443 H   0  0  0  0  0  0  0  0  0  0  0  0
   -3.4949    1.8501   -2.0160 C   0  0  0  0  0  0  0  0  0  0  0  0
   -4.0261    2.3985   -2.8000 H   0  0  0  0  0  0  0  0  0  0  0  0
   -2.6151    0.7567   -2.1753 C   0  0  0  0  0  0  0  0  0  0  0  0
   -2.2722    0.2290   -3.0718 H   0  0  0  0  0  0  0  0  0  0  0  0
   -2.4786    0.8127    1.3936 C   0  0  0  0  0  0  0  0  0  0  0  0
   -2.0005    2.0669    2.1306 C   0  0  0  0  0  0  0  0  0  0  0  0
   -1.7593    1.7940    3.1754 H   0  0  0  0  0  0  0  0  0  0  0  0
   -2.7858    2.8481    2.1500 H   0  0  0  0  0  0  0  0  0  0  0  0
   -1.0944    2.4759    1.6475 H   0  0  0  0  0  0  0  0  0  0  0  0
   -3.7636    0.2231    1.9922 C   0  0  0  0  0  0  0  0  0  0  0  0
   -4.0401   -0.6891    1.4292 H   0  0  0  0  0  0  0  0  0  0  0  0
   -4.5942    0.9560    1.9630 H   0  0  0  0  0  0  0  0  0  0  0  0
   -3.5677   -0.0549    3.0452 H   0  0  0  0  0  0  0  0  0  0  0  0
   -1.4926   -0.1613    1.3558 O   0  0  0  0  0  1  0  0  0  0  0  0
  1  2  1  0  0  0  0
  2  9  1  0  0  0  0
  3  2  1  0  0  0  0
  3  4  1  0  0  0  0
  5  3  1  0  0  0  0
  6  5  1  0  0  0  0
  7  5  2  0  0  0  0
  7  1  1  0  0  0  0
  8  7  1  0  0  0  0
  9 14  1  0  0  0  0
  9 10  1  0  0  0  0
 10 12  1  0  0  0  0
 10 11  1  0  0  0  0
 13 10  1  0  0  0  0
 14 17  1  0  0  0  0
 15 14  1  0  0  0  0
 16 14  1  0  0  0  0
 18  9  1  0  0  0  0
M  END
