1,2
q = -1.0, confidence = 0.012

 12 11  0  0  1  0  0  0  0  0999 V2000
    1.4352   -0.6621   -0.9259 N   0  0  0  0  0  0  0  0  0  0  0  0
    0.7277    1.1057    0.8669 O   0  5  0  0  0  0  0  0  0  0  0  0
    2.7044    2.1829    0.8750 O   0  0  0  0  0  0  0  0  0  0  0  0
    1.9401    1.3413    0.4219 C   0  0  0  0  0  0  0  0  0  0  0  0
    2.3389    0.5042   -0.8308 C   0  0  1  0  0  0  0  0  0  0  0  0
    3.8173    0.1386   -0.8294 C   0  0  0  0  0  0  0  0  0  0  0  0
    1.7584   -1.4387   -0.2980 H   0  0  0  0  0  0  0  0  0  0  0  0
    1.3586   -1.0579   -1.8736 H   0  0  0  0  0  0  0  0  0  0  0  0
    2.1277    1.1682   -1.7007 H   0  0  0  0  0  0  0  0  0  0  0  0
    4.4049    1.0583   -0.6458 H   0  0  0  0  0  0  0  0  0  0  0  0
    4.0364   -0.5705   -0.0054 H   0  0  0  0  0  0  0  0  0  0  0  0
    4.1365   -0.3180   -1.7877 H   0  0  0  0  0  0  0  0  0  0  0  0
  1  5  1  0  0  0  0
  1  7  1  0  0  0  0
  4  2  1  0  0  0  0
  4  3  2  0  0  0  0
  5  9  1  6  0  0  0
  5  6  1  0  0  0  0
  5  4  1  0  0  0  0
  6 10  1  0  0  0  0
  6 11  1  0  0  0  0
  8  1  1  0  0  0  0
 12  6  1  0  0  0  0
M  CHG  1   2  -1
M  END
