4,6
q = 0.0, confidence = 0.61

 12 11  0  0  1  0  0  0  0  0999 V2000
    2.4161    0.9376   -0.0910 C   0  0  0  0  0  0  0  0  0  0  0  0
    2.2986   -0.5163   -0.7252 C   0  0  1  0  0  0  0  0  0  0  0  0
    2.4437   -1.4804    0.4605 C   0  0  0  0  0  0  0  0  0  0  0  0
    0.9725   -0.6742   -1.2503 N   0  0  0  0  0  2  0  0  0  0  0  0
    3.4960    1.4972   -0.0139 O   0  5  0  0  0  0  0  0  0  0  0  0
    1.2600    1.3338    0.3765 O   0  0  0  0  0  0  0  0  0  0  0  0
    1.2943   -1.2077    1.3042 O   0  0  0  0  0  0  0  0  0  0  0  0
    3.1113   -0.6760   -1.4618 H   0  0  0  0  0  0  0  0  0  0  0  0
    0.9233   -2.0385    1.6554 H   0  0  0  0  0  0  0  0  0  0  0  0
    0.8546   -0.5600   -2.2617 H   0  0  0  0  0  0  0  0  0  0  0  0
    3.3759   -1.2906    1.0295 H   0  0  0  0  0  0  0  0  0  0  0  0
    2.4143   -2.5307    0.1043 H   0  0  0  0  0  0  0  0  0  0  0  0
  1  5  1  0  0  0  0
  1  6  2  0  0  0  0
  2  8  1  6  0  0  0
  2  1  1  0  0  0  0
  2  3  1  0  0  0  0
  3 11  1  0  0  0  0
  3  7  1  0  0  0  0
  4  2  1  0  0  0  0
  7  9  1  0  0  0  0
 10  4  1  0  0  0  0
 12  3  1  0  0  0  0
M  CHG  1   5  -1
M  END
