4,5
q = -1.0

 28 29  0  0  0  0  0  0  0  0999 V2000
    6.1014    1.3768    1.5437 F   0  0  0  0  0  0  0  0  0  0  0  0
    6.3091    1.0717   -0.6121 F   0  0  0  0  0  0  0  0  0  0  0  0
    5.9676   -0.6315    0.7032 F   0  0  0  0  0  0  0  0  0  0  0  0
   -2.7867    0.1433   -0.5510 O   0  5  0  0  0  0  0  0  0  0  0  0
   -0.0602    1.0067   -0.1438 N   0  0  0  0  0  2  0  0  0  0  0  0
    5.6318    0.6682    0.4894 C   0  0  0  0  0  0  0  0  0  0  0  0
    4.1411    0.8273    0.3182 C   0  0  0  0  0  0  0  0  0  0  0  0
    3.3362    1.1910    1.4091 C   0  0  0  0  0  0  0  0  0  0  0  0
    3.8013    1.4118    2.3802 H   0  0  0  0  0  0  0  0  0  0  0  0
    1.9442    1.2714    1.2573 C   0  0  0  0  0  0  0  0  0  0  0  0
    1.3019    1.5433    2.1082 H   0  0  0  0  0  0  0  0  0  0  0  0
    1.3546    0.9782    0.0131 C   0  0  0  0  0  0  0  0  0  0  0  0
    2.1636    0.6257   -1.0880 C   0  0  0  0  0  0  0  0  0  0  0  0
    1.6646    0.4092   -2.0459 H   0  0  0  0  0  0  0  0  0  0  0  0
    3.5498    0.5559   -0.9326 C   0  0  0  0  0  0  0  0  0  0  0  0
    4.1867    0.2952   -1.7906 H   0  0  0  0  0  0  0  0  0  0  0  0
   -0.6728    2.1601   -0.0025 C   0  0  0  0  0  3  0  0  0  0  0  0
   -0.0276    3.0341    0.2170 H   0  0  0  0  0  0  0  0  0  0  0  0
   -2.0721    2.4274   -0.1002 C   0  0  0  0  0  0  0  0  0  0  0  0
   -2.4989    3.7758    0.0914 C   0  0  0  0  0  0  0  0  0  0  0  0
   -1.7280    4.5405    0.2800 H   0  0  0  0  0  0  0  0  0  0  0  0
   -3.8374    4.1337    0.0429 C   0  0  0  0  0  0  0  0  0  0  0  0
   -4.1453    5.1788    0.1877 H   0  0  0  0  0  0  0  0  0  0  0  0
   -4.8040    3.1236   -0.1992 C   0  0  0  0  0  0  0  0  0  0  0  0
   -5.8715    3.3918   -0.2430 H   0  0  0  0  0  0  0  0  0  0  0  0
   -4.4299    1.8004   -0.3871 C   0  0  0  0  0  0  0  0  0  0  0  0
   -5.1745    1.0150   -0.5816 H   0  0  0  0  0  0  0  0  0  0  0  0
   -3.0548    1.3989   -0.3592 C   0  0  0  0  0  0  0  0  0  0  0  0
  2  6  1  0  0  0  0
  4 28  1  0  0  0  0
  5 17  1  0  0  0  0
  5 12  1  0  0  0  0
  6  3  1  0  0  0  0
  6  1  1  0  0  0  0
  7  6  1  0  0  0  0
  7  8  1  0  0  0  0
  8  9  1  0  0  0  0
 10  8  2  0  0  0  0
 10 11  1  0  0  0  0
 12 10  1  0  0  0  0
 13 15  1  0  0  0  0
 13 12  2  0  0  0  0
 14 13  1  0  0  0  0
 15  7  2  0  0  0  0
 16 15  1  0  0  0  0
 17 18  1  0  0  0  0
 19 17  1  0  0  0  0
 19 20  1  0  0  0  0
 20 21  1  0  0  0  0
 22 20  2  0  0  0  0
 22 23  1  0  0  0  0
 24 22  1  0  0  0  0
 25 24  1  0  0  0  0
 26 28  1  0  0  0  0
 26 24  2  0  0  0  0
 27 26  1  0  0  0  0
 28 19  2  0  0  0  0
M  CHG  1   4  -1
M  END
