1,6
q = -1.0, confidence = 0.07

 38 40  0  0  1  0  0  0  0  0999 V2000
    1.7206    0.6699   -0.7342 N   0  0  0  0  0  2  0  0  0  0  0  0
    4.3827   -1.8076    1.5646 N   0  0  0  0  0  0  0  0  0  0  0  0
    4.6948   -1.6948    2.5275 H   0  0  0  0  0  0  0  0  0  0  0  0
    1.3552    2.8935    0.7227 N   0  0  0  0  0  0  0  0  0  0  0  0
    3.3098    3.5841    2.6264 N   0  0  0  0  0  0  0  0  0  0  0  0
   -0.5805    0.4407   -1.7694 O   0  5  0  0  0  0  0  0  0  0  0  0
    0.0686   -0.8619   -3.4861 O   0  0  0  0  0  0  0  0  0  0  0  0
    0.3010   -0.2616   -2.4440 C   0  0  0  0  0  0  0  0  0  0  0  0
    1.6798   -0.3642   -1.7433 C   0  0  2  0  0  0  0  0  0  0  0  0
    2.4894   -0.2570   -2.4949 H   0  0  0  0  0  0  0  0  0  0  0  0
    1.7869   -1.7781   -1.0828 C   0  0  0  0  0  0  0  0  0  0  0  0
    0.8645   -1.9336   -0.4880 H   0  0  0  0  0  0  0  0  0  0  0  0
    1.7647   -2.5096   -1.9150 H   0  0  0  0  0  0  0  0  0  0  0  0
    3.0814   -1.6248    1.1343 C   0  0  0  0  0  0  0  0  0  0  0  0
    2.3105   -1.2387    1.8151 H   0  0  0  0  0  0  0  0  0  0  0  0
    2.9900   -1.9493   -0.2158 C   0  0  0  0  0  0  0  0  0  0  0  0
    4.3132   -2.3511   -0.6335 C   0  0  0  0  0  0  0  0  0  0  0  0
    5.1661   -2.2582    0.5160 C   0  0  0  0  0  0  0  0  0  0  0  0
    6.5335   -2.5786    0.4616 C   0  0  0  0  0  0  0  0  0  0  0  0
    7.1737   -2.5102    1.3542 H   0  0  0  0  0  0  0  0  0  0  0  0
    7.0538   -2.9855   -0.7726 C   0  0  0  0  0  0  0  0  0  0  0  0
    8.1210   -3.2423   -0.8492 H   0  0  0  0  0  0  0  0  0  0  0  0
    6.2321   -3.0735   -1.9237 C   0  0  0  0  0  0  0  0  0  0  0  0
    6.6761   -3.3973   -2.8770 H   0  0  0  0  0  0  0  0  0  0  0  0
    4.8699   -2.7624   -1.8653 C   0  0  0  0  0  0  0  0  0  0  0  0
    4.2387   -2.8413   -2.7642 H   0  0  0  0  0  0  0  0  0  0  0  0
    4.1905    1.0180   -0.8056 C   0  0  0  0  0  0  0  0  0  0  0  0
    4.2201    0.3549   -1.6864 H   0  0  0  0  0  0  0  0  0  0  0  0
    4.7808    0.5136   -0.0116 H   0  0  0  0  0  0  0  0  0  0  0  0
    4.7024    1.9720   -1.0439 H   0  0  0  0  0  0  0  0  0  0  0  0
    2.7961    1.2803   -0.3193 C   0  0  1  0  0  3  0  0  0  0  0  0
    2.5798    2.3235    0.7099 C   0  0  0  0  0  0  0  0  0  0  0  0
    3.5596    2.6948    1.6557 C   0  0  0  0  0  0  0  0  0  0  0  0
    4.5670    2.2439    1.6377 H   0  0  0  0  0  0  0  0  0  0  0  0
    2.0763    4.1134    2.6514 C   0  0  0  0  0  0  0  0  0  0  0  0
    1.8544    4.8429    3.4500 H   0  0  0  0  0  0  0  0  0  0  0  0
    1.1024    3.7745    1.6937 C   0  0  0  0  0  0  0  0  0  0  0  0
    0.0949    4.2264    1.7033 H   0  0  0  0  0  0  0  0  0  0  0  0
  2  3  1  0  0  0  0
  4 37  1  0  0  0  0
  5 35  1  0  0  0  0
  7  8  2  0  0  0  0
  8  6  1  0  0  0  0
  8  9  1  0  0  0  0
  9 10  1  6  0  0  0
  9 11  1  0  0  0  0
  9  1  1  0  0  0  0
 11 12  1  0  0  0  0
 11 16  1  0  0  0  0
 13 11  1  0  0  0  0
 14  2  1  0  0  0  0
 14 15  1  0  0  0  0
 16 14  2  0  0  0  0
 17 16  1  0  0  0  0
 17 18  1  0  0  0  0
 18  2  1  0  0  0  0
 19 18  2  0  0  0  0
 19 20  1  0  0  0  0
 21 19  1  0  0  0  0
 22 21  1  0  0  0  0
 23 25  1  0  0  0  0
 23 21  2  0  0  0  0
 24 23  1  0  0  0  0
 25 17  2  0  0  0  0
 26 25  1  0  0  0  0
 27 31  1  0  0  0  0
 27 29  1  0  0  0  0
 28 27  1  0  0  0  0
 30 27  1  0  0  0  0
 31  1  1  6  0  0  0
 31 32  1  0  0  0  0
 32  4  2  0  0  0  0
 32 33  1  0  0  0  0
 33  5  2  0  0  0  0
 34 33  1  0  0  0  0
 35 36  1  0  0  0  0
 37 38  1  0  0  0  0
 37 35  2  0  0  0  0
M  CHG  1   6  -1
M  END
