1,2
q = -1.0

 32 34  0  0  1  0  0  0  0  0999 V2000
   -1.2373    1.6919   -0.0649 O   0  5  0  0  0  0  0  0  0  0  0  0
   -1.8455   -0.9588   -0.1643 N   0  0  0  0  0  2  0  0  0  0  0  0
   -6.5882    0.0483   -0.0280 N   0  0  0  0  0  0  0  0  0  0  0  0
   -7.4931    0.9461    0.0202 N   0  0  0  0  0  0  0  0  0  0  0  0
   -2.0904   -2.2677   -0.2163 C   0  0  0  0  0  0  0  0  0  0  0  0
   -1.2074   -2.9267   -0.2595 H   0  0  0  0  0  0  0  0  0  0  0  0
   -3.4125   -2.7722   -0.2138 C   0  0  0  0  0  0  0  0  0  0  0  0
   -3.5800   -3.8579   -0.2581 H   0  0  0  0  0  0  0  0  0  0  0  0
   -4.4786   -1.8824   -0.1517 C   0  0  0  0  0  0  0  0  0  0  0  0
   -5.5233   -2.2243   -0.1452 H   0  0  0  0  0  0  0  0  0  0  0  0
   -4.2365   -0.4822   -0.0932 C   0  0  0  0  0  0  0  0  0  0  0  0
   -5.2750    0.5105   -0.0307 C   0  0  0  0  0  0  0  0  0  0  0  0
   -4.8985    1.8703    0.0227 C   0  0  0  0  0  0  0  0  0  0  0  0
   -5.7165    2.6044    0.0713 H   0  0  0  0  0  0  0  0  0  0  0  0
   -3.5623    2.2830    0.0160 C   0  0  0  0  0  0  0  0  0  0  0  0
   -3.3020    3.3513    0.0597 H   0  0  0  0  0  0  0  0  0  0  0  0
   -2.4930    1.3512   -0.0430 C   0  0  0  0  0  0  0  0  0  0  0  0
   -2.8689   -0.0602   -0.0990 C   0  0  2  0  0  3  0  0  0  0  0  0
   -8.8155    0.4686    0.0276 C   0  0  0  0  0  0  0  0  0  0  0  0
   -9.1888   -0.8987    0.0011 C   0  0  0  0  0  0  0  0  0  0  0  0
   -8.3930   -1.6558   -0.0276 H   0  0  0  0  0  0  0  0  0  0  0  0
  -10.5361   -1.2556    0.0127 C   0  0  0  0  0  0  0  0  0  0  0  0
  -10.8149   -2.3220   -0.0076 H   0  0  0  0  0  0  0  0  0  0  0  0
  -11.5610   -0.2783    0.0507 C   0  0  0  0  0  0  0  0  0  0  0  0
  -11.1797    1.0783    0.0771 C   0  0  0  0  0  0  0  0  0  0  0  0
  -11.9589    1.8564    0.1070 H   0  0  0  0  0  0  0  0  0  0  0  0
   -9.8303    1.4490    0.0664 C   0  0  0  0  0  0  0  0  0  0  0  0
   -9.5212    2.5047    0.0873 H   0  0  0  0  0  0  0  0  0  0  0  0
  -13.0101   -0.6902    0.0644 C   0  0  0  0  0  0  0  0  0  0  0  0
  -13.6858    0.1865    0.0822 H   0  0  0  0  0  0  0  0  0  0  0  0
  -13.2428   -1.3166    0.9516 H   0  0  0  0  0  0  0  0  0  0  0  0
  -13.2652   -1.2988   -0.8287 H   0  0  0  0  0  0  0  0  0  0  0  0
  1 17  1  0  0  0  0
  3  4  2  0  0  0  0
  4 19  1  0  0  0  0
  5  7  2  0  0  0  0
  5  2  1  0  0  0  0
  6  5  1  0  0  0  0
  7  9  1  0  0  0  0
  8  7  1  0  0  0  0
  9 10  1  0  0  0  0
  9 11  2  0  0  0  0
 11 12  1  0  0  0  0
 12  3  1  0  0  0  0
 12 13  2  0  0  0  0
 13 14  1  0  0  0  0
 15 13  1  0  0  0  0
 15 16  1  0  0  0  0
 17 15  2  0  0  0  0
 18  2  1  6  0  0  0
 18 11  1  0  0  0  0
 18 17  1  0  0  0  0
 19 27  1  0  0  0  0
 20 22  1  0  0  0  0
 20 19  2  0  0  0  0
 21 20  1  0  0  0  0
 22 24  2  0  0  0  0
 23 22  1  0  0  0  0
 24 29  1  0  0  0  0
 24 25  1  0  0  0  0
 25 26  1  0  0  0  0
 27 25  2  0  0  0  0
 27 28  1  0  0  0  0
 29 30  1  0  0  0  0
 29 31  1  0  0  0  0
 32 29  1  0  0  0  0
M  CHG  1   1  -1
M  END
