1,3
q = -1.0

 36 38  0  0  0  0  0  0  0  0999 V2000
    1.1648   -1.7418    0.0611 O   0  5  0  0  0  0  0  0  0  0  0  0
   12.8941   -0.0211   -0.0508 O   0  0  0  0  0  0  0  0  0  0  0  0
    1.8833    0.8813    0.1686 N   0  0  0  0  0  0  0  0  0  0  0  0
    6.5824   -0.3188    0.0333 N   0  0  0  0  0  0  0  0  0  0  0  0
    7.4491   -1.2544   -0.0169 N   0  0  0  0  0  2  0  0  0  0  0  0
    2.1817    2.1787    0.2251 C   0  0  0  0  0  0  0  0  0  0  0  0
    1.3263    2.8731    0.2696 H   0  0  0  0  0  0  0  0  0  0  0  0
    3.5236    2.6283    0.2254 C   0  0  0  0  0  0  0  0  0  0  0  0
    3.7356    3.7061    0.2734 H   0  0  0  0  0  0  0  0  0  0  0  0
    4.5519    1.6953    0.1612 C   0  0  0  0  0  0  0  0  0  0  0  0
    5.6100    1.9935    0.1565 H   0  0  0  0  0  0  0  0  0  0  0  0
    4.2530    0.3064    0.0979 C   0  0  0  0  0  3  0  0  0  0  0  0
    5.2505   -0.7271    0.0332 C   0  0  0  0  0  0  0  0  0  0  0  0
    4.8178   -2.0694   -0.0249 C   0  0  0  0  0  0  0  0  0  0  0  0
    5.6042   -2.8370   -0.0752 H   0  0  0  0  0  0  0  0  0  0  0  0
    3.4650   -2.4266   -0.0206 C   0  0  0  0  0  0  0  0  0  0  0  0
    3.1614   -3.4833   -0.0677 H   0  0  0  0  0  0  0  0  0  0  0  0
    2.4348   -1.4527    0.0407 C   0  0  0  0  0  0  0  0  0  0  0  0
    2.8685   -0.0592    0.1013 C   0  0  0  0  0  0  0  0  0  0  0  0
    8.7889   -0.8398   -0.0214 C   0  0  0  0  0  0  0  0  0  0  0  0
    9.2269    0.5051    0.0117 C   0  0  0  0  0  0  0  0  0  0  0  0
    8.4658    1.2972    0.0435 H   0  0  0  0  0  0  0  0  0  0  0  0
   10.5880    0.8176    0.0032 C   0  0  0  0  0  0  0  0  0  0  0  0
   10.8990    1.8708    0.0287 H   0  0  0  0  0  0  0  0  0  0  0  0
   11.5512   -0.2200   -0.0391 C   0  0  0  0  0  0  0  0  0  0  0  0
   11.1224   -1.5671   -0.0729 C   0  0  0  0  0  0  0  0  0  0  0  0
   11.8880   -2.3556   -0.1060 H   0  0  0  0  0  0  0  0  0  0  0  0
    9.7631   -1.8675   -0.0646 C   0  0  0  0  0  0  0  0  0  0  0  0
    9.4068   -2.9079   -0.0911 H   0  0  0  0  0  0  0  0  0  0  0  0
   13.4001    1.3121   -0.0192 C   0  0  0  0  0  0  0  0  0  0  0  0
   13.0388    1.8326    0.8982 H   0  0  0  0  0  0  0  0  0  0  0  0
   13.0159    1.8837   -0.8960 H   0  0  0  0  0  0  0  0  0  0  0  0
   14.9147    1.2372   -0.0407 C   0  0  0  0  0  0  0  0  0  0  0  0
   15.3491    2.2560   -0.0173 H   0  0  0  0  0  0  0  0  0  0  0  0
   15.2690    0.7262   -0.9575 H   0  0  0  0  0  0  0  0  0  0  0  0
   15.2920    0.6751    0.8361 H   0  0  0  0  0  0  0  0  0  0  0  0
  2 25  1  0  0  0  0
  2 30  1  0  0  0  0
  3  6  2  0  0  0  0
  5  4  1  0  0  0  0
  6  8  1  0  0  0  0
  6  7  1  0  0  0  0
  8  9  1  0  0  0  0
 10  8  2  0  0  0  0
 11 10  1  0  0  0  0
 12 19  1  0  0  0  0
 12 10  1  0  0  0  0
 13  4  2  0  0  0  0
 13 12  1  0  0  0  0
 14 16  2  0  0  0  0
 14 13  1  0  0  0  0
 15 14  1  0  0  0  0
 16 18  1  0  0  0  0
 17 16  1  0  0  0  0
 18  1  1  0  0  0  0
 18 19  2  0  0  0  0
 19  3  1  0  0  0  0
 20  5  1  0  0  0  0
 20 21  1  0  0  0  0
 21 22  1  0  0  0  0
 23 21  2  0  0  0  0
 23 24  1  0  0  0  0
 25 23  1  0  0  0  0
 26 28  1  0  0  0  0
 26 25  2  0  0  0  0
 27 26  1  0  0  0  0
 28 20  2  0  0  0  0
 29 28  1  0  0  0  0
 30 31  1  0  0  0  0
 32 30  1  0  0  0  0
 33 30  1  0  0  0  0
 33 34  1  0  0  0  0
 33 36  1  0  0  0  0
 35 33  1  0  0  0  0
M  CHG  1   1  -1
M  END
