1,3
q = -1.0

 33 35  0  0  0  0  0  0  0  0999 V2000
   -1.1954   -1.7209    0.0625 O   0  5  0  0  0  0  0  0  0  0  0  0
  -12.8921    0.2081   -0.0599 O   0  0  0  0  0  0  0  0  0  0  0  0
   -1.8674    0.9145    0.1676 N   0  0  0  0  0  0  0  0  0  0  0  0
   -6.5867   -0.2028    0.0311 N   0  0  0  0  0  0  0  0  0  0  0  0
   -7.4698   -1.1230   -0.0178 N   0  0  0  0  0  2  0  0  0  0  0  0
   -2.1428    2.2170    0.2229 C   0  0  0  0  0  0  0  0  0  0  0  0
   -1.2753    2.8961    0.2671 H   0  0  0  0  0  0  0  0  0  0  0  0
   -3.4765    2.6903    0.2221 C   0  0  0  0  0  0  0  0  0  0  0  0
   -3.6695    3.7717    0.2691 H   0  0  0  0  0  0  0  0  0  0  0  0
   -4.5212    1.7755    0.1583 C   0  0  0  0  0  0  0  0  0  0  0  0
   -5.5737    2.0924    0.1529 H   0  0  0  0  0  0  0  0  0  0  0  0
   -4.2468    0.3815    0.0965 C   0  0  0  0  0  3  0  0  0  0  0  0
   -5.2623   -0.6344    0.0324 C   0  0  0  0  0  0  0  0  0  0  0  0
   -4.8533   -1.9843   -0.0240 C   0  0  0  0  0  0  0  0  0  0  0  0
   -5.6532   -2.7379   -0.0738 H   0  0  0  0  0  0  0  0  0  0  0  0
   -3.5071   -2.3653   -0.0188 C   0  0  0  0  0  0  0  0  0  0  0  0
   -3.2222   -3.4273   -0.0647 H   0  0  0  0  0  0  0  0  0  0  0  0
   -2.4600   -1.4096    0.0417 C   0  0  0  0  0  0  0  0  0  0  0  0
   -2.8690   -0.0085    0.1008 C   0  0  0  0  0  0  0  0  0  0  0  0
   -8.8020   -0.6843   -0.0245 C   0  0  0  0  0  0  0  0  0  0  0  0
   -9.2154    0.6684    0.0036 C   0  0  0  0  0  0  0  0  0  0  0  0
   -8.4403    1.4469    0.0330 H   0  0  0  0  0  0  0  0  0  0  0  0
  -10.5709    1.0049   -0.0071 C   0  0  0  0  0  0  0  0  0  0  0  0
  -10.8637    2.0636    0.0143 H   0  0  0  0  0  0  0  0  0  0  0  0
  -11.5515   -0.0155   -0.0464 C   0  0  0  0  0  0  0  0  0  0  0  0
  -11.1482   -1.3702   -0.0751 C   0  0  0  0  0  0  0  0  0  0  0  0
  -11.9278   -2.1448   -0.1059 H   0  0  0  0  0  0  0  0  0  0  0  0
   -9.7944   -1.6946   -0.0648 C   0  0  0  0  0  0  0  0  0  0  0  0
   -9.4567   -2.7412   -0.0873 H   0  0  0  0  0  0  0  0  0  0  0  0
  -13.3575    1.5444   -0.0336 C   0  0  0  0  0  0  0  0  0  0  0  0
  -13.0099    2.1225   -0.9190 H   0  0  0  0  0  0  0  0  0  0  0  0
  -13.0355    2.0780    0.8887 H   0  0  0  0  0  0  0  0  0  0  0  0
  -14.4619    1.4913   -0.0505 H   0  0  0  0  0  0  0  0  0  0  0  0
  2 25  1  0  0  0  0
  2 30  1  0  0  0  0
  3  6  2  0  0  0  0
  4 13  2  0  0  0  0
  5  4  1  0  0  0  0
  6  7  1  0  0  0  0
  8  6  1  0  0  0  0
  8  9  1  0  0  0  0
 10  8  2  0  0  0  0
 11 10  1  0  0  0  0
 12 19  1  0  0  0  0
 12 10  1  0  0  0  0
 13 12  1  0  0  0  0
 14 16  2  0  0  0  0
 14 13  1  0  0  0  0
 15 14  1  0  0  0  0
 16 18  1  0  0  0  0
 17 16  1  0  0  0  0
 18  1  1  0  0  0  0
 18 19  2  0  0  0  0
 19  3  1  0  0  0  0
 20  5  1  0  0  0  0
 20 21  1  0  0  0  0
 21 22  1  0  0  0  0
 23 21  2  0  0  0  0
 23 24  1  0  0  0  0
 25 23  1  0  0  0  0
 26 28  1  0  0  0  0
 26 25  2  0  0  0  0
 27 26  1  0  0  0  0
 28 20  2  0  0  0  0
 29 28  1  0  0  0  0
 30 32  1  0  0  0  0
 31 30  1  0  0  0  0
 33 30  1  0  0  0  0
M  CHG  1   1  -1
M  END
