1,3
q = -1.0

 25 25  0  0  1  0  0  0  0  0999 V2000
   -1.0010    0.2428    2.3710 O   0  5  0  0  0  0  0  0  0  0  0  0
    0.2004    0.2193    4.2637 O   0  0  0  0  0  0  0  0  0  0  0  0
    1.0512   -0.3041    0.7574 N   0  0  0  0  0  0  0  0  0  0  0  0
    0.1068    0.0826    3.0480 C   0  0  0  0  0  0  0  0  0  0  0  0
    1.3518   -0.3187    2.2193 C   0  0  2  0  0  0  0  0  0  0  0  0
    2.5549    0.5482    2.5790 C   0  0  0  0  0  0  0  0  0  0  0  0
    1.4141   -1.5652    0.0489 C   0  0  0  0  0  0  0  0  0  0  0  0
    2.9080   -1.7885    0.0288 C   0  0  0  0  0  0  0  0  0  0  0  0
    3.5197   -2.7285    0.8804 C   0  0  0  0  0  0  0  0  0  0  0  0
    4.9159   -2.8750    0.9009 C   0  0  0  0  0  0  0  0  0  0  0  0
    5.7181   -2.0804    0.0675 C   0  0  0  0  0  0  0  0  0  0  0  0
    5.1172   -1.1458   -0.7928 C   0  0  0  0  0  0  0  0  0  0  0  0
    3.7231   -1.0026   -0.8136 C   0  0  0  0  0  0  0  0  0  0  0  0
    1.6095    0.4504    0.3253 H   0  0  0  0  0  0  0  0  0  0  0  0
    1.5668   -1.3682    2.5100 H   0  0  0  0  0  0  0  0  0  0  0  0
    2.6594    0.5577    3.6806 H   0  0  0  0  0  0  0  0  0  0  0  0
    2.3940    1.5955    2.2463 H   0  0  0  0  0  0  0  0  0  0  0  0
    3.4876    0.1657    2.1200 H   0  0  0  0  0  0  0  0  0  0  0  0
    0.8723   -2.3876    0.5484 H   0  0  0  0  0  0  0  0  0  0  0  0
    1.0033   -1.4886   -0.9751 H   0  0  0  0  0  0  0  0  0  0  0  0
    2.8915   -3.3555    1.5331 H   0  0  0  0  0  0  0  0  0  0  0  0
    5.3792   -3.6141    1.5721 H   0  0  0  0  0  0  0  0  0  0  0  0
    6.8128   -2.1932    0.0837 H   0  0  0  0  0  0  0  0  0  0  0  0
    5.7386   -0.5262   -1.4574 H   0  0  0  0  0  0  0  0  0  0  0  0
    3.2593   -0.2737   -1.4973 H   0  0  0  0  0  0  0  0  0  0  0  0
  1  4  1  0  0  0  0
  3  5  1  0  0  0  0
  4  2  2  0  0  0  0
  5 15  1  1  0  0  0
  5  6  1  0  0  0  0
  5  4  1  0  0  0  0
  6 16  1  0  0  0  0
  7 19  1  0  0  0  0
  7  3  1  0  0  0  0
  8  7  1  0  0  0  0
  8  9  1  0  0  0  0
  9 10  2  0  0  0  0
  9 21  1  0  0  0  0
 10 22  1  0  0  0  0
 11 23  1  0  0  0  0
 11 10  1  0  0  0  0
 12 11  2  0  0  0  0
 13 12  1  0  0  0  0
 13  8  2  0  0  0  0
 14  3  1  0  0  0  0
 17  6  1  0  0  0  0
 18  6  1  0  0  0  0
 20  7  1  0  0  0  0
 24 12  1  0  0  0  0
 25 13  1  0  0  0  0
M  CHG  1   1  -1
M  END
