1,2
q = -1.0

 26 25  0  0  1  0  0  0  0  0999 V2000
    0.6499   -0.0023   -1.4459 O   0  0  0  0  0  1  0  0  0  0  0  0
    1.1074    0.0016    0.6995 N   0  0  0  0  0  2  0  0  0  0  0  0
    1.8421    0.0025    1.9580 C   0  0  0  0  0  0  0  0  0  0  0  0
    2.9342    0.0025    1.7565 H   0  0  0  0  0  0  0  0  0  0  0  0
    1.5166   -1.2649    2.7580 C   0  0  0  0  0  0  0  0  0  0  0  0
    0.4257   -1.3156    2.9487 H   0  0  0  0  0  0  0  0  0  0  0  0
    2.0492   -1.2665    3.7304 H   0  0  0  0  0  0  0  0  0  0  0  0
    1.8164   -2.1736    2.1977 H   0  0  0  0  0  0  0  0  0  0  0  0
    1.5165    1.2710    2.7562 C   0  0  0  0  0  0  0  0  0  0  0  0
    1.8163    2.1790    2.1947 H   0  0  0  0  0  0  0  0  0  0  0  0
    2.0490    1.2740    3.7287 H   0  0  0  0  0  0  0  0  0  0  0  0
    0.4256    1.3221    2.9467 H   0  0  0  0  0  0  0  0  0  0  0  0
    1.5768   -0.0007   -0.5365 C   0  0  1  0  0  3  0  0  0  0  0  0
    3.0467   -0.0017   -1.0052 C   0  0  0  0  0  0  0  0  0  0  0  0
    3.0783   -0.0040   -2.5446 C   0  0  0  0  0  0  0  0  0  0  0  0
    2.5693   -0.8960   -2.9568 H   0  0  0  0  0  0  0  0  0  0  0  0
    4.1308   -0.0048   -2.8943 H   0  0  0  0  0  0  0  0  0  0  0  0
    2.5697    0.8869   -2.9595 H   0  0  0  0  0  0  0  0  0  0  0  0
    3.7584    1.2739   -0.5023 C   0  0  0  0  0  0  0  0  0  0  0  0
    3.2283    2.1828   -0.8521 H   0  0  0  0  0  0  0  0  0  0  0  0
    4.7922    1.3100   -0.9033 H   0  0  0  0  0  0  0  0  0  0  0  0
    3.8249    1.3244    0.6011 H   0  0  0  0  0  0  0  0  0  0  0  0
    3.7580   -1.2759   -0.4984 C   0  0  0  0  0  0  0  0  0  0  0  0
    3.8243   -1.3233    0.6050 H   0  0  0  0  0  0  0  0  0  0  0  0
    4.7919   -1.3134   -0.8992 H   0  0  0  0  0  0  0  0  0  0  0  0
    3.2277   -2.1857   -0.8458 H   0  0  0  0  0  0  0  0  0  0  0  0
  2  3  1  0  0  0  0
  3  9  1  0  0  0  0
  3  5  1  0  0  0  0
  4  3  1  0  0  0  0
  5  6  1  0  0  0  0
  5  7  1  0  0  0  0
  8  5  1  0  0  0  0
  9 12  1  0  0  0  0
  9 11  1  0  0  0  0
 10  9  1  0  0  0  0
 13  1  1  1  0  0  0
 13  2  1  0  0  0  0
 14 13  1  0  0  0  0
 14 19  1  0  0  0  0
 14 23  1  0  0  0  0
 15 14  1  0  0  0  0
 16 15  1  0  0  0  0
 17 15  1  0  0  0  0
 18 15  1  0  0  0  0
 19 22  1  0  0  0  0
 20 19  1  0  0  0  0
 21 19  1  0  0  0  0
 23 24  1  0  0  0  0
 25 23  1  0  0  0  0
 26 23  1  0  0  0  0
M  END
