1,2
q = -1.0

 22 23  0  0  1  0  0  0  0  0999 V2000
    0.8545    0.5377   -1.7119 O   0  5  0  0  0  0  0  0  0  0  0  0
    1.3248    0.1337    0.9230 N   0  0  0  0  0  2  0  0  0  0  0  0
    3.9938   -0.3843    1.7406 N   0  0  0  0  0  0  0  0  0  0  0  0
    4.6451   -0.4864   -0.5144 N   0  0  0  0  0  0  0  0  0  0  0  0
    3.0270    0.0056   -2.2805 N   0  0  0  0  0  0  0  0  0  0  0  0
    5.2115   -0.5502   -2.7428 N   0  0  0  0  0  0  0  0  0  0  0  0
    1.6666    0.1828    2.2332 C   0  0  0  0  0  0  0  0  0  0  0  0
    3.0281   -0.1150    2.6115 C   0  0  0  0  0  0  0  0  0  0  0  0
    3.6862   -0.3102    0.4100 C   0  0  0  0  0  0  0  0  0  0  0  0
    4.2623   -0.3406   -1.7993 C   0  0  0  0  0  0  0  0  0  0  0  0
    2.0621    0.1543   -1.3849 C   0  0  0  0  0  0  0  0  0  0  0  0
    2.3379   -0.0490    0.0233 C   0  0  2  0  0  3  0  0  0  0  0  0
    0.6670    0.6201    3.2645 C   0  0  0  0  0  0  0  0  0  0  0  0
    3.3972   -0.1317    4.0715 C   0  0  0  0  0  0  0  0  0  0  0  0
   -0.2983    0.8820    2.7951 H   0  0  0  0  0  0  0  0  0  0  0  0
    1.0445    1.5147    3.8044 H   0  0  0  0  0  0  0  0  0  0  0  0
    0.4897   -0.1441    4.0496 H   0  0  0  0  0  0  0  0  0  0  0  0
    3.2863    0.8751    4.5269 H   0  0  0  0  0  0  0  0  0  0  0  0
    4.4501   -0.4489    4.1702 H   0  0  0  0  0  0  0  0  0  0  0  0
    2.7513   -0.8185    4.6567 H   0  0  0  0  0  0  0  0  0  0  0  0
    4.9841   -0.3935   -3.7221 H   0  0  0  0  0  0  0  0  0  0  0  0
    6.1631   -0.7599   -2.4477 H   0  0  0  0  0  0  0  0  0  0  0  0
  1 11  1  0  0  0  0
  2  7  1  0  0  0  0
  3  8  1  0  0  0  0
  4  9  1  0  0  0  0
  5 10  1  0  0  0  0
  5 11  2  0  0  0  0
  6 22  1  0  0  0  0
  6 10  1  0  0  0  0
  7  8  2  0  0  0  0
  7 13  1  0  0  0  0
  8 14  1  0  0  0  0
  9  3  2  0  0  0  0
 10  4  2  0  0  0  0
 12 11  1  1  0  0  0
 12  9  1  0  0  0  0
 12  2  1  0  0  0  0
 13 16  1  0  0  0  0
 13 17  1  0  0  0  0
 14 19  1  0  0  0  0
 14 18  1  0  0  0  0
 14 20  1  0  0  0  0
 15 13  1  0  0  0  0
 21  6  1  0  0  0  0
M  CHG  1   1  -1
M  END
