1,14
q = -1.0, confidence = 0.014

 15 15  0  0  1  0  0  0  0  0999 V2000
    1.8720   -0.3356   -0.0366 N   0  0  0  0  0  2  0  0  0  0  0  0
    2.5850   -1.4640   -0.2516 C   0  0  1  0  0  3  0  0  0  0  0  0
    2.0801   -2.7055   -0.4532 N   0  0  0  0  0  0  0  0  0  0  0  0
    2.7224   -3.4934   -0.3754 H   0  0  0  0  0  0  0  0  0  0  0  0
    1.1509   -2.8301   -0.0083 H   0  0  0  0  0  0  0  0  0  0  0  0
    3.8960   -1.1015   -0.2570 N   0  0  0  0  0  0  0  0  0  0  0  0
    4.7137   -1.6958   -0.3889 H   0  0  0  0  0  0  0  0  0  0  0  0
    4.0569    0.2401   -0.0209 N   0  0  0  0  0  0  0  0  0  0  0  0
    2.8138    0.6650    0.1207 C   0  0  0  0  0  0  0  0  0  0  0  0
    2.4086    2.0345    0.5302 C   0  0  0  0  0  0  0  0  0  0  0  0
    2.0658    1.9578    1.5888 H   0  0  0  0  0  0  0  0  0  0  0  0
    3.2646    2.7298    0.4900 H   0  0  0  0  0  0  0  0  0  0  0  0
    1.2240    2.6251   -0.2390 C   0  0  0  0  0  0  0  0  0  0  0  0
    0.2727    1.7800   -0.6155 O   0  5  0  0  0  0  0  0  0  0  0  0
    1.1131    3.8308   -0.4258 O   0  0  0  0  0  0  0  0  0  0  0  0
  1  9  1  0  0  0  0
  2  3  1  6  0  0  0
  2  1  1  0  0  0  0
  3  4  1  0  0  0  0
  3  5  1  0  0  0  0
  6  2  1  0  0  0  0
  6  8  1  0  0  0  0
  7  6  1  0  0  0  0
  8  9  2  0  0  0  0
  9 10  1  0  0  0  0
 10 11  1  0  0  0  0
 12 10  1  0  0  0  0
 13 10  1  0  0  0  0
 14 13  1  0  0  0  0
 15 13  2  0  0  0  0
M  CHG  1  14  -1
M  END
