1,3
q = -1.0

 69 75  0  0  1  0  0  0  0  0999 V2000
   -0.4760    0.0500    0.1686 O   0  0  0  0  0  1  0  0  0  0  0  0
    3.6858   -2.1492   -1.0681 O   0  0  0  0  0  0  0  0  0  0  0  0
    2.3043    0.0089    0.2608 N   0  0  0  0  0  2  0  0  0  0  0  0
    3.8885    2.2657    0.9877 O   0  0  0  0  0  0  0  0  0  0  0  0
   -1.7005   -0.0960    2.1651 C   0  0  0  0  0  0  0  0  0  0  0  0
    3.6981    0.0572   -0.0241 C   0  0  0  0  0  0  0  0  0  0  0  0
    4.3627   -1.0296   -0.6461 C   0  0  0  0  0  0  0  0  0  0  0  0
    0.7755   -0.0788    2.2118 C   0  0  0  0  0  0  0  0  0  0  0  0
   -2.9387   -0.0549    1.3349 C   0  0  0  0  0  0  0  0  0  0  0  0
   -1.7062   -0.1876    3.5550 C   0  0  0  0  0  0  0  0  0  0  0  0
   -2.6738   -0.2323    4.0795 H   0  0  0  0  0  0  0  0  0  0  0  0
   -4.6407   -1.2088   -0.0623 C   0  0  0  0  0  0  0  0  0  0  0  0
    2.0413   -0.0508    1.5633 C   0  0  0  0  0  0  0  0  0  0  0  0
    2.9196   -0.0893    2.2353 H   0  0  0  0  0  0  0  0  0  0  0  0
   -4.7006    1.2360    0.1475 C   0  0  0  0  0  0  0  0  0  0  0  0
   -0.4483   -0.0369    1.4521 C   0  0  1  0  0  3  0  0  0  0  0  0
   -3.5298    1.1930    1.0068 C   0  0  0  0  0  0  0  0  0  0  0  0
   -0.4980   -0.2245    4.3004 C   0  0  0  0  0  0  0  0  0  0  0  0
   -0.5314   -0.2965    5.3970 H   0  0  0  0  0  0  0  0  0  0  0  0
    4.4567    1.2111    0.3049 C   0  0  0  0  0  0  0  0  0  0  0  0
    0.7177   -0.1726    3.6322 C   0  0  0  0  0  0  0  0  0  0  0  0
    1.6647   -0.2053    4.1952 H   0  0  0  0  0  0  0  0  0  0  0  0
   -5.2325    0.0336   -0.3539 C   0  0  0  0  0  0  0  0  0  0  0  0
   -6.1217    0.0678   -1.0038 H   0  0  0  0  0  0  0  0  0  0  0  0
   -2.9842    2.4330    1.4760 C   0  0  0  0  0  0  0  0  0  0  0  0
   -2.0895    2.3981    2.1137 H   0  0  0  0  0  0  0  0  0  0  0  0
   -3.4654   -1.2556    0.7906 C   0  0  0  0  0  0  0  0  0  0  0  0
    2.7501   -2.7631   -0.2582 C   0  0  0  0  0  0  0  0  0  0  0  0
    6.4598    0.1945   -0.6087 C   0  0  0  0  0  0  0  0  0  0  0  0
    7.5339    0.2470   -0.8396 H   0  0  0  0  0  0  0  0  0  0  0  0
    5.7344   -0.9587   -0.9371 C   0  0  0  0  0  0  0  0  0  0  0  0
    6.2058   -1.8224   -1.4259 H   0  0  0  0  0  0  0  0  0  0  0  0
    2.7033    2.8261    0.5400 C   0  0  0  0  0  0  0  0  0  0  0  0
   -2.8452   -2.5274    1.0253 C   0  0  0  0  0  0  0  0  0  0  0  0
   -1.9458   -2.5603    1.6573 H   0  0  0  0  0  0  0  0  0  0  0  0
    1.5611   -3.2038   -0.8623 C   0  0  0  0  0  0  0  0  0  0  0  0
    1.4116   -3.0194   -1.9350 H   0  0  0  0  0  0  0  0  0  0  0  0
   -5.2716    2.5100   -0.1784 C   0  0  0  0  0  0  0  0  0  0  0  0
   -6.1640    2.5337   -0.8235 H   0  0  0  0  0  0  0  0  0  0  0  0
   -5.1468   -2.4347   -0.6085 C   0  0  0  0  0  0  0  0  0  0  0  0
   -6.0474   -2.3926   -1.2416 H   0  0  0  0  0  0  0  0  0  0  0  0
    2.4211    2.9819   -0.8258 C   0  0  0  0  0  0  0  0  0  0  0  0
    3.1501    2.6476   -1.5765 H   0  0  0  0  0  0  0  0  0  0  0  0
   -3.5560    3.6418    1.1285 C   0  0  0  0  0  0  0  0  0  0  0  0
   -3.1175    4.5829    1.4952 H   0  0  0  0  0  0  0  0  0  0  0  0
   -3.3494   -3.6840    0.4604 C   0  0  0  0  0  0  0  0  0  0  0  0
   -2.8540   -4.6491    0.6494 H   0  0  0  0  0  0  0  0  0  0  0  0
    0.2635    3.9648   -0.2478 C   0  0  0  0  0  0  0  0  0  0  0  0
   -0.7056    4.3848   -0.5539 H   0  0  0  0  0  0  0  0  0  0  0  0
    1.1987    3.5548   -1.2100 C   0  0  0  0  0  0  0  0  0  0  0  0
    0.9786    3.6795   -2.2815 H   0  0  0  0  0  0  0  0  0  0  0  0
   -4.5178   -3.6401   -0.3615 C   0  0  0  0  0  0  0  0  0  0  0  0
   -4.9155   -4.5710   -0.7938 H   0  0  0  0  0  0  0  0  0  0  0  0
    0.5896   -3.8454   -0.0808 C   0  0  0  0  0  0  0  0  0  0  0  0
   -0.3504   -4.1773   -0.5476 H   0  0  0  0  0  0  0  0  0  0  0  0
    5.8278    1.2808    0.0113 C   0  0  0  0  0  0  0  0  0  0  0  0
    6.3731    2.1957    0.2808 H   0  0  0  0  0  0  0  0  0  0  0  0
    2.9876   -2.9904    1.1071 C   0  0  0  0  0  0  0  0  0  0  0  0
    3.9316   -2.6485    1.5571 H   0  0  0  0  0  0  0  0  0  0  0  0
   -4.7157    3.6822    0.2956 C   0  0  0  0  0  0  0  0  0  0  0  0
   -5.1638    4.6525    0.0322 H   0  0  0  0  0  0  0  0  0  0  0  0
    1.7887    3.2556    1.5155 C   0  0  0  0  0  0  0  0  0  0  0  0
    2.0350    3.1100    2.5767 H   0  0  0  0  0  0  0  0  0  0  0  0
    2.0023   -3.6228    1.8801 C   0  0  0  0  0  0  0  0  0  0  0  0
    2.1774   -3.7814    2.9549 H   0  0  0  0  0  0  0  0  0  0  0  0
    0.5708    3.8209    1.1155 C   0  0  0  0  0  0  0  0  0  0  0  0
   -0.1538    4.1391    1.8804 H   0  0  0  0  0  0  0  0  0  0  0  0
    0.7992   -4.0471    1.2937 C   0  0  0  0  0  0  0  0  0  0  0  0
    0.0278   -4.5368    1.9065 H   0  0  0  0  0  0  0  0  0  0  0  0
  2  7  1  0  0  0  0
  2 28  1  0  0  0  0
  3 13  1  0  0  0  0
  5 10  2  0  0  0  0
  6  3  1  0  0  0  0
  6 20  1  0  0  0  0
  7  6  2  0  0  0  0
  8 21  1  0  0  0  0
  9  5  1  0  0  0  0
 10 11  1  0  0  0  0
 10 18  1  0  0  0  0
 12 27  1  0  0  0  0
 13  8  2  0  0  0  0
 13 14  1  0  0  0  0
 15 17  1  0  0  0  0
 16  1  1  6  0  0  0
 16  5  1  0  0  0  0
 16  8  1  0  0  0  0
 17  9  1  0  0  0  0
 17 25  2  0  0  0  0
 18 19  1  0  0  0  0
 20  4  1  0  0  0  0
 21 22  1  0  0  0  0
 21 18  2  0  0  0  0
 23 12  2  0  0  0  0
 23 15  1  0  0  0  0
 24 23  1  0  0  0  0
 25 26  1  0  0  0  0
 27 34  1  0  0  0  0
 27  9  2  0  0  0  0
 28 58  1  0  0  0  0
 29 56  1  0  0  0  0
 30 29  1  0  0  0  0
 31  7  1  0  0  0  0
 31 29  2  0  0  0  0
 32 31  1  0  0  0  0
 33  4  1  0  0  0  0
 33 62  1  0  0  0  0
 34 35  1  0  0  0  0
 36 28  2  0  0  0  0
 36 54  1  0  0  0  0
 37 36  1  0  0  0  0
 38 15  2  0  0  0  0
 38 60  1  0  0  0  0
 39 38  1  0  0  0  0
 40 52  2  0  0  0  0
 40 12  1  0  0  0  0
 41 40  1  0  0  0  0
 42 33  2  0  0  0  0
 43 42  1  0  0  0  0
 44 25  1  0  0  0  0
 44 45  1  0  0  0  0
 46 47  1  0  0  0  0
 46 34  2  0  0  0  0
 48 66  1  0  0  0  0
 49 48  1  0  0  0  0
 50 42  1  0  0  0  0
 50 48  2  0  0  0  0
 51 50  1  0  0  0  0
 52 46  1  0  0  0  0
 53 52  1  0  0  0  0
 54 68  2  0  0  0  0
 55 54  1  0  0  0  0
 56 57  1  0  0  0  0
 56 20  2  0  0  0  0
 58 59  1  0  0  0  0
 58 64  2  0  0  0  0
 60 44  2  0  0  0  0
 61 60  1  0  0  0  0
 62 63  1  0  0  0  0
 64 65  1  0  0  0  0
 66 62  2  0  0  0  0
 66 67  1  0  0  0  0
 68 64  1  0  0  0  0
 68 69  1  0  0  0  0
M  END
