2,5
q = -1.0, confidence = 0.0

 17 17  0  0  1  0  0  0  0  0999 V2000
   -6.0104   -3.9442    1.0156 Cl  0  0  0  0  0  0  0  0  0  0  0  0
   -1.2193    0.7068   -0.0497 O   0  0  0  0  0  1  0  0  0  0  0  0
   -2.0918    0.7160   -2.1010 N   0  0  0  0  0  0  0  0  0  0  0  0
   -2.6881    0.3379   -2.8401 H   0  0  0  0  0  0  0  0  0  0  0  0
   -1.1257    1.6349   -2.3880 N   0  0  0  0  0  2  0  0  0  0  0  0
   -1.1513    1.9201   -3.3710 H   0  0  0  0  0  0  0  0  0  0  0  0
   -2.0955    0.2496   -0.8230 C   0  0  1  0  0  3  0  0  0  0  0  0
   -3.0909   -0.7668   -0.4173 C   0  0  0  0  0  0  0  0  0  0  0  0
   -2.8463   -1.4760    0.7780 C   0  0  0  0  0  0  0  0  0  0  0  0
   -1.9367   -1.2385    1.3482 H   0  0  0  0  0  0  0  0  0  0  0  0
   -3.7378   -2.4556    1.2227 C   0  0  0  0  0  0  0  0  0  0  0  0
   -3.5479   -3.0140    2.1498 H   0  0  0  0  0  0  0  0  0  0  0  0
   -4.8946   -2.7272    0.4706 C   0  0  0  0  0  0  0  0  0  0  0  0
   -5.1667   -2.0194   -0.7141 C   0  0  0  0  0  0  0  0  0  0  0  0
   -6.0867   -2.2311   -1.2762 H   0  0  0  0  0  0  0  0  0  0  0  0
   -4.2665   -1.0419   -1.1494 C   0  0  0  0  0  0  0  0  0  0  0  0
   -4.5156   -0.4697   -2.0567 H   0  0  0  0  0  0  0  0  0  0  0  0
  3  7  1  0  0  0  0
  4  3  1  0  0  0  0
  5  3  1  0  0  0  0
  6  5  1  0  0  0  0
  7  8  1  0  0  0  0
  7  2  1  6  0  0  0
  8  9  1  0  0  0  0
  9 11  2  0  0  0  0
  9 10  1  0  0  0  0
 11 12  1  0  0  0  0
 13  1  1  0  0  0  0
 13 11  1  0  0  0  0
 14 13  2  0  0  0  0
 15 14  1  0  0  0  0
 16 14  1  0  0  0  0
 16  8  2  0  0  0  0
 17 16  1  0  0  0  0
M  END
