1,9
q = -1.0

 22 22  0  0  1  0  0  0  0  0999 V2000
   -0.4188    1.5708   -1.5801 O   0  5  0  0  0  0  0  0  0  0  0  0
   -1.4371    3.1055   -0.2831 O   0  0  0  0  0  0  0  0  0  0  0  0
   -3.8703    3.5173   -0.0421 O   0  0  0  0  0  0  0  0  0  0  0  0
   -2.8288    3.3845   -0.0408 H   0  0  0  0  0  0  0  0  0  0  0  0
   -5.7279    2.2839   -0.1912 O   0  0  0  0  0  0  0  0  0  0  0  0
   -6.0019   -2.1948    0.9141 O   0  0  0  0  0  0  0  0  0  0  0  0
   -6.4513   -3.0388    1.1336 H   0  0  0  0  0  0  0  0  0  0  0  0
   -4.2861   -3.6603    0.9009 O   0  0  0  0  0  0  0  0  0  0  0  0
   -1.7445   -0.3582   -0.1446 N   0  0  0  0  0  2  0  0  0  0  0  0
   -1.6925   -2.7224    0.4268 C   0  0  0  0  0  0  0  0  0  0  0  0
   -2.0289   -3.4963   -0.2911 H   0  0  0  0  0  0  0  0  0  0  0  0
   -1.8777   -3.1526    1.4298 H   0  0  0  0  0  0  0  0  0  0  0  0
   -0.6093   -2.5250    0.2890 H   0  0  0  0  0  0  0  0  0  0  0  0
   -2.4516   -1.4429    0.2313 C   0  0  2  0  0  3  0  0  0  0  0  0
   -3.8579   -1.3304    0.4115 C   0  0  0  0  0  0  0  0  0  0  0  0
   -4.4475   -0.0689    0.2539 C   0  0  0  0  0  0  0  0  0  0  0  0
   -5.5308    0.0707    0.3774 H   0  0  0  0  0  0  0  0  0  0  0  0
   -3.6896    1.0692   -0.0653 C   0  0  0  0  0  0  0  0  0  0  0  0
   -2.3089    0.8687   -0.3072 C   0  0  0  0  0  0  0  0  0  0  0  0
   -1.3136    1.9455   -0.7843 C   0  0  0  0  0  0  0  0  0  0  0  0
   -4.5088    2.3705   -0.1233 C   0  0  0  0  0  0  0  0  0  0  0  0
   -4.6934   -2.5166    0.7608 C   0  0  0  0  0  0  0  0  0  0  0  0
  1 20  1  0  0  0  0
  3  4  1  0  0  0  0
  5 21  2  0  0  0  0
  6  7  1  0  0  0  0
  9 14  1  0  0  0  0
 10 12  1  0  0  0  0
 11 10  1  0  0  0  0
 13 10  1  0  0  0  0
 14 15  1  0  0  0  0
 14 10  1  6  0  0  0
 15 22  1  0  0  0  0
 16 17  1  0  0  0  0
 16 15  2  0  0  0  0
 18 16  1  0  0  0  0
 19  9  1  0  0  0  0
 19 18  2  0  0  0  0
 20 19  1  0  0  0  0
 20  2  2  0  0  0  0
 21 18  1  0  0  0  0
 21  3  1  0  0  0  0
 22  8  2  0  0  0  0
 22  6  1  0  0  0  0
M  CHG  1   1  -1
M  END
