1,8
q = -1.0, confidence = 0.008

 14 14  0  0  0  0  0  0  0  0999 V2000
   -0.9416    1.6413   -0.0608 O   0  5  0  0  0  0  0  0  0  0  0  0
   -3.0286    2.5051    0.0089 O   0  0  0  0  0  0  0  0  0  0  0  0
   -5.4779    1.3360    0.0827 O   0  0  0  0  0  0  0  0  0  0  0  0
   -4.5973    1.8232    0.0523 H   0  0  0  0  0  0  0  0  0  0  0  0
   -6.3036   -0.7500    0.1149 O   0  0  0  0  0  0  0  0  0  0  0  0
   -2.2496   -1.9908   -0.0148 N   0  0  0  0  0  0  0  0  0  0  0  0
   -1.6039   -2.8661   -0.0353 H   0  0  0  0  0  0  0  0  0  0  0  0
   -1.6995   -0.7681   -0.0325 N   0  0  0  0  0  2  0  0  0  0  0  0
   -3.6008   -1.8949    0.0243 C   0  0  0  0  0  3  0  0  0  0  0  0
   -4.2488   -2.7782    0.0400 H   0  0  0  0  0  0  0  0  0  0  0  0
   -3.9506   -0.5338    0.0346 C   0  0  0  0  0  0  0  0  0  0  0  0
   -5.3488    0.0045    0.0804 C   0  0  0  0  0  0  0  0  0  0  0  0
   -2.7055    0.1319   -0.0033 C   0  0  0  0  0  0  0  0  0  0  0  0
   -2.2579    1.5405   -0.0172 C   0  0  0  0  0  0  0  0  0  0  0  0
  1 14  1  0  0  0  0
  4  3  1  0  0  0  0
  6  9  1  0  0  0  0
  7  6  1  0  0  0  0
  8  6  1  0  0  0  0
  8 13  1  0  0  0  0
  9 11  1  0  0  0  0
  9 10  1  0  0  0  0
 11 12  1  0  0  0  0
 12  3  1  0  0  0  0
 12  5  2  0  0  0  0
 13 11  2  0  0  0  0
 14 13  1  0  0  0  0
 14  2  2  0  0  0  0
M  CHG  1   1  -1
M  END
