1,2
q = -1.0

 30 30  0  0  1  0  0  0  0  0999 V2000
   -1.2506   -1.1723   -0.7271 O   0  0  0  0  0  1  0  0  0  0  0  0
    1.2301   -1.4287    0.4166 N   0  0  0  0  0  2  0  0  0  0  0  0
    2.4830   -1.1209    0.9590 N   0  0  0  0  0  0  0  0  0  0  0  0
   -2.5063   -3.0826   -1.2974 C   0  0  0  0  0  0  0  0  0  0  0  0
   -3.3877   -2.6945   -0.7465 H   0  0  0  0  0  0  0  0  0  0  0  0
   -2.4868   -4.1862   -1.2418 H   0  0  0  0  0  0  0  0  0  0  0  0
   -2.6357   -2.7783   -2.3572 H   0  0  0  0  0  0  0  0  0  0  0  0
   -1.2516   -2.4609   -0.7342 C   0  0  1  0  0  3  0  0  0  0  0  0
   -0.1926   -3.2563   -0.2797 C   0  0  0  0  0  0  0  0  0  0  0  0
   -0.2917   -4.3462   -0.3564 H   0  0  0  0  0  0  0  0  0  0  0  0
    1.0196   -2.7439    0.2382 C   0  0  0  0  0  0  0  0  0  0  0  0
    2.1147   -3.7208    0.5938 C   0  0  0  0  0  0  0  0  0  0  0  0
    3.0553   -3.4562    0.0710 H   0  0  0  0  0  0  0  0  0  0  0  0
    1.8227   -4.7503    0.3184 H   0  0  0  0  0  0  0  0  0  0  0  0
    2.3397   -3.6990    1.6796 H   0  0  0  0  0  0  0  0  0  0  0  0
    3.4242   -0.5251    0.1257 C   0  0  0  0  0  0  0  0  0  0  0  0
    3.2429   -0.5177   -1.2817 C   0  0  0  0  0  0  0  0  0  0  0  0
    2.3280   -0.9528   -1.7050 H   0  0  0  0  0  0  0  0  0  0  0  0
    4.2042    0.0624   -2.1156 C   0  0  0  0  0  0  0  0  0  0  0  0
    4.0346    0.0624   -3.2037 H   0  0  0  0  0  0  0  0  0  0  0  0
    5.3706    0.6420   -1.5873 C   0  0  0  0  0  0  0  0  0  0  0  0
    6.1222    1.0951   -2.2500 H   0  0  0  0  0  0  0  0  0  0  0  0
    5.5559    0.6319   -0.1961 C   0  0  0  0  0  0  0  0  0  0  0  0
    6.4612    1.0805    0.2423 H   0  0  0  0  0  0  0  0  0  0  0  0
    4.6012    0.0624    0.6573 C   0  0  0  0  0  0  0  0  0  0  0  0
    4.7701    0.0824    1.7418 H   0  0  0  0  0  0  0  0  0  0  0  0
    2.5322   -0.9373    2.3963 C   0  0  0  0  0  0  0  0  0  0  0  0
    3.4481   -1.3998    2.8220 H   0  0  0  0  0  0  0  0  0  0  0  0
    1.6522   -1.4383    2.8378 H   0  0  0  0  0  0  0  0  0  0  0  0
    2.5000    0.1379    2.6804 H   0  0  0  0  0  0  0  0  0  0  0  0
  2  3  1  0  0  0  0
  3 27  1  0  0  0  0
  4  6  1  0  0  0  0
  4  5  1  0  0  0  0
  4  8  1  0  0  0  0
  7  4  1  0  0  0  0
  8  1  1  6  0  0  0
  8  9  1  0  0  0  0
  9 11  2  0  0  0  0
 10  9  1  0  0  0  0
 11  2  1  0  0  0  0
 11 12  1  0  0  0  0
 12 15  1  0  0  0  0
 13 12  1  0  0  0  0
 14 12  1  0  0  0  0
 16 25  1  0  0  0  0
 16  3  1  0  0  0  0
 17 16  2  0  0  0  0
 18 17  1  0  0  0  0
 19 21  2  0  0  0  0
 19 17  1  0  0  0  0
 20 19  1  0  0  0  0
 21 23  1  0  0  0  0
 22 21  1  0  0  0  0
 23 24  1  0  0  0  0
 23 25  2  0  0  0  0
 25 26  1  0  0  0  0
 27 30  1  0  0  0  0
 27 28  1  0  0  0  0
 27 29  1  0  0  0  0
M  END
