1,6
q = -1.0, confidence = 0.008

 17 16  0  0  1  0  0  0  0  0999 V2000
    0.5124   -1.7848   -0.3119 O   0  5  0  0  0  0  0  0  0  0  0  0
   -0.4682   -2.6094   -0.5944 C   0  0  0  0  0  0  0  0  0  0  0  0
   -0.3564   -3.8034   -0.8514 O   0  0  0  0  0  0  0  0  0  0  0  0
   -1.8307   -1.9313   -0.5425 C   0  0  1  0  0  3  0  0  0  0  0  0
   -3.0896   -2.6657   -0.8142 C   0  0  0  0  0  0  0  0  0  0  0  0
   -1.7331   -0.6750   -0.1971 N   0  0  0  0  0  2  0  0  0  0  0  0
   -2.8520    0.1184   -0.0740 N   0  0  0  0  0  0  0  0  0  0  0  0
   -2.8443    1.0778    0.9595 C   0  0  0  0  0  0  0  0  0  0  0  0
   -3.7623    2.2518    0.7179 C   0  0  0  0  0  0  0  0  0  0  0  0
   -2.8835   -3.7502   -0.7415 H   0  0  0  0  0  0  0  0  0  0  0  0
   -3.4556   -2.4649   -1.8454 H   0  0  0  0  0  0  0  0  0  0  0  0
   -3.8896   -2.3568   -0.1110 H   0  0  0  0  0  0  0  0  0  0  0  0
   -3.3569    0.3061   -0.9464 H   0  0  0  0  0  0  0  0  0  0  0  0
   -4.0816    2.6696    1.6888 H   0  0  0  0  0  0  0  0  0  0  0  0
   -4.6499    1.9974    0.1052 H   0  0  0  0  0  0  0  0  0  0  0  0
   -3.1676    3.0205    0.1808 H   0  0  0  0  0  0  0  0  0  0  0  0
   -2.1383    0.9237    1.9382 O   0  0  0  0  0  0  0  0  0  0  0  0
  2  1  1  0  0  0  0
  3  2  2  0  0  0  0
  4  2  1  1  0  0  0
  4  6  1  0  0  0  0
  5 10  1  0  0  0  0
  5  4  1  0  0  0  0
  5 12  1  0  0  0  0
  6  7  1  0  0  0  0
  7  8  1  0  0  0  0
  8 17  2  0  0  0  0
  9  8  1  0  0  0  0
  9 14  1  0  0  0  0
 11  5  1  0  0  0  0
 13  7  1  0  0  0  0
 15  9  1  0  0  0  0
 16  9  1  0  0  0  0
M  CHG  1   1  -1
M  END
