2,5
q = 0.0, confidence = 0.99

 37 38  0  0  0  0  0  0  0  0999 V2000
    1.8479    0.8400    0.1282 P   0  0  0  0  0  4  0  0  0  0  0  0
    1.3850   -0.2861   -0.7946 O   0  0  0  0  0  1  0  0  0  0  0  0
    3.3370    0.6276    0.7245 O   0  0  0  0  0  0  0  0  0  0  0  0
    1.9114    2.2951   -0.5712 O   0  0  0  0  0  0  0  0  0  0  0  0
   -1.3084    0.2619    0.4332 N   0  0  0  0  0  2  0  0  0  0  0  0
   -0.7161    1.2677    1.0928 C   0  0  0  0  0  0  0  0  0  0  0  0
   -1.4068    2.4696    1.4143 C   0  0  0  0  0  0  0  0  0  0  0  0
   -0.8701    3.2680    1.9456 H   0  0  0  0  0  0  0  0  0  0  0  0
   -2.7354    2.6105    1.0610 C   0  0  0  0  0  0  0  0  0  0  0  0
   -3.2902    3.5299    1.3051 H   0  0  0  0  0  0  0  0  0  0  0  0
   -3.3966    1.5565    0.3768 C   0  0  0  0  0  0  0  0  0  0  0  0
   -4.7654    1.6278   -0.0089 C   0  0  0  0  0  3  0  0  0  0  0  0
   -5.3369    2.5363    0.2363 H   0  0  0  0  0  0  0  0  0  0  0  0
   -5.3602    0.5700   -0.6785 C   0  0  0  0  0  0  0  0  0  0  0  0
   -6.4184    0.6279   -0.9743 H   0  0  0  0  0  0  0  0  0  0  0  0
   -4.6024   -0.5911   -0.9867 C   0  0  0  0  0  0  0  0  0  0  0  0
   -5.0785   -1.4250   -1.5242 H   0  0  0  0  0  0  0  0  0  0  0  0
   -3.2667   -0.6959   -0.6259 C   0  0  0  0  0  0  0  0  0  0  0  0
   -2.6766   -1.5897   -0.8926 H   0  0  0  0  0  0  0  0  0  0  0  0
   -2.6325    0.3730    0.0663 C   0  0  0  0  0  0  0  0  0  0  0  0
    0.7180    1.1021    1.5217 C   0  0  0  0  0  0  0  0  0  0  0  0
    0.8091    0.1580    2.1187 H   0  0  0  0  0  0  0  0  0  0  0  0
    1.0771    1.9643    2.1130 H   0  0  0  0  0  0  0  0  0  0  0  0
    3.8151   -0.7279    1.0249 C   0  0  0  0  0  0  0  0  0  0  0  0
    4.5149   -0.5881    1.8722 H   0  0  0  0  0  0  0  0  0  0  0  0
    2.9630   -1.3533    1.3704 H   0  0  0  0  0  0  0  0  0  0  0  0
    4.4974   -1.3391   -0.1822 C   0  0  0  0  0  0  0  0  0  0  0  0
    4.9042   -2.3351    0.0861 H   0  0  0  0  0  0  0  0  0  0  0  0
    5.3364   -0.7069   -0.5371 H   0  0  0  0  0  0  0  0  0  0  0  0
    3.7712   -1.4765   -1.0071 H   0  0  0  0  0  0  0  0  0  0  0  0
    2.4363    2.4240   -1.9232 C   0  0  0  0  0  0  0  0  0  0  0  0
    1.8830    3.2794   -2.3588 H   0  0  0  0  0  0  0  0  0  0  0  0
    2.1670    1.5127   -2.4978 H   0  0  0  0  0  0  0  0  0  0  0  0
    3.9335    2.6708   -1.9204 C   0  0  0  0  0  0  0  0  0  0  0  0
    4.2878    2.8406   -2.9572 H   0  0  0  0  0  0  0  0  0  0  0  0
    4.4817    1.8046   -1.5021 H   0  0  0  0  0  0  0  0  0  0  0  0
    4.1851    3.5643   -1.3156 H   0  0  0  0  0  0  0  0  0  0  0  0
  1  3  1  0  0  0  0
  1 21  1  0  0  0  0
  2  1  1  0  0  0  0
  3 24  1  0  0  0  0
  4  1  1  0  0  0  0
  5  6  1  0  0  0  0
  6  7  2  0  0  0  0
  6 21  1  0  0  0  0
  7  8  1  0  0  0  0
  9 10  1  0  0  0  0
  9  7  1  0  0  0  0
 11  9  2  0  0  0  0
 12 13  1  0  0  0  0
 12 11  1  0  0  0  0
 14 12  1  0  0  0  0
 15 14  1  0  0  0  0
 16 14  2  0  0  0  0
 16 18  1  0  0  0  0
 17 16  1  0  0  0  0
 18 20  2  0  0  0  0
 19 18  1  0  0  0  0
 20 11  1  0  0  0  0
 20  5  1  0  0  0  0
 21 23  1  0  0  0  0
 21 22  1  0  0  0  0
 24 26  1  0  0  0  0
 24 25  1  0  0  0  0
 27 28  1  0  0  0  0
 27 24  1  0  0  0  0
 29 27  1  0  0  0  0
 30 27  1  0  0  0  0
 31 34  1  0  0  0  0
 31  4  1  0  0  0  0
 32 31  1  0  0  0  0
 33 31  1  0  0  0  0
 34 36  1  0  0  0  0
 34 37  1  0  0  0  0
 35 34  1  0  0  0  0
M  END
