1,3
q = 0.0, confidence = 1.0

 41 44  0  0  1  0  0  0  0  0999 V2000
   -1.0057   -0.0329   -0.8582 O   0  0  0  0  0  1  0  0  0  0  0  0
    1.2955    1.2190   -1.0933 O   0  0  0  0  0  0  0  0  0  0  0  0
    2.7904   -0.6100    0.1473 N   0  0  0  0  0  2  0  0  0  0  0  0
   -2.2458    1.8640   -1.0906 N   0  0  0  0  0  0  0  0  0  0  0  0
   -2.2109    2.8586   -1.3277 H   0  0  0  0  0  0  0  0  0  0  0  0
   -3.0727    0.5119    1.3792 C   0  0  0  0  0  0  0  0  0  0  0  0
   -2.1070    1.0349    1.3878 H   0  0  0  0  0  0  0  0  0  0  0  0
   -3.4667   -0.2017    2.5014 C   0  0  0  0  0  0  0  0  0  0  0  0
   -2.7817   -0.2616    3.3598 H   0  0  0  0  0  0  0  0  0  0  0  0
   -4.7243   -0.8611    2.5280 C   0  0  0  0  0  0  0  0  0  0  0  0
   -5.0208   -1.4319    3.4208 H   0  0  0  0  0  0  0  0  0  0  0  0
   -5.5790   -0.7786    1.4402 C   0  0  0  0  0  0  0  0  0  0  0  0
   -6.5633   -1.2717    1.4611 H   0  0  0  0  0  0  0  0  0  0  0  0
   -5.2045   -0.0580    0.2676 C   0  0  0  0  0  0  0  0  0  0  0  0
   -6.0780    0.0544   -0.8529 C   0  0  0  0  0  0  0  0  0  0  0  0
   -7.0647   -0.4312   -0.8024 H   0  0  0  0  0  0  0  0  0  0  0  0
   -5.7002    0.7594   -1.9850 C   0  0  0  0  0  0  0  0  0  0  0  0
   -6.3820    0.8431   -2.8440 H   0  0  0  0  0  0  0  0  0  0  0  0
   -4.4154    1.3534   -2.0536 C   0  0  0  0  0  0  0  0  0  0  0  0
   -4.0948    1.8745   -2.9684 H   0  0  0  0  0  0  0  0  0  0  0  0
   -3.5385    1.2573   -0.9798 C   0  0  0  0  0  0  0  0  0  0  0  0
   -3.9093    0.5802    0.2285 C   0  0  0  0  0  0  0  0  0  0  0  0
   -1.0702    1.1956   -1.0042 C   0  0  1  0  0  3  0  0  0  0  0  0
    0.1792    2.0813   -1.0583 C   0  0  0  0  0  0  0  0  0  0  0  0
    0.1461    2.7338   -1.9608 H   0  0  0  0  0  0  0  0  0  0  0  0
    0.2034    2.7121   -0.1434 H   0  0  0  0  0  0  0  0  0  0  0  0
    2.4954    1.6527   -0.6170 C   0  0  0  0  0  0  0  0  0  0  0  0
    2.9610    2.9580   -0.7132 C   0  0  0  0  0  0  0  0  0  0  0  0
    2.3367    3.7358   -1.1746 H   0  0  0  0  0  0  0  0  0  0  0  0
    4.2591    3.2856   -0.2374 C   0  0  0  0  0  0  0  0  0  0  0  0
    4.6098    4.3241   -0.3302 H   0  0  0  0  0  0  0  0  0  0  0  0
    5.0847    2.3231    0.3223 C   0  0  0  0  0  0  0  0  0  0  0  0
    6.0938    2.5806    0.6760 H   0  0  0  0  0  0  0  0  0  0  0  0
    4.6243    0.9809    0.4526 C   0  0  0  0  0  0  0  0  0  0  0  0
    5.3933   -0.0695    1.0299 C   0  0  0  0  0  0  0  0  0  0  0  0
    6.4126    0.1463    1.3859 H   0  0  0  0  0  0  0  0  0  0  0  0
    4.8548   -1.3423    1.1415 C   0  0  0  0  0  0  0  0  0  0  0  0
    5.4284   -2.1703    1.5810 H   0  0  0  0  0  0  0  0  0  0  0  0
    3.5296   -1.5713    0.6954 C   0  0  0  0  0  0  0  0  0  0  0  0
    3.0464   -2.5592    0.7775 H   0  0  0  0  0  0  0  0  0  0  0  0
    3.3060    0.6426   -0.0019 C   0  0  1  0  0  3  0  0  0  0  0  0
  2 24  1  0  0  0  0
  2 27  1  0  0  0  0
  3 39  1  0  0  0  0
  4 23  1  0  0  0  0
  4 21  1  0  0  0  0
  5  4  1  0  0  0  0
  6  7  1  0  0  0  0
  6  8  1  0  0  0  0
  8 10  2  0  0  0  0
  8  9  1  0  0  0  0
 10 11  1  0  0  0  0
 12 13  1  0  0  0  0
 12 10  1  0  0  0  0
 14 12  2  0  0  0  0
 15 16  1  0  0  0  0
 15 14  1  0  0  0  0
 17 15  2  0  0  0  0
 18 17  1  0  0  0  0
 19 17  1  0  0  0  0
 19 21  2  0  0  0  0
 20 19  1  0  0  0  0
 21 22  1  0  0  0  0
 22 14  1  0  0  0  0
 22  6  2  0  0  0  0
 23  1  1  1  0  0  0
 24 23  1  0  0  0  0
 24 26  1  0  0  0  0
 25 24  1  0  0  0  0
 28 27  2  0  0  0  0
 28 30  1  0  0  0  0
 29 28  1  0  0  0  0
 30 32  2  0  0  0  0
 31 30  1  0  0  0  0
 32 34  1  0  0  0  0
 32 33  1  0  0  0  0
 34 35  2  0  0  0  0
 35 37  1  0  0  0  0
 35 36  1  0  0  0  0
 37 38  1  0  0  0  0
 39 40  1  0  0  0  0
 39 37  2  0  0  0  0
 41 27  1  1  0  0  0
 41  3  1  0  0  0  0
 41 34  1  0  0  0  0
M  END
