1,2
q = -1.0, confidence = 0.0

 14 14  0  0  1  0  0  0  0  0999 V2000
   -0.9438    1.6900   -1.0943 O   0  0  0  0  0  1  0  0  0  0  0  0
   -1.9958    0.5584    0.4991 N   0  0  0  0  0  2  0  0  0  0  0  0
   -1.9991    1.6370   -0.3576 C   0  0  1  0  0  3  0  0  0  0  0  0
   -3.0036    0.3247    1.3713 C   0  0  0  0  0  0  0  0  0  0  0  0
   -2.9003   -0.5557    2.0222 H   0  0  0  0  0  0  0  0  0  0  0  0
   -4.1000    1.1755    1.4146 C   0  0  0  0  0  0  0  0  0  0  0  0
   -4.9205    0.9840    2.1188 H   0  0  0  0  0  0  0  0  0  0  0  0
   -4.1330    2.2906    0.5364 C   0  0  0  0  0  0  0  0  0  0  0  0
   -4.9971    2.9744    0.5662 H   0  0  0  0  0  0  0  0  0  0  0  0
   -3.1014    2.5539   -0.3622 C   0  0  0  0  0  0  0  0  0  0  0  0
   -3.0644    3.7153   -1.3089 C   0  0  0  0  0  0  0  0  0  0  0  0
   -2.1719    4.3475   -1.1186 H   0  0  0  0  0  0  0  0  0  0  0  0
   -3.9718    4.3426   -1.2208 H   0  0  0  0  0  0  0  0  0  0  0  0
   -2.9706    3.3655   -2.3582 H   0  0  0  0  0  0  0  0  0  0  0  0
  2  4  1  0  0  0  0
  3  1  1  1  0  0  0
  3  2  1  0  0  0  0
  4  6  2  0  0  0  0
  4  5  1  0  0  0  0
  6  7  1  0  0  0  0
  8  9  1  0  0  0  0
  8  6  1  0  0  0  0
 10  3  1  0  0  0  0
 10  8  2  0  0  0  0
 11 13  1  0  0  0  0
 11 12  1  0  0  0  0
 11 10  1  0  0  0  0
 14 11  1  0  0  0  0
M  END
