1,3
q = -1.0

 14 14  0  0  1  0  0  0  0  0999 V2000
   -1.6793    0.4300   -1.8832 O   0  0  0  0  0  1  0  0  0  0  0  0
   -2.5228    0.2637   -0.9072 C   0  0  2  0  0  3  0  0  0  0  0  0
   -1.8708   -0.0185    0.2651 N   0  0  0  0  0  2  0  0  0  0  0  0
   -2.5139   -0.2524    1.4344 C   0  0  0  0  0  0  0  0  0  0  0  0
   -1.6828   -0.5829    2.6354 C   0  0  0  0  0  0  0  0  0  0  0  0
   -2.3032   -0.6642    3.5461 H   0  0  0  0  0  0  0  0  0  0  0  0
   -0.9000    0.1850    2.7921 H   0  0  0  0  0  0  0  0  0  0  0  0
   -1.1524   -1.5450    2.4777 H   0  0  0  0  0  0  0  0  0  0  0  0
   -3.9128   -0.1880    1.4524 C   0  0  0  0  0  0  0  0  0  0  0  0
   -4.4512   -0.3719    2.3918 H   0  0  0  0  0  0  0  0  0  0  0  0
   -4.6125    0.1101    0.2611 C   0  0  0  0  0  0  0  0  0  0  0  0
   -5.7125    0.1597    0.2812 H   0  0  0  0  0  0  0  0  0  0  0  0
   -3.9374    0.3394   -0.9361 C   0  0  0  0  0  0  0  0  0  0  0  0
   -4.4494    0.5700   -1.8793 H   0  0  0  0  0  0  0  0  0  0  0  0
  2  1  1  6  0  0  0
  2  3  1  0  0  0  0
  3  4  1  0  0  0  0
  4  9  2  0  0  0  0
  4  5  1  0  0  0  0
  5  7  1  0  0  0  0
  5  6  1  0  0  0  0
  8  5  1  0  0  0  0
  9 10  1  0  0  0  0
 11 12  1  0  0  0  0
 11  9  1  0  0  0  0
 13  2  1  0  0  0  0
 13 11  2  0  0  0  0
 14 13  1  0  0  0  0
M  END
