1,2
q = -1.0

 25 26  0  0  0  0  0  0  0  0999 V2000
   -1.7788    1.7841    0.1014 O   0  5  0  0  0  0  0  0  0  0  0  0
   -0.0612   -0.4538    0.1393 N   0  0  0  0  0  2  0  0  0  0  0  0
    0.3093   -1.3782    0.3876 H   0  0  0  0  0  0  0  0  0  0  0  0
   -0.6797    2.4212   -0.2418 C   0  0  0  0  0  0  0  0  0  0  0  0
    0.6332    1.8290   -0.3795 C   0  0  0  0  0  0  0  0  0  0  0  0
    1.7154    2.6614   -0.8056 C   0  0  0  0  0  3  0  0  0  0  0  0
    2.7023    2.2023   -0.9577 H   0  0  0  0  0  0  0  0  0  0  0  0
    1.5489    4.0126   -1.0558 C   0  0  0  0  0  0  0  0  0  0  0  0
    2.3973    4.6243   -1.3922 H   0  0  0  0  0  0  0  0  0  0  0  0
    0.2706    4.5943   -0.8742 C   0  0  0  0  0  0  0  0  0  0  0  0
    0.1261    5.6698   -1.0589 H   0  0  0  0  0  0  0  0  0  0  0  0
   -0.8123    3.8212   -0.4790 C   0  0  0  0  0  0  0  0  0  0  0  0
   -1.8110    4.2612   -0.3479 H   0  0  0  0  0  0  0  0  0  0  0  0
    0.8855    0.4424   -0.0761 C   0  0  0  0  0  0  0  0  0  0  0  0
    2.2868   -0.0682    0.0039 C   0  0  0  0  0  0  0  0  0  0  0  0
    2.7032   -1.1404   -0.8128 C   0  0  0  0  0  0  0  0  0  0  0  0
    4.0106   -1.6457   -0.7548 C   0  0  0  0  0  0  0  0  0  0  0  0
    4.9254   -1.0848    0.1564 C   0  0  0  0  0  0  0  0  0  0  0  0
    4.5301   -0.0277    0.9980 C   0  0  0  0  0  0  0  0  0  0  0  0
    3.2183    0.4671    0.9187 C   0  0  0  0  0  0  0  0  0  0  0  0
    1.8438   -1.6956   -1.6840 F   0  0  0  0  0  0  0  0  0  0  0  0
    4.3852   -2.6461   -1.5462 F   0  0  0  0  0  0  0  0  0  0  0  0
    6.1605   -1.5594    0.2274 F   0  0  0  0  0  0  0  0  0  0  0  0
    5.3924    0.4850    1.8685 F   0  0  0  0  0  0  0  0  0  0  0  0
    2.8580    1.4543    1.7395 F   0  0  0  0  0  0  0  0  0  0  0  0
  2  3  1  0  0  0  0
  4  1  1  0  0  0  0
  5  4  1  0  0  0  0
  5 14  2  0  0  0  0
  6  5  1  0  0  0  0
  7  6  1  0  0  0  0
  8 10  2  0  0  0  0
  8  6  1  0  0  0  0
  9  8  1  0  0  0  0
 10 12  1  0  0  0  0
 11 10  1  0  0  0  0
 12 13  1  0  0  0  0
 12  4  2  0  0  0  0
 14 15  1  0  0  0  0
 14  2  1  0  0  0  0
 15 20  1  0  0  0  0
 16 17  1  0  0  0  0
 16 15  2  0  0  0  0
 17 18  2  0  0  0  0
 18 23  1  0  0  0  0
 18 19  1  0  0  0  0
 19 24  1  0  0  0  0
 20 19  2  0  0  0  0
 20 25  1  0  0  0  0
 21 16  1  0  0  0  0
 22 17  1  0  0  0  0
M  CHG  1   1  -1
M  END
