1,2
q = -1.0

 33 34  0  0  0  0  0  0  0  0999 V2000
   -1.4984    0.2480    1.0702 O   0  5  0  0  0  0  0  0  0  0  0  0
    0.0786    1.8724   -0.3725 N   0  0  0  0  0  2  0  0  0  0  0  0
    1.3149    2.3980   -0.7605 N   0  0  0  0  0  0  0  0  0  0  0  0
   -2.4425    1.1196    0.8405 C   0  0  0  0  0  0  0  0  0  0  0  0
   -2.2518    2.3389    0.0922 C   0  0  0  0  0  0  0  0  0  0  0  0
   -3.3720    3.1891   -0.1338 C   0  0  0  0  0  3  0  0  0  0  0  0
   -3.2386    4.0979   -0.7382 H   0  0  0  0  0  0  0  0  0  0  0  0
   -4.6338    2.8937    0.3690 C   0  0  0  0  0  0  0  0  0  0  0  0
   -5.4849    3.5576    0.1603 H   0  0  0  0  0  0  0  0  0  0  0  0
   -4.8020    1.7336    1.1607 C   0  0  0  0  0  0  0  0  0  0  0  0
   -5.7908    1.4959    1.5837 H   0  0  0  0  0  0  0  0  0  0  0  0
   -3.7345    0.8784    1.4011 C   0  0  0  0  0  0  0  0  0  0  0  0
   -3.8614   -0.0339    1.9992 H   0  0  0  0  0  0  0  0  0  0  0  0
   -0.9238    2.7484   -0.3143 C   0  0  0  0  0  0  0  0  0  0  0  0
   -0.6635    4.1981   -0.6330 C   0  0  0  0  0  0  0  0  0  0  0  0
   -0.7990    4.4078   -1.7156 H   0  0  0  0  0  0  0  0  0  0  0  0
   -1.3494    4.8578   -0.0736 H   0  0  0  0  0  0  0  0  0  0  0  0
    0.3850    4.4473   -0.3848 H   0  0  0  0  0  0  0  0  0  0  0  0
    1.5310    2.5547   -2.1890 C   0  0  0  0  0  0  0  0  0  0  0  0
    2.1287    1.7140   -2.6012 H   0  0  0  0  0  0  0  0  0  0  0  0
    0.5492    2.5503   -2.6937 H   0  0  0  0  0  0  0  0  0  0  0  0
    2.0337    3.5196   -2.4111 H   0  0  0  0  0  0  0  0  0  0  0  0
    2.3871    2.1859    0.1088 C   0  0  0  0  0  0  0  0  0  0  0  0
    2.1590    1.7873    1.4506 C   0  0  0  0  0  0  0  0  0  0  0  0
    1.1299    1.6411    1.8053 H   0  0  0  0  0  0  0  0  0  0  0  0
    3.2397    1.5703    2.3125 C   0  0  0  0  0  0  0  0  0  0  0  0
    3.0392    1.2463    3.3454 H   0  0  0  0  0  0  0  0  0  0  0  0
    4.5620    1.7670    1.8815 C   0  0  0  0  0  0  0  0  0  0  0  0
    5.4056    1.5943    2.5655 H   0  0  0  0  0  0  0  0  0  0  0  0
    4.7870    2.1915    0.5637 C   0  0  0  0  0  0  0  0  0  0  0  0
    5.8148    2.3565    0.2054 H   0  0  0  0  0  0  0  0  0  0  0  0
    3.7198    2.3976   -0.3202 C   0  0  0  0  0  0  0  0  0  0  0  0
    3.9281    2.7169   -1.3497 H   0  0  0  0  0  0  0  0  0  0  0  0
  2 14  1  0  0  0  0
  3  2  1  0  0  0  0
  3 23  1  0  0  0  0
  4  1  1  0  0  0  0
  4 12  2  0  0  0  0
  5  4  1  0  0  0  0
  6  5  1  0  0  0  0
  6  8  1  0  0  0  0
  7  6  1  0  0  0  0
  8 10  2  0  0  0  0
  9  8  1  0  0  0  0
 10 12  1  0  0  0  0
 10 11  1  0  0  0  0
 12 13  1  0  0  0  0
 14  5  2  0  0  0  0
 15 18  1  0  0  0  0
 15 14  1  0  0  0  0
 15 17  1  0  0  0  0
 16 15  1  0  0  0  0
 19  3  1  0  0  0  0
 20 19  1  0  0  0  0
 21 19  1  0  0  0  0
 22 19  1  0  0  0  0
 23 24  1  0  0  0  0
 24 25  1  0  0  0  0
 24 26  2  0  0  0  0
 26 27  1  0  0  0  0
 28 26  1  0  0  0  0
 28 29  1  0  0  0  0
 30 28  2  0  0  0  0
 31 30  1  0  0  0  0
 32 23  2  0  0  0  0
 32 30  1  0  0  0  0
 33 32  1  0  0  0  0
M  CHG  1   1  -1
M  END
