1,2
q = -1.0

 33 34  0  0  1  0  0  0  0  0999 V2000
    1.4984   -0.2481   -1.0703 O   0  0  0  0  0  1  0  0  0  0  0  0
   -0.0786   -1.8725    0.3725 N   0  0  0  0  0  2  0  0  0  0  0  0
   -1.3149   -2.3981    0.7604 N   0  0  0  0  0  0  0  0  0  0  0  0
    2.4425   -1.1197   -0.8405 C   0  0  1  0  0  3  0  0  0  0  0  0
    2.2518   -2.3390   -0.0922 C   0  0  0  0  0  0  0  0  0  0  0  0
    3.3720   -3.1891    0.1338 C   0  0  0  0  0  0  0  0  0  0  0  0
    3.2386   -4.0979    0.7382 H   0  0  0  0  0  0  0  0  0  0  0  0
    4.6338   -2.8937   -0.3690 C   0  0  0  0  0  0  0  0  0  0  0  0
    5.4849   -3.5575   -0.1603 H   0  0  0  0  0  0  0  0  0  0  0  0
    4.8020   -1.7336   -1.1608 C   0  0  0  0  0  0  0  0  0  0  0  0
    5.7908   -1.4959   -1.5837 H   0  0  0  0  0  0  0  0  0  0  0  0
    3.7345   -0.8784   -1.4012 C   0  0  0  0  0  0  0  0  0  0  0  0
    3.8614    0.0339   -1.9992 H   0  0  0  0  0  0  0  0  0  0  0  0
    0.9238   -2.7484    0.3142 C   0  0  0  0  0  0  0  0  0  0  0  0
    0.6635   -4.1981    0.6330 C   0  0  0  0  0  0  0  0  0  0  0  0
    0.7990   -4.4078    1.7156 H   0  0  0  0  0  0  0  0  0  0  0  0
    1.3493   -4.8578    0.0735 H   0  0  0  0  0  0  0  0  0  0  0  0
   -0.3850   -4.4473    0.3848 H   0  0  0  0  0  0  0  0  0  0  0  0
   -1.5309   -2.5549    2.1889 C   0  0  0  0  0  0  0  0  0  0  0  0
   -2.1286   -1.7143    2.6012 H   0  0  0  0  0  0  0  0  0  0  0  0
   -0.5491   -2.5505    2.6936 H   0  0  0  0  0  0  0  0  0  0  0  0
   -2.0336   -3.5198    2.4109 H   0  0  0  0  0  0  0  0  0  0  0  0
   -2.3871   -2.1859   -0.1088 C   0  0  0  0  0  0  0  0  0  0  0  0
   -2.1591   -1.7872   -1.4506 C   0  0  0  0  0  0  0  0  0  0  0  0
   -1.1299   -1.6409   -1.8053 H   0  0  0  0  0  0  0  0  0  0  0  0
   -3.2398   -1.5701   -2.3125 C   0  0  0  0  0  0  0  0  0  0  0  0
   -3.0393   -1.2461   -3.3454 H   0  0  0  0  0  0  0  0  0  0  0  0
   -4.5620   -1.7668   -1.8814 C   0  0  0  0  0  0  0  0  0  0  0  0
   -5.4056   -1.5940   -2.5653 H   0  0  0  0  0  0  0  0  0  0  0  0
   -4.7870   -2.1915   -0.5636 C   0  0  0  0  0  0  0  0  0  0  0  0
   -5.8148   -2.3564   -0.2053 H   0  0  0  0  0  0  0  0  0  0  0  0
   -3.7198   -2.3976    0.3203 C   0  0  0  0  0  0  0  0  0  0  0  0
   -3.9281   -2.7170    1.3497 H   0  0  0  0  0  0  0  0  0  0  0  0
  2  3  1  0  0  0  0
  3 19  1  0  0  0  0
  4  1  1  6  0  0  0
  4  5  1  0  0  0  0
  5  6  1  0  0  0  0
  5 14  2  0  0  0  0
  6  7  1  0  0  0  0
  8  9  1  0  0  0  0
  8  6  2  0  0  0  0
 10  8  1  0  0  0  0
 11 10  1  0  0  0  0
 12 10  2  0  0  0  0
 12  4  1  0  0  0  0
 13 12  1  0  0  0  0
 14  2  1  0  0  0  0
 14 15  1  0  0  0  0
 15 16  1  0  0  0  0
 17 15  1  0  0  0  0
 18 15  1  0  0  0  0
 19 22  1  0  0  0  0
 19 20  1  0  0  0  0
 19 21  1  0  0  0  0
 23 32  1  0  0  0  0
 23  3  1  0  0  0  0
 24 23  2  0  0  0  0
 25 24  1  0  0  0  0
 26 28  2  0  0  0  0
 26 24  1  0  0  0  0
 27 26  1  0  0  0  0
 28 30  1  0  0  0  0
 29 28  1  0  0  0  0
 30 31  1  0  0  0  0
 30 32  2  0  0  0  0
 32 33  1  0  0  0  0
M  END
