1,2
q = -1.0

 31 33  0  0  0  0  0  0  0  0999 V2000
   -0.5907   -1.5396   -0.8421 O   0  5  0  0  0  0  0  0  0  0  0  0
    0.1102    1.0796    0.0305 N   0  0  0  0  0  2  0  0  0  0  0  0
   -3.6001    0.5364   -0.1128 C   0  0  0  0  0  0  0  0  0  0  0  0
   -2.1850    0.1978   -0.2461 C   0  0  0  0  0  0  0  0  0  0  0  0
    0.8692    2.2139    0.4473 C   0  0  0  0  0  0  0  0  0  0  0  0
   -1.2024    1.1774    0.0801 C   0  0  0  0  0  0  0  0  0  0  0  0
   -1.5740    2.1560    0.4295 H   0  0  0  0  0  0  0  0  0  0  0  0
    0.8071    2.6666    1.7794 C   0  0  0  0  0  0  0  0  0  0  0  0
    0.1569    2.1415    2.4958 H   0  0  0  0  0  0  0  0  0  0  0  0
   -4.0748    1.8218    0.2746 C   0  0  0  0  0  0  0  0  0  0  0  0
   -3.3678    2.6368    0.4820 H   0  0  0  0  0  0  0  0  0  0  0  0
   -1.8038   -1.1198   -0.6753 C   0  0  0  0  0  0  0  0  0  0  0  0
   -5.4348    2.0976    0.3933 C   0  0  0  0  0  0  0  0  0  0  0  0
   -5.7548    3.1072    0.6935 H   0  0  0  0  0  0  0  0  0  0  0  0
   -2.8421   -2.0906   -0.9302 C   0  0  0  0  0  0  0  0  0  0  0  0
   -2.5125   -3.0891   -1.2513 H   0  0  0  0  0  0  0  0  0  0  0  0
   -4.5951   -0.4669   -0.3862 C   0  0  0  0  0  0  0  0  0  0  0  0
   -4.1691   -1.7743   -0.7933 C   0  0  0  0  0  0  0  0  0  0  0  0
   -4.9408   -2.5322   -1.0037 H   0  0  0  0  0  0  0  0  0  0  0  0
   -5.9761   -0.1628   -0.2580 C   0  0  0  0  0  3  0  0  0  0  0  0
   -6.7076   -0.9569   -0.4760 H   0  0  0  0  0  0  0  0  0  0  0  0
    1.7048    2.8653   -0.4835 C   0  0  0  0  0  0  0  0  0  0  0  0
    1.7242    2.4806   -1.5154 H   0  0  0  0  0  0  0  0  0  0  0  0
   -6.4022    1.1021    0.1290 C   0  0  0  0  0  0  0  0  0  0  0  0
   -7.4745    1.3282    0.2242 H   0  0  0  0  0  0  0  0  0  0  0  0
    1.5905    3.7608    2.1832 C   0  0  0  0  0  0  0  0  0  0  0  0
    1.5468    4.1054    3.2277 H   0  0  0  0  0  0  0  0  0  0  0  0
    2.4279    4.4073    1.2619 C   0  0  0  0  0  0  0  0  0  0  0  0
    3.0416    5.2633    1.5800 H   0  0  0  0  0  0  0  0  0  0  0  0
    2.4763    3.9587   -0.0712 C   0  0  0  0  0  0  0  0  0  0  0  0
    3.1219    4.4713   -0.8009 H   0  0  0  0  0  0  0  0  0  0  0  0
  1 12  1  0  0  0  0
  2  6  1  0  0  0  0
  2  5  1  0  0  0  0
  3 10  2  0  0  0  0
  4  3  1  0  0  0  0
  4  6  2  0  0  0  0
  5  8  1  0  0  0  0
  6  7  1  0  0  0  0
  8 26  2  0  0  0  0
  8  9  1  0  0  0  0
 10 13  1  0  0  0  0
 10 11  1  0  0  0  0
 12  4  1  0  0  0  0
 13 14  1  0  0  0  0
 15 18  1  0  0  0  0
 15 12  2  0  0  0  0
 16 15  1  0  0  0  0
 17 20  1  0  0  0  0
 17  3  1  0  0  0  0
 18 17  2  0  0  0  0
 19 18  1  0  0  0  0
 20 24  1  0  0  0  0
 21 20  1  0  0  0  0
 22 30  1  0  0  0  0
 22  5  2  0  0  0  0
 23 22  1  0  0  0  0
 24 25  1  0  0  0  0
 24 13  2  0  0  0  0
 26 27  1  0  0  0  0
 28 29  1  0  0  0  0
 28 26  1  0  0  0  0
 30 28  2  0  0  0  0
 31 30  1  0  0  0  0
M  CHG  1   1  -1
M  END
