1,3
q = -1.0, confidence = 0.0

 19 19  0  0  1  0  0  0  0  0999 V2000
    1.0929    1.6244   -0.2481 N   0  0  0  0  0  2  0  0  0  0  0  0
    2.4050    1.7156   -0.2517 C   0  0  2  0  0  3  0  0  0  0  0  0
    1.4533   -1.0409   -0.5924 O   0  5  0  0  0  0  0  0  0  0  0  0
    2.7194   -0.8059   -0.2671 C   0  0  0  0  0  0  0  0  0  0  0  0
    3.5998   -1.9113   -0.1536 C   0  0  0  0  0  0  0  0  0  0  0  0
    0.4195    2.7986   -0.3923 O   0  0  0  0  0  0  0  0  0  0  0  0
    4.9425   -1.7356    0.1804 C   0  0  0  0  0  0  0  0  0  0  0  0
    4.6020    0.6582    0.2779 C   0  0  0  0  0  0  0  0  0  0  0  0
    3.2322    0.5210   -0.0669 C   0  0  0  0  0  0  0  0  0  0  0  0
    3.0146    3.0790   -0.4287 C   0  0  0  0  0  0  0  0  0  0  0  0
    5.4496   -0.4424    0.4099 C   0  0  0  0  0  0  0  0  0  0  0  0
    3.1842   -2.9149   -0.3271 H   0  0  0  0  0  0  0  0  0  0  0  0
    5.5993   -2.6141    0.2732 H   0  0  0  0  0  0  0  0  0  0  0  0
    6.5024   -0.2958    0.6907 H   0  0  0  0  0  0  0  0  0  0  0  0
    5.0058    1.6635    0.4625 H   0  0  0  0  0  0  0  0  0  0  0  0
   -0.5403    2.4617   -0.4137 H   0  0  0  0  0  0  0  0  0  0  0  0
    2.4300    3.6475   -1.1763 H   0  0  0  0  0  0  0  0  0  0  0  0
    2.9580    3.6593    0.5168 H   0  0  0  0  0  0  0  0  0  0  0  0
    4.0678    3.0210   -0.7503 H   0  0  0  0  0  0  0  0  0  0  0  0
  2  1  1  1  0  0  0
  2  9  1  0  0  0  0
  3  4  1  0  0  0  0
  4  5  2  0  0  0  0
  4  9  1  0  0  0  0
  5  7  1  0  0  0  0
  6  1  1  0  0  0  0
  7 13  1  0  0  0  0
  7 11  2  0  0  0  0
  8 11  1  0  0  0  0
  8 15  1  0  0  0  0
  9  8  2  0  0  0  0
 10  2  1  0  0  0  0
 10 18  1  0  0  0  0
 11 14  1  0  0  0  0
 12  5  1  0  0  0  0
 16  6  1  0  0  0  0
 17 10  1  0  0  0  0
 19 10  1  0  0  0  0
M  CHG  1   3  -1
M  END
