1,3
q = -1.0

 15 15  0  0  1  0  0  0  0  0999 V2000
   -1.0790    0.0478    1.0972 N   0  0  0  0  0  2  0  0  0  0  0  0
   -1.7917   -0.0733   -0.0062 C   0  0  2  0  0  3  0  0  0  0  0  0
   -1.1434   -0.1643   -1.1069 O   0  0  0  0  0  1  0  0  0  0  0  0
   -3.2888   -0.1068   -0.0228 C   0  0  0  0  0  0  0  0  0  0  0  0
   -4.0541    0.7791    0.7599 C   0  0  0  0  0  0  0  0  0  0  0  0
   -5.4560    0.7945    0.7112 C   0  0  0  0  0  0  0  0  0  0  0  0
   -6.1242   -0.1050   -0.1372 C   0  0  0  0  0  0  0  0  0  0  0  0
   -5.3875   -1.0067   -0.9247 C   0  0  0  0  0  0  0  0  0  0  0  0
   -3.9843   -1.0002   -0.8637 C   0  0  0  0  0  0  0  0  0  0  0  0
   -3.4474    1.6608    1.5755 F   0  0  0  0  0  0  0  0  0  0  0  0
   -6.1555    1.6553    1.4553 F   0  0  0  0  0  0  0  0  0  0  0  0
   -7.4560   -0.1072   -0.1901 F   0  0  0  0  0  0  0  0  0  0  0  0
   -6.0275   -1.8714   -1.7154 F   0  0  0  0  0  0  0  0  0  0  0  0
   -3.3274   -1.8933   -1.6087 F   0  0  0  0  0  0  0  0  0  0  0  0
   -1.5533    0.1484    1.9966 H   0  0  0  0  0  0  0  0  0  0  0  0
  1 15  1  0  0  0  0
  2  3  1  6  0  0  0
  2  1  1  0  0  0  0
  4  2  1  0  0  0  0
  4  5  1  0  0  0  0
  5 10  1  0  0  0  0
  6  5  2  0  0  0  0
  6 11  1  0  0  0  0
  7  6  1  0  0  0  0
  8  9  1  0  0  0  0
  8  7  2  0  0  0  0
  9  4  2  0  0  0  0
 12  7  1  0  0  0  0
 13  8  1  0  0  0  0
 14  9  1  0  0  0  0
M  END
