23,24
q = -1.0

 24 24  0  0  0  0  0  0  0  0999 V2000
    2.7458    1.0516   -0.2104 C   0  0  0  0  0  0  0  0  0  0  0  0
    3.6697    2.1375   -0.3443 C   0  0  0  0  0  0  0  0  0  0  0  0
    3.2915    3.1458   -0.1201 H   0  0  0  0  0  0  0  0  0  0  0  0
    4.9792    1.9331   -0.7588 C   0  0  0  0  0  0  0  0  0  0  0  0
    5.6524    2.7984   -0.8666 H   0  0  0  0  0  0  0  0  0  0  0  0
    5.4629    0.6300   -1.0397 C   0  0  0  0  0  0  0  0  0  0  0  0
    6.5033    0.4774   -1.3600 H   0  0  0  0  0  0  0  0  0  0  0  0
    4.6034   -0.4487   -0.8870 C   0  0  0  0  0  3  0  0  0  0  0  0
    4.9651   -1.4728   -1.0755 H   0  0  0  0  0  0  0  0  0  0  0  0
    3.2448   -0.2799   -0.4878 C   0  0  0  0  0  0  0  0  0  0  0  0
    2.4736   -1.4633   -0.2455 C   0  0  0  0  0  0  0  0  0  0  0  0
    3.0604   -2.4028   -0.1944 H   0  0  0  0  0  0  0  0  0  0  0  0
    0.7410   -2.8673    0.5516 C   0  0  0  0  0  0  0  0  0  0  0  0
    1.5139   -3.6399    0.3397 H   0  0  0  0  0  0  0  0  0  0  0  0
   -0.1990   -3.1816    0.0668 H   0  0  0  0  0  0  0  0  0  0  0  0
    0.5060   -2.7649    2.0667 C   0  0  0  0  0  0  0  0  0  0  0  0
   -0.3237   -2.0458    2.2364 H   0  0  0  0  0  0  0  0  0  0  0  0
    0.1391   -3.7575    2.4072 H   0  0  0  0  0  0  0  0  0  0  0  0
    1.7372   -2.3479    2.8684 C   0  0  0  0  0  0  0  0  0  0  0  0
    2.5901   -3.0391    2.6999 H   0  0  0  0  0  0  0  0  0  0  0  0
    1.5215   -2.3434    3.9554 H   0  0  0  0  0  0  0  0  0  0  0  0
    2.0730   -1.3272    2.5942 H   0  0  0  0  0  0  0  0  0  0  0  0
    1.1808   -1.5885   -0.0236 N   0  0  0  0  0  2  0  0  0  0  0  0
    1.5290    1.3015    0.1717 O   0  5  0  0  0  0  0  0  0  0  0  0
  1 24  1  0  0  0  0
  2  1  2  0  0  0  0
  2  3  1  0  0  0  0
  4  2  1  0  0  0  0
  5  4  1  0  0  0  0
  6  8  1  0  0  0  0
  6  4  2  0  0  0  0
  7  6  1  0  0  0  0
  8 10  1  0  0  0  0
  9  8  1  0  0  0  0
 10 11  2  0  0  0  0
 10  1  1  0  0  0  0
 11 12  1  0  0  0  0
 11 23  1  0  0  0  0
 13 16  1  0  0  0  0
 14 13  1  0  0  0  0
 15 13  1  0  0  0  0
 16 17  1  0  0  0  0
 16 18  1  0  0  0  0
 16 19  1  0  0  0  0
 19 21  1  0  0  0  0
 20 19  1  0  0  0  0
 22 19  1  0  0  0  0
 23 13  1  0  0  0  0
M  CHG  1  24  -1
M  END
