1,3
q = 0.0, confidence = 1.0

 18 18  0  0  0  0  0  0  0  0999 V2000
    1.9346   -0.9349   -0.1738 N   0  0  0  0  0  2  0  0  0  0  0  0
    1.8999    1.7745   -1.4299 N   0  0  0  0  0  0  0  0  0  0  0  0
    0.7374    1.2652   -1.5593 O   0  0  0  0  0  1  0  0  0  0  0  0
    2.0724   -2.2020    0.2507 C   0  0  0  0  0  3  0  0  0  0  0  0
    1.1275   -2.7625    0.3340 H   0  0  0  0  0  0  0  0  0  0  0  0
    3.3214   -2.7734    0.5346 C   0  0  0  0  0  0  0  0  0  0  0  0
    3.3809   -3.8166    0.8758 H   0  0  0  0  0  0  0  0  0  0  0  0
    4.4704   -1.9852    0.3826 C   0  0  0  0  0  0  0  0  0  0  0  0
    5.4677   -2.3903    0.6108 H   0  0  0  0  0  0  0  0  0  0  0  0
    4.3311   -0.6715   -0.0720 C   0  0  0  0  0  0  0  0  0  0  0  0
    5.2111   -0.0278   -0.2161 H   0  0  0  0  0  0  0  0  0  0  0  0
    3.0402   -0.1668   -0.3594 C   0  0  0  0  0  0  0  0  0  0  0  0
    2.9527    1.1869   -0.8764 C   0  0  0  0  0  3  0  0  0  0  0  0
    3.8659    1.7935   -0.8672 H   0  0  0  0  0  0  0  0  0  0  0  0
    2.0136    3.1659   -1.9165 C   0  0  0  0  0  0  0  0  0  0  0  0
    3.0712    3.4399   -2.0759 H   0  0  0  0  0  0  0  0  0  0  0  0
    1.5508    3.8017   -1.1362 H   0  0  0  0  0  0  0  0  0  0  0  0
    1.4417    3.2223   -2.8593 H   0  0  0  0  0  0  0  0  0  0  0  0
  1  4  1  0  0  0  0
  2 13  1  0  0  0  0
  3  2  1  0  0  0  0
  4  5  1  0  0  0  0
  4  6  1  0  0  0  0
  6  7  1  0  0  0  0
  8  6  2  0  0  0  0
  8  9  1  0  0  0  0
 10  8  1  0  0  0  0
 11 10  1  0  0  0  0
 12  1  1  0  0  0  0
 12 10  2  0  0  0  0
 13 14  1  0  0  0  0
 13 12  1  0  0  0  0
 15  2  1  0  0  0  0
 15 17  1  0  0  0  0
 16 15  1  0  0  0  0
 18 15  1  0  0  0  0
M  END
