1,3
q = -1.0

 29 32  0  0  0  0  0  0  0  0999 V2000
   -1.5544    0.7533   -1.3979 O   0  5  0  0  0  0  0  0  0  0  0  0
    3.1325   -0.0411   -1.1120 O   0  0  0  0  0  0  0  0  0  0  0  0
    0.4558   -0.9743   -1.3475 N   0  0  0  0  0  2  0  0  0  0  0  0
    1.4813   -1.8371   -1.3097 C   0  0  0  0  0  0  0  0  0  0  0  0
    2.8297   -1.3775   -0.9783 C   0  0  0  0  0  0  0  0  0  0  0  0
    3.8296   -2.1401   -0.5972 N   0  0  0  0  0  0  0  0  0  0  0  0
   -0.7568   -1.4380   -1.7650 C   0  0  0  0  0  0  0  0  0  0  0  0
    4.8842   -1.2613   -0.4116 C   0  0  0  0  0  0  0  0  0  0  0  0
   -1.8198   -0.4630   -1.8189 C   0  0  0  0  0  0  0  0  0  0  0  0
    4.4420    0.0491   -0.7306 C   0  0  0  0  0  0  0  0  0  0  0  0
    5.2478    1.1843   -0.6355 C   0  0  0  0  0  0  0  0  0  0  0  0
    4.8725    2.1870   -0.8788 H   0  0  0  0  0  0  0  0  0  0  0  0
    1.3236   -3.2277   -1.5996 C   0  0  0  0  0  0  0  0  0  0  0  0
    2.2054   -3.8752   -1.5047 H   0  0  0  0  0  0  0  0  0  0  0  0
   -1.0066   -2.8051   -2.1337 C   0  0  0  0  0  0  0  0  0  0  0  0
    0.0912   -3.7029   -2.0036 C   0  0  0  0  0  0  0  0  0  0  0  0
   -0.0493   -4.7689   -2.2412 H   0  0  0  0  0  0  0  0  0  0  0  0
   -3.0748   -0.8626   -2.3048 C   0  0  0  0  0  0  0  0  0  0  0  0
   -3.8772   -0.1143   -2.3684 H   0  0  0  0  0  0  0  0  0  0  0  0
   -2.3022   -3.1753   -2.5829 C   0  0  0  0  0  3  0  0  0  0  0  0
   -2.4987   -4.2221   -2.8575 H   0  0  0  0  0  0  0  0  0  0  0  0
    6.2044   -1.4649    0.0330 C   0  0  0  0  0  0  0  0  0  0  0  0
    6.5593   -2.4730    0.2893 H   0  0  0  0  0  0  0  0  0  0  0  0
    7.0284   -0.3366    0.1375 C   0  0  0  0  0  0  0  0  0  0  0  0
    8.0659   -0.4556    0.4840 H   0  0  0  0  0  0  0  0  0  0  0  0
    6.5611    0.9601   -0.1896 C   0  0  0  0  0  0  0  0  0  0  0  0
    7.2439    1.8169   -0.0885 H   0  0  0  0  0  0  0  0  0  0  0  0
   -3.3021   -2.2090   -2.6716 C   0  0  0  0  0  0  0  0  0  0  0  0
   -4.3046   -2.4971   -3.0235 H   0  0  0  0  0  0  0  0  0  0  0  0
  2  5  1  0  0  0  0
  2 10  1  0  0  0  0
  3  4  1  0  0  0  0
  4  5  1  0  0  0  0
  5  6  2  0  0  0  0
  6  8  1  0  0  0  0
  7  3  1  0  0  0  0
  8 22  1  0  0  0  0
  9  7  2  0  0  0  0
  9  1  1  0  0  0  0
 10 11  1  0  0  0  0
 10  8  2  0  0  0  0
 11 26  2  0  0  0  0
 12 11  1  0  0  0  0
 13 14  1  0  0  0  0
 13  4  2  0  0  0  0
 15 16  2  0  0  0  0
 15  7  1  0  0  0  0
 16 13  1  0  0  0  0
 17 16  1  0  0  0  0
 18  9  1  0  0  0  0
 19 18  1  0  0  0  0
 20 15  1  0  0  0  0
 21 20  1  0  0  0  0
 22 24  2  0  0  0  0
 22 23  1  0  0  0  0
 24 25  1  0  0  0  0
 26 27  1  0  0  0  0
 26 24  1  0  0  0  0
 28 20  1  0  0  0  0
 28 18  2  0  0  0  0
 29 28  1  0  0  0  0
M  CHG  1   1  -1
M  END
