1,2
q = -1.0, confidence = 0.0

 31 32  0  0  1  0  0  0  0  0999 V2000
    1.8733    0.7293    0.0009 O   0  0  0  0  0  1  0  0  0  0  0  0
   -0.8292    1.8510    0.0009 N   0  0  0  0  0  2  0  0  0  0  0  0
    2.2186    1.9889    0.0010 C   0  0  1  0  0  3  0  0  0  0  0  0
   -2.2630    1.9702    0.0008 C   0  0  0  0  0  0  0  0  0  0  0  0
   -2.9428    1.9903   -1.2377 C   0  0  0  0  0  0  0  0  0  0  0  0
   -0.1254    2.9628    0.0011 C   0  0  0  0  0  0  0  0  0  0  0  0
   -0.7067    3.9052    0.0014 H   0  0  0  0  0  0  0  0  0  0  0  0
   -4.3480    2.0622   -1.2139 C   0  0  0  0  0  0  0  0  0  0  0  0
   -4.8964    2.0809   -2.1686 H   0  0  0  0  0  0  0  0  0  0  0  0
    1.8267    4.4315    0.0012 C   0  0  0  0  0  0  0  0  0  0  0  0
    1.1121    5.2705    0.0013 H   0  0  0  0  0  0  0  0  0  0  0  0
    3.6194    2.2744    0.0009 C   0  0  0  0  0  0  0  0  0  0  0  0
    4.3002    1.4105    0.0008 H   0  0  0  0  0  0  0  0  0  0  0  0
   -5.0474    2.0978    0.0003 C   0  0  0  0  0  0  0  0  0  0  0  0
   -6.1467    2.1518    0.0001 H   0  0  0  0  0  0  0  0  0  0  0  0
   -2.1776    1.9016   -2.5311 C   0  0  0  0  0  0  0  0  0  0  0  0
   -2.8615    1.8987   -3.4006 H   0  0  0  0  0  0  0  0  0  0  0  0
   -1.5659    0.9747   -2.5589 H   0  0  0  0  0  0  0  0  0  0  0  0
   -1.4676    2.7455   -2.6539 H   0  0  0  0  0  0  0  0  0  0  0  0
   -2.9435    1.9863    1.2390 C   0  0  0  0  0  0  0  0  0  0  0  0
   -2.1789    1.8933    2.5325 C   0  0  0  0  0  0  0  0  0  0  0  0
   -2.8630    1.8905    3.4019 H   0  0  0  0  0  0  0  0  0  0  0  0
   -1.4667    2.7353    2.6569 H   0  0  0  0  0  0  0  0  0  0  0  0
   -1.5695    0.9648    2.5587 H   0  0  0  0  0  0  0  0  0  0  0  0
   -4.3486    2.0583    1.2147 C   0  0  0  0  0  0  0  0  0  0  0  0
   -4.8975    2.0740    2.1692 H   0  0  0  0  0  0  0  0  0  0  0  0
    4.0879    3.5810    0.0010 C   0  0  0  0  0  0  0  0  0  0  0  0
    5.1740    3.7641    0.0010 H   0  0  0  0  0  0  0  0  0  0  0  0
    3.1909    4.6803    0.0012 C   0  0  0  0  0  0  0  0  0  0  0  0
    3.5719    5.7114    0.0012 H   0  0  0  0  0  0  0  0  0  0  0  0
    1.3003    3.1040    0.0011 C   0  0  0  0  0  0  0  0  0  0  0  0
  2  6  1  0  0  0  0
  3  1  1  6  0  0  0
  3 31  1  0  0  0  0
  4  2  1  0  0  0  0
  4 20  1  0  0  0  0
  5  8  1  0  0  0  0
  5  4  2  0  0  0  0
  6  7  1  0  0  0  0
  8 14  2  0  0  0  0
  9  8  1  0  0  0  0
 10 11  1  0  0  0  0
 12  3  1  0  0  0  0
 12 27  2  0  0  0  0
 13 12  1  0  0  0  0
 14 25  1  0  0  0  0
 15 14  1  0  0  0  0
 16  5  1  0  0  0  0
 17 16  1  0  0  0  0
 18 16  1  0  0  0  0
 19 16  1  0  0  0  0
 20 21  1  0  0  0  0
 21 24  1  0  0  0  0
 21 23  1  0  0  0  0
 21 22  1  0  0  0  0
 25 20  2  0  0  0  0
 25 26  1  0  0  0  0
 27 29  1  0  0  0  0
 28 27  1  0  0  0  0
 29 10  2  0  0  0  0
 29 30  1  0  0  0  0
 31  6  2  0  0  0  0
 31 10  1  0  0  0  0
M  END
