1,2
q = -1.0

 31 32  0  0  0  0  0  0  0  0999 V2000
   -1.8733   -0.7294   -0.0009 O   0  5  0  0  0  0  0  0  0  0  0  0
    0.8292   -1.8510   -0.0009 N   0  0  0  0  0  2  0  0  0  0  0  0
   -2.2186   -1.9889   -0.0010 C   0  0  0  0  0  0  0  0  0  0  0  0
    2.2630   -1.9701   -0.0007 C   0  0  0  0  0  0  0  0  0  0  0  0
    2.9429   -1.9900    1.2378 C   0  0  0  0  0  0  0  0  0  0  0  0
    0.1254   -2.9628   -0.0011 C   0  0  0  0  0  0  0  0  0  0  0  0
    0.7067   -3.9053   -0.0014 H   0  0  0  0  0  0  0  0  0  0  0  0
    4.3480   -2.0619    1.2139 C   0  0  0  0  0  0  0  0  0  0  0  0
    4.8965   -2.0804    2.1687 H   0  0  0  0  0  0  0  0  0  0  0  0
   -1.8266   -4.4316   -0.0013 C   0  0  0  0  0  3  0  0  0  0  0  0
   -1.1120   -5.2705   -0.0014 H   0  0  0  0  0  0  0  0  0  0  0  0
   -3.6194   -2.2745   -0.0011 C   0  0  0  0  0  0  0  0  0  0  0  0
   -4.3002   -1.4106   -0.0010 H   0  0  0  0  0  0  0  0  0  0  0  0
    5.0474   -2.0977   -0.0002 C   0  0  0  0  0  0  0  0  0  0  0  0
    6.1467   -2.1516   -0.0000 H   0  0  0  0  0  0  0  0  0  0  0  0
    2.1777   -1.9012    2.5311 C   0  0  0  0  0  0  0  0  0  0  0  0
    2.8615   -1.8983    3.4007 H   0  0  0  0  0  0  0  0  0  0  0  0
    1.5660   -0.9742    2.5589 H   0  0  0  0  0  0  0  0  0  0  0  0
    1.4675   -2.7451    2.6540 H   0  0  0  0  0  0  0  0  0  0  0  0
    2.9435   -1.9863   -1.2390 C   0  0  0  0  0  0  0  0  0  0  0  0
    2.1789   -1.8936   -2.5324 C   0  0  0  0  0  0  0  0  0  0  0  0
    2.8630   -1.8907   -3.4018 H   0  0  0  0  0  0  0  0  0  0  0  0
    1.4669   -2.7357   -2.6568 H   0  0  0  0  0  0  0  0  0  0  0  0
    1.5693   -0.9652   -2.5587 H   0  0  0  0  0  0  0  0  0  0  0  0
    4.3486   -2.0583   -1.2147 C   0  0  0  0  0  0  0  0  0  0  0  0
    4.8975   -2.0741   -2.1692 H   0  0  0  0  0  0  0  0  0  0  0  0
   -4.0878   -3.5811   -0.0013 C   0  0  0  0  0  0  0  0  0  0  0  0
   -5.1739   -3.7642   -0.0013 H   0  0  0  0  0  0  0  0  0  0  0  0
   -3.1908   -4.6803   -0.0014 C   0  0  0  0  0  0  0  0  0  0  0  0
   -3.5718   -5.7115   -0.0015 H   0  0  0  0  0  0  0  0  0  0  0  0
   -1.3003   -3.1040   -0.0011 C   0  0  0  0  0  0  0  0  0  0  0  0
  2  4  1  0  0  0  0
  3  1  1  0  0  0  0
  4  5  1  0  0  0  0
  5 16  1  0  0  0  0
  6  2  1  0  0  0  0
  7  6  1  0  0  0  0
  8  5  2  0  0  0  0
  8  9  1  0  0  0  0
 10 31  1  0  0  0  0
 11 10  1  0  0  0  0
 12  3  2  0  0  0  0
 12 13  1  0  0  0  0
 14 15  1  0  0  0  0
 14  8  1  0  0  0  0
 16 18  1  0  0  0  0
 16 19  1  0  0  0  0
 16 17  1  0  0  0  0
 20 25  1  0  0  0  0
 20  4  2  0  0  0  0
 21 20  1  0  0  0  0
 22 21  1  0  0  0  0
 23 21  1  0  0  0  0
 24 21  1  0  0  0  0
 25 14  2  0  0  0  0
 26 25  1  0  0  0  0
 27 12  1  0  0  0  0
 28 27  1  0  0  0  0
 29 10  1  0  0  0  0
 29 27  2  0  0  0  0
 30 29  1  0  0  0  0
 31  6  2  0  0  0  0
 31  3  1  0  0  0  0
M  CHG  1   1  -1
M  END
