1,2
q = -1.0

 31 33  0  0  1  0  0  0  0  0999 V2000
    1.6975    0.9190   -0.5620 O   0  0  0  0  0  1  0  0  0  0  0  0
   -0.9789    1.7594    0.2746 N   0  0  0  0  0  2  0  0  0  0  0  0
    0.9901    3.2083   -0.0963 C   0  0  0  0  0  0  0  0  0  0  0  0
    1.9508    2.1958   -0.4705 C   0  0  2  0  0  3  0  0  0  0  0  0
    3.2824    2.6168   -0.7771 C   0  0  0  0  0  0  0  0  0  0  0  0
    3.6464    3.9545   -0.7167 C   0  0  0  0  0  0  0  0  0  0  0  0
    2.7063    4.9538   -0.3544 C   0  0  0  0  0  0  0  0  0  0  0  0
    1.4067    4.5741   -0.0559 C   0  0  0  0  0  0  0  0  0  0  0  0
   -0.3791    2.9322    0.2164 C   0  0  0  0  0  0  0  0  0  0  0  0
   -2.3662    1.7444    0.6349 C   0  0  0  0  0  0  0  0  0  0  0  0
   -2.7384    2.0797    1.9309 C   0  0  0  0  0  0  0  0  0  0  0  0
   -4.1009    2.0373    2.3226 C   0  0  0  0  0  0  0  0  0  0  0  0
   -5.0756    1.6475    1.4184 C   0  0  0  0  0  0  0  0  0  0  0  0
   -4.7288    1.2982    0.0796 C   0  0  0  0  0  0  0  0  0  0  0  0
   -5.7136    0.8948   -0.8703 C   0  0  0  0  0  0  0  0  0  0  0  0
   -5.3585    0.5619   -2.1684 C   0  0  0  0  0  0  0  0  0  0  0  0
   -3.9985    0.6253   -2.5734 C   0  0  0  0  0  0  0  0  0  0  0  0
   -3.0147    1.0156   -1.6771 C   0  0  0  0  0  0  0  0  0  0  0  0
   -3.3480    1.3515   -0.3336 C   0  0  0  0  0  0  0  0  0  0  0  0
    4.0001    1.8306   -1.0532 H   0  0  0  0  0  0  0  0  0  0  0  0
    4.6831    4.2419   -0.9529 H   0  0  0  0  0  0  0  0  0  0  0  0
    3.0044    6.0110   -0.3117 H   0  0  0  0  0  0  0  0  0  0  0  0
    0.6597    5.3340    0.2247 H   0  0  0  0  0  0  0  0  0  0  0  0
   -1.0165    3.8128    0.4234 H   0  0  0  0  0  0  0  0  0  0  0  0
   -1.9565    2.3485    2.6562 H   0  0  0  0  0  0  0  0  0  0  0  0
   -4.3739    2.3027    3.3549 H   0  0  0  0  0  0  0  0  0  0  0  0
   -6.1335    1.6018    1.7200 H   0  0  0  0  0  0  0  0  0  0  0  0
   -6.7665    0.8535   -0.5504 H   0  0  0  0  0  0  0  0  0  0  0  0
   -6.1296    0.2493   -2.8887 H   0  0  0  0  0  0  0  0  0  0  0  0
   -3.7236    0.3608   -3.6056 H   0  0  0  0  0  0  0  0  0  0  0  0
   -1.9608    1.0534   -1.9885 H   0  0  0  0  0  0  0  0  0  0  0  0
  2 10  1  0  0  0  0
  3  8  1  0  0  0  0
  3  9  2  0  0  0  0
  4  1  1  6  0  0  0
  4  3  1  0  0  0  0
  5  6  2  0  0  0  0
  5  4  1  0  0  0  0
  6  7  1  0  0  0  0
  7 22  1  0  0  0  0
  7  8  2  0  0  0  0
  8 23  1  0  0  0  0
  9  2  1  0  0  0  0
  9 24  1  0  0  0  0
 10 11  1  0  0  0  0
 11 12  2  0  0  0  0
 11 25  1  0  0  0  0
 12 26  1  0  0  0  0
 13 27  1  0  0  0  0
 13 12  1  0  0  0  0
 14 13  2  0  0  0  0
 15 28  1  0  0  0  0
 15 14  1  0  0  0  0
 16 15  2  0  0  0  0
 17 16  1  0  0  0  0
 17 18  2  0  0  0  0
 18 19  1  0  0  0  0
 19 14  1  0  0  0  0
 19 10  2  0  0  0  0
 20  5  1  0  0  0  0
 21  6  1  0  0  0  0
 29 16  1  0  0  0  0
 30 17  1  0  0  0  0
 31 18  1  0  0  0  0
M  END
