1,3
q = -1.0

 21 22  0  0  0  0  0  0  0  0999 V2000
    1.1864   -1.4571    0.0052 N   0  0  0  0  0  2  0  0  0  0  0  0
    3.0689   -2.6928   -0.0776 N   0  0  0  0  0  0  0  0  0  0  0  0
    1.3866    1.2312    0.2012 O   0  5  0  0  0  0  0  0  0  0  0  0
    0.7531   -2.8652   -0.0589 C   0  0  0  0  0  0  0  0  0  0  0  0
   -0.0877   -3.0498    0.6320 H   0  0  0  0  0  0  0  0  0  0  0  0
    0.3797   -3.0830   -1.0829 H   0  0  0  0  0  0  0  0  0  0  0  0
    2.0285   -3.6597    0.2757 C   0  0  0  0  0  0  0  0  0  0  0  0
    2.1180   -4.5964   -0.3097 H   0  0  0  0  0  0  0  0  0  0  0  0
    2.0709   -3.9221    1.3591 H   0  0  0  0  0  0  0  0  0  0  0  0
    2.5100   -1.4274   -0.0328 C   0  0  0  0  0  0  0  0  0  0  0  0
    3.3184   -0.2269   -0.0448 C   0  0  0  0  0  0  0  0  0  0  0  0
    4.7294   -0.2948   -0.1842 C   0  0  0  0  0  3  0  0  0  0  0  0
    5.2072   -1.2718   -0.3587 H   0  0  0  0  0  0  0  0  0  0  0  0
    5.5240    0.8471   -0.1409 C   0  0  0  0  0  0  0  0  0  0  0  0
    6.6144    0.7726   -0.2591 H   0  0  0  0  0  0  0  0  0  0  0  0
    4.9025    2.1034    0.0489 C   0  0  0  0  0  0  0  0  0  0  0  0
    5.5167    3.0167    0.0925 H   0  0  0  0  0  0  0  0  0  0  0  0
    3.5214    2.2046    0.1702 C   0  0  0  0  0  0  0  0  0  0  0  0
    3.0292    3.1783    0.3092 H   0  0  0  0  0  0  0  0  0  0  0  0
    2.6764    1.0514    0.1086 C   0  0  0  0  0  0  0  0  0  0  0  0
    4.0049   -2.8097    0.3122 H   0  0  0  0  0  0  0  0  0  0  0  0
  2 10  1  0  0  0  0
  2  7  1  0  0  0  0
  2 21  1  0  0  0  0
  4  1  1  0  0  0  0
  4  7  1  0  0  0  0
  4  5  1  0  0  0  0
  6  4  1  0  0  0  0
  7  9  1  0  0  0  0
  8  7  1  0  0  0  0
 10  1  1  0  0  0  0
 11 10  2  0  0  0  0
 11 20  1  0  0  0  0
 12 14  1  0  0  0  0
 12 11  1  0  0  0  0
 13 12  1  0  0  0  0
 14 16  2  0  0  0  0
 15 14  1  0  0  0  0
 16 17  1  0  0  0  0
 16 18  1  0  0  0  0
 18 19  1  0  0  0  0
 20 18  2  0  0  0  0
 20  3  1  0  0  0  0
M  CHG  1   3  -1
M  END
