1,3
q = -1.0

 48 52  0  0  1  0  0  0  0  0999 V2000
    0.3829    0.4508   -0.9153 O   0  0  0  0  0  1  0  0  0  0  0  0
   -0.8940   -1.3441    1.5883 O   0  0  0  0  0  0  0  0  0  0  0  0
    1.4117    0.8571    1.4681 N   0  0  0  0  0  2  0  0  0  0  0  0
    0.1585    1.3435    1.3196 C   0  0  1  0  0  3  0  0  0  0  0  0
    2.0734    1.0400    2.6337 C   0  0  0  0  0  0  0  0  0  0  0  0
    3.1005    0.6515    2.6673 H   0  0  0  0  0  0  0  0  0  0  0  0
    1.4956    1.7007    3.7166 C   0  0  0  0  0  0  0  0  0  0  0  0
    2.0682    1.8253    4.6461 H   0  0  0  0  0  0  0  0  0  0  0  0
    0.1925    2.2103    3.5790 C   0  0  0  0  0  0  0  0  0  0  0  0
   -0.2917    2.7443    4.4102 H   0  0  0  0  0  0  0  0  0  0  0  0
   -0.4739    2.0357    2.3648 C   0  0  0  0  0  0  0  0  0  0  0  0
   -1.4885    2.4271    2.2036 H   0  0  0  0  0  0  0  0  0  0  0  0
   -0.4783    1.0955   -0.0525 C   0  0  1  0  0  0  0  0  0  0  0  0
   -1.0224    2.4216   -0.6051 C   0  0  0  0  0  0  0  0  0  0  0  0
   -2.4372    2.4084   -0.6016 C   0  0  0  0  0  0  0  0  0  0  0  0
   -3.1585    3.5433   -1.0117 C   0  0  0  0  0  0  0  0  0  0  0  0
   -4.2579    3.5601   -0.9737 H   0  0  0  0  0  0  0  0  0  0  0  0
   -2.4398    4.6608   -1.4713 C   0  0  0  0  0  0  0  0  0  0  0  0
   -2.9853    5.5566   -1.8057 H   0  0  0  0  0  0  0  0  0  0  0  0
   -1.0326    4.6460   -1.5120 C   0  0  0  0  0  0  0  0  0  0  0  0
   -0.4921    5.5292   -1.8861 H   0  0  0  0  0  0  0  0  0  0  0  0
   -0.3058    3.5218   -1.0725 C   0  0  0  0  0  0  0  0  0  0  0  0
    0.7964    3.4869   -1.0891 H   0  0  0  0  0  0  0  0  0  0  0  0
   -2.8986    1.0906   -0.1162 C   0  0  0  0  0  0  0  0  0  0  0  0
   -4.3162    0.7150    0.0404 C   0  0  0  0  0  0  0  0  0  0  0  0
   -4.7675    0.0754    1.2168 C   0  0  0  0  0  0  0  0  0  0  0  0
   -4.0574   -0.0911    2.0404 H   0  0  0  0  0  0  0  0  0  0  0  0
   -6.0999   -0.3372    1.3402 C   0  0  0  0  0  0  0  0  0  0  0  0
   -6.4329   -0.8374    2.2622 H   0  0  0  0  0  0  0  0  0  0  0  0
   -7.0072   -0.1153    0.2918 C   0  0  0  0  0  0  0  0  0  0  0  0
   -8.0533   -0.4437    0.3871 H   0  0  0  0  0  0  0  0  0  0  0  0
   -6.5745    0.5303   -0.8778 C   0  0  0  0  0  0  0  0  0  0  0  0
   -7.2796    0.7032   -1.7051 H   0  0  0  0  0  0  0  0  0  0  0  0
   -5.2430    0.9497   -1.0012 C   0  0  0  0  0  0  0  0  0  0  0  0
   -4.9005    1.4293   -1.9301 H   0  0  0  0  0  0  0  0  0  0  0  0
   -1.8026    0.3122    0.1862 C   0  0  0  0  0  0  0  0  0  0  0  0
   -1.7358   -1.0593    0.7220 C   0  0  0  0  0  0  0  0  0  0  0  0
   -2.6476   -2.1187    0.1800 C   0  0  0  0  0  0  0  0  0  0  0  0
   -2.8952   -3.2594    0.9717 C   0  0  0  0  0  0  0  0  0  0  0  0
   -2.4241   -3.3142    1.9646 H   0  0  0  0  0  0  0  0  0  0  0  0
   -3.7258   -4.2815    0.4989 C   0  0  0  0  0  0  0  0  0  0  0  0
   -3.9292   -5.1620    1.1276 H   0  0  0  0  0  0  0  0  0  0  0  0
   -4.3001   -4.1837   -0.7810 C   0  0  0  0  0  0  0  0  0  0  0  0
   -4.9526   -4.9879   -1.1545 H   0  0  0  0  0  0  0  0  0  0  0  0
   -4.0358   -3.0635   -1.5859 C   0  0  0  0  0  0  0  0  0  0  0  0
   -4.4724   -2.9928   -2.5936 H   0  0  0  0  0  0  0  0  0  0  0  0
   -3.2155   -2.0330   -1.1080 C   0  0  0  0  0  0  0  0  0  0  0  0
   -2.9962   -1.1583   -1.7368 H   0  0  0  0  0  0  0  0  0  0  0  0
  3  5  1  0  0  0  0
  4  3  1  6  0  0  0
  4 11  1  0  0  0  0
  5  6  1  0  0  0  0
  5  7  2  0  0  0  0
  7  8  1  0  0  0  0
  9  7  1  0  0  0  0
  9 10  1  0  0  0  0
 11  9  2  0  0  0  0
 12 11  1  0  0  0  0
 13  1  1  6  0  0  0
 13 36  1  0  0  0  0
 13  4  1  0  0  0  0
 14 15  1  0  0  0  0
 14 13  1  0  0  0  0
 15 24  1  0  0  0  0
 16 17  1  0  0  0  0
 16 15  2  0  0  0  0
 18 16  1  0  0  0  0
 19 18  1  0  0  0  0
 20 18  2  0  0  0  0
 20 22  1  0  0  0  0
 21 20  1  0  0  0  0
 22 14  2  0  0  0  0
 23 22  1  0  0  0  0
 24 25  1  0  0  0  0
 24 36  2  0  0  0  0
 25 26  1  0  0  0  0
 26 28  2  0  0  0  0
 26 27  1  0  0  0  0
 28 29  1  0  0  0  0
 30 31  1  0  0  0  0
 30 28  1  0  0  0  0
 32 30  2  0  0  0  0
 33 32  1  0  0  0  0
 34 32  1  0  0  0  0
 34 25  2  0  0  0  0
 35 34  1  0  0  0  0
 36 37  1  0  0  0  0
 37  2  2  0  0  0  0
 38 37  1  0  0  0  0
 38 39  1  0  0  0  0
 39 40  1  0  0  0  0
 41 39  2  0  0  0  0
 41 42  1  0  0  0  0
 43 41  1  0  0  0  0
 44 43  1  0  0  0  0
 45 47  1  0  0  0  0
 45 43  2  0  0  0  0
 46 45  1  0  0  0  0
 47 38  2  0  0  0  0
 48 47  1  0  0  0  0
M  END
