2,3
q = -1.0

 39 41  0  0  0  0  0  0  0  0999 V2000
    2.4400   -0.3864    1.7608 O   0  0  0  0  0  0  0  0  0  0  0  0
   -1.7318   -0.5928   -0.9642 O   0  5  0  0  0  0  0  0  0  0  0  0
    0.6839   -1.7489   -0.3229 N   0  0  0  0  0  2  0  0  0  0  0  0
    4.1856   -1.4742    0.6039 N   0  0  0  0  0  0  0  0  0  0  0  0
    4.2664   -2.3122   -0.5200 N   0  0  0  0  0  0  0  0  0  0  0  0
    2.0711   -1.8836   -0.1477 C   0  0  0  0  0  0  0  0  0  0  0  0
    2.8181   -1.1432    0.8784 C   0  0  0  0  0  0  0  0  0  0  0  0
   -0.0617   -2.8327   -0.1819 C   0  0  0  0  0  3  0  0  0  0  0  0
    0.4581   -3.7600    0.1283 H   0  0  0  0  0  0  0  0  0  0  0  0
   -1.4730   -2.9204   -0.3614 C   0  0  0  0  0  0  0  0  0  0  0  0
   -2.2473   -1.7675   -0.7519 C   0  0  0  0  0  0  0  0  0  0  0  0
    2.9607   -2.5791   -0.9327 C   0  0  0  0  0  0  0  0  0  0  0  0
   -2.1296   -4.1658   -0.1380 C   0  0  0  0  0  0  0  0  0  0  0  0
   -1.5180   -5.0304    0.1676 H   0  0  0  0  0  0  0  0  0  0  0  0
    5.2762   -0.6291    0.9097 C   0  0  0  0  0  0  0  0  0  0  0  0
   -3.6560   -1.9400   -0.9183 C   0  0  0  0  0  0  0  0  0  0  0  0
   -4.2418   -1.0605   -1.2174 H   0  0  0  0  0  0  0  0  0  0  0  0
   -4.2631   -3.1668   -0.6861 C   0  0  0  0  0  0  0  0  0  0  0  0
   -5.3553   -3.2527   -0.7993 H   0  0  0  0  0  0  0  0  0  0  0  0
   -3.5026   -4.2981   -0.2914 C   0  0  0  0  0  0  0  0  0  0  0  0
   -3.9962   -5.2627   -0.1051 H   0  0  0  0  0  0  0  0  0  0  0  0
    5.3180    0.0171    2.1638 C   0  0  0  0  0  0  0  0  0  0  0  0
    4.5055   -0.1527    2.8798 H   0  0  0  0  0  0  0  0  0  0  0  0
    5.2112   -3.4222   -0.3860 C   0  0  0  0  0  0  0  0  0  0  0  0
    5.2665   -3.9586   -1.3510 H   0  0  0  0  0  0  0  0  0  0  0  0
    4.9042   -4.1300    0.4166 H   0  0  0  0  0  0  0  0  0  0  0  0
    6.2164   -3.0255   -0.1519 H   0  0  0  0  0  0  0  0  0  0  0  0
    2.6873   -3.4850   -2.0847 C   0  0  0  0  0  0  0  0  0  0  0  0
    3.3733   -3.2737   -2.9297 H   0  0  0  0  0  0  0  0  0  0  0  0
    1.6480   -3.3331   -2.4320 H   0  0  0  0  0  0  0  0  0  0  0  0
    2.7983   -4.5579   -1.8182 H   0  0  0  0  0  0  0  0  0  0  0  0
    6.2962   -0.3913   -0.0380 C   0  0  0  0  0  0  0  0  0  0  0  0
    6.2330   -0.8587   -1.0306 H   0  0  0  0  0  0  0  0  0  0  0  0
    6.3705    0.8956    2.4503 C   0  0  0  0  0  0  0  0  0  0  0  0
    6.3887    1.4058    3.4253 H   0  0  0  0  0  0  0  0  0  0  0  0
    7.3954    1.1260    1.5182 C   0  0  0  0  0  0  0  0  0  0  0  0
    8.2220    1.8112    1.7580 H   0  0  0  0  0  0  0  0  0  0  0  0
    7.3526    0.4748    0.2756 C   0  0  0  0  0  0  0  0  0  0  0  0
    8.1418    0.6531   -0.4708 H   0  0  0  0  0  0  0  0  0  0  0  0
  2 11  1  0  0  0  0
  3  8  1  0  0  0  0
  3  6  1  0  0  0  0
  4  7  1  0  0  0  0
  4 15  1  0  0  0  0
  5 24  1  0  0  0  0
  5  4  1  0  0  0  0
  6  7  1  0  0  0  0
  7  1  2  0  0  0  0
  8  9  1  0  0  0  0
 10  8  1  0  0  0  0
 10 13  1  0  0  0  0
 11 10  2  0  0  0  0
 12  5  1  0  0  0  0
 12  6  2  0  0  0  0
 13 14  1  0  0  0  0
 15 22  1  0  0  0  0
 16 11  1  0  0  0  0
 16 18  2  0  0  0  0
 17 16  1  0  0  0  0
 18 20  1  0  0  0  0
 19 18  1  0  0  0  0
 20 13  2  0  0  0  0
 20 21  1  0  0  0  0
 22 34  2  0  0  0  0
 22 23  1  0  0  0  0
 24 27  1  0  0  0  0
 24 26  1  0  0  0  0
 25 24  1  0  0  0  0
 28 31  1  0  0  0  0
 28 12  1  0  0  0  0
 29 28  1  0  0  0  0
 30 28  1  0  0  0  0
 32 38  1  0  0  0  0
 32 15  2  0  0  0  0
 33 32  1  0  0  0  0
 34 35  1  0  0  0  0
 36 37  1  0  0  0  0
 36 34  1  0  0  0  0
 38 36  2  0  0  0  0
 39 38  1  0  0  0  0
M  CHG  1   2  -1
M  END
