4,5
q = -1.0

 19 19  0  0  0  0  0  0  0  0999 V2000
   -1.7634    1.0418   -1.7467 O   0  0  0  0  0  1  0  0  0  0  0  0
   -4.2961   -0.1522   -2.0701 O   0  0  0  0  0  0  0  0  0  0  0  0
   -5.1890   -3.3420    1.1407 O   0  0  0  0  0  0  0  0  0  0  0  0
   -1.0912   -1.2650    1.2447 O   0  5  0  0  0  0  0  0  0  0  0  0
   -1.5643    0.2029   -0.8643 N   0  0  0  0  0  2  0  0  0  0  0  0
   -4.7273   -1.7588   -0.4621 N   0  0  0  0  0  0  0  0  0  0  0  0
   -3.1346   -2.3263    1.2079 N   0  0  0  0  0  0  0  0  0  0  0  0
   -2.5856   -0.6598   -0.4572 C   0  0  0  0  0  0  0  0  0  0  0  0
   -3.8810   -0.7726   -1.0971 C   0  0  0  0  0  0  0  0  0  0  0  0
   -4.4092   -2.5271    0.6504 C   0  0  0  0  0  0  0  0  0  0  0  0
   -2.2213   -1.4194    0.6900 C   0  0  0  0  0  0  0  0  0  0  0  0
   -6.0499   -1.9810   -1.0288 C   0  0  0  0  0  0  0  0  0  0  0  0
   -2.7923   -3.1221    2.3793 C   0  0  0  0  0  0  0  0  0  0  0  0
   -6.1645   -3.0358   -1.3486 H   0  0  0  0  0  0  0  0  0  0  0  0
   -6.8375   -1.7679   -0.2788 H   0  0  0  0  0  0  0  0  0  0  0  0
   -6.1404   -1.2998   -1.8935 H   0  0  0  0  0  0  0  0  0  0  0  0
   -3.4823   -2.8963    3.2162 H   0  0  0  0  0  0  0  0  0  0  0  0
   -2.8830   -4.2007    2.1463 H   0  0  0  0  0  0  0  0  0  0  0  0
   -1.7547   -2.8702    2.6577 H   0  0  0  0  0  0  0  0  0  0  0  0
  1  5  1  0  0  0  0
  2  9  2  0  0  0  0
  5  8  1  0  0  0  0
  6 10  1  0  0  0  0
  7 13  1  0  0  0  0
  8 11  2  0  0  0  0
  9  6  1  0  0  0  0
  9  8  1  0  0  0  0
 10  3  2  0  0  0  0
 10  7  1  0  0  0  0
 11  7  1  0  0  0  0
 11  4  1  0  0  0  0
 12  6  1  0  0  0  0
 12 15  1  0  0  0  0
 13 19  1  0  0  0  0
 13 17  1  0  0  0  0
 14 12  1  0  0  0  0
 16 12  1  0  0  0  0
 18 13  1  0  0  0  0
M  CHG  1   4  -1
M  END
