1,5
q = -1.0

 45 47  0  0  1  0  0  0  0  0999 V2000
    5.6609    0.3487    0.1727 O   0  0  0  0  0  1  0  0  0  0  0  0
   -2.7474   -0.2901    0.1811 O   0  0  0  0  0  0  0  0  0  0  0  0
   -9.5283    0.7844    1.0098 O   0  0  0  0  0  0  0  0  0  0  0  0
  -10.0812   -0.7072   -0.6074 O   0  0  0  0  0  0  0  0  0  0  0  0
    2.8649   -0.4273    0.1311 N   0  0  0  0  0  2  0  0  0  0  0  0
    5.8708   -0.9327    0.2504 C   0  0  1  0  0  3  0  0  0  0  0  0
    7.2244   -1.3881    0.3473 C   0  0  0  0  0  0  0  0  0  0  0  0
    8.0093   -0.6183    0.3507 H   0  0  0  0  0  0  0  0  0  0  0  0
    7.5288   -2.7396    0.4255 C   0  0  0  0  0  0  0  0  0  0  0  0
    8.5826   -3.0524    0.4928 H   0  0  0  0  0  0  0  0  0  0  0  0
    6.5050   -3.7232    0.4202 C   0  0  0  0  0  0  0  0  0  0  0  0
    6.7587   -4.7910    0.4834 H   0  0  0  0  0  0  0  0  0  0  0  0
    5.1835   -3.3152    0.3393 C   0  0  0  0  0  0  0  0  0  0  0  0
    4.3718   -4.0605    0.3421 H   0  0  0  0  0  0  0  0  0  0  0  0
    4.8282   -1.9338    0.2516 C   0  0  0  0  0  0  0  0  0  0  0  0
    3.4387   -1.6144    0.2113 C   0  0  0  0  0  0  0  0  0  0  0  0
    2.7505   -2.4801    0.2867 H   0  0  0  0  0  0  0  0  0  0  0  0
    1.4329   -0.4168    0.1187 C   0  0  0  0  0  0  0  0  0  0  0  0
    0.7137   -1.1232   -0.8600 C   0  0  0  0  0  0  0  0  0  0  0  0
    1.2610   -1.6703   -1.6420 H   0  0  0  0  0  0  0  0  0  0  0  0
   -0.6900   -1.1064   -0.8756 C   0  0  0  0  0  0  0  0  0  0  0  0
   -1.2202   -1.6545   -1.6651 H   0  0  0  0  0  0  0  0  0  0  0  0
   -1.3916   -0.3769    0.1053 C   0  0  0  0  0  0  0  0  0  0  0  0
   -0.6699    0.3299    1.0928 C   0  0  0  0  0  0  0  0  0  0  0  0
   -1.2326    0.8895    1.8535 H   0  0  0  0  0  0  0  0  0  0  0  0
    0.7237    0.3120    1.0974 C   0  0  0  0  0  0  0  0  0  0  0  0
    1.2863    0.8609    1.8666 H   0  0  0  0  0  0  0  0  0  0  0  0
   -3.5294   -0.9667   -0.7860 C   0  0  0  0  0  0  0  0  0  0  0  0
   -3.3158   -2.0621   -0.7627 H   0  0  0  0  0  0  0  0  0  0  0  0
   -3.2663   -0.6111   -1.8118 H   0  0  0  0  0  0  0  0  0  0  0  0
   -4.9977   -0.7274   -0.5289 C   0  0  0  0  0  0  0  0  0  0  0  0
   -5.9485   -1.4276   -1.3003 C   0  0  0  0  0  0  0  0  0  0  0  0
   -5.6115   -2.1473   -2.0638 H   0  0  0  0  0  0  0  0  0  0  0  0
   -7.3150   -1.2175   -1.1031 C   0  0  0  0  0  0  0  0  0  0  0  0
   -8.0705   -1.7547   -1.6947 H   0  0  0  0  0  0  0  0  0  0  0  0
   -7.7582   -0.3026   -0.1260 C   0  0  0  0  0  0  0  0  0  0  0  0
   -6.8108    0.3956    0.6471 C   0  0  0  0  0  0  0  0  0  0  0  0
   -7.1587    1.1069    1.4088 H   0  0  0  0  0  0  0  0  0  0  0  0
   -5.4404    0.1845    0.4457 C   0  0  0  0  0  0  0  0  0  0  0  0
   -4.6974    0.7253    1.0469 H   0  0  0  0  0  0  0  0  0  0  0  0
   -9.2303   -0.1206    0.0412 C   0  0  0  0  0  0  0  0  0  0  0  0
  -10.9247    1.0091    1.2228 C   0  0  0  0  0  0  0  0  0  0  0  0
  -11.4105    1.3846    0.2994 H   0  0  0  0  0  0  0  0  0  0  0  0
  -10.9959    1.7605    2.0292 H   0  0  0  0  0  0  0  0  0  0  0  0
  -11.4354    0.0710    1.5214 H   0  0  0  0  0  0  0  0  0  0  0  0
  3 42  1  0  0  0  0
  4 41  2  0  0  0  0
  5 16  1  0  0  0  0
  6  1  1  1  0  0  0
  6 15  1  0  0  0  0
  6  7  1  0  0  0  0
  7  8  1  0  0  0  0
  7  9  2  0  0  0  0
  9 10  1  0  0  0  0
 11  9  1  0  0  0  0
 11 12  1  0  0  0  0
 13 14  1  0  0  0  0
 13 11  2  0  0  0  0
 15 13  1  0  0  0  0
 16 15  2  0  0  0  0
 16 17  1  0  0  0  0
 18  5  1  0  0  0  0
 18 26  1  0  0  0  0
 19 18  2  0  0  0  0
 20 19  1  0  0  0  0
 21 19  1  0  0  0  0
 21 23  2  0  0  0  0
 22 21  1  0  0  0  0
 23  2  1  0  0  0  0
 23 24  1  0  0  0  0
 24 26  2  0  0  0  0
 24 25  1  0  0  0  0
 26 27  1  0  0  0  0
 28 29  1  0  0  0  0
 28 31  1  0  0  0  0
 28  2  1  0  0  0  0
 30 28  1  0  0  0  0
 31 39  1  0  0  0  0
 32 34  1  0  0  0  0
 32 31  2  0  0  0  0
 33 32  1  0  0  0  0
 34 36  2  0  0  0  0
 35 34  1  0  0  0  0
 36 41  1  0  0  0  0
 36 37  1  0  0  0  0
 37 38  1  0  0  0  0
 39 37  2  0  0  0  0
 39 40  1  0  0  0  0
 41  3  1  0  0  0  0
 42 45  1  0  0  0  0
 42 44  1  0  0  0  0
 43 42  1  0  0  0  0
M  END
