1,5
q = -1.0

 45 47  0  0  0  0  0  0  0  0999 V2000
   -5.2923    0.3764   -0.0831 O   0  5  0  0  0  0  0  0  0  0  0  0
    3.1775    0.6212    0.2363 O   0  0  0  0  0  0  0  0  0  0  0  0
   10.0284    0.2401    1.6295 O   0  0  0  0  0  0  0  0  0  0  0  0
   10.4289   -0.0973   -0.5776 O   0  0  0  0  0  0  0  0  0  0  0  0
   -2.4259    0.9404   -0.0094 N   0  0  0  0  0  2  0  0  0  0  0  0
   -5.4041    1.6697   -0.0787 C   0  0  0  0  0  0  0  0  0  0  0  0
   -6.7176    2.2398   -0.1411 C   0  0  0  0  0  0  0  0  0  0  0  0
   -7.5612    1.5369   -0.2005 H   0  0  0  0  0  0  0  0  0  0  0  0
   -6.9158    3.6128   -0.1177 C   0  0  0  0  0  0  0  0  0  0  0  0
   -7.9419    4.0113   -0.1615 H   0  0  0  0  0  0  0  0  0  0  0  0
   -5.8185    4.5097   -0.0371 C   0  0  0  0  0  0  0  0  0  0  0  0
   -5.9864    5.5960   -0.0191 H   0  0  0  0  0  0  0  0  0  0  0  0
   -4.5339    3.9920    0.0150 C   0  0  0  0  0  0  0  0  0  0  0  0
   -3.6666    4.6699    0.0724 H   0  0  0  0  0  0  0  0  0  0  0  0
   -4.2855    2.5852   -0.0062 C   0  0  0  0  0  0  0  0  0  0  0  0
   -2.9205    2.1646    0.0247 C   0  0  0  0  0  3  0  0  0  0  0  0
   -2.1795    2.9892    0.0630 H   0  0  0  0  0  0  0  0  0  0  0  0
   -0.9973    0.8632    0.0282 C   0  0  0  0  0  0  0  0  0  0  0  0
   -0.2989    1.0424    1.2410 C   0  0  0  0  0  0  0  0  0  0  0  0
   -0.8679    1.2454    2.1605 H   0  0  0  0  0  0  0  0  0  0  0  0
    1.0947    0.9566    1.2779 C   0  0  0  0  0  0  0  0  0  0  0  0
    1.6483    1.0921    2.2181 H   0  0  0  0  0  0  0  0  0  0  0  0
    1.8231    0.6908    0.0991 C   0  0  0  0  0  0  0  0  0  0  0  0
    1.1330    0.5194   -1.1183 C   0  0  0  0  0  0  0  0  0  0  0  0
    1.6718    0.3234   -2.0545 H   0  0  0  0  0  0  0  0  0  0  0  0
   -0.2683    0.6036   -1.1438 C   0  0  0  0  0  0  0  0  0  0  0  0
   -0.8130    0.4766   -2.0908 H   0  0  0  0  0  0  0  0  0  0  0  0
    3.9638    0.3456   -0.9064 C   0  0  0  0  0  0  0  0  0  0  0  0
    3.8043    1.1271   -1.6881 H   0  0  0  0  0  0  0  0  0  0  0  0
    3.6585   -0.6275   -1.3624 H   0  0  0  0  0  0  0  0  0  0  0  0
    5.4258    0.2929   -0.5324 C   0  0  0  0  0  0  0  0  0  0  0  0
    5.8568    0.4442    0.7980 C   0  0  0  0  0  0  0  0  0  0  0  0
    5.1093    0.6113    1.5850 H   0  0  0  0  0  0  0  0  0  0  0  0
    7.2204    0.3829    1.1079 C   0  0  0  0  0  0  0  0  0  0  0  0
    7.5768    0.4993    2.1420 H   0  0  0  0  0  0  0  0  0  0  0  0
    8.1747    0.1692    0.0955 C   0  0  0  0  0  0  0  0  0  0  0  0
    7.7449    0.0175   -1.2395 C   0  0  0  0  0  0  0  0  0  0  0  0
    8.4902   -0.1482   -2.0294 H   0  0  0  0  0  0  0  0  0  0  0  0
    6.3825    0.0801   -1.5462 C   0  0  0  0  0  0  0  0  0  0  0  0
    6.0542   -0.0379   -2.5916 H   0  0  0  0  0  0  0  0  0  0  0  0
    9.6131    0.1136    0.4895 C   0  0  0  0  0  0  0  0  0  0  0  0
   11.8244   -0.1618   -0.2712 C   0  0  0  0  0  0  0  0  0  0  0  0
   12.1721    0.7838    0.1923 H   0  0  0  0  0  0  0  0  0  0  0  0
   12.3427   -0.3341   -1.2313 H   0  0  0  0  0  0  0  0  0  0  0  0
   12.0365   -0.9884    0.4371 H   0  0  0  0  0  0  0  0  0  0  0  0
  1  6  1  0  0  0  0
  4 42  1  0  0  0  0
  4 41  1  0  0  0  0
  5 16  1  0  0  0  0
  5 18  1  0  0  0  0
  6 15  1  0  0  0  0
  7  9  1  0  0  0  0
  7  6  2  0  0  0  0
  8  7  1  0  0  0  0
  9 11  2  0  0  0  0
 10  9  1  0  0  0  0
 11 12  1  0  0  0  0
 11 13  1  0  0  0  0
 13 14  1  0  0  0  0
 15 13  2  0  0  0  0
 15 16  1  0  0  0  0
 16 17  1  0  0  0  0
 18 19  1  0  0  0  0
 19 21  2  0  0  0  0
 19 20  1  0  0  0  0
 21 22  1  0  0  0  0
 23  2  1  0  0  0  0
 23 21  1  0  0  0  0
 24 23  2  0  0  0  0
 25 24  1  0  0  0  0
 26 24  1  0  0  0  0
 26 18  2  0  0  0  0
 27 26  1  0  0  0  0
 28 31  1  0  0  0  0
 28  2  1  0  0  0  0
 29 28  1  0  0  0  0
 30 28  1  0  0  0  0
 31 32  1  0  0  0  0
 32 34  2  0  0  0  0
 32 33  1  0  0  0  0
 34 35  1  0  0  0  0
 36 41  1  0  0  0  0
 36 34  1  0  0  0  0
 37 36  2  0  0  0  0
 38 37  1  0  0  0  0
 39 37  1  0  0  0  0
 39 31  2  0  0  0  0
 40 39  1  0  0  0  0
 41  3  2  0  0  0  0
 42 43  1  0  0  0  0
 42 45  1  0  0  0  0
 44 42  1  0  0  0  0
M  CHG  1   1  -1
M  END
