1,2
q = -1.0

 14 14  0  0  1  0  0  0  0  0999 V2000
    1.7304   -1.2569   -0.8025 N   0  0  0  0  0  2  0  0  0  0  0  0
    0.4675    0.7753   -1.7047 O   0  0  0  0  0  1  0  0  0  0  0  0
    1.3914    0.2898   -2.6002 C   0  0  0  0  0  0  0  0  0  0  0  0
    2.1556    1.0608   -2.8935 H   0  0  0  0  0  0  0  0  0  0  0  0
    0.9140   -0.0249   -3.5659 H   0  0  0  0  0  0  0  0  0  0  0  0
    2.1331   -0.9073   -2.0379 C   0  0  2  0  0  3  0  0  0  0  0  0
    3.1419   -1.6227   -2.7081 C   0  0  0  0  0  0  0  0  0  0  0  0
    3.4545   -1.3162   -3.7179 H   0  0  0  0  0  0  0  0  0  0  0  0
    3.7262   -2.7222   -2.0702 C   0  0  0  0  0  0  0  0  0  0  0  0
    4.5162   -3.3017   -2.5722 H   0  0  0  0  0  0  0  0  0  0  0  0
    3.2895   -3.0807   -0.7822 C   0  0  0  0  0  0  0  0  0  0  0  0
    3.7209   -3.9412   -0.2512 H   0  0  0  0  0  0  0  0  0  0  0  0
    2.2854   -2.3155   -0.1821 C   0  0  0  0  0  0  0  0  0  0  0  0
    1.8830   -2.5303    0.8212 H   0  0  0  0  0  0  0  0  0  0  0  0
  1 13  1  0  0  0  0
  3  2  1  0  0  0  0
  4  3  1  0  0  0  0
  5  3  1  0  0  0  0
  6  3  1  6  0  0  0
  6  1  1  0  0  0  0
  7  9  2  0  0  0  0
  7  6  1  0  0  0  0
  8  7  1  0  0  0  0
  9 11  1  0  0  0  0
 10  9  1  0  0  0  0
 11 12  1  0  0  0  0
 11 13  2  0  0  0  0
 13 14  1  0  0  0  0
M  END
