1,8
q = -1.0

 32 32  0  0  0  0  0  0  0  0999 V2000
   -1.5927    0.8555   -1.2324 O   0  5  0  0  0  0  0  0  0  0  0  0
    0.9463    0.6593    2.1979 O   0  0  0  0  0  0  0  0  0  0  0  0
   -2.8851    0.7137    3.9254 O   0  0  0  0  0  0  0  0  0  0  0  0
    0.9080   -1.7808    3.4707 O   0  0  0  0  0  0  0  0  0  0  0  0
   -7.2453   -1.2771   -2.8871 O   0  0  0  0  0  0  0  0  0  0  0  0
   -7.2049   -1.9415   -0.8026 O   0  0  0  0  0  0  0  0  0  0  0  0
   -6.7003   -1.3887   -1.7855 N   0  0  0  0  0  0  0  0  0  0  0  0
   -1.6120   -0.2206    1.4377 N   0  0  0  0  0  2  0  0  0  0  0  0
   -2.7579    0.2942   -1.3353 C   0  0  0  0  0  0  0  0  0  0  0  0
   -3.4743    0.3694   -2.5760 C   0  0  0  0  0  0  0  0  0  0  0  0
   -2.9701    0.8816   -3.4082 H   0  0  0  0  0  0  0  0  0  0  0  0
   -4.7391   -0.1745   -2.7298 C   0  0  0  0  0  0  0  0  0  0  0  0
   -5.2871   -0.1199   -3.6805 H   0  0  0  0  0  0  0  0  0  0  0  0
   -5.3558   -0.8211   -1.6341 C   0  0  0  0  0  0  0  0  0  0  0  0
   -4.7065   -0.9218   -0.4079 C   0  0  0  0  0  0  0  0  0  0  0  0
   -5.2262   -1.4304    0.4174 H   0  0  0  0  0  0  0  0  0  0  0  0
   -3.4108   -0.3879   -0.2308 C   0  0  0  0  0  0  0  0  0  0  0  0
   -2.8192   -0.5430    1.0800 C   0  0  0  0  0  3  0  0  0  0  0  0
   -3.5059   -0.9913    1.8281 H   0  0  0  0  0  0  0  0  0  0  0  0
   -1.1259   -0.4648    2.8035 C   0  0  0  0  0  0  0  0  0  0  0  0
   -0.1505    0.6973    3.1016 C   0  0  0  0  0  0  0  0  0  0  0  0
   -0.6754    1.6585    2.9480 H   0  0  0  0  0  0  0  0  0  0  0  0
    0.1979    0.6505    4.1562 H   0  0  0  0  0  0  0  0  0  0  0  0
   -2.2100   -0.5221    3.8832 C   0  0  0  0  0  0  0  0  0  0  0  0
   -2.8958   -1.3823    3.6807 H   0  0  0  0  0  0  0  0  0  0  0  0
   -1.6942   -0.7660    4.8480 H   0  0  0  0  0  0  0  0  0  0  0  0
   -0.3337   -1.8201    2.7768 C   0  0  0  0  0  0  0  0  0  0  0  0
   -0.9907   -2.6400    3.1496 H   0  0  0  0  0  0  0  0  0  0  0  0
   -0.0817   -2.0473    1.7217 H   0  0  0  0  0  0  0  0  0  0  0  0
    1.4574   -0.1459    2.4512 H   0  0  0  0  0  0  0  0  0  0  0  0
   -3.5867    0.6609    4.5980 H   0  0  0  0  0  0  0  0  0  0  0  0
    0.7364   -1.7426    4.4296 H   0  0  0  0  0  0  0  0  0  0  0  0
  2 30  1  0  0  0  0
  2 21  1  0  0  0  0
  3 31  1  0  0  0  0
  4 32  1  0  0  0  0
  5  7  2  0  0  0  0
  7 14  1  0  0  0  0
  7  6  2  0  0  0  0
  8 20  1  0  0  0  0
  9  1  1  0  0  0  0
  9 17  1  0  0  0  0
 10  9  2  0  0  0  0
 11 10  1  0  0  0  0
 12 10  1  0  0  0  0
 12 14  2  0  0  0  0
 13 12  1  0  0  0  0
 14 15  1  0  0  0  0
 15 17  2  0  0  0  0
 15 16  1  0  0  0  0
 17 18  1  0  0  0  0
 18  8  1  0  0  0  0
 18 19  1  0  0  0  0
 20 21  1  0  0  0  0
 20 24  1  0  0  0  0
 21 23  1  0  0  0  0
 22 21  1  0  0  0  0
 24  3  1  0  0  0  0
 24 26  1  0  0  0  0
 25 24  1  0  0  0  0
 27 20  1  0  0  0  0
 27 28  1  0  0  0  0
 27  4  1  0  0  0  0
 29 27  1  0  0  0  0
M  CHG  1   1  -1
M  END
