1,3
q = -1.0

 35 36  0  0  1  0  0  0  0  0999 V2000
    1.3128   -0.9933    0.9389 O   0  5  0  0  0  0  0  0  0  0  0  0
    3.5461   -1.8822    2.2803 O   0  0  0  0  0  0  0  0  0  0  0  0
   -0.7032   -1.6233   -1.0895 N   0  0  0  0  0  2  0  0  0  0  0  0
   -0.0844   -2.7732   -1.0095 C   0  0  0  0  0  3  0  0  0  0  0  0
   -0.4943   -3.6120   -1.6161 H   0  0  0  0  0  0  0  0  0  0  0  0
    1.0804   -3.1142   -0.2339 C   0  0  0  0  0  0  0  0  0  0  0  0
    1.6209   -4.4206   -0.4345 C   0  0  0  0  0  0  0  0  0  0  0  0
    1.1207   -5.0857   -1.1566 H   0  0  0  0  0  0  0  0  0  0  0  0
    2.7510   -4.8491    0.2458 C   0  0  0  0  0  0  0  0  0  0  0  0
    3.1622   -5.8541    0.0743 H   0  0  0  0  0  0  0  0  0  0  0  0
    3.3663   -3.9806    1.1778 C   0  0  0  0  0  0  0  0  0  0  0  0
    4.2648   -4.2861    1.7349 H   0  0  0  0  0  0  0  0  0  0  0  0
    2.8648   -2.7030    1.4203 C   0  0  0  0  0  0  0  0  0  0  0  0
    1.7057   -2.2140    0.7111 C   0  0  0  0  0  0  0  0  0  0  0  0
    2.8215   -1.3990    3.4131 C   0  0  0  0  0  0  0  0  0  0  0  0
    1.9485   -0.7864    3.1106 H   0  0  0  0  0  0  0  0  0  0  0  0
    3.5294   -0.7769    3.9935 H   0  0  0  0  0  0  0  0  0  0  0  0
    2.4784   -2.2441    4.0515 H   0  0  0  0  0  0  0  0  0  0  0  0
   -2.0739   -0.1597   -2.5238 C   0  0  0  0  0  0  0  0  0  0  0  0
   -2.1863    0.6087   -1.7328 H   0  0  0  0  0  0  0  0  0  0  0  0
   -2.9731   -0.1147   -3.1677 H   0  0  0  0  0  0  0  0  0  0  0  0
   -1.1867    0.0973   -3.1369 H   0  0  0  0  0  0  0  0  0  0  0  0
   -1.9309   -1.5555   -1.9101 C   0  0  2  0  0  0  0  0  0  0  0  0
   -1.8328   -2.2981   -2.7346 H   0  0  0  0  0  0  0  0  0  0  0  0
   -3.1558   -1.9555   -1.0923 C   0  0  0  0  0  0  0  0  0  0  0  0
   -3.9532   -3.0372   -1.5116 C   0  0  0  0  0  0  0  0  0  0  0  0
   -3.6785   -3.5918   -2.4238 H   0  0  0  0  0  0  0  0  0  0  0  0
   -5.0935   -3.4137   -0.7839 C   0  0  0  0  0  0  0  0  0  0  0  0
   -5.7068   -4.2611   -1.1266 H   0  0  0  0  0  0  0  0  0  0  0  0
   -5.4458   -2.7108    0.3780 C   0  0  0  0  0  0  0  0  0  0  0  0
   -6.3377   -3.0048    0.9525 H   0  0  0  0  0  0  0  0  0  0  0  0
   -4.6515   -1.6332    0.8035 C   0  0  0  0  0  0  0  0  0  0  0  0
   -4.9144   -1.0745    1.7150 H   0  0  0  0  0  0  0  0  0  0  0  0
   -3.5136   -1.2534    0.0777 C   0  0  0  0  0  0  0  0  0  0  0  0
   -2.9058   -0.4069    0.4372 H   0  0  0  0  0  0  0  0  0  0  0  0
  2 15  1  0  0  0  0
  3  4  1  0  0  0  0
  4  6  1  0  0  0  0
  5  4  1  0  0  0  0
  6 14  1  0  0  0  0
  7  6  2  0  0  0  0
  7  9  1  0  0  0  0
  8  7  1  0  0  0  0
  9 11  2  0  0  0  0
 10  9  1  0  0  0  0
 11 13  1  0  0  0  0
 11 12  1  0  0  0  0
 13  2  1  0  0  0  0
 14  1  1  0  0  0  0
 14 13  2  0  0  0  0
 15 17  1  0  0  0  0
 15 18  1  0  0  0  0
 16 15  1  0  0  0  0
 19 23  1  0  0  0  0
 19 20  1  0  0  0  0
 21 19  1  0  0  0  0
 22 19  1  0  0  0  0
 23 24  1  6  0  0  0
 23 25  1  0  0  0  0
 23  3  1  0  0  0  0
 25 34  1  0  0  0  0
 26 25  2  0  0  0  0
 26 28  1  0  0  0  0
 27 26  1  0  0  0  0
 28 30  2  0  0  0  0
 29 28  1  0  0  0  0
 30 32  1  0  0  0  0
 30 31  1  0  0  0  0
 32 33  1  0  0  0  0
 34 35  1  0  0  0  0
 34 32  2  0  0  0  0
M  CHG  1   1  -1
M  END
