1,2
q = -1.0

 25 27  0  0  0  0  0  0  0  0999 V2000
   -0.8130   -0.5768    1.7620 N   0  0  0  0  0  2  0  0  0  0  0  0
   -1.8424    1.4206   -0.1697 O   0  5  0  0  0  0  0  0  0  0  0  0
   -5.0355   -1.8746    1.2028 O   0  0  0  0  0  0  0  0  0  0  0  0
   -2.5215   -1.9740    2.7412 C   0  0  0  0  0  0  0  0  0  0  0  0
   -1.6095   -2.4437    3.6792 C   0  0  0  0  0  0  0  0  0  0  0  0
   -0.2853   -1.9572    3.6725 C   0  0  0  0  0  0  0  0  0  0  0  0
    0.0599   -1.0364    2.6864 C   0  0  0  0  0  3  0  0  0  0  0  0
   -2.1211   -0.9999    1.7781 C   0  0  0  0  0  0  0  0  0  0  0  0
   -3.0639   -0.4559    0.8328 C   0  0  0  0  0  0  0  0  0  0  0  0
   -2.8692    0.6917   -0.0055 C   0  0  0  0  0  0  0  0  0  0  0  0
   -4.1500    0.9656   -0.7273 C   0  0  0  0  0  0  0  0  0  0  0  0
   -5.0949   -0.0038   -0.3448 C   0  0  0  0  0  0  0  0  0  0  0  0
   -4.4536   -0.9269    0.6638 C   0  0  0  0  0  0  0  0  0  0  0  0
   -6.3827   -0.0091   -0.8750 C   0  0  0  0  0  0  0  0  0  0  0  0
   -6.7144    0.9952   -1.8110 C   0  0  0  0  0  0  0  0  0  0  0  0
   -5.7695    1.9641   -2.1941 C   0  0  0  0  0  0  0  0  0  0  0  0
   -4.4652    1.9593   -1.6541 C   0  0  0  0  0  0  0  0  0  0  0  0
   -3.5621   -2.3243    2.6991 H   0  0  0  0  0  0  0  0  0  0  0  0
   -1.9252   -3.1892    4.4256 H   0  0  0  0  0  0  0  0  0  0  0  0
    0.4635   -2.2940    4.4025 H   0  0  0  0  0  0  0  0  0  0  0  0
    1.0898   -0.6563    2.5981 H   0  0  0  0  0  0  0  0  0  0  0  0
   -7.1074   -0.7761   -0.5624 H   0  0  0  0  0  0  0  0  0  0  0  0
   -7.7247    1.0233   -2.2474 H   0  0  0  0  0  0  0  0  0  0  0  0
   -6.0534    2.7360   -2.9259 H   0  0  0  0  0  0  0  0  0  0  0  0
   -3.7136    2.7075   -1.9472 H   0  0  0  0  0  0  0  0  0  0  0  0
  1  8  1  0  0  0  0
  1  7  1  0  0  0  0
  2 10  1  0  0  0  0
  4  5  1  0  0  0  0
  5 19  1  0  0  0  0
  6  5  2  0  0  0  0
  6 20  1  0  0  0  0
  7  6  1  0  0  0  0
  8  4  2  0  0  0  0
  9  8  1  0  0  0  0
 10  9  2  0  0  0  0
 11 12  1  0  0  0  0
 11 10  1  0  0  0  0
 12 13  1  0  0  0  0
 13  9  1  0  0  0  0
 13  3  2  0  0  0  0
 14 22  1  0  0  0  0
 14 12  2  0  0  0  0
 15 14  1  0  0  0  0
 16 15  2  0  0  0  0
 16 17  1  0  0  0  0
 17 11  2  0  0  0  0
 18  4  1  0  0  0  0
 21  7  1  0  0  0  0
 23 15  1  0  0  0  0
 24 16  1  0  0  0  0
 25 17  1  0  0  0  0
M  CHG  1   2  -1
M  END
