1,4
q = -1.0

 24 24  0  0  0  0  0  0  0  0999 V2000
    1.2359    1.3007   -1.4480 N   0  0  0  0  0  2  0  0  0  0  0  0
    6.1065   -2.1761   -0.0675 N   0  0  0  0  0  0  0  0  0  0  0  0
   -1.1011    2.7437   -1.1801 O   0  0  0  0  0  0  0  0  0  0  0  0
    1.0537   -0.0034    1.0210 O   0  5  0  0  0  0  0  0  0  0  0  0
    6.6761   -1.8571   -1.1168 O   0  0  0  0  0  0  0  0  0  0  0  0
    6.5750   -2.9398    0.7826 O   0  0  0  0  0  0  0  0  0  0  0  0
    2.2216   -0.4964    0.6975 C   0  0  0  0  0  0  0  0  0  0  0  0
    2.8409   -1.4025    1.6175 C   0  0  0  0  0  0  0  0  0  0  0  0
    2.2754   -1.6510    2.5273 H   0  0  0  0  0  0  0  0  0  0  0  0
    4.0917   -1.9483    1.3789 C   0  0  0  0  0  0  0  0  0  0  0  0
    4.5686   -2.6448    2.0814 H   0  0  0  0  0  0  0  0  0  0  0  0
    4.7803   -1.6066    0.1915 C   0  0  0  0  0  0  0  0  0  0  0  0
    4.2179   -0.7378   -0.7387 C   0  0  0  0  0  0  0  0  0  0  0  0
    4.7882   -0.5076   -1.6501 H   0  0  0  0  0  0  0  0  0  0  0  0
    2.9422   -0.1695   -0.5191 C   0  0  0  0  0  0  0  0  0  0  0  0
    2.4033    0.7076   -1.5257 C   0  0  0  0  0  3  0  0  0  0  0  0
    3.0240    0.8677   -2.4304 H   0  0  0  0  0  0  0  0  0  0  0  0
    0.7282    2.0280   -2.6096 C   0  0  0  0  0  0  0  0  0  0  0  0
    0.0898    1.3306   -3.2008 H   0  0  0  0  0  0  0  0  0  0  0  0
    1.5468    2.3790   -3.2766 H   0  0  0  0  0  0  0  0  0  0  0  0
   -0.1181    3.1999   -2.1317 C   0  0  0  0  0  0  0  0  0  0  0  0
    0.5043    3.9326   -1.5813 H   0  0  0  0  0  0  0  0  0  0  0  0
   -0.6126    3.7191   -2.9807 H   0  0  0  0  0  0  0  0  0  0  0  0
   -1.6829    2.0914   -1.6299 H   0  0  0  0  0  0  0  0  0  0  0  0
  2 12  1  0  0  0  0
  2  6  2  0  0  0  0
  5  2  2  0  0  0  0
  7  4  1  0  0  0  0
  7  8  1  0  0  0  0
  8  9  1  0  0  0  0
 10  8  2  0  0  0  0
 10 11  1  0  0  0  0
 12 10  1  0  0  0  0
 13 15  1  0  0  0  0
 13 12  2  0  0  0  0
 14 13  1  0  0  0  0
 15  7  2  0  0  0  0
 16  1  1  0  0  0  0
 16 15  1  0  0  0  0
 17 16  1  0  0  0  0
 18 21  1  0  0  0  0
 18  1  1  0  0  0  0
 19 18  1  0  0  0  0
 20 18  1  0  0  0  0
 21 22  1  0  0  0  0
 21  3  1  0  0  0  0
 23 21  1  0  0  0  0
 24  3  1  0  0  0  0
M  CHG  1   4  -1
M  END
