1,2
q = 0.0, confidence = 1.0

 35 36  0  0  1  0  0  0  0  0999 V2000
    0.3368    0.5276    0.3652 N   0  0  0  0  0  2  0  0  0  0  0  0
   -1.5784   -0.9210   -1.1454 O   0  0  0  0  0  1  0  0  0  0  0  0
    1.6312    0.8314    0.2447 C   0  0  0  0  0  3  0  0  0  0  0  0
    2.3778   -0.7698    1.9850 C   0  0  0  0  0  0  0  0  0  0  0  0
    3.0402   -0.6263    2.8625 H   0  0  0  0  0  0  0  0  0  0  0  0
    2.5721   -1.7663    1.5301 H   0  0  0  0  0  0  0  0  0  0  0  0
    1.3214   -0.7462    2.3143 H   0  0  0  0  0  0  0  0  0  0  0  0
    3.9019    0.4405    0.3580 C   0  0  0  0  0  0  0  0  0  0  0  0
    4.1364   -0.4885   -0.2099 H   0  0  0  0  0  0  0  0  0  0  0  0
    4.7023    0.6372    1.0979 H   0  0  0  0  0  0  0  0  0  0  0  0
    3.6437    1.6363   -0.5810 C   0  0  0  0  0  0  0  0  0  0  0  0
    4.0029    2.5985   -0.1492 H   0  0  0  0  0  0  0  0  0  0  0  0
    4.1196    1.5035   -1.5727 H   0  0  0  0  0  0  0  0  0  0  0  0
    2.6057    0.2791    1.0145 N   0  0  0  0  0  0  0  0  0  0  0  0
    1.4706    2.1078   -1.8712 C   0  0  0  0  0  0  0  0  0  0  0  0
    2.1457    2.0817   -2.7489 H   0  0  0  0  0  0  0  0  0  0  0  0
    1.0831    3.1421   -1.7427 H   0  0  0  0  0  0  0  0  0  0  0  0
    0.6164    1.4318   -2.0712 H   0  0  0  0  0  0  0  0  0  0  0  0
   -3.6598   -0.4639   -0.4503 O   0  0  0  0  0  0  0  0  0  0  0  0
    2.1864    1.6292   -0.7104 N   0  0  0  0  0  0  0  0  0  0  0  0
   -2.7392    3.4477    0.5367 C   0  0  0  0  0  0  0  0  0  0  0  0
   -3.5390    4.1972    0.6197 H   0  0  0  0  0  0  0  0  0  0  0  0
   -4.0107   -1.8021   -0.8550 C   0  0  0  0  0  0  0  0  0  0  0  0
   -5.0811   -1.9146   -0.6104 H   0  0  0  0  0  0  0  0  0  0  0  0
   -3.3917   -2.5278   -0.2903 H   0  0  0  0  0  0  0  0  0  0  0  0
   -3.8396   -1.9416   -1.9405 H   0  0  0  0  0  0  0  0  0  0  0  0
   -2.3674   -0.1467   -0.5747 C   0  0  2  0  0  3  0  0  0  0  0  0
   -3.0265    2.1499    0.1158 C   0  0  0  0  0  0  0  0  0  0  0  0
   -4.0548    1.8628   -0.1436 H   0  0  0  0  0  0  0  0  0  0  0  0
   -0.3972    2.8200    0.7681 C   0  0  0  0  0  0  0  0  0  0  0  0
    0.6280    3.0790    1.0723 H   0  0  0  0  0  0  0  0  0  0  0  0
   -0.6584    1.4899    0.3334 C   0  0  0  0  0  0  0  0  0  0  0  0
   -1.4077    3.7768    0.8560 C   0  0  0  0  0  0  0  0  0  0  0  0
   -1.1579    4.7927    1.1998 H   0  0  0  0  0  0  0  0  0  0  0  0
   -2.0120    1.1732   -0.0223 C   0  0  0  0  0  0  0  0  0  0  0  0
  3  1  1  0  0  0  0
  3 14  1  0  0  0  0
  4  7  1  0  0  0  0
  4  5  1  0  0  0  0
  6  4  1  0  0  0  0
  8 14  1  0  0  0  0
  8 10  1  0  0  0  0
  9  8  1  0  0  0  0
 11 12  1  0  0  0  0
 11  8  1  0  0  0  0
 13 11  1  0  0  0  0
 14  4  1  0  0  0  0
 15 17  1  0  0  0  0
 15 20  1  0  0  0  0
 16 15  1  0  0  0  0
 18 15  1  0  0  0  0
 20 11  1  0  0  0  0
 20  3  1  0  0  0  0
 21 22  1  0  0  0  0
 21 33  1  0  0  0  0
 23 24  1  0  0  0  0
 23 19  1  0  0  0  0
 23 25  1  0  0  0  0
 26 23  1  0  0  0  0
 27  2  1  6  0  0  0
 27 19  1  0  0  0  0
 27 35  1  0  0  0  0
 28 21  2  0  0  0  0
 29 28  1  0  0  0  0
 30 33  2  0  0  0  0
 30 31  1  0  0  0  0
 32  1  1  0  0  0  0
 32 30  1  0  0  0  0
 33 34  1  0  0  0  0
 35 28  1  0  0  0  0
 35 32  2  0  0  0  0
M  END
