1,5
q = -1.0

  7  6  0  0  0  0  0  0  0  0999 V2000
    1.4254    1.4512    1.2124 O   0  0  0  0  0  1  0  0  0  0  0  0
    3.0372    2.9654    1.1370 O   0  0  0  0  0  1  0  0  0  0  0  0
    1.4799    0.9465   -2.6109 O   0  0  0  0  0  1  0  0  0  0  0  0
    2.2923    2.1832    0.5433 N   0  0  0  0  0  0  0  0  0  0  0  0
    1.4592    1.1063   -1.3678 N   0  0  0  0  0  2  0  0  0  0  0  0
    2.3244    2.0136   -0.8235 C   0  0  0  0  0  3  0  0  0  0  0  0
    3.0250    2.6097   -1.4186 H   0  0  0  0  0  0  0  0  0  0  0  0
  3  5  1  0  0  0  0
  4  2  1  0  0  0  0
  4  1  1  0  0  0  0
  5  6  1  0  0  0  0
  6  4  1  0  0  0  0
  7  6  1  0  0  0  0
M  END
