1,2
q = -1.0

 22 22  0  0  1  0  0  0  0  0999 V2000
    0.9746    1.1859   -1.8761 O   0  5  0  0  0  0  0  0  0  0  0  0
   -0.7058   -0.0644    0.1771 N   0  0  0  0  0  2  0  0  0  0  0  0
   -0.1340    2.2124   -3.6872 C   0  0  0  0  0  0  0  0  0  0  0  0
   -0.1820    1.4654   -2.3708 C   0  0  0  0  0  0  0  0  0  0  0  0
   -1.4339    1.1449   -1.8045 C   0  0  0  0  0  0  0  0  0  0  0  0
   -1.6627    0.3721   -0.6293 C   0  0  1  0  0  3  0  0  0  0  0  0
   -3.0757    0.0192   -0.2886 C   0  0  0  0  0  0  0  0  0  0  0  0
   -3.4969   -1.3235   -0.2357 C   0  0  0  0  0  0  0  0  0  0  0  0
   -4.8181   -1.6703    0.0915 C   0  0  0  0  0  0  0  0  0  0  0  0
   -5.7513   -0.6557    0.3665 C   0  0  0  0  0  0  0  0  0  0  0  0
   -5.3564    0.6929    0.3268 C   0  0  0  0  0  0  0  0  0  0  0  0
   -4.0297    1.0133   -0.0026 C   0  0  0  0  0  0  0  0  0  0  0  0
   -2.6337   -2.3110   -0.5127 F   0  0  0  0  0  0  0  0  0  0  0  0
   -5.1986   -2.9503    0.1254 F   0  0  0  0  0  0  0  0  0  0  0  0
   -7.0095   -0.9731    0.6771 F   0  0  0  0  0  0  0  0  0  0  0  0
   -6.2411    1.6539    0.6085 F   0  0  0  0  0  0  0  0  0  0  0  0
   -3.6750    2.3082   -0.0081 F   0  0  0  0  0  0  0  0  0  0  0  0
   -1.0381   -0.6595    0.9473 H   0  0  0  0  0  0  0  0  0  0  0  0
   -2.3263    1.4599   -2.3606 H   0  0  0  0  0  0  0  0  0  0  0  0
   -1.1385    2.4079   -4.1057 H   0  0  0  0  0  0  0  0  0  0  0  0
    0.4600    1.6317   -4.4221 H   0  0  0  0  0  0  0  0  0  0  0  0
    0.3931    3.1798   -3.5484 H   0  0  0  0  0  0  0  0  0  0  0  0
  2 18  1  0  0  0  0
  3 22  1  0  0  0  0
  3  4  1  0  0  0  0
  4  1  1  0  0  0  0
  4  5  2  0  0  0  0
  6  5  1  6  0  0  0
  6  7  1  0  0  0  0
  6  2  1  0  0  0  0
  7  8  2  0  0  0  0
  7 12  1  0  0  0  0
  8  9  1  0  0  0  0
  9 14  1  0  0  0  0
  9 10  2  0  0  0  0
 10 15  1  0  0  0  0
 11 10  1  0  0  0  0
 11 16  1  0  0  0  0
 12 11  2  0  0  0  0
 13  8  1  0  0  0  0
 17 12  1  0  0  0  0
 19  5  1  0  0  0  0
 20  3  1  0  0  0  0
 21  3  1  0  0  0  0
M  CHG  1   1  -1
M  END
