1,2
q = -1.0, confidence = 0.006

 26 27  0  0  1  0  0  0  0  0999 V2000
   -1.6428   -0.6326   -0.5929 O   0  0  0  0  0  1  0  0  0  0  0  0
    0.7418   -1.7720    0.1102 N   0  0  0  0  0  2  0  0  0  0  0  0
    3.0296   -1.4221   -0.6704 C   0  0  0  0  0  0  0  0  0  0  0  0
    2.6265   -0.9130   -1.5556 H   0  0  0  0  0  0  0  0  0  0  0  0
    5.3183   -1.0390   -1.4876 C   0  0  0  0  0  0  0  0  0  0  0  0
   -1.3744   -2.9907   -0.1349 C   0  0  0  0  0  0  0  0  0  0  0  0
    4.4206   -1.5605   -0.4969 C   0  0  0  0  0  0  0  0  0  0  0  0
    2.1482   -1.9250    0.3009 C   0  0  0  0  0  0  0  0  0  0  0  0
    4.9334   -2.2020    0.6579 C   0  0  0  0  0  0  0  0  0  0  0  0
    6.0201   -2.3006    0.7870 H   0  0  0  0  0  0  0  0  0  0  0  0
   -3.5324   -2.0152   -0.7944 C   0  0  0  0  0  0  0  0  0  0  0  0
   -4.1128   -1.1267   -1.0813 H   0  0  0  0  0  0  0  0  0  0  0  0
   -2.1466   -1.8303   -0.5002 C   0  0  2  0  0  3  0  0  0  0  0  0
    2.6595   -2.5544    1.4501 C   0  0  0  0  0  0  0  0  0  0  0  0
    1.9627   -2.9099    2.2234 H   0  0  0  0  0  0  0  0  0  0  0  0
    0.0276   -2.8840    0.0954 C   0  0  0  0  0  0  0  0  0  0  0  0
    0.5775   -3.8347    0.2373 H   0  0  0  0  0  0  0  0  0  0  0  0
   -3.3575   -4.4151   -0.3400 C   0  0  0  0  0  0  0  0  0  0  0  0
   -3.8365   -5.4023   -0.2765 H   0  0  0  0  0  0  0  0  0  0  0  0
    6.0574   -0.6114   -2.2934 N   0  0  0  0  0  0  0  0  0  0  0  0
    4.0464   -2.6943    1.6199 C   0  0  0  0  0  0  0  0  0  0  0  0
    4.4372   -3.1847    2.5237 H   0  0  0  0  0  0  0  0  0  0  0  0
   -4.1163   -3.2730   -0.7055 C   0  0  0  0  0  0  0  0  0  0  0  0
   -5.1904   -3.3820   -0.9223 H   0  0  0  0  0  0  0  0  0  0  0  0
   -2.0048   -4.2675   -0.0696 C   0  0  0  0  0  0  0  0  0  0  0  0
   -1.3920   -5.1414    0.2042 H   0  0  0  0  0  0  0  0  0  0  0  0
  2  8  1  0  0  0  0
  3  7  2  0  0  0  0
  3  8  1  0  0  0  0
  4  3  1  0  0  0  0
  5  7  1  0  0  0  0
  6 25  1  0  0  0  0
  6 16  2  0  0  0  0
  7  9  1  0  0  0  0
  8 14  2  0  0  0  0
  9 10  1  0  0  0  0
  9 21  2  0  0  0  0
 11 23  2  0  0  0  0
 11 13  1  0  0  0  0
 12 11  1  0  0  0  0
 13  1  1  6  0  0  0
 13  6  1  0  0  0  0
 14 21  1  0  0  0  0
 14 15  1  0  0  0  0
 16  2  1  0  0  0  0
 16 17  1  0  0  0  0
 18 19  1  0  0  0  0
 18 25  2  0  0  0  0
 20  5  3  0  0  0  0
 21 22  1  0  0  0  0
 23 18  1  0  0  0  0
 24 23  1  0  0  0  0
 25 26  1  0  0  0  0
M  END
