1,2
q = -1.0

 28 28  0  0  0  0  0  0  0  0999 V2000
   -1.8933    0.8820    0.0366 N   0  0  0  0  0  0  0  0  0  0  0  0
    0.2355    0.9689   -1.7579 O   0  5  0  0  0  0  0  0  0  0  0  0
   -0.8501    2.3850   -3.1288 O   0  0  0  0  0  0  0  0  0  0  0  0
   -5.0916   -0.7744    0.8291 O   0  0  0  0  0  0  0  0  0  0  0  0
   -6.0101   -0.4253    0.8399 H   0  0  0  0  0  0  0  0  0  0  0  0
   -4.7266    1.3823    0.2511 O   0  0  0  0  0  0  0  0  0  0  0  0
   -0.8250    1.6409   -2.1605 C   0  0  0  0  0  0  0  0  0  0  0  0
   -2.1192    1.3416   -1.3706 C   0  0  0  0  0  0  0  0  0  0  0  0
   -2.6169    0.5136   -1.9159 H   0  0  0  0  0  0  0  0  0  0  0  0
   -2.8075    2.2076   -1.3980 H   0  0  0  0  0  0  0  0  0  0  0  0
   -2.8451   -0.1678    0.4567 C   0  0  0  0  0  0  0  0  0  0  0  0
   -2.7409   -1.0378   -0.2250 H   0  0  0  0  0  0  0  0  0  0  0  0
   -2.5365   -0.5503    1.4522 H   0  0  0  0  0  0  0  0  0  0  0  0
   -4.3009    0.2676    0.4914 C   0  0  0  0  0  0  0  0  0  0  0  0
   -1.8558    2.0272    1.0189 C   0  0  0  0  0  0  0  0  0  0  0  0
   -1.9308    1.5706    2.0243 H   0  0  0  0  0  0  0  0  0  0  0  0
   -2.7570    2.6507    0.8498 H   0  0  0  0  0  0  0  0  0  0  0  0
   -0.5858    2.8395    0.9254 C   0  0  0  0  0  0  0  0  0  0  0  0
    0.5071    2.5215    1.7621 C   0  0  0  0  0  0  0  0  0  0  0  0
    0.3975    1.7153    2.5045 H   0  0  0  0  0  0  0  0  0  0  0  0
    1.7168    3.2213    1.6512 C   0  0  0  0  0  0  0  0  0  0  0  0
    2.5559    2.9757    2.3207 H   0  0  0  0  0  0  0  0  0  0  0  0
    1.8539    4.2395    0.6908 C   0  0  0  0  0  0  0  0  0  0  0  0
    2.8063    4.7824    0.5938 H   0  0  0  0  0  0  0  0  0  0  0  0
    0.7694    4.5701   -0.1341 C   0  0  0  0  0  0  0  0  0  0  0  0
    0.8684    5.3672   -0.8856 H   0  0  0  0  0  0  0  0  0  0  0  0
   -0.4488    3.8830   -0.0076 C   0  0  0  0  0  0  0  0  0  0  0  0
   -1.2910    4.1492   -0.6638 H   0  0  0  0  0  0  0  0  0  0  0  0
  1 11  1  0  0  0  0
  1 15  1  0  0  0  0
  3  7  2  0  0  0  0
  4  5  1  0  0  0  0
  6 14  2  0  0  0  0
  7  2  1  0  0  0  0
  7  8  1  0  0  0  0
  8  1  1  0  0  0  0
  9  8  1  0  0  0  0
 10  8  1  0  0  0  0
 11 14  1  0  0  0  0
 11 13  1  0  0  0  0
 12 11  1  0  0  0  0
 14  4  1  0  0  0  0
 15 16  1  0  0  0  0
 17 15  1  0  0  0  0
 18 15  1  0  0  0  0
 18 19  1  0  0  0  0
 19 20  1  0  0  0  0
 21 19  2  0  0  0  0
 21 22  1  0  0  0  0
 23 21  1  0  0  0  0
 24 23  1  0  0  0  0
 25 27  1  0  0  0  0
 25 23  2  0  0  0  0
 26 25  1  0  0  0  0
 27 18  2  0  0  0  0
 28 27  1  0  0  0  0
M  CHG  1   2  -1
M  END
