1,2
q = -1.0

 30 31  0  0  1  0  0  0  0  0999 V2000
    0.9293    0.1509    1.4696 N   0  0  0  0  0  2  0  0  0  0  0  0
    1.7175   -0.5695   -0.8928 O   0  5  0  0  0  0  0  0  0  0  0  0
   -1.2659    1.8437    1.6998 N   0  0  0  0  0  0  0  0  0  0  0  0
    2.1083   -0.4746    1.3981 N   0  0  0  0  0  0  0  0  0  0  0  0
   -0.9090    1.0334    2.7282 C   0  0  0  0  0  0  0  0  0  0  0  0
    0.3945    0.3638    2.6630 C   0  0  1  0  0  3  0  0  0  0  0  0
    2.4388   -0.8165    0.1185 C   0  0  0  0  0  0  0  0  0  0  0  0
   -3.0387    1.3551    3.8323 N   0  0  0  0  0  0  0  0  0  0  0  0
    7.3969   -3.4778   -0.5552 O   0  0  0  0  0  0  0  0  0  0  0  0
    7.5474   -3.6620   -1.5013 H   0  0  0  0  0  0  0  0  0  0  0  0
    4.5663   -1.8301    1.0569 C   0  0  0  0  0  0  0  0  0  0  0  0
    4.2267   -1.5476    2.0631 H   0  0  0  0  0  0  0  0  0  0  0  0
    5.3819   -2.5353   -1.5329 C   0  0  0  0  0  0  0  0  0  0  0  0
    5.7079   -2.8162   -2.5486 H   0  0  0  0  0  0  0  0  0  0  0  0
    3.7383   -1.5167   -0.0450 C   0  0  0  0  0  0  0  0  0  0  0  0
   -1.8103    0.8255    3.8056 C   0  0  0  0  0  0  0  0  0  0  0  0
   -1.5284    0.1882    4.6612 H   0  0  0  0  0  0  0  0  0  0  0  0
   -3.3897    2.1165    2.7830 C   0  0  0  0  0  0  0  0  0  0  0  0
   -4.4042    2.5523    2.7850 H   0  0  0  0  0  0  0  0  0  0  0  0
    5.7851   -2.4839    0.8735 C   0  0  0  0  0  0  0  0  0  0  0  0
    6.4373   -2.7333    1.7230 H   0  0  0  0  0  0  0  0  0  0  0  0
    4.1635   -1.8795   -1.3395 C   0  0  0  0  0  0  0  0  0  0  0  0
    3.5104   -1.6332   -2.1892 H   0  0  0  0  0  0  0  0  0  0  0  0
   -2.4952    2.3667    1.7272 C   0  0  0  0  0  0  0  0  0  0  0  0
   -2.7809    3.0190    0.8821 H   0  0  0  0  0  0  0  0  0  0  0  0
    6.2027   -2.8421   -0.4265 C   0  0  0  0  0  0  0  0  0  0  0  0
    1.0968   -0.1479    3.8857 C   0  0  0  0  0  0  0  0  0  0  0  0
    1.1445   -1.2576    3.8756 H   0  0  0  0  0  0  0  0  0  0  0  0
    0.6165    0.1918    4.8199 H   0  0  0  0  0  0  0  0  0  0  0  0
    2.1520    0.1923    3.8733 H   0  0  0  0  0  0  0  0  0  0  0  0
  2  7  1  0  0  0  0
  3 24  2  0  0  0  0
  3  5  1  0  0  0  0
  4  1  1  0  0  0  0
  5 16  2  0  0  0  0
  6  1  1  6  0  0  0
  6  5  1  0  0  0  0
  6 27  1  0  0  0  0
  7  4  2  0  0  0  0
  9 26  1  0  0  0  0
 10  9  1  0  0  0  0
 11 12  1  0  0  0  0
 13 22  2  0  0  0  0
 13 26  1  0  0  0  0
 14 13  1  0  0  0  0
 15  7  1  0  0  0  0
 15 11  2  0  0  0  0
 16  8  1  0  0  0  0
 16 17  1  0  0  0  0
 18 19  1  0  0  0  0
 18  8  2  0  0  0  0
 20 11  1  0  0  0  0
 20 21  1  0  0  0  0
 22 15  1  0  0  0  0
 23 22  1  0  0  0  0
 24 18  1  0  0  0  0
 25 24  1  0  0  0  0
 26 20  2  0  0  0  0
 27 29  1  0  0  0  0
 28 27  1  0  0  0  0
 30 27  1  0  0  0  0
M  CHG  1   2  -1
M  END
