1,3
q = -1.0

 30 31  0  0  0  0  0  0  0  0999 V2000
    1.2847    1.7642   -0.4551 N   0  0  0  0  0  2  0  0  0  0  0  0
    3.2157    3.3413    0.2793 S   0  0  0  0  0  0  0  0  0  0  0  0
    2.0839   -1.0967   -1.0521 O   0  0  0  0  0  1  0  0  0  0  0  0
    5.2263    1.6840    0.9177 O   0  0  0  0  0  1  0  0  0  0  0  0
    2.5803    1.7545   -0.1246 C   0  0  0  0  0  0  0  0  0  0  0  0
    0.7549    3.0299   -0.4090 C   0  0  0  0  0  0  0  0  0  0  0  0
   -0.3057    3.1701   -0.6566 H   0  0  0  0  0  0  0  0  0  0  0  0
    1.6526    4.0100   -0.0430 C   0  0  0  0  0  0  0  0  0  0  0  0
    1.4723    5.0870    0.0570 H   0  0  0  0  0  0  0  0  0  0  0  0
    3.4162    0.5872   -0.0532 C   0  0  0  0  0  0  0  0  0  0  0  0
    4.3210   -1.5988   -0.2302 C   0  0  0  0  0  0  0  0  0  0  0  0
    5.1963   -0.7557    0.7632 C   0  0  0  0  0  0  0  0  0  0  0  0
    3.8650   -2.9550    0.3021 C   0  0  0  0  0  0  0  0  0  0  0  0
    3.2345   -3.4547   -0.4569 H   0  0  0  0  0  0  0  0  0  0  0  0
    3.2824   -2.8689    1.2372 H   0  0  0  0  0  0  0  0  0  0  0  0
    4.7460   -3.5980    0.4918 H   0  0  0  0  0  0  0  0  0  0  0  0
    4.9442   -1.7543   -1.6275 C   0  0  0  0  0  0  0  0  0  0  0  0
    4.1801   -2.1696   -2.3117 H   0  0  0  0  0  0  0  0  0  0  0  0
    5.8045   -2.4489   -1.5964 H   0  0  0  0  0  0  0  0  0  0  0  0
    5.2869   -0.7845   -2.0373 H   0  0  0  0  0  0  0  0  0  0  0  0
    6.6987   -0.7751    0.5012 C   0  0  0  0  0  0  0  0  0  0  0  0
    7.1988   -0.0795    1.2006 H   0  0  0  0  0  0  0  0  0  0  0  0
    6.9532   -0.4646   -0.5278 H   0  0  0  0  0  0  0  0  0  0  0  0
    7.0979   -1.7927    0.6757 H   0  0  0  0  0  0  0  0  0  0  0  0
    4.9038   -1.0338    2.2475 C   0  0  0  0  0  0  0  0  0  0  0  0
    5.3900   -0.2492    2.8581 H   0  0  0  0  0  0  0  0  0  0  0  0
    5.3151   -2.0159    2.5473 H   0  0  0  0  0  0  0  0  0  0  0  0
    3.8179   -1.0229    2.4648 H   0  0  0  0  0  0  0  0  0  0  0  0
    3.1176   -0.6959   -0.4140 N   0  0  0  0  0  0  0  0  0  0  0  0
    4.6590    0.6382    0.5041 N   0  0  0  0  0  0  0  0  0  0  0  0
  1  6  1  0  0  0  0
  1  5  1  0  0  0  0
  3 29  1  0  0  0  0
  5 10  2  0  0  0  0
  5  2  1  0  0  0  0
  6  8  2  0  0  0  0
  7  6  1  0  0  0  0
  8  9  1  0  0  0  0
  8  2  1  0  0  0  0
 10 30  1  0  0  0  0
 11 13  1  0  0  0  0
 11 12  1  0  0  0  0
 12 25  1  0  0  0  0
 13 16  1  0  0  0  0
 13 15  1  0  0  0  0
 14 13  1  0  0  0  0
 17 19  1  0  0  0  0
 17 11  1  0  0  0  0
 18 17  1  0  0  0  0
 20 17  1  0  0  0  0
 21 24  1  0  0  0  0
 21 12  1  0  0  0  0
 21 22  1  0  0  0  0
 23 21  1  0  0  0  0
 25 28  1  0  0  0  0
 25 27  1  0  0  0  0
 25 26  1  0  0  0  0
 29 11  1  0  0  0  0
 29 10  1  0  0  0  0
 30 12  1  0  0  0  0
 30  4  1  0  0  0  0
M  END
