1,12
q = -1.0, confidence = 0.0

 16 16  0  0  1  0  0  0  0  0999 V2000
    0.6925   -0.7790   -2.3250 O   0  5  0  0  0  0  0  0  0  0  0  0
   -0.6149   -1.7093   -3.9305 O   0  0  0  0  0  0  0  0  0  0  0  0
   -0.4252   -1.2281   -2.8127 C   0  0  0  0  0  0  0  0  0  0  0  0
   -1.6287   -1.1010   -1.8696 C   0  0  2  0  0  3  0  0  0  0  0  0
   -2.9084   -1.5086   -2.2735 C   0  0  0  0  0  0  0  0  0  0  0  0
   -2.9999   -1.9409   -3.2803 H   0  0  0  0  0  0  0  0  0  0  0  0
   -3.9853   -1.3488   -1.3984 C   0  0  0  0  0  0  0  0  0  0  0  0
   -5.0009   -1.6648   -1.6794 H   0  0  0  0  0  0  0  0  0  0  0  0
   -3.7472   -0.7749   -0.1344 C   0  0  0  0  0  0  0  0  0  0  0  0
   -2.4442   -0.3953    0.2089 C   0  0  0  0  0  0  0  0  0  0  0  0
   -2.2050    0.0472    1.1882 H   0  0  0  0  0  0  0  0  0  0  0  0
   -1.4122   -0.5648   -0.6438 N   0  0  0  0  0  2  0  0  0  0  0  0
   -4.8903   -0.5339    0.8239 C   0  0  0  0  0  0  0  0  0  0  0  0
   -5.7421   -1.5866    0.8415 F   0  0  0  0  0  0  0  0  0  0  0  0
   -5.6098    0.5546    0.4593 F   0  0  0  0  0  0  0  0  0  0  0  0
   -4.4554   -0.3301    2.0867 F   0  0  0  0  0  0  0  0  0  0  0  0
  2  3  2  0  0  0  0
  3  1  1  0  0  0  0
  4  3  1  6  0  0  0
  4 12  1  0  0  0  0
  5  4  1  0  0  0  0
  5  7  2  0  0  0  0
  6  5  1  0  0  0  0
  7  9  1  0  0  0  0
  8  7  1  0  0  0  0
  9 10  2  0  0  0  0
  9 13  1  0  0  0  0
 10 11  1  0  0  0  0
 12 10  1  0  0  0  0
 13 14  1  0  0  0  0
 13 16  1  0  0  0  0
 15 13  1  0  0  0  0
M  CHG  1   1  -1
M  END
