2,3
q = 0.0, confidence = 0.992

 23 23  0  0  0  0  0  0  0  0999 V2000
    4.1810   -0.5823    0.0000 S   0  0  0  0  0  3  0  0  0  0  0  0
   -0.3710    1.7005   -0.0003 N   0  0  0  0  0  2  0  0  0  0  0  0
    1.2123   -0.3468    0.0002 O   0  5  0  0  0  0  0  0  0  0  0  0
   -1.2530    2.7315   -0.0004 C   0  0  0  0  0  3  0  0  0  0  0  0
   -0.8518    4.0676   -0.0005 C   0  0  0  0  0  0  0  0  0  0  0  0
    0.5220    4.3720   -0.0004 C   0  0  0  0  0  0  0  0  0  0  0  0
    1.4367    3.3156   -0.0003 C   0  0  0  0  0  0  0  0  0  0  0  0
    0.9685    1.9901   -0.0002 C   0  0  0  0  0  0  0  0  0  0  0  0
    1.8293    0.7808   -0.0000 C   0  0  0  0  0  0  0  0  0  0  0  0
    3.2363    0.8509   -0.0001 C   0  0  0  0  0  0  0  0  0  0  0  0
    3.5953   -1.6226   -1.3929 C   0  0  0  0  0  0  0  0  0  0  0  0
    3.5957   -1.6222    1.3935 C   0  0  0  0  0  0  0  0  0  0  0  0
   -2.3157    2.4478   -0.0006 H   0  0  0  0  0  0  0  0  0  0  0  0
   -1.6137    4.8599   -0.0006 H   0  0  0  0  0  0  0  0  0  0  0  0
    0.8697    5.4153   -0.0004 H   0  0  0  0  0  0  0  0  0  0  0  0
    2.5174    3.5122   -0.0003 H   0  0  0  0  0  0  0  0  0  0  0  0
    3.8221    1.7756   -0.0001 H   0  0  0  0  0  0  0  0  0  0  0  0
    3.8896   -1.0925   -2.3165 H   0  0  0  0  0  0  0  0  0  0  0  0
    2.4971   -1.7250   -1.3185 H   0  0  0  0  0  0  0  0  0  0  0  0
    4.1115   -2.5988   -1.3256 H   0  0  0  0  0  0  0  0  0  0  0  0
    2.4975   -1.7248    1.3194 H   0  0  0  0  0  0  0  0  0  0  0  0
    3.8901   -1.0916    2.3168 H   0  0  0  0  0  0  0  0  0  0  0  0
    4.1121   -2.5983    1.3265 H   0  0  0  0  0  0  0  0  0  0  0  0
  1 12  1  0  0  0  0
  2  8  1  0  0  0  0
  4  2  1  0  0  0  0
  5  4  1  0  0  0  0
  5  6  2  0  0  0  0
  6  7  1  0  0  0  0
  7  8  2  0  0  0  0
  8  9  1  0  0  0  0
  9  3  1  0  0  0  0
 10  9  2  0  0  0  0
 10  1  1  0  0  0  0
 11 20  1  0  0  0  0
 11 19  1  0  0  0  0
 11  1  1  0  0  0  0
 12 22  1  0  0  0  0
 13  4  1  0  0  0  0
 14  5  1  0  0  0  0
 15  6  1  0  0  0  0
 16  7  1  0  0  0  0
 17 10  1  0  0  0  0
 18 11  1  0  0  0  0
 21 12  1  0  0  0  0
 23 12  1  0  0  0  0
M  CHG  1   3  -1
M  END
