1,2
q = -1.0

 29 29  0  0  0  0  0  0  0  0999 V2000
    0.9221   -1.1309    1.3341 O   0  5  0  0  0  0  0  0  0  0  0  0
    1.1626    0.5125   -1.1377 N   0  0  0  0  0  2  0  0  0  0  0  0
    1.2063    3.4020   -0.8163 N   0  0  0  0  0  0  0  0  0  0  0  0
    2.1516   -0.7533    1.5115 C   0  0  0  0  0  0  0  0  0  0  0  0
    2.8542   -1.2138    2.6737 C   0  0  0  0  0  0  0  0  0  0  0  0
    2.2882   -1.8577    3.3633 H   0  0  0  0  0  0  0  0  0  0  0  0
    4.1776   -0.8725    2.9227 C   0  0  0  0  0  0  0  0  0  0  0  0
    4.6737   -1.2551    3.8292 H   0  0  0  0  0  0  0  0  0  0  0  0
    4.8944   -0.0377    2.0307 C   0  0  0  0  0  0  0  0  0  0  0  0
    5.9402    0.2339    2.2339 H   0  0  0  0  0  0  0  0  0  0  0  0
    4.2449    0.4356    0.8981 C   0  0  0  0  0  0  0  0  0  0  0  0
    4.7790    1.0952    0.1937 H   0  0  0  0  0  0  0  0  0  0  0  0
    2.8902    0.1060    0.6000 C   0  0  0  0  0  0  0  0  0  0  0  0
    2.3437    0.6956   -0.5978 C   0  0  0  0  0  3  0  0  0  0  0  0
    3.0452    1.3718   -1.1328 H   0  0  0  0  0  0  0  0  0  0  0  0
    0.8190    1.4014   -2.2325 C   0  0  0  0  0  0  0  0  0  0  0  0
    0.0517    0.9290   -2.8796 H   0  0  0  0  0  0  0  0  0  0  0  0
    1.7143    1.6056   -2.8666 H   0  0  0  0  0  0  0  0  0  0  0  0
    0.2553    2.7341   -1.6808 C   0  0  0  0  0  0  0  0  0  0  0  0
   -0.0624    3.3704   -2.5443 H   0  0  0  0  0  0  0  0  0  0  0  0
   -0.6494    2.4757   -1.0968 H   0  0  0  0  0  0  0  0  0  0  0  0
    2.0839    4.3386   -1.4786 C   0  0  0  0  0  0  0  0  0  0  0  0
    2.5541    3.8673   -2.3672 H   0  0  0  0  0  0  0  0  0  0  0  0
    2.9027    4.6484   -0.7961 H   0  0  0  0  0  0  0  0  0  0  0  0
    1.5644    5.2713   -1.8299 H   0  0  0  0  0  0  0  0  0  0  0  0
    0.6727    3.8645    0.4500 C   0  0  0  0  0  0  0  0  0  0  0  0
    0.0011    4.7598    0.3545 H   0  0  0  0  0  0  0  0  0  0  0  0
    1.5028    4.1418    1.1329 H   0  0  0  0  0  0  0  0  0  0  0  0
    0.0923    3.0487    0.9241 H   0  0  0  0  0  0  0  0  0  0  0  0
  1  4  1  0  0  0  0
  2 14  1  0  0  0  0
  3 26  1  0  0  0  0
  4  5  1  0  0  0  0
  5  7  2  0  0  0  0
  5  6  1  0  0  0  0
  7  8  1  0  0  0  0
  9 10  1  0  0  0  0
  9  7  1  0  0  0  0
 11  9  2  0  0  0  0
 12 11  1  0  0  0  0
 13 11  1  0  0  0  0
 13  4  2  0  0  0  0
 14 13  1  0  0  0  0
 15 14  1  0  0  0  0
 16 19  1  0  0  0  0
 16  2  1  0  0  0  0
 17 16  1  0  0  0  0
 18 16  1  0  0  0  0
 19 21  1  0  0  0  0
 19  3  1  0  0  0  0
 20 19  1  0  0  0  0
 22  3  1  0  0  0  0
 22 24  1  0  0  0  0
 23 22  1  0  0  0  0
 25 22  1  0  0  0  0
 26 29  1  0  0  0  0
 26 28  1  0  0  0  0
 27 26  1  0  0  0  0
M  CHG  1   1  -1
M  END
