1,2
q = -1.0

 35 36  0  0  1  0  0  0  0  0999 V2000
   -1.3980    1.3930   -0.3369 O   0  0  0  0  0  1  0  0  0  0  0  0
    1.4905    1.3891    0.0073 N   0  0  0  0  0  2  0  0  0  0  0  0
   -1.2565    2.6815   -0.2327 C   0  0  1  0  0  3  0  0  0  0  0  0
    1.2585    2.6832    0.0468 C   0  0  0  0  0  0  0  0  0  0  0  0
    2.8482    0.9554    0.0718 C   0  0  0  0  0  0  0  0  0  0  0  0
    0.0006    3.3625   -0.0209 C   0  0  0  0  0  0  0  0  0  0  0  0
   -2.4359    3.4856   -0.3483 C   0  0  0  0  0  0  0  0  0  0  0  0
    2.1505    3.3371    0.1106 H   0  0  0  0  0  0  0  0  0  0  0  0
    3.3828    0.1666   -0.9641 C   0  0  0  0  0  0  0  0  0  0  0  0
    3.6570    1.2915    1.1723 C   0  0  0  0  0  0  0  0  0  0  0  0
    0.0138    4.7869    0.0721 C   0  0  0  0  0  0  0  0  0  0  0  0
   -2.3795    4.8685   -0.2423 C   0  0  0  0  0  0  0  0  0  0  0  0
   -3.3839    2.9538   -0.5158 H   0  0  0  0  0  0  0  0  0  0  0  0
    4.7133   -0.2577   -0.9032 C   0  0  0  0  0  0  0  0  0  0  0  0
    2.7379   -0.1120   -1.8092 H   0  0  0  0  0  0  0  0  0  0  0  0
    4.9885    0.8562    1.2241 C   0  0  0  0  0  0  0  0  0  0  0  0
    3.2259    1.8731    2.0008 H   0  0  0  0  0  0  0  0  0  0  0  0
   -1.1476    5.5384   -0.0277 C   0  0  0  0  0  0  0  0  0  0  0  0
    0.9838    5.2865    0.2273 H   0  0  0  0  0  0  0  0  0  0  0  0
   -3.3093    5.4531   -0.3275 H   0  0  0  0  0  0  0  0  0  0  0  0
    5.5404    0.0733    0.1918 C   0  0  0  0  0  0  0  0  0  0  0  0
    5.1205   -0.8725   -1.7219 H   0  0  0  0  0  0  0  0  0  0  0  0
    5.6095    1.1181    2.0955 H   0  0  0  0  0  0  0  0  0  0  0  0
   -1.1146    6.6342    0.0523 H   0  0  0  0  0  0  0  0  0  0  0  0
    6.9886   -0.3528    0.2265 C   0  0  0  0  0  0  0  0  0  0  0  0
    7.9200    0.6451   -0.5026 C   0  0  0  0  0  0  0  0  0  0  0  0
    7.3298   -0.4563    1.2776 H   0  0  0  0  0  0  0  0  0  0  0  0
    7.0965   -1.3552   -0.2408 H   0  0  0  0  0  0  0  0  0  0  0  0
    9.3573    0.2108   -0.5042 C   0  0  0  0  0  0  0  0  0  0  0  0
    7.8221    1.6483   -0.0362 H   0  0  0  0  0  0  0  0  0  0  0  0
    7.5588    0.7509   -1.5506 H   0  0  0  0  0  0  0  0  0  0  0  0
   10.3759    0.8860    0.0556 C   0  0  0  0  0  0  0  0  0  0  0  0
    9.5668   -0.7573   -0.9982 H   0  0  0  0  0  0  0  0  0  0  0  0
   10.2130    1.8523    0.5625 H   0  0  0  0  0  0  0  0  0  0  0  0
   11.4086    0.5052    0.0242 H   0  0  0  0  0  0  0  0  0  0  0  0
  2  4  1  0  0  0  0
  2  5  1  0  0  0  0
  3  1  1  6  0  0  0
  3  6  1  0  0  0  0
  4  8  1  0  0  0  0
  5 10  1  0  0  0  0
  6  4  2  0  0  0  0
  6 11  1  0  0  0  0
  7 12  2  0  0  0  0
  7  3  1  0  0  0  0
  9 14  1  0  0  0  0
  9  5  2  0  0  0  0
 10 16  2  0  0  0  0
 10 17  1  0  0  0  0
 11 19  1  0  0  0  0
 12 18  1  0  0  0  0
 13  7  1  0  0  0  0
 14 21  2  0  0  0  0
 15  9  1  0  0  0  0
 16 23  1  0  0  0  0
 18 24  1  0  0  0  0
 18 11  2  0  0  0  0
 20 12  1  0  0  0  0
 21 25  1  0  0  0  0
 21 16  1  0  0  0  0
 22 14  1  0  0  0  0
 25 27  1  0  0  0  0
 26 30  1  0  0  0  0
 26 25  1  0  0  0  0
 28 25  1  0  0  0  0
 29 26  1  0  0  0  0
 29 32  2  0  0  0  0
 31 26  1  0  0  0  0
 32 34  1  0  0  0  0
 33 29  1  0  0  0  0
 35 32  1  0  0  0  0
M  END
