1,2
q = -1.0

 35 36  0  0  0  0  0  0  0  0999 V2000
    1.3980   -1.3929    0.3368 O   0  5  0  0  0  0  0  0  0  0  0  0
   -1.4905   -1.3891   -0.0074 N   0  0  0  0  0  2  0  0  0  0  0  0
   -1.2584   -2.6832   -0.0470 C   0  0  0  0  0  0  0  0  0  0  0  0
   -0.0005   -3.3625    0.0206 C   0  0  0  0  0  0  0  0  0  0  0  0
    1.2565   -2.6814    0.2324 C   0  0  0  0  0  0  0  0  0  0  0  0
    2.4360   -3.4854    0.3478 C   0  0  0  0  0  0  0  0  0  0  0  0
    2.3796   -4.8683    0.2417 C   0  0  0  0  0  0  0  0  0  0  0  0
    1.1477   -5.5383    0.0271 C   0  0  0  0  0  0  0  0  0  0  0  0
   -0.0138   -4.7868   -0.0725 C   0  0  0  0  0  3  0  0  0  0  0  0
   -2.8482   -0.9554   -0.0718 C   0  0  0  0  0  0  0  0  0  0  0  0
   -3.3827   -0.1666    0.9642 C   0  0  0  0  0  0  0  0  0  0  0  0
   -4.7132    0.2577    0.9033 C   0  0  0  0  0  0  0  0  0  0  0  0
   -5.5405   -0.0734   -0.1915 C   0  0  0  0  0  0  0  0  0  0  0  0
   -4.9887   -0.8563   -1.2238 C   0  0  0  0  0  0  0  0  0  0  0  0
   -3.6572   -1.2916   -1.1722 C   0  0  0  0  0  0  0  0  0  0  0  0
   -6.9887    0.3527   -0.2261 C   0  0  0  0  0  0  0  0  0  0  0  0
   -7.9200   -0.6452    0.5032 C   0  0  0  0  0  0  0  0  0  0  0  0
   -9.3573   -0.2109    0.5049 C   0  0  0  0  0  0  0  0  0  0  0  0
  -10.3759   -0.8862   -0.0547 C   0  0  0  0  0  0  0  0  0  0  0  0
   -2.1505   -3.3371   -0.1107 H   0  0  0  0  0  0  0  0  0  0  0  0
    3.3839   -2.9537    0.5153 H   0  0  0  0  0  0  0  0  0  0  0  0
    3.3094   -5.4529    0.3267 H   0  0  0  0  0  0  0  0  0  0  0  0
    1.1148   -6.6341   -0.0530 H   0  0  0  0  0  0  0  0  0  0  0  0
   -0.9837   -5.2865   -0.2277 H   0  0  0  0  0  0  0  0  0  0  0  0
   -2.7377    0.1120    1.8092 H   0  0  0  0  0  0  0  0  0  0  0  0
   -5.1203    0.8725    1.7220 H   0  0  0  0  0  0  0  0  0  0  0  0
   -5.6098   -1.1182   -2.0952 H   0  0  0  0  0  0  0  0  0  0  0  0
   -3.2261   -1.8732   -2.0007 H   0  0  0  0  0  0  0  0  0  0  0  0
   -7.3300    0.4561   -1.2771 H   0  0  0  0  0  0  0  0  0  0  0  0
   -7.0966    1.3551    0.2411 H   0  0  0  0  0  0  0  0  0  0  0  0
   -7.8221   -1.6485    0.0368 H   0  0  0  0  0  0  0  0  0  0  0  0
   -7.5586   -0.7509    1.5512 H   0  0  0  0  0  0  0  0  0  0  0  0
   -9.5667    0.7572    0.9989 H   0  0  0  0  0  0  0  0  0  0  0  0
  -10.2131   -1.8526   -0.5616 H   0  0  0  0  0  0  0  0  0  0  0  0
  -11.4087   -0.5055   -0.0231 H   0  0  0  0  0  0  0  0  0  0  0  0
  3  2  1  0  0  0  0
  3  4  2  0  0  0  0
  4  5  1  0  0  0  0
  5  1  1  0  0  0  0
  5  6  2  0  0  0  0
  6 21  1  0  0  0  0
  7 22  1  0  0  0  0
  7  6  1  0  0  0  0
  8  7  2  0  0  0  0
  9  4  1  0  0  0  0
  9  8  1  0  0  0  0
 10  2  1  0  0  0  0
 10 11  1  0  0  0  0
 11 25  1  0  0  0  0
 12 11  2  0  0  0  0
 12 26  1  0  0  0  0
 13 12  1  0  0  0  0
 14 15  1  0  0  0  0
 14 13  2  0  0  0  0
 15 10  2  0  0  0  0
 16 13  1  0  0  0  0
 16 30  1  0  0  0  0
 16 17  1  0  0  0  0
 17 18  1  0  0  0  0
 17 32  1  0  0  0  0
 18 33  1  0  0  0  0
 19 35  1  0  0  0  0
 19 18  2  0  0  0  0
 20  3  1  0  0  0  0
 23  8  1  0  0  0  0
 24  9  1  0  0  0  0
 27 14  1  0  0  0  0
 28 15  1  0  0  0  0
 29 16  1  0  0  0  0
 31 17  1  0  0  0  0
 34 19  1  0  0  0  0
M  CHG  1   1  -1
M  END
