1,4
q = 0.0, confidence = 0.96

 30 34  0  0  0  0  0  0  0  0999 V2000
    0.7890   -1.1609   -0.1089 O   0  5  0  0  0  0  0  0  0  0  0  0
    7.8969    1.6071   -0.2852 O   0  0  0  0  0  0  0  0  0  0  0  0
    7.1863   -0.3086   -1.3591 O   0  0  0  0  0  0  0  0  0  0  0  0
    1.6982    0.8921    1.1270 N   0  0  0  0  0  2  0  0  0  0  0  0
    2.0412   -0.9579   -0.2687 C   0  0  0  0  0  0  0  0  0  0  0  0
    2.8969   -1.7791   -1.1065 C   0  0  0  0  0  0  0  0  0  0  0  0
    2.3632   -2.9180   -1.7528 C   0  0  0  0  0  0  0  0  0  0  0  0
    1.2982   -3.1421   -1.5956 H   0  0  0  0  0  0  0  0  0  0  0  0
    3.1723   -3.7228   -2.5515 C   0  0  0  0  0  0  0  0  0  0  0  0
    2.7527   -4.6088   -3.0510 H   0  0  0  0  0  0  0  0  0  0  0  0
    4.5349   -3.3965   -2.7111 C   0  0  0  0  0  0  0  0  0  0  0  0
    5.1814   -4.0293   -3.3379 H   0  0  0  0  0  0  0  0  0  0  0  0
    5.0799   -2.2757   -2.0791 C   0  0  0  0  0  0  0  0  0  0  0  0
    6.1420   -2.0408   -2.2174 H   0  0  0  0  0  0  0  0  0  0  0  0
    4.2825   -1.4349   -1.2629 C   0  0  0  0  0  0  0  0  0  0  0  0
    4.8186   -0.2457   -0.5932 C   0  0  0  0  0  0  0  0  0  0  0  0
    3.9545    0.5715    0.2263 C   0  0  0  0  0  0  0  0  0  0  0  0
    2.6038    0.1880    0.3952 C   0  0  0  0  0  0  0  0  0  0  0  0
    2.1033    2.0315    1.7388 C   0  0  0  0  0  0  0  0  0  0  0  0
    1.3235    2.5370    2.3306 H   0  0  0  0  0  0  0  0  0  0  0  0
    3.4150    2.4828    1.6453 C   0  0  0  0  0  0  0  0  0  0  0  0
    3.7040    3.4029    2.1741 H   0  0  0  0  0  0  0  0  0  0  0  0
    4.3909    1.7721    0.8880 C   0  0  0  0  0  0  0  0  0  0  0  0
    5.7483    2.1950    0.7643 C   0  0  0  0  0  0  0  0  0  0  0  0
    6.1153    3.1065    1.2541 H   0  0  0  0  0  0  0  0  0  0  0  0
    6.5741    1.4006   -0.0045 C   0  0  0  0  0  0  0  0  0  0  0  0
    6.1343    0.2219   -0.6646 C   0  0  0  0  0  0  0  0  0  0  0  0
    8.3387    0.4807   -1.0370 C   0  0  0  0  0  0  0  0  0  0  0  0
    9.0454   -0.1310   -0.4280 H   0  0  0  0  0  0  0  0  0  0  0  0
    8.8269    0.8202   -1.9761 H   0  0  0  0  0  0  0  0  0  0  0  0
  2 26  1  0  0  0  0
  3 28  1  0  0  0  0
  3 27  1  0  0  0  0
  4 19  1  0  0  0  0
  5  1  1  0  0  0  0
  5 18  1  0  0  0  0
  6  5  2  0  0  0  0
  7  8  1  0  0  0  0
  7  6  1  0  0  0  0
  9  7  2  0  0  0  0
 10  9  1  0  0  0  0
 11  9  1  0  0  0  0
 11 13  2  0  0  0  0
 12 11  1  0  0  0  0
 13 15  1  0  0  0  0
 14 13  1  0  0  0  0
 15  6  1  0  0  0  0
 15 16  2  0  0  0  0
 16 17  1  0  0  0  0
 17 18  2  0  0  0  0
 17 23  1  0  0  0  0
 18  4  1  0  0  0  0
 19 20  1  0  0  0  0
 21 19  2  0  0  0  0
 21 22  1  0  0  0  0
 23 21  1  0  0  0  0
 24 23  2  0  0  0  0
 24 25  1  0  0  0  0
 26 24  1  0  0  0  0
 27 16  1  0  0  0  0
 27 26  2  0  0  0  0
 28 29  1  0  0  0  0
 28  2  1  0  0  0  0
 30 28  1  0  0  0  0
M  CHG  1   1  -1
M  END
