15,18
q = -1.0

 22 22  0  0  0  0  0  0  0  0999 V2000
   -4.1008   -0.6841    0.1407 C   0  0  0  0  0  0  0  0  0  0  0  0
   -2.7460   -0.8680   -0.3210 C   0  0  0  0  0  0  0  0  0  0  0  0
   -2.4486   -1.9844   -1.1703 C   0  0  0  0  0  0  0  0  0  0  0  0
   -3.4906   -2.8618   -1.5670 C   0  0  0  0  0  0  0  0  0  0  0  0
   -3.2588   -3.6978   -2.2441 H   0  0  0  0  0  0  0  0  0  0  0  0
   -4.7908   -2.6674   -1.1056 C   0  0  0  0  0  0  0  0  0  0  0  0
   -5.5914   -3.3583   -1.4064 H   0  0  0  0  0  0  0  0  0  0  0  0
   -5.0998   -1.5850   -0.2521 C   0  0  0  0  0  0  0  0  0  0  0  0
   -6.1313   -1.4577    0.1022 H   0  0  0  0  0  0  0  0  0  0  0  0
   -4.2744    0.3681    0.9688 O   0  0  0  0  0  0  0  0  0  0  0  0
   -5.5822    0.6345    1.4573 C   0  0  0  0  0  0  0  0  0  0  0  0
   -5.9681   -0.2082    2.0719 H   0  0  0  0  0  0  0  0  0  0  0  0
   -6.2948    0.8336    0.6275 H   0  0  0  0  0  0  0  0  0  0  0  0
   -5.4992    1.5367    2.0896 H   0  0  0  0  0  0  0  0  0  0  0  0
   -1.8491    0.0131    0.0315 O   0  5  0  0  0  0  0  0  0  0  0  0
   -1.1252   -2.1661   -1.7053 C   0  0  0  0  0  3  0  0  0  0  0  0
   -1.0277   -2.9433   -2.4894 H   0  0  0  0  0  0  0  0  0  0  0  0
   -0.0514   -1.4778   -1.3893 N   0  0  0  0  0  2  0  0  0  0  0  0
    1.1647   -1.8019   -2.1458 C   0  0  0  0  0  0  0  0  0  0  0  0
    0.9225   -2.3019   -3.1054 H   0  0  0  0  0  0  0  0  0  0  0  0
    1.8076   -2.4810   -1.5518 H   0  0  0  0  0  0  0  0  0  0  0  0
    1.7499   -0.8857   -2.3440 H   0  0  0  0  0  0  0  0  0  0  0  0
  1 10  1  0  0  0  0
  2 15  1  0  0  0  0
  2  1  2  0  0  0  0
  3  2  1  0  0  0  0
  4  3  2  0  0  0  0
  4  6  1  0  0  0  0
  5  4  1  0  0  0  0
  6  8  2  0  0  0  0
  7  6  1  0  0  0  0
  8  9  1  0  0  0  0
  8  1  1  0  0  0  0
 10 11  1  0  0  0  0
 11 12  1  0  0  0  0
 11 14  1  0  0  0  0
 13 11  1  0  0  0  0
 16 18  1  0  0  0  0
 16  3  1  0  0  0  0
 17 16  1  0  0  0  0
 19 21  1  0  0  0  0
 19 18  1  0  0  0  0
 20 19  1  0  0  0  0
 22 19  1  0  0  0  0
M  CHG  1  15  -1
M  END
