1,9
q = -1.0

 39 40  0  0  1  0  0  0  0  0999 V2000
   -1.2520    1.2151   -1.0267 O   0  0  0  0  0  1  0  0  0  0  0  0
    2.6427    2.5425   -1.5915 O   0  0  0  0  0  0  0  0  0  0  0  0
    1.9218    2.2676    0.7323 C   0  0  0  0  0  0  0  0  0  0  0  0
    0.9655    2.7725    0.5442 H   0  0  0  0  0  0  0  0  0  0  0  0
    0.1013    0.5872    2.9704 C   0  0  0  0  0  0  0  0  0  0  0  0
   -0.5598    0.5914    3.8648 H   0  0  0  0  0  0  0  0  0  0  0  0
    0.6561   -0.3690    2.9355 H   0  0  0  0  0  0  0  0  0  0  0  0
    2.1877    1.7542    2.0239 C   0  0  0  0  0  0  0  0  0  0  0  0
   -0.7262    0.6788    1.7692 N   0  0  0  0  0  2  0  0  0  0  0  0
   -2.3839    1.6785   -0.5727 C   0  0  1  0  0  3  0  0  0  0  0  0
    2.8474    2.1301   -0.3125 C   0  0  0  0  0  0  0  0  0  0  0  0
   -2.7827    1.6554    0.8137 C   0  0  0  0  0  0  0  0  0  0  0  0
    1.1091    1.7605    3.0813 C   0  0  0  0  0  0  0  0  0  0  0  0
    1.5730    1.6908    4.0873 H   0  0  0  0  0  0  0  0  0  0  0  0
    0.5371    2.7132    3.0552 H   0  0  0  0  0  0  0  0  0  0  0  0
    4.9282    1.3768   -1.1365 O   0  0  0  0  0  0  0  0  0  0  0  0
    1.4295    3.2174   -1.8844 C   0  0  0  0  0  0  0  0  0  0  0  0
    1.3339    4.1579   -1.2954 H   0  0  0  0  0  0  0  0  0  0  0  0
    1.4722    3.4739   -2.9596 H   0  0  0  0  0  0  0  0  0  0  0  0
    0.5389    2.5797   -1.6927 H   0  0  0  0  0  0  0  0  0  0  0  0
    4.3776    1.0187    1.2276 C   0  0  0  0  0  0  0  0  0  0  0  0
    5.3309    0.5156    1.4344 H   0  0  0  0  0  0  0  0  0  0  0  0
   -4.0595    2.1653    1.1803 C   0  0  0  0  0  0  0  0  0  0  0  0
   -4.3429    2.1343    2.2447 H   0  0  0  0  0  0  0  0  0  0  0  0
   -4.5266    2.7588   -1.1134 C   0  0  0  0  0  0  0  0  0  0  0  0
   -5.2002    3.1946   -1.8682 H   0  0  0  0  0  0  0  0  0  0  0  0
    4.0974    1.4858   -0.0634 C   0  0  0  0  0  0  0  0  0  0  0  0
   -3.2862    2.2741   -1.5085 C   0  0  0  0  0  0  0  0  0  0  0  0
   -2.9662    2.3098   -2.5597 H   0  0  0  0  0  0  0  0  0  0  0  0
   -1.8985    1.2473    1.8704 C   0  0  0  0  0  0  0  0  0  0  0  0
   -2.2482    1.4843    2.8967 H   0  0  0  0  0  0  0  0  0  0  0  0
   -4.9358    2.6973    0.2415 C   0  0  0  0  0  0  0  0  0  0  0  0
   -5.9173    3.0866    0.5478 H   0  0  0  0  0  0  0  0  0  0  0  0
    6.2106    0.8229   -0.9210 C   0  0  0  0  0  0  0  0  0  0  0  0
    6.1512   -0.2329   -0.5734 H   0  0  0  0  0  0  0  0  0  0  0  0
    6.7320    0.8533   -1.8963 H   0  0  0  0  0  0  0  0  0  0  0  0
    6.7962    1.4133   -0.1796 H   0  0  0  0  0  0  0  0  0  0  0  0
    3.4251    1.1416    2.2565 C   0  0  0  0  0  0  0  0  0  0  0  0
    3.6543    0.7287    3.2511 H   0  0  0  0  0  0  0  0  0  0  0  0
  2 11  1  0  0  0  0
  3  8  1  0  0  0  0
  4  3  1  0  0  0  0
  5 13  1  0  0  0  0
  5  6  1  0  0  0  0
  7  5  1  0  0  0  0
  8 38  2  0  0  0  0
  8 13  1  0  0  0  0
  9 30  1  0  0  0  0
  9  5  1  0  0  0  0
 10  1  1  1  0  0  0
 10 12  1  0  0  0  0
 11 27  1  0  0  0  0
 11  3  2  0  0  0  0
 12 23  1  0  0  0  0
 12 30  2  0  0  0  0
 13 14  1  0  0  0  0
 15 13  1  0  0  0  0
 16 34  1  0  0  0  0
 16 27  1  0  0  0  0
 17 20  1  0  0  0  0
 17  2  1  0  0  0  0
 17 18  1  0  0  0  0
 19 17  1  0  0  0  0
 21 22  1  0  0  0  0
 21 38  1  0  0  0  0
 23 24  1  0  0  0  0
 25 32  1  0  0  0  0
 26 25  1  0  0  0  0
 27 21  2  0  0  0  0
 28 25  2  0  0  0  0
 28 10  1  0  0  0  0
 29 28  1  0  0  0  0
 30 31  1  0  0  0  0
 32 33  1  0  0  0  0
 32 23  2  0  0  0  0
 34 35  1  0  0  0  0
 34 37  1  0  0  0  0
 36 34  1  0  0  0  0
 38 39  1  0  0  0  0
M  END
