1,2
q = -1.0

 18 18  0  0  1  0  0  0  0  0999 V2000
   -0.4680   -0.4893    2.0277 O   0  0  0  0  0  1  0  0  0  0  0  0
    1.1240    0.0430    0.6039 N   0  0  0  0  0  2  0  0  0  0  0  0
    0.7970   -0.3761    1.8205 C   0  0  1  0  0  3  0  0  0  0  0  0
    2.4382    0.1229    0.1129 C   0  0  0  0  0  0  0  0  0  0  0  0
    2.9541    1.3583   -0.3353 C   0  0  0  0  0  0  0  0  0  0  0  0
    4.2541    1.4408   -0.8510 C   0  0  0  0  0  0  0  0  0  0  0  0
    5.0624    0.2947   -0.9314 C   0  0  0  0  0  0  0  0  0  0  0  0
    4.5566   -0.9389   -0.4916 C   0  0  0  0  0  0  0  0  0  0  0  0
    3.2550   -1.0268    0.0221 C   0  0  0  0  0  0  0  0  0  0  0  0
    1.7645   -0.7037    2.9281 C   0  0  0  0  0  0  0  0  0  0  0  0
    2.3164    2.2512   -0.2670 H   0  0  0  0  0  0  0  0  0  0  0  0
    4.6413    2.4125   -1.1941 H   0  0  0  0  0  0  0  0  0  0  0  0
    6.0819    0.3623   -1.3396 H   0  0  0  0  0  0  0  0  0  0  0  0
    5.1785   -1.8451   -0.5553 H   0  0  0  0  0  0  0  0  0  0  0  0
    2.8493   -1.9961    0.3501 H   0  0  0  0  0  0  0  0  0  0  0  0
    2.7566   -0.2445    2.7645 H   0  0  0  0  0  0  0  0  0  0  0  0
    1.8977   -1.8030    2.9955 H   0  0  0  0  0  0  0  0  0  0  0  0
    1.3342   -0.3660    3.8900 H   0  0  0  0  0  0  0  0  0  0  0  0
  2  3  1  0  0  0  0
  3  1  1  1  0  0  0
  3 10  1  0  0  0  0
  4  2  1  0  0  0  0
  5 11  1  0  0  0  0
  5  4  2  0  0  0  0
  6  5  1  0  0  0  0
  7  6  2  0  0  0  0
  7  8  1  0  0  0  0
  8  9  2  0  0  0  0
  9  4  1  0  0  0  0
  9 15  1  0  0  0  0
 10 17  1  0  0  0  0
 10 18  1  0  0  0  0
 12  6  1  0  0  0  0
 13  7  1  0  0  0  0
 14  8  1  0  0  0  0
 16 10  1  0  0  0  0
M  END
