1,3
q = -1.0, confidence = 0.004

 12 12  0  0  1  0  0  0  0  0999 V2000
   -0.2856   -1.9434   -0.0066 O   0  5  0  0  0  0  0  0  0  0  0  0
   -2.3836   -2.7709   -0.0087 O   0  0  0  0  0  0  0  0  0  0  0  0
   -1.1138    0.5505    0.0005 N   0  0  0  0  0  2  0  0  0  0  0  0
   -3.3991   -0.1237   -0.0013 N   0  0  0  0  0  0  0  0  0  0  0  0
   -1.5948   -1.8351   -0.0061 C   0  0  0  0  0  0  0  0  0  0  0  0
   -2.0865   -0.3835   -0.0020 C   0  0  1  0  0  3  0  0  0  0  0  0
   -3.7446    1.1766    0.0024 C   0  0  0  0  0  0  0  0  0  0  0  0
   -4.8285    1.3979    0.0030 H   0  0  0  0  0  0  0  0  0  0  0  0
   -2.8063    2.2167    0.0052 C   0  0  0  0  0  0  0  0  0  0  0  0
   -3.1130    3.2728    0.0082 H   0  0  0  0  0  0  0  0  0  0  0  0
   -1.4511    1.8502    0.0042 C   0  0  0  0  0  0  0  0  0  0  0  0
   -0.6095    2.5604    0.0060 H   0  0  0  0  0  0  0  0  0  0  0  0
  1  5  1  0  0  0  0
  2  5  2  0  0  0  0
  3 11  1  0  0  0  0
  4  7  2  0  0  0  0
  6  5  1  6  0  0  0
  6  4  1  0  0  0  0
  6  3  1  0  0  0  0
  7  8  1  0  0  0  0
  7  9  1  0  0  0  0
  9 10  1  0  0  0  0
 11  9  2  0  0  0  0
 11 12  1  0  0  0  0
M  CHG  1   1  -1
M  END
