1,2
q = -1.0, confidence = 0.028

 25 25  0  0  1  0  0  0  0  0999 V2000
   -2.0862    0.5570   -0.2469 N   0  0  0  0  0  2  0  0  0  0  0  0
   -1.1165   -1.1017    1.3400 O   0  0  0  0  0  1  0  0  0  0  0  0
   -3.4582    1.6149    1.1908 O   0  0  0  0  0  0  0  0  0  0  0  0
   -2.0980   -0.3374    2.0057 C   0  0  0  0  0  0  0  0  0  0  0  0
   -2.5501    0.6573    0.9585 C   0  0  1  0  0  3  0  0  0  0  0  0
   -3.5191    2.3881   -0.0455 C   0  0  0  0  0  0  0  0  0  0  0  0
   -2.9358    3.3196    0.1145 H   0  0  0  0  0  0  0  0  0  0  0  0
   -4.5783    2.6349   -0.2460 H   0  0  0  0  0  0  0  0  0  0  0  0
   -2.8714    1.4768   -1.1279 C   0  0  0  0  0  0  0  0  0  0  0  0
   -1.9918    2.2638   -2.0972 C   0  0  0  0  0  0  0  0  0  0  0  0
   -1.2233    2.8514   -1.5639 H   0  0  0  0  0  0  0  0  0  0  0  0
   -2.6215    2.9591   -2.6879 H   0  0  0  0  0  0  0  0  0  0  0  0
   -1.4829    1.5711   -2.7925 H   0  0  0  0  0  0  0  0  0  0  0  0
   -3.9240    0.6497   -1.8807 C   0  0  0  0  0  0  0  0  0  0  0  0
   -3.4341   -0.1034   -2.5254 H   0  0  0  0  0  0  0  0  0  0  0  0
   -4.5440    1.3204   -2.5096 H   0  0  0  0  0  0  0  0  0  0  0  0
   -4.5801    0.1009   -1.1778 H   0  0  0  0  0  0  0  0  0  0  0  0
   -3.2844   -1.2518    2.3726 C   0  0  0  0  0  0  0  0  0  0  0  0
   -3.6376   -1.7778    1.4648 H   0  0  0  0  0  0  0  0  0  0  0  0
   -4.1122   -0.6651    2.8178 H   0  0  0  0  0  0  0  0  0  0  0  0
   -2.9357   -2.0053    3.1051 H   0  0  0  0  0  0  0  0  0  0  0  0
   -1.5171    0.3525    3.2490 C   0  0  0  0  0  0  0  0  0  0  0  0
   -1.1981   -0.4205    3.9736 H   0  0  0  0  0  0  0  0  0  0  0  0
   -2.2747    1.0055    3.7247 H   0  0  0  0  0  0  0  0  0  0  0  0
   -0.6246    0.9545    2.9934 H   0  0  0  0  0  0  0  0  0  0  0  0
  1  5  1  0  0  0  0
  2  4  1  0  0  0  0
  4 18  1  0  0  0  0
  4 22  1  0  0  0  0
  5  3  1  0  0  0  0
  5  4  1  6  0  0  0
  6  7  1  0  0  0  0
  6  3  1  0  0  0  0
  8  6  1  0  0  0  0
  9  1  1  0  0  0  0
  9  6  1  0  0  0  0
 10 11  1  0  0  0  0
 10  9  1  0  0  0  0
 12 10  1  0  0  0  0
 13 10  1  0  0  0  0
 14 17  1  0  0  0  0
 14  9  1  0  0  0  0
 15 14  1  0  0  0  0
 16 14  1  0  0  0  0
 18 20  1  0  0  0  0
 18 21  1  0  0  0  0
 19 18  1  0  0  0  0
 22 24  1  0  0  0  0
 22 23  1  0  0  0  0
 25 22  1  0  0  0  0
M  END
