1,8
q = -1.0, confidence = 0.0

 23 23  0  0  1  0  0  0  0  0999 V2000
    0.6779    0.5929   -2.0924 O   0  5  0  0  0  0  0  0  0  0  0  0
    2.5341    0.7929   -3.3745 O   0  0  0  0  0  0  0  0  0  0  0  0
    4.9830    0.0779   -3.2813 O   0  0  0  0  0  0  0  0  0  0  0  0
    3.9825    0.3888   -3.3628 H   0  0  0  0  0  0  0  0  0  0  0  0
    6.2853   -0.9949   -1.7780 O   0  0  0  0  0  0  0  0  0  0  0  0
    4.1772   -1.2867    0.0000 N   0  0  0  0  0  0  0  0  0  0  0  0
    5.0761   -1.6861    0.2895 H   0  0  0  0  0  0  0  0  0  0  0  0
    2.0796   -0.6315   -0.0862 N   0  0  0  0  0  2  0  0  0  0  0  0
    1.9216    0.4208   -2.3402 C   0  0  0  0  0  0  0  0  0  0  0  0
    5.2037   -0.5376   -2.1361 C   0  0  0  0  0  0  0  0  0  0  0  0
    2.6983   -0.2666   -1.2615 C   0  0  0  0  0  0  0  0  0  0  0  0
    2.9888   -1.2574    0.6711 C   0  0  1  0  0  3  0  0  0  0  0  0
    4.0302   -0.6661   -1.2219 C   0  0  0  0  0  0  0  0  0  0  0  0
    2.7327   -1.9169    1.9848 C   0  0  0  0  0  0  0  0  0  0  0  0
    3.6906   -2.0287    2.5358 H   0  0  0  0  0  0  0  0  0  0  0  0
    2.0944   -1.2408    2.5912 H   0  0  0  0  0  0  0  0  0  0  0  0
    2.0321   -3.2847    1.8371 C   0  0  0  0  0  0  0  0  0  0  0  0
    2.6948   -3.9650    1.2601 H   0  0  0  0  0  0  0  0  0  0  0  0
    1.1198   -3.1487    1.2178 H   0  0  0  0  0  0  0  0  0  0  0  0
    1.6858   -3.9093    3.1870 C   0  0  0  0  0  0  0  0  0  0  0  0
    2.5899   -4.0843    3.8074 H   0  0  0  0  0  0  0  0  0  0  0  0
    1.1731   -4.8828    3.0570 H   0  0  0  0  0  0  0  0  0  0  0  0
    1.0088   -3.2513    3.7725 H   0  0  0  0  0  0  0  0  0  0  0  0
  2  9  2  0  0  0  0
  3 10  1  0  0  0  0
  4  3  1  0  0  0  0
  6  7  1  0  0  0  0
  6 12  1  0  0  0  0
  8 12  1  0  0  0  0
  9  1  1  0  0  0  0
  9 11  1  0  0  0  0
 10  5  2  0  0  0  0
 10 13  1  0  0  0  0
 11 13  2  0  0  0  0
 11  8  1  0  0  0  0
 12 14  1  6  0  0  0
 13  6  1  0  0  0  0
 14 15  1  0  0  0  0
 14 16  1  0  0  0  0
 17 14  1  0  0  0  0
 17 20  1  0  0  0  0
 18 17  1  0  0  0  0
 19 17  1  0  0  0  0
 20 23  1  0  0  0  0
 20 21  1  0  0  0  0
 22 20  1  0  0  0  0
M  CHG  1   1  -1
M  END
