3,4
q = 0.0, confidence = 0.996

 42 44  0  0  0  0  0  0  0  0999 V2000
   -3.8605   -1.5484    0.1844 S   0  0  0  0  0  0  0  0  0  0  0  0
    4.7020   -1.6508   -1.4171 S   0  0  0  0  0  0  0  0  0  0  0  0
   -0.6133    0.5362   -0.7132 O   0  5  0  0  0  0  0  0  0  0  0  0
    1.7936   -0.5531    0.3454 N   0  0  0  0  0  2  0  0  0  0  0  0
   -2.8456    1.6109   -0.1716 N   0  0  0  0  0  4  0  0  0  0  0  0
   -2.1695    0.8350   -0.4335 H   0  0  0  0  0  0  0  0  0  0  0  0
   -0.0421    1.6614   -0.4571 C   0  0  0  0  0  0  0  0  0  0  0  0
    1.3822    1.7800   -0.2298 C   0  0  0  0  0  0  0  0  0  0  0  0
    1.9637    3.0557   -0.1910 C   0  0  0  0  0  0  0  0  0  0  0  0
    3.0597    3.1194   -0.0784 H   0  0  0  0  0  0  0  0  0  0  0  0
    1.2147    4.2590   -0.2390 C   0  0  0  0  0  0  0  0  0  0  0  0
    1.9094    5.5966   -0.2064 C   0  0  0  0  0  0  0  0  0  0  0  0
    1.1863    6.4272   -0.0934 H   0  0  0  0  0  0  0  0  0  0  0  0
    2.4815    5.7769   -1.1412 H   0  0  0  0  0  0  0  0  0  0  0  0
    2.6337    5.6599    0.6316 H   0  0  0  0  0  0  0  0  0  0  0  0
   -0.1765    4.1442   -0.2692 C   0  0  0  0  0  0  0  0  0  0  0  0
   -0.7985    5.0531   -0.2084 H   0  0  0  0  0  0  0  0  0  0  0  0
   -0.8241    2.8836   -0.3501 C   0  0  0  0  0  0  0  0  0  0  0  0
   -2.2313    2.7696   -0.1203 C   0  0  0  0  0  0  0  0  0  0  0  0
   -2.8106    3.6606    0.1873 H   0  0  0  0  0  0  0  0  0  0  0  0
    2.2292    0.6134   -0.0037 C   0  0  0  0  0  3  0  0  0  0  0  0
    3.3249    0.7790   -0.0983 H   0  0  0  0  0  0  0  0  0  0  0  0
    2.7081   -1.6812    0.5790 C   0  0  0  0  0  0  0  0  0  0  0  0
    2.2531   -2.5437    0.0417 H   0  0  0  0  0  0  0  0  0  0  0  0
    2.6265   -1.9432    1.6568 H   0  0  0  0  0  0  0  0  0  0  0  0
    4.1458   -1.4698    0.2284 C   0  0  0  0  0  0  0  0  0  0  0  0
    5.1844   -1.0519    1.0474 C   0  0  0  0  0  0  0  0  0  0  0  0
    5.0507   -0.8751    2.1244 H   0  0  0  0  0  0  0  0  0  0  0  0
    6.4215   -0.8892    0.3527 C   0  0  0  0  0  0  0  0  0  0  0  0
    7.3623   -0.5797    0.8282 H   0  0  0  0  0  0  0  0  0  0  0  0
    6.3109   -1.1754   -0.9952 C   0  0  0  0  0  0  0  0  0  0  0  0
    7.0933   -1.1480   -1.7636 H   0  0  0  0  0  0  0  0  0  0  0  0
   -4.1380    1.2479    0.4120 C   0  0  0  0  0  0  0  0  0  0  0  0
   -4.8663    2.0694    0.2518 H   0  0  0  0  0  0  0  0  0  0  0  0
   -3.9720    1.1283    1.5055 H   0  0  0  0  0  0  0  0  0  0  0  0
   -4.6431   -0.0293   -0.1865 C   0  0  0  0  0  0  0  0  0  0  0  0
   -5.6474   -0.2004   -1.1255 C   0  0  0  0  0  0  0  0  0  0  0  0
   -6.2562    0.6326   -1.5061 H   0  0  0  0  0  0  0  0  0  0  0  0
   -5.7942   -1.5586   -1.5403 C   0  0  0  0  0  0  0  0  0  0  0  0
   -6.5367   -1.9052   -2.2719 H   0  0  0  0  0  0  0  0  0  0  0  0
   -4.8851   -2.3957   -0.9209 C   0  0  0  0  0  0  0  0  0  0  0  0
   -4.7543   -3.4772   -1.0492 H   0  0  0  0  0  0  0  0  0  0  0  0
  2 31  1  0  0  0  0
  2 26  1  0  0  0  0
  3  7  1  0  0  0  0
  4 23  1  0  0  0  0
  5 19  2  0  0  0  0
  5 33  1  0  0  0  0
  6  5  1  0  0  0  0
  7 18  2  0  0  0  0
  7  8  1  0  0  0  0
  8  9  2  0  0  0  0
  8 21  1  0  0  0  0
  9 10  1  0  0  0  0
 11 12  1  0  0  0  0
 11  9  1  0  0  0  0
 12 13  1  0  0  0  0
 12 15  1  0  0  0  0
 14 12  1  0  0  0  0
 16 11  2  0  0  0  0
 16 17  1  0  0  0  0
 18 16  1  0  0  0  0
 18 19  1  0  0  0  0
 19 20  1  0  0  0  0
 21  4  1  0  0  0  0
 22 21  1  0  0  0  0
 23 25  1  0  0  0  0
 24 23  1  0  0  0  0
 26 23  1  0  0  0  0
 26 27  2  0  0  0  0
 27 28  1  0  0  0  0
 29 30  1  0  0  0  0
 29 27  1  0  0  0  0
 31 29  2  0  0  0  0
 32 31  1  0  0  0  0
 33 35  1  0  0  0  0
 34 33  1  0  0  0  0
 36  1  1  0  0  0  0
 36 33  1  0  0  0  0
 37 36  2  0  0  0  0
 38 37  1  0  0  0  0
 39 37  1  0  0  0  0
 39 41  2  0  0  0  0
 40 39  1  0  0  0  0
 41  1  1  0  0  0  0
 42 41  1  0  0  0  0
M  CHG  1   3  -1
M  END
