1,3
q = -1.0

 35 36  0  0  0  0  0  0  0  0999 V2000
    1.7080   -0.6188    0.3931 O   0  5  0  0  0  0  0  0  0  0  0  0
    4.3089   -0.7761    0.7374 O   0  0  0  0  0  0  0  0  0  0  0  0
   -0.6763   -1.8083   -0.2091 N   0  0  0  0  0  2  0  0  0  0  0  0
    1.5206   -2.9205   -0.2951 C   0  0  0  0  0  0  0  0  0  0  0  0
    2.2522   -1.7698    0.1294 C   0  0  0  0  0  0  0  0  0  0  0  0
    3.6790   -1.9095    0.3067 C   0  0  0  0  0  0  0  0  0  0  0  0
    4.3107   -3.1235    0.0343 C   0  0  0  0  0  0  0  0  0  0  0  0
    5.3984   -3.2168    0.1581 H   0  0  0  0  0  0  0  0  0  0  0  0
    3.5660   -4.2486   -0.4050 C   0  0  0  0  0  0  0  0  0  0  0  0
    4.0876   -5.1939   -0.6127 H   0  0  0  0  0  0  0  0  0  0  0  0
    2.1920   -4.1492   -0.5594 C   0  0  0  0  0  3  0  0  0  0  0  0
    1.5978   -5.0186   -0.8816 H   0  0  0  0  0  0  0  0  0  0  0  0
    5.6981   -0.8429    0.9821 C   0  0  0  0  0  0  0  0  0  0  0  0
    6.2732   -1.0864    0.0596 H   0  0  0  0  0  0  0  0  0  0  0  0
    6.0027    0.1590    1.3392 H   0  0  0  0  0  0  0  0  0  0  0  0
    5.9440   -1.5982    1.7626 H   0  0  0  0  0  0  0  0  0  0  0  0
    0.0887   -2.8613   -0.3605 C   0  0  0  0  0  0  0  0  0  0  0  0
   -0.4057   -3.8363   -0.5226 H   0  0  0  0  0  0  0  0  0  0  0  0
   -2.1377   -2.0136   -0.1104 C   0  0  0  0  0  0  0  0  0  0  0  0
   -2.5955   -1.1665   -0.6567 H   0  0  0  0  0  0  0  0  0  0  0  0
   -2.5645   -1.8734    1.3636 C   0  0  0  0  0  0  0  0  0  0  0  0
   -2.0940   -2.6963    1.9489 H   0  0  0  0  0  0  0  0  0  0  0  0
   -2.1595   -0.9207    1.7605 H   0  0  0  0  0  0  0  0  0  0  0  0
   -4.0901   -1.9152    1.5049 C   0  0  0  0  0  0  0  0  0  0  0  0
   -4.5058   -1.0094    1.0148 H   0  0  0  0  0  0  0  0  0  0  0  0
   -4.3749   -1.8613    2.5765 H   0  0  0  0  0  0  0  0  0  0  0  0
   -4.6869   -3.1678    0.8508 C   0  0  0  0  0  0  0  0  0  0  0  0
   -5.7959   -3.1444    0.9053 H   0  0  0  0  0  0  0  0  0  0  0  0
   -4.3659   -4.0700    1.4195 H   0  0  0  0  0  0  0  0  0  0  0  0
   -4.2268   -3.3094   -0.6065 C   0  0  0  0  0  0  0  0  0  0  0  0
   -4.6375   -4.2371   -1.0570 H   0  0  0  0  0  0  0  0  0  0  0  0
   -4.6292   -2.4616   -1.2047 H   0  0  0  0  0  0  0  0  0  0  0  0
   -2.6940   -3.3103   -0.7107 C   0  0  0  0  0  0  0  0  0  0  0  0
   -2.3726   -3.4124   -1.7690 H   0  0  0  0  0  0  0  0  0  0  0  0
   -2.3091   -4.2012   -0.1644 H   0  0  0  0  0  0  0  0  0  0  0  0
  2 13  1  0  0  0  0
  3 19  1  0  0  0  0
  4  5  1  0  0  0  0
  5  6  2  0  0  0  0
  5  1  1  0  0  0  0
  6  2  1  0  0  0  0
  7  8  1  0  0  0  0
  7  6  1  0  0  0  0
  9  7  2  0  0  0  0
 10  9  1  0  0  0  0
 11  9  1  0  0  0  0
 11  4  1  0  0  0  0
 12 11  1  0  0  0  0
 13 15  1  0  0  0  0
 13 16  1  0  0  0  0
 14 13  1  0  0  0  0
 17  4  2  0  0  0  0
 17  3  1  0  0  0  0
 18 17  1  0  0  0  0
 19 21  1  0  0  0  0
 20 19  1  0  0  0  0
 21 24  1  0  0  0  0
 21 23  1  0  0  0  0
 21 22  1  0  0  0  0
 24 26  1  0  0  0  0
 25 24  1  0  0  0  0
 27 28  1  0  0  0  0
 27 29  1  0  0  0  0
 27 24  1  0  0  0  0
 30 27  1  0  0  0  0
 31 30  1  0  0  0  0
 32 30  1  0  0  0  0
 33 30  1  0  0  0  0
 33 35  1  0  0  0  0
 33 19  1  0  0  0  0
 34 33  1  0  0  0  0
M  CHG  1   1  -1
M  END
