1,3
q = -1.0, confidence = 0.006

 35 36  0  0  1  0  0  0  0  0999 V2000
   -1.7080    0.6187   -0.3931 O   0  0  0  0  0  1  0  0  0  0  0  0
   -4.3087    0.7761   -0.7382 O   0  0  0  0  0  0  0  0  0  0  0  0
    0.6763    1.8082    0.2094 N   0  0  0  0  0  2  0  0  0  0  0  0
   -1.5206    2.9202    0.2956 C   0  0  0  0  0  0  0  0  0  0  0  0
   -2.2521    1.7697   -0.1294 C   0  0  1  0  0  3  0  0  0  0  0  0
   -3.6789    1.9094   -0.3071 C   0  0  0  0  0  0  0  0  0  0  0  0
   -4.3106    3.1234   -0.0346 C   0  0  0  0  0  0  0  0  0  0  0  0
   -5.3983    3.2167   -0.1586 H   0  0  0  0  0  0  0  0  0  0  0  0
   -3.5660    4.2484    0.4051 C   0  0  0  0  0  0  0  0  0  0  0  0
   -4.0876    5.1937    0.6129 H   0  0  0  0  0  0  0  0  0  0  0  0
   -2.1921    4.1489    0.5599 C   0  0  0  0  0  0  0  0  0  0  0  0
   -1.5980    5.0182    0.8825 H   0  0  0  0  0  0  0  0  0  0  0  0
   -5.6978    0.8431   -0.9836 C   0  0  0  0  0  0  0  0  0  0  0  0
   -6.2733    1.0864   -0.0613 H   0  0  0  0  0  0  0  0  0  0  0  0
   -6.0023   -0.1586   -1.3412 H   0  0  0  0  0  0  0  0  0  0  0  0
   -5.9433    1.5988   -1.7639 H   0  0  0  0  0  0  0  0  0  0  0  0
   -0.0888    2.8611    0.3612 C   0  0  0  0  0  0  0  0  0  0  0  0
    0.4056    3.8361    0.5237 H   0  0  0  0  0  0  0  0  0  0  0  0
    2.1377    2.0136    0.1106 C   0  0  0  0  0  0  0  0  0  0  0  0
    2.5957    1.1664    0.6566 H   0  0  0  0  0  0  0  0  0  0  0  0
    2.5643    1.8738   -1.3635 C   0  0  0  0  0  0  0  0  0  0  0  0
    2.0936    2.6969   -1.9485 H   0  0  0  0  0  0  0  0  0  0  0  0
    2.1592    0.9212   -1.7605 H   0  0  0  0  0  0  0  0  0  0  0  0
    4.0898    1.9158   -1.5051 C   0  0  0  0  0  0  0  0  0  0  0  0
    4.5056    1.0098   -1.0153 H   0  0  0  0  0  0  0  0  0  0  0  0
    4.3744    1.8622   -2.5768 H   0  0  0  0  0  0  0  0  0  0  0  0
    4.6866    3.1682   -0.8507 C   0  0  0  0  0  0  0  0  0  0  0  0
    5.7956    3.1449   -0.9054 H   0  0  0  0  0  0  0  0  0  0  0  0
    4.3655    4.0706   -1.4191 H   0  0  0  0  0  0  0  0  0  0  0  0
    4.2269    3.3093    0.6067 C   0  0  0  0  0  0  0  0  0  0  0  0
    4.6375    4.2369    1.0573 H   0  0  0  0  0  0  0  0  0  0  0  0
    4.6294    2.4614    1.2045 H   0  0  0  0  0  0  0  0  0  0  0  0
    2.6940    3.3101    0.7111 C   0  0  0  0  0  0  0  0  0  0  0  0
    2.3728    3.4119    1.7696 H   0  0  0  0  0  0  0  0  0  0  0  0
    2.3089    4.2012    0.1652 H   0  0  0  0  0  0  0  0  0  0  0  0
  2  6  1  0  0  0  0
  3 17  1  0  0  0  0
  4 17  2  0  0  0  0
  4 11  1  0  0  0  0
  5  1  1  6  0  0  0
  5  4  1  0  0  0  0
  6  5  1  0  0  0  0
  6  7  2  0  0  0  0
  7  9  1  0  0  0  0
  8  7  1  0  0  0  0
  9 11  2  0  0  0  0
  9 10  1  0  0  0  0
 11 12  1  0  0  0  0
 13  2  1  0  0  0  0
 13 14  1  0  0  0  0
 15 13  1  0  0  0  0
 16 13  1  0  0  0  0
 17 18  1  0  0  0  0
 19  3  1  0  0  0  0
 19 20  1  0  0  0  0
 19 33  1  0  0  0  0
 21 19  1  0  0  0  0
 22 21  1  0  0  0  0
 23 21  1  0  0  0  0
 24 21  1  0  0  0  0
 24 25  1  0  0  0  0
 24 27  1  0  0  0  0
 26 24  1  0  0  0  0
 27 30  1  0  0  0  0
 28 27  1  0  0  0  0
 29 27  1  0  0  0  0
 30 33  1  0  0  0  0
 30 31  1  0  0  0  0
 30 32  1  0  0  0  0
 33 34  1  0  0  0  0
 35 33  1  0  0  0  0
M  END
