1,2
q = -1.0

 29 30  0  0  1  0  0  0  0  0999 V2000
   -1.3890   -0.6426   -0.7772 O   0  5  0  0  0  0  0  0  0  0  0  0
    0.1125    1.2298    0.1133 N   0  0  0  0  0  2  0  0  0  0  0  0
   -1.2276    1.4967    0.0878 N   0  0  0  0  0  0  0  0  0  0  0  0
    2.9306    1.6192   -0.7628 N   0  0  0  0  0  0  0  0  0  0  0  0
    2.3917    1.1748   -1.5377 H   0  0  0  0  0  0  0  0  0  0  0  0
    4.5994    2.3459    0.5469 C   0  0  0  0  0  0  0  0  0  0  0  0
    5.6063    2.5745    0.9134 H   0  0  0  0  0  0  0  0  0  0  0  0
    3.3694    2.6433    1.1871 C   0  0  0  0  0  0  0  0  0  0  0  0
    3.2332    3.1290    2.1600 H   0  0  0  0  0  0  0  0  0  0  0  0
    2.3338    2.1600    0.3603 C   0  0  0  0  0  0  0  0  0  0  0  0
    4.2875    1.7191   -0.6674 C   0  0  0  0  0  0  0  0  0  0  0  0
    4.9369    1.3721   -1.4790 H   0  0  0  0  0  0  0  0  0  0  0  0
    0.8937    2.2154    0.5370 C   0  0  1  0  0  3  0  0  0  0  0  0
    0.2772    3.4459    1.1401 C   0  0  0  0  0  0  0  0  0  0  0  0
   -0.2388    4.0345    0.3526 H   0  0  0  0  0  0  0  0  0  0  0  0
    1.0518    4.0860    1.5994 H   0  0  0  0  0  0  0  0  0  0  0  0
   -0.5015    3.1773    1.8804 H   0  0  0  0  0  0  0  0  0  0  0  0
   -1.9234    0.4874   -0.4146 C   0  0  0  0  0  0  0  0  0  0  0  0
   -3.3950    0.6266   -0.5378 C   0  0  0  0  0  0  0  0  0  0  0  0
   -4.0458    1.8155   -0.1424 C   0  0  0  0  0  0  0  0  0  0  0  0
   -3.4354    2.6422    0.2470 H   0  0  0  0  0  0  0  0  0  0  0  0
   -5.4370    1.9246   -0.2513 C   0  0  0  0  0  0  0  0  0  0  0  0
   -5.9384    2.8541    0.0593 H   0  0  0  0  0  0  0  0  0  0  0  0
   -6.1936    0.8536   -0.7586 C   0  0  0  0  0  0  0  0  0  0  0  0
   -7.2873    0.9432   -0.8450 H   0  0  0  0  0  0  0  0  0  0  0  0
   -5.5502   -0.3290   -1.1582 C   0  0  0  0  0  0  0  0  0  0  0  0
   -6.1390   -1.1676   -1.5603 H   0  0  0  0  0  0  0  0  0  0  0  0
   -4.1579   -0.4443   -1.0495 C   0  0  0  0  0  0  0  0  0  0  0  0
   -3.6357   -1.3595   -1.3626 H   0  0  0  0  0  0  0  0  0  0  0  0
  1 18  1  0  0  0  0
  3  2  1  0  0  0  0
  4 11  1  0  0  0  0
  4 10  1  0  0  0  0
  5  4  1  0  0  0  0
  6  7  1  0  0  0  0
  6  8  1  0  0  0  0
  8  9  1  0  0  0  0
 10 13  1  0  0  0  0
 10  8  2  0  0  0  0
 11  6  2  0  0  0  0
 12 11  1  0  0  0  0
 13  2  1  6  0  0  0
 13 14  1  0  0  0  0
 14 16  1  0  0  0  0
 14 17  1  0  0  0  0
 15 14  1  0  0  0  0
 18  3  2  0  0  0  0
 19 18  1  0  0  0  0
 19 20  1  0  0  0  0
 20 21  1  0  0  0  0
 22 20  2  0  0  0  0
 22 23  1  0  0  0  0
 24 22  1  0  0  0  0
 25 24  1  0  0  0  0
 26 28  1  0  0  0  0
 26 24  2  0  0  0  0
 27 26  1  0  0  0  0
 28 19  2  0  0  0  0
 29 28  1  0  0  0  0
M  CHG  1   1  -1
M  END
