1,2
q = 0.0, confidence = 0.594

 16 17  0  0  0  0  0  0  0  0999 V2000
   -1.2805   -1.1726    0.5261 N   0  0  0  0  0  2  0  0  0  0  0  0
   -1.7044    0.2917   -1.6640 O   0  5  0  0  0  0  0  0  0  0  0  0
   -0.9946   -1.8953    1.6096 C   0  0  0  0  0  0  0  0  0  0  0  0
   -1.9725   -2.7285    2.2064 C   0  0  0  0  0  0  0  0  0  0  0  0
   -3.2451   -2.7935    1.6553 C   0  0  0  0  0  0  0  0  0  0  0  0
   -4.8447   -2.0227   -0.1506 C   0  0  0  0  0  3  0  0  0  0  0  0
   -4.9464   -1.2186   -1.2619 C   0  0  0  0  0  3  0  0  0  0  0  0
   -4.0004   -0.4175   -1.8576 C   0  0  0  0  0  0  0  0  0  0  0  0
   -2.6886   -0.3968   -1.2330 C   0  0  0  0  0  0  0  0  0  0  0  0
   -2.5178   -1.2208   -0.0519 C   0  0  0  0  0  0  0  0  0  0  0  0
   -3.5681   -2.0332    0.4932 C   0  0  0  0  0  0  0  0  0  0  0  0
   -4.1462    0.1912   -2.7611 H   0  0  0  0  0  0  0  0  0  0  0  0
   -5.6653   -2.6345    0.2562 H   0  0  0  0  0  0  0  0  0  0  0  0
   -4.0187   -3.4349    2.1058 H   0  0  0  0  0  0  0  0  0  0  0  0
   -1.7055   -3.3135    3.0983 H   0  0  0  0  0  0  0  0  0  0  0  0
    0.0263   -1.8118    2.0085 H   0  0  0  0  0  0  0  0  0  0  0  0
  1  3  1  0  0  0  0
  2  9  1  0  0  0  0
  3 16  1  0  0  0  0
  3  4  2  0  0  0  0
  4 15  1  0  0  0  0
  5 14  1  0  0  0  0
  5  4  1  0  0  0  0
  6 13  1  0  0  0  0
  6 11  1  0  0  0  0
  7  6  1  0  0  0  0
  8  7  2  0  0  0  0
  8  9  1  0  0  0  0
  9 10  2  0  0  0  0
 10 11  1  0  0  0  0
 10  1  1  0  0  0  0
 11  5  2  0  0  0  0
 12  8  1  0  0  0  0
M  CHG  1   2  -1
M  END
