2,3
q = -1.0

 29 30  0  0  0  0  0  0  0  0999 V2000
   -1.7040    0.0762    1.4805 O   0  0  0  0  0  0  0  0  0  0  0  0
    0.9723    0.0658   -1.3259 O   0  5  0  0  0  0  0  0  0  0  0  0
   -0.3010   -1.9507    0.0218 N   0  0  0  0  0  2  0  0  0  0  0  0
   -1.7936   -1.1401    2.2914 C   0  0  0  0  0  0  0  0  0  0  0  0
   -2.2961   -2.2373    1.4064 C   0  0  0  0  0  0  0  0  0  0  0  0
   -3.5070   -2.9010    1.6622 C   0  0  0  0  0  0  0  0  0  0  0  0
   -3.9430   -3.9472    0.8346 C   0  0  0  0  0  0  0  0  0  0  0  0
   -3.1710   -4.3247   -0.2752 C   0  0  0  0  0  0  0  0  0  0  0  0
   -1.9684   -3.6627   -0.5565 C   0  0  0  0  0  0  0  0  0  0  0  0
   -1.5145   -2.6290    0.2885 C   0  0  0  0  0  0  0  0  0  0  0  0
    0.7735   -2.6334   -0.3132 C   0  0  0  0  0  3  0  0  0  0  0  0
    1.9790   -2.0859   -0.8460 C   0  0  0  0  0  0  0  0  0  0  0  0
    3.1358   -2.9079   -0.9598 C   0  0  0  0  0  0  0  0  0  0  0  0
    4.3022   -2.4262   -1.5401 C   0  0  0  0  0  0  0  0  0  0  0  0
    4.3288   -1.1019   -2.0408 C   0  0  0  0  0  0  0  0  0  0  0  0
    3.2130   -0.2729   -1.9536 C   0  0  0  0  0  0  0  0  0  0  0  0
    2.0108   -0.7376   -1.3536 C   0  0  0  0  0  0  0  0  0  0  0  0
   -1.3510    0.7937    2.0488 H   0  0  0  0  0  0  0  0  0  0  0  0
   -2.4938   -0.9501    3.1285 H   0  0  0  0  0  0  0  0  0  0  0  0
   -0.7797   -1.3596    2.6899 H   0  0  0  0  0  0  0  0  0  0  0  0
   -4.1095   -2.6007    2.5333 H   0  0  0  0  0  0  0  0  0  0  0  0
   -4.8909   -4.4607    1.0510 H   0  0  0  0  0  0  0  0  0  0  0  0
   -3.5139   -5.1326   -0.9384 H   0  0  0  0  0  0  0  0  0  0  0  0
   -1.3804   -3.9253   -1.4481 H   0  0  0  0  0  0  0  0  0  0  0  0
    0.7326   -3.7325   -0.1831 H   0  0  0  0  0  0  0  0  0  0  0  0
    3.0907   -3.9382   -0.5734 H   0  0  0  0  0  0  0  0  0  0  0  0
    5.1936   -3.0645   -1.6136 H   0  0  0  0  0  0  0  0  0  0  0  0
    5.2501   -0.7138   -2.5017 H   0  0  0  0  0  0  0  0  0  0  0  0
    3.2288    0.7571   -2.3362 H   0  0  0  0  0  0  0  0  0  0  0  0
  1 18  1  0  0  0  0
  1  4  1  0  0  0  0
  3 10  1  0  0  0  0
  4 20  1  0  0  0  0
  4 19  1  0  0  0  0
  5  6  1  0  0  0  0
  5  4  1  0  0  0  0
  6 21  1  0  0  0  0
  7 22  1  0  0  0  0
  7  6  2  0  0  0  0
  8  7  1  0  0  0  0
  9  8  2  0  0  0  0
  9 10  1  0  0  0  0
 10  5  2  0  0  0  0
 11 25  1  0  0  0  0
 11  3  1  0  0  0  0
 12 11  1  0  0  0  0
 13 12  1  0  0  0  0
 13 26  1  0  0  0  0
 14 13  2  0  0  0  0
 15 16  2  0  0  0  0
 15 14  1  0  0  0  0
 16 17  1  0  0  0  0
 17  2  1  0  0  0  0
 17 12  2  0  0  0  0
 23  8  1  0  0  0  0
 24  9  1  0  0  0  0
 27 14  1  0  0  0  0
 28 15  1  0  0  0  0
 29 16  1  0  0  0  0
M  CHG  1   2  -1
M  END
