1,2
q = -1.0, confidence = 0.0

 11 11  0  0  0  0  0  0  0  0999 V2000
    1.1728   -1.8327    0.1565 O   0  5  0  0  0  0  0  0  0  0  0  0
    1.8737    0.7738   -0.1816 N   0  0  0  0  0  2  0  0  0  0  0  0
    3.3511   -2.4786    0.3338 O   0  0  0  0  0  0  0  0  0  0  0  0
    2.4681   -1.6368    0.1917 C   0  0  0  0  0  0  0  0  0  0  0  0
    3.8286    1.7786   -0.2518 N   0  0  0  0  0  0  0  0  0  0  0  0
    2.8554   -0.1828    0.0009 C   0  0  0  0  0  0  0  0  0  0  0  0
    2.4735    1.9475   -0.3281 C   0  0  0  0  0  3  0  0  0  0  0  0
    4.0934    0.4374   -0.0445 C   0  0  0  0  0  0  0  0  0  0  0  0
    5.1041    0.0314    0.0542 H   0  0  0  0  0  0  0  0  0  0  0  0
    1.9709    2.9095   -0.4864 H   0  0  0  0  0  0  0  0  0  0  0  0
    4.5260    2.5208   -0.3364 H   0  0  0  0  0  0  0  0  0  0  0  0
  1  4  1  0  0  0  0
  2  6  1  0  0  0  0
  4  3  2  0  0  0  0
  5  8  1  0  0  0  0
  6  4  1  0  0  0  0
  7  5  1  0  0  0  0
  7  2  1  0  0  0  0
  8  6  2  0  0  0  0
  8  9  1  0  0  0  0
 10  7  1  0  0  0  0
 11  5  1  0  0  0  0
M  CHG  1   1  -1
M  END
