1,11
q = -1.0, confidence = 0.01

 13 12  0  0  1  0  0  0  0  0999 V2000
   -1.3814    1.4894    0.0783 O   0  5  0  0  0  0  0  0  0  0  0  0
   -2.6159    1.1312   -0.1865 C   0  0  0  0  0  0  0  0  0  0  0  0
   -3.6050    1.8340   -0.0014 O   0  0  0  0  0  0  0  0  0  0  0  0
   -2.7742   -0.3061   -0.7603 C   0  0  2  0  0  0  0  0  0  0  0  0
   -2.6090   -0.2539   -1.8573 H   0  0  0  0  0  0  0  0  0  0  0  0
   -4.1583   -0.8557   -0.4209 C   0  0  0  0  0  0  0  0  0  0  0  0
   -4.9175   -0.2107   -0.9155 H   0  0  0  0  0  0  0  0  0  0  0  0
   -4.2762   -1.8911   -0.8067 H   0  0  0  0  0  0  0  0  0  0  0  0
   -4.3174   -0.9057    0.9857 O   0  0  0  0  0  0  0  0  0  0  0  0
   -4.4109    0.0310    1.2604 H   0  0  0  0  0  0  0  0  0  0  0  0
   -1.6957   -1.1534   -0.1693 N   0  0  0  0  0  0  0  0  0  0  0  0
   -1.5426   -2.0179   -0.7099 H   0  0  0  0  0  0  0  0  0  0  0  0
   -2.0330   -1.4402    0.7700 H   0  0  0  0  0  0  0  0  0  0  0  0
  2  3  2  0  0  0  0
  2  1  1  0  0  0  0
  4  5  1  6  0  0  0
  4  6  1  0  0  0  0
  4  2  1  0  0  0  0
  4 11  1  0  0  0  0
  6  9  1  0  0  0  0
  7  6  1  0  0  0  0
  8  6  1  0  0  0  0
  9 10  1  0  0  0  0
 11 13  1  0  0  0  0
 12 11  1  0  0  0  0
M  CHG  1   1  -1
M  END
