1,11
q = -1.0, confidence = 0.01

 13 12  0  0  1  0  0  0  0  0999 V2000
    1.3813   -1.4894   -0.0785 O   0  5  0  0  0  0  0  0  0  0  0  0
    2.6158   -1.1312    0.1863 C   0  0  0  0  0  0  0  0  0  0  0  0
    3.6051   -1.8335    0.0001 O   0  0  0  0  0  0  0  0  0  0  0  0
    2.7739    0.3059    0.7605 C   0  0  1  0  0  0  0  0  0  0  0  0
    2.6083    0.2535    1.8573 H   0  0  0  0  0  0  0  0  0  0  0  0
    4.1583    0.8556    0.4218 C   0  0  0  0  0  0  0  0  0  0  0  0
    4.2757    1.8912    0.8075 H   0  0  0  0  0  0  0  0  0  0  0  0
    4.9173    0.2110    0.9170 H   0  0  0  0  0  0  0  0  0  0  0  0
    4.3182    0.9054   -0.9847 O   0  0  0  0  0  0  0  0  0  0  0  0
    4.4113   -0.0315   -1.2591 H   0  0  0  0  0  0  0  0  0  0  0  0
    1.6957    1.1534    0.1692 N   0  0  0  0  0  0  0  0  0  0  0  0
    2.0331    1.4401   -0.7700 H   0  0  0  0  0  0  0  0  0  0  0  0
    1.5427    2.0180    0.7097 H   0  0  0  0  0  0  0  0  0  0  0  0
  1  2  1  0  0  0  0
  2  4  1  0  0  0  0
  3  2  2  0  0  0  0
  4  5  1  1  0  0  0
  6  4  1  0  0  0  0
  6  7  1  0  0  0  0
  6  8  1  0  0  0  0
  9  6  1  0  0  0  0
 10  9  1  0  0  0  0
 11 13  1  0  0  0  0
 11  4  1  0  0  0  0
 12 11  1  0  0  0  0
M  CHG  1   1  -1
M  END
