1,2
q = -1.0

 25 26  0  0  0  0  0  0  0  0999 V2000
   -1.6975   -0.8617    1.2961 O   0  5  0  0  0  0  0  0  0  0  0  0
    0.6485   -1.3913   -0.1407 N   0  0  0  0  0  2  0  0  0  0  0  0
   -2.3281   -1.3948    0.2657 C   0  0  0  0  0  0  0  0  0  0  0  0
   -0.1971   -1.9241   -0.9779 C   0  0  0  0  0  3  0  0  0  0  0  0
    2.0349   -1.5641   -0.4021 C   0  0  0  0  0  0  0  0  0  0  0  0
   -1.6376   -1.8936   -0.8858 C   0  0  0  0  0  0  0  0  0  0  0  0
   -3.7409   -1.4826    0.3096 C   0  0  0  0  0  0  0  0  0  0  0  0
    0.2076   -2.4983   -1.8396 H   0  0  0  0  0  0  0  0  0  0  0  0
    2.5727   -1.3081   -1.6822 C   0  0  0  0  0  0  0  0  0  0  0  0
    2.8901   -1.9587    0.6479 C   0  0  0  0  0  0  0  0  0  0  0  0
   -2.3925   -2.4424   -1.9557 C   0  0  0  0  0  0  0  0  0  0  0  0
   -4.4526   -2.0101   -0.7673 C   0  0  0  0  0  0  0  0  0  0  0  0
   -4.2476   -1.0960    1.2042 H   0  0  0  0  0  0  0  0  0  0  0  0
    3.9467   -1.4579   -1.9113 C   0  0  0  0  0  0  0  0  0  0  0  0
    1.9131   -0.9444   -2.4840 H   0  0  0  0  0  0  0  0  0  0  0  0
    4.2606   -2.1152    0.4045 C   0  0  0  0  0  0  0  0  0  0  0  0
    2.4572   -2.1333    1.6431 H   0  0  0  0  0  0  0  0  0  0  0  0
   -3.7836   -2.4899   -1.9143 C   0  0  0  0  0  0  0  0  0  0  0  0
   -1.8491   -2.8323   -2.8315 H   0  0  0  0  0  0  0  0  0  0  0  0
   -5.5518   -2.0466   -0.7195 H   0  0  0  0  0  0  0  0  0  0  0  0
    4.7953   -1.8662   -0.8707 C   0  0  0  0  0  0  0  0  0  0  0  0
    4.3578   -1.2353   -2.9074 H   0  0  0  0  0  0  0  0  0  0  0  0
    4.9202   -2.4326    1.2264 H   0  0  0  0  0  0  0  0  0  0  0  0
   -4.3526   -2.9066   -2.7576 H   0  0  0  0  0  0  0  0  0  0  0  0
    5.8751   -1.9784   -1.0500 H   0  0  0  0  0  0  0  0  0  0  0  0
  3  7  1  0  0  0  0
  3  1  1  0  0  0  0
  4  6  1  0  0  0  0
  4  2  1  0  0  0  0
  5  2  1  0  0  0  0
  5 10  1  0  0  0  0
  6  3  2  0  0  0  0
  7 13  1  0  0  0  0
  8  4  1  0  0  0  0
  9  5  2  0  0  0  0
 10 17  1  0  0  0  0
 11 18  2  0  0  0  0
 11  6  1  0  0  0  0
 12 20  1  0  0  0  0
 12  7  2  0  0  0  0
 14  9  1  0  0  0  0
 14 21  2  0  0  0  0
 15  9  1  0  0  0  0
 16 10  2  0  0  0  0
 16 23  1  0  0  0  0
 18 12  1  0  0  0  0
 19 11  1  0  0  0  0
 21 16  1  0  0  0  0
 22 14  1  0  0  0  0
 24 18  1  0  0  0  0
 25 21  1  0  0  0  0
M  CHG  1   1  -1
M  END
