1,2
q = -1.0, confidence = 0.0

 33 34  0  0  0  0  0  0  0  0999 V2000
   -0.4533   -0.2825    1.3263 O   0  0  0  0  0  1  0  0  0  0  0  0
   -0.8762    2.1866    0.2357 N   0  0  0  0  0  2  0  0  0  0  0  0
   -2.1346    1.7416   -0.0352 C   0  0  0  0  0  0  0  0  0  0  0  0
   -1.5895   -0.5638    0.8290 N   0  0  0  0  0  0  0  0  0  0  0  0
   -2.4156    0.3224    0.1864 C   0  0  0  0  0  0  0  0  0  0  0  0
   -3.5242   -0.3450   -0.2400 N   0  0  0  0  0  0  0  0  0  0  0  0
   -4.5292    0.1202   -0.8242 O   0  0  0  0  0  1  0  0  0  0  0  0
   -3.3686   -1.8518   -0.0323 C   0  0  0  0  0  0  0  0  0  0  0  0
   -3.1347    2.6214   -0.5072 C   0  0  0  0  0  0  0  0  0  0  0  0
   -4.1246    2.2169   -0.7486 H   0  0  0  0  0  0  0  0  0  0  0  0
   -2.8243    3.9775   -0.6518 C   0  0  0  0  0  0  0  0  0  0  0  0
   -3.5924    4.6787   -1.0109 H   0  0  0  0  0  0  0  0  0  0  0  0
   -2.2754   -1.8863    1.0794 C   0  0  0  0  0  0  0  0  0  0  0  0
   -1.5345    4.4267   -0.3382 C   0  0  0  0  0  0  0  0  0  0  0  0
   -1.2536    5.4852   -0.4319 H   0  0  0  0  0  0  0  0  0  0  0  0
   -0.5827    3.4900    0.0839 C   0  0  0  0  0  0  0  0  0  0  0  0
    0.4654    3.7569    0.3006 H   0  0  0  0  0  0  0  0  0  0  0  0
   -1.3032   -3.0544    1.0080 C   0  0  0  0  0  0  0  0  0  0  0  0
   -0.8492   -3.2023    0.0119 H   0  0  0  0  0  0  0  0  0  0  0  0
   -1.8355   -3.9792    1.3055 H   0  0  0  0  0  0  0  0  0  0  0  0
   -0.4808   -2.8880    1.7296 H   0  0  0  0  0  0  0  0  0  0  0  0
   -2.8471   -1.7619    2.5075 C   0  0  0  0  0  0  0  0  0  0  0  0
   -3.5611   -0.9198    2.6009 H   0  0  0  0  0  0  0  0  0  0  0  0
   -2.0096   -1.5888    3.2102 H   0  0  0  0  0  0  0  0  0  0  0  0
   -3.3608   -2.6966    2.8009 H   0  0  0  0  0  0  0  0  0  0  0  0
   -2.8901   -2.4035   -1.3840 C   0  0  0  0  0  0  0  0  0  0  0  0
   -1.8749   -2.0316   -1.6392 H   0  0  0  0  0  0  0  0  0  0  0  0
   -3.6149   -2.1013   -2.1646 H   0  0  0  0  0  0  0  0  0  0  0  0
   -2.8586   -3.5091   -1.3441 H   0  0  0  0  0  0  0  0  0  0  0  0
   -4.7215   -2.4347    0.3588 C   0  0  0  0  0  0  0  0  0  0  0  0
   -5.1530   -1.9544    1.2561 H   0  0  0  0  0  0  0  0  0  0  0  0
   -4.6104   -3.5190    0.5526 H   0  0  0  0  0  0  0  0  0  0  0  0
   -5.4326   -2.2996   -0.4769 H   0  0  0  0  0  0  0  0  0  0  0  0
  3  5  2  0  0  0  0
  3  2  1  0  0  0  0
  4 13  1  0  0  0  0
  4  1  1  0  0  0  0
  5  4  1  0  0  0  0
  6  8  1  0  0  0  0
  6  5  1  0  0  0  0
  7  6  1  0  0  0  0
  8 30  1  0  0  0  0
  8 13  1  0  0  0  0
  9  3  1  0  0  0  0
 10  9  1  0  0  0  0
 11  9  2  0  0  0  0
 11 14  1  0  0  0  0
 12 11  1  0  0  0  0
 13 22  1  0  0  0  0
 14 16  2  0  0  0  0
 15 14  1  0  0  0  0
 16  2  1  0  0  0  0
 16 17  1  0  0  0  0
 18 13  1  0  0  0  0
 18 20  1  0  0  0  0
 18 21  1  0  0  0  0
 19 18  1  0  0  0  0
 22 23  1  0  0  0  0
 22 25  1  0  0  0  0
 22 24  1  0  0  0  0
 26 29  1  0  0  0  0
 26  8  1  0  0  0  0
 27 26  1  0  0  0  0
 28 26  1  0  0  0  0
 30 32  1  0  0  0  0
 30 31  1  0  0  0  0
 33 30  1  0  0  0  0
M  END
