4,5
q = -2.0, confidence = 0.892

 16 16  0  0  1  0  0  0  0  0999 V2000
    2.3580   -1.4383   -0.5338 C   0  0  2  0  0  3  0  0  0  0  0  0
    5.8868   -2.2658   -0.1657 O   0  0  0  0  0  0  0  0  0  0  0  0
    6.6202   -1.7113    0.1637 H   0  0  0  0  0  0  0  0  0  0  0  0
    2.3287   -0.1797   -0.0491 N   0  0  0  0  0  2  0  0  0  0  0  0
    2.1101    2.3691    0.6049 O   0  5  0  0  0  0  0  0  0  0  0  0
    4.3104    2.5498    1.0934 O   0  0  0  0  0  0  0  0  0  0  0  0
    0.1294   -1.2167   -1.3718 O   0  5  0  0  0  0  0  0  0  0  0  0
    4.6942   -0.2106    0.3224 C   0  0  0  0  0  0  0  0  0  0  0  0
    5.5786    0.3614    0.6464 H   0  0  0  0  0  0  0  0  0  0  0  0
    3.5535   -2.1619   -0.5645 C   0  0  0  0  0  0  0  0  0  0  0  0
    3.5320   -3.1959   -0.9345 H   0  0  0  0  0  0  0  0  0  0  0  0
    3.3188    1.9125    0.7357 C   0  0  0  0  0  0  0  0  0  0  0  0
    4.7451   -1.5485   -0.1244 C   0  0  0  0  0  0  0  0  0  0  0  0
    3.4621    0.4383    0.3470 C   0  0  0  0  0  0  0  0  0  0  0  0
    1.0153   -3.2938   -1.1571 O   0  0  0  0  0  0  0  0  0  0  0  0
    1.0537   -2.0559   -1.0755 C   0  0  0  0  0  0  0  0  0  0  0  0
  1 16  1  6  0  0  0
  1  4  1  0  0  0  0
  2 13  1  0  0  0  0
  2  3  1  0  0  0  0
  4 14  1  0  0  0  0
  5 12  1  0  0  0  0
  7 16  1  0  0  0  0
  8 14  2  0  0  0  0
  8  9  1  0  0  0  0
 10  1  1  0  0  0  0
 10 13  2  0  0  0  0
 11 10  1  0  0  0  0
 12  6  2  0  0  0  0
 13  8  1  0  0  0  0
 14 12  1  0  0  0  0
 15 16  2  0  0  0  0
M  CHG  2   5  -1   7  -1
M  END
