1,2
q = -1.0

 28 28  0  0  1  0  0  0  0  0999 V2000
    0.9629    1.6311    0.6730 O   0  0  0  0  0  1  0  0  0  0  0  0
   -1.5922    1.1164   -0.6704 N   0  0  0  0  0  2  0  0  0  0  0  0
    0.5241    2.8461    0.6286 C   0  0  1  0  0  3  0  0  0  0  0  0
   -0.7081    3.2528    0.1176 C   0  0  0  0  0  0  0  0  0  0  0  0
   -0.9342    4.3251    0.1754 H   0  0  0  0  0  0  0  0  0  0  0  0
   -1.7047    2.4293   -0.4836 C   0  0  0  0  0  0  0  0  0  0  0  0
    1.4885    3.8569    1.2060 C   0  0  0  0  0  0  0  0  0  0  0  0
    1.6759    3.6281    2.2756 H   0  0  0  0  0  0  0  0  0  0  0  0
    1.1139    4.8931    1.1198 H   0  0  0  0  0  0  0  0  0  0  0  0
    2.4643    3.7738    0.6851 H   0  0  0  0  0  0  0  0  0  0  0  0
   -2.9607    3.1459   -0.9399 C   0  0  0  0  0  0  0  0  0  0  0  0
   -3.0733    3.0946   -2.0432 H   0  0  0  0  0  0  0  0  0  0  0  0
   -2.9327    4.2106   -0.6495 H   0  0  0  0  0  0  0  0  0  0  0  0
   -3.8672    2.6810   -0.5030 H   0  0  0  0  0  0  0  0  0  0  0  0
   -2.6978    0.4103   -1.3198 C   0  0  0  0  0  0  0  0  0  0  0  0
   -2.2898   -0.5340   -1.7282 H   0  0  0  0  0  0  0  0  0  0  0  0
   -3.0826    0.9951   -2.1806 H   0  0  0  0  0  0  0  0  0  0  0  0
   -3.8472    0.0523   -0.3939 C   0  0  0  0  0  0  0  0  0  0  0  0
   -5.1710    0.0471   -0.8758 C   0  0  0  0  0  0  0  0  0  0  0  0
   -5.3683    0.3519   -1.9169 H   0  0  0  0  0  0  0  0  0  0  0  0
   -6.2375   -0.3377   -0.0486 C   0  0  0  0  0  0  0  0  0  0  0  0
   -7.2655   -0.3323   -0.4428 H   0  0  0  0  0  0  0  0  0  0  0  0
   -5.9940   -0.7197    1.2798 C   0  0  0  0  0  0  0  0  0  0  0  0
   -6.8287   -1.0177    1.9325 H   0  0  0  0  0  0  0  0  0  0  0  0
   -4.6782   -0.7129    1.7710 C   0  0  0  0  0  0  0  0  0  0  0  0
   -4.4776   -1.0093    2.8122 H   0  0  0  0  0  0  0  0  0  0  0  0
   -3.6133   -0.3313    0.9419 C   0  0  0  0  0  0  0  0  0  0  0  0
   -2.5819   -0.3256    1.3268 H   0  0  0  0  0  0  0  0  0  0  0  0
  2  6  1  0  0  0  0
  3  1  1  1  0  0  0
  3  7  1  0  0  0  0
  4  5  1  0  0  0  0
  4  3  1  0  0  0  0
  6  4  2  0  0  0  0
  7  8  1  0  0  0  0
  9  7  1  0  0  0  0
 10  7  1  0  0  0  0
 11 13  1  0  0  0  0
 11 14  1  0  0  0  0
 11  6  1  0  0  0  0
 12 11  1  0  0  0  0
 15  2  1  0  0  0  0
 15 18  1  0  0  0  0
 16 15  1  0  0  0  0
 17 15  1  0  0  0  0
 18 27  1  0  0  0  0
 19 18  2  0  0  0  0
 19 21  1  0  0  0  0
 20 19  1  0  0  0  0
 21 23  2  0  0  0  0
 22 21  1  0  0  0  0
 23 25  1  0  0  0  0
 23 24  1  0  0  0  0
 25 26  1  0  0  0  0
 27 28  1  0  0  0  0
 27 25  2  0  0  0  0
M  END
