1,4
q = 0.0, confidence = 0.976

 20 21  0  0  1  0  0  0  0  0999 V2000
    1.1311    1.5595    1.2600 O   0  0  0  0  0  1  0  0  0  0  0  0
    0.1313    3.5796    1.2854 O   0  0  0  0  0  0  0  0  0  0  0  0
    1.0428    3.8204    1.5620 H   0  0  0  0  0  0  0  0  0  0  0  0
   -1.0918    0.3496    0.3893 N   0  0  0  0  0  2  0  0  0  0  0  0
    0.1344    2.2735    1.0335 C   0  0  2  0  0  3  0  0  0  0  0  0
   -1.1455    1.6843    0.5958 C   0  0  0  0  0  0  0  0  0  0  0  0
   -2.3316    2.4527    0.4995 C   0  0  0  0  0  0  0  0  0  0  0  0
   -3.5112    1.8098    0.1780 C   0  0  0  0  0  0  0  0  0  0  0  0
   -3.5137    0.3990   -0.0051 C   0  0  0  0  0  0  0  0  0  0  0  0
   -4.7039   -0.3232   -0.3007 C   0  0  0  0  0  3  0  0  0  0  0  0
   -4.6775   -1.7019   -0.4433 C   0  0  0  0  0  0  0  0  0  0  0  0
   -3.4554   -2.4078   -0.2866 C   0  0  0  0  0  0  0  0  0  0  0  0
   -2.2744   -1.7350   -0.0131 C   0  0  0  0  0  0  0  0  0  0  0  0
   -1.3327   -2.2806    0.1153 H   0  0  0  0  0  0  0  0  0  0  0  0
   -2.2658   -0.3194    0.1248 C   0  0  0  0  0  0  0  0  0  0  0  0
   -2.2803    3.5349    0.6754 H   0  0  0  0  0  0  0  0  0  0  0  0
   -4.4524    2.3704    0.0737 H   0  0  0  0  0  0  0  0  0  0  0  0
   -5.6455    0.2366   -0.4070 H   0  0  0  0  0  0  0  0  0  0  0  0
   -5.6021   -2.2523   -0.6717 H   0  0  0  0  0  0  0  0  0  0  0  0
   -3.4414   -3.5033   -0.3852 H   0  0  0  0  0  0  0  0  0  0  0  0
  2  3  1  0  0  0  0
  4  6  1  0  0  0  0
  5  1  1  1  0  0  0
  5  2  1  0  0  0  0
  6  5  1  0  0  0  0
  7  6  2  0  0  0  0
  7 16  1  0  0  0  0
  8  7  1  0  0  0  0
  9 15  1  0  0  0  0
  9  8  2  0  0  0  0
 10  9  1  0  0  0  0
 11 10  1  0  0  0  0
 11 12  2  0  0  0  0
 12 13  1  0  0  0  0
 13 14  1  0  0  0  0
 13 15  2  0  0  0  0
 15  4  1  0  0  0  0
 17  8  1  0  0  0  0
 18 10  1  0  0  0  0
 19 11  1  0  0  0  0
 20 12  1  0  0  0  0
M  END
