15,23
q = -1.0

 23 24  0  0  1  0  0  0  0  0999 V2000
   -3.1305   -0.1082    0.1813 C   0  0  0  0  0  0  0  0  0  0  0  0
   -4.0088   -1.0302   -0.3890 C   0  0  0  0  0  0  0  0  0  0  0  0
   -3.4124    1.2419    0.7819 C   0  0  0  0  0  0  0  0  0  0  0  0
   -5.4851   -1.1010   -0.6330 C   0  0  0  0  0  0  0  0  0  0  0  0
   -1.9134   -1.8063   -0.4987 C   0  0  1  0  0  3  0  0  0  0  0  0
   -0.7715   -2.6807   -0.7949 C   0  0  0  0  0  0  0  0  0  0  0  0
   -0.9590   -3.9517   -1.3811 C   0  0  0  0  0  0  0  0  0  0  0  0
   -1.9637   -4.3266   -1.6262 H   0  0  0  0  0  0  0  0  0  0  0  0
    0.1663   -4.7420   -1.6420 C   0  0  0  0  0  0  0  0  0  0  0  0
    0.0523   -5.7373   -2.0967 H   0  0  0  0  0  0  0  0  0  0  0  0
    1.4315   -4.2444   -1.3049 C   0  0  0  0  0  0  0  0  0  0  0  0
    2.3454   -4.8299   -1.4797 H   0  0  0  0  0  0  0  0  0  0  0  0
    1.5151   -2.9677   -0.7217 C   0  0  0  0  0  0  0  0  0  0  0  0
    2.4974   -2.5682   -0.4217 H   0  0  0  0  0  0  0  0  0  0  0  0
   -1.8538   -0.6078    0.1027 N   0  0  0  0  0  2  0  0  0  0  0  0
    0.4477   -2.1962   -0.4741 N   0  0  0  0  0  0  0  0  0  0  0  0
   -3.2190   -2.0760   -0.7999 N   0  0  0  0  0  0  0  0  0  0  0  0
   -3.6395   -2.8898   -1.2625 H   0  0  0  0  0  0  0  0  0  0  0  0
   -6.1921   -0.0673   -0.2337 O   0  0  0  0  0  0  0  0  0  0  0  0
   -5.5758    0.6676    0.2019 H   0  0  0  0  0  0  0  0  0  0  0  0
   -5.9319   -2.1026   -1.1845 O   0  0  0  0  0  0  0  0  0  0  0  0
   -4.6062    1.6362    0.7859 O   0  5  0  0  0  0  0  0  0  0  0  0
   -2.4048    1.8903    1.2257 O   0  0  0  0  0  0  0  0  0  0  0  0
  1  3  1  0  0  0  0
  2  1  2  0  0  0  0
  3 22  1  0  0  0  0
  3 23  2  0  0  0  0
  4  2  1  0  0  0  0
  4 19  1  0  0  0  0
  5  6  1  6  0  0  0
  5 15  1  0  0  0  0
  6 16  1  0  0  0  0
  7  6  2  0  0  0  0
  8  7  1  0  0  0  0
  9  7  1  0  0  0  0
  9 11  2  0  0  0  0
 10  9  1  0  0  0  0
 11 13  1  0  0  0  0
 12 11  1  0  0  0  0
 13 16  2  0  0  0  0
 13 14  1  0  0  0  0
 15  1  1  0  0  0  0
 17  5  1  0  0  0  0
 17  2  1  0  0  0  0
 18 17  1  0  0  0  0
 19 20  1  0  0  0  0
 21  4  2  0  0  0  0
M  CHG  1  22  -1
M  END
