3,8
q = -1.0

 17 18  0  0  1  0  0  0  0  0999 V2000
    1.7843   -4.0246   -0.1254 C   0  0  0  0  0  0  0  0  0  0  0  0
    1.4397   -5.0680   -0.1489 H   0  0  0  0  0  0  0  0  0  0  0  0
    1.8554    0.9428   -0.0726 O   0  5  0  0  0  0  0  0  0  0  0  0
    0.8398   -2.9711   -0.1590 C   0  0  0  0  0  0  0  0  0  0  0  0
   -0.2466   -3.1544   -0.2071 H   0  0  0  0  0  0  0  0  0  0  0  0
    3.1375   -3.7173   -0.0604 C   0  0  0  0  0  0  0  0  0  0  0  0
    3.9018   -4.5079   -0.0312 H   0  0  0  0  0  0  0  0  0  0  0  0
    1.2200   -1.6951   -0.1317 N   0  0  0  0  0  2  0  0  0  0  0  0
    4.7111    2.4605    0.0226 I   0  0  0  0  0  0  0  0  0  0  0  0
    6.2132   -3.1043    0.0753 Cl  0  0  0  0  0  0  0  0  0  0  0  0
    2.5387   -1.3533   -0.0633 C   0  0  2  0  0  3  0  0  0  0  0  0
    5.2237   -0.5677    0.0472 C   0  0  0  0  0  0  0  0  0  0  0  0
    6.2757   -0.2541    0.0894 H   0  0  0  0  0  0  0  0  0  0  0  0
    4.2014    0.4079    0.0119 C   0  0  0  0  0  0  0  0  0  0  0  0
    2.8265    0.0772   -0.0349 C   0  0  0  0  0  0  0  0  0  0  0  0
    3.5643   -2.3610   -0.0296 C   0  0  0  0  0  0  0  0  0  0  0  0
    4.9204   -1.9268    0.0294 C   0  0  0  0  0  0  0  0  0  0  0  0
  1  6  1  0  0  0  0
  2  1  1  0  0  0  0
  3 15  1  0  0  0  0
  4  8  1  0  0  0  0
  4  1  2  0  0  0  0
  5  4  1  0  0  0  0
  6  7  1  0  0  0  0
  6 16  2  0  0  0  0
 11  8  1  6  0  0  0
 11 15  1  0  0  0  0
 11 16  1  0  0  0  0
 12 13  1  0  0  0  0
 14  9  1  0  0  0  0
 14 12  1  0  0  0  0
 15 14  2  0  0  0  0
 16 17  1  0  0  0  0
 17 12  2  0  0  0  0
 17 10  1  0  0  0  0
M  CHG  1   3  -1
M  END
