1,3
q = -1.0, confidence = 0.024

 28 28  0  0  1  0  0  0  0  0999 V2000
    1.5306   -1.3415   -0.0364 O   0  0  0  0  0  1  0  0  0  0  0  0
   -0.0413    3.0967    1.8688 O   0  0  0  0  0  0  0  0  0  0  0  0
    1.4111    1.5543   -0.1131 N   0  0  0  0  0  2  0  0  0  0  0  0
    2.6908    1.3876    0.0887 C   0  0  0  0  0  0  0  0  0  0  0  0
    3.4145    0.1644    0.2955 C   0  0  0  0  0  0  0  0  0  0  0  0
    4.8135    0.2571    0.5462 C   0  0  0  0  0  0  0  0  0  0  0  0
    5.6090   -0.8710    0.6990 C   0  0  0  0  0  0  0  0  0  0  0  0
    5.0073   -2.1473    0.5855 C   0  0  0  0  0  0  0  0  0  0  0  0
    3.6463   -2.2779    0.3341 C   0  0  0  0  0  0  0  0  0  0  0  0
    2.8001   -1.1346    0.1917 C   0  0  2  0  0  3  0  0  0  0  0  0
    0.9282    2.9265   -0.3965 C   0  0  1  0  0  0  0  0  0  0  0  0
    0.7746    3.7211    0.9158 C   0  0  0  0  0  0  0  0  0  0  0  0
    1.7782    3.6627   -1.4492 C   0  0  0  0  0  0  0  0  0  0  0  0
    1.0373    4.8200   -2.1225 C   0  0  0  0  0  0  0  0  0  0  0  0
    3.3232    2.2970    0.0783 H   0  0  0  0  0  0  0  0  0  0  0  0
    5.2611    1.2617    0.6167 H   0  0  0  0  0  0  0  0  0  0  0  0
    6.6858   -0.7756    0.8981 H   0  0  0  0  0  0  0  0  0  0  0  0
    5.6228   -3.0538    0.6980 H   0  0  0  0  0  0  0  0  0  0  0  0
    3.1752   -3.2679    0.2448 H   0  0  0  0  0  0  0  0  0  0  0  0
   -0.0877    2.7949   -0.8175 H   0  0  0  0  0  0  0  0  0  0  0  0
    1.7875    3.8692    1.3608 H   0  0  0  0  0  0  0  0  0  0  0  0
    0.3994    4.7411    0.6432 H   0  0  0  0  0  0  0  0  0  0  0  0
    2.7191    4.0408   -0.9913 H   0  0  0  0  0  0  0  0  0  0  0  0
    2.0834    2.9218   -2.2182 H   0  0  0  0  0  0  0  0  0  0  0  0
   -0.7046    2.5595    1.3703 H   0  0  0  0  0  0  0  0  0  0  0  0
    1.6680    5.2972   -2.8988 H   0  0  0  0  0  0  0  0  0  0  0  0
    0.7502    5.6088   -1.3987 H   0  0  0  0  0  0  0  0  0  0  0  0
    0.1082    4.4660   -2.6150 H   0  0  0  0  0  0  0  0  0  0  0  0
  3  4  1  0  0  0  0
  4  5  2  0  0  0  0
  5  6  1  0  0  0  0
  6 16  1  0  0  0  0
  6  7  2  0  0  0  0
  7 17  1  0  0  0  0
  8 18  1  0  0  0  0
  8  7  1  0  0  0  0
  9  8  2  0  0  0  0
 10  1  1  6  0  0  0
 10  5  1  0  0  0  0
 10  9  1  0  0  0  0
 11 20  1  6  0  0  0
 11  3  1  0  0  0  0
 11 12  1  0  0  0  0
 12 21  1  0  0  0  0
 12  2  1  0  0  0  0
 13 23  1  0  0  0  0
 13 11  1  0  0  0  0
 14 13  1  0  0  0  0
 14 27  1  0  0  0  0
 15  4  1  0  0  0  0
 19  9  1  0  0  0  0
 22 12  1  0  0  0  0
 24 13  1  0  0  0  0
 25  2  1  0  0  0  0
 26 14  1  0  0  0  0
 28 14  1  0  0  0  0
M  END
