3,4
q = -1.0, confidence = 0.002

 20 21  0  0  1  0  0  0  0  0999 V2000
   -1.8202    3.2826   -1.0398 Br  0  0  0  0  0  0  0  0  0  0  0  0
   -5.1131   -1.1665    0.3342 Br  0  0  0  0  0  0  0  0  0  0  0  0
    0.4015    1.1398   -0.7501 O   0  5  0  0  0  0  0  0  0  0  0  0
    0.2365   -1.4017   -0.0001 N   0  0  0  0  0  2  0  0  0  0  0  0
    1.4804   -3.5179    0.2153 C   0  0  0  0  0  0  0  0  0  0  0  0
    2.1176   -3.1794   -0.6250 H   0  0  0  0  0  0  0  0  0  0  0  0
    1.2590   -4.5950    0.0978 H   0  0  0  0  0  0  0  0  0  0  0  0
    2.0460   -3.3959    1.1613 H   0  0  0  0  0  0  0  0  0  0  0  0
    0.2063   -2.7262    0.2282 C   0  0  0  0  0  0  0  0  0  0  0  0
   -1.0386   -3.3796    0.4512 C   0  0  0  0  0  0  0  0  0  0  0  0
   -1.0310   -4.4616    0.6447 H   0  0  0  0  0  0  0  0  0  0  0  0
   -2.2315   -2.6798    0.4296 C   0  0  0  0  0  0  0  0  0  0  0  0
   -3.1916   -3.1816    0.6192 H   0  0  0  0  0  0  0  0  0  0  0  0
   -2.2249   -1.2922    0.1271 C   0  0  0  0  0  0  0  0  0  0  0  0
   -3.3720   -0.4535    0.0203 C   0  0  0  0  0  0  0  0  0  0  0  0
   -3.2420    0.8916   -0.3209 C   0  0  0  0  0  0  0  0  0  0  0  0
   -4.1330    1.5296   -0.3961 H   0  0  0  0  0  0  0  0  0  0  0  0
   -1.9737    1.4501   -0.5815 C   0  0  0  0  0  0  0  0  0  0  0  0
   -0.7912    0.6778   -0.5038 C   0  0  0  0  0  0  0  0  0  0  0  0
   -0.9413   -0.6952   -0.1104 C   0  0  2  0  0  3  0  0  0  0  0  0
  1 18  1  0  0  0  0
  3 19  1  0  0  0  0
  4  9  1  0  0  0  0
  5  9  1  0  0  0  0
  5  8  1  0  0  0  0
  6  5  1  0  0  0  0
  7  5  1  0  0  0  0
  9 10  2  0  0  0  0
 10 11  1  0  0  0  0
 12 10  1  0  0  0  0
 12 13  1  0  0  0  0
 14 12  2  0  0  0  0
 15 14  1  0  0  0  0
 15  2  1  0  0  0  0
 16 15  2  0  0  0  0
 17 16  1  0  0  0  0
 18 19  2  0  0  0  0
 18 16  1  0  0  0  0
 20 19  1  6  0  0  0
 20  4  1  0  0  0  0
 20 14  1  0  0  0  0
M  CHG  1   3  -1
M  END
