1,2
q = -1.0

 30 30  0  0  0  0  0  0  0  0999 V2000
   -2.0055    0.9219    0.9258 O   0  5  0  0  0  0  0  0  0  0  0  0
    0.1368    1.6434   -1.0387 N   0  0  0  0  0  2  0  0  0  0  0  0
   -0.5936    2.7302   -1.0350 C   0  0  0  0  0  3  0  0  0  0  0  0
   -0.2532    3.5581   -1.6964 H   0  0  0  0  0  0  0  0  0  0  0  0
    2.6044    2.0080   -1.0815 C   0  0  0  0  0  0  0  0  0  0  0  0
    2.6482    3.1071   -0.9158 H   0  0  0  0  0  0  0  0  0  0  0  0
    2.5180    1.5567   -0.0747 H   0  0  0  0  0  0  0  0  0  0  0  0
   -2.4409    2.1058    0.6223 C   0  0  0  0  0  0  0  0  0  0  0  0
    1.3385    1.6584   -1.8766 C   0  0  0  0  0  0  0  0  0  0  0  0
    1.2081    2.3742   -2.7209 H   0  0  0  0  0  0  0  0  0  0  0  0
    1.4577    0.6466   -2.3140 H   0  0  0  0  0  0  0  0  0  0  0  0
   -1.8028    3.0162   -0.3107 C   0  0  0  0  0  0  0  0  0  0  0  0
    3.8868    1.5002   -1.7412 C   0  0  0  0  0  0  0  0  0  0  0  0
    4.0239    1.9768   -2.7387 H   0  0  0  0  0  0  0  0  0  0  0  0
    3.7744    0.4101   -1.9341 H   0  0  0  0  0  0  0  0  0  0  0  0
   -3.6387    2.5694    1.2639 C   0  0  0  0  0  0  0  0  0  0  0  0
   -4.1160    1.8732    1.9691 H   0  0  0  0  0  0  0  0  0  0  0  0
   -3.5502    4.7103    0.0936 C   0  0  0  0  0  0  0  0  0  0  0  0
   -3.9776    5.7033   -0.1058 H   0  0  0  0  0  0  0  0  0  0  0  0
   -2.3883    4.2968   -0.5427 C   0  0  0  0  0  0  0  0  0  0  0  0
   -1.8836    4.9706   -1.2553 H   0  0  0  0  0  0  0  0  0  0  0  0
    5.1378    1.7217   -0.8868 C   0  0  0  0  0  0  0  0  0  0  0  0
    5.2806    2.8110   -0.7086 H   0  0  0  0  0  0  0  0  0  0  0  0
    4.9625    1.2743    0.1174 H   0  0  0  0  0  0  0  0  0  0  0  0
   -4.1737    3.8242    1.0084 C   0  0  0  0  0  0  0  0  0  0  0  0
   -5.0974    4.1332    1.5235 H   0  0  0  0  0  0  0  0  0  0  0  0
    6.4021    1.1211   -1.5013 C   0  0  0  0  0  0  0  0  0  0  0  0
    7.2932    1.2904   -0.8635 H   0  0  0  0  0  0  0  0  0  0  0  0
    6.2909    0.0255   -1.6428 H   0  0  0  0  0  0  0  0  0  0  0  0
    6.6161    1.5613   -2.4978 H   0  0  0  0  0  0  0  0  0  0  0  0
  2  3  1  0  0  0  0
  3 12  1  0  0  0  0
  4  3  1  0  0  0  0
  5  6  1  0  0  0  0
  5  7  1  0  0  0  0
  8  1  1  0  0  0  0
  8 16  1  0  0  0  0
  9  5  1  0  0  0  0
  9  2  1  0  0  0  0
 10  9  1  0  0  0  0
 11  9  1  0  0  0  0
 12  8  2  0  0  0  0
 13  5  1  0  0  0  0
 13 22  1  0  0  0  0
 14 13  1  0  0  0  0
 15 13  1  0  0  0  0
 16 17  1  0  0  0  0
 18 25  1  0  0  0  0
 19 18  1  0  0  0  0
 20 12  1  0  0  0  0
 20 18  2  0  0  0  0
 21 20  1  0  0  0  0
 22 23  1  0  0  0  0
 22 24  1  0  0  0  0
 25 16  2  0  0  0  0
 25 26  1  0  0  0  0
 27 22  1  0  0  0  0
 27 28  1  0  0  0  0
 29 27  1  0  0  0  0
 30 27  1  0  0  0  0
M  CHG  1   1  -1
M  END
