1,2
q = -1.0

 47 49  0  0  1  0  0  0  0  0999 V2000
   -0.6415    1.3021    0.3135 N   0  0  0  0  0  2  0  0  0  0  0  0
    1.2180   -0.9809    0.2451 O   0  5  0  0  0  0  0  0  0  0  0  0
    2.1349   -0.0504    0.2339 C   0  0  0  0  0  0  0  0  0  0  0  0
    3.5399   -0.3932    0.2421 C   0  0  0  0  0  0  0  0  0  0  0  0
    4.4713    0.6523    0.2021 C   0  0  0  0  0  0  0  0  0  0  0  0
    5.5401    0.3920    0.1942 H   0  0  0  0  0  0  0  0  0  0  0  0
    4.1557    2.0382    0.1518 C   0  0  0  0  0  0  0  0  0  0  0  0
    2.8014    2.3618    0.1723 C   0  0  0  0  0  0  0  0  0  0  0  0
    1.8144    1.3406    0.2338 C   0  0  0  0  0  0  0  0  0  0  0  0
    0.5127    1.9341    0.3371 C   0  0  1  0  0  3  0  0  0  0  0  0
    0.6716    3.4393    0.4599 C   0  0  0  0  0  0  0  0  0  0  0  0
    0.4874    3.7424    1.5126 H   0  0  0  0  0  0  0  0  0  0  0  0
   -0.0763    3.9792   -0.1548 H   0  0  0  0  0  0  0  0  0  0  0  0
    2.1380    3.7205    0.0419 C   0  0  2  0  0  0  0  0  0  0  0  0
    2.6088    4.4654    0.7185 H   0  0  0  0  0  0  0  0  0  0  0  0
    3.9766   -1.8683    0.2727 C   0  0  0  0  0  0  0  0  0  0  0  0
    5.5073   -2.0273    0.2512 C   0  0  0  0  0  0  0  0  0  0  0  0
    5.9893   -1.5504    1.1291 H   0  0  0  0  0  0  0  0  0  0  0  0
    5.9573   -1.5988   -0.6673 H   0  0  0  0  0  0  0  0  0  0  0  0
    5.7651   -3.1056    0.2756 H   0  0  0  0  0  0  0  0  0  0  0  0
    3.4549   -2.5229    1.5736 C   0  0  0  0  0  0  0  0  0  0  0  0
    3.9196   -2.0462    2.4608 H   0  0  0  0  0  0  0  0  0  0  0  0
    3.7075   -3.6041    1.5928 H   0  0  0  0  0  0  0  0  0  0  0  0
    2.3588   -2.4144    1.6546 H   0  0  0  0  0  0  0  0  0  0  0  0
    3.4102   -2.5990   -0.9693 C   0  0  0  0  0  0  0  0  0  0  0  0
    3.6645   -3.6792   -0.9285 H   0  0  0  0  0  0  0  0  0  0  0  0
    3.8474   -2.1787   -1.8975 H   0  0  0  0  0  0  0  0  0  0  0  0
    2.3126   -2.4878   -1.0348 H   0  0  0  0  0  0  0  0  0  0  0  0
    5.2466    3.0752    0.0541 C   0  0  0  0  0  0  0  0  0  0  0  0
    5.4914    3.3237   -1.0022 H   0  0  0  0  0  0  0  0  0  0  0  0
    6.1845    2.7186    0.5252 H   0  0  0  0  0  0  0  0  0  0  0  0
    4.9616    4.0257    0.5488 H   0  0  0  0  0  0  0  0  0  0  0  0
    2.2190    4.2373   -1.4060 C   0  0  0  0  0  0  0  0  0  0  0  0
    3.2706    4.3633   -1.7304 H   0  0  0  0  0  0  0  0  0  0  0  0
    1.7070    5.2158   -1.5110 H   0  0  0  0  0  0  0  0  0  0  0  0
    1.7363    3.5128   -2.0941 H   0  0  0  0  0  0  0  0  0  0  0  0
   -1.8398    2.0744    0.3569 C   0  0  0  0  0  0  0  0  0  0  0  0
   -2.5703    2.2624   -0.8341 C   0  0  0  0  0  0  0  0  0  0  0  0
   -2.1759    1.8079   -1.7566 H   0  0  0  0  0  0  0  0  0  0  0  0
   -3.7534    3.0135   -0.8089 C   0  0  0  0  0  0  0  0  0  0  0  0
   -4.3201    3.1641   -1.7407 H   0  0  0  0  0  0  0  0  0  0  0  0
   -4.2153    3.5770    0.3945 C   0  0  0  0  0  0  0  0  0  0  0  0
   -5.1458    4.1642    0.4089 H   0  0  0  0  0  0  0  0  0  0  0  0
   -3.4813    3.3919    1.5764 C   0  0  0  0  0  0  0  0  0  0  0  0
   -3.8367    3.8306    2.5213 H   0  0  0  0  0  0  0  0  0  0  0  0
   -2.2948    2.6413    1.5614 C   0  0  0  0  0  0  0  0  0  0  0  0
   -1.7160    2.4797    2.4832 H   0  0  0  0  0  0  0  0  0  0  0  0
  1 37  1  0  0  0  0
  3  4  1  0  0  0  0
  3  2  1  0  0  0  0
  4 16  1  0  0  0  0
  5  4  2  0  0  0  0
  6  5  1  0  0  0  0
  7  8  2  0  0  0  0
  7  5  1  0  0  0  0
  8  9  1  0  0  0  0
  9  3  2  0  0  0  0
  9 10  1  0  0  0  0
 10  1  1  6  0  0  0
 10 11  1  0  0  0  0
 11 12  1  0  0  0  0
 13 11  1  0  0  0  0
 14  8  1  0  0  0  0
 14 11  1  0  0  0  0
 14 15  1  1  0  0  0
 16 21  1  0  0  0  0
 17 16  1  0  0  0  0
 17 20  1  0  0  0  0
 17 18  1  0  0  0  0
 19 17  1  0  0  0  0
 21 23  1  0  0  0  0
 21 24  1  0  0  0  0
 21 22  1  0  0  0  0
 25 26  1  0  0  0  0
 25 16  1  0  0  0  0
 27 25  1  0  0  0  0
 28 25  1  0  0  0  0
 29  7  1  0  0  0  0
 29 31  1  0  0  0  0
 29 32  1  0  0  0  0
 30 29  1  0  0  0  0
 33 14  1  0  0  0  0
 34 33  1  0  0  0  0
 35 33  1  0  0  0  0
 36 33  1  0  0  0  0
 37 46  1  0  0  0  0
 38 40  1  0  0  0  0
 38 37  2  0  0  0  0
 39 38  1  0  0  0  0
 40 42  2  0  0  0  0
 41 40  1  0  0  0  0
 42 43  1  0  0  0  0
 42 44  1  0  0  0  0
 44 45  1  0  0  0  0
 46 44  2  0  0  0  0
 46 47  1  0  0  0  0
M  CHG  1   2  -1
M  END
