1,2
q = -1.0

 32 33  0  0  1  0  0  0  0  0999 V2000
    1.1065    0.6084   -0.8359 O   0  5  0  0  0  0  0  0  0  0  0  0
   -1.4424   -0.7622   -1.5056 N   0  0  0  0  0  2  0  0  0  0  0  0
   -2.5533   -1.6510   -1.3965 C   0  0  0  0  0  0  0  0  0  0  0  0
   -3.6473   -1.3054   -0.5771 C   0  0  0  0  0  0  0  0  0  0  0  0
   -3.6232   -0.3419   -0.0469 H   0  0  0  0  0  0  0  0  0  0  0  0
   -4.7166   -2.1993   -0.4263 C   0  0  0  0  0  0  0  0  0  0  0  0
   -5.5646   -1.9266    0.2205 H   0  0  0  0  0  0  0  0  0  0  0  0
   -4.7045   -3.4395   -1.0855 C   0  0  0  0  0  0  0  0  0  0  0  0
   -5.5432   -4.1406   -0.9602 H   0  0  0  0  0  0  0  0  0  0  0  0
   -3.6114   -3.7855   -1.8959 C   0  0  0  0  0  0  0  0  0  0  0  0
   -3.5903   -4.7595   -2.4083 H   0  0  0  0  0  0  0  0  0  0  0  0
   -2.5373   -2.8970   -2.0531 C   0  0  0  0  0  0  0  0  0  0  0  0
   -1.6688   -3.1626   -2.6743 H   0  0  0  0  0  0  0  0  0  0  0  0
   -2.6099    0.2512   -3.4015 C   0  0  0  0  0  0  0  0  0  0  0  0
   -2.7555   -0.7151   -3.9241 H   0  0  0  0  0  0  0  0  0  0  0  0
   -2.4629    1.0465   -4.1534 H   0  0  0  0  0  0  0  0  0  0  0  0
   -3.5519    0.4490   -2.8517 H   0  0  0  0  0  0  0  0  0  0  0  0
   -1.4355    0.1808   -2.4460 C   0  0  1  0  0  3  0  0  0  0  0  0
   -0.4064    1.1477   -2.6200 C   0  0  0  0  0  0  0  0  0  0  0  0
   -0.5742    1.8695   -3.4278 H   0  0  0  0  0  0  0  0  0  0  0  0
    0.7582    1.3214   -1.8540 C   0  0  0  0  0  0  0  0  0  0  0  0
    1.7035    2.4374   -2.1716 C   0  0  0  0  0  0  0  0  0  0  0  0
    2.5257    2.9368   -1.1368 C   0  0  0  0  0  0  0  0  0  0  0  0
    2.4298    2.4921   -0.1356 H   0  0  0  0  0  0  0  0  0  0  0  0
    3.4246    3.9822   -1.3820 C   0  0  0  0  0  0  0  0  0  0  0  0
    4.0495    4.3697   -0.5627 H   0  0  0  0  0  0  0  0  0  0  0  0
    3.5285    4.5375   -2.6681 C   0  0  0  0  0  0  0  0  0  0  0  0
    4.2383    5.3560   -2.8625 H   0  0  0  0  0  0  0  0  0  0  0  0
    2.7253    4.0394   -3.7070 C   0  0  0  0  0  0  0  0  0  0  0  0
    2.8114    4.4599   -4.7206 H   0  0  0  0  0  0  0  0  0  0  0  0
    1.8182    2.9998   -3.4611 C   0  0  0  0  0  0  0  0  0  0  0  0
    1.2125    2.6007   -4.2879 H   0  0  0  0  0  0  0  0  0  0  0  0
  2  3  1  0  0  0  0
  3  4  1  0  0  0  0
  4  6  2  0  0  0  0
  4  5  1  0  0  0  0
  6  7  1  0  0  0  0
  8  9  1  0  0  0  0
  8  6  1  0  0  0  0
 10  8  2  0  0  0  0
 11 10  1  0  0  0  0
 12 10  1  0  0  0  0
 12  3  2  0  0  0  0
 13 12  1  0  0  0  0
 14 17  1  0  0  0  0
 14 18  1  0  0  0  0
 15 14  1  0  0  0  0
 16 14  1  0  0  0  0
 18 19  1  1  0  0  0
 18  2  1  0  0  0  0
 19 21  2  0  0  0  0
 20 19  1  0  0  0  0
 21  1  1  0  0  0  0
 22 21  1  0  0  0  0
 22 23  1  0  0  0  0
 23 24  1  0  0  0  0
 25 23  2  0  0  0  0
 25 26  1  0  0  0  0
 27 25  1  0  0  0  0
 28 27  1  0  0  0  0
 29 31  1  0  0  0  0
 29 27  2  0  0  0  0
 30 29  1  0  0  0  0
 31 22  2  0  0  0  0
 32 31  1  0  0  0  0
M  CHG  1   1  -1
M  END
