1,2
q = -1.0, confidence = 0.0

 35 37  0  0  0  0  0  0  0  0999 V2000
   -1.7675    0.5276   -0.5596 O   0  5  0  0  0  0  0  0  0  0  0  0
    0.3061   -0.9494   -1.4088 N   0  0  0  0  0  2  0  0  0  0  0  0
   -2.5795   -0.1976   -1.2914 C   0  0  0  0  0  0  0  0  0  0  0  0
   -3.9839    0.0799   -1.3120 C   0  0  0  0  0  0  0  0  0  0  0  0
   -4.7967   -0.7424   -2.1151 C   0  0  0  0  0  0  0  0  0  0  0  0
   -4.2834   -1.8141   -2.8695 C   0  0  0  0  0  0  0  0  0  0  0  0
   -2.9171   -2.0845   -2.8378 C   0  0  0  0  0  0  0  0  0  0  0  0
   -2.0496   -1.2857   -2.0543 C   0  0  0  0  0  0  0  0  0  0  0  0
   -0.6390   -1.5880   -2.0472 C   0  0  0  0  0  3  0  0  0  0  0  0
    1.6281   -1.4686   -1.5176 C   0  0  0  0  0  0  0  0  0  0  0  0
    2.6676   -0.6467   -1.9973 C   0  0  0  0  0  0  0  0  0  0  0  0
    3.9717   -1.1504   -2.0638 C   0  0  0  0  0  0  0  0  0  0  0  0
    4.2561   -2.4595   -1.6389 C   0  0  0  0  0  0  0  0  0  0  0  0
    3.2218   -3.2753   -1.1567 C   0  0  0  0  0  0  0  0  0  0  0  0
    1.9086   -2.7858   -1.1004 C   0  0  0  0  0  0  0  0  0  0  0  0
   -4.5689    1.1639   -0.4849 C   0  0  0  0  0  0  0  0  0  0  0  0
   -3.8852    2.3787   -0.2428 C   0  0  0  0  0  0  0  0  0  0  0  0
   -4.4571    3.3717    0.5637 C   0  0  0  0  0  0  0  0  0  0  0  0
   -5.7214    3.1817    1.1423 C   0  0  0  0  0  0  0  0  0  0  0  0
   -6.4168    1.9852    0.9030 C   0  0  0  0  0  0  0  0  0  0  0  0
   -5.8451    0.9890    0.1011 C   0  0  0  0  0  0  0  0  0  0  0  0
   -5.8738   -0.5221   -2.1632 H   0  0  0  0  0  0  0  0  0  0  0  0
   -4.9587   -2.4241   -3.4864 H   0  0  0  0  0  0  0  0  0  0  0  0
   -2.4927   -2.9144   -3.4247 H   0  0  0  0  0  0  0  0  0  0  0  0
   -0.3386   -2.4543   -2.6744 H   0  0  0  0  0  0  0  0  0  0  0  0
    2.4366    0.3858   -2.2941 H   0  0  0  0  0  0  0  0  0  0  0  0
    4.7777   -0.5012   -2.4355 H   0  0  0  0  0  0  0  0  0  0  0  0
    5.2875   -2.8409   -1.6767 H   0  0  0  0  0  0  0  0  0  0  0  0
    3.4366   -4.2977   -0.8108 H   0  0  0  0  0  0  0  0  0  0  0  0
    1.0941   -3.4085   -0.7003 H   0  0  0  0  0  0  0  0  0  0  0  0
   -2.8967    2.5480   -0.6868 H   0  0  0  0  0  0  0  0  0  0  0  0
   -3.8987    4.3025    0.7444 H   0  0  0  0  0  0  0  0  0  0  0  0
   -6.1632    3.9617    1.7809 H   0  0  0  0  0  0  0  0  0  0  0  0
   -7.4068    1.8204    1.3553 H   0  0  0  0  0  0  0  0  0  0  0  0
   -6.3811    0.0390   -0.0462 H   0  0  0  0  0  0  0  0  0  0  0  0
  3  1  1  0  0  0  0
  4  3  1  0  0  0  0
  4 16  1  0  0  0  0
  5  4  2  0  0  0  0
  6  7  2  0  0  0  0
  6  5  1  0  0  0  0
  7  8  1  0  0  0  0
  8  9  1  0  0  0  0
  8  3  2  0  0  0  0
  9  2  1  0  0  0  0
 10  2  1  0  0  0  0
 10 15  1  0  0  0  0
 11 10  2  0  0  0  0
 12 11  1  0  0  0  0
 12 13  2  0  0  0  0
 13 14  1  0  0  0  0
 14 15  2  0  0  0  0
 14 29  1  0  0  0  0
 15 30  1  0  0  0  0
 16 17  2  0  0  0  0
 16 21  1  0  0  0  0
 17 18  1  0  0  0  0
 18 32  1  0  0  0  0
 18 19  2  0  0  0  0
 19 33  1  0  0  0  0
 20 19  1  0  0  0  0
 20 34  1  0  0  0  0
 21 20  2  0  0  0  0
 22  5  1  0  0  0  0
 23  6  1  0  0  0  0
 24  7  1  0  0  0  0
 25  9  1  0  0  0  0
 26 11  1  0  0  0  0
 27 12  1  0  0  0  0
 28 13  1  0  0  0  0
 31 17  1  0  0  0  0
 35 21  1  0  0  0  0
M  CHG  1   1  -1
M  END
