4,7
q = -1.0

 54 56  0  0  0  0  0  0  0  0999 V2000
   -5.7487    1.6158    0.7299 S   0  0  0  0  0  0  0  0  0  0  0  0
   -6.6132    1.1568   -0.3702 O   0  0  0  0  0  0  0  0  0  0  0  0
   -6.2630    2.2526    1.9561 O   0  0  0  0  0  0  0  0  0  0  0  0
    2.5069   -0.9102   -0.2480 O   0  5  0  0  0  0  0  0  0  0  0  0
   -4.8747    0.2278    1.2979 N   0  0  0  0  0  0  0  0  0  0  0  0
   -4.4121    0.5085    2.1718 H   0  0  0  0  0  0  0  0  0  0  0  0
   -0.3566   -0.5128   -0.4624 N   0  0  0  0  0  2  0  0  0  0  0  0
    5.2471    2.9873   -0.1718 N   0  0  0  0  0  0  0  0  0  0  0  0
   -3.8115    3.5862    0.8577 C   0  0  0  0  0  0  0  0  0  0  0  0
   -4.1819    3.7453    1.8813 H   0  0  0  0  0  0  0  0  0  0  0  0
   -2.7209    4.3053    0.3471 C   0  0  0  0  0  0  0  0  0  0  0  0
   -2.2134    5.0498    0.9788 H   0  0  0  0  0  0  0  0  0  0  0  0
   -2.2802    4.0782   -0.9686 C   0  0  0  0  0  0  0  0  0  0  0  0
   -1.4229    4.6433   -1.3649 H   0  0  0  0  0  0  0  0  0  0  0  0
   -2.9346    3.1403   -1.7849 C   0  0  0  0  0  0  0  0  0  0  0  0
   -2.5878    2.9653   -2.8142 H   0  0  0  0  0  0  0  0  0  0  0  0
   -4.0327    2.4205   -1.2908 C   0  0  0  0  0  0  0  0  0  0  0  0
   -4.5648    1.6865   -1.9119 H   0  0  0  0  0  0  0  0  0  0  0  0
   -4.4518    2.6512    0.0294 C   0  0  0  0  0  0  0  0  0  0  0  0
   -4.0043   -0.3949    0.3619 C   0  0  0  0  0  0  0  0  0  0  0  0
   -4.5452   -1.1435   -0.7000 C   0  0  0  0  0  0  0  0  0  0  0  0
   -5.6339   -1.2737   -0.7572 H   0  0  0  0  0  0  0  0  0  0  0  0
   -3.6845   -1.6744   -1.6756 C   0  0  0  0  0  0  0  0  0  0  0  0
   -4.1082   -2.2450   -2.5161 H   0  0  0  0  0  0  0  0  0  0  0  0
   -2.2985   -1.4847   -1.6019 C   0  0  0  0  0  0  0  0  0  0  0  0
   -1.6013   -1.8762   -2.3591 H   0  0  0  0  0  0  0  0  0  0  0  0
   -1.7581   -0.7446   -0.5289 C   0  0  0  0  0  0  0  0  0  0  0  0
   -2.6099   -0.2046    0.4498 C   0  0  0  0  0  0  0  0  0  0  0  0
   -2.1833    0.3938    1.2697 H   0  0  0  0  0  0  0  0  0  0  0  0
    0.0481    0.7433   -0.4723 C   0  0  0  0  0  0  0  0  0  0  0  0
   -0.7475    1.5102   -0.5574 H   0  0  0  0  0  0  0  0  0  0  0  0
    1.3767    1.2358   -0.4006 C   0  0  0  0  0  0  0  0  0  0  0  0
    2.5464    0.3897   -0.2886 C   0  0  0  0  0  0  0  0  0  0  0  0
    3.8198    1.0133   -0.2066 C   0  0  0  0  0  0  0  0  0  0  0  0
    4.6737    0.3279   -0.1520 H   0  0  0  0  0  0  0  0  0  0  0  0
    3.9930    2.4134   -0.2429 C   0  0  0  0  0  0  0  0  0  0  0  0
    2.8170    3.2374   -0.3525 C   0  0  0  0  0  0  0  0  0  0  0  0
    2.8941    4.3309   -0.3604 H   0  0  0  0  0  0  0  0  0  0  0  0
    1.5711    2.6477   -0.4279 C   0  0  0  0  0  3  0  0  0  0  0  0
    0.6772    3.2879   -0.5033 H   0  0  0  0  0  0  0  0  0  0  0  0
    6.4427    2.1778    0.0318 C   0  0  0  0  0  0  0  0  0  0  0  0
    7.1895    2.8087    0.5589 H   0  0  0  0  0  0  0  0  0  0  0  0
    6.2035    1.3504    0.7312 H   0  0  0  0  0  0  0  0  0  0  0  0
    7.0433    1.6272   -1.2652 C   0  0  0  0  0  0  0  0  0  0  0  0
    7.9536    1.0301   -1.0544 H   0  0  0  0  0  0  0  0  0  0  0  0
    7.3274    2.4496   -1.9530 H   0  0  0  0  0  0  0  0  0  0  0  0
    6.3182    0.9786   -1.7951 H   0  0  0  0  0  0  0  0  0  0  0  0
    5.4530    4.4226   -0.3254 C   0  0  0  0  0  0  0  0  0  0  0  0
    6.4550    4.5707   -0.7809 H   0  0  0  0  0  0  0  0  0  0  0  0
    4.7321    4.8202   -1.0684 H   0  0  0  0  0  0  0  0  0  0  0  0
    5.3572    5.2038    0.9886 C   0  0  0  0  0  0  0  0  0  0  0  0
    5.5455    6.2839    0.8211 H   0  0  0  0  0  0  0  0  0  0  0  0
    6.1024    4.8382    1.7242 H   0  0  0  0  0  0  0  0  0  0  0  0
    4.3531    5.0926    1.4442 H   0  0  0  0  0  0  0  0  0  0  0  0
  1  5  1  0  0  0  0
  1  3  2  0  0  0  0
  2  1  2  0  0  0  0
  5  6  1  0  0  0  0
  8 41  1  0  0  0  0
  9 10  1  0  0  0  0
 11  9  1  0  0  0  0
 11 12  1  0  0  0  0
 13 11  2  0  0  0  0
 14 13  1  0  0  0  0
 15 17  2  0  0  0  0
 15 13  1  0  0  0  0
 16 15  1  0  0  0  0
 17 19  1  0  0  0  0
 18 17  1  0  0  0  0
 19  1  1  0  0  0  0
 19  9  2  0  0  0  0
 20 28  1  0  0  0  0
 20  5  1  0  0  0  0
 21 20  2  0  0  0  0
 22 21  1  0  0  0  0
 23 25  2  0  0  0  0
 23 21  1  0  0  0  0
 24 23  1  0  0  0  0
 25 27  1  0  0  0  0
 26 25  1  0  0  0  0
 27  7  1  0  0  0  0
 27 28  2  0  0  0  0
 28 29  1  0  0  0  0
 30  7  1  0  0  0  0
 30 32  2  0  0  0  0
 31 30  1  0  0  0  0
 32 33  1  0  0  0  0
 33  4  1  0  0  0  0
 33 34  2  0  0  0  0
 34 35  1  0  0  0  0
 36 34  1  0  0  0  0
 36  8  1  0  0  0  0
 37 36  2  0  0  0  0
 38 37  1  0  0  0  0
 39 32  1  0  0  0  0
 39 37  1  0  0  0  0
 40 39  1  0  0  0  0
 41 42  1  0  0  0  0
 41 43  1  0  0  0  0
 44 45  1  0  0  0  0
 44 41  1  0  0  0  0
 46 44  1  0  0  0  0
 47 44  1  0  0  0  0
 48  8  1  0  0  0  0
 48 51  1  0  0  0  0
 49 48  1  0  0  0  0
 50 48  1  0  0  0  0
 51 54  1  0  0  0  0
 51 53  1  0  0  0  0
 52 51  1  0  0  0  0
M  CHG  1   4  -1
M  END
