6,12
q = -1.0, confidence = 0.004

 24 25  0  0  1  0  0  0  0  0999 V2000
   -1.2581   -3.9591    1.2171 C   0  0  0  0  0  0  0  0  0  0  0  0
   -1.1452   -4.9362    1.7194 H   0  0  0  0  0  0  0  0  0  0  0  0
   -1.6300   -4.1090    0.1842 H   0  0  0  0  0  0  0  0  0  0  0  0
   -1.9662   -3.3229    1.7786 H   0  0  0  0  0  0  0  0  0  0  0  0
    0.0615   -3.3493    1.1601 N   0  0  0  0  0  0  0  0  0  0  0  0
    0.3498   -2.2486    0.4178 N   0  0  0  0  0  2  0  0  0  0  0  0
    1.6863   -2.0155    0.5689 C   0  0  1  0  0  3  0  0  0  0  0  0
    2.2342   -2.9824    1.4496 C   0  0  0  0  0  0  0  0  0  0  0  0
    3.2797   -3.0830    1.7524 H   0  0  0  0  0  0  0  0  0  0  0  0
    1.1732   -3.8025    1.8013 C   0  0  0  0  0  0  0  0  0  0  0  0
    1.1204   -4.6831    2.4491 H   0  0  0  0  0  0  0  0  0  0  0  0
    0.6431   -0.6333   -1.6960 O   0  5  0  0  0  0  0  0  0  0  0  0
    1.8689   -0.3500   -1.3051 C   0  0  0  0  0  0  0  0  0  0  0  0
    2.4101   -0.9517   -0.1241 C   0  0  0  0  0  0  0  0  0  0  0  0
    3.6835   -0.5476    0.3153 C   0  0  0  0  0  0  0  0  0  0  0  0
    4.1336   -0.9487    1.2329 H   0  0  0  0  0  0  0  0  0  0  0  0
    4.4048    0.4035   -0.4112 C   0  0  0  0  0  0  0  0  0  0  0  0
    3.9140    0.9445   -1.6136 C   0  0  0  0  0  0  0  0  0  0  0  0
    4.5264    1.6758   -2.1567 H   0  0  0  0  0  0  0  0  0  0  0  0
    2.6588    0.5514   -2.0634 C   0  0  0  0  0  0  0  0  0  0  0  0
    2.2265    0.9577   -2.9867 H   0  0  0  0  0  0  0  0  0  0  0  0
    5.7099    0.8500    0.1035 N   0  0  0  0  0  0  0  0  0  0  0  0
    6.1172    0.3407    1.1516 O   0  0  0  0  0  0  0  0  0  0  0  0
    6.3121    1.7111   -0.5419 O   0  0  0  0  0  0  0  0  0  0  0  0
  1  2  1  0  0  0  0
  1  4  1  0  0  0  0
  3  1  1  0  0  0  0
  5  1  1  0  0  0  0
  5 10  1  0  0  0  0
  6  7  1  0  0  0  0
  6  5  1  0  0  0  0
  7 14  1  6  0  0  0
  7  8  1  0  0  0  0
  8  9  1  0  0  0  0
  8 10  2  0  0  0  0
 10 11  1  0  0  0  0
 12 13  1  0  0  0  0
 13 14  1  0  0  0  0
 14 15  2  0  0  0  0
 15 16  1  0  0  0  0
 17 22  1  0  0  0  0
 17 15  1  0  0  0  0
 18 17  2  0  0  0  0
 19 18  1  0  0  0  0
 20 18  1  0  0  0  0
 20 13  2  0  0  0  0
 21 20  1  0  0  0  0
 22 23  2  0  0  0  0
 24 22  2  0  0  0  0
M  CHG  1  12  -1
M  END
