1,12
q = -1.0

 22 23  0  0  1  0  0  0  0  0999 V2000
    0.9441   -1.3963   -0.3613 O   0  5  0  0  0  0  0  0  0  0  0  0
    2.2539   -1.5248   -0.6217 C   0  0  0  0  0  0  0  0  0  0  0  0
    3.2269   -0.4834   -0.4678 C   0  0  0  0  0  0  0  0  0  0  0  0
    4.5808   -0.7810   -0.7535 C   0  0  0  0  0  0  0  0  0  0  0  0
    5.3325    0.0127   -0.6301 H   0  0  0  0  0  0  0  0  0  0  0  0
    4.9835   -2.0468   -1.1836 C   0  0  0  0  0  0  0  0  0  0  0  0
    6.0449   -2.2444   -1.3938 H   0  0  0  0  0  0  0  0  0  0  0  0
    4.0222   -3.0630   -1.3489 C   0  0  0  0  0  0  0  0  0  0  0  0
    4.3244   -4.0640   -1.6923 H   0  0  0  0  0  0  0  0  0  0  0  0
    2.6797   -2.7985   -1.0759 C   0  0  0  0  0  0  0  0  0  0  0  0
    1.9053   -3.5704   -1.1987 H   0  0  0  0  0  0  0  0  0  0  0  0
    1.5418    1.1347    0.2420 N   0  0  0  0  0  2  0  0  0  0  0  0
    2.8348    0.8568   -0.0637 C   0  0  2  0  0  3  0  0  0  0  0  0
    3.6008    2.0564    0.0512 C   0  0  0  0  0  0  0  0  0  0  0  0
    4.6717    2.1857   -0.1297 H   0  0  0  0  0  0  0  0  0  0  0  0
    2.7091    3.0549    0.4364 C   0  0  0  0  0  0  0  0  0  0  0  0
    1.4893    2.4448    0.5456 N   0  0  0  0  0  0  0  0  0  0  0  0
    0.5625    2.8406    0.7203 H   0  0  0  0  0  0  0  0  0  0  0  0
    2.9033    4.5089    0.7092 C   0  0  0  0  0  0  0  0  0  0  0  0
    3.9598    4.7890    0.5452 H   0  0  0  0  0  0  0  0  0  0  0  0
    2.6410    4.7685    1.7564 H   0  0  0  0  0  0  0  0  0  0  0  0
    2.2774    5.1399    0.0435 H   0  0  0  0  0  0  0  0  0  0  0  0
  2  3  1  0  0  0  0
  2  1  1  0  0  0  0
  4  5  1  0  0  0  0
  4  3  2  0  0  0  0
  6  4  1  0  0  0  0
  7  6  1  0  0  0  0
  8  6  2  0  0  0  0
  8 10  1  0  0  0  0
  9  8  1  0  0  0  0
 10  2  2  0  0  0  0
 11 10  1  0  0  0  0
 12 17  1  0  0  0  0
 13  3  1  6  0  0  0
 13 14  1  0  0  0  0
 13 12  1  0  0  0  0
 14 16  2  0  0  0  0
 15 14  1  0  0  0  0
 16 17  1  0  0  0  0
 16 19  1  0  0  0  0
 17 18  1  0  0  0  0
 19 21  1  0  0  0  0
 20 19  1  0  0  0  0
 22 19  1  0  0  0  0
M  CHG  1   1  -1
M  END
