3,9
q = -1.0, confidence = 0.0

 19 20  0  0  1  0  0  0  0  0999 V2000
   -0.8778    2.7321    0.2808 N   0  0  0  0  0  0  0  0  0  0  0  0
    0.1205    2.9050    0.4250 H   0  0  0  0  0  0  0  0  0  0  0  0
   -1.2382    1.4609    0.0304 N   0  0  0  0  0  2  0  0  0  0  0  0
   -2.5680    1.4783   -0.2520 C   0  0  1  0  0  3  0  0  0  0  0  0
   -3.0375    2.8252   -0.1765 C   0  0  0  0  0  0  0  0  0  0  0  0
   -4.0536    3.1888   -0.3520 H   0  0  0  0  0  0  0  0  0  0  0  0
   -1.9282    3.5910    0.1591 C   0  0  0  0  0  0  0  0  0  0  0  0
   -1.8088    4.6674    0.3191 H   0  0  0  0  0  0  0  0  0  0  0  0
   -1.2507   -1.1528   -0.5254 O   0  5  0  0  0  0  0  0  0  0  0  0
   -2.5621   -0.9863   -0.7518 C   0  0  0  0  0  0  0  0  0  0  0  0
   -3.2673    0.2528   -0.6031 C   0  0  0  0  0  0  0  0  0  0  0  0
   -4.6613    0.2664   -0.8472 C   0  0  0  0  0  0  0  0  0  0  0  0
   -5.2094    1.2124   -0.7263 H   0  0  0  0  0  0  0  0  0  0  0  0
   -5.3539   -0.8828   -1.2330 C   0  0  0  0  0  0  0  0  0  0  0  0
   -6.4383   -0.8376   -1.4108 H   0  0  0  0  0  0  0  0  0  0  0  0
   -4.6542   -2.0945   -1.3958 C   0  0  0  0  0  0  0  0  0  0  0  0
   -5.1866   -3.0067   -1.7052 H   0  0  0  0  0  0  0  0  0  0  0  0
   -3.2795   -2.1381   -1.1633 C   0  0  0  0  0  0  0  0  0  0  0  0
   -2.7062   -3.0692   -1.2860 H   0  0  0  0  0  0  0  0  0  0  0  0
  1  2  1  0  0  0  0
  3  1  1  0  0  0  0
  4 11  1  6  0  0  0
  4  5  1  0  0  0  0
  4  3  1  0  0  0  0
  5  7  2  0  0  0  0
  6  5  1  0  0  0  0
  7  1  1  0  0  0  0
  7  8  1  0  0  0  0
 10 11  1  0  0  0  0
 10  9  1  0  0  0  0
 12 13  1  0  0  0  0
 12 11  2  0  0  0  0
 14 12  1  0  0  0  0
 15 14  1  0  0  0  0
 16 14  2  0  0  0  0
 16 18  1  0  0  0  0
 17 16  1  0  0  0  0
 18 10  2  0  0  0  0
 19 18  1  0  0  0  0
M  CHG  1   9  -1
M  END
