1,14
q = -1.0

 31 32  0  0  0  0  0  0  0  0999 V2000
   -1.2966   -1.5712    0.9024 O   0  5  0  0  0  0  0  0  0  0  0  0
   -1.7012   -2.2241   -0.1649 C   0  0  0  0  0  0  0  0  0  0  0  0
   -3.0070   -2.7843   -0.2059 C   0  0  0  0  0  0  0  0  0  0  0  0
   -3.6406   -2.6655    0.6853 H   0  0  0  0  0  0  0  0  0  0  0  0
   -3.4735   -3.4412   -1.3458 C   0  0  0  0  0  0  0  0  0  0  0  0
   -4.4978   -3.8455   -1.3550 H   0  0  0  0  0  0  0  0  0  0  0  0
   -2.6495   -3.5949   -2.4816 C   0  0  0  0  0  0  0  0  0  0  0  0
   -3.0219   -4.1171   -3.3746 H   0  0  0  0  0  0  0  0  0  0  0  0
   -1.3499   -3.0911   -2.4455 C   0  0  0  0  0  0  0  0  0  0  0  0
   -0.6813   -3.2226   -3.3121 H   0  0  0  0  0  0  0  0  0  0  0  0
   -0.8537   -2.3954   -1.3136 C   0  0  0  0  0  0  0  0  0  0  0  0
    0.5267   -1.9542   -1.3215 C   0  0  0  0  0  3  0  0  0  0  0  0
    1.1364   -2.3747   -2.1510 H   0  0  0  0  0  0  0  0  0  0  0  0
    1.0925   -1.1710   -0.4511 N   0  0  0  0  0  2  0  0  0  0  0  0
    2.5564   -0.9932   -0.5371 C   0  0  0  0  0  0  0  0  0  0  0  0
    2.8028   -0.1744    0.1674 H   0  0  0  0  0  0  0  0  0  0  0  0
    3.0791   -0.5693   -1.9209 C   0  0  0  0  0  0  0  0  0  0  0  0
    2.8611   -1.3607   -2.6721 H   0  0  0  0  0  0  0  0  0  0  0  0
    2.5528    0.3495   -2.2519 H   0  0  0  0  0  0  0  0  0  0  0  0
    4.5945   -0.3370   -1.8681 C   0  0  0  0  0  0  0  0  0  0  0  0
    4.9676   -0.0423   -2.8711 H   0  0  0  0  0  0  0  0  0  0  0  0
    4.7990    0.5257   -1.1960 H   0  0  0  0  0  0  0  0  0  0  0  0
    5.3393   -1.5762   -1.3540 C   0  0  0  0  0  0  0  0  0  0  0  0
    6.4293   -1.3748   -1.2922 H   0  0  0  0  0  0  0  0  0  0  0  0
    5.2160   -2.4060   -2.0864 H   0  0  0  0  0  0  0  0  0  0  0  0
    4.8004   -2.0263    0.0104 C   0  0  0  0  0  0  0  0  0  0  0  0
    5.0290   -1.2471    0.7714 H   0  0  0  0  0  0  0  0  0  0  0  0
    5.3132   -2.9507    0.3492 H   0  0  0  0  0  0  0  0  0  0  0  0
    3.2843   -2.2504   -0.0268 C   0  0  0  0  0  0  0  0  0  0  0  0
    3.0420   -3.1039   -0.6997 H   0  0  0  0  0  0  0  0  0  0  0  0
    2.8893   -2.5053    0.9778 H   0  0  0  0  0  0  0  0  0  0  0  0
  2  1  1  0  0  0  0
  3  2  1  0  0  0  0
  3  4  1  0  0  0  0
  5  3  2  0  0  0  0
  6  5  1  0  0  0  0
  7  9  2  0  0  0  0
  7  5  1  0  0  0  0
  8  7  1  0  0  0  0
  9 11  1  0  0  0  0
 10  9  1  0  0  0  0
 11  2  2  0  0  0  0
 12 11  1  0  0  0  0
 12 14  1  0  0  0  0
 13 12  1  0  0  0  0
 15 14  1  0  0  0  0
 15 29  1  0  0  0  0
 15 16  1  0  0  0  0
 17 20  1  0  0  0  0
 17 15  1  0  0  0  0
 18 17  1  0  0  0  0
 19 17  1  0  0  0  0
 20 23  1  0  0  0  0
 20 22  1  0  0  0  0
 21 20  1  0  0  0  0
 23 24  1  0  0  0  0
 23 26  1  0  0  0  0
 25 23  1  0  0  0  0
 26 28  1  0  0  0  0
 26 27  1  0  0  0  0
 29 26  1  0  0  0  0
 29 31  1  0  0  0  0
 30 29  1  0  0  0  0
M  CHG  1   1  -1
M  END
