1,3
q = -1.0

 36 36  0  0  1  0  0  0  0  0999 V2000
    1.5521   -1.6111    0.0021 O   0  0  0  0  0  1  0  0  0  0  0  0
    2.0006   -0.4156    0.0121 C   0  0  2  0  0  3  0  0  0  0  0  0
    1.0062    0.5162    0.0348 N   0  0  0  0  0  2  0  0  0  0  0  0
    3.4404   -0.1531   -0.0050 C   0  0  0  0  0  0  0  0  0  0  0  0
    4.4669   -1.2806    0.3351 C   0  0  0  0  0  0  0  0  0  0  0  0
    4.1032   -1.8582    1.7174 C   0  0  0  0  0  0  0  0  0  0  0  0
    5.8908   -0.6977    0.3907 C   0  0  0  0  0  0  0  0  0  0  0  0
    4.4022   -2.3691   -0.7544 C   0  0  0  0  0  0  0  0  0  0  0  0
    3.9290    1.0179   -0.4366 C   0  0  0  0  0  0  0  0  0  0  0  0
    4.4325    1.9974   -0.8398 O   0  0  0  0  0  0  0  0  0  0  0  0
    1.1591    1.9573    0.1476 C   0  0  0  0  0  0  0  0  0  0  0  0
    0.3173    2.5303    1.3007 C   0  0  0  0  0  0  0  0  0  0  0  0
    0.4962    4.0489    1.4125 C   0  0  0  0  0  0  0  0  0  0  0  0
    0.1769    4.7526    0.0872 C   0  0  0  0  0  0  0  0  0  0  0  0
    1.0183    4.1821   -1.0617 C   0  0  0  0  0  0  0  0  0  0  0  0
    0.8468    2.6638   -1.1838 C   0  0  0  0  0  0  0  0  0  0  0  0
    2.2213    2.1653    0.4115 H   0  0  0  0  0  0  0  0  0  0  0  0
    0.5866    2.0160    2.2449 H   0  0  0  0  0  0  0  0  0  0  0  0
   -0.7491    2.2897    1.1101 H   0  0  0  0  0  0  0  0  0  0  0  0
    1.5465    4.2770    1.7035 H   0  0  0  0  0  0  0  0  0  0  0  0
   -0.1425    4.4429    2.2299 H   0  0  0  0  0  0  0  0  0  0  0  0
    0.3375    5.8467    0.1796 H   0  0  0  0  0  0  0  0  0  0  0  0
   -0.9031    4.6136   -0.1481 H   0  0  0  0  0  0  0  0  0  0  0  0
    0.7543    4.6705   -2.0224 H   0  0  0  0  0  0  0  0  0  0  0  0
    2.0922    4.4135   -0.8804 H   0  0  0  0  0  0  0  0  0  0  0  0
    1.4899    2.2500   -1.9876 H   0  0  0  0  0  0  0  0  0  0  0  0
   -0.1989    2.4138   -1.4673 H   0  0  0  0  0  0  0  0  0  0  0  0
    4.8181   -2.6656    1.9775 H   0  0  0  0  0  0  0  0  0  0  0  0
    5.9793    0.1029    1.1535 H   0  0  0  0  0  0  0  0  0  0  0  0
    3.3870   -2.7995   -0.8258 H   0  0  0  0  0  0  0  0  0  0  0  0
    3.0822   -2.2829    1.7213 H   0  0  0  0  0  0  0  0  0  0  0  0
    4.1654   -1.0782    2.5027 H   0  0  0  0  0  0  0  0  0  0  0  0
    6.2119   -0.2879   -0.5891 H   0  0  0  0  0  0  0  0  0  0  0  0
    6.6060   -1.4993    0.6613 H   0  0  0  0  0  0  0  0  0  0  0  0
    5.1167   -3.1819   -0.5085 H   0  0  0  0  0  0  0  0  0  0  0  0
    4.6809   -1.9543   -1.7439 H   0  0  0  0  0  0  0  0  0  0  0  0
  2  1  1  6  0  0  0
  2  3  1  0  0  0  0
  3 11  1  0  0  0  0
  4  2  1  0  0  0  0
  4  5  1  0  0  0  0
  5  7  1  0  0  0  0
  5  6  1  0  0  0  0
  6 31  1  0  0  0  0
  6 28  1  0  0  0  0
  6 32  1  0  0  0  0
  7 34  1  0  0  0  0
  7 29  1  0  0  0  0
  8 35  1  0  0  0  0
  8  5  1  0  0  0  0
  9  4  2  0  0  0  0
 10  9  2  0  0  0  0
 11 17  1  0  0  0  0
 11 12  1  0  0  0  0
 12 13  1  0  0  0  0
 12 18  1  0  0  0  0
 13 20  1  0  0  0  0
 13 21  1  0  0  0  0
 14 22  1  0  0  0  0
 14 13  1  0  0  0  0
 15 25  1  0  0  0  0
 15 14  1  0  0  0  0
 16 15  1  0  0  0  0
 16 11  1  0  0  0  0
 19 12  1  0  0  0  0
 23 14  1  0  0  0  0
 24 15  1  0  0  0  0
 26 16  1  0  0  0  0
 27 16  1  0  0  0  0
 30  8  1  0  0  0  0
 33  7  1  0  0  0  0
 36  8  1  0  0  0  0
M  END
