4,29
q = -1.0

 30 32  0  0  1  0  0  0  0  0999 V2000
    8.6549   -0.6457    0.7038 F   0  0  0  0  0  0  0  0  0  0  0  0
    8.1187   -1.7381   -1.1043 F   0  0  0  0  0  0  0  0  0  0  0  0
    8.9326    0.2867   -1.2480 F   0  0  0  0  0  0  0  0  0  0  0  0
    0.5335    1.4973    0.1516 N   0  0  0  0  0  2  0  0  0  0  0  0
    1.6969    0.8319    0.0081 N   0  0  0  0  0  0  0  0  0  0  0  0
   -1.8069    3.3923    0.6728 C   0  0  0  0  0  0  0  0  0  0  0  0
   -2.7503    4.4540    0.8944 C   0  0  0  0  0  0  0  0  0  0  0  0
   -3.7801    4.1416    1.1215 H   0  0  0  0  0  0  0  0  0  0  0  0
   -2.3983    5.7917    0.8208 C   0  0  0  0  0  0  0  0  0  0  0  0
   -3.1632    6.5654    0.9915 H   0  0  0  0  0  0  0  0  0  0  0  0
   -1.0645    6.1714    0.5237 C   0  0  0  0  0  0  0  0  0  0  0  0
   -0.7834    7.2318    0.4561 H   0  0  0  0  0  0  0  0  0  0  0  0
   -0.1182    5.1802    0.3186 C   0  0  0  0  0  0  0  0  0  0  0  0
    0.9193    5.4718    0.0862 H   0  0  0  0  0  0  0  0  0  0  0  0
   -0.4345    3.7896    0.3875 C   0  0  0  0  0  0  0  0  0  0  0  0
    0.6314    2.8371    0.2114 C   0  0  1  0  0  3  0  0  0  0  0  0
    2.7469    1.6182   -0.0524 C   0  0  0  0  0  0  0  0  0  0  0  0
    4.1112    1.1090   -0.1900 C   0  0  0  0  0  0  0  0  0  0  0  0
    4.3305   -0.2856   -0.0834 C   0  0  0  0  0  0  0  0  0  0  0  0
    3.4802   -0.9513    0.1152 H   0  0  0  0  0  0  0  0  0  0  0  0
    5.6179   -0.8070   -0.2141 C   0  0  0  0  0  0  0  0  0  0  0  0
    5.7738   -1.8924   -0.1339 H   0  0  0  0  0  0  0  0  0  0  0  0
    5.2093    1.9636   -0.4279 C   0  0  0  0  0  0  0  0  0  0  0  0
    5.0524    3.0493   -0.5243 H   0  0  0  0  0  0  0  0  0  0  0  0
    6.4991    1.4383   -0.5572 C   0  0  0  0  0  0  0  0  0  0  0  0
    7.3513    2.1042   -0.7522 H   0  0  0  0  0  0  0  0  0  0  0  0
    6.7081    0.0524   -0.4500 C   0  0  0  0  0  0  0  0  0  0  0  0
    8.1069   -0.5126   -0.5306 C   0  0  0  0  0  0  0  0  0  0  0  0
   -2.2523    2.1769    0.7426 O   0  5  0  0  0  0  0  0  0  0  0  0
    2.3266    3.3249    0.0808 S   0  0  0  0  0  0  0  0  0  0  0  0
  2 28  1  0  0  0  0
  3 28  1  0  0  0  0
  4 16  1  0  0  0  0
  5  4  1  0  0  0  0
  6 29  1  0  0  0  0
  6  7  1  0  0  0  0
  7  8  1  0  0  0  0
  9  7  2  0  0  0  0
  9 10  1  0  0  0  0
 11  9  1  0  0  0  0
 12 11  1  0  0  0  0
 13 15  1  0  0  0  0
 13 11  2  0  0  0  0
 14 13  1  0  0  0  0
 15  6  2  0  0  0  0
 16 15  1  1  0  0  0
 17  5  2  0  0  0  0
 17 30  1  0  0  0  0
 18 19  1  0  0  0  0
 18 17  1  0  0  0  0
 19 20  1  0  0  0  0
 21 22  1  0  0  0  0
 21 19  2  0  0  0  0
 23 18  2  0  0  0  0
 24 23  1  0  0  0  0
 25 27  2  0  0  0  0
 25 23  1  0  0  0  0
 26 25  1  0  0  0  0
 27 21  1  0  0  0  0
 28 27  1  0  0  0  0
 28  1  1  0  0  0  0
 30 16  1  0  0  0  0
M  CHG  1  29  -1
M  END
