1,11
q = -2.0, confidence = 0.928

 22 23  0  0  1  0  0  0  0  0999 V2000
    1.3405    0.6837   -0.3743 N   0  0  0  0  0  2  0  0  0  0  0  0
    2.3488   -0.2008   -0.9906 C   0  0  2  0  0  0  0  0  0  0  0  0
    1.9993   -1.6367   -0.5827 C   0  0  1  0  0  0  0  0  0  0  0  0
    2.5324   -2.0187    0.8045 C   0  0  0  0  0  0  0  0  0  0  0  0
    4.0031   -1.6232    0.9666 C   0  0  0  0  0  0  0  0  0  0  0  0
    4.1480   -0.1051    0.8359 C   0  0  0  0  0  0  0  0  0  0  0  0
    3.6992    0.4100   -0.5430 C   0  0  2  0  0  0  0  0  0  0  0  0
    3.3419    1.9053   -0.5005 C   0  0  0  0  0  0  0  0  0  0  0  0
    1.8604    1.9242   -0.0867 C   0  0  0  0  0  0  0  0  0  0  0  0
    1.2627    2.8818    0.4059 O   0  0  0  0  0  0  0  0  0  0  0  0
    0.5719   -1.7720   -0.6207 O   0  0  0  0  0  1  0  0  0  0  0  0
    2.2526   -0.1230   -2.1000 H   0  0  0  0  0  0  0  0  0  0  0  0
    2.4133   -2.3402   -1.3409 H   0  0  0  0  0  0  0  0  0  0  0  0
    1.9179   -1.4941    1.5673 H   0  0  0  0  0  0  0  0  0  0  0  0
    2.3772   -3.1060    0.9592 H   0  0  0  0  0  0  0  0  0  0  0  0
    4.3882   -1.9642    1.9498 H   0  0  0  0  0  0  0  0  0  0  0  0
    4.6254   -2.1319    0.1949 H   0  0  0  0  0  0  0  0  0  0  0  0
    3.5289    0.3757    1.6255 H   0  0  0  0  0  0  0  0  0  0  0  0
    5.1936    0.2201    1.0185 H   0  0  0  0  0  0  0  0  0  0  0  0
    4.4855    0.1831   -1.2925 H   0  0  0  0  0  0  0  0  0  0  0  0
    3.9499    2.5086    0.2010 H   0  0  0  0  0  0  0  0  0  0  0  0
    3.4176    2.3789   -1.5037 H   0  0  0  0  0  0  0  0  0  0  0  0
  1  9  1  0  0  0  0
  2 12  1  6  0  0  0
  2  3  1  0  0  0  0
  2  7  1  0  0  0  0
  2  1  1  0  0  0  0
  3 13  1  6  0  0  0
  3  4  1  0  0  0  0
  4 15  1  0  0  0  0
  4  5  1  0  0  0  0
  4 14  1  0  0  0  0
  5 16  1  0  0  0  0
  6  5  1  0  0  0  0
  6 19  1  0  0  0  0
  6 18  1  0  0  0  0
  7 20  1  6  0  0  0
  7  8  1  0  0  0  0
  7  6  1  0  0  0  0
  8  9  1  0  0  0  0
  8 21  1  0  0  0  0
  9 10  2  0  0  0  0
 11  3  1  0  0  0  0
 17  5  1  0  0  0  0
 22  8  1  0  0  0  0
M  END
