1,5
q = -1.0, confidence = 0.028

 23 24  0  0  1  0  0  0  0  0999 V2000
    0.0926   -1.9296   -0.4369 O   0  5  0  0  0  0  0  0  0  0  0  0
   -1.1934   -3.8041   -0.3409 O   0  0  0  0  0  0  0  0  0  0  0  0
   -3.7551   -4.2546   -0.0879 O   0  0  0  0  0  0  0  0  0  0  0  0
   -5.6124   -2.9823    0.0958 O   0  0  0  0  0  0  0  0  0  0  0  0
   -1.9267   -0.2866   -0.1331 N   0  0  0  0  0  2  0  0  0  0  0  0
   -4.1116   -0.6215    0.0015 N   0  0  0  0  0  0  0  0  0  0  0  0
   -5.1273   -0.4852    0.0193 H   0  0  0  0  0  0  0  0  0  0  0  0
   -4.8428    3.6104    0.5524 N   0  0  0  0  0  0  0  0  0  0  0  0
   -1.0326   -2.5662   -0.3030 C   0  0  0  0  0  0  0  0  0  0  0  0
   -2.1813   -1.6491   -0.1216 C   0  0  0  0  0  0  0  0  0  0  0  0
   -3.5489   -1.8733   -0.0378 C   0  0  0  0  0  0  0  0  0  0  0  0
   -4.3985   -3.1003   -0.0035 C   0  0  0  0  0  0  0  0  0  0  0  0
   -3.1274    0.3367   -0.0682 C   0  0  2  0  0  3  0  0  0  0  0  0
   -3.3988    1.7697   -0.0994 C   0  0  0  0  0  0  0  0  0  0  0  0
   -4.5282    2.3122    0.5610 C   0  0  0  0  0  0  0  0  0  0  0  0
   -5.1975    1.6525    1.1458 H   0  0  0  0  0  0  0  0  0  0  0  0
   -2.5587    2.6595   -0.8033 C   0  0  0  0  0  0  0  0  0  0  0  0
   -1.6845    2.2723   -1.3401 H   0  0  0  0  0  0  0  0  0  0  0  0
   -2.8760    4.0196   -0.7999 C   0  0  0  0  0  0  0  0  0  0  0  0
   -2.2376    4.7452   -1.3241 H   0  0  0  0  0  0  0  0  0  0  0  0
   -4.0269    4.4448   -0.1141 C   0  0  0  0  0  0  0  0  0  0  0  0
   -4.3056    5.5134   -0.1040 H   0  0  0  0  0  0  0  0  0  0  0  0
   -2.7344   -4.1321   -0.1868 H   0  0  0  0  0  0  0  0  0  0  0  0
  1  9  1  0  0  0  0
  2  9  2  0  0  0  0
  3 12  1  0  0  0  0
  5 10  1  0  0  0  0
  5 13  1  0  0  0  0
  6  7  1  0  0  0  0
  8 15  1  0  0  0  0
  9 10  1  0  0  0  0
 10 11  2  0  0  0  0
 11 12  1  0  0  0  0
 11  6  1  0  0  0  0
 12  4  2  0  0  0  0
 13 14  1  6  0  0  0
 13  6  1  0  0  0  0
 14 15  2  0  0  0  0
 15 16  1  0  0  0  0
 17 19  2  0  0  0  0
 17 14  1  0  0  0  0
 18 17  1  0  0  0  0
 19 21  1  0  0  0  0
 20 19  1  0  0  0  0
 21 22  1  0  0  0  0
 21  8  2  0  0  0  0
 23  3  1  0  0  0  0
M  CHG  1   1  -1
M  END
