4,6
q = -1.0

 34 35  0  0  0  0  0  0  0  0999 V2000
   -3.9361    4.3201    0.4846 I   0  0  0  0  0  0  0  0  0  0  0  0
   -1.5230    0.0745   -3.1699 I   0  0  0  0  0  0  0  0  0  0  0  0
    5.3467   -2.9412    1.7675 O   0  0  0  0  0  0  0  0  0  0  0  0
    0.9158    0.7389   -1.2794 O   0  5  0  0  0  0  0  0  0  0  0  0
    3.7982   -0.5070    2.0097 N   0  0  0  0  0  0  0  0  0  0  0  0
    2.3092    1.8099    1.0037 N   0  0  0  0  0  2  0  0  0  0  0  0
    3.9255   -2.9776    1.8508 C   0  0  0  0  0  0  0  0  0  0  0  0
    3.6555   -3.9201    2.3657 H   0  0  0  0  0  0  0  0  0  0  0  0
    3.4766   -2.9914    0.8300 H   0  0  0  0  0  0  0  0  0  0  0  0
    5.7588   -1.7462    1.1442 C   0  0  0  0  0  0  0  0  0  0  0  0
    5.3806   -1.7102    0.0915 H   0  0  0  0  0  0  0  0  0  0  0  0
    6.8669   -1.7516    1.1102 H   0  0  0  0  0  0  0  0  0  0  0  0
    5.2672   -0.5084    1.8913 C   0  0  0  0  0  0  0  0  0  0  0  0
    5.7303   -0.4997    2.9102 H   0  0  0  0  0  0  0  0  0  0  0  0
    5.6041    0.4077    1.3664 H   0  0  0  0  0  0  0  0  0  0  0  0
    3.3737   -1.7879    2.6213 C   0  0  0  0  0  0  0  0  0  0  0  0
    2.2672   -1.8089    2.6213 H   0  0  0  0  0  0  0  0  0  0  0  0
    3.7391   -1.8352    3.6771 H   0  0  0  0  0  0  0  0  0  0  0  0
    3.3291    0.6125    2.8486 C   0  0  0  0  0  0  0  0  0  0  0  0
    3.9728    0.7188    3.7561 H   0  0  0  0  0  0  0  0  0  0  0  0
    2.3018    0.3649    3.1830 H   0  0  0  0  0  0  0  0  0  0  0  0
    3.2657    1.9386    2.0859 C   0  0  0  0  0  0  0  0  0  0  0  0
    4.2653    2.2016    1.6718 H   0  0  0  0  0  0  0  0  0  0  0  0
    2.9837    2.7503    2.7945 H   0  0  0  0  0  0  0  0  0  0  0  0
    1.1947    2.4908    1.0760 C   0  0  0  0  0  3  0  0  0  0  0  0
    1.1026    3.2304    1.9044 H   0  0  0  0  0  0  0  0  0  0  0  0
    0.0308    2.3940    0.2360 C   0  0  0  0  0  0  0  0  0  0  0  0
   -1.0814    3.2030    0.6026 C   0  0  0  0  0  0  0  0  0  0  0  0
   -0.9799    3.8807    1.4637 H   0  0  0  0  0  0  0  0  0  0  0  0
   -2.2793    3.1241   -0.0927 C   0  0  0  0  0  0  0  0  0  0  0  0
   -2.4165    2.2297   -1.1833 C   0  0  0  0  0  0  0  0  0  0  0  0
   -3.3694    2.1561   -1.7255 H   0  0  0  0  0  0  0  0  0  0  0  0
   -1.3363    1.4392   -1.5567 C   0  0  0  0  0  0  0  0  0  0  0  0
   -0.0582    1.4746   -0.8871 C   0  0  0  0  0  0  0  0  0  0  0  0
  2 33  1  0  0  0  0
  3  7  1  0  0  0  0
  4 34  1  0  0  0  0
  5 16  1  0  0  0  0
  5 19  1  0  0  0  0
  6 25  1  0  0  0  0
  6 22  1  0  0  0  0
  7  8  1  0  0  0  0
  7 16  1  0  0  0  0
  9  7  1  0  0  0  0
 10  3  1  0  0  0  0
 10 13  1  0  0  0  0
 11 10  1  0  0  0  0
 12 10  1  0  0  0  0
 13  5  1  0  0  0  0
 13 14  1  0  0  0  0
 15 13  1  0  0  0  0
 16 17  1  0  0  0  0
 16 18  1  0  0  0  0
 19 21  1  0  0  0  0
 19 20  1  0  0  0  0
 22 24  1  0  0  0  0
 22 19  1  0  0  0  0
 23 22  1  0  0  0  0
 25 26  1  0  0  0  0
 27 28  1  0  0  0  0
 27 25  1  0  0  0  0
 28 29  1  0  0  0  0
 30  1  1  0  0  0  0
 30 28  2  0  0  0  0
 31 30  1  0  0  0  0
 32 31  1  0  0  0  0
 33 31  2  0  0  0  0
 33 34  1  0  0  0  0
 34 27  2  0  0  0  0
M  CHG  1   4  -1
M  END
