1,3
q = -1.0, confidence = 0.002

 19 19  0  0  0  0  0  0  0  0999 V2000
   -1.7517   -0.6366    0.0008 O   0  5  0  0  0  0  0  0  0  0  0  0
   -6.5259   -0.5972   -0.0001 O   0  0  0  0  0  0  0  0  0  0  0  0
   -0.5034    1.7718    0.0001 N   0  0  0  0  0  2  0  0  0  0  0  0
   -2.9084    1.5058    0.0001 C   0  0  0  0  0  0  0  0  0  0  0  0
   -2.8561    0.0608    0.0004 C   0  0  0  0  0  0  0  0  0  0  0  0
   -4.0915   -0.6538    0.0003 C   0  0  0  0  0  0  0  0  0  0  0  0
   -4.0232   -1.7485    0.0005 H   0  0  0  0  0  0  0  0  0  0  0  0
   -5.3160    0.0203    0.0000 C   0  0  0  0  0  0  0  0  0  0  0  0
   -5.3644    1.4448   -0.0002 C   0  0  0  0  0  0  0  0  0  0  0  0
   -6.3451    1.9390   -0.0004 H   0  0  0  0  0  0  0  0  0  0  0  0
   -4.1773    2.1532   -0.0001 C   0  0  0  0  0  3  0  0  0  0  0  0
   -4.2000    3.2549   -0.0003 H   0  0  0  0  0  0  0  0  0  0  0  0
   -1.7095    2.2818    0.0001 C   0  0  0  0  0  0  0  0  0  0  0  0
   -1.8207    3.3841    0.0001 H   0  0  0  0  0  0  0  0  0  0  0  0
   -6.5610   -2.0124   -0.0003 C   0  0  0  0  0  0  0  0  0  0  0  0
   -6.0697   -2.4373    0.9034 H   0  0  0  0  0  0  0  0  0  0  0  0
   -7.6288   -2.2993   -0.0007 H   0  0  0  0  0  0  0  0  0  0  0  0
   -6.0690   -2.4370   -0.9036 H   0  0  0  0  0  0  0  0  0  0  0  0
    0.2851    2.4321    0.0001 H   0  0  0  0  0  0  0  0  0  0  0  0
  2  8  1  0  0  0  0
  3 13  1  0  0  0  0
  4  5  1  0  0  0  0
  5  1  1  0  0  0  0
  6  5  2  0  0  0  0
  6  7  1  0  0  0  0
  8  6  1  0  0  0  0
  9 11  1  0  0  0  0
  9  8  2  0  0  0  0
 10  9  1  0  0  0  0
 11  4  1  0  0  0  0
 12 11  1  0  0  0  0
 13  4  2  0  0  0  0
 13 14  1  0  0  0  0
 15  2  1  0  0  0  0
 15 16  1  0  0  0  0
 17 15  1  0  0  0  0
 18 15  1  0  0  0  0
 19  3  1  0  0  0  0
M  CHG  1   1  -1
M  END
