1,5
q = 0.0, confidence = 0.942

 34 34  0  0  0  0  0  0  0  0999 V2000
    0.4138    1.7680   -1.6942 N   0  0  0  0  0  2  0  0  0  0  0  0
    1.7797    3.3058    0.2867 N   0  3  0  0  0  0  0  0  0  0  0  0
    2.6472    3.1706   -0.2569 H   0  0  0  0  0  0  0  0  0  0  0  0
    1.4383    2.2607    0.5865 H   0  0  0  0  0  0  0  0  0  0  0  0
   -0.8780   -0.6976   -1.1969 O   0  5  0  0  0  0  0  0  0  0  0  0
   -0.5369   -3.2543   -0.5997 O   0  0  0  0  0  0  0  0  0  0  0  0
    1.3957   -0.4622   -1.9765 C   0  0  0  0  0  0  0  0  0  0  0  0
    0.3076   -1.2254   -1.4442 C   0  0  0  0  0  0  0  0  0  0  0  0
    0.5344   -2.6143   -1.1656 C   0  0  0  0  0  0  0  0  0  0  0  0
    1.7679   -3.2093   -1.4417 C   0  0  0  0  0  0  0  0  0  0  0  0
    1.9336   -4.2718   -1.2189 H   0  0  0  0  0  0  0  0  0  0  0  0
    2.8172   -2.4534   -2.0137 C   0  0  0  0  0  0  0  0  0  0  0  0
    3.7738   -2.9433   -2.2434 H   0  0  0  0  0  0  0  0  0  0  0  0
    2.6298   -1.1041   -2.2810 C   0  0  0  0  0  0  0  0  0  0  0  0
    3.4425   -0.5045   -2.7202 H   0  0  0  0  0  0  0  0  0  0  0  0
    1.3229    0.9691   -2.1692 C   0  0  0  0  0  3  0  0  0  0  0  0
    2.1681    1.4080   -2.7513 H   0  0  0  0  0  0  0  0  0  0  0  0
    0.5677    3.1958   -1.8951 C   0  0  0  0  0  0  0  0  0  0  0  0
   -0.3441    3.6044   -2.3804 H   0  0  0  0  0  0  0  0  0  0  0  0
    1.4368    3.4204   -2.5599 H   0  0  0  0  0  0  0  0  0  0  0  0
    0.7166    3.9244   -0.5548 C   0  0  0  0  0  0  0  0  0  0  0  0
    0.9512    4.9949   -0.7251 H   0  0  0  0  0  0  0  0  0  0  0  0
   -0.2336    3.8633    0.0151 H   0  0  0  0  0  0  0  0  0  0  0  0
    2.0812    4.0307    1.5411 C   0  0  0  0  0  0  0  0  0  0  0  0
    2.4402    5.0566    1.3318 H   0  0  0  0  0  0  0  0  0  0  0  0
    2.8495    3.4633    2.0973 H   0  0  0  0  0  0  0  0  0  0  0  0
    1.1596    4.0796    2.1499 H   0  0  0  0  0  0  0  0  0  0  0  0
   -0.3395   -4.5720   -0.0785 C   0  0  0  0  0  0  0  0  0  0  0  0
    0.5282   -4.5623    0.6192 H   0  0  0  0  0  0  0  0  0  0  0  0
   -0.1016   -5.2769   -0.9071 H   0  0  0  0  0  0  0  0  0  0  0  0
   -1.6082   -4.9903    0.6391 C   0  0  0  0  0  0  0  0  0  0  0  0
   -1.8317   -4.3053    1.4834 H   0  0  0  0  0  0  0  0  0  0  0  0
   -1.4966   -6.0091    1.0582 H   0  0  0  0  0  0  0  0  0  0  0  0
   -2.4754   -5.0132   -0.0531 H   0  0  0  0  0  0  0  0  0  0  0  0
  2  4  1  0  0  0  0
  2 24  1  0  0  0  0
  3  2  1  0  0  0  0
  6 28  1  0  0  0  0
  7  8  1  0  0  0  0
  8  5  1  0  0  0  0
  8  9  2  0  0  0  0
  9  6  1  0  0  0  0
 10 11  1  0  0  0  0
 10  9  1  0  0  0  0
 12 10  2  0  0  0  0
 13 12  1  0  0  0  0
 14 12  1  0  0  0  0
 14  7  2  0  0  0  0
 15 14  1  0  0  0  0
 16  7  1  0  0  0  0
 16  1  1  0  0  0  0
 17 16  1  0  0  0  0
 18  1  1  0  0  0  0
 18 21  1  0  0  0  0
 19 18  1  0  0  0  0
 20 18  1  0  0  0  0
 21 23  1  0  0  0  0
 21  2  1  0  0  0  0
 22 21  1  0  0  0  0
 24 26  1  0  0  0  0
 24 27  1  0  0  0  0
 25 24  1  0  0  0  0
 28 29  1  0  0  0  0
 28 31  1  0  0  0  0
 30 28  1  0  0  0  0
 31 33  1  0  0  0  0
 31 32  1  0  0  0  0
 34 31  1  0  0  0  0
M  CHG  2   2   1   5  -1
M  END
