1,2
q = -1.0, confidence = 0.012

 18 19  0  0  0  0  0  0  0  0999 V2000
   -1.1778    1.9053    0.5844 O   0  5  0  0  0  0  0  0  0  0  0  0
    1.0133    0.4236    0.1724 N   0  0  0  0  0  2  0  0  0  0  0  0
    0.0331    3.8269    0.5449 O   0  0  0  0  0  0  0  0  0  0  0  0
    3.5526    1.7003   -0.0432 N   0  0  0  0  0  0  0  0  0  0  0  0
    2.1662   -0.3294    0.0913 C   0  0  0  0  0  0  0  0  0  0  0  0
    3.3032   -2.4826    0.0486 C   0  0  0  0  0  0  0  0  0  0  0  0
    3.2553   -3.5818    0.0792 H   0  0  0  0  0  0  0  0  0  0  0  0
    2.1275   -1.7484    0.1286 C   0  0  0  0  0  0  0  0  0  0  0  0
    1.1534   -2.2428    0.2210 H   0  0  0  0  0  0  0  0  0  0  0  0
    1.1452    1.7558    0.1938 C   0  0  0  0  0  0  0  0  0  0  0  0
    2.4227    2.3740    0.0805 C   0  0  0  0  0  0  0  0  0  0  0  0
    2.4409    3.4771    0.0939 H   0  0  0  0  0  0  0  0  0  0  0  0
    3.4421    0.3358   -0.0217 C   0  0  0  0  0  0  0  0  0  0  0  0
   -0.0963    2.6032    0.4379 C   0  0  0  0  0  0  0  0  0  0  0  0
    4.6260   -0.4491   -0.1107 C   0  0  0  0  0  3  0  0  0  0  0  0
    5.5778    0.0947   -0.2012 H   0  0  0  0  0  0  0  0  0  0  0  0
    4.5600   -1.8344   -0.0765 C   0  0  0  0  0  0  0  0  0  0  0  0
    5.4808   -2.4342   -0.1448 H   0  0  0  0  0  0  0  0  0  0  0  0
  2 10  1  0  0  0  0
  4 13  2  0  0  0  0
  4 11  1  0  0  0  0
  5  8  2  0  0  0  0
  5  2  1  0  0  0  0
  6  7  1  0  0  0  0
  6  8  1  0  0  0  0
  8  9  1  0  0  0  0
 10 14  1  0  0  0  0
 11 12  1  0  0  0  0
 11 10  2  0  0  0  0
 13  5  1  0  0  0  0
 14  3  2  0  0  0  0
 14  1  1  0  0  0  0
 15 17  1  0  0  0  0
 15 13  1  0  0  0  0
 16 15  1  0  0  0  0
 17  6  2  0  0  0  0
 18 17  1  0  0  0  0
M  CHG  1   1  -1
M  END
