1,14
q = -1.0

 32 33  0  0  0  0  0  0  0  0999 V2000
   -0.7542   -1.5739    0.6642 O   0  5  0  0  0  0  0  0  0  0  0  0
   -1.6515   -2.3552    0.1246 C   0  0  0  0  0  0  0  0  0  0  0  0
   -1.8852   -3.6406    0.7009 C   0  0  0  0  0  0  0  0  0  0  0  0
   -1.2855   -3.9248    1.5778 H   0  0  0  0  0  0  0  0  0  0  0  0
   -2.8380   -4.5025    0.1661 C   0  0  0  0  0  0  0  0  0  0  0  0
   -2.9885   -5.4904    0.6294 H   0  0  0  0  0  0  0  0  0  0  0  0
   -3.6165   -4.1304   -0.9567 C   0  0  0  0  0  0  0  0  0  0  0  0
   -4.3692   -4.8194   -1.3656 H   0  0  0  0  0  0  0  0  0  0  0  0
   -3.4202   -2.8767   -1.5243 C   0  0  0  0  0  3  0  0  0  0  0  0
   -4.0259   -2.5543   -2.3864 H   0  0  0  0  0  0  0  0  0  0  0  0
   -2.4466   -1.9782   -1.0105 C   0  0  0  0  0  0  0  0  0  0  0  0
   -7.2053    0.4318    1.3008 O   0  0  0  0  0  0  0  0  0  0  0  0
   -7.9568    0.8746    0.8652 H   0  0  0  0  0  0  0  0  0  0  0  0
   -1.4373    0.2482   -1.2638 N   0  0  0  0  0  2  0  0  0  0  0  0
   -2.3282   -0.6655   -1.5677 C   0  0  0  0  0  0  0  0  0  0  0  0
   -3.1006   -0.3871   -2.3122 H   0  0  0  0  0  0  0  0  0  0  0  0
   -1.6867    1.5886   -1.7961 C   0  0  0  0  0  0  0  0  0  0  0  0
   -0.7334    2.0137   -2.1557 H   0  0  0  0  0  0  0  0  0  0  0  0
   -2.4015    1.5166   -2.6438 H   0  0  0  0  0  0  0  0  0  0  0  0
   -2.2728    2.5083   -0.7002 C   0  0  0  0  0  0  0  0  0  0  0  0
   -1.5144    2.5993    0.1035 H   0  0  0  0  0  0  0  0  0  0  0  0
   -2.3999    3.5193   -1.1403 H   0  0  0  0  0  0  0  0  0  0  0  0
   -3.5847    2.0095   -0.1449 C   0  0  0  0  0  0  0  0  0  0  0  0
   -3.6214    0.9899    0.8338 C   0  0  0  0  0  0  0  0  0  0  0  0
   -2.6747    0.5783    1.2173 H   0  0  0  0  0  0  0  0  0  0  0  0
   -4.8299    0.4703    1.3070 C   0  0  0  0  0  0  0  0  0  0  0  0
   -4.8490   -0.3280    2.0626 H   0  0  0  0  0  0  0  0  0  0  0  0
   -6.0516    0.9653    0.8092 C   0  0  0  0  0  0  0  0  0  0  0  0
   -6.0361    1.9822   -0.1655 C   0  0  0  0  0  0  0  0  0  0  0  0
   -6.9875    2.3798   -0.5572 H   0  0  0  0  0  0  0  0  0  0  0  0
   -4.8151    2.4892   -0.6332 C   0  0  0  0  0  0  0  0  0  0  0  0
   -4.8224    3.2840   -1.3968 H   0  0  0  0  0  0  0  0  0  0  0  0
  2  1  1  0  0  0  0
  2  3  2  0  0  0  0
  3  4  1  0  0  0  0
  5  6  1  0  0  0  0
  5  3  1  0  0  0  0
  7  5  2  0  0  0  0
  8  7  1  0  0  0  0
  9 11  1  0  0  0  0
  9  7  1  0  0  0  0
 10  9  1  0  0  0  0
 11  2  1  0  0  0  0
 13 12  1  0  0  0  0
 15 14  1  0  0  0  0
 15 11  2  0  0  0  0
 16 15  1  0  0  0  0
 17 14  1  0  0  0  0
 17 20  1  0  0  0  0
 18 17  1  0  0  0  0
 19 17  1  0  0  0  0
 20 23  1  0  0  0  0
 20 21  1  0  0  0  0
 22 20  1  0  0  0  0
 23 24  1  0  0  0  0
 24 25  1  0  0  0  0
 24 26  2  0  0  0  0
 26 27  1  0  0  0  0
 28 12  1  0  0  0  0
 28 26  1  0  0  0  0
 29 28  2  0  0  0  0
 30 29  1  0  0  0  0
 31 29  1  0  0  0  0
 31 23  2  0  0  0  0
 32 31  1  0  0  0  0
M  CHG  1   1  -1
M  END
