2,3
q = -1.0

 29 30  0  0  0  0  0  0  0  0999 V2000
   -1.6591   -0.1972   -2.3032 S   0  0  0  0  0  0  0  0  0  0  0  0
    0.9874    0.3011   -1.2475 N   0  0  0  0  0  2  0  0  0  0  0  0
    1.4677   -2.3568   -0.0851 O   0  5  0  0  0  0  0  0  0  0  0  0
   -3.4545    0.0595   -2.2025 C   0  0  0  0  0  0  0  0  0  0  0  0
   -3.8927   -0.9533   -2.1169 H   0  0  0  0  0  0  0  0  0  0  0  0
   -3.8500    0.5545   -3.1110 H   0  0  0  0  0  0  0  0  0  0  0  0
   -3.7197    0.6321   -1.2936 H   0  0  0  0  0  0  0  0  0  0  0  0
   -1.0108    1.4321   -2.0498 C   0  0  0  0  0  0  0  0  0  0  0  0
   -1.7181    2.6199   -2.3120 C   0  0  0  0  0  0  0  0  0  0  0  0
   -2.7556    2.5729   -2.6715 H   0  0  0  0  0  0  0  0  0  0  0  0
   -1.1000    3.8676   -2.1397 C   0  0  0  0  0  0  0  0  0  0  0  0
   -1.6678    4.7870   -2.3471 H   0  0  0  0  0  0  0  0  0  0  0  0
    0.2327    3.9403   -1.7053 C   0  0  0  0  0  0  0  0  0  0  0  0
    0.7150    4.9165   -1.5501 H   0  0  0  0  0  0  0  0  0  0  0  0
    0.9404    2.7650   -1.4271 C   0  0  0  0  0  0  0  0  0  0  0  0
    1.9561    2.8181   -1.0086 H   0  0  0  0  0  0  0  0  0  0  0  0
    0.3372    1.5009   -1.5923 C   0  0  0  0  0  0  0  0  0  0  0  0
    2.2707    0.1543   -1.5077 C   0  0  0  0  0  3  0  0  0  0  0  0
    2.7611    0.9590   -2.0978 H   0  0  0  0  0  0  0  0  0  0  0  0
    3.1324   -0.9226   -1.1291 C   0  0  0  0  0  0  0  0  0  0  0  0
    4.5125   -0.7839   -1.4750 C   0  0  0  0  0  0  0  0  0  0  0  0
    4.8191    0.1283   -2.0138 H   0  0  0  0  0  0  0  0  0  0  0  0
    5.4559   -1.7442   -1.1462 C   0  0  0  0  0  0  0  0  0  0  0  0
    6.5130   -1.6097   -1.4165 H   0  0  0  0  0  0  0  0  0  0  0  0
    5.0291   -2.9124   -0.4596 C   0  0  0  0  0  0  0  0  0  0  0  0
    5.7674   -3.6868   -0.1961 H   0  0  0  0  0  0  0  0  0  0  0  0
    3.6974   -3.0977   -0.1189 C   0  0  0  0  0  0  0  0  0  0  0  0
    3.3565   -4.0015    0.4073 H   0  0  0  0  0  0  0  0  0  0  0  0
    2.6865   -2.1227   -0.4286 C   0  0  0  0  0  0  0  0  0  0  0  0
  1  4  1  0  0  0  0
  1  8  1  0  0  0  0
  4  5  1  0  0  0  0
  4  7  1  0  0  0  0
  6  4  1  0  0  0  0
  8 17  1  0  0  0  0
  9 11  1  0  0  0  0
  9  8  2  0  0  0  0
 10  9  1  0  0  0  0
 11 13  2  0  0  0  0
 12 11  1  0  0  0  0
 13 14  1  0  0  0  0
 13 15  1  0  0  0  0
 15 16  1  0  0  0  0
 17 15  2  0  0  0  0
 17  2  1  0  0  0  0
 18  2  1  0  0  0  0
 18 20  1  0  0  0  0
 19 18  1  0  0  0  0
 20 29  1  0  0  0  0
 21 23  1  0  0  0  0
 21 20  2  0  0  0  0
 22 21  1  0  0  0  0
 23 25  2  0  0  0  0
 24 23  1  0  0  0  0
 25 26  1  0  0  0  0
 25 27  1  0  0  0  0
 27 28  1  0  0  0  0
 29 27  2  0  0  0  0
 29  3  1  0  0  0  0
M  CHG  1   3  -1
M  END
