1,2
q = -1.0, confidence = 0.008

 21 22  0  0  1  0  0  0  0  0999 V2000
    0.4548    1.3682   -1.2288 O   0  0  0  0  0  1  0  0  0  0  0  0
   -1.7145    0.7400   -0.0522 N   0  0  0  0  0  2  0  0  0  0  0  0
   -3.1478    2.0829   -1.0978 N   0  0  0  0  0  0  0  0  0  0  0  0
   -3.4994    2.7745   -1.7580 H   0  0  0  0  0  0  0  0  0  0  0  0
   -2.9617    0.5552    0.5339 C   0  0  0  0  0  0  0  0  0  0  0  0
   -3.3785   -0.2832    1.5812 C   0  0  0  0  0  0  0  0  0  0  0  0
   -2.6444   -0.9377    2.0679 H   0  0  0  0  0  0  0  0  0  0  0  0
   -4.7310   -0.2379    1.9386 C   0  0  0  0  0  0  0  0  0  0  0  0
   -5.0945   -0.8834    2.7520 H   0  0  0  0  0  0  0  0  0  0  0  0
   -5.6466    0.6185    1.2803 C   0  0  0  0  0  0  0  0  0  0  0  0
   -6.7011    0.6231    1.5940 H   0  0  0  0  0  0  0  0  0  0  0  0
   -5.2430    1.4618    0.2356 C   0  0  0  0  0  0  0  0  0  0  0  0
   -5.9564    2.1261   -0.2736 H   0  0  0  0  0  0  0  0  0  0  0  0
   -3.8897    1.4121   -0.1285 C   0  0  0  0  0  0  0  0  0  0  0  0
   -1.8524    1.6515   -1.0144 C   0  0  2  0  0  3  0  0  0  0  0  0
   -0.6570    1.9353   -1.8794 C   0  0  2  0  0  0  0  0  0  0  0  0
   -0.5156    3.0436   -1.9653 H   0  0  0  0  0  0  0  0  0  0  0  0
   -0.8558    1.3409   -3.2840 C   0  0  0  0  0  0  0  0  0  0  0  0
    0.0621    1.5098   -3.8798 H   0  0  0  0  0  0  0  0  0  0  0  0
   -1.7087    1.8172   -3.8128 H   0  0  0  0  0  0  0  0  0  0  0  0
   -1.0435    0.2528   -3.1939 H   0  0  0  0  0  0  0  0  0  0  0  0
  2  5  1  0  0  0  0
  3 15  1  0  0  0  0
  3 14  1  0  0  0  0
  4  3  1  0  0  0  0
  5  6  1  0  0  0  0
  6  8  2  0  0  0  0
  6  7  1  0  0  0  0
  8  9  1  0  0  0  0
 10 11  1  0  0  0  0
 10  8  1  0  0  0  0
 12 10  2  0  0  0  0
 13 12  1  0  0  0  0
 14 12  1  0  0  0  0
 14  5  2  0  0  0  0
 15 16  1  6  0  0  0
 15  2  1  0  0  0  0
 16 17  1  6  0  0  0
 16  1  1  0  0  0  0
 18 21  1  0  0  0  0
 18 16  1  0  0  0  0
 19 18  1  0  0  0  0
 20 18  1  0  0  0  0
M  END
