1,2
q = -1.0

 21 22  0  0  1  0  0  0  0  0999 V2000
   -0.4548   -1.3682    1.2288 O   0  0  0  0  0  1  0  0  0  0  0  0
    1.7146   -0.7400    0.0522 N   0  0  0  0  0  2  0  0  0  0  0  0
    3.1477   -2.0829    1.0978 N   0  0  0  0  0  0  0  0  0  0  0  0
    3.4994   -2.7746    1.7580 H   0  0  0  0  0  0  0  0  0  0  0  0
    2.9617   -0.5553   -0.5339 C   0  0  0  0  0  0  0  0  0  0  0  0
    3.3785    0.2831   -1.5812 C   0  0  0  0  0  0  0  0  0  0  0  0
    2.6444    0.9377   -2.0678 H   0  0  0  0  0  0  0  0  0  0  0  0
    4.7310    0.2378   -1.9386 C   0  0  0  0  0  0  0  0  0  0  0  0
    5.0945    0.8833   -2.7520 H   0  0  0  0  0  0  0  0  0  0  0  0
    5.6465   -0.6186   -1.2803 C   0  0  0  0  0  0  0  0  0  0  0  0
    6.7011   -0.6232   -1.5941 H   0  0  0  0  0  0  0  0  0  0  0  0
    5.2430   -1.4619   -0.2357 C   0  0  0  0  0  0  0  0  0  0  0  0
    5.9563   -2.1262    0.2735 H   0  0  0  0  0  0  0  0  0  0  0  0
    3.8897   -1.4122    0.1284 C   0  0  0  0  0  0  0  0  0  0  0  0
    1.8524   -1.6515    1.0145 C   0  0  1  0  0  3  0  0  0  0  0  0
    0.6571   -1.9353    1.8794 C   0  0  1  0  0  0  0  0  0  0  0  0
    0.5156   -3.0436    1.9653 H   0  0  0  0  0  0  0  0  0  0  0  0
    0.8558   -1.3408    3.2840 C   0  0  0  0  0  0  0  0  0  0  0  0
   -0.0621   -1.5098    3.8798 H   0  0  0  0  0  0  0  0  0  0  0  0
    1.7088   -1.8171    3.8128 H   0  0  0  0  0  0  0  0  0  0  0  0
    1.0434   -0.2527    3.1939 H   0  0  0  0  0  0  0  0  0  0  0  0
  1 16  1  0  0  0  0
  2 15  1  0  0  0  0
  3  4  1  0  0  0  0
  5  2  1  0  0  0  0
  5 14  1  0  0  0  0
  6  5  2  0  0  0  0
  7  6  1  0  0  0  0
  8  6  1  0  0  0  0
  8 10  2  0  0  0  0
  9  8  1  0  0  0  0
 10 12  1  0  0  0  0
 11 10  1  0  0  0  0
 12 14  2  0  0  0  0
 12 13  1  0  0  0  0
 14  3  1  0  0  0  0
 15  3  1  0  0  0  0
 15 16  1  1  0  0  0
 16 17  1  1  0  0  0
 16 18  1  0  0  0  0
 18 20  1  0  0  0  0
 18 19  1  0  0  0  0
 21 18  1  0  0  0  0
M  END
