1,3
q = -1.0

 15 15  0  0  1  0  0  0  0  0999 V2000
    0.5990    1.5803    0.1596 O   0  5  0  0  0  0  0  0  0  0  0  0
    2.4110    2.7542    0.0833 O   0  5  0  0  0  0  0  0  0  0  0  0
    0.8801   -1.2094   -0.1574 N   0  0  0  0  0  2  0  0  0  0  0  0
    0.7489   -2.2263   -0.2279 H   0  0  0  0  0  0  0  0  0  0  0  0
    1.8894    1.6377    0.0817 N   0  3  0  0  0  0  0  0  0  0  0  0
    2.1808   -0.8838   -0.0746 C   0  0  1  0  0  3  0  0  0  0  0  0
    3.1772   -1.9264   -0.1095 C   0  0  0  0  0  0  0  0  0  0  0  0
    2.8103   -2.9629   -0.1759 H   0  0  0  0  0  0  0  0  0  0  0  0
    4.5323   -1.6690   -0.0698 C   0  0  0  0  0  0  0  0  0  0  0  0
    5.2441   -2.5081   -0.1017 H   0  0  0  0  0  0  0  0  0  0  0  0
    5.0115   -0.3327    0.0130 C   0  0  0  0  0  0  0  0  0  0  0  0
    6.0903   -0.1256    0.0474 H   0  0  0  0  0  0  0  0  0  0  0  0
    4.1009    0.7060    0.0557 C   0  0  0  0  0  0  0  0  0  0  0  0
    4.4227    1.7526    0.1219 H   0  0  0  0  0  0  0  0  0  0  0  0
    2.6973    0.4674    0.0231 C   0  0  0  0  0  0  0  0  0  0  0  0
  4  3  1  0  0  0  0
  5  2  1  0  0  0  0
  5  1  1  0  0  0  0
  6  3  1  6  0  0  0
  6 15  1  0  0  0  0
  7  6  1  0  0  0  0
  7  9  2  0  0  0  0
  8  7  1  0  0  0  0
  9 11  1  0  0  0  0
 10  9  1  0  0  0  0
 11 12  1  0  0  0  0
 11 13  2  0  0  0  0
 13 14  1  0  0  0  0
 15 13  1  0  0  0  0
 15  5  2  0  0  0  0
M  CHG  3   1  -1   2  -1   5   1
M  END
