2,4
q = -1.0

 21 21  0  0  0  0  0  0  0  0999 V2000
    1.8201   -4.0493    0.9270 Cl  0  0  0  0  0  0  0  0  0  0  0  0
    1.4088    1.1437    0.4043 O   0  5  0  0  0  0  0  0  0  0  0  0
    3.2931   -0.1322   -0.3974 C   0  0  0  0  0  0  0  0  0  0  0  0
    1.1792   -1.3479   -0.7181 N   0  0  0  0  0  2  0  0  0  0  0  0
    2.4866   -1.2426   -0.7942 C   0  0  0  0  0  0  0  0  0  0  0  0
    3.0373   -2.1084   -1.2104 H   0  0  0  0  0  0  0  0  0  0  0  0
    4.7018   -0.1836   -0.5867 C   0  0  0  0  0  3  0  0  0  0  0  0
    5.1355   -1.0884   -1.0422 H   0  0  0  0  0  0  0  0  0  0  0  0
    5.5193    0.8739   -0.2078 C   0  0  0  0  0  0  0  0  0  0  0  0
    6.6070    0.8238   -0.3585 H   0  0  0  0  0  0  0  0  0  0  0  0
    4.9283    2.0198    0.3792 C   0  0  0  0  0  0  0  0  0  0  0  0
    5.5655    2.8646    0.6846 H   0  0  0  0  0  0  0  0  0  0  0  0
    3.5540    2.0997    0.5801 C   0  0  0  0  0  0  0  0  0  0  0  0
    3.0955    2.9883    1.0382 H   0  0  0  0  0  0  0  0  0  0  0  0
    2.6925    1.0271    0.1973 C   0  0  0  0  0  0  0  0  0  0  0  0
    0.6384   -2.6423   -1.1398 C   0  0  0  0  0  0  0  0  0  0  0  0
    1.3588   -3.1459   -1.8180 H   0  0  0  0  0  0  0  0  0  0  0  0
   -0.3086   -2.4731   -1.6839 H   0  0  0  0  0  0  0  0  0  0  0  0
    0.3264   -3.5504    0.0427 C   0  0  0  0  0  0  0  0  0  0  0  0
   -0.1725   -4.4756   -0.3051 H   0  0  0  0  0  0  0  0  0  0  0  0
   -0.3299   -3.0289    0.7624 H   0  0  0  0  0  0  0  0  0  0  0  0
  3 15  1  0  0  0  0
  5  4  1  0  0  0  0
  5  3  2  0  0  0  0
  6  5  1  0  0  0  0
  7  3  1  0  0  0  0
  7  9  1  0  0  0  0
  8  7  1  0  0  0  0
  9 11  2  0  0  0  0
 10  9  1  0  0  0  0
 11 13  1  0  0  0  0
 11 12  1  0  0  0  0
 13 14  1  0  0  0  0
 15  2  1  0  0  0  0
 15 13  2  0  0  0  0
 16  4  1  0  0  0  0
 16 19  1  0  0  0  0
 17 16  1  0  0  0  0
 18 16  1  0  0  0  0
 19 21  1  0  0  0  0
 19  1  1  0  0  0  0
 20 19  1  0  0  0  0
M  CHG  1   2  -1
M  END
