2,3
q = -1.0

 21 21  0  0  1  0  0  0  0  0999 V2000
   -1.8212    4.0486   -0.9289 Cl  0  0  0  0  0  0  0  0  0  0  0  0
   -1.4087   -1.1428   -0.4054 O   0  0  0  0  0  1  0  0  0  0  0  0
   -1.1791    1.3485    0.7176 N   0  0  0  0  0  2  0  0  0  0  0  0
   -2.4864    1.2428    0.7947 C   0  0  0  0  0  0  0  0  0  0  0  0
   -3.0371    2.1084    1.2112 H   0  0  0  0  0  0  0  0  0  0  0  0
   -3.2927    0.1320    0.3987 C   0  0  0  0  0  0  0  0  0  0  0  0
   -4.7012    0.1827    0.5895 C   0  0  0  0  0  0  0  0  0  0  0  0
   -5.1349    1.0872    1.0456 H   0  0  0  0  0  0  0  0  0  0  0  0
   -5.5187   -0.8751    0.2112 C   0  0  0  0  0  0  0  0  0  0  0  0
   -6.6062   -0.8256    0.3632 H   0  0  0  0  0  0  0  0  0  0  0  0
   -4.9277   -2.0206   -0.3767 C   0  0  0  0  0  0  0  0  0  0  0  0
   -5.5649   -2.8656   -0.6816 H   0  0  0  0  0  0  0  0  0  0  0  0
   -3.5537   -2.0998   -0.5791 C   0  0  0  0  0  0  0  0  0  0  0  0
   -3.0952   -2.9881   -1.0379 H   0  0  0  0  0  0  0  0  0  0  0  0
   -2.6923   -1.0269   -0.1969 C   0  0  1  0  0  3  0  0  0  0  0  0
   -0.6384    2.6433    1.1384 C   0  0  0  0  0  0  0  0  0  0  0  0
    0.3088    2.4746    1.6823 H   0  0  0  0  0  0  0  0  0  0  0  0
   -1.3587    3.1471    1.8166 H   0  0  0  0  0  0  0  0  0  0  0  0
   -0.3271    3.5508   -0.0448 C   0  0  0  0  0  0  0  0  0  0  0  0
    0.3293    3.0290   -0.7643 H   0  0  0  0  0  0  0  0  0  0  0  0
    0.1716    4.4763    0.3023 H   0  0  0  0  0  0  0  0  0  0  0  0
  1 19  1  0  0  0  0
  3  4  1  0  0  0  0
  3 16  1  0  0  0  0
  4  5  1  0  0  0  0
  6  7  1  0  0  0  0
  6  4  2  0  0  0  0
  7  8  1  0  0  0  0
  9 10  1  0  0  0  0
  9  7  2  0  0  0  0
 11  9  1  0  0  0  0
 12 11  1  0  0  0  0
 13 11  2  0  0  0  0
 13 15  1  0  0  0  0
 14 13  1  0  0  0  0
 15  2  1  6  0  0  0
 15  6  1  0  0  0  0
 16 17  1  0  0  0  0
 16 18  1  0  0  0  0
 19 21  1  0  0  0  0
 19 16  1  0  0  0  0
 20 19  1  0  0  0  0
M  END
