2,3
q = 0.0, confidence = 0.982

 62 67  0  0  1  0  0  0  0  0999 V2000
   -5.1855    0.7049    0.1015 O   0  0  0  0  0  0  0  0  0  0  0  0
   -1.2402   -0.0217   -1.0612 O   0  5  0  0  0  0  0  0  0  0  0  0
   -3.6459   -0.9208   -0.0640 N   0  0  0  0  0  2  0  0  0  0  0  0
    3.0364   -1.2231   -0.2240 N   0  0  0  0  0  0  0  0  0  0  0  0
   -3.8585    0.3861   -0.0571 C   0  0  2  0  0  3  0  0  0  0  0  0
   -4.8855   -1.5258    0.0831 C   0  0  0  0  0  0  0  0  0  0  0  0
   -5.8477   -0.4996    0.1934 C   0  0  0  0  0  0  0  0  0  0  0  0
   -7.2103   -0.7454    0.3531 C   0  0  0  0  0  0  0  0  0  0  0  0
   -7.9452    0.0664    0.4384 H   0  0  0  0  0  0  0  0  0  0  0  0
   -7.5786   -2.1024    0.3939 C   0  0  0  0  0  0  0  0  0  0  0  0
   -8.6407   -2.3607    0.5177 H   0  0  0  0  0  0  0  0  0  0  0  0
   -6.6265   -3.1433    0.2734 C   0  0  0  0  0  0  0  0  0  0  0  0
   -6.9727   -4.1870    0.3016 H   0  0  0  0  0  0  0  0  0  0  0  0
   -5.2592   -2.8786    0.1126 C   0  0  0  0  0  0  0  0  0  0  0  0
   -4.4988   -3.6644   -0.0073 H   0  0  0  0  0  0  0  0  0  0  0  0
   -2.8859    1.4552   -0.1699 C   0  0  0  0  0  0  0  0  0  0  0  0
   -1.5188    1.1284   -0.6004 C   0  0  0  0  0  0  0  0  0  0  0  0
   -0.5002    2.1639   -0.4653 C   0  0  0  0  0  0  0  0  0  0  0  0
   -0.9106    3.5430   -0.2485 C   0  0  0  0  0  0  0  0  0  0  0  0
   -2.2947    3.8362    0.0292 C   0  0  0  0  0  0  0  0  0  0  0  0
   -3.2379    2.7700    0.1004 C   0  0  0  0  0  0  0  0  0  0  0  0
   -4.2769    3.0029    0.3802 H   0  0  0  0  0  0  0  0  0  0  0  0
   -0.0113    4.6435   -0.2954 C   0  0  0  0  0  0  0  0  0  0  0  0
    1.0478    4.4735   -0.5359 H   0  0  0  0  0  0  0  0  0  0  0  0
   -0.4421    5.9494   -0.0757 C   0  0  0  0  0  0  0  0  0  0  0  0
    0.2840    6.7748   -0.1316 H   0  0  0  0  0  0  0  0  0  0  0  0
   -1.8004    6.2272    0.2088 C   0  0  0  0  0  0  0  0  0  0  0  0
   -2.1305    7.2618    0.3827 H   0  0  0  0  0  0  0  0  0  0  0  0
   -2.7088    5.1783    0.2581 C   0  0  0  0  0  0  0  0  0  0  0  0
   -3.7718    5.3681    0.4743 H   0  0  0  0  0  0  0  0  0  0  0  0
    0.8747    1.7996   -0.4288 C   0  0  0  0  0  3  0  0  0  0  0  0
    1.5789    2.6203   -0.2270 H   0  0  0  0  0  0  0  0  0  0  0  0
    1.3889    0.5022   -0.4890 C   0  0  0  0  0  0  0  0  0  0  0  0
    0.6569   -0.2927   -0.6546 H   0  0  0  0  0  0  0  0  0  0  0  0
    4.4253   -1.4053   -0.0719 C   0  0  0  0  0  0  0  0  0  0  0  0
    5.0509   -0.1473   -0.0182 C   0  0  0  0  0  0  0  0  0  0  0  0
    2.7144    0.0996   -0.2884 C   0  0  0  0  0  0  0  0  0  0  0  0
    3.9881    0.9368   -0.1219 C   0  0  0  0  0  0  0  0  0  0  0  0
    5.1672   -2.5936    0.0185 C   0  0  0  0  0  0  0  0  0  0  0  0
    4.6894   -3.5819   -0.0239 H   0  0  0  0  0  0  0  0  0  0  0  0
    6.5543   -2.4892    0.1628 C   0  0  0  0  0  0  0  0  0  0  0  0
    7.1823   -3.3881    0.2368 H   0  0  0  0  0  0  0  0  0  0  0  0
    7.1965   -1.2290    0.2173 C   0  0  0  0  0  0  0  0  0  0  0  0
    6.4347   -0.0391    0.1267 C   0  0  0  0  0  0  0  0  0  0  0  0
    6.9112    0.9496    0.1688 H   0  0  0  0  0  0  0  0  0  0  0  0
    2.0595   -2.3068   -0.2588 C   0  0  0  0  0  0  0  0  0  0  0  0
    1.2902   -2.1538    0.5307 H   0  0  0  0  0  0  0  0  0  0  0  0
    2.5735   -3.2667   -0.0855 H   0  0  0  0  0  0  0  0  0  0  0  0
    1.5407   -2.3544   -1.2376 H   0  0  0  0  0  0  0  0  0  0  0  0
    3.9391    1.7531    1.1921 C   0  0  0  0  0  0  0  0  0  0  0  0
    3.1562    2.5346    1.1545 H   0  0  0  0  0  0  0  0  0  0  0  0
    4.9165    2.2476    1.3614 H   0  0  0  0  0  0  0  0  0  0  0  0
    3.7276    1.0964    2.0579 H   0  0  0  0  0  0  0  0  0  0  0  0
    4.2351    1.8457   -1.3440 C   0  0  0  0  0  0  0  0  0  0  0  0
    5.2004    2.3788   -1.2308 H   0  0  0  0  0  0  0  0  0  0  0  0
    3.4323    2.6009   -1.4501 H   0  0  0  0  0  0  0  0  0  0  0  0
    4.2746    1.2524   -2.2780 H   0  0  0  0  0  0  0  0  0  0  0  0
    8.5485   -1.2617    0.3579 O   0  0  0  0  0  0  0  0  0  0  0  0
    9.2503   -0.0349    0.4233 C   0  0  0  0  0  0  0  0  0  0  0  0
    9.1204    0.5674   -0.5040 H   0  0  0  0  0  0  0  0  0  0  0  0
   10.3196   -0.2913    0.5371 H   0  0  0  0  0  0  0  0  0  0  0  0
    8.9317    0.5793    1.2955 H   0  0  0  0  0  0  0  0  0  0  0  0
  1  7  1  0  0  0  0
  2 17  1  0  0  0  0
  3  5  1  0  0  0  0
  3  6  1  0  0  0  0
  4 35  1  0  0  0  0
  5 16  1  1  0  0  0
  5  1  1  0  0  0  0
  6 14  2  0  0  0  0
  6  7  1  0  0  0  0
  7  8  2  0  0  0  0
  8 10  1  0  0  0  0
  8  9  1  0  0  0  0
 10 11  1  0  0  0  0
 12 13  1  0  0  0  0
 12 10  2  0  0  0  0
 14 12  1  0  0  0  0
 15 14  1  0  0  0  0
 16 21  1  0  0  0  0
 17 18  1  0  0  0  0
 17 16  2  0  0  0  0
 18 31  1  0  0  0  0
 18 19  2  0  0  0  0
 19 20  1  0  0  0  0
 20 21  2  0  0  0  0
 20 29  1  0  0  0  0
 21 22  1  0  0  0  0
 23 19  1  0  0  0  0
 23 25  2  0  0  0  0
 24 23  1  0  0  0  0
 25 27  1  0  0  0  0
 26 25  1  0  0  0  0
 27 29  2  0  0  0  0
 27 28  1  0  0  0  0
 29 30  1  0  0  0  0
 31 32  1  0  0  0  0
 33 31  1  0  0  0  0
 33 37  2  0  0  0  0
 34 33  1  0  0  0  0
 35 36  2  0  0  0  0
 35 39  1  0  0  0  0
 36 44  1  0  0  0  0
 37  4  1  0  0  0  0
 37 38  1  0  0  0  0
 38 36  1  0  0  0  0
 38 50  1  0  0  0  0
 39 41  2  0  0  0  0
 40 39  1  0  0  0  0
 41 43  1  0  0  0  0
 41 42  1  0  0  0  0
 43 58  1  0  0  0  0
 44 45  1  0  0  0  0
 44 43  2  0  0  0  0
 46  4  1  0  0  0  0
 46 48  1  0  0  0  0
 46 47  1  0  0  0  0
 49 46  1  0  0  0  0
 50 52  1  0  0  0  0
 50 53  1  0  0  0  0
 51 50  1  0  0  0  0
 54 55  1  0  0  0  0
 54 38  1  0  0  0  0
 56 54  1  0  0  0  0
 57 54  1  0  0  0  0
 58 59  1  0  0  0  0
 59 61  1  0  0  0  0
 59 62  1  0  0  0  0
 60 59  1  0  0  0  0
M  CHG  1   2  -1
M  END
