1,3
q = -1.0

 16 16  0  0  0  0  0  0  0  0999 V2000
   -0.9887   -1.1836   -0.0005 O   0  5  0  0  0  0  0  0  0  0  0  0
    0.5188    2.8207    0.0005 O   0  0  0  0  0  0  0  0  0  0  0  0
   -0.2155    1.6795    0.0003 N   0  0  0  0  0  2  0  0  0  0  0  0
   -2.1776   -0.6411   -0.0002 C   0  0  0  0  0  0  0  0  0  0  0  0
   -3.2776   -1.5564   -0.0002 C   0  0  0  0  0  0  0  0  0  0  0  0
   -3.0212   -2.6253   -0.0003 H   0  0  0  0  0  0  0  0  0  0  0  0
   -4.5978   -1.1214   -0.0001 C   0  0  0  0  0  0  0  0  0  0  0  0
   -5.4099   -1.8665   -0.0001 H   0  0  0  0  0  0  0  0  0  0  0  0
   -4.9048    0.2586    0.0001 C   0  0  0  0  0  0  0  0  0  0  0  0
   -5.9487    0.6050    0.0002 H   0  0  0  0  0  0  0  0  0  0  0  0
   -3.8545    1.1716    0.0001 C   0  0  0  0  0  0  0  0  0  0  0  0
   -4.0680    2.2531    0.0003 H   0  0  0  0  0  0  0  0  0  0  0  0
   -2.4905    0.7686   -0.0000 C   0  0  0  0  0  0  0  0  0  0  0  0
   -1.5084    1.8235    0.0001 C   0  0  0  0  0  3  0  0  0  0  0  0
   -1.8667    2.8682    0.0002 H   0  0  0  0  0  0  0  0  0  0  0  0
    1.4708    2.4701    0.0005 H   0  0  0  0  0  0  0  0  0  0  0  0
  1  4  1  0  0  0  0
  3  2  1  0  0  0  0
  4  5  2  0  0  0  0
  4 13  1  0  0  0  0
  5  7  1  0  0  0  0
  6  5  1  0  0  0  0
  7  9  2  0  0  0  0
  8  7  1  0  0  0  0
  9 11  1  0  0  0  0
  9 10  1  0  0  0  0
 11 12  1  0  0  0  0
 13 11  2  0  0  0  0
 13 14  1  0  0  0  0
 14 15  1  0  0  0  0
 14  3  1  0  0  0  0
 16  2  1  0  0  0  0
M  CHG  1   1  -1
M  END
