3,4
q = -1.0, confidence = 0.012

 31 32  0  0  0  0  0  0  0  0999 V2000
   -2.4492   -1.0934    0.0037 S   0  0  0  0  0  0  0  0  0  0  0  0
   -2.8265   -0.6572    1.4976 N   0  0  0  0  0  2  0  0  0  0  0  0
   -1.4222    1.2762    1.7882 N   0  0  0  0  0  2  0  0  0  0  0  0
   -1.6407   -0.0395   -0.7576 O   0  0  0  0  0  1  0  0  0  0  0  0
   -1.9217   -2.4801   -0.0430 O   0  0  0  0  0  1  0  0  0  0  0  0
   -1.1891    2.4477    2.4279 C   0  0  0  0  0  3  0  0  0  0  0  0
   -0.2450    2.9470    2.1592 H   0  0  0  0  0  0  0  0  0  0  0  0
   -2.0502    2.9670    3.3869 C   0  0  0  0  0  0  0  0  0  0  0  0
   -1.8162    3.9163    3.8879 H   0  0  0  0  0  0  0  0  0  0  0  0
   -3.2138    2.2314    3.6967 C   0  0  0  0  0  0  0  0  0  0  0  0
   -3.9239    2.6093    4.4503 H   0  0  0  0  0  0  0  0  0  0  0  0
   -3.4878    1.0272    3.0518 C   0  0  0  0  0  0  0  0  0  0  0  0
   -2.5534    0.5527    2.0613 C   0  0  0  0  0  0  0  0  0  0  0  0
   -4.7168    0.2118    3.3288 C   0  0  0  0  0  0  0  0  0  0  0  0
   -5.3542    0.6873    4.0993 H   0  0  0  0  0  0  0  0  0  0  0  0
   -4.4453   -0.8117    3.6604 H   0  0  0  0  0  0  0  0  0  0  0  0
   -5.3107    0.0701    2.4019 H   0  0  0  0  0  0  0  0  0  0  0  0
   -4.0274   -1.1027   -0.8627 C   0  0  0  0  0  0  0  0  0  0  0  0
   -4.5109   -2.3047   -1.3893 C   0  0  0  0  0  0  0  0  0  0  0  0
   -3.9109   -3.2176   -1.2648 H   0  0  0  0  0  0  0  0  0  0  0  0
   -5.7451   -2.3109   -2.0585 C   0  0  0  0  0  0  0  0  0  0  0  0
   -6.1309   -3.2557   -2.4732 H   0  0  0  0  0  0  0  0  0  0  0  0
   -6.4997   -1.1322   -2.2114 C   0  0  0  0  0  0  0  0  0  0  0  0
   -5.9821    0.0678   -1.6705 C   0  0  0  0  0  0  0  0  0  0  0  0
   -6.5567    1.0015   -1.7799 H   0  0  0  0  0  0  0  0  0  0  0  0
   -4.7560    0.0909   -0.9997 C   0  0  0  0  0  0  0  0  0  0  0  0
   -4.3650    1.0288   -0.5772 H   0  0  0  0  0  0  0  0  0  0  0  0
   -7.8259   -1.1357   -2.9285 C   0  0  0  0  0  0  0  0  0  0  0  0
   -7.8157   -0.4451   -3.7976 H   0  0  0  0  0  0  0  0  0  0  0  0
   -8.6453   -0.7962   -2.2607 H   0  0  0  0  0  0  0  0  0  0  0  0
   -8.0876   -2.1451   -3.2998 H   0  0  0  0  0  0  0  0  0  0  0  0
  1  2  1  0  0  0  0
  2 13  1  0  0  0  0
  3 13  1  0  0  0  0
  3  6  1  0  0  0  0
  4  1  1  0  0  0  0
  5  1  1  0  0  0  0
  6  8  1  0  0  0  0
  7  6  1  0  0  0  0
  8 10  2  0  0  0  0
  8  9  1  0  0  0  0
 10 11  1  0  0  0  0
 12 14  1  0  0  0  0
 12 10  1  0  0  0  0
 13 12  2  0  0  0  0
 14 16  1  0  0  0  0
 14 15  1  0  0  0  0
 17 14  1  0  0  0  0
 18  1  1  0  0  0  0
 19 20  1  0  0  0  0
 19 18  2  0  0  0  0
 21 19  1  0  0  0  0
 22 21  1  0  0  0  0
 23 21  2  0  0  0  0
 23 24  1  0  0  0  0
 24 26  2  0  0  0  0
 25 24  1  0  0  0  0
 26 18  1  0  0  0  0
 26 27  1  0  0  0  0
 28 30  1  0  0  0  0
 28 23  1  0  0  0  0
 29 28  1  0  0  0  0
 31 28  1  0  0  0  0
M  END
