3,4
q = -1.0

 28 29  0  0  1  0  0  0  0  0999 V2000
   -3.4791   -2.0482   -2.5768 Br  0  0  0  0  0  0  0  0  0  0  0  0
   -7.1179    1.0171    0.5745 Br  0  0  0  0  0  0  0  0  0  0  0  0
   -0.5656    1.5255    0.6637 N   0  0  0  0  0  2  0  0  0  0  0  0
   -1.4535   -0.5061   -0.9231 O   0  0  0  0  0  1  0  0  0  0  0  0
   -2.6517   -0.1169   -0.6206 C   0  0  2  0  0  3  0  0  0  0  0  0
   -3.7901   -0.7271   -1.2445 C   0  0  0  0  0  0  0  0  0  0  0  0
   -5.0959   -0.3943   -0.8973 C   0  0  0  0  0  0  0  0  0  0  0  0
   -5.9395   -0.9061   -1.3799 H   0  0  0  0  0  0  0  0  0  0  0  0
   -5.3271    0.5996    0.0814 C   0  0  0  0  0  0  0  0  0  0  0  0
   -4.2614    1.2757    0.6640 C   0  0  0  0  0  0  0  0  0  0  0  0
   -4.4434    2.0806    1.3909 H   0  0  0  0  0  0  0  0  0  0  0  0
   -2.9280    0.9390    0.3150 C   0  0  0  0  0  0  0  0  0  0  0  0
   -1.8481    1.7389    0.8208 C   0  0  0  0  0  0  0  0  0  0  0  0
   -2.1455    2.6556    1.3689 H   0  0  0  0  0  0  0  0  0  0  0  0
    0.3366    2.5942    1.0979 C   0  0  0  0  0  0  0  0  0  0  0  0
   -0.1874    3.2381    1.8366 H   0  0  0  0  0  0  0  0  0  0  0  0
    1.2083    2.1308    1.6019 H   0  0  0  0  0  0  0  0  0  0  0  0
    0.8536    3.4494   -0.0434 C   0  0  0  0  0  0  0  0  0  0  0  0
    0.8917    2.9823   -1.3691 C   0  0  0  0  0  0  0  0  0  0  0  0
    0.4835    1.9875   -1.6016 H   0  0  0  0  0  0  0  0  0  0  0  0
    1.4455    3.7730   -2.3868 C   0  0  0  0  0  0  0  0  0  0  0  0
    1.4679    3.3917   -3.4191 H   0  0  0  0  0  0  0  0  0  0  0  0
    1.9722    5.0395   -2.0926 C   0  0  0  0  0  0  0  0  0  0  0  0
    2.4098    5.6577   -2.8910 H   0  0  0  0  0  0  0  0  0  0  0  0
    1.9316    5.5160   -0.7723 C   0  0  0  0  0  0  0  0  0  0  0  0
    2.3351    6.5114   -0.5314 H   0  0  0  0  0  0  0  0  0  0  0  0
    1.3728    4.7270    0.2429 C   0  0  0  0  0  0  0  0  0  0  0  0
    1.3462    5.1049    1.2780 H   0  0  0  0  0  0  0  0  0  0  0  0
  1  6  1  0  0  0  0
  3 13  1  0  0  0  0
  3 15  1  0  0  0  0
  5  4  1  6  0  0  0
  5 12  1  0  0  0  0
  6  7  2  0  0  0  0
  6  5  1  0  0  0  0
  7  9  1  0  0  0  0
  8  7  1  0  0  0  0
  9  2  1  0  0  0  0
  9 10  2  0  0  0  0
 10 11  1  0  0  0  0
 12 10  1  0  0  0  0
 12 13  2  0  0  0  0
 13 14  1  0  0  0  0
 15 17  1  0  0  0  0
 15 16  1  0  0  0  0
 18 27  1  0  0  0  0
 18 15  1  0  0  0  0
 19 18  2  0  0  0  0
 20 19  1  0  0  0  0
 21 23  2  0  0  0  0
 21 19  1  0  0  0  0
 22 21  1  0  0  0  0
 23 25  1  0  0  0  0
 24 23  1  0  0  0  0
 25 26  1  0  0  0  0
 25 27  2  0  0  0  0
 27 28  1  0  0  0  0
M  END
