1,2
q = -1.0

 34 34  0  0  1  0  0  0  0  0999 V2000
    0.7310    0.9660   -0.0001 N   0  0  0  0  0  2  0  0  0  0  0  0
   -2.2403    1.4641    0.0000 O   0  0  0  0  0  1  0  0  0  0  0  0
   -1.8221    2.6763    0.0001 C   0  0  1  0  0  3  0  0  0  0  0  0
   -0.4803    3.0982    0.0001 C   0  0  0  0  0  0  0  0  0  0  0  0
   -0.3155    4.1838    0.0002 H   0  0  0  0  0  0  0  0  0  0  0  0
    0.6971    2.3022    0.0001 C   0  0  0  0  0  0  0  0  0  0  0  0
   -2.9207    3.7240    0.0000 C   0  0  0  0  0  0  0  0  0  0  0  0
   -2.5312    4.7588    0.0002 H   0  0  0  0  0  0  0  0  0  0  0  0
   -3.5682    3.5816    0.8900 H   0  0  0  0  0  0  0  0  0  0  0  0
   -3.5680    3.5817   -0.8901 H   0  0  0  0  0  0  0  0  0  0  0  0
    2.0155    3.0555    0.0003 C   0  0  0  0  0  0  0  0  0  0  0  0
    2.6265    2.7858    0.8851 H   0  0  0  0  0  0  0  0  0  0  0  0
    1.8519    4.1480    0.0002 H   0  0  0  0  0  0  0  0  0  0  0  0
    2.6269    2.7857   -0.8843 H   0  0  0  0  0  0  0  0  0  0  0  0
    1.9984    0.3208   -0.0000 C   0  0  0  0  0  0  0  0  0  0  0  0
    2.6053   -0.0304   -1.2310 C   0  0  0  0  0  0  0  0  0  0  0  0
    3.8376   -0.7069   -1.2058 C   0  0  0  0  0  0  0  0  0  0  0  0
    4.3090   -0.9824   -2.1639 H   0  0  0  0  0  0  0  0  0  0  0  0
    4.4780   -1.0477    0.0000 C   0  0  0  0  0  0  0  0  0  0  0  0
    3.8374   -0.7072    1.2059 C   0  0  0  0  0  0  0  0  0  0  0  0
    4.3087   -0.9829    2.1640 H   0  0  0  0  0  0  0  0  0  0  0  0
    2.6051   -0.0306    1.2310 C   0  0  0  0  0  0  0  0  0  0  0  0
    1.9128    0.2987   -2.5268 C   0  0  0  0  0  0  0  0  0  0  0  0
    0.8800   -0.1122   -2.5335 H   0  0  0  0  0  0  0  0  0  0  0  0
    2.4665   -0.1064   -3.3953 H   0  0  0  0  0  0  0  0  0  0  0  0
    1.7998    1.3941   -2.6709 H   0  0  0  0  0  0  0  0  0  0  0  0
    5.8186   -1.7406    0.0001 C   0  0  0  0  0  0  0  0  0  0  0  0
    6.6527   -1.0053    0.0013 H   0  0  0  0  0  0  0  0  0  0  0  0
    5.9498   -2.3773   -0.8974 H   0  0  0  0  0  0  0  0  0  0  0  0
    5.9488   -2.3791    0.8965 H   0  0  0  0  0  0  0  0  0  0  0  0
    1.9124    0.2982    2.5268 C   0  0  0  0  0  0  0  0  0  0  0  0
    1.7993    1.3936    2.6710 H   0  0  0  0  0  0  0  0  0  0  0  0
    2.4661   -0.1069    3.3953 H   0  0  0  0  0  0  0  0  0  0  0  0
    0.8797   -0.1128    2.5333 H   0  0  0  0  0  0  0  0  0  0  0  0
  1 15  1  0  0  0  0
  1  6  1  0  0  0  0
  3  2  1  6  0  0  0
  3  4  1  0  0  0  0
  4  5  1  0  0  0  0
  6  4  2  0  0  0  0
  6 11  1  0  0  0  0
  7  3  1  0  0  0  0
  7  8  1  0  0  0  0
  7  9  1  0  0  0  0
 10  7  1  0  0  0  0
 11 12  1  0  0  0  0
 13 11  1  0  0  0  0
 14 11  1  0  0  0  0
 15 22  1  0  0  0  0
 16 17  1  0  0  0  0
 16 15  2  0  0  0  0
 17 19  2  0  0  0  0
 18 17  1  0  0  0  0
 19 27  1  0  0  0  0
 19 20  1  0  0  0  0
 20 22  2  0  0  0  0
 20 21  1  0  0  0  0
 22 31  1  0  0  0  0
 23 16  1  0  0  0  0
 24 23  1  0  0  0  0
 25 23  1  0  0  0  0
 26 23  1  0  0  0  0
 27 28  1  0  0  0  0
 27 30  1  0  0  0  0
 29 27  1  0  0  0  0
 31 34  1  0  0  0  0
 31 32  1  0  0  0  0
 31 33  1  0  0  0  0
M  END
