1,3
q = -1.0

 19 19  0  0  1  0  0  0  0  0999 V2000
   -1.6355   -0.8350   -0.3762 N   0  0  0  0  0  0  0  0  0  0  0  0
   -1.5728   -1.5671   -1.1015 H   0  0  0  0  0  0  0  0  0  0  0  0
   -1.0164    1.6409    0.4369 O   0  5  0  0  0  0  0  0  0  0  0  0
   -3.0944    2.4108    0.0622 O   0  0  0  0  0  0  0  0  0  0  0  0
   -2.2434    1.5583   -0.0837 C   0  0  0  0  0  0  0  0  0  0  0  0
   -2.4695    0.2933   -0.9521 C   0  0  2  0  0  0  0  0  0  0  0  0
   -2.0086    0.5298   -1.9352 H   0  0  0  0  0  0  0  0  0  0  0  0
   -3.9395   -0.0740   -1.1411 C   0  0  0  0  0  0  0  0  0  0  0  0
   -4.4630    0.8607   -1.4246 H   0  0  0  0  0  0  0  0  0  0  0  0
   -4.0353   -0.7783   -1.9959 H   0  0  0  0  0  0  0  0  0  0  0  0
   -4.5535   -0.6873    0.1200 C   0  0  0  0  0  0  0  0  0  0  0  0
   -4.5952    0.0828    0.9197 H   0  0  0  0  0  0  0  0  0  0  0  0
   -5.5987   -0.9973   -0.0759 H   0  0  0  0  0  0  0  0  0  0  0  0
   -3.7146   -1.8787    0.5907 C   0  0  0  0  0  0  0  0  0  0  0  0
   -3.7400   -2.6945   -0.1670 H   0  0  0  0  0  0  0  0  0  0  0  0
   -4.1153   -2.3141    1.5287 H   0  0  0  0  0  0  0  0  0  0  0  0
   -2.2706   -1.4505    0.8415 C   0  0  0  0  0  0  0  0  0  0  0  0
   -2.2269   -0.6846    1.6418 H   0  0  0  0  0  0  0  0  0  0  0  0
   -1.6267   -2.2951    1.1578 H   0  0  0  0  0  0  0  0  0  0  0  0
  1 17  1  0  0  0  0
  2  1  1  0  0  0  0
  5  4  2  0  0  0  0
  5  3  1  0  0  0  0
  6  7  1  6  0  0  0
  6  1  1  0  0  0  0
  6  5  1  0  0  0  0
  8  6  1  0  0  0  0
  8 11  1  0  0  0  0
  9  8  1  0  0  0  0
 10  8  1  0  0  0  0
 11 14  1  0  0  0  0
 11 12  1  0  0  0  0
 13 11  1  0  0  0  0
 14 17  1  0  0  0  0
 14 16  1  0  0  0  0
 15 14  1  0  0  0  0
 17 19  1  0  0  0  0
 17 18  1  0  0  0  0
M  CHG  1   3  -1
M  END
