1,2
q = -1.0

 25 27  0  0  1  0  0  0  0  0999 V2000
   -1.6262   -1.5583    0.0609 O   0  5  0  0  0  0  0  0  0  0  0  0
   -2.5236    0.9856    0.2425 N   0  0  0  0  0  2  0  0  0  0  0  0
   -4.6888    1.3001   -0.1757 N   0  0  0  0  0  0  0  0  0  0  0  0
   -5.6508    1.0711   -0.4179 H   0  0  0  0  0  0  0  0  0  0  0  0
   -2.8804    2.2374    0.7348 C   0  0  0  0  0  0  0  0  0  0  0  0
   -2.1265    3.2160    1.4036 C   0  0  0  0  0  0  0  0  0  0  0  0
   -1.0704    3.0335    1.6378 H   0  0  0  0  0  0  0  0  0  0  0  0
   -2.7803    4.3988    1.7693 C   0  0  0  0  0  0  0  0  0  0  0  0
   -2.2181    5.1824    2.2983 H   0  0  0  0  0  0  0  0  0  0  0  0
   -4.1504    4.6072    1.4844 C   0  0  0  0  0  0  0  0  0  0  0  0
   -4.6277    5.5499    1.7906 H   0  0  0  0  0  0  0  0  0  0  0  0
   -4.9172    3.6353    0.8265 C   0  0  0  0  0  0  0  0  0  0  0  0
   -5.9835    3.7948    0.6101 H   0  0  0  0  0  0  0  0  0  0  0  0
   -4.2605    2.4515    0.4609 C   0  0  0  0  0  0  0  0  0  0  0  0
   -3.6310    0.4228   -0.2911 C   0  0  2  0  0  3  0  0  0  0  0  0
   -3.7550   -0.9111   -0.8392 C   0  0  0  0  0  0  0  0  0  0  0  0
   -2.7244   -1.8797   -0.5901 C   0  0  0  0  0  0  0  0  0  0  0  0
   -2.9128   -3.2135   -1.0321 C   0  0  0  0  0  0  0  0  0  0  0  0
   -2.1106   -3.9347   -0.8185 H   0  0  0  0  0  0  0  0  0  0  0  0
   -4.0671   -3.5770   -1.7247 C   0  0  0  0  0  0  0  0  0  0  0  0
   -4.1889   -4.6146   -2.0721 H   0  0  0  0  0  0  0  0  0  0  0  0
   -5.0718   -2.6235   -1.9969 C   0  0  0  0  0  0  0  0  0  0  0  0
   -5.9710   -2.9079   -2.5623 H   0  0  0  0  0  0  0  0  0  0  0  0
   -4.9119   -1.3112   -1.5527 C   0  0  0  0  0  0  0  0  0  0  0  0
   -5.6906   -0.5693   -1.7927 H   0  0  0  0  0  0  0  0  0  0  0  0
  2  5  1  0  0  0  0
  3 14  1  0  0  0  0
  4  3  1  0  0  0  0
  5  6  1  0  0  0  0
  6  7  1  0  0  0  0
  6  8  2  0  0  0  0
  8  9  1  0  0  0  0
 10  8  1  0  0  0  0
 10 11  1  0  0  0  0
 12 10  2  0  0  0  0
 13 12  1  0  0  0  0
 14  5  2  0  0  0  0
 14 12  1  0  0  0  0
 15 16  1  1  0  0  0
 15  3  1  0  0  0  0
 15  2  1  0  0  0  0
 16 17  1  0  0  0  0
 17  1  1  0  0  0  0
 18 19  1  0  0  0  0
 18 17  2  0  0  0  0
 20 18  1  0  0  0  0
 21 20  1  0  0  0  0
 22 20  2  0  0  0  0
 22 24  1  0  0  0  0
 23 22  1  0  0  0  0
 24 16  2  0  0  0  0
 25 24  1  0  0  0  0
M  CHG  1   1  -1
M  END
