1,2
q = -2.0, confidence = 0.982

 32 33  0  0  1  0  0  0  0  0999 V2000
    0.3130   -1.6830    0.1243 O   0  0  0  0  0  1  0  0  0  0  0  0
    0.6902    0.8856   -0.1579 N   0  0  0  0  0  2  0  0  0  0  0  0
    1.5549   -1.4378   -0.4901 C   0  0  2  0  0  0  0  0  0  0  0  0
    2.7038   -2.0113    0.3687 C   0  0  1  0  0  0  0  0  0  0  0  0
    4.0133   -1.9107   -0.4416 C   0  0  0  0  0  0  0  0  0  0  0  0
    4.3290   -0.3834   -0.4134 C   0  0  0  0  0  0  0  0  0  0  0  0
    3.1403    0.2048    0.3783 C   0  0  1  0  0  0  0  0  0  0  0  0
    1.8764    0.1177   -0.5427 C   0  0  2  0  0  0  0  0  0  0  0  0
    2.8726   -0.8972    1.4205 C   0  0  0  0  0  0  0  0  0  0  0  0
    0.8043    2.3632   -0.1234 C   0  0  0  0  0  0  0  0  0  0  0  0
    1.1833    2.8598    1.2950 C   0  0  0  0  0  0  0  0  0  0  0  0
    1.8179    2.9163   -1.1478 C   0  0  0  0  0  0  0  0  0  0  0  0
   -0.5711    2.9664   -0.4823 C   0  0  0  0  0  0  0  0  0  0  0  0
    1.5680   -1.8837   -1.5143 H   0  0  0  0  0  0  0  0  0  0  0  0
    2.4632   -3.0251    0.7417 H   0  0  0  0  0  0  0  0  0  0  0  0
    4.8183   -2.5014    0.0395 H   0  0  0  0  0  0  0  0  0  0  0  0
    3.8923   -2.3063   -1.4713 H   0  0  0  0  0  0  0  0  0  0  0  0
    5.2848   -0.1786    0.1095 H   0  0  0  0  0  0  0  0  0  0  0  0
    4.4102    0.0596   -1.4274 H   0  0  0  0  0  0  0  0  0  0  0  0
    3.3409    1.2151    0.7751 H   0  0  0  0  0  0  0  0  0  0  0  0
    2.1852    0.3829   -1.5825 H   0  0  0  0  0  0  0  0  0  0  0  0
    1.9491   -0.7237    2.0065 H   0  0  0  0  0  0  0  0  0  0  0  0
    3.7218   -1.0650    2.1146 H   0  0  0  0  0  0  0  0  0  0  0  0
    2.1646    2.4660    1.6176 H   0  0  0  0  0  0  0  0  0  0  0  0
    1.2327    3.9684    1.3313 H   0  0  0  0  0  0  0  0  0  0  0  0
    0.4330    2.5230    2.0360 H   0  0  0  0  0  0  0  0  0  0  0  0
    1.5778    2.5660   -2.1721 H   0  0  0  0  0  0  0  0  0  0  0  0
    1.7828    4.0245   -1.1515 H   0  0  0  0  0  0  0  0  0  0  0  0
    2.8585    2.6175   -0.9186 H   0  0  0  0  0  0  0  0  0  0  0  0
   -1.3876    2.5039    0.1149 H   0  0  0  0  0  0  0  0  0  0  0  0
   -0.6004    4.0528   -0.2619 H   0  0  0  0  0  0  0  0  0  0  0  0
   -0.8047    2.8282   -1.5545 H   0  0  0  0  0  0  0  0  0  0  0  0
  2 10  1  0  0  0  0
  3 14  1  6  0  0  0
  3  1  1  0  0  0  0
  3  4  1  0  0  0  0
  4 15  1  1  0  0  0
  4  9  1  0  0  0  0
  5  6  1  0  0  0  0
  5 16  1  0  0  0  0
  5  4  1  0  0  0  0
  6 18  1  0  0  0  0
  6  7  1  0  0  0  0
  7 20  1  1  0  0  0
  7  9  1  0  0  0  0
  8 21  1  6  0  0  0
  8  3  1  0  0  0  0
  8  2  1  0  0  0  0
  8  7  1  0  0  0  0
  9 22  1  0  0  0  0
  9 23  1  0  0  0  0
 10 11  1  0  0  0  0
 11 25  1  0  0  0  0
 11 24  1  0  0  0  0
 11 26  1  0  0  0  0
 12 29  1  0  0  0  0
 12 10  1  0  0  0  0
 13 31  1  0  0  0  0
 13 10  1  0  0  0  0
 13 30  1  0  0  0  0
 17  5  1  0  0  0  0
 19  6  1  0  0  0  0
 27 12  1  0  0  0  0
 28 12  1  0  0  0  0
 32 13  1  0  0  0  0
M  END
