2,3
q = -1.0

  9  8  0  0  0  0  0  0  0  0999 V2000
   -2.6073   -1.2546    0.0000 N   0  0  0  0  0  0  0  0  0  0  0  0
   -1.3743    0.6677   -0.0000 N   0  0  0  0  0  2  0  0  0  0  0  0
   -1.4120   -1.7660    0.0000 O   0  5  0  0  0  0  0  0  0  0  0  0
   -1.2719    1.9360   -0.0000 O   0  0  0  0  0  1  0  0  0  0  0  0
   -2.6304    0.0771   -0.0000 C   0  0  0  0  0  0  0  0  0  0  0  0
   -3.8763    0.8923   -0.0000 C   0  0  0  0  0  0  0  0  0  0  0  0
   -4.7512    0.2183    0.0000 H   0  0  0  0  0  0  0  0  0  0  0  0
   -3.9161    1.5521    0.8908 H   0  0  0  0  0  0  0  0  0  0  0  0
   -3.9161    1.5520   -0.8908 H   0  0  0  0  0  0  0  0  0  0  0  0
  1  3  1  0  0  0  0
  2  5  1  0  0  0  0
  4  2  1  0  0  0  0
  5  1  2  0  0  0  0
  6  5  1  0  0  0  0
  6  7  1  0  0  0  0
  6  8  1  0  0  0  0
  9  6  1  0  0  0  0
M  CHG  1   3  -1
M  END
