1,3
q = -1.0, confidence = 0.034

 21 22  0  0  1  0  0  0  0  0999 V2000
    0.2742    1.8643    0.0030 O   0  5  0  0  0  0  0  0  0  0  0  0
   -0.7908    3.8523    0.1077 O   0  0  0  0  0  0  0  0  0  0  0  0
   -1.7943    0.4626   -0.0422 N   0  0  0  0  0  2  0  0  0  0  0  0
   -2.9636   -0.1809   -0.0611 N   0  0  0  0  0  0  0  0  0  0  0  0
   -2.9720   -1.2534   -0.1329 H   0  0  0  0  0  0  0  0  0  0  0  0
   -0.8217    2.6336    0.0501 C   0  0  0  0  0  0  0  0  0  0  0  0
   -2.0500    1.7901    0.0169 C   0  0  2  0  0  3  0  0  0  0  0  0
   -3.4393    1.9981    0.0359 C   0  0  0  0  0  0  0  0  0  0  0  0
   -3.9572    2.9591    0.0977 H   0  0  0  0  0  0  0  0  0  0  0  0
   -4.0060    0.7062   -0.0128 C   0  0  0  0  0  0  0  0  0  0  0  0
   -5.4026    0.2604    0.0017 C   0  0  0  0  0  0  0  0  0  0  0  0
   -6.4468    1.1908   -0.2019 C   0  0  0  0  0  0  0  0  0  0  0  0
   -6.2063    2.2475   -0.3898 H   0  0  0  0  0  0  0  0  0  0  0  0
   -7.7838    0.7765   -0.1807 C   0  0  0  0  0  0  0  0  0  0  0  0
   -8.5845    1.5137   -0.3428 H   0  0  0  0  0  0  0  0  0  0  0  0
   -8.1028   -0.5733    0.0405 C   0  0  0  0  0  0  0  0  0  0  0  0
   -9.1541   -0.8979    0.0560 H   0  0  0  0  0  0  0  0  0  0  0  0
   -7.0724   -1.5056    0.2425 C   0  0  0  0  0  0  0  0  0  0  0  0
   -7.3131   -2.5643    0.4219 H   0  0  0  0  0  0  0  0  0  0  0  0
   -5.7326   -1.0978    0.2271 C   0  0  0  0  0  0  0  0  0  0  0  0
   -4.9379   -1.8397    0.4007 H   0  0  0  0  0  0  0  0  0  0  0  0
  1  6  1  0  0  0  0
  3  7  1  0  0  0  0
  4  3  1  0  0  0  0
  4 10  1  0  0  0  0
  5  4  1  0  0  0  0
  6  2  2  0  0  0  0
  7  8  1  0  0  0  0
  7  6  1  1  0  0  0
  8  9  1  0  0  0  0
 10 11  1  0  0  0  0
 10  8  2  0  0  0  0
 11 20  1  0  0  0  0
 12 14  1  0  0  0  0
 12 11  2  0  0  0  0
 13 12  1  0  0  0  0
 14 16  2  0  0  0  0
 15 14  1  0  0  0  0
 16 17  1  0  0  0  0
 16 18  1  0  0  0  0
 18 19  1  0  0  0  0
 20 18  2  0  0  0  0
 20 21  1  0  0  0  0
M  CHG  1   1  -1
M  END
