2,4
q = -1.0, confidence = 0.004

 27 28  0  0  1  0  0  0  0  0999 V2000
    1.8607   -0.1963    0.9738 P   0  0  1  0  0  0  0  0  0  0  0  0
    0.6009    0.7528    1.0895 O   0  0  0  0  0  1  0  0  0  0  0  0
    2.3021   -1.0592    2.1450 O   0  0  0  0  0  0  0  0  0  0  0  0
    0.0552   -1.1246   -0.8316 N   0  0  0  0  0  2  0  0  0  0  0  0
    1.3573   -1.2511   -0.4700 C   0  0  2  0  0  3  0  0  0  0  0  0
    2.2321   -2.1394   -1.1410 C   0  0  0  0  0  0  0  0  0  0  0  0
    1.7204   -2.8437   -2.2453 C   0  0  0  0  0  0  0  0  0  0  0  0
    2.3705   -3.5448   -2.7919 H   0  0  0  0  0  0  0  0  0  0  0  0
    0.3925   -2.6489   -2.6483 C   0  0  0  0  0  0  0  0  0  0  0  0
   -0.0223   -3.1690   -3.5233 H   0  0  0  0  0  0  0  0  0  0  0  0
   -0.4178   -1.7828   -1.9133 C   0  0  0  0  0  0  0  0  0  0  0  0
   -1.4652   -1.5893   -2.1811 H   0  0  0  0  0  0  0  0  0  0  0  0
    3.6474   -2.3220   -0.6681 C   0  0  0  0  0  0  0  0  0  0  0  0
    4.2682   -1.4387   -0.9261 H   0  0  0  0  0  0  0  0  0  0  0  0
    4.1100   -3.2166   -1.1263 H   0  0  0  0  0  0  0  0  0  0  0  0
    3.6708   -2.4126    0.4364 H   0  0  0  0  0  0  0  0  0  0  0  0
    3.1989    0.8708    0.3527 C   0  0  0  0  0  0  0  0  0  0  0  0
    4.4860    0.7630    0.9128 C   0  0  0  0  0  0  0  0  0  0  0  0
    4.6496    0.0341    1.7219 H   0  0  0  0  0  0  0  0  0  0  0  0
    5.5221    1.5830    0.4412 C   0  0  0  0  0  0  0  0  0  0  0  0
    6.5292    1.5055    0.8791 H   0  0  0  0  0  0  0  0  0  0  0  0
    5.2712    2.5054   -0.5888 C   0  0  0  0  0  0  0  0  0  0  0  0
    6.0854    3.1466   -0.9607 H   0  0  0  0  0  0  0  0  0  0  0  0
    3.9827    2.6191   -1.1396 C   0  0  0  0  0  0  0  0  0  0  0  0
    3.7876    3.3528   -1.9369 H   0  0  0  0  0  0  0  0  0  0  0  0
    2.9391    1.8098   -0.6671 C   0  0  0  0  0  0  0  0  0  0  0  0
    1.9164    1.9072   -1.0703 H   0  0  0  0  0  0  0  0  0  0  0  0
  1  2  1  1  0  0  0
  1  3  2  0  0  0  0
  4  5  1  0  0  0  0
  5  1  1  1  0  0  0
  6 13  1  0  0  0  0
  6  5  1  0  0  0  0
  7  6  2  0  0  0  0
  8  7  1  0  0  0  0
  9  7  1  0  0  0  0
  9 11  2  0  0  0  0
 10  9  1  0  0  0  0
 11  4  1  0  0  0  0
 12 11  1  0  0  0  0
 13 16  1  0  0  0  0
 14 13  1  0  0  0  0
 15 13  1  0  0  0  0
 17 18  1  0  0  0  0
 17  1  1  0  0  0  0
 18 19  1  0  0  0  0
 20 21  1  0  0  0  0
 20 18  2  0  0  0  0
 22 20  1  0  0  0  0
 23 22  1  0  0  0  0
 24 26  1  0  0  0  0
 24 22  2  0  0  0  0
 25 24  1  0  0  0  0
 26 17  2  0  0  0  0
 27 26  1  0  0  0  0
M  END
