2,4
q = -1.0

 20 20  0  0  1  0  0  0  0  0999 V2000
   -1.7643   -2.0650    0.2434 P   0  0  1  0  0  0  0  0  0  0  0  0
   -0.1842   -1.8911    0.2732 O   0  0  0  0  0  1  0  0  0  0  0  0
   -2.4620   -2.7241    1.4102 O   0  0  0  0  0  0  0  0  0  0  0  0
   -1.3228    0.6359   -0.0676 N   0  0  0  0  0  2  0  0  0  0  0  0
   -2.3029   -0.2898    0.0943 C   0  0  2  0  0  3  0  0  0  0  0  0
   -3.6476    0.0860    0.1847 C   0  0  0  0  0  0  0  0  0  0  0  0
   -4.3918   -0.7039    0.3724 H   0  0  0  0  0  0  0  0  0  0  0  0
   -4.0302    1.4337    0.0563 C   0  0  0  0  0  0  0  0  0  0  0  0
   -2.9925    2.3645   -0.1594 C   0  0  0  0  0  0  0  0  0  0  0  0
   -3.2138    3.4348   -0.2848 H   0  0  0  0  0  0  0  0  0  0  0  0
   -1.6663    1.9355   -0.2129 C   0  0  0  0  0  0  0  0  0  0  0  0
   -0.8399    2.6373   -0.3896 H   0  0  0  0  0  0  0  0  0  0  0  0
   -5.4726    1.8532    0.1127 C   0  0  0  0  0  0  0  0  0  0  0  0
   -5.9503    1.7262   -0.8826 H   0  0  0  0  0  0  0  0  0  0  0  0
   -5.5816    2.9172    0.3981 H   0  0  0  0  0  0  0  0  0  0  0  0
   -6.0459    1.2322    0.8283 H   0  0  0  0  0  0  0  0  0  0  0  0
   -2.1770   -2.7985   -1.3758 C   0  0  0  0  0  0  0  0  0  0  0  0
   -1.6828   -2.2162   -2.1784 H   0  0  0  0  0  0  0  0  0  0  0  0
   -3.2741   -2.8382   -1.5208 H   0  0  0  0  0  0  0  0  0  0  0  0
   -1.7793   -3.8331   -1.3743 H   0  0  0  0  0  0  0  0  0  0  0  0
  1  2  1  1  0  0  0
  1  3  2  0  0  0  0
  4  5  1  0  0  0  0
  5  6  1  0  0  0  0
  5  1  1  1  0  0  0
  6  7  1  0  0  0  0
  8 13  1  0  0  0  0
  8  6  2  0  0  0  0
  9  8  1  0  0  0  0
 10  9  1  0  0  0  0
 11  9  2  0  0  0  0
 11  4  1  0  0  0  0
 12 11  1  0  0  0  0
 13 15  1  0  0  0  0
 13 16  1  0  0  0  0
 14 13  1  0  0  0  0
 17 20  1  0  0  0  0
 17  1  1  0  0  0  0
 18 17  1  0  0  0  0
 19 17  1  0  0  0  0
M  END
