1,2
q = -1.0, confidence = 0.162

 16 15  0  0  0  0  0  0  0  0999 V2000
   -1.2479   -0.0610    0.6218 O   0  0  0  0  0  1  0  0  0  0  0  0
   -1.0047    1.0206   -1.7991 N   0  0  0  0  0  0  0  0  0  0  0  0
   -1.0563    1.7595   -2.5111 H   0  0  0  0  0  0  0  0  0  0  0  0
   -0.4072    0.2576   -2.1673 H   0  0  0  0  0  0  0  0  0  0  0  0
   -2.3580    0.5038   -1.4740 C   0  0  0  0  0  0  0  0  0  0  0  0
   -2.8257    0.0022   -2.3461 H   0  0  0  0  0  0  0  0  0  0  0  0
   -2.9863    1.3690   -1.1910 H   0  0  0  0  0  0  0  0  0  0  0  0
   -2.2345   -0.4497   -0.2495 C   0  0  0  0  0  0  0  0  0  0  0  0
   -3.6022   -0.4243    0.5040 C   0  0  0  0  0  0  0  0  0  0  0  0
   -1.9354   -1.8934   -0.7726 C   0  0  0  0  0  0  0  0  0  0  0  0
   -3.7659    0.7862    1.0870 F   0  0  0  0  0  0  0  0  0  0  0  0
   -4.6556   -0.6075   -0.3324 F   0  0  0  0  0  0  0  0  0  0  0  0
   -3.6629   -1.3604    1.4647 F   0  0  0  0  0  0  0  0  0  0  0  0
   -3.0003   -2.4296   -1.4237 F   0  0  0  0  0  0  0  0  0  0  0  0
   -1.5840   -2.7232    0.2122 F   0  0  0  0  0  0  0  0  0  0  0  0
   -0.9126   -1.8523   -1.6722 F   0  0  0  0  0  0  0  0  0  0  0  0
  2  5  1  0  0  0  0
  3  2  1  0  0  0  0
  4  2  1  0  0  0  0
  5  7  1  0  0  0  0
  5  8  1  0  0  0  0
  6  5  1  0  0  0  0
  8  9  1  0  0  0  0
  8  1  1  0  0  0  0
  9 11  1  0  0  0  0
  9 13  1  0  0  0  0
 10  8  1  0  0  0  0
 10 15  1  0  0  0  0
 12  9  1  0  0  0  0
 14 10  1  0  0  0  0
 16 10  1  0  0  0  0
M  END
