1,6
q = -1.0

 18 17  0  0  1  0  0  0  0  0999 V2000
    0.3397   -0.0695    1.5736 O   0  5  0  0  0  0  0  0  0  0  0  0
    1.6526   -0.2771    1.4729 C   0  0  0  0  0  0  0  0  0  0  0  0
    2.4103   -0.2221    2.4195 O   0  0  0  0  0  0  0  0  0  0  0  0
    2.1393   -0.6524    0.0576 C   0  0  1  0  0  0  0  0  0  0  0  0
    2.1635   -1.7638    0.0400 H   0  0  0  0  0  0  0  0  0  0  0  0
    1.1120   -0.2232   -0.9363 N   0  0  0  0  0  0  0  0  0  0  0  0
    1.1014   -0.8456   -1.7538 H   0  0  0  0  0  0  0  0  0  0  0  0
    1.3971    0.6947   -1.3080 H   0  0  0  0  0  0  0  0  0  0  0  0
    3.5526   -0.1227   -0.2472 C   0  0  0  0  0  0  0  0  0  0  0  0
    4.1502   -0.4610    0.6257 H   0  0  0  0  0  0  0  0  0  0  0  0
    4.1309   -0.7397   -1.5254 C   0  0  0  0  0  0  0  0  0  0  0  0
    4.1230   -1.8480   -1.4875 H   0  0  0  0  0  0  0  0  0  0  0  0
    5.1806   -0.4203   -1.6749 H   0  0  0  0  0  0  0  0  0  0  0  0
    3.5717   -0.4227   -2.4328 H   0  0  0  0  0  0  0  0  0  0  0  0
    3.6001    1.4107   -0.2693 C   0  0  0  0  0  0  0  0  0  0  0  0
    3.2109    1.8476    0.6720 H   0  0  0  0  0  0  0  0  0  0  0  0
    3.0401    1.8446   -1.1304 H   0  0  0  0  0  0  0  0  0  0  0  0
    4.6427    1.7627   -0.3896 H   0  0  0  0  0  0  0  0  0  0  0  0
  2  1  1  0  0  0  0
  2  3  2  0  0  0  0
  4  5  1  6  0  0  0
  4  2  1  0  0  0  0
  6  4  1  0  0  0  0
  7  6  1  0  0  0  0
  8  6  1  0  0  0  0
  9  4  1  0  0  0  0
  9 10  1  0  0  0  0
 11 12  1  0  0  0  0
 11  9  1  0  0  0  0
 13 11  1  0  0  0  0
 14 11  1  0  0  0  0
 15  9  1  0  0  0  0
 15 16  1  0  0  0  0
 17 15  1  0  0  0  0
 18 15  1  0  0  0  0
M  CHG  1   1  -1
M  END
