1,15
q = -1.0, confidence = 0.0

 29 30  0  0  0  0  0  0  0  0999 V2000
    1.6166    0.8379   -0.8966 O   0  5  0  0  0  0  0  0  0  0  0  0
    2.7922    0.3405   -0.6548 C   0  0  0  0  0  0  0  0  0  0  0  0
    3.8867    1.3637   -0.3994 C   0  0  0  0  0  0  0  0  0  0  0  0
    3.6297    2.5658   -0.4084 O   0  0  0  0  0  0  0  0  0  0  0  0
    5.2489    0.8369   -0.1052 C   0  0  0  0  0  0  0  0  0  0  0  0
    6.3055    1.7425    0.1070 C   0  0  0  0  0  0  0  0  0  0  0  0
    7.5876    1.2671    0.4097 C   0  0  0  0  0  0  0  0  0  0  0  0
    7.8187   -0.1175    0.5057 C   0  0  0  0  0  0  0  0  0  0  0  0
    6.7695   -1.0242    0.2976 C   0  0  0  0  0  0  0  0  0  0  0  0
    5.4818   -0.5567   -0.0108 C   0  0  0  0  0  0  0  0  0  0  0  0
    4.3792   -1.5512   -0.2460 C   0  0  0  0  0  0  0  0  0  0  0  0
    4.6027   -2.7694   -0.1548 O   0  0  0  0  0  0  0  0  0  0  0  0
    3.0639   -1.0238   -0.5996 C   0  0  0  0  0  0  0  0  0  0  0  0
    1.9867   -1.9900   -0.9785 C   0  0  0  0  0  0  0  0  0  0  0  0
    0.7708   -1.9635   -0.0989 N   0  0  0  0  0  0  0  0  0  0  0  0
   -0.2518   -2.8851   -0.6501 C   0  0  0  0  0  0  0  0  0  0  0  0
    0.1466   -3.9233   -0.6547 H   0  0  0  0  0  0  0  0  0  0  0  0
   -1.1740   -2.8295   -0.0417 H   0  0  0  0  0  0  0  0  0  0  0  0
   -0.4840   -2.5854   -1.6894 H   0  0  0  0  0  0  0  0  0  0  0  0
    1.1167   -2.3564    1.2858 C   0  0  0  0  0  0  0  0  0  0  0  0
    1.5294   -3.3892    1.2993 H   0  0  0  0  0  0  0  0  0  0  0  0
    0.2044   -2.3072    1.9073 H   0  0  0  0  0  0  0  0  0  0  0  0
    1.8853   -1.6648    1.6795 H   0  0  0  0  0  0  0  0  0  0  0  0
    2.4194   -3.0138   -0.9548 H   0  0  0  0  0  0  0  0  0  0  0  0
    1.6213   -1.7746   -2.0043 H   0  0  0  0  0  0  0  0  0  0  0  0
    6.9152   -2.1127    0.3642 H   0  0  0  0  0  0  0  0  0  0  0  0
    8.8263   -0.4904    0.7452 H   0  0  0  0  0  0  0  0  0  0  0  0
    8.4128    1.9763    0.5749 H   0  0  0  0  0  0  0  0  0  0  0  0
    6.0873    2.8182    0.0312 H   0  0  0  0  0  0  0  0  0  0  0  0
  1  2  1  0  0  0  0
  2 13  2  0  0  0  0
  2  3  1  0  0  0  0
  3  5  1  0  0  0  0
  4  3  2  0  0  0  0
  5 10  2  0  0  0  0
  5  6  1  0  0  0  0
  6  7  2  0  0  0  0
  7  8  1  0  0  0  0
  7 28  1  0  0  0  0
  8 27  1  0  0  0  0
  9 26  1  0  0  0  0
  9  8  2  0  0  0  0
 10  9  1  0  0  0  0
 11 12  2  0  0  0  0
 11 10  1  0  0  0  0
 13 11  1  0  0  0  0
 14 24  1  0  0  0  0
 14 13  1  0  0  0  0
 14 15  1  0  0  0  0
 15 20  1  0  0  0  0
 16 15  1  0  0  0  0
 16 18  1  0  0  0  0
 17 16  1  0  0  0  0
 19 16  1  0  0  0  0
 20 21  1  0  0  0  0
 20 23  1  0  0  0  0
 20 22  1  0  0  0  0
 25 14  1  0  0  0  0
 29  6  1  0  0  0  0
M  CHG  1   1  -1
M  END
