1,2
q = 0.0, confidence = 0.99

 33 34  0  0  0  0  0  0  0  0999 V2000
   -1.4119    1.1960   -0.6495 O   0  0  0  0  0  1  0  0  0  0  0  0
   -0.9081   -1.5342   -0.7870 N   0  0  0  0  0  2  0  0  0  0  0  0
   -2.6444    0.7710   -0.5655 N   0  0  0  0  0  0  0  0  0  0  0  0
   -4.4782   -0.5164   -0.5198 N   0  0  0  0  0  0  0  0  0  0  0  0
   -4.8387   -1.2663    0.1110 H   0  0  0  0  0  0  0  0  0  0  0  0
   -2.2726   -1.6492   -0.8478 C   0  0  0  0  0  0  0  0  0  0  0  0
   -2.8970   -2.8506   -1.2472 C   0  0  0  0  0  0  0  0  0  0  0  0
   -3.9930   -2.8967   -1.2753 H   0  0  0  0  0  0  0  0  0  0  0  0
   -2.1145   -3.9437   -1.6250 C   0  0  0  0  0  0  0  0  0  0  0  0
   -2.5877   -4.8863   -1.9354 H   0  0  0  0  0  0  0  0  0  0  0  0
   -0.7188   -3.7974   -1.6205 C   0  0  0  0  0  0  0  0  0  0  0  0
   -0.0532   -4.6140   -1.9341 H   0  0  0  0  0  0  0  0  0  0  0  0
   -0.1642   -2.5848   -1.2010 C   0  0  0  0  0  0  0  0  0  0  0  0
    0.9193   -2.4265   -1.1598 H   0  0  0  0  0  0  0  0  0  0  0  0
   -3.1003   -0.4812   -0.5871 C   0  0  0  0  0  0  0  0  0  0  0  0
   -3.7782    1.7414   -0.7197 C   0  0  0  0  0  0  0  0  0  0  0  0
   -4.9527    0.8516   -0.1585 C   0  0  0  0  0  0  0  0  0  0  0  0
   -3.4984    3.0246    0.0544 C   0  0  0  0  0  0  0  0  0  0  0  0
   -2.6386    3.5535   -0.3980 H   0  0  0  0  0  0  0  0  0  0  0  0
   -4.3818    3.6909    0.0040 H   0  0  0  0  0  0  0  0  0  0  0  0
   -3.2679    2.8284    1.1173 H   0  0  0  0  0  0  0  0  0  0  0  0
   -3.8894    2.0344   -2.2255 C   0  0  0  0  0  0  0  0  0  0  0  0
   -4.1341    1.1182   -2.7969 H   0  0  0  0  0  0  0  0  0  0  0  0
   -4.6693    2.7943   -2.4228 H   0  0  0  0  0  0  0  0  0  0  0  0
   -2.9177    2.4238   -2.5860 H   0  0  0  0  0  0  0  0  0  0  0  0
   -6.3053    1.1331   -0.8161 C   0  0  0  0  0  0  0  0  0  0  0  0
   -7.0770    0.4743   -0.3711 H   0  0  0  0  0  0  0  0  0  0  0  0
   -6.6180    2.1821   -0.6404 H   0  0  0  0  0  0  0  0  0  0  0  0
   -6.2831    0.9416   -1.9041 H   0  0  0  0  0  0  0  0  0  0  0  0
   -5.0837    0.9630    1.3710 C   0  0  0  0  0  0  0  0  0  0  0  0
   -4.1124    0.8075    1.8799 H   0  0  0  0  0  0  0  0  0  0  0  0
   -5.4813    1.9533    1.6661 H   0  0  0  0  0  0  0  0  0  0  0  0
   -5.7777    0.1838    1.7402 H   0  0  0  0  0  0  0  0  0  0  0  0
  1  3  1  0  0  0  0
  4 17  1  0  0  0  0
  4  5  1  0  0  0  0
  6  2  1  0  0  0  0
  6 15  2  0  0  0  0
  7  6  1  0  0  0  0
  8  7  1  0  0  0  0
  9 11  1  0  0  0  0
  9  7  2  0  0  0  0
 10  9  1  0  0  0  0
 11 13  2  0  0  0  0
 12 11  1  0  0  0  0
 13 14  1  0  0  0  0
 13  2  1  0  0  0  0
 15  3  1  0  0  0  0
 15  4  1  0  0  0  0
 16  3  1  0  0  0  0
 16 17  1  0  0  0  0
 16 18  1  0  0  0  0
 17 30  1  0  0  0  0
 18 21  1  0  0  0  0
 19 18  1  0  0  0  0
 20 18  1  0  0  0  0
 22 16  1  0  0  0  0
 23 22  1  0  0  0  0
 24 22  1  0  0  0  0
 25 22  1  0  0  0  0
 26 28  1  0  0  0  0
 26 27  1  0  0  0  0
 26 17  1  0  0  0  0
 29 26  1  0  0  0  0
 30 32  1  0  0  0  0
 30 33  1  0  0  0  0
 30 31  1  0  0  0  0
M  END
