2,17
q = -2.0, confidence = 0.842

 22 21  0  0  0  0  0  0  0  0999 V2000
   -4.9492   -1.5428   -0.4429 O   0  0  0  0  0  0  0  0  0  0  0  0
   -1.9125    0.4932    0.1788 N   0  0  0  0  0  0  0  0  0  0  0  0
   -2.1067    1.6089   -0.7838 C   0  0  0  0  0  0  0  0  0  0  0  0
   -2.0832    0.9948    1.6384 C   0  0  0  0  0  0  0  0  0  0  0  0
   -2.8074   -0.6576   -0.1008 C   0  0  0  0  0  0  0  0  0  0  0  0
   -4.3031   -0.4137    0.1137 C   0  0  0  0  0  0  0  0  0  0  0  0
   -3.1029    1.4172    1.7515 H   0  0  0  0  0  0  0  0  0  0  0  0
   -1.9947    0.0740    2.2535 H   0  0  0  0  0  0  0  0  0  0  0  0
   -2.3672    1.1658   -1.7672 H   0  0  0  0  0  0  0  0  0  0  0  0
   -2.9318    2.2878   -0.4870 H   0  0  0  0  0  0  0  0  0  0  0  0
   -2.6787   -0.9320   -1.1671 H   0  0  0  0  0  0  0  0  0  0  0  0
   -2.4618   -1.5114    0.5126 H   0  0  0  0  0  0  0  0  0  0  0  0
   -4.6159    0.5377   -0.3852 H   0  0  0  0  0  0  0  0  0  0  0  0
   -4.5240   -0.3014    1.2022 H   0  0  0  0  0  0  0  0  0  0  0  0
   -5.8984   -1.4758   -0.2402 H   0  0  0  0  0  0  0  0  0  0  0  0
    0.1936    1.4594    1.9715 O   0  0  0  0  0  0  0  0  0  0  0  0
    0.2686    1.6557   -0.8262 O   0  5  0  0  0  0  0  0  0  0  0  0
   -0.8060    2.4022   -0.9926 C   0  0  0  0  0  0  0  0  0  0  0  0
   -1.0718    1.9962    1.9891 C   0  0  0  0  0  3  0  0  0  0  0  0
    0.8305    2.1658    1.7409 H   0  0  0  0  0  0  0  0  0  0  0  0
   -0.7990    3.5729   -1.3454 O   0  0  0  0  0  0  0  0  0  0  0  0
   -1.1755    3.0479    1.6765 H   0  0  0  0  0  0  0  0  0  0  0  0
  1 15  1  0  0  0  0
  1  6  1  0  0  0  0
  2  4  1  0  0  0  0
  3 10  1  0  0  0  0
  3  2  1  0  0  0  0
  4  7  1  0  0  0  0
  4 19  1  0  0  0  0
  4  8  1  0  0  0  0
  5  6  1  0  0  0  0
  5  2  1  0  0  0  0
  5 12  1  0  0  0  0
  6 14  1  0  0  0  0
  9  3  1  0  0  0  0
 11  5  1  0  0  0  0
 13  6  1  0  0  0  0
 16 19  1  0  0  0  0
 18 17  1  0  0  0  0
 18  3  1  0  0  0  0
 20 16  1  0  0  0  0
 21 18  2  0  0  0  0
 22 19  1  0  0  0  0
M  CHG  1  17  -1
M  END
