2,5
q = -1.0

 38 40  0  0  0  0  0  0  0  0999 V2000
    0.6623   -2.3126    1.7687 S   0  0  0  0  0  0  0  0  0  0  0  0
    1.6067    0.9256    0.0316 O   0  5  0  0  0  0  0  0  0  0  0  0
    1.3009   -0.2252    3.2707 O   0  0  0  0  0  0  0  0  0  0  0  0
    2.8751    1.2476    2.9038 O   0  0  0  0  0  0  0  0  0  0  0  0
    0.7119   -1.3652   -1.0959 N   0  0  0  0  0  2  0  0  0  0  0  0
    2.3642    0.1372    2.7446 N   0  0  0  0  0  0  0  0  0  0  0  0
    2.4959    0.9423   -0.9180 C   0  0  0  0  0  0  0  0  0  0  0  0
    3.4848    1.9725   -0.9022 C   0  0  0  0  0  0  0  0  0  0  0  0
    3.4200    2.7123   -0.0913 H   0  0  0  0  0  0  0  0  0  0  0  0
    4.4743    2.0266   -1.8781 C   0  0  0  0  0  0  0  0  0  0  0  0
    5.2159    2.8406   -1.8481 H   0  0  0  0  0  0  0  0  0  0  0  0
    4.5453    1.0540   -2.9068 C   0  0  0  0  0  0  0  0  0  0  0  0
    5.3332    1.1100   -3.6715 H   0  0  0  0  0  0  0  0  0  0  0  0
    3.6110    0.0251   -2.9293 C   0  0  0  0  0  3  0  0  0  0  0  0
    3.6612   -0.7550   -3.7059 H   0  0  0  0  0  0  0  0  0  0  0  0
    2.5759   -0.0547   -1.9578 C   0  0  0  0  0  0  0  0  0  0  0  0
    1.7311   -1.2070   -1.9106 C   0  0  0  0  0  0  0  0  0  0  0  0
    2.0106   -2.0662   -2.5510 H   0  0  0  0  0  0  0  0  0  0  0  0
    0.1380   -2.6533   -0.9542 C   0  0  0  0  0  0  0  0  0  0  0  0
   -0.4497   -3.3259   -2.0368 C   0  0  0  0  0  0  0  0  0  0  0  0
   -0.5241   -2.8064   -3.0029 H   0  0  0  0  0  0  0  0  0  0  0  0
   -1.0193   -4.5943   -1.8468 C   0  0  0  0  0  0  0  0  0  0  0  0
   -1.4976   -5.1048   -2.6961 H   0  0  0  0  0  0  0  0  0  0  0  0
   -1.0055   -5.1968   -0.5792 C   0  0  0  0  0  0  0  0  0  0  0  0
   -1.4574   -6.1889   -0.4314 H   0  0  0  0  0  0  0  0  0  0  0  0
   -0.4238   -4.5263    0.5097 C   0  0  0  0  0  0  0  0  0  0  0  0
   -0.4151   -4.9809    1.5116 H   0  0  0  0  0  0  0  0  0  0  0  0
    0.1523   -3.2582    0.3333 C   0  0  0  0  0  0  0  0  0  0  0  0
    2.3689   -1.9808    1.3963 C   0  0  0  0  0  0  0  0  0  0  0  0
    3.0439   -0.8316    1.8844 C   0  0  0  0  0  0  0  0  0  0  0  0
    4.3691   -0.5426    1.5175 C   0  0  0  0  0  0  0  0  0  0  0  0
    4.8105    0.3848    1.9048 H   0  0  0  0  0  0  0  0  0  0  0  0
    5.0683   -1.4082    0.6772 C   0  0  0  0  0  0  0  0  0  0  0  0
    6.1039   -1.1802    0.3880 H   0  0  0  0  0  0  0  0  0  0  0  0
    4.4276   -2.5666    0.2008 C   0  0  0  0  0  0  0  0  0  0  0  0
    4.9659   -3.2642   -0.4584 H   0  0  0  0  0  0  0  0  0  0  0  0
    3.1041   -2.8451    0.5530 C   0  0  0  0  0  0  0  0  0  0  0  0
    2.6088   -3.7470    0.1654 H   0  0  0  0  0  0  0  0  0  0  0  0
  5 19  1  0  0  0  0
  6  4  2  0  0  0  0
  6  3  2  0  0  0  0
  7  8  2  0  0  0  0
  7  2  1  0  0  0  0
  8  9  1  0  0  0  0
 10 11  1  0  0  0  0
 10  8  1  0  0  0  0
 12 10  2  0  0  0  0
 13 12  1  0  0  0  0
 14 12  1  0  0  0  0
 14 16  1  0  0  0  0
 15 14  1  0  0  0  0
 16 17  2  0  0  0  0
 16  7  1  0  0  0  0
 17  5  1  0  0  0  0
 18 17  1  0  0  0  0
 19 28  1  0  0  0  0
 20 22  1  0  0  0  0
 20 19  2  0  0  0  0
 21 20  1  0  0  0  0
 22 24  2  0  0  0  0
 23 22  1  0  0  0  0
 24 25  1  0  0  0  0
 24 26  1  0  0  0  0
 26 27  1  0  0  0  0
 28 26  2  0  0  0  0
 28  1  1  0  0  0  0
 29  1  1  0  0  0  0
 29 30  1  0  0  0  0
 30  6  1  0  0  0  0
 31 30  2  0  0  0  0
 31 32  1  0  0  0  0
 33 31  1  0  0  0  0
 34 33  1  0  0  0  0
 35 37  1  0  0  0  0
 35 33  2  0  0  0  0
 36 35  1  0  0  0  0
 37 29  2  0  0  0  0
 38 37  1  0  0  0  0
M  CHG  1   2  -1
M  END
