2,5
q = -1.0

 38 40  0  0  1  0  0  0  0  0999 V2000
   -0.6633    2.3137   -1.7688 S   0  0  0  0  0  0  0  0  0  0  0  0
   -1.6071   -0.9245   -0.0331 O   0  0  0  0  0  1  0  0  0  0  0  0
   -1.3015    0.2269   -3.2717 O   0  0  0  0  0  0  0  0  0  0  0  0
   -2.8753   -1.2465   -2.9053 O   0  0  0  0  0  0  0  0  0  0  0  0
   -0.7120    1.3654    1.0955 N   0  0  0  0  0  2  0  0  0  0  0  0
   -2.3647   -0.1360   -2.7457 N   0  0  0  0  0  0  0  0  0  0  0  0
   -2.4949   -0.9428    0.9178 C   0  0  2  0  0  3  0  0  0  0  0  0
   -3.4831   -1.9738    0.9025 C   0  0  0  0  0  0  0  0  0  0  0  0
   -3.4189   -2.7128    0.0909 H   0  0  0  0  0  0  0  0  0  0  0  0
   -4.4711   -2.0296    1.8798 C   0  0  0  0  0  0  0  0  0  0  0  0
   -5.2120   -2.8442    1.8503 H   0  0  0  0  0  0  0  0  0  0  0  0
   -4.5412   -1.0580    2.9096 C   0  0  0  0  0  0  0  0  0  0  0  0
   -5.3280   -1.1153    3.6754 H   0  0  0  0  0  0  0  0  0  0  0  0
   -3.6078   -0.0282    2.9315 C   0  0  0  0  0  0  0  0  0  0  0  0
   -3.6574    0.7511    3.7088 H   0  0  0  0  0  0  0  0  0  0  0  0
   -2.5742    0.0532    1.9586 C   0  0  0  0  0  0  0  0  0  0  0  0
   -1.7302    1.2061    1.9111 C   0  0  0  0  0  0  0  0  0  0  0  0
   -2.0096    2.0648    2.5522 H   0  0  0  0  0  0  0  0  0  0  0  0
   -0.1386    2.6537    0.9541 C   0  0  0  0  0  0  0  0  0  0  0  0
    0.4490    3.3263    2.0368 C   0  0  0  0  0  0  0  0  0  0  0  0
    0.5237    2.8064    3.0027 H   0  0  0  0  0  0  0  0  0  0  0  0
    1.0181    4.5948    1.8471 C   0  0  0  0  0  0  0  0  0  0  0  0
    1.4964    5.1052    2.6964 H   0  0  0  0  0  0  0  0  0  0  0  0
    1.0039    5.1977    0.5797 C   0  0  0  0  0  0  0  0  0  0  0  0
    1.4554    6.1900    0.4321 H   0  0  0  0  0  0  0  0  0  0  0  0
    0.4222    4.5274   -0.5094 C   0  0  0  0  0  0  0  0  0  0  0  0
    0.4132    4.9823   -1.5111 H   0  0  0  0  0  0  0  0  0  0  0  0
   -0.1533    3.2590   -0.3333 C   0  0  0  0  0  0  0  0  0  0  0  0
   -2.3698    1.9814   -1.3963 C   0  0  0  0  0  0  0  0  0  0  0  0
   -3.0446    0.8324   -1.8851 C   0  0  0  0  0  0  0  0  0  0  0  0
   -4.3698    0.5429   -1.5183 C   0  0  0  0  0  0  0  0  0  0  0  0
   -4.8109   -0.3843   -1.9061 H   0  0  0  0  0  0  0  0  0  0  0  0
   -5.0691    1.4079   -0.6775 C   0  0  0  0  0  0  0  0  0  0  0  0
   -6.1046    1.1796   -0.3885 H   0  0  0  0  0  0  0  0  0  0  0  0
   -4.4284    2.5660   -0.2003 C   0  0  0  0  0  0  0  0  0  0  0  0
   -4.9669    3.2631    0.4594 H   0  0  0  0  0  0  0  0  0  0  0  0
   -3.1051    2.8450   -0.5524 C   0  0  0  0  0  0  0  0  0  0  0  0
   -2.6099    3.7468   -0.1642 H   0  0  0  0  0  0  0  0  0  0  0  0
  1 29  1  0  0  0  0
  1 28  1  0  0  0  0
  3  6  2  0  0  0  0
  4  6  2  0  0  0  0
  5 17  1  0  0  0  0
  6 30  1  0  0  0  0
  7  2  1  6  0  0  0
  7 16  1  0  0  0  0
  8  7  1  0  0  0  0
  8 10  2  0  0  0  0
  9  8  1  0  0  0  0
 10 12  1  0  0  0  0
 11 10  1  0  0  0  0
 12 14  2  0  0  0  0
 12 13  1  0  0  0  0
 14 15  1  0  0  0  0
 16 14  1  0  0  0  0
 17 16  2  0  0  0  0
 17 18  1  0  0  0  0
 19  5  1  0  0  0  0
 19 20  1  0  0  0  0
 20 21  1  0  0  0  0
 22 20  2  0  0  0  0
 22 23  1  0  0  0  0
 24 22  1  0  0  0  0
 25 24  1  0  0  0  0
 26 28  1  0  0  0  0
 26 24  2  0  0  0  0
 27 26  1  0  0  0  0
 28 19  2  0  0  0  0
 29 37  1  0  0  0  0
 30 31  1  0  0  0  0
 30 29  2  0  0  0  0
 31 33  2  0  0  0  0
 32 31  1  0  0  0  0
 33 34  1  0  0  0  0
 33 35  1  0  0  0  0
 35 36  1  0  0  0  0
 37 35  2  0  0  0  0
 37 38  1  0  0  0  0
M  END
