1,2
q = -1.0

 26 27  0  0  1  0  0  0  0  0999 V2000
   -0.2651    1.8901   -0.6457 O   0  5  0  0  0  0  0  0  0  0  0  0
    2.0411    0.2150   -0.0913 N   0  0  0  0  0  2  0  0  0  0  0  0
    2.6170    1.4247   -0.0347 C   0  0  1  0  0  3  0  0  0  0  0  0
    4.1386    1.3225    0.1448 C   0  0  0  0  0  0  0  0  0  0  0  0
    4.3277   -0.1761    0.0528 C   0  0  0  0  0  0  0  0  0  0  0  0
    5.4939   -0.9408    0.0651 C   0  0  0  0  0  0  0  0  0  0  0  0
    6.4775   -0.4629    0.1978 H   0  0  0  0  0  0  0  0  0  0  0  0
    5.3944   -2.3334   -0.1164 C   0  0  0  0  0  0  0  0  0  0  0  0
    6.3019   -2.9555   -0.1133 H   0  0  0  0  0  0  0  0  0  0  0  0
    4.1366   -2.9245   -0.3244 C   0  0  0  0  0  0  0  0  0  0  0  0
    4.0688   -4.0103   -0.4925 H   0  0  0  0  0  0  0  0  0  0  0  0
    2.9561   -2.1616   -0.3296 C   0  0  0  0  0  0  0  0  0  0  0  0
    1.9825   -2.6285   -0.5005 H   0  0  0  0  0  0  0  0  0  0  0  0
    3.0587   -0.7783   -0.1121 C   0  0  0  0  0  0  0  0  0  0  0  0
    1.9642    2.6693   -0.1736 C   0  0  0  0  0  0  0  0  0  0  0  0
    2.5721    3.5818   -0.1151 H   0  0  0  0  0  0  0  0  0  0  0  0
    0.6282    2.8073   -0.5398 C   0  0  0  0  0  0  0  0  0  0  0  0
    0.2574    3.8267   -0.7929 H   0  0  0  0  0  0  0  0  0  0  0  0
    4.9011    2.0609   -0.9720 C   0  0  0  0  0  0  0  0  0  0  0  0
    4.5995    1.6907   -1.9711 H   0  0  0  0  0  0  0  0  0  0  0  0
    4.7122    3.1525   -0.9319 H   0  0  0  0  0  0  0  0  0  0  0  0
    5.9920    1.8991   -0.8580 H   0  0  0  0  0  0  0  0  0  0  0  0
    4.5342    1.8650    1.5363 C   0  0  0  0  0  0  0  0  0  0  0  0
    5.6201    1.7162    1.7041 H   0  0  0  0  0  0  0  0  0  0  0  0
    4.3157    2.9491    1.6166 H   0  0  0  0  0  0  0  0  0  0  0  0
    3.9841    1.3363    2.3389 H   0  0  0  0  0  0  0  0  0  0  0  0
  1 17  1  0  0  0  0
  2  3  1  0  0  0  0
  3 15  1  6  0  0  0
  3  4  1  0  0  0  0
  4 23  1  0  0  0  0
  5  6  1  0  0  0  0
  5  4  1  0  0  0  0
  6  7  1  0  0  0  0
  8  9  1  0  0  0  0
  8  6  2  0  0  0  0
 10  8  1  0  0  0  0
 11 10  1  0  0  0  0
 12 10  2  0  0  0  0
 12 14  1  0  0  0  0
 13 12  1  0  0  0  0
 14  2  1  0  0  0  0
 14  5  2  0  0  0  0
 15 16  1  0  0  0  0
 17 15  2  0  0  0  0
 18 17  1  0  0  0  0
 19 21  1  0  0  0  0
 19 22  1  0  0  0  0
 19  4  1  0  0  0  0
 20 19  1  0  0  0  0
 23 25  1  0  0  0  0
 23 24  1  0  0  0  0
 23 26  1  0  0  0  0
M  CHG  1   1  -1
M  END
