1,2
q = -1.0

 18 18  0  0  1  0  0  0  0  0999 V2000
   -1.6983   -1.0811   -0.0001 O   0  0  0  0  0  1  0  0  0  0  0  0
   -0.9905    1.7706    0.0001 N   0  0  0  0  0  2  0  0  0  0  0  0
   -3.2639    0.7917   -0.0000 C   0  0  0  0  0  0  0  0  0  0  0  0
   -2.9181   -0.6079   -0.0001 C   0  0  2  0  0  3  0  0  0  0  0  0
   -3.9870   -1.5563   -0.0001 C   0  0  0  0  0  0  0  0  0  0  0  0
   -5.3160   -1.1527   -0.0001 C   0  0  0  0  0  0  0  0  0  0  0  0
   -5.6595    0.2219   -0.0001 C   0  0  0  0  0  0  0  0  0  0  0  0
   -4.6409    1.1644    0.0000 C   0  0  0  0  0  0  0  0  0  0  0  0
   -2.2990    1.8539    0.0001 C   0  0  0  0  0  0  0  0  0  0  0  0
   -0.2291    3.0181    0.0001 C   0  0  0  0  0  0  0  0  0  0  0  0
   -3.7106   -2.6207   -0.0002 H   0  0  0  0  0  0  0  0  0  0  0  0
   -6.1111   -1.9148   -0.0002 H   0  0  0  0  0  0  0  0  0  0  0  0
   -6.7131    0.5353   -0.0000 H   0  0  0  0  0  0  0  0  0  0  0  0
   -4.8849    2.2392    0.0001 H   0  0  0  0  0  0  0  0  0  0  0  0
   -2.7259    2.8764    0.0001 H   0  0  0  0  0  0  0  0  0  0  0  0
    0.4327    3.0587    0.8860 H   0  0  0  0  0  0  0  0  0  0  0  0
   -0.9143    3.8895    0.0009 H   0  0  0  0  0  0  0  0  0  0  0  0
    0.4314    3.0594   -0.8868 H   0  0  0  0  0  0  0  0  0  0  0  0
  3  8  1  0  0  0  0
  3  9  2  0  0  0  0
  4  1  1  1  0  0  0
  4  3  1  0  0  0  0
  5  6  2  0  0  0  0
  5  4  1  0  0  0  0
  6  7  1  0  0  0  0
  7 13  1  0  0  0  0
  7  8  2  0  0  0  0
  8 14  1  0  0  0  0
  9  2  1  0  0  0  0
  9 15  1  0  0  0  0
 10  2  1  0  0  0  0
 10 17  1  0  0  0  0
 10 16  1  0  0  0  0
 11  5  1  0  0  0  0
 12  6  1  0  0  0  0
 18 10  1  0  0  0  0
M  END
