1,19
q = -1.0

 40 42  0  0  0  0  0  0  0  0999 V2000
   -1.5100   -1.0378   -0.1871 O   0  5  0  0  0  0  0  0  0  0  0  0
   -2.7681   -0.7215   -0.1605 C   0  0  0  0  0  0  0  0  0  0  0  0
   -3.2595    0.6208   -0.0829 C   0  0  0  0  0  0  0  0  0  0  0  0
   -4.6947    0.8671   -0.0473 C   0  0  0  0  0  0  0  0  0  0  0  0
   -5.5969   -0.2526   -0.1139 C   0  0  0  0  0  0  0  0  0  0  0  0
   -5.0580   -1.5799   -0.2067 C   0  0  0  0  0  0  0  0  0  0  0  0
   -3.7053   -1.8139   -0.2295 C   0  0  0  0  0  0  0  0  0  0  0  0
   -3.2801   -2.8265   -0.2935 H   0  0  0  0  0  0  0  0  0  0  0  0
   -5.7633   -2.4251   -0.2562 H   0  0  0  0  0  0  0  0  0  0  0  0
   -7.0003   -0.0371   -0.0831 C   0  0  0  0  0  3  0  0  0  0  0  0
   -7.6652   -0.9137   -0.1361 H   0  0  0  0  0  0  0  0  0  0  0  0
   -7.5302    1.2444    0.0125 C   0  0  0  0  0  0  0  0  0  0  0  0
   -8.6191    1.3991    0.0355 H   0  0  0  0  0  0  0  0  0  0  0  0
   -6.6509    2.3491    0.0837 C   0  0  0  0  0  0  0  0  0  0  0  0
   -7.0573    3.3689    0.1646 H   0  0  0  0  0  0  0  0  0  0  0  0
   -5.2709    2.1639    0.0563 C   0  0  0  0  0  0  0  0  0  0  0  0
   -4.6258    3.0513    0.1231 H   0  0  0  0  0  0  0  0  0  0  0  0
   -2.3274    1.6977   -0.0702 C   0  0  0  0  0  0  0  0  0  0  0  0
   -1.0079    1.6157   -0.0573 N   0  0  0  0  0  2  0  0  0  0  0  0
   -0.2983    2.8628   -0.0700 C   0  0  0  0  0  0  0  0  0  0  0  0
    0.2157    3.3497   -1.2936 C   0  0  0  0  0  0  0  0  0  0  0  0
    0.9378    4.5544   -1.2788 C   0  0  0  0  0  0  0  0  0  0  0  0
    1.3427    4.9393   -2.2290 H   0  0  0  0  0  0  0  0  0  0  0  0
    1.1693    5.2709   -0.0888 C   0  0  0  0  0  0  0  0  0  0  0  0
    0.6628    4.7412    1.1125 C   0  0  0  0  0  0  0  0  0  0  0  0
    0.8515    5.2732    2.0593 H   0  0  0  0  0  0  0  0  0  0  0  0
   -0.0666    3.5395    1.1482 C   0  0  0  0  0  0  0  0  0  0  0  0
   -0.5467    2.9500    2.4482 C   0  0  0  0  0  0  0  0  0  0  0  0
   -0.1765    1.9090    2.5582 H   0  0  0  0  0  0  0  0  0  0  0  0
   -0.1934    3.5433    3.3125 H   0  0  0  0  0  0  0  0  0  0  0  0
   -1.6542    2.8950    2.5012 H   0  0  0  0  0  0  0  0  0  0  0  0
    1.9209    6.5787   -0.1068 C   0  0  0  0  0  0  0  0  0  0  0  0
    2.3929    6.7931    0.8723 H   0  0  0  0  0  0  0  0  0  0  0  0
    2.7137    6.5838   -0.8813 H   0  0  0  0  0  0  0  0  0  0  0  0
    1.2410    7.4282   -0.3348 H   0  0  0  0  0  0  0  0  0  0  0  0
    0.0338    2.5557   -2.5590 C   0  0  0  0  0  0  0  0  0  0  0  0
   -1.0365    2.3676   -2.7823 H   0  0  0  0  0  0  0  0  0  0  0  0
    0.4861    3.0700   -3.4278 H   0  0  0  0  0  0  0  0  0  0  0  0
    0.5104    1.5574   -2.4530 H   0  0  0  0  0  0  0  0  0  0  0  0
   -2.7363    2.7235   -0.0884 H   0  0  0  0  0  0  0  0  0  0  0  0
  1  2  1  0  0  0  0
  2  3  1  0  0  0  0
  3 18  2  0  0  0  0
  3  4  1  0  0  0  0
  4 16  2  0  0  0  0
  5 10  1  0  0  0  0
  5  4  1  0  0  0  0
  6  5  2  0  0  0  0
  7  6  1  0  0  0  0
  7  2  2  0  0  0  0
  8  7  1  0  0  0  0
  9  6  1  0  0  0  0
 10 12  1  0  0  0  0
 11 10  1  0  0  0  0
 12 13  1  0  0  0  0
 12 14  2  0  0  0  0
 14 15  1  0  0  0  0
 16 14  1  0  0  0  0
 16 17  1  0  0  0  0
 18 19  1  0  0  0  0
 20 19  1  0  0  0  0
 20 27  1  0  0  0  0
 21 22  1  0  0  0  0
 21 20  2  0  0  0  0
 22 24  2  0  0  0  0
 23 22  1  0  0  0  0
 24 25  1  0  0  0  0
 25 27  2  0  0  0  0
 25 26  1  0  0  0  0
 27 28  1  0  0  0  0
 28 31  1  0  0  0  0
 28 29  1  0  0  0  0
 28 30  1  0  0  0  0
 32 24  1  0  0  0  0
 32 33  1  0  0  0  0
 34 32  1  0  0  0  0
 35 32  1  0  0  0  0
 36 39  1  0  0  0  0
 36 21  1  0  0  0  0
 37 36  1  0  0  0  0
 38 36  1  0  0  0  0
 40 18  1  0  0  0  0
M  CHG  1   1  -1
M  END
