1,6
q = -1.0

 16 16  0  0  1  0  0  0  0  0999 V2000
    1.1141    0.6840   -1.8323 O   0  5  0  0  0  0  0  0  0  0  0  0
   -0.0915    2.0455   -3.1870 O   0  0  0  0  0  0  0  0  0  0  0  0
   -4.2454   -1.2537    1.8113 O   0  0  0  0  0  0  0  0  0  0  0  0
   -5.0846   -1.4871    2.2639 H   0  0  0  0  0  0  0  0  0  0  0  0
   -5.7344   -0.0745    0.5751 O   0  0  0  0  0  0  0  0  0  0  0  0
   -1.0425   -0.0158   -0.4401 N   0  0  0  0  0  2  0  0  0  0  0  0
    0.0149    1.2389   -2.2671 C   0  0  0  0  0  0  0  0  0  0  0  0
   -1.2314    0.8220   -1.4916 C   0  0  2  0  0  3  0  0  0  0  0  0
   -2.5033    1.2915   -1.8453 C   0  0  0  0  0  0  0  0  0  0  0  0
   -2.5667    1.9689   -2.7089 H   0  0  0  0  0  0  0  0  0  0  0  0
   -3.6098    0.8843   -1.0977 C   0  0  0  0  0  0  0  0  0  0  0  0
   -4.6337    1.2146   -1.3279 H   0  0  0  0  0  0  0  0  0  0  0  0
   -3.4080    0.0160   -0.0059 C   0  0  0  0  0  0  0  0  0  0  0  0
   -2.1044   -0.4121    0.2916 C   0  0  0  0  0  0  0  0  0  0  0  0
   -1.9055   -1.0907    1.1334 H   0  0  0  0  0  0  0  0  0  0  0  0
   -4.5893   -0.4222    0.7982 C   0  0  0  0  0  0  0  0  0  0  0  0
  2  7  2  0  0  0  0
  3  4  1  0  0  0  0
  5 16  2  0  0  0  0
  6 14  1  0  0  0  0
  7  1  1  0  0  0  0
  8  7  1  1  0  0  0
  8  6  1  0  0  0  0
  9  8  1  0  0  0  0
  9 11  2  0  0  0  0
 10  9  1  0  0  0  0
 11 13  1  0  0  0  0
 12 11  1  0  0  0  0
 13 14  2  0  0  0  0
 13 16  1  0  0  0  0
 14 15  1  0  0  0  0
 16  3  1  0  0  0  0
M  CHG  1   1  -1
M  END
