1,2
q = -2.0, confidence = 0.94

 18 19  0  0  0  0  0  0  0  0999 V2000
    0.8590    2.3688    0.0440 O   0  5  0  0  0  0  0  0  0  0  0  0
   -0.6344    0.2954   -0.0507 N   0  0  0  0  0  0  0  0  0  0  0  0
   -0.6848   -1.9582   -0.6647 O   0  0  0  0  0  0  0  0  0  0  0  0
   -2.6241    1.5834    0.1474 N   0  0  0  0  0  0  0  0  0  0  0  0
   -0.8017    3.8152    0.3228 O   0  0  0  0  0  0  0  0  0  0  0  0
   -1.3261    1.4568    0.1091 C   0  0  0  0  0  0  0  0  0  0  0  0
   -1.2687   -0.9306   -0.3375 C   0  0  0  0  0  0  0  0  0  0  0  0
   -2.7496   -0.8372   -0.2097 C   0  0  0  0  0  3  0  0  0  0  0  0
   -3.5375   -1.9971   -0.3495 C   0  0  0  0  0  0  0  0  0  0  0  0
   -3.0260   -2.9504   -0.5460 H   0  0  0  0  0  0  0  0  0  0  0  0
   -0.4178    2.6634    0.1783 C   0  0  0  0  0  0  0  0  0  0  0  0
   -3.3666    0.4310    0.0301 C   0  0  0  0  0  0  0  0  0  0  0  0
   -4.9265   -1.9135   -0.2396 C   0  0  0  0  0  0  0  0  0  0  0  0
   -5.5418   -2.8194   -0.3455 H   0  0  0  0  0  0  0  0  0  0  0  0
   -4.7812    0.4934    0.1284 C   0  0  0  0  0  0  0  0  0  0  0  0
   -5.2395    1.4761    0.3086 H   0  0  0  0  0  0  0  0  0  0  0  0
   -5.5447   -0.6650   -0.0004 C   0  0  0  0  0  0  0  0  0  0  0  0
   -6.6408   -0.6058    0.0810 H   0  0  0  0  0  0  0  0  0  0  0  0
  1 11  1  0  0  0  0
  2  6  2  0  0  0  0
  3  7  2  0  0  0  0
  6  4  1  0  0  0  0
  6 11  1  0  0  0  0
  7  8  1  0  0  0  0
  7  2  1  0  0  0  0
  8 12  1  0  0  0  0
  9 13  2  0  0  0  0
  9  8  1  0  0  0  0
 10  9  1  0  0  0  0
 11  5  2  0  0  0  0
 12 15  1  0  0  0  0
 12  4  2  0  0  0  0
 13 17  1  0  0  0  0
 14 13  1  0  0  0  0
 15 16  1  0  0  0  0
 17 18  1  0  0  0  0
 17 15  2  0  0  0  0
M  CHG  1   1  -1
M  END
