30,31
q = -1.0

 31 32  0  0  0  0  0  0  0  0999 V2000
    3.8952   -1.9947   -2.3437 Br  0  0  0  0  0  0  0  0  0  0  0  0
    7.2045    1.6285    0.5653 Br  0  0  0  0  0  0  0  0  0  0  0  0
    2.8523    0.0987   -0.6913 C   0  0  0  0  0  0  0  0  0  0  0  0
    4.0674   -0.5087   -1.1742 C   0  0  0  0  0  0  0  0  0  0  0  0
    5.3356   -0.0689   -0.8082 C   0  0  0  0  0  0  0  0  0  0  0  0
    6.2274   -0.5741   -1.2034 H   0  0  0  0  0  0  0  0  0  0  0  0
    5.4658    1.0260    0.0759 C   0  0  0  0  0  0  0  0  0  0  0  0
    4.3353    1.6528    0.5817 C   0  0  0  0  0  0  0  0  0  0  0  0
    4.4394    2.5039    1.2711 H   0  0  0  0  0  0  0  0  0  0  0  0
    3.0305    1.2054    0.2310 C   0  0  0  0  0  0  0  0  0  0  0  0
    1.9319    1.9324    0.8283 C   0  0  0  0  0  3  0  0  0  0  0  0
    2.2281    2.8283    1.4188 H   0  0  0  0  0  0  0  0  0  0  0  0
   -0.3162    2.5472    1.3820 C   0  0  0  0  0  0  0  0  0  0  0  0
    0.2224    3.2644    2.0482 H   0  0  0  0  0  0  0  0  0  0  0  0
   -1.3056    1.7350    2.2352 C   0  0  0  0  0  0  0  0  0  0  0  0
   -0.7541    1.2142    3.0462 H   0  0  0  0  0  0  0  0  0  0  0  0
   -1.7505    0.9436    1.5938 H   0  0  0  0  0  0  0  0  0  0  0  0
   -2.4331    2.6079    2.7972 C   0  0  0  0  0  0  0  0  0  0  0  0
   -3.1403    1.9756    3.3729 H   0  0  0  0  0  0  0  0  0  0  0  0
   -2.0092    3.3412    3.5199 H   0  0  0  0  0  0  0  0  0  0  0  0
   -3.1634    3.3592    1.6774 C   0  0  0  0  0  0  0  0  0  0  0  0
   -3.6636    2.6253    1.0072 H   0  0  0  0  0  0  0  0  0  0  0  0
   -3.9658    3.9983    2.1004 H   0  0  0  0  0  0  0  0  0  0  0  0
   -2.1827    4.2038    0.8550 C   0  0  0  0  0  0  0  0  0  0  0  0
   -1.7617    5.0092    1.4987 H   0  0  0  0  0  0  0  0  0  0  0  0
   -2.7119    4.7100    0.0217 H   0  0  0  0  0  0  0  0  0  0  0  0
   -1.0460    3.3480    0.2849 C   0  0  0  0  0  0  0  0  0  0  0  0
   -1.4543    2.6268   -0.4550 H   0  0  0  0  0  0  0  0  0  0  0  0
   -0.3054    3.9755   -0.2538 H   0  0  0  0  0  0  0  0  0  0  0  0
    0.6613    1.6515    0.7610 N   0  0  0  0  0  2  0  0  0  0  0  0
    1.7082   -0.3674   -1.0766 O   0  5  0  0  0  0  0  0  0  0  0  0
  1  4  1  0  0  0  0
  3 10  1  0  0  0  0
  4  5  1  0  0  0  0
  4  3  2  0  0  0  0
  5  7  2  0  0  0  0
  6  5  1  0  0  0  0
  7  2  1  0  0  0  0
  7  8  1  0  0  0  0
  8  9  1  0  0  0  0
 10  8  2  0  0  0  0
 10 11  1  0  0  0  0
 11 12  1  0  0  0  0
 13 14  1  0  0  0  0
 13 15  1  0  0  0  0
 15 18  1  0  0  0  0
 15 16  1  0  0  0  0
 17 15  1  0  0  0  0
 18 19  1  0  0  0  0
 18 20  1  0  0  0  0
 21 23  1  0  0  0  0
 21 18  1  0  0  0  0
 22 21  1  0  0  0  0
 24 25  1  0  0  0  0
 24 21  1  0  0  0  0
 26 24  1  0  0  0  0
 27 24  1  0  0  0  0
 27 13  1  0  0  0  0
 28 27  1  0  0  0  0
 29 27  1  0  0  0  0
 30 11  1  0  0  0  0
 30 13  1  0  0  0  0
 31  3  1  0  0  0  0
M  CHG  1  31  -1
M  END
