1,3
q = -1.0, confidence = 0.0

 27 27  0  0  0  0  0  0  0  0999 V2000
    1.9398    0.5526    0.0001 O   0  5  0  0  0  0  0  0  0  0  0  0
    6.6930    0.2312   -0.0005 O   0  0  0  0  0  0  0  0  0  0  0  0
    0.4998   -1.9877    0.0002 N   0  0  0  0  0  2  0  0  0  0  0  0
   -0.4287   -3.0674    0.0004 N   0  0  0  0  0  0  0  0  0  0  0  0
    2.9522   -1.6574   -0.0002 C   0  0  0  0  0  0  0  0  0  0  0  0
    2.9942   -0.2179   -0.0001 C   0  0  0  0  0  0  0  0  0  0  0  0
    4.2667    0.4278   -0.0001 C   0  0  0  0  0  0  0  0  0  0  0  0
    5.4503   -0.3143   -0.0004 C   0  0  0  0  0  0  0  0  0  0  0  0
    5.4139   -1.7396   -0.0005 C   0  0  0  0  0  0  0  0  0  0  0  0
    4.1877   -2.3748   -0.0004 C   0  0  0  0  0  3  0  0  0  0  0  0
    1.7470   -2.4185    0.0001 C   0  0  0  0  0  0  0  0  0  0  0  0
   -1.1879   -3.1654   -1.2398 C   0  0  0  0  0  0  0  0  0  0  0  0
   -1.1879   -3.1651    1.2407 C   0  0  0  0  0  0  0  0  0  0  0  0
    6.8104    1.6425   -0.0001 C   0  0  0  0  0  0  0  0  0  0  0  0
    4.2630    1.5246   -0.0000 H   0  0  0  0  0  0  0  0  0  0  0  0
    6.3628   -2.2922   -0.0008 H   0  0  0  0  0  0  0  0  0  0  0  0
    4.1458   -3.4756   -0.0005 H   0  0  0  0  0  0  0  0  0  0  0  0
    1.8454   -3.5189    0.0001 H   0  0  0  0  0  0  0  0  0  0  0  0
   -1.8914   -2.3210   -1.4099 H   0  0  0  0  0  0  0  0  0  0  0  0
   -0.4813   -3.2209   -2.0918 H   0  0  0  0  0  0  0  0  0  0  0  0
   -1.7601   -4.1151   -1.2118 H   0  0  0  0  0  0  0  0  0  0  0  0
   -0.4813   -3.2196    2.0927 H   0  0  0  0  0  0  0  0  0  0  0  0
   -1.8919   -2.3209    1.4102 H   0  0  0  0  0  0  0  0  0  0  0  0
   -1.7595   -4.1151    1.2133 H   0  0  0  0  0  0  0  0  0  0  0  0
    6.3443    2.0943    0.9037 H   0  0  0  0  0  0  0  0  0  0  0  0
    7.8931    1.8667   -0.0001 H   0  0  0  0  0  0  0  0  0  0  0  0
    6.3443    2.0947   -0.9037 H   0  0  0  0  0  0  0  0  0  0  0  0
  2  8  1  0  0  0  0
  2 14  1  0  0  0  0
  3  4  1  0  0  0  0
  4 13  1  0  0  0  0
  5  6  1  0  0  0  0
  5 11  2  0  0  0  0
  6  1  1  0  0  0  0
  7  6  2  0  0  0  0
  7 15  1  0  0  0  0
  8  7  1  0  0  0  0
  9 10  1  0  0  0  0
  9  8  2  0  0  0  0
 10  5  1  0  0  0  0
 11 18  1  0  0  0  0
 11  3  1  0  0  0  0
 12 21  1  0  0  0  0
 12  4  1  0  0  0  0
 13 23  1  0  0  0  0
 13 22  1  0  0  0  0
 14 26  1  0  0  0  0
 14 25  1  0  0  0  0
 16  9  1  0  0  0  0
 17 10  1  0  0  0  0
 19 12  1  0  0  0  0
 20 12  1  0  0  0  0
 24 13  1  0  0  0  0
 27 14  1  0  0  0  0
M  CHG  1   1  -1
M  END
