1,2
q = -1.0

 23 23  0  0  0  0  0  0  0  0999 V2000
    1.7472   -1.0036    0.0004 O   0  5  0  0  0  0  0  0  0  0  0  0
    0.9638    1.8085    0.0005 N   0  0  0  0  0  2  0  0  0  0  0  0
    0.3227    3.0813    0.0011 N   0  0  0  0  0  0  0  0  0  0  0  0
    3.2669    0.8973   -0.0008 C   0  0  0  0  0  0  0  0  0  0  0  0
    2.9562   -0.5085   -0.0005 C   0  0  0  0  0  0  0  0  0  0  0  0
    4.0470   -1.4325   -0.0010 C   0  0  0  0  0  0  0  0  0  0  0  0
    5.3647   -0.9931   -0.0019 C   0  0  0  0  0  0  0  0  0  0  0  0
    5.6742    0.3902   -0.0023 C   0  0  0  0  0  0  0  0  0  0  0  0
    4.6335    1.3077   -0.0017 C   0  0  0  0  0  3  0  0  0  0  0  0
    2.2755    1.9285   -0.0002 C   0  0  0  0  0  0  0  0  0  0  0  0
   -0.3904    3.3592    1.2420 C   0  0  0  0  0  0  0  0  0  0  0  0
   -0.3905    3.3604   -1.2393 C   0  0  0  0  0  0  0  0  0  0  0  0
    3.8013   -2.5043   -0.0007 H   0  0  0  0  0  0  0  0  0  0  0  0
    6.1793   -1.7344   -0.0023 H   0  0  0  0  0  0  0  0  0  0  0  0
    6.7200    0.7285   -0.0029 H   0  0  0  0  0  0  0  0  0  0  0  0
    4.8478    2.3885   -0.0020 H   0  0  0  0  0  0  0  0  0  0  0  0
    2.6349    2.9731   -0.0001 H   0  0  0  0  0  0  0  0  0  0  0  0
    0.3062    3.2327    2.0945 H   0  0  0  0  0  0  0  0  0  0  0  0
   -1.2836    2.7180    1.4067 H   0  0  0  0  0  0  0  0  0  0  0  0
   -0.7064    4.4219    1.2172 H   0  0  0  0  0  0  0  0  0  0  0  0
    0.3061    3.2354   -2.0921 H   0  0  0  0  0  0  0  0  0  0  0  0
   -0.7071    4.4229   -1.2133 H   0  0  0  0  0  0  0  0  0  0  0  0
   -1.2834    2.7190   -1.4049 H   0  0  0  0  0  0  0  0  0  0  0  0
  2  3  1  0  0  0  0
  3 11  1  0  0  0  0
  4  5  1  0  0  0  0
  4 10  2  0  0  0  0
  5  1  1  0  0  0  0
  6 13  1  0  0  0  0
  6  5  2  0  0  0  0
  7  6  1  0  0  0  0
  8  7  2  0  0  0  0
  8  9  1  0  0  0  0
  9  4  1  0  0  0  0
 10 17  1  0  0  0  0
 10  2  1  0  0  0  0
 11 19  1  0  0  0  0
 11 18  1  0  0  0  0
 12 22  1  0  0  0  0
 12  3  1  0  0  0  0
 14  7  1  0  0  0  0
 15  8  1  0  0  0  0
 16  9  1  0  0  0  0
 20 11  1  0  0  0  0
 21 12  1  0  0  0  0
 23 12  1  0  0  0  0
M  CHG  1   1  -1
M  END
