1,2
q = -1.0

 20 20  0  0  1  0  0  0  0  0999 V2000
    1.6500    1.1555   -0.1286 O   0  0  0  0  0  1  0  0  0  0  0  0
    1.0660   -1.7229   -0.1226 N   0  0  0  0  0  2  0  0  0  0  0  0
    0.3271   -2.8572   -0.2593 N   0  0  0  0  0  0  0  0  0  0  0  0
    3.2936   -0.6479   -0.0183 C   0  0  0  0  0  0  0  0  0  0  0  0
    2.9035    0.7350   -0.0637 C   0  0  1  0  0  3  0  0  0  0  0  0
    3.9238    1.7247   -0.0483 C   0  0  0  0  0  0  0  0  0  0  0  0
    5.2732    1.3827    0.0223 C   0  0  0  0  0  0  0  0  0  0  0  0
    5.6646    0.0287    0.0759 C   0  0  0  0  0  0  0  0  0  0  0  0
    4.6806   -0.9564    0.0526 C   0  0  0  0  0  0  0  0  0  0  0  0
    2.3811   -1.7673   -0.0684 C   0  0  0  0  0  0  0  0  0  0  0  0
    0.8633   -4.1371    0.1161 C   0  0  0  0  0  0  0  0  0  0  0  0
   -0.6638   -2.6386   -0.0553 H   0  0  0  0  0  0  0  0  0  0  0  0
    3.6071    2.7774   -0.0899 H   0  0  0  0  0  0  0  0  0  0  0  0
    6.0331    2.1792    0.0372 H   0  0  0  0  0  0  0  0  0  0  0  0
    6.7274   -0.2470    0.1321 H   0  0  0  0  0  0  0  0  0  0  0  0
    4.9712   -2.0189    0.0863 H   0  0  0  0  0  0  0  0  0  0  0  0
    2.8524   -2.7628   -0.0984 H   0  0  0  0  0  0  0  0  0  0  0  0
    1.3303   -4.1349    1.1322 H   0  0  0  0  0  0  0  0  0  0  0  0
    0.0309   -4.8651    0.1108 H   0  0  0  0  0  0  0  0  0  0  0  0
    1.6277   -4.4999   -0.6064 H   0  0  0  0  0  0  0  0  0  0  0  0
  2 10  1  0  0  0  0
  3  2  1  0  0  0  0
  3 12  1  0  0  0  0
  3 11  1  0  0  0  0
  4  9  1  0  0  0  0
  5  1  1  6  0  0  0
  5  6  1  0  0  0  0
  5  4  1  0  0  0  0
  6  7  2  0  0  0  0
  7 14  1  0  0  0  0
  7  8  1  0  0  0  0
  8 15  1  0  0  0  0
  9  8  2  0  0  0  0
  9 16  1  0  0  0  0
 10  4  2  0  0  0  0
 11 18  1  0  0  0  0
 13  6  1  0  0  0  0
 17 10  1  0  0  0  0
 19 11  1  0  0  0  0
 20 11  1  0  0  0  0
M  END
