1,3
q = -1.0

 24 24  0  0  1  0  0  0  0  0999 V2000
   -1.9058   -0.6568   -0.1271 O   0  0  0  0  0  1  0  0  0  0  0  0
   -6.6766   -0.4846    0.0436 O   0  0  0  0  0  0  0  0  0  0  0  0
   -0.5507    1.9484   -0.1394 N   0  0  0  0  0  2  0  0  0  0  0  0
    0.4717    2.8451   -0.2895 N   0  0  0  0  0  0  0  0  0  0  0  0
   -2.9851    1.5277   -0.0290 C   0  0  0  0  0  0  0  0  0  0  0  0
   -2.9943    0.0918   -0.0667 C   0  0  1  0  0  3  0  0  0  0  0  0
   -4.2405   -0.5913   -0.0492 C   0  0  0  0  0  0  0  0  0  0  0  0
   -5.4520    0.1082    0.0169 C   0  0  0  0  0  0  0  0  0  0  0  0
   -5.4533    1.5257    0.0631 C   0  0  0  0  0  0  0  0  0  0  0  0
   -4.2406    2.1969    0.0375 C   0  0  0  0  0  0  0  0  0  0  0  0
   -1.8036    2.3509   -0.0860 C   0  0  0  0  0  0  0  0  0  0  0  0
    0.3112    4.2037    0.1589 C   0  0  0  0  0  0  0  0  0  0  0  0
   -6.7419   -1.8963   -0.0031 C   0  0  0  0  0  0  0  0  0  0  0  0
    1.3586    2.3609   -0.0697 H   0  0  0  0  0  0  0  0  0  0  0  0
   -4.2040   -1.6873   -0.0838 H   0  0  0  0  0  0  0  0  0  0  0  0
   -6.4138    2.0555    0.1143 H   0  0  0  0  0  0  0  0  0  0  0  0
   -4.2375    3.2984    0.0658 H   0  0  0  0  0  0  0  0  0  0  0  0
   -1.9841    3.4376   -0.1242 H   0  0  0  0  0  0  0  0  0  0  0  0
   -0.1217    4.2792    1.1877 H   0  0  0  0  0  0  0  0  0  0  0  0
    1.3106    4.6780    0.1593 H   0  0  0  0  0  0  0  0  0  0  0  0
   -0.3353    4.7980   -0.5239 H   0  0  0  0  0  0  0  0  0  0  0  0
   -7.8148   -2.1626    0.0271 H   0  0  0  0  0  0  0  0  0  0  0  0
   -6.2941   -2.3014   -0.9385 H   0  0  0  0  0  0  0  0  0  0  0  0
   -6.2278   -2.3641    0.8667 H   0  0  0  0  0  0  0  0  0  0  0  0
  3 11  1  0  0  0  0
  4  3  1  0  0  0  0
  4 14  1  0  0  0  0
  4 12  1  0  0  0  0
  5 10  1  0  0  0  0
  6  1  1  6  0  0  0
  6  7  1  0  0  0  0
  6  5  1  0  0  0  0
  7  8  2  0  0  0  0
  8  2  1  0  0  0  0
  8  9  1  0  0  0  0
  9 16  1  0  0  0  0
 10  9  2  0  0  0  0
 10 17  1  0  0  0  0
 11  5  2  0  0  0  0
 12 20  1  0  0  0  0
 12 19  1  0  0  0  0
 13 22  1  0  0  0  0
 13  2  1  0  0  0  0
 13 24  1  0  0  0  0
 15  7  1  0  0  0  0
 18 11  1  0  0  0  0
 21 12  1  0  0  0  0
 23 13  1  0  0  0  0
M  END
