1,4
q = -1.0, confidence = 0.0

 31 31  0  0  0  0  0  0  0  0999 V2000
   -0.6394   -1.9179   -0.7739 O   0  0  0  0  0  1  0  0  0  0  0  0
    0.4431   -2.7293   -0.7768 N   0  0  0  0  0  0  0  0  0  0  0  0
    1.6528   -2.2943   -0.7608 N   0  0  0  0  0  2  0  0  0  0  0  0
    1.7404   -0.9915   -0.6760 N   0  0  0  0  0  2  0  0  0  0  0  0
    3.0579   -0.4476   -0.6662 C   0  0  0  0  0  0  0  0  0  0  0  0
    3.6928    0.0094    0.5249 C   0  0  0  0  0  0  0  0  0  0  0  0
    4.9777    0.5759    0.3563 C   0  0  0  0  0  0  0  0  0  0  0  0
    5.6131    0.6791   -0.8879 C   0  0  0  0  0  0  0  0  0  0  0  0
    4.9734    0.2077   -2.0418 C   0  0  0  0  0  0  0  0  0  0  0  0
    3.6971   -0.3468   -1.9193 C   0  0  0  0  0  0  0  0  0  0  0  0
    3.0642   -0.0145    1.9403 C   0  0  0  0  0  0  0  0  0  0  0  0
    4.1616   -0.1036    3.0261 C   0  0  0  0  0  0  0  0  0  0  0  0
    2.1079   -1.2056    2.1835 C   0  0  0  0  0  0  0  0  0  0  0  0
    2.2827    1.3064    2.1380 C   0  0  0  0  0  0  0  0  0  0  0  0
    0.1586   -4.1452   -0.8677 C   0  0  0  0  0  0  0  0  0  0  0  0
   -0.4840   -4.4428   -0.0152 H   0  0  0  0  0  0  0  0  0  0  0  0
   -0.3831   -4.3566   -1.8122 H   0  0  0  0  0  0  0  0  0  0  0  0
    5.5121    0.9525    1.2380 H   0  0  0  0  0  0  0  0  0  0  0  0
    6.6152    1.1300   -0.9499 H   0  0  0  0  0  0  0  0  0  0  0  0
    5.4582    0.2773   -3.0271 H   0  0  0  0  0  0  0  0  0  0  0  0
    3.1492   -0.7113   -2.8004 H   0  0  0  0  0  0  0  0  0  0  0  0
    4.8048   -0.9959    2.8838 H   0  0  0  0  0  0  0  0  0  0  0  0
    4.8131    0.7913    3.0572 H   0  0  0  0  0  0  0  0  0  0  0  0
    3.6828   -0.1827    4.0226 H   0  0  0  0  0  0  0  0  0  0  0  0
    1.1538   -1.0944    1.6379 H   0  0  0  0  0  0  0  0  0  0  0  0
    2.5678   -2.1697    1.8878 H   0  0  0  0  0  0  0  0  0  0  0  0
    1.8668   -1.2577    3.2651 H   0  0  0  0  0  0  0  0  0  0  0  0
    1.5085    1.4325    1.3565 H   0  0  0  0  0  0  0  0  0  0  0  0
    1.7914    1.3174    3.1337 H   0  0  0  0  0  0  0  0  0  0  0  0
    2.9647    2.1791    2.0781 H   0  0  0  0  0  0  0  0  0  0  0  0
    1.1147   -4.6946   -0.8404 H   0  0  0  0  0  0  0  0  0  0  0  0
  2  1  1  0  0  0  0
  2  3  1  0  0  0  0
  3  4  1  0  0  0  0
  4  5  1  0  0  0  0
  5  6  1  0  0  0  0
  6 11  1  0  0  0  0
  7  6  2  0  0  0  0
  7 18  1  0  0  0  0
  8  7  1  0  0  0  0
  9 10  1  0  0  0  0
  9  8  2  0  0  0  0
 10  5  2  0  0  0  0
 11 14  1  0  0  0  0
 11 13  1  0  0  0  0
 11 12  1  0  0  0  0
 12 23  1  0  0  0  0
 12 24  1  0  0  0  0
 13 27  1  0  0  0  0
 14 29  1  0  0  0  0
 15 31  1  0  0  0  0
 15  2  1  0  0  0  0
 15 16  1  0  0  0  0
 17 15  1  0  0  0  0
 19  8  1  0  0  0  0
 20  9  1  0  0  0  0
 21 10  1  0  0  0  0
 22 12  1  0  0  0  0
 25 13  1  0  0  0  0
 26 13  1  0  0  0  0
 28 14  1  0  0  0  0
 30 14  1  0  0  0  0
M  END
