1,4
q = -1.0

 31 31  0  0  0  0  0  0  0  0999 V2000
    0.7296    1.8766    0.0515 O   0  0  0  0  0  1  0  0  0  0  0  0
   -0.2881    2.7584    0.0163 N   0  0  0  0  0  0  0  0  0  0  0  0
   -1.5129    2.3977   -0.0554 N   0  0  0  0  0  2  0  0  0  0  0  0
   -1.7010    1.0981   -0.0905 N   0  0  0  0  0  2  0  0  0  0  0  0
   -3.0502    0.6828   -0.0560 C   0  0  0  0  0  0  0  0  0  0  0  0
   -3.3952   -0.5933   -0.5490 C   0  0  0  0  0  0  0  0  0  0  0  0
   -4.7277   -1.0190   -0.5260 C   0  0  0  0  0  0  0  0  0  0  0  0
   -5.7610   -0.2010   -0.0244 C   0  0  0  0  0  0  0  0  0  0  0  0
   -5.4006    1.0752    0.4566 C   0  0  0  0  0  0  0  0  0  0  0  0
   -4.0732    1.5157    0.4521 C   0  0  0  0  0  0  0  0  0  0  0  0
   -3.8120    2.5095    0.8399 H   0  0  0  0  0  0  0  0  0  0  0  0
   -6.1828    1.7413    0.8555 H   0  0  0  0  0  0  0  0  0  0  0  0
   -7.1882   -0.6846    0.0271 C   0  0  0  0  0  0  0  0  0  0  0  0
   -7.3912   -1.2464    0.9652 H   0  0  0  0  0  0  0  0  0  0  0  0
   -7.9075    0.1576   -0.0085 H   0  0  0  0  0  0  0  0  0  0  0  0
   -7.4183   -1.3686   -0.8143 H   0  0  0  0  0  0  0  0  0  0  0  0
   -4.9747   -2.0180   -0.9210 H   0  0  0  0  0  0  0  0  0  0  0  0
   -2.6058   -1.2427   -0.9487 H   0  0  0  0  0  0  0  0  0  0  0  0
    0.1216    4.1890   -0.1016 C   0  0  0  0  0  0  0  0  0  0  0  0
    1.0714    4.4924    1.0691 C   0  0  0  0  0  0  0  0  0  0  0  0
    1.9616    3.8373    1.0327 H   0  0  0  0  0  0  0  0  0  0  0  0
    1.4042    5.5470    1.0106 H   0  0  0  0  0  0  0  0  0  0  0  0
    0.5599    4.3392    2.0399 H   0  0  0  0  0  0  0  0  0  0  0  0
   -1.1232    5.0776   -0.0364 C   0  0  0  0  0  0  0  0  0  0  0  0
   -0.8028    6.1356   -0.1070 H   0  0  0  0  0  0  0  0  0  0  0  0
   -1.8210    4.8609   -0.8660 H   0  0  0  0  0  0  0  0  0  0  0  0
   -1.6681    4.9376    0.9167 H   0  0  0  0  0  0  0  0  0  0  0  0
    0.8463    4.3450   -1.4503 C   0  0  0  0  0  0  0  0  0  0  0  0
    0.1584    4.1215   -2.2897 H   0  0  0  0  0  0  0  0  0  0  0  0
    1.2115    5.3846   -1.5625 H   0  0  0  0  0  0  0  0  0  0  0  0
    1.7077    3.6532   -1.5061 H   0  0  0  0  0  0  0  0  0  0  0  0
  2  1  1  0  0  0  0
  3  2  1  0  0  0  0
  4  5  1  0  0  0  0
  4  3  1  0  0  0  0
  5 10  1  0  0  0  0
  6  7  1  0  0  0  0
  6  5  2  0  0  0  0
  7  8  2  0  0  0  0
  8 13  1  0  0  0  0
  8  9  1  0  0  0  0
  9 12  1  0  0  0  0
 10  9  2  0  0  0  0
 10 11  1  0  0  0  0
 13 14  1  0  0  0  0
 15 13  1  0  0  0  0
 16 13  1  0  0  0  0
 17  7  1  0  0  0  0
 18  6  1  0  0  0  0
 19 24  1  0  0  0  0
 19  2  1  0  0  0  0
 19 20  1  0  0  0  0
 20 23  1  0  0  0  0
 21 20  1  0  0  0  0
 22 20  1  0  0  0  0
 24 27  1  0  0  0  0
 25 24  1  0  0  0  0
 26 24  1  0  0  0  0
 28 19  1  0  0  0  0
 29 28  1  0  0  0  0
 30 28  1  0  0  0  0
 31 28  1  0  0  0  0
M  END
