1,4
q = -1.0

 34 34  0  0  0  0  0  0  0  0999 V2000
    0.1408    2.0105    0.0084 O   0  0  0  0  0  1  0  0  0  0  0  0
   -1.0823    2.5410   -0.1941 N   0  0  0  0  0  0  0  0  0  0  0  0
   -2.1332    1.8260   -0.3533 N   0  0  0  0  0  2  0  0  0  0  0  0
   -1.9148    0.5314   -0.3034 N   0  0  0  0  0  2  0  0  0  0  0  0
   -3.0450   -0.3143   -0.3982 C   0  0  0  0  0  0  0  0  0  0  0  0
   -4.2401   -0.0744    0.3360 C   0  0  0  0  0  0  0  0  0  0  0  0
   -5.3373   -0.9572    0.1447 C   0  0  0  0  0  0  0  0  0  0  0  0
   -5.2055   -2.0659   -0.7127 C   0  0  0  0  0  0  0  0  0  0  0  0
   -6.0638   -2.7431   -0.8450 H   0  0  0  0  0  0  0  0  0  0  0  0
   -4.0019   -2.3203   -1.3857 C   0  0  0  0  0  0  0  0  0  0  0  0
   -3.9095   -3.1967   -2.0452 H   0  0  0  0  0  0  0  0  0  0  0  0
   -2.9256   -1.4448   -1.2340 C   0  0  0  0  0  0  0  0  0  0  0  0
   -1.9728   -1.6101   -1.7555 H   0  0  0  0  0  0  0  0  0  0  0  0
   -4.3442    1.0600    1.3244 C   0  0  0  0  0  0  0  0  0  0  0  0
   -5.0157    0.7973    2.1643 H   0  0  0  0  0  0  0  0  0  0  0  0
   -4.7453    1.9854    0.8588 H   0  0  0  0  0  0  0  0  0  0  0  0
   -3.3553    1.3202    1.7455 H   0  0  0  0  0  0  0  0  0  0  0  0
   -6.6431   -0.7267    0.8671 C   0  0  0  0  0  0  0  0  0  0  0  0
   -7.0479    0.2893    0.6777 H   0  0  0  0  0  0  0  0  0  0  0  0
   -6.5293   -0.8198    1.9686 H   0  0  0  0  0  0  0  0  0  0  0  0
   -7.4076   -1.4612    0.5493 H   0  0  0  0  0  0  0  0  0  0  0  0
   -1.1111    4.0266   -0.3211 C   0  0  0  0  0  0  0  0  0  0  0  0
   -2.5617    4.4952   -0.4598 C   0  0  0  0  0  0  0  0  0  0  0  0
   -2.5681    5.6003   -0.5354 H   0  0  0  0  0  0  0  0  0  0  0  0
   -3.1669    4.1979    0.4179 H   0  0  0  0  0  0  0  0  0  0  0  0
   -3.0395    4.0739   -1.3635 H   0  0  0  0  0  0  0  0  0  0  0  0
   -0.4663    4.6047    0.9503 C   0  0  0  0  0  0  0  0  0  0  0  0
   -0.4416    5.7099    0.8849 H   0  0  0  0  0  0  0  0  0  0  0  0
    0.5672    4.2287    1.0664 H   0  0  0  0  0  0  0  0  0  0  0  0
   -1.0490    4.3195    1.8488 H   0  0  0  0  0  0  0  0  0  0  0  0
   -0.2871    4.3943   -1.5677 C   0  0  0  0  0  0  0  0  0  0  0  0
   -0.2390    5.4956   -1.6756 H   0  0  0  0  0  0  0  0  0  0  0  0
   -0.7523    3.9715   -2.4801 H   0  0  0  0  0  0  0  0  0  0  0  0
    0.7413    3.9964   -1.4789 H   0  0  0  0  0  0  0  0  0  0  0  0
  2  1  1  0  0  0  0
  3  4  1  0  0  0  0
  3  2  1  0  0  0  0
  5  4  1  0  0  0  0
  5  6  1  0  0  0  0
  6 14  1  0  0  0  0
  7  6  2  0  0  0  0
  7 18  1  0  0  0  0
  8  7  1  0  0  0  0
  9  8  1  0  0  0  0
 10 12  1  0  0  0  0
 10  8  2  0  0  0  0
 11 10  1  0  0  0  0
 12  5  2  0  0  0  0
 13 12  1  0  0  0  0
 14 17  1  0  0  0  0
 14 15  1  0  0  0  0
 16 14  1  0  0  0  0
 18 20  1  0  0  0  0
 19 18  1  0  0  0  0
 21 18  1  0  0  0  0
 22  2  1  0  0  0  0
 22 27  1  0  0  0  0
 23 22  1  0  0  0  0
 23 25  1  0  0  0  0
 24 23  1  0  0  0  0
 26 23  1  0  0  0  0
 27 29  1  0  0  0  0
 27 30  1  0  0  0  0
 28 27  1  0  0  0  0
 31 34  1  0  0  0  0
 31 22  1  0  0  0  0
 32 31  1  0  0  0  0
 33 31  1  0  0  0  0
M  END
