1,4
q = -1.0

 25 25  0  0  0  0  0  0  0  0999 V2000
   -3.2678    1.4567   -0.1979 O   0  0  0  0  0  1  0  0  0  0  0  0
   -2.6040    2.6153   -0.2857 N   0  0  0  0  0  0  0  0  0  0  0  0
   -1.3242    2.6972   -0.3340 N   0  0  0  0  0  2  0  0  0  0  0  0
   -0.7101    1.5336   -0.2875 N   0  0  0  0  0  2  0  0  0  0  0  0
    0.7042    1.6005   -0.3698 C   0  0  0  0  0  0  0  0  0  0  0  0
    1.4716    2.3680    0.5475 C   0  0  0  0  0  0  0  0  0  0  0  0
    2.8692    2.3631    0.3942 C   0  0  0  0  0  0  0  0  0  0  0  0
    3.4723    2.9520    1.1054 H   0  0  0  0  0  0  0  0  0  0  0  0
    3.5270    1.6331   -0.6154 C   0  0  0  0  0  0  0  0  0  0  0  0
    2.7382    0.8794   -1.5044 C   0  0  0  0  0  0  0  0  0  0  0  0
    3.2200    0.2916   -2.3007 H   0  0  0  0  0  0  0  0  0  0  0  0
    1.3461    0.8608   -1.3797 C   0  0  0  0  0  0  0  0  0  0  0  0
    0.7246    0.2725   -2.0694 H   0  0  0  0  0  0  0  0  0  0  0  0
    0.8257    3.1598    1.6541 C   0  0  0  0  0  0  0  0  0  0  0  0
    1.5708    3.4441    2.4221 H   0  0  0  0  0  0  0  0  0  0  0  0
    0.0164    2.5828    2.1458 H   0  0  0  0  0  0  0  0  0  0  0  0
    0.3548    4.0873    1.2688 H   0  0  0  0  0  0  0  0  0  0  0  0
    5.0319    1.6390   -0.7079 C   0  0  0  0  0  0  0  0  0  0  0  0
    5.4431    2.6668   -0.6379 H   0  0  0  0  0  0  0  0  0  0  0  0
    5.3836    1.1936   -1.6589 H   0  0  0  0  0  0  0  0  0  0  0  0
    5.4859    1.0536    0.1202 H   0  0  0  0  0  0  0  0  0  0  0  0
   -3.4234    3.8068   -0.3789 C   0  0  0  0  0  0  0  0  0  0  0  0
   -2.7598    4.6843   -0.4567 H   0  0  0  0  0  0  0  0  0  0  0  0
   -4.0646    3.8819    0.5221 H   0  0  0  0  0  0  0  0  0  0  0  0
   -4.0746    3.7311   -1.2730 H   0  0  0  0  0  0  0  0  0  0  0  0
  2  1  1  0  0  0  0
  3  4  1  0  0  0  0
  3  2  1  0  0  0  0
  5  4  1  0  0  0  0
  5  6  1  0  0  0  0
  6 14  1  0  0  0  0
  7  6  2  0  0  0  0
  7  8  1  0  0  0  0
  9  7  1  0  0  0  0
 10 12  1  0  0  0  0
 10  9  2  0  0  0  0
 11 10  1  0  0  0  0
 12  5  2  0  0  0  0
 13 12  1  0  0  0  0
 14 16  1  0  0  0  0
 14 15  1  0  0  0  0
 17 14  1  0  0  0  0
 18 19  1  0  0  0  0
 18  9  1  0  0  0  0
 18 21  1  0  0  0  0
 20 18  1  0  0  0  0
 22  2  1  0  0  0  0
 22 24  1  0  0  0  0
 23 22  1  0  0  0  0
 25 22  1  0  0  0  0
M  END
