1,3
q = -1.0

 41 44  0  0  1  0  0  0  0  0999 V2000
   -1.5999    1.8535   -1.0429 O   0  5  0  0  0  0  0  0  0  0  0  0
   -5.8450    0.6286    0.8427 O   0  0  0  0  0  0  0  0  0  0  0  0
   -1.3621    0.1457    1.3082 N   0  0  0  0  0  2  0  0  0  0  0  0
   -3.1489   -1.0488    1.9427 N   0  0  0  0  0  0  0  0  0  0  0  0
   -2.8294    1.6668   -0.7549 C   0  0  0  0  0  0  0  0  0  0  0  0
   -3.8881    2.3837   -1.5200 C   0  0  0  0  0  0  0  0  0  0  0  0
   -3.7811    3.2742   -2.5884 C   0  0  0  0  0  0  0  0  0  0  0  0
   -2.7965    3.5418   -2.9993 H   0  0  0  0  0  0  0  0  0  0  0  0
   -4.9767    3.8118   -3.1122 C   0  0  0  0  0  0  0  0  0  0  0  0
   -4.9317    4.5167   -3.9564 H   0  0  0  0  0  0  0  0  0  0  0  0
   -6.2264    3.4626   -2.5700 C   0  0  0  0  0  0  0  0  0  0  0  0
   -7.1420    3.8992   -2.9974 H   0  0  0  0  0  0  0  0  0  0  0  0
   -6.3200    2.5628   -1.4853 C   0  0  0  0  0  0  0  0  0  0  0  0
   -7.2873    2.2796   -1.0439 H   0  0  0  0  0  0  0  0  0  0  0  0
   -5.1354    2.0340   -0.9802 C   0  0  0  0  0  0  0  0  0  0  0  0
   -4.9178    1.0671    0.1535 C   0  0  0  0  0  0  0  0  0  0  0  0
   -3.4579    0.8309    0.2349 C   0  0  0  0  0  0  0  0  0  0  0  0
   -2.7052   -0.0009    1.1461 C   0  0  2  0  0  3  0  0  0  0  0  0
   -2.0474   -1.5752    2.6155 C   0  0  0  0  0  0  0  0  0  0  0  0
   -1.9236   -2.6363    3.5252 C   0  0  0  0  0  0  0  0  0  0  0  0
   -2.7898   -3.2338    3.8419 H   0  0  0  0  0  0  0  0  0  0  0  0
   -0.6361   -2.9099    4.0122 C   0  0  0  0  0  0  0  0  0  0  0  0
   -0.4979   -3.7356    4.7259 H   0  0  0  0  0  0  0  0  0  0  0  0
    0.4860   -2.1510    3.6059 C   0  0  0  0  0  0  0  0  0  0  0  0
    1.4778   -2.3974    4.0129 H   0  0  0  0  0  0  0  0  0  0  0  0
    0.3596   -1.0909    2.6983 C   0  0  0  0  0  0  0  0  0  0  0  0
    1.2267   -0.4916    2.3836 H   0  0  0  0  0  0  0  0  0  0  0  0
   -0.9265   -0.8124    2.2040 C   0  0  0  0  0  0  0  0  0  0  0  0
   -4.4596   -1.7008    1.9924 C   0  0  0  0  0  0  0  0  0  0  0  0
   -5.2212   -0.9452    1.7203 H   0  0  0  0  0  0  0  0  0  0  0  0
   -4.6326   -1.9866    3.0497 H   0  0  0  0  0  0  0  0  0  0  0  0
   -4.5435   -2.9343    1.0849 C   0  0  0  0  0  0  0  0  0  0  0  0
   -3.7527   -3.6654    1.3654 H   0  0  0  0  0  0  0  0  0  0  0  0
   -5.5139   -3.4340    1.2984 H   0  0  0  0  0  0  0  0  0  0  0  0
   -4.4468   -2.6217   -0.4113 C   0  0  0  0  0  0  0  0  0  0  0  0
   -3.4907   -2.0923   -0.6121 H   0  0  0  0  0  0  0  0  0  0  0  0
   -5.2522   -1.9069   -0.6859 H   0  0  0  0  0  0  0  0  0  0  0  0
   -4.5287   -3.8706   -1.2889 C   0  0  0  0  0  0  0  0  0  0  0  0
   -4.4419   -3.6202   -2.3655 H   0  0  0  0  0  0  0  0  0  0  0  0
   -5.4919   -4.4041   -1.1476 H   0  0  0  0  0  0  0  0  0  0  0  0
   -3.7172   -4.5875   -1.0431 H   0  0  0  0  0  0  0  0  0  0  0  0
  1  5  1  0  0  0  0
  3 28  1  0  0  0  0
  4 29  1  0  0  0  0
  4 19  1  0  0  0  0
  5 17  2  0  0  0  0
  6 15  1  0  0  0  0
  6  5  1  0  0  0  0
  7  6  2  0  0  0  0
  8  7  1  0  0  0  0
  9  7  1  0  0  0  0
  9 11  2  0  0  0  0
 10  9  1  0  0  0  0
 11 13  1  0  0  0  0
 12 11  1  0  0  0  0
 13 14  1  0  0  0  0
 13 15  2  0  0  0  0
 15 16  1  0  0  0  0
 16 17  1  0  0  0  0
 16  2  2  0  0  0  0
 18 17  1  6  0  0  0
 18  3  1  0  0  0  0
 18  4  1  0  0  0  0
 19 20  1  0  0  0  0
 20 21  1  0  0  0  0
 20 22  2  0  0  0  0
 22 23  1  0  0  0  0
 24 22  1  0  0  0  0
 24 25  1  0  0  0  0
 26 24  2  0  0  0  0
 27 26  1  0  0  0  0
 28 19  2  0  0  0  0
 28 26  1  0  0  0  0
 29 31  1  0  0  0  0
 30 29  1  0  0  0  0
 32 34  1  0  0  0  0
 32 33  1  0  0  0  0
 32 29  1  0  0  0  0
 35 32  1  0  0  0  0
 36 35  1  0  0  0  0
 37 35  1  0  0  0  0
 38 40  1  0  0  0  0
 38 41  1  0  0  0  0
 38 35  1  0  0  0  0
 39 38  1  0  0  0  0
M  CHG  1   1  -1
M  END
