1,2
q = -1.0

 41 42  0  0  1  0  0  0  0  0999 V2000
    0.3336   -1.7633    0.6986 N   0  0  0  0  0  2  0  0  0  0  0  0
    1.8046    0.4171   -0.0420 O   0  0  0  0  0  1  0  0  0  0  0  0
   -0.5186   -4.3533   -0.4412 O   0  0  0  0  0  0  0  0  0  0  0  0
   -2.7217   -3.8169    0.1765 O   0  0  0  0  0  0  0  0  0  0  0  0
    3.9507   -2.5049    0.5798 C   0  0  0  0  0  0  0  0  0  0  0  0
    2.7796   -1.7370    0.4588 C   0  0  0  0  0  0  0  0  0  0  0  0
    2.8654   -0.3344    0.1065 C   0  0  2  0  0  3  0  0  0  0  0  0
    4.1439    0.2336   -0.0658 C   0  0  0  0  0  0  0  0  0  0  0  0
    6.6245    0.0281   -0.1346 C   0  0  0  0  0  0  0  0  0  0  0  0
    7.7630   -0.7506   -0.0180 C   0  0  0  0  0  0  0  0  0  0  0  0
    7.6703   -2.1395    0.2947 C   0  0  0  0  0  0  0  0  0  0  0  0
    6.4296   -2.7212    0.4868 C   0  0  0  0  0  0  0  0  0  0  0  0
    5.2312   -1.9497    0.3745 C   0  0  0  0  0  0  0  0  0  0  0  0
    5.3221   -0.5363    0.0529 C   0  0  0  0  0  0  0  0  0  0  0  0
    1.5119   -2.3372    0.7573 C   0  0  0  0  0  0  0  0  0  0  0  0
   -0.7952   -2.6000    1.1162 C   0  0  0  0  0  0  0  0  0  0  0  0
   -1.4208   -3.3324   -0.0808 C   0  0  0  0  0  0  0  0  0  0  0  0
   -0.7255   -4.8769   -1.7524 C   0  0  0  0  0  0  0  0  0  0  0  0
    0.2886   -5.9769   -1.9986 C   0  0  0  0  0  0  0  0  0  0  0  0
   -2.8455   -4.7364    1.2631 C   0  0  0  0  0  0  0  0  0  0  0  0
   -4.1854   -5.4383    1.1385 C   0  0  0  0  0  0  0  0  0  0  0  0
    3.8646   -3.5701    0.8506 H   0  0  0  0  0  0  0  0  0  0  0  0
    4.1985    1.3097   -0.2912 H   0  0  0  0  0  0  0  0  0  0  0  0
    6.7024    1.0996   -0.3758 H   0  0  0  0  0  0  0  0  0  0  0  0
    8.7543   -0.2953   -0.1672 H   0  0  0  0  0  0  0  0  0  0  0  0
    8.5865   -2.7421    0.3832 H   0  0  0  0  0  0  0  0  0  0  0  0
    6.3445   -3.7920    0.7310 H   0  0  0  0  0  0  0  0  0  0  0  0
    1.5425   -3.3911    1.0943 H   0  0  0  0  0  0  0  0  0  0  0  0
   -0.4458   -3.3494    1.8555 H   0  0  0  0  0  0  0  0  0  0  0  0
   -1.5696   -1.9608    1.5705 H   0  0  0  0  0  0  0  0  0  0  0  0
   -1.5577   -2.6083   -0.9126 H   0  0  0  0  0  0  0  0  0  0  0  0
   -1.7671   -5.2613   -1.8444 H   0  0  0  0  0  0  0  0  0  0  0  0
   -0.6139   -4.0561   -2.5016 H   0  0  0  0  0  0  0  0  0  0  0  0
    0.1665   -6.3978   -3.0162 H   0  0  0  0  0  0  0  0  0  0  0  0
    0.1641   -6.7984   -1.2649 H   0  0  0  0  0  0  0  0  0  0  0  0
    1.3214   -5.5851   -1.9049 H   0  0  0  0  0  0  0  0  0  0  0  0
   -2.0084   -5.4701    1.2324 H   0  0  0  0  0  0  0  0  0  0  0  0
   -2.7833   -4.1968    2.2382 H   0  0  0  0  0  0  0  0  0  0  0  0
   -4.2464   -6.0010    0.1857 H   0  0  0  0  0  0  0  0  0  0  0  0
   -5.0156   -4.7039    1.1552 H   0  0  0  0  0  0  0  0  0  0  0  0
   -4.3329   -6.1486    1.9764 H   0  0  0  0  0  0  0  0  0  0  0  0
  1 15  1  0  0  0  0
  1 16  1  0  0  0  0
  3 17  1  0  0  0  0
  4 20  1  0  0  0  0
  5 22  1  0  0  0  0
  6  5  1  0  0  0  0
  6 15  2  0  0  0  0
  7  2  1  1  0  0  0
  7  6  1  0  0  0  0
  8 14  2  0  0  0  0
  8  7  1  0  0  0  0
  9 10  2  0  0  0  0
  9 14  1  0  0  0  0
 10 11  1  0  0  0  0
 11 26  1  0  0  0  0
 11 12  2  0  0  0  0
 12 27  1  0  0  0  0
 13 12  1  0  0  0  0
 13  5  2  0  0  0  0
 14 13  1  0  0  0  0
 15 28  1  0  0  0  0
 16 30  1  0  0  0  0
 16 29  1  0  0  0  0
 17  4  1  0  0  0  0
 17 16  1  0  0  0  0
 18  3  1  0  0  0  0
 19 36  1  0  0  0  0
 19 18  1  0  0  0  0
 19 35  1  0  0  0  0
 20 38  1  0  0  0  0
 21 40  1  0  0  0  0
 21 20  1  0  0  0  0
 21 41  1  0  0  0  0
 23  8  1  0  0  0  0
 24  9  1  0  0  0  0
 25 10  1  0  0  0  0
 31 17  1  0  0  0  0
 32 18  1  0  0  0  0
 33 18  1  0  0  0  0
 34 19  1  0  0  0  0
 37 20  1  0  0  0  0
 39 21  1  0  0  0  0
M  END
