1,2
q = -1.0, confidence = 0.0

 35 35  0  0  0  0  0  0  0  0999 V2000
    1.4499   -1.0288   -0.7447 N   0  0  0  0  0  2  0  0  0  0  0  0
   -1.1322   -1.4671    0.0480 O   0  5  0  0  0  0  0  0  0  0  0  0
    4.1472   -1.3863    0.4052 O   0  0  0  0  0  0  0  0  0  0  0  0
    4.6112    0.8448   -0.1679 O   0  0  0  0  0  0  0  0  0  0  0  0
    0.3798   -3.2357   -0.5860 C   0  0  0  0  0  0  0  0  0  0  0  0
   -0.9014   -2.7305   -0.1798 C   0  0  0  0  0  0  0  0  0  0  0  0
   -1.9758   -3.6594   -0.0278 C   0  0  0  0  0  0  0  0  0  0  0  0
   -1.7683   -5.0199   -0.2279 C   0  0  0  0  0  0  0  0  0  0  0  0
   -0.4960   -5.5243   -0.5988 C   0  0  0  0  0  0  0  0  0  0  0  0
    0.5549   -4.6341   -0.7825 C   0  0  0  0  0  3  0  0  0  0  0  0
    1.4592   -2.3383   -0.8571 C   0  0  0  0  0  0  0  0  0  0  0  0
    2.6892   -0.3555   -1.1409 C   0  0  0  0  0  0  0  0  0  0  0  0
    3.6128   -0.1278    0.0648 C   0  0  0  0  0  0  0  0  0  0  0  0
    4.6982   -1.4485    1.7194 C   0  0  0  0  0  0  0  0  0  0  0  0
    5.2615   -2.8388    1.9415 C   0  0  0  0  0  0  0  0  0  0  0  0
    5.5032    0.5780   -1.2516 C   0  0  0  0  0  0  0  0  0  0  0  0
    6.7223    1.4681   -1.0926 C   0  0  0  0  0  0  0  0  0  0  0  0
   -2.9619   -3.2513    0.2405 H   0  0  0  0  0  0  0  0  0  0  0  0
   -2.6119   -5.7164   -0.0991 H   0  0  0  0  0  0  0  0  0  0  0  0
   -0.3486   -6.6031   -0.7511 H   0  0  0  0  0  0  0  0  0  0  0  0
    1.5480   -4.9987   -1.0916 H   0  0  0  0  0  0  0  0  0  0  0  0
    2.3951   -2.8032   -1.2229 H   0  0  0  0  0  0  0  0  0  0  0  0
    3.2227   -0.9745   -1.8912 H   0  0  0  0  0  0  0  0  0  0  0  0
    2.4461    0.6269   -1.5778 H   0  0  0  0  0  0  0  0  0  0  0  0
    3.0135    0.2900    0.9023 H   0  0  0  0  0  0  0  0  0  0  0  0
    5.4880   -0.6711    1.8347 H   0  0  0  0  0  0  0  0  0  0  0  0
    3.9016   -1.2170    2.4674 H   0  0  0  0  0  0  0  0  0  0  0  0
    5.6849   -2.9289    2.9614 H   0  0  0  0  0  0  0  0  0  0  0  0
    6.0650   -3.0592    1.2103 H   0  0  0  0  0  0  0  0  0  0  0  0
    4.4691   -3.6050    1.8233 H   0  0  0  0  0  0  0  0  0  0  0  0
    5.7936   -0.4969   -1.2438 H   0  0  0  0  0  0  0  0  0  0  0  0
    5.0018    0.7829   -2.2276 H   0  0  0  0  0  0  0  0  0  0  0  0
    7.4328    1.3094   -1.9283 H   0  0  0  0  0  0  0  0  0  0  0  0
    7.2455    1.2499   -0.1402 H   0  0  0  0  0  0  0  0  0  0  0  0
    6.4290    2.5370   -1.0839 H   0  0  0  0  0  0  0  0  0  0  0  0
  3 14  1  0  0  0  0
  4 13  1  0  0  0  0
  5  6  1  0  0  0  0
  6  7  2  0  0  0  0
  6  2  1  0  0  0  0
  7 18  1  0  0  0  0
  8 19  1  0  0  0  0
  8  7  1  0  0  0  0
  9  8  2  0  0  0  0
 10  9  1  0  0  0  0
 10  5  1  0  0  0  0
 11  1  1  0  0  0  0
 11  5  2  0  0  0  0
 12  1  1  0  0  0  0
 12 13  1  0  0  0  0
 13  3  1  0  0  0  0
 13 25  1  0  0  0  0
 14 26  1  0  0  0  0
 14 15  1  0  0  0  0
 14 27  1  0  0  0  0
 15 28  1  0  0  0  0
 16 31  1  0  0  0  0
 16 17  1  0  0  0  0
 16  4  1  0  0  0  0
 17 35  1  0  0  0  0
 17 34  1  0  0  0  0
 20  9  1  0  0  0  0
 21 10  1  0  0  0  0
 22 11  1  0  0  0  0
 23 12  1  0  0  0  0
 24 12  1  0  0  0  0
 29 15  1  0  0  0  0
 30 15  1  0  0  0  0
 32 16  1  0  0  0  0
 33 17  1  0  0  0  0
M  CHG  1   2  -1
M  END
