1,2
q = -1.0, confidence = 0.03

 41 42  0  0  0  0  0  0  0  0999 V2000
   -0.3336    1.7633   -0.6986 N   0  0  0  0  0  2  0  0  0  0  0  0
   -1.8046   -0.4171    0.0420 O   0  5  0  0  0  0  0  0  0  0  0  0
   -1.5119    2.3372   -0.7573 C   0  0  0  0  0  0  0  0  0  0  0  0
    0.7952    2.6000   -1.1162 C   0  0  0  0  0  0  0  0  0  0  0  0
   -2.8655    0.3344   -0.1065 C   0  0  0  0  0  0  0  0  0  0  0  0
   -2.7796    1.7370   -0.4588 C   0  0  0  0  0  0  0  0  0  0  0  0
   -1.5425    3.3911   -1.0943 H   0  0  0  0  0  0  0  0  0  0  0  0
    1.4208    3.3324    0.0809 C   0  0  0  0  0  0  0  0  0  0  0  0
    0.4458    3.3494   -1.8555 H   0  0  0  0  0  0  0  0  0  0  0  0
    1.5697    1.9608   -1.5705 H   0  0  0  0  0  0  0  0  0  0  0  0
   -4.1440   -0.2336    0.0658 C   0  0  0  0  0  0  0  0  0  0  0  0
   -3.9507    2.5049   -0.5799 C   0  0  0  0  0  0  0  0  0  0  0  0
    0.5186    4.3534    0.4412 O   0  0  0  0  0  0  0  0  0  0  0  0
    2.7217    3.8169   -0.1764 O   0  0  0  0  0  0  0  0  0  0  0  0
    1.5576    2.6083    0.9127 H   0  0  0  0  0  0  0  0  0  0  0  0
   -5.3221    0.5363   -0.0529 C   0  0  0  0  0  0  0  0  0  0  0  0
   -4.1985   -1.3097    0.2912 H   0  0  0  0  0  0  0  0  0  0  0  0
   -5.2312    1.9497   -0.3746 C   0  0  0  0  0  0  0  0  0  0  0  0
   -3.8646    3.5701   -0.8507 H   0  0  0  0  0  0  0  0  0  0  0  0
    0.7255    4.8769    1.7524 C   0  0  0  0  0  0  0  0  0  0  0  0
    2.8456    4.7364   -1.2630 C   0  0  0  0  0  0  0  0  0  0  0  0
   -6.6245   -0.0281    0.1346 C   0  0  0  0  0  0  0  0  0  0  0  0
   -6.4296    2.7212   -0.4869 C   0  0  0  0  0  3  0  0  0  0  0  0
   -0.2887    5.9770    1.9986 C   0  0  0  0  0  0  0  0  0  0  0  0
    1.7671    5.2613    1.8444 H   0  0  0  0  0  0  0  0  0  0  0  0
    0.6138    4.0562    2.5016 H   0  0  0  0  0  0  0  0  0  0  0  0
    4.1855    5.4382   -1.1384 C   0  0  0  0  0  0  0  0  0  0  0  0
    2.0085    5.4700   -1.2324 H   0  0  0  0  0  0  0  0  0  0  0  0
    2.7834    4.1968   -2.2382 H   0  0  0  0  0  0  0  0  0  0  0  0
   -7.7630    0.7506    0.0179 C   0  0  0  0  0  0  0  0  0  0  0  0
   -6.7024   -1.0996    0.3758 H   0  0  0  0  0  0  0  0  0  0  0  0
   -7.6703    2.1395   -0.2948 C   0  0  0  0  0  0  0  0  0  0  0  0
   -6.3445    3.7920   -0.7311 H   0  0  0  0  0  0  0  0  0  0  0  0
   -0.1665    6.3979    3.0162 H   0  0  0  0  0  0  0  0  0  0  0  0
   -0.1641    6.7984    1.2648 H   0  0  0  0  0  0  0  0  0  0  0  0
   -1.3214    5.5851    1.9049 H   0  0  0  0  0  0  0  0  0  0  0  0
    4.2464    6.0009   -0.1856 H   0  0  0  0  0  0  0  0  0  0  0  0
    5.0157    4.7038   -1.1551 H   0  0  0  0  0  0  0  0  0  0  0  0
    4.3331    6.1485   -1.9763 H   0  0  0  0  0  0  0  0  0  0  0  0
   -8.7543    0.2953    0.1672 H   0  0  0  0  0  0  0  0  0  0  0  0
   -8.5865    2.7422   -0.3833 H   0  0  0  0  0  0  0  0  0  0  0  0
  3  1  1  0  0  0  0
  3  6  2  0  0  0  0
  4  1  1  0  0  0  0
  4  8  1  0  0  0  0
  5  2  1  0  0  0  0
  5 11  2  0  0  0  0
  6  5  1  0  0  0  0
  7  3  1  0  0  0  0
  8 13  1  0  0  0  0
  8 15  1  0  0  0  0
  9  4  1  0  0  0  0
 10  4  1  0  0  0  0
 11 17  1  0  0  0  0
 12  6  1  0  0  0  0
 12 18  2  0  0  0  0
 13 20  1  0  0  0  0
 14  8  1  0  0  0  0
 16 11  1  0  0  0  0
 16 22  2  0  0  0  0
 18 16  1  0  0  0  0
 19 12  1  0  0  0  0
 20 25  1  0  0  0  0
 20 24  1  0  0  0  0
 20 26  1  0  0  0  0
 21 28  1  0  0  0  0
 21 27  1  0  0  0  0
 21 14  1  0  0  0  0
 22 31  1  0  0  0  0
 23 18  1  0  0  0  0
 23 32  1  0  0  0  0
 24 34  1  0  0  0  0
 27 37  1  0  0  0  0
 29 21  1  0  0  0  0
 30 22  1  0  0  0  0
 30 40  1  0  0  0  0
 32 30  2  0  0  0  0
 33 23  1  0  0  0  0
 35 24  1  0  0  0  0
 36 24  1  0  0  0  0
 38 27  1  0  0  0  0
 39 27  1  0  0  0  0
 41 32  1  0  0  0  0
M  CHG  1   2  -1
M  END
