1,2
q = -1.0

 41 42  0  0  1  0  0  0  0  0999 V2000
    1.3082    1.1594   -0.8021 N   0  0  0  0  0  2  0  0  0  0  0  0
    1.2697   -1.3140    0.3065 O   0  5  0  0  0  0  0  0  0  0  0  0
    2.6085    0.9413   -0.8179 C   0  0  0  0  0  0  0  0  0  0  0  0
    0.8985    2.4703   -1.3008 C   0  0  0  0  0  0  0  0  0  0  0  0
    2.5642   -1.3070    0.1753 C   0  0  0  0  0  0  0  0  0  0  0  0
    3.3097   -0.2016   -0.3326 C   0  0  0  0  0  0  0  0  0  0  0  0
    3.2181    1.7429   -1.2675 H   0  0  0  0  0  0  0  0  0  0  0  0
    0.7931    3.4733   -0.1430 C   0  0  0  0  0  0  0  0  0  0  0  0
   -0.0782    2.4007   -1.8060 H   0  0  0  0  0  0  0  0  0  0  0  0
    1.6528    2.8675   -2.0109 H   0  0  0  0  0  0  0  0  0  0  0  0
    3.2590   -2.5094    0.5584 C   0  0  0  0  0  0  0  0  0  0  0  0
    4.7621   -0.2665   -0.3824 C   0  0  1  0  0  3  0  0  0  0  0  0
    2.0616    3.6108    0.4789 O   0  0  0  0  0  0  0  0  0  0  0  0
    0.3791    4.6820   -0.7050 O   0  0  0  0  0  0  0  0  0  0  0  0
    0.0496    3.1083    0.6073 H   0  0  0  0  0  0  0  0  0  0  0  0
    4.6289   -2.5840    0.4821 C   0  0  0  0  0  0  0  0  0  0  0  0
    2.6455   -3.3521    0.9112 H   0  0  0  0  0  0  0  0  0  0  0  0
    5.5854    0.8165   -0.8022 C   0  0  0  0  0  0  0  0  0  0  0  0
    5.4221   -1.4781    0.0292 C   0  0  0  0  0  0  0  0  0  0  0  0
    2.1632    3.0465    1.7864 C   0  0  0  0  0  0  0  0  0  0  0  0
    0.1100    5.7002    0.2546 C   0  0  0  0  0  0  0  0  0  0  0  0
    5.1467   -3.5091    0.7819 H   0  0  0  0  0  0  0  0  0  0  0  0
    6.9734    0.7075   -0.8292 C   0  0  0  0  0  0  0  0  0  0  0  0
    5.1315    1.7711   -1.1031 H   0  0  0  0  0  0  0  0  0  0  0  0
    6.8395   -1.5641   -0.0115 C   0  0  0  0  0  0  0  0  0  0  0  0
    3.6209    3.0651    2.2042 C   0  0  0  0  0  0  0  0  0  0  0  0
    1.7746    2.0012    1.7866 H   0  0  0  0  0  0  0  0  0  0  0  0
    1.5346    3.6291    2.5039 H   0  0  0  0  0  0  0  0  0  0  0  0
   -0.3550    6.9446   -0.4773 C   0  0  0  0  0  0  0  0  0  0  0  0
    1.0297    5.9079    0.8478 H   0  0  0  0  0  0  0  0  0  0  0  0
   -0.6704    5.3419    0.9715 H   0  0  0  0  0  0  0  0  0  0  0  0
    7.6134   -0.4908   -0.4363 C   0  0  0  0  0  0  0  0  0  0  0  0
    7.5759    1.5683   -1.1571 H   0  0  0  0  0  0  0  0  0  0  0  0
    7.3159   -2.5049    0.3068 H   0  0  0  0  0  0  0  0  0  0  0  0
    4.0217    4.0984    2.1840 H   0  0  0  0  0  0  0  0  0  0  0  0
    3.7343    2.6652    3.2312 H   0  0  0  0  0  0  0  0  0  0  0  0
    4.2339    2.4425    1.5216 H   0  0  0  0  0  0  0  0  0  0  0  0
   -0.5679    7.7611    0.2409 H   0  0  0  0  0  0  0  0  0  0  0  0
    0.4248    7.2938   -1.1828 H   0  0  0  0  0  0  0  0  0  0  0  0
   -1.2766    6.7407   -1.0586 H   0  0  0  0  0  0  0  0  0  0  0  0
    8.7104   -0.5680   -0.4617 H   0  0  0  0  0  0  0  0  0  0  0  0
  3  1  1  0  0  0  0
  3  6  2  0  0  0  0
  4  1  1  0  0  0  0
  4  8  1  0  0  0  0
  5  2  1  0  0  0  0
  5 11  2  0  0  0  0
  6  5  1  0  0  0  0
  7  3  1  0  0  0  0
  8 13  1  0  0  0  0
  8 15  1  0  0  0  0
  9  4  1  0  0  0  0
 10  4  1  0  0  0  0
 11 17  1  0  0  0  0
 12 18  1  1  0  0  0
 12  6  1  0  0  0  0
 12 19  1  0  0  0  0
 13 20  1  0  0  0  0
 14  8  1  0  0  0  0
 14 21  1  0  0  0  0
 16 11  1  0  0  0  0
 16 22  1  0  0  0  0
 19 16  2  0  0  0  0
 20 27  1  0  0  0  0
 20 26  1  0  0  0  0
 20 28  1  0  0  0  0
 21 30  1  0  0  0  0
 21 31  1  0  0  0  0
 23 18  2  0  0  0  0
 23 32  1  0  0  0  0
 24 18  1  0  0  0  0
 25 19  1  0  0  0  0
 25 34  1  0  0  0  0
 26 36  1  0  0  0  0
 29 38  1  0  0  0  0
 29 21  1  0  0  0  0
 32 25  2  0  0  0  0
 33 23  1  0  0  0  0
 35 26  1  0  0  0  0
 37 26  1  0  0  0  0
 39 29  1  0  0  0  0
 40 29  1  0  0  0  0
 41 32  1  0  0  0  0
M  CHG  1   2  -1
M  END
