1,2
q = -1.0

 35 35  0  0  1  0  0  0  0  0999 V2000
   -1.4499    1.0288    0.7447 N   0  0  0  0  0  2  0  0  0  0  0  0
    1.1323    1.4671   -0.0480 O   0  0  0  0  0  1  0  0  0  0  0  0
   -1.4592    2.3383    0.8571 C   0  0  0  0  0  0  0  0  0  0  0  0
   -2.6892    0.3555    1.1408 C   0  0  0  0  0  0  0  0  0  0  0  0
    0.9014    2.7305    0.1798 C   0  0  1  0  0  3  0  0  0  0  0  0
   -0.3798    3.2357    0.5860 C   0  0  0  0  0  0  0  0  0  0  0  0
   -2.3951    2.8032    1.2229 H   0  0  0  0  0  0  0  0  0  0  0  0
   -3.6128    0.1279   -0.0649 C   0  0  0  0  0  0  0  0  0  0  0  0
   -3.2227    0.9745    1.8912 H   0  0  0  0  0  0  0  0  0  0  0  0
   -2.4461   -0.6269    1.5776 H   0  0  0  0  0  0  0  0  0  0  0  0
    1.9758    3.6595    0.0279 C   0  0  0  0  0  0  0  0  0  0  0  0
   -0.5549    4.6341    0.7826 C   0  0  0  0  0  0  0  0  0  0  0  0
   -4.1473    1.3864   -0.4050 O   0  0  0  0  0  0  0  0  0  0  0  0
   -4.6111   -0.8449    0.1676 O   0  0  0  0  0  0  0  0  0  0  0  0
   -3.0135   -0.2897   -0.9025 H   0  0  0  0  0  0  0  0  0  0  0  0
    1.7684    5.0200    0.2280 C   0  0  0  0  0  0  0  0  0  0  0  0
    2.9620    3.2514   -0.2404 H   0  0  0  0  0  0  0  0  0  0  0  0
    0.4960    5.5243    0.5989 C   0  0  0  0  0  0  0  0  0  0  0  0
   -1.5480    4.9987    1.0917 H   0  0  0  0  0  0  0  0  0  0  0  0
   -4.6984    1.4488   -1.7193 C   0  0  0  0  0  0  0  0  0  0  0  0
   -5.5030   -0.5784    1.2514 C   0  0  0  0  0  0  0  0  0  0  0  0
    2.6120    5.7165    0.0992 H   0  0  0  0  0  0  0  0  0  0  0  0
    0.3486    6.6031    0.7512 H   0  0  0  0  0  0  0  0  0  0  0  0
   -5.2619    2.8391   -1.9410 C   0  0  0  0  0  0  0  0  0  0  0  0
   -5.4881    0.6713   -1.8347 H   0  0  0  0  0  0  0  0  0  0  0  0
   -3.9018    1.2175   -2.4673 H   0  0  0  0  0  0  0  0  0  0  0  0
   -6.7221   -1.4686    1.0922 C   0  0  0  0  0  0  0  0  0  0  0  0
   -5.7936    0.4965    1.2438 H   0  0  0  0  0  0  0  0  0  0  0  0
   -5.0016   -0.7834    2.2274 H   0  0  0  0  0  0  0  0  0  0  0  0
   -5.6853    2.9292   -2.9610 H   0  0  0  0  0  0  0  0  0  0  0  0
   -6.0654    3.0592   -1.2098 H   0  0  0  0  0  0  0  0  0  0  0  0
   -4.4696    3.6053   -1.8228 H   0  0  0  0  0  0  0  0  0  0  0  0
   -7.4326   -1.3101    1.9280 H   0  0  0  0  0  0  0  0  0  0  0  0
   -7.2453   -1.2503    0.1399 H   0  0  0  0  0  0  0  0  0  0  0  0
   -6.4287   -2.5375    1.0834 H   0  0  0  0  0  0  0  0  0  0  0  0
  1  3  1  0  0  0  0
  1  4  1  0  0  0  0
  3  7  1  0  0  0  0
  4 10  1  0  0  0  0
  4  9  1  0  0  0  0
  5  2  1  1  0  0  0
  5  6  1  0  0  0  0
  6 12  1  0  0  0  0
  6  3  2  0  0  0  0
  8 14  1  0  0  0  0
  8  4  1  0  0  0  0
 11  5  1  0  0  0  0
 11 16  2  0  0  0  0
 12 19  1  0  0  0  0
 13  8  1  0  0  0  0
 14 21  1  0  0  0  0
 15  8  1  0  0  0  0
 16 18  1  0  0  0  0
 17 11  1  0  0  0  0
 18 23  1  0  0  0  0
 18 12  2  0  0  0  0
 20 13  1  0  0  0  0
 21 29  1  0  0  0  0
 22 16  1  0  0  0  0
 24 32  1  0  0  0  0
 24 20  1  0  0  0  0
 24 31  1  0  0  0  0
 25 20  1  0  0  0  0
 26 20  1  0  0  0  0
 27 21  1  0  0  0  0
 27 33  1  0  0  0  0
 28 21  1  0  0  0  0
 30 24  1  0  0  0  0
 34 27  1  0  0  0  0
 35 27  1  0  0  0  0
M  END
