1,2
q = -1.0

 31 33  0  0  0  0  0  0  0  0999 V2000
   -3.0274   -0.4452   -1.4650 O   0  5  0  0  0  0  0  0  0  0  0  0
   -0.5219    0.0362   -1.2787 N   0  0  0  0  0  2  0  0  0  0  0  0
    5.8351   -0.2698    0.3186 Cl  0  0  0  0  0  0  0  0  0  0  0  0
    7.6101   -2.7513    1.0318 Cl  0  0  0  0  0  0  0  0  0  0  0  0
   -1.2962    1.0808   -1.7278 C   0  0  0  0  0  0  0  0  0  0  0  0
   -2.6933    0.7949   -1.7978 C   0  0  0  0  0  0  0  0  0  0  0  0
   -3.5812    1.7993   -2.2014 C   0  0  0  0  0  0  0  0  0  0  0  0
   -4.6560    1.5761   -2.2523 H   0  0  0  0  0  0  0  0  0  0  0  0
   -3.0727    3.0767   -2.5374 C   0  0  0  0  0  0  0  0  0  0  0  0
   -3.7776    3.8617   -2.8511 H   0  0  0  0  0  0  0  0  0  0  0  0
   -1.7086    3.3647   -2.4828 C   0  0  0  0  0  3  0  0  0  0  0  0
   -1.3317    4.3640   -2.7439 H   0  0  0  0  0  0  0  0  0  0  0  0
   -0.7845    2.3617   -2.0821 C   0  0  0  0  0  0  0  0  0  0  0  0
    0.6318    2.5219   -1.9967 C   0  0  0  0  0  0  0  0  0  0  0  0
    1.0907    3.4913   -2.2421 H   0  0  0  0  0  0  0  0  0  0  0  0
    1.4098    1.4467   -1.6228 C   0  0  0  0  0  0  0  0  0  0  0  0
    2.5032    1.5399   -1.5989 H   0  0  0  0  0  0  0  0  0  0  0  0
    0.8355    0.1784   -1.2828 C   0  0  0  0  0  0  0  0  0  0  0  0
    1.6614   -0.9714   -0.9578 C   0  0  0  0  0  0  0  0  0  0  0  0
    1.1660   -1.9434   -1.0818 H   0  0  0  0  0  0  0  0  0  0  0  0
    2.9639   -0.9075   -0.5561 C   0  0  0  0  0  0  0  0  0  0  0  0
    3.4387    0.0755   -0.4243 H   0  0  0  0  0  0  0  0  0  0  0  0
    3.8051   -2.0546   -0.2350 C   0  0  0  0  0  0  0  0  0  0  0  0
    5.1531   -1.8724    0.1902 C   0  0  0  0  0  0  0  0  0  0  0  0
    5.9672   -2.9798    0.5127 C   0  0  0  0  0  0  0  0  0  0  0  0
    5.4572   -4.2836    0.4171 C   0  0  0  0  0  0  0  0  0  0  0  0
    6.1095   -5.1295    0.6734 H   0  0  0  0  0  0  0  0  0  0  0  0
    4.1314   -4.4775    0.0007 C   0  0  0  0  0  0  0  0  0  0  0  0
    3.7284   -5.4982   -0.0723 H   0  0  0  0  0  0  0  0  0  0  0  0
    3.3227   -3.3863   -0.3169 C   0  0  0  0  0  0  0  0  0  0  0  0
    2.2846   -3.5575   -0.6351 H   0  0  0  0  0  0  0  0  0  0  0  0
  5  2  1  0  0  0  0
  6  5  2  0  0  0  0
  6  1  1  0  0  0  0
  7  6  1  0  0  0  0
  8  7  1  0  0  0  0
  9 11  1  0  0  0  0
  9  7  2  0  0  0  0
 10  9  1  0  0  0  0
 11 13  1  0  0  0  0
 12 11  1  0  0  0  0
 13 14  2  0  0  0  0
 13  5  1  0  0  0  0
 14 16  1  0  0  0  0
 15 14  1  0  0  0  0
 16 17  1  0  0  0  0
 16 18  2  0  0  0  0
 18  2  1  0  0  0  0
 18 19  1  0  0  0  0
 19 21  2  0  0  0  0
 20 19  1  0  0  0  0
 21 22  1  0  0  0  0
 21 23  1  0  0  0  0
 23 24  1  0  0  0  0
 24  3  1  0  0  0  0
 24 25  2  0  0  0  0
 25  4  1  0  0  0  0
 26 25  1  0  0  0  0
 26 27  1  0  0  0  0
 28 26  2  0  0  0  0
 29 28  1  0  0  0  0
 30 23  2  0  0  0  0
 30 28  1  0  0  0  0
 31 30  1  0  0  0  0
M  CHG  1   1  -1
M  END
