1,5
q = -1.0

 29 28  0  0  0  0  0  0  0  0999 V2000
   -0.0928    0.9842   -1.5792 O   0  5  0  0  0  0  0  0  0  0  0  0
   -1.5624    1.7424   -3.1029 O   0  0  0  0  0  0  0  0  0  0  0  0
    1.4918   -1.9058   -1.9356 O   0  0  0  0  0  0  0  0  0  0  0  0
   -4.6227    0.8642    0.2200 O   0  0  0  0  0  0  0  0  0  0  0  0
   -1.6180   -0.9289   -0.6116 N   0  0  0  0  0  0  0  0  0  0  0  0
    2.2451   -2.8183    0.0128 N   0  0  0  0  0  0  0  0  0  0  0  0
   -6.2319   -0.6677    0.6663 N   0  0  0  0  0  0  0  0  0  0  0  0
   -2.2408   -0.0417   -1.6370 C   0  0  0  0  0  0  0  0  0  0  0  0
   -1.2432    0.9692   -2.2042 C   0  0  0  0  0  0  0  0  0  0  0  0
   -1.2229   -2.2206   -1.2555 C   0  0  0  0  0  0  0  0  0  0  0  0
   -0.1446   -3.0245   -0.5401 C   0  0  0  0  0  0  0  0  0  0  0  0
    1.2627   -2.4992   -0.8758 C   0  0  0  0  0  0  0  0  0  0  0  0
   -2.5005   -1.0981    0.5856 C   0  0  0  0  0  0  0  0  0  0  0  0
   -3.9597   -1.4874    0.2950 C   0  0  0  0  0  0  0  0  0  0  0  0
   -4.9444   -0.3142    0.3958 C   0  0  0  0  0  0  0  0  0  0  0  0
   -3.0474    0.5427   -1.1565 H   0  0  0  0  0  0  0  0  0  0  0  0
   -2.7022   -0.6278   -2.4585 H   0  0  0  0  0  0  0  0  0  0  0  0
   -2.1418   -2.8320   -1.4045 H   0  0  0  0  0  0  0  0  0  0  0  0
   -0.8152   -1.9641   -2.2538 H   0  0  0  0  0  0  0  0  0  0  0  0
   -0.2977   -3.0690    0.5556 H   0  0  0  0  0  0  0  0  0  0  0  0
   -0.1922   -4.0685   -0.9205 H   0  0  0  0  0  0  0  0  0  0  0  0
   -2.4709   -0.1416    1.1458 H   0  0  0  0  0  0  0  0  0  0  0  0
   -2.0112   -1.8409    1.2371 H   0  0  0  0  0  0  0  0  0  0  0  0
   -4.2798   -2.2901    0.9910 H   0  0  0  0  0  0  0  0  0  0  0  0
   -4.0716   -1.9226   -0.7225 H   0  0  0  0  0  0  0  0  0  0  0  0
    2.0150   -3.0953    0.9704 H   0  0  0  0  0  0  0  0  0  0  0  0
    3.1643   -2.3853   -0.1462 H   0  0  0  0  0  0  0  0  0  0  0  0
   -6.9341    0.0704    0.7293 H   0  0  0  0  0  0  0  0  0  0  0  0
   -6.5056   -1.6288    0.8618 H   0  0  0  0  0  0  0  0  0  0  0  0
  2  9  2  0  0  0  0
  3 12  2  0  0  0  0
  4 15  2  0  0  0  0
  5 13  1  0  0  0  0
  6 26  1  0  0  0  0
  7 28  1  0  0  0  0
  7 29  1  0  0  0  0
  8 16  1  0  0  0  0
  8  5  1  0  0  0  0
  9  8  1  0  0  0  0
  9  1  1  0  0  0  0
 10  5  1  0  0  0  0
 10 11  1  0  0  0  0
 11 20  1  0  0  0  0
 12 11  1  0  0  0  0
 12  6  1  0  0  0  0
 13 22  1  0  0  0  0
 13 23  1  0  0  0  0
 14 15  1  0  0  0  0
 14 13  1  0  0  0  0
 14 24  1  0  0  0  0
 15  7  1  0  0  0  0
 17  8  1  0  0  0  0
 18 10  1  0  0  0  0
 19 10  1  0  0  0  0
 21 11  1  0  0  0  0
 25 14  1  0  0  0  0
 27  6  1  0  0  0  0
M  CHG  1   1  -1
M  END
