3,4
q = -1.0

 24 24  0  0  0  0  0  0  0  0999 V2000
    7.3747   -1.0320    0.3793 Br  0  0  0  0  0  0  0  0  0  0  0  0
    3.5312    2.3703   -2.1114 Br  0  0  0  0  0  0  0  0  0  0  0  0
    0.9002   -1.5438    1.2406 N   0  0  0  0  0  2  0  0  0  0  0  0
    1.6159    0.6301   -0.5909 O   0  5  0  0  0  0  0  0  0  0  0  0
    3.1708   -0.8761    0.5226 C   0  0  0  0  0  0  0  0  0  0  0  0
    2.8215    0.2281   -0.3521 C   0  0  0  0  0  0  0  0  0  0  0  0
    3.9326    0.9080   -0.9711 C   0  0  0  0  0  0  0  0  0  0  0  0
    5.2581    0.5451   -0.7586 C   0  0  0  0  0  0  0  0  0  0  0  0
    6.0658    1.1013   -1.2535 H   0  0  0  0  0  0  0  0  0  0  0  0
    5.5568   -0.5401    0.0974 C   0  0  0  0  0  0  0  0  0  0  0  0
    4.5338   -1.2384    0.7223 C   0  0  0  0  0  0  0  0  0  0  0  0
    4.7687   -2.0854    1.3840 H   0  0  0  0  0  0  0  0  0  0  0  0
    2.1957   -1.6912    1.2093 C   0  0  0  0  0  3  0  0  0  0  0  0
    2.6236   -2.5501    1.7739 H   0  0  0  0  0  0  0  0  0  0  0  0
    0.0821   -2.5515    1.9332 C   0  0  0  0  0  0  0  0  0  0  0  0
    0.7569   -3.1535    2.5871 H   0  0  0  0  0  0  0  0  0  0  0  0
   -0.9628   -1.8574    2.8106 C   0  0  0  0  0  0  0  0  0  0  0  0
   -0.4853   -1.1798    3.5461 H   0  0  0  0  0  0  0  0  0  0  0  0
   -1.5591   -2.6079    3.3654 H   0  0  0  0  0  0  0  0  0  0  0  0
   -1.6657   -1.2628    2.1912 H   0  0  0  0  0  0  0  0  0  0  0  0
   -0.5600   -3.4819    0.8955 C   0  0  0  0  0  0  0  0  0  0  0  0
   -1.1822   -2.9013    0.1845 H   0  0  0  0  0  0  0  0  0  0  0  0
   -1.2024   -4.2325    1.3977 H   0  0  0  0  0  0  0  0  0  0  0  0
    0.2168   -4.0190    0.3161 H   0  0  0  0  0  0  0  0  0  0  0  0
  2  7  1  0  0  0  0
  3 15  1  0  0  0  0
  4  6  1  0  0  0  0
  5 11  1  0  0  0  0
  5 13  1  0  0  0  0
  6  5  2  0  0  0  0
  7  8  2  0  0  0  0
  7  6  1  0  0  0  0
  8 10  1  0  0  0  0
  9  8  1  0  0  0  0
 10  1  1  0  0  0  0
 10 11  2  0  0  0  0
 11 12  1  0  0  0  0
 13  3  1  0  0  0  0
 13 14  1  0  0  0  0
 15 16  1  0  0  0  0
 15 17  1  0  0  0  0
 17 19  1  0  0  0  0
 17 18  1  0  0  0  0
 20 17  1  0  0  0  0
 21 23  1  0  0  0  0
 21 15  1  0  0  0  0
 22 21  1  0  0  0  0
 24 21  1  0  0  0  0
M  CHG  1   4  -1
M  END
