11,13
q = -1.0

 14 14  0  0  1  0  0  0  0  0999 V2000
    0.8366    3.0971    1.3017 C   0  0  0  0  0  0  0  0  0  0  0  0
    1.2804    2.6583    2.2020 H   0  0  0  0  0  0  0  0  0  0  0  0
    0.7162    4.4271    0.9242 C   0  0  0  0  0  0  0  0  0  0  0  0
    1.0244    5.3535    1.4196 H   0  0  0  0  0  0  0  0  0  0  0  0
   -0.1609    3.1371   -0.6551 C   0  0  1  0  0  3  0  0  0  0  0  0
   -0.7955    2.5793   -1.9098 C   0  0  0  0  0  0  0  0  0  0  0  0
   -0.2499    5.6125   -1.0996 C   0  0  0  0  0  0  0  0  0  0  0  0
   -0.7307    5.2479   -2.0281 H   0  0  0  0  0  0  0  0  0  0  0  0
    0.6680    6.1838   -1.3401 H   0  0  0  0  0  0  0  0  0  0  0  0
   -0.9471    6.2628   -0.5357 H   0  0  0  0  0  0  0  0  0  0  0  0
    0.2855    2.3221    0.3126 N   0  0  0  0  0  2  0  0  0  0  0  0
    0.0882    4.4357   -0.3065 N   0  0  0  0  0  0  0  0  0  0  0  0
   -0.8230    1.2796   -1.9128 O   0  5  0  0  0  0  0  0  0  0  0  0
   -1.2001    3.3341   -2.8008 O   0  0  0  0  0  0  0  0  0  0  0  0
  1  2  1  0  0  0  0
  3  1  2  0  0  0  0
  3  4  1  0  0  0  0
  5  6  1  6  0  0  0
  5 12  1  0  0  0  0
  5 11  1  0  0  0  0
  7 10  1  0  0  0  0
  7 12  1  0  0  0  0
  8  7  1  0  0  0  0
  9  7  1  0  0  0  0
 11  1  1  0  0  0  0
 12  3  1  0  0  0  0
 13  6  1  0  0  0  0
 14  6  2  0  0  0  0
M  CHG  1  13  -1
M  END
