1,2
q = -1.0

 13 13  0  0  0  0  0  0  0  0999 V2000
   -0.8106    1.2278    0.7256 O   0  5  0  0  0  0  0  0  0  0  0  0
   -0.3911    1.9739   -1.7616 N   0  0  0  0  0  0  0  0  0  0  0  0
    0.3710    1.9793   -2.4572 H   0  0  0  0  0  0  0  0  0  0  0  0
   -1.2433    2.2806   -2.2699 H   0  0  0  0  0  0  0  0  0  0  0  0
    0.3933    4.1294   -1.0252 N   0  0  0  0  0  0  0  0  0  0  0  0
   -0.0888    2.9443   -0.7051 C   0  0  0  0  0  0  0  0  0  0  0  0
   -0.3442    2.4754    0.6037 C   0  0  0  0  0  0  0  0  0  0  0  0
   -0.0590    3.3578    1.6614 C   0  0  0  0  0  0  0  0  0  0  0  0
   -0.2283    3.0469    2.7019 H   0  0  0  0  0  0  0  0  0  0  0  0
    0.4512    4.6228    1.3370 C   0  0  0  0  0  0  0  0  0  0  0  0
    0.6906    5.3438    2.1323 H   0  0  0  0  0  0  0  0  0  0  0  0
    0.6663    4.9704   -0.0094 C   0  0  0  0  0  0  0  0  0  0  0  0
    1.0720    5.9585   -0.2804 H   0  0  0  0  0  0  0  0  0  0  0  0
  2  6  1  0  0  0  0
  3  2  1  0  0  0  0
  4  2  1  0  0  0  0
  5  6  2  0  0  0  0
  5 12  1  0  0  0  0
  6  7  1  0  0  0  0
  7  1  1  0  0  0  0
  7  8  2  0  0  0  0
  8  9  1  0  0  0  0
 10  8  1  0  0  0  0
 10 11  1  0  0  0  0
 12 10  2  0  0  0  0
 13 12  1  0  0  0  0
M  CHG  1   1  -1
M  END
