1,3
q = -2.0, confidence = 0.794

 18 18  0  0  0  0  0  0  0  0999 V2000
   -0.8552   -2.6499   -0.8886 O   0  5  0  0  0  0  0  0  0  0  0  0
   -1.9329   -4.5661   -1.1866 O   0  0  0  0  0  0  0  0  0  0  0  0
   -2.3106   -0.5326    0.0585 N   0  0  0  0  0  2  0  0  0  0  0  0
   -2.5197    0.3295    0.5731 H   0  0  0  0  0  0  0  0  0  0  0  0
   -1.9686   -3.4048   -0.8065 C   0  0  0  0  0  0  0  0  0  0  0  0
   -3.2113   -2.8121   -0.2051 C   0  0  0  0  0  0  0  0  0  0  0  0
   -3.3317   -1.4645    0.2343 C   0  0  0  0  0  0  0  0  0  0  0  0
   -4.5366   -1.0346    0.8745 C   0  0  0  0  0  0  0  0  0  0  0  0
   -5.5862   -1.9510    1.0310 C   0  0  0  0  0  0  0  0  0  0  0  0
   -6.5145   -1.6101    1.5171 H   0  0  0  0  0  0  0  0  0  0  0  0
   -5.4786   -3.2773    0.5805 C   0  0  0  0  0  0  0  0  0  0  0  0
   -6.3175   -3.9768    0.7103 H   0  0  0  0  0  0  0  0  0  0  0  0
   -4.2940   -3.6965   -0.0275 C   0  0  0  0  0  0  0  0  0  0  0  0
   -4.1541   -4.7280   -0.3819 H   0  0  0  0  0  0  0  0  0  0  0  0
   -4.6732    0.3877    1.3597 C   0  0  0  0  0  0  0  0  0  0  0  0
   -4.5483    1.1238    0.5354 H   0  0  0  0  0  0  0  0  0  0  0  0
   -3.9183    0.6452    2.1350 H   0  0  0  0  0  0  0  0  0  0  0  0
   -5.6712    0.5583    1.8058 H   0  0  0  0  0  0  0  0  0  0  0  0
  1  5  1  0  0  0  0
  2  5  2  0  0  0  0
  3  7  1  0  0  0  0
  3  4  1  0  0  0  0
  5  6  1  0  0  0  0
  6 13  2  0  0  0  0
  6  7  1  0  0  0  0
  7  8  2  0  0  0  0
  8  9  1  0  0  0  0
  8 15  1  0  0  0  0
  9 10  1  0  0  0  0
 11 12  1  0  0  0  0
 11  9  2  0  0  0  0
 13 11  1  0  0  0  0
 14 13  1  0  0  0  0
 15 18  1  0  0  0  0
 15 17  1  0  0  0  0
 16 15  1  0  0  0  0
M  CHG  1   1  -1
M  END
