1,4
q = -1.0

 23 24  0  0  1  0  0  0  0  0999 V2000
    1.3883    0.3738   -0.0001 O   0  5  0  0  0  0  0  0  0  0  0  0
    5.6278   -1.9191   -0.0003 O   0  0  0  0  0  0  0  0  0  0  0  0
    5.5031    0.2876    0.0000 O   0  0  0  0  0  0  0  0  0  0  0  0
    1.4291   -2.4199   -0.0000 N   0  0  0  0  0  2  0  0  0  0  0  0
    1.1436   -3.4064    0.0000 H   0  0  0  0  0  0  0  0  0  0  0  0
    3.5333   -3.5705    0.0000 C   0  0  0  0  0  0  0  0  0  0  0  0
    2.8449   -4.4396    0.0002 H   0  0  0  0  0  0  0  0  0  0  0  0
    4.2044   -3.6262    0.8773 H   0  0  0  0  0  0  0  0  0  0  0  0
    4.2042   -3.6264   -0.8774 H   0  0  0  0  0  0  0  0  0  0  0  0
    2.7438   -2.2840   -0.0000 C   0  0  1  0  0  3  0  0  0  0  0  0
    3.4002   -0.9908   -0.0001 C   0  0  0  0  0  0  0  0  0  0  0  0
    4.8723   -0.9649   -0.0001 C   0  0  0  0  0  0  0  0  0  0  0  0
    4.8250    1.4624   -0.0000 C   0  0  0  0  0  0  0  0  0  0  0  0
    5.5813    2.6491    0.0000 C   0  0  0  0  0  0  0  0  0  0  0  0
    6.6777    2.5745    0.0001 H   0  0  0  0  0  0  0  0  0  0  0  0
    4.9194    3.8796   -0.0000 C   0  0  0  0  0  0  0  0  0  0  0  0
    5.5080    4.8096   -0.0000 H   0  0  0  0  0  0  0  0  0  0  0  0
    3.5093    3.9379   -0.0001 C   0  0  0  0  0  0  0  0  0  0  0  0
    2.9985    4.9118   -0.0002 H   0  0  0  0  0  0  0  0  0  0  0  0
    2.7662    2.7574   -0.0002 C   0  0  0  0  0  0  0  0  0  0  0  0
    1.6672    2.7650   -0.0002 H   0  0  0  0  0  0  0  0  0  0  0  0
    3.4162    1.5018   -0.0001 C   0  0  0  0  0  0  0  0  0  0  0  0
    2.6630    0.2412   -0.0001 C   0  0  0  0  0  0  0  0  0  0  0  0
  1 23  1  0  0  0  0
  2 12  2  0  0  0  0
  4  5  1  0  0  0  0
  6  7  1  0  0  0  0
  6  8  1  0  0  0  0
  9  6  1  0  0  0  0
 10  4  1  6  0  0  0
 10  6  1  0  0  0  0
 11 10  1  0  0  0  0
 12 11  1  0  0  0  0
 12  3  1  0  0  0  0
 13 14  1  0  0  0  0
 13  3  1  0  0  0  0
 14 15  1  0  0  0  0
 16 17  1  0  0  0  0
 16 14  2  0  0  0  0
 18 16  1  0  0  0  0
 19 18  1  0  0  0  0
 20 18  2  0  0  0  0
 20 22  1  0  0  0  0
 21 20  1  0  0  0  0
 22 23  1  0  0  0  0
 22 13  2  0  0  0  0
 23 11  2  0  0  0  0
M  CHG  1   1  -1
M  END
