1,4
q = -1.0

 27 28  0  0  1  0  0  0  0  0999 V2000
    1.4835   -1.0647   -0.3175 O   0  0  0  0  0  1  0  0  0  0  0  0
   -3.7158   -2.3926   -0.5198 O   0  0  0  0  0  0  0  0  0  0  0  0
   -4.6279   -0.5942    0.5258 O   0  0  0  0  0  0  0  0  0  0  0  0
   -1.0382   -1.4841    0.6622 N   0  0  0  0  0  2  0  0  0  0  0  0
    0.6383   -3.2417    0.2829 C   0  0  0  0  0  0  0  0  0  0  0  0
    1.6663   -2.3475   -0.1699 C   0  0  2  0  0  3  0  0  0  0  0  0
    2.9521   -2.8941   -0.4683 C   0  0  0  0  0  0  0  0  0  0  0  0
    3.1842   -4.2602   -0.3518 C   0  0  0  0  0  0  0  0  0  0  0  0
    2.1627   -5.1482    0.0713 C   0  0  0  0  0  0  0  0  0  0  0  0
    0.9116   -4.6343    0.3884 C   0  0  0  0  0  0  0  0  0  0  0  0
   -0.6420   -2.7373    0.6681 C   0  0  0  0  0  0  0  0  0  0  0  0
   -2.3995   -1.2531    1.1501 C   0  0  0  0  0  0  0  0  0  0  0  0
   -3.4052   -1.1222    0.0144 C   0  0  0  0  0  0  0  0  0  0  0  0
   -4.9759   -2.1956   -1.1422 C   0  0  0  0  0  0  0  0  0  0  0  0
   -5.6955   -1.2424   -0.1639 C   0  0  0  0  0  0  0  0  0  0  0  0
    3.7414   -2.1940   -0.7811 H   0  0  0  0  0  0  0  0  0  0  0  0
    4.1835   -4.6570   -0.5913 H   0  0  0  0  0  0  0  0  0  0  0  0
    2.3627   -6.2260    0.1552 H   0  0  0  0  0  0  0  0  0  0  0  0
    0.1053   -5.3015    0.7338 H   0  0  0  0  0  0  0  0  0  0  0  0
   -1.3694   -3.4914    1.0278 H   0  0  0  0  0  0  0  0  0  0  0  0
   -2.7299   -2.0936    1.7942 H   0  0  0  0  0  0  0  0  0  0  0  0
   -2.4296   -0.3148    1.7278 H   0  0  0  0  0  0  0  0  0  0  0  0
   -3.0036   -0.4497   -0.7838 H   0  0  0  0  0  0  0  0  0  0  0  0
   -4.8555   -1.7201   -2.1456 H   0  0  0  0  0  0  0  0  0  0  0  0
   -5.4725   -3.1771   -1.2682 H   0  0  0  0  0  0  0  0  0  0  0  0
   -6.3277   -1.7925    0.5683 H   0  0  0  0  0  0  0  0  0  0  0  0
   -6.3337   -0.4997   -0.6913 H   0  0  0  0  0  0  0  0  0  0  0  0
  2 13  1  0  0  0  0
  4 11  1  0  0  0  0
  4 12  1  0  0  0  0
  5 10  1  0  0  0  0
  5 11  2  0  0  0  0
  6  1  1  1  0  0  0
  6  5  1  0  0  0  0
  7  8  2  0  0  0  0
  7  6  1  0  0  0  0
  8  9  1  0  0  0  0
  9 18  1  0  0  0  0
  9 10  2  0  0  0  0
 10 19  1  0  0  0  0
 11 20  1  0  0  0  0
 12 22  1  0  0  0  0
 12 21  1  0  0  0  0
 13  3  1  0  0  0  0
 13 12  1  0  0  0  0
 14  2  1  0  0  0  0
 14 15  1  0  0  0  0
 15  3  1  0  0  0  0
 15 26  1  0  0  0  0
 16  7  1  0  0  0  0
 17  8  1  0  0  0  0
 23 13  1  0  0  0  0
 24 14  1  0  0  0  0
 25 14  1  0  0  0  0
 27 15  1  0  0  0  0
M  END
