1,2
q = -1.0, confidence = 0.0

 27 27  0  0  1  0  0  0  0  0999 V2000
   -0.4968   -1.6510    1.1624 O   0  5  0  0  0  0  0  0  0  0  0  0
    1.5854   -0.7725   -0.7327 N   0  0  0  0  0  2  0  0  0  0  0  0
    1.8178   -2.0581   -0.7175 C   0  0  0  0  0  3  0  0  0  0  0  0
    2.6882   -2.4226   -1.3094 H   0  0  0  0  0  0  0  0  0  0  0  0
   -0.0000   -2.8283    0.9108 C   0  0  0  0  0  0  0  0  0  0  0  0
    1.0929   -3.0844   -0.0131 C   0  0  0  0  0  0  0  0  0  0  0  0
    1.5337   -4.4254   -0.2187 C   0  0  0  0  0  0  0  0  0  0  0  0
    2.3680   -4.5912   -0.9204 H   0  0  0  0  0  0  0  0  0  0  0  0
    0.9518   -5.5035    0.4329 C   0  0  0  0  0  0  0  0  0  0  0  0
    1.3091   -6.5276    0.2542 H   0  0  0  0  0  0  0  0  0  0  0  0
   -0.1064   -5.2559    1.3422 C   0  0  0  0  0  0  0  0  0  0  0  0
   -0.5757   -6.0990    1.8740 H   0  0  0  0  0  0  0  0  0  0  0  0
   -0.5616   -3.9649    1.5769 C   0  0  0  0  0  0  0  0  0  0  0  0
   -1.3802   -3.7648    2.2839 H   0  0  0  0  0  0  0  0  0  0  0  0
    1.7582    1.0956   -2.3161 C   0  0  0  0  0  0  0  0  0  0  0  0
    1.1367    0.5548   -3.0569 H   0  0  0  0  0  0  0  0  0  0  0  0
    2.4629    1.7517   -2.8640 H   0  0  0  0  0  0  0  0  0  0  0  0
    1.0923    1.7457   -1.7120 H   0  0  0  0  0  0  0  0  0  0  0  0
    2.5236    0.1207   -1.4184 C   0  0  1  0  0  0  0  0  0  0  0  0
    3.2006   -0.5037   -2.0516 H   0  0  0  0  0  0  0  0  0  0  0  0
    3.3872    0.8622   -0.3764 C   0  0  0  0  0  0  0  0  0  0  0  0
    4.0204    1.5907   -0.9269 H   0  0  0  0  0  0  0  0  0  0  0  0
    2.7055    1.4511    0.2741 H   0  0  0  0  0  0  0  0  0  0  0  0
    4.2585   -0.0567    0.4767 C   0  0  0  0  0  0  0  0  0  0  0  0
    3.6431   -0.7474    1.0879 H   0  0  0  0  0  0  0  0  0  0  0  0
    4.8864    0.5292    1.1768 H   0  0  0  0  0  0  0  0  0  0  0  0
    4.9394   -0.6746   -0.1465 H   0  0  0  0  0  0  0  0  0  0  0  0
  2  3  1  0  0  0  0
  3  6  1  0  0  0  0
  4  3  1  0  0  0  0
  5  1  1  0  0  0  0
  5 13  1  0  0  0  0
  6  5  2  0  0  0  0
  7  6  1  0  0  0  0
  7  9  2  0  0  0  0
  8  7  1  0  0  0  0
  9 11  1  0  0  0  0
 10  9  1  0  0  0  0
 11 13  2  0  0  0  0
 11 12  1  0  0  0  0
 13 14  1  0  0  0  0
 15 18  1  0  0  0  0
 15 19  1  0  0  0  0
 16 15  1  0  0  0  0
 17 15  1  0  0  0  0
 19 20  1  6  0  0  0
 19  2  1  0  0  0  0
 19 21  1  0  0  0  0
 21 23  1  0  0  0  0
 21 24  1  0  0  0  0
 22 21  1  0  0  0  0
 24 25  1  0  0  0  0
 24 26  1  0  0  0  0
 27 24  1  0  0  0  0
M  CHG  1   1  -1
M  END
