6,7
q = -1.0

 41 43  0  0  1  0  0  0  0  0999 V2000
    1.8184    0.1083   -1.5951 F   0  0  0  0  0  0  0  0  0  0  0  0
    4.3761    0.9133   -2.0265 F   0  0  0  0  0  0  0  0  0  0  0  0
    5.3170    3.1976   -0.8536 F   0  0  0  0  0  0  0  0  0  0  0  0
    3.6550    4.7185    0.7140 F   0  0  0  0  0  0  0  0  0  0  0  0
    1.1057    3.8940    1.1910 F   0  0  0  0  0  0  0  0  0  0  0  0
   -1.4215    0.2979    2.1139 O   0  5  0  0  0  0  0  0  0  0  0  0
    0.1583    1.4220    0.2779 N   0  0  0  0  0  2  0  0  0  0  0  0
   -0.9412    2.0217   -0.1419 C   0  0  2  0  0  3  0  0  0  0  0  0
   -0.8375    3.0844   -1.1935 C   0  0  0  0  0  0  0  0  0  0  0  0
   -0.4333    2.7451   -2.5010 C   0  0  0  0  0  0  0  0  0  0  0  0
   -0.2280    1.6940   -2.7464 H   0  0  0  0  0  0  0  0  0  0  0  0
   -0.3143    3.7434   -3.4777 C   0  0  0  0  0  0  0  0  0  0  0  0
   -0.0072    3.4714   -4.4987 H   0  0  0  0  0  0  0  0  0  0  0  0
   -0.5841    5.0831   -3.1553 C   0  0  0  0  0  0  0  0  0  0  0  0
   -0.4826    5.8658   -3.9223 H   0  0  0  0  0  0  0  0  0  0  0  0
   -0.9868    5.4228   -1.8538 C   0  0  0  0  0  0  0  0  0  0  0  0
   -1.1978    6.4717   -1.5966 H   0  0  0  0  0  0  0  0  0  0  0  0
   -1.1237    4.4275   -0.8762 C   0  0  0  0  0  0  0  0  0  0  0  0
   -1.4367    4.6872    0.1455 H   0  0  0  0  0  0  0  0  0  0  0  0
   -2.2685    1.7055    0.3709 C   0  0  0  0  0  0  0  0  0  0  0  0
   -3.4250    2.2237   -0.2748 C   0  0  0  0  0  0  0  0  0  0  0  0
   -3.2984    2.8050   -1.1987 H   0  0  0  0  0  0  0  0  0  0  0  0
   -4.7111    1.9797    0.2101 C   0  0  0  0  0  0  0  0  0  0  0  0
   -4.8399    1.2394    1.4128 C   0  0  0  0  0  0  0  0  0  0  0  0
   -5.8473    1.0602    1.8234 H   0  0  0  0  0  0  0  0  0  0  0  0
   -3.7430    0.6980    2.0882 C   0  0  0  0  0  0  0  0  0  0  0  0
   -2.4410    0.8916    1.5345 C   0  0  0  0  0  0  0  0  0  0  0  0
   -5.9344    2.4433   -0.5374 C   0  0  0  0  0  0  0  0  0  0  0  0
   -5.6862    3.2188   -1.2875 H   0  0  0  0  0  0  0  0  0  0  0  0
   -6.7031    2.8551    0.1471 H   0  0  0  0  0  0  0  0  0  0  0  0
   -6.3988    1.5907   -1.0773 H   0  0  0  0  0  0  0  0  0  0  0  0
   -3.8727   -0.1141    3.3453 C   0  0  0  0  0  0  0  0  0  0  0  0
   -4.9275   -0.1906    3.6686 H   0  0  0  0  0  0  0  0  0  0  0  0
   -3.2752    0.3336    4.1660 H   0  0  0  0  0  0  0  0  0  0  0  0
   -3.4692   -1.1370    3.2051 H   0  0  0  0  0  0  0  0  0  0  0  0
    1.4077    1.9489   -0.1424 C   0  0  0  0  0  0  0  0  0  0  0  0
    2.2561    1.2269   -1.0006 C   0  0  0  0  0  0  0  0  0  0  0  0
    3.5674    1.6476   -1.2540 C   0  0  0  0  0  0  0  0  0  0  0  0
    4.0519    2.8196   -0.6511 C   0  0  0  0  0  0  0  0  0  0  0  0
    3.2052    3.5877    0.1640 C   0  0  0  0  0  0  0  0  0  0  0  0
    1.8961    3.1485    0.4149 C   0  0  0  0  0  0  0  0  0  0  0  0
  1 37  1  0  0  0  0
  2 38  1  0  0  0  0
  3 39  1  0  0  0  0
  8  7  1  1  0  0  0
  8 20  1  0  0  0  0
  9 18  1  0  0  0  0
  9  8  1  0  0  0  0
 10  9  2  0  0  0  0
 11 10  1  0  0  0  0
 12 14  2  0  0  0  0
 12 10  1  0  0  0  0
 13 12  1  0  0  0  0
 14 16  1  0  0  0  0
 15 14  1  0  0  0  0
 16 17  1  0  0  0  0
 16 18  2  0  0  0  0
 18 19  1  0  0  0  0
 20 27  1  0  0  0  0
 21 23  1  0  0  0  0
 21 20  2  0  0  0  0
 22 21  1  0  0  0  0
 23 24  2  0  0  0  0
 24 25  1  0  0  0  0
 24 26  1  0  0  0  0
 26 32  1  0  0  0  0
 27 26  2  0  0  0  0
 27  6  1  0  0  0  0
 28 30  1  0  0  0  0
 28 23  1  0  0  0  0
 29 28  1  0  0  0  0
 31 28  1  0  0  0  0
 32 33  1  0  0  0  0
 32 34  1  0  0  0  0
 35 32  1  0  0  0  0
 36  7  1  0  0  0  0
 36 41  1  0  0  0  0
 37 36  2  0  0  0  0
 38 37  1  0  0  0  0
 38 39  2  0  0  0  0
 39 40  1  0  0  0  0
 40 41  2  0  0  0  0
 40  4  1  0  0  0  0
 41  5  1  0  0  0  0
M  CHG  1   6  -1
M  END
