1,2
q = -1.0, confidence = 0.0

 35 37  0  0  0  0  0  0  0  0999 V2000
   -0.4634   -2.1010   -0.4676 N   0  0  0  0  0  2  0  0  0  0  0  0
   -1.8809    0.1347    0.4913 O   0  5  0  0  0  0  0  0  0  0  0  0
   -6.4745   -2.8718   -0.2935 O   0  0  0  0  0  0  0  0  0  0  0  0
    0.5908   -2.9985   -0.8126 C   0  0  0  0  0  0  0  0  0  0  0  0
    0.8139   -3.3442   -2.1411 C   0  0  0  0  0  0  0  0  0  0  0  0
    0.1434   -2.9406   -2.9143 H   0  0  0  0  0  0  0  0  0  0  0  0
    1.9230   -4.1522   -2.4990 C   0  0  0  0  0  0  0  0  0  0  0  0
    2.0899   -4.3996   -3.5583 H   0  0  0  0  0  0  0  0  0  0  0  0
    2.8043   -4.6038   -1.5295 C   0  0  0  0  0  0  0  0  0  0  0  0
    3.6796   -5.2115   -1.8056 H   0  0  0  0  0  0  0  0  0  0  0  0
    2.5858   -4.2994   -0.1534 C   0  0  0  0  0  0  0  0  0  0  0  0
    1.4475   -3.4998    0.2220 C   0  0  0  0  0  0  0  0  0  0  0  0
    1.2096   -3.2326    1.6000 C   0  0  0  0  0  0  0  0  0  0  0  0
    0.3396   -2.6189    1.8744 H   0  0  0  0  0  0  0  0  0  0  0  0
    2.0659   -3.7235    2.5743 C   0  0  0  0  0  0  0  0  0  0  0  0
    1.8706   -3.5084    3.6359 H   0  0  0  0  0  0  0  0  0  0  0  0
    3.2026   -4.4915    2.2081 C   0  0  0  0  0  0  0  0  0  0  0  0
    3.8824   -4.8675    2.9879 H   0  0  0  0  0  0  0  0  0  0  0  0
    3.4547   -4.7721    0.8733 C   0  0  0  0  0  0  0  0  0  0  0  0
    4.3313   -5.3731    0.5849 H   0  0  0  0  0  0  0  0  0  0  0  0
   -1.6880   -2.5944   -0.5386 C   0  0  0  0  0  0  0  0  0  0  0  0
   -1.7777   -3.6510   -0.8627 H   0  0  0  0  0  0  0  0  0  0  0  0
   -2.9171   -1.9334   -0.2219 C   0  0  0  0  0  0  0  0  0  0  0  0
   -2.9472   -0.5890    0.3062 C   0  0  0  0  0  0  0  0  0  0  0  0
   -4.2277   -0.0497    0.6325 C   0  0  0  0  0  0  0  0  0  0  0  0
   -4.2531    0.9753    1.0305 H   0  0  0  0  0  0  0  0  0  0  0  0
   -5.4027   -0.7727    0.4455 C   0  0  0  0  0  0  0  0  0  0  0  0
   -6.3618   -0.3036    0.7068 H   0  0  0  0  0  0  0  0  0  0  0  0
   -5.3659   -2.0942   -0.0785 C   0  0  0  0  0  0  0  0  0  0  0  0
   -4.1306   -2.6542   -0.3992 C   0  0  0  0  0  3  0  0  0  0  0  0
   -4.1066   -3.6809   -0.7957 H   0  0  0  0  0  0  0  0  0  0  0  0
   -7.7375   -2.3339    0.0272 C   0  0  0  0  0  0  0  0  0  0  0  0
   -8.4836   -3.1140   -0.2156 H   0  0  0  0  0  0  0  0  0  0  0  0
   -7.9719   -1.4201   -0.5670 H   0  0  0  0  0  0  0  0  0  0  0  0
   -7.8271   -2.0798    1.1090 H   0  0  0  0  0  0  0  0  0  0  0  0
  3 29  1  0  0  0  0
  3 32  1  0  0  0  0
  4  1  1  0  0  0  0
  4 12  1  0  0  0  0
  5  4  2  0  0  0  0
  6  5  1  0  0  0  0
  7  5  1  0  0  0  0
  7  9  2  0  0  0  0
  8  7  1  0  0  0  0
  9 11  1  0  0  0  0
 10  9  1  0  0  0  0
 11 12  2  0  0  0  0
 11 19  1  0  0  0  0
 12 13  1  0  0  0  0
 13 14  1  0  0  0  0
 13 15  2  0  0  0  0
 15 16  1  0  0  0  0
 17 15  1  0  0  0  0
 17 18  1  0  0  0  0
 19 17  2  0  0  0  0
 20 19  1  0  0  0  0
 21  1  1  0  0  0  0
 21 23  2  0  0  0  0
 22 21  1  0  0  0  0
 23 24  1  0  0  0  0
 24  2  1  0  0  0  0
 24 25  2  0  0  0  0
 25 26  1  0  0  0  0
 27 25  1  0  0  0  0
 27 28  1  0  0  0  0
 29 27  2  0  0  0  0
 30 23  1  0  0  0  0
 30 29  1  0  0  0  0
 31 30  1  0  0  0  0
 32 35  1  0  0  0  0
 33 32  1  0  0  0  0
 34 32  1  0  0  0  0
M  CHG  1   2  -1
M  END
