3,6
q = -1.0

 16 16  0  0  0  0  0  0  0  0999 V2000
    2.2646    3.0598   -0.3095 Cl  0  0  0  0  0  0  0  0  0  0  0  0
    6.2643   -0.5771    0.2105 Cl  0  0  0  0  0  0  0  0  0  0  0  0
    0.5592    0.7768   -0.4896 O   0  5  0  0  0  0  0  0  0  0  0  0
   -0.5775   -3.2776   -0.1850 O   0  0  0  0  0  0  0  0  0  0  0  0
   -1.5236   -3.0516    0.0534 H   0  0  0  0  0  0  0  0  0  0  0  0
    0.0692   -2.0896   -0.1126 N   0  0  0  0  0  2  0  0  0  0  0  0
    1.3692   -2.1162   -0.1684 C   0  0  0  0  0  3  0  0  0  0  0  0
    1.8164   -3.1246   -0.2041 H   0  0  0  0  0  0  0  0  0  0  0  0
    2.2487   -0.9741   -0.1530 C   0  0  0  0  0  0  0  0  0  0  0  0
    1.7937    0.3837   -0.2697 C   0  0  0  0  0  0  0  0  0  0  0  0
    2.7892    1.4123   -0.1987 C   0  0  0  0  0  0  0  0  0  0  0  0
    4.1456    1.1209   -0.0616 C   0  0  0  0  0  0  0  0  0  0  0  0
    4.8748    1.9406   -0.0188 H   0  0  0  0  0  0  0  0  0  0  0  0
    4.5668   -0.2212    0.0319 C   0  0  0  0  0  0  0  0  0  0  0  0
    3.6350   -1.2529   -0.0111 C   0  0  0  0  0  0  0  0  0  0  0  0
    3.9717   -2.2953    0.0741 H   0  0  0  0  0  0  0  0  0  0  0  0
  1 11  1  0  0  0  0
  3 10  1  0  0  0  0
  4  6  1  0  0  0  0
  4  5  1  0  0  0  0
  7  9  1  0  0  0  0
  7  6  1  0  0  0  0
  8  7  1  0  0  0  0
  9 15  1  0  0  0  0
 10 11  1  0  0  0  0
 10  9  2  0  0  0  0
 11 12  2  0  0  0  0
 12 13  1  0  0  0  0
 12 14  1  0  0  0  0
 14  2  1  0  0  0  0
 15 14  2  0  0  0  0
 15 16  1  0  0  0  0
M  CHG  1   3  -1
M  END
