1,3
q = -1.0

 26 27  0  0  1  0  0  0  0  0999 V2000
   -1.6513    0.6322   -1.3831 O   0  5  0  0  0  0  0  0  0  0  0  0
   -3.3637   -2.3941    1.2035 O   0  0  0  0  0  0  0  0  0  0  0  0
   -1.3972   -1.4406    0.6657 N   0  0  0  0  0  2  0  0  0  0  0  0
   -2.9237    0.4046   -1.2343 C   0  0  0  0  0  0  0  0  0  0  0  0
   -3.8363    1.1554   -2.0472 C   0  0  0  0  0  0  0  0  0  0  0  0
   -3.3867    1.8802   -2.7417 H   0  0  0  0  0  0  0  0  0  0  0  0
   -5.2116    0.9946   -1.9548 C   0  0  0  0  0  0  0  0  0  0  0  0
   -5.8713    1.6042   -2.5929 H   0  0  0  0  0  0  0  0  0  0  0  0
   -5.7747    0.0648   -1.0465 C   0  0  0  0  0  0  0  0  0  0  0  0
   -6.8649   -0.0565   -0.9722 H   0  0  0  0  0  0  0  0  0  0  0  0
   -4.9262   -0.6960   -0.2534 C   0  0  0  0  0  0  0  0  0  0  0  0
   -5.3371   -1.4330    0.4504 H   0  0  0  0  0  0  0  0  0  0  0  0
   -3.5094   -0.5592   -0.3244 C   0  0  0  0  0  0  0  0  0  0  0  0
   -2.7020   -1.4358    0.4933 C   0  0  2  0  0  3  0  0  0  0  0  0
   -2.4029   -3.0005    2.0916 C   0  0  0  0  0  0  0  0  0  0  0  0
   -2.5904   -4.0916    2.1153 H   0  0  0  0  0  0  0  0  0  0  0  0
   -2.5581   -2.5859    3.1119 H   0  0  0  0  0  0  0  0  0  0  0  0
   -1.0377   -2.6133    1.4907 C   0  0  1  0  0  0  0  0  0  0  0  0
   -0.3238   -2.2919    2.2765 H   0  0  0  0  0  0  0  0  0  0  0  0
   -0.3841   -3.7389    0.6672 C   0  0  0  0  0  0  0  0  0  0  0  0
    0.6183   -3.3974    0.3458 H   0  0  0  0  0  0  0  0  0  0  0  0
   -0.2037   -4.5869    1.3641 H   0  0  0  0  0  0  0  0  0  0  0  0
   -1.1944   -4.2028   -0.5423 C   0  0  0  0  0  0  0  0  0  0  0  0
   -2.1946   -4.5892   -0.2579 H   0  0  0  0  0  0  0  0  0  0  0  0
   -0.6655   -5.0119   -1.0836 H   0  0  0  0  0  0  0  0  0  0  0  0
   -1.3514   -3.3718   -1.2581 H   0  0  0  0  0  0  0  0  0  0  0  0
  1  4  1  0  0  0  0
  2 15  1  0  0  0  0
  3 18  1  0  0  0  0
  4 13  1  0  0  0  0
  5  7  1  0  0  0  0
  5  4  2  0  0  0  0
  6  5  1  0  0  0  0
  7  9  2  0  0  0  0
  8  7  1  0  0  0  0
  9 10  1  0  0  0  0
  9 11  1  0  0  0  0
 11 12  1  0  0  0  0
 13 11  2  0  0  0  0
 14 13  1  1  0  0  0
 14  3  1  0  0  0  0
 14  2  1  0  0  0  0
 15 16  1  0  0  0  0
 15 17  1  0  0  0  0
 18 15  1  0  0  0  0
 18 19  1  1  0  0  0
 20 22  1  0  0  0  0
 20 18  1  0  0  0  0
 21 20  1  0  0  0  0
 23 24  1  0  0  0  0
 23 20  1  0  0  0  0
 25 23  1  0  0  0  0
 26 23  1  0  0  0  0
M  CHG  1   1  -1
M  END
