1,2
q = -1.0

 26 27  0  0  1  0  0  0  0  0999 V2000
   -1.6977    1.1915   -1.1116 O   0  5  0  0  0  0  0  0  0  0  0  0
   -1.5685   -1.3043    0.4193 N   0  0  0  0  0  2  0  0  0  0  0  0
   -3.5475   -2.3692    0.4983 O   0  0  0  0  0  0  0  0  0  0  0  0
   -2.8585   -1.2384    0.1769 C   0  0  1  0  0  3  0  0  0  0  0  0
   -2.9795    1.0220   -0.9613 C   0  0  0  0  0  0  0  0  0  0  0  0
   -3.8515    2.0388   -1.4755 C   0  0  0  0  0  0  0  0  0  0  0  0
   -3.3636    2.9131   -1.9307 H   0  0  0  0  0  0  0  0  0  0  0  0
   -5.0403   -0.2163   -0.3211 C   0  0  0  0  0  0  0  0  0  0  0  0
   -5.4903   -1.1126    0.1284 H   0  0  0  0  0  0  0  0  0  0  0  0
   -3.6189   -0.1309   -0.3585 C   0  0  0  0  0  0  0  0  0  0  0  0
   -2.5694   -3.3932    0.7789 C   0  0  0  0  0  0  0  0  0  0  0  0
   -2.5031   -4.0607   -0.1072 H   0  0  0  0  0  0  0  0  0  0  0  0
   -2.9199   -3.9816    1.6494 H   0  0  0  0  0  0  0  0  0  0  0  0
   -5.2335    1.9326   -1.4064 C   0  0  0  0  0  0  0  0  0  0  0  0
   -5.8588    2.7445   -1.8112 H   0  0  0  0  0  0  0  0  0  0  0  0
   -1.2677   -2.6093    1.0380 C   0  0  2  0  0  0  0  0  0  0  0  0
   -0.4062   -3.0710    0.5117 H   0  0  0  0  0  0  0  0  0  0  0  0
   -5.8467    0.7959   -0.8249 C   0  0  0  0  0  0  0  0  0  0  0  0
   -6.9419    0.7136   -0.7742 H   0  0  0  0  0  0  0  0  0  0  0  0
   -0.9126   -2.4650    2.5260 C   0  0  0  0  0  0  0  0  0  0  0  0
   -0.1954   -1.6267    2.6235 H   0  0  0  0  0  0  0  0  0  0  0  0
   -1.8304   -2.1724    3.0831 H   0  0  0  0  0  0  0  0  0  0  0  0
   -0.2971   -3.7332    3.1140 C   0  0  0  0  0  0  0  0  0  0  0  0
   -0.9692   -4.6115    3.0127 H   0  0  0  0  0  0  0  0  0  0  0  0
   -0.0749   -3.6106    4.1923 H   0  0  0  0  0  0  0  0  0  0  0  0
    0.6567   -3.9784    2.6020 H   0  0  0  0  0  0  0  0  0  0  0  0
  1  5  1  0  0  0  0
  2 16  1  0  0  0  0
  3 11  1  0  0  0  0
  4 10  1  1  0  0  0
  4  2  1  0  0  0  0
  4  3  1  0  0  0  0
  5 10  1  0  0  0  0
  6 14  1  0  0  0  0
  6  5  2  0  0  0  0
  7  6  1  0  0  0  0
  8  9  1  0  0  0  0
 10  8  2  0  0  0  0
 11 16  1  0  0  0  0
 11 13  1  0  0  0  0
 12 11  1  0  0  0  0
 14 18  2  0  0  0  0
 15 14  1  0  0  0  0
 16 17  1  6  0  0  0
 16 20  1  0  0  0  0
 18 19  1  0  0  0  0
 18  8  1  0  0  0  0
 20 21  1  0  0  0  0
 20 22  1  0  0  0  0
 20 23  1  0  0  0  0
 23 25  1  0  0  0  0
 24 23  1  0  0  0  0
 26 23  1  0  0  0  0
M  CHG  1   1  -1
M  END
