1,5
q = -1.0

 22 22  0  0  1  0  0  0  0  0999 V2000
    2.0533    1.4558    0.9203 O   0  5  0  0  0  0  0  0  0  0  0  0
    1.8283    3.6373    1.0815 O   0  0  0  0  0  0  0  0  0  0  0  0
   -3.2807    1.8774    1.3283 O   0  0  0  0  0  0  0  0  0  0  0  0
   -3.9725    0.0636   -0.6523 O   0  0  0  0  0  0  0  0  0  0  0  0
    1.5557    1.3851   -1.7321 N   0  0  0  0  0  0  0  0  0  0  0  0
    1.8304    2.6393    0.3714 C   0  0  0  0  0  0  0  0  0  0  0  0
    1.6195    2.7285   -1.1547 C   0  0  2  0  0  0  0  0  0  0  0  0
    0.3525    3.5605   -1.4702 C   0  0  0  0  0  0  0  0  0  0  0  0
   -0.9158    2.7797   -1.2300 C   0  0  0  0  0  0  0  0  0  0  0  0
   -1.5387    2.7749   -0.0104 C   0  0  0  0  0  0  0  0  0  0  0  0
   -2.6945    1.9100    0.2494 C   0  0  0  0  0  0  0  0  0  0  0  0
   -3.1429    0.9343   -0.8884 C   0  0  0  0  0  0  0  0  0  0  0  0
   -2.4942    1.1044   -2.1983 C   0  0  0  0  0  0  0  0  0  0  0  0
   -1.4511    1.9690   -2.3354 C   0  0  0  0  0  0  0  0  0  0  0  0
    2.4973    0.9719   -1.8366 H   0  0  0  0  0  0  0  0  0  0  0  0
    1.1030    1.3791   -2.6527 H   0  0  0  0  0  0  0  0  0  0  0  0
    2.4912    3.3159   -1.5264 H   0  0  0  0  0  0  0  0  0  0  0  0
    0.3907    4.4627   -0.8296 H   0  0  0  0  0  0  0  0  0  0  0  0
    0.4001    3.8963   -2.5266 H   0  0  0  0  0  0  0  0  0  0  0  0
   -1.1822    3.4022    0.8216 H   0  0  0  0  0  0  0  0  0  0  0  0
   -2.8713    0.4968   -3.0348 H   0  0  0  0  0  0  0  0  0  0  0  0
   -0.9771    2.0874   -3.3247 H   0  0  0  0  0  0  0  0  0  0  0  0
  5  7  1  0  0  0  0
  6  1  1  0  0  0  0
  6  2  2  0  0  0  0
  7 17  1  6  0  0  0
  7  6  1  0  0  0  0
  8  9  1  0  0  0  0
  8  7  1  0  0  0  0
  8 18  1  0  0  0  0
  9 10  2  0  0  0  0
 10 11  1  0  0  0  0
 10 20  1  0  0  0  0
 11  3  2  0  0  0  0
 12  4  2  0  0  0  0
 12 11  1  0  0  0  0
 13 12  1  0  0  0  0
 14 13  2  0  0  0  0
 14  9  1  0  0  0  0
 15  5  1  0  0  0  0
 16  5  1  0  0  0  0
 19  8  1  0  0  0  0
 21 13  1  0  0  0  0
 22 14  1  0  0  0  0
M  CHG  1   1  -1
M  END
