1,6
q = 0.0, confidence = 0.994

 34 37  0  0  1  0  0  0  0  0999 V2000
    0.3248   -1.3043   -0.9921 O   0  5  0  0  0  0  0  0  0  0  0  0
    2.5685   -1.1416   -0.8456 N   0  0  0  0  0  0  0  0  0  0  0  0
    2.5655   -2.0890   -1.2354 H   0  0  0  0  0  0  0  0  0  0  0  0
   -0.1154    2.7992   -0.0365 N   0  0  0  0  0  0  0  0  0  0  0  0
    0.6636    3.4455   -0.1482 H   0  0  0  0  0  0  0  0  0  0  0  0
   -1.2201    0.8675   -0.0278 N   0  0  0  0  0  2  0  0  0  0  0  0
    1.3184   -0.6139   -0.6342 C   0  0  0  0  0  0  0  0  0  0  0  0
    3.7771   -0.5416   -0.5400 C   0  0  2  0  0  3  0  0  0  0  0  0
    5.0070   -1.1862   -0.7757 C   0  0  0  0  0  0  0  0  0  0  0  0
    5.0208   -2.1928   -1.2208 H   0  0  0  0  0  0  0  0  0  0  0  0
    6.1976   -0.5444   -0.4355 C   0  0  0  0  0  0  0  0  0  0  0  0
    7.1536   -1.0587   -0.6195 H   0  0  0  0  0  0  0  0  0  0  0  0
    6.2087    0.7522    0.1440 C   0  0  0  0  0  0  0  0  0  0  0  0
    7.5148    1.4116    0.5048 C   0  0  0  0  0  0  0  0  0  0  0  0
    7.3600    2.4227    0.9270 H   0  0  0  0  0  0  0  0  0  0  0  0
    8.1748    1.5093   -0.3821 H   0  0  0  0  0  0  0  0  0  0  0  0
    8.0722    0.8125    1.2548 H   0  0  0  0  0  0  0  0  0  0  0  0
    4.9811    1.3825    0.3666 C   0  0  0  0  0  0  0  0  0  0  0  0
    4.9557    2.3885    0.8145 H   0  0  0  0  0  0  0  0  0  0  0  0
    3.7491    0.7625    0.0347 C   0  0  0  0  0  0  0  0  0  0  0  0
    2.4739    1.3765    0.2386 C   0  0  0  0  0  0  0  0  0  0  0  0
    2.4572    2.3840    0.6833 H   0  0  0  0  0  0  0  0  0  0  0  0
    1.2810    0.7404   -0.0730 C   0  0  0  0  0  0  0  0  0  0  0  0
    0.0031    1.4279   -0.0173 C   0  0  1  0  0  3  0  0  0  0  0  0
   -1.4581    3.1304   -0.0977 C   0  0  0  0  0  0  0  0  0  0  0  0
   -2.1206    4.3654   -0.1761 C   0  0  0  0  0  0  0  0  0  0  0  0
   -1.5715    5.3180   -0.1766 H   0  0  0  0  0  0  0  0  0  0  0  0
   -3.5164    4.3205   -0.2627 C   0  0  0  0  0  0  0  0  0  0  0  0
   -4.0791    5.2638   -0.3266 H   0  0  0  0  0  0  0  0  0  0  0  0
   -4.2212    3.0903   -0.2786 C   0  0  0  0  0  0  0  0  0  0  0  0
   -5.3180    3.1054   -0.3594 H   0  0  0  0  0  0  0  0  0  0  0  0
   -3.5640    1.8599   -0.1996 C   0  0  0  0  0  0  0  0  0  0  0  0
   -4.0876    0.8953   -0.2030 H   0  0  0  0  0  0  0  0  0  0  0  0
   -2.1607    1.8915   -0.0964 C   0  0  0  0  0  0  0  0  0  0  0  0
  1  7  1  0  0  0  0
  2  7  1  0  0  0  0
  2  8  1  0  0  0  0
  3  2  1  0  0  0  0
  4 24  1  0  0  0  0
  5  4  1  0  0  0  0
  6 24  1  0  0  0  0
  7 23  2  0  0  0  0
  8  9  1  1  0  0  0
  8 20  1  0  0  0  0
  9 11  2  0  0  0  0
 10  9  1  0  0  0  0
 11 13  1  0  0  0  0
 12 11  1  0  0  0  0
 13 18  2  0  0  0  0
 13 14  1  0  0  0  0
 14 15  1  0  0  0  0
 14 17  1  0  0  0  0
 16 14  1  0  0  0  0
 18 19  1  0  0  0  0
 20 21  2  0  0  0  0
 20 18  1  0  0  0  0
 21 22  1  0  0  0  0
 23 21  1  0  0  0  0
 24 23  1  6  0  0  0
 25 34  1  0  0  0  0
 25  4  1  0  0  0  0
 26 25  2  0  0  0  0
 27 26  1  0  0  0  0
 28 26  1  0  0  0  0
 29 28  1  0  0  0  0
 30 28  2  0  0  0  0
 30 32  1  0  0  0  0
 31 30  1  0  0  0  0
 32 34  2  0  0  0  0
 33 32  1  0  0  0  0
 34  6  1  0  0  0  0
M  CHG  1   1  -1
M  END
