3,4
q = 0.0, confidence = 0.976

 34 37  0  0  1  0  0  0  0  0999 V2000
    5.1521   -3.1071   -0.0751 Br  0  0  0  0  0  0  0  0  0  0  0  0
    5.3983    0.2639   -0.1169 Br  0  0  0  0  0  0  0  0  0  0  0  0
   -2.2821    1.4166   -0.9287 O   0  5  0  0  0  0  0  0  0  0  0  0
    0.0290    0.0983    0.0432 N   0  0  0  0  0  2  0  0  0  0  0  0
   -0.1299   -2.1215    0.0363 N   0  0  0  0  0  0  0  0  0  0  0  0
   -0.5463   -3.0435   -0.0804 H   0  0  0  0  0  0  0  0  0  0  0  0
   -4.2409    0.3136   -0.8105 N   0  0  0  0  0  0  0  0  0  0  0  0
   -4.6389    1.1869   -1.1697 H   0  0  0  0  0  0  0  0  0  0  0  0
    3.6060   -2.0133   -0.0370 C   0  0  0  0  0  0  0  0  0  0  0  0
    2.3593   -2.6545   -0.0013 C   0  0  0  0  0  0  0  0  0  0  0  0
    2.2970   -3.7505   -0.0014 H   0  0  0  0  0  0  0  0  0  0  0  0
    1.2237   -1.8359    0.0276 C   0  0  0  0  0  0  0  0  0  0  0  0
   -0.8312   -0.9354    0.0274 C   0  0  2  0  0  3  0  0  0  0  0  0
    1.3181   -0.4172    0.0278 C   0  0  0  0  0  0  0  0  0  0  0  0
    2.5672    0.2221   -0.0201 C   0  0  0  0  0  0  0  0  0  0  0  0
    2.6231    1.3186   -0.0346 H   0  0  0  0  0  0  0  0  0  0  0  0
    3.7072   -0.5881   -0.0497 C   0  0  0  0  0  0  0  0  0  0  0  0
   -2.8868    0.3603   -0.5936 C   0  0  0  0  0  0  0  0  0  0  0  0
   -2.2787   -0.8623   -0.0581 C   0  0  0  0  0  0  0  0  0  0  0  0
   -3.0889   -1.9542    0.2173 C   0  0  0  0  0  0  0  0  0  0  0  0
   -2.6497   -2.8707    0.6418 H   0  0  0  0  0  0  0  0  0  0  0  0
   -4.5021   -1.9367    0.0033 C   0  0  0  0  0  0  0  0  0  0  0  0
   -5.3535   -3.0326    0.2983 C   0  0  0  0  0  0  0  0  0  0  0  0
   -4.9039   -3.9449    0.7209 H   0  0  0  0  0  0  0  0  0  0  0  0
   -6.7312   -2.9784    0.0706 C   0  0  0  0  0  0  0  0  0  0  0  0
   -7.6343   -4.1410    0.3920 C   0  0  0  0  0  0  0  0  0  0  0  0
   -8.3900   -3.8615    1.1554 H   0  0  0  0  0  0  0  0  0  0  0  0
   -7.0649   -5.0065    0.7807 H   0  0  0  0  0  0  0  0  0  0  0  0
   -8.1941   -4.4757   -0.5059 H   0  0  0  0  0  0  0  0  0  0  0  0
   -7.2707   -1.7825   -0.4748 C   0  0  0  0  0  0  0  0  0  0  0  0
   -8.3539   -1.7189   -0.6614 H   0  0  0  0  0  0  0  0  0  0  0  0
   -6.4663   -0.6849   -0.7784 C   0  0  0  0  0  0  0  0  0  0  0  0
   -6.9059    0.2331   -1.1972 H   0  0  0  0  0  0  0  0  0  0  0  0
   -5.0796   -0.7516   -0.5395 C   0  0  1  0  0  3  0  0  0  0  0  0
  1  9  1  0  0  0  0
  2 17  1  0  0  0  0
  3 18  1  0  0  0  0
  6  5  1  0  0  0  0
  7 18  1  0  0  0  0
  7 34  1  0  0  0  0
  8  7  1  0  0  0  0
  9 10  1  0  0  0  0
 10 12  2  0  0  0  0
 11 10  1  0  0  0  0
 12 14  1  0  0  0  0
 12  5  1  0  0  0  0
 13 19  1  6  0  0  0
 13  5  1  0  0  0  0
 13  4  1  0  0  0  0
 14  4  1  0  0  0  0
 15 14  2  0  0  0  0
 16 15  1  0  0  0  0
 17  9  2  0  0  0  0
 17 15  1  0  0  0  0
 18 19  2  0  0  0  0
 19 20  1  0  0  0  0
 20 21  1  0  0  0  0
 22 20  2  0  0  0  0
 22 23  1  0  0  0  0
 23 24  1  0  0  0  0
 25 23  2  0  0  0  0
 25 26  1  0  0  0  0
 26 28  1  0  0  0  0
 26 27  1  0  0  0  0
 29 26  1  0  0  0  0
 30 25  1  0  0  0  0
 31 30  1  0  0  0  0
 32 30  2  0  0  0  0
 33 32  1  0  0  0  0
 34 32  1  1  0  0  0
 34 22  1  0  0  0  0
M  CHG  1   3  -1
M  END
