3,9
q = 0.0, confidence = 0.98

 34 37  0  0  1  0  0  0  0  0999 V2000
   -5.8722    0.8894   -0.1582 Cl  0  0  0  0  0  0  0  0  0  0  0  0
   -5.1809    3.9693   -0.1424 Cl  0  0  0  0  0  0  0  0  0  0  0  0
    1.4190   -1.4684   -0.9242 O   0  5  0  0  0  0  0  0  0  0  0  0
    0.3231    1.0774    0.0056 C   0  0  1  0  0  3  0  0  0  0  0  0
    3.5180   -0.6652   -0.7960 N   0  0  0  0  0  0  0  0  0  0  0  0
    3.7858   -1.5904   -1.1459 H   0  0  0  0  0  0  0  0  0  0  0  0
   -0.1965    2.3536    0.0019 N   0  0  0  0  0  0  0  0  0  0  0  0
    0.3518    3.2033   -0.1187 H   0  0  0  0  0  0  0  0  0  0  0  0
   -0.6800    0.1816    0.0228 N   0  0  0  0  0  2  0  0  0  0  0  0
    4.1015    1.5281    0.0062 C   0  0  0  0  0  0  0  0  0  0  0  0
    4.5025    0.2668   -0.5240 C   0  0  1  0  0  3  0  0  0  0  0  0
   -1.5772    2.2703   -0.0131 C   0  0  0  0  0  0  0  0  0  0  0  0
    2.7047    1.7552    0.2075 C   0  0  0  0  0  0  0  0  0  0  0  0
    2.4018    2.7293    0.6227 H   0  0  0  0  0  0  0  0  0  0  0  0
    1.7446    0.7924   -0.0680 C   0  0  0  0  0  0  0  0  0  0  0  0
   -4.2148    1.3987   -0.0944 C   0  0  0  0  0  0  0  0  0  0  0  0
   -1.8793    0.8804   -0.0037 C   0  0  0  0  0  0  0  0  0  0  0  0
   -3.2083    0.4300   -0.0533 C   0  0  0  0  0  0  0  0  0  0  0  0
   -3.4315   -0.6448   -0.0589 H   0  0  0  0  0  0  0  0  0  0  0  0
   -3.9049    2.7952   -0.0919 C   0  0  0  0  0  0  0  0  0  0  0  0
   -2.5792    3.2478   -0.0541 C   0  0  0  0  0  0  0  0  0  0  0  0
   -2.3637    4.3240   -0.0619 H   0  0  0  0  0  0  0  0  0  0  0  0
    5.8661   -0.0054   -0.7496 C   0  0  0  0  0  0  0  0  0  0  0  0
    6.1688   -0.9813   -1.1587 H   0  0  0  0  0  0  0  0  0  0  0  0
    6.8211    0.9637   -0.4449 C   0  0  0  0  0  0  0  0  0  0  0  0
    7.8846    0.7395   -0.6209 H   0  0  0  0  0  0  0  0  0  0  0  0
    6.4594    2.2299    0.0883 C   0  0  0  0  0  0  0  0  0  0  0  0
    7.5213    3.2488    0.4115 C   0  0  0  0  0  0  0  0  0  0  0  0
    8.2233    2.8649    1.1809 H   0  0  0  0  0  0  0  0  0  0  0  0
    7.0828    4.1903    0.7933 H   0  0  0  0  0  0  0  0  0  0  0  0
    8.1297    3.4937   -0.4838 H   0  0  0  0  0  0  0  0  0  0  0  0
    5.1029    2.4884    0.3026 C   0  0  0  0  0  0  0  0  0  0  0  0
    4.7893    3.4601    0.7158 H   0  0  0  0  0  0  0  0  0  0  0  0
    2.1703   -0.5102   -0.5906 C   0  0  0  0  0  0  0  0  0  0  0  0
  1 16  1  0  0  0  0
  2 20  1  0  0  0  0
  3 34  1  0  0  0  0
  4 15  1  6  0  0  0
  4  9  1  0  0  0  0
  5 34  1  0  0  0  0
  5 11  1  0  0  0  0
  6  5  1  0  0  0  0
  7  4  1  0  0  0  0
  8  7  1  0  0  0  0
 10 13  2  0  0  0  0
 10 32  1  0  0  0  0
 11 23  1  1  0  0  0
 11 10  1  0  0  0  0
 12 17  1  0  0  0  0
 12  7  1  0  0  0  0
 13 14  1  0  0  0  0
 15 13  1  0  0  0  0
 16 20  2  0  0  0  0
 16 18  1  0  0  0  0
 17  9  1  0  0  0  0
 18 17  2  0  0  0  0
 19 18  1  0  0  0  0
 20 21  1  0  0  0  0
 21 12  2  0  0  0  0
 22 21  1  0  0  0  0
 23 25  2  0  0  0  0
 24 23  1  0  0  0  0
 25 27  1  0  0  0  0
 26 25  1  0  0  0  0
 27 32  2  0  0  0  0
 27 28  1  0  0  0  0
 28 30  1  0  0  0  0
 28 29  1  0  0  0  0
 31 28  1  0  0  0  0
 32 33  1  0  0  0  0
 34 15  2  0  0  0  0
M  CHG  1   3  -1
M  END
