1,4
q = -1.0

 26 26  0  0  0  0  0  0  0  0999 V2000
   -0.3878   -0.0893   -1.3732 O   0  5  0  0  0  0  0  0  0  0  0  0
   -3.0484    0.2225    1.4762 O   0  0  0  0  0  0  0  0  0  0  0  0
   -2.5796   -0.2261    2.2124 H   0  0  0  0  0  0  0  0  0  0  0  0
   -1.7066    1.8890   -0.1017 N   0  0  0  0  0  2  0  0  0  0  0  0
    1.9488   -1.0909   -2.0164 O   0  0  0  0  0  0  0  0  0  0  0  0
    0.6348    0.7418   -1.3519 C   0  0  0  0  0  0  0  0  0  0  0  0
    1.9224    0.2312   -1.7389 C   0  0  0  0  0  0  0  0  0  0  0  0
   -0.7048    2.6395   -0.4685 C   0  0  0  0  0  3  0  0  0  0  0  0
   -0.7988    3.7383   -0.3531 H   0  0  0  0  0  0  0  0  0  0  0  0
    0.5339    2.1238   -0.9839 C   0  0  0  0  0  0  0  0  0  0  0  0
   -3.1249    1.6397    1.8073 C   0  0  0  0  0  0  0  0  0  0  0  0
   -2.3158    1.8909    2.5229 H   0  0  0  0  0  0  0  0  0  0  0  0
   -4.1129    1.8527    2.2629 H   0  0  0  0  0  0  0  0  0  0  0  0
   -2.9271    2.4015    0.5023 C   0  0  0  0  0  0  0  0  0  0  0  0
   -3.7849    2.2038   -0.1768 H   0  0  0  0  0  0  0  0  0  0  0  0
   -2.8788    3.4958    0.6883 H   0  0  0  0  0  0  0  0  0  0  0  0
    3.0247    1.0975   -1.8003 C   0  0  0  0  0  0  0  0  0  0  0  0
    4.0096    0.7096   -2.0932 H   0  0  0  0  0  0  0  0  0  0  0  0
    1.6641    2.9794   -1.0769 C   0  0  0  0  0  0  0  0  0  0  0  0
    1.5610    4.0392   -0.7994 H   0  0  0  0  0  0  0  0  0  0  0  0
    2.8924    2.4672   -1.4793 C   0  0  0  0  0  0  0  0  0  0  0  0
    3.7736    3.1218   -1.5407 H   0  0  0  0  0  0  0  0  0  0  0  0
    3.1991   -1.6868   -2.3285 C   0  0  0  0  0  0  0  0  0  0  0  0
    3.0003   -2.7634   -2.4773 H   0  0  0  0  0  0  0  0  0  0  0  0
    3.9254   -1.5649   -1.4952 H   0  0  0  0  0  0  0  0  0  0  0  0
    3.6349   -1.2649   -3.2607 H   0  0  0  0  0  0  0  0  0  0  0  0
  1  6  1  0  0  0  0
  2 11  1  0  0  0  0
  2  3  1  0  0  0  0
  4 14  1  0  0  0  0
  5  7  1  0  0  0  0
  6 10  1  0  0  0  0
  7  6  2  0  0  0  0
  8  9  1  0  0  0  0
  8  4  1  0  0  0  0
 10  8  1  0  0  0  0
 11 13  1  0  0  0  0
 11 12  1  0  0  0  0
 14 16  1  0  0  0  0
 14 11  1  0  0  0  0
 15 14  1  0  0  0  0
 17  7  1  0  0  0  0
 17 21  2  0  0  0  0
 18 17  1  0  0  0  0
 19 10  2  0  0  0  0
 19 20  1  0  0  0  0
 21 19  1  0  0  0  0
 22 21  1  0  0  0  0
 23  5  1  0  0  0  0
 23 25  1  0  0  0  0
 24 23  1  0  0  0  0
 26 23  1  0  0  0  0
M  CHG  1   1  -1
M  END
