1,3
q = -1.0

 14 14  0  0  0  0  0  0  0  0999 V2000
    0.7143   -1.7420   -0.3187 O   0  5  0  0  0  0  0  0  0  0  0  0
    2.2698   -3.2002   -0.9921 O   0  0  0  0  0  0  0  0  0  0  0  0
    1.7170    0.7265    0.2608 N   0  0  0  0  0  2  0  0  0  0  0  0
    3.4319    1.8966    0.9642 N   0  0  0  0  0  0  0  0  0  0  0  0
    2.0872    1.7304    1.0581 C   0  0  0  0  0  3  0  0  0  0  0  0
    3.9359    0.9651    0.0699 C   0  0  0  0  0  0  0  0  0  0  0  0
    2.8471    0.2357   -0.3748 C   0  0  0  0  0  0  0  0  0  0  0  0
    2.7086   -0.8526   -1.3816 C   0  0  0  0  0  0  0  0  0  0  0  0
    1.8807   -2.0479   -0.8659 C   0  0  0  0  0  0  0  0  0  0  0  0
    1.4072    2.3426    1.6585 H   0  0  0  0  0  0  0  0  0  0  0  0
    3.9742    2.5995    1.4660 H   0  0  0  0  0  0  0  0  0  0  0  0
    4.9977    0.9075   -0.1842 H   0  0  0  0  0  0  0  0  0  0  0  0
    3.6923   -1.2244   -1.7187 H   0  0  0  0  0  0  0  0  0  0  0  0
    2.1688   -0.4261   -2.2578 H   0  0  0  0  0  0  0  0  0  0  0  0
  2  9  2  0  0  0  0
  3  5  1  0  0  0  0
  4  5  1  0  0  0  0
  4 11  1  0  0  0  0
  5 10  1  0  0  0  0
  6  4  1  0  0  0  0
  7  6  2  0  0  0  0
  7  3  1  0  0  0  0
  8  9  1  0  0  0  0
  8  7  1  0  0  0  0
  9  1  1  0  0  0  0
 12  6  1  0  0  0  0
 13  8  1  0  0  0  0
 14  8  1  0  0  0  0
M  CHG  1   1  -1
M  END
