1,14
q = -1.0

 16 16  0  0  1  0  0  0  0  0999 V2000
    0.7674   -1.1695    0.0008 N   0  0  0  0  0  2  0  0  0  0  0  0
    0.7050   -2.1951    0.0006 H   0  0  0  0  0  0  0  0  0  0  0  0
    2.0746   -0.7623    0.0006 C   0  0  0  0  0  0  0  0  0  0  0  0
    3.1058   -1.7451    0.0001 C   0  0  0  0  0  0  0  0  0  0  0  0
    2.8130   -2.8066   -0.0001 H   0  0  0  0  0  0  0  0  0  0  0  0
    4.4513   -1.3908   -0.0003 C   0  0  0  0  0  0  0  0  0  0  0  0
    5.2171   -2.1811   -0.0008 H   0  0  0  0  0  0  0  0  0  0  0  0
    4.8374   -0.0333   -0.0002 C   0  0  0  0  0  0  0  0  0  0  0  0
    5.9009    0.2442   -0.0005 H   0  0  0  0  0  0  0  0  0  0  0  0
    3.8528    0.9520    0.0004 C   0  0  0  0  0  0  0  0  0  0  0  0
    4.1277    2.0155    0.0006 H   0  0  0  0  0  0  0  0  0  0  0  0
    2.4779    0.6156    0.0009 C   0  0  0  0  0  0  0  0  0  0  0  0
    1.4748    1.6715    0.0018 C   0  0  1  0  0  3  0  0  0  0  0  0
    0.2423    1.4821    0.0023 O   0  0  0  0  0  1  0  0  0  0  0  0
    1.9380    2.9246    0.0023 O   0  0  0  0  0  0  0  0  0  0  0  0
    1.1495    3.5111    0.0029 H   0  0  0  0  0  0  0  0  0  0  0  0
  2  1  1  0  0  0  0
  3  1  1  0  0  0  0
  3 12  1  0  0  0  0
  4  3  2  0  0  0  0
  5  4  1  0  0  0  0
  6  8  2  0  0  0  0
  6  4  1  0  0  0  0
  7  6  1  0  0  0  0
  8 10  1  0  0  0  0
  9  8  1  0  0  0  0
 10 11  1  0  0  0  0
 10 12  2  0  0  0  0
 12 13  1  0  0  0  0
 13 14  1  1  0  0  0
 13 15  1  0  0  0  0
 15 16  1  0  0  0  0
M  END
