11,13
q = -1.0, confidence = 0.004

 19 19  0  0  1  0  0  0  0  0999 V2000
    1.7670   -0.8184   -1.2659 C   0  0  0  0  0  0  0  0  0  0  0  0
    2.8355   -0.6831   -0.3194 C   0  0  0  0  0  0  0  0  0  0  0  0
    3.9660   -1.5293   -0.4288 C   0  0  0  0  0  0  0  0  0  0  0  0
    4.7801   -1.4015    0.2978 H   0  0  0  0  0  0  0  0  0  0  0  0
    4.0507   -2.4988   -1.4278 C   0  0  0  0  0  0  0  0  0  0  0  0
    4.9337   -3.1517   -1.4881 H   0  0  0  0  0  0  0  0  0  0  0  0
    2.9998   -2.6334   -2.3589 C   0  0  0  0  0  0  0  0  0  0  0  0
    3.0569   -3.3961   -3.1506 H   0  0  0  0  0  0  0  0  0  0  0  0
    1.8828   -1.8021   -2.2818 C   0  0  0  0  0  0  0  0  0  0  0  0
    1.0504   -1.8823   -2.9956 H   0  0  0  0  0  0  0  0  0  0  0  0
    0.6584   -0.0742   -1.2894 O   0  5  0  0  0  0  0  0  0  0  0  0
    2.7827    0.3599    0.6949 C   0  0  2  0  0  3  0  0  0  0  0  0
    1.7091    1.0777    0.8829 N   0  0  0  0  0  2  0  0  0  0  0  0
    1.8105    1.8608    1.5424 H   0  0  0  0  0  0  0  0  0  0  0  0
    3.9441    0.5384    1.3772 O   0  0  0  0  0  0  0  0  0  0  0  0
    3.9746    1.5268    2.3951 C   0  0  0  0  0  0  0  0  0  0  0  0
    3.8083    2.5469    1.9820 H   0  0  0  0  0  0  0  0  0  0  0  0
    4.9841    1.4816    2.8420 H   0  0  0  0  0  0  0  0  0  0  0  0
    3.2155    1.3263    3.1838 H   0  0  0  0  0  0  0  0  0  0  0  0
  1  2  1  0  0  0  0
  2 12  1  0  0  0  0
  3  2  2  0  0  0  0
  3  4  1  0  0  0  0
  5  3  1  0  0  0  0
  6  5  1  0  0  0  0
  7  9  1  0  0  0  0
  7  5  2  0  0  0  0
  8  7  1  0  0  0  0
  9  1  2  0  0  0  0
 10  9  1  0  0  0  0
 11  1  1  0  0  0  0
 12 13  1  6  0  0  0
 12 15  1  0  0  0  0
 13 14  1  0  0  0  0
 15 16  1  0  0  0  0
 16 18  1  0  0  0  0
 16 19  1  0  0  0  0
 17 16  1  0  0  0  0
M  CHG  1  11  -1
M  END
