1,4
q = -1.0

 11 10  0  0  0  0  0  0  0  0999 V2000
   -1.9267   -0.5469    0.8287 O   0  5  0  0  0  0  0  0  0  0  0  0
   -4.1046   -0.1004    0.3707 O   0  0  0  0  0  0  0  0  0  0  0  0
   -0.8847    2.6222   -1.4747 O   0  0  0  0  0  0  0  0  0  0  0  0
   -1.1996    1.5332   -0.7137 N   0  0  0  0  0  2  0  0  0  0  0  0
   -2.9021    0.1267    0.2787 C   0  0  0  0  0  0  0  0  0  0  0  0
   -2.4644    1.3192   -0.5559 C   0  0  0  0  0  3  0  0  0  0  0  0
    0.5250    2.8795   -1.5041 C   0  0  0  0  0  0  0  0  0  0  0  0
   -3.2227    1.9818   -1.0094 H   0  0  0  0  0  0  0  0  0  0  0  0
    0.6319    3.7776   -2.1391 H   0  0  0  0  0  0  0  0  0  0  0  0
    0.9189    3.0838   -0.4869 H   0  0  0  0  0  0  0  0  0  0  0  0
    1.0811    2.0265   -1.9418 H   0  0  0  0  0  0  0  0  0  0  0  0
  3  4  1  0  0  0  0
  4  6  1  0  0  0  0
  5  2  2  0  0  0  0
  5  1  1  0  0  0  0
  6  5  1  0  0  0  0
  7  3  1  0  0  0  0
  7 10  1  0  0  0  0
  8  6  1  0  0  0  0
  9  7  1  0  0  0  0
 11  7  1  0  0  0  0
M  CHG  1   1  -1
M  END
