1,4
q = -1.0, confidence = 0.012

  8  7  0  0  0  0  0  0  0  0999 V2000
    1.8652   -1.0069    0.2292 O   0  5  0  0  0  0  0  0  0  0  0  0
    3.8178   -0.6050   -0.8687 O   0  0  0  0  0  0  0  0  0  0  0  0
    0.6599    2.7573   -0.6817 O   0  0  0  0  0  0  0  0  0  0  0  0
    1.0505    1.5116   -0.3971 N   0  0  0  0  0  2  0  0  0  0  0  0
    2.7271   -0.2560   -0.4405 C   0  0  0  0  0  0  0  0  0  0  0  0
    2.2684    1.1653   -0.6913 C   0  0  0  0  0  3  0  0  0  0  0  0
   -0.3619    2.8159   -0.4358 H   0  0  0  0  0  0  0  0  0  0  0  0
    2.9536    1.8793   -1.1800 H   0  0  0  0  0  0  0  0  0  0  0  0
  2  5  2  0  0  0  0
  3  7  1  0  0  0  0
  3  4  1  0  0  0  0
  5  1  1  0  0  0  0
  6  5  1  0  0  0  0
  6  4  1  0  0  0  0
  8  6  1  0  0  0  0
M  CHG  1   1  -1
M  END
