1,2
q = 0.0, confidence = 0.91

 27 30  0  0  0  0  0  0  0  0999 V2000
   -0.0067   -1.2892    0.3954 O   0  5  0  0  0  0  0  0  0  0  0  0
    0.0660    0.9936   -0.7142 N   0  0  0  0  0  2  0  0  0  0  0  0
    0.1362    1.8338   -1.3070 H   0  0  0  0  0  0  0  0  0  0  0  0
   -2.4876    2.4877   -1.3605 C   0  0  0  0  0  0  0  0  0  0  0  0
   -1.5584    3.0218   -1.6124 H   0  0  0  0  0  0  0  0  0  0  0  0
   -4.9180    2.4497   -1.3270 C   0  0  0  0  0  0  0  0  0  0  0  0
   -5.8853    2.9239   -1.5526 H   0  0  0  0  0  0  0  0  0  0  0  0
   -2.4271    1.2220   -0.7449 C   0  0  0  0  0  0  0  0  0  0  0  0
   -4.9065    1.1810   -0.6959 C   0  0  0  0  0  0  0  0  0  0  0  0
   -3.7216    3.0918   -1.6523 C   0  0  0  0  0  0  0  0  0  0  0  0
   -3.7413    4.0800   -2.1361 H   0  0  0  0  0  0  0  0  0  0  0  0
   -1.1770    0.5581   -0.4266 C   0  0  0  0  0  0  0  0  0  0  0  0
   -1.1554   -0.7372    0.2153 C   0  0  0  0  0  0  0  0  0  0  0  0
   -6.1107   -0.7235    0.2695 C   0  0  0  0  0  0  0  0  0  0  0  0
   -7.0528   -1.2290    0.5328 H   0  0  0  0  0  0  0  0  0  0  0  0
   -4.8710   -1.3816    0.5842 C   0  0  0  0  0  0  0  0  0  0  0  0
   -2.4023   -1.3956    0.5611 C   0  0  0  0  0  0  0  0  0  0  0  0
   -3.6516    0.5528   -0.3985 C   0  0  0  0  0  0  0  0  0  0  0  0
   -6.1269    0.5044   -0.3439 C   0  0  0  0  0  0  0  0  0  0  0  0
   -7.0824    0.9980   -0.5794 H   0  0  0  0  0  0  0  0  0  0  0  0
   -3.6247   -3.2770    1.5134 C   0  0  0  0  0  0  0  0  0  0  0  0
   -3.6216   -4.2616    2.0047 H   0  0  0  0  0  0  0  0  0  0  0  0
   -3.6356   -0.7350    0.2463 C   0  0  0  0  0  0  0  0  0  0  0  0
   -2.4092   -2.6547    1.1882 C   0  0  0  0  0  0  0  0  0  0  0  0
   -1.4429   -3.1279    1.4139 H   0  0  0  0  0  0  0  0  0  0  0  0
   -4.8384   -2.6497    1.2163 C   0  0  0  0  0  0  0  0  0  0  0  0
   -5.7922   -3.1370    1.4718 H   0  0  0  0  0  0  0  0  0  0  0  0
  2 12  1  0  0  0  0
  3  2  1  0  0  0  0
  4  8  1  0  0  0  0
  5  4  1  0  0  0  0
  6  9  2  0  0  0  0
  7  6  1  0  0  0  0
  8 12  2  0  0  0  0
  8 18  1  0  0  0  0
  9 18  1  0  0  0  0
  9 19  1  0  0  0  0
 10  4  2  0  0  0  0
 10  6  1  0  0  0  0
 11 10  1  0  0  0  0
 12 13  1  0  0  0  0
 13  1  1  0  0  0  0
 13 17  2  0  0  0  0
 14 15  1  0  0  0  0
 14 16  1  0  0  0  0
 16 26  2  0  0  0  0
 17 24  1  0  0  0  0
 18 23  2  0  0  0  0
 19 14  2  0  0  0  0
 20 19  1  0  0  0  0
 21 22  1  0  0  0  0
 23 17  1  0  0  0  0
 23 16  1  0  0  0  0
 24 25  1  0  0  0  0
 24 21  2  0  0  0  0
 26 27  1  0  0  0  0
 26 21  1  0  0  0  0
M  CHG  1   1  -1
M  END
