18,21
q = -1.0, confidence = 0.02

 22 22  0  0  1  0  0  0  0  0999 V2000
    2.3128    1.6081   -1.3650 C   0  0  0  0  0  0  0  0  0  0  0  0
    2.2603    0.0540   -1.3351 C   0  0  2  0  0  0  0  0  0  0  0  0
    2.1121   -0.2248   -0.2707 H   0  0  0  0  0  0  0  0  0  0  0  0
    3.5312   -0.6407   -1.8577 C   0  0  0  0  0  0  0  0  0  0  0  0
    3.2446   -1.5515   -2.4255 H   0  0  0  0  0  0  0  0  0  0  0  0
    4.0487    0.0466   -2.5580 H   0  0  0  0  0  0  0  0  0  0  0  0
    4.4467   -1.0352   -0.7158 C   0  0  0  0  0  0  0  0  0  0  0  0
    4.5315   -2.3771   -0.2953 C   0  0  0  0  0  0  0  0  0  0  0  0
    3.9836   -3.1571   -0.8492 H   0  0  0  0  0  0  0  0  0  0  0  0
    5.3163   -2.7354    0.8124 C   0  0  0  0  0  0  0  0  0  0  0  0
    5.3818   -3.7901    1.1200 H   0  0  0  0  0  0  0  0  0  0  0  0
    6.0252   -1.7499    1.5180 C   0  0  0  0  0  0  0  0  0  0  0  0
    6.6467   -2.0283    2.3824 H   0  0  0  0  0  0  0  0  0  0  0  0
    5.9488   -0.4093    1.1037 C   0  0  0  0  0  0  0  0  0  0  0  0
    6.5118    0.3666    1.6448 H   0  0  0  0  0  0  0  0  0  0  0  0
    5.1660   -0.0519   -0.0045 C   0  0  0  0  0  0  0  0  0  0  0  0
    5.0936    0.9972   -0.3296 H   0  0  0  0  0  0  0  0  0  0  0  0
    0.9907   -0.3613   -2.0235 N   0  0  0  0  0  0  0  0  0  0  0  0
    0.8284   -1.3708   -1.9040 H   0  0  0  0  0  0  0  0  0  0  0  0
    1.0586   -0.1811   -3.0380 H   0  0  0  0  0  0  0  0  0  0  0  0
    1.1259    2.1785   -1.2744 O   0  5  0  0  0  0  0  0  0  0  0  0
    3.3696    2.2141   -1.4397 O   0  0  0  0  0  0  0  0  0  0  0  0
  1  2  1  0  0  0  0
  1 21  1  0  0  0  0
  2  3  1  1  0  0  0
  4  2  1  0  0  0  0
  4  7  1  0  0  0  0
  5  4  1  0  0  0  0
  6  4  1  0  0  0  0
  7  8  2  0  0  0  0
  7 16  1  0  0  0  0
  8 10  1  0  0  0  0
  9  8  1  0  0  0  0
 10 11  1  0  0  0  0
 10 12  2  0  0  0  0
 12 13  1  0  0  0  0
 14 12  1  0  0  0  0
 14 15  1  0  0  0  0
 16 14  2  0  0  0  0
 17 16  1  0  0  0  0
 18 19  1  0  0  0  0
 18  2  1  0  0  0  0
 20 18  1  0  0  0  0
 22  1  2  0  0  0  0
M  CHG  1  21  -1
M  END
