2,3
q = 0.0, confidence = 0.954

 40 42  0  0  1  0  0  0  0  0999 V2000
    1.3441    0.0222   -0.0107 P   0  0  0  0  0  4  0  0  0  0  0  0
    0.2889    0.0607   -1.1579 O   0  0  0  0  0  1  0  0  0  0  0  0
   -1.4919   -1.4424    0.4868 N   0  0  0  0  0  2  0  0  0  0  0  0
   -0.3651   -1.8065    1.1742 C   0  0  2  0  0  3  0  0  0  0  0  0
   -0.1743   -3.1386    1.5756 C   0  0  0  0  0  0  0  0  0  0  0  0
   -1.1576   -4.1023    1.3164 C   0  0  0  0  0  0  0  0  0  0  0  0
   -2.3348   -3.6961    0.6720 C   0  0  0  0  0  0  0  0  0  0  0  0
   -2.4689   -2.3647    0.2750 C   0  0  0  0  0  0  0  0  0  0  0  0
    0.6330   -0.7310    1.5553 C   0  0  2  0  0  0  0  0  0  0  0  0
    0.0371    0.2996    2.5330 C   0  0  0  0  0  0  0  0  0  0  0  0
    2.6684   -1.1073   -0.5444 C   0  0  0  0  0  0  0  0  0  0  0  0
    4.0417   -0.8382   -0.3844 C   0  0  0  0  0  0  0  0  0  0  0  0
    4.9915   -1.7780   -0.8132 C   0  0  0  0  0  0  0  0  0  0  0  0
    4.5768   -2.9811   -1.4053 C   0  0  0  0  0  0  0  0  0  0  0  0
    3.2081   -3.2428   -1.5830 C   0  0  0  0  0  0  0  0  0  0  0  0
    2.2527   -2.3087   -1.1605 C   0  0  0  0  0  0  0  0  0  0  0  0
    2.0270    1.6470    0.4008 C   0  0  0  0  0  0  0  0  0  0  0  0
    2.9826    1.8191    1.4275 C   0  0  0  0  0  0  0  0  0  0  0  0
    3.4673    3.1022    1.7141 C   0  0  0  0  0  0  0  0  0  0  0  0
    2.9923    4.2094    0.9893 C   0  0  0  0  0  0  0  0  0  0  0  0
    2.0288    4.0356   -0.0155 C   0  0  0  0  0  0  0  0  0  0  0  0
    1.5393    2.7556   -0.3194 C   0  0  0  0  0  0  0  0  0  0  0  0
    0.7495   -3.4035    2.1100 H   0  0  0  0  0  0  0  0  0  0  0  0
   -1.0120   -5.1474    1.6268 H   0  0  0  0  0  0  0  0  0  0  0  0
   -3.1511   -4.4022    0.4645 H   0  0  0  0  0  0  0  0  0  0  0  0
   -3.3703   -1.9764   -0.2211 H   0  0  0  0  0  0  0  0  0  0  0  0
    1.4969   -1.2377    2.0345 H   0  0  0  0  0  0  0  0  0  0  0  0
   -0.3544   -0.2280    3.4252 H   0  0  0  0  0  0  0  0  0  0  0  0
    0.8021    1.0282    2.8601 H   0  0  0  0  0  0  0  0  0  0  0  0
   -0.7993    0.8513    2.0559 H   0  0  0  0  0  0  0  0  0  0  0  0
    4.3737    0.1129    0.0561 H   0  0  0  0  0  0  0  0  0  0  0  0
    6.0637   -1.5621   -0.6929 H   0  0  0  0  0  0  0  0  0  0  0  0
    5.3251   -3.7141   -1.7429 H   0  0  0  0  0  0  0  0  0  0  0  0
    2.8817   -4.1762   -2.0657 H   0  0  0  0  0  0  0  0  0  0  0  0
    1.1809   -2.4933   -1.3262 H   0  0  0  0  0  0  0  0  0  0  0  0
    3.3429    0.9587    2.0135 H   0  0  0  0  0  0  0  0  0  0  0  0
    4.2127    3.2408    2.5116 H   0  0  0  0  0  0  0  0  0  0  0  0
    3.3706    5.2167    1.2209 H   0  0  0  0  0  0  0  0  0  0  0  0
    1.6389    4.9042   -0.5669 H   0  0  0  0  0  0  0  0  0  0  0  0
    0.7476    2.6179   -1.0768 H   0  0  0  0  0  0  0  0  0  0  0  0
  1 17  1  0  0  0  0
  1  9  1  0  0  0  0
  2  1  1  0  0  0  0
  3  4  1  0  0  0  0
  4  9  1  1  0  0  0
  4  5  1  0  0  0  0
  5 23  1  0  0  0  0
  6  5  2  0  0  0  0
  6 24  1  0  0  0  0
  7  6  1  0  0  0  0
  8  3  1  0  0  0  0
  8  7  2  0  0  0  0
  9 27  1  1  0  0  0
  9 10  1  0  0  0  0
 10 29  1  0  0  0  0
 10 28  1  0  0  0  0
 11 12  1  0  0  0  0
 11  1  1  0  0  0  0
 12 31  1  0  0  0  0
 13 32  1  0  0  0  0
 13 12  2  0  0  0  0
 14 13  1  0  0  0  0
 15 14  2  0  0  0  0
 15 16  1  0  0  0  0
 16 11  2  0  0  0  0
 17 18  1  0  0  0  0
 18 19  2  0  0  0  0
 18 36  1  0  0  0  0
 19 37  1  0  0  0  0
 20 38  1  0  0  0  0
 20 19  1  0  0  0  0
 21 20  2  0  0  0  0
 22 21  1  0  0  0  0
 22 17  2  0  0  0  0
 25  7  1  0  0  0  0
 26  8  1  0  0  0  0
 30 10  1  0  0  0  0
 33 14  1  0  0  0  0
 34 15  1  0  0  0  0
 35 16  1  0  0  0  0
 39 21  1  0  0  0  0
 40 22  1  0  0  0  0
M  END
