1,4
q = 0.0, confidence = 0.982

 14 14  0  0  1  0  0  0  0  0999 V2000
    1.0452    0.5732   -1.9990 O   0  0  0  0  0  1  0  0  0  0  0  0
    2.6804   -0.3109   -3.2915 O   0  0  0  0  0  0  0  0  0  0  0  0
    2.1390    0.1483   -3.9698 H   0  0  0  0  0  0  0  0  0  0  0  0
    2.1346   -0.3530    0.2391 N   0  0  0  0  0  2  0  0  0  0  0  0
    2.7119   -0.7124    1.4005 C   0  0  0  0  0  3  0  0  0  0  0  0
    2.1745   -0.3825    2.3038 H   0  0  0  0  0  0  0  0  0  0  0  0
    3.9013   -1.4531    1.4335 C   0  0  0  0  0  0  0  0  0  0  0  0
    4.3379   -1.7210    2.4057 H   0  0  0  0  0  0  0  0  0  0  0  0
    4.5162   -1.8310    0.2279 C   0  0  0  0  0  0  0  0  0  0  0  0
    5.4458   -2.4184    0.2306 H   0  0  0  0  0  0  0  0  0  0  0  0
    3.9352   -1.4264   -0.9798 C   0  0  0  0  0  0  0  0  0  0  0  0
    4.3835   -1.6650   -1.9538 H   0  0  0  0  0  0  0  0  0  0  0  0
    2.7504   -0.6755   -0.9381 C   0  0  0  0  0  0  0  0  0  0  0  0
    2.0821   -0.0932   -2.1128 C   0  0  1  0  0  3  0  0  0  0  0  0
  2 14  1  0  0  0  0
  3  2  1  0  0  0  0
  4  5  1  0  0  0  0
  5  7  1  0  0  0  0
  5  6  1  0  0  0  0
  7  8  1  0  0  0  0
  9 10  1  0  0  0  0
  9  7  2  0  0  0  0
 11 13  2  0  0  0  0
 11  9  1  0  0  0  0
 12 11  1  0  0  0  0
 13  4  1  0  0  0  0
 14  1  1  1  0  0  0
 14 13  1  0  0  0  0
M  END
