2,4
q = -1.0

 32 32  0  0  0  0  0  0  0  0999 V2000
   -4.6289    1.1203    1.0446 Br  0  0  0  0  0  0  0  0  0  0  0  0
   -0.0611   -1.8428   -0.5721 N   0  0  0  0  0  2  0  0  0  0  0  0
    0.8346   -1.3805    2.2879 N   0  0  0  0  0  0  0  0  0  0  0  0
   -1.8674   -0.0367    0.4399 O   0  5  0  0  0  0  0  0  0  0  0  0
   -2.5113   -2.0462   -0.7298 C   0  0  0  0  0  0  0  0  0  0  0  0
   -2.7881   -0.8111   -0.0397 C   0  0  0  0  0  0  0  0  0  0  0  0
   -4.1787   -0.4842    0.1190 C   0  0  0  0  0  0  0  0  0  0  0  0
   -5.1990   -1.2910   -0.3797 C   0  0  0  0  0  0  0  0  0  0  0  0
   -6.2438   -0.9806   -0.2334 H   0  0  0  0  0  0  0  0  0  0  0  0
   -4.8965   -2.4900   -1.0625 C   0  0  0  0  0  0  0  0  0  0  0  0
   -5.7091   -3.1192   -1.4519 H   0  0  0  0  0  0  0  0  0  0  0  0
   -3.5648   -2.8589   -1.2224 C   0  0  0  0  0  3  0  0  0  0  0  0
   -3.3056   -3.7976   -1.7373 H   0  0  0  0  0  0  0  0  0  0  0  0
   -1.1560   -2.5002   -0.8615 C   0  0  0  0  0  0  0  0  0  0  0  0
   -1.0372   -3.5419   -1.2258 H   0  0  0  0  0  0  0  0  0  0  0  0
    1.1774   -2.6323   -0.6036 C   0  0  0  0  0  0  0  0  0  0  0  0
    1.0617   -3.4411   -1.3580 H   0  0  0  0  0  0  0  0  0  0  0  0
    2.0031   -1.9738   -0.9233 H   0  0  0  0  0  0  0  0  0  0  0  0
    1.5099   -3.2745    0.7525 C   0  0  0  0  0  0  0  0  0  0  0  0
    2.3868   -3.9368    0.5920 H   0  0  0  0  0  0  0  0  0  0  0  0
    0.6764   -3.9457    1.0557 H   0  0  0  0  0  0  0  0  0  0  0  0
    1.8776   -2.3187    1.8907 C   0  0  0  0  0  0  0  0  0  0  0  0
    2.2180   -2.9379    2.7673 H   0  0  0  0  0  0  0  0  0  0  0  0
    2.7575   -1.7207    1.5740 H   0  0  0  0  0  0  0  0  0  0  0  0
   -0.3811   -1.9995    2.7812 C   0  0  0  0  0  0  0  0  0  0  0  0
   -0.2230   -2.5872    3.7250 H   0  0  0  0  0  0  0  0  0  0  0  0
   -1.1384   -1.2153    2.9794 H   0  0  0  0  0  0  0  0  0  0  0  0
   -0.8147   -2.6789    2.0224 H   0  0  0  0  0  0  0  0  0  0  0  0
    1.3363   -0.3746    3.2057 C   0  0  0  0  0  0  0  0  0  0  0  0
    1.6363   -0.7990    4.2016 H   0  0  0  0  0  0  0  0  0  0  0  0
    2.2211    0.1306    2.7706 H   0  0  0  0  0  0  0  0  0  0  0  0
    0.5575    0.3945    3.3837 H   0  0  0  0  0  0  0  0  0  0  0  0
  3 25  1  0  0  0  0
  3 29  1  0  0  0  0
  5  6  1  0  0  0  0
  6  7  2  0  0  0  0
  6  4  1  0  0  0  0
  7  1  1  0  0  0  0
  8  9  1  0  0  0  0
  8  7  1  0  0  0  0
 10  8  2  0  0  0  0
 11 10  1  0  0  0  0
 12 10  1  0  0  0  0
 12  5  1  0  0  0  0
 13 12  1  0  0  0  0
 14  5  2  0  0  0  0
 14  2  1  0  0  0  0
 15 14  1  0  0  0  0
 16  2  1  0  0  0  0
 16 19  1  0  0  0  0
 17 16  1  0  0  0  0
 18 16  1  0  0  0  0
 19 21  1  0  0  0  0
 19 22  1  0  0  0  0
 20 19  1  0  0  0  0
 22  3  1  0  0  0  0
 22 23  1  0  0  0  0
 24 22  1  0  0  0  0
 25 27  1  0  0  0  0
 25 26  1  0  0  0  0
 28 25  1  0  0  0  0
 29 32  1  0  0  0  0
 29 30  1  0  0  0  0
 31 29  1  0  0  0  0
M  CHG  1   4  -1
M  END
