2,4
q = -1.0

 32 32  0  0  1  0  0  0  0  0999 V2000
    4.6289   -1.1204   -1.0443 Br  0  0  0  0  0  0  0  0  0  0  0  0
    0.0611    1.8429    0.5720 N   0  0  0  0  0  2  0  0  0  0  0  0
   -0.8345    1.3803   -2.2880 N   0  0  0  0  0  0  0  0  0  0  0  0
    1.8674    0.0367   -0.4397 O   0  0  0  0  0  1  0  0  0  0  0  0
    2.5113    2.0463    0.7297 C   0  0  0  0  0  0  0  0  0  0  0  0
    2.7881    0.8111    0.0397 C   0  0  2  0  0  3  0  0  0  0  0  0
    4.1787    0.4843   -0.1190 C   0  0  0  0  0  0  0  0  0  0  0  0
    5.1991    1.2911    0.3796 C   0  0  0  0  0  0  0  0  0  0  0  0
    6.2438    0.9807    0.2334 H   0  0  0  0  0  0  0  0  0  0  0  0
    4.8965    2.4902    1.0623 C   0  0  0  0  0  0  0  0  0  0  0  0
    5.7091    3.1195    1.4516 H   0  0  0  0  0  0  0  0  0  0  0  0
    3.5649    2.8592    1.2222 C   0  0  0  0  0  0  0  0  0  0  0  0
    3.3056    3.7979    1.7370 H   0  0  0  0  0  0  0  0  0  0  0  0
    1.1560    2.5004    0.8614 C   0  0  0  0  0  0  0  0  0  0  0  0
    1.0372    3.5421    1.2256 H   0  0  0  0  0  0  0  0  0  0  0  0
   -1.1774    2.6324    0.6034 C   0  0  0  0  0  0  0  0  0  0  0  0
   -1.0616    3.4414    1.3577 H   0  0  0  0  0  0  0  0  0  0  0  0
   -2.0030    1.9740    0.9233 H   0  0  0  0  0  0  0  0  0  0  0  0
   -1.5099    3.2744   -0.7527 C   0  0  0  0  0  0  0  0  0  0  0  0
   -2.3869    3.9366   -0.5924 H   0  0  0  0  0  0  0  0  0  0  0  0
   -0.6765    3.9456   -1.0560 H   0  0  0  0  0  0  0  0  0  0  0  0
   -1.8777    2.3185   -1.8909 C   0  0  0  0  0  0  0  0  0  0  0  0
   -2.2181    2.9375   -2.7675 H   0  0  0  0  0  0  0  0  0  0  0  0
   -2.7574    1.7204   -1.5740 H   0  0  0  0  0  0  0  0  0  0  0  0
    0.3811    1.9994   -2.7814 C   0  0  0  0  0  0  0  0  0  0  0  0
    0.2229    2.5871   -3.7252 H   0  0  0  0  0  0  0  0  0  0  0  0
    1.1384    1.2152   -2.9797 H   0  0  0  0  0  0  0  0  0  0  0  0
    0.8148    2.6789   -2.0227 H   0  0  0  0  0  0  0  0  0  0  0  0
   -1.3362    0.3743   -3.2058 C   0  0  0  0  0  0  0  0  0  0  0  0
   -1.6363    0.7987   -4.2017 H   0  0  0  0  0  0  0  0  0  0  0  0
   -2.2210   -0.1308   -2.7706 H   0  0  0  0  0  0  0  0  0  0  0  0
   -0.5574   -0.3947   -3.3838 H   0  0  0  0  0  0  0  0  0  0  0  0
  1  7  1  0  0  0  0
  2 16  1  0  0  0  0
  2 14  1  0  0  0  0
  3 22  1  0  0  0  0
  5 14  2  0  0  0  0
  5 12  1  0  0  0  0
  6  4  1  6  0  0  0
  6  5  1  0  0  0  0
  7  6  1  0  0  0  0
  7  8  2  0  0  0  0
  8 10  1  0  0  0  0
  9  8  1  0  0  0  0
 10 12  2  0  0  0  0
 10 11  1  0  0  0  0
 12 13  1  0  0  0  0
 14 15  1  0  0  0  0
 16 18  1  0  0  0  0
 16 17  1  0  0  0  0
 19 20  1  0  0  0  0
 19 16  1  0  0  0  0
 21 19  1  0  0  0  0
 22 24  1  0  0  0  0
 22 19  1  0  0  0  0
 23 22  1  0  0  0  0
 25  3  1  0  0  0  0
 25 28  1  0  0  0  0
 26 25  1  0  0  0  0
 27 25  1  0  0  0  0
 29 31  1  0  0  0  0
 29  3  1  0  0  0  0
 30 29  1  0  0  0  0
 32 29  1  0  0  0  0
M  END
