1,5
q = -1.0

 25 26  0  0  1  0  0  0  0  0999 V2000
    0.0728   -0.2247   -2.0660 O   0  5  0  0  0  0  0  0  0  0  0  0
   -1.0686   -0.3116   -2.6940 C   0  0  0  0  0  0  0  0  0  0  0  0
   -1.2467   -0.4499   -3.9053 O   0  0  0  0  0  0  0  0  0  0  0  0
   -2.2816   -0.2292   -1.7823 C   0  0  1  0  0  3  0  0  0  0  0  0
   -2.0964   -0.0836   -0.4580 N   0  0  0  0  0  2  0  0  0  0  0  0
   -3.3140   -0.0281    0.0942 N   0  0  0  0  0  0  0  0  0  0  0  0
   -4.3187   -0.1423   -0.8381 C   0  0  0  0  0  0  0  0  0  0  0  0
   -3.6649   -0.2753   -2.0737 C   0  0  0  0  0  0  0  0  0  0  0  0
   -4.1109   -0.3659   -3.0681 H   0  0  0  0  0  0  0  0  0  0  0  0
   -5.7381   -0.1072   -0.4824 C   0  0  0  0  0  0  0  0  0  0  0  0
   -6.7089   -0.6468   -1.3624 C   0  0  0  0  0  0  0  0  0  0  0  0
   -8.0639   -0.6246   -1.0424 C   0  0  0  0  0  0  0  0  0  0  0  0
   -8.5021   -0.0641    0.1790 C   0  0  0  0  0  0  0  0  0  0  0  0
   -9.8416   -0.0941    0.4044 O   0  0  0  0  0  0  0  0  0  0  0  0
  -10.3342    0.4483    1.6156 C   0  0  0  0  0  0  0  0  0  0  0  0
  -11.4316    0.3154    1.5946 H   0  0  0  0  0  0  0  0  0  0  0  0
  -10.1036    1.5334    1.7082 H   0  0  0  0  0  0  0  0  0  0  0  0
   -9.9227   -0.0808    2.5043 H   0  0  0  0  0  0  0  0  0  0  0  0
   -7.5513    0.4808    1.0667 C   0  0  0  0  0  0  0  0  0  0  0  0
   -6.1912    0.4592    0.7278 C   0  0  0  0  0  0  0  0  0  0  0  0
   -5.4748    0.9246    1.4228 H   0  0  0  0  0  0  0  0  0  0  0  0
   -7.8590    0.9362    2.0170 H   0  0  0  0  0  0  0  0  0  0  0  0
   -8.8184   -1.0468   -1.7216 H   0  0  0  0  0  0  0  0  0  0  0  0
   -6.3838   -1.1052   -2.3078 H   0  0  0  0  0  0  0  0  0  0  0  0
   -3.3990    0.0264    1.1104 H   0  0  0  0  0  0  0  0  0  0  0  0
  2  1  1  0  0  0  0
  3  2  2  0  0  0  0
  4  2  1  6  0  0  0
  4  5  1  0  0  0  0
  5  6  1  0  0  0  0
  6 25  1  0  0  0  0
  7 10  1  0  0  0  0
  7  6  1  0  0  0  0
  8  4  1  0  0  0  0
  8  7  2  0  0  0  0
  9  8  1  0  0  0  0
 10 20  1  0  0  0  0
 11 12  1  0  0  0  0
 11 10  2  0  0  0  0
 12 13  2  0  0  0  0
 13 14  1  0  0  0  0
 13 19  1  0  0  0  0
 14 15  1  0  0  0  0
 15 17  1  0  0  0  0
 15 18  1  0  0  0  0
 16 15  1  0  0  0  0
 19 22  1  0  0  0  0
 20 19  2  0  0  0  0
 20 21  1  0  0  0  0
 23 12  1  0  0  0  0
 24 11  1  0  0  0  0
M  CHG  1   1  -1
M  END
