2,4
q = -1.0

 42 43  0  0  0  0  0  0  0  0999 V2000
   -4.5176    1.3912    1.2171 Br  0  0  0  0  0  0  0  0  0  0  0  0
   -0.1047   -0.3399   -1.8870 N   0  0  0  0  0  2  0  0  0  0  0  0
   -0.0462   -2.8277    0.0586 N   0  0  0  0  0  0  0  0  0  0  0  0
   -1.8969    0.3412    0.0711 O   0  5  0  0  0  0  0  0  0  0  0  0
   -2.2330    0.8371   -2.2650 C   0  0  0  0  0  0  0  0  0  0  0  0
   -2.6218    0.8429   -0.8760 C   0  0  0  0  0  0  0  0  0  0  0  0
   -3.9081    1.4160   -0.5894 C   0  0  0  0  0  0  0  0  0  0  0  0
   -4.7125    1.9804   -1.5766 C   0  0  0  0  0  0  0  0  0  0  0  0
   -5.6808    2.4170   -1.2915 H   0  0  0  0  0  0  0  0  0  0  0  0
   -4.2915    1.9883   -2.9252 C   0  0  0  0  0  0  0  0  0  0  0  0
   -4.9332    2.4366   -3.6968 H   0  0  0  0  0  0  0  0  0  0  0  0
   -3.0722    1.4061   -3.2573 C   0  0  0  0  0  3  0  0  0  0  0  0
   -2.7407    1.3719   -4.3074 H   0  0  0  0  0  0  0  0  0  0  0  0
   -1.0450    0.1344   -2.6648 C   0  0  0  0  0  0  0  0  0  0  0  0
   -0.9413   -0.0516   -3.7540 H   0  0  0  0  0  0  0  0  0  0  0  0
    0.8911   -1.2064   -2.5264 C   0  0  0  0  0  0  0  0  0  0  0  0
    0.9259   -0.9585   -3.6101 H   0  0  0  0  0  0  0  0  0  0  0  0
    1.8811   -0.9868   -2.0875 H   0  0  0  0  0  0  0  0  0  0  0  0
    0.5773   -2.7043   -2.3801 C   0  0  0  0  0  0  0  0  0  0  0  0
    1.2374   -3.2397   -3.0953 H   0  0  0  0  0  0  0  0  0  0  0  0
   -0.4626   -2.8953   -2.7261 H   0  0  0  0  0  0  0  0  0  0  0  0
    0.8119   -3.3363   -1.0033 C   0  0  0  0  0  0  0  0  0  0  0  0
    1.8616   -3.1372   -0.7026 H   0  0  0  0  0  0  0  0  0  0  0  0
    0.7345   -4.4465   -1.1353 H   0  0  0  0  0  0  0  0  0  0  0  0
   -1.4914   -3.0387   -0.0381 C   0  0  0  0  0  0  0  0  0  0  0  0
   -1.8746   -2.3400   -0.8193 H   0  0  0  0  0  0  0  0  0  0  0  0
   -1.9458   -4.4609   -0.4242 C   0  0  0  0  0  0  0  0  0  0  0  0
   -1.5041   -4.7643   -1.3967 H   0  0  0  0  0  0  0  0  0  0  0  0
   -1.5576   -5.1783    0.3355 H   0  0  0  0  0  0  0  0  0  0  0  0
   -3.4767   -4.5535   -0.4960 C   0  0  0  0  0  0  0  0  0  0  0  0
   -3.7889   -5.5844   -0.7656 H   0  0  0  0  0  0  0  0  0  0  0  0
   -3.8369   -3.8946   -1.3185 H   0  0  0  0  0  0  0  0  0  0  0  0
   -4.1351   -4.1153    0.8186 C   0  0  0  0  0  0  0  0  0  0  0  0
   -3.8648   -4.8415    1.6187 H   0  0  0  0  0  0  0  0  0  0  0  0
   -5.2413   -4.1488    0.7273 H   0  0  0  0  0  0  0  0  0  0  0  0
   -3.6697   -2.7137    1.2321 C   0  0  0  0  0  0  0  0  0  0  0  0
   -4.0451   -1.9623    0.5029 H   0  0  0  0  0  0  0  0  0  0  0  0
   -4.1057   -2.4285    2.2123 H   0  0  0  0  0  0  0  0  0  0  0  0
   -2.1424   -2.6222    1.2879 C   0  0  0  0  0  0  0  0  0  0  0  0
   -1.7557   -3.2925    2.0922 H   0  0  0  0  0  0  0  0  0  0  0  0
   -1.8216   -1.5919    1.5313 H   0  0  0  0  0  0  0  0  0  0  0  0
    0.2969   -3.1552    0.9688 H   0  0  0  0  0  0  0  0  0  0  0  0
  3 42  1  0  0  0  0
  5  6  1  0  0  0  0
  6  7  2  0  0  0  0
  6  4  1  0  0  0  0
  7  1  1  0  0  0  0
  8  9  1  0  0  0  0
  8  7  1  0  0  0  0
 10  8  2  0  0  0  0
 11 10  1  0  0  0  0
 12 10  1  0  0  0  0
 12  5  1  0  0  0  0
 13 12  1  0  0  0  0
 14  5  2  0  0  0  0
 14  2  1  0  0  0  0
 15 14  1  0  0  0  0
 16 19  1  0  0  0  0
 16 18  1  0  0  0  0
 16  2  1  0  0  0  0
 17 16  1  0  0  0  0
 19 22  1  0  0  0  0
 20 19  1  0  0  0  0
 21 19  1  0  0  0  0
 22 23  1  0  0  0  0
 22  3  1  0  0  0  0
 24 22  1  0  0  0  0
 25  3  1  0  0  0  0
 25 39  1  0  0  0  0
 26 25  1  0  0  0  0
 27 25  1  0  0  0  0
 27 29  1  0  0  0  0
 28 27  1  0  0  0  0
 30 27  1  0  0  0  0
 30 33  1  0  0  0  0
 31 30  1  0  0  0  0
 32 30  1  0  0  0  0
 33 36  1  0  0  0  0
 33 34  1  0  0  0  0
 35 33  1  0  0  0  0
 36 39  1  0  0  0  0
 36 38  1  0  0  0  0
 37 36  1  0  0  0  0
 39 41  1  0  0  0  0
 39 40  1  0  0  0  0
M  CHG  1   4  -1
M  END
