2,6
q = -1.0

 21 21  0  0  1  0  0  0  0  0999 V2000
    2.4838   -2.8449   -1.6442 S   0  0  0  0  0  0  0  0  0  0  0  0
    1.6092    0.6168    1.2795 O   0  5  0  0  0  0  0  0  0  0  0  0
    3.9327    2.2156    1.4276 F   0  0  0  0  0  0  0  0  0  0  0  0
    3.6839    0.8886    3.1394 F   0  0  0  0  0  0  0  0  0  0  0  0
    5.1267    0.3897    1.5745 F   0  0  0  0  0  0  0  0  0  0  0  0
    0.7523   -1.3303   -0.4450 N   0  0  0  0  0  2  0  0  0  0  0  0
    3.1132   -0.8667    0.1806 C   0  0  0  0  0  0  0  0  0  0  0  0
    4.1576   -1.1693    0.0400 H   0  0  0  0  0  0  0  0  0  0  0  0
    0.0139   -2.1823   -1.2845 C   0  0  0  0  0  0  0  0  0  0  0  0
    2.8081    0.1661    1.0545 C   0  0  0  0  0  0  0  0  0  0  0  0
    0.7823   -3.0703   -2.0058 C   0  0  0  0  0  0  0  0  0  0  0  0
    3.8994    0.9101    1.8075 C   0  0  0  0  0  0  0  0  0  0  0  0
   -1.4761   -2.0861   -1.3343 C   0  0  0  0  0  0  0  0  0  0  0  0
   -1.9314   -2.4018   -0.3757 H   0  0  0  0  0  0  0  0  0  0  0  0
   -1.8847   -2.7217   -2.1402 H   0  0  0  0  0  0  0  0  0  0  0  0
   -1.7994   -1.0425   -1.5158 H   0  0  0  0  0  0  0  0  0  0  0  0
    2.0966   -1.5545   -0.5260 C   0  0  1  0  0  3  0  0  0  0  0  0
    0.3657   -4.1343   -2.9695 C   0  0  0  0  0  0  0  0  0  0  0  0
    0.9208   -4.0568   -3.9273 H   0  0  0  0  0  0  0  0  0  0  0  0
   -0.7138   -4.0571   -3.1972 H   0  0  0  0  0  0  0  0  0  0  0  0
    0.5505   -5.1517   -2.5636 H   0  0  0  0  0  0  0  0  0  0  0  0
  1 17  1  0  0  0  0
  3 12  1  0  0  0  0
  5 12  1  0  0  0  0
  7 10  2  0  0  0  0
  8  7  1  0  0  0  0
  9  6  1  0  0  0  0
 10  2  1  0  0  0  0
 10 12  1  0  0  0  0
 11  1  1  0  0  0  0
 11  9  2  0  0  0  0
 12  4  1  0  0  0  0
 13  9  1  0  0  0  0
 13 14  1  0  0  0  0
 15 13  1  0  0  0  0
 16 13  1  0  0  0  0
 17  6  1  0  0  0  0
 17  7  1  1  0  0  0
 18 21  1  0  0  0  0
 18 11  1  0  0  0  0
 19 18  1  0  0  0  0
 20 18  1  0  0  0  0
M  CHG  1   2  -1
M  END
