1,5
q = -1.0

 32 31  0  0  1  0  0  0  0  0999 V2000
    1.3495    1.7103    0.9600 O   0  5  0  0  0  0  0  0  0  0  0  0
   -3.7433    2.2101    0.0608 O   0  0  0  0  0  0  0  0  0  0  0  0
   -2.0568   -2.1503   -0.8683 O   0  0  0  0  0  0  0  0  0  0  0  0
   -4.2124   -1.7106   -0.3652 O   0  0  0  0  0  0  0  0  0  0  0  0
   -0.2583   -0.2071   -0.2475 N   0  0  0  0  0  2  0  0  0  0  0  0
    0.3197    3.4675    2.1244 C   0  0  0  0  0  0  0  0  0  0  0  0
    0.2069    2.1977    1.3060 C   0  0  0  0  0  0  0  0  0  0  0  0
   -1.0579    1.6823    0.9998 C   0  0  0  0  0  0  0  0  0  0  0  0
   -1.2648    0.5142    0.2032 C   0  0  2  0  0  3  0  0  0  0  0  0
   -2.6570    0.0735   -0.1203 C   0  0  0  0  0  0  0  0  0  0  0  0
   -3.7570    0.8942   -0.1662 C   0  0  0  0  0  0  0  0  0  0  0  0
   -4.9729    2.9202   -0.1762 C   0  0  0  0  0  0  0  0  0  0  0  0
   -4.7838    4.3542    0.2715 C   0  0  0  0  0  0  0  0  0  0  0  0
   -2.9043   -1.3500   -0.4840 C   0  0  0  0  0  0  0  0  0  0  0  0
   -4.5323   -3.0514   -0.7877 C   0  0  0  0  0  0  0  0  0  0  0  0
   -6.0198   -3.2582   -0.5892 C   0  0  0  0  0  0  0  0  0  0  0  0
    0.8843    3.2596    3.0565 H   0  0  0  0  0  0  0  0  0  0  0  0
    0.9038    4.2222    1.5591 H   0  0  0  0  0  0  0  0  0  0  0  0
   -0.6691    3.8896    2.3827 H   0  0  0  0  0  0  0  0  0  0  0  0
   -1.9305    2.2209    1.3765 H   0  0  0  0  0  0  0  0  0  0  0  0
   -0.5167   -1.0432   -0.7909 H   0  0  0  0  0  0  0  0  0  0  0  0
   -4.7370    0.4546   -0.4227 H   0  0  0  0  0  0  0  0  0  0  0  0
   -5.2171    2.8644   -1.2607 H   0  0  0  0  0  0  0  0  0  0  0  0
   -5.7966    2.4232    0.3843 H   0  0  0  0  0  0  0  0  0  0  0  0
   -5.7063    4.9368    0.0806 H   0  0  0  0  0  0  0  0  0  0  0  0
   -4.5569    4.4033    1.3547 H   0  0  0  0  0  0  0  0  0  0  0  0
   -3.9489    4.8286   -0.2803 H   0  0  0  0  0  0  0  0  0  0  0  0
   -4.2261   -3.1811   -1.8479 H   0  0  0  0  0  0  0  0  0  0  0  0
   -3.9261   -3.7677   -0.1942 H   0  0  0  0  0  0  0  0  0  0  0  0
   -6.6088   -2.5430   -1.1977 H   0  0  0  0  0  0  0  0  0  0  0  0
   -6.3016   -3.1233    0.4740 H   0  0  0  0  0  0  0  0  0  0  0  0
   -6.3036   -4.2847   -0.8945 H   0  0  0  0  0  0  0  0  0  0  0  0
  1  7  1  0  0  0  0
  3 14  2  0  0  0  0
  6 19  1  0  0  0  0
  6 17  1  0  0  0  0
  7  6  1  0  0  0  0
  8  7  2  0  0  0  0
  8 20  1  0  0  0  0
  9  5  1  1  0  0  0
  9  8  1  0  0  0  0
 10  9  1  0  0  0  0
 11 10  2  0  0  0  0
 11  2  1  0  0  0  0
 12  2  1  0  0  0  0
 12 13  1  0  0  0  0
 12 24  1  0  0  0  0
 13 26  1  0  0  0  0
 14  4  1  0  0  0  0
 14 10  1  0  0  0  0
 15 16  1  0  0  0  0
 15  4  1  0  0  0  0
 15 29  1  0  0  0  0
 16 31  1  0  0  0  0
 18  6  1  0  0  0  0
 21  5  1  0  0  0  0
 22 11  1  0  0  0  0
 23 12  1  0  0  0  0
 25 13  1  0  0  0  0
 27 13  1  0  0  0  0
 28 15  1  0  0  0  0
 30 16  1  0  0  0  0
 32 16  1  0  0  0  0
M  CHG  1   1  -1
M  END
