1,3
q = -1.0, confidence = 0.006

 24 23  0  0  0  0  0  0  0  0999 V2000
   -0.8309   -1.5016   -1.2684 O   0  5  0  0  0  0  0  0  0  0  0  0
    5.3725    0.0125    0.3059 O   0  0  0  0  0  0  0  0  0  0  0  0
    0.6166    0.2468    0.3410 N   0  0  0  0  0  2  0  0  0  0  0  0
    3.0279    1.7134    2.3767 N   0  0  0  0  0  0  0  0  0  0  0  0
    0.3277   -3.1521   -2.4675 C   0  0  0  0  0  0  0  0  0  0  0  0
    0.3405   -1.9707   -1.5201 C   0  0  0  0  0  0  0  0  0  0  0  0
    1.5593   -1.5006   -1.0126 C   0  0  0  0  0  0  0  0  0  0  0  0
    1.6701   -0.4116   -0.0991 C   0  0  0  0  0  0  0  0  0  0  0  0
    3.0092    0.0230    0.3944 C   0  0  0  0  0  0  0  0  0  0  0  0
    3.0467    0.9455    1.4866 C   0  0  0  0  0  0  0  0  0  0  0  0
    4.1912   -0.3870   -0.1671 C   0  0  0  0  0  3  0  0  0  0  0  0
    6.5458   -0.4026   -0.4201 C   0  0  0  0  0  0  0  0  0  0  0  0
    7.7647    0.0404    0.3605 C   0  0  0  0  0  0  0  0  0  0  0  0
   -0.1370   -2.8495   -3.4279 H   0  0  0  0  0  0  0  0  0  0  0  0
   -0.3069   -3.9578   -2.0454 H   0  0  0  0  0  0  0  0  0  0  0  0
    1.3408   -3.5496   -2.6624 H   0  0  0  0  0  0  0  0  0  0  0  0
    2.4631   -2.0472   -1.3035 H   0  0  0  0  0  0  0  0  0  0  0  0
    0.7857    0.9847    1.0362 H   0  0  0  0  0  0  0  0  0  0  0  0
    4.1977   -1.0590   -1.0426 H   0  0  0  0  0  0  0  0  0  0  0  0
    6.5237    0.0577   -1.4333 H   0  0  0  0  0  0  0  0  0  0  0  0
    6.5231   -1.5085   -0.5460 H   0  0  0  0  0  0  0  0  0  0  0  0
    7.7713    1.1408    0.4858 H   0  0  0  0  0  0  0  0  0  0  0  0
    7.7783   -0.4239    1.3659 H   0  0  0  0  0  0  0  0  0  0  0  0
    8.6866   -0.2567   -0.1766 H   0  0  0  0  0  0  0  0  0  0  0  0
  3 18  1  0  0  0  0
  5 15  1  0  0  0  0
  5  6  1  0  0  0  0
  6  1  1  0  0  0  0
  6  7  2  0  0  0  0
  7  8  1  0  0  0  0
  8  3  1  0  0  0  0
  8  9  2  0  0  0  0
  9 10  1  0  0  0  0
 10  4  3  0  0  0  0
 11  2  1  0  0  0  0
 11  9  1  0  0  0  0
 12  2  1  0  0  0  0
 12 13  1  0  0  0  0
 13 22  1  0  0  0  0
 13 23  1  0  0  0  0
 14  5  1  0  0  0  0
 16  5  1  0  0  0  0
 17  7  1  0  0  0  0
 19 11  1  0  0  0  0
 20 12  1  0  0  0  0
 21 12  1  0  0  0  0
 24 13  1  0  0  0  0
M  CHG  1   1  -1
M  END
