1,21
q = -1.0, confidence = 0.0

 21 21  0  0  0  0  0  0  0  0999 V2000
   -1.0417   -1.3296    0.9870 N   0  0  0  0  0  2  0  0  0  0  0  0
   -0.3238   -2.2709    1.8394 C   0  0  0  0  0  0  0  0  0  0  0  0
   -1.0315   -2.7698    2.5419 H   0  0  0  0  0  0  0  0  0  0  0  0
    0.3971   -1.6912    2.4573 H   0  0  0  0  0  0  0  0  0  0  0  0
    0.4335   -3.3072    1.0065 C   0  0  0  0  0  0  0  0  0  0  0  0
    1.0595   -3.9498    1.6571 H   0  0  0  0  0  0  0  0  0  0  0  0
   -0.2744   -3.9550    0.4512 H   0  0  0  0  0  0  0  0  0  0  0  0
    1.0870   -2.8043    0.2651 H   0  0  0  0  0  0  0  0  0  0  0  0
   -2.3448   -1.3925    0.9113 C   0  0  0  0  0  3  0  0  0  0  0  0
   -2.8550   -2.1470    1.5538 H   0  0  0  0  0  0  0  0  0  0  0  0
   -3.2235   -0.6027    0.0895 C   0  0  0  0  0  0  0  0  0  0  0  0
   -2.7754    0.4186   -0.8444 C   0  0  0  0  0  0  0  0  0  0  0  0
   -3.7911    1.0963   -1.5931 C   0  0  0  0  0  0  0  0  0  0  0  0
   -3.4468    1.8638   -2.3017 H   0  0  0  0  0  0  0  0  0  0  0  0
   -5.1401    0.8047   -1.4388 C   0  0  0  0  0  0  0  0  0  0  0  0
   -5.8833    1.3548   -2.0378 H   0  0  0  0  0  0  0  0  0  0  0  0
   -5.5733   -0.1889   -0.5259 C   0  0  0  0  0  0  0  0  0  0  0  0
   -6.6427   -0.4155   -0.4098 H   0  0  0  0  0  0  0  0  0  0  0  0
   -4.6192   -0.8709    0.2154 C   0  0  0  0  0  0  0  0  0  0  0  0
   -4.9312   -1.6510    0.9296 H   0  0  0  0  0  0  0  0  0  0  0  0
   -1.5332    0.7574   -1.0379 O   0  5  0  0  0  0  0  0  0  0  0  0
  1  2  1  0  0  0  0
  2  4  1  0  0  0  0
  2  3  1  0  0  0  0
  5  6  1  0  0  0  0
  5  2  1  0  0  0  0
  7  5  1  0  0  0  0
  8  5  1  0  0  0  0
  9  1  1  0  0  0  0
  9 10  1  0  0  0  0
 11 19  1  0  0  0  0
 11  9  1  0  0  0  0
 12 11  2  0  0  0  0
 13 15  2  0  0  0  0
 13 12  1  0  0  0  0
 14 13  1  0  0  0  0
 15 17  1  0  0  0  0
 16 15  1  0  0  0  0
 17 18  1  0  0  0  0
 17 19  2  0  0  0  0
 19 20  1  0  0  0  0
 21 12  1  0  0  0  0
M  CHG  1  21  -1
M  END
