1,14
q = -1.0, confidence = 0.018

 31 31  0  0  0  0  0  0  0  0999 V2000
    0.7924    1.5365   -1.7932 O   0  5  0  0  0  0  0  0  0  0  0  0
    0.5063    2.7827   -1.5395 C   0  0  0  0  0  0  0  0  0  0  0  0
    1.2411    3.8019   -2.2262 C   0  0  0  0  0  0  0  0  0  0  0  0
    2.0026    3.4589   -2.9420 H   0  0  0  0  0  0  0  0  0  0  0  0
    1.0094    5.1541   -2.0076 C   0  0  0  0  0  0  0  0  0  0  0  0
    1.6033    5.8999   -2.5596 H   0  0  0  0  0  0  0  0  0  0  0  0
    0.0213    5.5861   -1.0890 C   0  0  0  0  0  0  0  0  0  0  0  0
   -0.1586    6.6576   -0.9217 H   0  0  0  0  0  0  0  0  0  0  0  0
   -0.7163    4.6281   -0.4077 C   0  0  0  0  0  0  0  0  0  0  0  0
   -1.4935    4.9397    0.3099 H   0  0  0  0  0  0  0  0  0  0  0  0
   -0.5083    3.2299   -0.5981 C   0  0  0  0  0  0  0  0  0  0  0  0
   -1.3516    2.3486    0.1679 C   0  0  0  0  0  3  0  0  0  0  0  0
   -2.1059    2.8568    0.8117 H   0  0  0  0  0  0  0  0  0  0  0  0
   -1.3309    1.0428    0.1908 N   0  0  0  0  0  2  0  0  0  0  0  0
   -2.3149    0.3189    0.9822 C   0  0  0  0  0  0  0  0  0  0  0  0
   -1.7825   -0.4549    1.5801 H   0  0  0  0  0  0  0  0  0  0  0  0
   -2.8298    0.9923    1.7041 H   0  0  0  0  0  0  0  0  0  0  0  0
   -3.3480   -0.3700    0.0815 C   0  0  0  0  0  0  0  0  0  0  0  0
   -2.8108   -0.9603   -0.6929 H   0  0  0  0  0  0  0  0  0  0  0  0
   -3.9187    0.4091   -0.4686 H   0  0  0  0  0  0  0  0  0  0  0  0
   -4.2976   -1.2948    0.8421 C   0  0  0  0  0  0  0  0  0  0  0  0
   -4.9987   -1.7938    0.1403 H   0  0  0  0  0  0  0  0  0  0  0  0
   -3.7287   -2.1011    1.3516 H   0  0  0  0  0  0  0  0  0  0  0  0
   -5.2701   -0.5110    2.1836 S   0  0  0  0  0  0  0  0  0  0  0  0
   -6.3845    0.5592    1.1967 C   0  0  0  0  0  0  0  0  0  0  0  0
   -6.9175   -0.0765    0.4571 H   0  0  0  0  0  0  0  0  0  0  0  0
   -5.7826    1.2998    0.6288 H   0  0  0  0  0  0  0  0  0  0  0  0
   -7.3715    1.2678    2.1191 C   0  0  0  0  0  0  0  0  0  0  0  0
   -8.0538    1.9163    1.5334 H   0  0  0  0  0  0  0  0  0  0  0  0
   -6.8440    1.9062    2.8566 H   0  0  0  0  0  0  0  0  0  0  0  0
   -7.9888    0.5390    2.6820 H   0  0  0  0  0  0  0  0  0  0  0  0
  1  2  1  0  0  0  0
  2 11  1  0  0  0  0
  3  5  1  0  0  0  0
  3  2  2  0  0  0  0
  4  3  1  0  0  0  0
  5  7  2  0  0  0  0
  6  5  1  0  0  0  0
  7  8  1  0  0  0  0
  7  9  1  0  0  0  0
  9 10  1  0  0  0  0
 11  9  2  0  0  0  0
 11 12  1  0  0  0  0
 12 14  1  0  0  0  0
 12 13  1  0  0  0  0
 14 15  1  0  0  0  0
 15 16  1  0  0  0  0
 15 17  1  0  0  0  0
 18 21  1  0  0  0  0
 18 15  1  0  0  0  0
 19 18  1  0  0  0  0
 20 18  1  0  0  0  0
 21 23  1  0  0  0  0
 21 24  1  0  0  0  0
 22 21  1  0  0  0  0
 25 28  1  0  0  0  0
 25 24  1  0  0  0  0
 26 25  1  0  0  0  0
 27 25  1  0  0  0  0
 28 31  1  0  0  0  0
 28 30  1  0  0  0  0
 29 28  1  0  0  0  0
M  CHG  1   1  -1
M  END
