1,18
q = -1.0

 28 28  0  0  0  0  0  0  0  0999 V2000
   -1.6950    0.1084   -0.8186 O   0  5  0  0  0  0  0  0  0  0  0  0
   -2.7906   -0.4403   -0.3808 C   0  0  0  0  0  0  0  0  0  0  0  0
   -3.8938   -0.5483   -1.2824 C   0  0  0  0  0  0  0  0  0  0  0  0
   -3.7238   -0.1560   -2.2928 H   0  0  0  0  0  0  0  0  0  0  0  0
   -5.1041   -1.1299   -0.8986 C   0  0  0  0  0  0  0  0  0  0  0  0
   -6.1807   -1.2641   -1.7147 O   0  0  0  0  0  0  0  0  0  0  0  0
   -6.0815   -0.7880   -3.0451 C   0  0  0  0  0  0  0  0  0  0  0  0
   -7.0558   -0.9955   -3.5251 H   0  0  0  0  0  0  0  0  0  0  0  0
   -5.2772   -1.3092   -3.6101 H   0  0  0  0  0  0  0  0  0  0  0  0
   -5.8842    0.3065   -3.0772 H   0  0  0  0  0  0  0  0  0  0  0  0
   -5.2798   -1.6345    0.4228 C   0  0  0  0  0  0  0  0  0  0  0  0
   -6.2435   -2.0857    0.6942 H   0  0  0  0  0  0  0  0  0  0  0  0
   -4.2306   -1.5341    1.3151 C   0  0  0  0  0  0  0  0  0  0  0  0
   -4.3567   -1.9162    2.3414 H   0  0  0  0  0  0  0  0  0  0  0  0
   -2.9738   -0.9492    0.9703 C   0  0  0  0  0  0  0  0  0  0  0  0
   -1.9870   -0.8832    2.0079 C   0  0  0  0  0  3  0  0  0  0  0  0
   -2.3175   -1.2885    2.9920 H   0  0  0  0  0  0  0  0  0  0  0  0
   -0.7695   -0.4028    1.9441 N   0  0  0  0  0  2  0  0  0  0  0  0
    0.0527   -0.3736    3.1475 C   0  0  0  0  0  0  0  0  0  0  0  0
    0.1142    0.6804    3.5047 H   0  0  0  0  0  0  0  0  0  0  0  0
   -0.4423   -0.9593    3.9586 H   0  0  0  0  0  0  0  0  0  0  0  0
    1.4744   -0.8942    2.9069 C   0  0  0  0  0  0  0  0  0  0  0  0
    2.0399   -0.7741    3.8558 H   0  0  0  0  0  0  0  0  0  0  0  0
    1.9779   -0.2337    2.1679 H   0  0  0  0  0  0  0  0  0  0  0  0
    1.5312   -2.3422    2.4248 C   0  0  0  0  0  0  0  0  0  0  0  0
    2.5801   -2.6769    2.2992 H   0  0  0  0  0  0  0  0  0  0  0  0
    1.0366   -2.4474    1.4391 H   0  0  0  0  0  0  0  0  0  0  0  0
    1.0358   -3.0301    3.1422 H   0  0  0  0  0  0  0  0  0  0  0  0
  1  2  1  0  0  0  0
  2 15  1  0  0  0  0
  3  5  1  0  0  0  0
  3  2  2  0  0  0  0
  4  3  1  0  0  0  0
  5 11  2  0  0  0  0
  6  5  1  0  0  0  0
  7  6  1  0  0  0  0
  8  7  1  0  0  0  0
  9  7  1  0  0  0  0
 10  7  1  0  0  0  0
 11 12  1  0  0  0  0
 11 13  1  0  0  0  0
 13 14  1  0  0  0  0
 15 13  2  0  0  0  0
 15 16  1  0  0  0  0
 16 17  1  0  0  0  0
 18 16  1  0  0  0  0
 18 19  1  0  0  0  0
 19 20  1  0  0  0  0
 19 21  1  0  0  0  0
 22 19  1  0  0  0  0
 22 23  1  0  0  0  0
 24 22  1  0  0  0  0
 25 22  1  0  0  0  0
 25 28  1  0  0  0  0
 26 25  1  0  0  0  0
 27 25  1  0  0  0  0
M  CHG  1   1  -1
M  END
