4,5
q = -1.0

 15 15  0  0  1  0  0  0  0  0999 V2000
   -2.2297   -2.0815    1.1471 N   0  0  0  0  0  0  0  0  0  0  0  0
   -1.2761   -2.3681    0.8061 H   0  0  0  0  0  0  0  0  0  0  0  0
   -2.8929   -2.8254    1.3659 H   0  0  0  0  0  0  0  0  0  0  0  0
   -1.9238   -0.0917   -0.1210 N   0  0  0  0  0  2  0  0  0  0  0  0
   -0.1511    1.9077    0.1932 O   0  5  0  0  0  0  0  0  0  0  0  0
   -0.8642    3.9409   -0.3918 O   0  0  0  0  0  0  0  0  0  0  0  0
   -0.9272    2.7245   -0.4918 C   0  0  0  0  0  0  0  0  0  0  0  0
   -1.9203    2.0197   -1.4340 C   0  0  0  0  0  0  0  0  0  0  0  0
   -2.6184    2.7712   -1.8430 H   0  0  0  0  0  0  0  0  0  0  0  0
   -1.3325    1.5968   -2.2796 H   0  0  0  0  0  0  0  0  0  0  0  0
   -2.7048   -1.0138    0.4520 C   0  0  2  0  0  3  0  0  0  0  0  0
   -2.6581    0.9158   -0.7481 C   0  0  0  0  0  0  0  0  0  0  0  0
   -4.0166    0.7711   -0.6402 C   0  0  0  0  0  0  0  0  0  0  0  0
   -4.8023    1.4254   -1.0307 H   0  0  0  0  0  0  0  0  0  0  0  0
   -4.4135   -0.6795    0.2496 S   0  0  0  0  0  0  0  0  0  0  0  0
  1  3  1  0  0  0  0
  2  1  1  0  0  0  0
  4 11  1  0  0  0  0
  7  6  2  0  0  0  0
  7  5  1  0  0  0  0
  8 12  1  0  0  0  0
  8  7  1  0  0  0  0
  9  8  1  0  0  0  0
 10  8  1  0  0  0  0
 11  1  1  1  0  0  0
 12 13  2  0  0  0  0
 12  4  1  0  0  0  0
 13 15  1  0  0  0  0
 14 13  1  0  0  0  0
 15 11  1  0  0  0  0
M  CHG  1   5  -1
M  END
