1,3
q = 0.0, confidence = 0.948

 31 31  0  0  0  0  0  0  0  0999 V2000
   -1.5827   -0.4109   -0.4252 O   0  5  0  0  0  0  0  0  0  0  0  0
   -3.6387   -1.9841    0.1983 O   0  0  0  0  0  0  0  0  0  0  0  0
    0.5743    0.0876   -2.3058 N   0  0  0  0  0  2  0  0  0  0  0  0
    3.3913    0.6364   -1.5643 N   0  3  0  0  0  0  0  0  0  0  0  0
    3.7053   -0.1798   -2.1126 H   0  0  0  0  0  0  0  0  0  0  0  0
    2.7085    0.2431   -0.7364 H   0  0  0  0  0  0  0  0  0  0  0  0
   -0.7785   -1.9697   -2.1063 C   0  0  0  0  0  0  0  0  0  0  0  0
   -1.6770   -1.5620   -1.0630 C   0  0  0  0  0  0  0  0  0  0  0  0
   -2.7502   -2.4626   -0.7349 C   0  0  0  0  0  0  0  0  0  0  0  0
   -2.8535   -3.7181   -1.3383 C   0  0  0  0  0  0  0  0  0  0  0  0
   -3.6655   -4.4017   -1.0573 H   0  0  0  0  0  0  0  0  0  0  0  0
   -1.9264   -4.1248   -2.3234 C   0  0  0  0  0  0  0  0  0  0  0  0
   -2.0253   -5.1151   -2.7888 H   0  0  0  0  0  0  0  0  0  0  0  0
   -0.9207   -3.2542   -2.7100 C   0  0  0  0  0  0  0  0  0  0  0  0
   -0.2174   -3.5382   -3.5080 H   0  0  0  0  0  0  0  0  0  0  0  0
   -4.7497   -2.8080    0.5259 C   0  0  0  0  0  0  0  0  0  0  0  0
   -5.3745   -3.0285   -0.3669 H   0  0  0  0  0  0  0  0  0  0  0  0
   -5.3602   -2.2461    1.2580 H   0  0  0  0  0  0  0  0  0  0  0  0
   -4.4296   -3.7671    0.9886 H   0  0  0  0  0  0  0  0  0  0  0  0
    0.2211   -1.1043   -2.6892 C   0  0  0  0  0  3  0  0  0  0  0  0
    0.6977   -1.5197   -3.6078 H   0  0  0  0  0  0  0  0  0  0  0  0
    1.4741    0.8380   -3.1676 C   0  0  0  0  0  0  0  0  0  0  0  0
    0.8911    1.6344   -3.6803 H   0  0  0  0  0  0  0  0  0  0  0  0
    1.9023    0.1826   -3.9647 H   0  0  0  0  0  0  0  0  0  0  0  0
    2.5826    1.5598   -2.4071 C   0  0  0  0  0  0  0  0  0  0  0  0
    3.2469    2.0840   -3.1240 H   0  0  0  0  0  0  0  0  0  0  0  0
    2.1376    2.3182   -1.7300 H   0  0  0  0  0  0  0  0  0  0  0  0
    4.5483    1.2801   -0.9016 C   0  0  0  0  0  0  0  0  0  0  0  0
    5.2555    1.6898   -1.6479 H   0  0  0  0  0  0  0  0  0  0  0  0
    5.0491    0.5309   -0.2632 H   0  0  0  0  0  0  0  0  0  0  0  0
    4.1712    2.1013   -0.2646 H   0  0  0  0  0  0  0  0  0  0  0  0
  2 16  1  0  0  0  0
  4 28  1  0  0  0  0
  4  6  1  0  0  0  0
  5  4  1  0  0  0  0
  7  8  1  0  0  0  0
  8  9  2  0  0  0  0
  8  1  1  0  0  0  0
  9  2  1  0  0  0  0
 10 11  1  0  0  0  0
 10  9  1  0  0  0  0
 12 10  2  0  0  0  0
 13 12  1  0  0  0  0
 14 12  1  0  0  0  0
 14  7  2  0  0  0  0
 15 14  1  0  0  0  0
 16 19  1  0  0  0  0
 16 18  1  0  0  0  0
 17 16  1  0  0  0  0
 20  3  1  0  0  0  0
 20  7  1  0  0  0  0
 21 20  1  0  0  0  0
 22 25  1  0  0  0  0
 22  3  1  0  0  0  0
 23 22  1  0  0  0  0
 24 22  1  0  0  0  0
 25 27  1  0  0  0  0
 25  4  1  0  0  0  0
 26 25  1  0  0  0  0
 28 31  1  0  0  0  0
 28 30  1  0  0  0  0
 29 28  1  0  0  0  0
M  CHG  2   1  -1   4   1
M  END
