1,2
q = -1.0

 31 32  0  0  1  0  0  0  0  0999 V2000
   -1.6345    0.0057   -0.9056 O   0  0  0  0  0  1  0  0  0  0  0  0
   -0.3769    1.6820    0.8607 N   0  0  0  0  0  2  0  0  0  0  0  0
   -3.9532    0.2765   -1.2293 C   0  0  0  0  0  0  0  0  0  0  0  0
   -3.9297   -0.5695   -1.9302 H   0  0  0  0  0  0  0  0  0  0  0  0
   -5.1359    0.9474   -0.9485 C   0  0  0  0  0  0  0  0  0  0  0  0
   -6.0649    0.6184   -1.4431 H   0  0  0  0  0  0  0  0  0  0  0  0
   -5.1916    2.0456   -0.0432 C   0  0  0  0  0  0  0  0  0  0  0  0
   -3.9971    2.4329    0.5586 C   0  0  0  0  0  0  0  0  0  0  0  0
   -3.9907    3.2865    1.2570 H   0  0  0  0  0  0  0  0  0  0  0  0
   -2.7670    1.7620    0.3081 C   0  0  0  0  0  0  0  0  0  0  0  0
   -2.7259    0.6521   -0.6024 C   0  0  2  0  0  3  0  0  0  0  0  0
   -6.4976    2.7455    0.2352 C   0  0  0  0  0  0  0  0  0  0  0  0
   -6.3636    3.5939    0.9343 H   0  0  0  0  0  0  0  0  0  0  0  0
   -7.2426    2.0549    0.6847 H   0  0  0  0  0  0  0  0  0  0  0  0
   -6.9539    3.1446   -0.6954 H   0  0  0  0  0  0  0  0  0  0  0  0
   -1.5633    2.2433    0.9102 C   0  0  0  0  0  0  0  0  0  0  0  0
   -1.6447    3.2029    1.4602 H   0  0  0  0  0  0  0  0  0  0  0  0
    0.7304    2.4302    1.4550 C   0  0  0  0  0  0  0  0  0  0  0  0
    1.2193    1.7959    2.2192 H   0  0  0  0  0  0  0  0  0  0  0  0
    0.3224    3.3301    1.9681 H   0  0  0  0  0  0  0  0  0  0  0  0
    1.7791    2.8562    0.4447 C   0  0  0  0  0  0  0  0  0  0  0  0
    1.5242    2.8523   -0.9387 C   0  0  0  0  0  0  0  0  0  0  0  0
    0.5450    2.5117   -1.3074 H   0  0  0  0  0  0  0  0  0  0  0  0
    2.5150    3.2570   -1.8470 C   0  0  0  0  0  0  0  0  0  0  0  0
    2.3019    3.2393   -2.9268 H   0  0  0  0  0  0  0  0  0  0  0  0
    3.7703    3.6794   -1.3848 C   0  0  0  0  0  0  0  0  0  0  0  0
    4.5477    3.9932   -2.0979 H   0  0  0  0  0  0  0  0  0  0  0  0
    4.0300    3.6932   -0.0048 C   0  0  0  0  0  0  0  0  0  0  0  0
    5.0132    4.0178    0.3690 H   0  0  0  0  0  0  0  0  0  0  0  0
    3.0418    3.2818    0.9003 C   0  0  0  0  0  0  0  0  0  0  0  0
    3.2549    3.2832    1.9818 H   0  0  0  0  0  0  0  0  0  0  0  0
  2 16  1  0  0  0  0
  2 18  1  0  0  0  0
  3  5  2  0  0  0  0
  3 11  1  0  0  0  0
  4  3  1  0  0  0  0
  5  7  1  0  0  0  0
  6  5  1  0  0  0  0
  7 12  1  0  0  0  0
  7  8  2  0  0  0  0
  8  9  1  0  0  0  0
 10  8  1  0  0  0  0
 10 16  2  0  0  0  0
 11  1  1  6  0  0  0
 11 10  1  0  0  0  0
 12 14  1  0  0  0  0
 12 13  1  0  0  0  0
 15 12  1  0  0  0  0
 16 17  1  0  0  0  0
 18 20  1  0  0  0  0
 18 19  1  0  0  0  0
 21 30  1  0  0  0  0
 21 18  1  0  0  0  0
 22 21  2  0  0  0  0
 23 22  1  0  0  0  0
 24 26  2  0  0  0  0
 24 22  1  0  0  0  0
 25 24  1  0  0  0  0
 26 28  1  0  0  0  0
 27 26  1  0  0  0  0
 28 29  1  0  0  0  0
 28 30  2  0  0  0  0
 30 31  1  0  0  0  0
M  END
