6,11
q = 0.0, confidence = 0.972

 12 11  0  0  1  0  0  0  0  0999 V2000
    2.4706    1.5580    0.6983 C   0  0  2  0  0  3  0  0  0  0  0  0
    3.9114    3.3688    0.2964 C   0  0  0  0  0  0  0  0  0  0  0  0
    4.5381    2.8133   -0.4284 H   0  0  0  0  0  0  0  0  0  0  0  0
    4.5342    4.0460    0.9060 H   0  0  0  0  0  0  0  0  0  0  0  0
    3.1425    3.9415   -0.2581 H   0  0  0  0  0  0  0  0  0  0  0  0
    1.0240   -0.2265    1.2187 N   0  0  0  0  0  0  0  0  0  0  0  0
    0.0383   -0.0974    1.5693 H   0  0  0  0  0  0  0  0  0  0  0  0
    1.3701   -1.1862    1.4056 H   0  0  0  0  0  0  0  0  0  0  0  0
    1.9186    0.7467    1.6468 N   0  0  0  0  0  0  0  0  0  0  0  0
    2.1058    0.9112    2.6395 H   0  0  0  0  0  0  0  0  0  0  0  0
    2.2297    1.4562   -0.5131 O   0  0  0  0  0  1  0  0  0  0  0  0
    3.2949    2.4648    1.2301 O   0  0  0  0  0  0  0  0  0  0  0  0
  1 11  1  6  0  0  0
  1 12  1  0  0  0  0
  1  9  1  0  0  0  0
  2  4  1  0  0  0  0
  2 12  1  0  0  0  0
  3  2  1  0  0  0  0
  5  2  1  0  0  0  0
  6  8  1  0  0  0  0
  6  7  1  0  0  0  0
  6  9  1  0  0  0  0
  9 10  1  0  0  0  0
M  END
