1,6
q = -1.0

 17 17  0  0  1  0  0  0  0  0999 V2000
   -0.9136    1.6394   -0.1895 O   0  5  0  0  0  0  0  0  0  0  0  0
   -2.9991    2.4965   -0.4224 O   0  0  0  0  0  0  0  0  0  0  0  0
   -5.4439    1.3818   -0.3557 O   0  0  0  0  0  0  0  0  0  0  0  0
   -4.5489    1.8629   -0.3996 H   0  0  0  0  0  0  0  0  0  0  0  0
   -6.2602   -0.6905    0.0055 O   0  0  0  0  0  0  0  0  0  0  0  0
   -1.7032   -0.7886    0.1584 N   0  0  0  0  0  2  0  0  0  0  0  0
   -3.6648   -1.7506    0.3172 N   0  0  0  0  0  0  0  0  0  0  0  0
   -4.4150   -2.4360    0.4535 H   0  0  0  0  0  0  0  0  0  0  0  0
   -1.6937   -3.2594    0.7651 C   0  0  0  0  0  0  0  0  0  0  0  0
   -2.4691   -4.0086    1.0086 H   0  0  0  0  0  0  0  0  0  0  0  0
   -1.0552   -3.6404   -0.0682 H   0  0  0  0  0  0  0  0  0  0  0  0
   -1.0239   -3.1299    1.6377 H   0  0  0  0  0  0  0  0  0  0  0  0
   -2.3167   -1.9621    0.4119 C   0  0  2  0  0  3  0  0  0  0  0  0
   -2.6800    0.1561   -0.0814 C   0  0  0  0  0  0  0  0  0  0  0  0
   -3.9276   -0.4320    0.0160 C   0  0  0  0  0  0  0  0  0  0  0  0
   -2.2227    1.5417   -0.2651 C   0  0  0  0  0  0  0  0  0  0  0  0
   -5.3203    0.0800   -0.1148 C   0  0  0  0  0  0  0  0  0  0  0  0
  2 16  2  0  0  0  0
  3 17  1  0  0  0  0
  4  3  1  0  0  0  0
  6 13  1  0  0  0  0
  7 13  1  0  0  0  0
  7  8  1  0  0  0  0
  9 10  1  0  0  0  0
  9 12  1  0  0  0  0
 11  9  1  0  0  0  0
 13  9  1  1  0  0  0
 14 15  2  0  0  0  0
 14  6  1  0  0  0  0
 15  7  1  0  0  0  0
 16  1  1  0  0  0  0
 16 14  1  0  0  0  0
 17  5  2  0  0  0  0
 17 15  1  0  0  0  0
M  CHG  1   1  -1
M  END
