2,4
q = -2.0, confidence = 0.828

 15 15  0  0  0  0  0  0  0  0999 V2000
   -7.0402    0.2890   -0.5650 Cl  0  0  0  0  0  0  0  0  0  0  0  0
   -1.3203   -0.9711   -0.4034 O   0  5  0  0  0  0  0  0  0  0  0  0
   -0.0627    2.6910   -0.3354 O   0  5  0  0  0  0  0  0  0  0  0  0
   -0.7685    1.6848   -0.1281 N   0  3  0  0  0  2  0  0  0  0  0  0
   -2.1191    1.8057   -0.1826 C   0  0  0  0  0  3  0  0  0  0  0  0
   -3.0301    0.7239   -0.2608 C   0  0  0  0  0  0  0  0  0  0  0  0
   -2.5743   -0.6446   -0.4458 C   0  0  0  0  0  0  0  0  0  0  0  0
   -3.5384   -1.6660   -0.7125 C   0  0  0  0  0  0  0  0  0  0  0  0
   -4.8914   -1.3807   -0.7401 C   0  0  0  0  0  0  0  0  0  0  0  0
   -5.3330   -0.0419   -0.5292 C   0  0  0  0  0  0  0  0  0  0  0  0
   -4.4298    0.9878   -0.3065 C   0  0  0  0  0  0  0  0  0  0  0  0
   -2.4829    2.8434   -0.2688 H   0  0  0  0  0  0  0  0  0  0  0  0
   -3.1573   -2.6870   -0.8551 H   0  0  0  0  0  0  0  0  0  0  0  0
   -5.6351   -2.1710   -0.9132 H   0  0  0  0  0  0  0  0  0  0  0  0
   -4.7925    2.0166   -0.1722 H   0  0  0  0  0  0  0  0  0  0  0  0
  1 10  1  0  0  0  0
  3  4  1  0  0  0  0
  5  4  1  0  0  0  0
  6  5  1  0  0  0  0
  7  2  1  0  0  0  0
  7  6  2  0  0  0  0
  8  7  1  0  0  0  0
  9  8  2  0  0  0  0
  9 10  1  0  0  0  0
 10 11  2  0  0  0  0
 11  6  1  0  0  0  0
 11 15  1  0  0  0  0
 12  5  1  0  0  0  0
 13  8  1  0  0  0  0
 14  9  1  0  0  0  0
M  CHG  3   2  -1   3  -1   4   1
M  END
