2,4
q = -1.0

 32 33  0  0  1  0  0  0  0  0999 V2000
   -6.4229    1.2696   -0.4163 O   0  0  0  0  0  0  0  0  0  0  0  0
   -1.7644    0.2062   -0.5711 O   0  0  0  0  0  1  0  0  0  0  0  0
    1.2103    4.1857    0.2484 O   0  0  0  0  0  0  0  0  0  0  0  0
   -0.1045    1.5502    1.1313 N   0  0  0  0  0  2  0  0  0  0  0  0
   -5.1356    1.4195   -0.0103 C   0  0  0  0  0  0  0  0  0  0  0  0
   -4.0579    0.7029   -0.5428 C   0  0  0  0  0  0  0  0  0  0  0  0
   -4.1868   -0.0290   -1.3497 H   0  0  0  0  0  0  0  0  0  0  0  0
   -2.7335    0.9033   -0.0495 C   0  0  2  0  0  3  0  0  0  0  0  0
   -2.5312    1.8785    0.9863 C   0  0  0  0  0  0  0  0  0  0  0  0
   -3.6503    2.5975    1.4926 C   0  0  0  0  0  0  0  0  0  0  0  0
   -3.4776    3.3480    2.2806 H   0  0  0  0  0  0  0  0  0  0  0  0
   -4.9334    2.3796    1.0227 C   0  0  0  0  0  0  0  0  0  0  0  0
   -5.8031    2.9259    1.4115 H   0  0  0  0  0  0  0  0  0  0  0  0
   -1.2162    2.1736    1.4506 C   0  0  0  0  0  0  0  0  0  0  0  0
   -1.1298    3.0383    2.1391 H   0  0  0  0  0  0  0  0  0  0  0  0
    1.1409    2.1790    1.6210 C   0  0  0  0  0  0  0  0  0  0  0  0
    0.8940    2.8350    2.4832 H   0  0  0  0  0  0  0  0  0  0  0  0
    1.8308    1.3860    1.9506 H   0  0  0  0  0  0  0  0  0  0  0  0
    1.8000    2.9813    0.5524 C   0  0  0  0  0  0  0  0  0  0  0  0
    2.8719    2.7693   -0.2861 C   0  0  0  0  0  0  0  0  0  0  0  0
    3.5166    1.8839   -0.2935 H   0  0  0  0  0  0  0  0  0  0  0  0
    2.9460    3.9159   -1.1466 C   0  0  0  0  0  0  0  0  0  0  0  0
    3.6744    4.1025   -1.9436 H   0  0  0  0  0  0  0  0  0  0  0  0
    1.9091    4.7504   -0.7859 C   0  0  0  0  0  0  0  0  0  0  0  0
    1.4363    6.0722   -1.2763 C   0  0  0  0  0  0  0  0  0  0  0  0
    1.4703    6.8428   -0.4770 H   0  0  0  0  0  0  0  0  0  0  0  0
    0.3872    6.0208   -1.6369 H   0  0  0  0  0  0  0  0  0  0  0  0
    2.0734    6.4142   -2.1128 H   0  0  0  0  0  0  0  0  0  0  0  0
   -6.7034    0.3285   -1.4363 C   0  0  0  0  0  0  0  0  0  0  0  0
   -7.7960    0.3624   -1.6021 H   0  0  0  0  0  0  0  0  0  0  0  0
   -6.4117   -0.7031   -1.1372 H   0  0  0  0  0  0  0  0  0  0  0  0
   -6.1831    0.5823   -2.3867 H   0  0  0  0  0  0  0  0  0  0  0  0
  1  5  1  0  0  0  0
  3 19  1  0  0  0  0
  4 14  1  0  0  0  0
  4 16  1  0  0  0  0
  5 12  1  0  0  0  0
  6  8  1  0  0  0  0
  6  5  2  0  0  0  0
  7  6  1  0  0  0  0
  8  2  1  6  0  0  0
  8  9  1  0  0  0  0
  9 14  2  0  0  0  0
  9 10  1  0  0  0  0
 10 11  1  0  0  0  0
 12 13  1  0  0  0  0
 12 10  2  0  0  0  0
 14 15  1  0  0  0  0
 16 18  1  0  0  0  0
 16 17  1  0  0  0  0
 19 16  1  0  0  0  0
 20 19  2  0  0  0  0
 21 20  1  0  0  0  0
 22 24  2  0  0  0  0
 22 20  1  0  0  0  0
 23 22  1  0  0  0  0
 24  3  1  0  0  0  0
 25 24  1  0  0  0  0
 25 26  1  0  0  0  0
 27 25  1  0  0  0  0
 28 25  1  0  0  0  0
 29 31  1  0  0  0  0
 29  1  1  0  0  0  0
 30 29  1  0  0  0  0
 32 29  1  0  0  0  0
M  END
