1,2
q = -1.0

 17 16  0  0  1  0  0  0  0  0999 V2000
    0.9640   -0.9754    1.7708 O   0  0  0  0  0  1  0  0  0  0  0  0
    1.5993   -1.6198   -0.2464 N   0  0  0  0  0  2  0  0  0  0  0  0
    1.7255   -1.7503    1.0640 C   0  0  1  0  0  3  0  0  0  0  0  0
    2.6587   -2.7014    1.7730 C   0  0  0  0  0  0  0  0  0  0  0  0
    2.4405   -3.7526    1.4964 H   0  0  0  0  0  0  0  0  0  0  0  0
    2.5346   -2.5798    2.8634 H   0  0  0  0  0  0  0  0  0  0  0  0
    3.7143   -2.4984    1.5018 H   0  0  0  0  0  0  0  0  0  0  0  0
    2.3545   -2.3892   -1.2278 C   0  0  0  0  0  0  0  0  0  0  0  0
    3.0439   -3.0832   -0.6935 H   0  0  0  0  0  0  0  0  0  0  0  0
    3.2072   -1.4508   -2.0925 C   0  0  0  0  0  0  0  0  0  0  0  0
    2.5551   -0.7375   -2.6337 H   0  0  0  0  0  0  0  0  0  0  0  0
    3.8044   -2.0263   -2.8285 H   0  0  0  0  0  0  0  0  0  0  0  0
    3.9051   -0.8638   -1.4608 H   0  0  0  0  0  0  0  0  0  0  0  0
    1.4021   -3.2364   -2.0826 C   0  0  0  0  0  0  0  0  0  0  0  0
    0.8091   -3.9225   -1.4437 H   0  0  0  0  0  0  0  0  0  0  0  0
    1.9673   -3.8457   -2.8167 H   0  0  0  0  0  0  0  0  0  0  0  0
    0.6948   -2.5792   -2.6256 H   0  0  0  0  0  0  0  0  0  0  0  0
  2  3  1  0  0  0  0
  3  1  1  1  0  0  0
  3  4  1  0  0  0  0
  4  6  1  0  0  0  0
  5  4  1  0  0  0  0
  7  4  1  0  0  0  0
  8  9  1  0  0  0  0
  8  2  1  0  0  0  0
 10 13  1  0  0  0  0
 10  8  1  0  0  0  0
 11 10  1  0  0  0  0
 12 10  1  0  0  0  0
 14 15  1  0  0  0  0
 14  8  1  0  0  0  0
 16 14  1  0  0  0  0
 17 14  1  0  0  0  0
M  END
