1,2
q = 0.0, confidence = 0.86

 16 15  0  0  0  0  0  0  0  0999 V2000
    1.0693    0.9670   -1.7394 O   0  0  0  0  0  1  0  0  0  0  0  0
    1.7544   -1.0797   -0.9721 N   0  0  0  0  0  2  0  0  0  0  0  0
    1.7342   -0.1055   -1.8333 C   0  0  0  0  0  2  0  0  0  0  0  0
    2.6020   -2.2866   -1.0659 C   0  0  0  0  0  0  0  0  0  0  0  0
    1.8469   -3.4438   -0.3966 C   0  0  0  0  0  0  0  0  0  0  0  0
    1.6139   -3.1975    0.6570 H   0  0  0  0  0  0  0  0  0  0  0  0
    2.4651   -4.3630   -0.4181 H   0  0  0  0  0  0  0  0  0  0  0  0
    0.8980   -3.6490   -0.9291 H   0  0  0  0  0  0  0  0  0  0  0  0
    3.9163   -2.0010   -0.3173 C   0  0  0  0  0  0  0  0  0  0  0  0
    4.4556   -1.1549   -0.7882 H   0  0  0  0  0  0  0  0  0  0  0  0
    4.5745   -2.8928   -0.3372 H   0  0  0  0  0  0  0  0  0  0  0  0
    3.7148   -1.7386    0.7403 H   0  0  0  0  0  0  0  0  0  0  0  0
    2.8803   -2.6151   -2.5410 C   0  0  0  0  0  0  0  0  0  0  0  0
    1.9318   -2.7963   -3.0842 H   0  0  0  0  0  0  0  0  0  0  0  0
    3.5140   -3.5206   -2.6200 H   0  0  0  0  0  0  0  0  0  0  0  0
    3.4034   -1.7724   -3.0362 H   0  0  0  0  0  0  0  0  0  0  0  0
  3  1  1  0  0  0  0
  3  2  1  0  0  0  0
  4  2  1  0  0  0  0
  4  5  1  0  0  0  0
  4  9  1  0  0  0  0
  5  6  1  0  0  0  0
  7  5  1  0  0  0  0
  8  5  1  0  0  0  0
  9 12  1  0  0  0  0
 10  9  1  0  0  0  0
 11  9  1  0  0  0  0
 13  4  1  0  0  0  0
 14 13  1  0  0  0  0
 15 13  1  0  0  0  0
 16 13  1  0  0  0  0
M  END
