1,2
q = -1.0, confidence = 0.002

 21 22  0  0  0  0  0  0  0  0999 V2000
   -1.3470   -1.2577    0.7989 O   0  5  0  0  0  0  0  0  0  0  0  0
   -1.3974    1.4936   -0.0146 N   0  0  0  0  0  2  0  0  0  0  0  0
   -2.5988   -1.2522    0.3995 C   0  0  0  0  0  0  0  0  0  0  0  0
   -0.9104    2.7578    0.0306 C   0  0  0  0  0  0  0  0  0  0  0  0
   -2.7482    1.2676    0.0382 C   0  0  0  0  0  0  0  0  0  0  0  0
   -3.3055   -2.4929    0.4474 C   0  0  0  0  0  0  0  0  0  0  0  0
   -3.3159   -0.0842   -0.0432 C   0  0  0  0  0  0  0  0  0  0  0  0
   -1.7249    3.8815    0.1434 C   0  0  0  0  0  0  0  0  0  0  0  0
    0.1833    2.8269   -0.0636 H   0  0  0  0  0  0  0  0  0  0  0  0
   -3.6111    2.3867    0.1928 C   0  0  0  0  0  0  0  0  0  0  0  0
   -4.6228   -2.6045    0.0166 C   0  0  0  0  0  0  0  0  0  0  0  0
   -2.7553   -3.3637    0.8337 H   0  0  0  0  0  0  0  0  0  0  0  0
   -4.6525   -0.2453   -0.4987 C   0  0  0  0  0  3  0  0  0  0  0  0
   -3.1118    3.6850    0.2397 C   0  0  0  0  0  0  0  0  0  0  0  0
   -1.2723    4.8822    0.1696 H   0  0  0  0  0  0  0  0  0  0  0  0
   -4.6872    2.2073    0.3077 H   0  0  0  0  0  0  0  0  0  0  0  0
   -5.3047   -1.4757   -0.4860 C   0  0  0  0  0  0  0  0  0  0  0  0
   -5.1252   -3.5838    0.0520 H   0  0  0  0  0  0  0  0  0  0  0  0
   -5.1811    0.6294   -0.9055 H   0  0  0  0  0  0  0  0  0  0  0  0
   -3.7970    4.5368    0.3657 H   0  0  0  0  0  0  0  0  0  0  0  0
   -6.3317   -1.5629   -0.8682 H   0  0  0  0  0  0  0  0  0  0  0  0
  2  4  1  0  0  0  0
  2  5  1  0  0  0  0
  3  6  2  0  0  0  0
  3  1  1  0  0  0  0
  4  8  2  0  0  0  0
  5 10  1  0  0  0  0
  6 12  1  0  0  0  0
  7  5  2  0  0  0  0
  7  3  1  0  0  0  0
  8 15  1  0  0  0  0
  8 14  1  0  0  0  0
  9  4  1  0  0  0  0
 10 14  2  0  0  0  0
 10 16  1  0  0  0  0
 11 18  1  0  0  0  0
 11  6  1  0  0  0  0
 13 17  1  0  0  0  0
 13  7  1  0  0  0  0
 14 20  1  0  0  0  0
 17 11  2  0  0  0  0
 19 13  1  0  0  0  0
 21 17  1  0  0  0  0
M  CHG  1   1  -1
M  END
