1,10
q = -1.0

 15 14  0  0  0  0  0  0  0  0999 V2000
    0.2102    2.0002   -0.0734 O   0  5  0  0  0  0  0  0  0  0  0  0
   -0.9575    3.9180    0.0824 O   0  0  0  0  0  0  0  0  0  0  0  0
   -0.8988    2.7003    0.0918 C   0  0  0  0  0  0  0  0  0  0  0  0
   -2.1607    1.8492    0.3752 C   0  0  0  0  0  0  0  0  0  0  0  0
   -3.0558    2.3287   -0.0693 H   0  0  0  0  0  0  0  0  0  0  0  0
   -2.2942    1.8270    1.4764 H   0  0  0  0  0  0  0  0  0  0  0  0
   -4.4891    0.0418   -1.1728 O   0  0  0  0  0  0  0  0  0  0  0  0
   -5.1694   -1.2182    0.5860 O   0  0  0  0  0  0  0  0  0  0  0  0
   -6.0042   -1.1917    0.0674 H   0  0  0  0  0  0  0  0  0  0  0  0
   -2.0042    0.4450   -0.0995 N   0  0  0  0  0  0  0  0  0  0  0  0
   -2.2458    0.4342   -1.1067 H   0  0  0  0  0  0  0  0  0  0  0  0
   -2.8882   -0.5473    0.5342 C   0  0  0  0  0  0  0  0  0  0  0  0
   -2.4431   -1.5592    0.4022 H   0  0  0  0  0  0  0  0  0  0  0  0
   -2.9551   -0.3668    1.6244 H   0  0  0  0  0  0  0  0  0  0  0  0
   -4.2608   -0.5202   -0.1163 C   0  0  0  0  0  0  0  0  0  0  0  0
  1  3  1  0  0  0  0
  2  3  2  0  0  0  0
  3  4  1  0  0  0  0
  4  6  1  0  0  0  0
  5  4  1  0  0  0  0
  7 15  2  0  0  0  0
  9  8  1  0  0  0  0
 10  4  1  0  0  0  0
 10 12  1  0  0  0  0
 11 10  1  0  0  0  0
 12 14  1  0  0  0  0
 13 12  1  0  0  0  0
 15 12  1  0  0  0  0
 15  8  1  0  0  0  0
M  CHG  1   1  -1
M  END
