2,3
q = -1.0

 25 26  0  0  1  0  0  0  0  0999 V2000
    0.9497    4.2438   -0.0921 O   0  0  0  0  0  0  0  0  0  0  0  0
   -1.6853    0.0329   -0.7976 O   0  0  0  0  0  1  0  0  0  0  0  0
   -0.3248    1.6497    0.9306 N   0  0  0  0  0  2  0  0  0  0  0  0
    2.7470    2.9006   -0.2457 C   0  0  0  0  0  0  0  0  0  0  0  0
    3.4388    2.0714   -0.0644 H   0  0  0  0  0  0  0  0  0  0  0  0
    2.8726    3.9490   -1.2184 C   0  0  0  0  0  0  0  0  0  0  0  0
    3.6906    4.0998   -1.9313 H   0  0  0  0  0  0  0  0  0  0  0  0
    1.7507    4.7321   -1.0812 C   0  0  0  0  0  0  0  0  0  0  0  0
    1.3921    5.6354   -1.5850 H   0  0  0  0  0  0  0  0  0  0  0  0
    1.5612    3.1260    0.4199 C   0  0  0  0  0  0  0  0  0  0  0  0
    0.8185    2.4034    1.4908 C   0  0  0  0  0  0  0  0  0  0  0  0
    0.4355    3.1304    2.2382 H   0  0  0  0  0  0  0  0  0  0  0  0
    1.5013    1.6938    1.9844 H   0  0  0  0  0  0  0  0  0  0  0  0
   -1.4954    2.2292    1.0505 C   0  0  0  0  0  0  0  0  0  0  0  0
   -1.5390    3.1640    1.6445 H   0  0  0  0  0  0  0  0  0  0  0  0
   -2.7300    1.8044    0.4665 C   0  0  0  0  0  0  0  0  0  0  0  0
   -3.9309    2.5040    0.7647 C   0  0  0  0  0  0  0  0  0  0  0  0
   -3.8868    3.3347    1.4875 H   0  0  0  0  0  0  0  0  0  0  0  0
   -5.1357    2.1609    0.1620 C   0  0  0  0  0  0  0  0  0  0  0  0
   -6.0593    2.7052    0.4049 H   0  0  0  0  0  0  0  0  0  0  0  0
   -5.1517    1.1057   -0.7823 C   0  0  0  0  0  0  0  0  0  0  0  0
   -6.0971    0.8317   -1.2765 H   0  0  0  0  0  0  0  0  0  0  0  0
   -3.9914    0.4076   -1.1042 C   0  0  0  0  0  0  0  0  0  0  0  0
   -4.0027   -0.4020   -1.8487 H   0  0  0  0  0  0  0  0  0  0  0  0
   -2.7453    0.7214   -0.4778 C   0  0  1  0  0  3  0  0  0  0  0  0
  1 10  1  0  0  0  0
  3 14  1  0  0  0  0
  3 11  1  0  0  0  0
  4  5  1  0  0  0  0
  4 10  2  0  0  0  0
  6  8  2  0  0  0  0
  6  4  1  0  0  0  0
  7  6  1  0  0  0  0
  8  1  1  0  0  0  0
  9  8  1  0  0  0  0
 10 11  1  0  0  0  0
 11 13  1  0  0  0  0
 11 12  1  0  0  0  0
 14 15  1  0  0  0  0
 16 17  1  0  0  0  0
 16 14  2  0  0  0  0
 17 18  1  0  0  0  0
 19 20  1  0  0  0  0
 19 17  2  0  0  0  0
 21 19  1  0  0  0  0
 22 21  1  0  0  0  0
 23 21  2  0  0  0  0
 23 25  1  0  0  0  0
 24 23  1  0  0  0  0
 25  2  1  6  0  0  0
 25 16  1  0  0  0  0
M  END
