2,3
q = -1.0, confidence = 0.0

 25 26  0  0  0  0  0  0  0  0999 V2000
   -0.9498   -4.2437    0.0921 O   0  0  0  0  0  0  0  0  0  0  0  0
    1.6854   -0.0329    0.7975 O   0  5  0  0  0  0  0  0  0  0  0  0
    0.3248   -1.6497   -0.9306 N   0  0  0  0  0  2  0  0  0  0  0  0
   -2.7470   -2.9005    0.2456 C   0  0  0  0  0  0  0  0  0  0  0  0
   -3.4389   -2.0713    0.0643 H   0  0  0  0  0  0  0  0  0  0  0  0
   -2.8727   -3.9488    1.2183 C   0  0  0  0  0  0  0  0  0  0  0  0
   -3.6907   -4.0995    1.9312 H   0  0  0  0  0  0  0  0  0  0  0  0
   -1.7508   -4.7320    1.0813 C   0  0  0  0  0  0  0  0  0  0  0  0
   -1.3923   -5.6353    1.5851 H   0  0  0  0  0  0  0  0  0  0  0  0
   -1.5612   -3.1260   -0.4199 C   0  0  0  0  0  0  0  0  0  0  0  0
   -0.8184   -2.4034   -1.4908 C   0  0  0  0  0  0  0  0  0  0  0  0
   -0.4355   -3.1304   -2.2382 H   0  0  0  0  0  0  0  0  0  0  0  0
   -1.5012   -1.6938   -1.9844 H   0  0  0  0  0  0  0  0  0  0  0  0
    1.4954   -2.2292   -1.0504 C   0  0  0  0  0  0  0  0  0  0  0  0
    1.5390   -3.1641   -1.6444 H   0  0  0  0  0  0  0  0  0  0  0  0
    2.7301   -1.8045   -0.4665 C   0  0  0  0  0  0  0  0  0  0  0  0
    3.9309   -2.5041   -0.7646 C   0  0  0  0  0  3  0  0  0  0  0  0
    3.8868   -3.3349   -1.4874 H   0  0  0  0  0  0  0  0  0  0  0  0
    5.1357   -2.1611   -0.1620 C   0  0  0  0  0  0  0  0  0  0  0  0
    6.0593   -2.7054   -0.4048 H   0  0  0  0  0  0  0  0  0  0  0  0
    5.1517   -1.1057    0.7822 C   0  0  0  0  0  0  0  0  0  0  0  0
    6.0971   -0.8318    1.2765 H   0  0  0  0  0  0  0  0  0  0  0  0
    3.9914   -0.4076    1.1041 C   0  0  0  0  0  0  0  0  0  0  0  0
    4.0028    0.4021    1.8486 H   0  0  0  0  0  0  0  0  0  0  0  0
    2.7454   -0.7214    0.4777 C   0  0  0  0  0  0  0  0  0  0  0  0
  1  8  1  0  0  0  0
  4  6  1  0  0  0  0
  5  4  1  0  0  0  0
  6  7  1  0  0  0  0
  8  6  2  0  0  0  0
  8  9  1  0  0  0  0
 10  1  1  0  0  0  0
 10  4  2  0  0  0  0
 11  3  1  0  0  0  0
 11 10  1  0  0  0  0
 12 11  1  0  0  0  0
 13 11  1  0  0  0  0
 14  3  1  0  0  0  0
 14 16  2  0  0  0  0
 15 14  1  0  0  0  0
 16 25  1  0  0  0  0
 17 16  1  0  0  0  0
 17 19  1  0  0  0  0
 18 17  1  0  0  0  0
 19 21  2  0  0  0  0
 20 19  1  0  0  0  0
 21 23  1  0  0  0  0
 21 22  1  0  0  0  0
 23 24  1  0  0  0  0
 25  2  1  0  0  0  0
 25 23  2  0  0  0  0
M  CHG  1   2  -1
M  END
