1,2
q = -1.0

 37 38  0  0  1  0  0  0  0  0999 V2000
    1.6578    0.9674   -0.5353 O   0  0  0  0  0  1  0  0  0  0  0  0
   -1.0479    1.7510   -0.0319 N   0  0  0  0  0  2  0  0  0  0  0  0
   -1.4708    4.1566   -0.1007 C   0  0  0  0  0  0  0  0  0  0  0  0
   -2.5065    3.8395   -0.3113 H   0  0  0  0  0  0  0  0  0  0  0  0
   -1.1455    4.8794   -0.8725 H   0  0  0  0  0  0  0  0  0  0  0  0
   -1.4717    4.6931    0.8707 H   0  0  0  0  0  0  0  0  0  0  0  0
   -0.5331    2.9685   -0.0496 C   0  0  0  0  0  0  0  0  0  0  0  0
    0.8999    3.2383   -0.0280 C   0  0  0  0  0  0  0  0  0  0  0  0
    1.3525    4.5724    0.2057 C   0  0  0  0  0  0  0  0  0  0  0  0
    0.6141    5.3551    0.4253 H   0  0  0  0  0  0  0  0  0  0  0  0
    2.6965    4.9229    0.1877 C   0  0  0  0  0  0  0  0  0  0  0  0
    3.0007    5.9598    0.3901 H   0  0  0  0  0  0  0  0  0  0  0  0
    3.6640    3.9281   -0.0918 C   0  0  0  0  0  0  0  0  0  0  0  0
    4.7336    4.1904   -0.1133 H   0  0  0  0  0  0  0  0  0  0  0  0
    3.2749    2.6188   -0.3286 C   0  0  0  0  0  0  0  0  0  0  0  0
    4.0030    1.8207   -0.5357 H   0  0  0  0  0  0  0  0  0  0  0  0
    1.8979    2.2243   -0.2919 C   0  0  2  0  0  3  0  0  0  0  0  0
   -2.4646    1.5487   -0.0680 C   0  0  0  0  0  0  0  0  0  0  0  0
   -3.0855    1.2651   -1.3078 C   0  0  0  0  0  0  0  0  0  0  0  0
   -4.4617    0.9887   -1.3133 C   0  0  0  0  0  0  0  0  0  0  0  0
   -4.9513    0.7677   -2.2759 H   0  0  0  0  0  0  0  0  0  0  0  0
   -5.2251    0.9741   -0.1295 C   0  0  0  0  0  0  0  0  0  0  0  0
   -4.5683    1.2426    1.0842 C   0  0  0  0  0  0  0  0  0  0  0  0
   -5.1419    1.2190    2.0250 H   0  0  0  0  0  0  0  0  0  0  0  0
   -3.1911    1.5220    1.1428 C   0  0  0  0  0  0  0  0  0  0  0  0
   -2.2703    1.2359   -2.5724 C   0  0  0  0  0  0  0  0  0  0  0  0
   -2.8994    1.0047   -3.4524 H   0  0  0  0  0  0  0  0  0  0  0  0
   -1.4679    0.4692   -2.4995 H   0  0  0  0  0  0  0  0  0  0  0  0
   -1.7554    2.2019   -2.7571 H   0  0  0  0  0  0  0  0  0  0  0  0
   -6.7009    0.6637   -0.1723 C   0  0  0  0  0  0  0  0  0  0  0  0
   -7.1493    0.6690    0.8400 H   0  0  0  0  0  0  0  0  0  0  0  0
   -6.8899   -0.3337   -0.6219 H   0  0  0  0  0  0  0  0  0  0  0  0
   -7.2531    1.4019   -0.7911 H   0  0  0  0  0  0  0  0  0  0  0  0
   -2.4892    1.7370    2.4562 C   0  0  0  0  0  0  0  0  0  0  0  0
   -1.6879    0.9798    2.5882 H   0  0  0  0  0  0  0  0  0  0  0  0
   -3.1937    1.6526    3.3051 H   0  0  0  0  0  0  0  0  0  0  0  0
   -2.0008    2.7319    2.5157 H   0  0  0  0  0  0  0  0  0  0  0  0
  3  7  1  0  0  0  0
  3  6  1  0  0  0  0
  4  3  1  0  0  0  0
  5  3  1  0  0  0  0
  7  2  1  0  0  0  0
  7  8  2  0  0  0  0
  8  9  1  0  0  0  0
  9 10  1  0  0  0  0
 11  9  2  0  0  0  0
 11 12  1  0  0  0  0
 13 11  1  0  0  0  0
 14 13  1  0  0  0  0
 15 17  1  0  0  0  0
 15 13  2  0  0  0  0
 16 15  1  0  0  0  0
 17  1  1  6  0  0  0
 17  8  1  0  0  0  0
 18  2  1  0  0  0  0
 18 25  1  0  0  0  0
 19 18  2  0  0  0  0
 20 19  1  0  0  0  0
 20 22  2  0  0  0  0
 21 20  1  0  0  0  0
 22 23  1  0  0  0  0
 23 25  2  0  0  0  0
 23 24  1  0  0  0  0
 25 34  1  0  0  0  0
 26 28  1  0  0  0  0
 26 19  1  0  0  0  0
 27 26  1  0  0  0  0
 29 26  1  0  0  0  0
 30 22  1  0  0  0  0
 30 31  1  0  0  0  0
 32 30  1  0  0  0  0
 33 30  1  0  0  0  0
 34 37  1  0  0  0  0
 34 35  1  0  0  0  0
 34 36  1  0  0  0  0
M  END
