1,2
q = -1.0

 37 38  0  0  0  0  0  0  0  0999 V2000
   -1.6628   -0.9659    0.5325 O   0  5  0  0  0  0  0  0  0  0  0  0
    1.0467   -1.7506    0.0350 N   0  0  0  0  0  2  0  0  0  0  0  0
    1.4771   -4.1540    0.1274 C   0  0  0  0  0  0  0  0  0  0  0  0
    2.5148   -3.8309    0.3180 H   0  0  0  0  0  0  0  0  0  0  0  0
    1.1657   -4.8656    0.9152 H   0  0  0  0  0  0  0  0  0  0  0  0
    1.4650   -4.7056   -0.8353 H   0  0  0  0  0  0  0  0  0  0  0  0
    0.5351   -2.9694    0.0725 C   0  0  0  0  0  0  0  0  0  0  0  0
   -0.8971   -3.2440    0.0686 C   0  0  0  0  0  0  0  0  0  0  0  0
   -1.3466   -4.5844   -0.1348 C   0  0  0  0  0  3  0  0  0  0  0  0
   -0.6068   -5.3692   -0.3415 H   0  0  0  0  0  0  0  0  0  0  0  0
   -2.6890   -4.9392   -0.1026 C   0  0  0  0  0  0  0  0  0  0  0  0
   -2.9902   -5.9814   -0.2811 H   0  0  0  0  0  0  0  0  0  0  0  0
   -3.6590   -3.9422    0.1598 C   0  0  0  0  0  0  0  0  0  0  0  0
   -4.7276   -4.2076    0.1917 H   0  0  0  0  0  0  0  0  0  0  0  0
   -3.2734   -2.6269    0.3668 C   0  0  0  0  0  0  0  0  0  0  0  0
   -4.0033   -1.8270    0.5604 H   0  0  0  0  0  0  0  0  0  0  0  0
   -1.8978   -2.2286    0.3167 C   0  0  0  0  0  0  0  0  0  0  0  0
    2.4633   -1.5454    0.0501 C   0  0  0  0  0  0  0  0  0  0  0  0
    3.1006   -1.2472    1.2781 C   0  0  0  0  0  0  0  0  0  0  0  0
    4.4762   -0.9683    1.2618 C   0  0  0  0  0  0  0  0  0  0  0  0
    4.9784   -0.7358    2.2151 H   0  0  0  0  0  0  0  0  0  0  0  0
    5.2233   -0.9649    0.0675 C   0  0  0  0  0  0  0  0  0  0  0  0
    4.5504   -1.2473   -1.1342 C   0  0  0  0  0  0  0  0  0  0  0  0
    5.1110   -1.2321   -2.0830 H   0  0  0  0  0  0  0  0  0  0  0  0
    3.1731   -1.5299   -1.1708 C   0  0  0  0  0  0  0  0  0  0  0  0
    2.3026   -1.2045    2.5531 C   0  0  0  0  0  0  0  0  0  0  0  0
    2.9435   -0.9641    3.4221 H   0  0  0  0  0  0  0  0  0  0  0  0
    1.4997   -0.4379    2.4826 H   0  0  0  0  0  0  0  0  0  0  0  0
    1.7898   -2.1681    2.7550 H   0  0  0  0  0  0  0  0  0  0  0  0
    6.6990   -0.6516    0.0869 C   0  0  0  0  0  0  0  0  0  0  0  0
    7.1328   -0.6630   -0.9317 H   0  0  0  0  0  0  0  0  0  0  0  0
    6.8926    0.3491    0.5270 H   0  0  0  0  0  0  0  0  0  0  0  0
    7.2614   -1.3847    0.7026 H   0  0  0  0  0  0  0  0  0  0  0  0
    2.4535   -1.7608   -2.4719 C   0  0  0  0  0  0  0  0  0  0  0  0
    1.6439   -1.0116   -2.5988 H   0  0  0  0  0  0  0  0  0  0  0  0
    3.1447   -1.6782   -3.3318 H   0  0  0  0  0  0  0  0  0  0  0  0
    1.9722   -2.7601   -2.5159 H   0  0  0  0  0  0  0  0  0  0  0  0
  2 18  1  0  0  0  0
  2  7  1  0  0  0  0
  3  4  1  0  0  0  0
  3  5  1  0  0  0  0
  6  3  1  0  0  0  0
  7  3  1  0  0  0  0
  8  7  2  0  0  0  0
  8 17  1  0  0  0  0
  9 11  1  0  0  0  0
  9  8  1  0  0  0  0
 10  9  1  0  0  0  0
 11 13  2  0  0  0  0
 12 11  1  0  0  0  0
 13 14  1  0  0  0  0
 13 15  1  0  0  0  0
 15 16  1  0  0  0  0
 17 15  2  0  0  0  0
 17  1  1  0  0  0  0
 18 19  1  0  0  0  0
 19 26  1  0  0  0  0
 20 19  2  0  0  0  0
 20 21  1  0  0  0  0
 22 30  1  0  0  0  0
 22 20  1  0  0  0  0
 23 22  2  0  0  0  0
 24 23  1  0  0  0  0
 25 23  1  0  0  0  0
 25 18  2  0  0  0  0
 26 29  1  0  0  0  0
 26 27  1  0  0  0  0
 28 26  1  0  0  0  0
 30 32  1  0  0  0  0
 30 33  1  0  0  0  0
 31 30  1  0  0  0  0
 34 25  1  0  0  0  0
 35 34  1  0  0  0  0
 36 34  1  0  0  0  0
 37 34  1  0  0  0  0
M  CHG  1   1  -1
M  END
