1,9
q = -1.0, confidence = 0.002

 31 32  0  0  0  0  0  0  0  0999 V2000
    0.7686    1.5557    0.6895 O   0  5  0  0  0  0  0  0  0  0  0  0
    2.5644    1.8830   -0.8920 C   0  0  0  0  0  0  0  0  0  0  0  0
    1.7204    2.3002    0.1927 C   0  0  0  0  0  0  0  0  0  0  0  0
    1.9646    3.5843    0.7673 C   0  0  0  0  0  0  0  0  0  0  0  0
    2.9734    4.4080    0.2768 C   0  0  0  0  0  0  0  0  0  0  0  0
    3.8001    3.9966   -0.7968 C   0  0  0  0  0  0  0  0  0  0  0  0
    3.5943    2.7428   -1.3607 C   0  0  0  0  0  3  0  0  0  0  0  0
    2.4347    0.5674   -1.4395 C   0  0  0  0  0  0  0  0  0  0  0  0
    1.4991   -0.3133   -1.1746 N   0  0  0  0  0  2  0  0  0  0  0  0
    1.7316   -1.6682   -1.6780 C   0  0  0  0  0  0  0  0  0  0  0  0
    2.2145   -2.5975   -0.5409 C   0  0  0  0  0  0  0  0  0  0  0  0
    3.5103   -2.1375    0.0827 C   0  0  0  0  0  0  0  0  0  0  0  0
    3.5183   -1.1144    1.0558 C   0  0  0  0  0  0  0  0  0  0  0  0
    4.7248   -0.6320    1.5830 C   0  0  0  0  0  0  0  0  0  0  0  0
    5.9484   -1.1677    1.1508 C   0  0  0  0  0  0  0  0  0  0  0  0
    5.9559   -2.1881    0.1867 C   0  0  0  0  0  0  0  0  0  0  0  0
    4.7467   -2.6641   -0.3430 C   0  0  0  0  0  0  0  0  0  0  0  0
    1.3269    3.8993    1.6062 H   0  0  0  0  0  0  0  0  0  0  0  0
    3.1303    5.3965    0.7366 H   0  0  0  0  0  0  0  0  0  0  0  0
    4.5962    4.6558   -1.1711 H   0  0  0  0  0  0  0  0  0  0  0  0
    4.2358    2.3898   -2.1840 H   0  0  0  0  0  0  0  0  0  0  0  0
    3.2381    0.2543   -2.1358 H   0  0  0  0  0  0  0  0  0  0  0  0
    0.7869   -2.0632   -2.0904 H   0  0  0  0  0  0  0  0  0  0  0  0
    2.4981   -1.6321   -2.4816 H   0  0  0  0  0  0  0  0  0  0  0  0
    1.4090   -2.6480    0.2189 H   0  0  0  0  0  0  0  0  0  0  0  0
    2.3297   -3.6173   -0.9629 H   0  0  0  0  0  0  0  0  0  0  0  0
    2.5629   -0.6752    1.3833 H   0  0  0  0  0  0  0  0  0  0  0  0
    4.7067    0.1726    2.3339 H   0  0  0  0  0  0  0  0  0  0  0  0
    6.8957   -0.7906    1.5654 H   0  0  0  0  0  0  0  0  0  0  0  0
    6.9103   -2.6177   -0.1550 H   0  0  0  0  0  0  0  0  0  0  0  0
    4.7588   -3.4644   -1.1009 H   0  0  0  0  0  0  0  0  0  0  0  0
  2  3  1  0  0  0  0
  3  1  1  0  0  0  0
  3  4  2  0  0  0  0
  4 18  1  0  0  0  0
  5 19  1  0  0  0  0
  5  4  1  0  0  0  0
  6  5  2  0  0  0  0
  7  2  1  0  0  0  0
  7  6  1  0  0  0  0
  8  9  1  0  0  0  0
  8  2  2  0  0  0  0
 10  9  1  0  0  0  0
 10 11  1  0  0  0  0
 11 12  1  0  0  0  0
 11 25  1  0  0  0  0
 12 13  1  0  0  0  0
 13 27  1  0  0  0  0
 13 14  2  0  0  0  0
 14 28  1  0  0  0  0
 15 29  1  0  0  0  0
 15 14  1  0  0  0  0
 16 15  2  0  0  0  0
 17 12  2  0  0  0  0
 17 16  1  0  0  0  0
 20  6  1  0  0  0  0
 21  7  1  0  0  0  0
 22  8  1  0  0  0  0
 23 10  1  0  0  0  0
 24 10  1  0  0  0  0
 26 11  1  0  0  0  0
 30 16  1  0  0  0  0
 31 17  1  0  0  0  0
M  CHG  1   1  -1
M  END
