1,2
q = -1.0, confidence = 0.002

 31 32  0  0  1  0  0  0  0  0999 V2000
   -0.7686   -1.5558   -0.6897 O   0  0  0  0  0  1  0  0  0  0  0  0
   -1.4990    0.3131    1.1745 N   0  0  0  0  0  2  0  0  0  0  0  0
   -1.7204   -2.3002   -0.1929 C   0  0  1  0  0  3  0  0  0  0  0  0
   -2.4347   -0.5675    1.4394 C   0  0  0  0  0  0  0  0  0  0  0  0
   -1.7315    1.6680    1.6781 C   0  0  0  0  0  0  0  0  0  0  0  0
   -2.5644   -1.8831    0.8918 C   0  0  0  0  0  0  0  0  0  0  0  0
   -1.9647   -3.5843   -0.7676 C   0  0  0  0  0  0  0  0  0  0  0  0
   -3.2381   -0.2545    2.1358 H   0  0  0  0  0  0  0  0  0  0  0  0
   -2.2144    2.5974    0.5411 C   0  0  0  0  0  0  0  0  0  0  0  0
   -0.7867    2.0630    2.0906 H   0  0  0  0  0  0  0  0  0  0  0  0
   -2.4979    1.6318    2.4818 H   0  0  0  0  0  0  0  0  0  0  0  0
   -3.5943   -2.7429    1.3604 C   0  0  0  0  0  0  0  0  0  0  0  0
   -2.9736   -4.4080   -0.2772 C   0  0  0  0  0  0  0  0  0  0  0  0
   -1.3270   -3.8992   -1.6065 H   0  0  0  0  0  0  0  0  0  0  0  0
   -3.5102    2.1376   -0.0824 C   0  0  0  0  0  0  0  0  0  0  0  0
   -1.4089    2.6480   -0.2187 H   0  0  0  0  0  0  0  0  0  0  0  0
   -2.3295    3.6172    0.9633 H   0  0  0  0  0  0  0  0  0  0  0  0
   -3.8002   -3.9966    0.7965 C   0  0  0  0  0  0  0  0  0  0  0  0
   -4.2359   -2.3899    2.1837 H   0  0  0  0  0  0  0  0  0  0  0  0
   -3.1306   -5.3965   -0.7371 H   0  0  0  0  0  0  0  0  0  0  0  0
   -3.5184    1.1147   -1.0558 C   0  0  0  0  0  0  0  0  0  0  0  0
   -4.7465    2.6642    0.3434 C   0  0  0  0  0  0  0  0  0  0  0  0
   -4.5964   -4.6558    1.1707 H   0  0  0  0  0  0  0  0  0  0  0  0
   -4.7249    0.6324   -1.5830 C   0  0  0  0  0  0  0  0  0  0  0  0
   -2.5630    0.6755   -1.3834 H   0  0  0  0  0  0  0  0  0  0  0  0
   -5.9559    2.1882   -0.1862 C   0  0  0  0  0  0  0  0  0  0  0  0
   -4.7586    3.4644    1.1015 H   0  0  0  0  0  0  0  0  0  0  0  0
   -5.9485    1.1681   -1.1505 C   0  0  0  0  0  0  0  0  0  0  0  0
   -4.7069   -0.1721   -2.3339 H   0  0  0  0  0  0  0  0  0  0  0  0
   -6.9102    2.6178    0.1556 H   0  0  0  0  0  0  0  0  0  0  0  0
   -6.8958    0.7911   -1.5651 H   0  0  0  0  0  0  0  0  0  0  0  0
  2  4  1  0  0  0  0
  2  5  1  0  0  0  0
  3  1  1  6  0  0  0
  3  6  1  0  0  0  0
  4  8  1  0  0  0  0
  5 10  1  0  0  0  0
  5 11  1  0  0  0  0
  6 12  1  0  0  0  0
  6  4  2  0  0  0  0
  7 13  2  0  0  0  0
  7  3  1  0  0  0  0
  9 17  1  0  0  0  0
  9  5  1  0  0  0  0
 12 19  1  0  0  0  0
 13 18  1  0  0  0  0
 14  7  1  0  0  0  0
 15 22  1  0  0  0  0
 15  9  1  0  0  0  0
 16  9  1  0  0  0  0
 18 23  1  0  0  0  0
 18 12  2  0  0  0  0
 20 13  1  0  0  0  0
 21 15  2  0  0  0  0
 22 27  1  0  0  0  0
 24 28  2  0  0  0  0
 24 21  1  0  0  0  0
 25 21  1  0  0  0  0
 26 30  1  0  0  0  0
 26 22  2  0  0  0  0
 28 26  1  0  0  0  0
 29 24  1  0  0  0  0
 31 28  1  0  0  0  0
M  END
