1,14
q = -1.0

 30 32  0  0  0  0  0  0  0  0999 V2000
    1.2818    1.5183   -1.1891 O   0  5  0  0  0  0  0  0  0  0  0  0
   -1.9400   -0.5198   -1.1211 C   0  0  0  0  0  0  0  0  0  0  0  0
   -1.8015   -1.5635   -1.4393 H   0  0  0  0  0  0  0  0  0  0  0  0
   -0.9442    4.2471    0.6519 S   0  0  0  0  0  0  0  0  0  0  0  0
    1.4923    4.2844   -0.2527 C   0  0  0  0  0  0  0  0  0  0  0  0
    2.4165    3.9608   -0.7475 H   0  0  0  0  0  0  0  0  0  0  0  0
    0.3643    3.4736   -0.2048 C   0  0  0  0  0  0  0  0  0  0  0  0
    0.0219    5.6515    0.9385 C   0  0  0  0  0  0  0  0  0  0  0  0
   -0.4020    6.4996    1.4907 H   0  0  0  0  0  0  0  0  0  0  0  0
    1.2931    5.5325    0.3993 C   0  0  0  0  0  0  0  0  0  0  0  0
    2.0551    6.3201    0.4735 H   0  0  0  0  0  0  0  0  0  0  0  0
    0.2253    2.1258   -0.7306 C   0  0  0  0  0  0  0  0  0  0  0  0
   -0.9552    1.5206   -0.6998 N   0  0  0  0  0  0  0  0  0  0  0  0
   -0.8549    0.2329   -1.1334 N   0  0  0  0  0  2  0  0  0  0  0  0
   -3.8673   -2.5086   -0.9032 O   0  0  0  0  0  0  0  0  0  0  0  0
   -4.1986   -1.3627   -0.5909 C   0  0  0  0  0  0  0  0  0  0  0  0
   -3.2736   -0.1963   -0.6680 C   0  0  0  0  0  0  0  0  0  0  0  0
   -3.7312    1.0542   -0.2990 C   0  0  0  0  0  3  0  0  0  0  0  0
   -3.1044    1.9532   -0.3316 H   0  0  0  0  0  0  0  0  0  0  0  0
   -4.9803    1.3098    0.1394 O   0  0  0  0  0  0  0  0  0  0  0  0
   -5.8913    0.2913    0.2538 C   0  0  0  0  0  0  0  0  0  0  0  0
   -7.1710    0.6271    0.7298 C   0  0  0  0  0  0  0  0  0  0  0  0
   -7.3892    1.6738    0.9845 H   0  0  0  0  0  0  0  0  0  0  0  0
   -8.1254   -0.3844    0.8615 C   0  0  0  0  0  0  0  0  0  0  0  0
   -9.1307   -0.1335    1.2318 H   0  0  0  0  0  0  0  0  0  0  0  0
   -7.8112   -1.7196    0.5228 C   0  0  0  0  0  0  0  0  0  0  0  0
   -8.5736   -2.5052    0.6305 H   0  0  0  0  0  0  0  0  0  0  0  0
   -6.5377   -2.0378    0.0512 C   0  0  0  0  0  0  0  0  0  0  0  0
   -6.2495   -3.0626   -0.2263 H   0  0  0  0  0  0  0  0  0  0  0  0
   -5.5546   -1.0343   -0.0915 C   0  0  0  0  0  0  0  0  0  0  0  0
  1 12  1  0  0  0  0
  2 17  2  0  0  0  0
  3  2  1  0  0  0  0
  4  8  1  0  0  0  0
  5  7  2  0  0  0  0
  5 10  1  0  0  0  0
  6  5  1  0  0  0  0
  7  4  1  0  0  0  0
  8  9  1  0  0  0  0
 10 11  1  0  0  0  0
 10  8  2  0  0  0  0
 12 13  2  0  0  0  0
 12  7  1  0  0  0  0
 14  2  1  0  0  0  0
 14 13  1  0  0  0  0
 15 16  2  0  0  0  0
 16 30  1  0  0  0  0
 17 16  1  0  0  0  0
 17 18  1  0  0  0  0
 18 20  1  0  0  0  0
 19 18  1  0  0  0  0
 20 21  1  0  0  0  0
 21 22  1  0  0  0  0
 22 24  2  0  0  0  0
 22 23  1  0  0  0  0
 24 25  1  0  0  0  0
 26 27  1  0  0  0  0
 26 24  1  0  0  0  0
 28 26  2  0  0  0  0
 29 28  1  0  0  0  0
 30 28  1  0  0  0  0
 30 21  2  0  0  0  0
M  CHG  1   1  -1
M  END
