3,8
q = -1.0, confidence = 0.022

 27 29  0  0  0  0  0  0  0  0999 V2000
   -0.9717    4.4179    0.2314 S   0  0  0  0  0  0  0  0  0  0  0  0
    3.9440    0.7432    0.0090 S   0  0  0  0  0  0  0  0  0  0  0  0
   -0.9039    1.6589   -0.9146 O   0  5  0  0  0  0  0  0  0  0  0  0
    1.3340    1.2719   -0.6503 N   0  0  0  0  0  0  0  0  0  0  0  0
    1.5616    3.9630    0.6119 C   0  0  0  0  0  0  0  0  0  0  0  0
    2.5342    3.4535    0.6063 H   0  0  0  0  0  0  0  0  0  0  0  0
    4.1377   -1.7242   -0.9126 N   0  0  0  0  0  0  0  0  0  0  0  0
    0.9900    0.0782   -1.1924 N   0  0  0  0  0  2  0  0  0  0  0  0
    0.2734    2.0601   -0.5197 C   0  0  0  0  0  0  0  0  0  0  0  0
    0.4142    3.3707    0.0871 C   0  0  0  0  0  0  0  0  0  0  0  0
   -0.0192    5.6358    0.9923 C   0  0  0  0  0  0  0  0  0  0  0  0
   -0.4884    6.5789    1.2991 H   0  0  0  0  0  0  0  0  0  0  0  0
    1.3103    5.2591    1.1318 C   0  0  0  0  0  0  0  0  0  0  0  0
    2.0740    5.9009    1.5914 H   0  0  0  0  0  0  0  0  0  0  0  0
    1.9510   -0.8269   -1.3011 C   0  0  0  0  0  3  0  0  0  0  0  0
    1.6744   -1.7924   -1.7442 H   0  0  0  0  0  0  0  0  0  0  0  0
    3.2980   -0.7095   -0.8189 C   0  0  0  0  0  0  0  0  0  0  0  0
    5.4493   -0.1222    0.2379 C   0  0  0  0  0  0  0  0  0  0  0  0
    5.3453   -1.4334   -0.3336 C   0  0  0  0  0  0  0  0  0  0  0  0
    6.4534   -2.3114   -0.2617 C   0  0  0  0  0  0  0  0  0  0  0  0
    6.3658   -3.3144   -0.7031 H   0  0  0  0  0  0  0  0  0  0  0  0
    7.6224   -1.8782    0.3647 C   0  0  0  0  0  0  0  0  0  0  0  0
    8.4900   -2.5523    0.4254 H   0  0  0  0  0  0  0  0  0  0  0  0
    7.7117   -0.5803    0.9228 C   0  0  0  0  0  0  0  0  0  0  0  0
    8.6460   -0.2623    1.4095 H   0  0  0  0  0  0  0  0  0  0  0  0
    6.6310    0.3085    0.8647 C   0  0  0  0  0  0  0  0  0  0  0  0
    6.7083    1.3165    1.2982 H   0  0  0  0  0  0  0  0  0  0  0  0
  1 11  1  0  0  0  0
  2 18  1  0  0  0  0
  3  9  1  0  0  0  0
  4  9  2  0  0  0  0
  5 13  1  0  0  0  0
  6  5  1  0  0  0  0
  7 17  2  0  0  0  0
  7 19  1  0  0  0  0
  8  4  1  0  0  0  0
  9 10  1  0  0  0  0
 10  1  1  0  0  0  0
 10  5  2  0  0  0  0
 11 13  2  0  0  0  0
 11 12  1  0  0  0  0
 13 14  1  0  0  0  0
 15  8  1  0  0  0  0
 15 17  1  0  0  0  0
 16 15  1  0  0  0  0
 17  2  1  0  0  0  0
 18 26  1  0  0  0  0
 19 20  1  0  0  0  0
 19 18  2  0  0  0  0
 20 22  2  0  0  0  0
 21 20  1  0  0  0  0
 22 23  1  0  0  0  0
 22 24  1  0  0  0  0
 24 25  1  0  0  0  0
 26 24  2  0  0  0  0
 26 27  1  0  0  0  0
M  CHG  1   3  -1
M  END
