1,4
q = 0.0, confidence = 0.992

 23 23  0  0  1  0  0  0  0  0999 V2000
    0.9653   -0.7905    0.1170 N   0  0  0  0  0  2  0  0  0  0  0  0
   -0.1660    0.6891   -1.7928 O   0  0  0  0  0  0  0  0  0  0  0  0
   -0.1701    0.0894   -2.5647 H   0  0  0  0  0  0  0  0  0  0  0  0
   -0.4476    1.5010    0.8598 O   0  0  0  0  0  1  0  0  0  0  0  0
    1.4548   -1.7826    0.8953 C   0  0  0  0  0  3  0  0  0  0  0  0
    0.7221   -2.3545    1.4831 H   0  0  0  0  0  0  0  0  0  0  0  0
    2.8213   -2.0729    0.9608 C   0  0  0  0  0  0  0  0  0  0  0  0
    3.1711   -2.8881    1.6098 H   0  0  0  0  0  0  0  0  0  0  0  0
    3.7149   -1.3202    0.1862 C   0  0  0  0  0  0  0  0  0  0  0  0
    4.7941   -1.5313    0.2080 H   0  0  0  0  0  0  0  0  0  0  0  0
    3.2065   -0.2976   -0.6281 C   0  0  0  0  0  0  0  0  0  0  0  0
    3.8738    0.3058   -1.2613 H   0  0  0  0  0  0  0  0  0  0  0  0
    1.8271   -0.0576   -0.6361 C   0  0  0  0  0  0  0  0  0  0  0  0
    1.1951    1.0509   -1.4618 C   0  0  2  0  0  0  0  0  0  0  0  0
    1.7739    1.1929   -2.3978 H   0  0  0  0  0  0  0  0  0  0  0  0
    1.1399    2.3969   -0.7315 C   0  0  0  0  0  0  0  0  0  0  0  0
    2.1681    2.7624   -0.5292 H   0  0  0  0  0  0  0  0  0  0  0  0
    0.6829    3.1556   -1.4067 H   0  0  0  0  0  0  0  0  0  0  0  0
    0.3382    2.4115    0.5565 C   0  0  1  0  0  3  0  0  0  0  0  0
    0.5078    3.5856    1.4668 C   0  0  0  0  0  0  0  0  0  0  0  0
   -0.2764    3.5917    2.2444 H   0  0  0  0  0  0  0  0  0  0  0  0
    0.5013    4.5367    0.8963 H   0  0  0  0  0  0  0  0  0  0  0  0
    1.5043    3.5223    1.9569 H   0  0  0  0  0  0  0  0  0  0  0  0
  1  5  1  0  0  0  0
  2 14  1  0  0  0  0
  3  2  1  0  0  0  0
  5  7  1  0  0  0  0
  5  6  1  0  0  0  0
  7  8  1  0  0  0  0
  9 10  1  0  0  0  0
  9  7  2  0  0  0  0
 11  9  1  0  0  0  0
 12 11  1  0  0  0  0
 13 11  2  0  0  0  0
 13  1  1  0  0  0  0
 14 15  1  6  0  0  0
 14 16  1  0  0  0  0
 14 13  1  0  0  0  0
 16 17  1  0  0  0  0
 16 19  1  0  0  0  0
 18 16  1  0  0  0  0
 19  4  1  6  0  0  0
 19 20  1  0  0  0  0
 20 23  1  0  0  0  0
 20 21  1  0  0  0  0
 22 20  1  0  0  0  0
M  END
