1,2
q = 0.0, confidence = 0.974

 28 29  0  0  0  0  0  0  0  0999 V2000
    0.5975   -0.0850   -0.0192 O   0  5  0  0  0  0  0  0  0  0  0  0
   -1.2577    1.8071   -0.0022 N   0  0  0  0  0  2  0  0  0  0  0  0
    3.4754    0.5396    0.0103 N   0  0  0  0  0  0  0  0  0  0  0  0
   -2.2560    2.7154   -0.0114 C   0  0  0  0  0  3  0  0  0  0  0  0
   -2.0247    4.0929   -0.0366 C   0  0  0  0  0  0  0  0  0  0  0  0
   -0.6985    4.5485   -0.0523 C   0  0  0  0  0  0  0  0  0  0  0  0
    0.3391    3.6106   -0.0430 C   0  0  0  0  0  0  0  0  0  0  0  0
    0.0432    2.2358   -0.0179 C   0  0  0  0  0  0  0  0  0  0  0  0
    1.0548    1.1312   -0.0123 C   0  0  0  0  0  0  0  0  0  0  0  0
    2.4093    1.4544    0.0020 C   0  0  0  0  0  0  0  0  0  0  0  0
    4.7640    1.0335    0.0159 C   0  0  0  0  0  3  0  0  0  0  0  0
    5.8644    0.1976    0.0245 C   0  0  0  0  0  0  0  0  0  0  0  0
    5.7154   -1.2103    0.0279 C   0  0  0  0  0  0  0  0  0  0  0  0
    4.3899   -1.6871    0.0227 C   0  0  0  0  0  0  0  0  0  0  0  0
    3.2989   -0.8264    0.0145 C   0  0  0  0  0  0  0  0  0  0  0  0
    6.9029   -2.1230    0.0361 C   0  0  0  0  0  0  0  0  0  0  0  0
   -3.2805    2.3146   -0.0006 H   0  0  0  0  0  0  0  0  0  0  0  0
   -2.8739    4.7904   -0.0448 H   0  0  0  0  0  0  0  0  0  0  0  0
   -0.4732    5.6247   -0.0735 H   0  0  0  0  0  0  0  0  0  0  0  0
    1.3810    3.9553   -0.0594 H   0  0  0  0  0  0  0  0  0  0  0  0
    2.7371    2.4971    0.0116 H   0  0  0  0  0  0  0  0  0  0  0  0
    4.8544    2.1276    0.0127 H   0  0  0  0  0  0  0  0  0  0  0  0
    6.8636    0.6574    0.0287 H   0  0  0  0  0  0  0  0  0  0  0  0
    4.1869   -2.7680    0.0258 H   0  0  0  0  0  0  0  0  0  0  0  0
    2.2495   -1.1494    0.0116 H   0  0  0  0  0  0  0  0  0  0  0  0
    7.5420   -1.9304    0.9229 H   0  0  0  0  0  0  0  0  0  0  0  0
    7.5402   -1.9477   -0.8557 H   0  0  0  0  0  0  0  0  0  0  0  0
    6.6060   -3.1877    0.0463 H   0  0  0  0  0  0  0  0  0  0  0  0
  1  9  1  0  0  0  0
  3 15  1  0  0  0  0
  3 11  1  0  0  0  0
  4  2  1  0  0  0  0
  4 17  1  0  0  0  0
  5  4  1  0  0  0  0
  6  7  1  0  0  0  0
  6  5  2  0  0  0  0
  7  8  2  0  0  0  0
  8  9  1  0  0  0  0
  8  2  1  0  0  0  0
  9 10  2  0  0  0  0
 10  3  1  0  0  0  0
 10 21  1  0  0  0  0
 11 12  1  0  0  0  0
 12 13  2  0  0  0  0
 12 23  1  0  0  0  0
 13 16  1  0  0  0  0
 14 24  1  0  0  0  0
 14 13  1  0  0  0  0
 15 14  2  0  0  0  0
 16 28  1  0  0  0  0
 16 26  1  0  0  0  0
 18  5  1  0  0  0  0
 19  6  1  0  0  0  0
 20  7  1  0  0  0  0
 22 11  1  0  0  0  0
 25 15  1  0  0  0  0
 27 16  1  0  0  0  0
M  CHG  1   1  -1
M  END
