1,2
q = -1.0

 34 36  0  0  0  0  0  0  0  0999 V2000
   -0.9565    1.4609    0.1984 N   0  0  0  0  0  2  0  0  0  0  0  0
   -1.6033   -0.6140   -1.7174 O   0  5  0  0  0  0  0  0  0  0  0  0
   -2.8194   -0.3813   -1.3281 C   0  0  0  0  0  0  0  0  0  0  0  0
   -3.2041    0.5555   -0.2971 C   0  0  0  0  0  0  0  0  0  0  0  0
   -4.6054    0.6493    0.1042 C   0  0  0  0  0  0  0  0  0  0  0  0
   -5.0633    1.4603    1.1829 C   0  0  0  0  0  0  0  0  0  0  0  0
   -4.3472    2.0379    1.7834 H   0  0  0  0  0  0  0  0  0  0  0  0
   -6.4101    1.5296    1.5302 C   0  0  0  0  0  0  0  0  0  0  0  0
   -6.7170    2.1697    2.3716 H   0  0  0  0  0  0  0  0  0  0  0  0
   -7.3799    0.7804    0.8258 C   0  0  0  0  0  0  0  0  0  0  0  0
   -8.4416    0.8394    1.1074 H   0  0  0  0  0  0  0  0  0  0  0  0
   -6.9678   -0.0404   -0.2167 C   0  0  0  0  0  0  0  0  0  0  0  0
   -7.6994   -0.6467   -0.7739 H   0  0  0  0  0  0  0  0  0  0  0  0
   -5.6000   -0.1268   -0.5896 C   0  0  0  0  0  0  0  0  0  0  0  0
   -5.1846   -0.9930   -1.6529 C   0  0  0  0  0  0  0  0  0  0  0  0
   -5.9551   -1.5754   -2.1836 H   0  0  0  0  0  0  0  0  0  0  0  0
   -3.8640   -1.1167   -2.0031 C   0  0  0  0  0  0  0  0  0  0  0  0
   -3.5367   -1.7888   -2.8097 H   0  0  0  0  0  0  0  0  0  0  0  0
   -2.2637    1.4695    0.2928 C   0  0  0  0  0  3  0  0  0  0  0  0
   -2.6980    2.2988    0.8881 H   0  0  0  0  0  0  0  0  0  0  0  0
   -0.1774    2.5199    0.8214 C   0  0  0  0  0  0  0  0  0  0  0  0
   -0.8609    3.1630    1.4248 H   0  0  0  0  0  0  0  0  0  0  0  0
    0.5818    3.4032   -0.2130 C   0  0  0  0  0  0  0  0  0  0  0  0
    0.7139    2.8267   -1.1498 H   0  0  0  0  0  0  0  0  0  0  0  0
   -0.0102    4.3060   -0.4622 H   0  0  0  0  0  0  0  0  0  0  0  0
    1.9573    3.7291    0.4287 C   0  0  0  0  0  0  0  0  0  0  0  0
    2.7623    3.2079   -0.1286 H   0  0  0  0  0  0  0  0  0  0  0  0
    2.1982    4.8102    0.4021 H   0  0  0  0  0  0  0  0  0  0  0  0
    1.8859    3.1780    1.8689 C   0  0  0  0  0  0  0  0  0  0  0  0
    1.4471    3.9355    2.5540 H   0  0  0  0  0  0  0  0  0  0  0  0
    2.8774    2.9015    2.2789 H   0  0  0  0  0  0  0  0  0  0  0  0
    0.9355    1.9842    1.7431 C   0  0  0  0  0  0  0  0  0  0  0  0
    0.5447    1.5966    2.7056 H   0  0  0  0  0  0  0  0  0  0  0  0
    1.4531    1.1444    1.2305 H   0  0  0  0  0  0  0  0  0  0  0  0
  1 19  1  0  0  0  0
  1 21  1  0  0  0  0
  2  3  1  0  0  0  0
  3  4  1  0  0  0  0
  4  5  2  0  0  0  0
  4 19  1  0  0  0  0
  5  6  1  0  0  0  0
  6  8  2  0  0  0  0
  6  7  1  0  0  0  0
  8  9  1  0  0  0  0
 10 11  1  0  0  0  0
 10  8  1  0  0  0  0
 12 10  2  0  0  0  0
 13 12  1  0  0  0  0
 14 12  1  0  0  0  0
 14  5  1  0  0  0  0
 15 14  2  0  0  0  0
 16 15  1  0  0  0  0
 17 15  1  0  0  0  0
 17  3  2  0  0  0  0
 18 17  1  0  0  0  0
 19 20  1  0  0  0  0
 21 22  1  0  0  0  0
 21 32  1  0  0  0  0
 23 26  1  0  0  0  0
 23 21  1  0  0  0  0
 24 23  1  0  0  0  0
 25 23  1  0  0  0  0
 26 29  1  0  0  0  0
 27 26  1  0  0  0  0
 28 26  1  0  0  0  0
 29 31  1  0  0  0  0
 29 30  1  0  0  0  0
 32 29  1  0  0  0  0
 32 33  1  0  0  0  0
 34 32  1  0  0  0  0
M  CHG  1   2  -1
M  END
