1,3
q = -1.0, confidence = 0.002

 30 31  0  0  0  0  0  0  0  0999 V2000
   -0.8990   -1.5172    0.4297 N   0  0  0  0  0  2  0  0  0  0  0  0
   -6.9360   -0.6284   -0.2452 N   0  0  0  0  0  0  0  0  0  0  0  0
   -1.6086    0.6307   -1.4631 O   0  5  0  0  0  0  0  0  0  0  0  0
   -7.8042    0.0475   -0.8037 O   0  0  0  0  0  0  0  0  0  0  0  0
   -7.1583   -1.5409    0.5562 O   0  0  0  0  0  0  0  0  0  0  0  0
   -3.1615   -0.7793   -0.2210 C   0  0  0  0  0  0  0  0  0  0  0  0
   -2.8190    0.2874   -1.1548 C   0  0  0  0  0  0  0  0  0  0  0  0
   -3.9085    0.9995   -1.7630 C   0  0  0  0  0  0  0  0  0  0  0  0
   -3.6392    1.7941   -2.4736 H   0  0  0  0  0  0  0  0  0  0  0  0
   -5.2313    0.7147   -1.4732 C   0  0  0  0  0  0  0  0  0  0  0  0
   -6.0619    1.2673   -1.9332 H   0  0  0  0  0  0  0  0  0  0  0  0
   -5.5349   -0.3203   -0.5578 C   0  0  0  0  0  0  0  0  0  0  0  0
   -4.5235   -1.0563    0.0466 C   0  0  0  0  0  0  0  0  0  0  0  0
   -4.8083   -1.8595    0.7419 H   0  0  0  0  0  0  0  0  0  0  0  0
   -2.1982   -1.6226    0.4508 C   0  0  0  0  0  3  0  0  0  0  0  0
   -2.6368   -2.4488    1.0536 H   0  0  0  0  0  0  0  0  0  0  0  0
   -0.0789   -2.4909    1.1396 C   0  0  0  0  0  0  0  0  0  0  0  0
   -0.7453   -3.1400    1.7534 H   0  0  0  0  0  0  0  0  0  0  0  0
    0.7631   -3.3775    0.1736 C   0  0  0  0  0  0  0  0  0  0  0  0
    0.8764   -2.8532   -0.7956 H   0  0  0  0  0  0  0  0  0  0  0  0
    0.2390   -4.3324   -0.0276 H   0  0  0  0  0  0  0  0  0  0  0  0
    2.1405   -3.5684    0.8628 C   0  0  0  0  0  0  0  0  0  0  0  0
    2.4628   -4.6277    0.8892 H   0  0  0  0  0  0  0  0  0  0  0  0
    2.9192   -3.0112    0.3027 H   0  0  0  0  0  0  0  0  0  0  0  0
    1.9856   -2.9642    2.2738 C   0  0  0  0  0  0  0  0  0  0  0  0
    2.9420   -2.6078    2.7046 H   0  0  0  0  0  0  0  0  0  0  0  0
    1.5711   -3.7181    2.9772 H   0  0  0  0  0  0  0  0  0  0  0  0
    0.9664   -1.8402    2.0650 C   0  0  0  0  0  0  0  0  0  0  0  0
    1.4455   -0.9937    1.5266 H   0  0  0  0  0  0  0  0  0  0  0  0
    0.5227   -1.4345    2.9964 H   0  0  0  0  0  0  0  0  0  0  0  0
  1 15  1  0  0  0  0
  1 17  1  0  0  0  0
  2  5  2  0  0  0  0
  3  7  1  0  0  0  0
  4  2  2  0  0  0  0
  6 13  1  0  0  0  0
  6 15  1  0  0  0  0
  7  6  2  0  0  0  0
  8 10  2  0  0  0  0
  8  7  1  0  0  0  0
  9  8  1  0  0  0  0
 10 12  1  0  0  0  0
 11 10  1  0  0  0  0
 12  2  1  0  0  0  0
 12 13  2  0  0  0  0
 13 14  1  0  0  0  0
 15 16  1  0  0  0  0
 17 18  1  0  0  0  0
 17 28  1  0  0  0  0
 19 22  1  0  0  0  0
 19 17  1  0  0  0  0
 20 19  1  0  0  0  0
 21 19  1  0  0  0  0
 22 23  1  0  0  0  0
 22 25  1  0  0  0  0
 24 22  1  0  0  0  0
 25 26  1  0  0  0  0
 25 27  1  0  0  0  0
 28 25  1  0  0  0  0
 28 30  1  0  0  0  0
 29 28  1  0  0  0  0
M  CHG  1   3  -1
M  END
