1,2
q = -1.0

 20 20  0  0  0  0  0  0  0  0999 V2000
    0.7782   -1.7024   -0.0001 O   0  0  0  0  0  1  0  0  0  0  0  0
    1.5367    0.7550   -0.0001 N   0  0  0  0  0  2  0  0  0  0  0  0
    1.7751    2.0939   -0.0000 C   0  0  0  0  0  3  0  0  0  0  0  0
    3.0654    2.6131   -0.0000 C   0  0  0  0  0  0  0  0  0  0  0  0
    4.1555    1.7236   -0.0001 C   0  0  0  0  0  0  0  0  0  0  0  0
    3.9068    0.3490   -0.0001 C   0  0  0  0  0  0  0  0  0  0  0  0
    2.5832   -0.1204   -0.0001 C   0  0  0  0  0  0  0  0  0  0  0  0
    2.1971   -1.5843   -0.0000 C   0  0  0  0  0  0  0  0  0  0  0  0
    2.7199   -2.2783   -1.2729 C   0  0  0  0  0  0  0  0  0  0  0  0
    2.7197   -2.2780    1.2731 C   0  0  0  0  0  0  0  0  0  0  0  0
    0.8891    2.7414   -0.0001 H   0  0  0  0  0  0  0  0  0  0  0  0
    3.2128    3.7020   -0.0000 H   0  0  0  0  0  0  0  0  0  0  0  0
    5.1878    2.1037   -0.0001 H   0  0  0  0  0  0  0  0  0  0  0  0
    4.7353   -0.3730   -0.0002 H   0  0  0  0  0  0  0  0  0  0  0  0
    2.3658   -3.3268   -1.2759 H   0  0  0  0  0  0  0  0  0  0  0  0
    3.8266   -2.2801   -1.3116 H   0  0  0  0  0  0  0  0  0  0  0  0
    2.3308   -1.7712   -2.1771 H   0  0  0  0  0  0  0  0  0  0  0  0
    2.3657   -3.3265    1.2763 H   0  0  0  0  0  0  0  0  0  0  0  0
    2.3306   -1.7707    2.1771 H   0  0  0  0  0  0  0  0  0  0  0  0
    3.8264   -2.2797    1.3119 H   0  0  0  0  0  0  0  0  0  0  0  0
  1  8  1  0  0  0  0
  2  3  1  0  0  0  0
  3  4  1  0  0  0  0
  4 12  1  0  0  0  0
  5  4  2  0  0  0  0
  6  7  2  0  0  0  0
  6  5  1  0  0  0  0
  7  2  1  0  0  0  0
  7  8  1  0  0  0  0
  8 10  1  0  0  0  0
  9  8  1  0  0  0  0
 10 18  1  0  0  0  0
 10 20  1  0  0  0  0
 10 19  1  0  0  0  0
 11  3  1  0  0  0  0
 13  5  1  0  0  0  0
 14  6  1  0  0  0  0
 15  9  1  0  0  0  0
 16  9  1  0  0  0  0
 17  9  1  0  0  0  0
M  END
