1,3
q = 0.0, confidence = 0.968

 47 48  0  0  0  0  0  0  0  0999 V2000
   -2.2574   -0.9655    0.1825 O   0  5  0  0  0  0  0  0  0  0  0  0
   -4.4743   -2.2815   -0.1082 O   0  0  0  0  0  0  0  0  0  0  0  0
   -0.9425    1.6860    0.2503 N   0  0  0  0  0  2  0  0  0  0  0  0
    2.7078    0.8617    0.1326 N   0  3  0  0  0  0  0  0  0  0  0  0
    2.1625    0.3202   -0.6211 H   0  0  0  0  0  0  0  0  0  0  0  0
    2.1607    0.5746    1.0086 H   0  0  0  0  0  0  0  0  0  0  0  0
   -3.3430    1.2093   -0.0918 C   0  0  0  0  0  0  0  0  0  0  0  0
   -3.3061   -0.2376   -0.0243 C   0  0  0  0  0  0  0  0  0  0  0  0
   -4.5762   -0.9284   -0.1899 C   0  0  0  0  0  0  0  0  0  0  0  0
   -5.7596   -0.2288   -0.4160 C   0  0  0  0  0  0  0  0  0  0  0  0
   -6.7048   -0.7739   -0.5461 H   0  0  0  0  0  0  0  0  0  0  0  0
   -5.7668    1.1903   -0.4787 C   0  0  0  0  0  0  0  0  0  0  0  0
   -6.7137    1.7212   -0.6538 H   0  0  0  0  0  0  0  0  0  0  0  0
   -4.5855    1.8873   -0.3139 C   0  0  0  0  0  0  0  0  0  0  0  0
   -4.5776    2.9884   -0.3525 H   0  0  0  0  0  0  0  0  0  0  0  0
   -2.1910    2.0468    0.0998 C   0  0  0  0  0  3  0  0  0  0  0  0
   -2.4113    3.1392    0.1344 H   0  0  0  0  0  0  0  0  0  0  0  0
    0.0667    2.6917    0.5293 C   0  0  0  0  0  0  0  0  0  0  0  0
    0.5092    2.4488    1.5223 H   0  0  0  0  0  0  0  0  0  0  0  0
   -0.4097    3.6941    0.6242 H   0  0  0  0  0  0  0  0  0  0  0  0
    1.1802    2.7399   -0.5512 C   0  0  0  0  0  0  0  0  0  0  0  0
    0.8720    2.1062   -1.4097 H   0  0  0  0  0  0  0  0  0  0  0  0
    1.2641    3.7735   -0.9436 H   0  0  0  0  0  0  0  0  0  0  0  0
    2.5866    2.3252   -0.1101 C   0  0  0  0  0  0  0  0  0  0  0  0
    3.3121    2.5926   -0.9021 H   0  0  0  0  0  0  0  0  0  0  0  0
    2.8989    2.8503    0.8172 H   0  0  0  0  0  0  0  0  0  0  0  0
    4.0875    0.2791    0.2058 C   0  0  0  0  0  0  0  0  0  0  0  0
    4.6575    0.8920    0.9403 H   0  0  0  0  0  0  0  0  0  0  0  0
    4.7793    0.3346   -1.1626 C   0  0  0  0  0  0  0  0  0  0  0  0
    4.8883    1.3817   -1.5140 H   0  0  0  0  0  0  0  0  0  0  0  0
    4.1280   -0.1893   -1.8973 H   0  0  0  0  0  0  0  0  0  0  0  0
    6.1567   -0.3414   -1.1123 C   0  0  0  0  0  0  0  0  0  0  0  0
    6.6219   -0.3092   -2.1188 H   0  0  0  0  0  0  0  0  0  0  0  0
    6.8258    0.2430   -0.4411 H   0  0  0  0  0  0  0  0  0  0  0  0
    6.0594   -1.7838   -0.6017 C   0  0  0  0  0  0  0  0  0  0  0  0
    5.4832   -2.3923   -1.3335 H   0  0  0  0  0  0  0  0  0  0  0  0
    7.0694   -2.2388   -0.5391 H   0  0  0  0  0  0  0  0  0  0  0  0
    5.3586   -1.8375    0.7609 C   0  0  0  0  0  0  0  0  0  0  0  0
    5.9921   -1.3278    1.5217 H   0  0  0  0  0  0  0  0  0  0  0  0
    5.2461   -2.8860    1.1040 H   0  0  0  0  0  0  0  0  0  0  0  0
    3.9815   -1.1665    0.7137 C   0  0  0  0  0  0  0  0  0  0  0  0
    3.3039   -1.7205    0.0271 H   0  0  0  0  0  0  0  0  0  0  0  0
    3.4861   -1.1824    1.7053 H   0  0  0  0  0  0  0  0  0  0  0  0
   -5.6512   -3.0419   -0.2585 C   0  0  0  0  0  0  0  0  0  0  0  0
   -6.4083   -2.8009    0.5235 H   0  0  0  0  0  0  0  0  0  0  0  0
   -5.3566   -4.1034   -0.1574 H   0  0  0  0  0  0  0  0  0  0  0  0
   -6.1221   -2.8916   -1.2578 H   0  0  0  0  0  0  0  0  0  0  0  0
  3 18  1  0  0  0  0
  4 27  1  0  0  0  0
  4  6  1  0  0  0  0
  5  4  1  0  0  0  0
  7  8  1  0  0  0  0
  7 16  1  0  0  0  0
  8  1  1  0  0  0  0
  9  2  1  0  0  0  0
  9  8  2  0  0  0  0
 10  9  1  0  0  0  0
 11 10  1  0  0  0  0
 12 10  2  0  0  0  0
 12 14  1  0  0  0  0
 13 12  1  0  0  0  0
 14  7  2  0  0  0  0
 15 14  1  0  0  0  0
 16 17  1  0  0  0  0
 16  3  1  0  0  0  0
 18 20  1  0  0  0  0
 18 19  1  0  0  0  0
 21 24  1  0  0  0  0
 21 18  1  0  0  0  0
 22 21  1  0  0  0  0
 23 21  1  0  0  0  0
 24  4  1  0  0  0  0
 24 26  1  0  0  0  0
 25 24  1  0  0  0  0
 27 41  1  0  0  0  0
 27 28  1  0  0  0  0
 29 32  1  0  0  0  0
 29 27  1  0  0  0  0
 30 29  1  0  0  0  0
 31 29  1  0  0  0  0
 32 35  1  0  0  0  0
 32 34  1  0  0  0  0
 33 32  1  0  0  0  0
 35 37  1  0  0  0  0
 35 38  1  0  0  0  0
 36 35  1  0  0  0  0
 38 40  1  0  0  0  0
 38 39  1  0  0  0  0
 41 38  1  0  0  0  0
 41 43  1  0  0  0  0
 42 41  1  0  0  0  0
 44 46  1  0  0  0  0
 44  2  1  0  0  0  0
 44 45  1  0  0  0  0
 47 44  1  0  0  0  0
M  CHG  2   1  -1   4   1
M  END
