1,13
q = -1.0

 35 36  0  0  1  0  0  0  0  0999 V2000
    1.9416    0.4713   -0.0003 O   0  0  0  0  0  1  0  0  0  0  0  0
    2.4510    1.6652    0.0001 C   0  0  1  0  0  3  0  0  0  0  0  0
    3.8991    1.7488    0.0002 C   0  0  0  0  0  0  0  0  0  0  0  0
    4.5408    2.9859    0.0006 C   0  0  0  0  0  0  0  0  0  0  0  0
    5.6384    3.0339    0.0007 H   0  0  0  0  0  0  0  0  0  0  0  0
    3.7936    4.1942    0.0009 C   0  0  0  0  0  0  0  0  0  0  0  0
    4.3233    5.1577    0.0012 H   0  0  0  0  0  0  0  0  0  0  0  0
    2.4121    4.1495    0.0007 C   0  0  0  0  0  0  0  0  0  0  0  0
    1.8215    5.0786    0.0009 H   0  0  0  0  0  0  0  0  0  0  0  0
    1.7137    2.8990    0.0003 C   0  0  0  0  0  0  0  0  0  0  0  0
    0.2822    2.9449    0.0001 C   0  0  0  0  0  0  0  0  0  0  0  0
   -0.1599    3.9612    0.0001 H   0  0  0  0  0  0  0  0  0  0  0  0
   -0.5707    1.9458   -0.0001 N   0  0  0  0  0  2  0  0  0  0  0  0
   -1.9675    2.2675   -0.0004 C   0  0  0  0  0  0  0  0  0  0  0  0
   -2.6375    2.4029   -1.2378 C   0  0  0  0  0  0  0  0  0  0  0  0
   -4.0006    2.7488   -1.2147 C   0  0  0  0  0  0  0  0  0  0  0  0
   -4.5353    2.8689   -2.1699 H   0  0  0  0  0  0  0  0  0  0  0  0
   -4.6760    2.9354   -0.0010 C   0  0  0  0  0  0  0  0  0  0  0  0
   -5.7395    3.2205   -0.0013 H   0  0  0  0  0  0  0  0  0  0  0  0
   -4.0011    2.7489    1.2129 C   0  0  0  0  0  0  0  0  0  0  0  0
   -4.5362    2.8692    2.1680 H   0  0  0  0  0  0  0  0  0  0  0  0
   -2.6380    2.4030    1.2367 C   0  0  0  0  0  0  0  0  0  0  0  0
    4.5185    0.5409   -0.0001 O   0  0  0  0  0  0  0  0  0  0  0  0
    5.9284    0.5160   -0.0002 C   0  0  0  0  0  0  0  0  0  0  0  0
    6.2169   -0.5511   -0.0006 H   0  0  0  0  0  0  0  0  0  0  0  0
    6.3531    1.0107   -0.9039 H   0  0  0  0  0  0  0  0  0  0  0  0
    6.3532    1.0100    0.9038 H   0  0  0  0  0  0  0  0  0  0  0  0
   -1.9064    2.1533   -2.5294 C   0  0  0  0  0  0  0  0  0  0  0  0
   -2.5789    2.2727   -3.3997 H   0  0  0  0  0  0  0  0  0  0  0  0
   -1.0441    2.8389   -2.6628 H   0  0  0  0  0  0  0  0  0  0  0  0
   -1.4915    1.1227   -2.5428 H   0  0  0  0  0  0  0  0  0  0  0  0
   -1.9075    2.1535    2.5286 C   0  0  0  0  0  0  0  0  0  0  0  0
   -1.4933    1.1226    2.5424 H   0  0  0  0  0  0  0  0  0  0  0  0
   -1.0448    2.8386    2.6621 H   0  0  0  0  0  0  0  0  0  0  0  0
   -2.5803    2.2735    3.3986 H   0  0  0  0  0  0  0  0  0  0  0  0
  2  1  1  6  0  0  0
  2  3  1  0  0  0  0
  2 10  1  0  0  0  0
  3  4  2  0  0  0  0
  4  5  1  0  0  0  0
  4  6  1  0  0  0  0
  6  7  1  0  0  0  0
  8  6  2  0  0  0  0
  8  9  1  0  0  0  0
 10  8  1  0  0  0  0
 11 10  2  0  0  0  0
 12 11  1  0  0  0  0
 13 11  1  0  0  0  0
 14 13  1  0  0  0  0
 14 22  1  0  0  0  0
 15 16  1  0  0  0  0
 15 14  2  0  0  0  0
 16 18  2  0  0  0  0
 17 16  1  0  0  0  0
 18 20  1  0  0  0  0
 19 18  1  0  0  0  0
 20 22  2  0  0  0  0
 20 21  1  0  0  0  0
 22 32  1  0  0  0  0
 23  3  1  0  0  0  0
 24 23  1  0  0  0  0
 24 27  1  0  0  0  0
 25 24  1  0  0  0  0
 26 24  1  0  0  0  0
 28 15  1  0  0  0  0
 29 28  1  0  0  0  0
 30 28  1  0  0  0  0
 31 28  1  0  0  0  0
 32 33  1  0  0  0  0
 32 34  1  0  0  0  0
 32 35  1  0  0  0  0
M  END
