1,3
q = -1.0, confidence = 0.006

 22 23  0  0  1  0  0  0  0  0999 V2000
    2.0586   -0.0174   -0.3991 N   0  0  0  0  0  2  0  0  0  0  0  0
    0.4616   -1.6568    0.8891 N   0  0  0  0  0  0  0  0  0  0  0  0
    0.5907    1.5863   -1.9307 O   0  5  0  0  0  0  0  0  0  0  0  0
    2.4221    2.8224   -2.4842 O   0  0  0  0  0  0  0  0  0  0  0  0
    1.8442    1.8858   -1.9240 C   0  0  0  0  0  0  0  0  0  0  0  0
    2.7148    0.9414   -1.0659 C   0  0  1  0  0  3  0  0  0  0  0  0
    4.1079    1.0794   -0.9431 C   0  0  0  0  0  0  0  0  0  0  0  0
    4.5977    1.8842   -1.5091 H   0  0  0  0  0  0  0  0  0  0  0  0
    4.7903    0.1875   -0.1050 C   0  0  0  0  0  0  0  0  0  0  0  0
    5.8819    0.2605    0.0169 H   0  0  0  0  0  0  0  0  0  0  0  0
    4.0786   -0.8045    0.5928 C   0  0  0  0  0  0  0  0  0  0  0  0
    4.6058   -1.4971    1.2631 H   0  0  0  0  0  0  0  0  0  0  0  0
    2.6843   -0.8822    0.4216 C   0  0  0  0  0  0  0  0  0  0  0  0
    1.7826   -1.8677    1.0820 C   0  0  0  0  0  0  0  0  0  0  0  0
    2.2511   -2.9607    1.8376 C   0  0  0  0  0  0  0  0  0  0  0  0
    3.3283   -3.1267    1.9766 H   0  0  0  0  0  0  0  0  0  0  0  0
    1.3205   -3.8480    2.3924 C   0  0  0  0  0  0  0  0  0  0  0  0
    1.6625   -4.7130    2.9802 H   0  0  0  0  0  0  0  0  0  0  0  0
   -0.0469   -3.6262    2.1754 C   0  0  0  0  0  0  0  0  0  0  0  0
   -0.8103   -4.3045    2.5824 H   0  0  0  0  0  0  0  0  0  0  0  0
   -0.4240   -2.5121    1.4098 C   0  0  0  0  0  0  0  0  0  0  0  0
   -1.4863   -2.3007    1.2010 H   0  0  0  0  0  0  0  0  0  0  0  0
  1 13  1  0  0  0  0
  2 14  2  0  0  0  0
  2 21  1  0  0  0  0
  3  5  1  0  0  0  0
  4  5  2  0  0  0  0
  6  5  1  1  0  0  0
  6  7  1  0  0  0  0
  6  1  1  0  0  0  0
  7  9  2  0  0  0  0
  8  7  1  0  0  0  0
  9 10  1  0  0  0  0
  9 11  1  0  0  0  0
 11 12  1  0  0  0  0
 13 11  2  0  0  0  0
 13 14  1  0  0  0  0
 14 15  1  0  0  0  0
 15 16  1  0  0  0  0
 15 17  2  0  0  0  0
 17 18  1  0  0  0  0
 19 17  1  0  0  0  0
 19 20  1  0  0  0  0
 21 19  2  0  0  0  0
 22 21  1  0  0  0  0
M  CHG  1   3  -1
M  END
