1,13
q = -1.0, confidence = 0.0

 29 30  0  0  1  0  0  0  0  0999 V2000
   -1.9660    0.3207   -0.1747 O   0  0  0  0  0  1  0  0  0  0  0  0
   -2.5770    1.4619   -0.0925 C   0  0  2  0  0  3  0  0  0  0  0  0
   -4.0265    1.4274   -0.1471 C   0  0  0  0  0  0  0  0  0  0  0  0
   -4.7710    2.6009   -0.0457 C   0  0  0  0  0  0  0  0  0  0  0  0
   -5.8685    2.5581   -0.0779 H   0  0  0  0  0  0  0  0  0  0  0  0
   -4.1296    3.8608    0.0962 C   0  0  0  0  0  0  0  0  0  0  0  0
   -4.7393    4.7725    0.1734 H   0  0  0  0  0  0  0  0  0  0  0  0
   -2.7497    3.9310    0.1278 C   0  0  0  0  0  0  0  0  0  0  0  0
   -2.2403    4.9024    0.2231 H   0  0  0  0  0  0  0  0  0  0  0  0
   -1.9478    2.7479    0.0338 C   0  0  0  0  0  0  0  0  0  0  0  0
   -0.5272    2.9144    0.0105 C   0  0  0  0  0  0  0  0  0  0  0  0
   -0.1750    3.9645    0.0234 H   0  0  0  0  0  0  0  0  0  0  0  0
    0.4092    1.9927   -0.0660 N   0  0  0  0  0  2  0  0  0  0  0  0
    1.7649    2.4394   -0.1198 C   0  0  0  0  0  0  0  0  0  0  0  0
    2.3044    3.2052    0.9306 C   0  0  0  0  0  0  0  0  0  0  0  0
    1.6857    3.4143    1.8160 H   0  0  0  0  0  0  0  0  0  0  0  0
    3.6235    3.6750    0.8491 C   0  0  0  0  0  0  0  0  0  0  0  0
    4.0391    4.2730    1.6744 H   0  0  0  0  0  0  0  0  0  0  0  0
    4.4093    3.3806   -0.2756 C   0  0  0  0  0  0  0  0  0  0  0  0
    5.4420    3.7559   -0.3418 H   0  0  0  0  0  0  0  0  0  0  0  0
    3.8728    2.6014   -1.3146 C   0  0  0  0  0  0  0  0  0  0  0  0
    4.4863    2.3577   -2.1952 H   0  0  0  0  0  0  0  0  0  0  0  0
    2.5604    2.1233   -1.2367 C   0  0  0  0  0  0  0  0  0  0  0  0
    2.1322    1.5030   -2.0363 H   0  0  0  0  0  0  0  0  0  0  0  0
   -4.5409    0.1794   -0.2935 O   0  0  0  0  0  0  0  0  0  0  0  0
   -5.9424    0.0376   -0.3515 C   0  0  0  0  0  0  0  0  0  0  0  0
   -6.1387   -1.0448   -0.4651 H   0  0  0  0  0  0  0  0  0  0  0  0
   -6.3805    0.5827   -1.2190 H   0  0  0  0  0  0  0  0  0  0  0  0
   -6.4371    0.4013    0.5786 H   0  0  0  0  0  0  0  0  0  0  0  0
  2  1  1  6  0  0  0
  2 10  1  0  0  0  0
  3  2  1  0  0  0  0
  3  4  2  0  0  0  0
  4  6  1  0  0  0  0
  5  4  1  0  0  0  0
  6  8  2  0  0  0  0
  6  7  1  0  0  0  0
  8  9  1  0  0  0  0
 10  8  1  0  0  0  0
 11 12  1  0  0  0  0
 11 10  2  0  0  0  0
 13 11  1  0  0  0  0
 14 13  1  0  0  0  0
 14 15  1  0  0  0  0
 15 16  1  0  0  0  0
 17 15  2  0  0  0  0
 17 18  1  0  0  0  0
 19 17  1  0  0  0  0
 20 19  1  0  0  0  0
 21 23  1  0  0  0  0
 21 19  2  0  0  0  0
 22 21  1  0  0  0  0
 23 14  2  0  0  0  0
 24 23  1  0  0  0  0
 25  3  1  0  0  0  0
 26 25  1  0  0  0  0
 26 29  1  0  0  0  0
 27 26  1  0  0  0  0
 28 26  1  0  0  0  0
M  END
