1,16
q = -1.0

 28 29  0  0  0  0  0  0  0  0999 V2000
   -1.5128    1.3979   -0.5099 N   0  0  0  0  0  2  0  0  0  0  0  0
   -2.8339    1.1087   -0.2366 C   0  0  0  0  0  0  0  0  0  0  0  0
   -3.7726    2.1894   -0.2730 C   0  0  0  0  0  0  0  0  0  0  0  0
   -3.3853    3.4815   -0.5942 C   0  0  0  0  0  0  0  0  0  0  0  0
   -2.0330    3.7326   -0.8920 C   0  0  0  0  0  0  0  0  0  0  0  0
   -1.1465    2.6633   -0.8355 C   0  0  0  0  0  3  0  0  0  0  0  0
   -4.7508   -0.3468    0.4859 C   0  0  0  0  0  0  0  0  0  0  0  0
   -5.1275   -0.0863    1.8216 C   0  0  0  0  0  0  0  0  0  0  0  0
   -6.4644   -0.2068    2.2301 C   0  0  0  0  0  0  0  0  0  0  0  0
   -7.4517   -0.5888    1.3072 C   0  0  0  0  0  0  0  0  0  0  0  0
   -7.0937   -0.8461   -0.0257 C   0  0  0  0  0  0  0  0  0  0  0  0
   -5.7559   -0.7220   -0.4314 C   0  0  0  0  0  0  0  0  0  0  0  0
   -3.3178   -0.2248    0.0584 C   0  0  0  0  0  0  0  0  0  0  0  0
   -2.5777   -1.4020   -0.1033 C   0  0  0  0  0  0  0  0  0  0  0  0
   -3.2024   -2.7652    0.1167 C   0  0  0  0  0  0  0  0  0  0  0  0
   -1.3343   -1.4882   -0.4708 O   0  5  0  0  0  0  0  0  0  0  0  0
   -4.8237    1.9646   -0.0550 H   0  0  0  0  0  0  0  0  0  0  0  0
   -4.1316    4.2902   -0.6210 H   0  0  0  0  0  0  0  0  0  0  0  0
   -1.6646    4.7329   -1.1571 H   0  0  0  0  0  0  0  0  0  0  0  0
   -0.0713    2.7954   -1.0224 H   0  0  0  0  0  0  0  0  0  0  0  0
   -4.3507    0.2101    2.5434 H   0  0  0  0  0  0  0  0  0  0  0  0
   -6.7374   -0.0051    3.2774 H   0  0  0  0  0  0  0  0  0  0  0  0
   -8.5005   -0.6856    1.6271 H   0  0  0  0  0  0  0  0  0  0  0  0
   -7.8623   -1.1439   -0.7556 H   0  0  0  0  0  0  0  0  0  0  0  0
   -5.4733   -0.9189   -1.4773 H   0  0  0  0  0  0  0  0  0  0  0  0
   -3.4864   -3.2139   -0.8587 H   0  0  0  0  0  0  0  0  0  0  0  0
   -2.4504   -3.4324    0.5809 H   0  0  0  0  0  0  0  0  0  0  0  0
   -4.1064   -2.7228    0.7488 H   0  0  0  0  0  0  0  0  0  0  0  0
  1  2  1  0  0  0  0
  2 13  1  0  0  0  0
  3  2  2  0  0  0  0
  3 17  1  0  0  0  0
  4  3  1  0  0  0  0
  5  6  1  0  0  0  0
  5  4  2  0  0  0  0
  6  1  1  0  0  0  0
  7  8  1  0  0  0  0
  8  9  2  0  0  0  0
  8 21  1  0  0  0  0
  9 22  1  0  0  0  0
 10 23  1  0  0  0  0
 10  9  1  0  0  0  0
 11 10  2  0  0  0  0
 12 11  1  0  0  0  0
 12  7  2  0  0  0  0
 13  7  1  0  0  0  0
 14 13  2  0  0  0  0
 14 15  1  0  0  0  0
 15 27  1  0  0  0  0
 15 28  1  0  0  0  0
 16 14  1  0  0  0  0
 18  4  1  0  0  0  0
 19  5  1  0  0  0  0
 20  6  1  0  0  0  0
 24 11  1  0  0  0  0
 25 12  1  0  0  0  0
 26 15  1  0  0  0  0
M  CHG  1  16  -1
M  END
