1,3
q = -1.0, confidence = 0.0

 22 22  0  0  1  0  0  0  0  0999 V2000
    1.9224    0.5706   -0.0001 O   0  0  0  0  0  1  0  0  0  0  0  0
    4.1935    1.7835    0.0001 O   0  0  0  0  0  0  0  0  0  0  0  0
    0.4616   -1.9737   -0.0000 N   0  0  0  0  0  2  0  0  0  0  0  0
    2.9200   -1.6562   -0.0000 C   0  0  0  0  0  0  0  0  0  0  0  0
    2.9575   -0.2225   -0.0000 C   0  0  1  0  0  3  0  0  0  0  0  0
    4.2527    0.4219    0.0000 C   0  0  0  0  0  0  0  0  0  0  0  0
    5.4244   -0.3332    0.0001 C   0  0  0  0  0  0  0  0  0  0  0  0
    5.3704   -1.7516    0.0000 C   0  0  0  0  0  0  0  0  0  0  0  0
    4.1453   -2.3946   -0.0000 C   0  0  0  0  0  0  0  0  0  0  0  0
    1.6979   -2.4115   -0.0000 C   0  0  0  0  0  0  0  0  0  0  0  0
   -0.6202   -2.9570    0.0000 C   0  0  0  0  0  0  0  0  0  0  0  0
    5.4130    2.4941   -0.0000 C   0  0  0  0  0  0  0  0  0  0  0  0
    6.4027    0.1665    0.0001 H   0  0  0  0  0  0  0  0  0  0  0  0
    6.3061   -2.3289    0.0001 H   0  0  0  0  0  0  0  0  0  0  0  0
    4.0929   -3.4945   -0.0000 H   0  0  0  0  0  0  0  0  0  0  0  0
    1.8282   -3.5118   -0.0001 H   0  0  0  0  0  0  0  0  0  0  0  0
   -1.2727   -2.8069   -0.8810 H   0  0  0  0  0  0  0  0  0  0  0  0
   -1.2722   -2.8073    0.8815 H   0  0  0  0  0  0  0  0  0  0  0  0
   -0.2070   -3.9858   -0.0003 H   0  0  0  0  0  0  0  0  0  0  0  0
    6.0259    2.2711    0.9034 H   0  0  0  0  0  0  0  0  0  0  0  0
    5.1521    3.5690   -0.0002 H   0  0  0  0  0  0  0  0  0  0  0  0
    6.0258    2.2709   -0.9035 H   0  0  0  0  0  0  0  0  0  0  0  0
  3 11  1  0  0  0  0
  4  5  1  0  0  0  0
  4  9  1  0  0  0  0
  5  1  1  6  0  0  0
  5  6  1  0  0  0  0
  6  2  1  0  0  0  0
  6  7  2  0  0  0  0
  7 13  1  0  0  0  0
  8 14  1  0  0  0  0
  8  7  1  0  0  0  0
  9  8  2  0  0  0  0
 10  4  2  0  0  0  0
 10  3  1  0  0  0  0
 11 18  1  0  0  0  0
 12  2  1  0  0  0  0
 12 20  1  0  0  0  0
 15  9  1  0  0  0  0
 16 10  1  0  0  0  0
 17 11  1  0  0  0  0
 19 11  1  0  0  0  0
 21 12  1  0  0  0  0
 22 12  1  0  0  0  0
M  END
