1,3
q = -1.0

 22 22  0  0  1  0  0  0  0  0999 V2000
   -1.4292    1.4153    0.0020 O   0  5  0  0  0  0  0  0  0  0  0  0
   -5.3364   -1.3790    0.0001 O   0  0  0  0  0  0  0  0  0  0  0  0
   -1.3549   -1.5065    0.0002 N   0  0  0  0  0  2  0  0  0  0  0  0
   -3.3630   -0.0646    0.0008 C   0  0  0  0  0  0  0  0  0  0  0  0
   -2.7233    1.2272    0.0011 C   0  0  0  0  0  0  0  0  0  0  0  0
   -3.5435    2.3967    0.0007 C   0  0  0  0  0  0  0  0  0  0  0  0
   -4.9259    2.2921    0.0002 C   0  0  0  0  0  0  0  0  0  0  0  0
   -5.5797    1.0379    0.0000 C   0  0  0  0  0  0  0  0  0  0  0  0
   -4.8043   -0.1235    0.0003 C   0  0  1  0  0  3  0  0  0  0  0  0
   -2.6526   -1.3082    0.0009 C   0  0  0  0  0  0  0  0  0  0  0  0
   -6.7433   -1.5228   -0.0004 C   0  0  0  0  0  0  0  0  0  0  0  0
   -0.8831   -2.8894    0.0002 C   0  0  0  0  0  0  0  0  0  0  0  0
   -3.0353    3.3708    0.0009 H   0  0  0  0  0  0  0  0  0  0  0  0
   -5.5369    3.2084   -0.0001 H   0  0  0  0  0  0  0  0  0  0  0  0
   -6.6750    0.9923   -0.0004 H   0  0  0  0  0  0  0  0  0  0  0  0
   -3.2910   -2.2092    0.0015 H   0  0  0  0  0  0  0  0  0  0  0  0
   -6.9461   -2.6098   -0.0005 H   0  0  0  0  0  0  0  0  0  0  0  0
   -7.2044   -1.0666   -0.9045 H   0  0  0  0  0  0  0  0  0  0  0  0
   -7.2050   -1.0667    0.9035 H   0  0  0  0  0  0  0  0  0  0  0  0
   -1.7418   -3.5904    0.0009 H   0  0  0  0  0  0  0  0  0  0  0  0
   -0.2458   -3.0741    0.8861 H   0  0  0  0  0  0  0  0  0  0  0  0
   -0.2470   -3.0744   -0.8866 H   0  0  0  0  0  0  0  0  0  0  0  0
  3 10  1  0  0  0  0
  4 10  2  0  0  0  0
  4  5  1  0  0  0  0
  5  1  1  0  0  0  0
  6 13  1  0  0  0  0
  6  5  2  0  0  0  0
  7  6  1  0  0  0  0
  8  7  2  0  0  0  0
  8  9  1  0  0  0  0
  9  2  1  6  0  0  0
  9  4  1  0  0  0  0
 10 16  1  0  0  0  0
 11  2  1  0  0  0  0
 11 19  1  0  0  0  0
 12  3  1  0  0  0  0
 12 20  1  0  0  0  0
 12 21  1  0  0  0  0
 14  7  1  0  0  0  0
 15  8  1  0  0  0  0
 17 11  1  0  0  0  0
 18 11  1  0  0  0  0
 22 12  1  0  0  0  0
M  CHG  1   1  -1
M  END
