1,2
q = -1.0

 25 24  0  0  0  0  0  0  0  0999 V2000
    1.6999   -0.7338   -0.0005 O   0  5  0  0  0  0  0  0  0  0  0  0
    0.9075    1.6877   -0.0000 N   0  0  0  0  0  0  0  0  0  0  0  0
    2.3578    1.4917    0.0002 N   0  0  0  0  0  0  0  0  0  0  0  0
    2.6165    0.2098   -0.0001 C   0  0  0  0  0  0  0  0  0  0  0  0
    4.0715   -0.2632    0.0000 C   0  0  0  0  0  0  0  0  0  0  0  0
    4.2885   -1.1247    1.2618 C   0  0  0  0  0  0  0  0  0  0  0  0
    3.5826   -1.9777    1.2826 H   0  0  0  0  0  0  0  0  0  0  0  0
    5.3237   -1.5228    1.2813 H   0  0  0  0  0  0  0  0  0  0  0  0
    4.1344   -0.5252    2.1822 H   0  0  0  0  0  0  0  0  0  0  0  0
    5.0412    0.9273   -0.0002 C   0  0  0  0  0  0  0  0  0  0  0  0
    4.8891    1.5666    0.8904 H   0  0  0  0  0  0  0  0  0  0  0  0
    6.0885    0.5609    0.0000 H   0  0  0  0  0  0  0  0  0  0  0  0
    4.8893    1.5661   -0.8913 H   0  0  0  0  0  0  0  0  0  0  0  0
    4.2887   -1.1254   -1.2613 C   0  0  0  0  0  0  0  0  0  0  0  0
    4.1347   -0.5264   -2.1819 H   0  0  0  0  0  0  0  0  0  0  0  0
    5.3239   -1.5235   -1.2804 H   0  0  0  0  0  0  0  0  0  0  0  0
    3.5829   -1.9783   -1.2817 H   0  0  0  0  0  0  0  0  0  0  0  0
    0.5439    2.4461   -1.2158 C   0  0  0  0  0  0  0  0  0  0  0  0
    0.8575    1.8679   -2.1038 H   0  0  0  0  0  0  0  0  0  0  0  0
   -0.5531    2.5858   -1.2307 H   0  0  0  0  0  0  0  0  0  0  0  0
    1.0698    3.4251   -1.2190 H   0  0  0  0  0  0  0  0  0  0  0  0
    0.5437    2.4466    1.2154 C   0  0  0  0  0  0  0  0  0  0  0  0
    1.0695    3.4256    1.2182 H   0  0  0  0  0  0  0  0  0  0  0  0
   -0.5534    2.5862    1.2300 H   0  0  0  0  0  0  0  0  0  0  0  0
    0.8571    1.8687    2.1037 H   0  0  0  0  0  0  0  0  0  0  0  0
  1  4  1  0  0  0  0
  2  3  1  0  0  0  0
  2 22  1  0  0  0  0
  4  5  1  0  0  0  0
  4  3  2  0  0  0  0
  5  6  1  0  0  0  0
  6  8  1  0  0  0  0
  6  7  1  0  0  0  0
  6  9  1  0  0  0  0
 10 12  1  0  0  0  0
 10  5  1  0  0  0  0
 10 11  1  0  0  0  0
 13 10  1  0  0  0  0
 14  5  1  0  0  0  0
 15 14  1  0  0  0  0
 16 14  1  0  0  0  0
 17 14  1  0  0  0  0
 18  2  1  0  0  0  0
 19 18  1  0  0  0  0
 20 18  1  0  0  0  0
 21 18  1  0  0  0  0
 22 23  1  0  0  0  0
 22 24  1  0  0  0  0
 22 25  1  0  0  0  0
M  CHG  1   1  -1
M  END
