1,2
q = -1.0

 25 26  0  0  0  0  0  0  0  0999 V2000
   -1.4282   -1.9598   -0.8061 N   0  0  0  0  0  2  0  0  0  0  0  0
   -0.4007    0.8590   -0.6065 O   0  5  0  0  0  0  0  0  0  0  0  0
   -1.4325   -3.3038   -0.9993 C   0  0  0  0  0  3  0  0  0  0  0  0
   -0.4632   -3.8069   -0.8734 H   0  0  0  0  0  0  0  0  0  0  0  0
   -2.5653   -4.0433   -1.3215 C   0  0  0  0  0  0  0  0  0  0  0  0
   -2.4913   -5.1313   -1.4516 H   0  0  0  0  0  0  0  0  0  0  0  0
   -3.7872   -3.3502   -1.4607 C   0  0  0  0  0  0  0  0  0  0  0  0
   -4.7151   -3.8879   -1.7083 H   0  0  0  0  0  0  0  0  0  0  0  0
   -3.7974   -1.9757   -1.2890 C   0  0  0  0  0  0  0  0  0  0  0  0
   -4.7274   -1.4011   -1.4071 H   0  0  0  0  0  0  0  0  0  0  0  0
   -2.6011   -1.2526   -0.9731 C   0  0  0  0  0  0  0  0  0  0  0  0
   -2.6910    0.1688   -0.8353 C   0  0  0  0  0  0  0  0  0  0  0  0
   -3.7142    0.5609   -0.8895 H   0  0  0  0  0  0  0  0  0  0  0  0
   -1.6670    1.1123   -0.7112 C   0  0  0  0  0  0  0  0  0  0  0  0
   -1.9958    2.5737   -0.6706 C   0  0  0  0  0  0  0  0  0  0  0  0
   -3.1955    3.1111   -1.1861 C   0  0  0  0  0  0  0  0  0  0  0  0
   -3.9274    2.4511   -1.6742 H   0  0  0  0  0  0  0  0  0  0  0  0
   -3.4509    4.4870   -1.1144 C   0  0  0  0  0  0  0  0  0  0  0  0
   -4.3875    4.8900   -1.5294 H   0  0  0  0  0  0  0  0  0  0  0  0
   -2.5120    5.3512   -0.5273 C   0  0  0  0  0  0  0  0  0  0  0  0
   -2.7143    6.4318   -0.4721 H   0  0  0  0  0  0  0  0  0  0  0  0
   -1.3109    4.8288   -0.0203 C   0  0  0  0  0  0  0  0  0  0  0  0
   -0.5680    5.5001    0.4373 H   0  0  0  0  0  0  0  0  0  0  0  0
   -1.0520    3.4545   -0.0962 C   0  0  0  0  0  0  0  0  0  0  0  0
   -0.1143    3.0293    0.2900 H   0  0  0  0  0  0  0  0  0  0  0  0
  3  4  1  0  0  0  0
  3  1  1  0  0  0  0
  5  3  1  0  0  0  0
  6  5  1  0  0  0  0
  7  5  2  0  0  0  0
  7  9  1  0  0  0  0
  8  7  1  0  0  0  0
  9 11  2  0  0  0  0
 10  9  1  0  0  0  0
 11 12  1  0  0  0  0
 11  1  1  0  0  0  0
 12 14  2  0  0  0  0
 13 12  1  0  0  0  0
 14 15  1  0  0  0  0
 14  2  1  0  0  0  0
 15 24  1  0  0  0  0
 16 18  1  0  0  0  0
 16 15  2  0  0  0  0
 17 16  1  0  0  0  0
 18 20  2  0  0  0  0
 19 18  1  0  0  0  0
 20 21  1  0  0  0  0
 20 22  1  0  0  0  0
 22 23  1  0  0  0  0
 24 22  2  0  0  0  0
 24 25  1  0  0  0  0
M  CHG  1   2  -1
M  END
