1,2
q = -1.0

 34 38  0  0  0  0  0  0  0  0999 V2000
   -1.7683    2.2601   -0.3396 O   0  5  0  0  0  0  0  0  0  0  0  0
    0.5358    0.9079   -0.7744 N   0  0  0  0  0  2  0  0  0  0  0  0
    2.9577    2.3554   -0.9161 N   0  0  0  0  0  0  0  0  0  0  0  0
   -0.7096    2.9656   -0.6796 C   0  0  0  0  0  0  0  0  0  0  0  0
   -0.7248    4.3580   -0.8885 C   0  0  0  0  0  0  0  0  0  0  0  0
   -1.6841    4.8894   -0.8125 H   0  0  0  0  0  0  0  0  0  0  0  0
    0.4750    5.0539   -1.1596 C   0  0  0  0  0  0  0  0  0  0  0  0
    0.4272    6.1439   -1.3057 H   0  0  0  0  0  0  0  0  0  0  0  0
    1.7153    4.4151   -1.2062 C   0  0  0  0  0  3  0  0  0  0  0  0
    2.6551    4.9639   -1.3513 H   0  0  0  0  0  0  0  0  0  0  0  0
    1.7751    3.0106   -1.0224 C   0  0  0  0  0  0  0  0  0  0  0  0
    2.9456    1.0300   -0.8163 C   0  0  0  0  0  0  0  0  0  0  0  0
    4.2065    0.3360   -0.5310 C   0  0  0  0  0  0  0  0  0  0  0  0
    5.3635    1.0888   -0.2256 C   0  0  0  0  0  0  0  0  0  0  0  0
    5.2867    2.1842   -0.2710 H   0  0  0  0  0  0  0  0  0  0  0  0
    6.5492    0.4505    0.1352 C   0  0  0  0  0  0  0  0  0  0  0  0
    7.4435    1.0433    0.3779 H   0  0  0  0  0  0  0  0  0  0  0  0
    6.5934   -0.9569    0.1981 C   0  0  0  0  0  0  0  0  0  0  0  0
    7.5214   -1.4670    0.4964 H   0  0  0  0  0  0  0  0  0  0  0  0
    5.4634   -1.7110   -0.1236 C   0  0  0  0  0  0  0  0  0  0  0  0
    5.5245   -2.8068   -0.0720 H   0  0  0  0  0  0  0  0  0  0  0  0
    4.2521   -1.0873   -0.5094 C   0  0  0  0  0  0  0  0  0  0  0  0
    3.0763   -1.8462   -0.9564 C   0  0  0  0  0  0  0  0  0  0  0  0
    3.1611   -3.2247   -1.2653 C   0  0  0  0  0  0  0  0  0  0  0  0
    4.1152   -3.7506   -1.1272 H   0  0  0  0  0  0  0  0  0  0  0  0
    2.0779   -3.9261   -1.7972 C   0  0  0  0  0  0  0  0  0  0  0  0
    2.1861   -4.9917   -2.0482 H   0  0  0  0  0  0  0  0  0  0  0  0
    0.8674   -3.2551   -2.0492 C   0  0  0  0  0  0  0  0  0  0  0  0
    0.0210   -3.7870   -2.5085 H   0  0  0  0  0  0  0  0  0  0  0  0
    0.7493   -1.9040   -1.7286 C   0  0  0  0  0  0  0  0  0  0  0  0
   -0.1881   -1.3761   -1.9300 H   0  0  0  0  0  0  0  0  0  0  0  0
    1.8235   -1.1805   -1.1593 C   0  0  0  0  0  0  0  0  0  0  0  0
    1.7214    0.2534   -0.8967 C   0  0  0  0  0  0  0  0  0  0  0  0
    0.5473    2.2775   -0.8404 C   0  0  0  0  0  0  0  0  0  0  0  0
  3 12  1  0  0  0  0
  4  1  1  0  0  0  0
  5  6  1  0  0  0  0
  5  4  1  0  0  0  0
  7  5  2  0  0  0  0
  8  7  1  0  0  0  0
  9  7  1  0  0  0  0
  9 11  1  0  0  0  0
 10  9  1  0  0  0  0
 11  3  2  0  0  0  0
 11 34  1  0  0  0  0
 12 13  1  0  0  0  0
 13 22  2  0  0  0  0
 13 14  1  0  0  0  0
 14 16  2  0  0  0  0
 15 14  1  0  0  0  0
 16 18  1  0  0  0  0
 16 17  1  0  0  0  0
 18 19  1  0  0  0  0
 20 21  1  0  0  0  0
 20 18  2  0  0  0  0
 22 20  1  0  0  0  0
 23 22  1  0  0  0  0
 24 25  1  0  0  0  0
 24 23  2  0  0  0  0
 26 24  1  0  0  0  0
 27 26  1  0  0  0  0
 28 26  2  0  0  0  0
 28 30  1  0  0  0  0
 29 28  1  0  0  0  0
 30 32  2  0  0  0  0
 31 30  1  0  0  0  0
 32 23  1  0  0  0  0
 32 33  1  0  0  0  0
 33 12  2  0  0  0  0
 33  2  1  0  0  0  0
 34  2  1  0  0  0  0
 34  4  2  0  0  0  0
M  CHG  1   1  -1
M  END
