3,4
q = 0.0, confidence = 0.954

 36 36  0  0  0  0  0  0  0  0999 V2000
    3.8611    2.0535   -1.0138 Br  0  0  0  0  0  0  0  0  0  0  0  0
    4.5812    1.2365    4.4519 Cl  0  0  0  0  0  0  0  0  0  0  0  0
    1.7863   -0.0541   -0.5743 O   0  5  0  0  0  0  0  0  0  0  0  0
    0.2477   -1.9100    0.8994 N   0  0  0  0  0  2  0  0  0  0  0  0
   -3.3259   -2.4286    1.9781 N   0  3  0  0  0  0  0  0  0  0  0  0
    2.0342   -0.4616    1.7981 C   0  0  0  0  0  0  0  0  0  0  0  0
    2.3500    0.2052    0.5593 C   0  0  0  0  0  0  0  0  0  0  0  0
    3.4008    1.1857    0.6071 C   0  0  0  0  0  0  0  0  0  0  0  0
    4.0709    1.4939    1.7838 C   0  0  0  0  0  0  0  0  0  0  0  0
    4.8647    2.2536    1.7855 H   0  0  0  0  0  0  0  0  0  0  0  0
    3.7311    0.8277    2.9901 C   0  0  0  0  0  0  0  0  0  0  0  0
    2.7342   -0.1359    2.9971 C   0  0  0  0  0  0  0  0  0  0  0  0
    2.4786   -0.6510    3.9344 H   0  0  0  0  0  0  0  0  0  0  0  0
    1.0183   -1.4629    1.8672 C   0  0  0  0  0  3  0  0  0  0  0  0
    0.8727   -1.9065    2.8750 H   0  0  0  0  0  0  0  0  0  0  0  0
   -0.8698   -2.7500    1.3306 C   0  0  0  0  0  0  0  0  0  0  0  0
   -0.5337   -3.4847    2.0973 H   0  0  0  0  0  0  0  0  0  0  0  0
   -1.2574   -3.2984    0.4522 H   0  0  0  0  0  0  0  0  0  0  0  0
   -1.9474   -1.8173    1.8988 C   0  0  0  0  0  0  0  0  0  0  0  0
   -1.6765   -1.4860    2.9191 H   0  0  0  0  0  0  0  0  0  0  0  0
   -2.0039   -0.9124    1.2651 H   0  0  0  0  0  0  0  0  0  0  0  0
   -4.0372   -2.4002    0.6265 C   0  0  0  0  0  0  0  0  0  0  0  0
   -3.2934   -2.7887   -0.0954 H   0  0  0  0  0  0  0  0  0  0  0  0
   -4.8709   -3.1246    0.6987 H   0  0  0  0  0  0  0  0  0  0  0  0
   -4.5171   -1.0198    0.2179 C   0  0  0  0  0  0  0  0  0  0  0  0
   -4.8800   -1.0786   -0.8259 H   0  0  0  0  0  0  0  0  0  0  0  0
   -3.7006   -0.2722    0.2212 H   0  0  0  0  0  0  0  0  0  0  0  0
   -5.3465   -0.6443    0.8472 H   0  0  0  0  0  0  0  0  0  0  0  0
   -4.1296   -1.8093    3.1045 C   0  0  0  0  0  0  0  0  0  0  0  0
   -3.5103   -1.9370    4.0141 H   0  0  0  0  0  0  0  0  0  0  0  0
   -4.1752   -0.7243    2.8865 H   0  0  0  0  0  0  0  0  0  0  0  0
   -5.5010   -2.4334    3.2834 C   0  0  0  0  0  0  0  0  0  0  0  0
   -5.9688   -2.0017    4.1893 H   0  0  0  0  0  0  0  0  0  0  0  0
   -5.4433   -3.5306    3.4386 H   0  0  0  0  0  0  0  0  0  0  0  0
   -6.1813   -2.2291    2.4349 H   0  0  0  0  0  0  0  0  0  0  0  0
   -3.2134   -3.4300    2.2182 H   0  0  0  0  0  0  0  0  0  0  0  0
  1  8  1  0  0  0  0
  3  7  1  0  0  0  0
  4 16  1  0  0  0  0
  4 14  1  0  0  0  0
  5 36  1  0  0  0  0
  5 29  1  0  0  0  0
  6 14  1  0  0  0  0
  6 12  1  0  0  0  0
  7  8  1  0  0  0  0
  7  6  2  0  0  0  0
  8  9  2  0  0  0  0
  9 10  1  0  0  0  0
  9 11  1  0  0  0  0
 11 12  2  0  0  0  0
 11  2  1  0  0  0  0
 12 13  1  0  0  0  0
 14 15  1  0  0  0  0
 16 19  1  0  0  0  0
 16 17  1  0  0  0  0
 18 16  1  0  0  0  0
 19  5  1  0  0  0  0
 19 20  1  0  0  0  0
 21 19  1  0  0  0  0
 22 24  1  0  0  0  0
 22  5  1  0  0  0  0
 23 22  1  0  0  0  0
 25 27  1  0  0  0  0
 25 22  1  0  0  0  0
 25 28  1  0  0  0  0
 26 25  1  0  0  0  0
 29 32  1  0  0  0  0
 29 30  1  0  0  0  0
 31 29  1  0  0  0  0
 32 34  1  0  0  0  0
 32 33  1  0  0  0  0
 35 32  1  0  0  0  0
M  CHG  2   3  -1   5   1
M  END
