1,3
q = -1.0

 34 36  0  0  1  0  0  0  0  0999 V2000
   -1.8007   -0.8909   -0.0291 O   0  5  0  0  0  0  0  0  0  0  0  0
    5.1923   -1.2368   -0.2570 O   0  0  0  0  0  0  0  0  0  0  0  0
    0.6325   -1.9930    0.0090 N   0  0  0  0  0  2  0  0  0  0  0  0
    4.2249   -2.2028   -0.1249 N   0  0  0  0  0  0  0  0  0  0  0  0
   -2.7788   -4.4111    0.2278 C   0  0  0  0  0  0  0  0  0  0  0  0
   -3.6949   -5.0188    0.2877 H   0  0  0  0  0  0  0  0  0  0  0  0
   -1.7475   -2.2029    0.0675 C   0  0  0  0  0  0  0  0  0  0  0  0
    1.8734   -2.5351   -0.0149 C   0  0  0  0  0  0  0  0  0  0  0  0
    9.4499    1.2884    0.3736 C   0  0  0  0  0  0  0  0  0  0  0  0
   10.2038    2.0725    0.5412 H   0  0  0  0  0  0  0  0  0  0  0  0
   -0.4617   -2.8341    0.0837 C   0  0  1  0  0  3  0  0  0  0  0  0
   -0.3516   -4.2627    0.1643 C   0  0  0  0  0  0  0  0  0  0  0  0
    2.0506   -3.9538    0.0709 C   0  0  0  0  0  0  0  0  0  0  0  0
    3.0845   -4.3230    0.0549 H   0  0  0  0  0  0  0  0  0  0  0  0
   -1.5333   -5.0424    0.2390 C   0  0  0  0  0  0  0  0  0  0  0  0
   -1.4505   -6.1368    0.3063 H   0  0  0  0  0  0  0  0  0  0  0  0
    7.5141   -0.7195   -0.0593 C   0  0  0  0  0  0  0  0  0  0  0  0
    0.9687   -4.7995    0.1630 C   0  0  0  0  0  0  0  0  0  0  0  0
    1.1100   -5.8895    0.2296 H   0  0  0  0  0  0  0  0  0  0  0  0
   -2.8998   -3.0092    0.1429 C   0  0  0  0  0  0  0  0  0  0  0  0
   -3.8843   -2.5192    0.1333 H   0  0  0  0  0  0  0  0  0  0  0  0
    3.0401   -1.6716   -0.1447 C   0  0  0  0  0  0  0  0  0  0  0  0
    2.8968   -0.5804   -0.2416 H   0  0  0  0  0  0  0  0  0  0  0  0
    6.5008   -1.8180   -0.2596 C   0  0  0  0  0  0  0  0  0  0  0  0
    6.6789   -2.3534   -1.2188 H   0  0  0  0  0  0  0  0  0  0  0  0
    6.5557   -2.5716    0.5586 H   0  0  0  0  0  0  0  0  0  0  0  0
    9.7250    0.2198   -0.4936 C   0  0  0  0  0  0  0  0  0  0  0  0
   10.6945    0.1640   -1.0117 H   0  0  0  0  0  0  0  0  0  0  0  0
    8.2052    1.3556    1.0205 C   0  0  0  0  0  0  0  0  0  0  0  0
    7.9805    2.1941    1.6974 H   0  0  0  0  0  0  0  0  0  0  0  0
    8.7586   -0.7734   -0.7141 C   0  0  0  0  0  0  0  0  0  0  0  0
    8.9720   -1.6020   -1.4082 H   0  0  0  0  0  0  0  0  0  0  0  0
    7.2439    0.3568    0.8094 C   0  0  0  0  0  0  0  0  0  0  0  0
    6.2656    0.4104    1.3093 H   0  0  0  0  0  0  0  0  0  0  0  0
  1  7  1  0  0  0  0
  2  4  1  0  0  0  0
  5 15  2  0  0  0  0
  5  6  1  0  0  0  0
  7 11  1  0  0  0  0
  7 20  2  0  0  0  0
  8  3  1  0  0  0  0
  8 13  2  0  0  0  0
  9 10  1  0  0  0  0
  9 29  1  0  0  0  0
 11  3  1  6  0  0  0
 11 12  1  0  0  0  0
 12 15  1  0  0  0  0
 13 18  1  0  0  0  0
 14 13  1  0  0  0  0
 15 16  1  0  0  0  0
 17 33  1  0  0  0  0
 18 12  2  0  0  0  0
 18 19  1  0  0  0  0
 20  5  1  0  0  0  0
 21 20  1  0  0  0  0
 22  4  2  0  0  0  0
 22  8  1  0  0  0  0
 23 22  1  0  0  0  0
 24  2  1  0  0  0  0
 24 17  1  0  0  0  0
 24 26  1  0  0  0  0
 25 24  1  0  0  0  0
 27  9  2  0  0  0  0
 28 27  1  0  0  0  0
 29 30  1  0  0  0  0
 31 27  1  0  0  0  0
 31 17  2  0  0  0  0
 32 31  1  0  0  0  0
 33 29  2  0  0  0  0
 33 34  1  0  0  0  0
M  CHG  1   1  -1
M  END
