1,3
q = -1.0

 30 31  0  0  1  0  0  0  0  0999 V2000
    1.8422   -0.0145    0.2701 O   0  5  0  0  0  0  0  0  0  0  0  0
    0.8391    3.9511   -0.7362 O   0  0  0  0  0  0  0  0  0  0  0  0
   -0.0386    1.8853   -0.4158 N   0  0  0  0  0  2  0  0  0  0  0  0
    1.0543    2.6393   -0.4476 C   0  0  2  0  0  3  0  0  0  0  0  0
    2.3920    2.2524   -0.2056 C   0  0  0  0  0  0  0  0  0  0  0  0
    3.1587    3.0317   -0.2693 H   0  0  0  0  0  0  0  0  0  0  0  0
    2.7115    0.9457    0.1508 C   0  0  0  0  0  0  0  0  0  0  0  0
   -0.5312    4.0497   -1.1499 C   0  0  0  0  0  0  0  0  0  0  0  0
   -0.5679    4.0414   -2.2626 H   0  0  0  0  0  0  0  0  0  0  0  0
   -0.9508    5.0038   -0.7767 H   0  0  0  0  0  0  0  0  0  0  0  0
   -1.2166    2.8026   -0.5481 C   0  0  0  0  0  0  0  0  0  0  0  0
    4.1284    0.5688    0.4347 C   0  0  0  0  0  0  0  0  0  0  0  0
    4.4108   -0.4701    1.3481 C   0  0  0  0  0  0  0  0  0  0  0  0
    3.5745   -0.9786    1.8456 H   0  0  0  0  0  0  0  0  0  0  0  0
    5.7333   -0.8373    1.6281 C   0  0  0  0  0  0  0  0  0  0  0  0
    5.9344   -1.6425    2.3513 H   0  0  0  0  0  0  0  0  0  0  0  0
    6.7990   -0.1797    0.9927 C   0  0  0  0  0  0  0  0  0  0  0  0
    7.8381   -0.4711    1.2086 H   0  0  0  0  0  0  0  0  0  0  0  0
    6.5303    0.8505    0.0766 C   0  0  0  0  0  0  0  0  0  0  0  0
    7.3588    1.3638   -0.4349 H   0  0  0  0  0  0  0  0  0  0  0  0
    5.2081    1.2237   -0.1988 C   0  0  0  0  0  0  0  0  0  0  0  0
    5.0064    2.0148   -0.9358 H   0  0  0  0  0  0  0  0  0  0  0  0
   -2.2982    2.3003   -1.5072 C   0  0  0  0  0  0  0  0  0  0  0  0
   -2.9142    1.5095   -1.0506 H   0  0  0  0  0  0  0  0  0  0  0  0
   -1.8366    1.9026   -2.4325 H   0  0  0  0  0  0  0  0  0  0  0  0
   -2.9646    3.1435   -1.7851 H   0  0  0  0  0  0  0  0  0  0  0  0
   -1.7603    3.1051    0.8572 C   0  0  0  0  0  0  0  0  0  0  0  0
   -1.9877    2.1535    1.3679 H   0  0  0  0  0  0  0  0  0  0  0  0
   -2.6831    3.7182    0.8034 H   0  0  0  0  0  0  0  0  0  0  0  0
   -1.0045    3.6533    1.4551 H   0  0  0  0  0  0  0  0  0  0  0  0
  2  4  1  0  0  0  0
  4  3  1  0  0  0  0
  4  5  1  1  0  0  0
  5  7  2  0  0  0  0
  6  5  1  0  0  0  0
  7  1  1  0  0  0  0
  7 12  1  0  0  0  0
  8 10  1  0  0  0  0
  8  2  1  0  0  0  0
  8 11  1  0  0  0  0
  9  8  1  0  0  0  0
 11  3  1  0  0  0  0
 11 27  1  0  0  0  0
 12 13  1  0  0  0  0
 13 15  2  0  0  0  0
 13 14  1  0  0  0  0
 15 16  1  0  0  0  0
 17 18  1  0  0  0  0
 17 15  1  0  0  0  0
 19 17  2  0  0  0  0
 20 19  1  0  0  0  0
 21 19  1  0  0  0  0
 21 12  2  0  0  0  0
 22 21  1  0  0  0  0
 23 24  1  0  0  0  0
 23 11  1  0  0  0  0
 25 23  1  0  0  0  0
 26 23  1  0  0  0  0
 27 28  1  0  0  0  0
 27 30  1  0  0  0  0
 29 27  1  0  0  0  0
M  CHG  1   1  -1
M  END
