1,5
q = -1.0

 32 33  0  0  1  0  0  0  0  0999 V2000
   -1.8635    0.0286   -0.2523 O   0  5  0  0  0  0  0  0  0  0  0  0
   -0.7068   -3.7773   -1.6163 O   0  0  0  0  0  0  0  0  0  0  0  0
   -8.4719    1.0269    1.5310 O   0  0  0  0  0  0  0  0  0  0  0  0
   -8.5587   -1.0136    2.3131 O   0  0  0  0  0  0  0  0  0  0  0  0
    0.0879   -1.7254   -1.0990 N   0  0  0  0  0  2  0  0  0  0  0  0
   -7.9883   -0.0868    1.7370 N   0  0  0  0  0  0  0  0  0  0  0  0
   -2.6153   -1.0310   -0.1599 C   0  0  0  0  0  0  0  0  0  0  0  0
   -2.2276   -2.3166   -0.5280 C   0  0  0  0  0  0  0  0  0  0  0  0
   -2.9422   -3.1461   -0.5414 H   0  0  0  0  0  0  0  0  0  0  0  0
   -0.9383   -2.5611   -1.0606 C   0  0  1  0  0  3  0  0  0  0  0  0
    0.5343   -3.6559   -2.3357 C   0  0  0  0  0  0  0  0  0  0  0  0
    0.3008   -3.4542   -3.4051 H   0  0  0  0  0  0  0  0  0  0  0  0
    1.0870   -4.6108   -2.2536 H   0  0  0  0  0  0  0  0  0  0  0  0
    1.2605   -2.4656   -1.6666 C   0  0  0  0  0  0  0  0  0  0  0  0
   -4.0055   -0.7940    0.3333 C   0  0  0  0  0  0  0  0  0  0  0  0
   -4.7232   -1.8099    1.0075 C   0  0  0  0  0  0  0  0  0  0  0  0
   -4.2439   -2.7808    1.1969 H   0  0  0  0  0  0  0  0  0  0  0  0
   -6.0229   -1.5856    1.4687 C   0  0  0  0  0  0  0  0  0  0  0  0
   -6.5953   -2.3555    2.0026 H   0  0  0  0  0  0  0  0  0  0  0  0
   -6.6097   -0.3315    1.2512 C   0  0  0  0  0  0  0  0  0  0  0  0
   -5.9263    0.6981    0.5913 C   0  0  0  0  0  0  0  0  0  0  0  0
   -6.4311    1.6619    0.4438 H   0  0  0  0  0  0  0  0  0  0  0  0
   -4.6246    0.4622    0.1417 C   0  0  0  0  0  0  0  0  0  0  0  0
   -4.0727    1.2542   -0.3784 H   0  0  0  0  0  0  0  0  0  0  0  0
    2.1689   -2.9668   -0.5337 C   0  0  0  0  0  0  0  0  0  0  0  0
    1.6012   -3.6198    0.1593 H   0  0  0  0  0  0  0  0  0  0  0  0
    2.5687   -2.1084    0.0295 H   0  0  0  0  0  0  0  0  0  0  0  0
    3.0149   -3.5503   -0.9507 H   0  0  0  0  0  0  0  0  0  0  0  0
    2.0248   -1.6325   -2.6954 C   0  0  0  0  0  0  0  0  0  0  0  0
    1.3319   -1.2204   -3.4556 H   0  0  0  0  0  0  0  0  0  0  0  0
    2.7775   -2.2624   -3.2120 H   0  0  0  0  0  0  0  0  0  0  0  0
    2.5518   -0.7941   -2.2069 H   0  0  0  0  0  0  0  0  0  0  0  0
  1  7  1  0  0  0  0
  2 10  1  0  0  0  0
  3  6  2  0  0  0  0
  5 10  1  0  0  0  0
  6  4  2  0  0  0  0
  7 15  1  0  0  0  0
  8  7  2  0  0  0  0
  9  8  1  0  0  0  0
 10  8  1  6  0  0  0
 11 13  1  0  0  0  0
 11 14  1  0  0  0  0
 11  2  1  0  0  0  0
 12 11  1  0  0  0  0
 14  5  1  0  0  0  0
 14 25  1  0  0  0  0
 15 16  1  0  0  0  0
 16 17  1  0  0  0  0
 16 18  2  0  0  0  0
 18 19  1  0  0  0  0
 20 18  1  0  0  0  0
 20  6  1  0  0  0  0
 21 20  2  0  0  0  0
 22 21  1  0  0  0  0
 23 15  2  0  0  0  0
 23 21  1  0  0  0  0
 24 23  1  0  0  0  0
 25 27  1  0  0  0  0
 25 26  1  0  0  0  0
 28 25  1  0  0  0  0
 29 32  1  0  0  0  0
 29 14  1  0  0  0  0
 30 29  1  0  0  0  0
 31 29  1  0  0  0  0
M  CHG  1   1  -1
M  END
