1,2
q = -1.0, confidence = 0.0

 21 22  0  0  1  0  0  0  0  0999 V2000
    1.9425    0.7533   -0.2357 O   0  0  0  0  0  1  0  0  0  0  0  0
    0.7740   -0.2142    1.3795 N   0  0  0  0  0  2  0  0  0  0  0  0
    1.9661   -0.1336    0.7257 C   0  0  1  0  0  3  0  0  0  0  0  0
    3.0727   -0.9729    1.0849 C   0  0  0  0  0  0  0  0  0  0  0  0
    4.3589   -0.9366    0.3531 C   0  0  0  0  0  0  0  0  0  0  0  0
    4.8228    0.2462   -0.2721 C   0  0  0  0  0  0  0  0  0  0  0  0
    4.2009    1.1497   -0.2302 H   0  0  0  0  0  0  0  0  0  0  0  0
    6.0555    0.2677   -0.9381 C   0  0  0  0  0  0  0  0  0  0  0  0
    6.3985    1.2010   -1.4106 H   0  0  0  0  0  0  0  0  0  0  0  0
    6.8512   -0.8867   -1.0062 C   0  0  0  0  0  0  0  0  0  0  0  0
    7.8164   -0.8671   -1.5347 H   0  0  0  0  0  0  0  0  0  0  0  0
    6.3992   -2.0704   -0.4009 C   0  0  0  0  0  0  0  0  0  0  0  0
    7.0057   -2.9873   -0.4586 H   0  0  0  0  0  0  0  0  0  0  0  0
    5.1689   -2.0946    0.2678 C   0  0  0  0  0  0  0  0  0  0  0  0
    4.8162   -3.0378    0.7118 H   0  0  0  0  0  0  0  0  0  0  0  0
    2.8458   -1.8477    2.1634 C   0  0  0  0  0  0  0  0  0  0  0  0
    3.6723   -2.4889    2.5062 H   0  0  0  0  0  0  0  0  0  0  0  0
    1.6063   -1.9122    2.8271 C   0  0  0  0  0  0  0  0  0  0  0  0
    1.4485   -2.5978    3.6708 H   0  0  0  0  0  0  0  0  0  0  0  0
    0.5790   -1.0720    2.3906 C   0  0  0  0  0  0  0  0  0  0  0  0
   -0.4212   -1.0745    2.8552 H   0  0  0  0  0  0  0  0  0  0  0  0
  2 20  1  0  0  0  0
  3  1  1  6  0  0  0
  3  4  1  0  0  0  0
  3  2  1  0  0  0  0
  4 16  2  0  0  0  0
  5  4  1  0  0  0  0
  6  7  1  0  0  0  0
  6  5  2  0  0  0  0
  8  6  1  0  0  0  0
  9  8  1  0  0  0  0
 10  8  2  0  0  0  0
 10 12  1  0  0  0  0
 11 10  1  0  0  0  0
 12 14  2  0  0  0  0
 13 12  1  0  0  0  0
 14  5  1  0  0  0  0
 14 15  1  0  0  0  0
 16 17  1  0  0  0  0
 16 18  1  0  0  0  0
 18 19  1  0  0  0  0
 20 18  2  0  0  0  0
 20 21  1  0  0  0  0
M  END
