1,2
q = -1.0

 21 22  0  0  0  0  0  0  0  0999 V2000
   -1.9500    0.7175    0.1485 O   0  5  0  0  0  0  0  0  0  0  0  0
   -0.6683   -0.6355   -1.0552 N   0  0  0  0  0  2  0  0  0  0  0  0
   -0.3982   -1.7268   -1.7819 C   0  0  0  0  0  3  0  0  0  0  0  0
    0.6366   -1.8350   -2.1474 H   0  0  0  0  0  0  0  0  0  0  0  0
   -1.3907   -2.6767   -2.0429 C   0  0  0  0  0  0  0  0  0  0  0  0
   -1.1640   -3.5774   -2.6296 H   0  0  0  0  0  0  0  0  0  0  0  0
   -2.6777   -2.4533   -1.5225 C   0  0  0  0  0  0  0  0  0  0  0  0
   -3.4647   -3.2026   -1.6977 H   0  0  0  0  0  0  0  0  0  0  0  0
   -2.9895   -1.3131   -0.7559 C   0  0  0  0  0  0  0  0  0  0  0  0
   -1.9037   -0.4046   -0.5376 C   0  0  0  0  0  0  0  0  0  0  0  0
   -4.3515   -1.0682   -0.2284 C   0  0  0  0  0  0  0  0  0  0  0  0
   -5.4853   -1.5790   -0.9048 C   0  0  0  0  0  0  0  0  0  0  0  0
   -5.3539   -2.1184   -1.8549 H   0  0  0  0  0  0  0  0  0  0  0  0
   -6.7780   -1.3825   -0.4032 C   0  0  0  0  0  0  0  0  0  0  0  0
   -7.6425   -1.7839   -0.9539 H   0  0  0  0  0  0  0  0  0  0  0  0
   -6.9722   -0.6658    0.7885 C   0  0  0  0  0  0  0  0  0  0  0  0
   -7.9877   -0.5079    1.1823 H   0  0  0  0  0  0  0  0  0  0  0  0
   -5.8590   -0.1441    1.4659 C   0  0  0  0  0  0  0  0  0  0  0  0
   -5.9988    0.4234    2.3988 H   0  0  0  0  0  0  0  0  0  0  0  0
   -4.5648   -0.3364    0.9646 C   0  0  0  0  0  0  0  0  0  0  0  0
   -3.7001    0.0859    1.4920 H   0  0  0  0  0  0  0  0  0  0  0  0
  2 10  1  0  0  0  0
  3  2  1  0  0  0  0
  4  3  1  0  0  0  0
  5  3  1  0  0  0  0
  5  7  2  0  0  0  0
  6  5  1  0  0  0  0
  7  9  1  0  0  0  0
  8  7  1  0  0  0  0
  9 10  2  0  0  0  0
  9 11  1  0  0  0  0
 10  1  1  0  0  0  0
 11 20  1  0  0  0  0
 12 14  1  0  0  0  0
 12 11  2  0  0  0  0
 13 12  1  0  0  0  0
 14 16  2  0  0  0  0
 15 14  1  0  0  0  0
 16 17  1  0  0  0  0
 16 18  1  0  0  0  0
 18 19  1  0  0  0  0
 20 18  2  0  0  0  0
 20 21  1  0  0  0  0
M  CHG  1   1  -1
M  END
