1,3
q = -1.0, confidence = 0.01

 18 17  0  0  1  0  0  0  0  0999 V2000
    1.2364   -0.0403   -1.5674 O   0  5  0  0  0  0  0  0  0  0  0  0
    3.4655   -0.2202   -1.6900 O   0  0  0  0  0  0  0  0  0  0  0  0
    1.2616   -0.1408    1.1690 N   0  0  0  0  0  0  0  0  0  0  0  0
    1.5031    0.7914    1.5366 H   0  0  0  0  0  0  0  0  0  0  0  0
    1.0652   -0.7151    1.9990 H   0  0  0  0  0  0  0  0  0  0  0  0
    2.4250   -0.2675   -1.0488 C   0  0  0  0  0  0  0  0  0  0  0  0
    2.4472   -0.6867    0.4486 C   0  0  1  0  0  0  0  0  0  0  0  0
    2.3084   -1.7905    0.4295 H   0  0  0  0  0  0  0  0  0  0  0  0
    3.7927   -0.3857    1.1326 C   0  0  0  0  0  0  0  0  0  0  0  0
    4.5440   -0.8137    0.4366 H   0  0  0  0  0  0  0  0  0  0  0  0
    3.9095   -1.0816    2.4930 C   0  0  0  0  0  0  0  0  0  0  0  0
    3.1870   -0.6735    3.2339 H   0  0  0  0  0  0  0  0  0  0  0  0
    4.9188   -0.9378    2.9262 H   0  0  0  0  0  0  0  0  0  0  0  0
    3.7354   -2.1746    2.4126 H   0  0  0  0  0  0  0  0  0  0  0  0
    4.0713    1.1194    1.2284 C   0  0  0  0  0  0  0  0  0  0  0  0
    4.0163    1.5997    0.2314 H   0  0  0  0  0  0  0  0  0  0  0  0
    5.0876    1.3017    1.6286 H   0  0  0  0  0  0  0  0  0  0  0  0
    3.3728    1.6382    1.9235 H   0  0  0  0  0  0  0  0  0  0  0  0
  1  6  1  0  0  0  0
  2  6  2  0  0  0  0
  3  4  1  0  0  0  0
  3  5  1  0  0  0  0
  6  7  1  0  0  0  0
  7  8  1  1  0  0  0
  7  9  1  0  0  0  0
  7  3  1  0  0  0  0
  9 15  1  0  0  0  0
  9 11  1  0  0  0  0
 10  9  1  0  0  0  0
 11 13  1  0  0  0  0
 11 12  1  0  0  0  0
 14 11  1  0  0  0  0
 15 17  1  0  0  0  0
 15 18  1  0  0  0  0
 16 15  1  0  0  0  0
M  CHG  1   1  -1
M  END
