2,7
q = -2.0, confidence = 0.816

 40 39  0  0  1  0  0  0  0  0999 V2000
   -1.2724    0.9188    2.1124 S   0  0  0  0  0  0  0  0  0  0  0  0
   -3.0584    1.0735   -0.4489 O   0  5  0  0  0  0  0  0  0  0  0  0
    1.2262    2.7558   -1.5096 O   0  0  0  0  0  0  0  0  0  0  0  0
   -3.7588    2.6115   -1.9244 O   0  0  0  0  0  0  0  0  0  0  0  0
    3.4087   -0.7313    0.8374 O   0  0  0  0  0  0  0  0  0  0  0  0
    4.9339    0.5822   -0.2878 O   0  0  0  0  0  0  0  0  0  0  0  0
   -0.5278    1.3531   -0.9853 N   0  0  0  0  0  2  0  0  0  0  0  0
    2.8989    1.3913    0.1089 N   0  0  0  0  0  0  0  0  0  0  0  0
    3.1542    2.1316   -0.5575 H   0  0  0  0  0  0  0  0  0  0  0  0
   -0.3355    2.4859    1.8762 C   0  0  0  0  0  0  0  0  0  0  0  0
   -0.8033    3.0278    1.0307 H   0  0  0  0  0  0  0  0  0  0  0  0
   -0.4877    3.0729    2.8044 H   0  0  0  0  0  0  0  0  0  0  0  0
    1.1518    2.2299    1.6369 C   0  0  0  0  0  0  0  0  0  0  0  0
    1.6212    1.7830    2.5380 H   0  0  0  0  0  0  0  0  0  0  0  0
    1.6302    3.2191    1.4752 H   0  0  0  0  0  0  0  0  0  0  0  0
    1.4858    1.3419    0.4124 C   0  0  1  0  0  0  0  0  0  0  0  0
    1.2156    0.2944    0.6372 H   0  0  0  0  0  0  0  0  0  0  0  0
    0.7120    1.8569   -0.8146 C   0  0  0  0  0  0  0  0  0  0  0  0
   -1.4093    2.0047   -1.9373 C   0  0  0  0  0  0  0  0  0  0  0  0
   -1.3697    1.5258   -2.9454 H   0  0  0  0  0  0  0  0  0  0  0  0
   -1.1074    3.0607   -2.0945 H   0  0  0  0  0  0  0  0  0  0  0  0
   -2.8596    1.9395   -1.4447 C   0  0  0  0  0  0  0  0  0  0  0  0
   -2.9218    1.5980    2.4909 C   0  0  0  0  0  0  0  0  0  0  0  0
   -3.5379    0.7417    2.8228 H   0  0  0  0  0  0  0  0  0  0  0  0
   -3.3626    2.0281    1.5716 H   0  0  0  0  0  0  0  0  0  0  0  0
   -2.8318    2.3364    3.3102 H   0  0  0  0  0  0  0  0  0  0  0  0
    3.7223    0.3169    0.2660 C   0  0  0  0  0  0  0  0  0  0  0  0
    6.0186   -0.4064   -0.2423 C   0  0  0  0  0  0  0  0  0  0  0  0
    7.1552    0.3073   -0.9784 C   0  0  0  0  0  0  0  0  0  0  0  0
    8.0551   -0.3375   -1.0108 H   0  0  0  0  0  0  0  0  0  0  0  0
    7.4165    1.2532   -0.4647 H   0  0  0  0  0  0  0  0  0  0  0  0
    6.8551    0.5480   -2.0172 H   0  0  0  0  0  0  0  0  0  0  0  0
    6.4063   -0.6918    1.2131 C   0  0  0  0  0  0  0  0  0  0  0  0
    6.6701    0.2516    1.7318 H   0  0  0  0  0  0  0  0  0  0  0  0
    7.2899   -1.3601    1.2427 H   0  0  0  0  0  0  0  0  0  0  0  0
    5.5719   -1.1760    1.7521 H   0  0  0  0  0  0  0  0  0  0  0  0
    5.6047   -1.6798   -0.9897 C   0  0  0  0  0  0  0  0  0  0  0  0
    4.7892   -2.2016   -0.4571 H   0  0  0  0  0  0  0  0  0  0  0  0
    6.4730   -2.3634   -1.0740 H   0  0  0  0  0  0  0  0  0  0  0  0
    5.2631   -1.4288   -2.0140 H   0  0  0  0  0  0  0  0  0  0  0  0
  1 23  1  0  0  0  0
  3 18  2  0  0  0  0
  4 22  2  0  0  0  0
  6 28  1  0  0  0  0
  6 27  1  0  0  0  0
  7 18  1  0  0  0  0
  8 27  1  0  0  0  0
  8 16  1  0  0  0  0
  9  8  1  0  0  0  0
 10  1  1  0  0  0  0
 10 12  1  0  0  0  0
 11 10  1  0  0  0  0
 13 10  1  0  0  0  0
 13 14  1  0  0  0  0
 15 13  1  0  0  0  0
 16 17  1  1  0  0  0
 16 13  1  0  0  0  0
 18 16  1  0  0  0  0
 19 22  1  0  0  0  0
 19  7  1  0  0  0  0
 20 19  1  0  0  0  0
 21 19  1  0  0  0  0
 22  2  1  0  0  0  0
 23 24  1  0  0  0  0
 23 26  1  0  0  0  0
 25 23  1  0  0  0  0
 27  5  2  0  0  0  0
 28 33  1  0  0  0  0
 29 31  1  0  0  0  0
 29 28  1  0  0  0  0
 30 29  1  0  0  0  0
 32 29  1  0  0  0  0
 33 35  1  0  0  0  0
 33 34  1  0  0  0  0
 33 36  1  0  0  0  0
 37 38  1  0  0  0  0
 37 28  1  0  0  0  0
 39 37  1  0  0  0  0
 40 37  1  0  0  0  0
M  CHG  1   2  -1
M  END
