1,2
q = -1.0

 22 23  0  0  0  0  0  0  0  0999 V2000
    0.7194    0.4546   -1.7913 N   0  0  0  0  0  2  0  0  0  0  0  0
   -0.3403    1.8498    0.4009 O   0  5  0  0  0  0  0  0  0  0  0  0
    1.3707    1.5762   -1.9402 C   0  0  0  0  0  3  0  0  0  0  0  0
    1.8706    1.7467   -2.9139 H   0  0  0  0  0  0  0  0  0  0  0  0
    1.4689    2.6511   -0.9963 C   0  0  0  0  0  0  0  0  0  0  0  0
    0.5571    2.7444    0.1194 C   0  0  0  0  0  0  0  0  0  0  0  0
    0.6231    3.9289    0.9201 C   0  0  0  0  0  0  0  0  0  0  0  0
   -0.0858    4.0089    1.7572 H   0  0  0  0  0  0  0  0  0  0  0  0
    1.5480    4.9322    0.6536 C   0  0  0  0  0  0  0  0  0  0  0  0
    1.5769    5.8225    1.3021 H   0  0  0  0  0  0  0  0  0  0  0  0
    2.4495    4.8302   -0.4345 C   0  0  0  0  0  0  0  0  0  0  0  0
    3.1754    5.6307   -0.6360 H   0  0  0  0  0  0  0  0  0  0  0  0
    2.3866    3.7062   -1.2502 C   0  0  0  0  0  0  0  0  0  0  0  0
    3.0595    3.6141   -2.1186 H   0  0  0  0  0  0  0  0  0  0  0  0
    0.5338   -0.4331   -2.9085 C   0  0  0  0  0  0  0  0  0  0  0  0
   -0.5422   -0.5958   -3.0901 H   0  0  0  0  0  0  0  0  0  0  0  0
    1.4469   -1.6115   -3.1423 C   0  0  0  0  0  0  0  0  0  0  0  0
    0.9920   -2.5746   -3.4218 H   0  0  0  0  0  0  0  0  0  0  0  0
    2.3237   -1.6908   -2.4815 H   0  0  0  0  0  0  0  0  0  0  0  0
    1.4348   -0.4584   -4.1211 C   0  0  0  0  0  0  0  0  0  0  0  0
    0.9545   -0.5878   -5.1033 H   0  0  0  0  0  0  0  0  0  0  0  0
    2.3269    0.1859   -4.1439 H   0  0  0  0  0  0  0  0  0  0  0  0
  3  1  1  0  0  0  0
  3  5  1  0  0  0  0
  4  3  1  0  0  0  0
  5  6  1  0  0  0  0
  6  2  1  0  0  0  0
  6  7  2  0  0  0  0
  7  8  1  0  0  0  0
  9  7  1  0  0  0  0
  9 10  1  0  0  0  0
 11  9  2  0  0  0  0
 12 11  1  0  0  0  0
 13  5  2  0  0  0  0
 13 11  1  0  0  0  0
 14 13  1  0  0  0  0
 15  1  1  0  0  0  0
 16 15  1  0  0  0  0
 17 15  1  0  0  0  0
 17 19  1  0  0  0  0
 18 17  1  0  0  0  0
 20 17  1  0  0  0  0
 20 15  1  0  0  0  0
 21 20  1  0  0  0  0
 22 20  1  0  0  0  0
M  CHG  1   2  -1
M  END
