1,2
q = -1.0

 25 26  0  0  0  0  0  0  0  0999 V2000
    1.2391    1.9949    0.4236 O   0  5  0  0  0  0  0  0  0  0  0  0
   -1.5601    1.7548    0.1585 N   0  0  0  0  0  2  0  0  0  0  0  0
   -5.3079   -0.6320    2.0297 F   0  0  0  0  0  0  0  0  0  0  0  0
   -6.6163   -0.5435   -0.3600 F   0  0  0  0  0  0  0  0  0  0  0  0
   -5.4790    0.7491   -2.4780 F   0  0  0  0  0  0  0  0  0  0  0  0
   -2.8856    1.2370    0.0456 C   0  0  0  0  0  0  0  0  0  0  0  0
   -3.4820    0.6007    1.1487 C   0  0  0  0  0  0  0  0  0  0  0  0
   -2.9608    0.5298    2.1104 H   0  0  0  0  0  0  0  0  0  0  0  0
   -4.7329    0.0029    0.9995 C   0  0  0  0  0  0  0  0  0  0  0  0
   -5.4212    0.0430   -0.2270 C   0  0  0  0  0  0  0  0  0  0  0  0
   -4.8231    0.7099   -1.3080 C   0  0  0  0  0  0  0  0  0  0  0  0
   -3.5640    1.3060   -1.1849 C   0  0  0  0  0  0  0  0  0  0  0  0
   -3.1030    1.7787   -2.0624 H   0  0  0  0  0  0  0  0  0  0  0  0
   -1.4563    3.0730    0.1048 C   0  0  0  0  0  0  0  0  0  0  0  0
   -2.4037    3.6402    0.0014 H   0  0  0  0  0  0  0  0  0  0  0  0
   -0.2705    3.8647    0.1838 C   0  0  0  0  0  0  0  0  0  0  0  0
   -0.3976    5.2840    0.1115 C   0  0  0  0  0  3  0  0  0  0  0  0
   -1.4057    5.7108   -0.0190 H   0  0  0  0  0  0  0  0  0  0  0  0
    0.7072    6.1176    0.2048 C   0  0  0  0  0  0  0  0  0  0  0  0
    0.5915    7.2093    0.1450 H   0  0  0  0  0  0  0  0  0  0  0  0
    1.9924    5.5403    0.3813 C   0  0  0  0  0  0  0  0  0  0  0  0
    2.8754    6.1949    0.4549 H   0  0  0  0  0  0  0  0  0  0  0  0
    2.1567    4.1637    0.4590 C   0  0  0  0  0  0  0  0  0  0  0  0
    3.1479    3.7048    0.5887 H   0  0  0  0  0  0  0  0  0  0  0  0
    1.0382    3.2752    0.3589 C   0  0  0  0  0  0  0  0  0  0  0  0
  4 10  1  0  0  0  0
  5 11  1  0  0  0  0
  6  2  1  0  0  0  0
  6  7  1  0  0  0  0
  7  8  1  0  0  0  0
  9  7  2  0  0  0  0
  9  3  1  0  0  0  0
 10  9  1  0  0  0  0
 11 12  1  0  0  0  0
 11 10  2  0  0  0  0
 12  6  2  0  0  0  0
 13 12  1  0  0  0  0
 14  2  1  0  0  0  0
 14 16  2  0  0  0  0
 15 14  1  0  0  0  0
 16 25  1  0  0  0  0
 17 16  1  0  0  0  0
 17 19  1  0  0  0  0
 18 17  1  0  0  0  0
 19 21  2  0  0  0  0
 20 19  1  0  0  0  0
 21 22  1  0  0  0  0
 21 23  1  0  0  0  0
 23 24  1  0  0  0  0
 25  1  1  0  0  0  0
 25 23  2  0  0  0  0
M  CHG  1   1  -1
M  END
