2,3
q = -1.0

 53 54  0  0  0  0  0  0  0  0999 V2000
   -3.5998    0.3243    0.0532 S   0  0  0  0  0  0  0  0  0  0  0  0
    0.6035   -1.0983    0.2984 O   0  5  0  0  0  0  0  0  0  0  0  0
   -0.8435    1.4192   -0.0270 N   0  0  0  0  0  2  0  0  0  0  0  0
    1.6483   -0.3424    0.2016 C   0  0  0  0  0  0  0  0  0  0  0  0
    2.9496   -0.8916    0.5484 C   0  0  0  0  0  0  0  0  0  0  0  0
    4.0764   -0.1321    0.2484 C   0  0  0  0  0  0  0  0  0  0  0  0
    5.0586   -0.5668    0.4772 H   0  0  0  0  0  0  0  0  0  0  0  0
    4.0559    1.1765   -0.3232 C   0  0  0  0  0  0  0  0  0  0  0  0
    2.8101    1.7423   -0.5261 C   0  0  0  0  0  0  0  0  0  0  0  0
    2.7126    2.7750   -0.8923 H   0  0  0  0  0  0  0  0  0  0  0  0
    1.5999    1.0338   -0.2398 C   0  0  0  0  0  0  0  0  0  0  0  0
    0.4021    1.7974   -0.2807 C   0  0  0  0  0  3  0  0  0  0  0  0
    0.5613    2.8640   -0.5212 H   0  0  0  0  0  0  0  0  0  0  0  0
    3.0657   -2.2630    1.2393 C   0  0  0  0  0  0  0  0  0  0  0  0
    2.2388   -2.2452    2.5478 C   0  0  0  0  0  0  0  0  0  0  0  0
    1.1770   -1.9937    2.3663 H   0  0  0  0  0  0  0  0  0  0  0  0
    2.6494   -1.4954    3.2544 H   0  0  0  0  0  0  0  0  0  0  0  0
    2.2890   -3.2391    3.0397 H   0  0  0  0  0  0  0  0  0  0  0  0
    2.5547   -3.3820    0.3042 C   0  0  0  0  0  0  0  0  0  0  0  0
    1.4912   -3.2277    0.0589 H   0  0  0  0  0  0  0  0  0  0  0  0
    2.6619   -4.3708    0.7967 H   0  0  0  0  0  0  0  0  0  0  0  0
    3.1360   -3.4047   -0.6407 H   0  0  0  0  0  0  0  0  0  0  0  0
    4.5233   -2.5965    1.6087 C   0  0  0  0  0  0  0  0  0  0  0  0
    4.5510   -3.5704    2.1374 H   0  0  0  0  0  0  0  0  0  0  0  0
    4.9652   -1.8376    2.2860 H   0  0  0  0  0  0  0  0  0  0  0  0
    5.1747   -2.6878    0.7153 H   0  0  0  0  0  0  0  0  0  0  0  0
    5.3811    1.8897   -0.6319 C   0  0  0  0  0  0  0  0  0  0  0  0
    6.1834    1.0482   -1.6506 C   0  0  0  0  0  0  0  0  0  0  0  0
    6.3987    0.0319   -1.2643 H   0  0  0  0  0  0  0  0  0  0  0  0
    7.1550    1.5338   -1.8795 H   0  0  0  0  0  0  0  0  0  0  0  0
    5.6209    0.9352   -2.5994 H   0  0  0  0  0  0  0  0  0  0  0  0
    6.2016    2.0420    0.6693 C   0  0  0  0  0  0  0  0  0  0  0  0
    5.6477    2.6451    1.4167 H   0  0  0  0  0  0  0  0  0  0  0  0
    7.1685    2.5470    0.4638 H   0  0  0  0  0  0  0  0  0  0  0  0
    6.4287    1.0605    1.1310 H   0  0  0  0  0  0  0  0  0  0  0  0
    5.1537    3.2885   -1.2291 C   0  0  0  0  0  0  0  0  0  0  0  0
    4.5778    3.2416   -2.1755 H   0  0  0  0  0  0  0  0  0  0  0  0
    6.1282    3.7675   -1.4531 H   0  0  0  0  0  0  0  0  0  0  0  0
    4.6104    3.9521   -0.5262 H   0  0  0  0  0  0  0  0  0  0  0  0
   -1.8208    2.4238    0.1521 C   0  0  0  0  0  0  0  0  0  0  0  0
   -1.5235    3.7999    0.3382 C   0  0  0  0  0  0  0  0  0  0  0  0
   -0.4808    4.1330    0.4180 H   0  0  0  0  0  0  0  0  0  0  0  0
   -2.5400    4.7498    0.4689 C   0  0  0  0  0  0  0  0  0  0  0  0
   -2.2693    5.8062    0.6157 H   0  0  0  0  0  0  0  0  0  0  0  0
   -3.8927    4.3688    0.4337 C   0  0  0  0  0  0  0  0  0  0  0  0
   -4.6913    5.1183    0.5306 H   0  0  0  0  0  0  0  0  0  0  0  0
   -4.2097    3.0133    0.2946 C   0  0  0  0  0  0  0  0  0  0  0  0
   -5.2604    2.6860    0.2758 H   0  0  0  0  0  0  0  0  0  0  0  0
   -3.1867    2.0575    0.1873 C   0  0  0  0  0  0  0  0  0  0  0  0
   -4.4247    0.0498    1.6629 C   0  0  0  0  0  0  0  0  0  0  0  0
   -3.6834    0.1653    2.4755 H   0  0  0  0  0  0  0  0  0  0  0  0
   -4.8039   -0.9889    1.6367 H   0  0  0  0  0  0  0  0  0  0  0  0
   -5.2733    0.7546    1.7327 H   0  0  0  0  0  0  0  0  0  0  0  0
  1 49  1  0  0  0  0
  1 50  1  0  0  0  0
  3 40  1  0  0  0  0
  4  2  1  0  0  0  0
  4  5  1  0  0  0  0
  5 14  1  0  0  0  0
  6  7  1  0  0  0  0
  6  5  2  0  0  0  0
  8  6  1  0  0  0  0
  9  8  2  0  0  0  0
  9 11  1  0  0  0  0
 10  9  1  0  0  0  0
 11  4  2  0  0  0  0
 12 11  1  0  0  0  0
 12  3  1  0  0  0  0
 13 12  1  0  0  0  0
 14 23  1  0  0  0  0
 14 15  1  0  0  0  0
 15 18  1  0  0  0  0
 15 17  1  0  0  0  0
 16 15  1  0  0  0  0
 19 21  1  0  0  0  0
 19 14  1  0  0  0  0
 20 19  1  0  0  0  0
 22 19  1  0  0  0  0
 23 24  1  0  0  0  0
 23 25  1  0  0  0  0
 26 23  1  0  0  0  0
 27  8  1  0  0  0  0
 27 32  1  0  0  0  0
 28 29  1  0  0  0  0
 28 27  1  0  0  0  0
 30 28  1  0  0  0  0
 31 28  1  0  0  0  0
 32 35  1  0  0  0  0
 32 33  1  0  0  0  0
 34 32  1  0  0  0  0
 36 27  1  0  0  0  0
 36 39  1  0  0  0  0
 37 36  1  0  0  0  0
 38 36  1  0  0  0  0
 40 49  2  0  0  0  0
 40 41  1  0  0  0  0
 41 42  1  0  0  0  0
 41 43  2  0  0  0  0
 43 44  1  0  0  0  0
 45 43  1  0  0  0  0
 45 46  1  0  0  0  0
 47 45  2  0  0  0  0
 48 47  1  0  0  0  0
 49 47  1  0  0  0  0
 50 53  1  0  0  0  0
 50 51  1  0  0  0  0
 52 50  1  0  0  0  0
M  CHG  1   2  -1
M  END
