1,3
q = -1.0, confidence = 0.0

 29 30  0  0  0  0  0  0  0  0999 V2000
    2.6016    0.0934   -0.9676 O   0  5  0  0  0  0  0  0  0  0  0  0
   -5.9776   -0.3442    0.1101 O   0  0  0  0  0  0  0  0  0  0  0  0
    0.5063   -1.3008   -0.0765 N   0  0  0  0  0  2  0  0  0  0  0  0
    2.8204   -1.1594   -0.6562 C   0  0  0  0  0  0  0  0  0  0  0  0
    4.1149   -1.7379   -0.7906 C   0  0  0  0  0  0  0  0  0  0  0  0
    4.9235   -1.1033   -1.1807 H   0  0  0  0  0  0  0  0  0  0  0  0
    4.3287   -3.0669   -0.4366 C   0  0  0  0  0  0  0  0  0  0  0  0
    5.3337   -3.5030   -0.5467 H   0  0  0  0  0  0  0  0  0  0  0  0
    3.2676   -3.8670    0.0490 C   0  0  0  0  0  0  0  0  0  0  0  0
    3.4416   -4.9217    0.3069 H   0  0  0  0  0  0  0  0  0  0  0  0
    1.9898   -3.3217    0.1789 C   0  0  0  0  0  0  0  0  0  0  0  0
    1.1698   -3.9660    0.5270 H   0  0  0  0  0  0  0  0  0  0  0  0
    1.7527   -1.9679   -0.1541 C   0  0  0  0  0  0  0  0  0  0  0  0
   -0.5605   -1.9187    0.3776 C   0  0  0  0  0  3  0  0  0  0  0  0
   -0.4107   -2.9108    0.8443 H   0  0  0  0  0  0  0  0  0  0  0  0
   -1.9453   -1.4742    0.3140 C   0  0  0  0  0  0  0  0  0  0  0  0
   -2.4752   -0.7590   -0.7945 C   0  0  0  0  0  0  0  0  0  0  0  0
   -1.8096   -0.5040   -1.6364 H   0  0  0  0  0  0  0  0  0  0  0  0
   -3.8214   -0.4072   -0.8292 C   0  0  0  0  0  0  0  0  0  0  0  0
   -4.2462    0.1261   -1.6923 H   0  0  0  0  0  0  0  0  0  0  0  0
   -4.6875   -0.7461    0.2378 C   0  0  0  0  0  0  0  0  0  0  0  0
   -4.1826   -1.4806    1.3334 C   0  0  0  0  0  0  0  0  0  0  0  0
   -4.8332   -1.7754    2.1671 H   0  0  0  0  0  0  0  0  0  0  0  0
   -2.8324   -1.8519    1.3490 C   0  0  0  0  0  0  0  0  0  0  0  0
   -2.4495   -2.4357    2.2013 H   0  0  0  0  0  0  0  0  0  0  0  0
   -6.8962   -0.6751    1.1359 C   0  0  0  0  0  0  0  0  0  0  0  0
   -7.8718   -0.2552    0.8294 H   0  0  0  0  0  0  0  0  0  0  0  0
   -6.6023   -0.2315    2.1136 H   0  0  0  0  0  0  0  0  0  0  0  0
   -6.9989   -1.7762    1.2599 H   0  0  0  0  0  0  0  0  0  0  0  0
  1  4  1  0  0  0  0
  2 21  1  0  0  0  0
  2 26  1  0  0  0  0
  3 14  1  0  0  0  0
  4 13  1  0  0  0  0
  5  4  2  0  0  0  0
  5  7  1  0  0  0  0
  6  5  1  0  0  0  0
  7  9  2  0  0  0  0
  8  7  1  0  0  0  0
  9 11  1  0  0  0  0
  9 10  1  0  0  0  0
 11 12  1  0  0  0  0
 13  3  1  0  0  0  0
 13 11  2  0  0  0  0
 14 15  1  0  0  0  0
 16 14  1  0  0  0  0
 16 24  1  0  0  0  0
 17 16  2  0  0  0  0
 18 17  1  0  0  0  0
 19 17  1  0  0  0  0
 19 21  2  0  0  0  0
 20 19  1  0  0  0  0
 21 22  1  0  0  0  0
 22 24  2  0  0  0  0
 22 23  1  0  0  0  0
 24 25  1  0  0  0  0
 26 29  1  0  0  0  0
 26 28  1  0  0  0  0
 27 26  1  0  0  0  0
M  CHG  1   1  -1
M  END
