1,2
q = -1.0, confidence = 0.082

 55 56  0  0  0  0  0  0  0  0999 V2000
    5.9032   -0.6138   -0.8823 O   0  5  0  0  0  0  0  0  0  0  0  0
    3.4318   -1.5892   -0.3631 N   0  0  0  0  0  2  0  0  0  0  0  0
  -12.5480    1.5093   -0.4559 N   0  0  0  0  0  0  0  0  0  0  0  0
    5.7777   -1.9186   -0.7227 C   0  0  0  0  0  0  0  0  0  0  0  0
    6.9035   -2.7746   -0.8662 C   0  0  0  0  0  0  0  0  0  0  0  0
    7.8762   -2.3102   -1.0853 H   0  0  0  0  0  0  0  0  0  0  0  0
    6.7658   -4.1562   -0.7338 C   0  0  0  0  0  0  0  0  0  0  0  0
    7.6494   -4.8034   -0.8465 H   0  0  0  0  0  0  0  0  0  0  0  0
    5.5045   -4.7312   -0.4608 C   0  0  0  0  0  0  0  0  0  0  0  0
    5.4020   -5.8219   -0.3630 H   0  0  0  0  0  0  0  0  0  0  0  0
    4.3815   -3.9119   -0.3239 C   0  0  0  0  0  0  0  0  0  0  0  0
    3.4008   -4.3730   -0.1383 H   0  0  0  0  0  0  0  0  0  0  0  0
    4.4958   -2.5057   -0.4318 C   0  0  0  0  0  0  0  0  0  0  0  0
    2.1809   -1.9636   -0.1603 C   0  0  0  0  0  0  0  0  0  0  0  0
    1.9963   -2.9910    0.2129 H   0  0  0  0  0  0  0  0  0  0  0  0
    1.0071   -1.1967   -0.4494 C   0  0  0  0  0  0  0  0  0  0  0  0
   -0.2058   -1.7197    0.0003 C   0  0  0  0  0  3  0  0  0  0  0  0
   -0.1671   -2.6603    0.5796 H   0  0  0  0  0  0  0  0  0  0  0  0
   -1.4893   -1.1509   -0.1993 C   0  0  0  0  0  0  0  0  0  0  0  0
   -1.5604   -0.2013   -0.7566 H   0  0  0  0  0  0  0  0  0  0  0  0
   -2.6645   -1.7122    0.2811 C   0  0  0  0  0  0  0  0  0  0  0  0
   -2.5785   -2.6570    0.8457 H   0  0  0  0  0  0  0  0  0  0  0  0
   -3.9528   -1.1451    0.0942 C   0  0  0  0  0  0  0  0  0  0  0  0
   -3.9850   -0.1982   -0.4743 H   0  0  0  0  0  0  0  0  0  0  0  0
   -5.1759   -1.6394    0.5418 C   0  0  0  0  0  0  0  0  0  0  0  0
   -6.3704   -0.8957    0.2367 C   0  0  0  0  0  0  0  0  0  0  0  0
   -6.2153    0.0312   -0.3418 H   0  0  0  0  0  0  0  0  0  0  0  0
   -7.6504   -1.2410    0.6006 C   0  0  0  0  0  0  0  0  0  0  0  0
   -7.7934   -2.1701    1.1779 H   0  0  0  0  0  0  0  0  0  0  0  0
   -8.8724   -0.5150    0.3124 C   0  0  0  0  0  0  0  0  0  0  0  0
  -10.1175   -1.0222    0.7669 C   0  0  0  0  0  0  0  0  0  0  0  0
  -10.1282   -1.9666    1.3344 H   0  0  0  0  0  0  0  0  0  0  0  0
  -11.3249   -0.3717    0.5232 C   0  0  0  0  0  0  0  0  0  0  0  0
  -12.2523   -0.8184    0.9034 H   0  0  0  0  0  0  0  0  0  0  0  0
  -11.3601    0.8519   -0.2058 C   0  0  0  0  0  0  0  0  0  0  0  0
  -10.1127    1.3705   -0.6670 C   0  0  0  0  0  0  0  0  0  0  0  0
  -10.0809    2.3102   -1.2331 H   0  0  0  0  0  0  0  0  0  0  0  0
   -8.9178    0.7054   -0.4132 C   0  0  0  0  0  0  0  0  0  0  0  0
   -7.9842    1.1487   -0.7907 H   0  0  0  0  0  0  0  0  0  0  0  0
    1.0600    0.0446   -1.3021 C   0  0  0  0  0  0  0  0  0  0  0  0
    2.0734    0.1971   -1.7192 H   0  0  0  0  0  0  0  0  0  0  0  0
    0.8123    0.9508   -0.7159 H   0  0  0  0  0  0  0  0  0  0  0  0
    0.3434   -0.0402   -2.1451 H   0  0  0  0  0  0  0  0  0  0  0  0
   -5.2946   -2.9178    1.3307 C   0  0  0  0  0  0  0  0  0  0  0  0
   -5.9434   -3.6491    0.8044 H   0  0  0  0  0  0  0  0  0  0  0  0
   -5.7646   -2.7306    2.3190 H   0  0  0  0  0  0  0  0  0  0  0  0
   -4.3190   -3.4028    1.5100 H   0  0  0  0  0  0  0  0  0  0  0  0
  -12.5481    2.7544   -1.1973 C   0  0  0  0  0  0  0  0  0  0  0  0
  -13.5851    3.1229   -1.2939 H   0  0  0  0  0  0  0  0  0  0  0  0
  -12.1341    2.6315   -2.2236 H   0  0  0  0  0  0  0  0  0  0  0  0
  -11.9518    3.5457   -0.6891 H   0  0  0  0  0  0  0  0  0  0  0  0
  -13.7967    0.9573    0.0288 C   0  0  0  0  0  0  0  0  0  0  0  0
  -14.6302    1.6186   -0.2687 H   0  0  0  0  0  0  0  0  0  0  0  0
  -13.8127    0.8673    1.1387 H   0  0  0  0  0  0  0  0  0  0  0  0
  -13.9982   -0.0543   -0.3908 H   0  0  0  0  0  0  0  0  0  0  0  0
  1  4  1  0  0  0  0
  2 14  1  0  0  0  0
  3 35  1  0  0  0  0
  3 52  1  0  0  0  0
  4 13  1  0  0  0  0
  5  7  1  0  0  0  0
  5  4  2  0  0  0  0
  6  5  1  0  0  0  0
  7  9  2  0  0  0  0
  8  7  1  0  0  0  0
  9 10  1  0  0  0  0
  9 11  1  0  0  0  0
 11 12  1  0  0  0  0
 13  2  1  0  0  0  0
 13 11  2  0  0  0  0
 14 15  1  0  0  0  0
 16 14  2  0  0  0  0
 16 17  1  0  0  0  0
 17 18  1  0  0  0  0
 19 17  1  0  0  0  0
 19 21  2  0  0  0  0
 20 19  1  0  0  0  0
 21 22  1  0  0  0  0
 23 21  1  0  0  0  0
 23 25  2  0  0  0  0
 24 23  1  0  0  0  0
 25 44  1  0  0  0  0
 26 25  1  0  0  0  0
 26 28  2  0  0  0  0
 27 26  1  0  0  0  0
 28 29  1  0  0  0  0
 30 28  1  0  0  0  0
 30 31  1  0  0  0  0
 31 32  1  0  0  0  0
 33 31  2  0  0  0  0
 33 34  1  0  0  0  0
 35 33  1  0  0  0  0
 36 38  1  0  0  0  0
 36 35  2  0  0  0  0
 37 36  1  0  0  0  0
 38 30  2  0  0  0  0
 39 38  1  0  0  0  0
 40 42  1  0  0  0  0
 40 16  1  0  0  0  0
 41 40  1  0  0  0  0
 43 40  1  0  0  0  0
 44 47  1  0  0  0  0
 44 46  1  0  0  0  0
 45 44  1  0  0  0  0
 48 51  1  0  0  0  0
 48  3  1  0  0  0  0
 49 48  1  0  0  0  0
 50 48  1  0  0  0  0
 52 54  1  0  0  0  0
 53 52  1  0  0  0  0
 55 52  1  0  0  0  0
M  CHG  1   1  -1
M  END
