1,2
q = 0.0, confidence = 0.988

 18 18  0  0  1  0  0  0  0  0999 V2000
   -0.1629    1.0308   -1.4486 O   0  0  0  0  0  1  0  0  0  0  0  0
   -1.5357    0.3834    0.7122 N   0  0  0  0  0  2  0  0  0  0  0  0
   -0.9229    3.1705   -1.5240 N   0  0  0  0  0  0  0  0  0  0  0  0
   -2.2602   -0.0214    1.7800 C   0  0  0  0  0  3  0  0  0  0  0  0
   -2.1192   -1.0660    2.0937 H   0  0  0  0  0  0  0  0  0  0  0  0
   -3.2996    2.1471    2.0022 C   0  0  0  0  0  0  0  0  0  0  0  0
   -3.9898    2.8392    2.5058 H   0  0  0  0  0  0  0  0  0  0  0  0
   -1.6869    1.6633    0.2625 C   0  0  0  0  0  0  0  0  0  0  0  0
   -0.8732    1.9563   -0.9565 C   0  0  1  0  0  3  0  0  0  0  0  0
   -0.2071    3.5253   -2.7402 C   0  0  0  0  0  0  0  0  0  0  0  0
    0.1563    2.6001   -3.2212 H   0  0  0  0  0  0  0  0  0  0  0  0
    0.6567    4.1855   -2.5169 H   0  0  0  0  0  0  0  0  0  0  0  0
   -0.8862    4.0543   -3.4364 H   0  0  0  0  0  0  0  0  0  0  0  0
   -2.5601    2.5657    0.8887 C   0  0  0  0  0  0  0  0  0  0  0  0
   -2.6811    3.5935    0.5165 H   0  0  0  0  0  0  0  0  0  0  0  0
   -3.1479    0.8271    2.4501 C   0  0  0  0  0  0  0  0  0  0  0  0
   -3.7134    0.4466    3.3124 H   0  0  0  0  0  0  0  0  0  0  0  0
   -1.4954    3.8900   -1.0802 H   0  0  0  0  0  0  0  0  0  0  0  0
  2  4  1  0  0  0  0
  3 18  1  0  0  0  0
  3  9  1  0  0  0  0
  4  5  1  0  0  0  0
  4 16  1  0  0  0  0
  6 16  2  0  0  0  0
  6  7  1  0  0  0  0
  8  2  1  0  0  0  0
  8 14  2  0  0  0  0
  9  1  1  6  0  0  0
  9  8  1  0  0  0  0
 10 12  1  0  0  0  0
 10  3  1  0  0  0  0
 11 10  1  0  0  0  0
 13 10  1  0  0  0  0
 14  6  1  0  0  0  0
 15 14  1  0  0  0  0
 16 17  1  0  0  0  0
M  END
