1,3
q = -1.0, confidence = 0.0

 25 27  0  0  1  0  0  0  0  0999 V2000
    0.0754    1.1390   -0.3076 N   0  0  0  0  0  2  0  0  0  0  0  0
   -0.3716    3.3420   -0.2757 N   0  0  0  0  0  0  0  0  0  0  0  0
    1.4399   -0.9333    0.9909 O   0  5  0  0  0  0  0  0  0  0  0  0
   -0.8947    2.0572   -0.5204 C   0  0  2  0  0  3  0  0  0  0  0  0
   -2.2450    1.9355   -0.9155 C   0  0  0  0  0  0  0  0  0  0  0  0
   -2.6495    0.9386   -1.1220 H   0  0  0  0  0  0  0  0  0  0  0  0
   -3.0178    3.0822   -1.0546 C   0  0  0  0  0  0  0  0  0  0  0  0
   -4.0678    2.9974   -1.3679 H   0  0  0  0  0  0  0  0  0  0  0  0
   -2.4570    4.3630   -0.7966 C   0  0  0  0  0  0  0  0  0  0  0  0
   -3.0598    5.2752   -0.9019 H   0  0  0  0  0  0  0  0  0  0  0  0
   -1.1374    4.4769   -0.4098 C   0  0  0  0  0  0  0  0  0  0  0  0
   -0.6342    5.4291   -0.1951 H   0  0  0  0  0  0  0  0  0  0  0  0
    0.9440    3.1916    0.1039 C   0  0  0  0  0  0  0  0  0  0  0  0
    1.5615    4.0446    0.3955 H   0  0  0  0  0  0  0  0  0  0  0  0
    1.2225    1.8204    0.0834 C   0  0  0  0  0  0  0  0  0  0  0  0
    2.4836    1.1852    0.4451 C   0  0  0  0  0  0  0  0  0  0  0  0
    3.6823    1.9410    0.4167 C   0  0  0  0  0  0  0  0  0  0  0  0
    3.6571    2.9618    0.0038 H   0  0  0  0  0  0  0  0  0  0  0  0
    4.8904    1.4140    0.8716 C   0  0  0  0  0  0  0  0  0  0  0  0
    5.8113    2.0129    0.8226 H   0  0  0  0  0  0  0  0  0  0  0  0
    4.9140    0.0990    1.3842 C   0  0  0  0  0  0  0  0  0  0  0  0
    5.8607   -0.3308    1.7477 H   0  0  0  0  0  0  0  0  0  0  0  0
    3.7528   -0.6706    1.4179 C   0  0  0  0  0  0  0  0  0  0  0  0
    3.7568   -1.7009    1.8028 H   0  0  0  0  0  0  0  0  0  0  0  0
    2.5106   -0.1669    0.9358 C   0  0  0  0  0  0  0  0  0  0  0  0
  1 15  1  0  0  0  0
  2 13  1  0  0  0  0
  4  5  1  1  0  0  0
  4  1  1  0  0  0  0
  4  2  1  0  0  0  0
  6  5  1  0  0  0  0
  7  5  2  0  0  0  0
  7  9  1  0  0  0  0
  8  7  1  0  0  0  0
  9 11  2  0  0  0  0
 10  9  1  0  0  0  0
 11  2  1  0  0  0  0
 11 12  1  0  0  0  0
 13 14  1  0  0  0  0
 15 13  2  0  0  0  0
 15 16  1  0  0  0  0
 16 25  1  0  0  0  0
 17 16  2  0  0  0  0
 17 19  1  0  0  0  0
 18 17  1  0  0  0  0
 19 21  2  0  0  0  0
 20 19  1  0  0  0  0
 21 23  1  0  0  0  0
 21 22  1  0  0  0  0
 23 24  1  0  0  0  0
 25  3  1  0  0  0  0
 25 23  2  0  0  0  0
M  CHG  1   3  -1
M  END
