1,2
q = -1.0

 36 36  0  0  1  0  0  0  0  0999 V2000
    2.2841   -1.6168   -0.1192 N   0  0  0  0  0  2  0  0  0  0  0  0
    1.2905    0.6360   -0.0080 O   0  0  0  0  0  1  0  0  0  0  0  0
    3.2689   -0.6501   -0.0528 C   0  0  2  0  0  3  0  0  0  0  0  0
    4.6227   -1.0529   -0.0274 C   0  0  0  0  0  0  0  0  0  0  0  0
    5.4034   -0.2870    0.0454 H   0  0  0  0  0  0  0  0  0  0  0  0
    5.0128   -2.4181   -0.0746 C   0  0  0  0  0  0  0  0  0  0  0  0
    6.0834   -2.6849   -0.0447 H   0  0  0  0  0  0  0  0  0  0  0  0
    3.9645   -3.3694   -0.1554 C   0  0  0  0  0  3  0  0  0  0  0  0
    2.8361   -2.7755   -0.1610 C   0  0  0  0  0  3  0  0  0  0  0  0
    2.6837    0.7729    0.0170 C   0  0  0  0  0  0  0  0  0  0  0  0
    3.0249    1.4158    1.4614 C   0  0  0  0  0  0  0  0  0  0  0  0
    2.8521    0.3078    2.5293 C   0  0  0  0  0  0  0  0  0  0  0  0
    1.8747   -0.2058    2.4397 H   0  0  0  0  0  0  0  0  0  0  0  0
    2.9039    0.7602    3.5401 H   0  0  0  0  0  0  0  0  0  0  0  0
    3.6465   -0.4620    2.4732 H   0  0  0  0  0  0  0  0  0  0  0  0
    2.0103    2.5269    1.8152 C   0  0  0  0  0  0  0  0  0  0  0  0
    0.9713    2.1653    1.7084 H   0  0  0  0  0  0  0  0  0  0  0  0
    2.1254    3.4311    1.1932 H   0  0  0  0  0  0  0  0  0  0  0  0
    2.1696    2.8286    2.8704 H   0  0  0  0  0  0  0  0  0  0  0  0
    4.4399    2.0011    1.5983 C   0  0  0  0  0  0  0  0  0  0  0  0
    4.5928    2.8923    0.9602 H   0  0  0  0  0  0  0  0  0  0  0  0
    5.2386    1.2669    1.3759 H   0  0  0  0  0  0  0  0  0  0  0  0
    4.5910    2.3236    2.6490 H   0  0  0  0  0  0  0  0  0  0  0  0
    2.4086    0.8204   -2.5133 C   0  0  0  0  0  0  0  0  0  0  0  0
    1.3052    0.8418   -2.4535 H   0  0  0  0  0  0  0  0  0  0  0  0
    2.7237   -0.2404   -2.5728 H   0  0  0  0  0  0  0  0  0  0  0  0
    2.7074    1.3093   -3.4625 H   0  0  0  0  0  0  0  0  0  0  0  0
    4.5755    1.6498   -1.6444 C   0  0  0  0  0  0  0  0  0  0  0  0
    5.1779    2.0852   -0.8278 H   0  0  0  0  0  0  0  0  0  0  0  0
    4.7108    2.3016   -2.5316 H   0  0  0  0  0  0  0  0  0  0  0  0
    5.0011    0.6636   -1.9121 H   0  0  0  0  0  0  0  0  0  0  0  0
    2.4852    2.9908   -1.3008 C   0  0  0  0  0  0  0  0  0  0  0  0
    3.0424    3.6632   -0.6202 H   0  0  0  0  0  0  0  0  0  0  0  0
    1.4208    2.9766   -0.9991 H   0  0  0  0  0  0  0  0  0  0  0  0
    2.5486    3.4291   -2.3179 H   0  0  0  0  0  0  0  0  0  0  0  0
    3.0683    1.5656   -1.3291 C   0  0  0  0  0  0  0  0  0  0  0  0
  1  3  1  0  0  0  0
  2 10  1  0  0  0  0
  3  4  1  0  0  0  0
  3 10  1  1  0  0  0
  4  5  1  0  0  0  0
  6  7  1  0  0  0  0
  6  4  2  0  0  0  0
  8  6  1  0  0  0  0
  9  8  2  0  0  0  0
  9  1  1  0  0  0  0
 10 11  1  0  0  0  0
 11 20  1  0  0  0  0
 11 16  1  0  0  0  0
 11 12  1  0  0  0  0
 12 14  1  0  0  0  0
 13 12  1  0  0  0  0
 15 12  1  0  0  0  0
 16 19  1  0  0  0  0
 17 16  1  0  0  0  0
 18 16  1  0  0  0  0
 20 23  1  0  0  0  0
 21 20  1  0  0  0  0
 22 20  1  0  0  0  0
 24 25  1  0  0  0  0
 24 36  1  0  0  0  0
 26 24  1  0  0  0  0
 27 24  1  0  0  0  0
 28 36  1  0  0  0  0
 28 29  1  0  0  0  0
 30 28  1  0  0  0  0
 31 28  1  0  0  0  0
 32 34  1  0  0  0  0
 32 33  1  0  0  0  0
 35 32  1  0  0  0  0
 36 32  1  0  0  0  0
 36 10  1  0  0  0  0
M  END
