1,2
q = -1.0

 38 38  0  0  1  0  0  0  0  0999 V2000
   -2.2227   -1.5463    0.0874 N   0  0  0  0  0  2  0  0  0  0  0  0
   -1.2465    0.7092   -0.0086 O   0  0  0  0  0  1  0  0  0  0  0  0
   -3.1907   -0.6124    0.0408 C   0  0  2  0  0  3  0  0  0  0  0  0
   -4.5432   -1.0066    0.0229 C   0  0  0  0  0  0  0  0  0  0  0  0
   -5.3381   -0.2559   -0.0404 H   0  0  0  0  0  0  0  0  0  0  0  0
   -4.8622   -2.3678    0.0711 C   0  0  0  0  0  0  0  0  0  0  0  0
   -5.9154   -2.6868    0.0538 H   0  0  0  0  0  0  0  0  0  0  0  0
   -3.8310   -3.3178    0.1404 C   0  0  0  0  0  0  0  0  0  0  0  0
   -4.0413   -4.3954    0.1856 H   0  0  0  0  0  0  0  0  0  0  0  0
   -2.5126   -2.8598    0.1431 C   0  0  0  0  0  0  0  0  0  0  0  0
   -1.6488   -3.5388    0.1921 H   0  0  0  0  0  0  0  0  0  0  0  0
   -2.6472    0.8237   -0.0133 C   0  0  0  0  0  0  0  0  0  0  0  0
   -3.0150    1.4888   -1.4391 C   0  0  0  0  0  0  0  0  0  0  0  0
   -2.0069    2.6046   -1.7968 C   0  0  0  0  0  0  0  0  0  0  0  0
   -2.0926    3.4904   -1.1444 H   0  0  0  0  0  0  0  0  0  0  0  0
   -2.2022    2.9384   -2.8362 H   0  0  0  0  0  0  0  0  0  0  0  0
   -0.9670    2.2344   -1.7392 H   0  0  0  0  0  0  0  0  0  0  0  0
   -4.4320    2.0783   -1.5410 C   0  0  0  0  0  0  0  0  0  0  0  0
   -5.2284    1.3406   -1.3225 H   0  0  0  0  0  0  0  0  0  0  0  0
   -4.5989    2.4245   -2.5818 H   0  0  0  0  0  0  0  0  0  0  0  0
   -4.5743    2.9551   -0.8807 H   0  0  0  0  0  0  0  0  0  0  0  0
   -2.8644    0.3988   -2.5292 C   0  0  0  0  0  0  0  0  0  0  0  0
   -3.6617   -0.3681   -2.4746 H   0  0  0  0  0  0  0  0  0  0  0  0
   -1.8889   -0.1219   -2.4629 H   0  0  0  0  0  0  0  0  0  0  0  0
   -2.9284    0.8687   -3.5313 H   0  0  0  0  0  0  0  0  0  0  0  0
   -2.3330    0.8405    2.5135 C   0  0  0  0  0  0  0  0  0  0  0  0
   -1.2310    0.8932    2.4435 H   0  0  0  0  0  0  0  0  0  0  0  0
   -2.6179   -0.2295    2.5573 H   0  0  0  0  0  0  0  0  0  0  0  0
   -2.6337    1.3046    3.4744 H   0  0  0  0  0  0  0  0  0  0  0  0
   -4.5280    1.6388    1.6900 C   0  0  0  0  0  0  0  0  0  0  0  0
   -4.9285    0.6409    1.9538 H   0  0  0  0  0  0  0  0  0  0  0  0
   -5.1532    2.0693    0.8881 H   0  0  0  0  0  0  0  0  0  0  0  0
   -4.6626    2.2782    2.5863 H   0  0  0  0  0  0  0  0  0  0  0  0
   -2.4699    3.0260    1.3364 C   0  0  0  0  0  0  0  0  0  0  0  0
   -1.4078    3.0375    1.0265 H   0  0  0  0  0  0  0  0  0  0  0  0
   -2.5332    3.4494    2.3599 H   0  0  0  0  0  0  0  0  0  0  0  0
   -3.0451    3.6967    0.6693 H   0  0  0  0  0  0  0  0  0  0  0  0
   -3.0242    1.5893    1.3492 C   0  0  0  0  0  0  0  0  0  0  0  0
  1 10  1  0  0  0  0
  3 12  1  6  0  0  0
  3  1  1  0  0  0  0
  4  3  1  0  0  0  0
  4  6  2  0  0  0  0
  5  4  1  0  0  0  0
  6  8  1  0  0  0  0
  7  6  1  0  0  0  0
  8 10  2  0  0  0  0
  8  9  1  0  0  0  0
 10 11  1  0  0  0  0
 12  2  1  0  0  0  0
 12 38  1  0  0  0  0
 13 12  1  0  0  0  0
 14 17  1  0  0  0  0
 14 13  1  0  0  0  0
 14 15  1  0  0  0  0
 16 14  1  0  0  0  0
 18 13  1  0  0  0  0
 18 19  1  0  0  0  0
 18 21  1  0  0  0  0
 20 18  1  0  0  0  0
 22 23  1  0  0  0  0
 22 24  1  0  0  0  0
 22 13  1  0  0  0  0
 25 22  1  0  0  0  0
 26 28  1  0  0  0  0
 26 29  1  0  0  0  0
 27 26  1  0  0  0  0
 30 31  1  0  0  0  0
 30 33  1  0  0  0  0
 32 30  1  0  0  0  0
 34 38  1  0  0  0  0
 34 36  1  0  0  0  0
 35 34  1  0  0  0  0
 37 34  1  0  0  0  0
 38 30  1  0  0  0  0
 38 26  1  0  0  0  0
M  END
