2,3
q = -1.0

 31 32  0  0  0  0  0  0  0  0999 V2000
    2.7635   -3.1496   -0.8361 S   0  0  0  0  0  0  0  0  0  0  0  0
    1.3716    1.1587    0.5598 O   0  5  0  0  0  0  0  0  0  0  0  0
    1.0303   -0.6258   -1.5188 N   0  0  0  0  0  2  0  0  0  0  0  0
    1.6223   -2.1388    1.4014 N   0  0  0  0  0  0  0  0  0  0  0  0
    2.4720    1.5081   -0.0416 C   0  0  0  0  0  0  0  0  0  0  0  0
    2.1802   -0.1198   -1.9049 C   0  0  0  0  0  0  0  0  0  0  0  0
    2.6624   -0.5828   -2.7881 H   0  0  0  0  0  0  0  0  0  0  0  0
    0.6482   -1.8729   -2.1766 C   0  0  0  0  0  0  0  0  0  0  0  0
   -0.4447   -1.8751   -2.3440 H   0  0  0  0  0  0  0  0  0  0  0  0
    1.1704   -1.9497   -3.1546 H   0  0  0  0  0  0  0  0  0  0  0  0
    2.9134    0.9408   -1.2864 C   0  0  0  0  0  0  0  0  0  0  0  0
    4.1393    1.3708   -1.8648 C   0  0  0  0  0  3  0  0  0  0  0  0
    4.4574    0.9109   -2.8146 H   0  0  0  0  0  0  0  0  0  0  0  0
    2.7438   -2.1876    0.6751 C   0  0  0  0  0  0  0  0  0  0  0  0
    4.4999    2.8938   -0.0241 C   0  0  0  0  0  0  0  0  0  0  0  0
    5.1183    3.6580    0.4730 H   0  0  0  0  0  0  0  0  0  0  0  0
    0.9977   -3.0850   -1.2952 C   0  0  0  0  0  0  0  0  0  0  0  0
    0.4268   -3.0563   -0.3455 H   0  0  0  0  0  0  0  0  0  0  0  0
    0.7710   -4.0293   -1.8283 H   0  0  0  0  0  0  0  0  0  0  0  0
    3.3087    2.4925    0.5708 C   0  0  0  0  0  0  0  0  0  0  0  0
    2.9752    2.9199    1.5276 H   0  0  0  0  0  0  0  0  0  0  0  0
    3.9332   -1.5240    1.0493 C   0  0  0  0  0  0  0  0  0  0  0  0
    4.8201   -1.5613    0.4002 H   0  0  0  0  0  0  0  0  0  0  0  0
    3.9289   -0.7888    2.2379 C   0  0  0  0  0  0  0  0  0  0  0  0
    4.8306   -0.2398    2.5485 H   0  0  0  0  0  0  0  0  0  0  0  0
    4.9302    2.3366   -1.2538 C   0  0  0  0  0  0  0  0  0  0  0  0
    5.8752    2.6607   -1.7126 H   0  0  0  0  0  0  0  0  0  0  0  0
    1.6279   -1.4233    2.5376 C   0  0  0  0  0  0  0  0  0  0  0  0
    0.6742   -1.3904    3.0923 H   0  0  0  0  0  0  0  0  0  0  0  0
    2.7534   -0.7336    3.0059 C   0  0  0  0  0  0  0  0  0  0  0  0
    2.7053   -0.1543    3.9391 H   0  0  0  0  0  0  0  0  0  0  0  0
  1 14  1  0  0  0  0
  4 28  1  0  0  0  0
  5  2  1  0  0  0  0
  5 20  2  0  0  0  0
  6  3  1  0  0  0  0
  6 11  2  0  0  0  0
  7  6  1  0  0  0  0
  8  3  1  0  0  0  0
  8 17  1  0  0  0  0
  9  8  1  0  0  0  0
 10  8  1  0  0  0  0
 11  5  1  0  0  0  0
 12 11  1  0  0  0  0
 12 26  1  0  0  0  0
 13 12  1  0  0  0  0
 14 22  1  0  0  0  0
 14  4  2  0  0  0  0
 15 16  1  0  0  0  0
 15 20  1  0  0  0  0
 17  1  1  0  0  0  0
 17 18  1  0  0  0  0
 19 17  1  0  0  0  0
 20 21  1  0  0  0  0
 22 24  2  0  0  0  0
 23 22  1  0  0  0  0
 24 25  1  0  0  0  0
 24 30  1  0  0  0  0
 26 15  2  0  0  0  0
 27 26  1  0  0  0  0
 28 30  2  0  0  0  0
 28 29  1  0  0  0  0
 30 31  1  0  0  0  0
M  CHG  1   2  -1
M  END
