2,3
q = -1.0, confidence = 0.002

 31 32  0  0  1  0  0  0  0  0999 V2000
   -2.7622    3.1494    0.8372 S   0  0  0  0  0  0  0  0  0  0  0  0
   -1.3718   -1.1596   -0.5599 O   0  0  0  0  0  1  0  0  0  0  0  0
   -1.0302    0.6246    1.5190 N   0  0  0  0  0  2  0  0  0  0  0  0
   -1.6213    2.1385   -1.4005 N   0  0  0  0  0  0  0  0  0  0  0  0
   -2.4727   -1.5083    0.0409 C   0  0  1  0  0  3  0  0  0  0  0  0
   -2.1805    0.1191    1.9047 C   0  0  0  0  0  0  0  0  0  0  0  0
   -2.6625    0.5820    2.7881 H   0  0  0  0  0  0  0  0  0  0  0  0
   -0.6475    1.8712    2.1773 C   0  0  0  0  0  0  0  0  0  0  0  0
    0.4454    1.8728    2.3447 H   0  0  0  0  0  0  0  0  0  0  0  0
   -1.1696    1.9479    3.1553 H   0  0  0  0  0  0  0  0  0  0  0  0
   -2.9142   -0.9408    1.2857 C   0  0  0  0  0  0  0  0  0  0  0  0
   -4.1406   -1.3700    1.8635 C   0  0  0  0  0  0  0  0  0  0  0  0
   -4.4587   -0.9101    2.8132 H   0  0  0  0  0  0  0  0  0  0  0  0
   -2.7430    2.1880   -0.6744 C   0  0  0  0  0  0  0  0  0  0  0  0
   -4.5016   -2.8925    0.0224 C   0  0  0  0  0  0  0  0  0  0  0  0
   -5.1204   -3.6561   -0.4751 H   0  0  0  0  0  0  0  0  0  0  0  0
   -0.9964    3.0839    1.2963 C   0  0  0  0  0  0  0  0  0  0  0  0
   -0.4254    3.0550    0.3466 H   0  0  0  0  0  0  0  0  0  0  0  0
   -0.7693    4.0279    1.8297 H   0  0  0  0  0  0  0  0  0  0  0  0
   -3.3098   -2.4919   -0.5719 C   0  0  0  0  0  0  0  0  0  0  0  0
   -2.9763   -2.9195   -1.5287 H   0  0  0  0  0  0  0  0  0  0  0  0
   -3.9329    1.5257   -1.0491 C   0  0  0  0  0  0  0  0  0  0  0  0
   -4.8199    1.5637   -0.4002 H   0  0  0  0  0  0  0  0  0  0  0  0
   -3.9290    0.7907   -2.2378 C   0  0  0  0  0  0  0  0  0  0  0  0
   -4.8311    0.2427   -2.5488 H   0  0  0  0  0  0  0  0  0  0  0  0
   -4.9320   -2.3351    1.2520 C   0  0  0  0  0  0  0  0  0  0  0  0
   -5.8774   -2.6586    1.7104 H   0  0  0  0  0  0  0  0  0  0  0  0
   -1.6274    1.4233   -2.5369 C   0  0  0  0  0  0  0  0  0  0  0  0
   -0.6736    1.3897   -3.0915 H   0  0  0  0  0  0  0  0  0  0  0  0
   -2.7533    0.7347   -3.0056 C   0  0  0  0  0  0  0  0  0  0  0  0
   -2.7055    0.1556   -3.9389 H   0  0  0  0  0  0  0  0  0  0  0  0
  1 17  1  0  0  0  0
  3  6  1  0  0  0  0
  3  8  1  0  0  0  0
  4 14  1  0  0  0  0
  5  2  1  6  0  0  0
  5 11  1  0  0  0  0
  6  7  1  0  0  0  0
  8  9  1  0  0  0  0
  8 10  1  0  0  0  0
 11 12  1  0  0  0  0
 11  6  2  0  0  0  0
 12 13  1  0  0  0  0
 14  1  1  0  0  0  0
 15 26  1  0  0  0  0
 16 15  1  0  0  0  0
 17 19  1  0  0  0  0
 17  8  1  0  0  0  0
 18 17  1  0  0  0  0
 20 15  2  0  0  0  0
 20  5  1  0  0  0  0
 21 20  1  0  0  0  0
 22 14  2  0  0  0  0
 22 23  1  0  0  0  0
 24 22  1  0  0  0  0
 25 24  1  0  0  0  0
 26 27  1  0  0  0  0
 26 12  2  0  0  0  0
 28  4  2  0  0  0  0
 29 28  1  0  0  0  0
 30 28  1  0  0  0  0
 30 24  2  0  0  0  0
 31 30  1  0  0  0  0
M  END
