1,3
q = -1.0

 41 43  0  0  1  0  0  0  0  0999 V2000
   -0.3126   -1.9274    0.3800 O   0  5  0  0  0  0  0  0  0  0  0  0
    4.0793    2.7887    0.5989 O   0  0  0  0  0  0  0  0  0  0  0  0
   -0.7310    0.6636   -0.1553 N   0  0  0  0  0  2  0  0  0  0  0  0
   -0.9466    1.9181   -0.5737 C   0  0  0  0  0  0  0  0  0  0  0  0
   -1.9772    2.1723   -0.8499 H   0  0  0  0  0  0  0  0  0  0  0  0
    0.0942    2.8632   -0.6603 C   0  0  0  0  0  0  0  0  0  0  0  0
   -0.1411    3.8817   -1.0007 H   0  0  0  0  0  0  0  0  0  0  0  0
    1.3894    2.5078   -0.3097 C   0  0  0  0  0  0  0  0  0  0  0  0
    2.2140    3.2317   -0.3247 H   0  0  0  0  0  0  0  0  0  0  0  0
    1.6714    1.1676    0.0870 C   0  0  0  0  0  0  0  0  0  0  0  0
    2.9888    0.6672    0.3987 C   0  0  0  0  0  0  0  0  0  0  0  0
    3.1074   -0.6969    0.7396 C   0  0  0  0  0  0  0  0  0  0  0  0
    4.0988   -1.0780    1.0239 H   0  0  0  0  0  0  0  0  0  0  0  0
    2.0269   -1.5869    0.7611 C   0  0  0  0  0  0  0  0  0  0  0  0
    2.1672   -2.6441    1.0278 H   0  0  0  0  0  0  0  0  0  0  0  0
    0.7244   -1.1472    0.4342 C   0  0  0  0  0  0  0  0  0  0  0  0
    0.5612    0.2625    0.1304 C   0  0  2  0  0  3  0  0  0  0  0  0
    4.1717    1.5641    0.4281 C   0  0  0  0  0  0  0  0  0  0  0  0
    5.5466    0.9740    0.2428 C   0  0  0  0  0  0  0  0  0  0  0  0
    6.6312    1.6098    0.8840 C   0  0  0  0  0  0  0  0  0  0  0  0
    6.4180    2.4741    1.5303 H   0  0  0  0  0  0  0  0  0  0  0  0
    7.9377    1.1562    0.6965 C   0  0  0  0  0  0  0  0  0  0  0  0
    8.7561    1.6650    1.2289 H   0  0  0  0  0  0  0  0  0  0  0  0
    8.2295    0.0706   -0.1635 C   0  0  0  0  0  0  0  0  0  0  0  0
    7.1448   -0.5355   -0.8275 C   0  0  0  0  0  0  0  0  0  0  0  0
    7.3193   -1.3658   -1.5251 H   0  0  0  0  0  0  0  0  0  0  0  0
    5.8263   -0.0987   -0.6259 C   0  0  0  0  0  0  0  0  0  0  0  0
    5.0072   -0.5844   -1.1769 H   0  0  0  0  0  0  0  0  0  0  0  0
    9.6847   -0.3921   -0.3460 C   0  0  0  0  0  0  0  0  0  0  0  0
    9.8014   -1.5785   -1.3182 C   0  0  0  0  0  0  0  0  0  0  0  0
   10.8637   -1.8799   -1.4162 H   0  0  0  0  0  0  0  0  0  0  0  0
    9.4338   -1.3196   -2.3316 H   0  0  0  0  0  0  0  0  0  0  0  0
    9.2356   -2.4622   -0.9604 H   0  0  0  0  0  0  0  0  0  0  0  0
   10.5238    0.7805   -0.9037 C   0  0  0  0  0  0  0  0  0  0  0  0
   10.5127    1.6555   -0.2242 H   0  0  0  0  0  0  0  0  0  0  0  0
   10.1352    1.1125   -1.8876 H   0  0  0  0  0  0  0  0  0  0  0  0
   11.5809    0.4699   -1.0365 H   0  0  0  0  0  0  0  0  0  0  0  0
   10.2518   -0.8271    1.0249 C   0  0  0  0  0  0  0  0  0  0  0  0
   10.2302    0.0005    1.7613 H   0  0  0  0  0  0  0  0  0  0  0  0
   11.3059   -1.1577    0.9195 H   0  0  0  0  0  0  0  0  0  0  0  0
    9.6666   -1.6693    1.4463 H   0  0  0  0  0  0  0  0  0  0  0  0
  1 16  1  0  0  0  0
  4  3  1  0  0  0  0
  5  4  1  0  0  0  0
  6  4  2  0  0  0  0
  6  8  1  0  0  0  0
  7  6  1  0  0  0  0
  8 10  2  0  0  0  0
  9  8  1  0  0  0  0
 10 17  1  0  0  0  0
 10 11  1  0  0  0  0
 11 18  1  0  0  0  0
 11 12  2  0  0  0  0
 12 14  1  0  0  0  0
 12 13  1  0  0  0  0
 14 15  1  0  0  0  0
 16 14  2  0  0  0  0
 17  3  1  6  0  0  0
 17 16  1  0  0  0  0
 18  2  2  0  0  0  0
 19 18  1  0  0  0  0
 19 20  1  0  0  0  0
 20 21  1  0  0  0  0
 22 20  2  0  0  0  0
 22 23  1  0  0  0  0
 24 22  1  0  0  0  0
 25 27  1  0  0  0  0
 25 24  2  0  0  0  0
 26 25  1  0  0  0  0
 27 19  2  0  0  0  0
 28 27  1  0  0  0  0
 29 24  1  0  0  0  0
 29 38  1  0  0  0  0
 30 33  1  0  0  0  0
 30 29  1  0  0  0  0
 31 30  1  0  0  0  0
 32 30  1  0  0  0  0
 34 29  1  0  0  0  0
 34 35  1  0  0  0  0
 36 34  1  0  0  0  0
 37 34  1  0  0  0  0
 38 41  1  0  0  0  0
 38 39  1  0  0  0  0
 40 38  1  0  0  0  0
M  CHG  1   1  -1
M  END
