1,3
q = -1.0

 21 21  0  0  1  0  0  0  0  0999 V2000
    0.0753    1.1048   -1.3521 O   0  0  0  0  0  1  0  0  0  0  0  0
    1.2731    2.1277    0.4024 O   0  0  0  0  0  0  0  0  0  0  0  0
    1.2285   -0.8700   -0.0194 N   0  0  0  0  0  2  0  0  0  0  0  0
    1.7030   -2.0591    0.3974 C   0  0  0  0  0  3  0  0  0  0  0  0
    0.9402   -2.7779    0.7405 H   0  0  0  0  0  0  0  0  0  0  0  0
    3.0782   -2.3125    0.3916 C   0  0  0  0  0  0  0  0  0  0  0  0
    3.4492   -3.2889    0.7329 H   0  0  0  0  0  0  0  0  0  0  0  0
    3.9539   -1.3097   -0.0522 C   0  0  0  0  0  0  0  0  0  0  0  0
    5.0396   -1.4877   -0.0665 H   0  0  0  0  0  0  0  0  0  0  0  0
    3.4354   -0.0752   -0.4702 C   0  0  0  0  0  0  0  0  0  0  0  0
    4.0908    0.7392   -0.8094 H   0  0  0  0  0  0  0  0  0  0  0  0
    2.0523    0.1238   -0.4466 C   0  0  0  0  0  0  0  0  0  0  0  0
    1.3108    1.4011   -0.8139 C   0  0  1  0  0  0  0  0  0  0  0  0
    1.8660    1.9849   -1.5960 H   0  0  0  0  0  0  0  0  0  0  0  0
    0.5957    3.3871    0.2932 C   0  0  0  0  0  0  0  0  0  0  0  0
   -0.4067    3.2293   -0.1603 H   0  0  0  0  0  0  0  0  0  0  0  0
    1.1723    4.0565   -0.3917 H   0  0  0  0  0  0  0  0  0  0  0  0
    0.4837    3.9863    1.6809 C   0  0  0  0  0  0  0  0  0  0  0  0
   -0.0144    4.9749    1.6329 H   0  0  0  0  0  0  0  0  0  0  0  0
    1.4840    4.1193    2.1395 H   0  0  0  0  0  0  0  0  0  0  0  0
   -0.1152    3.3274    2.3405 H   0  0  0  0  0  0  0  0  0  0  0  0
  1 13  1  0  0  0  0
  3  4  1  0  0  0  0
  4  5  1  0  0  0  0
  6  4  1  0  0  0  0
  6  7  1  0  0  0  0
  8  6  2  0  0  0  0
  9  8  1  0  0  0  0
 10 12  2  0  0  0  0
 10  8  1  0  0  0  0
 11 10  1  0  0  0  0
 12  3  1  0  0  0  0
 13 14  1  6  0  0  0
 13 12  1  0  0  0  0
 13  2  1  0  0  0  0
 15  2  1  0  0  0  0
 15 18  1  0  0  0  0
 16 15  1  0  0  0  0
 17 15  1  0  0  0  0
 18 20  1  0  0  0  0
 18 21  1  0  0  0  0
 19 18  1  0  0  0  0
M  END
