1,2
q = -1.0

 24 25  0  0  0  0  0  0  0  0999 V2000
    0.5950   -1.2235    1.4094 O   0  0  0  0  0  1  0  0  0  0  0  0
    1.7691   -0.5555   -0.6532 N   0  0  0  0  0  2  0  0  0  0  0  0
    2.4298   -0.2138    0.4793 N   0  0  0  0  0  0  0  0  0  0  0  0
    2.4832   -0.1653   -1.7155 C   0  0  0  0  0  0  0  0  0  0  0  0
    2.0967   -0.3509   -2.7231 H   0  0  0  0  0  0  0  0  0  0  0  0
    3.6744    0.4728   -1.2659 C   0  0  0  0  0  0  0  0  0  0  0  0
    4.7761    1.0944   -1.8982 C   0  0  0  0  0  3  0  0  0  0  0  0
    4.8293    1.1533   -2.9952 H   0  0  0  0  0  0  0  0  0  0  0  0
    5.7889    1.6219   -1.0976 C   0  0  0  0  0  0  0  0  0  0  0  0
    6.6573    2.1081   -1.5663 H   0  0  0  0  0  0  0  0  0  0  0  0
    5.7244    1.5361    0.3177 C   0  0  0  0  0  0  0  0  0  0  0  0
    6.5451    1.9558    0.9184 H   0  0  0  0  0  0  0  0  0  0  0  0
    4.6473    0.9331    0.9721 C   0  0  0  0  0  0  0  0  0  0  0  0
    4.6141    0.8757    2.0676 H   0  0  0  0  0  0  0  0  0  0  0  0
    3.6148    0.4100    0.1669 C   0  0  0  0  0  0  0  0  0  0  0  0
    1.8660   -0.7746    1.7538 C   0  0  0  0  0  0  0  0  0  0  0  0
    2.7274   -1.9647    2.1991 C   0  0  0  0  0  0  0  0  0  0  0  0
    2.3081   -2.3798    3.1354 H   0  0  0  0  0  0  0  0  0  0  0  0
    3.7751   -1.6531    2.3803 H   0  0  0  0  0  0  0  0  0  0  0  0
    2.6958   -2.7485    1.4181 H   0  0  0  0  0  0  0  0  0  0  0  0
    1.7743    0.3239    2.8163 C   0  0  0  0  0  0  0  0  0  0  0  0
    1.2105    1.1901    2.4263 H   0  0  0  0  0  0  0  0  0  0  0  0
    2.7736    0.6632    3.1479 H   0  0  0  0  0  0  0  0  0  0  0  0
    1.2417   -0.0881    3.6941 H   0  0  0  0  0  0  0  0  0  0  0  0
  1 16  1  0  0  0  0
  2  3  1  0  0  0  0
  3 16  1  0  0  0  0
  4  6  2  0  0  0  0
  4  2  1  0  0  0  0
  5  4  1  0  0  0  0
  6 15  1  0  0  0  0
  7  6  1  0  0  0  0
  7  9  1  0  0  0  0
  8  7  1  0  0  0  0
  9 11  2  0  0  0  0
 10  9  1  0  0  0  0
 11 12  1  0  0  0  0
 11 13  1  0  0  0  0
 13 14  1  0  0  0  0
 15  3  1  0  0  0  0
 15 13  2  0  0  0  0
 16 17  1  0  0  0  0
 16 21  1  0  0  0  0
 17 19  1  0  0  0  0
 17 18  1  0  0  0  0
 20 17  1  0  0  0  0
 21 23  1  0  0  0  0
 21 24  1  0  0  0  0
 22 21  1  0  0  0  0
M  END
