2,4
q = 0.0, confidence = 0.946

 30 32  0  0  1  0  0  0  0  0999 V2000
   -4.9391    0.1138    1.2595 O   0  0  0  0  0  0  0  0  0  0  0  0
   -1.6865   -1.9317   -0.2177 O   0  5  0  0  0  0  0  0  0  0  0  0
   -1.0723    1.5083    1.6066 O   0  0  0  0  0  0  0  0  0  0  0  0
   -1.2952    0.3379    1.0111 N   0  0  0  0  0  2  0  0  0  0  0  0
   -6.7271   -2.5855   -0.4147 C   0  0  0  0  0  0  0  0  0  0  0  0
   -7.7670   -2.9284   -0.5273 H   0  0  0  0  0  0  0  0  0  0  0  0
   -5.6814   -3.3026   -1.0346 C   0  0  0  0  0  0  0  0  0  0  0  0
   -5.9035   -4.2019   -1.6269 H   0  0  0  0  0  0  0  0  0  0  0  0
   -4.3664   -2.8640   -0.8851 C   0  0  0  0  0  0  0  0  0  0  0  0
   -3.5189   -3.4005   -1.3360 H   0  0  0  0  0  0  0  0  0  0  0  0
   -6.4674   -1.4361    0.3384 C   0  0  0  0  0  0  0  0  0  0  0  0
   -7.2733   -0.8679    0.8238 H   0  0  0  0  0  0  0  0  0  0  0  0
   -5.1436   -0.9791    0.4807 C   0  0  0  0  0  0  0  0  0  0  0  0
   -4.0803   -1.7040   -0.1305 C   0  0  0  0  0  0  0  0  0  0  0  0
   -2.7147   -1.2603    0.1112 C   0  0  0  0  0  0  0  0  0  0  0  0
   -2.5631    0.0028    0.7851 C   0  0  0  0  0  0  0  0  0  0  0  0
   -3.7376    0.8969    1.0469 C   0  0  1  0  0  0  0  0  0  0  0  0
   -3.5825    1.4316    2.0062 H   0  0  0  0  0  0  0  0  0  0  0  0
   -3.9830    1.9246   -0.0620 C   0  0  0  0  0  0  0  0  0  0  0  0
   -5.1628    2.6939   -0.0068 C   0  0  0  0  0  0  0  0  0  0  0  0
   -5.8780    2.5267    0.8129 H   0  0  0  0  0  0  0  0  0  0  0  0
   -5.4310    3.6511   -0.9936 C   0  0  0  0  0  0  0  0  0  0  0  0
   -6.3568    4.2444   -0.9432 H   0  0  0  0  0  0  0  0  0  0  0  0
   -4.5195    3.8529   -2.0441 C   0  0  0  0  0  0  0  0  0  0  0  0
   -4.7297    4.6044   -2.8205 H   0  0  0  0  0  0  0  0  0  0  0  0
   -3.3441    3.0907   -2.0995 C   0  0  0  0  0  0  0  0  0  0  0  0
   -2.6262    3.2348   -2.9213 H   0  0  0  0  0  0  0  0  0  0  0  0
   -3.0729    2.1270   -1.1143 C   0  0  0  0  0  0  0  0  0  0  0  0
   -2.1477    1.5328   -1.1875 H   0  0  0  0  0  0  0  0  0  0  0  0
   -0.0185    1.5621    1.6627 H   0  0  0  0  0  0  0  0  0  0  0  0
  2 15  1  0  0  0  0
  3 30  1  0  0  0  0
  4  3  1  0  0  0  0
  5 11  1  0  0  0  0
  6  5  1  0  0  0  0
  7  9  1  0  0  0  0
  7  5  2  0  0  0  0
  8  7  1  0  0  0  0
  9 14  2  0  0  0  0
 10  9  1  0  0  0  0
 11 13  2  0  0  0  0
 11 12  1  0  0  0  0
 13  1  1  0  0  0  0
 14 15  1  0  0  0  0
 14 13  1  0  0  0  0
 15 16  2  0  0  0  0
 16  4  1  0  0  0  0
 16 17  1  0  0  0  0
 17  1  1  0  0  0  0
 17 18  1  1  0  0  0
 19 20  1  0  0  0  0
 19 17  1  0  0  0  0
 20 21  1  0  0  0  0
 22 23  1  0  0  0  0
 22 20  2  0  0  0  0
 24 22  1  0  0  0  0
 25 24  1  0  0  0  0
 26 24  2  0  0  0  0
 26 28  1  0  0  0  0
 27 26  1  0  0  0  0
 28 19  2  0  0  0  0
 29 28  1  0  0  0  0
M  CHG  1   2  -1
M  END
