3,4
q = 0.0, confidence = 0.994

 33 34  0  0  1  0  0  0  0  0999 V2000
    0.4238    1.3281    2.2469 O   0  0  0  0  0  0  0  0  0  0  0  0
   -0.3943    1.3567    2.7806 H   0  0  0  0  0  0  0  0  0  0  0  0
    1.3947   -1.6487   -1.0991 O   0  0  0  0  0  1  0  0  0  0  0  0
    2.2904    0.6134    0.2171 N   0  0  0  0  0  2  0  0  0  0  0  0
    3.0670   -0.1654   -0.5801 N   0  0  0  0  0  0  0  0  0  0  0  0
    4.0546    0.0847   -0.7479 H   0  0  0  0  0  0  0  0  0  0  0  0
    1.0517    2.5346    2.2916 C   0  0  0  0  0  0  0  0  0  0  0  0
    0.5630    3.5837    3.0877 C   0  0  0  0  0  0  0  0  0  0  0  0
   -0.3628    3.4298    3.6656 H   0  0  0  0  0  0  0  0  0  0  0  0
    1.2451    4.8044    3.1585 C   0  0  0  0  0  0  0  0  0  0  0  0
    0.8456    5.6118    3.7898 H   0  0  0  0  0  0  0  0  0  0  0  0
    2.4364    4.9907    2.4362 C   0  0  0  0  0  0  0  0  0  0  0  0
    2.9814    5.9431    2.4956 H   0  0  0  0  0  0  0  0  0  0  0  0
    2.9213    3.9513    1.6419 C   0  0  0  0  0  0  0  0  0  0  0  0
    3.8517    4.0903    1.0697 H   0  0  0  0  0  0  0  0  0  0  0  0
    2.2435    2.7086    1.5280 C   0  0  0  0  0  0  0  0  0  0  0  0
    2.8357    1.7183    0.6456 C   0  0  0  0  0  3  0  0  0  0  0  0
    3.8629    1.9696    0.2974 H   0  0  0  0  0  0  0  0  0  0  0  0
    2.5759   -1.2955   -1.1891 C   0  0  2  0  0  3  0  0  0  0  0  0
    3.5965   -2.0925   -1.9970 C   0  0  0  0  0  0  0  0  0  0  0  0
    3.1629   -2.1954   -3.0133 H   0  0  0  0  0  0  0  0  0  0  0  0
    3.5926   -3.1148   -1.5645 H   0  0  0  0  0  0  0  0  0  0  0  0
    4.9932   -1.5184   -2.0451 C   0  0  0  0  0  0  0  0  0  0  0  0
    5.9498   -1.8691   -1.0687 C   0  0  0  0  0  0  0  0  0  0  0  0
    5.6904   -2.6118   -0.2973 H   0  0  0  0  0  0  0  0  0  0  0  0
    7.2284   -1.2913   -1.0794 C   0  0  0  0  0  0  0  0  0  0  0  0
    7.9671   -1.5834   -0.3180 H   0  0  0  0  0  0  0  0  0  0  0  0
    7.5679   -0.3512   -2.0655 C   0  0  0  0  0  0  0  0  0  0  0  0
    8.5724    0.0975   -2.0778 H   0  0  0  0  0  0  0  0  0  0  0  0
    6.6246    0.0065   -3.0422 C   0  0  0  0  0  0  0  0  0  0  0  0
    6.8885    0.7345   -3.8239 H   0  0  0  0  0  0  0  0  0  0  0  0
    5.3463   -0.5721   -3.0312 C   0  0  0  0  0  0  0  0  0  0  0  0
    4.6122   -0.2941   -3.8044 H   0  0  0  0  0  0  0  0  0  0  0  0
  1  7  1  0  0  0  0
  1  2  1  0  0  0  0
  4 17  1  0  0  0  0
  5  4  1  0  0  0  0
  6  5  1  0  0  0  0
  7  8  1  0  0  0  0
  8 10  2  0  0  0  0
  8  9  1  0  0  0  0
 10 11  1  0  0  0  0
 12 13  1  0  0  0  0
 12 10  1  0  0  0  0
 14 12  2  0  0  0  0
 15 14  1  0  0  0  0
 16 14  1  0  0  0  0
 16  7  2  0  0  0  0
 17 16  1  0  0  0  0
 18 17  1  0  0  0  0
 19  3  1  6  0  0  0
 19  5  1  0  0  0  0
 20 22  1  0  0  0  0
 20 19  1  0  0  0  0
 21 20  1  0  0  0  0
 23 20  1  0  0  0  0
 23 24  1  0  0  0  0
 24 25  1  0  0  0  0
 26 24  2  0  0  0  0
 26 27  1  0  0  0  0
 28 26  1  0  0  0  0
 29 28  1  0  0  0  0
 30 32  1  0  0  0  0
 30 28  2  0  0  0  0
 31 30  1  0  0  0  0
 32 23  2  0  0  0  0
 33 32  1  0  0  0  0
M  END
