1,3
q = -1.0

 19 19  0  0  1  0  0  0  0  0999 V2000
   -0.0366    1.7855   -0.8475 O   0  5  0  0  0  0  0  0  0  0  0  0
   -1.3558    3.5640   -0.5400 O   0  0  0  0  0  0  0  0  0  0  0  0
   -1.2892   -0.5462    0.0879 N   0  0  0  0  0  2  0  0  0  0  0  0
   -0.9937    2.4570   -0.2038 C   0  0  0  0  0  0  0  0  0  0  0  0
   -1.6201    1.7161    1.0092 C   0  0  0  0  0  0  0  0  0  0  0  0
   -0.8372    1.6084    1.7918 H   0  0  0  0  0  0  0  0  0  0  0  0
   -2.4266    2.3523    1.4131 H   0  0  0  0  0  0  0  0  0  0  0  0
   -2.1575    0.3718    0.6216 C   0  0  1  0  0  3  0  0  0  0  0  0
   -1.7511   -1.7351   -0.4044 C   0  0  0  0  0  0  0  0  0  0  0  0
   -3.1133   -2.0568   -0.3058 C   0  0  0  0  0  0  0  0  0  0  0  0
   -3.4607   -3.0200   -0.7044 H   0  0  0  0  0  0  0  0  0  0  0  0
   -4.0094   -1.1520    0.2729 C   0  0  0  0  0  0  0  0  0  0  0  0
   -5.0791   -1.3964    0.3505 H   0  0  0  0  0  0  0  0  0  0  0  0
   -3.5261    0.0782    0.7241 C   0  0  0  0  0  0  0  0  0  0  0  0
   -4.1987    0.8333    1.1531 H   0  0  0  0  0  0  0  0  0  0  0  0
   -0.7923   -2.6836   -1.0665 C   0  0  0  0  0  0  0  0  0  0  0  0
   -0.0650   -2.1361   -1.6985 H   0  0  0  0  0  0  0  0  0  0  0  0
   -1.3407   -3.4000   -1.7051 H   0  0  0  0  0  0  0  0  0  0  0  0
   -0.2403   -3.2907   -0.3170 H   0  0  0  0  0  0  0  0  0  0  0  0
  1  4  1  0  0  0  0
  2  4  2  0  0  0  0
  3  8  1  0  0  0  0
  4  5  1  0  0  0  0
  5  7  1  0  0  0  0
  5  6  1  0  0  0  0
  8 14  1  0  0  0  0
  8  5  1  6  0  0  0
  9 10  2  0  0  0  0
  9  3  1  0  0  0  0
 10 12  1  0  0  0  0
 11 10  1  0  0  0  0
 12 13  1  0  0  0  0
 12 14  2  0  0  0  0
 14 15  1  0  0  0  0
 16  9  1  0  0  0  0
 16 19  1  0  0  0  0
 17 16  1  0  0  0  0
 18 16  1  0  0  0  0
M  CHG  1   1  -1
M  END
