3,4
q = -1.0

 24 24  0  0  0  0  0  0  0  0999 V2000
   -3.6613   -2.9378    0.5872 Cl  0  0  0  0  0  0  0  0  0  0  0  0
   -7.1772    1.1037   -0.3078 Cl  0  0  0  0  0  0  0  0  0  0  0  0
   -1.6330   -0.8071    0.3849 O   0  5  0  0  0  0  0  0  0  0  0  0
   -0.7913    1.7726    0.0604 N   0  0  0  0  0  2  0  0  0  0  0  0
   -2.8376   -0.3521    0.2228 C   0  0  0  0  0  0  0  0  0  0  0  0
   -3.9609   -1.2444    0.2946 C   0  0  0  0  0  0  0  0  0  0  0  0
   -5.2714   -0.8027    0.1306 C   0  0  0  0  0  0  0  0  0  0  0  0
   -5.5278    0.5672   -0.1019 C   0  0  0  0  0  0  0  0  0  0  0  0
   -4.4770    1.4758   -0.1605 C   0  0  0  0  0  3  0  0  0  0  0  0
   -3.1391    1.0308   -0.0018 C   0  0  0  0  0  0  0  0  0  0  0  0
   -2.0780    1.9996    0.0104 C   0  0  0  0  0  0  0  0  0  0  0  0
    0.1151    2.9409    0.2256 C   0  0  0  0  0  0  0  0  0  0  0  0
   -0.4814    4.2979   -0.1453 C   0  0  0  0  0  0  0  0  0  0  0  0
    0.6646    2.9311    1.6572 C   0  0  0  0  0  0  0  0  0  0  0  0
   -6.1000   -1.5214    0.1817 H   0  0  0  0  0  0  0  0  0  0  0  0
   -4.6808    2.5437   -0.3259 H   0  0  0  0  0  0  0  0  0  0  0  0
   -2.4156    3.0514    0.0024 H   0  0  0  0  0  0  0  0  0  0  0  0
    0.9645    2.7427   -0.4526 H   0  0  0  0  0  0  0  0  0  0  0  0
   -1.2593    4.6450    0.5670 H   0  0  0  0  0  0  0  0  0  0  0  0
    0.3327    5.0484   -0.1245 H   0  0  0  0  0  0  0  0  0  0  0  0
   -0.9099    4.2998   -1.1679 H   0  0  0  0  0  0  0  0  0  0  0  0
    1.1033    1.9437    1.8957 H   0  0  0  0  0  0  0  0  0  0  0  0
    1.4614    3.6930    1.7642 H   0  0  0  0  0  0  0  0  0  0  0  0
   -0.1389    3.1468    2.3921 H   0  0  0  0  0  0  0  0  0  0  0  0
  2  8  1  0  0  0  0
  4 12  1  0  0  0  0
  5  6  2  0  0  0  0
  5  3  1  0  0  0  0
  6  1  1  0  0  0  0
  7 15  1  0  0  0  0
  7  6  1  0  0  0  0
  8  7  2  0  0  0  0
  9  8  1  0  0  0  0
  9 10  1  0  0  0  0
 10 11  2  0  0  0  0
 10  5  1  0  0  0  0
 11  4  1  0  0  0  0
 12 14  1  0  0  0  0
 13 20  1  0  0  0  0
 13 12  1  0  0  0  0
 13 19  1  0  0  0  0
 14 23  1  0  0  0  0
 14 22  1  0  0  0  0
 14 24  1  0  0  0  0
 16  9  1  0  0  0  0
 17 11  1  0  0  0  0
 18 12  1  0  0  0  0
 21 13  1  0  0  0  0
M  CHG  1   3  -1
M  END
