3,4
q = -1.0

 24 24  0  0  1  0  0  0  0  0999 V2000
    3.6615    2.9379   -0.5862 Cl  0  0  0  0  0  0  0  0  0  0  0  0
    7.1774   -1.1045    0.3057 Cl  0  0  0  0  0  0  0  0  0  0  0  0
    1.6331    0.8074   -0.3834 O   0  0  0  0  0  1  0  0  0  0  0  0
    0.7912   -1.7724   -0.0600 N   0  0  0  0  0  2  0  0  0  0  0  0
    2.8377    0.3521   -0.2222 C   0  0  2  0  0  3  0  0  0  0  0  0
    3.9611    1.2443   -0.2944 C   0  0  0  0  0  0  0  0  0  0  0  0
    5.2716    0.8024   -0.1311 C   0  0  0  0  0  0  0  0  0  0  0  0
    5.5280   -0.5676    0.1008 C   0  0  0  0  0  0  0  0  0  0  0  0
    4.4771   -1.4761    0.1597 C   0  0  0  0  0  0  0  0  0  0  0  0
    3.1392   -1.0309    0.0019 C   0  0  0  0  0  0  0  0  0  0  0  0
    2.0779   -1.9995   -0.0102 C   0  0  0  0  0  0  0  0  0  0  0  0
   -0.1153   -2.9405   -0.2254 C   0  0  0  0  0  0  0  0  0  0  0  0
    0.4811   -4.2977    0.1449 C   0  0  0  0  0  0  0  0  0  0  0  0
   -0.6652   -2.9302   -1.6568 C   0  0  0  0  0  0  0  0  0  0  0  0
    6.1003    1.5210   -0.1826 H   0  0  0  0  0  0  0  0  0  0  0  0
    4.6808   -2.5440    0.3248 H   0  0  0  0  0  0  0  0  0  0  0  0
    2.4154   -3.0514   -0.0022 H   0  0  0  0  0  0  0  0  0  0  0  0
   -0.9645   -2.7425    0.4531 H   0  0  0  0  0  0  0  0  0  0  0  0
    1.2589   -4.6447   -0.5676 H   0  0  0  0  0  0  0  0  0  0  0  0
   -0.3331   -5.0482    0.1240 H   0  0  0  0  0  0  0  0  0  0  0  0
    0.9097   -4.3001    1.1675 H   0  0  0  0  0  0  0  0  0  0  0  0
   -1.1038   -1.9427   -1.8949 H   0  0  0  0  0  0  0  0  0  0  0  0
   -1.4621   -3.6920   -1.7638 H   0  0  0  0  0  0  0  0  0  0  0  0
    0.1381   -3.1458   -2.3920 H   0  0  0  0  0  0  0  0  0  0  0  0
  1  6  1  0  0  0  0
  4 11  1  0  0  0  0
  5  3  1  6  0  0  0
  5 10  1  0  0  0  0
  6  5  1  0  0  0  0
  6  7  2  0  0  0  0
  7  8  1  0  0  0  0
  8  9  2  0  0  0  0
  8  2  1  0  0  0  0
  9 16  1  0  0  0  0
 10  9  1  0  0  0  0
 11 17  1  0  0  0  0
 11 10  2  0  0  0  0
 12  4  1  0  0  0  0
 12 13  1  0  0  0  0
 12 18  1  0  0  0  0
 13 21  1  0  0  0  0
 14 12  1  0  0  0  0
 15  7  1  0  0  0  0
 19 13  1  0  0  0  0
 20 13  1  0  0  0  0
 22 14  1  0  0  0  0
 23 14  1  0  0  0  0
 24 14  1  0  0  0  0
M  END
