2,8
q = -1.0, confidence = 0.008

 21 21  0  0  1  0  0  0  0  0999 V2000
   -4.2604   -0.5516   -1.6771 F   0  0  0  0  0  0  0  0  0  0  0  0
   -1.9758   -0.1932   -0.2246 O   0  0  0  0  0  1  0  0  0  0  0  0
   -5.0910    1.3197   -0.8474 F   0  0  0  0  0  0  0  0  0  0  0  0
   -6.1191   -0.7288    0.4390 F   0  0  0  0  0  0  0  0  0  0  0  0
   -4.6442    0.2215    1.7418 F   0  0  0  0  0  0  0  0  0  0  0  0
   -1.2525    4.1998   -0.0596 C   0  0  0  0  0  0  0  0  0  0  0  0
   -2.1977    4.7367   -0.2215 H   0  0  0  0  0  0  0  0  0  0  0  0
   -0.1121    2.0764    0.0859 N   0  0  0  0  0  2  0  0  0  0  0  0
   -4.1859   -1.6811    0.7653 F   0  0  0  0  0  0  0  0  0  0  0  0
   -2.5512    2.1440   -0.3411 C   0  0  0  0  0  0  0  0  0  0  0  0
   -3.4055    2.8144   -0.4892 H   0  0  0  0  0  0  0  0  0  0  0  0
   -4.2324    0.2913   -0.6022 C   0  0  0  0  0  0  0  0  0  0  0  0
   -1.2825    2.7752   -0.1053 C   0  0  0  0  0  0  0  0  0  0  0  0
   -0.0731    4.8879    0.1865 C   0  0  0  0  0  0  0  0  0  0  0  0
   -0.0650    5.9877    0.2201 H   0  0  0  0  0  0  0  0  0  0  0  0
   -2.8023    0.7928   -0.3746 C   0  0  2  0  0  3  0  0  0  0  0  0
    1.1044    4.1470    0.3938 C   0  0  0  0  0  0  0  0  0  0  0  0
    2.0708    4.6282    0.5960 H   0  0  0  0  0  0  0  0  0  0  0  0
    1.0355    2.7584    0.3337 C   0  0  0  0  0  0  0  0  0  0  0  0
    1.9287    2.1359    0.4764 H   0  0  0  0  0  0  0  0  0  0  0  0
   -4.8069   -0.4971    0.6148 C   0  0  0  0  0  0  0  0  0  0  0  0
  1 12  1  0  0  0  0
  3 12  1  0  0  0  0
  4 21  1  0  0  0  0
  6 14  2  0  0  0  0
  7  6  1  0  0  0  0
  8 19  1  0  0  0  0
 10 13  2  0  0  0  0
 11 10  1  0  0  0  0
 12 16  1  0  0  0  0
 12 21  1  0  0  0  0
 13  6  1  0  0  0  0
 13  8  1  0  0  0  0
 14 15  1  0  0  0  0
 14 17  1  0  0  0  0
 16 10  1  0  0  0  0
 16  2  1  1  0  0  0
 17 18  1  0  0  0  0
 19 17  2  0  0  0  0
 19 20  1  0  0  0  0
 21  9  1  0  0  0  0
 21  5  1  0  0  0  0
M  END
