1,19
q = -1.0, confidence = 0.018

 19 20  0  0  1  0  0  0  0  0999 V2000
   -2.0584   -0.0261   -0.7286 O   0  0  0  0  0  1  0  0  0  0  0  0
   -4.3557    0.1314   -0.1553 C   0  0  0  0  0  0  0  0  0  0  0  0
   -1.5265    2.5875    0.2127 C   0  0  0  0  0  0  0  0  0  0  0  0
   -2.9679    0.6683   -0.2281 C   0  0  1  0  0  3  0  0  0  0  0  0
   -0.0524    4.0922   -0.0619 N   0  0  0  0  0  0  0  0  0  0  0  0
   -1.3803    3.9125    0.0982 N   0  0  0  0  0  0  0  0  0  0  0  0
   -6.7518    0.4268    0.0717 N   0  0  0  0  0  0  0  0  0  0  0  0
   -5.5121    0.9248    0.0059 C   0  0  0  0  0  0  0  0  0  0  0  0
   -5.4416    2.0286    0.0573 H   0  0  0  0  0  0  0  0  0  0  0  0
   -4.5230   -1.2633   -0.2819 C   0  0  0  0  0  0  0  0  0  0  0  0
   -3.6344   -1.8980   -0.4243 H   0  0  0  0  0  0  0  0  0  0  0  0
   -6.8928   -0.9055   -0.0270 C   0  0  0  0  0  0  0  0  0  0  0  0
   -7.9248   -1.2930    0.0424 H   0  0  0  0  0  0  0  0  0  0  0  0
   -5.8154   -1.7903   -0.2126 C   0  0  0  0  0  0  0  0  0  0  0  0
   -5.9908   -2.8728   -0.2972 H   0  0  0  0  0  0  0  0  0  0  0  0
   -2.7496    1.9196    0.2843 N   0  0  0  0  0  0  0  0  0  0  0  0
   -3.5404    2.4669    0.6304 H   0  0  0  0  0  0  0  0  0  0  0  0
    0.5746    2.9362   -0.0416 N   0  0  0  0  0  0  0  0  0  0  0  0
   -0.3405    1.9579    0.1618 N   0  0  0  0  0  2  0  0  0  0  0  0
  2  8  1  0  0  0  0
  3 16  1  0  0  0  0
  4  1  1  1  0  0  0
  4  2  1  0  0  0  0
  4 16  1  0  0  0  0
  5 18  2  0  0  0  0
  5  6  1  0  0  0  0
  6  3  2  0  0  0  0
  8  9  1  0  0  0  0
  8  7  2  0  0  0  0
 10 14  1  0  0  0  0
 10  2  2  0  0  0  0
 11 10  1  0  0  0  0
 12 13  1  0  0  0  0
 12  7  1  0  0  0  0
 14 12  2  0  0  0  0
 15 14  1  0  0  0  0
 16 17  1  0  0  0  0
 18 19  1  0  0  0  0
 19  3  1  0  0  0  0
M  END
