1,4
q = -1.0

 11 10  0  0  1  0  0  0  0  0999 V2000
    0.9768   -1.2612   -0.9819 O   0  5  0  0  0  0  0  0  0  0  0  0
    3.1410   -1.8212   -1.3703 O   0  0  0  0  0  0  0  0  0  0  0  0
    1.6932    1.3202    1.7846 O   0  0  0  0  0  0  0  0  0  0  0  0
    1.5917    0.4046    0.7889 N   0  0  0  0  0  2  0  0  0  0  0  0
    2.2977   -1.1728   -0.7767 C   0  0  0  0  0  0  0  0  0  0  0  0
    2.6553   -0.1868    0.3248 C   0  0  2  0  0  3  0  0  0  0  0  0
    4.0467    0.0430    0.7855 C   0  0  0  0  0  0  0  0  0  0  0  0
    0.7428    1.5858    1.9170 H   0  0  0  0  0  0  0  0  0  0  0  0
    4.7196   -0.6320    0.2254 H   0  0  0  0  0  0  0  0  0  0  0  0
    4.3515    1.0966    0.6133 H   0  0  0  0  0  0  0  0  0  0  0  0
    4.1402   -0.1464    1.8749 H   0  0  0  0  0  0  0  0  0  0  0  0
  1  5  1  0  0  0  0
  2  5  2  0  0  0  0
  3  8  1  0  0  0  0
  4  3  1  0  0  0  0
  6  5  1  1  0  0  0
  6  7  1  0  0  0  0
  6  4  1  0  0  0  0
  7 11  1  0  0  0  0
  9  7  1  0  0  0  0
 10  7  1  0  0  0  0
M  CHG  1   1  -1
M  END
