1,36
q = 0.0, confidence = 0.922

 37 37  0  0  0  0  0  0  0  0999 V2000
    0.4458    1.3105   -0.0929 N   0  0  0  0  0  2  0  0  0  0  0  0
    4.0994    0.7810   -0.0558 C   0  0  0  0  0  0  0  0  0  0  0  0
    1.6347   -0.6798    0.0437 C   0  0  0  0  0  0  0  0  0  0  0  0
    2.8686   -1.4174    0.0943 C   0  0  0  0  0  0  0  0  0  0  0  0
    4.0345   -0.6571    0.0426 C   0  0  0  0  0  0  0  0  0  0  0  0
    4.9889   -1.1936    0.0794 H   0  0  0  0  0  0  0  0  0  0  0  0
    2.1535   -3.3816    1.4961 C   0  0  0  0  0  0  0  0  0  0  0  0
    2.1716   -4.4861    1.5915 H   0  0  0  0  0  0  0  0  0  0  0  0
    1.0963   -3.0555    1.4957 H   0  0  0  0  0  0  0  0  0  0  0  0
    2.6513   -2.9541    2.3896 H   0  0  0  0  0  0  0  0  0  0  0  0
    2.8775   -2.9493    0.1986 C   0  0  0  0  0  0  0  0  0  0  0  0
    2.1567   -3.5533   -1.0302 C   0  0  0  0  0  0  0  0  0  0  0  0
    2.1732   -4.6606   -0.9744 H   0  0  0  0  0  0  0  0  0  0  0  0
    2.6580   -3.2520   -1.9720 H   0  0  0  0  0  0  0  0  0  0  0  0
    1.1001   -3.2287   -1.0778 H   0  0  0  0  0  0  0  0  0  0  0  0
    4.3096   -3.5096    0.2386 C   0  0  0  0  0  0  0  0  0  0  0  0
    4.8780   -3.1374    1.1148 H   0  0  0  0  0  0  0  0  0  0  0  0
    4.8801   -3.2602   -0.6787 H   0  0  0  0  0  0  0  0  0  0  0  0
    4.2724   -4.6140    0.3141 H   0  0  0  0  0  0  0  0  0  0  0  0
    5.4475    1.5222   -0.1077 C   0  0  0  0  0  0  0  0  0  0  0  0
    6.6502    0.5639   -0.0398 C   0  0  0  0  0  0  0  0  0  0  0  0
    6.6674   -0.0194    0.9029 H   0  0  0  0  0  0  0  0  0  0  0  0
    7.5901    1.1483   -0.0805 H   0  0  0  0  0  0  0  0  0  0  0  0
    6.6683   -0.1455   -0.8917 H   0  0  0  0  0  0  0  0  0  0  0  0
    5.5302    2.4966    1.0906 C   0  0  0  0  0  0  0  0  0  0  0  0
    4.7183    3.2502    1.0688 H   0  0  0  0  0  0  0  0  0  0  0  0
    6.4947    3.0431    1.0715 H   0  0  0  0  0  0  0  0  0  0  0  0
    5.4642    1.9517    2.0538 H   0  0  0  0  0  0  0  0  0  0  0  0
    5.5302    2.3183   -1.4312 C   0  0  0  0  0  0  0  0  0  0  0  0
    5.4642    1.6433   -2.3082 H   0  0  0  0  0  0  0  0  0  0  0  0
    6.4945    2.8623   -1.4893 H   0  0  0  0  0  0  0  0  0  0  0  0
    4.7179    3.0672   -1.5155 H   0  0  0  0  0  0  0  0  0  0  0  0
    1.6751    0.7846   -0.0559 C   0  0  0  0  0  0  0  0  0  0  0  0
    2.9096    1.4912   -0.1041 C   0  0  0  0  0  0  0  0  0  0  0  0
    2.8916    2.5889   -0.1791 H   0  0  0  0  0  0  0  0  0  0  0  0
    0.4473   -1.1881    0.0766 O   0  5  0  0  0  0  0  0  0  0  0  0
    0.3890    2.3396   -0.1655 H   0  0  0  0  0  0  0  0  0  0  0  0
  1 33  1  0  0  0  0
  2  5  1  0  0  0  0
  3 36  1  0  0  0  0
  3  4  1  0  0  0  0
  4 11  1  0  0  0  0
  5  6  1  0  0  0  0
  5  4  2  0  0  0  0
  7  8  1  0  0  0  0
  7 10  1  0  0  0  0
  9  7  1  0  0  0  0
 11 16  1  0  0  0  0
 11  7  1  0  0  0  0
 12 13  1  0  0  0  0
 12 11  1  0  0  0  0
 14 12  1  0  0  0  0
 15 12  1  0  0  0  0
 16 19  1  0  0  0  0
 16 17  1  0  0  0  0
 18 16  1  0  0  0  0
 20  2  1  0  0  0  0
 20 21  1  0  0  0  0
 20 25  1  0  0  0  0
 21 22  1  0  0  0  0
 23 21  1  0  0  0  0
 24 21  1  0  0  0  0
 25 28  1  0  0  0  0
 26 25  1  0  0  0  0
 27 25  1  0  0  0  0
 29 20  1  0  0  0  0
 30 29  1  0  0  0  0
 31 29  1  0  0  0  0
 32 29  1  0  0  0  0
 33  3  2  0  0  0  0
 34 33  1  0  0  0  0
 34  2  2  0  0  0  0
 35 34  1  0  0  0  0
 37  1  1  0  0  0  0
M  CHG  1  36  -1
M  END
