1,16
q = -1.0, confidence = 0.012

 19 20  0  0  1  0  0  0  0  0999 V2000
    2.3139   -0.2994    0.0580 N   0  0  0  0  0  2  0  0  0  0  0  0
    2.5627   -1.5780   -0.1210 C   0  0  1  0  0  3  0  0  0  0  0  0
    3.9394   -2.1137   -0.3039 C   0  0  0  0  0  0  0  0  0  0  0  0
    4.9131   -1.1077   -0.2224 N   0  0  0  0  0  0  0  0  0  0  0  0
    4.6748    0.2373   -0.0167 C   0  0  0  0  0  0  0  0  0  0  0  0
    3.3165    0.6504    0.1277 C   0  0  0  0  0  0  0  0  0  0  0  0
    3.0072    2.0151    0.3309 C   0  0  0  0  0  0  0  0  0  0  0  0
    1.9494    2.3105    0.4381 H   0  0  0  0  0  0  0  0  0  0  0  0
    4.0382    2.9529    0.3891 C   0  0  0  0  0  0  0  0  0  0  0  0
    3.8016    4.0151    0.5447 H   0  0  0  0  0  0  0  0  0  0  0  0
    5.3819    2.5412    0.2480 C   0  0  0  0  0  0  0  0  0  0  0  0
    6.1899    3.2866    0.2956 H   0  0  0  0  0  0  0  0  0  0  0  0
    5.7061    1.1971    0.0466 C   0  0  0  0  0  0  0  0  0  0  0  0
    6.7539    0.8787   -0.0646 H   0  0  0  0  0  0  0  0  0  0  0  0
    1.3444   -2.4887   -0.0093 C   0  0  0  0  0  0  0  0  0  0  0  0
    0.3382   -2.1552   -0.7321 O   0  5  0  0  0  0  0  0  0  0  0  0
    1.3834   -3.3254    0.9115 O   0  0  0  0  0  0  0  0  0  0  0  0
    4.2262   -3.2806   -0.5298 O   0  0  0  0  0  0  0  0  0  0  0  0
    5.8765   -1.4340   -0.3518 H   0  0  0  0  0  0  0  0  0  0  0  0
  1  6  1  0  0  0  0
  2 15  1  1  0  0  0
  2  1  1  0  0  0  0
  3  4  1  0  0  0  0
  3  2  1  0  0  0  0
  4  5  1  0  0  0  0
  5 13  2  0  0  0  0
  5  6  1  0  0  0  0
  6  7  2  0  0  0  0
  7  9  1  0  0  0  0
  7  8  1  0  0  0  0
  9 10  1  0  0  0  0
 11 12  1  0  0  0  0
 11  9  2  0  0  0  0
 13 11  1  0  0  0  0
 14 13  1  0  0  0  0
 15 17  2  0  0  0  0
 16 15  1  0  0  0  0
 18  3  2  0  0  0  0
 19  4  1  0  0  0  0
M  CHG  1  16  -1
M  END
