1,4
q = -1.0, confidence = 0.004

 29 29  0  0  1  0  0  0  0  0999 V2000
    1.0791    2.2033   -0.1569 O   0  5  0  0  0  0  0  0  0  0  0  0
   -0.0624    4.1186    0.2080 O   0  0  0  0  0  0  0  0  0  0  0  0
   -4.2949   -0.2771   -0.9010 O   0  0  0  0  0  0  0  0  0  0  0  0
   -0.9871    0.7393    0.4632 N   0  0  0  0  0  2  0  0  0  0  0  0
   -1.9986   -0.1027    0.8193 N   0  0  0  0  0  0  0  0  0  0  0  0
   -2.6158   -0.1013    2.1399 C   0  0  0  0  0  0  0  0  0  0  0  0
   -3.0555    0.8811    2.4092 H   0  0  0  0  0  0  0  0  0  0  0  0
   -1.8619   -0.3502    2.9282 H   0  0  0  0  0  0  0  0  0  0  0  0
   -3.6903   -1.1853    1.9996 C   0  0  0  0  0  0  0  0  0  0  0  0
   -4.6058   -0.7361    1.5699 H   0  0  0  0  0  0  0  0  0  0  0  0
   -3.9426   -1.6528    2.9712 H   0  0  0  0  0  0  0  0  0  0  0  0
   -3.0897   -2.1729    0.9844 C   0  0  0  0  0  0  0  0  0  0  0  0
   -3.8626   -2.7715    0.4658 H   0  0  0  0  0  0  0  0  0  0  0  0
   -2.4026   -2.8797    1.4928 H   0  0  0  0  0  0  0  0  0  0  0  0
   -2.3010   -1.2810    0.0046 C   0  0  1  0  0  0  0  0  0  0  0  0
   -1.3535   -1.7535   -0.3376 H   0  0  0  0  0  0  0  0  0  0  0  0
   -3.0699   -0.8911   -1.2600 C   0  0  0  0  0  0  0  0  0  0  0  0
   -2.4300   -0.2117   -1.8716 H   0  0  0  0  0  0  0  0  0  0  0  0
   -3.2503   -1.8135   -1.8693 H   0  0  0  0  0  0  0  0  0  0  0  0
   -5.0325    0.1570   -2.0203 C   0  0  0  0  0  0  0  0  0  0  0  0
   -4.4632    0.8954   -2.6342 H   0  0  0  0  0  0  0  0  0  0  0  0
   -5.9579    0.6392   -1.6492 H   0  0  0  0  0  0  0  0  0  0  0  0
   -5.3171   -0.6924   -2.6884 H   0  0  0  0  0  0  0  0  0  0  0  0
   -1.1935    2.0381    0.4875 C   0  0  1  0  0  3  0  0  0  0  0  0
    0.0096    2.8929    0.1648 C   0  0  0  0  0  0  0  0  0  0  0  0
   -2.5157    2.6732    0.7127 C   0  0  0  0  0  0  0  0  0  0  0  0
   -2.4943    3.6746    0.2430 H   0  0  0  0  0  0  0  0  0  0  0  0
   -2.7279    2.8332    1.7933 H   0  0  0  0  0  0  0  0  0  0  0  0
   -3.3204    2.0296    0.2997 H   0  0  0  0  0  0  0  0  0  0  0  0
  1 25  1  0  0  0  0
  4 24  1  0  0  0  0
  4  5  1  0  0  0  0
  5  6  1  0  0  0  0
  6  7  1  0  0  0  0
  6  8  1  0  0  0  0
  9  6  1  0  0  0  0
  9 11  1  0  0  0  0
 10  9  1  0  0  0  0
 12 14  1  0  0  0  0
 12  9  1  0  0  0  0
 13 12  1  0  0  0  0
 15 16  1  6  0  0  0
 15  5  1  0  0  0  0
 15 12  1  0  0  0  0
 17  3  1  0  0  0  0
 17 15  1  0  0  0  0
 18 17  1  0  0  0  0
 19 17  1  0  0  0  0
 20 22  1  0  0  0  0
 20  3  1  0  0  0  0
 21 20  1  0  0  0  0
 23 20  1  0  0  0  0
 24 25  1  6  0  0  0
 24 26  1  0  0  0  0
 25  2  2  0  0  0  0
 26 28  1  0  0  0  0
 27 26  1  0  0  0  0
 29 26  1  0  0  0  0
M  CHG  1   1  -1
M  END
