6,7
q = -1.0

 33 35  0  0  0  0  0  0  0  0999 V2000
    7.5732    1.2033    1.1909 F   0  0  0  0  0  0  0  0  0  0  0  0
    6.7769   -0.3563    2.4948 F   0  0  0  0  0  0  0  0  0  0  0  0
    8.4967   -0.7726    1.2200 F   0  0  0  0  0  0  0  0  0  0  0  0
    4.6457   -1.3793   -1.8760 O   0  0  0  0  0  0  0  0  0  0  0  0
    6.1976   -2.8112   -2.6432 O   0  0  0  0  0  0  0  0  0  0  0  0
   -1.5637    1.6774   -0.5464 O   0  5  0  0  0  0  0  0  0  0  0  0
    1.1238    1.5680   -0.4748 N   0  0  0  0  0  2  0  0  0  0  0  0
    2.4496    1.0522   -0.3132 C   0  0  0  0  0  0  0  0  0  0  0  0
    3.2444    1.5248    0.7577 C   0  0  0  0  0  0  0  0  0  0  0  0
    2.8164    2.2530    1.4601 H   0  0  0  0  0  0  0  0  0  0  0  0
    4.5281    1.0179    0.9390 C   0  0  0  0  0  0  0  0  0  0  0  0
    5.1355    1.3787    1.7788 H   0  0  0  0  0  0  0  0  0  0  0  0
    5.0510    0.0303    0.0672 C   0  0  0  0  0  0  0  0  0  0  0  0
    6.3703   -0.5630    0.1698 C   0  0  0  0  0  0  0  0  0  0  0  0
    6.7730   -1.5140   -0.7238 C   0  0  0  0  0  0  0  0  0  0  0  0
    7.7664   -1.9765   -0.6666 H   0  0  0  0  0  0  0  0  0  0  0  0
    5.9148   -1.9781   -1.8128 C   0  0  0  0  0  0  0  0  0  0  0  0
    4.2236   -0.4330   -0.9946 C   0  0  0  0  0  0  0  0  0  0  0  0
    2.9285    0.0688   -1.1869 C   0  0  0  0  0  0  0  0  0  0  0  0
    2.3029   -0.3116   -2.0074 H   0  0  0  0  0  0  0  0  0  0  0  0
    7.3162   -0.1252    1.2740 C   0  0  0  0  0  0  0  0  0  0  0  0
    1.0041    2.8626   -0.6982 C   0  0  0  0  0  3  0  0  0  0  0  0
    1.9468    3.4268   -0.8277 H   0  0  0  0  0  0  0  0  0  0  0  0
   -0.2142    3.6108   -0.8171 C   0  0  0  0  0  0  0  0  0  0  0  0
   -0.1553    5.0119   -1.0442 C   0  0  0  0  0  0  0  0  0  0  0  0
    0.8318    5.4966   -1.1089 H   0  0  0  0  0  0  0  0  0  0  0  0
   -1.3191    5.7641   -1.1765 C   0  0  0  0  0  0  0  0  0  0  0  0
   -1.2608    6.8490   -1.3451 H   0  0  0  0  0  0  0  0  0  0  0  0
   -2.5785    5.1246   -1.0933 C   0  0  0  0  0  0  0  0  0  0  0  0
   -3.4983    5.7205   -1.1980 H   0  0  0  0  0  0  0  0  0  0  0  0
   -2.6742    3.7496   -0.8807 C   0  0  0  0  0  0  0  0  0  0  0  0
   -3.6439    3.2358   -0.8173 H   0  0  0  0  0  0  0  0  0  0  0  0
   -1.4973    2.9740   -0.7377 C   0  0  0  0  0  0  0  0  0  0  0  0
  1 21  1  0  0  0  0
  3 21  1  0  0  0  0
  4 17  1  0  0  0  0
  4 18  1  0  0  0  0
  5 17  2  0  0  0  0
  7  8  1  0  0  0  0
  8  9  1  0  0  0  0
  9 11  2  0  0  0  0
  9 10  1  0  0  0  0
 11 12  1  0  0  0  0
 13 14  1  0  0  0  0
 13 11  1  0  0  0  0
 14 21  1  0  0  0  0
 15 16  1  0  0  0  0
 15 14  2  0  0  0  0
 17 15  1  0  0  0  0
 18 13  2  0  0  0  0
 19 18  1  0  0  0  0
 19  8  2  0  0  0  0
 20 19  1  0  0  0  0
 21  2  1  0  0  0  0
 22  7  1  0  0  0  0
 23 22  1  0  0  0  0
 24 33  1  0  0  0  0
 24 22  1  0  0  0  0
 25 24  2  0  0  0  0
 26 25  1  0  0  0  0
 27 29  2  0  0  0  0
 27 25  1  0  0  0  0
 28 27  1  0  0  0  0
 29 31  1  0  0  0  0
 30 29  1  0  0  0  0
 31 32  1  0  0  0  0
 31 33  2  0  0  0  0
 33  6  1  0  0  0  0
M  CHG  1   6  -1
M  END
