1,2
q = -1.0, confidence = 0.0

 27 26  0  0  1  0  0  0  0  0999 V2000
   -1.3524   -1.4134   -0.4587 O   0  0  0  0  0  1  0  0  0  0  0  0
    1.4428   -1.4060    0.4322 N   0  0  0  0  0  2  0  0  0  0  0  0
   -1.1551   -2.6902   -0.4306 C   0  0  1  0  0  3  0  0  0  0  0  0
    0.0366   -3.3309   -0.0962 C   0  0  0  0  0  0  0  0  0  0  0  0
    0.0342   -4.4275   -0.1390 H   0  0  0  0  0  0  0  0  0  0  0  0
    1.2620   -2.7151    0.3005 C   0  0  0  0  0  0  0  0  0  0  0  0
   -2.3779   -3.4978   -0.8077 C   0  0  0  0  0  0  0  0  0  0  0  0
   -2.7289   -3.1985   -1.8167 H   0  0  0  0  0  0  0  0  0  0  0  0
   -2.1836   -4.5858   -0.7997 H   0  0  0  0  0  0  0  0  0  0  0  0
   -3.2043   -3.2731   -0.1015 H   0  0  0  0  0  0  0  0  0  0  0  0
    2.4014   -3.6768    0.5962 C   0  0  0  0  0  0  0  0  0  0  0  0
    3.3095   -3.4315    0.0107 H   0  0  0  0  0  0  0  0  0  0  0  0
    2.6857   -3.6460    1.6687 H   0  0  0  0  0  0  0  0  0  0  0  0
    2.1056   -4.7129    0.3548 H   0  0  0  0  0  0  0  0  0  0  0  0
    2.7546   -0.8991    0.8343 C   0  0  0  0  0  0  0  0  0  0  0  0
    2.5957   -0.0042    1.4630 H   0  0  0  0  0  0  0  0  0  0  0  0
    3.2864   -1.6445    1.4602 H   0  0  0  0  0  0  0  0  0  0  0  0
    3.6276   -0.4938   -0.3595 C   0  0  0  0  0  0  0  0  0  0  0  0
    3.0377    0.2050   -0.9885 H   0  0  0  0  0  0  0  0  0  0  0  0
    3.8425   -1.3833   -0.9936 H   0  0  0  0  0  0  0  0  0  0  0  0
    4.9364    0.1745    0.0670 C   0  0  0  0  0  0  0  0  0  0  0  0
    5.5199   -0.5218    0.7106 H   0  0  0  0  0  0  0  0  0  0  0  0
    4.6950    1.0486    0.7120 H   0  0  0  0  0  0  0  0  0  0  0  0
    5.7954    0.6290   -1.1133 C   0  0  0  0  0  0  0  0  0  0  0  0
    6.7357    1.1120   -0.7783 H   0  0  0  0  0  0  0  0  0  0  0  0
    6.0719   -0.2262   -1.7649 H   0  0  0  0  0  0  0  0  0  0  0  0
    5.2495    1.3592   -1.7468 H   0  0  0  0  0  0  0  0  0  0  0  0
  2 15  1  0  0  0  0
  3  1  1  1  0  0  0
  3  4  1  0  0  0  0
  4  6  2  0  0  0  0
  5  4  1  0  0  0  0
  6  2  1  0  0  0  0
  6 11  1  0  0  0  0
  7  9  1  0  0  0  0
  7  3  1  0  0  0  0
  7 10  1  0  0  0  0
  8  7  1  0  0  0  0
 11 13  1  0  0  0  0
 12 11  1  0  0  0  0
 14 11  1  0  0  0  0
 15 17  1  0  0  0  0
 15 16  1  0  0  0  0
 18 21  1  0  0  0  0
 18 15  1  0  0  0  0
 19 18  1  0  0  0  0
 20 18  1  0  0  0  0
 21 22  1  0  0  0  0
 21 23  1  0  0  0  0
 24 25  1  0  0  0  0
 24 21  1  0  0  0  0
 26 24  1  0  0  0  0
 27 24  1  0  0  0  0
M  END
