1,2
q = -1.0

 22 21  0  0  0  0  0  0  0  0999 V2000
    0.3226   -1.3128   -1.1834 O   0  0  0  0  0  1  0  0  0  0  0  0
    1.5741   -1.5012    1.0806 N   0  0  0  0  0  0  0  0  0  0  0  0
    1.5791   -1.9244   -1.4162 C   0  0  0  0  0  0  0  0  0  0  0  0
    2.4217   -1.7829   -0.1047 C   0  0  0  0  0  0  0  0  0  0  0  0
    3.0540   -2.6844    0.0760 H   0  0  0  0  0  0  0  0  0  0  0  0
    3.0949   -0.9123   -0.2102 H   0  0  0  0  0  0  0  0  0  0  0  0
    2.2995   -1.1969   -2.5611 C   0  0  0  0  0  0  0  0  0  0  0  0
    1.7353   -1.3215   -3.5062 H   0  0  0  0  0  0  0  0  0  0  0  0
    3.3269   -1.5885   -2.7106 H   0  0  0  0  0  0  0  0  0  0  0  0
    2.3591   -0.1157   -2.3273 H   0  0  0  0  0  0  0  0  0  0  0  0
    1.3405   -3.3930   -1.8074 C   0  0  0  0  0  0  0  0  0  0  0  0
    0.8413   -3.9594   -0.9975 H   0  0  0  0  0  0  0  0  0  0  0  0
    2.2952   -3.9040   -2.0460 H   0  0  0  0  0  0  0  0  0  0  0  0
    0.6907   -3.4337   -2.7037 H   0  0  0  0  0  0  0  0  0  0  0  0
    0.8844   -2.7074    1.5685 C   0  0  0  0  0  0  0  0  0  0  0  0
    1.6122   -3.4952    1.8729 H   0  0  0  0  0  0  0  0  0  0  0  0
    0.2313   -3.1112    0.7751 H   0  0  0  0  0  0  0  0  0  0  0  0
    0.2580   -2.4331    2.4383 H   0  0  0  0  0  0  0  0  0  0  0  0
    2.4044   -0.9448    2.1663 C   0  0  0  0  0  0  0  0  0  0  0  0
    1.7536   -0.6884    3.0224 H   0  0  0  0  0  0  0  0  0  0  0  0
    2.8878   -0.0168    1.8115 H   0  0  0  0  0  0  0  0  0  0  0  0
    3.1812   -1.6758    2.4899 H   0  0  0  0  0  0  0  0  0  0  0  0
  2 15  1  0  0  0  0
  2 19  1  0  0  0  0
  3  1  1  0  0  0  0
  3  4  1  0  0  0  0
  4  5  1  0  0  0  0
  4  2  1  0  0  0  0
  6  4  1  0  0  0  0
  7 10  1  0  0  0  0
  7  3  1  0  0  0  0
  8  7  1  0  0  0  0
  9  7  1  0  0  0  0
 11  3  1  0  0  0  0
 11 12  1  0  0  0  0
 13 11  1  0  0  0  0
 14 11  1  0  0  0  0
 15 16  1  0  0  0  0
 15 18  1  0  0  0  0
 17 15  1  0  0  0  0
 19 22  1  0  0  0  0
 19 20  1  0  0  0  0
 21 19  1  0  0  0  0
M  END
