2,3
q = -1.0, confidence = 0.114

 54 56  0  0  1  0  0  0  0  0999 V2000
    4.5528    2.5630   -1.9237 S   0  0  0  0  0  0  0  0  0  0  0  0
    0.7307   -0.0409   -1.5714 N   0  0  0  0  0  0  0  0  0  0  0  0
    1.7639   -2.4288   -1.0012 O   0  5  0  0  0  0  0  0  0  0  0  0
    2.3720   -2.8058   -3.1515 O   0  0  0  0  0  0  0  0  0  0  0  0
   -2.9411   -0.0931   -1.8123 O   0  0  0  0  0  0  0  0  0  0  0  0
   -3.8708    2.0251   -1.5364 O   0  0  0  0  0  0  0  0  0  0  0  0
   -3.6082    1.7970    0.7155 O   0  0  0  0  0  0  0  0  0  0  0  0
   -3.9270   -1.7971    0.4733 O   0  0  0  0  0  0  0  0  0  0  0  0
   -1.6575   -2.0771    0.2466 O   0  0  0  0  0  0  0  0  0  0  0  0
    1.9820   -2.0811   -2.2435 C   0  0  0  0  0  0  0  0  0  0  0  0
    1.7655   -0.5567   -2.5204 C   0  0  2  0  0  0  0  0  0  0  0  0
    3.0991    0.1808   -2.3233 C   0  0  0  0  0  0  0  0  0  0  0  0
    3.0392    1.7016   -2.4856 C   0  0  0  0  0  0  0  0  0  0  0  0
    4.3261    2.4183   -0.1222 C   0  0  0  0  0  0  0  0  0  0  0  0
   -0.6248   -0.5076   -1.9438 C   0  0  0  0  0  0  0  0  0  0  0  0
   -1.7371    0.0339   -1.0484 C   0  0  2  0  0  0  0  0  0  0  0  0
   -1.8817   -0.6750    0.3150 C   0  0  1  0  0  0  0  0  0  0  0  0
   -3.3212   -0.5771    0.8662 C   0  0  1  0  0  0  0  0  0  0  0  0
   -4.1378    0.5594    0.2650 C   0  0  2  0  0  0  0  0  0  0  0  0
   -4.0187    0.6367   -1.2834 C   0  0  2  0  0  0  0  0  0  0  0  0
   -3.9079    2.7576   -0.2977 C   0  0  0  0  0  0  0  0  0  0  0  0
   -5.3066    3.3493   -0.0950 C   0  0  0  0  0  0  0  0  0  0  0  0
   -2.8166    3.8166   -0.3014 C   0  0  0  0  0  0  0  0  0  0  0  0
   -2.9109   -2.7843    0.2525 C   0  0  0  0  0  0  0  0  0  0  0  0
   -3.1608   -3.4342   -1.1035 C   0  0  0  0  0  0  0  0  0  0  0  0
   -2.8815   -3.7793    1.4114 C   0  0  0  0  0  0  0  0  0  0  0  0
    0.7413    0.9897   -1.5812 H   0  0  0  0  0  0  0  0  0  0  0  0
    1.4043   -0.4320   -3.5654 H   0  0  0  0  0  0  0  0  0  0  0  0
    3.8252   -0.2477   -3.0419 H   0  0  0  0  0  0  0  0  0  0  0  0
    3.4696   -0.0676   -1.3049 H   0  0  0  0  0  0  0  0  0  0  0  0
    2.9041    1.9889   -3.5489 H   0  0  0  0  0  0  0  0  0  0  0  0
    2.1938    2.1551   -1.9203 H   0  0  0  0  0  0  0  0  0  0  0  0
    5.2077    2.8958    0.3468 H   0  0  0  0  0  0  0  0  0  0  0  0
    3.4077    2.9384    0.2185 H   0  0  0  0  0  0  0  0  0  0  0  0
    4.2768    1.3606    0.2077 H   0  0  0  0  0  0  0  0  0  0  0  0
   -0.6255   -1.6141   -1.9155 H   0  0  0  0  0  0  0  0  0  0  0  0
   -0.8538   -0.1817   -2.9817 H   0  0  0  0  0  0  0  0  0  0  0  0
   -1.5552    1.1146   -0.8448 H   0  0  0  0  0  0  0  0  0  0  0  0
   -1.1359   -0.2439    1.0129 H   0  0  0  0  0  0  0  0  0  0  0  0
   -3.3043   -0.4643    1.9759 H   0  0  0  0  0  0  0  0  0  0  0  0
   -5.2053    0.4313    0.5596 H   0  0  0  0  0  0  0  0  0  0  0  0
   -4.9099    0.2397   -1.8097 H   0  0  0  0  0  0  0  0  0  0  0  0
   -6.0717    2.5491   -0.0664 H   0  0  0  0  0  0  0  0  0  0  0  0
   -5.3532    3.9150    0.8558 H   0  0  0  0  0  0  0  0  0  0  0  0
   -5.5561    4.0298   -0.9315 H   0  0  0  0  0  0  0  0  0  0  0  0
   -1.8343    3.3438   -0.4883 H   0  0  0  0  0  0  0  0  0  0  0  0
   -3.0112    4.5638   -1.0935 H   0  0  0  0  0  0  0  0  0  0  0  0
   -2.7821    4.3307    0.6779 H   0  0  0  0  0  0  0  0  0  0  0  0
   -3.1730   -2.6487   -1.8821 H   0  0  0  0  0  0  0  0  0  0  0  0
   -2.3624   -4.1670   -1.3290 H   0  0  0  0  0  0  0  0  0  0  0  0
   -4.1375   -3.9561   -1.1051 H   0  0  0  0  0  0  0  0  0  0  0  0
   -2.7261   -3.2408    2.3667 H   0  0  0  0  0  0  0  0  0  0  0  0
   -3.8366   -4.3362    1.4668 H   0  0  0  0  0  0  0  0  0  0  0  0
   -2.0547   -4.5031    1.2736 H   0  0  0  0  0  0  0  0  0  0  0  0
  1 14  1  0  0  0  0
  4 10  2  0  0  0  0
  5 20  1  0  0  0  0
  5 16  1  0  0  0  0
  6 20  1  0  0  0  0
  6 21  1  0  0  0  0
  8 18  1  0  0  0  0
  9 24  1  0  0  0  0
  9 17  1  0  0  0  0
 10  3  1  0  0  0  0
 11 28  1  6  0  0  0
 11 12  1  0  0  0  0
 11 10  1  0  0  0  0
 11  2  1  0  0  0  0
 12 30  1  0  0  0  0
 13 12  1  0  0  0  0
 13  1  1  0  0  0  0
 13 32  1  0  0  0  0
 14 35  1  0  0  0  0
 14 34  1  0  0  0  0
 14 33  1  0  0  0  0
 15 36  1  0  0  0  0
 15  2  1  0  0  0  0
 15 16  1  0  0  0  0
 16 38  1  1  0  0  0
 16 17  1  0  0  0  0
 17 18  1  0  0  0  0
 17 39  1  1  0  0  0
 18 40  1  1  0  0  0
 19 41  1  1  0  0  0
 19  7  1  0  0  0  0
 19 18  1  0  0  0  0
 20 42  1  6  0  0  0
 20 19  1  0  0  0  0
 21 22  1  0  0  0  0
 21  7  1  0  0  0  0
 22 43  1  0  0  0  0
 22 44  1  0  0  0  0
 23 21  1  0  0  0  0
 23 48  1  0  0  0  0
 24  8  1  0  0  0  0
 24 26  1  0  0  0  0
 25 24  1  0  0  0  0
 26 53  1  0  0  0  0
 26 52  1  0  0  0  0
 27  2  1  0  0  0  0
 29 12  1  0  0  0  0
 31 13  1  0  0  0  0
 37 15  1  0  0  0  0
 45 22  1  0  0  0  0
 46 23  1  0  0  0  0
 47 23  1  0  0  0  0
 49 25  1  0  0  0  0
 50 25  1  0  0  0  0
 51 25  1  0  0  0  0
 54 26  1  0  0  0  0
M  CHG  1   3  -1
M  END
