1,2
q = -1.0, confidence = 0.01

 43 44  0  0  0  0  0  0  0  0999 V2000
    2.4315   -0.9728   -0.0001 O   0  5  0  0  0  0  0  0  0  0  0  0
    0.2043    0.9026    0.0000 N   0  0  0  0  0  2  0  0  0  0  0  0
    3.1578    0.1099   -0.0001 C   0  0  0  0  0  0  0  0  0  0  0  0
    4.5788   -0.0470   -0.0000 C   0  0  0  0  0  0  0  0  0  0  0  0
    4.9679   -1.0749    0.0000 H   0  0  0  0  0  0  0  0  0  0  0  0
    5.4215    1.0562   -0.0001 C   0  0  0  0  0  0  0  0  0  0  0  0
    6.5116    0.8996   -0.0001 H   0  0  0  0  0  0  0  0  0  0  0  0
    4.9035    2.3775   -0.0002 C   0  0  0  0  0  0  0  0  0  0  0  0
    5.5824    3.2420   -0.0003 H   0  0  0  0  0  0  0  0  0  0  0  0
    3.5294    2.5582   -0.0002 C   0  0  0  0  0  3  0  0  0  0  0  0
    3.1022    3.5739   -0.0002 H   0  0  0  0  0  0  0  0  0  0  0  0
    2.6290    1.4494   -0.0001 C   0  0  0  0  0  0  0  0  0  0  0  0
    1.2306    1.7330    0.0000 C   0  0  0  0  0  0  0  0  0  0  0  0
    0.9629    2.8064    0.0002 H   0  0  0  0  0  0  0  0  0  0  0  0
   -1.0851    1.5497    0.0004 C   0  0  0  0  0  0  0  0  0  0  0  0
   -1.6887    1.8623    1.2399 C   0  0  0  0  0  0  0  0  0  0  0  0
   -2.8951    2.5838    1.2142 C   0  0  0  0  0  0  0  0  0  0  0  0
   -3.3853    2.8503    2.1628 H   0  0  0  0  0  0  0  0  0  0  0  0
   -3.4874    2.9555    0.0012 C   0  0  0  0  0  0  0  0  0  0  0  0
   -4.4301    3.5235    0.0015 H   0  0  0  0  0  0  0  0  0  0  0  0
   -2.8955    2.5846   -1.2123 C   0  0  0  0  0  0  0  0  0  0  0  0
   -3.3859    2.8518   -2.1605 H   0  0  0  0  0  0  0  0  0  0  0  0
   -1.6890    1.8632   -1.2388 C   0  0  0  0  0  0  0  0  0  0  0  0
   -1.0722    1.4054    2.5554 C   0  0  0  0  0  0  0  0  0  0  0  0
   -0.3054    0.6411    2.3074 H   0  0  0  0  0  0  0  0  0  0  0  0
   -2.1144    0.7243    3.4570 C   0  0  0  0  0  0  0  0  0  0  0  0
   -1.6237    0.2421    4.3269 H   0  0  0  0  0  0  0  0  0  0  0  0
   -2.6760   -0.0440    2.8892 H   0  0  0  0  0  0  0  0  0  0  0  0
   -2.8543    1.4483    3.8563 H   0  0  0  0  0  0  0  0  0  0  0  0
   -0.3573    2.5588    3.2786 C   0  0  0  0  0  0  0  0  0  0  0  0
    0.1025    2.2083    4.2254 H   0  0  0  0  0  0  0  0  0  0  0  0
   -1.0688    3.3744    3.5251 H   0  0  0  0  0  0  0  0  0  0  0  0
    0.4471    2.9939    2.6519 H   0  0  0  0  0  0  0  0  0  0  0  0
   -1.0731    1.4070   -2.5548 C   0  0  0  0  0  0  0  0  0  0  0  0
   -0.3062    0.6426   -2.3075 H   0  0  0  0  0  0  0  0  0  0  0  0
   -2.1156    0.7265   -3.4563 C   0  0  0  0  0  0  0  0  0  0  0  0
   -1.6253    0.2448   -4.3267 H   0  0  0  0  0  0  0  0  0  0  0  0
   -2.8557    1.4508   -3.8549 H   0  0  0  0  0  0  0  0  0  0  0  0
   -2.6770   -0.0421   -2.8888 H   0  0  0  0  0  0  0  0  0  0  0  0
   -0.3584    2.5607   -3.2777 C   0  0  0  0  0  0  0  0  0  0  0  0
    0.1009    2.2108   -4.2249 H   0  0  0  0  0  0  0  0  0  0  0  0
    0.4463    2.9955   -2.6511 H   0  0  0  0  0  0  0  0  0  0  0  0
   -1.0700    3.3765   -3.5234 H   0  0  0  0  0  0  0  0  0  0  0  0
  2 15  1  0  0  0  0
  3  1  1  0  0  0  0
  3  4  2  0  0  0  0
  4  5  1  0  0  0  0
  6  7  1  0  0  0  0
  6  4  1  0  0  0  0
  8 10  1  0  0  0  0
  8  6  2  0  0  0  0
  9  8  1  0  0  0  0
 10 12  1  0  0  0  0
 11 10  1  0  0  0  0
 12  3  1  0  0  0  0
 12 13  2  0  0  0  0
 13  2  1  0  0  0  0
 13 14  1  0  0  0  0
 15 16  1  0  0  0  0
 16 24  1  0  0  0  0
 17 16  2  0  0  0  0
 17 18  1  0  0  0  0
 19 20  1  0  0  0  0
 19 17  1  0  0  0  0
 21 19  2  0  0  0  0
 22 21  1  0  0  0  0
 23 21  1  0  0  0  0
 23 15  2  0  0  0  0
 24 30  1  0  0  0  0
 24 26  1  0  0  0  0
 25 24  1  0  0  0  0
 26 29  1  0  0  0  0
 26 27  1  0  0  0  0
 28 26  1  0  0  0  0
 30 32  1  0  0  0  0
 30 31  1  0  0  0  0
 33 30  1  0  0  0  0
 34 35  1  0  0  0  0
 34 23  1  0  0  0  0
 36 39  1  0  0  0  0
 36 34  1  0  0  0  0
 37 36  1  0  0  0  0
 38 36  1  0  0  0  0
 40 42  1  0  0  0  0
 40 34  1  0  0  0  0
 41 40  1  0  0  0  0
 43 40  1  0  0  0  0
M  CHG  1   1  -1
M  END
