1,2
q = -1.0, confidence = 0.012

 43 44  0  0  1  0  0  0  0  0999 V2000
    2.1933    0.8762   -0.0161 O   0  0  0  0  0  1  0  0  0  0  0  0
   -0.7549    0.7714   -0.0081 N   0  0  0  0  0  2  0  0  0  0  0  0
    1.9825    2.1671   -0.0120 C   0  0  1  0  0  3  0  0  0  0  0  0
    3.1295    3.0192   -0.0091 C   0  0  0  0  0  0  0  0  0  0  0  0
    4.1168    2.5352   -0.0048 H   0  0  0  0  0  0  0  0  0  0  0  0
    3.0040    4.4020   -0.0082 C   0  0  0  0  0  0  0  0  0  0  0  0
    3.9122    5.0248   -0.0046 H   0  0  0  0  0  0  0  0  0  0  0  0
    1.7281    5.0198   -0.0091 C   0  0  0  0  0  0  0  0  0  0  0  0
    1.6380    6.1152   -0.0073 H   0  0  0  0  0  0  0  0  0  0  0  0
    0.5977    4.2174   -0.0099 C   0  0  0  0  0  0  0  0  0  0  0  0
   -0.4048    4.6743   -0.0086 H   0  0  0  0  0  0  0  0  0  0  0  0
    0.6825    2.7918   -0.0110 C   0  0  0  0  0  0  0  0  0  0  0  0
   -0.5541    2.0706   -0.0085 C   0  0  0  0  0  0  0  0  0  0  0  0
   -1.4700    2.6927   -0.0056 H   0  0  0  0  0  0  0  0  0  0  0  0
   -2.1313    0.3360   -0.0004 C   0  0  0  0  0  0  0  0  0  0  0  0
   -2.7661    0.1180    1.2446 C   0  0  0  0  0  0  0  0  0  0  0  0
   -4.1283   -0.2324    1.2274 C   0  0  0  0  0  0  0  0  0  0  0  0
   -4.6526   -0.3979    2.1810 H   0  0  0  0  0  0  0  0  0  0  0  0
   -4.8208   -0.3856    0.0196 C   0  0  0  0  0  0  0  0  0  0  0  0
   -5.8874   -0.6573    0.0279 H   0  0  0  0  0  0  0  0  0  0  0  0
   -4.1516   -0.2150   -1.1985 C   0  0  0  0  0  0  0  0  0  0  0  0
   -4.6940   -0.3670   -2.1444 H   0  0  0  0  0  0  0  0  0  0  0  0
   -2.7898    0.1372   -1.2357 C   0  0  0  0  0  0  0  0  0  0  0  0
   -2.0030    0.2343    2.5575 C   0  0  0  0  0  0  0  0  0  0  0  0
   -0.9265    0.3274    2.3059 H   0  0  0  0  0  0  0  0  0  0  0  0
   -2.4128    1.4978    3.3324 C   0  0  0  0  0  0  0  0  0  0  0  0
   -1.8310    1.5902    4.2724 H   0  0  0  0  0  0  0  0  0  0  0  0
   -3.4897    1.4715    3.6008 H   0  0  0  0  0  0  0  0  0  0  0  0
   -2.2417    2.4159    2.7336 H   0  0  0  0  0  0  0  0  0  0  0  0
   -2.1463   -1.0382    3.4070 C   0  0  0  0  0  0  0  0  0  0  0  0
   -1.5084   -0.9713    4.3118 H   0  0  0  0  0  0  0  0  0  0  0  0
   -1.8327   -1.9264    2.8241 H   0  0  0  0  0  0  0  0  0  0  0  0
   -3.1912   -1.1937    3.7473 H   0  0  0  0  0  0  0  0  0  0  0  0
   -2.0525    0.2583   -2.5629 C   0  0  0  0  0  0  0  0  0  0  0  0
   -0.9830    0.4391   -2.3315 H   0  0  0  0  0  0  0  0  0  0  0  0
   -2.1176   -1.0608   -3.3508 C   0  0  0  0  0  0  0  0  0  0  0  0
   -1.5066   -0.9922   -4.2745 H   0  0  0  0  0  0  0  0  0  0  0  0
   -3.1562   -1.3057   -3.6555 H   0  0  0  0  0  0  0  0  0  0  0  0
   -1.7333   -1.8959   -2.7320 H   0  0  0  0  0  0  0  0  0  0  0  0
   -2.5601    1.4524   -3.3873 C   0  0  0  0  0  0  0  0  0  0  0  0
   -1.9934    1.5467   -4.3364 H   0  0  0  0  0  0  0  0  0  0  0  0
   -2.4538    2.4050   -2.8292 H   0  0  0  0  0  0  0  0  0  0  0  0
   -3.6333    1.3365   -3.6461 H   0  0  0  0  0  0  0  0  0  0  0  0
  2 15  1  0  0  0  0
  3  1  1  6  0  0  0
  3 12  1  0  0  0  0
  3  4  1  0  0  0  0
  4  6  2  0  0  0  0
  4  5  1  0  0  0  0
  6  7  1  0  0  0  0
  8  6  1  0  0  0  0
  8  9  1  0  0  0  0
 10  8  2  0  0  0  0
 10 11  1  0  0  0  0
 12 10  1  0  0  0  0
 12 13  2  0  0  0  0
 13  2  1  0  0  0  0
 13 14  1  0  0  0  0
 15 16  1  0  0  0  0
 16 24  1  0  0  0  0
 17 16  2  0  0  0  0
 17 18  1  0  0  0  0
 19 20  1  0  0  0  0
 19 17  1  0  0  0  0
 21 19  2  0  0  0  0
 22 21  1  0  0  0  0
 23 21  1  0  0  0  0
 23 15  2  0  0  0  0
 24 26  1  0  0  0  0
 24 30  1  0  0  0  0
 25 24  1  0  0  0  0
 26 28  1  0  0  0  0
 26 27  1  0  0  0  0
 29 26  1  0  0  0  0
 30 33  1  0  0  0  0
 30 31  1  0  0  0  0
 32 30  1  0  0  0  0
 34 35  1  0  0  0  0
 34 23  1  0  0  0  0
 36 39  1  0  0  0  0
 36 34  1  0  0  0  0
 37 36  1  0  0  0  0
 38 36  1  0  0  0  0
 40 42  1  0  0  0  0
 40 34  1  0  0  0  0
 41 40  1  0  0  0  0
 43 40  1  0  0  0  0
M  END
