1,4
q = -1.0, confidence = 0.0

 19 20  0  0  0  0  0  0  0  0999 V2000
   -0.1935    1.4406    0.0011 O   0  5  0  0  0  0  0  0  0  0  0  0
   -3.8402   -0.9443   -0.0002 O   0  0  0  0  0  0  0  0  0  0  0  0
   -4.4804   -3.1369   -0.0005 O   0  0  0  0  0  0  0  0  0  0  0  0
   -1.5964   -1.1104    0.0005 N   0  0  0  0  0  2  0  0  0  0  0  0
   -1.4116    1.9127    0.0005 C   0  0  0  0  0  0  0  0  0  0  0  0
   -1.5480    3.3388    0.0004 C   0  0  0  0  0  0  0  0  0  0  0  0
   -0.6163    3.9230    0.0008 H   0  0  0  0  0  0  0  0  0  0  0  0
   -2.7898    3.9580   -0.0002 C   0  0  0  0  0  0  0  0  0  0  0  0
   -2.8429    5.0582   -0.0003 H   0  0  0  0  0  0  0  0  0  0  0  0
   -3.9835    3.1956   -0.0006 C   0  0  0  0  0  0  0  0  0  0  0  0
   -4.9645    3.6913   -0.0011 H   0  0  0  0  0  0  0  0  0  0  0  0
   -3.8961    1.8113   -0.0005 C   0  0  0  0  0  3  0  0  0  0  0  0
   -4.8063    1.1958   -0.0009 H   0  0  0  0  0  0  0  0  0  0  0  0
   -2.6365    1.1428    0.0000 C   0  0  0  0  0  0  0  0  0  0  0  0
   -2.6245   -0.2944    0.0001 C   0  0  0  0  0  0  0  0  0  0  0  0
   -3.5945   -2.3306   -0.0002 C   0  0  0  0  0  0  0  0  0  0  0  0
   -2.0840   -2.4755    0.0005 C   0  0  0  0  0  0  0  0  0  0  0  0
   -1.7312   -3.0466    0.8855 H   0  0  0  0  0  0  0  0  0  0  0  0
   -1.7301   -3.0470   -0.8839 H   0  0  0  0  0  0  0  0  0  0  0  0
  2 15  1  0  0  0  0
  3 16  2  0  0  0  0
  4 17  1  0  0  0  0
  5  1  1  0  0  0  0
  6  5  2  0  0  0  0
  6  7  1  0  0  0  0
  8  6  1  0  0  0  0
  9  8  1  0  0  0  0
 10 12  1  0  0  0  0
 10  8  2  0  0  0  0
 11 10  1  0  0  0  0
 12 14  1  0  0  0  0
 13 12  1  0  0  0  0
 14 15  2  0  0  0  0
 14  5  1  0  0  0  0
 15  4  1  0  0  0  0
 16  2  1  0  0  0  0
 16 17  1  0  0  0  0
 17 18  1  0  0  0  0
 19 17  1  0  0  0  0
M  CHG  1   1  -1
M  END
