1,6
q = -1.0

 43 43  0  0  1  0  0  0  0  0999 V2000
    0.6562    0.8562   -0.1300 N   0  0  0  0  0  2  0  0  0  0  0  0
    0.9401    2.1634   -0.2133 C   0  0  1  0  0  3  0  0  0  0  0  0
   -0.0229    3.2006   -0.3321 C   0  0  0  0  0  0  0  0  0  0  0  0
    0.3793    4.2188   -0.4188 H   0  0  0  0  0  0  0  0  0  0  0  0
   -1.4180    3.0774   -0.3240 C   0  0  0  0  0  0  0  0  0  0  0  0
   -2.0712    1.9741   -0.2053 O   0  5  0  0  0  0  0  0  0  0  0  0
    2.3790    2.6385   -0.1215 C   0  0  0  0  0  0  0  0  0  0  0  0
    2.6049    2.9155    0.9297 H   0  0  0  0  0  0  0  0  0  0  0  0
    2.5295    3.5461   -0.7358 H   0  0  0  0  0  0  0  0  0  0  0  0
    3.1093    1.8667   -0.4213 H   0  0  0  0  0  0  0  0  0  0  0  0
   -2.2856    4.3098   -0.4577 C   0  0  0  0  0  0  0  0  0  0  0  0
   -2.9375    4.2081   -1.3496 H   0  0  0  0  0  0  0  0  0  0  0  0
   -1.6957    5.2406   -0.5456 H   0  0  0  0  0  0  0  0  0  0  0  0
   -2.9592    4.3866    0.4204 H   0  0  0  0  0  0  0  0  0  0  0  0
    1.7421   -0.0679   -0.0244 C   0  0  0  0  0  0  0  0  0  0  0  0
    2.2207   -0.7083   -1.2047 C   0  0  0  0  0  0  0  0  0  0  0  0
    3.2438   -1.6660   -1.0759 C   0  0  0  0  0  0  0  0  0  0  0  0
    3.6257   -2.1708   -1.9754 H   0  0  0  0  0  0  0  0  0  0  0  0
    3.7836   -1.9898    0.1756 C   0  0  0  0  0  0  0  0  0  0  0  0
    4.5795   -2.7458    0.2544 H   0  0  0  0  0  0  0  0  0  0  0  0
    3.3108   -1.3441    1.3236 C   0  0  0  0  0  0  0  0  0  0  0  0
    3.7452   -1.5943    2.3041 H   0  0  0  0  0  0  0  0  0  0  0  0
    2.2944   -0.3723    1.2509 C   0  0  0  0  0  0  0  0  0  0  0  0
    1.6619   -0.3377   -2.5781 C   0  0  0  0  0  0  0  0  0  0  0  0
    0.6267    0.0302   -2.4084 H   0  0  0  0  0  0  0  0  0  0  0  0
    1.8417    0.3451    2.5214 C   0  0  0  0  0  0  0  0  0  0  0  0
    1.1091    1.1206    2.2206 H   0  0  0  0  0  0  0  0  0  0  0  0
    1.5885   -1.5264   -3.5479 C   0  0  0  0  0  0  0  0  0  0  0  0
    1.0392   -1.2362   -4.4663 H   0  0  0  0  0  0  0  0  0  0  0  0
    1.0680   -2.3969   -3.1001 H   0  0  0  0  0  0  0  0  0  0  0  0
    2.5960   -1.8647   -3.8675 H   0  0  0  0  0  0  0  0  0  0  0  0
    2.4553    0.8162   -3.2199 C   0  0  0  0  0  0  0  0  0  0  0  0
    3.5205    0.5343   -3.3551 H   0  0  0  0  0  0  0  0  0  0  0  0
    2.4230    1.7348   -2.6056 H   0  0  0  0  0  0  0  0  0  0  0  0
    2.0391    1.0659   -4.2176 H   0  0  0  0  0  0  0  0  0  0  0  0
    1.1229   -0.5932    3.5068 C   0  0  0  0  0  0  0  0  0  0  0  0
    0.1914   -0.9999    3.0708 H   0  0  0  0  0  0  0  0  0  0  0  0
    0.8514   -0.0466    4.4332 H   0  0  0  0  0  0  0  0  0  0  0  0
    1.7696   -1.4470    3.7977 H   0  0  0  0  0  0  0  0  0  0  0  0
    3.0227    1.0473    3.2166 C   0  0  0  0  0  0  0  0  0  0  0  0
    3.7473    0.3127    3.6253 H   0  0  0  0  0  0  0  0  0  0  0  0
    2.6646    1.6652    4.0655 H   0  0  0  0  0  0  0  0  0  0  0  0
    3.5787    1.7061    2.5206 H   0  0  0  0  0  0  0  0  0  0  0  0
  1 15  1  0  0  0  0
  2  3  1  1  0  0  0
  2  1  1  0  0  0  0
  2  7  1  0  0  0  0
  3  5  2  0  0  0  0
  4  3  1  0  0  0  0
  5  6  1  0  0  0  0
  7  8  1  0  0  0  0
  9  7  1  0  0  0  0
 10  7  1  0  0  0  0
 11  5  1  0  0  0  0
 11 14  1  0  0  0  0
 12 11  1  0  0  0  0
 13 11  1  0  0  0  0
 15 23  1  0  0  0  0
 16 17  1  0  0  0  0
 16 15  2  0  0  0  0
 17 19  2  0  0  0  0
 18 17  1  0  0  0  0
 19 20  1  0  0  0  0
 19 21  1  0  0  0  0
 21 22  1  0  0  0  0
 23 21  2  0  0  0  0
 23 26  1  0  0  0  0
 24 25  1  0  0  0  0
 24 16  1  0  0  0  0
 26 40  1  0  0  0  0
 26 36  1  0  0  0  0
 27 26  1  0  0  0  0
 28 30  1  0  0  0  0
 28 24  1  0  0  0  0
 29 28  1  0  0  0  0
 31 28  1  0  0  0  0
 32 34  1  0  0  0  0
 32 24  1  0  0  0  0
 33 32  1  0  0  0  0
 35 32  1  0  0  0  0
 36 39  1  0  0  0  0
 36 38  1  0  0  0  0
 37 36  1  0  0  0  0
 40 41  1  0  0  0  0
 40 42  1  0  0  0  0
 43 40  1  0  0  0  0
M  CHG  1   6  -1
M  END
