1,2
q = -1.0

 34 35  0  0  0  0  0  0  0  0999 V2000
    1.5740    0.9893   -0.9640 O   0  5  0  0  0  0  0  0  0  0  0  0
   -0.6768    1.4538    0.4357 N   0  0  0  0  0  2  0  0  0  0  0  0
   -1.5506   -0.5006    2.2552 F   0  0  0  0  0  0  0  0  0  0  0  0
   -2.6276    3.2844   -0.4128 F   0  0  0  0  0  0  0  0  0  0  0  0
   -4.1769   -0.7885    2.8989 F   0  0  0  0  0  0  0  0  0  0  0  0
    2.0562    2.1294   -0.5187 C   0  0  0  0  0  0  0  0  0  0  0  0
   -2.4448    0.3486    1.7384 C   0  0  0  0  0  0  0  0  0  0  0  0
   -2.0221    1.3702    0.8658 C   0  0  0  0  0  0  0  0  0  0  0  0
   -2.9888    2.2874    0.3984 C   0  0  0  0  0  0  0  0  0  0  0  0
   -5.2518    2.9994    0.2532 F   0  0  0  0  0  0  0  0  0  0  0  0
    1.2977    2.9194    0.3991 C   0  0  0  0  0  0  0  0  0  0  0  0
    3.3258    2.5814   -0.9854 C   0  0  0  0  0  0  0  0  0  0  0  0
   -6.0363    0.9547    1.8953 F   0  0  0  0  0  0  0  0  0  0  0  0
   -0.0237    2.5290    0.8058 C   0  0  0  0  0  3  0  0  0  0  0  0
   -0.5297    3.2295    1.5019 H   0  0  0  0  0  0  0  0  0  0  0  0
    1.8487    4.1301    0.8946 C   0  0  0  0  0  0  0  0  0  0  0  0
    1.2616    4.7300    1.6076 H   0  0  0  0  0  0  0  0  0  0  0  0
   -4.3419    2.1560    0.7502 C   0  0  0  0  0  0  0  0  0  0  0  0
    4.0575    1.7504   -2.0080 C   0  0  0  0  0  0  0  0  0  0  0  0
    4.8619    2.3547   -2.4767 H   0  0  0  0  0  0  0  0  0  0  0  0
    3.3400    1.4760   -2.8115 H   0  0  0  0  0  0  0  0  0  0  0  0
   -4.7463    1.1095    1.5936 C   0  0  0  0  0  0  0  0  0  0  0  0
    3.1052    4.5547    0.4743 C   0  0  0  0  0  0  0  0  0  0  0  0
    3.5327    5.4921    0.8578 H   0  0  0  0  0  0  0  0  0  0  0  0
   -3.7948    0.2021    2.0898 C   0  0  0  0  0  0  0  0  0  0  0  0
    3.8237    3.7837   -0.4668 C   0  0  0  0  0  0  0  0  0  0  0  0
    4.8049    4.1395   -0.8203 H   0  0  0  0  0  0  0  0  0  0  0  0
    4.6334    0.4511   -1.4202 C   0  0  0  0  0  0  0  0  0  0  0  0
    5.4197    0.7006   -0.6742 H   0  0  0  0  0  0  0  0  0  0  0  0
    3.8178   -0.0461   -0.8627 H   0  0  0  0  0  0  0  0  0  0  0  0
    5.1726   -0.5192   -2.4686 C   0  0  0  0  0  0  0  0  0  0  0  0
    5.5641   -1.4397   -1.9903 H   0  0  0  0  0  0  0  0  0  0  0  0
    5.9931   -0.0722   -3.0678 H   0  0  0  0  0  0  0  0  0  0  0  0
    4.3657   -0.8246   -3.1664 H   0  0  0  0  0  0  0  0  0  0  0  0
  1  6  1  0  0  0  0
  2 14  1  0  0  0  0
  2  8  1  0  0  0  0
  4  9  1  0  0  0  0
  6 11  1  0  0  0  0
  7 25  1  0  0  0  0
  7  3  1  0  0  0  0
  8  7  2  0  0  0  0
  9 18  2  0  0  0  0
  9  8  1  0  0  0  0
 10 18  1  0  0  0  0
 11 14  1  0  0  0  0
 11 16  2  0  0  0  0
 12  6  2  0  0  0  0
 12 26  1  0  0  0  0
 14 15  1  0  0  0  0
 16 17  1  0  0  0  0
 18 22  1  0  0  0  0
 19 28  1  0  0  0  0
 19 12  1  0  0  0  0
 20 19  1  0  0  0  0
 21 19  1  0  0  0  0
 22 13  1  0  0  0  0
 22 25  2  0  0  0  0
 23 24  1  0  0  0  0
 23 16  1  0  0  0  0
 25  5  1  0  0  0  0
 26 23  2  0  0  0  0
 27 26  1  0  0  0  0
 28 30  1  0  0  0  0
 28 29  1  0  0  0  0
 31 32  1  0  0  0  0
 31 28  1  0  0  0  0
 33 31  1  0  0  0  0
 34 31  1  0  0  0  0
M  CHG  1   1  -1
M  END
