1,4
q = -1.0, confidence = 0.0

 27 28  0  0  0  0  0  0  0  0999 V2000
    1.7111    1.7602    1.5236 O   0  5  0  0  0  0  0  0  0  0  0  0
   -4.9111   -1.3514   -2.3871 O   0  0  0  0  0  0  0  0  0  0  0  0
   -2.8978   -1.9846   -1.8183 O   0  0  0  0  0  0  0  0  0  0  0  0
   -0.4741    2.1067   -0.4190 N   0  0  0  0  0  2  0  0  0  0  0  0
   -3.7624   -1.1290   -2.0105 N   0  0  0  0  0  0  0  0  0  0  0  0
    2.1424    2.8585    0.9839 C   0  0  0  0  0  0  0  0  0  0  0  0
    3.3710    3.4160    1.4676 C   0  0  0  0  0  0  0  0  0  0  0  0
    3.9108    4.5779    0.9366 C   0  0  0  0  0  0  0  0  0  0  0  0
    3.2607    5.2756   -0.1156 C   0  0  0  0  0  0  0  0  0  0  0  0
    2.0674    4.7762   -0.6080 C   0  0  0  0  0  0  0  0  0  0  0  0
    1.4733    3.5788   -0.0956 C   0  0  0  0  0  0  0  0  0  0  0  0
    0.2286    3.1901   -0.6833 C   0  0  0  0  0  3  0  0  0  0  0  0
   -1.7389    1.8879   -0.9984 C   0  0  0  0  0  0  0  0  0  0  0  0
   -2.1182    0.5547   -1.2553 C   0  0  0  0  0  0  0  0  0  0  0  0
   -3.3869    0.2895   -1.7679 C   0  0  0  0  0  0  0  0  0  0  0  0
   -4.3123    1.3029   -2.0498 C   0  0  0  0  0  0  0  0  0  0  0  0
   -3.9280    2.6279   -1.7996 C   0  0  0  0  0  0  0  0  0  0  0  0
   -2.6614    2.9246   -1.2737 C   0  0  0  0  0  0  0  0  0  0  0  0
    3.8678    2.8695    2.2823 H   0  0  0  0  0  0  0  0  0  0  0  0
    4.8597    4.9654    1.3400 H   0  0  0  0  0  0  0  0  0  0  0  0
    3.6962    6.1971   -0.5272 H   0  0  0  0  0  0  0  0  0  0  0  0
    1.5416    5.3045   -1.4203 H   0  0  0  0  0  0  0  0  0  0  0  0
   -0.1625    3.8797   -1.4624 H   0  0  0  0  0  0  0  0  0  0  0  0
   -1.4332   -0.2802   -1.0661 H   0  0  0  0  0  0  0  0  0  0  0  0
   -5.3027    1.0358   -2.4398 H   0  0  0  0  0  0  0  0  0  0  0  0
   -4.6371    3.4457   -1.9960 H   0  0  0  0  0  0  0  0  0  0  0  0
   -2.3995    3.9654   -1.0333 H   0  0  0  0  0  0  0  0  0  0  0  0
  2  5  2  0  0  0  0
  5  3  2  0  0  0  0
  5 15  1  0  0  0  0
  6  7  1  0  0  0  0
  6  1  1  0  0  0  0
  7 19  1  0  0  0  0
  8 20  1  0  0  0  0
  8  7  2  0  0  0  0
  9  8  1  0  0  0  0
 10  9  2  0  0  0  0
 10 11  1  0  0  0  0
 11  6  2  0  0  0  0
 12  4  1  0  0  0  0
 12 11  1  0  0  0  0
 13  4  1  0  0  0  0
 14 24  1  0  0  0  0
 14 13  1  0  0  0  0
 15 14  2  0  0  0  0
 16 17  2  0  0  0  0
 16 15  1  0  0  0  0
 17 18  1  0  0  0  0
 18 27  1  0  0  0  0
 18 13  2  0  0  0  0
 21  9  1  0  0  0  0
 22 10  1  0  0  0  0
 23 12  1  0  0  0  0
 25 16  1  0  0  0  0
 26 17  1  0  0  0  0
M  CHG  1   1  -1
M  END
