2,27
q = -1.0

 35 36  0  0  1  0  0  0  0  0999 V2000
   -6.3860    2.6139    0.0982 O   0  0  0  0  0  0  0  0  0  0  0  0
   -0.8287    1.8534    0.0809 N   0  0  0  0  0  2  0  0  0  0  0  0
   -5.0441    2.3950    0.0295 C   0  0  0  0  0  0  0  0  0  0  0  0
   -7.1799    2.2648   -1.0190 C   0  0  0  0  0  0  0  0  0  0  0  0
   -7.1091    1.1788   -1.2547 H   0  0  0  0  0  0  0  0  0  0  0  0
   -8.2248    2.5065   -0.7494 H   0  0  0  0  0  0  0  0  0  0  0  0
   -6.8993    2.8439   -1.9277 H   0  0  0  0  0  0  0  0  0  0  0  0
   -2.2478    2.0047    0.0874 C   0  0  0  0  0  0  0  0  0  0  0  0
    1.3126    3.0911    0.0888 C   0  0  0  0  0  0  0  0  0  0  0  0
   -0.1063    2.9481    0.1893 C   0  0  0  0  0  0  0  0  0  0  0  0
   -0.6711    3.8924    0.3192 H   0  0  0  0  0  0  0  0  0  0  0  0
    3.7597    6.0756    0.2192 C   0  0  0  0  0  0  0  0  0  0  0  0
    2.9728    6.8081    0.4856 H   0  0  0  0  0  0  0  0  0  0  0  0
    4.5283    6.1023    1.0211 H   0  0  0  0  0  0  0  0  0  0  0  0
    4.2552    6.4345   -0.7079 H   0  0  0  0  0  0  0  0  0  0  0  0
   -2.9895    1.6684   -1.0564 C   0  0  0  0  0  0  0  0  0  0  0  0
   -2.4642    1.2489   -1.9264 H   0  0  0  0  0  0  0  0  0  0  0  0
   -2.9197    2.5192    1.2145 C   0  0  0  0  0  0  0  0  0  0  0  0
   -2.3447    2.7540    2.1226 H   0  0  0  0  0  0  0  0  0  0  0  0
   -4.3023    2.7136    1.1872 C   0  0  0  0  0  0  0  0  0  0  0  0
   -4.8413    3.1072    2.0608 H   0  0  0  0  0  0  0  0  0  0  0  0
    1.8469    4.4076    0.2429 C   0  0  0  0  0  0  0  0  0  0  0  0
    1.1530    5.2185    0.5200 H   0  0  0  0  0  0  0  0  0  0  0  0
   -4.3760    1.8687   -1.0973 C   0  0  0  0  0  0  0  0  0  0  0  0
   -4.9264    1.6044   -2.0097 H   0  0  0  0  0  0  0  0  0  0  0  0
    3.1906    4.6907    0.0434 C   0  0  0  0  0  0  0  0  0  0  0  0
    1.8212    0.7575   -0.3916 O   0  0  0  0  0  1  0  0  0  0  0  0
    3.5724    2.3086   -0.5307 C   0  0  0  0  0  0  0  0  0  0  0  0
    2.1866    2.0026   -0.2663 C   0  0  1  0  0  3  0  0  0  0  0  0
    4.0286    3.6116   -0.3597 C   0  0  0  0  0  0  0  0  0  0  0  0
    5.0954    3.8162   -0.5549 H   0  0  0  0  0  0  0  0  0  0  0  0
    4.4705    1.1932   -0.9816 C   0  0  0  0  0  0  0  0  0  0  0  0
    5.4924    1.5594   -1.1985 H   0  0  0  0  0  0  0  0  0  0  0  0
    4.5303    0.3923   -0.2174 H   0  0  0  0  0  0  0  0  0  0  0  0
    4.0658    0.6994   -1.8893 H   0  0  0  0  0  0  0  0  0  0  0  0
  2  8  1  0  0  0  0
  2 10  1  0  0  0  0
  3  1  1  0  0  0  0
  3 20  1  0  0  0  0
  4  6  1  0  0  0  0
  4  1  1  0  0  0  0
  5  4  1  0  0  0  0
  7  4  1  0  0  0  0
  8 18  1  0  0  0  0
  9 10  2  0  0  0  0
  9 22  1  0  0  0  0
 10 11  1  0  0  0  0
 12 13  1  0  0  0  0
 12 14  1  0  0  0  0
 15 12  1  0  0  0  0
 16  8  2  0  0  0  0
 17 16  1  0  0  0  0
 18 19  1  0  0  0  0
 20 18  2  0  0  0  0
 20 21  1  0  0  0  0
 22 23  1  0  0  0  0
 24 16  1  0  0  0  0
 24  3  2  0  0  0  0
 25 24  1  0  0  0  0
 26 12  1  0  0  0  0
 26 22  2  0  0  0  0
 28 30  2  0  0  0  0
 28 29  1  0  0  0  0
 29 27  1  6  0  0  0
 29  9  1  0  0  0  0
 30 26  1  0  0  0  0
 31 30  1  0  0  0  0
 32 28  1  0  0  0  0
 32 34  1  0  0  0  0
 33 32  1  0  0  0  0
 35 32  1  0  0  0  0
M  END
