2,3
q = -1.0

 19 19  0  0  1  0  0  0  0  0999 V2000
   -4.5347    1.4676    0.6181 O   0  5  0  0  0  0  0  0  0  0  0  0
   -2.6990    1.1685   -0.6527 O   0  0  0  0  0  0  0  0  0  0  0  0
   -1.8290   -1.6988   -0.5158 N   0  0  0  0  0  0  0  0  0  0  0  0
   -3.2074   -1.5616   -1.0654 C   0  0  0  0  0  0  0  0  0  0  0  0
   -4.1002   -0.7696   -0.1127 C   0  0  1  0  0  0  0  0  0  0  0  0
   -4.1089   -1.4039    1.2909 C   0  0  0  0  0  0  0  0  0  0  0  0
   -2.6815   -1.6100    1.8106 C   0  0  0  0  0  0  0  0  0  0  0  0
   -1.8375   -2.3896    0.8047 C   0  0  0  0  0  0  0  0  0  0  0  0
   -3.7644    0.7522   -0.0215 C   0  0  0  0  0  0  0  0  0  0  0  0
   -1.2706   -2.2614   -1.1717 H   0  0  0  0  0  0  0  0  0  0  0  0
   -3.6295   -2.5824   -1.2233 H   0  0  0  0  0  0  0  0  0  0  0  0
   -3.1303   -1.0558   -2.0462 H   0  0  0  0  0  0  0  0  0  0  0  0
   -5.1340   -0.8040   -0.5159 H   0  0  0  0  0  0  0  0  0  0  0  0
   -4.6328   -2.3852    1.2560 H   0  0  0  0  0  0  0  0  0  0  0  0
   -4.6880   -0.7417    1.9641 H   0  0  0  0  0  0  0  0  0  0  0  0
   -2.6829   -2.1531    2.7780 H   0  0  0  0  0  0  0  0  0  0  0  0
   -2.1943   -0.6264    1.9925 H   0  0  0  0  0  0  0  0  0  0  0  0
   -2.2612   -3.4129    0.6685 H   0  0  0  0  0  0  0  0  0  0  0  0
   -0.7868   -2.4904    1.1390 H   0  0  0  0  0  0  0  0  0  0  0  0
  2  9  2  0  0  0  0
  3  8  1  0  0  0  0
  4  3  1  0  0  0  0
  4  5  1  0  0  0  0
  5 13  1  6  0  0  0
  5  9  1  0  0  0  0
  5  6  1  0  0  0  0
  6  7  1  0  0  0  0
  6 15  1  0  0  0  0
  7 17  1  0  0  0  0
  7 16  1  0  0  0  0
  8 19  1  0  0  0  0
  8  7  1  0  0  0  0
  9  1  1  0  0  0  0
 10  3  1  0  0  0  0
 11  4  1  0  0  0  0
 12  4  1  0  0  0  0
 14  6  1  0  0  0  0
 18  8  1  0  0  0  0
M  CHG  1   1  -1
M  END
