1,7
q = -1.0

 21 21  0  0  0  0  0  0  0  0999 V2000
    0.0419    1.5705   -0.1853 N   0  0  0  0  0  2  0  0  0  0  0  0
   -0.8182    2.7631   -0.1710 C   0  0  0  0  0  0  0  0  0  0  0  0
   -1.6516    2.5873   -0.8785 H   0  0  0  0  0  0  0  0  0  0  0  0
   -0.2143    3.6185   -0.5422 H   0  0  0  0  0  0  0  0  0  0  0  0
    1.3401    1.7284   -0.2405 C   0  0  0  0  0  0  0  0  0  0  0  0
    1.6839    2.7753   -0.3617 H   0  0  0  0  0  0  0  0  0  0  0  0
    0.9956   -1.1773    0.4047 O   0  5  0  0  0  0  0  0  0  0  0  0
   -1.3745    3.0517    1.2210 C   0  0  0  0  0  0  0  0  0  0  0  0
   -1.9957    3.9688    1.1905 H   0  0  0  0  0  0  0  0  0  0  0  0
   -0.5609    3.2031    1.9585 H   0  0  0  0  0  0  0  0  0  0  0  0
   -2.0202    2.2182    1.5597 H   0  0  0  0  0  0  0  0  0  0  0  0
    2.3870    0.7565   -0.1572 C   0  0  0  0  0  0  0  0  0  0  0  0
    3.7242    1.2174   -0.3552 C   0  0  0  0  0  3  0  0  0  0  0  0
    3.8758    2.2805   -0.6005 H   0  0  0  0  0  0  0  0  0  0  0  0
    4.8119    0.3655   -0.2467 C   0  0  0  0  0  0  0  0  0  0  0  0
    5.8331    0.7375   -0.4092 H   0  0  0  0  0  0  0  0  0  0  0  0
    4.5847   -0.9942    0.0816 C   0  0  0  0  0  0  0  0  0  0  0  0
    5.4385   -1.6834    0.1735 H   0  0  0  0  0  0  0  0  0  0  0  0
    3.3002   -1.4807    0.2877 C   0  0  0  0  0  0  0  0  0  0  0  0
    3.1121   -2.5328    0.5427 H   0  0  0  0  0  0  0  0  0  0  0  0
    2.1614   -0.6275    0.1710 C   0  0  0  0  0  0  0  0  0  0  0  0
  1  2  1  0  0  0  0
  2  8  1  0  0  0  0
  3  2  1  0  0  0  0
  4  2  1  0  0  0  0
  5  1  1  0  0  0  0
  5 12  2  0  0  0  0
  6  5  1  0  0  0  0
  8 11  1  0  0  0  0
  8 10  1  0  0  0  0
  9  8  1  0  0  0  0
 12 21  1  0  0  0  0
 13 15  1  0  0  0  0
 13 12  1  0  0  0  0
 14 13  1  0  0  0  0
 15 17  2  0  0  0  0
 16 15  1  0  0  0  0
 17 18  1  0  0  0  0
 17 19  1  0  0  0  0
 19 20  1  0  0  0  0
 21 19  2  0  0  0  0
 21  7  1  0  0  0  0
M  CHG  1   7  -1
M  END
