6,10
q = -1.0

 28 28  0  0  1  0  0  0  0  0999 V2000
    1.2179    3.8752    1.7621 C   0  0  0  0  0  0  0  0  0  0  0  0
    1.5699    3.5054    2.7474 H   0  0  0  0  0  0  0  0  0  0  0  0
    0.7341    4.8597    1.8938 H   0  0  0  0  0  0  0  0  0  0  0  0
    2.1188    3.9862    1.1244 H   0  0  0  0  0  0  0  0  0  0  0  0
    0.2994    2.8513    1.1470 C   0  0  0  0  0  0  0  0  0  0  0  0
    0.8544    1.6924    0.9690 O   0  5  0  0  0  0  0  0  0  0  0  0
   -1.0267    3.1742    0.8418 C   0  0  0  0  0  0  0  0  0  0  0  0
   -1.3435    4.2013    1.0634 H   0  0  0  0  0  0  0  0  0  0  0  0
   -2.0428    2.2921    0.3830 C   0  0  1  0  0  3  0  0  0  0  0  0
   -1.8271    1.0292   -0.0074 N   0  0  0  0  0  2  0  0  0  0  0  0
   -3.4537    2.8330    0.3504 C   0  0  0  0  0  0  0  0  0  0  0  0
   -3.9334    2.6260   -0.6265 H   0  0  0  0  0  0  0  0  0  0  0  0
   -3.4678    3.9198    0.5465 H   0  0  0  0  0  0  0  0  0  0  0  0
   -4.0810    2.3246    1.1100 H   0  0  0  0  0  0  0  0  0  0  0  0
   -2.9699    0.2035   -0.2888 C   0  0  0  0  0  0  0  0  0  0  0  0
   -3.3992   -0.0044   -1.6216 C   0  0  0  0  0  0  0  0  0  0  0  0
   -4.5080   -0.8493   -1.8236 C   0  0  0  0  0  0  0  0  0  0  0  0
   -4.8553   -1.0212   -2.8548 H   0  0  0  0  0  0  0  0  0  0  0  0
   -5.1663   -1.4751   -0.7559 C   0  0  0  0  0  0  0  0  0  0  0  0
   -6.0265   -2.1330   -0.9514 H   0  0  0  0  0  0  0  0  0  0  0  0
   -4.7222   -1.2613    0.5578 C   0  0  0  0  0  0  0  0  0  0  0  0
   -5.2269   -1.7507    1.4048 H   0  0  0  0  0  0  0  0  0  0  0  0
   -3.6256   -0.4212    0.7876 C   0  0  0  0  0  0  0  0  0  0  0  0
   -3.2408   -0.2486    1.8026 H   0  0  0  0  0  0  0  0  0  0  0  0
   -2.6762    0.6242   -2.7805 C   0  0  0  0  0  0  0  0  0  0  0  0
   -3.2794    0.5678   -3.7066 H   0  0  0  0  0  0  0  0  0  0  0  0
   -1.7159    0.0959   -2.9582 H   0  0  0  0  0  0  0  0  0  0  0  0
   -2.4166    1.6849   -2.5904 H   0  0  0  0  0  0  0  0  0  0  0  0
  1  3  1  0  0  0  0
  1  2  1  0  0  0  0
  4  1  1  0  0  0  0
  5  1  1  0  0  0  0
  6  5  1  0  0  0  0
  7  8  1  0  0  0  0
  7  5  2  0  0  0  0
  9 10  1  1  0  0  0
  9  7  1  0  0  0  0
 11  9  1  0  0  0  0
 11 13  1  0  0  0  0
 11 14  1  0  0  0  0
 12 11  1  0  0  0  0
 15 10  1  0  0  0  0
 15 23  1  0  0  0  0
 16 15  2  0  0  0  0
 17 16  1  0  0  0  0
 17 19  2  0  0  0  0
 18 17  1  0  0  0  0
 19 21  1  0  0  0  0
 20 19  1  0  0  0  0
 21 23  2  0  0  0  0
 21 22  1  0  0  0  0
 23 24  1  0  0  0  0
 25 28  1  0  0  0  0
 25 16  1  0  0  0  0
 26 25  1  0  0  0  0
 27 25  1  0  0  0  0
M  CHG  1   6  -1
M  END
