1,31
q = -2.0, confidence = 0.72

 31 31  0  0  1  0  0  0  0  0999 V2000
    1.0933   -0.2763   -1.6791 O   0  5  0  0  0  0  0  0  0  0  0  0
    2.6809   -1.6950   -2.7070 C   0  0  0  0  0  0  0  0  0  0  0  0
    3.8997   -1.5569   -3.2440 F   0  0  0  0  0  0  0  0  0  0  0  0
    1.7845   -1.6723   -3.7282 F   0  0  0  0  0  0  0  0  0  0  0  0
    2.6035   -2.9370   -2.1478 F   0  0  0  0  0  0  0  0  0  0  0  0
    2.3249   -0.6174   -1.6650 C   0  0  0  0  0  0  0  0  0  0  0  0
    3.2811   -0.1444   -0.7485 C   0  0  0  0  0  0  0  0  0  0  0  0
    4.6033   -0.6856   -0.7204 C   0  0  0  0  0  0  0  0  0  0  0  0
    5.6437   -1.2339   -0.7299 N   0  0  0  0  0  0  0  0  0  0  0  0
    2.8501    0.7648    0.2942 C   0  0  1  0  0  3  0  0  0  0  0  0
    3.7878    1.4093    1.0945 N   0  0  0  0  0  0  0  0  0  0  0  0
    5.0303    1.4351    0.9350 O   0  0  0  0  0  1  0  0  0  0  0  0
    3.0824    2.4671    1.9038 C   0  0  0  0  0  0  0  0  0  0  0  0
    3.7962    2.6477    3.2381 C   0  0  0  0  0  0  0  0  0  0  0  0
    3.8999    1.6974    3.7920 H   0  0  0  0  0  0  0  0  0  0  0  0
    3.2430    3.3708    3.8690 H   0  0  0  0  0  0  0  0  0  0  0  0
    4.8124    3.0464    3.0571 H   0  0  0  0  0  0  0  0  0  0  0  0
    3.1616    3.7619    1.0781 C   0  0  0  0  0  0  0  0  0  0  0  0
    4.2263    3.9634    0.8474 H   0  0  0  0  0  0  0  0  0  0  0  0
    2.7554    4.6168    1.6515 H   0  0  0  0  0  0  0  0  0  0  0  0
    2.6035    3.6700    0.1272 H   0  0  0  0  0  0  0  0  0  0  0  0
    1.6439    1.8377    1.9230 C   0  0  0  0  0  0  0  0  0  0  0  0
    1.5518    0.7874    3.0496 C   0  0  0  0  0  0  0  0  0  0  0  0
    0.5742    0.2797    3.0053 H   0  0  0  0  0  0  0  0  0  0  0  0
    1.6422    1.2823    4.0358 H   0  0  0  0  0  0  0  0  0  0  0  0
    2.3551    0.0308    2.9565 H   0  0  0  0  0  0  0  0  0  0  0  0
    0.5195    2.8571    2.0835 C   0  0  0  0  0  0  0  0  0  0  0  0
   -0.4529    2.3337    2.0353 H   0  0  0  0  0  0  0  0  0  0  0  0
    0.5344    3.6218    1.2871 H   0  0  0  0  0  0  0  0  0  0  0  0
    0.6003    3.3668    3.0646 H   0  0  0  0  0  0  0  0  0  0  0  0
    1.6002    1.1864    0.5719 N   0  0  0  0  0  2  0  0  0  0  0  0
  1  6  1  0  0  0  0
  2  5  1  0  0  0  0
  2  6  1  0  0  0  0
  3  2  1  0  0  0  0
  4  2  1  0  0  0  0
  6  7  2  0  0  0  0
  7  8  1  0  0  0  0
  9  8  3  0  0  0  0
 10  7  1  6  0  0  0
 10 31  1  0  0  0  0
 10 11  1  0  0  0  0
 11 13  1  0  0  0  0
 12 11  1  0  0  0  0
 13 22  1  0  0  0  0
 13 14  1  0  0  0  0
 14 15  1  0  0  0  0
 14 16  1  0  0  0  0
 17 14  1  0  0  0  0
 18 20  1  0  0  0  0
 18 13  1  0  0  0  0
 19 18  1  0  0  0  0
 21 18  1  0  0  0  0
 22 27  1  0  0  0  0
 22 23  1  0  0  0  0
 23 25  1  0  0  0  0
 24 23  1  0  0  0  0
 26 23  1  0  0  0  0
 27 30  1  0  0  0  0
 28 27  1  0  0  0  0
 29 27  1  0  0  0  0
 31 22  1  0  0  0  0
M  CHG  1   1  -1
M  END
