1,2
q = -1.0

 30 31  0  0  1  0  0  0  0  0999 V2000
   -0.6185   -1.0459    0.5286 O   0  0  0  0  0  1  0  0  0  0  0  0
    0.2683    0.4246   -1.4929 N   0  0  0  0  0  0  0  0  0  0  0  0
   -1.2185    0.2645   -1.3969 C   0  0  2  0  0  0  0  0  0  0  0  0
   -1.8486    1.4964   -0.7880 C   0  0  0  0  0  0  0  0  0  0  0  0
   -1.7838    1.7576    0.5974 C   0  0  0  0  0  0  0  0  0  0  0  0
   -2.3592    2.9200    1.1299 C   0  0  0  0  0  0  0  0  0  0  0  0
   -3.0033    3.8433    0.2901 C   0  0  0  0  0  0  0  0  0  0  0  0
   -3.0793    3.5903   -1.0881 C   0  0  0  0  0  0  0  0  0  0  0  0
   -2.5073    2.4242   -1.6195 C   0  0  0  0  0  0  0  0  0  0  0  0
   -1.4136   -1.0754   -0.6135 C   0  0  2  0  0  0  0  0  0  0  0  0
   -2.8783   -1.3317   -0.3017 C   0  0  0  0  0  0  0  0  0  0  0  0
   -3.3626   -1.2911    1.0169 C   0  0  0  0  0  0  0  0  0  0  0  0
   -4.7246   -1.5009    1.2838 C   0  0  0  0  0  0  0  0  0  0  0  0
   -5.6214   -1.7512    0.2342 C   0  0  0  0  0  0  0  0  0  0  0  0
   -5.1443   -1.8024   -1.0862 C   0  0  0  0  0  0  0  0  0  0  0  0
   -3.7823   -1.6001   -1.3489 C   0  0  0  0  0  0  0  0  0  0  0  0
    0.5190    1.3950   -1.7233 H   0  0  0  0  0  0  0  0  0  0  0  0
    0.6405   -0.2089   -2.2260 H   0  0  0  0  0  0  0  0  0  0  0  0
   -1.6258    0.1475   -2.4238 H   0  0  0  0  0  0  0  0  0  0  0  0
   -1.2978    1.0114    1.2376 H   0  0  0  0  0  0  0  0  0  0  0  0
   -2.3123    3.1035    2.2148 H   0  0  0  0  0  0  0  0  0  0  0  0
   -3.4534    4.7555    0.7106 H   0  0  0  0  0  0  0  0  0  0  0  0
   -3.5921    4.3014   -1.7536 H   0  0  0  0  0  0  0  0  0  0  0  0
   -2.5800    2.2233   -2.7008 H   0  0  0  0  0  0  0  0  0  0  0  0
   -1.0676   -1.8767   -1.3158 H   0  0  0  0  0  0  0  0  0  0  0  0
   -2.6488   -1.1007    1.8300 H   0  0  0  0  0  0  0  0  0  0  0  0
   -5.0887   -1.4693    2.3225 H   0  0  0  0  0  0  0  0  0  0  0  0
   -6.6898   -1.9141    0.4433 H   0  0  0  0  0  0  0  0  0  0  0  0
   -5.8376   -2.0098   -1.9160 H   0  0  0  0  0  0  0  0  0  0  0  0
   -3.4117   -1.6608   -2.3854 H   0  0  0  0  0  0  0  0  0  0  0  0
  2  3  1  0  0  0  0
  3 19  1  6  0  0  0
  3  4  1  0  0  0  0
  3 10  1  0  0  0  0
  4  5  1  0  0  0  0
  5  6  2  0  0  0  0
  5 20  1  0  0  0  0
  6 21  1  0  0  0  0
  7 22  1  0  0  0  0
  7  6  1  0  0  0  0
  8  7  2  0  0  0  0
  9  8  1  0  0  0  0
  9  4  2  0  0  0  0
 10 25  1  6  0  0  0
 10 11  1  0  0  0  0
 10  1  1  0  0  0  0
 11 12  1  0  0  0  0
 12 13  2  0  0  0  0
 12 26  1  0  0  0  0
 13 27  1  0  0  0  0
 14 28  1  0  0  0  0
 14 13  1  0  0  0  0
 15 14  2  0  0  0  0
 16 15  1  0  0  0  0
 16 11  2  0  0  0  0
 17  2  1  0  0  0  0
 18  2  1  0  0  0  0
 23  8  1  0  0  0  0
 24  9  1  0  0  0  0
 29 15  1  0  0  0  0
 30 16  1  0  0  0  0
M  END
