1,3
q = -1.0, confidence = 0.018

 24 25  0  0  1  0  0  0  0  0999 V2000
   -0.8833    0.0001   -1.4752 O   0  5  0  0  0  0  0  0  0  0  0  0
   -1.8143    3.7444    0.2174 N   0  0  0  0  0  0  0  0  0  0  0  0
   -0.2541    1.9800    0.3024 N   0  0  0  0  0  2  0  0  0  0  0  0
   -2.1094    0.4305   -1.3778 C   0  0  0  0  0  0  0  0  0  0  0  0
   -3.1411   -0.2601   -2.0869 C   0  0  0  0  0  0  0  0  0  0  0  0
   -2.8321   -1.1260   -2.6900 H   0  0  0  0  0  0  0  0  0  0  0  0
   -4.4769    0.1157   -1.9759 C   0  0  0  0  0  0  0  0  0  0  0  0
   -5.2466   -0.4588   -2.5154 H   0  0  0  0  0  0  0  0  0  0  0  0
   -4.8570    1.2015   -1.1563 C   0  0  0  0  0  0  0  0  0  0  0  0
   -5.9160    1.4727   -1.0373 H   0  0  0  0  0  0  0  0  0  0  0  0
   -3.8644    1.9214   -0.4891 C   0  0  0  0  0  0  0  0  0  0  0  0
   -4.1588    2.7560    0.1684 H   0  0  0  0  0  0  0  0  0  0  0  0
   -2.4935    1.5807   -0.5999 C   0  0  0  0  0  0  0  0  0  0  0  0
   -1.4560    2.4349   -0.0025 C   0  0  2  0  0  3  0  0  0  0  0  0
   -0.9552    4.7355    0.8378 C   0  0  0  0  0  0  0  0  0  0  0  0
   -1.5726    5.4109    1.4686 H   0  0  0  0  0  0  0  0  0  0  0  0
   -0.4624    5.3746    0.0672 H   0  0  0  0  0  0  0  0  0  0  0  0
    0.1030    4.0175    1.6671 C   0  0  0  0  0  0  0  0  0  0  0  0
    0.8697    4.7357    2.0191 H   0  0  0  0  0  0  0  0  0  0  0  0
   -0.3664    3.5651    2.5663 H   0  0  0  0  0  0  0  0  0  0  0  0
    0.7416    2.9134    0.8271 C   0  0  0  0  0  0  0  0  0  0  0  0
    1.3175    3.3556   -0.0201 H   0  0  0  0  0  0  0  0  0  0  0  0
    1.4558    2.3178    1.4248 H   0  0  0  0  0  0  0  0  0  0  0  0
   -2.6644    4.0562   -0.2487 H   0  0  0  0  0  0  0  0  0  0  0  0
  1  4  1  0  0  0  0
  2 15  1  0  0  0  0
  3 21  1  0  0  0  0
  4 13  1  0  0  0  0
  5  7  1  0  0  0  0
  5  4  2  0  0  0  0
  6  5  1  0  0  0  0
  7  9  2  0  0  0  0
  8  7  1  0  0  0  0
  9 10  1  0  0  0  0
  9 11  1  0  0  0  0
 11 12  1  0  0  0  0
 13 11  2  0  0  0  0
 14 13  1  6  0  0  0
 14  2  1  0  0  0  0
 14  3  1  0  0  0  0
 15 16  1  0  0  0  0
 15 18  1  0  0  0  0
 17 15  1  0  0  0  0
 18 19  1  0  0  0  0
 18 20  1  0  0  0  0
 21 23  1  0  0  0  0
 21 18  1  0  0  0  0
 22 21  1  0  0  0  0
 24  2  1  0  0  0  0
M  CHG  1   1  -1
M  END
