1,3
q = -1.0

 14 14  0  0  1  0  0  0  0  0999 V2000
   -2.1012   -0.2042   -0.1283 N   0  0  0  0  0  2  0  0  0  0  0  0
   -6.1797    2.3634   -0.1378 N   0  0  0  0  0  0  0  0  0  0  0  0
   -0.1178   -2.0478   -0.0211 O   0  5  0  0  0  0  0  0  0  0  0  0
   -1.6399   -3.7280    0.1554 O   0  0  0  0  0  0  0  0  0  0  0  0
   -1.3190   -2.5461    0.0668 C   0  0  0  0  0  0  0  0  0  0  0  0
   -2.4507   -1.4996    0.0251 C   0  0  2  0  0  3  0  0  0  0  0  0
   -3.7970   -1.8823    0.1323 C   0  0  0  0  0  0  0  0  0  0  0  0
   -4.0184   -2.9526    0.2483 H   0  0  0  0  0  0  0  0  0  0  0  0
   -4.7859   -0.8978    0.0931 C   0  0  0  0  0  0  0  0  0  0  0  0
   -5.8515   -1.1561    0.1788 H   0  0  0  0  0  0  0  0  0  0  0  0
   -4.4037    0.4584   -0.0564 C   0  0  0  0  0  0  0  0  0  0  0  0
   -3.0284    0.7615   -0.1629 C   0  0  0  0  0  0  0  0  0  0  0  0
   -2.6645    1.7963   -0.2730 H   0  0  0  0  0  0  0  0  0  0  0  0
   -5.3791    1.5061   -0.0999 C   0  0  0  0  0  0  0  0  0  0  0  0
  1  6  1  0  0  0  0
  2 14  3  0  0  0  0
  3  5  1  0  0  0  0
  5  4  2  0  0  0  0
  6  5  1  6  0  0  0
  6  7  1  0  0  0  0
  7  8  1  0  0  0  0
  9  7  2  0  0  0  0
  9 10  1  0  0  0  0
 11  9  1  0  0  0  0
 12  1  1  0  0  0  0
 12 11  2  0  0  0  0
 13 12  1  0  0  0  0
 14 11  1  0  0  0  0
M  CHG  1   3  -1
M  END
