1,6
q = -1.0

 14 14  0  0  1  0  0  0  0  0999 V2000
   -1.1857   -0.0108    0.8720 N   0  0  0  0  0  2  0  0  0  0  0  0
   -2.9959   -2.0233    1.5903 N   0  0  0  0  0  0  0  0  0  0  0  0
   -4.0304   -1.7839   -0.4964 N   0  0  0  0  0  0  0  0  0  0  0  0
   -4.6885   -2.5131   -0.2304 H   0  0  0  0  0  0  0  0  0  0  0  0
   -4.0064   -1.2595   -1.3963 H   0  0  0  0  0  0  0  0  0  0  0  0
   -1.2983    1.2830   -1.4368 O   0  5  0  0  0  0  0  0  0  0  0  0
   -3.0340    0.0341   -2.1593 O   0  0  0  0  0  0  0  0  0  0  0  0
   -2.1857    0.3585   -1.2968 C   0  0  0  0  0  0  0  0  0  0  0  0
   -2.1439   -0.3764    0.0232 C   0  0  2  0  0  3  0  0  0  0  0  0
   -3.0739   -1.4141    0.3825 C   0  0  0  0  0  0  0  0  0  0  0  0
   -2.0194   -1.6108    2.4103 C   0  0  0  0  0  0  0  0  0  0  0  0
   -1.9582   -2.1064    3.3969 H   0  0  0  0  0  0  0  0  0  0  0  0
   -1.0983   -0.6063    2.0736 C   0  0  0  0  0  0  0  0  0  0  0  0
   -0.2978   -0.2626    2.7463 H   0  0  0  0  0  0  0  0  0  0  0  0
  1 13  1  0  0  0  0
  2 11  1  0  0  0  0
  3  4  1  0  0  0  0
  3 10  1  0  0  0  0
  5  3  1  0  0  0  0
  6  8  1  0  0  0  0
  7  8  2  0  0  0  0
  9  8  1  1  0  0  0
  9 10  1  0  0  0  0
  9  1  1  0  0  0  0
 10  2  2  0  0  0  0
 11 12  1  0  0  0  0
 13 11  2  0  0  0  0
 13 14  1  0  0  0  0
M  CHG  1   6  -1
M  END
