1,3
q = -1.0

 25 24  0  0  1  0  0  0  0  0999 V2000
    1.5109    0.5687   -1.4105 O   0  5  0  0  0  0  0  0  0  0  0  0
    3.6388    0.4467   -2.1411 O   0  0  0  0  0  0  0  0  0  0  0  0
    0.9324   -1.5027    0.6825 N   0  0  0  0  0  2  0  0  0  0  0  0
    3.3030    1.5173   -3.0202 C   0  0  0  0  0  0  0  0  0  0  0  0
    4.2201    1.7338   -3.5981 H   0  0  0  0  0  0  0  0  0  0  0  0
    2.9864    2.4211   -2.4590 H   0  0  0  0  0  0  0  0  0  0  0  0
    2.4780    1.2362   -3.7070 H   0  0  0  0  0  0  0  0  0  0  0  0
    2.6467    0.0013   -1.3244 C   0  0  0  0  0  0  0  0  0  0  0  0
    3.0395   -1.0552   -0.4699 C   0  0  0  0  0  0  0  0  0  0  0  0
    4.0856   -1.3695   -0.5685 H   0  0  0  0  0  0  0  0  0  0  0  0
    2.2277   -1.7585    0.4524 C   0  0  1  0  0  3  0  0  0  0  0  0
    2.9036   -2.8756    1.2204 C   0  0  0  0  0  0  0  0  0  0  0  0
    2.8323   -2.7078    2.3152 H   0  0  0  0  0  0  0  0  0  0  0  0
    3.9700   -2.9624    0.9480 H   0  0  0  0  0  0  0  0  0  0  0  0
    2.4119   -3.8504    1.0207 H   0  0  0  0  0  0  0  0  0  0  0  0
    0.1985   -2.3080    1.6541 C   0  0  0  0  0  0  0  0  0  0  0  0
    0.6259   -2.1818    2.6795 H   0  0  0  0  0  0  0  0  0  0  0  0
    0.2981   -3.3960    1.4254 H   0  0  0  0  0  0  0  0  0  0  0  0
   -1.2880   -1.9541    1.6907 C   0  0  0  0  0  0  0  0  0  0  0  0
   -1.7072   -2.0876    0.6706 H   0  0  0  0  0  0  0  0  0  0  0  0
   -1.3971   -0.8719    1.9229 H   0  0  0  0  0  0  0  0  0  0  0  0
   -2.0748   -2.7866    2.7009 C   0  0  0  0  0  0  0  0  0  0  0  0
   -3.1471   -2.5079    2.7035 H   0  0  0  0  0  0  0  0  0  0  0  0
   -1.6896   -2.6455    3.7327 H   0  0  0  0  0  0  0  0  0  0  0  0
   -2.0118   -3.8709    2.4708 H   0  0  0  0  0  0  0  0  0  0  0  0
  1  8  1  0  0  0  0
  2  8  1  0  0  0  0
  3 16  1  0  0  0  0
  4  6  1  0  0  0  0
  4  2  1  0  0  0  0
  5  4  1  0  0  0  0
  7  4  1  0  0  0  0
  8  9  2  0  0  0  0
 10  9  1  0  0  0  0
 11  9  1  1  0  0  0
 11  3  1  0  0  0  0
 11 12  1  0  0  0  0
 12 13  1  0  0  0  0
 14 12  1  0  0  0  0
 15 12  1  0  0  0  0
 16 19  1  0  0  0  0
 16 17  1  0  0  0  0
 18 16  1  0  0  0  0
 19 21  1  0  0  0  0
 19 22  1  0  0  0  0
 20 19  1  0  0  0  0
 22 23  1  0  0  0  0
 22 24  1  0  0  0  0
 25 22  1  0  0  0  0
M  CHG  1   1  -1
M  END
