3,4
q = -1.0

 17 17  0  0  1  0  0  0  0  0999 V2000
    0.5212    2.8391    0.0000 O   0  0  0  0  0  0  0  0  0  0  0  0
    3.0522    2.8592   -0.0007 O   0  0  0  0  0  0  0  0  0  0  0  0
    1.5543   -1.2519   -0.0011 O   0  0  0  0  0  1  0  0  0  0  0  0
    1.1446    1.6036    0.0001 N   0  0  0  0  0  2  0  0  0  0  0  0
    2.4573    1.6552   -0.0003 C   0  0  0  0  0  0  0  0  0  0  0  0
    3.3135    0.4711   -0.0001 C   0  0  0  0  0  0  0  0  0  0  0  0
    2.8306   -0.8873   -0.0004 C   0  0  1  0  0  3  0  0  0  0  0  0
    3.7941   -1.9333    0.0002 C   0  0  0  0  0  0  0  0  0  0  0  0
    5.1619   -1.6727    0.0007 C   0  0  0  0  0  0  0  0  0  0  0  0
    5.6353   -0.3452    0.0008 C   0  0  0  0  0  0  0  0  0  0  0  0
    4.7159    0.7000    0.0004 C   0  0  0  0  0  0  0  0  0  0  0  0
    3.4132   -2.9651    0.0000 H   0  0  0  0  0  0  0  0  0  0  0  0
    5.8716   -2.5144    0.0011 H   0  0  0  0  0  0  0  0  0  0  0  0
    6.7139   -0.1333    0.0012 H   0  0  0  0  0  0  0  0  0  0  0  0
    5.0647    1.7415    0.0005 H   0  0  0  0  0  0  0  0  0  0  0  0
   -0.4511    2.5781    0.0005 H   0  0  0  0  0  0  0  0  0  0  0  0
    2.3209    3.5201   -0.0006 H   0  0  0  0  0  0  0  0  0  0  0  0
  1  4  1  0  0  0  0
  1 16  1  0  0  0  0
  2 17  1  0  0  0  0
  2  5  1  0  0  0  0
  5  6  2  0  0  0  0
  5  4  1  0  0  0  0
  6 11  1  0  0  0  0
  7  3  1  1  0  0  0
  7  6  1  0  0  0  0
  7  8  1  0  0  0  0
  8  9  2  0  0  0  0
  9 10  1  0  0  0  0
  9 13  1  0  0  0  0
 10 14  1  0  0  0  0
 11 15  1  0  0  0  0
 11 10  2  0  0  0  0
 12  8  1  0  0  0  0
M  END
