1,4
q = 0.0, confidence = 0.94

 50 52  0  0  1  0  0  0  0  0999 V2000
    1.0971   -0.0882   -2.2109 O   0  0  0  0  0  1  0  0  0  0  0  0
    2.8203   -1.4872    1.2625 N   0  0  0  0  0  0  0  0  0  0  0  0
    0.7973   -1.2484    2.1041 N   0  0  0  0  0  0  0  0  0  0  0  0
    0.9922   -0.6000   -0.1597 N   0  0  0  0  0  2  0  0  0  0  0  0
    1.6965   -0.6718   -1.2863 N   0  0  0  0  0  2  0  0  0  0  0  0
    1.5400   -1.0989    0.9633 C   0  0  1  0  0  3  0  0  0  0  0  0
    2.8669   -1.8841    2.6008 C   0  0  0  0  0  0  0  0  0  0  0  0
    3.7989   -2.2434    3.0449 H   0  0  0  0  0  0  0  0  0  0  0  0
    1.6112   -1.7302    3.1237 C   0  0  0  0  0  0  0  0  0  0  0  0
    1.2129   -1.9231    4.1232 H   0  0  0  0  0  0  0  0  0  0  0  0
    3.9582   -1.5193    0.3775 C   0  0  0  0  0  0  0  0  0  0  0  0
    4.9113   -0.4825    0.4595 C   0  0  0  0  0  0  0  0  0  0  0  0
    6.0326   -0.5746   -0.3860 C   0  0  0  0  0  0  0  0  0  0  0  0
    6.7904    0.2236   -0.3425 H   0  0  0  0  0  0  0  0  0  0  0  0
    6.2090   -1.6433   -1.2821 C   0  0  0  0  0  0  0  0  0  0  0  0
    5.2271   -2.6529   -1.3238 C   0  0  0  0  0  0  0  0  0  0  0  0
    5.3471   -3.4965   -2.0221 H   0  0  0  0  0  0  0  0  0  0  0  0
    4.0886   -2.6148   -0.5056 C   0  0  0  0  0  0  0  0  0  0  0  0
    4.7254    0.7025    1.3722 C   0  0  0  0  0  0  0  0  0  0  0  0
    3.9570    1.3959    0.9720 H   0  0  0  0  0  0  0  0  0  0  0  0
    5.6687    1.2713    1.4728 H   0  0  0  0  0  0  0  0  0  0  0  0
    4.3938    0.4085    2.3883 H   0  0  0  0  0  0  0  0  0  0  0  0
    7.4050   -1.7033   -2.1975 C   0  0  0  0  0  0  0  0  0  0  0  0
    8.1859   -0.9769   -1.9017 H   0  0  0  0  0  0  0  0  0  0  0  0
    7.1114   -1.4717   -3.2433 H   0  0  0  0  0  0  0  0  0  0  0  0
    7.8579   -2.7153   -2.2079 H   0  0  0  0  0  0  0  0  0  0  0  0
    3.0150   -3.6642   -0.6002 C   0  0  0  0  0  0  0  0  0  0  0  0
    3.3644   -4.5454   -1.1697 H   0  0  0  0  0  0  0  0  0  0  0  0
    2.1266   -3.2510   -1.1258 H   0  0  0  0  0  0  0  0  0  0  0  0
    2.6725   -4.0085    0.3969 H   0  0  0  0  0  0  0  0  0  0  0  0
   -0.6199   -0.9997    2.1852 C   0  0  0  0  0  0  0  0  0  0  0  0
   -1.5036   -2.0684    1.9228 C   0  0  0  0  0  0  0  0  0  0  0  0
   -2.8808   -1.8022    2.0116 C   0  0  0  0  0  0  0  0  0  0  0  0
   -3.5903   -2.6204    1.8127 H   0  0  0  0  0  0  0  0  0  0  0  0
   -3.3748   -0.5190    2.3080 C   0  0  0  0  0  0  0  0  0  0  0  0
   -2.4511    0.5170    2.5476 C   0  0  0  0  0  0  0  0  0  0  0  0
   -2.8213    1.5292    2.7734 H   0  0  0  0  0  0  0  0  0  0  0  0
   -1.0637    0.3020    2.5098 C   0  0  0  0  0  0  0  0  0  0  0  0
   -0.9900   -3.4266    1.5215 C   0  0  0  0  0  0  0  0  0  0  0  0
   -0.5213   -3.3872    0.5163 H   0  0  0  0  0  0  0  0  0  0  0  0
   -1.8150   -4.1609    1.4673 H   0  0  0  0  0  0  0  0  0  0  0  0
   -0.2267   -3.8140    2.2274 H   0  0  0  0  0  0  0  0  0  0  0  0
   -4.8536   -0.2373    2.3318 C   0  0  0  0  0  0  0  0  0  0  0  0
   -5.4510   -1.1672    2.2825 H   0  0  0  0  0  0  0  0  0  0  0  0
   -5.1366    0.3860    1.4593 H   0  0  0  0  0  0  0  0  0  0  0  0
   -5.1450    0.3214    3.2440 H   0  0  0  0  0  0  0  0  0  0  0  0
   -0.0878    1.4016    2.8371 C   0  0  0  0  0  0  0  0  0  0  0  0
    0.3739    1.2392    3.8347 H   0  0  0  0  0  0  0  0  0  0  0  0
   -0.5944    2.3841    2.8560 H   0  0  0  0  0  0  0  0  0  0  0  0
    0.7362    1.4622    2.1021 H   0  0  0  0  0  0  0  0  0  0  0  0
  1  5  1  0  0  0  0
  2  7  1  0  0  0  0
  3 31  1  0  0  0  0
  3  9  1  0  0  0  0
  5  4  1  0  0  0  0
  6  4  1  1  0  0  0
  6  2  1  0  0  0  0
  6  3  1  0  0  0  0
  7  8  1  0  0  0  0
  7  9  2  0  0  0  0
  9 10  1  0  0  0  0
 11 12  1  0  0  0  0
 11  2  1  0  0  0  0
 12 19  1  0  0  0  0
 13 14  1  0  0  0  0
 13 12  2  0  0  0  0
 15 13  1  0  0  0  0
 16 15  2  0  0  0  0
 16 18  1  0  0  0  0
 17 16  1  0  0  0  0
 18 11  2  0  0  0  0
 19 21  1  0  0  0  0
 19 22  1  0  0  0  0
 20 19  1  0  0  0  0
 23 24  1  0  0  0  0
 23 15  1  0  0  0  0
 25 23  1  0  0  0  0
 26 23  1  0  0  0  0
 27 18  1  0  0  0  0
 27 30  1  0  0  0  0
 28 27  1  0  0  0  0
 29 27  1  0  0  0  0
 31 38  1  0  0  0  0
 32 33  1  0  0  0  0
 32 31  2  0  0  0  0
 33 35  2  0  0  0  0
 34 33  1  0  0  0  0
 35 43  1  0  0  0  0
 35 36  1  0  0  0  0
 36 37  1  0  0  0  0
 38 36  2  0  0  0  0
 38 47  1  0  0  0  0
 39 32  1  0  0  0  0
 39 42  1  0  0  0  0
 40 39  1  0  0  0  0
 41 39  1  0  0  0  0
 43 46  1  0  0  0  0
 44 43  1  0  0  0  0
 45 43  1  0  0  0  0
 47 49  1  0  0  0  0
 47 48  1  0  0  0  0
 50 47  1  0  0  0  0
M  END
