1,4
q = -1.0

 31 32  0  0  1  0  0  0  0  0999 V2000
   -0.7980   -0.6553   -1.4243 N   0  0  0  0  0  2  0  0  0  0  0  0
   -2.1613   -0.7270   -1.3791 N   0  0  0  0  0  0  0  0  0  0  0  0
   -2.5690   -1.6681   -1.5336 H   0  0  0  0  0  0  0  0  0  0  0  0
   -2.3494    1.4118   -0.6197 O   0  0  0  0  0  1  0  0  0  0  0  0
   -4.3966   -2.1529   -1.5054 O   0  0  0  0  0  0  0  0  0  0  0  0
   -4.9534   -2.9486   -1.4230 H   0  0  0  0  0  0  0  0  0  0  0  0
   -0.9582   -2.9399   -1.6713 O   0  0  0  0  0  0  0  0  0  0  0  0
    1.1052   -4.3439   -1.2825 O   0  0  0  0  0  0  0  0  0  0  0  0
    0.1349   -4.0369   -1.3955 H   0  0  0  0  0  0  0  0  0  0  0  0
   -2.8999    0.3172   -0.9676 C   0  0  2  0  0  3  0  0  0  0  0  0
   -4.3802    0.1686   -0.9146 C   0  0  0  0  0  0  0  0  0  0  0  0
   -5.0919   -1.0443   -1.1289 C   0  0  0  0  0  0  0  0  0  0  0  0
   -6.4862   -1.0879   -0.9488 C   0  0  0  0  0  0  0  0  0  0  0  0
   -7.0137   -2.0428   -1.1076 H   0  0  0  0  0  0  0  0  0  0  0  0
   -7.1961    0.0617   -0.5794 C   0  0  0  0  0  0  0  0  0  0  0  0
   -8.2867    0.0060   -0.4440 H   0  0  0  0  0  0  0  0  0  0  0  0
   -6.5134    1.2746   -0.3915 C   0  0  0  0  0  0  0  0  0  0  0  0
   -7.0632    2.1847   -0.1107 H   0  0  0  0  0  0  0  0  0  0  0  0
   -5.1253    1.3134   -0.5574 C   0  0  0  0  0  0  0  0  0  0  0  0
   -4.5584    2.2428   -0.4042 H   0  0  0  0  0  0  0  0  0  0  0  0
   -0.2495   -1.8842   -1.6129 C   0  0  0  0  0  0  0  0  0  0  0  0
    1.2248   -1.9704   -1.7204 C   0  0  0  0  0  0  0  0  0  0  0  0
    1.8331   -3.2489   -1.5059 C   0  0  0  0  0  0  0  0  0  0  0  0
    3.2458   -3.3463   -1.5426 C   0  0  0  0  0  0  0  0  0  0  0  0
    3.6930   -4.3350   -1.3617 H   0  0  0  0  0  0  0  0  0  0  0  0
    4.0287   -2.2265   -1.8318 C   0  0  0  0  0  0  0  0  0  0  0  0
    5.1254   -2.3230   -1.8670 H   0  0  0  0  0  0  0  0  0  0  0  0
    3.4319   -0.9756   -2.0894 C   0  0  0  0  0  0  0  0  0  0  0  0
    4.0534   -0.1016   -2.3318 H   0  0  0  0  0  0  0  0  0  0  0  0
    2.0397   -0.8628   -2.0344 C   0  0  0  0  0  0  0  0  0  0  0  0
    1.5515    0.0960   -2.2615 H   0  0  0  0  0  0  0  0  0  0  0  0
  1  2  1  0  0  0  0
  2 10  1  0  0  0  0
  3  2  1  0  0  0  0
  5  6  1  0  0  0  0
  5 12  1  0  0  0  0
  7 21  2  0  0  0  0
  9  8  1  0  0  0  0
 10 11  1  0  0  0  0
 10  4  1  1  0  0  0
 11 19  1  0  0  0  0
 12 13  1  0  0  0  0
 12 11  2  0  0  0  0
 13 15  2  0  0  0  0
 14 13  1  0  0  0  0
 15 16  1  0  0  0  0
 15 17  1  0  0  0  0
 17 18  1  0  0  0  0
 19 20  1  0  0  0  0
 19 17  2  0  0  0  0
 21  1  1  0  0  0  0
 22 21  1  0  0  0  0
 22 23  1  0  0  0  0
 23  8  1  0  0  0  0
 24 23  2  0  0  0  0
 24 25  1  0  0  0  0
 26 24  1  0  0  0  0
 27 26  1  0  0  0  0
 28 30  1  0  0  0  0
 28 26  2  0  0  0  0
 29 28  1  0  0  0  0
 30 22  2  0  0  0  0
 31 30  1  0  0  0  0
M  END
