1,6
q = -1.0, confidence = 0.012

 21 20  0  0  1  0  0  0  0  0999 V2000
    1.9550    0.7530    0.6650 N   0  0  0  0  0  0  0  0  0  0  0  0
    1.9878    1.7809    0.6349 H   0  0  0  0  0  0  0  0  0  0  0  0
    2.6283    0.4448    1.3814 H   0  0  0  0  0  0  0  0  0  0  0  0
    2.3319    0.1861   -0.6583 C   0  0  2  0  0  0  0  0  0  0  0  0
    1.9129   -1.3221   -0.7252 C   0  0  0  0  0  0  0  0  0  0  0  0
    0.8235   -1.6049   -0.0511 O   0  5  0  0  0  0  0  0  0  0  0  0
    2.5672   -2.1067   -1.4031 O   0  0  0  0  0  0  0  0  0  0  0  0
    1.6705    0.7005   -1.3915 H   0  0  0  0  0  0  0  0  0  0  0  0
    3.7975    0.4243   -1.0641 C   0  0  2  0  0  0  0  0  0  0  0  0
    3.9117   -0.1385   -2.0148 H   0  0  0  0  0  0  0  0  0  0  0  0
    4.7804   -0.2007   -0.0552 C   0  0  0  0  0  0  0  0  0  0  0  0
    4.4476   -1.2400    0.1463 H   0  0  0  0  0  0  0  0  0  0  0  0
    4.7278    0.3521    0.9128 H   0  0  0  0  0  0  0  0  0  0  0  0
    6.2346   -0.2331   -0.5286 C   0  0  0  0  0  0  0  0  0  0  0  0
    6.3230   -0.7851   -1.4870 H   0  0  0  0  0  0  0  0  0  0  0  0
    6.8860   -0.7413    0.2104 H   0  0  0  0  0  0  0  0  0  0  0  0
    6.6488    0.7833   -0.6875 H   0  0  0  0  0  0  0  0  0  0  0  0
    4.0694    1.9107   -1.3221 C   0  0  0  0  0  0  0  0  0  0  0  0
    3.9780    2.5116   -0.3900 H   0  0  0  0  0  0  0  0  0  0  0  0
    3.3570    2.3297   -2.0619 H   0  0  0  0  0  0  0  0  0  0  0  0
    5.0916    2.0805   -1.7132 H   0  0  0  0  0  0  0  0  0  0  0  0
  1  3  1  0  0  0  0
  2  1  1  0  0  0  0
  4  8  1  6  0  0  0
  4  1  1  0  0  0  0
  5  4  1  0  0  0  0
  5  6  1  0  0  0  0
  7  5  2  0  0  0  0
  9 10  1  6  0  0  0
  9  4  1  0  0  0  0
  9 11  1  0  0  0  0
 11 12  1  0  0  0  0
 11 13  1  0  0  0  0
 14 11  1  0  0  0  0
 14 16  1  0  0  0  0
 15 14  1  0  0  0  0
 17 14  1  0  0  0  0
 18  9  1  0  0  0  0
 18 19  1  0  0  0  0
 20 18  1  0  0  0  0
 21 18  1  0  0  0  0
M  CHG  1   6  -1
M  END
