1,2
q = -1.0

 28 29  0  0  0  0  0  0  0  0999 V2000
   -1.5642   -0.6685    0.0401 N   0  0  0  0  0  2  0  0  0  0  0  0
    0.1842    1.6955    0.1022 O   0  5  0  0  0  0  0  0  0  0  0  0
   -0.9509    2.3399    0.0428 C   0  0  0  0  0  0  0  0  0  0  0  0
   -2.2484    1.7180   -0.0256 C   0  0  0  0  0  0  0  0  0  0  0  0
   -3.4121    2.5453   -0.0858 C   0  0  0  0  0  3  0  0  0  0  0  0
   -4.3937    2.0451   -0.1345 H   0  0  0  0  0  0  0  0  0  0  0  0
   -3.3557    3.9342   -0.0840 C   0  0  0  0  0  0  0  0  0  0  0  0
   -2.0631    4.5298   -0.0124 C   0  0  0  0  0  0  0  0  0  0  0  0
   -1.9808    5.6292   -0.0081 H   0  0  0  0  0  0  0  0  0  0  0  0
   -0.9061    3.7684    0.0508 C   0  0  0  0  0  0  0  0  0  0  0  0
    0.0867    4.2385    0.1026 H   0  0  0  0  0  0  0  0  0  0  0  0
   -2.4571    0.3027   -0.0078 C   0  0  0  0  0  0  0  0  0  0  0  0
   -3.5143   -0.0231   -0.0134 H   0  0  0  0  0  0  0  0  0  0  0  0
   -2.0996   -2.0040    0.0658 C   0  0  0  0  0  0  0  0  0  0  0  0
   -1.9569   -2.7951    1.2190 C   0  0  0  0  0  0  0  0  0  0  0  0
   -1.3968   -2.3950    2.0754 H   0  0  0  0  0  0  0  0  0  0  0  0
   -2.5227   -4.0751    1.2534 C   0  0  0  0  0  0  0  0  0  0  0  0
   -2.4145   -4.6911    2.1588 H   0  0  0  0  0  0  0  0  0  0  0  0
   -3.2164   -4.5768    0.1388 C   0  0  0  0  0  0  0  0  0  0  0  0
   -3.6518   -5.5869    0.1686 H   0  0  0  0  0  0  0  0  0  0  0  0
   -3.3456   -3.7882   -1.0138 C   0  0  0  0  0  0  0  0  0  0  0  0
   -3.8785   -4.1772   -1.8946 H   0  0  0  0  0  0  0  0  0  0  0  0
   -2.7879   -2.5009   -1.0535 C   0  0  0  0  0  0  0  0  0  0  0  0
   -2.8639   -1.8784   -1.9573 H   0  0  0  0  0  0  0  0  0  0  0  0
   -4.5937    4.7916   -0.1527 C   0  0  0  0  0  0  0  0  0  0  0  0
   -5.5132    4.1760   -0.1952 H   0  0  0  0  0  0  0  0  0  0  0  0
   -4.5862    5.4474   -1.0492 H   0  0  0  0  0  0  0  0  0  0  0  0
   -4.6764    5.4600    0.7305 H   0  0  0  0  0  0  0  0  0  0  0  0
  1 14  1  0  0  0  0
  3 10  2  0  0  0  0
  3  2  1  0  0  0  0
  4 12  2  0  0  0  0
  4  3  1  0  0  0  0
  5  7  1  0  0  0  0
  5  4  1  0  0  0  0
  6  5  1  0  0  0  0
  7  8  2  0  0  0  0
  8  9  1  0  0  0  0
  8 10  1  0  0  0  0
 10 11  1  0  0  0  0
 12  1  1  0  0  0  0
 13 12  1  0  0  0  0
 14 15  1  0  0  0  0
 15 17  2  0  0  0  0
 15 16  1  0  0  0  0
 17 18  1  0  0  0  0
 19 20  1  0  0  0  0
 19 17  1  0  0  0  0
 21 19  2  0  0  0  0
 22 21  1  0  0  0  0
 23 21  1  0  0  0  0
 23 14  2  0  0  0  0
 24 23  1  0  0  0  0
 25  7  1  0  0  0  0
 25 28  1  0  0  0  0
 26 25  1  0  0  0  0
 27 25  1  0  0  0  0
M  CHG  1   2  -1
M  END
