2,3
q = -1.0, confidence = 0.004

 39 40  0  0  1  0  0  0  0  0999 V2000
   -0.8355   -2.5932   -2.3494 O   0  0  0  0  0  0  0  0  0  0  0  0
   -1.8843   -0.0280    0.8082 O   0  5  0  0  0  0  0  0  0  0  0  0
   -0.1352   -1.4316   -0.5509 N   0  0  0  0  0  2  0  0  0  0  0  0
   -2.8644   -0.5749    0.1230 C   0  0  0  0  0  0  0  0  0  0  0  0
   -2.5925   -1.4954   -0.9505 C   0  0  0  0  0  0  0  0  0  0  0  0
   -3.6779   -2.0651   -1.6959 C   0  0  0  0  0  0  0  0  0  0  0  0
   -4.9763   -1.6820   -1.3374 C   0  0  0  0  0  0  0  0  0  0  0  0
   -5.8228   -2.1081   -1.8964 H   0  0  0  0  0  0  0  0  0  0  0  0
   -5.2314   -0.7814   -0.2857 C   0  0  0  0  0  0  0  0  0  0  0  0
   -6.2748   -0.5231   -0.0514 H   0  0  0  0  0  0  0  0  0  0  0  0
   -4.2003   -0.2137    0.4667 C   0  0  0  0  0  0  0  0  0  0  0  0
   -4.4102    0.7179    1.6478 C   0  0  0  0  0  0  0  0  0  0  0  0
   -3.6092    1.4861    1.5834 H   0  0  0  0  0  0  0  0  0  0  0  0
   -5.7641    1.4324    1.6345 C   0  0  0  0  0  0  0  0  0  0  0  0
   -5.9364    1.9750    0.6824 H   0  0  0  0  0  0  0  0  0  0  0  0
   -5.8148    2.1695    2.4605 H   0  0  0  0  0  0  0  0  0  0  0  0
   -6.6068    0.7246    1.7818 H   0  0  0  0  0  0  0  0  0  0  0  0
   -4.1833   -0.0411    2.9712 C   0  0  0  0  0  0  0  0  0  0  0  0
   -4.9464   -0.8365    3.1013 H   0  0  0  0  0  0  0  0  0  0  0  0
   -4.2571    0.6522    3.8337 H   0  0  0  0  0  0  0  0  0  0  0  0
   -3.1810   -0.5106    2.9985 H   0  0  0  0  0  0  0  0  0  0  0  0
   -3.5036   -3.0540   -2.8214 C   0  0  0  0  0  0  0  0  0  0  0  0
   -4.4940   -3.3800   -3.1913 H   0  0  0  0  0  0  0  0  0  0  0  0
   -2.9386   -3.9520   -2.5030 H   0  0  0  0  0  0  0  0  0  0  0  0
   -2.9375   -2.6253   -3.6714 H   0  0  0  0  0  0  0  0  0  0  0  0
   -1.2001   -1.7880   -1.1943 C   0  0  1  0  0  3  0  0  0  0  0  0
    0.4746   -2.7546   -2.4363 C   0  0  0  0  0  2  0  0  0  0  0  0
    1.0188   -2.0301   -1.2436 C   0  0  2  0  0  0  0  0  0  0  0  0
    1.6876   -1.2161   -1.6142 H   0  0  0  0  0  0  0  0  0  0  0  0
    1.8814   -2.9525   -0.3228 C   0  0  0  0  0  0  0  0  0  0  0  0
    2.0620   -2.3443    0.5863 H   0  0  0  0  0  0  0  0  0  0  0  0
    1.1048   -4.2059    0.0896 C   0  0  0  0  0  0  0  0  0  0  0  0
    0.1514   -3.9380    0.5870 H   0  0  0  0  0  0  0  0  0  0  0  0
    1.6952   -4.7970    0.8178 H   0  0  0  0  0  0  0  0  0  0  0  0
    0.8904   -4.8544   -0.7855 H   0  0  0  0  0  0  0  0  0  0  0  0
    3.2214   -3.2682   -0.9898 C   0  0  0  0  0  0  0  0  0  0  0  0
    3.0774   -3.8232   -1.9383 H   0  0  0  0  0  0  0  0  0  0  0  0
    3.8428   -3.8898   -0.3139 H   0  0  0  0  0  0  0  0  0  0  0  0
    3.7895   -2.3420   -1.2139 H   0  0  0  0  0  0  0  0  0  0  0  0
  1 26  1  0  0  0  0
  4 11  1  0  0  0  0
  4  2  1  0  0  0  0
  5  4  2  0  0  0  0
  6  7  2  0  0  0  0
  6  5  1  0  0  0  0
  7  9  1  0  0  0  0
  8  7  1  0  0  0  0
  9 10  1  0  0  0  0
  9 11  2  0  0  0  0
 11 12  1  0  0  0  0
 12 18  1  0  0  0  0
 13 12  1  0  0  0  0
 14 12  1  0  0  0  0
 14 17  1  0  0  0  0
 14 16  1  0  0  0  0
 15 14  1  0  0  0  0
 18 21  1  0  0  0  0
 18 19  1  0  0  0  0
 18 20  1  0  0  0  0
 22 24  1  0  0  0  0
 22  6  1  0  0  0  0
 23 22  1  0  0  0  0
 25 22  1  0  0  0  0
 26  5  1  6  0  0  0
 26  3  1  0  0  0  0
 27  1  1  0  0  0  0
 27 28  1  0  0  0  0
 28 29  1  6  0  0  0
 28  3  1  0  0  0  0
 28 30  1  0  0  0  0
 30 32  1  0  0  0  0
 30 31  1  0  0  0  0
 32 33  1  0  0  0  0
 32 34  1  0  0  0  0
 35 32  1  0  0  0  0
 36 30  1  0  0  0  0
 36 38  1  0  0  0  0
 37 36  1  0  0  0  0
 39 36  1  0  0  0  0
M  CHG  1   2  -1
M  END
