1,2
q = -1.0

 39 40  0  0  1  0  0  0  0  0999 V2000
   -0.4947    0.2573    0.7724 O   0  0  0  0  0  1  0  0  0  0  0  0
   -0.4505   -0.6396   -1.6628 N   0  0  0  0  0  2  0  0  0  0  0  0
   -1.6998   -0.5670   -1.1246 C   0  0  1  0  0  3  0  0  0  0  0  0
   -2.8217   -0.8897   -1.9097 C   0  0  0  0  0  0  0  0  0  0  0  0
   -3.8203   -0.8531   -1.4529 H   0  0  0  0  0  0  0  0  0  0  0  0
   -2.6605   -1.2325   -3.2534 C   0  0  0  0  0  0  0  0  0  0  0  0
   -3.5344   -1.4783   -3.8749 H   0  0  0  0  0  0  0  0  0  0  0  0
   -1.3663   -1.2487   -3.8024 C   0  0  0  0  0  0  0  0  0  0  0  0
   -1.1904   -1.4933   -4.8590 H   0  0  0  0  0  0  0  0  0  0  0  0
   -0.2868   -0.9494   -2.9731 C   0  0  0  0  0  0  0  0  0  0  0  0
    0.7474   -0.9478   -3.3451 H   0  0  0  0  0  0  0  0  0  0  0  0
   -1.7326   -0.2595    0.3600 C   0  0  2  0  0  0  0  0  0  0  0  0
   -2.8416    0.7680    0.7944 C   0  0  1  0  0  0  0  0  0  0  0  0
   -3.8163    0.3942    0.4009 H   0  0  0  0  0  0  0  0  0  0  0  0
   -2.9284    0.7777    2.3363 C   0  0  0  0  0  0  0  0  0  0  0  0
   -1.9986    1.2443    2.7276 H   0  0  0  0  0  0  0  0  0  0  0  0
   -3.7669    1.4283    2.6485 H   0  0  0  0  0  0  0  0  0  0  0  0
   -3.1116   -0.6007    2.9742 C   0  0  0  0  0  0  0  0  0  0  0  0
   -4.0999   -1.0237    2.6811 H   0  0  0  0  0  0  0  0  0  0  0  0
   -3.1343   -0.5004    4.0796 H   0  0  0  0  0  0  0  0  0  0  0  0
   -2.0141   -1.5808    2.5513 C   0  0  2  0  0  0  0  0  0  0  0  0
   -1.0354   -1.1525    2.8655 H   0  0  0  0  0  0  0  0  0  0  0  0
   -2.0035   -1.6524    1.0249 C   0  0  0  0  0  0  0  0  0  0  0  0
   -2.9769   -2.0547    0.6663 H   0  0  0  0  0  0  0  0  0  0  0  0
   -1.2238   -2.3573    0.6648 H   0  0  0  0  0  0  0  0  0  0  0  0
   -2.6075    2.2036    0.2422 C   0  0  0  0  0  0  0  0  0  0  0  0
   -1.5822    2.4827    0.5724 H   0  0  0  0  0  0  0  0  0  0  0  0
   -2.6583    2.3111   -1.2898 C   0  0  0  0  0  0  0  0  0  0  0  0
   -3.6288    1.9508   -1.6908 H   0  0  0  0  0  0  0  0  0  0  0  0
   -1.8569    1.7451   -1.7996 H   0  0  0  0  0  0  0  0  0  0  0  0
   -2.5603    3.3719   -1.6015 H   0  0  0  0  0  0  0  0  0  0  0  0
   -3.5974    3.2223    0.8328 C   0  0  0  0  0  0  0  0  0  0  0  0
   -3.4500    4.2181    0.3678 H   0  0  0  0  0  0  0  0  0  0  0  0
   -3.4828    3.3540    1.9246 H   0  0  0  0  0  0  0  0  0  0  0  0
   -4.6489    2.9228    0.6353 H   0  0  0  0  0  0  0  0  0  0  0  0
   -2.1788   -2.9648    3.1812 C   0  0  0  0  0  0  0  0  0  0  0  0
   -3.1405   -3.4305    2.8790 H   0  0  0  0  0  0  0  0  0  0  0  0
   -2.1711   -2.9057    4.2883 H   0  0  0  0  0  0  0  0  0  0  0  0
   -1.3655   -3.6560    2.8752 H   0  0  0  0  0  0  0  0  0  0  0  0
  2  3  1  0  0  0  0
  3  4  1  1  0  0  0
  3 12  1  0  0  0  0
  4  5  1  0  0  0  0
  6  4  2  0  0  0  0
  7  6  1  0  0  0  0
  8  6  1  0  0  0  0
  8 10  2  0  0  0  0
  9  8  1  0  0  0  0
 10  2  1  0  0  0  0
 11 10  1  0  0  0  0
 12  1  1  1  0  0  0
 12 13  1  0  0  0  0
 12 23  1  0  0  0  0
 13 14  1  6  0  0  0
 13 15  1  0  0  0  0
 15 17  1  0  0  0  0
 15 16  1  0  0  0  0
 15 18  1  0  0  0  0
 18 20  1  0  0  0  0
 19 18  1  0  0  0  0
 21 22  1  1  0  0  0
 21 18  1  0  0  0  0
 21 36  1  0  0  0  0
 23 21  1  0  0  0  0
 24 23  1  0  0  0  0
 25 23  1  0  0  0  0
 26 27  1  0  0  0  0
 26 13  1  0  0  0  0
 26 32  1  0  0  0  0
 28 26  1  0  0  0  0
 29 28  1  0  0  0  0
 30 28  1  0  0  0  0
 31 28  1  0  0  0  0
 32 34  1  0  0  0  0
 33 32  1  0  0  0  0
 35 32  1  0  0  0  0
 36 38  1  0  0  0  0
 37 36  1  0  0  0  0
 39 36  1  0  0  0  0
M  END
