4,6
q = -1.0

 31 32  0  0  0  0  0  0  0  0999 V2000
   10.1347   -2.0002    0.9703 Cl  0  0  0  0  0  0  0  0  0  0  0  0
    9.5691    0.9746   -0.0666 Cl  0  0  0  0  0  0  0  0  0  0  0  0
    0.3720   -0.0412   -3.9922 O   0  5  0  0  0  0  0  0  0  0  0  0
   -0.4733    0.4706   -1.9632 O   0  0  0  0  0  0  0  0  0  0  0  0
    4.5296   -0.1487   -0.0818 N   0  0  0  0  0  0  0  0  0  0  0  0
    1.8577    0.7660   -0.8294 N   0  0  0  0  0  0  0  0  0  0  0  0
    5.8467   -0.5834    0.1289 C   0  0  0  0  0  0  0  0  0  0  0  0
    0.5032    0.3893   -2.8599 C   0  0  0  0  0  0  0  0  0  0  0  0
    3.5643   -1.0775   -0.6644 C   0  0  0  0  0  0  0  0  0  0  0  0
    3.6859   -2.0820   -0.2216 H   0  0  0  0  0  0  0  0  0  0  0  0
    3.7410   -1.1988   -1.7631 H   0  0  0  0  0  0  0  0  0  0  0  0
    8.5197   -1.4531    0.6427 C   0  0  0  0  0  0  0  0  0  0  0  0
    2.8535    1.6558   -0.1772 C   0  0  0  0  0  0  0  0  0  0  0  0
    2.6383    1.6281    0.9073 H   0  0  0  0  0  0  0  0  0  0  0  0
    2.6802    2.6910   -0.5301 H   0  0  0  0  0  0  0  0  0  0  0  0
    6.9507    0.2805   -0.0688 C   0  0  0  0  0  0  0  0  0  0  0  0
    6.8221    1.3014   -0.4458 H   0  0  0  0  0  0  0  0  0  0  0  0
    1.8335    0.9126   -2.3084 C   0  0  0  0  0  0  0  0  0  0  0  0
    2.6795    0.4012   -2.8089 H   0  0  0  0  0  0  0  0  0  0  0  0
    1.9070    1.9935   -2.5477 H   0  0  0  0  0  0  0  0  0  0  0  0
    4.2983    1.2378   -0.4560 C   0  0  0  0  0  0  0  0  0  0  0  0
    4.5743    1.4329   -1.5246 H   0  0  0  0  0  0  0  0  0  0  0  0
    4.9438    1.8916    0.1622 H   0  0  0  0  0  0  0  0  0  0  0  0
    6.1213   -1.9031    0.5747 C   0  0  0  0  0  0  0  0  0  0  0  0
    5.3037   -2.6119    0.7605 H   0  0  0  0  0  0  0  0  0  0  0  0
    2.1286   -0.6391   -0.3895 C   0  0  0  0  0  0  0  0  0  0  0  0
    1.3978   -1.3213   -0.8725 H   0  0  0  0  0  0  0  0  0  0  0  0
    1.9394   -0.6559    0.7020 H   0  0  0  0  0  0  0  0  0  0  0  0
    7.4289   -2.3213    0.8232 C   0  0  0  0  0  0  0  0  0  0  0  0
    7.6235   -3.3427    1.1793 H   0  0  0  0  0  0  0  0  0  0  0  0
    8.2629   -0.1427    0.1944 C   0  0  0  0  0  0  0  0  0  0  0  0
  2 31  1  0  0  0  0
  3  8  1  0  0  0  0
  5  7  1  0  0  0  0
  6 26  1  0  0  0  0
  6 13  1  0  0  0  0
  7 24  1  0  0  0  0
  8 18  1  0  0  0  0
  8  4  2  0  0  0  0
  9 26  1  0  0  0  0
  9 10  1  0  0  0  0
  9  5  1  0  0  0  0
 11  9  1  0  0  0  0
 12 29  1  0  0  0  0
 12  1  1  0  0  0  0
 13 14  1  0  0  0  0
 15 13  1  0  0  0  0
 16  7  2  0  0  0  0
 16 31  1  0  0  0  0
 17 16  1  0  0  0  0
 18  6  1  0  0  0  0
 19 18  1  0  0  0  0
 20 18  1  0  0  0  0
 21 13  1  0  0  0  0
 21  5  1  0  0  0  0
 21 23  1  0  0  0  0
 22 21  1  0  0  0  0
 24 25  1  0  0  0  0
 24 29  2  0  0  0  0
 26 28  1  0  0  0  0
 27 26  1  0  0  0  0
 29 30  1  0  0  0  0
 31 12  2  0  0  0  0
M  CHG  1   3  -1
M  END
