1,3
q = -1.0

 30 31  0  0  0  0  0  0  0  0999 V2000
   -0.8208    1.0841   -0.1330 N   0  0  0  0  0  2  0  0  0  0  0  0
    1.2740    1.9675   -0.0107 N   0  0  0  0  0  0  0  0  0  0  0  0
   -1.3370   -1.5503    0.8991 O   0  5  0  0  0  0  0  0  0  0  0  0
   -2.9694   -0.0793   -0.1676 C   0  0  0  0  0  0  0  0  0  0  0  0
   -2.5463   -1.3093    0.4814 C   0  0  0  0  0  0  0  0  0  0  0  0
   -3.5488   -2.3185    0.6441 C   0  0  0  0  0  0  0  0  0  0  0  0
   -3.2386   -3.2491    1.1424 H   0  0  0  0  0  0  0  0  0  0  0  0
   -4.8556   -2.1354    0.2176 C   0  0  0  0  0  0  0  0  0  0  0  0
   -5.5886   -2.9441    0.3749 H   0  0  0  0  0  0  0  0  0  0  0  0
   -5.2850   -0.9312   -0.4125 C   0  0  0  0  0  0  0  0  0  0  0  0
   -4.3286    0.0613   -0.5870 C   0  0  0  0  0  0  0  0  0  0  0  0
   -4.6174    1.0090   -1.0730 H   0  0  0  0  0  0  0  0  0  0  0  0
   -6.7153   -0.7639   -0.8572 C   0  0  0  0  0  0  0  0  0  0  0  0
   -7.4190   -0.8414   -0.0015 H   0  0  0  0  0  0  0  0  0  0  0  0
   -7.0106   -1.5494   -1.5847 H   0  0  0  0  0  0  0  0  0  0  0  0
   -6.8798    0.2196   -1.3387 H   0  0  0  0  0  0  0  0  0  0  0  0
   -2.0960    1.0213   -0.4362 C   0  0  0  0  0  3  0  0  0  0  0  0
   -2.5724    1.8842   -0.9495 H   0  0  0  0  0  0  0  0  0  0  0  0
   -0.0043    2.1992   -0.3726 C   0  0  0  0  0  0  0  0  0  0  0  0
   -0.4268    3.4415   -0.8935 C   0  0  0  0  0  0  0  0  0  0  0  0
   -1.4753    3.6104   -1.1805 H   0  0  0  0  0  0  0  0  0  0  0  0
    0.5039    4.4839   -1.0270 C   0  0  0  0  0  0  0  0  0  0  0  0
    1.8320    4.2298   -0.6205 C   0  0  0  0  0  0  0  0  0  0  0  0
    2.5995    5.0156   -0.6852 H   0  0  0  0  0  0  0  0  0  0  0  0
    2.1639    2.9635   -0.1220 C   0  0  0  0  0  0  0  0  0  0  0  0
    3.1866    2.7403    0.2238 H   0  0  0  0  0  0  0  0  0  0  0  0
    0.1035    5.8319   -1.5645 C   0  0  0  0  0  0  0  0  0  0  0  0
    0.7248    6.1105   -2.4404 H   0  0  0  0  0  0  0  0  0  0  0  0
    0.2570    6.6215   -0.7999 H   0  0  0  0  0  0  0  0  0  0  0  0
   -0.9591    5.8551   -1.8726 H   0  0  0  0  0  0  0  0  0  0  0  0
  4  5  1  0  0  0  0
  5  6  2  0  0  0  0
  5  3  1  0  0  0  0
  6  7  1  0  0  0  0
  8  9  1  0  0  0  0
  8  6  1  0  0  0  0
 10  8  2  0  0  0  0
 11 10  1  0  0  0  0
 11  4  2  0  0  0  0
 12 11  1  0  0  0  0
 13 10  1  0  0  0  0
 13 14  1  0  0  0  0
 15 13  1  0  0  0  0
 16 13  1  0  0  0  0
 17  4  1  0  0  0  0
 17  1  1  0  0  0  0
 18 17  1  0  0  0  0
 19  1  1  0  0  0  0
 19  2  2  0  0  0  0
 20 19  1  0  0  0  0
 21 20  1  0  0  0  0
 22 20  2  0  0  0  0
 22 23  1  0  0  0  0
 23 25  2  0  0  0  0
 24 23  1  0  0  0  0
 25  2  1  0  0  0  0
 25 26  1  0  0  0  0
 27 22  1  0  0  0  0
 27 29  1  0  0  0  0
 28 27  1  0  0  0  0
 30 27  1  0  0  0  0
M  CHG  1   3  -1
M  END
