1,2
q = -1.0

 18 18  0  0  1  0  0  0  0  0999 V2000
    0.9382   -1.5841   -0.0001 N   0  0  0  0  0  2  0  0  0  0  0  0
    1.5291    1.0620    0.0001 O   0  0  0  0  0  1  0  0  0  0  0  0
    3.1980   -0.7170    0.0000 C   0  0  0  0  0  0  0  0  0  0  0  0
    2.7738    0.6622    0.0000 C   0  0  2  0  0  3  0  0  0  0  0  0
    3.8041    1.6531   -0.0001 C   0  0  0  0  0  0  0  0  0  0  0  0
    3.4882    2.7065   -0.0001 H   0  0  0  0  0  0  0  0  0  0  0  0
    5.1472    1.3022   -0.0000 C   0  0  0  0  0  0  0  0  0  0  0  0
    5.9066    2.1016   -0.0001 H   0  0  0  0  0  0  0  0  0  0  0  0
    5.5774   -0.0555    0.0000 C   0  0  0  0  0  0  0  0  0  0  0  0
    4.5864   -1.0331    0.0000 C   0  0  0  0  0  0  0  0  0  0  0  0
    4.8736   -2.0981    0.0001 H   0  0  0  0  0  0  0  0  0  0  0  0
    7.0462   -0.3962    0.0000 C   0  0  0  0  0  0  0  0  0  0  0  0
    7.2098   -1.4914   -0.0000 H   0  0  0  0  0  0  0  0  0  0  0  0
    7.5619    0.0210   -0.8910 H   0  0  0  0  0  0  0  0  0  0  0  0
    7.5618    0.0210    0.8910 H   0  0  0  0  0  0  0  0  0  0  0  0
    2.2320   -1.7750   -0.0000 C   0  0  0  0  0  0  0  0  0  0  0  0
    2.6176   -2.8134    0.0000 H   0  0  0  0  0  0  0  0  0  0  0  0
    0.3399   -2.4215   -0.0001 H   0  0  0  0  0  0  0  0  0  0  0  0
  1 16  1  0  0  0  0
  3 10  1  0  0  0  0
  4  3  1  0  0  0  0
  4  2  1  1  0  0  0
  5  7  2  0  0  0  0
  5  4  1  0  0  0  0
  6  5  1  0  0  0  0
  7  9  1  0  0  0  0
  8  7  1  0  0  0  0
  9 12  1  0  0  0  0
  9 10  2  0  0  0  0
 10 11  1  0  0  0  0
 12 15  1  0  0  0  0
 13 12  1  0  0  0  0
 14 12  1  0  0  0  0
 16  3  2  0  0  0  0
 16 17  1  0  0  0  0
 18  1  1  0  0  0  0
M  END
