1,2
q = -1.0, confidence = 0.0

 18 18  0  0  0  0  0  0  0  0999 V2000
   -0.9382    1.5841    0.0001 N   0  0  0  0  0  2  0  0  0  0  0  0
   -1.5291   -1.0620   -0.0001 O   0  5  0  0  0  0  0  0  0  0  0  0
   -3.1980    0.7170   -0.0000 C   0  0  0  0  0  0  0  0  0  0  0  0
   -2.7738   -0.6622   -0.0000 C   0  0  0  0  0  0  0  0  0  0  0  0
   -3.8041   -1.6531    0.0001 C   0  0  0  0  0  0  0  0  0  0  0  0
   -3.4882   -2.7065    0.0001 H   0  0  0  0  0  0  0  0  0  0  0  0
   -5.1472   -1.3023    0.0000 C   0  0  0  0  0  0  0  0  0  0  0  0
   -5.9066   -2.1016    0.0001 H   0  0  0  0  0  0  0  0  0  0  0  0
   -5.5774    0.0555   -0.0000 C   0  0  0  0  0  0  0  0  0  0  0  0
   -4.5864    1.0331   -0.0000 C   0  0  0  0  0  3  0  0  0  0  0  0
   -4.8736    2.0981   -0.0001 H   0  0  0  0  0  0  0  0  0  0  0  0
   -7.0462    0.3962   -0.0000 C   0  0  0  0  0  0  0  0  0  0  0  0
   -7.2098    1.4914    0.0000 H   0  0  0  0  0  0  0  0  0  0  0  0
   -7.5619   -0.0210    0.8910 H   0  0  0  0  0  0  0  0  0  0  0  0
   -7.5618   -0.0210   -0.8910 H   0  0  0  0  0  0  0  0  0  0  0  0
   -2.2320    1.7750    0.0000 C   0  0  0  0  0  0  0  0  0  0  0  0
   -2.6176    2.8134   -0.0000 H   0  0  0  0  0  0  0  0  0  0  0  0
   -0.3399    2.4215    0.0001 H   0  0  0  0  0  0  0  0  0  0  0  0
  1 18  1  0  0  0  0
  2  4  1  0  0  0  0
  3  4  1  0  0  0  0
  3 16  2  0  0  0  0
  4  5  2  0  0  0  0
  5  6  1  0  0  0  0
  7  5  1  0  0  0  0
  7  8  1  0  0  0  0
  9  7  2  0  0  0  0
 10  3  1  0  0  0  0
 10  9  1  0  0  0  0
 11 10  1  0  0  0  0
 12  9  1  0  0  0  0
 12 13  1  0  0  0  0
 12 14  1  0  0  0  0
 15 12  1  0  0  0  0
 16  1  1  0  0  0  0
 17 16  1  0  0  0  0
M  CHG  1   2  -1
M  END
