1,2
q = -1.0, confidence = 0.0

 25 25  0  0  0  0  0  0  0  0999 V2000
   -1.3821    1.0746    0.5993 O   0  5  0  0  0  0  0  0  0  0  0  0
   -1.0461   -1.5589    0.3360 N   0  0  0  0  0  2  0  0  0  0  0  0
   -2.6314    0.8629    0.2782 C   0  0  0  0  0  0  0  0  0  0  0  0
   -3.5059    1.9907    0.2119 C   0  0  0  0  0  0  0  0  0  0  0  0
   -3.0748    2.9742    0.4509 H   0  0  0  0  0  0  0  0  0  0  0  0
   -4.8351    1.8535   -0.1717 C   0  0  0  0  0  0  0  0  0  0  0  0
   -5.4757    2.7470   -0.2393 H   0  0  0  0  0  0  0  0  0  0  0  0
   -5.3616    0.5816   -0.4910 C   0  0  0  0  0  0  0  0  0  0  0  0
   -6.4046    0.4741   -0.8216 H   0  0  0  0  0  0  0  0  0  0  0  0
   -4.5436   -0.5391   -0.3769 C   0  0  0  0  0  3  0  0  0  0  0  0
   -4.9640   -1.5235   -0.6280 H   0  0  0  0  0  0  0  0  0  0  0  0
   -3.1812   -0.4454    0.0207 C   0  0  0  0  0  0  0  0  0  0  0  0
   -2.3652   -1.6292    0.2682 C   0  0  0  0  0  0  0  0  0  0  0  0
   -3.0595   -2.9467    0.5271 C   0  0  0  0  0  0  0  0  0  0  0  0
   -2.8379   -3.2945    1.5577 H   0  0  0  0  0  0  0  0  0  0  0  0
   -4.1539   -2.8650    0.4419 H   0  0  0  0  0  0  0  0  0  0  0  0
   -2.6935   -3.7353   -0.1591 H   0  0  0  0  0  0  0  0  0  0  0  0
   -0.2903   -2.7706    0.7054 C   0  0  0  0  0  0  0  0  0  0  0  0
    0.6899   -2.4336    1.0922 H   0  0  0  0  0  0  0  0  0  0  0  0
   -0.7988   -3.3147    1.5289 H   0  0  0  0  0  0  0  0  0  0  0  0
   -0.0432   -3.6915   -0.4626 C   0  0  0  0  0  0  0  0  0  0  0  0
    0.3654   -3.1882   -1.3542 H   0  0  0  0  0  0  0  0  0  0  0  0
   -0.2414   -5.0209   -0.4454 C   0  0  0  0  0  0  0  0  0  0  0  0
   -0.6426   -5.5355    0.4448 H   0  0  0  0  0  0  0  0  0  0  0  0
    0.0046   -5.6491   -1.3157 H   0  0  0  0  0  0  0  0  0  0  0  0
  2 18  1  0  0  0  0
  3  1  1  0  0  0  0
  4  3  2  0  0  0  0
  4  5  1  0  0  0  0
  6  4  1  0  0  0  0
  7  6  1  0  0  0  0
  8 10  1  0  0  0  0
  8  6  2  0  0  0  0
  9  8  1  0  0  0  0
 10 12  1  0  0  0  0
 11 10  1  0  0  0  0
 12 13  2  0  0  0  0
 12  3  1  0  0  0  0
 13  2  1  0  0  0  0
 13 14  1  0  0  0  0
 14 15  1  0  0  0  0
 16 14  1  0  0  0  0
 17 14  1  0  0  0  0
 18 19  1  0  0  0  0
 18 20  1  0  0  0  0
 21 23  2  0  0  0  0
 21 18  1  0  0  0  0
 22 21  1  0  0  0  0
 23 24  1  0  0  0  0
 25 23  1  0  0  0  0
M  CHG  1   1  -1
M  END
