3,6
q = -1.0

 31 32  0  0  0  0  0  0  0  0999 V2000
    6.6903    1.6249    0.8365 Cl  0  0  0  0  0  0  0  0  0  0  0  0
    8.9223   -0.6059    1.1028 Cl  0  0  0  0  0  0  0  0  0  0  0  0
    1.6147    2.1447   -0.2461 N   0  0  0  0  0  0  0  0  0  0  0  0
    4.0843    0.6713   -0.2415 N   0  0  0  0  0  0  0  0  0  0  0  0
   -0.8802    4.1230   -1.9175 O   0  5  0  0  0  0  0  0  0  0  0  0
   -1.0562    1.9839   -1.2276 O   0  0  0  0  0  0  0  0  0  0  0  0
    2.5698    2.2573    0.8740 C   0  0  0  0  0  0  0  0  0  0  0  0
    1.9981    2.4386    1.8073 H   0  0  0  0  0  0  0  0  0  0  0  0
    3.2380    3.1358    0.7078 H   0  0  0  0  0  0  0  0  0  0  0  0
   -0.4804    3.1704   -1.2648 C   0  0  0  0  0  0  0  0  0  0  0  0
    3.4158    0.9989    1.0154 C   0  0  0  0  0  0  0  0  0  0  0  0
    4.1851    1.1750    1.7931 H   0  0  0  0  0  0  0  0  0  0  0  0
    2.7724    0.1498    1.3498 H   0  0  0  0  0  0  0  0  0  0  0  0
    7.3447   -1.0099    0.4916 C   0  0  0  0  0  0  0  0  0  0  0  0
    2.3746    1.8895   -1.4917 C   0  0  0  0  0  0  0  0  0  0  0  0
    3.0561    2.7493   -1.6951 H   0  0  0  0  0  0  0  0  0  0  0  0
    1.6540    1.8045   -2.3283 H   0  0  0  0  0  0  0  0  0  0  0  0
    3.1736    0.5948   -1.3760 C   0  0  0  0  0  0  0  0  0  0  0  0
    2.4608   -0.2614   -1.2971 H   0  0  0  0  0  0  0  0  0  0  0  0
    3.7699    0.4497   -2.2990 H   0  0  0  0  0  0  0  0  0  0  0  0
    0.7685    3.3438   -0.3641 C   0  0  0  0  0  0  0  0  0  0  0  0
    1.3443    4.2147   -0.7492 H   0  0  0  0  0  0  0  0  0  0  0  0
    0.4063    3.6089    0.6526 H   0  0  0  0  0  0  0  0  0  0  0  0
    5.0634   -0.3493   -0.1323 C   0  0  0  0  0  0  0  0  0  0  0  0
    6.3493   -0.0176    0.3739 C   0  0  0  0  0  0  0  0  0  0  0  0
    4.8048   -1.6867   -0.4983 C   0  0  0  0  0  0  0  0  0  0  0  0
    3.7949   -1.9862   -0.8139 H   0  0  0  0  0  0  0  0  0  0  0  0
    5.8065   -2.6609   -0.3913 C   0  0  0  0  0  0  0  0  0  0  0  0
    5.5804   -3.7003   -0.6709 H   0  0  0  0  0  0  0  0  0  0  0  0
    7.0756   -2.3320    0.0999 C   0  0  0  0  0  0  0  0  0  0  0  0
    7.8686   -3.0861    0.1973 H   0  0  0  0  0  0  0  0  0  0  0  0
  3  7  1  0  0  0  0
  4 24  1  0  0  0  0
  4 11  1  0  0  0  0
  5 10  1  0  0  0  0
  7 11  1  0  0  0  0
  7  8  1  0  0  0  0
  9  7  1  0  0  0  0
 10  6  2  0  0  0  0
 10 21  1  0  0  0  0
 11 13  1  0  0  0  0
 11 12  1  0  0  0  0
 14  2  1  0  0  0  0
 15 18  1  0  0  0  0
 15  3  1  0  0  0  0
 16 15  1  0  0  0  0
 17 15  1  0  0  0  0
 18 19  1  0  0  0  0
 18  4  1  0  0  0  0
 20 18  1  0  0  0  0
 21  3  1  0  0  0  0
 21 23  1  0  0  0  0
 22 21  1  0  0  0  0
 24 25  2  0  0  0  0
 25 14  1  0  0  0  0
 25  1  1  0  0  0  0
 26 28  2  0  0  0  0
 26 24  1  0  0  0  0
 27 26  1  0  0  0  0
 28 30  1  0  0  0  0
 29 28  1  0  0  0  0
 30 31  1  0  0  0  0
 30 14  2  0  0  0  0
M  CHG  1   5  -1
M  END
