1,38
q = -1.0

 49 50  0  0  0  0  0  0  0  0999 V2000
   -0.4879   -1.3658   -0.7434 O   0  5  0  0  0  0  0  0  0  0  0  0
   -1.4488   -0.4743   -0.5340 C   0  0  0  0  0  0  0  0  0  0  0  0
   -2.7971   -0.9144   -0.3525 C   0  0  0  0  0  0  0  0  0  0  0  0
   -3.7719    0.0745   -0.1621 C   0  0  0  0  0  0  0  0  0  0  0  0
   -4.8080   -0.2541   -0.0077 H   0  0  0  0  0  0  0  0  0  0  0  0
   -3.5150    1.4690   -0.1532 C   0  0  0  0  0  0  0  0  0  0  0  0
   -2.1948    1.8679   -0.3527 C   0  0  0  0  0  0  0  0  0  0  0  0
   -1.9244    2.9335   -0.3718 H   0  0  0  0  0  0  0  0  0  0  0  0
   -1.1505    0.9233   -0.5301 C   0  0  0  0  0  0  0  0  0  0  0  0
   -3.1477   -2.4139   -0.3503 C   0  0  0  0  0  0  0  0  0  0  0  0
   -4.6535   -2.6433   -0.1227 C   0  0  0  0  0  0  0  0  0  0  0  0
   -4.8620   -3.7315   -0.1355 H   0  0  0  0  0  0  0  0  0  0  0  0
   -5.2733   -2.1782   -0.9163 H   0  0  0  0  0  0  0  0  0  0  0  0
   -4.9925   -2.2533    0.8588 H   0  0  0  0  0  0  0  0  0  0  0  0
   -2.7757   -3.0379   -1.7164 C   0  0  0  0  0  0  0  0  0  0  0  0
   -3.3428   -2.5531   -2.5372 H   0  0  0  0  0  0  0  0  0  0  0  0
   -3.0277   -4.1183   -1.7181 H   0  0  0  0  0  0  0  0  0  0  0  0
   -1.6962   -2.9359   -1.9304 H   0  0  0  0  0  0  0  0  0  0  0  0
   -2.3841   -3.1299    0.7900 C   0  0  0  0  0  0  0  0  0  0  0  0
   -2.6845   -4.1973    0.8270 H   0  0  0  0  0  0  0  0  0  0  0  0
   -2.6261   -2.6730    1.7712 H   0  0  0  0  0  0  0  0  0  0  0  0
   -1.2880   -3.0936    0.6547 H   0  0  0  0  0  0  0  0  0  0  0  0
   -4.6737    2.4554    0.0666 C   0  0  0  0  0  0  0  0  0  0  0  0
   -4.1978    3.9175    0.0321 C   0  0  0  0  0  0  0  0  0  0  0  0
   -3.7449    4.1805   -0.9452 H   0  0  0  0  0  0  0  0  0  0  0  0
   -3.4535    4.1277    0.8268 H   0  0  0  0  0  0  0  0  0  0  0  0
   -5.0580    4.5977    0.1941 H   0  0  0  0  0  0  0  0  0  0  0  0
   -5.7300    2.2589   -1.0445 C   0  0  0  0  0  0  0  0  0  0  0  0
   -5.2924    2.4503   -2.0450 H   0  0  0  0  0  0  0  0  0  0  0  0
   -6.5803    2.9570   -0.8995 H   0  0  0  0  0  0  0  0  0  0  0  0
   -6.1390    1.2289   -1.0471 H   0  0  0  0  0  0  0  0  0  0  0  0
   -5.3176    2.1827    1.4453 C   0  0  0  0  0  0  0  0  0  0  0  0
   -6.1637    2.8782    1.6236 H   0  0  0  0  0  0  0  0  0  0  0  0
   -4.5793    2.3207    2.2611 H   0  0  0  0  0  0  0  0  0  0  0  0
   -5.7115    1.1495    1.5188 H   0  0  0  0  0  0  0  0  0  0  0  0
    0.1793    1.4445   -0.7550 C   0  0  0  0  0  3  0  0  0  0  0  0
    0.2259    2.5424   -0.9242 H   0  0  0  0  0  0  0  0  0  0  0  0
    1.2934    0.7679   -0.7941 N   0  0  0  0  0  2  0  0  0  0  0  0
    2.5076    1.4729   -0.9955 C   0  0  0  0  0  0  0  0  0  0  0  0
    2.7944    2.6560   -0.2780 C   0  0  0  0  0  0  0  0  0  0  0  0
    2.0709    3.0281    0.4625 H   0  0  0  0  0  0  0  0  0  0  0  0
    4.0136    3.3205   -0.4707 C   0  0  0  0  0  0  0  0  0  0  0  0
    4.2293    4.2360    0.1011 H   0  0  0  0  0  0  0  0  0  0  0  0
    4.9604    2.8135   -1.3754 C   0  0  0  0  0  0  0  0  0  0  0  0
    5.9181    3.3346   -1.5240 H   0  0  0  0  0  0  0  0  0  0  0  0
    4.6813    1.6292   -2.0792 C   0  0  0  0  0  0  0  0  0  0  0  0
    5.4199    1.2207   -2.7854 H   0  0  0  0  0  0  0  0  0  0  0  0
    3.4693    0.9529   -1.8883 C   0  0  0  0  0  0  0  0  0  0  0  0
    3.2440    0.0147   -2.4148 H   0  0  0  0  0  0  0  0  0  0  0  0
  1  2  1  0  0  0  0
  2  9  2  0  0  0  0
  2  3  1  0  0  0  0
  3 10  1  0  0  0  0
  3  4  2  0  0  0  0
  4  6  1  0  0  0  0
  4  5  1  0  0  0  0
  6 23  1  0  0  0  0
  7  6  2  0  0  0  0
  8  7  1  0  0  0  0
  9  7  1  0  0  0  0
 10 11  1  0  0  0  0
 10 19  1  0  0  0  0
 11 14  1  0  0  0  0
 12 11  1  0  0  0  0
 13 11  1  0  0  0  0
 15 10  1  0  0  0  0
 16 15  1  0  0  0  0
 17 15  1  0  0  0  0
 18 15  1  0  0  0  0
 19 20  1  0  0  0  0
 19 21  1  0  0  0  0
 22 19  1  0  0  0  0
 23 32  1  0  0  0  0
 24 23  1  0  0  0  0
 24 27  1  0  0  0  0
 24 26  1  0  0  0  0
 25 24  1  0  0  0  0
 28 30  1  0  0  0  0
 28 23  1  0  0  0  0
 29 28  1  0  0  0  0
 31 28  1  0  0  0  0
 32 35  1  0  0  0  0
 32 33  1  0  0  0  0
 32 34  1  0  0  0  0
 36  9  1  0  0  0  0
 37 36  1  0  0  0  0
 38 36  1  0  0  0  0
 39 38  1  0  0  0  0
 39 40  1  0  0  0  0
 40 41  1  0  0  0  0
 42 40  2  0  0  0  0
 42 43  1  0  0  0  0
 44 42  1  0  0  0  0
 45 44  1  0  0  0  0
 46 48  1  0  0  0  0
 46 44  2  0  0  0  0
 47 46  1  0  0  0  0
 48 39  2  0  0  0  0
 49 48  1  0  0  0  0
M  CHG  1   1  -1
M  END
