1,3
q = -1.0

 12 12  0  0  1  0  0  0  0  0999 V2000
   -1.5361   -2.1128    0.1613 O   0  5  0  0  0  0  0  0  0  0  0  0
   -3.7584   -2.5692    0.1797 O   0  0  0  0  0  0  0  0  0  0  0  0
   -1.9967    0.5805   -0.0043 N   0  0  0  0  0  2  0  0  0  0  0  0
   -4.2296    0.3118   -0.1908 N   0  0  0  0  0  0  0  0  0  0  0  0
   -3.8710    1.6313   -0.2957 N   0  0  0  0  0  0  0  0  0  0  0  0
   -4.5916    2.3400   -0.4381 H   0  0  0  0  0  0  0  0  0  0  0  0
   -1.8061    2.9494   -0.1901 N   0  0  0  0  0  0  0  0  0  0  0  0
   -0.7642    2.8192   -0.1777 H   0  0  0  0  0  0  0  0  0  0  0  0
   -2.2049    3.7999   -0.5808 H   0  0  0  0  0  0  0  0  0  0  0  0
   -2.8192   -1.7887    0.1308 C   0  0  0  0  0  0  0  0  0  0  0  0
   -3.0622   -0.2914   -0.0133 C   0  0  0  0  0  0  0  0  0  0  0  0
   -2.5171    1.8019   -0.1860 C   0  0  1  0  0  3  0  0  0  0  0  0
  4 11  2  0  0  0  0
  5  4  1  0  0  0  0
  5 12  1  0  0  0  0
  6  5  1  0  0  0  0
  7  8  1  0  0  0  0
  9  7  1  0  0  0  0
 10  1  1  0  0  0  0
 10  2  2  0  0  0  0
 11  3  1  0  0  0  0
 11 10  1  0  0  0  0
 12  7  1  1  0  0  0
 12  3  1  0  0  0  0
M  CHG  1   1  -1
M  END
