1,2
q = -1.0, confidence = 0.008

 24 23  0  0  1  0  0  0  0  0999 V2000
   -1.3090    1.0824   -1.2300 O   0  5  0  0  0  0  0  0  0  0  0  0
   -1.1695   -1.1098    0.3766 N   0  0  0  0  0  2  0  0  0  0  0  0
   -3.3995    1.9647   -1.9491 C   0  0  0  0  0  0  0  0  0  0  0  0
   -3.1475    1.8458   -3.0237 H   0  0  0  0  0  0  0  0  0  0  0  0
   -3.1363    3.0083   -1.6748 H   0  0  0  0  0  0  0  0  0  0  0  0
   -4.4893    1.8265   -1.8217 H   0  0  0  0  0  0  0  0  0  0  0  0
   -2.6042    0.9894   -1.1210 C   0  0  0  0  0  0  0  0  0  0  0  0
   -3.2097    0.0445   -0.2863 C   0  0  0  0  0  0  0  0  0  0  0  0
   -4.3055    0.0541   -0.2102 H   0  0  0  0  0  0  0  0  0  0  0  0
   -2.5151   -0.9554    0.4406 C   0  0  1  0  0  3  0  0  0  0  0  0
   -3.3701   -1.8787    1.2878 C   0  0  0  0  0  0  0  0  0  0  0  0
   -3.2611   -2.9433    0.9948 H   0  0  0  0  0  0  0  0  0  0  0  0
   -4.4367   -1.6093    1.1825 H   0  0  0  0  0  0  0  0  0  0  0  0
   -3.1120   -1.8095    2.3659 H   0  0  0  0  0  0  0  0  0  0  0  0
   -0.5633   -2.2638    1.0929 C   0  0  0  0  0  0  0  0  0  0  0  0
   -1.2858   -2.6028    1.8623 H   0  0  0  0  0  0  0  0  0  0  0  0
    0.7097   -1.8859    1.8557 C   0  0  0  0  0  0  0  0  0  0  0  0
    0.5260   -1.0293    2.5331 H   0  0  0  0  0  0  0  0  0  0  0  0
    1.5431   -1.6167    1.1820 H   0  0  0  0  0  0  0  0  0  0  0  0
    1.0327   -2.7484    2.4741 H   0  0  0  0  0  0  0  0  0  0  0  0
   -0.3432   -3.4267    0.1166 C   0  0  0  0  0  0  0  0  0  0  0  0
   -1.3002   -3.7420   -0.3462 H   0  0  0  0  0  0  0  0  0  0  0  0
    0.0915   -4.3015    0.6419 H   0  0  0  0  0  0  0  0  0  0  0  0
    0.3445   -3.1137   -0.6926 H   0  0  0  0  0  0  0  0  0  0  0  0
  1  7  1  0  0  0  0
  2 10  1  0  0  0  0
  2 15  1  0  0  0  0
  3  6  1  0  0  0  0
  3  5  1  0  0  0  0
  3  7  1  0  0  0  0
  4  3  1  0  0  0  0
  7  8  2  0  0  0  0
  8  9  1  0  0  0  0
 10  8  1  6  0  0  0
 10 11  1  0  0  0  0
 11 14  1  0  0  0  0
 12 11  1  0  0  0  0
 13 11  1  0  0  0  0
 15 17  1  0  0  0  0
 15 16  1  0  0  0  0
 17 20  1  0  0  0  0
 17 18  1  0  0  0  0
 19 17  1  0  0  0  0
 21 23  1  0  0  0  0
 21 15  1  0  0  0  0
 22 21  1  0  0  0  0
 24 21  1  0  0  0  0
M  CHG  1   1  -1
M  END
