1,3
q = -1.0, confidence = 0.0

 28 30  0  0  1  0  0  0  0  0999 V2000
    0.4237    1.6811   -2.2662 O   0  5  0  0  0  0  0  0  0  0  0  0
    3.7028    0.6012    0.3330 O   0  0  0  0  0  0  0  0  0  0  0  0
    1.7204   -0.0931   -0.3675 N   0  0  0  0  0  2  0  0  0  0  0  0
    2.6235    0.8912   -0.4458 C   0  0  2  0  0  3  0  0  0  0  0  0
    3.4698   -0.6279    0.9250 C   0  0  0  0  0  0  0  0  0  0  0  0
    4.2828   -2.4270    2.4408 C   0  0  0  0  0  0  0  0  0  0  0  0
    2.5890    2.1135   -1.2028 C   0  0  0  0  0  0  0  0  0  0  0  0
    1.4758    2.4268   -2.0839 C   0  0  0  0  0  0  0  0  0  0  0  0
    3.7192    4.2103   -1.7982 C   0  0  0  0  0  0  0  0  0  0  0  0
    2.6433    4.5264   -2.6628 C   0  0  0  0  0  0  0  0  0  0  0  0
    4.4823   -1.1732    1.8141 C   0  0  0  0  0  0  0  0  0  0  0  0
    3.6824    3.0191   -1.0859 C   0  0  0  0  0  0  0  0  0  0  0  0
    2.2372   -1.0521    0.4818 C   0  0  0  0  0  0  0  0  0  0  0  0
    1.5637    3.6640   -2.8002 C   0  0  0  0  0  0  0  0  0  0  0  0
    6.6492   -1.0005    2.9269 C   0  0  0  0  0  0  0  0  0  0  0  0
    5.2554   -2.9540    3.2963 C   0  0  0  0  0  0  0  0  0  0  0  0
    5.6806   -0.4656    2.0685 C   0  0  0  0  0  0  0  0  0  0  0  0
    6.4433   -2.2443    3.5444 C   0  0  0  0  0  0  0  0  0  0  0  0
    0.7230    3.8971   -3.4699 H   0  0  0  0  0  0  0  0  0  0  0  0
    2.6608    5.4670   -3.2359 H   0  0  0  0  0  0  0  0  0  0  0  0
    4.5726    4.8952   -1.6923 H   0  0  0  0  0  0  0  0  0  0  0  0
    4.5094    2.7537   -0.4115 H   0  0  0  0  0  0  0  0  0  0  0  0
    1.6931   -1.9750    0.7052 H   0  0  0  0  0  0  0  0  0  0  0  0
    3.3576   -2.9924    2.2543 H   0  0  0  0  0  0  0  0  0  0  0  0
    5.0857   -3.9300    3.7752 H   0  0  0  0  0  0  0  0  0  0  0  0
    7.2065   -2.6620    4.2178 H   0  0  0  0  0  0  0  0  0  0  0  0
    7.5766   -0.4387    3.1149 H   0  0  0  0  0  0  0  0  0  0  0  0
    5.8439    0.5077    1.5849 H   0  0  0  0  0  0  0  0  0  0  0  0
  1  8  1  0  0  0  0
  2  5  1  0  0  0  0
  3 13  1  0  0  0  0
  4  7  1  6  0  0  0
  4  3  1  0  0  0  0
  4  2  1  0  0  0  0
  5 11  1  0  0  0  0
  6 16  1  0  0  0  0
  7 12  1  0  0  0  0
  8  7  2  0  0  0  0
  9 21  1  0  0  0  0
  9 12  2  0  0  0  0
 10  9  1  0  0  0  0
 11 17  1  0  0  0  0
 11  6  2  0  0  0  0
 12 22  1  0  0  0  0
 13 23  1  0  0  0  0
 13  5  2  0  0  0  0
 14 10  2  0  0  0  0
 14  8  1  0  0  0  0
 15 27  1  0  0  0  0
 15 18  1  0  0  0  0
 16 18  2  0  0  0  0
 16 25  1  0  0  0  0
 17 15  2  0  0  0  0
 18 26  1  0  0  0  0
 19 14  1  0  0  0  0
 20 10  1  0  0  0  0
 24  6  1  0  0  0  0
 28 17  1  0  0  0  0
M  CHG  1   1  -1
M  END
