1,4
q = -1.0, confidence = 0.004

 23 24  0  0  1  0  0  0  0  0999 V2000
   -0.3384   -2.2235   -1.4066 O   0  5  0  0  0  0  0  0  0  0  0  0
   -1.9992   -3.5584   -2.1666 O   0  0  0  0  0  0  0  0  0  0  0  0
   -6.2320   -1.4778   -0.2978 O   0  0  0  0  0  0  0  0  0  0  0  0
   -2.1272   -0.6929   -0.0396 N   0  0  0  0  0  2  0  0  0  0  0  0
   -2.5848   -1.7187   -0.7712 C   0  0  0  0  0  0  0  0  0  0  0  0
   -3.9505   -2.0498   -0.8987 C   0  0  0  0  0  0  0  0  0  0  0  0
   -4.1669   -2.9200   -1.5321 H   0  0  0  0  0  0  0  0  0  0  0  0
   -4.9023   -1.2788   -0.2425 C   0  0  0  0  0  0  0  0  0  0  0  0
   -4.4569   -0.1829    0.5755 C   0  0  0  0  0  0  0  0  0  0  0  0
   -3.0429    0.0735    0.6607 C   0  0  1  0  0  3  0  0  0  0  0  0
   -2.6012    1.1273    1.5054 C   0  0  0  0  0  0  0  0  0  0  0  0
   -1.5237    1.3089    1.5868 H   0  0  0  0  0  0  0  0  0  0  0  0
   -3.5114    1.9030    2.2111 C   0  0  0  0  0  0  0  0  0  0  0  0
   -3.1401    2.7125    2.8574 H   0  0  0  0  0  0  0  0  0  0  0  0
   -4.9035    1.6620    2.1060 C   0  0  0  0  0  0  0  0  0  0  0  0
   -5.6146    2.2872    2.6663 H   0  0  0  0  0  0  0  0  0  0  0  0
   -5.3675    0.6299    1.3015 C   0  0  0  0  0  0  0  0  0  0  0  0
   -6.4412    0.4148    1.2127 H   0  0  0  0  0  0  0  0  0  0  0  0
   -1.5770   -2.5977   -1.5205 C   0  0  0  0  0  0  0  0  0  0  0  0
   -6.7181   -2.5562   -1.0908 C   0  0  0  0  0  0  0  0  0  0  0  0
   -6.4311   -2.4337   -2.1569 H   0  0  0  0  0  0  0  0  0  0  0  0
   -7.8188   -2.5348   -0.9996 H   0  0  0  0  0  0  0  0  0  0  0  0
   -6.3339   -3.5317   -0.7239 H   0  0  0  0  0  0  0  0  0  0  0  0
  2 19  2  0  0  0  0
  3  8  1  0  0  0  0
  5  4  1  0  0  0  0
  6  5  2  0  0  0  0
  6  8  1  0  0  0  0
  7  6  1  0  0  0  0
  8  9  2  0  0  0  0
  9 10  1  0  0  0  0
  9 17  1  0  0  0  0
 10  4  1  1  0  0  0
 10 11  1  0  0  0  0
 11 12  1  0  0  0  0
 11 13  2  0  0  0  0
 13 14  1  0  0  0  0
 15 13  1  0  0  0  0
 15 16  1  0  0  0  0
 17 15  2  0  0  0  0
 18 17  1  0  0  0  0
 19  1  1  0  0  0  0
 19  5  1  0  0  0  0
 20 22  1  0  0  0  0
 20 23  1  0  0  0  0
 20  3  1  0  0  0  0
 21 20  1  0  0  0  0
M  CHG  1   1  -1
M  END
