2,4
q = -2.0, confidence = 0.84

 33 34  0  0  0  0  0  0  0  0999 V2000
   -2.7713    3.3102    0.4268 O   0  0  0  0  0  0  0  0  0  0  0  0
   -1.0793    1.4928   -0.5343 O   0  5  0  0  0  0  0  0  0  0  0  0
    4.5414    1.2188   -0.4947 O   0  0  0  0  0  0  0  0  0  0  0  0
    1.4490    0.6881   -0.8632 N   0  0  0  0  0  2  0  0  0  0  0  0
   -1.5075    3.7409    0.1364 C   0  0  0  0  0  0  0  0  0  0  0  0
   -1.0541    5.0579    0.2913 C   0  0  0  0  0  0  0  0  0  0  0  0
   -1.7271    5.8327    0.6834 H   0  0  0  0  0  0  0  0  0  0  0  0
    0.2757    5.3925   -0.0353 C   0  0  0  0  0  0  0  0  0  0  0  0
    0.6262    6.4247    0.1116 H   0  0  0  0  0  0  0  0  0  0  0  0
    1.1436    4.4149   -0.5330 C   0  0  0  0  0  0  0  0  0  0  0  0
    2.1830    4.6723   -0.7908 H   0  0  0  0  0  0  0  0  0  0  0  0
    0.6962    3.0930   -0.7119 C   0  0  0  0  0  0  0  0  0  0  0  0
   -0.6269    2.7234   -0.3693 C   0  0  0  0  0  0  0  0  0  0  0  0
    1.5605    2.0516   -1.3516 C   0  0  0  0  0  0  0  0  0  0  0  0
    2.6237    2.3756   -1.3016 H   0  0  0  0  0  0  0  0  0  0  0  0
    1.3185    2.0174   -2.4491 H   0  0  0  0  0  0  0  0  0  0  0  0
    2.6177   -0.1103   -1.2481 C   0  0  0  0  0  0  0  0  0  0  0  0
    2.9374    0.1727   -2.2769 H   0  0  0  0  0  0  0  0  0  0  0  0
    2.3641   -1.1820   -1.2160 H   0  0  0  0  0  0  0  0  0  0  0  0
    3.7448    0.1139   -0.2919 C   0  0  0  0  0  0  0  0  0  0  0  0
    4.1330   -0.5288    0.8644 C   0  0  0  0  0  0  0  0  0  0  0  0
    3.6479   -1.4240    1.2641 H   0  0  0  0  0  0  0  0  0  0  0  0
    5.2423    0.2136    1.3864 C   0  0  0  0  0  0  0  0  0  0  0  0
    5.8212   -0.0022    2.2915 H   0  0  0  0  0  0  0  0  0  0  0  0
    5.4534    1.2749    0.5294 C   0  0  0  0  0  0  0  0  0  0  0  0
    6.4294    2.3954    0.5005 C   0  0  0  0  0  0  0  0  0  0  0  0
    7.0488    2.3771   -0.4214 H   0  0  0  0  0  0  0  0  0  0  0  0
    5.9196    3.3819    0.5326 H   0  0  0  0  0  0  0  0  0  0  0  0
    7.1060    2.3286    1.3725 H   0  0  0  0  0  0  0  0  0  0  0  0
   -3.7141    4.2528    0.8926 C   0  0  0  0  0  0  0  0  0  0  0  0
   -4.6609    3.6996    1.0376 H   0  0  0  0  0  0  0  0  0  0  0  0
   -3.8794    5.0705    0.1551 H   0  0  0  0  0  0  0  0  0  0  0  0
   -3.4045    4.7080    1.8609 H   0  0  0  0  0  0  0  0  0  0  0  0
  1 30  1  0  0  0  0
  2 13  1  0  0  0  0
  3 20  1  0  0  0  0
  3 25  1  0  0  0  0
  5  6  1  0  0  0  0
  5  1  1  0  0  0  0
  6  7  1  0  0  0  0
  8  9  1  0  0  0  0
  8  6  2  0  0  0  0
 10  8  1  0  0  0  0
 11 10  1  0  0  0  0
 12 10  2  0  0  0  0
 12 13  1  0  0  0  0
 13  5  2  0  0  0  0
 14 15  1  0  0  0  0
 14  4  1  0  0  0  0
 14 12  1  0  0  0  0
 16 14  1  0  0  0  0
 17 19  1  0  0  0  0
 17  4  1  0  0  0  0
 17 20  1  0  0  0  0
 18 17  1  0  0  0  0
 20 21  2  0  0  0  0
 21 22  1  0  0  0  0
 21 23  1  0  0  0  0
 23 24  1  0  0  0  0
 25 23  2  0  0  0  0
 26 25  1  0  0  0  0
 26 28  1  0  0  0  0
 26 29  1  0  0  0  0
 27 26  1  0  0  0  0
 30 31  1  0  0  0  0
 30 33  1  0  0  0  0
 32 30  1  0  0  0  0
M  CHG  1   2  -1
M  END
