1,2
q = -1.0

 55 60  0  0  0  0  0  0  0  0999 V2000
    1.1450    0.2491   -0.5464 O   0  5  0  0  0  0  0  0  0  0  0  0
   -1.4108    0.3812   -1.5040 N   0  0  0  0  0  2  0  0  0  0  0  0
   -3.4083    1.0678   -0.4771 N   0  0  0  0  0  0  0  0  0  0  0  0
   -6.6756    1.7408    0.9494 N   0  0  0  0  0  0  0  0  0  0  0  0
   -2.8474    0.3760   -1.4678 C   0  0  0  0  0  0  0  0  0  0  0  0
   -4.7519    1.0430   -0.3492 C   0  0  0  0  0  0  0  0  0  0  0  0
   -5.3366    1.8047    0.7894 C   0  0  0  0  0  0  0  0  0  0  0  0
   -7.2236    2.4053    1.9734 C   0  0  0  0  0  0  0  0  0  0  0  0
   -8.3216    2.3301    2.0740 H   0  0  0  0  0  0  0  0  0  0  0  0
   -6.4819    3.1676    2.8925 C   0  0  0  0  0  0  0  0  0  0  0  0
   -6.9867    3.6922    3.7174 H   0  0  0  0  0  0  0  0  0  0  0  0
   -5.0908    3.2378    2.7219 C   0  0  0  0  0  0  0  0  0  0  0  0
   -4.4687    3.8256    3.4144 H   0  0  0  0  0  0  0  0  0  0  0  0
   -4.5048    2.5485    1.6550 C   0  0  0  0  0  0  0  0  0  0  0  0
   -3.4232    2.5651    1.4631 H   0  0  0  0  0  0  0  0  0  0  0  0
   -5.5790    0.3224   -1.2330 C   0  0  0  0  0  0  0  0  0  0  0  0
   -6.6634    0.3290   -1.0614 H   0  0  0  0  0  0  0  0  0  0  0  0
   -4.9792   -0.3703   -2.2914 C   0  0  0  0  0  0  0  0  0  0  0  0
   -5.5925   -0.9421   -3.0040 H   0  0  0  0  0  0  0  0  0  0  0  0
   -3.5862   -0.3441   -2.4265 C   0  0  0  0  0  0  0  0  0  0  0  0
   -3.0674   -0.8909   -3.2244 H   0  0  0  0  0  0  0  0  0  0  0  0
   -0.8648    1.2688   -2.3170 C   0  0  0  0  0  0  0  0  0  0  0  0
   -1.5599    1.8513   -2.9539 H   0  0  0  0  0  0  0  0  0  0  0  0
    0.5247    1.5823   -2.4438 C   0  0  0  0  0  0  0  0  0  0  0  0
    1.4782    1.0612   -1.4933 C   0  0  0  0  0  0  0  0  0  0  0  0
    2.8564    1.4768   -1.6041 C   0  0  0  0  0  0  0  0  0  0  0  0
    3.2311    2.3385   -2.6383 C   0  0  0  0  0  0  0  0  0  0  0  0
    4.2900    2.6306   -2.7198 H   0  0  0  0  0  0  0  0  0  0  0  0
    2.2933    2.8407   -3.5738 C   0  0  0  0  0  0  0  0  0  0  0  0
    2.6241    3.5176   -4.3745 H   0  0  0  0  0  0  0  0  0  0  0  0
    0.9576    2.4752   -3.4632 C   0  0  0  0  0  3  0  0  0  0  0  0
    0.2108    2.8699   -4.1711 H   0  0  0  0  0  0  0  0  0  0  0  0
    3.8278    0.9874   -0.5852 C   0  0  0  0  0  0  0  0  0  0  0  0
    4.4085    1.9047    0.3373 C   0  0  0  0  0  0  0  0  0  0  0  0
    5.3456    1.4240    1.3411 C   0  0  0  0  0  0  0  0  0  0  0  0
    5.9315    2.3612    2.2544 C   0  0  0  0  0  0  0  0  0  0  0  0
    6.6488    1.9832    2.9999 H   0  0  0  0  0  0  0  0  0  0  0  0
    5.6044    3.7015    2.2096 C   0  0  0  0  0  0  0  0  0  0  0  0
    6.0617    4.4081    2.9189 H   0  0  0  0  0  0  0  0  0  0  0  0
    4.6600    4.1727    1.2485 C   0  0  0  0  0  0  0  0  0  0  0  0
    4.3868    5.2389    1.2328 H   0  0  0  0  0  0  0  0  0  0  0  0
    4.0813    3.3027    0.3442 C   0  0  0  0  0  0  0  0  0  0  0  0
    3.3476    3.6740   -0.3845 H   0  0  0  0  0  0  0  0  0  0  0  0
    5.6460    0.0518    1.4057 C   0  0  0  0  0  0  0  0  0  0  0  0
    6.3523   -0.3086    2.1710 H   0  0  0  0  0  0  0  0  0  0  0  0
    5.0620   -0.8717    0.5198 C   0  0  0  0  0  0  0  0  0  0  0  0
    5.3510   -2.2736    0.6036 C   0  0  0  0  0  0  0  0  0  0  0  0
    6.0522   -2.6161    1.3810 H   0  0  0  0  0  0  0  0  0  0  0  0
    4.7634   -3.1745   -0.2611 C   0  0  0  0  0  0  0  0  0  0  0  0
    4.9879   -4.2490   -0.1803 H   0  0  0  0  0  0  0  0  0  0  0  0
    3.8675   -2.7124   -1.2725 C   0  0  0  0  0  0  0  0  0  0  0  0
    3.4111   -3.4353   -1.9656 H   0  0  0  0  0  0  0  0  0  0  0  0
    3.5757   -1.3676   -1.3926 C   0  0  0  0  0  0  0  0  0  0  0  0
    2.8967   -1.0201   -2.1829 H   0  0  0  0  0  0  0  0  0  0  0  0
    4.1425   -0.3987   -0.4999 C   0  0  0  0  0  0  0  0  0  0  0  0
  2  5  1  0  0  0  0
  3  6  1  0  0  0  0
  4  8  1  0  0  0  0
  5  3  2  0  0  0  0
  6  7  1  0  0  0  0
  7  4  2  0  0  0  0
  7 14  1  0  0  0  0
  8  9  1  0  0  0  0
  8 10  2  0  0  0  0
 10 11  1  0  0  0  0
 12 10  1  0  0  0  0
 12 13  1  0  0  0  0
 14 12  2  0  0  0  0
 15 14  1  0  0  0  0
 16 17  1  0  0  0  0
 16  6  2  0  0  0  0
 18 16  1  0  0  0  0
 19 18  1  0  0  0  0
 20 18  2  0  0  0  0
 20  5  1  0  0  0  0
 21 20  1  0  0  0  0
 22  2  1  0  0  0  0
 23 22  1  0  0  0  0
 24 22  2  0  0  0  0
 24 25  1  0  0  0  0
 25  1  1  0  0  0  0
 26 25  2  0  0  0  0
 26 33  1  0  0  0  0
 27 26  1  0  0  0  0
 28 27  1  0  0  0  0
 29 31  1  0  0  0  0
 29 27  2  0  0  0  0
 30 29  1  0  0  0  0
 31 24  1  0  0  0  0
 32 31  1  0  0  0  0
 33 55  2  0  0  0  0
 33 34  1  0  0  0  0
 34 42  2  0  0  0  0
 34 35  1  0  0  0  0
 35 44  1  0  0  0  0
 35 36  2  0  0  0  0
 36 37  1  0  0  0  0
 38 36  1  0  0  0  0
 38 39  1  0  0  0  0
 40 38  2  0  0  0  0
 41 40  1  0  0  0  0
 42 40  1  0  0  0  0
 43 42  1  0  0  0  0
 44 45  1  0  0  0  0
 46 47  1  0  0  0  0
 46 44  2  0  0  0  0
 47 48  1  0  0  0  0
 49 50  1  0  0  0  0
 49 47  2  0  0  0  0
 51 49  1  0  0  0  0
 52 51  1  0  0  0  0
 53 51  2  0  0  0  0
 53 55  1  0  0  0  0
 54 53  1  0  0  0  0
 55 46  1  0  0  0  0
M  CHG  1   1  -1
M  END
