2,3
q = -1.0

 10 10  0  0  0  0  0  0  0  0999 V2000
    4.2314   -1.1035    0.3636 S   0  0  0  0  0  0  0  0  0  0  0  0
    0.4894    1.7907   -0.3317 O   0  5  0  0  0  0  0  0  0  0  0  0
    1.8169   -0.3173    0.2176 N   0  0  0  0  0  2  0  0  0  0  0  0
    2.5844    0.7912   -0.0886 C   0  0  0  0  0  0  0  0  0  0  0  0
    2.3025    3.1210   -0.6279 O   0  0  0  0  0  0  0  0  0  0  0  0
    3.9373    0.5532   -0.0558 C   0  0  0  0  0  0  0  0  0  0  0  0
    4.7474    1.2627   -0.2596 H   0  0  0  0  0  0  0  0  0  0  0  0
    2.5309   -1.3954    0.4787 C   0  0  0  0  0  3  0  0  0  0  0  0
    2.0857   -2.3693    0.7223 H   0  0  0  0  0  0  0  0  0  0  0  0
    1.7954    2.0378   -0.3888 C   0  0  0  0  0  0  0  0  0  0  0  0
  1  8  1  0  0  0  0
  3  8  1  0  0  0  0
  4  6  2  0  0  0  0
  4  3  1  0  0  0  0
  5 10  2  0  0  0  0
  6  1  1  0  0  0  0
  7  6  1  0  0  0  0
  8  9  1  0  0  0  0
 10  2  1  0  0  0  0
 10  4  1  0  0  0  0
M  CHG  1   2  -1
M  END
