1,2
q = -1.0

 27 28  0  0  0  0  0  0  0  0999 V2000
   -1.2029   -1.9815   -0.0157 O   0  5  0  0  0  0  0  0  0  0  0  0
   -1.2461    0.8101   -0.6373 N   0  0  0  0  0  2  0  0  0  0  0  0
    0.6647    2.0360   -0.4846 N   0  0  0  0  0  0  0  0  0  0  0  0
   -3.1305   -0.7337   -0.8310 C   0  0  0  0  0  0  0  0  0  0  0  0
   -2.4511   -1.9391   -0.3755 C   0  0  0  0  0  0  0  0  0  0  0  0
   -3.2214   -3.1464   -0.3599 C   0  0  0  0  0  0  0  0  0  0  0  0
   -2.7081   -4.0549   -0.0117 H   0  0  0  0  0  0  0  0  0  0  0  0
   -4.5571   -3.1715   -0.7384 C   0  0  0  0  0  0  0  0  0  0  0  0
   -5.1124   -4.1221   -0.6970 H   0  0  0  0  0  0  0  0  0  0  0  0
   -5.2186   -1.9937   -1.1717 C   0  0  0  0  0  0  0  0  0  0  0  0
   -6.2768   -2.0241   -1.4676 H   0  0  0  0  0  0  0  0  0  0  0  0
   -4.5039   -0.8070   -1.2165 C   0  0  0  0  0  0  0  0  0  0  0  0
   -4.9938    0.1200   -1.5579 H   0  0  0  0  0  0  0  0  0  0  0  0
   -2.4853    0.5353   -0.9700 C   0  0  0  0  0  3  0  0  0  0  0  0
   -3.1152    1.3349   -1.4157 H   0  0  0  0  0  0  0  0  0  0  0  0
   -0.6439    2.0637   -0.8085 C   0  0  0  0  0  0  0  0  0  0  0  0
   -1.2870    3.2428   -1.2460 C   0  0  0  0  0  0  0  0  0  0  0  0
   -2.3588    3.2458   -1.4938 H   0  0  0  0  0  0  0  0  0  0  0  0
   -0.5503    4.4324   -1.3497 C   0  0  0  0  0  0  0  0  0  0  0  0
    0.8193    4.3839   -1.0069 C   0  0  0  0  0  0  0  0  0  0  0  0
    1.4457    5.2867   -1.0659 H   0  0  0  0  0  0  0  0  0  0  0  0
    1.3706    3.1688   -0.5824 C   0  0  0  0  0  0  0  0  0  0  0  0
    2.4371    3.1030   -0.3044 H   0  0  0  0  0  0  0  0  0  0  0  0
   -1.1921    5.7199   -1.7933 C   0  0  0  0  0  0  0  0  0  0  0  0
   -0.6437    6.1642   -2.6490 H   0  0  0  0  0  0  0  0  0  0  0  0
   -1.1720    6.4704   -0.9758 H   0  0  0  0  0  0  0  0  0  0  0  0
   -2.2464    5.5729   -2.0955 H   0  0  0  0  0  0  0  0  0  0  0  0
  4  5  1  0  0  0  0
  5  6  2  0  0  0  0
  5  1  1  0  0  0  0
  6  7  1  0  0  0  0
  8  9  1  0  0  0  0
  8  6  1  0  0  0  0
 10  8  2  0  0  0  0
 11 10  1  0  0  0  0
 12 10  1  0  0  0  0
 12  4  2  0  0  0  0
 13 12  1  0  0  0  0
 14  4  1  0  0  0  0
 14  2  1  0  0  0  0
 15 14  1  0  0  0  0
 16  2  1  0  0  0  0
 16  3  2  0  0  0  0
 17 16  1  0  0  0  0
 18 17  1  0  0  0  0
 19 17  2  0  0  0  0
 19 20  1  0  0  0  0
 20 22  2  0  0  0  0
 21 20  1  0  0  0  0
 22  3  1  0  0  0  0
 22 23  1  0  0  0  0
 24 19  1  0  0  0  0
 24 26  1  0  0  0  0
 25 24  1  0  0  0  0
 27 24  1  0  0  0  0
M  CHG  1   1  -1
M  END
