4,5
q = -1.0

 34 34  0  0  1  0  0  0  0  0999 V2000
   -2.2364    2.4068    1.5193 F   0  0  0  0  0  0  0  0  0  0  0  0
   -1.8287    3.2183   -0.4704 F   0  0  0  0  0  0  0  0  0  0  0  0
   -0.5760    3.7732    1.2217 F   0  0  0  0  0  0  0  0  0  0  0  0
   -0.8293    0.3652    0.0754 N   0  0  0  0  0  2  0  0  0  0  0  0
    1.6043   -0.1049   -0.8334 O   0  5  0  0  0  0  0  0  0  0  0  0
   -2.2083    0.2187   -0.2723 C   0  0  0  0  0  0  0  0  0  0  0  0
   -2.6200    0.5615   -1.5764 C   0  0  0  0  0  0  0  0  0  0  0  0
   -1.8843    0.9885   -2.2738 H   0  0  0  0  0  0  0  0  0  0  0  0
   -3.9500    0.3593   -1.9717 C   0  0  0  0  0  0  0  0  0  0  0  0
   -4.2596    0.6279   -2.9930 H   0  0  0  0  0  0  0  0  0  0  0  0
   -4.8804   -0.1782   -1.0693 C   0  0  0  0  0  0  0  0  0  0  0  0
   -5.9241   -0.3367   -1.3793 H   0  0  0  0  0  0  0  0  0  0  0  0
   -4.4722   -0.5055    0.2346 C   0  0  0  0  0  0  0  0  0  0  0  0
   -5.1984   -0.9153    0.9529 H   0  0  0  0  0  0  0  0  0  0  0  0
   -3.1441   -0.3123    0.6375 C   0  0  0  0  0  0  0  0  0  0  0  0
   -2.8066   -0.5775    1.6477 H   0  0  0  0  0  0  0  0  0  0  0  0
   -0.3186    1.5589    0.3561 C   0  0  2  0  0  3  0  0  0  0  0  0
   -1.2552    2.7469    0.6621 C   0  0  0  0  0  0  0  0  0  0  0  0
    1.0671    1.8573    0.3354 C   0  0  0  0  0  0  0  0  0  0  0  0
    1.3912    2.8404    0.6904 H   0  0  0  0  0  0  0  0  0  0  0  0
    1.9648    1.0497   -0.3785 C   0  0  0  0  0  0  0  0  0  0  0  0
    3.3970    1.5084   -0.6875 C   0  0  0  0  0  0  0  0  0  0  0  0
    3.3738    2.8344   -1.4761 C   0  0  0  0  0  0  0  0  0  0  0  0
    4.4114    3.1562   -1.6998 H   0  0  0  0  0  0  0  0  0  0  0  0
    2.8834    3.6483   -0.9063 H   0  0  0  0  0  0  0  0  0  0  0  0
    2.8368    2.7185   -2.4392 H   0  0  0  0  0  0  0  0  0  0  0  0
    4.1162    1.7046    0.6687 C   0  0  0  0  0  0  0  0  0  0  0  0
    4.0900    0.7712    1.2647 H   0  0  0  0  0  0  0  0  0  0  0  0
    3.6516    2.5119    1.2689 H   0  0  0  0  0  0  0  0  0  0  0  0
    5.1754    1.9807    0.4881 H   0  0  0  0  0  0  0  0  0  0  0  0
    4.1215    0.4212   -1.4980 C   0  0  0  0  0  0  0  0  0  0  0  0
    4.1194   -0.5405   -0.9494 H   0  0  0  0  0  0  0  0  0  0  0  0
    5.1706    0.7283   -1.6800 H   0  0  0  0  0  0  0  0  0  0  0  0
    3.6326    0.2561   -2.4783 H   0  0  0  0  0  0  0  0  0  0  0  0
  2 18  1  0  0  0  0
  5 21  1  0  0  0  0
  6  4  1  0  0  0  0
  6 15  1  0  0  0  0
  7  6  2  0  0  0  0
  8  7  1  0  0  0  0
  9  7  1  0  0  0  0
  9 11  2  0  0  0  0
 10  9  1  0  0  0  0
 11 13  1  0  0  0  0
 12 11  1  0  0  0  0
 13 15  2  0  0  0  0
 13 14  1  0  0  0  0
 15 16  1  0  0  0  0
 17  4  1  6  0  0  0
 17 18  1  0  0  0  0
 18  3  1  0  0  0  0
 18  1  1  0  0  0  0
 19 17  1  0  0  0  0
 19 20  1  0  0  0  0
 21 19  2  0  0  0  0
 22 21  1  0  0  0  0
 22 27  1  0  0  0  0
 23 25  1  0  0  0  0
 23 22  1  0  0  0  0
 24 23  1  0  0  0  0
 26 23  1  0  0  0  0
 27 28  1  0  0  0  0
 27 29  1  0  0  0  0
 30 27  1  0  0  0  0
 31 32  1  0  0  0  0
 31 22  1  0  0  0  0
 33 31  1  0  0  0  0
 34 31  1  0  0  0  0
M  CHG  1   5  -1
M  END
