1,3
q = -1.0

 28 30  0  0  1  0  0  0  0  0999 V2000
    0.5244   -1.9197    0.9211 N   0  0  0  0  0  2  0  0  0  0  0  0
    0.3868   -2.8932    1.8605 N   0  0  0  0  0  0  0  0  0  0  0  0
    0.3074   -0.9027   -1.5276 O   0  5  0  0  0  0  0  0  0  0  0  0
    1.6044   -0.6399   -1.5273 C   0  0  0  0  0  0  0  0  0  0  0  0
    2.1754   -0.0435   -2.6920 C   0  0  0  0  0  0  0  0  0  0  0  0
    1.5161    0.1131   -3.5558 H   0  0  0  0  0  0  0  0  0  0  0  0
    3.4957    0.3458   -2.6946 C   0  0  0  0  0  0  0  0  0  0  0  0
    3.9312    0.8234   -3.5857 H   0  0  0  0  0  0  0  0  0  0  0  0
    4.3128    0.1845   -1.5340 C   0  0  0  0  0  0  0  0  0  0  0  0
    3.7689   -0.4762   -0.3700 C   0  0  0  0  0  0  0  0  0  0  0  0
    2.4080   -0.9613   -0.4087 C   0  0  0  0  0  0  0  0  0  0  0  0
    1.8582   -1.8427    0.6225 C   0  0  2  0  0  3  0  0  0  0  0  0
    2.5564   -2.8110    1.3949 C   0  0  0  0  0  0  0  0  0  0  0  0
    3.6217   -3.0468    1.3473 H   0  0  0  0  0  0  0  0  0  0  0  0
    1.5923   -3.4414    2.1656 C   0  0  0  0  0  0  0  0  0  0  0  0
    1.6677   -4.2387    2.9118 H   0  0  0  0  0  0  0  0  0  0  0  0
   -0.8800   -3.2367    2.4850 C   0  0  0  0  0  0  0  0  0  0  0  0
   -0.6939   -4.1049    3.1420 H   0  0  0  0  0  0  0  0  0  0  0  0
   -1.6147   -3.5127    1.7023 H   0  0  0  0  0  0  0  0  0  0  0  0
   -1.2685   -2.3888    3.0782 H   0  0  0  0  0  0  0  0  0  0  0  0
    5.6446    0.6837   -1.5017 C   0  0  0  0  0  0  0  0  0  0  0  0
    6.0399    1.1715   -2.4066 H   0  0  0  0  0  0  0  0  0  0  0  0
    6.4268    0.5797   -0.3599 C   0  0  0  0  0  0  0  0  0  0  0  0
    7.4529    0.9763   -0.3489 H   0  0  0  0  0  0  0  0  0  0  0  0
    5.8835   -0.0233    0.8012 C   0  0  0  0  0  0  0  0  0  0  0  0
    6.4836   -0.0763    1.7225 H   0  0  0  0  0  0  0  0  0  0  0  0
    4.5932   -0.5401    0.7944 C   0  0  0  0  0  0  0  0  0  0  0  0
    4.1870   -0.9736    1.7178 H   0  0  0  0  0  0  0  0  0  0  0  0
  1  2  1  0  0  0  0
  2 15  1  0  0  0  0
  2 17  1  0  0  0  0
  3  4  1  0  0  0  0
  4 11  1  0  0  0  0
  5  4  2  0  0  0  0
  6  5  1  0  0  0  0
  7  5  1  0  0  0  0
  7  9  2  0  0  0  0
  8  7  1  0  0  0  0
  9 21  1  0  0  0  0
  9 10  1  0  0  0  0
 10 27  1  0  0  0  0
 11 10  2  0  0  0  0
 12 11  1  6  0  0  0
 12  1  1  0  0  0  0
 12 13  1  0  0  0  0
 13 15  2  0  0  0  0
 14 13  1  0  0  0  0
 15 16  1  0  0  0  0
 17 20  1  0  0  0  0
 17 18  1  0  0  0  0
 19 17  1  0  0  0  0
 21 23  2  0  0  0  0
 22 21  1  0  0  0  0
 23 24  1  0  0  0  0
 23 25  1  0  0  0  0
 25 26  1  0  0  0  0
 27 25  2  0  0  0  0
 27 28  1  0  0  0  0
M  CHG  1   3  -1
M  END
