1,2
q = -1.0

 22 23  0  0  1  0  0  0  0  0999 V2000
   -0.2336    0.2864   -1.2714 O   0  5  0  0  0  0  0  0  0  0  0  0
    2.1925   -0.0554   -0.1852 N   0  0  0  0  0  2  0  0  0  0  0  0
    2.3749    1.2311   -0.6165 C   0  0  2  0  0  3  0  0  0  0  0  0
    3.4321   -0.5824    0.0142 N   0  0  0  0  0  0  0  0  0  0  0  0
   -0.0045    1.5932   -1.3219 C   0  0  0  0  0  0  0  0  0  0  0  0
   -0.8159    3.8494   -1.7753 C   0  0  0  0  0  0  0  0  0  0  0  0
   -1.6302    4.5203   -2.0895 H   0  0  0  0  0  0  0  0  0  0  0  0
    1.2713    2.1247   -0.9580 C   0  0  0  0  0  0  0  0  0  0  0  0
    0.4324    4.3840   -1.4010 C   0  0  0  0  0  0  0  0  0  0  0  0
    0.5997    5.4709   -1.4185 H   0  0  0  0  0  0  0  0  0  0  0  0
    3.6476   -1.9403    0.4880 C   0  0  0  0  0  0  0  0  0  0  0  0
    4.7293   -2.1498    0.4118 H   0  0  0  0  0  0  0  0  0  0  0  0
    3.0761   -2.6390   -0.1546 H   0  0  0  0  0  0  0  0  0  0  0  0
    3.3101   -2.0538    1.5352 H   0  0  0  0  0  0  0  0  0  0  0  0
   -1.0326    2.4698   -1.7408 C   0  0  0  0  0  0  0  0  0  0  0  0
   -1.9999    2.0248   -2.0150 H   0  0  0  0  0  0  0  0  0  0  0  0
    1.4615    3.5248   -1.0037 C   0  0  0  0  0  0  0  0  0  0  0  0
    2.4354    3.9425   -0.7063 H   0  0  0  0  0  0  0  0  0  0  0  0
    3.7663    1.5072   -0.6696 C   0  0  0  0  0  0  0  0  0  0  0  0
    4.2423    2.4323   -1.0053 H   0  0  0  0  0  0  0  0  0  0  0  0
    4.3952    0.3414   -0.2547 C   0  0  0  0  0  0  0  0  0  0  0  0
    5.4543    0.0899   -0.1390 H   0  0  0  0  0  0  0  0  0  0  0  0
  2  4  1  0  0  0  0
  3  8  1  6  0  0  0
  3  2  1  0  0  0  0
  4 11  1  0  0  0  0
  5  1  1  0  0  0  0
  5  8  1  0  0  0  0
  6 15  1  0  0  0  0
  6  9  2  0  0  0  0
  7  6  1  0  0  0  0
  9 17  1  0  0  0  0
 10  9  1  0  0  0  0
 11 14  1  0  0  0  0
 12 11  1  0  0  0  0
 13 11  1  0  0  0  0
 15  5  2  0  0  0  0
 16 15  1  0  0  0  0
 17  8  2  0  0  0  0
 17 18  1  0  0  0  0
 19  3  1  0  0  0  0
 19 21  2  0  0  0  0
 20 19  1  0  0  0  0
 21 22  1  0  0  0  0
 21  4  1  0  0  0  0
M  CHG  1   1  -1
M  END
