11,17
q = -1.0, confidence = 0.006

 17 16  0  0  1  0  0  0  0  0999 V2000
   -2.9899   -1.0807   -0.8542 C   0  0  0  0  0  0  0  0  0  0  0  0
   -1.9769   -1.7753   -1.7208 C   0  0  1  0  0  3  0  0  0  0  0  0
   -3.4597    0.5776    0.7720 C   0  0  0  0  0  0  0  0  0  0  0  0
   -3.7468    0.0024    1.6861 H   0  0  0  0  0  0  0  0  0  0  0  0
   -4.4084    0.7195    0.2125 H   0  0  0  0  0  0  0  0  0  0  0  0
   -2.9032    1.9365    1.2867 C   0  0  0  0  0  0  0  0  0  0  0  0
   -2.4555   -2.9570   -2.4802 C   0  0  0  0  0  0  0  0  0  0  0  0
   -2.9100   -3.6801   -1.7728 H   0  0  0  0  0  0  0  0  0  0  0  0
   -1.6675   -3.4423   -3.0869 H   0  0  0  0  0  0  0  0  0  0  0  0
   -3.3045   -2.6358   -3.1183 H   0  0  0  0  0  0  0  0  0  0  0  0
   -2.4848   -0.1566   -0.0089 N   0  0  0  0  0  2  0  0  0  0  0  0
   -0.7382   -1.3478   -1.8591 N   0  0  0  0  0  0  0  0  0  0  0  0
   -0.4353   -0.5115   -1.3118 H   0  0  0  0  0  0  0  0  0  0  0  0
   -0.0601   -1.8403   -2.4469 H   0  0  0  0  0  0  0  0  0  0  0  0
   -4.1829   -1.4290   -1.0015 O   0  0  0  0  0  0  0  0  0  0  0  0
   -3.7029    2.8076    1.6274 O   0  5  0  0  0  0  0  0  0  0  0  0
   -1.6062    2.0224    1.3577 O   0  0  0  0  0  0  0  0  0  0  0  0
  1 11  1  0  0  0  0
  2  1  1  6  0  0  0
  3  6  1  0  0  0  0
  3  4  1  0  0  0  0
  5  3  1  0  0  0  0
  6 17  2  0  0  0  0
  6 16  1  0  0  0  0
  7  8  1  0  0  0  0
  7  2  1  0  0  0  0
  9  7  1  0  0  0  0
 10  7  1  0  0  0  0
 11  3  1  0  0  0  0
 12  2  1  0  0  0  0
 12 13  1  0  0  0  0
 14 12  1  0  0  0  0
 15  1  2  0  0  0  0
M  CHG  1  16  -1
M  END
