1,8
q = -1.0

 36 37  0  0  1  0  0  0  0  0999 V2000
   -1.9847   -0.4360    0.0652 O   0  0  0  0  0  1  0  0  0  0  0  0
   -3.6036   -2.0373   -0.4271 N   0  0  0  0  0  0  0  0  0  0  0  0
   -2.3213   -1.6396   -0.2026 C   0  0  2  0  0  3  0  0  0  0  0  0
   -3.7084   -3.3924   -0.6783 N   0  0  0  0  0  0  0  0  0  0  0  0
   -1.5251   -2.8413   -0.3189 C   0  0  0  0  0  0  0  0  0  0  0  0
   -0.2123   -2.9924   -0.1170 N   0  0  0  0  0  0  0  0  0  0  0  0
   -2.4827   -3.8871   -0.6169 C   0  0  0  0  0  0  0  0  0  0  0  0
    0.5491   -1.9997    0.1782 N   0  0  0  0  0  2  0  0  0  0  0  0
   -4.7879   -1.1770   -0.3972 C   0  0  0  0  0  0  0  0  0  0  0  0
   -4.3771   -0.1546   -0.2610 H   0  0  0  0  0  0  0  0  0  0  0  0
   -5.6700   -1.5239    0.8061 C   0  0  0  0  0  0  0  0  0  0  0  0
   -5.1060   -1.4108    1.7531 H   0  0  0  0  0  0  0  0  0  0  0  0
   -6.0278   -2.5704    0.7345 H   0  0  0  0  0  0  0  0  0  0  0  0
   -6.5502   -0.8513    0.8446 H   0  0  0  0  0  0  0  0  0  0  0  0
   -5.5357   -1.2562   -1.7301 C   0  0  0  0  0  0  0  0  0  0  0  0
   -4.8788   -0.9558   -2.5699 H   0  0  0  0  0  0  0  0  0  0  0  0
   -6.4142   -0.5811   -1.7170 H   0  0  0  0  0  0  0  0  0  0  0  0
   -5.8851   -2.2911   -1.9152 H   0  0  0  0  0  0  0  0  0  0  0  0
   -2.1913   -5.3330   -0.8384 C   0  0  0  0  0  0  0  0  0  0  0  0
   -3.1348   -5.8870   -0.9979 H   0  0  0  0  0  0  0  0  0  0  0  0
   -1.6553   -5.7670    0.0303 H   0  0  0  0  0  0  0  0  0  0  0  0
   -1.5359   -5.4781   -1.7220 H   0  0  0  0  0  0  0  0  0  0  0  0
    1.9276   -2.3376    0.3527 C   0  0  0  0  0  0  0  0  0  0  0  0
    2.5958   -3.1362   -0.5914 C   0  0  0  0  0  0  0  0  0  0  0  0
    2.0339   -3.5262   -1.4519 H   0  0  0  0  0  0  0  0  0  0  0  0
    3.9612   -3.4092   -0.4343 C   0  0  0  0  0  0  0  0  0  0  0  0
    4.4784   -4.0241   -1.1878 H   0  0  0  0  0  0  0  0  0  0  0  0
    4.6890   -2.9040    0.6619 C   0  0  0  0  0  0  0  0  0  0  0  0
    3.9925   -2.1281    1.6146 C   0  0  0  0  0  0  0  0  0  0  0  0
    4.5323   -1.7345    2.4907 H   0  0  0  0  0  0  0  0  0  0  0  0
    2.6329   -1.8413    1.4648 C   0  0  0  0  0  0  0  0  0  0  0  0
    2.1030   -1.2228    2.2027 H   0  0  0  0  0  0  0  0  0  0  0  0
    6.1660   -3.1647    0.8160 C   0  0  0  0  0  0  0  0  0  0  0  0
    6.7506   -2.2234    0.7322 H   0  0  0  0  0  0  0  0  0  0  0  0
    6.5420   -3.8625    0.0432 H   0  0  0  0  0  0  0  0  0  0  0  0
    6.4006   -3.5971    1.8107 H   0  0  0  0  0  0  0  0  0  0  0  0
  2  9  1  0  0  0  0
  2  3  1  0  0  0  0
  3  1  1  1  0  0  0
  4  7  2  0  0  0  0
  4  2  1  0  0  0  0
  5  3  1  0  0  0  0
  5  6  2  0  0  0  0
  6  8  1  0  0  0  0
  7  5  1  0  0  0  0
  8 23  1  0  0  0  0
  9 10  1  0  0  0  0
  9 11  1  0  0  0  0
 11 14  1  0  0  0  0
 11 12  1  0  0  0  0
 13 11  1  0  0  0  0
 15 17  1  0  0  0  0
 15  9  1  0  0  0  0
 16 15  1  0  0  0  0
 18 15  1  0  0  0  0
 19  7  1  0  0  0  0
 19 21  1  0  0  0  0
 20 19  1  0  0  0  0
 22 19  1  0  0  0  0
 23 31  1  0  0  0  0
 24 26  1  0  0  0  0
 24 23  2  0  0  0  0
 25 24  1  0  0  0  0
 26 28  2  0  0  0  0
 27 26  1  0  0  0  0
 28 33  1  0  0  0  0
 28 29  1  0  0  0  0
 29 30  1  0  0  0  0
 31 29  2  0  0  0  0
 31 32  1  0  0  0  0
 33 36  1  0  0  0  0
 34 33  1  0  0  0  0
 35 33  1  0  0  0  0
M  END
