7,11
q = -1.0, confidence = 0.016

 24 23  0  0  1  0  0  0  0  0999 V2000
    2.4177   -1.4961    0.1569 C   0  0  0  0  0  0  0  0  0  0  0  0
    2.8701   -0.0187    0.3533 C   0  0  1  0  0  0  0  0  0  0  0  0
    4.2709    0.2224   -0.1942 C   0  0  0  0  0  0  0  0  0  0  0  0
    4.8756    1.5946    0.1017 C   0  0  0  0  0  0  0  0  0  0  0  0
    6.3620    1.6866   -0.2886 C   0  0  0  0  0  0  0  0  0  0  0  0
    7.9275   -0.2938    0.0734 C   0  0  0  0  0  0  0  0  0  0  0  0
    1.8342    0.8993   -0.2072 N   0  0  0  0  0  0  0  0  0  0  0  0
    7.2311    0.8325    0.4991 N   0  0  0  0  0  0  0  0  0  0  0  0
    7.4687   -0.8678   -1.1111 N   0  0  0  0  0  0  0  0  0  0  0  0
    3.2436   -2.3984    0.1456 O   0  5  0  0  0  0  0  0  0  0  0  0
    1.1191   -1.6748    0.0502 O   0  0  0  0  0  0  0  0  0  0  0  0
    8.8976   -0.7230    0.6908 O   0  0  0  0  0  0  0  0  0  0  0  0
    2.8664    0.1516    1.4524 H   0  0  0  0  0  0  0  0  0  0  0  0
    1.8546    1.8322    0.2288 H   0  0  0  0  0  0  0  0  0  0  0  0
    1.9951    1.0442   -1.2167 H   0  0  0  0  0  0  0  0  0  0  0  0
    4.9003   -0.5801    0.2442 H   0  0  0  0  0  0  0  0  0  0  0  0
    4.2586    0.0365   -1.2938 H   0  0  0  0  0  0  0  0  0  0  0  0
    4.3218    2.3973   -0.4352 H   0  0  0  0  0  0  0  0  0  0  0  0
    4.7789    1.8179    1.1876 H   0  0  0  0  0  0  0  0  0  0  0  0
    7.6486    1.2272    1.3433 H   0  0  0  0  0  0  0  0  0  0  0  0
    6.4888    1.4235   -1.3603 H   0  0  0  0  0  0  0  0  0  0  0  0
    6.6984    2.7415   -0.1915 H   0  0  0  0  0  0  0  0  0  0  0  0
    6.4641   -0.8701   -1.2968 H   0  0  0  0  0  0  0  0  0  0  0  0
    7.9174   -1.7674   -1.2922 H   0  0  0  0  0  0  0  0  0  0  0  0
  1  2  1  0  0  0  0
  2 13  1  1  0  0  0
  3  4  1  0  0  0  0
  3 16  1  0  0  0  0
  3  2  1  0  0  0  0
  4 19  1  0  0  0  0
  5 22  1  0  0  0  0
  5  4  1  0  0  0  0
  5  8  1  0  0  0  0
  6  8  1  0  0  0  0
  6 12  2  0  0  0  0
  7 14  1  0  0  0  0
  7  2  1  0  0  0  0
  8 20  1  0  0  0  0
  9  6  1  0  0  0  0
 10  1  1  0  0  0  0
 11  1  2  0  0  0  0
 15  7  1  0  0  0  0
 17  3  1  0  0  0  0
 18  4  1  0  0  0  0
 21  5  1  0  0  0  0
 23  9  1  0  0  0  0
 24  9  1  0  0  0  0
M  CHG  1  10  -1
M  END
