1,16
q = -1.0, confidence = 0.0

 28 29  0  0  0  0  0  0  0  0999 V2000
   -0.8278   -1.6912   -1.0573 N   0  0  0  0  0  2  0  0  0  0  0  0
   -2.2412   -1.5190   -1.1825 C   0  0  0  0  0  0  0  0  0  0  0  0
   -3.1346   -2.2275   -0.3595 C   0  0  0  0  0  0  0  0  0  0  0  0
   -4.5180   -2.0674   -0.5307 C   0  0  0  0  0  0  0  0  0  0  0  0
   -5.0408   -1.2162   -1.5234 C   0  0  0  0  0  0  0  0  0  0  0  0
   -4.1266   -0.5090   -2.3343 C   0  0  0  0  0  0  0  0  0  0  0  0
   -2.7461   -0.6445   -2.1639 C   0  0  0  0  0  0  0  0  0  0  0  0
   -6.5252   -1.0662   -1.7293 C   0  0  0  0  0  0  0  0  0  0  0  0
   -0.3262   -2.8618   -1.3898 C   0  0  0  0  0  0  0  0  0  0  0  0
    1.0467   -3.2643   -1.4509 C   0  0  0  0  0  0  0  0  0  0  0  0
    1.3112   -4.6469   -1.6927 C   0  0  0  0  0  3  0  0  0  0  0  0
    2.6040   -5.1274   -1.8360 C   0  0  0  0  0  0  0  0  0  0  0  0
    3.6855   -4.2148   -1.7660 C   0  0  0  0  0  0  0  0  0  0  0  0
    3.4688   -2.8580   -1.5536 C   0  0  0  0  0  0  0  0  0  0  0  0
    2.1520   -2.3361   -1.3813 C   0  0  0  0  0  0  0  0  0  0  0  0
    2.0260   -1.0449   -1.2009 O   0  5  0  0  0  0  0  0  0  0  0  0
   -2.7436   -2.9006    0.4175 H   0  0  0  0  0  0  0  0  0  0  0  0
   -5.2075   -2.6241    0.1229 H   0  0  0  0  0  0  0  0  0  0  0  0
   -4.5068    0.1689   -3.1137 H   0  0  0  0  0  0  0  0  0  0  0  0
   -2.0415   -0.0901   -2.8011 H   0  0  0  0  0  0  0  0  0  0  0  0
   -6.8077   -0.0036   -1.8727 H   0  0  0  0  0  0  0  0  0  0  0  0
   -6.8567   -1.6107   -2.6387 H   0  0  0  0  0  0  0  0  0  0  0  0
   -7.1026   -1.4676   -0.8745 H   0  0  0  0  0  0  0  0  0  0  0  0
   -1.0626   -3.6348   -1.6903 H   0  0  0  0  0  0  0  0  0  0  0  0
    0.4549   -5.3365   -1.7621 H   0  0  0  0  0  0  0  0  0  0  0  0
    2.7875   -6.1969   -2.0096 H   0  0  0  0  0  0  0  0  0  0  0  0
    4.7168   -4.5832   -1.8811 H   0  0  0  0  0  0  0  0  0  0  0  0
    4.3031   -2.1439   -1.4995 H   0  0  0  0  0  0  0  0  0  0  0  0
  2  1  1  0  0  0  0
  2  3  1  0  0  0  0
  3 17  1  0  0  0  0
  4  3  2  0  0  0  0
  4 18  1  0  0  0  0
  5  4  1  0  0  0  0
  6  7  1  0  0  0  0
  6  5  2  0  0  0  0
  7  2  2  0  0  0  0
  8  5  1  0  0  0  0
  8 23  1  0  0  0  0
  9  1  1  0  0  0  0
 10  9  2  0  0  0  0
 10 15  1  0  0  0  0
 11 10  1  0  0  0  0
 12 13  2  0  0  0  0
 12 11  1  0  0  0  0
 13 14  1  0  0  0  0
 14 28  1  0  0  0  0
 14 15  2  0  0  0  0
 15 16  1  0  0  0  0
 19  6  1  0  0  0  0
 20  7  1  0  0  0  0
 21  8  1  0  0  0  0
 22  8  1  0  0  0  0
 24  9  1  0  0  0  0
 25 11  1  0  0  0  0
 26 12  1  0  0  0  0
 27 13  1  0  0  0  0
M  CHG  1  16  -1
M  END
