1,2
q = -1.0

 25 26  0  0  0  0  0  0  0  0999 V2000
    1.5878   -0.2955    0.0473 N   0  0  0  0  0  2  0  0  0  0  0  0
   -0.7563    1.4948    0.1247 O   0  5  0  0  0  0  0  0  0  0  0  0
    2.8489    5.6408   -0.0043 F   0  0  0  0  0  0  0  0  0  0  0  0
    0.1584    2.4300    0.0932 C   0  0  0  0  0  0  0  0  0  0  0  0
    1.5799    2.1878    0.0330 C   0  0  0  0  0  0  0  0  0  0  0  0
    2.4751    3.3014    0.0031 C   0  0  0  0  0  3  0  0  0  0  0  0
    3.5611    3.1320   -0.0401 H   0  0  0  0  0  0  0  0  0  0  0  0
    1.9934    4.5968    0.0281 C   0  0  0  0  0  0  0  0  0  0  0  0
    0.6054    4.8514    0.0903 C   0  0  0  0  0  0  0  0  0  0  0  0
    0.2540    5.8936    0.1110 H   0  0  0  0  0  0  0  0  0  0  0  0
   -0.2866    3.7884    0.1242 C   0  0  0  0  0  0  0  0  0  0  0  0
   -1.3713    3.9608    0.1733 H   0  0  0  0  0  0  0  0  0  0  0  0
    2.1774    0.8847    0.0263 C   0  0  0  0  0  0  0  0  0  0  0  0
    3.2832    0.8673    0.0263 H   0  0  0  0  0  0  0  0  0  0  0  0
    2.4546   -1.4406    0.0356 C   0  0  0  0  0  0  0  0  0  0  0  0
    2.4416   -2.3413    1.1154 C   0  0  0  0  0  0  0  0  0  0  0  0
    1.7414   -2.1715    1.9446 H   0  0  0  0  0  0  0  0  0  0  0  0
    3.3169   -3.4338    1.1149 C   0  0  0  0  0  0  0  0  0  0  0  0
    3.3098   -4.1332    1.9644 H   0  0  0  0  0  0  0  0  0  0  0  0
    4.1939   -3.6436    0.0372 C   0  0  0  0  0  0  0  0  0  0  0  0
    4.8733   -4.5090    0.0388 H   0  0  0  0  0  0  0  0  0  0  0  0
    4.1940   -2.7505   -1.0445 C   0  0  0  0  0  0  0  0  0  0  0  0
    4.8686   -2.9141   -1.8985 H   0  0  0  0  0  0  0  0  0  0  0  0
    3.3256   -1.6484   -1.0487 C   0  0  0  0  0  0  0  0  0  0  0  0
    3.2999   -0.9534   -1.9011 H   0  0  0  0  0  0  0  0  0  0  0  0
  3  8  1  0  0  0  0
  4 11  2  0  0  0  0
  4  2  1  0  0  0  0
  5  4  1  0  0  0  0
  6  8  1  0  0  0  0
  6  5  1  0  0  0  0
  7  6  1  0  0  0  0
  8  9  2  0  0  0  0
  9 10  1  0  0  0  0
  9 11  1  0  0  0  0
 11 12  1  0  0  0  0
 13 14  1  0  0  0  0
 13  5  2  0  0  0  0
 13  1  1  0  0  0  0
 15  1  1  0  0  0  0
 15 16  1  0  0  0  0
 16 17  1  0  0  0  0
 18 16  2  0  0  0  0
 18 19  1  0  0  0  0
 20 21  1  0  0  0  0
 20 18  1  0  0  0  0
 22 20  2  0  0  0  0
 23 22  1  0  0  0  0
 24 22  1  0  0  0  0
 24 15  2  0  0  0  0
 25 24  1  0  0  0  0
M  CHG  1   2  -1
M  END
