1,2
q = -1.0

 21 22  0  0  1  0  0  0  0  0999 V2000
    1.4144    1.0457   -1.0392 O   0  5  0  0  0  0  0  0  0  0  0  0
    1.2323   -1.3082    0.6468 N   0  0  0  0  0  2  0  0  0  0  0  0
    3.1709   -2.3892    0.9865 N   0  0  0  0  0  0  0  0  0  0  0  0
    0.8664   -2.5970    1.2401 C   0  0  0  0  0  0  0  0  0  0  0  0
    0.0145   -3.0491    0.6938 H   0  0  0  0  0  0  0  0  0  0  0  0
    0.5414   -2.4429    2.2942 H   0  0  0  0  0  0  0  0  0  0  0  0
    2.1639   -3.4370    1.1672 C   0  0  0  0  0  0  0  0  0  0  0  0
    2.3451   -4.0305    2.0856 H   0  0  0  0  0  0  0  0  0  0  0  0
    2.1523   -4.1374    0.3005 H   0  0  0  0  0  0  0  0  0  0  0  0
    2.5472   -1.2444    0.5235 C   0  0  2  0  0  3  0  0  0  0  0  0
    3.3105   -0.1279   -0.0183 C   0  0  0  0  0  0  0  0  0  0  0  0
    2.6876    0.9243   -0.8052 C   0  0  0  0  0  0  0  0  0  0  0  0
    3.5746    1.8988   -1.3743 C   0  0  0  0  0  0  0  0  0  0  0  0
    3.1022    2.6773   -1.9916 H   0  0  0  0  0  0  0  0  0  0  0  0
    4.9447    1.8853   -1.1506 C   0  0  0  0  0  0  0  0  0  0  0  0
    5.5757    2.6692   -1.5993 H   0  0  0  0  0  0  0  0  0  0  0  0
    5.5344    0.8834   -0.3447 C   0  0  0  0  0  0  0  0  0  0  0  0
    6.6151    0.8854   -0.1431 H   0  0  0  0  0  0  0  0  0  0  0  0
    4.7162   -0.1008    0.1991 C   0  0  0  0  0  0  0  0  0  0  0  0
    5.1654   -0.8642    0.8542 H   0  0  0  0  0  0  0  0  0  0  0  0
    4.0804   -2.6311    0.5925 H   0  0  0  0  0  0  0  0  0  0  0  0
  1 12  1  0  0  0  0
  2  4  1  0  0  0  0
  3  7  1  0  0  0  0
  4  6  1  0  0  0  0
  5  4  1  0  0  0  0
  7  4  1  0  0  0  0
  7  8  1  0  0  0  0
  9  7  1  0  0  0  0
 10 11  1  1  0  0  0
 10  2  1  0  0  0  0
 10  3  1  0  0  0  0
 11 19  1  0  0  0  0
 12 11  2  0  0  0  0
 13 15  2  0  0  0  0
 13 12  1  0  0  0  0
 14 13  1  0  0  0  0
 15 17  1  0  0  0  0
 16 15  1  0  0  0  0
 17 18  1  0  0  0  0
 17 19  2  0  0  0  0
 19 20  1  0  0  0  0
 21  3  1  0  0  0  0
M  CHG  1   1  -1
M  END
