4,5
q = -1.0

 17 17  0  0  1  0  0  0  0  0999 V2000
    3.1025    1.7413    1.1728 F   0  0  0  0  0  0  0  0  0  0  0  0
    4.7078    1.0744   -0.1549 F   0  0  0  0  0  0  0  0  0  0  0  0
    3.4858    2.7933   -0.6973 F   0  0  0  0  0  0  0  0  0  0  0  0
    1.1819    1.2057   -0.8035 O   0  0  0  0  0  1  0  0  0  0  0  0
    1.3421   -1.3286   -0.0410 N   0  0  0  0  0  2  0  0  0  0  0  0
    1.2576   -2.6208    0.3166 C   0  0  0  0  0  3  0  0  0  0  0  0
    0.2626   -2.9693    0.6388 H   0  0  0  0  0  0  0  0  0  0  0  0
    2.5097   -0.8053   -0.4470 C   0  0  0  0  0  0  0  0  0  0  0  0
    2.4232    0.6712   -0.8892 C   0  0  2  0  0  0  0  0  0  0  0  0
    2.3640   -3.4724    0.2861 C   0  0  0  0  0  0  0  0  0  0  0  0
    2.2642   -4.5242    0.5893 H   0  0  0  0  0  0  0  0  0  0  0  0
    3.6673   -1.6012   -0.5265 C   0  0  0  0  0  0  0  0  0  0  0  0
    4.6096   -1.1624   -0.8795 H   0  0  0  0  0  0  0  0  0  0  0  0
    3.4350    1.5712   -0.1370 C   0  0  0  0  0  0  0  0  0  0  0  0
    3.5924   -2.9454   -0.1469 C   0  0  0  0  0  0  0  0  0  0  0  0
    4.4873   -3.5846   -0.1943 H   0  0  0  0  0  0  0  0  0  0  0  0
    2.8353    0.6671   -1.9402 H   0  0  0  0  0  0  0  0  0  0  0  0
  2 14  1  0  0  0  0
  3 14  1  0  0  0  0
  5  6  1  0  0  0  0
  6  7  1  0  0  0  0
  8  5  1  0  0  0  0
  9 17  1  6  0  0  0
  9  4  1  0  0  0  0
  9  8  1  0  0  0  0
  9 14  1  0  0  0  0
 10  6  1  0  0  0  0
 10 11  1  0  0  0  0
 12  8  2  0  0  0  0
 12 15  1  0  0  0  0
 13 12  1  0  0  0  0
 14  1  1  0  0  0  0
 15 10  2  0  0  0  0
 16 15  1  0  0  0  0
M  END
