1,3
q = -1.0

 19 20  0  0  1  0  0  0  0  0999 V2000
    1.3296    1.1918   -0.6550 O   0  0  0  0  0  1  0  0  0  0  0  0
    4.5934    1.6163   -0.5888 O   0  0  0  0  0  0  0  0  0  0  0  0
    1.4912   -1.1869    0.5251 N   0  0  0  0  0  2  0  0  0  0  0  0
    2.6665   -0.5613    0.3467 C   0  0  2  0  0  3  0  0  0  0  0  0
    2.5888    0.8032   -0.3433 C   0  0  0  0  0  0  0  0  0  0  0  0
    1.4453   -2.3973    1.1085 C   0  0  0  0  0  0  0  0  0  0  0  0
    0.4428   -2.8441    1.2185 H   0  0  0  0  0  0  0  0  0  0  0  0
    2.5955   -3.0516    1.5555 C   0  0  0  0  0  0  0  0  0  0  0  0
    2.5242   -4.0416    2.0283 H   0  0  0  0  0  0  0  0  0  0  0  0
    3.6940    0.9134   -1.4638 C   0  0  0  0  0  0  0  0  0  0  0  0
    4.1425   -0.0224   -1.8623 H   0  0  0  0  0  0  0  0  0  0  0  0
    3.3177    1.5485   -2.3006 H   0  0  0  0  0  0  0  0  0  0  0  0
    3.8745   -1.1512    0.7724 C   0  0  0  0  0  0  0  0  0  0  0  0
    4.8209   -0.6124    0.6128 H   0  0  0  0  0  0  0  0  0  0  0  0
    3.8345   -2.4070    1.3839 C   0  0  0  0  0  0  0  0  0  0  0  0
    4.7639   -2.8874    1.7267 H   0  0  0  0  0  0  0  0  0  0  0  0
    3.5351    1.8465    0.3631 C   0  0  0  0  0  0  0  0  0  0  0  0
    3.0935    2.8668    0.2832 H   0  0  0  0  0  0  0  0  0  0  0  0
    3.8606    1.6451    1.4054 H   0  0  0  0  0  0  0  0  0  0  0  0
  1  5  1  0  0  0  0
  2 17  1  0  0  0  0
  3  6  1  0  0  0  0
  4  5  1  6  0  0  0
  4  3  1  0  0  0  0
  4 13  1  0  0  0  0
  5 17  1  0  0  0  0
  6  7  1  0  0  0  0
  6  8  2  0  0  0  0
  8  9  1  0  0  0  0
 10  2  1  0  0  0  0
 10  5  1  0  0  0  0
 11 10  1  0  0  0  0
 12 10  1  0  0  0  0
 13 15  2  0  0  0  0
 14 13  1  0  0  0  0
 15  8  1  0  0  0  0
 15 16  1  0  0  0  0
 17 19  1  0  0  0  0
 18 17  1  0  0  0  0
M  END
