1,2
q = -1.0, confidence = 0.0

 24 25  0  0  0  0  0  0  0  0999 V2000
    1.6264    0.2221   -1.8707 O   0  5  0  0  0  0  0  0  0  0  0  0
    0.7525   -1.5909    0.2215 N   0  0  0  0  0  2  0  0  0  0  0  0
   -1.3976   -1.6101    0.9920 N   0  0  0  0  0  0  0  0  0  0  0  0
    2.7942   -0.1944   -1.5263 C   0  0  0  0  0  0  0  0  0  0  0  0
    3.0609   -1.1785   -0.4722 C   0  0  0  0  0  0  0  0  0  0  0  0
    4.4134   -1.5495   -0.1855 C   0  0  0  0  0  0  0  0  0  0  0  0
    5.4880   -1.0120   -0.8719 C   0  0  0  0  0  0  0  0  0  0  0  0
    5.2351   -0.0663   -1.9040 C   0  0  0  0  0  0  0  0  0  0  0  0
    3.9441    0.3222   -2.2206 C   0  0  0  0  0  0  0  0  0  0  0  0
    2.0470   -1.8221    0.2960 C   0  0  0  0  0  3  0  0  0  0  0  0
   -0.2095   -2.2527    0.9898 C   0  0  0  0  0  0  0  0  0  0  0  0
   -2.4190   -2.1348    1.6773 C   0  0  0  0  0  0  0  0  0  0  0  0
   -2.3224   -3.3337    2.4027 C   0  0  0  0  0  0  0  0  0  0  0  0
   -1.0907   -4.0094    2.3932 C   0  0  0  0  0  0  0  0  0  0  0  0
   -0.0150   -3.4742    1.6774 C   0  0  0  0  0  0  0  0  0  0  0  0
    4.5839   -2.2921    0.6120 H   0  0  0  0  0  0  0  0  0  0  0  0
    6.5175   -1.3131   -0.6309 H   0  0  0  0  0  0  0  0  0  0  0  0
    6.0816    0.3657   -2.4617 H   0  0  0  0  0  0  0  0  0  0  0  0
    3.7411    1.0551   -3.0151 H   0  0  0  0  0  0  0  0  0  0  0  0
    2.4126   -2.5712    1.0317 H   0  0  0  0  0  0  0  0  0  0  0  0
   -3.3678   -1.5706    1.6380 H   0  0  0  0  0  0  0  0  0  0  0  0
   -3.1909   -3.7318    2.9468 H   0  0  0  0  0  0  0  0  0  0  0  0
    0.9477   -4.0033    1.6359 H   0  0  0  0  0  0  0  0  0  0  0  0
   -0.9714   -4.9609    2.9339 H   0  0  0  0  0  0  0  0  0  0  0  0
  1  4  1  0  0  0  0
  2 10  1  0  0  0  0
  2 11  1  0  0  0  0
  3 12  1  0  0  0  0
  4  5  1  0  0  0  0
  5  6  2  0  0  0  0
  5 10  1  0  0  0  0
  6 16  1  0  0  0  0
  7 17  1  0  0  0  0
  7  6  1  0  0  0  0
  8  7  2  0  0  0  0
  9  8  1  0  0  0  0
  9  4  2  0  0  0  0
 10 20  1  0  0  0  0
 11  3  2  0  0  0  0
 11 15  1  0  0  0  0
 12 13  2  0  0  0  0
 13 22  1  0  0  0  0
 14 13  1  0  0  0  0
 14 24  1  0  0  0  0
 15 14  2  0  0  0  0
 18  8  1  0  0  0  0
 19  9  1  0  0  0  0
 21 12  1  0  0  0  0
 23 15  1  0  0  0  0
M  CHG  1   1  -1
M  END
