1,14
q = -1.0, confidence = 0.0

 15 14  0  0  1  0  0  0  0  0999 V2000
    1.1577   -2.1056   -0.5480 O   0  5  0  0  0  0  0  0  0  0  0  0
    2.7978   -2.7118   -2.1137 C   0  0  0  0  0  0  0  0  0  0  0  0
    2.1986   -2.0101   -3.1079 F   0  0  0  0  0  0  0  0  0  0  0  0
    4.1293   -2.6980   -2.3507 F   0  0  0  0  0  0  0  0  0  0  0  0
    2.3757   -3.9890   -2.2050 F   0  0  0  0  0  0  0  0  0  0  0  0
    2.4184   -2.1052   -0.7495 C   0  0  0  0  0  0  0  0  0  0  0  0
    3.4386   -1.6168    0.0706 C   0  0  0  0  0  0  0  0  0  0  0  0
    4.4712   -1.7084   -0.2827 H   0  0  0  0  0  0  0  0  0  0  0  0
    3.2089   -0.9917    1.3296 C   0  0  1  0  0  3  0  0  0  0  0  0
    4.2688   -0.2516    3.3404 F   0  0  0  0  0  0  0  0  0  0  0  0
    4.4410   -0.3770    2.0028 C   0  0  0  0  0  0  0  0  0  0  0  0
    4.6463    0.8830    1.5148 F   0  0  0  0  0  0  0  0  0  0  0  0
    5.5695   -1.0771    1.7934 F   0  0  0  0  0  0  0  0  0  0  0  0
    2.0384   -0.8126    1.8957 N   0  0  0  0  0  2  0  0  0  0  0  0
    2.1239   -0.3600    2.8158 H   0  0  0  0  0  0  0  0  0  0  0  0
  2  6  1  0  0  0  0
  3  2  1  0  0  0  0
  4  2  1  0  0  0  0
  5  2  1  0  0  0  0
  6  1  1  0  0  0  0
  6  7  2  0  0  0  0
  8  7  1  0  0  0  0
  9  7  1  6  0  0  0
  9 14  1  0  0  0  0
  9 11  1  0  0  0  0
 11 10  1  0  0  0  0
 12 11  1  0  0  0  0
 13 11  1  0  0  0  0
 14 15  1  0  0  0  0
M  CHG  1   1  -1
M  END
