10,11
q = -1.0

 13 13  0  0  1  0  0  0  0  0999 V2000
    1.8978    2.3126   -1.5378 C   0  0  0  0  0  0  0  0  0  0  0  0
    1.0167    2.5564   -0.9109 H   0  0  0  0  0  0  0  0  0  0  0  0
    1.5655    2.2978   -2.5971 H   0  0  0  0  0  0  0  0  0  0  0  0
    2.6694    3.1021   -1.4452 H   0  0  0  0  0  0  0  0  0  0  0  0
    2.4219    0.9777   -1.1260 C   0  0  1  0  0  3  0  0  0  0  0  0
    3.6899   -1.1206   -0.7960 C   0  0  0  0  0  0  0  0  0  0  0  0
    4.4022   -1.9532   -0.7826 H   0  0  0  0  0  0  0  0  0  0  0  0
    2.4790   -1.0632   -0.1450 C   0  0  0  0  0  0  0  0  0  0  0  0
    1.8633   -2.1537    0.7255 C   0  0  0  0  0  0  0  0  0  0  0  0
    1.7902    0.1199   -0.3421 N   0  0  0  0  0  2  0  0  0  0  0  0
    0.7123   -1.8144    1.2382 O   0  5  0  0  0  0  0  0  0  0  0  0
    2.4653   -3.2152    0.8635 O   0  0  0  0  0  0  0  0  0  0  0  0
    3.9609    0.3460   -1.6737 S   0  0  0  0  0  0  0  0  0  0  0  0
  1  4  1  0  0  0  0
  1  2  1  0  0  0  0
  3  1  1  0  0  0  0
  5  1  1  6  0  0  0
  5 10  1  0  0  0  0
  6  7  1  0  0  0  0
  6  8  2  0  0  0  0
  8  9  1  0  0  0  0
  9 12  2  0  0  0  0
  9 11  1  0  0  0  0
 10  8  1  0  0  0  0
 13  5  1  0  0  0  0
 13  6  1  0  0  0  0
M  CHG  1  11  -1
M  END
