1,2
q = 0.0, confidence = 0.998

 37 38  0  0  0  0  0  0  0  0999 V2000
   -2.5062   -0.8124    0.7892 O   0  5  0  0  0  0  0  0  0  0  0  0
   -0.8454    0.8686   -0.9560 N   0  0  0  0  0  2  0  0  0  0  0  0
    2.7541    1.4278   -0.8222 N   0  3  0  0  0  0  0  0  0  0  0  0
   -3.2758    1.0319   -0.6189 C   0  0  0  0  0  0  0  0  0  0  0  0
   -3.4486   -0.0498    0.3472 C   0  0  0  0  0  0  0  0  0  0  0  0
   -4.7874   -0.2674    0.8243 C   0  0  0  0  0  0  0  0  0  0  0  0
   -4.9163   -1.0820    1.5518 H   0  0  0  0  0  0  0  0  0  0  0  0
   -5.8594    0.5004    0.3969 C   0  0  0  0  0  0  0  0  0  0  0  0
   -6.8653    0.2917    0.7955 H   0  0  0  0  0  0  0  0  0  0  0  0
   -5.6844    1.5473   -0.5466 C   0  0  0  0  0  0  0  0  0  0  0  0
   -6.5418    2.1480   -0.8822 H   0  0  0  0  0  0  0  0  0  0  0  0
   -4.4114    1.7919   -1.0356 C   0  0  0  0  0  0  0  0  0  0  0  0
   -4.2494    2.5977   -1.7714 H   0  0  0  0  0  0  0  0  0  0  0  0
   -2.0190    1.3890   -1.2071 C   0  0  0  0  0  3  0  0  0  0  0  0
   -2.0690    2.2044   -1.9676 H   0  0  0  0  0  0  0  0  0  0  0  0
    0.3176    1.3336   -1.6786 C   0  0  0  0  0  0  0  0  0  0  0  0
    0.0464    2.0905   -2.4515 H   0  0  0  0  0  0  0  0  0  0  0  0
    0.7516    0.4579   -2.2140 H   0  0  0  0  0  0  0  0  0  0  0  0
    1.3325    1.9227   -0.6809 C   0  0  0  0  0  0  0  0  0  0  0  0
    1.0331    1.6382    0.3535 H   0  0  0  0  0  0  0  0  0  0  0  0
    1.3845    3.0268   -0.7471 H   0  0  0  0  0  0  0  0  0  0  0  0
    3.6376    2.1312    0.1840 C   0  0  0  0  0  0  0  0  0  0  0  0
    3.2257    1.8389    1.1723 H   0  0  0  0  0  0  0  0  0  0  0  0
    3.4869    3.2203    0.0493 H   0  0  0  0  0  0  0  0  0  0  0  0
    5.0982    1.7245    0.0265 C   0  0  0  0  0  0  0  0  0  0  0  0
    5.4817    2.0902   -0.9535 H   0  0  0  0  0  0  0  0  0  0  0  0
    5.6835    2.2574    0.8031 H   0  0  0  0  0  0  0  0  0  0  0  0
    5.2781    0.2057    0.1298 C   0  0  0  0  0  0  0  0  0  0  0  0
    6.3362   -0.0697   -0.0522 H   0  0  0  0  0  0  0  0  0  0  0  0
    5.0306   -0.1253    1.1611 H   0  0  0  0  0  0  0  0  0  0  0  0
    4.3478   -0.4990   -0.8622 C   0  0  0  0  0  0  0  0  0  0  0  0
    4.3804   -1.6001   -0.7409 H   0  0  0  0  0  0  0  0  0  0  0  0
    4.6745   -0.2950   -1.9086 H   0  0  0  0  0  0  0  0  0  0  0  0
    2.9008   -0.0769   -0.6700 C   0  0  0  0  0  0  0  0  0  0  0  0
    2.2106   -0.5826   -1.3733 H   0  0  0  0  0  0  0  0  0  0  0  0
    2.5170   -0.3046    0.3491 H   0  0  0  0  0  0  0  0  0  0  0  0
    3.0983    1.6739   -1.7689 H   0  0  0  0  0  0  0  0  0  0  0  0
  3 19  1  0  0  0  0
  3 34  1  0  0  0  0
  3 22  1  0  0  0  0
  4  5  1  0  0  0  0
  5  1  1  0  0  0  0
  5  6  2  0  0  0  0
  6  7  1  0  0  0  0
  8  9  1  0  0  0  0
  8  6  1  0  0  0  0
 10  8  2  0  0  0  0
 11 10  1  0  0  0  0
 12  4  2  0  0  0  0
 12 10  1  0  0  0  0
 13 12  1  0  0  0  0
 14  2  1  0  0  0  0
 14  4  1  0  0  0  0
 15 14  1  0  0  0  0
 16  2  1  0  0  0  0
 16 19  1  0  0  0  0
 17 16  1  0  0  0  0
 18 16  1  0  0  0  0
 19 20  1  0  0  0  0
 21 19  1  0  0  0  0
 22 23  1  0  0  0  0
 24 22  1  0  0  0  0
 25 28  1  0  0  0  0
 25 22  1  0  0  0  0
 25 27  1  0  0  0  0
 26 25  1  0  0  0  0
 28 30  1  0  0  0  0
 29 28  1  0  0  0  0
 31 32  1  0  0  0  0
 31 34  1  0  0  0  0
 31 28  1  0  0  0  0
 33 31  1  0  0  0  0
 34 36  1  0  0  0  0
 35 34  1  0  0  0  0
 37  3  1  0  0  0  0
M  CHG  2   1  -1   3   1
M  END
