1,2
q = 0.0, confidence = 0.934

 40 41  0  0  1  0  0  0  0  0999 V2000
   -1.6516   -0.3881   -0.8766 O   0  5  0  0  0  0  0  0  0  0  0  0
    0.3754   -2.0384   -0.4056 N   0  0  0  0  0  2  0  0  0  0  0  0
   -2.3115   -1.4522   -1.2455 C   0  0  0  0  0  0  0  0  0  0  0  0
   -3.6299   -1.2929   -1.7729 C   0  0  0  0  0  0  0  0  0  0  0  0
   -4.3975   -2.3952   -2.1325 C   0  0  0  0  0  0  0  0  0  0  0  0
   -3.9086   -3.7153   -1.9589 C   0  0  0  0  0  0  0  0  0  0  0  0
   -2.6373   -3.9061   -1.4318 C   0  0  0  0  0  0  0  0  0  0  0  0
   -1.8069   -2.8026   -1.0888 C   0  0  0  0  0  0  0  0  0  0  0  0
   -0.5349   -2.9943   -0.4679 C   0  0  0  0  0  3  0  0  0  0  0  0
    1.2435   -1.7111    0.6271 C   0  0  1  0  0  3  0  0  0  0  0  0
    0.7169   -2.0082    2.0268 C   0  0  0  0  0  0  0  0  0  0  0  0
    1.6148   -1.4986    3.1717 C   0  0  2  0  0  0  0  0  0  0  0  0
    0.8042   -1.2067    4.4361 C   0  0  0  0  0  0  0  0  0  0  0  0
    2.4170   -0.2933    2.6676 C   0  0  0  0  0  0  0  0  0  0  0  0
    3.3644   -0.7339    1.5512 C   0  0  0  0  0  0  0  0  0  0  0  0
    2.6965   -1.5820    0.4763 C   0  0  0  0  0  0  0  0  0  0  0  0
    3.4604   -2.1181   -0.5322 C   0  0  0  0  0  0  0  0  0  0  0  0
    2.9392   -2.9416   -1.6750 C   0  0  0  0  0  0  0  0  0  0  0  0
    4.9497   -1.8644   -0.5398 C   0  0  0  0  0  0  0  0  0  0  0  0
   -4.0046   -0.2643   -1.8802 H   0  0  0  0  0  0  0  0  0  0  0  0
   -5.4059   -2.2395   -2.5470 H   0  0  0  0  0  0  0  0  0  0  0  0
   -4.5326   -4.5776   -2.2350 H   0  0  0  0  0  0  0  0  0  0  0  0
   -2.2434   -4.9243   -1.2829 H   0  0  0  0  0  0  0  0  0  0  0  0
   -0.3049   -3.9672    0.0086 H   0  0  0  0  0  0  0  0  0  0  0  0
    0.5819   -3.1120    2.1140 H   0  0  0  0  0  0  0  0  0  0  0  0
   -0.3032   -1.5777    2.1098 H   0  0  0  0  0  0  0  0  0  0  0  0
    2.3525   -2.2973    3.4136 H   0  0  0  0  0  0  0  0  0  0  0  0
    1.4634   -0.9165    5.2792 H   0  0  0  0  0  0  0  0  0  0  0  0
    0.0905   -0.3733    4.2654 H   0  0  0  0  0  0  0  0  0  0  0  0
    0.2134   -2.0899    4.7556 H   0  0  0  0  0  0  0  0  0  0  0  0
    2.9934    0.1706    3.4947 H   0  0  0  0  0  0  0  0  0  0  0  0
    1.7160    0.4818    2.2884 H   0  0  0  0  0  0  0  0  0  0  0  0
    4.2118   -1.3007    1.9973 H   0  0  0  0  0  0  0  0  0  0  0  0
    3.8251    0.1569    1.0693 H   0  0  0  0  0  0  0  0  0  0  0  0
    2.8666   -2.3134   -2.5906 H   0  0  0  0  0  0  0  0  0  0  0  0
    3.6369   -3.7728   -1.9094 H   0  0  0  0  0  0  0  0  0  0  0  0
    1.9341   -3.3578   -1.4993 H   0  0  0  0  0  0  0  0  0  0  0  0
    5.4259   -2.2703   -1.4529 H   0  0  0  0  0  0  0  0  0  0  0  0
    5.1837   -0.7806   -0.4856 H   0  0  0  0  0  0  0  0  0  0  0  0
    5.4521   -2.3347    0.3349 H   0  0  0  0  0  0  0  0  0  0  0  0
  3  8  1  0  0  0  0
  3  1  1  0  0  0  0
  4  3  2  0  0  0  0
  5  6  2  0  0  0  0
  5  4  1  0  0  0  0
  6  7  1  0  0  0  0
  7 23  1  0  0  0  0
  7  8  2  0  0  0  0
  8  9  1  0  0  0  0
  9  2  1  0  0  0  0
  9 24  1  0  0  0  0
 10  2  1  6  0  0  0
 10 11  1  0  0  0  0
 11 26  1  0  0  0  0
 11 25  1  0  0  0  0
 11 12  1  0  0  0  0
 12 27  1  1  0  0  0
 12 13  1  0  0  0  0
 13 30  1  0  0  0  0
 13 28  1  0  0  0  0
 14 12  1  0  0  0  0
 14 31  1  0  0  0  0
 15 33  1  0  0  0  0
 15 14  1  0  0  0  0
 16 10  1  0  0  0  0
 16 15  1  0  0  0  0
 17 16  2  0  0  0  0
 18 37  1  0  0  0  0
 18 17  1  0  0  0  0
 19 17  1  0  0  0  0
 19 39  1  0  0  0  0
 19 40  1  0  0  0  0
 20  4  1  0  0  0  0
 21  5  1  0  0  0  0
 22  6  1  0  0  0  0
 29 13  1  0  0  0  0
 32 14  1  0  0  0  0
 34 15  1  0  0  0  0
 35 18  1  0  0  0  0
 36 18  1  0  0  0  0
 38 19  1  0  0  0  0
M  CHG  1   1  -1
M  END
