1,6
q = -1.0

 34 34  0  0  1  0  0  0  0  0999 V2000
    1.8854   -0.2587    1.2617 O   0  5  0  0  0  0  0  0  0  0  0  0
    4.0799   -1.1539    1.5381 C   0  0  0  0  0  0  0  0  0  0  0  0
    2.7265   -1.1452    0.8281 C   0  0  0  0  0  0  0  0  0  0  0  0
    2.3592   -2.0407   -0.1733 C   0  0  0  0  0  0  0  0  0  0  0  0
    3.1105   -2.7240   -0.5748 H   0  0  0  0  0  0  0  0  0  0  0  0
   -0.0009   -1.4324   -0.2909 N   0  0  0  0  0  2  0  0  0  0  0  0
    1.0491   -2.1116   -0.7218 C   0  0  1  0  0  3  0  0  0  0  0  0
   -2.1851   -2.5023   -0.1693 C   0  0  0  0  0  0  0  0  0  0  0  0
   -1.8599   -3.0328    0.7351 H   0  0  0  0  0  0  0  0  0  0  0  0
   -3.4833   -2.6539   -0.6570 C   0  0  0  0  0  0  0  0  0  0  0  0
   -1.7476   -0.9116   -1.9683 C   0  0  0  0  0  0  0  0  0  0  0  0
   -1.0729   -0.2123   -2.4755 H   0  0  0  0  0  0  0  0  0  0  0  0
   -1.3065   -1.6293   -0.8397 C   0  0  0  0  0  0  0  0  0  0  0  0
    3.7808   -1.5928    2.9946 C   0  0  0  0  0  0  0  0  0  0  0  0
    3.3225   -2.6015    3.0244 H   0  0  0  0  0  0  0  0  0  0  0  0
    3.0810   -0.8870    3.4818 H   0  0  0  0  0  0  0  0  0  0  0  0
    4.7243   -1.6175    3.5764 H   0  0  0  0  0  0  0  0  0  0  0  0
    4.6634    0.2738    1.5421 C   0  0  0  0  0  0  0  0  0  0  0  0
    5.5739    0.3026    2.1734 H   0  0  0  0  0  0  0  0  0  0  0  0
    3.9329    1.0003    1.9459 H   0  0  0  0  0  0  0  0  0  0  0  0
    4.9398    0.5951    0.5193 H   0  0  0  0  0  0  0  0  0  0  0  0
    5.0750   -2.1270    0.8912 C   0  0  0  0  0  0  0  0  0  0  0  0
    4.7153   -3.1747    0.9276 H   0  0  0  0  0  0  0  0  0  0  0  0
    6.0383   -2.0891    1.4377 H   0  0  0  0  0  0  0  0  0  0  0  0
    5.2783   -1.8607   -0.1658 H   0  0  0  0  0  0  0  0  0  0  0  0
    0.6286   -2.3441   -3.0549 F   0  0  0  0  0  0  0  0  0  0  0  0
   -0.0911   -3.9585   -1.7633 F   0  0  0  0  0  0  0  0  0  0  0  0
    2.0288   -3.7580   -2.1757 F   0  0  0  0  0  0  0  0  0  0  0  0
   -4.3306   -3.4695   -0.0020 F   0  0  0  0  0  0  0  0  0  0  0  0
    0.8974   -3.0616   -1.9334 C   0  0  0  0  0  0  0  0  0  0  0  0
   -3.0593   -1.0869   -2.4329 C   0  0  0  0  0  0  0  0  0  0  0  0
   -3.3985   -0.5252   -3.3159 H   0  0  0  0  0  0  0  0  0  0  0  0
   -3.9426   -1.9609   -1.7848 C   0  0  0  0  0  0  0  0  0  0  0  0
   -4.9756   -2.1099   -2.1291 H   0  0  0  0  0  0  0  0  0  0  0  0
  2 18  1  0  0  0  0
  2 14  1  0  0  0  0
  3  1  1  0  0  0  0
  3  2  1  0  0  0  0
  4  3  2  0  0  0  0
  5  4  1  0  0  0  0
  7  6  1  6  0  0  0
  7  4  1  0  0  0  0
  8  9  1  0  0  0  0
 10  8  1  0  0  0  0
 10 29  1  0  0  0  0
 11 13  1  0  0  0  0
 12 11  1  0  0  0  0
 13  6  1  0  0  0  0
 13  8  2  0  0  0  0
 14 15  1  0  0  0  0
 14 16  1  0  0  0  0
 14 17  1  0  0  0  0
 18 20  1  0  0  0  0
 18 19  1  0  0  0  0
 21 18  1  0  0  0  0
 22 23  1  0  0  0  0
 22 24  1  0  0  0  0
 22  2  1  0  0  0  0
 25 22  1  0  0  0  0
 26 30  1  0  0  0  0
 28 30  1  0  0  0  0
 30 27  1  0  0  0  0
 30  7  1  0  0  0  0
 31 11  2  0  0  0  0
 31 33  1  0  0  0  0
 32 31  1  0  0  0  0
 33 10  2  0  0  0  0
 34 33  1  0  0  0  0
M  CHG  1   1  -1
M  END
