1,2
q = -1.0

 34 34  0  0  1  0  0  0  0  0999 V2000
    0.0268   -1.4513   -0.1777 N   0  0  0  0  0  2  0  0  0  0  0  0
   -1.9298   -0.3466    1.3425 O   0  5  0  0  0  0  0  0  0  0  0  0
    1.3398   -1.5551   -0.7262 C   0  0  0  0  0  0  0  0  0  0  0  0
    2.2932   -2.3388   -0.0464 C   0  0  0  0  0  0  0  0  0  0  0  0
    2.0177   -2.8922    0.8599 H   0  0  0  0  0  0  0  0  0  0  0  0
    3.6016   -2.3603   -0.5298 C   0  0  0  0  0  0  0  0  0  0  0  0
    4.0094   -1.6263   -1.6515 C   0  0  0  0  0  0  0  0  0  0  0  0
    5.0481   -1.6515   -2.0047 H   0  0  0  0  0  0  0  0  0  0  0  0
    3.0354   -0.8604   -2.2987 C   0  0  0  0  0  0  0  0  0  0  0  0
    1.7071   -0.8107   -1.8625 C   0  0  0  0  0  0  0  0  0  0  0  0
    0.9944   -0.1748   -2.3979 H   0  0  0  0  0  0  0  0  0  0  0  0
   -0.9929   -2.1487   -0.6482 C   0  0  2  0  0  3  0  0  0  0  0  0
   -0.7922   -3.0598   -1.8817 C   0  0  0  0  0  0  0  0  0  0  0  0
   -2.3171   -2.1218   -0.1296 C   0  0  0  0  0  0  0  0  0  0  0  0
   -3.0395   -2.8192   -0.5595 H   0  0  0  0  0  0  0  0  0  0  0  0
   -2.7363   -1.2463    0.8689 C   0  0  0  0  0  0  0  0  0  0  0  0
   -4.1123   -1.2908    1.5317 C   0  0  0  0  0  0  0  0  0  0  0  0
   -5.0765   -2.2481    0.8178 C   0  0  0  0  0  0  0  0  0  0  0  0
   -5.2422   -1.9501   -0.2372 H   0  0  0  0  0  0  0  0  0  0  0  0
   -6.0594   -2.2326    1.3294 H   0  0  0  0  0  0  0  0  0  0  0  0
   -4.7125   -3.2948    0.8351 H   0  0  0  0  0  0  0  0  0  0  0  0
   -4.7072    0.1315    1.5679 C   0  0  0  0  0  0  0  0  0  0  0  0
   -3.9990    0.8468    2.0279 H   0  0  0  0  0  0  0  0  0  0  0  0
   -5.6421    0.1296    2.1631 H   0  0  0  0  0  0  0  0  0  0  0  0
   -4.9455    0.4908    0.5478 H   0  0  0  0  0  0  0  0  0  0  0  0
   -3.8565   -1.7789    2.9812 C   0  0  0  0  0  0  0  0  0  0  0  0
   -3.3919   -2.7851    2.9906 H   0  0  0  0  0  0  0  0  0  0  0  0
   -4.8183   -1.8304    3.5303 H   0  0  0  0  0  0  0  0  0  0  0  0
   -3.1788   -1.0858    3.5158 H   0  0  0  0  0  0  0  0  0  0  0  0
    4.5244   -3.0901    0.1257 F   0  0  0  0  0  0  0  0  0  0  0  0
    3.3890   -0.1288   -3.3687 F   0  0  0  0  0  0  0  0  0  0  0  0
   -1.8639   -3.8467   -2.1091 F   0  0  0  0  0  0  0  0  0  0  0  0
    0.2759   -3.8685   -1.7552 F   0  0  0  0  0  0  0  0  0  0  0  0
   -0.6150   -2.2968   -2.9915 F   0  0  0  0  0  0  0  0  0  0  0  0
  3  1  1  0  0  0  0
  3  4  1  0  0  0  0
  4  5  1  0  0  0  0
  6  4  2  0  0  0  0
  6 30  1  0  0  0  0
  7  6  1  0  0  0  0
  8  7  1  0  0  0  0
  9 10  1  0  0  0  0
  9  7  2  0  0  0  0
 10  3  2  0  0  0  0
 11 10  1  0  0  0  0
 12  1  1  6  0  0  0
 12 14  1  0  0  0  0
 13 33  1  0  0  0  0
 13 12  1  0  0  0  0
 14 16  2  0  0  0  0
 15 14  1  0  0  0  0
 16  2  1  0  0  0  0
 16 17  1  0  0  0  0
 17 22  1  0  0  0  0
 17 26  1  0  0  0  0
 18 21  1  0  0  0  0
 18 20  1  0  0  0  0
 18 17  1  0  0  0  0
 19 18  1  0  0  0  0
 22 23  1  0  0  0  0
 22 24  1  0  0  0  0
 25 22  1  0  0  0  0
 26 27  1  0  0  0  0
 26 29  1  0  0  0  0
 26 28  1  0  0  0  0
 31  9  1  0  0  0  0
 32 13  1  0  0  0  0
 34 13  1  0  0  0  0
M  CHG  1   2  -1
M  END
