1,2
q = -1.0

 24 23  0  0  1  0  0  0  0  0999 V2000
   -0.2454    1.6382   -0.0003 O   0  5  0  0  0  0  0  0  0  0  0  0
    0.5148   -1.2836   -0.0068 N   0  0  0  0  0  2  0  0  0  0  0  0
    4.1221   -0.9079    0.0066 F   0  0  0  0  0  0  0  0  0  0  0  0
    3.0092   -2.4120   -1.0981 F   0  0  0  0  0  0  0  0  0  0  0  0
    2.9988   -2.4174    1.0934 F   0  0  0  0  0  0  0  0  0  0  0  0
    1.0817    3.8306   -1.0834 F   0  0  0  0  0  0  0  0  0  0  0  0
    2.8962    3.2606   -0.0118 F   0  0  0  0  0  0  0  0  0  0  0  0
    1.1019    3.8203    1.0985 F   0  0  0  0  0  0  0  0  0  0  0  0
    2.9723   -1.6108   -0.0006 C   0  0  0  0  0  0  0  0  0  0  0  0
    1.7142   -0.7190   -0.0039 C   0  0  2  0  0  3  0  0  0  0  0  0
    1.9761    0.6804   -0.0031 C   0  0  0  0  0  0  0  0  0  0  0  0
    1.0257    1.7136   -0.0019 C   0  0  0  0  0  0  0  0  0  0  0  0
    1.5448    3.1661    0.0001 C   0  0  0  0  0  0  0  0  0  0  0  0
    0.2817   -2.7389   -0.0067 C   0  0  0  0  0  0  0  0  0  0  0  0
   -0.4739   -3.1177    1.2716 C   0  0  0  0  0  0  0  0  0  0  0  0
   -0.5072   -3.1123   -1.2663 C   0  0  0  0  0  0  0  0  0  0  0  0
    3.0265    0.9851   -0.0030 H   0  0  0  0  0  0  0  0  0  0  0  0
    1.2313   -3.3060   -0.0208 H   0  0  0  0  0  0  0  0  0  0  0  0
    0.1225   -2.8624    2.1695 H   0  0  0  0  0  0  0  0  0  0  0  0
   -1.4314   -2.5545    1.3172 H   0  0  0  0  0  0  0  0  0  0  0  0
   -0.6963   -4.2037    1.2919 H   0  0  0  0  0  0  0  0  0  0  0  0
    0.0642   -2.8505   -2.1785 H   0  0  0  0  0  0  0  0  0  0  0  0
   -0.7268   -4.1989   -1.2867 H   0  0  0  0  0  0  0  0  0  0  0  0
   -1.4670   -2.5520   -1.2832 H   0  0  0  0  0  0  0  0  0  0  0  0
  2 14  1  0  0  0  0
  4  9  1  0  0  0  0
  6 13  1  0  0  0  0
  7 13  1  0  0  0  0
  9  3  1  0  0  0  0
  9  5  1  0  0  0  0
 10  2  1  1  0  0  0
 10 11  1  0  0  0  0
 10  9  1  0  0  0  0
 11 17  1  0  0  0  0
 11 12  2  0  0  0  0
 12  1  1  0  0  0  0
 12 13  1  0  0  0  0
 13  8  1  0  0  0  0
 14 15  1  0  0  0  0
 15 21  1  0  0  0  0
 15 20  1  0  0  0  0
 15 19  1  0  0  0  0
 16 14  1  0  0  0  0
 18 14  1  0  0  0  0
 22 16  1  0  0  0  0
 23 16  1  0  0  0  0
 24 16  1  0  0  0  0
M  CHG  1   1  -1
M  END
