2,4
q = -1.0, confidence = 0.036

 10 10  0  0  1  0  0  0  0  0999 V2000
    4.2696   -0.0880    0.0546 S   0  0  0  0  0  0  0  0  0  0  0  0
    0.7323    1.7103   -0.3539 O   0  5  0  0  0  0  0  0  0  0  0  0
    2.7315    2.7594   -0.6302 O   0  0  0  0  0  0  0  0  0  0  0  0
    1.7618   -0.5386    0.2640 N   0  0  0  0  0  2  0  0  0  0  0  0
    2.0581    1.7732   -0.3839 C   0  0  0  0  0  0  0  0  0  0  0  0
    2.6282    0.4277   -0.0324 C   0  0  1  0  0  3  0  0  0  0  0  0
    2.3586   -1.7357    0.5661 C   0  0  0  0  0  0  0  0  0  0  0  0
    1.7328   -2.6024    0.8145 H   0  0  0  0  0  0  0  0  0  0  0  0
    3.7346   -1.6764    0.5066 C   0  0  0  0  0  0  0  0  0  0  0  0
    4.4546   -2.4801    0.7001 H   0  0  0  0  0  0  0  0  0  0  0  0
  1  9  1  0  0  0  0
  3  5  2  0  0  0  0
  4  7  1  0  0  0  0
  5  2  1  0  0  0  0
  6  5  1  1  0  0  0
  6  1  1  0  0  0  0
  6  4  1  0  0  0  0
  7  8  1  0  0  0  0
  9  7  2  0  0  0  0
  9 10  1  0  0  0  0
M  CHG  1   2  -1
M  END
