3,28
q = -1.0

 28 29  0  0  0  0  0  0  0  0999 V2000
   -4.0183    1.7796    0.1782 C   0  0  0  0  0  0  0  0  0  0  0  0
   -4.7221    2.0825    0.9671 H   0  0  0  0  0  0  0  0  0  0  0  0
    2.2697    1.4436    0.6970 O   0  5  0  0  0  0  0  0  0  0  0  0
   -6.2206   -0.3750   -1.7955 O   0  0  0  0  0  0  0  0  0  0  0  0
   -7.1605   -0.6089   -1.6388 H   0  0  0  0  0  0  0  0  0  0  0  0
   -1.7759    1.6909   -0.7639 C   0  0  0  0  0  0  0  0  0  0  0  0
    2.4352    2.6870    0.3705 C   0  0  0  0  0  0  0  0  0  0  0  0
   -3.6131    0.5654   -1.8939 C   0  0  0  0  0  0  0  0  0  0  0  0
   -3.9888   -0.0600   -2.7148 H   0  0  0  0  0  0  0  0  0  0  0  0
    0.1003    3.0996   -0.5787 C   0  0  0  0  0  3  0  0  0  0  0  0
   -0.5994    3.9081   -0.8775 H   0  0  0  0  0  0  0  0  0  0  0  0
   -2.6713    2.1490    0.2266 C   0  0  0  0  0  0  0  0  0  0  0  0
   -2.2790    2.7340    1.0716 H   0  0  0  0  0  0  0  0  0  0  0  0
   -4.4930    0.9587   -0.8623 C   0  0  0  0  0  0  0  0  0  0  0  0
   -2.2670    0.9308   -1.8471 C   0  0  0  0  0  0  0  0  0  0  0  0
   -1.5698    0.5891   -2.6236 H   0  0  0  0  0  0  0  0  0  0  0  0
    3.6959    3.3031    0.6759 C   0  0  0  0  0  0  0  0  0  0  0  0
    4.4538    2.6593    1.1458 H   0  0  0  0  0  0  0  0  0  0  0  0
   -5.9049    0.4947   -0.7967 C   0  0  0  0  0  0  0  0  0  0  0  0
    1.4266    3.5307   -0.2507 C   0  0  0  0  0  0  0  0  0  0  0  0
   -6.7113    0.8255    0.0576 O   0  0  0  0  0  0  0  0  0  0  0  0
    3.9509    4.6361    0.3919 C   0  0  0  0  0  0  0  0  0  0  0  0
    4.9366    5.0620    0.6388 H   0  0  0  0  0  0  0  0  0  0  0  0
    2.9616    5.4595   -0.2072 C   0  0  0  0  0  0  0  0  0  0  0  0
    3.1692    6.5173   -0.4226 H   0  0  0  0  0  0  0  0  0  0  0  0
    1.7280    4.9044   -0.5072 C   0  0  0  0  0  0  0  0  0  0  0  0
    0.9406    5.5270   -0.9633 H   0  0  0  0  0  0  0  0  0  0  0  0
   -0.3801    1.8744   -0.5907 N   0  0  0  0  0  2  0  0  0  0  0  0
  1 12  1  0  0  0  0
  1  2  1  0  0  0  0
  4  5  1  0  0  0  0
  4 19  1  0  0  0  0
  6 28  1  0  0  0  0
  6 12  2  0  0  0  0
  7 17  1  0  0  0  0
  7  3  1  0  0  0  0
  8 15  2  0  0  0  0
  8 14  1  0  0  0  0
  9  8  1  0  0  0  0
 10 20  1  0  0  0  0
 11 10  1  0  0  0  0
 12 13  1  0  0  0  0
 14 19  1  0  0  0  0
 14  1  2  0  0  0  0
 15  6  1  0  0  0  0
 16 15  1  0  0  0  0
 17 18  1  0  0  0  0
 19 21  2  0  0  0  0
 20  7  2  0  0  0  0
 22 23  1  0  0  0  0
 22 17  2  0  0  0  0
 24 22  1  0  0  0  0
 25 24  1  0  0  0  0
 26 20  1  0  0  0  0
 26 24  2  0  0  0  0
 27 26  1  0  0  0  0
 28 10  1  0  0  0  0
M  CHG  1   3  -1
M  END
