25,26
q = -1.0

 31 32  0  0  1  0  0  0  0  0999 V2000
    3.3444   -0.1588    0.9248 C   0  0  0  0  0  0  0  0  0  0  0  0
    4.8507    1.0626    2.4129 C   0  0  0  0  0  0  0  0  0  0  0  0
    5.1736    1.2919    3.4397 H   0  0  0  0  0  0  0  0  0  0  0  0
    5.6788    1.9827   -1.1322 C   0  0  0  0  0  0  0  0  0  0  0  0
    6.5116    2.6836   -0.9647 H   0  0  0  0  0  0  0  0  0  0  0  0
    3.9756    0.4515   -0.2144 C   0  0  0  0  0  0  0  0  0  0  0  0
    5.2390    1.7087   -2.4185 C   0  0  0  0  0  0  0  0  0  0  0  0
    5.7229    2.1913   -3.2812 H   0  0  0  0  0  0  0  0  0  0  0  0
    5.0643    1.3730    0.0019 C   0  0  0  0  0  0  0  0  0  0  0  0
    5.4876    1.6555    1.3338 C   0  0  0  0  0  0  0  0  0  0  0  0
    6.3206    2.3582    1.4892 H   0  0  0  0  0  0  0  0  0  0  0  0
   -1.7908   -4.4220    0.6179 F   0  0  0  0  0  0  0  0  0  0  0  0
    0.1442   -3.1282    0.1111 C   0  0  2  0  0  3  0  0  0  0  0  0
    2.4896   -2.3409    0.6064 C   0  0  0  0  0  0  0  0  0  0  0  0
    1.5048   -3.3370    0.3405 C   0  0  0  0  0  0  0  0  0  0  0  0
    1.8606   -4.3721    0.2842 H   0  0  0  0  0  0  0  0  0  0  0  0
   -0.7462   -4.3370   -0.2325 C   0  0  0  0  0  0  0  0  0  0  0  0
    4.1602    0.8076   -2.6268 C   0  0  0  0  0  0  0  0  0  0  0  0
    3.8114    0.5995   -3.6499 H   0  0  0  0  0  0  0  0  0  0  0  0
    3.7750    0.1606    2.2092 C   0  0  0  0  0  0  0  0  0  0  0  0
    3.2598   -0.2977    3.0664 H   0  0  0  0  0  0  0  0  0  0  0  0
    3.5435    0.1901   -1.5477 C   0  0  0  0  0  0  0  0  0  0  0  0
    2.7012   -0.4998   -1.7028 H   0  0  0  0  0  0  0  0  0  0  0  0
   -0.0884   -5.5196   -0.1958 F   0  0  0  0  0  0  0  0  0  0  0  0
   -0.5139   -2.0378    0.1151 O   0  0  0  0  0  1  0  0  0  0  0  0
    2.2440   -1.0339    0.7229 N   0  0  0  0  0  2  0  0  0  0  0  0
   -1.2553   -4.1971   -1.4851 F   0  0  0  0  0  0  0  0  0  0  0  0
    3.9178   -2.8327    0.7383 C   0  0  0  0  0  0  0  0  0  0  0  0
    4.5678   -2.3446   -0.0161 H   0  0  0  0  0  0  0  0  0  0  0  0
    3.9768   -3.9272    0.6046 H   0  0  0  0  0  0  0  0  0  0  0  0
    4.3400   -2.5680    1.7278 H   0  0  0  0  0  0  0  0  0  0  0  0
  1 20  1  0  0  0  0
  2  3  1  0  0  0  0
  4  5  1  0  0  0  0
  4  9  1  0  0  0  0
  6  9  1  0  0  0  0
  6  1  2  0  0  0  0
  7  4  2  0  0  0  0
  8  7  1  0  0  0  0
  9 10  2  0  0  0  0
 10 11  1  0  0  0  0
 10  2  1  0  0  0  0
 13 25  1  6  0  0  0
 13 15  1  0  0  0  0
 14 26  1  0  0  0  0
 14 28  1  0  0  0  0
 15 14  2  0  0  0  0
 16 15  1  0  0  0  0
 17 24  1  0  0  0  0
 17 13  1  0  0  0  0
 17 12  1  0  0  0  0
 18  7  1  0  0  0  0
 18 22  2  0  0  0  0
 19 18  1  0  0  0  0
 20  2  2  0  0  0  0
 20 21  1  0  0  0  0
 22  6  1  0  0  0  0
 23 22  1  0  0  0  0
 26  1  1  0  0  0  0
 27 17  1  0  0  0  0
 28 31  1  0  0  0  0
 29 28  1  0  0  0  0
 30 28  1  0  0  0  0
M  END
