2,3
q = -1.0

 21 21  0  0  1  0  0  0  0  0999 V2000
    4.7073    0.5623    1.0940 F   0  0  0  0  0  0  0  0  0  0  0  0
   -0.1910    1.8495    0.1264 N   0  0  0  0  0  2  0  0  0  0  0  0
    1.5393   -0.4101   -0.1365 O   0  5  0  0  0  0  0  0  0  0  0  0
    0.9698    2.3279    0.5907 C   0  0  1  0  0  3  0  0  0  0  0  0
    3.8082   -0.2576    0.5075 C   0  0  0  0  0  0  0  0  0  0  0  0
    2.4199    0.3706    0.3924 C   0  0  0  0  0  0  0  0  0  0  0  0
    2.2211    1.6761    0.7939 C   0  0  0  0  0  0  0  0  0  0  0  0
    3.0426    2.2683    1.2100 H   0  0  0  0  0  0  0  0  0  0  0  0
   -0.7059    5.4996    0.6148 C   0  0  0  0  0  0  0  0  0  0  0  0
   -1.7312    5.6926    0.2493 H   0  0  0  0  0  0  0  0  0  0  0  0
   -0.0059    6.1438    0.0428 H   0  0  0  0  0  0  0  0  0  0  0  0
   -0.6546    5.8182    1.6775 H   0  0  0  0  0  0  0  0  0  0  0  0
   -2.4509    2.8728   -0.4823 C   0  0  0  0  0  0  0  0  0  0  0  0
   -3.1126    2.3547    0.2398 H   0  0  0  0  0  0  0  0  0  0  0  0
   -2.5003    2.3010   -1.4286 H   0  0  0  0  0  0  0  0  0  0  0  0
   -2.8565    3.8878   -0.6523 H   0  0  0  0  0  0  0  0  0  0  0  0
   -0.3701    4.0635    0.4595 C   0  0  0  0  0  0  0  0  0  0  0  0
    3.7610   -1.4022    1.2389 F   0  0  0  0  0  0  0  0  0  0  0  0
   -1.0519    2.9527    0.0227 C   0  0  0  0  0  0  0  0  0  0  0  0
    4.2847   -0.5867   -0.7160 F   0  0  0  0  0  0  0  0  0  0  0  0
    0.9003    3.6639    0.8213 O   0  0  0  0  0  0  0  0  0  0  0  0
  2  4  1  0  0  0  0
  3  6  1  0  0  0  0
  4  7  1  6  0  0  0
  4 21  1  0  0  0  0
  5  1  1  0  0  0  0
  5 18  1  0  0  0  0
  6  5  1  0  0  0  0
  6  7  2  0  0  0  0
  7  8  1  0  0  0  0
  9 12  1  0  0  0  0
 10  9  1  0  0  0  0
 11  9  1  0  0  0  0
 13 19  1  0  0  0  0
 13 14  1  0  0  0  0
 15 13  1  0  0  0  0
 16 13  1  0  0  0  0
 17  9  1  0  0  0  0
 17 21  1  0  0  0  0
 19  2  1  0  0  0  0
 19 17  2  0  0  0  0
 20  5  1  0  0  0  0
M  CHG  1   3  -1
M  END
