1,2
q = 0.0, confidence = 0.998

 47 47  0  0  0  0  0  0  0  0999 V2000
   -0.8707    0.5874   -0.9551 O   0  5  0  0  0  0  0  0  0  0  0  0
   -1.2018   -1.8972    0.7464 N   0  0  0  0  0  0  0  0  0  0  0  0
   -0.4240    2.8863   -0.0466 N   0  3  0  0  0  0  0  0  0  0  0  0
    0.4039    0.2870   -0.7252 C   0  0  0  0  0  0  0  0  0  0  0  0
    0.8481   -1.0312   -0.4199 C   0  0  0  0  0  0  0  0  0  0  0  0
    2.2140   -1.2493   -0.1920 C   0  0  0  0  0  0  0  0  0  0  0  0
    3.1826   -0.2201   -0.2215 C   0  0  0  0  0  0  0  0  0  0  0  0
    2.7147    1.0859   -0.4584 C   0  0  0  0  0  0  0  0  0  0  0  0
    1.3575    1.3473   -0.7040 C   0  0  0  0  0  0  0  0  0  0  0  0
   -0.1569   -2.1491   -0.2934 C   0  0  0  0  0  0  0  0  0  0  0  0
    0.8074    2.7346   -0.9087 C   0  0  0  0  0  0  0  0  0  0  0  0
    4.6646   -0.5509    0.0278 C   0  0  0  0  0  0  0  0  0  0  0  0
    5.5519    0.7046   -0.0259 C   0  0  0  0  0  0  0  0  0  0  0  0
    4.8223   -1.1966    1.4233 C   0  0  0  0  0  0  0  0  0  0  0  0
    5.1545   -1.5395   -1.0548 C   0  0  0  0  0  0  0  0  0  0  0  0
   -2.0429   -3.0954    0.9098 C   0  0  0  0  0  0  0  0  0  0  0  0
   -0.6479   -1.4655    2.0367 C   0  0  0  0  0  0  0  0  0  0  0  0
   -0.1198    2.9171    1.4030 C   0  0  0  0  0  0  0  0  0  0  0  0
   -1.3500    3.9618   -0.4541 C   0  0  0  0  0  0  0  0  0  0  0  0
   -0.9104    1.9096   -0.3082 H   0  0  0  0  0  0  0  0  0  0  0  0
    2.5304   -2.2797    0.0390 H   0  0  0  0  0  0  0  0  0  0  0  0
    3.4140    1.9352   -0.4492 H   0  0  0  0  0  0  0  0  0  0  0  0
   -0.7145   -2.2984   -1.2446 H   0  0  0  0  0  0  0  0  0  0  0  0
    0.3779   -3.0996   -0.0584 H   0  0  0  0  0  0  0  0  0  0  0  0
    0.4593    2.8824   -1.9528 H   0  0  0  0  0  0  0  0  0  0  0  0
    1.5385    3.5310   -0.6619 H   0  0  0  0  0  0  0  0  0  0  0  0
    5.4995    1.2040   -1.0145 H   0  0  0  0  0  0  0  0  0  0  0  0
    6.6103    0.4261    0.1508 H   0  0  0  0  0  0  0  0  0  0  0  0
    5.2691    1.4436    0.7511 H   0  0  0  0  0  0  0  0  0  0  0  0
    4.2348   -2.1319    1.5134 H   0  0  0  0  0  0  0  0  0  0  0  0
    4.4797   -0.5053    2.2199 H   0  0  0  0  0  0  0  0  0  0  0  0
    5.8853   -1.4490    1.6190 H   0  0  0  0  0  0  0  0  0  0  0  0
    5.0579   -1.0970   -2.0668 H   0  0  0  0  0  0  0  0  0  0  0  0
    4.5707   -2.4814   -1.0436 H   0  0  0  0  0  0  0  0  0  0  0  0
    6.2206   -1.8014   -0.8916 H   0  0  0  0  0  0  0  0  0  0  0  0
   -2.5438   -3.3207   -0.0516 H   0  0  0  0  0  0  0  0  0  0  0  0
   -2.8284   -2.8901    1.6626 H   0  0  0  0  0  0  0  0  0  0  0  0
   -1.4368   -3.9680    1.2498 H   0  0  0  0  0  0  0  0  0  0  0  0
   -0.0027   -0.5796    1.8926 H   0  0  0  0  0  0  0  0  0  0  0  0
   -0.0417   -2.2709    2.5143 H   0  0  0  0  0  0  0  0  0  0  0  0
   -1.4804   -1.1764    2.7057 H   0  0  0  0  0  0  0  0  0  0  0  0
    0.6321    2.1365    1.6203 H   0  0  0  0  0  0  0  0  0  0  0  0
   -1.0524    2.6834    1.9510 H   0  0  0  0  0  0  0  0  0  0  0  0
    0.2816    3.9125    1.6805 H   0  0  0  0  0  0  0  0  0  0  0  0
   -1.5864    3.8452   -1.5279 H   0  0  0  0  0  0  0  0  0  0  0  0
   -0.8954    4.9565   -0.2741 H   0  0  0  0  0  0  0  0  0  0  0  0
   -2.2804    3.8443    0.1329 H   0  0  0  0  0  0  0  0  0  0  0  0
  1  4  1  0  0  0  0
  2 16  1  0  0  0  0
  2 17  1  0  0  0  0
  3 18  1  0  0  0  0
  4  9  2  0  0  0  0
  4  5  1  0  0  0  0
  5 10  1  0  0  0  0
  5  6  2  0  0  0  0
  6 21  1  0  0  0  0
  7  6  1  0  0  0  0
  7 12  1  0  0  0  0
  8 22  1  0  0  0  0
  8  7  2  0  0  0  0
  9  8  1  0  0  0  0
 10 24  1  0  0  0  0
 10  2  1  0  0  0  0
 11  9  1  0  0  0  0
 11 26  1  0  0  0  0
 11  3  1  0  0  0  0
 12 14  1  0  0  0  0
 13 12  1  0  0  0  0
 13 28  1  0  0  0  0
 13 29  1  0  0  0  0
 14 30  1  0  0  0  0
 14 32  1  0  0  0  0
 14 31  1  0  0  0  0
 15 34  1  0  0  0  0
 15 35  1  0  0  0  0
 15 12  1  0  0  0  0
 16 38  1  0  0  0  0
 16 37  1  0  0  0  0
 17 40  1  0  0  0  0
 17 41  1  0  0  0  0
 18 42  1  0  0  0  0
 18 44  1  0  0  0  0
 18 43  1  0  0  0  0
 19 46  1  0  0  0  0
 19  3  1  0  0  0  0
 19 47  1  0  0  0  0
 20  3  1  0  0  0  0
 23 10  1  0  0  0  0
 25 11  1  0  0  0  0
 27 13  1  0  0  0  0
 33 15  1  0  0  0  0
 36 16  1  0  0  0  0
 39 17  1  0  0  0  0
 45 19  1  0  0  0  0
M  CHG  2   1  -1   3   1
M  END
