2,3
q = -1.0

 31 32  0  0  0  0  0  0  0  0999 V2000
    6.4879    1.7624    0.4754 F   0  0  0  0  0  0  0  0  0  0  0  0
   -0.9968   -1.9270    1.0340 O   0  5  0  0  0  0  0  0  0  0  0  0
    1.1292   -1.5752   -0.8998 N   0  0  0  0  0  2  0  0  0  0  0  0
    4.2381    0.3231   -1.9980 C   0  0  0  0  0  0  0  0  0  0  0  0
    4.1494    0.2393   -3.0931 H   0  0  0  0  0  0  0  0  0  0  0  0
    5.3385    0.9961   -1.4509 C   0  0  0  0  0  0  0  0  0  0  0  0
    6.1216    1.4356   -2.0853 H   0  0  0  0  0  0  0  0  0  0  0  0
    5.4367    1.1100   -0.0581 C   0  0  0  0  0  0  0  0  0  0  0  0
    4.4690    0.5577    0.7864 C   0  0  0  0  0  0  0  0  0  0  0  0
    4.5744    0.6686    1.8749 H   0  0  0  0  0  0  0  0  0  0  0  0
    3.3747   -0.1134    0.2217 C   0  0  0  0  0  0  0  0  0  0  0  0
    2.5986   -0.5322    0.8798 H   0  0  0  0  0  0  0  0  0  0  0  0
    3.2397   -0.2345   -1.1736 C   0  0  0  0  0  0  0  0  0  0  0  0
    2.0155   -0.8591   -1.8199 C   0  0  0  0  0  0  0  0  0  0  0  0
    2.3170   -1.5147   -2.6616 H   0  0  0  0  0  0  0  0  0  0  0  0
    1.4221   -0.0283   -2.2501 H   0  0  0  0  0  0  0  0  0  0  0  0
    1.3274   -2.8629   -0.6712 C   0  0  0  0  0  0  0  0  0  0  0  0
    0.4120   -3.7023    0.0994 C   0  0  0  0  0  0  0  0  0  0  0  0
   -0.6935   -3.1870    0.8778 C   0  0  0  0  0  0  0  0  0  0  0  0
   -1.5311   -4.1195    1.5708 C   0  0  0  0  0  0  0  0  0  0  0  0
   -2.3530   -3.6933    2.1642 H   0  0  0  0  0  0  0  0  0  0  0  0
   -1.3239   -5.4879    1.5005 C   0  0  0  0  0  0  0  0  0  0  0  0
   -1.9946   -6.1699    2.0463 H   0  0  0  0  0  0  0  0  0  0  0  0
   -0.2587   -6.0042    0.7274 C   0  0  0  0  0  0  0  0  0  0  0  0
   -0.0935   -7.0883    0.6507 H   0  0  0  0  0  0  0  0  0  0  0  0
    0.5791   -5.1217    0.0589 C   0  0  0  0  0  3  0  0  0  0  0  0
    1.3889   -5.5460   -0.5482 H   0  0  0  0  0  0  0  0  0  0  0  0
    2.5640   -3.5221   -1.2560 C   0  0  0  0  0  0  0  0  0  0  0  0
    2.9163   -4.3407   -0.6060 H   0  0  0  0  0  0  0  0  0  0  0  0
    2.3604   -3.9543   -2.2586 H   0  0  0  0  0  0  0  0  0  0  0  0
    3.3941   -2.8011   -1.3542 H   0  0  0  0  0  0  0  0  0  0  0  0
  3 17  1  0  0  0  0
  4  6  2  0  0  0  0
  4 13  1  0  0  0  0
  5  4  1  0  0  0  0
  6  8  1  0  0  0  0
  7  6  1  0  0  0  0
  8  1  1  0  0  0  0
  8  9  2  0  0  0  0
  9 10  1  0  0  0  0
 11  9  1  0  0  0  0
 11 12  1  0  0  0  0
 13 11  2  0  0  0  0
 14 13  1  0  0  0  0
 14  3  1  0  0  0  0
 15 14  1  0  0  0  0
 16 14  1  0  0  0  0
 17 18  2  0  0  0  0
 18 19  1  0  0  0  0
 19  2  1  0  0  0  0
 19 20  2  0  0  0  0
 20 21  1  0  0  0  0
 22 20  1  0  0  0  0
 22 23  1  0  0  0  0
 24 22  2  0  0  0  0
 25 24  1  0  0  0  0
 26 18  1  0  0  0  0
 26 24  1  0  0  0  0
 27 26  1  0  0  0  0
 28 17  1  0  0  0  0
 28 29  1  0  0  0  0
 30 28  1  0  0  0  0
 31 28  1  0  0  0  0
M  CHG  1   2  -1
M  END
