2,3
q = -1.0, confidence = 0.0

 31 32  0  0  1  0  0  0  0  0999 V2000
   -6.6242    1.6546   -2.6383 F   0  0  0  0  0  0  0  0  0  0  0  0
    0.4962    1.2662   -0.8695 O   0  0  0  0  0  1  0  0  0  0  0  0
   -1.4489    0.8706    1.0811 N   0  0  0  0  0  2  0  0  0  0  0  0
   -5.1753    0.6324    0.5408 C   0  0  0  0  0  0  0  0  0  0  0  0
   -5.5069    0.3085    1.5404 H   0  0  0  0  0  0  0  0  0  0  0  0
   -6.1363    0.9393   -0.4318 C   0  0  0  0  0  0  0  0  0  0  0  0
   -7.2134    0.8685   -0.2229 H   0  0  0  0  0  0  0  0  0  0  0  0
   -5.7068    1.3531   -1.6989 C   0  0  0  0  0  0  0  0  0  0  0  0
   -4.3465    1.4656   -2.0051 C   0  0  0  0  0  0  0  0  0  0  0  0
   -4.0443    1.7966   -3.0090 H   0  0  0  0  0  0  0  0  0  0  0  0
   -3.3963    1.1523   -1.0218 C   0  0  0  0  0  0  0  0  0  0  0  0
   -2.3240    1.2393   -1.2562 H   0  0  0  0  0  0  0  0  0  0  0  0
   -3.7972    0.7306    0.2617 C   0  0  0  0  0  0  0  0  0  0  0  0
   -2.7879    0.3410    1.3306 C   0  0  0  0  0  0  0  0  0  0  0  0
   -3.1596    0.6559    2.3281 H   0  0  0  0  0  0  0  0  0  0  0  0
   -2.6848   -0.7631    1.3686 H   0  0  0  0  0  0  0  0  0  0  0  0
   -1.1553    2.1137    1.3999 C   0  0  0  0  0  0  0  0  0  0  0  0
    0.1216    2.7298    1.0394 C   0  0  0  0  0  0  0  0  0  0  0  0
    0.8509    2.2904   -0.1269 C   0  0  2  0  0  3  0  0  0  0  0  0
    1.9987    3.0396   -0.5220 C   0  0  0  0  0  0  0  0  0  0  0  0
    2.5310    2.7032   -1.4230 H   0  0  0  0  0  0  0  0  0  0  0  0
    2.4588    4.1151    0.2301 C   0  0  0  0  0  0  0  0  0  0  0  0
    3.3701    4.6462   -0.0867 H   0  0  0  0  0  0  0  0  0  0  0  0
    1.7801    4.5140    1.4027 C   0  0  0  0  0  0  0  0  0  0  0  0
    2.1563    5.3482    2.0120 H   0  0  0  0  0  0  0  0  0  0  0  0
    0.6216    3.8380    1.7763 C   0  0  0  0  0  0  0  0  0  0  0  0
    0.0931    4.1553    2.6874 H   0  0  0  0  0  0  0  0  0  0  0  0
   -2.1905    2.9558    2.1136 C   0  0  0  0  0  0  0  0  0  0  0  0
   -1.8707    4.0053    2.2112 H   0  0  0  0  0  0  0  0  0  0  0  0
   -2.4096    2.5547    3.1251 H   0  0  0  0  0  0  0  0  0  0  0  0
   -3.1423    2.9405    1.5452 H   0  0  0  0  0  0  0  0  0  0  0  0
  1  8  1  0  0  0  0
  3 14  1  0  0  0  0
  3 17  1  0  0  0  0
  4  5  1  0  0  0  0
  6  7  1  0  0  0  0
  6  4  2  0  0  0  0
  8  6  1  0  0  0  0
  9  8  2  0  0  0  0
  9 11  1  0  0  0  0
 10  9  1  0  0  0  0
 11 13  2  0  0  0  0
 12 11  1  0  0  0  0
 13  4  1  0  0  0  0
 13 14  1  0  0  0  0
 14 16  1  0  0  0  0
 14 15  1  0  0  0  0
 17 28  1  0  0  0  0
 18 17  2  0  0  0  0
 18 26  1  0  0  0  0
 19  2  1  6  0  0  0
 19 18  1  0  0  0  0
 20 19  1  0  0  0  0
 20 22  2  0  0  0  0
 21 20  1  0  0  0  0
 22 24  1  0  0  0  0
 23 22  1  0  0  0  0
 24 26  2  0  0  0  0
 24 25  1  0  0  0  0
 26 27  1  0  0  0  0
 28 29  1  0  0  0  0
 28 30  1  0  0  0  0
 31 28  1  0  0  0  0
M  END
