1,2
q = -1.0

 26 27  0  0  0  0  0  0  0  0999 V2000
    1.6430   -0.8903   -0.0799 O   0  5  0  0  0  0  0  0  0  0  0  0
    0.9779    1.5917    0.0540 N   0  0  0  0  0  2  0  0  0  0  0  0
    0.5300    2.8482    0.1297 C   0  0  0  0  0  0  0  0  0  0  0  0
    1.4318    3.9398    0.1610 C   0  0  0  0  0  0  0  0  0  0  0  0
    2.8050    3.7162    0.1145 C   0  0  0  0  0  0  0  0  0  0  0  0
    3.3075    2.3856    0.0363 C   0  0  0  0  0  0  0  0  0  0  0  0
    4.6707    1.9887   -0.0173 C   0  0  0  0  0  3  0  0  0  0  0  0
    4.9888    0.6305   -0.0927 C   0  0  0  0  0  0  0  0  0  0  0  0
    4.0223   -0.4113   -0.1188 C   0  0  0  0  0  0  0  0  0  0  0  0
    2.6581   -0.0412   -0.0668 C   0  0  0  0  0  0  0  0  0  0  0  0
    2.3288    1.3450    0.0084 C   0  0  0  0  0  0  0  0  0  0  0  0
    4.3687   -1.8889   -0.1701 C   0  0  0  0  0  0  0  0  0  0  0  0
    5.7853   -2.1858   -0.6692 C   0  0  0  0  0  0  0  0  0  0  0  0
    4.1087   -2.5453    1.2009 C   0  0  0  0  0  0  0  0  0  0  0  0
   -0.5637    2.9652    0.1671 H   0  0  0  0  0  0  0  0  0  0  0  0
    1.0276    4.9603    0.2229 H   0  0  0  0  0  0  0  0  0  0  0  0
    3.5105    4.5614    0.1385 H   0  0  0  0  0  0  0  0  0  0  0  0
    5.4626    2.7515   -0.0017 H   0  0  0  0  0  0  0  0  0  0  0  0
    6.0515    0.3487   -0.1376 H   0  0  0  0  0  0  0  0  0  0  0  0
    3.6458   -2.3427   -0.8853 H   0  0  0  0  0  0  0  0  0  0  0  0
    5.9325   -3.2787   -0.7831 H   0  0  0  0  0  0  0  0  0  0  0  0
    5.9863   -1.7107   -1.6506 H   0  0  0  0  0  0  0  0  0  0  0  0
    6.5556   -1.8288    0.0463 H   0  0  0  0  0  0  0  0  0  0  0  0
    4.2707   -3.6422    1.1527 H   0  0  0  0  0  0  0  0  0  0  0  0
    3.0681   -2.3614    1.5320 H   0  0  0  0  0  0  0  0  0  0  0  0
    4.7947   -2.1311    1.9687 H   0  0  0  0  0  0  0  0  0  0  0  0
  1 10  1  0  0  0  0
  2  3  1  0  0  0  0
  3  4  2  0  0  0  0
  3 15  1  0  0  0  0
  4 16  1  0  0  0  0
  5 17  1  0  0  0  0
  5  4  1  0  0  0  0
  6  5  2  0  0  0  0
  7 18  1  0  0  0  0
  7  6  1  0  0  0  0
  8  7  1  0  0  0  0
  9  8  2  0  0  0  0
  9 10  1  0  0  0  0
 10 11  2  0  0  0  0
 11  6  1  0  0  0  0
 11  2  1  0  0  0  0
 12  9  1  0  0  0  0
 12 14  1  0  0  0  0
 13 12  1  0  0  0  0
 13 23  1  0  0  0  0
 14 25  1  0  0  0  0
 14 26  1  0  0  0  0
 19  8  1  0  0  0  0
 20 12  1  0  0  0  0
 21 13  1  0  0  0  0
 22 13  1  0  0  0  0
 24 14  1  0  0  0  0
M  CHG  1   1  -1
M  END
