17,21
q = -2.0, confidence = 0.92

 21 21  0  0  0  0  0  0  0  0999 V2000
   -2.4731   -1.7852   -0.3542 C   0  0  0  0  0  0  0  0  0  0  0  0
   -3.0359   -2.2801    0.8299 C   0  0  0  0  0  0  0  0  0  0  0  0
   -2.4407   -2.9578    1.4582 H   0  0  0  0  0  0  0  0  0  0  0  0
   -4.3247   -1.8774    1.2099 C   0  0  0  0  0  0  0  0  0  0  0  0
   -4.7770   -2.2346    2.1459 H   0  0  0  0  0  0  0  0  0  0  0  0
   -5.0338   -0.9888    0.3878 C   0  0  0  0  0  0  0  0  0  0  0  0
   -4.4866   -0.5166   -0.8183 C   0  0  0  0  0  0  0  0  0  0  0  0
   -5.0620    0.1799   -1.4435 H   0  0  0  0  0  0  0  0  0  0  0  0
   -3.1974   -0.9152   -1.1851 C   0  0  0  0  0  0  0  0  0  0  0  0
   -2.7371   -0.5289   -2.1064 H   0  0  0  0  0  0  0  0  0  0  0  0
    0.2261   -0.8460   -2.8062 C   0  0  0  0  0  0  0  0  0  0  0  0
   -0.5095   -0.2219   -3.3696 H   0  0  0  0  0  0  0  0  0  0  0  0
    0.2399   -1.8393   -3.2982 H   0  0  0  0  0  0  0  0  0  0  0  0
    1.5986   -0.1814   -2.9682 C   0  0  0  0  0  0  0  0  0  0  0  0
   -0.9833   -3.2742   -1.9486 O   0  0  0  0  0  0  0  0  0  0  0  0
   -0.1990   -2.7792    0.4429 O   0  0  0  0  0  0  0  0  0  0  0  0
    2.1268    0.2359   -1.8314 O   0  5  0  0  0  0  0  0  0  0  0  0
    2.1404   -0.0270   -4.0549 O   0  0  0  0  0  0  0  0  0  0  0  0
   -0.8068   -2.3029   -0.8378 S   0  0  0  0  0  0  0  0  0  0  0  0
   -6.6032   -0.4088    0.8957 Cl  0  0  0  0  0  0  0  0  0  0  0  0
   -0.1025   -0.9357   -1.3887 N   0  0  0  0  0  2  0  0  0  0  0  0
  1  2  1  0  0  0  0
  2  4  2  0  0  0  0
  2  3  1  0  0  0  0
  4  5  1  0  0  0  0
  6 20  1  0  0  0  0
  6  4  1  0  0  0  0
  7  6  2  0  0  0  0
  8  7  1  0  0  0  0
  9  7  1  0  0  0  0
  9  1  2  0  0  0  0
 10  9  1  0  0  0  0
 11 21  1  0  0  0  0
 12 11  1  0  0  0  0
 13 11  1  0  0  0  0
 14 11  1  0  0  0  0
 14 17  1  0  0  0  0
 15 19  2  0  0  0  0
 18 14  2  0  0  0  0
 19  1  1  0  0  0  0
 19 16  2  0  0  0  0
 21 19  1  0  0  0  0
M  CHG  1  17  -1
M  END
