1,2
q = -1.0

 16 16  0  0  0  0  0  0  0  0999 V2000
   -0.7300   -2.2688    0.0004 O   0  5  0  0  0  0  0  0  0  0  0  0
   -2.0371    0.1021   -0.0001 N   0  0  0  0  0  2  0  0  0  0  0  0
   -2.7025   -3.4074   -0.0002 O   0  0  0  0  0  0  0  0  0  0  0  0
   -6.0821    0.2801   -0.0001 O   0  5  0  0  0  0  0  0  0  0  0  0
   -2.0317   -2.3794    0.0000 C   0  0  0  0  0  0  0  0  0  0  0  0
   -2.6769    1.2899   -0.0002 C   0  0  0  0  0  3  0  0  0  0  0  0
   -2.0291    2.1829   -0.0003 H   0  0  0  0  0  0  0  0  0  0  0  0
   -2.7741   -1.0297   -0.0000 C   0  0  0  0  0  0  0  0  0  0  0  0
   -4.8302    0.2206   -0.0001 N   0  3  0  0  0  0  0  0  0  0  0  0
   -4.1610   -0.9916   -0.0001 C   0  0  0  0  0  0  0  0  0  0  0  0
   -4.7862   -1.8929   -0.0000 H   0  0  0  0  0  0  0  0  0  0  0  0
   -4.0642    1.4016   -0.0002 C   0  0  0  0  0  0  0  0  0  0  0  0
   -4.8400    2.6689   -0.0002 C   0  0  0  0  0  0  0  0  0  0  0  0
   -5.5098    2.7110    0.8837 H   0  0  0  0  0  0  0  0  0  0  0  0
   -5.5100    2.7109   -0.8841 H   0  0  0  0  0  0  0  0  0  0  0  0
   -4.1632    3.5419   -0.0003 H   0  0  0  0  0  0  0  0  0  0  0  0
  2  8  1  0  0  0  0
  3  5  2  0  0  0  0
  4  9  1  0  0  0  0
  5  1  1  0  0  0  0
  6 12  1  0  0  0  0
  6  2  1  0  0  0  0
  7  6  1  0  0  0  0
  8  5  1  0  0  0  0
  9 10  1  0  0  0  0
 10  8  2  0  0  0  0
 10 11  1  0  0  0  0
 12  9  2  0  0  0  0
 13 12  1  0  0  0  0
 13 14  1  0  0  0  0
 15 13  1  0  0  0  0
 16 13  1  0  0  0  0
M  CHG  3   1  -1   4  -1   9   1
M  END
