3,4
q = -1.0, confidence = 0.0

 25 26  0  0  0  0  0  0  0  0999 V2000
   -3.7033   -2.4591   -2.2203 I   0  0  0  0  0  0  0  0  0  0  0  0
   -7.4880    1.3987    0.5913 I   0  0  0  0  0  0  0  0  0  0  0  0
   -0.7530    1.6133    0.9497 N   0  0  0  0  0  2  0  0  0  0  0  0
   -1.6731   -0.5179   -0.8422 O   0  5  0  0  0  0  0  0  0  0  0  0
   -2.0471    1.8432    0.9702 C   0  0  0  0  0  3  0  0  0  0  0  0
   -2.4008    2.7295    1.5380 H   0  0  0  0  0  0  0  0  0  0  0  0
   -3.0865    1.0541    0.3658 C   0  0  0  0  0  0  0  0  0  0  0  0
   -2.8413   -0.0865   -0.5060 C   0  0  0  0  0  0  0  0  0  0  0  0
   -4.0169   -0.7582   -1.0020 C   0  0  0  0  0  0  0  0  0  0  0  0
   -5.3099   -0.3502   -0.6952 C   0  0  0  0  0  0  0  0  0  0  0  0
   -6.1702   -0.9031   -1.0972 H   0  0  0  0  0  0  0  0  0  0  0  0
   -5.5097    0.7777    0.1396 C   0  0  0  0  0  0  0  0  0  0  0  0
   -4.4226    1.4646    0.6567 C   0  0  0  0  0  0  0  0  0  0  0  0
   -4.5727    2.3387    1.3079 H   0  0  0  0  0  0  0  0  0  0  0  0
    0.1643    2.5293    1.5158 C   0  0  0  0  0  0  0  0  0  0  0  0
   -0.0418    3.9260    1.4839 C   0  0  0  0  0  0  0  0  0  0  0  0
   -0.9323    4.3377    0.9865 H   0  0  0  0  0  0  0  0  0  0  0  0
    0.9167    4.7886    2.0322 C   0  0  0  0  0  0  0  0  0  0  0  0
    0.7534    5.8760    1.9883 H   0  0  0  0  0  0  0  0  0  0  0  0
    2.0903    4.2765    2.6080 C   0  0  0  0  0  0  0  0  0  0  0  0
    2.8457    4.9592    3.0242 H   0  0  0  0  0  0  0  0  0  0  0  0
    2.3039    2.8883    2.6300 C   0  0  0  0  0  0  0  0  0  0  0  0
    3.2245    2.4755    3.0687 H   0  0  0  0  0  0  0  0  0  0  0  0
    1.3521    2.0202    2.0850 C   0  0  0  0  0  0  0  0  0  0  0  0
    1.5173    0.9326    2.1060 H   0  0  0  0  0  0  0  0  0  0  0  0
  1  9  1  0  0  0  0
  3  5  1  0  0  0  0
  3 15  1  0  0  0  0
  4  8  1  0  0  0  0
  5  6  1  0  0  0  0
  7 13  1  0  0  0  0
  7  5  1  0  0  0  0
  8  7  2  0  0  0  0
  9 10  2  0  0  0  0
  9  8  1  0  0  0  0
 10 12  1  0  0  0  0
 11 10  1  0  0  0  0
 12  2  1  0  0  0  0
 12 13  2  0  0  0  0
 13 14  1  0  0  0  0
 15 24  1  0  0  0  0
 16 15  2  0  0  0  0
 16 18  1  0  0  0  0
 17 16  1  0  0  0  0
 18 20  2  0  0  0  0
 19 18  1  0  0  0  0
 20 22  1  0  0  0  0
 20 21  1  0  0  0  0
 22 23  1  0  0  0  0
 24 25  1  0  0  0  0
 24 22  2  0  0  0  0
M  CHG  1   4  -1
M  END
