1,9
q = -1.0

 24 24  0  0  1  0  0  0  0  0999 V2000
    0.0488   -1.0554   -0.5413 O   0  0  0  0  0  1  0  0  0  0  0  0
   -1.5387    2.5750    0.9503 O   0  0  0  0  0  0  0  0  0  0  0  0
   -1.7106    2.6531    1.9078 H   0  0  0  0  0  0  0  0  0  0  0  0
   -3.7746    1.2717   -0.2620 O   0  0  0  0  0  0  0  0  0  0  0  0
   -3.7215    2.2063    0.0187 H   0  0  0  0  0  0  0  0  0  0  0  0
   -2.1675   -0.9751   -1.1757 O   0  0  0  0  0  0  0  0  0  0  0  0
   -4.6912   -1.6518    1.2883 O   0  0  0  0  0  0  0  0  0  0  0  0
   -5.6334   -1.8797    1.2087 H   0  0  0  0  0  0  0  0  0  0  0  0
    0.4520    1.6208   -0.7826 N   0  0  0  0  0  0  0  0  0  0  0  0
    0.4575    2.4530   -0.1671 H   0  0  0  0  0  0  0  0  0  0  0  0
    0.7256    1.9420   -1.7235 H   0  0  0  0  0  0  0  0  0  0  0  0
   -0.9217   -0.3587   -1.2890 C   0  0  1  0  0  0  0  0  0  0  0  0
   -0.6980   -0.3874   -2.3848 H   0  0  0  0  0  0  0  0  0  0  0  0
   -0.9512    1.1063   -0.7997 C   0  0  1  0  0  0  0  0  0  0  0  0
   -1.5860    1.7316   -1.4596 H   0  0  0  0  0  0  0  0  0  0  0  0
   -1.5228    1.1858    0.6104 C   0  0  2  0  0  0  0  0  0  0  0  0
   -0.8638    0.6092    1.3014 H   0  0  0  0  0  0  0  0  0  0  0  0
   -2.9169    0.5505    0.6009 C   0  0  2  0  0  0  0  0  0  0  0  0
   -3.3209    0.5014    1.6419 H   0  0  0  0  0  0  0  0  0  0  0  0
   -2.7917   -0.8991    0.1131 C   0  0  1  0  0  0  0  0  0  0  0  0
   -2.1843   -1.4529    0.8642 H   0  0  0  0  0  0  0  0  0  0  0  0
   -4.1443   -1.5901   -0.0153 C   0  0  0  0  0  0  0  0  0  0  0  0
   -4.7689   -0.9981   -0.7219 H   0  0  0  0  0  0  0  0  0  0  0  0
   -3.9728   -2.5974   -0.4636 H   0  0  0  0  0  0  0  0  0  0  0  0
  2  3  1  0  0  0  0
  4  5  1  0  0  0  0
  4 18  1  0  0  0  0
  6 20  1  0  0  0  0
  8  7  1  0  0  0  0
  9 10  1  0  0  0  0
 11  9  1  0  0  0  0
 12 13  1  6  0  0  0
 12  6  1  0  0  0  0
 12 14  1  0  0  0  0
 12  1  1  0  0  0  0
 14 15  1  6  0  0  0
 14  9  1  0  0  0  0
 14 16  1  0  0  0  0
 16  2  1  0  0  0  0
 16 17  1  1  0  0  0
 18 16  1  0  0  0  0
 18 19  1  1  0  0  0
 20 18  1  0  0  0  0
 20 21  1  1  0  0  0
 22 20  1  0  0  0  0
 22  7  1  0  0  0  0
 23 22  1  0  0  0  0
 24 22  1  0  0  0  0
M  END
