2,3
q = -1.0, confidence = 0.0

 31 32  0  0  0  0  0  0  0  0999 V2000
    7.1231    1.2792   -0.0544 Cl  0  0  0  0  0  0  0  0  0  0  0  0
    1.6801   -0.4492   -1.5961 O   0  5  0  0  0  0  0  0  0  0  0  0
    0.7311    1.5999    0.2899 N   0  0  0  0  0  2  0  0  0  0  0  0
    2.8490   -0.0106   -1.2269 C   0  0  0  0  0  0  0  0  0  0  0  0
    4.0168   -0.6223   -1.7877 C   0  0  0  0  0  0  0  0  0  0  0  0
    3.8504   -1.4256   -2.5201 H   0  0  0  0  0  0  0  0  0  0  0  0
    5.3029   -0.2389   -1.4326 C   0  0  0  0  0  0  0  0  0  0  0  0
    6.1786   -0.7356   -1.8755 H   0  0  0  0  0  0  0  0  0  0  0  0
    5.4988    0.8024   -0.4933 C   0  0  0  0  0  0  0  0  0  0  0  0
    4.4014    1.4413    0.0665 C   0  0  0  0  0  0  0  0  0  0  0  0
    4.5585    2.2580    0.7874 H   0  0  0  0  0  0  0  0  0  0  0  0
    3.0703    1.0590   -0.2687 C   0  0  0  0  0  0  0  0  0  0  0  0
    2.0155    1.8163    0.3620 C   0  0  0  0  0  3  0  0  0  0  0  0
    2.3559    2.6788    0.9788 H   0  0  0  0  0  0  0  0  0  0  0  0
   -0.2002    2.5217    0.9391 C   0  0  0  0  0  0  0  0  0  0  0  0
    0.3749    3.2060    1.6099 H   0  0  0  0  0  0  0  0  0  0  0  0
   -1.2140    1.7376    1.7901 C   0  0  0  0  0  0  0  0  0  0  0  0
   -0.6753    1.1722    2.5794 H   0  0  0  0  0  0  0  0  0  0  0  0
   -1.7050    0.9840    1.1373 H   0  0  0  0  0  0  0  0  0  0  0  0
   -2.2892    2.6488    2.3922 C   0  0  0  0  0  0  0  0  0  0  0  0
   -3.0163    2.0377    2.9659 H   0  0  0  0  0  0  0  0  0  0  0  0
   -1.8195    3.3450    3.1233 H   0  0  0  0  0  0  0  0  0  0  0  0
   -3.0023    3.4597    1.3032 C   0  0  0  0  0  0  0  0  0  0  0  0
   -3.7637    4.1288    1.7551 H   0  0  0  0  0  0  0  0  0  0  0  0
   -3.5505    2.7633    0.6296 H   0  0  0  0  0  0  0  0  0  0  0  0
   -1.9945    4.2716    0.4800 C   0  0  0  0  0  0  0  0  0  0  0  0
   -1.5176    5.0352    1.1355 H   0  0  0  0  0  0  0  0  0  0  0  0
   -2.5101    4.8332   -0.3264 H   0  0  0  0  0  0  0  0  0  0  0  0
   -0.9142    3.3718   -0.1313 C   0  0  0  0  0  0  0  0  0  0  0  0
   -1.3670    2.6753   -0.8699 H   0  0  0  0  0  0  0  0  0  0  0  0
   -0.1568    3.9719   -0.6778 H   0  0  0  0  0  0  0  0  0  0  0  0
  2  4  1  0  0  0  0
  3 13  1  0  0  0  0
  3 15  1  0  0  0  0
  4 12  1  0  0  0  0
  5  7  1  0  0  0  0
  5  4  2  0  0  0  0
  6  5  1  0  0  0  0
  7  9  2  0  0  0  0
  8  7  1  0  0  0  0
  9  1  1  0  0  0  0
  9 10  1  0  0  0  0
 10 11  1  0  0  0  0
 12 10  2  0  0  0  0
 12 13  1  0  0  0  0
 13 14  1  0  0  0  0
 15 16  1  0  0  0  0
 15 17  1  0  0  0  0
 17 20  1  0  0  0  0
 17 18  1  0  0  0  0
 19 17  1  0  0  0  0
 20 21  1  0  0  0  0
 20 22  1  0  0  0  0
 23 24  1  0  0  0  0
 23 20  1  0  0  0  0
 25 23  1  0  0  0  0
 26 27  1  0  0  0  0
 26 23  1  0  0  0  0
 28 26  1  0  0  0  0
 29 26  1  0  0  0  0
 29 15  1  0  0  0  0
 30 29  1  0  0  0  0
 31 29  1  0  0  0  0
M  CHG  1   2  -1
M  END
