1,8
q = -1.0

 36 37  0  0  1  0  0  0  0  0999 V2000
   -1.4726   -0.7760   -0.4128 O   0  5  0  0  0  0  0  0  0  0  0  0
    2.3565   -1.3730    0.6072 O   0  0  0  0  0  0  0  0  0  0  0  0
    0.6381    3.8431   -0.5584 F   0  0  0  0  0  0  0  0  0  0  0  0
   -0.3895    3.6774    1.3492 F   0  0  0  0  0  0  0  0  0  0  0  0
   -1.3920    1.4957    0.2092 C   0  0  0  0  0  0  0  0  0  0  0  0
   -1.9704    2.3805    0.4906 H   0  0  0  0  0  0  0  0  0  0  0  0
    1.6795    3.0521    1.2020 F   0  0  0  0  0  0  0  0  0  0  0  0
    0.8661    0.6514   -0.0962 N   0  0  0  0  0  2  0  0  0  0  0  0
   -2.0984    0.3494   -0.1585 C   0  0  0  0  0  0  0  0  0  0  0  0
    0.0250    1.6376    0.1821 C   0  0  2  0  0  3  0  0  0  0  0  0
    3.0490   -0.3371    0.0236 C   0  0  0  0  0  0  0  0  0  0  0  0
   -4.1940   -0.9657   -0.3941 C   0  0  0  0  0  0  0  0  0  0  0  0
   -3.5657   -1.8676   -0.3858 H   0  0  0  0  0  0  0  0  0  0  0  0
    0.5064    3.0608    0.5465 C   0  0  0  0  0  0  0  0  0  0  0  0
   -3.5688    0.2989   -0.2798 C   0  0  0  0  0  0  0  0  0  0  0  0
   -6.3739    0.1024   -0.5008 C   0  0  0  0  0  0  0  0  0  0  0  0
   -7.4686    0.0276   -0.5858 H   0  0  0  0  0  0  0  0  0  0  0  0
   -4.3714    1.4640   -0.2851 C   0  0  0  0  0  0  0  0  0  0  0  0
   -3.9061    2.4581   -0.2231 H   0  0  0  0  0  0  0  0  0  0  0  0
    2.2401    0.7671   -0.3677 C   0  0  0  0  0  0  0  0  0  0  0  0
    2.8553    1.8081   -1.0906 C   0  0  0  0  0  0  0  0  0  0  0  0
    2.2404    2.6265   -1.4822 H   0  0  0  0  0  0  0  0  0  0  0  0
   -5.7620    1.3637   -0.3935 C   0  0  0  0  0  0  0  0  0  0  0  0
   -6.3754    2.2770   -0.4013 H   0  0  0  0  0  0  0  0  0  0  0  0
   -5.5857   -1.0601   -0.5018 C   0  0  0  0  0  0  0  0  0  0  0  0
   -6.0605   -2.0492   -0.5841 H   0  0  0  0  0  0  0  0  0  0  0  0
    4.2348    1.7910   -1.3385 C   0  0  0  0  0  0  0  0  0  0  0  0
    4.6919    2.6143   -1.9060 H   0  0  0  0  0  0  0  0  0  0  0  0
    5.0215    0.7262   -0.8812 C   0  0  0  0  0  0  0  0  0  0  0  0
    6.1043    0.7110   -1.0731 H   0  0  0  0  0  0  0  0  0  0  0  0
    3.0585   -2.4960    1.1542 C   0  0  0  0  0  0  0  0  0  0  0  0
    3.5303   -3.0858    0.3419 H   0  0  0  0  0  0  0  0  0  0  0  0
    2.2925   -3.1035    1.6656 H   0  0  0  0  0  0  0  0  0  0  0  0
    3.8186   -2.1446    1.8799 H   0  0  0  0  0  0  0  0  0  0  0  0
    4.4267   -0.3533   -0.2039 C   0  0  0  0  0  0  0  0  0  0  0  0
    5.0361   -1.2087    0.1143 H   0  0  0  0  0  0  0  0  0  0  0  0
  1  9  1  0  0  0  0
  2 31  1  0  0  0  0
  3 14  1  0  0  0  0
  5  6  1  0  0  0  0
  9  5  2  0  0  0  0
 10  8  1  1  0  0  0
 10  5  1  0  0  0  0
 10 14  1  0  0  0  0
 11  2  1  0  0  0  0
 12 13  1  0  0  0  0
 12 15  1  0  0  0  0
 14  7  1  0  0  0  0
 14  4  1  0  0  0  0
 15  9  1  0  0  0  0
 16 23  2  0  0  0  0
 17 16  1  0  0  0  0
 18 15  2  0  0  0  0
 18 19  1  0  0  0  0
 20  8  1  0  0  0  0
 20 11  2  0  0  0  0
 21 20  1  0  0  0  0
 22 21  1  0  0  0  0
 23 18  1  0  0  0  0
 24 23  1  0  0  0  0
 25 16  1  0  0  0  0
 25 12  2  0  0  0  0
 26 25  1  0  0  0  0
 27 21  2  0  0  0  0
 27 29  1  0  0  0  0
 28 27  1  0  0  0  0
 29 35  2  0  0  0  0
 30 29  1  0  0  0  0
 31 33  1  0  0  0  0
 31 34  1  0  0  0  0
 32 31  1  0  0  0  0
 35 11  1  0  0  0  0
 35 36  1  0  0  0  0
M  CHG  1   1  -1
M  END
