1,3
q = -1.0

 19 19  0  0  1  0  0  0  0  0999 V2000
   -0.7331   -1.8998   -1.1975 O   0  5  0  0  0  0  0  0  0  0  0  0
   -2.5143   -3.3049   -1.2050 O   0  0  0  0  0  0  0  0  0  0  0  0
   -2.2072    0.0338    0.0018 N   0  0  0  0  0  2  0  0  0  0  0  0
   -1.9745   -2.2304   -0.9604 C   0  0  0  0  0  0  0  0  0  0  0  0
   -2.8267   -1.1266   -0.3008 C   0  0  2  0  0  3  0  0  0  0  0  0
   -4.1893   -1.3112   -0.0337 C   0  0  0  0  0  0  0  0  0  0  0  0
   -4.8969   -0.2528    0.5484 C   0  0  0  0  0  0  0  0  0  0  0  0
   -4.2347    0.9497    0.8487 C   0  0  0  0  0  0  0  0  0  0  0  0
   -2.8640    1.0757    0.5653 C   0  0  0  0  0  0  0  0  0  0  0  0
   -2.0326    2.3059    0.8364 C   0  0  0  0  0  0  0  0  0  0  0  0
   -2.7711    3.5071    1.4162 C   0  0  0  0  0  0  0  0  0  0  0  0
   -4.6409   -2.2773   -0.2976 H   0  0  0  0  0  0  0  0  0  0  0  0
   -5.9704   -0.3560    0.7699 H   0  0  0  0  0  0  0  0  0  0  0  0
   -4.7788    1.7892    1.3013 H   0  0  0  0  0  0  0  0  0  0  0  0
   -1.2010    1.9987    1.5101 H   0  0  0  0  0  0  0  0  0  0  0  0
   -1.5239    2.5765   -0.1159 H   0  0  0  0  0  0  0  0  0  0  0  0
   -3.2282    3.2784    2.4007 H   0  0  0  0  0  0  0  0  0  0  0  0
   -2.0720    4.3525    1.5630 H   0  0  0  0  0  0  0  0  0  0  0  0
   -3.5770    3.8580    0.7398 H   0  0  0  0  0  0  0  0  0  0  0  0
  1  4  1  0  0  0  0
  2  4  2  0  0  0  0
  3  9  1  0  0  0  0
  5  4  1  6  0  0  0
  5  6  1  0  0  0  0
  5  3  1  0  0  0  0
  6  7  2  0  0  0  0
  7 13  1  0  0  0  0
  7  8  1  0  0  0  0
  8 14  1  0  0  0  0
  9 10  1  0  0  0  0
  9  8  2  0  0  0  0
 10 11  1  0  0  0  0
 10 15  1  0  0  0  0
 11 18  1  0  0  0  0
 11 17  1  0  0  0  0
 12  6  1  0  0  0  0
 16 10  1  0  0  0  0
 19 11  1  0  0  0  0
M  CHG  1   1  -1
M  END
