1,2
q = -1.0, confidence = 0.0

 22 22  0  0  1  0  0  0  0  0999 V2000
   -0.6874    0.8832   -1.4908 O   0  0  0  0  0  1  0  0  0  0  0  0
    1.3148   -0.8658   -0.9622 N   0  0  0  0  0  2  0  0  0  0  0  0
    1.8991   -1.5033   -0.4062 H   0  0  0  0  0  0  0  0  0  0  0  0
   -0.2403    0.8212   -2.7105 C   0  0  1  0  0  3  0  0  0  0  0  0
    0.8419    0.0374   -3.1308 C   0  0  0  0  0  0  0  0  0  0  0  0
    1.1052    0.0241   -4.1952 H   0  0  0  0  0  0  0  0  0  0  0  0
    1.5896   -0.7956   -2.2510 C   0  0  0  0  0  0  0  0  0  0  0  0
   -1.0064    1.6511   -3.6892 C   0  0  0  0  0  0  0  0  0  0  0  0
   -0.4497    2.0838   -4.9130 C   0  0  0  0  0  0  0  0  0  0  0  0
    0.5922    1.8323   -5.1586 H   0  0  0  0  0  0  0  0  0  0  0  0
   -1.2004    2.8618   -5.8043 C   0  0  0  0  0  0  0  0  0  0  0  0
   -0.7467    3.1976   -6.7493 H   0  0  0  0  0  0  0  0  0  0  0  0
   -2.5215    3.2214   -5.4912 C   0  0  0  0  0  0  0  0  0  0  0  0
   -3.1100    3.8318   -6.1930 H   0  0  0  0  0  0  0  0  0  0  0  0
   -3.0834    2.8021   -4.2743 C   0  0  0  0  0  0  0  0  0  0  0  0
   -4.1183    3.0793   -4.0211 H   0  0  0  0  0  0  0  0  0  0  0  0
   -2.3316    2.0297   -3.3802 C   0  0  0  0  0  0  0  0  0  0  0  0
   -2.7595    1.6942   -2.4252 H   0  0  0  0  0  0  0  0  0  0  0  0
    2.7185   -1.6206   -2.8241 C   0  0  0  0  0  0  0  0  0  0  0  0
    2.3370   -2.3147   -3.6008 H   0  0  0  0  0  0  0  0  0  0  0  0
    3.4684   -0.9666   -3.3142 H   0  0  0  0  0  0  0  0  0  0  0  0
    3.2299   -2.2162   -2.0435 H   0  0  0  0  0  0  0  0  0  0  0  0
  2  3  1  0  0  0  0
  4  1  1  6  0  0  0
  5  4  1  0  0  0  0
  5  7  2  0  0  0  0
  6  5  1  0  0  0  0
  7  2  1  0  0  0  0
  8 17  1  0  0  0  0
  8  4  1  0  0  0  0
  9  8  2  0  0  0  0
 10  9  1  0  0  0  0
 11 13  2  0  0  0  0
 11  9  1  0  0  0  0
 12 11  1  0  0  0  0
 13 15  1  0  0  0  0
 14 13  1  0  0  0  0
 15 16  1  0  0  0  0
 15 17  2  0  0  0  0
 17 18  1  0  0  0  0
 19  7  1  0  0  0  0
 19 22  1  0  0  0  0
 20 19  1  0  0  0  0
 21 19  1  0  0  0  0
M  END
