1,2
q = -1.0, confidence = 0.01

 34 35  0  0  0  0  0  0  0  0999 V2000
   -2.2755   -0.2735    0.4801 O   0  5  0  0  0  0  0  0  0  0  0  0
    0.2030    0.9117   -0.4678 N   0  0  0  0  0  2  0  0  0  0  0  0
   -2.7903    0.9052    0.1982 C   0  0  0  0  0  0  0  0  0  0  0  0
   -2.0142    2.0077   -0.3041 C   0  0  0  0  0  0  0  0  0  0  0  0
   -0.5954    1.9497   -0.5258 C   0  0  0  0  0  3  0  0  0  0  0  0
   -0.1266    2.9229   -0.7861 H   0  0  0  0  0  0  0  0  0  0  0  0
   -4.8051    2.3365    0.1762 C   0  0  0  0  0  0  0  0  0  0  0  0
   -4.1784    1.1143    0.4299 C   0  0  0  0  0  0  0  0  0  0  0  0
   -4.7512    0.2566    0.8137 H   0  0  0  0  0  0  0  0  0  0  0  0
   -2.6689    3.2499   -0.5449 C   0  0  0  0  0  0  0  0  0  0  0  0
   -2.0652    4.0917   -0.9215 H   0  0  0  0  0  0  0  0  0  0  0  0
   -4.0267    3.4188   -0.3215 C   0  0  0  0  0  0  0  0  0  0  0  0
   -4.5059    4.3884   -0.5244 H   0  0  0  0  0  0  0  0  0  0  0  0
    1.6304    1.1755   -0.6791 C   0  0  0  0  0  0  0  0  0  0  0  0
    1.7683    2.1689   -1.1609 H   0  0  0  0  0  0  0  0  0  0  0  0
    2.0312    0.4121   -1.3759 H   0  0  0  0  0  0  0  0  0  0  0  0
    2.4340    1.1367    0.6359 C   0  0  0  0  0  0  0  0  0  0  0  0
    2.2582    0.1592    1.1282 H   0  0  0  0  0  0  0  0  0  0  0  0
    2.0349    1.9151    1.3185 H   0  0  0  0  0  0  0  0  0  0  0  0
    3.9100    1.3472    0.3923 C   0  0  0  0  0  0  0  0  0  0  0  0
    4.7238    0.2743   -0.0289 C   0  0  0  0  0  0  0  0  0  0  0  0
    4.2805   -0.7277   -0.1425 H   0  0  0  0  0  0  0  0  0  0  0  0
    4.4928    2.6228    0.5293 C   0  0  0  0  0  0  0  0  0  0  0  0
    3.8683    3.4688    0.8597 H   0  0  0  0  0  0  0  0  0  0  0  0
    6.0854    0.4742   -0.2999 C   0  0  0  0  0  0  0  0  0  0  0  0
    6.7072   -0.3748   -0.6232 H   0  0  0  0  0  0  0  0  0  0  0  0
    6.6557    1.7495   -0.1565 C   0  0  0  0  0  0  0  0  0  0  0  0
    7.7249    1.9048   -0.3668 H   0  0  0  0  0  0  0  0  0  0  0  0
    5.8551    2.8245    0.2597 C   0  0  0  0  0  0  0  0  0  0  0  0
    6.2945    3.8269    0.3782 H   0  0  0  0  0  0  0  0  0  0  0  0
   -6.2813    2.5194    0.4127 C   0  0  0  0  0  0  0  0  0  0  0  0
   -6.8058    2.7672   -0.5342 H   0  0  0  0  0  0  0  0  0  0  0  0
   -6.4718    3.3624    1.1096 H   0  0  0  0  0  0  0  0  0  0  0  0
   -6.7484    1.6094    0.8345 H   0  0  0  0  0  0  0  0  0  0  0  0
  3  8  1  0  0  0  0
  3  1  1  0  0  0  0
  4  3  2  0  0  0  0
  5  2  1  0  0  0  0
  5  4  1  0  0  0  0
  6  5  1  0  0  0  0
  7 31  1  0  0  0  0
  7  8  2  0  0  0  0
  8  9  1  0  0  0  0
 10 12  2  0  0  0  0
 10  4  1  0  0  0  0
 11 10  1  0  0  0  0
 12  7  1  0  0  0  0
 13 12  1  0  0  0  0
 14  2  1  0  0  0  0
 14 17  1  0  0  0  0
 15 14  1  0  0  0  0
 16 14  1  0  0  0  0
 17 18  1  0  0  0  0
 17 19  1  0  0  0  0
 20 23  1  0  0  0  0
 20 17  1  0  0  0  0
 21 20  2  0  0  0  0
 22 21  1  0  0  0  0
 23 24  1  0  0  0  0
 25 27  2  0  0  0  0
 25 21  1  0  0  0  0
 26 25  1  0  0  0  0
 27 29  1  0  0  0  0
 28 27  1  0  0  0  0
 29 30  1  0  0  0  0
 29 23  2  0  0  0  0
 31 34  1  0  0  0  0
 31 33  1  0  0  0  0
 32 31  1  0  0  0  0
M  CHG  1   1  -1
M  END
