3,4
q = -1.0

 27 27  0  0  1  0  0  0  0  0999 V2000
    7.2419    1.4170    0.5953 Br  0  0  0  0  0  0  0  0  0  0  0  0
    3.8118   -2.7326   -1.2668 Br  0  0  0  0  0  0  0  0  0  0  0  0
    0.7041    1.7840    0.0649 N   0  0  0  0  0  2  0  0  0  0  0  0
    1.6652   -0.6949   -0.5203 O   0  0  0  0  0  1  0  0  0  0  0  0
    3.0747    1.1451    0.1544 C   0  0  0  0  0  0  0  0  0  0  0  0
    2.8455   -0.2013   -0.2961 C   0  0  2  0  0  3  0  0  0  0  0  0
    4.0211   -0.9895   -0.5381 C   0  0  0  0  0  0  0  0  0  0  0  0
    5.3047   -0.5183   -0.2714 C   0  0  0  0  0  0  0  0  0  0  0  0
    6.1729   -1.1659   -0.4535 H   0  0  0  0  0  0  0  0  0  0  0  0
    5.4827    0.7930    0.2236 C   0  0  0  0  0  0  0  0  0  0  0  0
    4.3847    1.6237    0.4149 C   0  0  0  0  0  0  0  0  0  0  0  0
    4.5227    2.6596    0.7570 H   0  0  0  0  0  0  0  0  0  0  0  0
    1.9741    2.0666    0.2021 C   0  0  0  0  0  0  0  0  0  0  0  0
    2.2453    3.1364    0.3048 H   0  0  0  0  0  0  0  0  0  0  0  0
   -0.2078    2.9127   -0.1387 C   0  0  0  0  0  0  0  0  0  0  0  0
    0.3413    3.8599    0.0631 H   0  0  0  0  0  0  0  0  0  0  0  0
   -1.0490    2.8290    0.5731 H   0  0  0  0  0  0  0  0  0  0  0  0
   -0.7631    2.9439   -1.5787 C   0  0  0  0  0  0  0  0  0  0  0  0
   -1.3779    2.0251   -1.6991 H   0  0  0  0  0  0  0  0  0  0  0  0
    0.3520    2.9179   -2.6283 C   0  0  0  0  0  0  0  0  0  0  0  0
    1.0367    3.7856   -2.5090 H   0  0  0  0  0  0  0  0  0  0  0  0
   -0.0705    2.9670   -3.6520 H   0  0  0  0  0  0  0  0  0  0  0  0
    0.9595    1.9934   -2.5598 H   0  0  0  0  0  0  0  0  0  0  0  0
   -1.6776    4.1616   -1.7473 C   0  0  0  0  0  0  0  0  0  0  0  0
   -1.1065    5.1078   -1.6327 H   0  0  0  0  0  0  0  0  0  0  0  0
   -2.4953    4.1610   -0.9992 H   0  0  0  0  0  0  0  0  0  0  0  0
   -2.1381    4.1714   -2.7555 H   0  0  0  0  0  0  0  0  0  0  0  0
  2  7  1  0  0  0  0
  3 13  1  0  0  0  0
  5 13  2  0  0  0  0
  5 11  1  0  0  0  0
  6  4  1  6  0  0  0
  6  5  1  0  0  0  0
  7  6  1  0  0  0  0
  7  8  2  0  0  0  0
  8 10  1  0  0  0  0
  9  8  1  0  0  0  0
 10 11  2  0  0  0  0
 10  1  1  0  0  0  0
 11 12  1  0  0  0  0
 13 14  1  0  0  0  0
 15 16  1  0  0  0  0
 15  3  1  0  0  0  0
 15 17  1  0  0  0  0
 18 15  1  0  0  0  0
 19 18  1  0  0  0  0
 20 23  1  0  0  0  0
 20 21  1  0  0  0  0
 20 18  1  0  0  0  0
 22 20  1  0  0  0  0
 24 25  1  0  0  0  0
 24 18  1  0  0  0  0
 24 26  1  0  0  0  0
 27 24  1  0  0  0  0
M  END
