3,4
q = -1.0

 27 27  0  0  0  0  0  0  0  0999 V2000
   -7.2419   -1.4170   -0.5953 Br  0  0  0  0  0  0  0  0  0  0  0  0
   -3.8118    2.7326    1.2668 Br  0  0  0  0  0  0  0  0  0  0  0  0
   -0.7041   -1.7840   -0.0649 N   0  0  0  0  0  2  0  0  0  0  0  0
   -1.6652    0.6949    0.5203 O   0  5  0  0  0  0  0  0  0  0  0  0
   -3.0747   -1.1451   -0.1544 C   0  0  0  0  0  0  0  0  0  0  0  0
   -2.8455    0.2013    0.2960 C   0  0  0  0  0  0  0  0  0  0  0  0
   -4.0211    0.9895    0.5381 C   0  0  0  0  0  0  0  0  0  0  0  0
   -5.3047    0.5183    0.2715 C   0  0  0  0  0  0  0  0  0  0  0  0
   -6.1729    1.1659    0.4536 H   0  0  0  0  0  0  0  0  0  0  0  0
   -5.4827   -0.7930   -0.2236 C   0  0  0  0  0  0  0  0  0  0  0  0
   -4.3847   -1.6237   -0.4149 C   0  0  0  0  0  3  0  0  0  0  0  0
   -4.5227   -2.6596   -0.7570 H   0  0  0  0  0  0  0  0  0  0  0  0
   -1.9741   -2.0666   -0.2022 C   0  0  0  0  0  0  0  0  0  0  0  0
   -2.2453   -3.1363   -0.3049 H   0  0  0  0  0  0  0  0  0  0  0  0
    0.2079   -2.9126    0.1386 C   0  0  0  0  0  0  0  0  0  0  0  0
   -0.3412   -3.8599   -0.0632 H   0  0  0  0  0  0  0  0  0  0  0  0
    1.0491   -2.8289   -0.5732 H   0  0  0  0  0  0  0  0  0  0  0  0
    0.7631   -2.9439    1.5786 C   0  0  0  0  0  0  0  0  0  0  0  0
    1.3781   -2.0251    1.6990 H   0  0  0  0  0  0  0  0  0  0  0  0
   -0.3520   -2.9177    2.6282 C   0  0  0  0  0  0  0  0  0  0  0  0
   -1.0368   -3.7854    2.5089 H   0  0  0  0  0  0  0  0  0  0  0  0
    0.0704   -2.9669    3.6519 H   0  0  0  0  0  0  0  0  0  0  0  0
   -0.9594   -1.9932    2.5597 H   0  0  0  0  0  0  0  0  0  0  0  0
    1.6774   -4.1616    1.7472 C   0  0  0  0  0  0  0  0  0  0  0  0
    1.1062   -5.1078    1.6326 H   0  0  0  0  0  0  0  0  0  0  0  0
    2.4951   -4.1612    0.9992 H   0  0  0  0  0  0  0  0  0  0  0  0
    2.1380   -4.1715    2.7555 H   0  0  0  0  0  0  0  0  0  0  0  0
  1 10  1  0  0  0  0
  3 15  1  0  0  0  0
  5  6  1  0  0  0  0
  6  4  1  0  0  0  0
  6  7  2  0  0  0  0
  7  2  1  0  0  0  0
  8  9  1  0  0  0  0
  8  7  1  0  0  0  0
 10  8  2  0  0  0  0
 11 10  1  0  0  0  0
 11  5  1  0  0  0  0
 12 11  1  0  0  0  0
 13  5  2  0  0  0  0
 13  3  1  0  0  0  0
 14 13  1  0  0  0  0
 15 18  1  0  0  0  0
 16 15  1  0  0  0  0
 17 15  1  0  0  0  0
 18 19  1  0  0  0  0
 18 24  1  0  0  0  0
 18 20  1  0  0  0  0
 20 22  1  0  0  0  0
 21 20  1  0  0  0  0
 23 20  1  0  0  0  0
 24 27  1  0  0  0  0
 25 24  1  0  0  0  0
 26 24  1  0  0  0  0
M  CHG  1   4  -1
M  END
