3,4
q = -1.0

 24 24  0  0  0  0  0  0  0  0999 V2000
    3.1107   -2.4608   -2.0340 Br  0  0  0  0  0  0  0  0  0  0  0  0
    7.2988    0.9853   -0.2620 Br  0  0  0  0  0  0  0  0  0  0  0  0
    1.1045    1.3426    1.8468 N   0  0  0  0  0  2  0  0  0  0  0  0
    1.4794   -0.7387   -0.1943 O   0  5  0  0  0  0  0  0  0  0  0  0
    3.1990    0.7525    0.6638 C   0  0  0  0  0  0  0  0  0  0  0  0
    2.7063   -0.3380   -0.1586 C   0  0  0  0  0  0  0  0  0  0  0  0
    3.6952   -1.0004   -0.9740 C   0  0  0  0  0  0  0  0  0  0  0  0
    5.0311   -0.6170   -1.0057 C   0  0  0  0  0  0  0  0  0  0  0  0
    5.7413   -1.1545   -1.6488 H   0  0  0  0  0  0  0  0  0  0  0  0
    5.4678    0.4653   -0.2062 C   0  0  0  0  0  0  0  0  0  0  0  0
    2.3732    1.5020    1.5788 C   0  0  0  0  0  3  0  0  0  0  0  0
    2.9070    2.3093    2.1284 H   0  0  0  0  0  0  0  0  0  0  0  0
    0.4682    2.2066    2.8377 C   0  0  0  0  0  0  0  0  0  0  0  0
    1.1907    2.9841    3.1796 H   0  0  0  0  0  0  0  0  0  0  0  0
    0.2155    1.5834    3.7255 H   0  0  0  0  0  0  0  0  0  0  0  0
   -0.8117    2.8613    2.3032 C   0  0  0  0  0  0  0  0  0  0  0  0
   -1.2608    3.4428    3.1363 H   0  0  0  0  0  0  0  0  0  0  0  0
   -1.5443    2.0636    2.0541 H   0  0  0  0  0  0  0  0  0  0  0  0
   -0.5876    3.7487    1.0810 C   0  0  0  0  0  0  0  0  0  0  0  0
    0.1338    4.5646    1.2974 H   0  0  0  0  0  0  0  0  0  0  0  0
   -1.5372    4.2092    0.7456 H   0  0  0  0  0  0  0  0  0  0  0  0
   -0.2025    3.1591    0.2259 H   0  0  0  0  0  0  0  0  0  0  0  0
    4.5712    1.1342    0.6135 C   0  0  0  0  0  0  0  0  0  0  0  0
    4.9158    1.9694    1.2413 H   0  0  0  0  0  0  0  0  0  0  0  0
  1  7  1  0  0  0  0
  2 10  1  0  0  0  0
  3 13  1  0  0  0  0
  4  6  1  0  0  0  0
  5 11  1  0  0  0  0
  6  5  2  0  0  0  0
  7  6  1  0  0  0  0
  8  7  2  0  0  0  0
  8 10  1  0  0  0  0
  9  8  1  0  0  0  0
 10 23  2  0  0  0  0
 11  3  1  0  0  0  0
 11 12  1  0  0  0  0
 13 14  1  0  0  0  0
 13 15  1  0  0  0  0
 16 13  1  0  0  0  0
 16 17  1  0  0  0  0
 18 16  1  0  0  0  0
 19 20  1  0  0  0  0
 19 16  1  0  0  0  0
 21 19  1  0  0  0  0
 22 19  1  0  0  0  0
 23  5  1  0  0  0  0
 23 24  1  0  0  0  0
M  CHG  1   4  -1
M  END
