2,3
q = 0.0, confidence = 0.998

 33 33  0  0  0  0  0  0  0  0999 V2000
   -6.0884    0.7122    0.2007 Br  0  0  0  0  0  0  0  0  0  0  0  0
   -0.6079   -1.7694   -0.5753 O   0  5  0  0  0  0  0  0  0  0  0  0
    0.3253    0.1619    1.4478 N   0  0  0  0  0  2  0  0  0  0  0  0
    3.8730    2.3305    0.3550 N   0  3  0  0  0  0  0  0  0  0  0  0
   -1.9684   -0.1017    0.5663 C   0  0  0  0  0  0  0  0  0  0  0  0
   -1.7466   -1.2029   -0.3635 C   0  0  0  0  0  0  0  0  0  0  0  0
   -2.9053   -1.6914   -1.0606 C   0  0  0  0  0  0  0  0  0  0  0  0
   -2.7426   -2.5311   -1.7518 H   0  0  0  0  0  0  0  0  0  0  0  0
   -4.1623   -1.1309   -0.9032 C   0  0  0  0  0  0  0  0  0  0  0  0
   -5.0207   -1.5218   -1.4693 H   0  0  0  0  0  0  0  0  0  0  0  0
   -4.3500   -0.0463   -0.0075 C   0  0  0  0  0  0  0  0  0  0  0  0
   -3.2780    0.4464    0.7174 C   0  0  0  0  0  0  0  0  0  0  0  0
   -3.4289    1.2727    1.4292 H   0  0  0  0  0  0  0  0  0  0  0  0
   -0.9576    0.4285    1.4368 C   0  0  0  0  0  3  0  0  0  0  0  0
   -1.3388    1.1341    2.2123 H   0  0  0  0  0  0  0  0  0  0  0  0
    1.1159    0.6867    2.5528 C   0  0  0  0  0  0  0  0  0  0  0  0
    0.5951    1.5526    3.0295 H   0  0  0  0  0  0  0  0  0  0  0  0
    1.2072   -0.0998    3.3349 H   0  0  0  0  0  0  0  0  0  0  0  0
    2.5419    1.0612    2.1258 C   0  0  0  0  0  0  0  0  0  0  0  0
    3.0142    0.1199    1.7672 H   0  0  0  0  0  0  0  0  0  0  0  0
    3.1068    1.4118    3.0166 H   0  0  0  0  0  0  0  0  0  0  0  0
    2.5262    2.1031    1.0227 C   0  0  0  0  0  0  0  0  0  0  0  0
    2.2030    3.0984    1.3909 H   0  0  0  0  0  0  0  0  0  0  0  0
    1.8509    1.7927    0.1939 H   0  0  0  0  0  0  0  0  0  0  0  0
    3.7316    3.3705   -0.7143 C   0  0  0  0  0  0  0  0  0  0  0  0
    4.7225    3.5714   -1.1593 H   0  0  0  0  0  0  0  0  0  0  0  0
    3.3117    4.2921   -0.2725 H   0  0  0  0  0  0  0  0  0  0  0  0
    3.0391    2.9539   -1.4739 H   0  0  0  0  0  0  0  0  0  0  0  0
    4.4960    1.0836   -0.2152 C   0  0  0  0  0  0  0  0  0  0  0  0
    3.8003    0.6879   -0.9846 H   0  0  0  0  0  0  0  0  0  0  0  0
    4.6211    0.3214    0.5721 H   0  0  0  0  0  0  0  0  0  0  0  0
    5.4700    1.3621   -0.6566 H   0  0  0  0  0  0  0  0  0  0  0  0
    4.5163    2.6926    1.0797 H   0  0  0  0  0  0  0  0  0  0  0  0
  2  6  1  0  0  0  0
  3 16  1  0  0  0  0
  4 22  1  0  0  0  0
  4 33  1  0  0  0  0
  5 12  1  0  0  0  0
  5 14  1  0  0  0  0
  6  5  2  0  0  0  0
  7  9  2  0  0  0  0
  7  6  1  0  0  0  0
  8  7  1  0  0  0  0
  9 11  1  0  0  0  0
 10  9  1  0  0  0  0
 11  1  1  0  0  0  0
 11 12  2  0  0  0  0
 12 13  1  0  0  0  0
 14  3  1  0  0  0  0
 14 15  1  0  0  0  0
 16 17  1  0  0  0  0
 16 18  1  0  0  0  0
 19 16  1  0  0  0  0
 19 21  1  0  0  0  0
 20 19  1  0  0  0  0
 22 23  1  0  0  0  0
 22 19  1  0  0  0  0
 24 22  1  0  0  0  0
 25 27  1  0  0  0  0
 25  4  1  0  0  0  0
 26 25  1  0  0  0  0
 28 25  1  0  0  0  0
 29  4  1  0  0  0  0
 29 31  1  0  0  0  0
 30 29  1  0  0  0  0
 32 29  1  0  0  0  0
M  CHG  2   2  -1   4   1
M  END
