1,2
q = -1.0

 23 24  0  0  0  0  0  0  0  0999 V2000
   -1.5112   -1.1653    1.1693 O   0  5  0  0  0  0  0  0  0  0  0  0
   -1.2458    1.0827   -0.2612 N   0  0  0  0  0  2  0  0  0  0  0  0
   -1.1117    2.2380   -0.9304 C   0  0  0  0  0  0  0  0  0  0  0  0
   -2.0470    2.6021   -1.9472 C   0  0  0  0  0  0  0  0  0  0  0  0
   -1.8969    3.5540   -2.4768 H   0  0  0  0  0  0  0  0  0  0  0  0
   -3.1158    1.7819   -2.2585 C   0  0  0  0  0  0  0  0  0  0  0  0
   -3.8333    2.0613   -3.0459 H   0  0  0  0  0  0  0  0  0  0  0  0
   -4.3783   -0.3350   -1.7496 C   0  0  0  0  0  3  0  0  0  0  0  0
   -5.1282   -0.1059   -2.5210 H   0  0  0  0  0  0  0  0  0  0  0  0
   -4.4765   -1.4823   -0.9713 C   0  0  0  0  0  0  0  0  0  0  0  0
   -5.3149   -2.1781   -1.1269 H   0  0  0  0  0  0  0  0  0  0  0  0
   -3.5195   -1.7784    0.0302 C   0  0  0  0  0  0  0  0  0  0  0  0
   -3.6031   -2.6815    0.6512 H   0  0  0  0  0  0  0  0  0  0  0  0
   -2.4447   -0.9123    0.2542 C   0  0  0  0  0  0  0  0  0  0  0  0
   -2.3171    0.2767   -0.5371 C   0  0  0  0  0  0  0  0  0  0  0  0
   -3.2983    0.5690   -1.5412 C   0  0  0  0  0  0  0  0  0  0  0  0
   -0.0147    3.2073   -0.5721 C   0  0  0  0  0  0  0  0  0  0  0  0
    0.0980    3.9265   -1.4085 H   0  0  0  0  0  0  0  0  0  0  0  0
    0.9440    2.6673   -0.4806 H   0  0  0  0  0  0  0  0  0  0  0  0
   -0.3047    3.9618    0.7356 C   0  0  0  0  0  0  0  0  0  0  0  0
   -0.4373    3.2554    1.5777 H   0  0  0  0  0  0  0  0  0  0  0  0
   -1.2269    4.5721    0.6494 H   0  0  0  0  0  0  0  0  0  0  0  0
    0.5350    4.6415    0.9820 H   0  0  0  0  0  0  0  0  0  0  0  0
  3 17  1  0  0  0  0
  3  2  1  0  0  0  0
  4  3  2  0  0  0  0
  5  4  1  0  0  0  0
  6  4  1  0  0  0  0
  6 16  2  0  0  0  0
  7  6  1  0  0  0  0
  8 16  1  0  0  0  0
  8 10  1  0  0  0  0
  9  8  1  0  0  0  0
 10 12  2  0  0  0  0
 11 10  1  0  0  0  0
 12 14  1  0  0  0  0
 12 13  1  0  0  0  0
 14  1  1  0  0  0  0
 15  2  1  0  0  0  0
 15 14  2  0  0  0  0
 16 15  1  0  0  0  0
 17 19  1  0  0  0  0
 17 20  1  0  0  0  0
 18 17  1  0  0  0  0
 20 23  1  0  0  0  0
 20 21  1  0  0  0  0
 22 20  1  0  0  0  0
M  CHG  1   1  -1
M  END
