1,3
q = -1.0, confidence = 0.012

 16 16  0  0  0  0  0  0  0  0999 V2000
    4.9439   -1.1609   -0.4628 O   0  5  0  0  0  0  0  0  0  0  0  0
    7.0541   -0.3358   -0.5360 O   0  0  0  0  0  0  0  0  0  0  0  0
    3.9497    1.1476    0.4665 N   0  0  0  0  0  2  0  0  0  0  0  0
    3.4632    2.2296    1.1147 C   0  0  0  0  0  3  0  0  0  0  0  0
    2.3868    2.2266    1.3274 H   0  0  0  0  0  0  0  0  0  0  0  0
    4.2794    3.2925    1.5091 C   0  0  0  0  0  0  0  0  0  0  0  0
    3.8230    4.1451    2.0331 H   0  0  0  0  0  0  0  0  0  0  0  0
    5.6626    3.2673    1.2423 C   0  0  0  0  0  0  0  0  0  0  0  0
    6.1565    2.1110    0.6097 C   0  0  0  0  0  0  0  0  0  0  0  0
    7.2232    1.9553    0.3866 H   0  0  0  0  0  0  0  0  0  0  0  0
    5.2977    1.0722    0.2526 C   0  0  0  0  0  0  0  0  0  0  0  0
    5.8509   -0.2348   -0.3133 C   0  0  0  0  0  0  0  0  0  0  0  0
    6.5704    4.4047    1.6163 C   0  0  0  0  0  0  0  0  0  0  0  0
    7.4736    4.0367    2.1432 H   0  0  0  0  0  0  0  0  0  0  0  0
    6.0618    5.1457    2.2616 H   0  0  0  0  0  0  0  0  0  0  0  0
    6.9260    4.9315    0.7057 H   0  0  0  0  0  0  0  0  0  0  0  0
  1 12  1  0  0  0  0
  2 12  2  0  0  0  0
  3  4  1  0  0  0  0
  4  5  1  0  0  0  0
  4  6  1  0  0  0  0
  6  7  1  0  0  0  0
  8  6  2  0  0  0  0
  8 13  1  0  0  0  0
  9  8  1  0  0  0  0
 10  9  1  0  0  0  0
 11  3  1  0  0  0  0
 11  9  2  0  0  0  0
 12 11  1  0  0  0  0
 13 14  1  0  0  0  0
 13 15  1  0  0  0  0
 16 13  1  0  0  0  0
M  CHG  1   1  -1
M  END
