1,2
q = -1.0

 27 28  0  0  1  0  0  0  0  0999 V2000
    2.6173    1.3405   -0.3045 O   0  0  0  0  0  1  0  0  0  0  0  0
   -0.2096    1.4026   -0.5479 N   0  0  0  0  0  2  0  0  0  0  0  0
   -0.0546    2.6720   -0.4904 N   0  0  0  0  0  0  0  0  0  0  0  0
    1.1264    3.2700   -0.1472 C   0  0  0  0  0  0  0  0  0  0  0  0
    1.0475    4.6837    0.0466 C   0  0  0  0  0  0  0  0  0  0  0  0
    2.1774    5.4481    0.2838 C   0  0  0  0  0  0  0  0  0  0  0  0
    3.4484    4.8147    0.2877 C   0  0  0  0  0  0  0  0  0  0  0  0
    3.5712    3.4483    0.0750 C   0  0  0  0  0  0  0  0  0  0  0  0
    2.4268    2.6154   -0.1225 C   0  0  2  0  0  3  0  0  0  0  0  0
   -1.4688    0.9996   -1.1121 C   0  0  0  0  0  0  0  0  0  0  0  0
   -2.6543    1.6845   -0.7863 C   0  0  0  0  0  0  0  0  0  0  0  0
   -3.8714    1.2439   -1.3093 C   0  0  0  0  0  0  0  0  0  0  0  0
   -3.9411    0.1350   -2.1824 C   0  0  0  0  0  0  0  0  0  0  0  0
   -2.7370   -0.5081   -2.5285 C   0  0  0  0  0  0  0  0  0  0  0  0
   -1.5097   -0.0901   -1.9983 C   0  0  0  0  0  0  0  0  0  0  0  0
   -5.2696   -0.3588   -2.6925 C   0  0  0  0  0  0  0  0  0  0  0  0
    4.5504    2.9486    0.0750 H   0  0  0  0  0  0  0  0  0  0  0  0
    4.3553    5.4154    0.4598 H   0  0  0  0  0  0  0  0  0  0  0  0
    2.0954    6.5321    0.4470 H   0  0  0  0  0  0  0  0  0  0  0  0
    0.0447    5.1320   -0.0069 H   0  0  0  0  0  0  0  0  0  0  0  0
   -2.6000    2.5418   -0.1024 H   0  0  0  0  0  0  0  0  0  0  0  0
   -4.7988    1.7665   -1.0254 H   0  0  0  0  0  0  0  0  0  0  0  0
   -2.7584   -1.3592   -3.2268 H   0  0  0  0  0  0  0  0  0  0  0  0
   -0.5730   -0.5984   -2.2701 H   0  0  0  0  0  0  0  0  0  0  0  0
   -5.1510   -1.0340   -3.5619 H   0  0  0  0  0  0  0  0  0  0  0  0
   -5.8075   -0.9265   -1.9022 H   0  0  0  0  0  0  0  0  0  0  0  0
   -5.9308    0.4793   -2.9918 H   0  0  0  0  0  0  0  0  0  0  0  0
  2  3  1  0  0  0  0
  3  4  2  0  0  0  0
  4  9  1  0  0  0  0
  4  5  1  0  0  0  0
  5  6  2  0  0  0  0
  6  7  1  0  0  0  0
  6 19  1  0  0  0  0
  7 18  1  0  0  0  0
  8 17  1  0  0  0  0
  8  7  2  0  0  0  0
  9  1  1  6  0  0  0
  9  8  1  0  0  0  0
 10 11  1  0  0  0  0
 10  2  1  0  0  0  0
 11 21  1  0  0  0  0
 12 22  1  0  0  0  0
 12 11  2  0  0  0  0
 13 12  1  0  0  0  0
 14 13  2  0  0  0  0
 14 15  1  0  0  0  0
 15 10  2  0  0  0  0
 16 13  1  0  0  0  0
 16 26  1  0  0  0  0
 20  5  1  0  0  0  0
 23 14  1  0  0  0  0
 24 15  1  0  0  0  0
 25 16  1  0  0  0  0
 27 16  1  0  0  0  0
M  END
