1,5
q = -2.0, confidence = 0.79

 11 10  0  0  0  0  0  0  0  0999 V2000
   -0.1745   -1.4121    0.6325 O   0  5  0  0  0  0  0  0  0  0  0  0
   -1.9534   -2.6896    1.0763 O   0  0  0  0  0  0  0  0  0  0  0  0
   -2.7593    1.2492   -0.5269 O   0  5  0  0  0  0  0  0  0  0  0  0
   -4.0517   -0.3018    0.5517 O   0  0  0  0  0  0  0  0  0  0  0  0
   -1.1249   -0.3313   -1.5423 N   0  0  0  0  0  0  0  0  0  0  0  0
   -2.1237   -1.0640   -0.7229 C   0  0  0  0  0  0  0  0  0  0  0  0
   -1.4404   -1.8193    0.4071 C   0  0  0  0  0  0  0  0  0  0  0  0
   -3.1256    0.0613   -0.1462 C   0  0  0  0  0  0  0  0  0  0  0  0
   -1.6397    0.6075   -1.5992 H   0  0  0  0  0  0  0  0  0  0  0  0
   -1.0219   -0.7503   -2.4786 H   0  0  0  0  0  0  0  0  0  0  0  0
   -2.7348   -1.7673   -1.3210 H   0  0  0  0  0  0  0  0  0  0  0  0
  3  8  1  0  0  0  0
  5  6  1  0  0  0  0
  6  8  1  0  0  0  0
  6  7  1  0  0  0  0
  7  1  1  0  0  0  0
  7  2  2  0  0  0  0
  8  4  2  0  0  0  0
  9  5  1  0  0  0  0
 10  5  1  0  0  0  0
 11  6  1  0  0  0  0
M  CHG  2   1  -1   3  -1
M  END
