1,4
q = -1.0

 34 36  0  0  0  0  0  0  0  0999 V2000
   -1.3070    1.3535   -0.0195 N   0  0  0  0  0  2  0  0  0  0  0  0
   -2.5740    1.2914   -0.2187 N   0  0  0  0  0  0  0  0  0  0  0  0
    0.3477    1.4983    2.0967 O   0  0  0  0  0  0  0  0  0  0  0  0
   -1.2845   -1.3007   -0.5786 O   0  5  0  0  0  0  0  0  0  0  0  0
    1.5132    1.3791    2.8934 C   0  0  0  0  0  0  0  0  0  0  0  0
    0.0639    2.6871    1.5041 C   0  0  0  0  0  0  0  0  0  0  0  0
    0.5867    3.9274    1.9072 C   0  0  0  0  0  0  0  0  0  0  0  0
    0.1765    5.1045    1.2580 C   0  0  0  0  0  0  0  0  0  0  0  0
   -0.7553    5.0560    0.2105 C   0  0  0  0  0  0  0  0  0  0  0  0
   -1.2674    3.8180   -0.2050 C   0  0  0  0  0  0  0  0  0  0  0  0
   -0.8534    2.6340    0.4204 C   0  0  0  0  0  0  0  0  0  0  0  0
   -3.2077    0.1617   -0.6159 C   0  0  0  0  0  0  0  0  0  0  0  0
   -4.6456    0.2678   -0.8290 C   0  0  0  0  0  0  0  0  0  0  0  0
   -5.3347    1.5009   -0.6991 C   0  0  0  0  0  0  0  0  0  0  0  0
   -6.7090    1.5753   -0.9137 C   0  0  0  0  0  0  0  0  0  0  0  0
   -7.4489    0.4222   -1.2673 C   0  0  0  0  0  0  0  0  0  0  0  0
   -6.7952   -0.7991   -1.3962 C   0  0  0  0  0  3  0  0  0  0  0  0
   -5.3955   -0.9034   -1.1797 C   0  0  0  0  0  0  0  0  0  0  0  0
   -4.7066   -2.1585   -1.2936 C   0  0  0  0  0  0  0  0  0  0  0  0
   -3.3525   -2.2669   -1.0831 C   0  0  0  0  0  0  0  0  0  0  0  0
   -2.5495   -1.1156   -0.7541 C   0  0  0  0  0  0  0  0  0  0  0  0
    1.4188    1.9305    3.8554 H   0  0  0  0  0  0  0  0  0  0  0  0
    1.6234    0.2985    3.1004 H   0  0  0  0  0  0  0  0  0  0  0  0
    2.4117    1.7446    2.3499 H   0  0  0  0  0  0  0  0  0  0  0  0
   -1.9790    3.7404   -1.0393 H   0  0  0  0  0  0  0  0  0  0  0  0
   -1.0740    5.9799   -0.2940 H   0  0  0  0  0  0  0  0  0  0  0  0
    0.5924    6.0701    1.5831 H   0  0  0  0  0  0  0  0  0  0  0  0
    1.3046    3.9795    2.7369 H   0  0  0  0  0  0  0  0  0  0  0  0
   -4.7550    2.3924   -0.4227 H   0  0  0  0  0  0  0  0  0  0  0  0
   -7.2238    2.5426   -0.8068 H   0  0  0  0  0  0  0  0  0  0  0  0
   -8.5336    0.4920   -1.4377 H   0  0  0  0  0  0  0  0  0  0  0  0
   -7.3556   -1.7076   -1.6678 H   0  0  0  0  0  0  0  0  0  0  0  0
   -5.2930   -3.0539   -1.5553 H   0  0  0  0  0  0  0  0  0  0  0  0
   -2.8224   -3.2270   -1.1646 H   0  0  0  0  0  0  0  0  0  0  0  0
  1 11  1  0  0  0  0
  2  1  1  0  0  0  0
  3  5  1  0  0  0  0
  5 23  1  0  0  0  0
  5 22  1  0  0  0  0
  6  7  1  0  0  0  0
  6  3  1  0  0  0  0
  7 28  1  0  0  0  0
  8 27  1  0  0  0  0
  8  7  2  0  0  0  0
  9  8  1  0  0  0  0
 10  9  2  0  0  0  0
 10 11  1  0  0  0  0
 11  6  2  0  0  0  0
 12  2  2  0  0  0  0
 13 14  2  0  0  0  0
 13 12  1  0  0  0  0
 14 29  1  0  0  0  0
 15 30  1  0  0  0  0
 15 14  1  0  0  0  0
 16 15  2  0  0  0  0
 17 16  1  0  0  0  0
 17 18  1  0  0  0  0
 18 13  1  0  0  0  0
 19 18  2  0  0  0  0
 19 20  1  0  0  0  0
 20 21  2  0  0  0  0
 21 12  1  0  0  0  0
 21  4  1  0  0  0  0
 24  5  1  0  0  0  0
 25 10  1  0  0  0  0
 26  9  1  0  0  0  0
 31 16  1  0  0  0  0
 32 17  1  0  0  0  0
 33 19  1  0  0  0  0
 34 20  1  0  0  0  0
M  CHG  1   4  -1
M  END
