1,5
q = 0.0, confidence = 0.99

 30 30  0  0  0  0  0  0  0  0999 V2000
    0.8849    1.5963   -0.1673 N   0  0  0  0  0  2  0  0  0  0  0  0
    3.9817    0.6060   -0.2897 N   0  3  0  0  0  0  0  0  0  0  0  0
    4.5050    1.0152   -1.0826 H   0  0  0  0  0  0  0  0  0  0  0  0
    3.2508   -0.0476   -0.7884 H   0  0  0  0  0  0  0  0  0  0  0  0
   -1.1214   -0.5721   -0.0725 O   0  5  0  0  0  0  0  0  0  0  0  0
   -3.9089   -1.6724   -0.0226 Br  0  0  0  0  0  0  0  0  0  0  0  0
   -1.5771    1.8225   -0.0451 C   0  0  0  0  0  0  0  0  0  0  0  0
   -1.9484    0.4130   -0.0436 C   0  0  0  0  0  0  0  0  0  0  0  0
   -3.3687    0.1467   -0.0111 C   0  0  0  0  0  0  0  0  0  0  0  0
   -4.3232    1.1547    0.0356 C   0  0  0  0  0  0  0  0  0  0  0  0
   -5.3878    0.8797    0.0655 H   0  0  0  0  0  0  0  0  0  0  0  0
   -3.9349    2.5166    0.0456 C   0  0  0  0  0  0  0  0  0  0  0  0
   -4.6994    3.3053    0.0828 H   0  0  0  0  0  0  0  0  0  0  0  0
   -2.5862    2.8312    0.0033 C   0  0  0  0  0  0  0  0  0  0  0  0
   -2.2649    3.8855    0.0024 H   0  0  0  0  0  0  0  0  0  0  0  0
   -0.2216    2.2934   -0.1218 C   0  0  0  0  0  3  0  0  0  0  0  0
   -0.1278    3.4041   -0.1556 H   0  0  0  0  0  0  0  0  0  0  0  0
    2.1373    2.3166   -0.3263 C   0  0  0  0  0  0  0  0  0  0  0  0
    2.0251    3.3788   -0.0098 H   0  0  0  0  0  0  0  0  0  0  0  0
    2.4113    2.3439   -1.4085 H   0  0  0  0  0  0  0  0  0  0  0  0
    3.2879    1.6921    0.4714 C   0  0  0  0  0  0  0  0  0  0  0  0
    4.0490    2.4523    0.7374 H   0  0  0  0  0  0  0  0  0  0  0  0
    2.8922    1.2188    1.3951 H   0  0  0  0  0  0  0  0  0  0  0  0
    4.8896   -0.2657    0.5232 C   0  0  0  0  0  0  0  0  0  0  0  0
    4.2312   -0.7077    1.3010 H   0  0  0  0  0  0  0  0  0  0  0  0
    5.6420    0.3892    1.0096 H   0  0  0  0  0  0  0  0  0  0  0  0
    5.5172   -1.3405   -0.3481 C   0  0  0  0  0  0  0  0  0  0  0  0
    4.7274   -1.9580   -0.8206 H   0  0  0  0  0  0  0  0  0  0  0  0
    6.1479   -2.0013    0.2767 H   0  0  0  0  0  0  0  0  0  0  0  0
    6.1621   -0.9155   -1.1460 H   0  0  0  0  0  0  0  0  0  0  0  0
  1 16  1  0  0  0  0
  2 21  1  0  0  0  0
  2 24  1  0  0  0  0
  3  2  1  0  0  0  0
  4  2  1  0  0  0  0
  5  8  1  0  0  0  0
  6  9  1  0  0  0  0
  7  8  2  0  0  0  0
  7 14  1  0  0  0  0
  8  9  1  0  0  0  0
  9 10  2  0  0  0  0
 10 12  1  0  0  0  0
 10 11  1  0  0  0  0
 12 13  1  0  0  0  0
 14 12  2  0  0  0  0
 15 14  1  0  0  0  0
 16  7  1  0  0  0  0
 17 16  1  0  0  0  0
 18  1  1  0  0  0  0
 18 19  1  0  0  0  0
 18 21  1  0  0  0  0
 20 18  1  0  0  0  0
 21 22  1  0  0  0  0
 21 23  1  0  0  0  0
 24 26  1  0  0  0  0
 24 25  1  0  0  0  0
 27 29  1  0  0  0  0
 27 24  1  0  0  0  0
 28 27  1  0  0  0  0
 30 27  1  0  0  0  0
M  CHG  2   2   1   5  -1
M  END
