1,3
q = -1.0, confidence = 0.0

 29 30  0  0  1  0  0  0  0  0999 V2000
    1.5748   -1.4328    0.6997 O   0  5  0  0  0  0  0  0  0  0  0  0
   -1.1787    1.6200   -0.8641 O   0  0  0  0  0  0  0  0  0  0  0  0
    0.9499    0.0231   -1.7506 N   0  0  0  0  0  2  0  0  0  0  0  0
    2.7255   -1.5877    0.1316 C   0  0  0  0  0  0  0  0  0  0  0  0
    3.7524   -2.3161    0.8249 C   0  0  0  0  0  0  0  0  0  0  0  0
    3.4801   -2.7210    1.8111 H   0  0  0  0  0  0  0  0  0  0  0  0
    5.0196   -2.5029    0.2900 C   0  0  0  0  0  0  0  0  0  0  0  0
    5.7710   -3.0681    0.8648 H   0  0  0  0  0  0  0  0  0  0  0  0
    5.3605   -1.9817   -0.9841 C   0  0  0  0  0  0  0  0  0  0  0  0
    6.3652   -2.1363   -1.4028 H   0  0  0  0  0  0  0  0  0  0  0  0
    4.3959   -1.2785   -1.6922 C   0  0  0  0  0  0  0  0  0  0  0  0
    4.6347   -0.8684   -2.6882 H   0  0  0  0  0  0  0  0  0  0  0  0
    3.0835   -1.0590   -1.1797 C   0  0  0  0  0  0  0  0  0  0  0  0
    2.1814   -0.3128   -2.0160 C   0  0  0  0  0  3  0  0  0  0  0  0
    2.6026    0.0027   -2.9999 H   0  0  0  0  0  0  0  0  0  0  0  0
    0.1723    0.7828   -2.7012 C   0  0  0  0  0  0  0  0  0  0  0  0
    0.7739    1.0891   -3.5899 H   0  0  0  0  0  0  0  0  0  0  0  0
   -0.6680    0.1449   -3.0587 H   0  0  0  0  0  0  0  0  0  0  0  0
   -0.4287    2.0265   -2.0262 C   0  0  1  0  0  0  0  0  0  0  0  0
    0.3980    2.6622   -1.6453 H   0  0  0  0  0  0  0  0  0  0  0  0
   -1.4197    2.7930   -2.9357 C   0  0  0  0  0  0  0  0  0  0  0  0
   -1.6119    2.2131   -3.8627 H   0  0  0  0  0  0  0  0  0  0  0  0
   -1.0300    3.7830   -3.2404 H   0  0  0  0  0  0  0  0  0  0  0  0
   -2.7010    2.8875   -2.0844 C   0  0  0  0  0  0  0  0  0  0  0  0
   -2.6908    3.8057   -1.4618 H   0  0  0  0  0  0  0  0  0  0  0  0
   -3.6274    2.8940   -2.6913 H   0  0  0  0  0  0  0  0  0  0  0  0
   -2.5722    1.6539   -1.1936 C   0  0  0  0  0  0  0  0  0  0  0  0
   -3.1407    1.6972   -0.2448 H   0  0  0  0  0  0  0  0  0  0  0  0
   -2.8744    0.7252   -1.7301 H   0  0  0  0  0  0  0  0  0  0  0  0
  4  1  1  0  0  0  0
  4  5  1  0  0  0  0
  5  6  1  0  0  0  0
  7  5  2  0  0  0  0
  7  8  1  0  0  0  0
  9  7  1  0  0  0  0
 10  9  1  0  0  0  0
 11 13  1  0  0  0  0
 11  9  2  0  0  0  0
 12 11  1  0  0  0  0
 13  4  2  0  0  0  0
 14  3  1  0  0  0  0
 14 13  1  0  0  0  0
 15 14  1  0  0  0  0
 16 19  1  0  0  0  0
 16  3  1  0  0  0  0
 17 16  1  0  0  0  0
 18 16  1  0  0  0  0
 19 20  1  1  0  0  0
 19  2  1  0  0  0  0
 21 24  1  0  0  0  0
 21 19  1  0  0  0  0
 22 21  1  0  0  0  0
 23 21  1  0  0  0  0
 24 25  1  0  0  0  0
 24 27  1  0  0  0  0
 26 24  1  0  0  0  0
 27  2  1  0  0  0  0
 27 28  1  0  0  0  0
 29 27  1  0  0  0  0
M  CHG  1   1  -1
M  END
