1,22
q = -1.0

 74 80  0  0  1  0  0  0  0  0999 V2000
    2.6322    1.3386    0.1930 N   0  0  0  0  0  2  0  0  0  0  0  0
    3.5632    3.3674    1.8514 C   0  0  0  0  0  0  0  0  0  0  0  0
    3.9220    4.1613    2.5240 H   0  0  0  0  0  0  0  0  0  0  0  0
    2.8994   -1.3784    0.8511 O   0  0  0  0  0  0  0  0  0  0  0  0
    2.3477   -2.6580    1.1727 C   0  0  0  0  0  0  0  0  0  0  0  0
    2.4028   -3.3491    0.3064 H   0  0  0  0  0  0  0  0  0  0  0  0
    1.2883   -2.4682    1.4241 H   0  0  0  0  0  0  0  0  0  0  0  0
    2.8719   -3.0993    2.0458 H   0  0  0  0  0  0  0  0  0  0  0  0
    4.2311   -1.2567    0.5421 C   0  0  0  0  0  0  0  0  0  0  0  0
    5.0819   -2.3600    0.3640 C   0  0  0  0  0  0  0  0  0  0  0  0
    4.6943   -3.3801    0.4820 H   0  0  0  0  0  0  0  0  0  0  0  0
    6.4283   -2.1588    0.0243 C   0  0  0  0  0  0  0  0  0  0  0  0
    7.0823   -3.0315   -0.1222 H   0  0  0  0  0  0  0  0  0  0  0  0
    6.9323   -0.8612   -0.1360 C   0  0  0  0  0  0  0  0  0  0  0  0
    7.9837   -0.7013   -0.4150 H   0  0  0  0  0  0  0  0  0  0  0  0
    6.0834    0.2361    0.0625 C   0  0  0  0  0  0  0  0  0  0  0  0
    6.4702    1.2587   -0.0619 H   0  0  0  0  0  0  0  0  0  0  0  0
    4.7257    0.0721    0.4037 C   0  0  0  0  0  0  0  0  0  0  0  0
    3.8877    1.2656    0.7070 C   0  0  2  0  0  3  0  0  0  0  0  0
    4.3968    2.2844    1.5286 C   0  0  0  0  0  0  0  0  0  0  0  0
    5.4102    2.1988    1.9432 H   0  0  0  0  0  0  0  0  0  0  0  0
    0.2531   -0.0822    0.1786 O   0  5  0  0  0  0  0  0  0  0  0  0
   -0.3217    1.0931    0.0942 C   0  0  0  0  0  0  0  0  0  0  0  0
    0.3895    2.3375    0.0594 C   0  0  0  0  0  0  0  0  0  0  0  0
    1.7919    2.3707    0.5040 C   0  0  0  0  0  0  0  0  0  0  0  0
    2.2615    3.4045    1.3585 C   0  0  0  0  0  0  0  0  0  0  0  0
    1.5721    4.2050    1.6558 H   0  0  0  0  0  0  0  0  0  0  0  0
   -0.3425    3.5534   -0.2264 C   0  0  0  0  0  0  0  0  0  0  0  0
    0.2904    4.7979   -0.5233 C   0  0  0  0  0  0  0  0  0  0  0  0
    1.3878    4.8466   -0.5698 H   0  0  0  0  0  0  0  0  0  0  0  0
   -0.4470    5.9441   -0.8031 C   0  0  0  0  0  0  0  0  0  0  0  0
    0.0799    6.8816   -1.0392 H   0  0  0  0  0  0  0  0  0  0  0  0
   -1.8626    5.9119   -0.8088 C   0  0  0  0  0  0  0  0  0  0  0  0
   -2.4377    6.8242   -1.0262 H   0  0  0  0  0  0  0  0  0  0  0  0
   -2.5118    4.7081   -0.5661 C   0  0  0  0  0  0  0  0  0  0  0  0
   -3.6113    4.6488   -0.5975 H   0  0  0  0  0  0  0  0  0  0  0  0
   -1.7839    3.5187   -0.2884 C   0  0  0  0  0  0  0  0  0  0  0  0
   -2.4607    2.2730   -0.0947 C   0  0  0  0  0  0  0  0  0  0  0  0
   -3.5632    2.2687   -0.1251 H   0  0  0  0  0  0  0  0  0  0  0  0
   -1.7684    1.0902    0.0829 C   0  0  0  0  0  0  0  0  0  0  0  0
   -2.5613   -0.6259    0.1842 Si  0  0  0  0  0  0  0  0  0  0  0  0
   -4.4321   -0.3821   -0.0334 C   0  0  0  0  0  0  0  0  0  0  0  0
   -5.0946   -0.7430   -1.2272 C   0  0  0  0  0  0  0  0  0  0  0  0
   -4.5231   -1.2152   -2.0424 H   0  0  0  0  0  0  0  0  0  0  0  0
   -6.4704   -0.5121   -1.3911 C   0  0  0  0  0  0  0  0  0  0  0  0
   -6.9680   -0.8034   -2.3293 H   0  0  0  0  0  0  0  0  0  0  0  0
   -7.2108    0.0872   -0.3603 C   0  0  0  0  0  0  0  0  0  0  0  0
   -8.2894    0.2684   -0.4870 H   0  0  0  0  0  0  0  0  0  0  0  0
   -6.5710    0.4521    0.8361 C   0  0  0  0  0  0  0  0  0  0  0  0
   -7.1476    0.9196    1.6495 H   0  0  0  0  0  0  0  0  0  0  0  0
   -5.1968    0.2171    0.9956 C   0  0  0  0  0  0  0  0  0  0  0  0
   -4.7087    0.4999    1.9430 H   0  0  0  0  0  0  0  0  0  0  0  0
   -2.2984   -1.5166    1.8411 C   0  0  0  0  0  0  0  0  0  0  0  0
   -3.2961   -2.4046    2.3069 C   0  0  0  0  0  0  0  0  0  0  0  0
   -4.2263   -2.5296    1.7293 H   0  0  0  0  0  0  0  0  0  0  0  0
   -3.1288   -3.1275    3.4996 C   0  0  0  0  0  0  0  0  0  0  0  0
   -3.9186   -3.8155    3.8394 H   0  0  0  0  0  0  0  0  0  0  0  0
   -1.9601   -2.9669    4.2596 C   0  0  0  0  0  0  0  0  0  0  0  0
   -1.8289   -3.5276    5.1982 H   0  0  0  0  0  0  0  0  0  0  0  0
   -0.9618   -2.0829    3.8180 C   0  0  0  0  0  0  0  0  0  0  0  0
   -0.0447   -1.9472    4.4131 H   0  0  0  0  0  0  0  0  0  0  0  0
   -1.1271   -1.3688    2.6207 C   0  0  0  0  0  0  0  0  0  0  0  0
   -0.3310   -0.6965    2.2680 H   0  0  0  0  0  0  0  0  0  0  0  0
   -1.9258   -1.6999   -1.2401 C   0  0  0  0  0  0  0  0  0  0  0  0
   -1.7845   -3.0976   -1.1003 C   0  0  0  0  0  0  0  0  0  0  0  0
   -2.0256   -3.5748   -0.1364 H   0  0  0  0  0  0  0  0  0  0  0  0
   -1.3341   -3.8888   -2.1697 C   0  0  0  0  0  0  0  0  0  0  0  0
   -1.2283   -4.9775   -2.0413 H   0  0  0  0  0  0  0  0  0  0  0  0
   -1.0165   -3.2930   -3.4010 C   0  0  0  0  0  0  0  0  0  0  0  0
   -0.6580   -3.9106   -4.2387 H   0  0  0  0  0  0  0  0  0  0  0  0
   -1.1491   -1.9035   -3.5564 C   0  0  0  0  0  0  0  0  0  0  0  0
   -0.8941   -1.4302   -4.5172 H   0  0  0  0  0  0  0  0  0  0  0  0
   -1.5981   -1.1168   -2.4845 C   0  0  0  0  0  0  0  0  0  0  0  0
   -1.6861   -0.0254   -2.6138 H   0  0  0  0  0  0  0  0  0  0  0  0
  1 25  1  0  0  0  0
  1 19  1  0  0  0  0
  2  3  1  0  0  0  0
  4  5  1  0  0  0  0
  5  7  1  0  0  0  0
  5  8  1  0  0  0  0
  6  5  1  0  0  0  0
  9  4  1  0  0  0  0
 10 11  1  0  0  0  0
 10  9  2  0  0  0  0
 12 10  1  0  0  0  0
 13 12  1  0  0  0  0
 14 12  2  0  0  0  0
 14 16  1  0  0  0  0
 15 14  1  0  0  0  0
 16 18  2  0  0  0  0
 17 16  1  0  0  0  0
 18  9  1  0  0  0  0
 19 18  1  1  0  0  0
 19 20  1  0  0  0  0
 20  2  2  0  0  0  0
 20 21  1  0  0  0  0
 23 22  1  0  0  0  0
 24 23  2  0  0  0  0
 24 25  1  0  0  0  0
 25 26  2  0  0  0  0
 26 27  1  0  0  0  0
 26  2  1  0  0  0  0
 28 24  1  0  0  0  0
 29 28  2  0  0  0  0
 30 29  1  0  0  0  0
 31 29  1  0  0  0  0
 32 31  1  0  0  0  0
 33 31  2  0  0  0  0
 33 35  1  0  0  0  0
 34 33  1  0  0  0  0
 35 37  2  0  0  0  0
 36 35  1  0  0  0  0
 37 28  1  0  0  0  0
 37 38  1  0  0  0  0
 38 40  2  0  0  0  0
 39 38  1  0  0  0  0
 40 23  1  0  0  0  0
 40 41  1  0  0  0  0
 41 53  1  0  0  0  0
 42 41  1  0  0  0  0
 42 51  1  0  0  0  0
 43 42  2  0  0  0  0
 44 43  1  0  0  0  0
 45 43  1  0  0  0  0
 45 47  2  0  0  0  0
 46 45  1  0  0  0  0
 47 49  1  0  0  0  0
 48 47  1  0  0  0  0
 49 51  2  0  0  0  0
 49 50  1  0  0  0  0
 51 52  1  0  0  0  0
 53 54  2  0  0  0  0
 53 62  1  0  0  0  0
 54 56  1  0  0  0  0
 55 54  1  0  0  0  0
 56 57  1  0  0  0  0
 56 58  2  0  0  0  0
 58 59  1  0  0  0  0
 60 58  1  0  0  0  0
 60 61  1  0  0  0  0
 62 60  2  0  0  0  0
 63 62  1  0  0  0  0
 64 65  1  0  0  0  0
 64 41  1  0  0  0  0
 65 66  1  0  0  0  0
 67 68  1  0  0  0  0
 67 65  2  0  0  0  0
 69 67  1  0  0  0  0
 70 69  1  0  0  0  0
 71 69  2  0  0  0  0
 71 73  1  0  0  0  0
 72 71  1  0  0  0  0
 73 64  2  0  0  0  0
 74 73  1  0  0  0  0
M  CHG  1  22  -1
M  END
