1,2
q = 0.0, confidence = 0.994

 36 37  0  0  0  0  0  0  0  0999 V2000
   -1.6997    0.7944    0.6020 O   0  5  0  0  0  0  0  0  0  0  0  0
   -1.0546   -1.7731   -0.0503 N   0  0  0  0  0  2  0  0  0  0  0  0
    1.0845   -0.8786   -1.8840 N   0  0  0  0  0  0  0  0  0  0  0  0
    2.6913    1.4578   -1.6255 N   0  3  0  0  0  0  0  0  0  0  0  0
    2.7796    2.2664   -0.9188 H   0  0  0  0  0  0  0  0  0  0  0  0
    3.3912    1.5961   -2.3731 H   0  0  0  0  0  0  0  0  0  0  0  0
   -2.9478    0.4366    0.4247 C   0  0  0  0  0  0  0  0  0  0  0  0
   -3.9685    1.4271    0.5302 C   0  0  0  0  0  0  0  0  0  0  0  0
   -3.6556    2.4591    0.7449 H   0  0  0  0  0  0  0  0  0  0  0  0
   -5.3086    1.0871    0.3783 C   0  0  0  0  0  0  0  0  0  0  0  0
   -6.0753    1.8702    0.4860 H   0  0  0  0  0  0  0  0  0  0  0  0
   -5.7023   -0.2425    0.0857 C   0  0  0  0  0  0  0  0  0  0  0  0
   -6.7659   -0.4946   -0.0309 H   0  0  0  0  0  0  0  0  0  0  0  0
   -4.7236   -1.2154   -0.0715 C   0  0  0  0  0  3  0  0  0  0  0  0
   -5.0025   -2.2492   -0.3317 H   0  0  0  0  0  0  0  0  0  0  0  0
   -3.3437   -0.9061    0.0893 C   0  0  0  0  0  0  0  0  0  0  0  0
   -2.3495   -1.8815   -0.2387 C   0  0  0  0  0  0  0  0  0  0  0  0
   -2.7072   -2.7947   -0.7584 H   0  0  0  0  0  0  0  0  0  0  0  0
   -0.1895   -2.7164   -0.7607 C   0  0  0  0  0  0  0  0  0  0  0  0
   -0.7558   -3.6418   -1.0057 H   0  0  0  0  0  0  0  0  0  0  0  0
    0.6536   -2.9910   -0.1008 H   0  0  0  0  0  0  0  0  0  0  0  0
    0.3241   -2.1028   -2.0801 C   0  0  0  0  0  0  0  0  0  0  0  0
    0.9111   -2.8824   -2.6276 H   0  0  0  0  0  0  0  0  0  0  0  0
   -0.5537   -1.8636   -2.7159 H   0  0  0  0  0  0  0  0  0  0  0  0
    2.5000   -1.0367   -1.6079 C   0  0  0  0  0  0  0  0  0  0  0  0
    3.0903   -1.2161   -2.5498 H   0  0  0  0  0  0  0  0  0  0  0  0
    2.6845   -1.9010   -0.9401 H   0  0  0  0  0  0  0  0  0  0  0  0
    3.0045    0.1916   -0.8705 C   0  0  0  0  0  0  0  0  0  0  0  0
    2.4744    0.2644    0.0924 H   0  0  0  0  0  0  0  0  0  0  0  0
    4.0930    0.1636   -0.6796 H   0  0  0  0  0  0  0  0  0  0  0  0
    1.2998    1.5326   -2.2022 C   0  0  0  0  0  0  0  0  0  0  0  0
    1.3075    2.3439   -2.9556 H   0  0  0  0  0  0  0  0  0  0  0  0
    0.6033    1.8634   -1.4002 H   0  0  0  0  0  0  0  0  0  0  0  0
    0.8630    0.2073   -2.8170 C   0  0  0  0  0  0  0  0  0  0  0  0
   -0.2187    0.3003   -3.0391 H   0  0  0  0  0  0  0  0  0  0  0  0
    1.3891    0.0361   -3.7987 H   0  0  0  0  0  0  0  0  0  0  0  0
  3 25  1  0  0  0  0
  4  5  1  0  0  0  0
  4 28  1  0  0  0  0
  6  4  1  0  0  0  0
  7  8  2  0  0  0  0
  7  1  1  0  0  0  0
  8  9  1  0  0  0  0
 10 11  1  0  0  0  0
 10  8  1  0  0  0  0
 12 10  2  0  0  0  0
 13 12  1  0  0  0  0
 14 12  1  0  0  0  0
 14 16  1  0  0  0  0
 15 14  1  0  0  0  0
 16  7  1  0  0  0  0
 17  2  1  0  0  0  0
 17 16  2  0  0  0  0
 18 17  1  0  0  0  0
 19 21  1  0  0  0  0
 19  2  1  0  0  0  0
 20 19  1  0  0  0  0
 22  3  1  0  0  0  0
 22 19  1  0  0  0  0
 23 22  1  0  0  0  0
 24 22  1  0  0  0  0
 25 27  1  0  0  0  0
 25 28  1  0  0  0  0
 26 25  1  0  0  0  0
 28 30  1  0  0  0  0
 28 29  1  0  0  0  0
 31  4  1  0  0  0  0
 31 33  1  0  0  0  0
 32 31  1  0  0  0  0
 34 31  1  0  0  0  0
 34  3  1  0  0  0  0
 35 34  1  0  0  0  0
 36 34  1  0  0  0  0
M  CHG  2   1  -1   4   1
M  END
