2,3
q = -1.0, confidence = 0.002

 11 11  0  0  1  0  0  0  0  0999 V2000
    3.0095    1.9797   -0.6413 Cl  0  0  0  0  0  0  0  0  0  0  0  0
    1.7145   -0.2016    0.1074 N   0  0  0  0  0  2  0  0  0  0  0  0
    0.3380   -1.8305    0.7069 O   0  5  0  0  0  0  0  0  0  0  0  0
    2.9221    0.3462   -0.0697 C   0  0  2  0  0  3  0  0  0  0  0  0
    4.1005   -0.3620    0.2018 C   0  0  0  0  0  0  0  0  0  0  0  0
    3.9809   -1.6825    0.6802 C   0  0  0  0  0  0  0  0  0  0  0  0
    2.7294   -2.2655    0.8797 C   0  0  0  0  0  0  0  0  0  0  0  0
    1.5862   -1.4831    0.5834 C   0  0  0  0  0  0  0  0  0  0  0  0
    5.0732    0.1189    0.0425 H   0  0  0  0  0  0  0  0  0  0  0  0
    4.8931   -2.2578    0.9009 H   0  0  0  0  0  0  0  0  0  0  0  0
    2.6026   -3.2894    1.2548 H   0  0  0  0  0  0  0  0  0  0  0  0
  2  8  1  0  0  0  0
  4  1  1  1  0  0  0
  4  2  1  0  0  0  0
  4  5  1  0  0  0  0
  5  6  2  0  0  0  0
  6  7  1  0  0  0  0
  6 10  1  0  0  0  0
  7 11  1  0  0  0  0
  8  3  1  0  0  0  0
  8  7  2  0  0  0  0
  9  5  1  0  0  0  0
M  CHG  1   3  -1
M  END
