3,27
q = -1.0

 32 32  0  0  0  0  0  0  0  0999 V2000
   -2.5648    4.8634    0.1542 O   0  0  0  0  0  0  0  0  0  0  0  0
   -2.5276    1.3255    0.1632 N   0  0  0  0  0  2  0  0  0  0  0  0
   -1.8730    0.2245    0.1375 N   0  0  0  0  0  2  0  0  0  0  0  0
   -1.9621    2.5550    0.2016 C   0  0  0  0  0  0  0  0  0  0  0  0
   -2.9283    3.6871    0.1255 C   0  0  0  0  0  0  0  0  0  0  0  0
   -4.3999    3.3272   -0.0056 C   0  0  0  0  0  0  0  0  0  0  0  0
   -4.9882    4.2620    0.0061 H   0  0  0  0  0  0  0  0  0  0  0  0
   -4.7235    2.6495    0.8082 H   0  0  0  0  0  0  0  0  0  0  0  0
   -4.5867    2.7790   -0.9514 H   0  0  0  0  0  0  0  0  0  0  0  0
   -2.7154   -0.9495    0.1726 C   0  0  0  0  0  0  0  0  0  0  0  0
   -3.4575   -1.2999   -0.9763 C   0  0  0  0  0  0  0  0  0  0  0  0
   -4.2360   -2.4713   -0.9207 C   0  0  0  0  0  0  0  0  0  0  0  0
   -4.8199   -2.7649   -1.8071 H   0  0  0  0  0  0  0  0  0  0  0  0
   -4.2681   -3.2629    0.2357 C   0  0  0  0  0  0  0  0  0  0  0  0
   -4.8824   -4.1755    0.2604 H   0  0  0  0  0  0  0  0  0  0  0  0
   -3.5143   -2.8951    1.3590 C   0  0  0  0  0  0  0  0  0  0  0  0
   -3.5362   -3.5171    2.2674 H   0  0  0  0  0  0  0  0  0  0  0  0
   -2.7186   -1.7353    1.3462 C   0  0  0  0  0  0  0  0  0  0  0  0
   -3.3904   -0.4577   -2.2227 C   0  0  0  0  0  0  0  0  0  0  0  0
   -3.9154   -0.9479   -3.0641 H   0  0  0  0  0  0  0  0  0  0  0  0
   -2.3369   -0.2786   -2.5238 H   0  0  0  0  0  0  0  0  0  0  0  0
   -3.8470    0.5405   -2.0620 H   0  0  0  0  0  0  0  0  0  0  0  0
   -1.8716   -1.3481    2.5300 C   0  0  0  0  0  0  0  0  0  0  0  0
   -2.0634   -2.0109    3.3950 H   0  0  0  0  0  0  0  0  0  0  0  0
   -2.0589   -0.3011    2.8438 H   0  0  0  0  0  0  0  0  0  0  0  0
   -0.7905   -1.4135    2.2794 H   0  0  0  0  0  0  0  0  0  0  0  0
    0.2737    1.7828    0.4236 O   0  5  0  0  0  0  0  0  0  0  0  0
    0.0657    4.1114    0.6019 C   0  0  0  0  0  0  0  0  0  0  0  0
    1.1460    3.9815    0.7991 H   0  0  0  0  0  0  0  0  0  0  0  0
   -0.0946    4.7429   -0.2940 H   0  0  0  0  0  0  0  0  0  0  0  0
   -0.4370    4.6568    1.4234 H   0  0  0  0  0  0  0  0  0  0  0  0
   -0.5512    2.7582    0.3917 C   0  0  0  0  0  0  0  0  0  0  0  0
  2  4  1  0  0  0  0
  3  2  1  0  0  0  0
  3 10  1  0  0  0  0
  4 32  2  0  0  0  0
  5  1  2  0  0  0  0
  5  4  1  0  0  0  0
  6  7  1  0  0  0  0
  6  5  1  0  0  0  0
  6  8  1  0  0  0  0
  9  6  1  0  0  0  0
 10 18  1  0  0  0  0
 11 12  1  0  0  0  0
 11 10  2  0  0  0  0
 12 14  2  0  0  0  0
 13 12  1  0  0  0  0
 14 15  1  0  0  0  0
 14 16  1  0  0  0  0
 16 17  1  0  0  0  0
 18 16  2  0  0  0  0
 18 23  1  0  0  0  0
 19 22  1  0  0  0  0
 19 11  1  0  0  0  0
 20 19  1  0  0  0  0
 21 19  1  0  0  0  0
 23 25  1  0  0  0  0
 23 24  1  0  0  0  0
 26 23  1  0  0  0  0
 28 29  1  0  0  0  0
 28 31  1  0  0  0  0
 30 28  1  0  0  0  0
 32 27  1  0  0  0  0
 32 28  1  0  0  0  0
M  CHG  1  27  -1
M  END
