1,6
q = -1.0

 31 31  0  0  0  0  0  0  0  0999 V2000
   -0.4632   -1.5923   -0.9358 O   0  5  0  0  0  0  0  0  0  0  0  0
    2.1071   -4.8974   -1.2052 O   0  0  0  0  0  0  0  0  0  0  0  0
    1.8043    1.0559   -2.3624 O   0  0  0  0  0  0  0  0  0  0  0  0
    2.3329    3.1708   -2.2457 O   0  0  0  0  0  0  0  0  0  0  0  0
    2.3201   -1.4780   -0.3395 N   0  0  0  0  0  2  0  0  0  0  0  0
    1.7727   -0.3360   -0.1615 N   0  0  0  0  0  2  0  0  0  0  0  0
    2.3330    2.0198   -1.8042 N   0  0  0  0  0  0  0  0  0  0  0  0
   -0.4217   -3.8510   -1.5688 C   0  0  0  0  0  0  0  0  0  0  0  0
   -1.4725   -3.5925   -1.7953 H   0  0  0  0  0  0  0  0  0  0  0  0
   -0.3732   -4.6485   -0.8013 H   0  0  0  0  0  0  0  0  0  0  0  0
    0.0927   -4.2726   -2.4528 H   0  0  0  0  0  0  0  0  0  0  0  0
    0.2801   -2.6228   -1.0663 C   0  0  0  0  0  0  0  0  0  0  0  0
    1.6792   -2.5955   -0.7424 C   0  0  0  0  0  0  0  0  0  0  0  0
    2.5464   -3.8046   -0.8480 C   0  0  0  0  0  0  0  0  0  0  0  0
    4.0131   -3.6329   -0.4871 C   0  0  0  0  0  0  0  0  0  0  0  0
    4.5291   -4.5924   -0.6691 H   0  0  0  0  0  0  0  0  0  0  0  0
    4.1223   -3.3461    0.5786 H   0  0  0  0  0  0  0  0  0  0  0  0
    4.4809   -2.8195   -1.0751 H   0  0  0  0  0  0  0  0  0  0  0  0
    2.7028    0.6612    0.2793 C   0  0  0  0  0  0  0  0  0  0  0  0
    2.9983    1.7971   -0.5032 C   0  0  0  0  0  0  0  0  0  0  0  0
    3.8902    2.7829   -0.0609 C   0  0  0  0  0  0  0  0  0  0  0  0
    4.0741    3.6495   -0.7088 H   0  0  0  0  0  0  0  0  0  0  0  0
    4.5013    2.6322    1.1865 C   0  0  0  0  0  0  0  0  0  0  0  0
    5.2124    3.3907    1.5451 H   0  0  0  0  0  0  0  0  0  0  0  0
    4.1901    1.5227    1.9874 C   0  0  0  0  0  0  0  0  0  0  0  0
    4.6518    1.4219    2.9818 H   0  0  0  0  0  0  0  0  0  0  0  0
    3.2863    0.5290    1.5649 C   0  0  0  0  0  0  0  0  0  0  0  0
    2.9326   -0.6311    2.4576 C   0  0  0  0  0  0  0  0  0  0  0  0
    1.8370   -0.8017    2.4922 H   0  0  0  0  0  0  0  0  0  0  0  0
    3.2967   -0.4559    3.4872 H   0  0  0  0  0  0  0  0  0  0  0  0
    3.3874   -1.5721    2.0861 H   0  0  0  0  0  0  0  0  0  0  0  0
  2 14  2  0  0  0  0
  3  7  2  0  0  0  0
  4  7  2  0  0  0  0
  5  6  1  0  0  0  0
  6 19  1  0  0  0  0
  7 20  1  0  0  0  0
  8 12  1  0  0  0  0
  8 10  1  0  0  0  0
  9  8  1  0  0  0  0
 11  8  1  0  0  0  0
 12  1  1  0  0  0  0
 12 13  2  0  0  0  0
 13  5  1  0  0  0  0
 14 13  1  0  0  0  0
 14 15  1  0  0  0  0
 15 17  1  0  0  0  0
 16 15  1  0  0  0  0
 18 15  1  0  0  0  0
 19 27  1  0  0  0  0
 20 21  1  0  0  0  0
 20 19  2  0  0  0  0
 21 23  2  0  0  0  0
 22 21  1  0  0  0  0
 23 24  1  0  0  0  0
 23 25  1  0  0  0  0
 25 26  1  0  0  0  0
 27 25  2  0  0  0  0
 27 28  1  0  0  0  0
 28 29  1  0  0  0  0
 28 30  1  0  0  0  0
 31 28  1  0  0  0  0
M  CHG  1   1  -1
M  END
