11,14
q = -1.0

 37 39  0  0  1  0  0  0  0  0999 V2000
   -2.4960   -1.9759   -0.5341 C   0  0  0  0  0  0  0  0  0  0  0  0
   -3.7931   -2.7029   -0.4867 C   0  0  0  0  0  0  0  0  0  0  0  0
    2.6732    2.8996   -1.1869 C   0  0  0  0  0  0  0  0  0  0  0  0
    3.8397    0.7409   -1.4922 C   0  0  0  0  0  0  0  0  0  0  0  0
    3.7999   -0.3334   -1.7237 H   0  0  0  0  0  0  0  0  0  0  0  0
   -2.4559   -0.8742   -1.3020 N   0  0  0  0  0  0  0  0  0  0  0  0
   -4.9206   -2.2365   -1.1977 C   0  0  0  0  0  0  0  0  0  0  0  0
   -4.8153   -1.3245   -1.8018 H   0  0  0  0  0  0  0  0  0  0  0  0
    3.9305    3.4963   -0.8829 C   0  0  0  0  0  0  0  0  0  0  0  0
    3.9655    4.5729   -0.6534 H   0  0  0  0  0  0  0  0  0  0  0  0
   -1.5193   -2.4243    0.1845 O   0  5  0  0  0  0  0  0  0  0  0  0
    5.0469    1.3490   -1.1845 C   0  0  0  0  0  0  0  0  0  0  0  0
    5.9709    0.7521   -1.1690 H   0  0  0  0  0  0  0  0  0  0  0  0
   -1.2496   -0.2570   -1.2467 N   0  0  0  0  0  2  0  0  0  0  0  0
    2.6249    1.4879   -1.4829 C   0  0  0  0  0  0  0  0  0  0  0  0
    5.0922    2.7354   -0.8740 C   0  0  0  0  0  0  0  0  0  0  0  0
    6.0560    3.2071   -0.6292 H   0  0  0  0  0  0  0  0  0  0  0  0
   -6.1352   -2.9285   -1.1214 C   0  0  0  0  0  0  0  0  0  0  0  0
   -7.0110   -2.5609   -1.6781 H   0  0  0  0  0  0  0  0  0  0  0  0
    0.1729    1.6067   -1.6842 C   0  0  0  0  0  0  0  0  0  0  0  0
   -2.3234    1.6205   -2.3974 C   0  0  0  0  0  0  0  0  0  0  0  0
   -2.8629    0.9020   -3.0448 H   0  0  0  0  0  0  0  0  0  0  0  0
   -2.0327    2.5121   -2.9806 H   0  0  0  0  0  0  0  0  0  0  0  0
   -3.0469    1.9188   -1.6088 H   0  0  0  0  0  0  0  0  0  0  0  0
    1.3658    0.8775   -1.7323 C   0  0  0  0  0  0  0  0  0  0  0  0
    1.3494   -0.1959   -1.9770 H   0  0  0  0  0  0  0  0  0  0  0  0
   -1.1359    0.9409   -1.7845 C   0  0  2  0  0  3  0  0  0  0  0  0
    1.4533    3.6398   -1.2102 C   0  0  0  0  0  0  0  0  0  0  0  0
    1.4875    4.7219   -1.0070 H   0  0  0  0  0  0  0  0  0  0  0  0
    0.2418    3.0200   -1.4603 C   0  0  0  0  0  0  0  0  0  0  0  0
   -0.6884    3.6061   -1.4363 H   0  0  0  0  0  0  0  0  0  0  0  0
   -3.9032   -3.8683    0.3004 C   0  0  0  0  0  0  0  0  0  0  0  0
   -3.0143   -4.2132    0.8476 H   0  0  0  0  0  0  0  0  0  0  0  0
   -6.2389   -4.0909   -0.3369 C   0  0  0  0  0  0  0  0  0  0  0  0
   -7.1952   -4.6333   -0.2789 H   0  0  0  0  0  0  0  0  0  0  0  0
   -5.1206   -4.5583    0.3731 C   0  0  0  0  0  0  0  0  0  0  0  0
   -5.1993   -5.4681    0.9877 H   0  0  0  0  0  0  0  0  0  0  0  0
  1  2  1  0  0  0  0
  1 11  1  0  0  0  0
  2 32  1  0  0  0  0
  3  9  2  0  0  0  0
  4 15  2  0  0  0  0
  4 12  1  0  0  0  0
  5  4  1  0  0  0  0
  6 14  1  0  0  0  0
  6  1  2  0  0  0  0
  7 18  1  0  0  0  0
  7  2  2  0  0  0  0
  8  7  1  0  0  0  0
  9 16  1  0  0  0  0
  9 10  1  0  0  0  0
 12 13  1  0  0  0  0
 12 16  2  0  0  0  0
 15  3  1  0  0  0  0
 16 17  1  0  0  0  0
 18 34  2  0  0  0  0
 19 18  1  0  0  0  0
 20 30  1  0  0  0  0
 21 27  1  0  0  0  0
 21 24  1  0  0  0  0
 22 21  1  0  0  0  0
 23 21  1  0  0  0  0
 25 20  2  0  0  0  0
 25 15  1  0  0  0  0
 26 25  1  0  0  0  0
 27 20  1  0  0  0  0
 27 14  1  1  0  0  0
 28  3  1  0  0  0  0
 28 29  1  0  0  0  0
 30 31  1  0  0  0  0
 30 28  2  0  0  0  0
 32 36  2  0  0  0  0
 32 33  1  0  0  0  0
 34 35  1  0  0  0  0
 34 36  1  0  0  0  0
 36 37  1  0  0  0  0
M  CHG  1  11  -1
M  END
