1,4
q = -1.0, confidence = 0.0

 24 24  0  0  1  0  0  0  0  0999 V2000
   -1.6632    0.8457    0.0353 O   0  0  0  0  0  1  0  0  0  0  0  0
   -2.8238    0.2524    0.1015 C   0  0  1  0  0  3  0  0  0  0  0  0
   -2.9962   -1.0394    0.7281 C   0  0  0  0  0  0  0  0  0  0  0  0
   -0.6240   -1.4115    1.0586 N   0  0  0  0  0  2  0  0  0  0  0  0
   -1.8681   -1.7456    1.3376 C   0  0  0  0  0  0  0  0  0  0  0  0
    0.3074   -2.1833    1.6754 O   0  0  0  0  0  0  0  0  0  0  0  0
    1.1939   -1.8939    1.2877 H   0  0  0  0  0  0  0  0  0  0  0  0
   -2.0746   -2.8895    2.2932 C   0  0  0  0  0  0  0  0  0  0  0  0
   -1.3856   -2.7783    3.1525 H   0  0  0  0  0  0  0  0  0  0  0  0
   -3.1114   -2.9456    2.6628 H   0  0  0  0  0  0  0  0  0  0  0  0
   -1.8043   -3.8550    1.8156 H   0  0  0  0  0  0  0  0  0  0  0  0
   -4.2805   -1.6151    0.7715 C   0  0  0  0  0  0  0  0  0  0  0  0
   -4.3955   -2.6148    1.2147 H   0  0  0  0  0  0  0  0  0  0  0  0
   -5.4334   -0.9866    0.2615 C   0  0  0  0  0  0  0  0  0  0  0  0
   -6.7734   -1.6771    0.3001 C   0  0  0  0  0  0  0  0  0  0  0  0
   -7.5971   -0.9743    0.0706 H   0  0  0  0  0  0  0  0  0  0  0  0
   -6.8240   -2.5025   -0.4419 H   0  0  0  0  0  0  0  0  0  0  0  0
   -6.9732   -2.1252    1.2950 H   0  0  0  0  0  0  0  0  0  0  0  0
   -5.2788    0.2888   -0.2870 C   0  0  0  0  0  0  0  0  0  0  0  0
   -6.1351    0.8574   -0.6737 H   0  0  0  0  0  0  0  0  0  0  0  0
   -4.0146    0.8959   -0.3720 C   0  0  0  0  0  0  0  0  0  0  0  0
   -3.9830    2.2349   -0.9616 N   0  0  0  0  0  0  0  0  0  0  0  0
   -2.8949    2.7239   -1.3094 O   0  0  0  0  0  0  0  0  0  0  0  0
   -5.0558    2.8293   -1.0975 O   0  0  0  0  0  0  0  0  0  0  0  0
  2  1  1  1  0  0  0
  2  3  1  0  0  0  0
  3 12  1  0  0  0  0
  3  5  2  0  0  0  0
  4  5  1  0  0  0  0
  4  6  1  0  0  0  0
  5  8  1  0  0  0  0
  7  6  1  0  0  0  0
  8 10  1  0  0  0  0
  8  9  1  0  0  0  0
 11  8  1  0  0  0  0
 12 13  1  0  0  0  0
 14 15  1  0  0  0  0
 14 12  2  0  0  0  0
 15 18  1  0  0  0  0
 16 15  1  0  0  0  0
 17 15  1  0  0  0  0
 19 14  1  0  0  0  0
 20 19  1  0  0  0  0
 21 19  2  0  0  0  0
 21  2  1  0  0  0  0
 22 21  1  0  0  0  0
 23 22  2  0  0  0  0
 24 22  2  0  0  0  0
M  END
