1,2
q = -1.0

 18 19  0  0  1  0  0  0  0  0999 V2000
    0.1061   -2.7967   -0.2883 O   0  0  0  0  0  1  0  0  0  0  0  0
   -1.7926   -1.0166   -0.1238 N   0  0  0  0  0  2  0  0  0  0  0  0
   -3.5616   -2.3555   -0.0515 N   0  0  0  0  0  0  0  0  0  0  0  0
   -4.1172   -3.2122   -0.0273 H   0  0  0  0  0  0  0  0  0  0  0  0
   -2.9244   -0.2020   -0.0592 C   0  0  0  0  0  0  0  0  0  0  0  0
   -3.0630    1.1949   -0.0546 C   0  0  0  0  0  0  0  0  0  0  0  0
   -2.1833    1.8505   -0.1105 H   0  0  0  0  0  0  0  0  0  0  0  0
   -4.3654    1.7048    0.0083 C   0  0  0  0  0  0  0  0  0  0  0  0
   -4.5171    2.7939    0.0116 H   0  0  0  0  0  0  0  0  0  0  0  0
   -5.4952    0.8536    0.0607 C   0  0  0  0  0  0  0  0  0  0  0  0
   -6.5001    1.2980    0.1066 H   0  0  0  0  0  0  0  0  0  0  0  0
   -5.3686   -0.5418    0.0482 C   0  0  0  0  0  0  0  0  0  0  0  0
   -6.2495   -1.1984    0.0809 H   0  0  0  0  0  0  0  0  0  0  0  0
   -4.0642   -1.0505   -0.0138 C   0  0  0  0  0  0  0  0  0  0  0  0
   -2.2086   -2.2945   -0.1186 C   0  0  2  0  0  3  0  0  0  0  0  0
   -1.1762   -3.3776   -0.1782 C   0  0  0  0  0  0  0  0  0  0  0  0
   -1.2340   -4.0094    0.7405 H   0  0  0  0  0  0  0  0  0  0  0  0
   -1.3757   -4.0522   -1.0450 H   0  0  0  0  0  0  0  0  0  0  0  0
  1 16  1  0  0  0  0
  2 15  1  0  0  0  0
  2  5  1  0  0  0  0
  3  4  1  0  0  0  0
  3 14  1  0  0  0  0
  5  6  2  0  0  0  0
  5 14  1  0  0  0  0
  6  8  1  0  0  0  0
  7  6  1  0  0  0  0
  8  9  1  0  0  0  0
  8 10  2  0  0  0  0
 10 11  1  0  0  0  0
 12 10  1  0  0  0  0
 12 13  1  0  0  0  0
 14 12  2  0  0  0  0
 15 16  1  1  0  0  0
 15  3  1  0  0  0  0
 16 17  1  0  0  0  0
 18 16  1  0  0  0  0
M  END
