1,20
q = -1.0

 31 32  0  0  0  0  0  0  0  0999 V2000
   -1.5887   -1.6531   -1.1403 O   0  5  0  0  0  0  0  0  0  0  0  0
   -2.7015   -0.9521   -1.2347 C   0  0  0  0  0  0  0  0  0  0  0  0
   -3.9416   -1.6516   -1.1010 C   0  0  0  0  0  0  0  0  0  0  0  0
   -5.1382   -0.9363   -1.1944 C   0  0  0  0  0  0  0  0  0  0  0  0
   -6.0854   -1.4881   -1.0708 H   0  0  0  0  0  0  0  0  0  0  0  0
   -5.1893    0.4605   -1.4393 C   0  0  0  0  0  0  0  0  0  0  0  0
   -3.9752    1.1270   -1.5968 C   0  0  0  0  0  0  0  0  0  0  0  0
   -3.9685    2.2104   -1.8009 H   0  0  0  0  0  0  0  0  0  0  0  0
   -2.7258    0.4570   -1.4862 C   0  0  0  0  0  0  0  0  0  0  0  0
   -1.5319    1.2364   -1.6995 C   0  0  0  0  0  3  0  0  0  0  0  0
   -1.7020    2.2635   -2.0873 H   0  0  0  0  0  0  0  0  0  0  0  0
   -3.9005   -3.1313   -0.8439 C   0  0  0  0  0  0  0  0  0  0  0  0
   -4.9181   -3.5575   -0.7603 H   0  0  0  0  0  0  0  0  0  0  0  0
   -3.3418   -3.3515    0.0892 H   0  0  0  0  0  0  0  0  0  0  0  0
   -3.3560   -3.6594   -1.6537 H   0  0  0  0  0  0  0  0  0  0  0  0
   -6.5138    1.1754   -1.5276 C   0  0  0  0  0  0  0  0  0  0  0  0
   -6.3813    2.2525   -1.7473 H   0  0  0  0  0  0  0  0  0  0  0  0
   -7.0836    1.0927   -0.5780 H   0  0  0  0  0  0  0  0  0  0  0  0
   -7.1562    0.7444   -2.3240 H   0  0  0  0  0  0  0  0  0  0  0  0
   -0.2981    0.8525   -1.5131 N   0  0  0  0  0  2  0  0  0  0  0  0
    0.7320    1.7899   -1.7993 C   0  0  0  0  0  0  0  0  0  0  0  0
    0.6974    3.0891   -1.2460 C   0  0  0  0  0  0  0  0  0  0  0  0
   -0.1172    3.3626   -0.5591 H   0  0  0  0  0  0  0  0  0  0  0  0
    1.7237    4.0003   -1.5317 C   0  0  0  0  0  0  0  0  0  0  0  0
    1.6948    5.0061   -1.0853 H   0  0  0  0  0  0  0  0  0  0  0  0
    2.7847    3.6306   -2.3753 C   0  0  0  0  0  0  0  0  0  0  0  0
    3.5869    4.3491   -2.6017 H   0  0  0  0  0  0  0  0  0  0  0  0
    2.8187    2.3362   -2.9201 C   0  0  0  0  0  0  0  0  0  0  0  0
    3.6516    2.0337   -3.5727 H   0  0  0  0  0  0  0  0  0  0  0  0
    1.8085    1.4102   -2.6271 C   0  0  0  0  0  0  0  0  0  0  0  0
    1.8346    0.3823   -3.0141 H   0  0  0  0  0  0  0  0  0  0  0  0
  2  1  1  0  0  0  0
  2  3  1  0  0  0  0
  3 12  1  0  0  0  0
  4  3  2  0  0  0  0
  4  5  1  0  0  0  0
  6  4  1  0  0  0  0
  7  9  1  0  0  0  0
  7  6  2  0  0  0  0
  8  7  1  0  0  0  0
  9  2  2  0  0  0  0
 10 20  1  0  0  0  0
 10  9  1  0  0  0  0
 11 10  1  0  0  0  0
 12 13  1  0  0  0  0
 12 14  1  0  0  0  0
 15 12  1  0  0  0  0
 16  6  1  0  0  0  0
 16 18  1  0  0  0  0
 17 16  1  0  0  0  0
 19 16  1  0  0  0  0
 21 20  1  0  0  0  0
 21 22  1  0  0  0  0
 22 23  1  0  0  0  0
 24 22  2  0  0  0  0
 24 25  1  0  0  0  0
 26 24  1  0  0  0  0
 27 26  1  0  0  0  0
 28 30  1  0  0  0  0
 28 26  2  0  0  0  0
 29 28  1  0  0  0  0
 30 21  2  0  0  0  0
 31 30  1  0  0  0  0
M  CHG  1   1  -1
M  END
