2,14
q = -1.0

 20 20  0  0  1  0  0  0  0  0999 V2000
   -7.0608   -1.0092    0.1101 Cl  0  0  0  0  0  0  0  0  0  0  0  0
    0.5394    2.0803   -0.0554 O   0  0  0  0  0  1  0  0  0  0  0  0
   -3.1619   -0.8165   -0.8635 C   0  0  0  0  0  0  0  0  0  0  0  0
   -2.4707   -1.3224   -1.5541 H   0  0  0  0  0  0  0  0  0  0  0  0
   -1.2442    0.5750   -0.0824 C   0  0  1  0  0  3  0  0  0  0  0  0
   -3.5798    0.8746    0.8332 C   0  0  0  0  0  0  0  0  0  0  0  0
   -3.2130    1.6627    1.5072 H   0  0  0  0  0  0  0  0  0  0  0  0
   -0.8082    1.8465   -0.1153 N   0  0  0  0  0  0  0  0  0  0  0  0
   -1.5484    3.0351   -0.4812 C   0  0  0  0  0  0  0  0  0  0  0  0
   -1.4445    3.8018    0.3131 H   0  0  0  0  0  0  0  0  0  0  0  0
   -2.6141    2.7908   -0.6321 H   0  0  0  0  0  0  0  0  0  0  0  0
   -1.1211    3.4435   -1.4203 H   0  0  0  0  0  0  0  0  0  0  0  0
   -5.3857   -0.5382    0.0524 C   0  0  0  0  0  0  0  0  0  0  0  0
   -0.2978   -0.3703   -0.0778 N   0  0  0  0  0  2  0  0  0  0  0  0
   -0.5688   -1.3357    0.1283 H   0  0  0  0  0  0  0  0  0  0  0  0
   -2.6814    0.2307   -0.0465 C   0  0  0  0  0  0  0  0  0  0  0  0
   -4.9270    0.4992    0.8825 C   0  0  0  0  0  0  0  0  0  0  0  0
   -5.6252    0.9947    1.5713 H   0  0  0  0  0  0  0  0  0  0  0  0
   -4.5060   -1.2025   -0.8193 C   0  0  0  0  0  0  0  0  0  0  0  0
   -4.8820   -2.0106   -1.4620 H   0  0  0  0  0  0  0  0  0  0  0  0
  3 19  2  0  0  0  0
  3 16  1  0  0  0  0
  4  3  1  0  0  0  0
  5 14  1  1  0  0  0
  5 16  1  0  0  0  0
  6 17  1  0  0  0  0
  6  7  1  0  0  0  0
  8  5  1  0  0  0  0
  8  2  1  0  0  0  0
  9  8  1  0  0  0  0
  9 10  1  0  0  0  0
 11  9  1  0  0  0  0
 12  9  1  0  0  0  0
 13  1  1  0  0  0  0
 13 17  2  0  0  0  0
 14 15  1  0  0  0  0
 16  6  2  0  0  0  0
 17 18  1  0  0  0  0
 19 13  1  0  0  0  0
 20 19  1  0  0  0  0
M  END
