1,2
q = -1.0

 17 17  0  0  1  0  0  0  0  0999 V2000
    1.1160   -1.6636   -0.9517 O   0  0  0  0  0  1  0  0  0  0  0  0
    1.7112    0.9154   -0.5039 N   0  0  0  0  0  2  0  0  0  0  0  0
    3.2696   -2.3821   -0.8607 N   0  0  0  0  0  0  0  0  0  0  0  0
    2.9788   -3.3569   -0.9652 H   0  0  0  0  0  0  0  0  0  0  0  0
    4.2622   -2.1760   -0.7494 H   0  0  0  0  0  0  0  0  0  0  0  0
    2.1673    2.1024    0.1810 C   0  0  0  0  0  0  0  0  0  0  0  0
    1.9804    2.9929   -0.4688 H   0  0  0  0  0  0  0  0  0  0  0  0
    1.5153    2.2721    1.0686 H   0  0  0  0  0  0  0  0  0  0  0  0
    3.6496    1.8880    0.5532 C   0  0  0  0  0  0  0  0  0  0  0  0
    3.9047    2.3051    1.5454 H   0  0  0  0  0  0  0  0  0  0  0  0
    4.3098    2.3758   -0.1930 H   0  0  0  0  0  0  0  0  0  0  0  0
    3.8046    0.3594    0.4857 C   0  0  0  0  0  0  0  0  0  0  0  0
    4.8454    0.0338    0.2943 H   0  0  0  0  0  0  0  0  0  0  0  0
    3.4341   -0.1230    1.4134 H   0  0  0  0  0  0  0  0  0  0  0  0
    2.8247    0.0202   -0.6613 C   0  0  1  0  0  0  0  0  0  0  0  0
    3.3259    0.2789   -1.6371 H   0  0  0  0  0  0  0  0  0  0  0  0
    2.3303   -1.4224   -0.8271 C   0  0  1  0  0  3  0  0  0  0  0  0
  2  6  1  0  0  0  0
  3 17  1  0  0  0  0
  3  5  1  0  0  0  0
  4  3  1  0  0  0  0
  6  9  1  0  0  0  0
  6  8  1  0  0  0  0
  7  6  1  0  0  0  0
  9 10  1  0  0  0  0
 11  9  1  0  0  0  0
 12  9  1  0  0  0  0
 12 14  1  0  0  0  0
 13 12  1  0  0  0  0
 15 16  1  6  0  0  0
 15  2  1  0  0  0  0
 15 12  1  0  0  0  0
 17  1  1  6  0  0  0
 17 15  1  0  0  0  0
M  END
