1,6
q = -2.0, confidence = 0.874

 24 24  0  0  0  0  0  0  0  0999 V2000
    0.5634    1.9242    0.7847 O   0  5  0  0  0  0  0  0  0  0  0  0
    1.8357    3.1638    2.1301 O   0  0  0  0  0  0  0  0  0  0  0  0
    1.3029    2.0910    1.8790 C   0  0  0  0  0  0  0  0  0  0  0  0
    1.4409    0.8683    2.7954 C   0  0  0  0  0  0  0  0  0  0  0  0
    1.9883   -0.3681    2.0812 C   0  0  0  0  0  0  0  0  0  0  0  0
    1.0315   -0.9071    1.0980 N   0  0  0  0  0  2  0  0  0  0  0  0
    1.7760   -1.7459   -0.1457 S   0  0  0  0  0  0  0  0  0  0  0  0
    2.6625   -2.7693    0.4616 O   0  0  0  0  0  0  0  0  0  0  0  0
    0.7176   -2.1562   -1.1058 O   0  0  0  0  0  0  0  0  0  0  0  0
    2.8502   -0.5710   -1.0050 C   0  0  0  0  0  0  0  0  0  0  0  0
    4.2405   -0.6971   -0.8684 C   0  0  0  0  0  0  0  0  0  0  0  0
    5.0751    0.2362   -1.5035 C   0  0  0  0  0  0  0  0  0  0  0  0
    4.5178    1.2775   -2.2616 C   0  0  0  0  0  0  0  0  0  0  0  0
    3.1225    1.3883   -2.3931 C   0  0  0  0  0  0  0  0  0  0  0  0
    2.2796    0.4623   -1.7653 C   0  0  0  0  0  0  0  0  0  0  0  0
    2.1182    1.1522    3.6237 H   0  0  0  0  0  0  0  0  0  0  0  0
    0.4467    0.6298    3.2352 H   0  0  0  0  0  0  0  0  0  0  0  0
    2.9571   -0.0918    1.6028 H   0  0  0  0  0  0  0  0  0  0  0  0
    2.2199   -1.1593    2.8271 H   0  0  0  0  0  0  0  0  0  0  0  0
    4.6423   -1.5294   -0.2727 H   0  0  0  0  0  0  0  0  0  0  0  0
    6.1677    0.1489   -1.4029 H   0  0  0  0  0  0  0  0  0  0  0  0
    5.1744    2.0117   -2.7528 H   0  0  0  0  0  0  0  0  0  0  0  0
    2.6874    2.2066   -2.9862 H   0  0  0  0  0  0  0  0  0  0  0  0
    1.1856    0.5397   -1.8534 H   0  0  0  0  0  0  0  0  0  0  0  0
  1  3  1  0  0  0  0
  3  2  2  0  0  0  0
  3  4  1  0  0  0  0
  4 17  1  0  0  0  0
  4 16  1  0  0  0  0
  5  4  1  0  0  0  0
  5 19  1  0  0  0  0
  6  5  1  0  0  0  0
  7  8  2  0  0  0  0
  7  6  1  0  0  0  0
  9  7  2  0  0  0  0
 10 11  1  0  0  0  0
 10  7  1  0  0  0  0
 11 20  1  0  0  0  0
 12 21  1  0  0  0  0
 12 11  2  0  0  0  0
 13 12  1  0  0  0  0
 14 13  2  0  0  0  0
 14 15  1  0  0  0  0
 15 10  2  0  0  0  0
 18  5  1  0  0  0  0
 22 13  1  0  0  0  0
 23 14  1  0  0  0  0
 24 15  1  0  0  0  0
M  CHG  1   1  -1
M  END
