1,3
q = -1.0

 21 20  0  0  1  0  0  0  0  0999 V2000
   -1.1452    2.0056   -0.6755 O   0  5  0  0  0  0  0  0  0  0  0  0
   -3.1470    3.0594   -0.6235 O   0  0  0  0  0  0  0  0  0  0  0  0
   -2.2446   -0.4224   -1.0736 N   0  0  0  0  0  0  0  0  0  0  0  0
   -2.4479    2.0506   -0.6577 C   0  0  0  0  0  0  0  0  0  0  0  0
   -3.1624    0.6625   -0.6090 C   0  0  2  0  0  0  0  0  0  0  0  0
   -3.6261    0.3993    0.8273 C   0  0  0  0  0  0  0  0  0  0  0  0
   -4.3887   -0.9149    1.0797 C   0  0  0  0  0  0  0  0  0  0  0  0
   -4.7352   -1.0378    2.5690 C   0  0  0  0  0  0  0  0  0  0  0  0
   -5.6433   -1.0465    0.2076 C   0  0  0  0  0  0  0  0  0  0  0  0
   -2.5775   -1.3465   -0.7629 H   0  0  0  0  0  0  0  0  0  0  0  0
   -2.2240   -0.4524   -2.1029 H   0  0  0  0  0  0  0  0  0  0  0  0
   -4.0462    0.7206   -1.2790 H   0  0  0  0  0  0  0  0  0  0  0  0
   -4.2674    1.2624    1.1048 H   0  0  0  0  0  0  0  0  0  0  0  0
   -2.7349    0.4393    1.4924 H   0  0  0  0  0  0  0  0  0  0  0  0
   -3.7093   -1.7700    0.8392 H   0  0  0  0  0  0  0  0  0  0  0  0
   -5.2405   -1.9995    2.7915 H   0  0  0  0  0  0  0  0  0  0  0  0
   -3.8274   -0.9729    3.2027 H   0  0  0  0  0  0  0  0  0  0  0  0
   -5.4176   -0.2182    2.8786 H   0  0  0  0  0  0  0  0  0  0  0  0
   -6.1898   -1.9853    0.4306 H   0  0  0  0  0  0  0  0  0  0  0  0
   -6.3380   -0.2000    0.3926 H   0  0  0  0  0  0  0  0  0  0  0  0
   -5.4089   -1.0490   -0.8765 H   0  0  0  0  0  0  0  0  0  0  0  0
  1  4  1  0  0  0  0
  3 10  1  0  0  0  0
  3  5  1  0  0  0  0
  4  2  2  0  0  0  0
  4  5  1  0  0  0  0
  5 12  1  6  0  0  0
  5  6  1  0  0  0  0
  6  7  1  0  0  0  0
  6 13  1  0  0  0  0
  6 14  1  0  0  0  0
  7  8  1  0  0  0  0
  8 16  1  0  0  0  0
  8 18  1  0  0  0  0
  8 17  1  0  0  0  0
  9 20  1  0  0  0  0
  9 19  1  0  0  0  0
  9  7  1  0  0  0  0
 11  3  1  0  0  0  0
 15  7  1  0  0  0  0
 21  9  1  0  0  0  0
M  CHG  1   1  -1
M  END
