1,2
q = -1.0, confidence = 0.0

 28 29  0  0  0  0  0  0  0  0999 V2000
   -2.1561    0.6812    0.1733 O   0  5  0  0  0  0  0  0  0  0  0  0
    0.1168   -0.8479    0.8293 N   0  0  0  0  0  2  0  0  0  0  0  0
   -2.7655   -0.4614    0.0924 C   0  0  0  0  0  0  0  0  0  0  0  0
   -4.1593   -0.4784   -0.2290 C   0  0  0  0  0  0  0  0  0  0  0  0
   -4.6299    0.4946   -0.4301 H   0  0  0  0  0  0  0  0  0  0  0  0
   -4.8726   -1.6699   -0.3020 C   0  0  0  0  0  0  0  0  0  0  0  0
   -5.9418   -1.6436   -0.5691 H   0  0  0  0  0  0  0  0  0  0  0  0
   -4.2474   -2.9138   -0.0391 C   0  0  0  0  0  0  0  0  0  0  0  0
   -4.8199   -3.8516   -0.0973 H   0  0  0  0  0  0  0  0  0  0  0  0
   -2.8984   -2.9260    0.3034 C   0  0  0  0  0  0  0  0  0  0  0  0
   -2.3938   -3.8799    0.5322 H   0  0  0  0  0  0  0  0  0  0  0  0
   -2.1327   -1.7314    0.3661 C   0  0  0  0  0  0  0  0  0  0  0  0
   -0.7770   -1.8039    0.8312 C   0  0  0  0  0  3  0  0  0  0  0  0
   -0.4700   -2.7701    1.2834 H   0  0  0  0  0  0  0  0  0  0  0  0
    1.3707   -1.0832    1.5339 C   0  0  0  0  0  0  0  0  0  0  0  0
    1.2635   -1.9828    2.1838 H   0  0  0  0  0  0  0  0  0  0  0  0
    1.5181   -0.2126    2.2119 H   0  0  0  0  0  0  0  0  0  0  0  0
    2.5780   -1.2742    0.6354 C   0  0  0  0  0  0  0  0  0  0  0  0
    3.8662   -1.2011    1.2032 C   0  0  0  0  0  0  0  0  0  0  0  0
    3.9713   -0.9650    2.2749 H   0  0  0  0  0  0  0  0  0  0  0  0
    5.0082   -1.4157    0.4195 C   0  0  0  0  0  0  0  0  0  0  0  0
    6.0076   -1.3527    0.8783 H   0  0  0  0  0  0  0  0  0  0  0  0
    4.8768   -1.6922   -0.9519 C   0  0  0  0  0  0  0  0  0  0  0  0
    5.7726   -1.8477   -1.5735 H   0  0  0  0  0  0  0  0  0  0  0  0
    3.5975   -1.7488   -1.5248 C   0  0  0  0  0  0  0  0  0  0  0  0
    3.4815   -1.9367   -2.6036 H   0  0  0  0  0  0  0  0  0  0  0  0
    2.4509   -1.5483   -0.7395 C   0  0  0  0  0  0  0  0  0  0  0  0
    1.4538   -1.5370   -1.2130 H   0  0  0  0  0  0  0  0  0  0  0  0
  2 13  1  0  0  0  0
  2 15  1  0  0  0  0
  3  1  1  0  0  0  0
  3 12  1  0  0  0  0
  4  3  2  0  0  0  0
  5  4  1  0  0  0  0
  6  4  1  0  0  0  0
  6  8  2  0  0  0  0
  7  6  1  0  0  0  0
  8 10  1  0  0  0  0
  9  8  1  0  0  0  0
 10 12  2  0  0  0  0
 10 11  1  0  0  0  0
 12 13  1  0  0  0  0
 13 14  1  0  0  0  0
 15 16  1  0  0  0  0
 15 17  1  0  0  0  0
 18 19  1  0  0  0  0
 18 15  1  0  0  0  0
 19 20  1  0  0  0  0
 21 22  1  0  0  0  0
 21 19  2  0  0  0  0
 23 21  1  0  0  0  0
 24 23  1  0  0  0  0
 25 23  2  0  0  0  0
 25 27  1  0  0  0  0
 26 25  1  0  0  0  0
 27 18  2  0  0  0  0
 28 27  1  0  0  0  0
M  CHG  1   1  -1
M  END
