1,2
q = -1.0

 43 44  0  0  0  0  0  0  0  0999 V2000
    2.3318   -0.0618   -0.6290 O   0  5  0  0  0  0  0  0  0  0  0  0
   -0.2817    0.5172    0.3342 N   0  0  0  0  0  2  0  0  0  0  0  0
    2.7092    0.8803    0.1779 C   0  0  0  0  0  0  0  0  0  0  0  0
    4.0943    1.2381    0.2131 C   0  0  0  0  0  0  0  0  0  0  0  0
    4.7676    0.6651   -0.4403 H   0  0  0  0  0  0  0  0  0  0  0  0
    4.5624    2.2450    1.0496 C   0  0  0  0  0  0  0  0  0  0  0  0
    5.6393    2.4801    1.0601 H   0  0  0  0  0  0  0  0  0  0  0  0
    3.6795    2.9706    1.8874 C   0  0  0  0  0  0  0  0  0  0  0  0
    4.0587    3.7668    2.5449 H   0  0  0  0  0  0  0  0  0  0  0  0
    2.3233    2.6634    1.8541 C   0  0  0  0  0  0  0  0  0  0  0  0
    1.6116    3.2267    2.4808 H   0  0  0  0  0  0  0  0  0  0  0  0
    1.8095    1.6305    1.0236 C   0  0  0  0  0  0  0  0  0  0  0  0
    0.3879    1.4482    0.9718 C   0  0  0  0  0  3  0  0  0  0  0  0
   -0.2156    2.2119    1.5019 H   0  0  0  0  0  0  0  0  0  0  0  0
   -1.7137    0.6622    0.2896 C   0  0  0  0  0  0  0  0  0  0  0  0
   -2.2908    1.5405   -0.6673 C   0  0  0  0  0  0  0  0  0  0  0  0
   -3.6956    1.6350   -0.7100 C   0  0  0  0  0  0  0  0  0  0  0  0
   -4.1612    2.3051   -1.4486 H   0  0  0  0  0  0  0  0  0  0  0  0
   -4.5048    0.8955    0.1594 C   0  0  0  0  0  0  0  0  0  0  0  0
   -5.6015    0.9781    0.0990 H   0  0  0  0  0  0  0  0  0  0  0  0
   -3.9139    0.0583    1.1131 C   0  0  0  0  0  0  0  0  0  0  0  0
   -4.5488   -0.5068    1.8119 H   0  0  0  0  0  0  0  0  0  0  0  0
   -2.5155   -0.0711    1.2062 C   0  0  0  0  0  0  0  0  0  0  0  0
   -1.4406    2.4137   -1.5839 C   0  0  0  0  0  0  0  0  0  0  0  0
   -0.4310    1.9597   -1.6258 H   0  0  0  0  0  0  0  0  0  0  0  0
   -1.9541    2.4337   -3.0297 C   0  0  0  0  0  0  0  0  0  0  0  0
   -2.0064    1.4015   -3.4258 H   0  0  0  0  0  0  0  0  0  0  0  0
   -1.2508    3.0040   -3.6706 H   0  0  0  0  0  0  0  0  0  0  0  0
   -2.9511    2.9155   -3.1216 H   0  0  0  0  0  0  0  0  0  0  0  0
   -1.3256    3.8408   -1.0173 C   0  0  0  0  0  0  0  0  0  0  0  0
   -0.6854    4.4694   -1.6709 H   0  0  0  0  0  0  0  0  0  0  0  0
   -0.8789    3.8476   -0.0028 H   0  0  0  0  0  0  0  0  0  0  0  0
   -2.3228    4.3260   -0.9460 H   0  0  0  0  0  0  0  0  0  0  0  0
   -1.8858   -0.8960    2.3188 C   0  0  0  0  0  0  0  0  0  0  0  0
   -0.8596   -1.1835    2.0055 H   0  0  0  0  0  0  0  0  0  0  0  0
   -1.7172   -0.0364    3.5853 C   0  0  0  0  0  0  0  0  0  0  0  0
   -1.1090    0.8675    3.3825 H   0  0  0  0  0  0  0  0  0  0  0  0
   -1.1979   -0.6152    4.3770 H   0  0  0  0  0  0  0  0  0  0  0  0
   -2.7005    0.2974    3.9820 H   0  0  0  0  0  0  0  0  0  0  0  0
   -2.6389   -2.1941    2.6336 C   0  0  0  0  0  0  0  0  0  0  0  0
   -3.6293   -2.0121    3.1043 H   0  0  0  0  0  0  0  0  0  0  0  0
   -2.0441   -2.8060    3.3419 H   0  0  0  0  0  0  0  0  0  0  0  0
   -2.7954   -2.7968    1.7177 H   0  0  0  0  0  0  0  0  0  0  0  0
  1  3  1  0  0  0  0
  2 13  1  0  0  0  0
  3  4  2  0  0  0  0
  3 12  1  0  0  0  0
  4  6  1  0  0  0  0
  5  4  1  0  0  0  0
  6  7  1  0  0  0  0
  6  8  2  0  0  0  0
  8  9  1  0  0  0  0
 10  8  1  0  0  0  0
 10 11  1  0  0  0  0
 12 10  2  0  0  0  0
 13 12  1  0  0  0  0
 13 14  1  0  0  0  0
 15  2  1  0  0  0  0
 15 23  1  0  0  0  0
 16 15  2  0  0  0  0
 17 16  1  0  0  0  0
 17 19  2  0  0  0  0
 18 17  1  0  0  0  0
 19 21  1  0  0  0  0
 20 19  1  0  0  0  0
 21 23  2  0  0  0  0
 21 22  1  0  0  0  0
 23 34  1  0  0  0  0
 24 30  1  0  0  0  0
 24 16  1  0  0  0  0
 25 24  1  0  0  0  0
 26 24  1  0  0  0  0
 27 26  1  0  0  0  0
 28 26  1  0  0  0  0
 29 26  1  0  0  0  0
 30 33  1  0  0  0  0
 30 32  1  0  0  0  0
 31 30  1  0  0  0  0
 34 40  1  0  0  0  0
 34 36  1  0  0  0  0
 35 34  1  0  0  0  0
 36 39  1  0  0  0  0
 36 38  1  0  0  0  0
 37 36  1  0  0  0  0
 40 41  1  0  0  0  0
 40 42  1  0  0  0  0
 43 40  1  0  0  0  0
M  CHG  1   1  -1
M  END
