1,2
q = -1.0

 26 27  0  0  1  0  0  0  0  0999 V2000
    0.8673    1.0429   -1.1106 O   0  0  0  0  0  1  0  0  0  0  0  0
    0.3421   -1.3206    0.4592 N   0  0  0  0  0  2  0  0  0  0  0  0
    2.1138    0.7616   -0.8641 C   0  0  2  0  0  3  0  0  0  0  0  0
    2.2108   -2.4890    0.9149 O   0  0  0  0  0  0  0  0  0  0  0  0
    3.1066    1.6749   -1.3459 C   0  0  0  0  0  0  0  0  0  0  0  0
    2.7453    2.5600   -1.8896 H   0  0  0  0  0  0  0  0  0  0  0  0
    4.4621    1.4434   -1.1537 C   0  0  0  0  0  0  0  0  0  0  0  0
    5.1935    2.1671   -1.5474 H   0  0  0  0  0  0  0  0  0  0  0  0
    4.9132    0.2905   -0.4668 C   0  0  0  0  0  0  0  0  0  0  0  0
    5.9879    0.1102   -0.3211 H   0  0  0  0  0  0  0  0  0  0  0  0
    3.9757   -0.6137    0.0169 C   0  0  0  0  0  0  0  0  0  0  0  0
    4.2977   -1.5193    0.5490 H   0  0  0  0  0  0  0  0  0  0  0  0
    2.5796   -0.3983   -0.1540 C   0  0  0  0  0  0  0  0  0  0  0  0
    1.6549   -1.3683    0.3824 C   0  0  0  0  0  0  0  0  0  0  0  0
    1.1384   -3.4215    1.1123 C   0  0  0  0  0  0  0  0  0  0  0  0
    1.3340   -3.9967    2.0374 H   0  0  0  0  0  0  0  0  0  0  0  0
    1.1096   -4.1136    0.2425 H   0  0  0  0  0  0  0  0  0  0  0  0
   -0.1302   -2.5441    1.1850 C   0  0  0  0  0  0  0  0  0  0  0  0
   -0.4510   -2.1897    2.6467 C   0  0  0  0  0  0  0  0  0  0  0  0
    0.4296   -1.7341    3.1425 H   0  0  0  0  0  0  0  0  0  0  0  0
   -0.7366   -3.1029    3.2073 H   0  0  0  0  0  0  0  0  0  0  0  0
   -1.2911   -1.4758    2.7123 H   0  0  0  0  0  0  0  0  0  0  0  0
   -1.2972   -3.2416    0.4855 C   0  0  0  0  0  0  0  0  0  0  0  0
   -2.2452   -2.6943    0.6291 H   0  0  0  0  0  0  0  0  0  0  0  0
   -1.4276   -4.2601    0.9057 H   0  0  0  0  0  0  0  0  0  0  0  0
   -1.1078   -3.3013   -0.6034 H   0  0  0  0  0  0  0  0  0  0  0  0
  2 18  1  0  0  0  0
  3  1  1  6  0  0  0
  3 13  1  0  0  0  0
  4 15  1  0  0  0  0
  5  7  2  0  0  0  0
  5  3  1  0  0  0  0
  6  5  1  0  0  0  0
  7  9  1  0  0  0  0
  8  7  1  0  0  0  0
  9 10  1  0  0  0  0
  9 11  2  0  0  0  0
 11 12  1  0  0  0  0
 13 11  1  0  0  0  0
 13 14  2  0  0  0  0
 14  2  1  0  0  0  0
 14  4  1  0  0  0  0
 15 18  1  0  0  0  0
 15 16  1  0  0  0  0
 17 15  1  0  0  0  0
 18 19  1  0  0  0  0
 19 22  1  0  0  0  0
 19 20  1  0  0  0  0
 19 21  1  0  0  0  0
 23 24  1  0  0  0  0
 23 25  1  0  0  0  0
 23 18  1  0  0  0  0
 26 23  1  0  0  0  0
M  END
