1,12
q = -1.0, confidence = 0.0

 23 24  0  0  1  0  0  0  0  0999 V2000
    0.7007    1.1238   -0.9874 O   0  5  0  0  0  0  0  0  0  0  0  0
    1.9871    0.9682   -0.8430 C   0  0  0  0  0  0  0  0  0  0  0  0
    2.6251   -0.0234   -0.0161 C   0  0  0  0  0  0  0  0  0  0  0  0
    4.0436   -0.0739    0.0728 C   0  0  0  0  0  0  0  0  0  0  0  0
    4.4942   -0.8438    0.7145 H   0  0  0  0  0  0  0  0  0  0  0  0
    4.8450    0.8169   -0.6303 C   0  0  0  0  0  0  0  0  0  0  0  0
    5.9404    0.7570   -0.5601 H   0  0  0  0  0  0  0  0  0  0  0  0
    4.2267    1.8027   -1.4367 C   0  0  0  0  0  0  0  0  0  0  0  0
    4.8483    2.5162   -2.0008 H   0  0  0  0  0  0  0  0  0  0  0  0
    2.8436    1.8833   -1.5341 C   0  0  0  0  0  0  0  0  0  0  0  0
    2.3551    2.6424   -2.1619 H   0  0  0  0  0  0  0  0  0  0  0  0
    0.5371   -1.0733    0.8211 N   0  0  0  0  0  2  0  0  0  0  0  0
    2.5174   -1.7547    1.6288 O   0  0  0  0  0  0  0  0  0  0  0  0
    0.2086   -2.2109    1.7056 C   0  0  1  0  0  0  0  0  0  0  0  0
   -0.5975   -1.9092    2.4059 H   0  0  0  0  0  0  0  0  0  0  0  0
    1.8441   -0.9356    0.7801 C   0  0  2  0  0  3  0  0  0  0  0  0
   -0.2216   -3.4444    0.9101 C   0  0  0  0  0  0  0  0  0  0  0  0
   -1.0803   -3.2097    0.2549 H   0  0  0  0  0  0  0  0  0  0  0  0
   -0.4988   -4.2675    1.6000 H   0  0  0  0  0  0  0  0  0  0  0  0
    0.5996   -3.7826    0.2486 H   0  0  0  0  0  0  0  0  0  0  0  0
    1.5371   -2.4005    2.4652 C   0  0  0  0  0  0  0  0  0  0  0  0
    1.5404   -1.8970    3.4564 H   0  0  0  0  0  0  0  0  0  0  0  0
    1.8302   -3.4603    2.5931 H   0  0  0  0  0  0  0  0  0  0  0  0
  1  2  1  0  0  0  0
  2  3  1  0  0  0  0
  3  4  2  0  0  0  0
  4  5  1  0  0  0  0
  6  7  1  0  0  0  0
  6  4  1  0  0  0  0
  8  6  2  0  0  0  0
  9  8  1  0  0  0  0
 10  8  1  0  0  0  0
 10  2  2  0  0  0  0
 11 10  1  0  0  0  0
 12 14  1  0  0  0  0
 13 21  1  0  0  0  0
 14 15  1  1  0  0  0
 14 21  1  0  0  0  0
 16  3  1  1  0  0  0
 16 12  1  0  0  0  0
 16 13  1  0  0  0  0
 17 19  1  0  0  0  0
 17 14  1  0  0  0  0
 18 17  1  0  0  0  0
 20 17  1  0  0  0  0
 21 23  1  0  0  0  0
 21 22  1  0  0  0  0
M  CHG  1   1  -1
M  END
