2,3
q = 0.0, confidence = 0.988

 38 40  0  0  1  0  0  0  0  0999 V2000
    0.5426   -1.5745   -0.1238 O   0  0  0  0  0  0  0  0  0  0  0  0
   -1.1686   -0.0156   -1.2931 O   0  0  0  0  0  1  0  0  0  0  0  0
    2.3479    0.2009    0.5881 N   0  0  0  0  0  2  0  0  0  0  0  0
   -2.7725   -1.6273   -1.3255 N   0  0  0  0  0  0  0  0  0  0  0  0
   -2.9993   -2.6015   -1.1072 H   0  0  0  0  0  0  0  0  0  0  0  0
    3.1988    1.1208    1.0493 C   0  0  0  0  0  0  0  0  0  0  0  0
    2.8149    2.1522    1.1223 H   0  0  0  0  0  0  0  0  0  0  0  0
    4.5210    0.7996    1.4383 C   0  0  0  0  0  0  0  0  0  0  0  0
    5.1800    1.5936    1.8162 H   0  0  0  0  0  0  0  0  0  0  0  0
    4.9638   -0.5103    1.3158 C   0  0  0  0  0  0  0  0  0  0  0  0
    5.9947   -0.7839    1.5882 H   0  0  0  0  0  0  0  0  0  0  0  0
    4.0789   -1.5193    0.8393 C   0  0  0  0  0  0  0  0  0  0  0  0
    4.4381   -2.8901    0.6833 C   0  0  0  0  0  0  0  0  0  0  0  0
    5.4603   -3.2087    0.9336 H   0  0  0  0  0  0  0  0  0  0  0  0
    3.5032   -3.8045    0.2237 C   0  0  0  0  0  0  0  0  0  0  0  0
    3.7823   -4.8609    0.1010 H   0  0  0  0  0  0  0  0  0  0  0  0
    2.1690   -3.4122   -0.0782 C   0  0  0  0  0  0  0  0  0  0  0  0
    1.4421   -4.1679   -0.4073 H   0  0  0  0  0  0  0  0  0  0  0  0
    1.7998   -2.0847    0.0715 C   0  0  0  0  0  0  0  0  0  0  0  0
    2.7487   -1.1040    0.5038 C   0  0  1  0  0  3  0  0  0  0  0  0
   -0.4501   -2.2741   -0.8494 C   0  0  0  0  0  0  0  0  0  0  0  0
   -0.8669   -3.1169   -0.2558 H   0  0  0  0  0  0  0  0  0  0  0  0
   -0.0334   -2.6789   -1.8007 H   0  0  0  0  0  0  0  0  0  0  0  0
   -1.5131   -1.2151   -1.1667 C   0  0  1  0  0  3  0  0  0  0  0  0
   -3.8982   -0.7006   -1.5397 C   0  0  0  0  0  0  0  0  0  0  0  0
   -4.5621   -1.1412   -2.3086 H   0  0  0  0  0  0  0  0  0  0  0  0
   -3.4606    0.2293   -1.9488 H   0  0  0  0  0  0  0  0  0  0  0  0
   -4.6550   -0.4351   -0.2545 C   0  0  0  0  0  0  0  0  0  0  0  0
   -5.9432   -0.9679   -0.0625 C   0  0  0  0  0  0  0  0  0  0  0  0
   -6.4148   -1.5614   -0.8623 H   0  0  0  0  0  0  0  0  0  0  0  0
   -6.6377   -0.7352    1.1352 C   0  0  0  0  0  0  0  0  0  0  0  0
   -7.6476   -1.1496    1.2719 H   0  0  0  0  0  0  0  0  0  0  0  0
   -6.0452    0.0290    2.1511 C   0  0  0  0  0  0  0  0  0  0  0  0
   -6.5899    0.2161    3.0885 H   0  0  0  0  0  0  0  0  0  0  0  0
   -4.7582    0.5624    1.9659 C   0  0  0  0  0  0  0  0  0  0  0  0
   -4.2973    1.1731    2.7570 H   0  0  0  0  0  0  0  0  0  0  0  0
   -4.0632    0.3349    0.7703 C   0  0  0  0  0  0  0  0  0  0  0  0
   -3.0587    0.7676    0.6338 H   0  0  0  0  0  0  0  0  0  0  0  0
  1 19  1  0  0  0  0
  3  6  1  0  0  0  0
  4 24  1  0  0  0  0
  4  5  1  0  0  0  0
  6  7  1  0  0  0  0
  6  8  2  0  0  0  0
  8  9  1  0  0  0  0
 10  8  1  0  0  0  0
 10 11  1  0  0  0  0
 12 10  2  0  0  0  0
 13 12  1  0  0  0  0
 13 14  1  0  0  0  0
 15 13  2  0  0  0  0
 16 15  1  0  0  0  0
 17 19  2  0  0  0  0
 17 15  1  0  0  0  0
 18 17  1  0  0  0  0
 20 19  1  1  0  0  0
 20  3  1  0  0  0  0
 20 12  1  0  0  0  0
 21 22  1  0  0  0  0
 21  1  1  0  0  0  0
 23 21  1  0  0  0  0
 24  2  1  6  0  0  0
 24 21  1  0  0  0  0
 25  4  1  0  0  0  0
 25 28  1  0  0  0  0
 26 25  1  0  0  0  0
 27 25  1  0  0  0  0
 28 29  2  0  0  0  0
 28 37  1  0  0  0  0
 29 31  1  0  0  0  0
 30 29  1  0  0  0  0
 31 32  1  0  0  0  0
 31 33  2  0  0  0  0
 33 34  1  0  0  0  0
 35 33  1  0  0  0  0
 35 36  1  0  0  0  0
 37 35  2  0  0  0  0
 38 37  1  0  0  0  0
M  END
