2,4
q = -1.0, confidence = 0.014

 25 26  0  0  0  0  0  0  0  0999 V2000
   -4.5061   -2.1106   -0.8927 S   0  0  0  0  0  0  0  0  0  0  0  0
   -1.7373    0.6034   -0.3190 O   0  5  0  0  0  0  0  0  0  0  0  0
    1.3938   -2.7551    0.9205 O   0  0  0  0  0  0  0  0  0  0  0  0
   -0.4760   -1.7878   -1.1190 N   0  0  0  0  0  2  0  0  0  0  0  0
   -5.1543   -0.5970   -0.2943 C   0  0  0  0  0  0  0  0  0  0  0  0
   -6.5089   -0.3156   -0.0429 C   0  0  0  0  0  0  0  0  0  0  0  0
   -6.8466    0.9500    0.4488 C   0  0  0  0  0  0  0  0  0  0  0  0
   -5.8528    1.9257    0.6973 C   0  0  0  0  0  0  0  0  0  0  0  0
   -4.5071    1.6518    0.4466 C   0  0  0  0  0  0  0  0  0  0  0  0
   -4.1442    0.3828   -0.0615 C   0  0  0  0  0  0  0  0  0  0  0  0
   -2.8226   -0.1197   -0.3940 C   0  0  0  0  0  0  0  0  0  0  0  0
   -2.8626   -1.4558   -0.8352 C   0  0  0  0  0  0  0  0  0  0  0  0
   -1.7242   -2.2152   -1.1717 C   0  0  0  0  0  3  0  0  0  0  0  0
    0.5408   -2.8076   -1.4027 C   0  0  0  0  0  0  0  0  0  0  0  0
    0.9578   -3.5846   -0.1456 C   0  0  0  0  0  0  0  0  0  0  0  0
    1.6627   -1.8890    0.5053 H   0  0  0  0  0  0  0  0  0  0  0  0
   -7.2832   -1.0753   -0.2253 H   0  0  0  0  0  0  0  0  0  0  0  0
   -7.9026    1.1841    0.6521 H   0  0  0  0  0  0  0  0  0  0  0  0
   -6.1436    2.9080    1.0982 H   0  0  0  0  0  0  0  0  0  0  0  0
   -3.7253    2.3946    0.6672 H   0  0  0  0  0  0  0  0  0  0  0  0
   -1.8922   -3.2592   -1.5038 H   0  0  0  0  0  0  0  0  0  0  0  0
    1.4223   -2.3155   -1.8529 H   0  0  0  0  0  0  0  0  0  0  0  0
    0.1471   -3.5357   -2.1452 H   0  0  0  0  0  0  0  0  0  0  0  0
    0.0922   -4.1807    0.2213 H   0  0  0  0  0  0  0  0  0  0  0  0
    1.7552   -4.3102   -0.4395 H   0  0  0  0  0  0  0  0  0  0  0  0
  1 12  1  0  0  0  0
  1  5  1  0  0  0  0
  5 10  2  0  0  0  0
  5  6  1  0  0  0  0
  6  7  2  0  0  0  0
  7 18  1  0  0  0  0
  7  8  1  0  0  0  0
  8 19  1  0  0  0  0
  9 20  1  0  0  0  0
  9  8  2  0  0  0  0
 10  9  1  0  0  0  0
 11  2  1  0  0  0  0
 11 10  1  0  0  0  0
 12 11  2  0  0  0  0
 13  4  1  0  0  0  0
 13 12  1  0  0  0  0
 14  4  1  0  0  0  0
 14 15  1  0  0  0  0
 15 24  1  0  0  0  0
 15  3  1  0  0  0  0
 16  3  1  0  0  0  0
 17  6  1  0  0  0  0
 21 13  1  0  0  0  0
 22 14  1  0  0  0  0
 23 14  1  0  0  0  0
 25 15  1  0  0  0  0
M  CHG  1   2  -1
M  END
