1,4
q = -1.0

 19 19  0  0  1  0  0  0  0  0999 V2000
   -0.7555   -1.7201   -0.5656 O   0  5  0  0  0  0  0  0  0  0  0  0
   -2.2289   -3.3666   -0.2485 O   0  0  0  0  0  0  0  0  0  0  0  0
   -1.2891   -0.7948    2.0646 N   0  0  0  0  0  0  0  0  0  0  0  0
   -1.7369    0.8540   -0.4595 N   0  0  0  0  0  2  0  0  0  0  0  0
   -3.1244    2.3703   -1.2553 N   0  0  0  0  0  0  0  0  0  0  0  0
   -1.7258   -2.2968    0.0915 C   0  0  0  0  0  0  0  0  0  0  0  0
   -2.2921   -1.5577    1.3270 C   0  0  2  0  0  0  0  0  0  0  0  0
   -3.4195   -0.6209    0.8671 C   0  0  0  0  0  0  0  0  0  0  0  0
   -3.0190    0.5314   -0.0194 C   0  0  0  0  0  0  0  0  0  0  0  0
   -1.8333    1.9632   -1.2028 C   0  0  0  0  0  3  0  0  0  0  0  0
   -3.8908    1.4878   -0.5202 C   0  0  0  0  0  0  0  0  0  0  0  0
   -2.7730   -2.3705    1.9191 H   0  0  0  0  0  0  0  0  0  0  0  0
   -3.9239   -0.2040    1.7674 H   0  0  0  0  0  0  0  0  0  0  0  0
   -4.1826   -1.2368    0.3458 H   0  0  0  0  0  0  0  0  0  0  0  0
   -0.9726    2.4812   -1.6405 H   0  0  0  0  0  0  0  0  0  0  0  0
   -4.9725    1.6013   -0.4038 H   0  0  0  0  0  0  0  0  0  0  0  0
   -1.5989   -0.6370    3.0315 H   0  0  0  0  0  0  0  0  0  0  0  0
   -0.3852   -1.2797    2.1051 H   0  0  0  0  0  0  0  0  0  0  0  0
   -3.4614    3.1929   -1.7544 H   0  0  0  0  0  0  0  0  0  0  0  0
  1  6  1  0  0  0  0
  2  6  2  0  0  0  0
  3 18  1  0  0  0  0
  3 17  1  0  0  0  0
  4  9  1  0  0  0  0
  5 10  1  0  0  0  0
  5 11  1  0  0  0  0
  6  7  1  0  0  0  0
  7 12  1  1  0  0  0
  7  3  1  0  0  0  0
  8  7  1  0  0  0  0
  8 13  1  0  0  0  0
  9  8  1  0  0  0  0
 10  4  1  0  0  0  0
 11 16  1  0  0  0  0
 11  9  2  0  0  0  0
 14  8  1  0  0  0  0
 15 10  1  0  0  0  0
 19  5  1  0  0  0  0
M  CHG  1   1  -1
M  END
