8,16
q = -1.0

 26 27  0  0  0  0  0  0  0  0999 V2000
    6.7103   -1.4051    0.0349 O   0  0  0  0  0  0  0  0  0  0  0  0
    5.3508   -1.4574    0.0784 C   0  0  0  0  0  0  0  0  0  0  0  0
    4.5977   -0.8681    1.1160 C   0  0  0  0  0  0  0  0  0  0  0  0
    3.2023   -0.9444    1.1084 C   0  0  0  0  0  0  0  0  0  0  0  0
    2.5328   -1.6253    0.0747 C   0  0  0  0  0  0  0  0  0  0  0  0
    3.2862   -2.2049   -0.9650 C   0  0  0  0  0  0  0  0  0  0  0  0
    4.6829   -2.1270   -0.9654 C   0  0  0  0  0  0  0  0  0  0  0  0
    1.1092   -1.7106    0.0817 N   0  0  0  0  0  2  0  0  0  0  0  0
    0.5688   -2.9092    0.0423 C   0  0  0  0  0  0  0  0  0  0  0  0
   -0.8188   -3.2618    0.0527 C   0  0  0  0  0  0  0  0  0  0  0  0
   -1.1476   -4.6483   -0.0249 C   0  0  0  0  0  3  0  0  0  0  0  0
   -2.4598   -5.0951    0.0306 C   0  0  0  0  0  0  0  0  0  0  0  0
   -3.5000   -4.1434    0.1847 C   0  0  0  0  0  0  0  0  0  0  0  0
   -3.2231   -2.7858    0.2737 C   0  0  0  0  0  0  0  0  0  0  0  0
   -1.8806   -2.2928    0.1994 C   0  0  0  0  0  0  0  0  0  0  0  0
   -1.7094   -1.0061    0.2791 O   0  5  0  0  0  0  0  0  0  0  0  0
    7.0244   -0.9082    0.8129 H   0  0  0  0  0  0  0  0  0  0  0  0
    5.1131   -0.3399    1.9352 H   0  0  0  0  0  0  0  0  0  0  0  0
    2.6138   -0.4749    1.9086 H   0  0  0  0  0  0  0  0  0  0  0  0
    2.7636   -2.7030   -1.7952 H   0  0  0  0  0  0  0  0  0  0  0  0
    5.2775   -2.5705   -1.7767 H   0  0  0  0  0  0  0  0  0  0  0  0
    1.2754   -3.7624    0.0318 H   0  0  0  0  0  0  0  0  0  0  0  0
   -0.3221   -5.3708   -0.1308 H   0  0  0  0  0  0  0  0  0  0  0  0
   -2.6898   -6.1679   -0.0365 H   0  0  0  0  0  0  0  0  0  0  0  0
   -4.5463   -4.4842    0.2367 H   0  0  0  0  0  0  0  0  0  0  0  0
   -4.0195   -2.0374    0.3961 H   0  0  0  0  0  0  0  0  0  0  0  0
  1  2  1  0  0  0  0
  1 17  1  0  0  0  0
  2  3  1  0  0  0  0
  3 18  1  0  0  0  0
  4  3  2  0  0  0  0
  4 19  1  0  0  0  0
  5  8  1  0  0  0  0
  5  4  1  0  0  0  0
  6  5  2  0  0  0  0
  7  6  1  0  0  0  0
  7  2  2  0  0  0  0
  9 10  2  0  0  0  0
  9  8  1  0  0  0  0
 10 15  1  0  0  0  0
 11 12  1  0  0  0  0
 11 10  1  0  0  0  0
 12 13  2  0  0  0  0
 13 25  1  0  0  0  0
 13 14  1  0  0  0  0
 14 26  1  0  0  0  0
 15 14  2  0  0  0  0
 15 16  1  0  0  0  0
 20  6  1  0  0  0  0
 21  7  1  0  0  0  0
 22  9  1  0  0  0  0
 23 11  1  0  0  0  0
 24 12  1  0  0  0  0
M  CHG  1  16  -1
M  END
