13,32
q = -1.0

 32 34  0  0  1  0  0  0  0  0999 V2000
    1.6605    5.1771   -0.9839 O   0  0  0  0  0  0  0  0  0  0  0  0
    2.2423    4.9991   -0.2213 H   0  0  0  0  0  0  0  0  0  0  0  0
    0.1542    4.0292   -2.4145 C   0  0  0  0  0  0  0  0  0  0  0  0
   -0.1500    5.0028   -2.8239 H   0  0  0  0  0  0  0  0  0  0  0  0
   -0.4420    2.8338   -2.8347 C   0  0  0  0  0  0  0  0  0  0  0  0
   -1.2210    2.8626   -3.6115 H   0  0  0  0  0  0  0  0  0  0  0  0
   -0.0729    1.6021   -2.2750 C   0  0  0  0  0  0  0  0  0  0  0  0
   -0.5491    0.6622   -2.5873 H   0  0  0  0  0  0  0  0  0  0  0  0
    0.9384    1.5678   -1.2957 C   0  0  0  0  0  0  0  0  0  0  0  0
    1.5592    2.7607   -0.8794 C   0  0  0  0  0  0  0  0  0  0  0  0
    2.3087    2.7343   -0.0734 H   0  0  0  0  0  0  0  0  0  0  0  0
    1.1491    3.9933   -1.4169 C   0  0  0  0  0  0  0  0  0  0  0  0
    1.3100    0.3198   -0.7169 N   0  0  0  0  0  2  0  0  0  0  0  0
    2.5918    0.0059   -0.6685 C   0  0  0  0  0  0  0  0  0  0  0  0
    3.2826    0.7846   -1.0402 H   0  0  0  0  0  0  0  0  0  0  0  0
    3.1794   -1.2387   -0.2980 C   0  0  0  0  0  0  0  0  0  0  0  0
    4.6215   -1.3154   -0.1046 C   0  0  1  0  0  3  0  0  0  0  0  0
    5.4544   -0.1670    0.0042 C   0  0  0  0  0  0  0  0  0  0  0  0
    5.0096    0.8383   -0.0254 H   0  0  0  0  0  0  0  0  0  0  0  0
    6.8324   -0.2788    0.1778 C   0  0  0  0  0  0  0  0  0  0  0  0
    7.4435    0.6335    0.2564 H   0  0  0  0  0  0  0  0  0  0  0  0
    7.4479   -1.5477    0.2681 C   0  0  0  0  0  0  0  0  0  0  0  0
    8.5358   -1.6283    0.4094 H   0  0  0  0  0  0  0  0  0  0  0  0
    6.6588   -2.6903    0.1891 C   0  0  0  0  0  0  0  0  0  0  0  0
    7.1141   -3.6900    0.2697 H   0  0  0  0  0  0  0  0  0  0  0  0
    5.2540   -2.6016    0.0066 C   0  0  0  0  0  0  0  0  0  0  0  0
    4.4386   -3.7806   -0.0629 C   0  0  0  0  0  0  0  0  0  0  0  0
    4.9333   -4.7622    0.0137 H   0  0  0  0  0  0  0  0  0  0  0  0
    3.0760   -3.7113   -0.2058 C   0  0  0  0  0  0  0  0  0  0  0  0
    2.4474   -4.6122   -0.2469 H   0  0  0  0  0  0  0  0  0  0  0  0
    2.3878   -2.4433   -0.2916 C   0  0  0  0  0  0  0  0  0  0  0  0
    1.1000   -2.4969   -0.4054 O   0  5  0  0  0  0  0  0  0  0  0  0
  1  2  1  0  0  0  0
  3 12  1  0  0  0  0
  4  3  1  0  0  0  0
  5  3  2  0  0  0  0
  5  7  1  0  0  0  0
  6  5  1  0  0  0  0
  7  9  2  0  0  0  0
  8  7  1  0  0  0  0
  9 10  1  0  0  0  0
  9 13  1  0  0  0  0
 10 11  1  0  0  0  0
 12  1  1  0  0  0  0
 12 10  2  0  0  0  0
 13 14  1  0  0  0  0
 14 16  2  0  0  0  0
 15 14  1  0  0  0  0
 16 31  1  0  0  0  0
 17 16  1  1  0  0  0
 17 18  1  0  0  0  0
 17 26  1  0  0  0  0
 18 20  2  0  0  0  0
 19 18  1  0  0  0  0
 20 21  1  0  0  0  0
 20 22  1  0  0  0  0
 22 23  1  0  0  0  0
 24 22  2  0  0  0  0
 24 25  1  0  0  0  0
 26 24  1  0  0  0  0
 27 26  2  0  0  0  0
 27 28  1  0  0  0  0
 29 27  1  0  0  0  0
 30 29  1  0  0  0  0
 31 29  2  0  0  0  0
 32 31  1  0  0  0  0
M  CHG  1  32  -1
M  END
