13,32
q = -1.0

 32 34  0  0  0  0  0  0  0  0999 V2000
    1.2115    6.6977   -0.2548 O   0  0  0  0  0  0  0  0  0  0  0  0
    0.8847    7.2471    0.4815 H   0  0  0  0  0  0  0  0  0  0  0  0
    0.6000    5.4831   -0.1903 C   0  0  0  0  0  0  0  0  0  0  0  0
   -0.3346    5.1496    0.8090 C   0  0  0  0  0  0  0  0  0  0  0  0
   -0.5900    5.8847    1.5900 H   0  0  0  0  0  0  0  0  0  0  0  0
   -0.9260    3.8791    0.8258 C   0  0  0  0  0  0  0  0  0  0  0  0
   -1.6295    3.6111    1.6280 H   0  0  0  0  0  0  0  0  0  0  0  0
   -0.6015    2.9263   -0.1575 C   0  0  0  0  0  0  0  0  0  0  0  0
    0.3440    3.2619   -1.1487 C   0  0  0  0  0  0  0  0  0  0  0  0
    0.6087    2.5106   -1.9060 H   0  0  0  0  0  0  0  0  0  0  0  0
    0.9340    4.5258   -1.1722 C   0  0  0  0  0  0  0  0  0  0  0  0
    1.6655    4.7968   -1.9467 H   0  0  0  0  0  0  0  0  0  0  0  0
   -1.1976    1.6328   -0.1465 N   0  0  0  0  0  2  0  0  0  0  0  0
   -2.5151    1.5597   -0.1408 C   0  0  0  0  0  0  0  0  0  0  0  0
   -3.0315    2.5345   -0.1828 H   0  0  0  0  0  0  0  0  0  0  0  0
   -3.3502    0.4015   -0.1484 C   0  0  0  0  0  0  0  0  0  0  0  0
   -4.7971    0.5674   -0.0372 C   0  0  0  0  0  0  0  0  0  0  0  0
   -5.4283    1.8130    0.2407 C   0  0  0  0  0  0  0  0  0  0  0  0
   -4.8232    2.7150    0.4080 H   0  0  0  0  0  0  0  0  0  0  0  0
   -6.8133    1.9291    0.3312 C   0  0  0  0  0  0  0  0  0  0  0  0
   -7.2586    2.9122    0.5482 H   0  0  0  0  0  0  0  0  0  0  0  0
   -7.6471    0.8014    0.1577 C   0  0  0  0  0  0  0  0  0  0  0  0
   -8.7401    0.9008    0.2321 H   0  0  0  0  0  0  0  0  0  0  0  0
   -7.0643   -0.4342   -0.0977 C   0  0  0  0  0  3  0  0  0  0  0  0
   -7.6902   -1.3314   -0.2264 H   0  0  0  0  0  0  0  0  0  0  0  0
   -5.6549   -0.5772   -0.1960 C   0  0  0  0  0  0  0  0  0  0  0  0
   -5.0636   -1.8599   -0.4450 C   0  0  0  0  0  0  0  0  0  0  0  0
   -5.7313   -2.7279   -0.5662 H   0  0  0  0  0  0  0  0  0  0  0  0
   -3.7040   -2.0251   -0.5206 C   0  0  0  0  0  0  0  0  0  0  0  0
   -3.2411   -3.0068   -0.6961 H   0  0  0  0  0  0  0  0  0  0  0  0
   -2.8020   -0.9107   -0.3541 C   0  0  0  0  0  0  0  0  0  0  0  0
   -1.5396   -1.2006   -0.4296 O   0  5  0  0  0  0  0  0  0  0  0  0
  1  3  1  0  0  0  0
  1  2  1  0  0  0  0
  3  4  1  0  0  0  0
  4  6  2  0  0  0  0
  4  5  1  0  0  0  0
  6  7  1  0  0  0  0
  8 13  1  0  0  0  0
  8  6  1  0  0  0  0
  9  8  2  0  0  0  0
 10  9  1  0  0  0  0
 11  9  1  0  0  0  0
 11  3  2  0  0  0  0
 12 11  1  0  0  0  0
 13 14  1  0  0  0  0
 15 14  1  0  0  0  0
 16 14  2  0  0  0  0
 16 17  1  0  0  0  0
 17 18  2  0  0  0  0
 18 20  1  0  0  0  0
 18 19  1  0  0  0  0
 20 21  1  0  0  0  0
 22 23  1  0  0  0  0
 22 20  2  0  0  0  0
 24 22  1  0  0  0  0
 25 24  1  0  0  0  0
 26 24  1  0  0  0  0
 26 17  1  0  0  0  0
 27 26  2  0  0  0  0
 28 27  1  0  0  0  0
 29 27  1  0  0  0  0
 29 31  2  0  0  0  0
 30 29  1  0  0  0  0
 31 16  1  0  0  0  0
 32 31  1  0  0  0  0
M  CHG  1  32  -1
M  END
