8,16
q = -1.0

 26 27  0  0  1  0  0  0  0  0999 V2000
   -6.7103    1.4049   -0.0328 O   0  0  0  0  0  0  0  0  0  0  0  0
   -5.3508    1.4572   -0.0767 C   0  0  0  0  0  0  0  0  0  0  0  0
   -4.5981    0.8682   -1.1148 C   0  0  0  0  0  0  0  0  0  0  0  0
   -3.2026    0.9445   -1.1077 C   0  0  0  0  0  0  0  0  0  0  0  0
   -2.5328    1.6252   -0.0741 C   0  0  0  0  0  0  0  0  0  0  0  0
   -3.2858    2.2046    0.9659 C   0  0  0  0  0  0  0  0  0  0  0  0
   -4.6824    2.1267    0.9669 C   0  0  0  0  0  0  0  0  0  0  0  0
   -1.1092    1.7105   -0.0817 N   0  0  0  0  0  2  0  0  0  0  0  0
   -0.5688    2.9092   -0.0428 C   0  0  0  0  0  0  0  0  0  0  0  0
    0.8188    3.2618   -0.0538 C   0  0  0  0  0  0  0  0  0  0  0  0
    1.1474    4.6485    0.0230 C   0  0  0  0  0  0  0  0  0  0  0  0
    2.4596    5.0953   -0.0331 C   0  0  0  0  0  0  0  0  0  0  0  0
    3.4998    4.1436   -0.1868 C   0  0  0  0  0  0  0  0  0  0  0  0
    3.2230    2.7859   -0.2749 C   0  0  0  0  0  0  0  0  0  0  0  0
    1.8806    2.2929   -0.2001 C   0  0  2  0  0  3  0  0  0  0  0  0
    1.7095    1.0061   -0.2789 O   0  0  0  0  0  1  0  0  0  0  0  0
   -7.0246    0.9081   -0.8107 H   0  0  0  0  0  0  0  0  0  0  0  0
   -5.1138    0.3401   -1.9339 H   0  0  0  0  0  0  0  0  0  0  0  0
   -2.6145    0.4752   -1.9082 H   0  0  0  0  0  0  0  0  0  0  0  0
   -2.7628    2.7026    1.7960 H   0  0  0  0  0  0  0  0  0  0  0  0
   -5.2768    2.5700    1.7785 H   0  0  0  0  0  0  0  0  0  0  0  0
   -1.2755    3.7623   -0.0323 H   0  0  0  0  0  0  0  0  0  0  0  0
    0.3220    5.3709    0.1286 H   0  0  0  0  0  0  0  0  0  0  0  0
    2.6895    6.1682    0.0333 H   0  0  0  0  0  0  0  0  0  0  0  0
    4.5461    4.4844   -0.2392 H   0  0  0  0  0  0  0  0  0  0  0  0
    4.0195    2.0375   -0.3971 H   0  0  0  0  0  0  0  0  0  0  0  0
  2  1  1  0  0  0  0
  2  7  1  0  0  0  0
  3  4  1  0  0  0  0
  3  2  2  0  0  0  0
  4  5  2  0  0  0  0
  5  6  1  0  0  0  0
  6  7  2  0  0  0  0
  6 20  1  0  0  0  0
  7 21  1  0  0  0  0
  8  5  1  0  0  0  0
  8  9  1  0  0  0  0
  9 22  1  0  0  0  0
 10  9  2  0  0  0  0
 10 11  1  0  0  0  0
 11 23  1  0  0  0  0
 12 11  2  0  0  0  0
 12 24  1  0  0  0  0
 13 12  1  0  0  0  0
 14 15  1  0  0  0  0
 14 13  2  0  0  0  0
 15 16  1  6  0  0  0
 15 10  1  0  0  0  0
 17  1  1  0  0  0  0
 18  3  1  0  0  0  0
 19  4  1  0  0  0  0
 25 13  1  0  0  0  0
 26 14  1  0  0  0  0
M  END
