1,2
q = -1.0

 37 38  0  0  0  0  0  0  0  0999 V2000
    1.6408   -1.0594    0.3285 O   0  5  0  0  0  0  0  0  0  0  0  0
   -0.7506   -0.7195   -0.8222 N   0  0  0  0  0  2  0  0  0  0  0  0
   -2.5699   -2.8552   -0.5281 F   0  0  0  0  0  0  0  0  0  0  0  0
   -5.2573   -2.4550   -0.5822 F   0  0  0  0  0  0  0  0  0  0  0  0
   -6.2705    0.0287   -1.1318 F   0  0  0  0  0  0  0  0  0  0  0  0
   -4.5673    2.1174   -1.6443 F   0  0  0  0  0  0  0  0  0  0  0  0
   -1.8766    1.7154   -1.6371 F   0  0  0  0  0  0  0  0  0  0  0  0
    2.1967   -1.1963   -0.8589 C   0  0  0  0  0  0  0  0  0  0  0  0
    3.5920   -1.4888   -0.9828 C   0  0  0  0  0  0  0  0  0  0  0  0
    4.1079   -1.5522   -2.2884 C   0  0  0  0  0  0  0  0  0  0  0  0
    5.1782   -1.7568   -2.4245 H   0  0  0  0  0  0  0  0  0  0  0  0
    3.3167   -1.3712   -3.4427 C   0  0  0  0  0  0  0  0  0  0  0  0
    3.7803   -1.4316   -4.4377 H   0  0  0  0  0  0  0  0  0  0  0  0
    1.9526   -1.1393   -3.3114 C   0  0  0  0  0  0  0  0  0  0  0  0
    1.3088   -1.0235   -4.1974 H   0  0  0  0  0  0  0  0  0  0  0  0
    1.3738   -1.0498   -2.0214 C   0  0  0  0  0  0  0  0  0  0  0  0
   -0.0519   -0.8625   -1.9172 C   0  0  0  0  0  3  0  0  0  0  0  0
   -0.5961   -0.8569   -2.8851 H   0  0  0  0  0  0  0  0  0  0  0  0
   -2.1517   -0.5593   -0.9911 C   0  0  0  0  0  0  0  0  0  0  0  0
   -3.0382   -1.6313   -0.7708 C   0  0  0  0  0  0  0  0  0  0  0  0
   -4.4289   -1.4325   -0.8073 C   0  0  0  0  0  0  0  0  0  0  0  0
   -4.9505   -0.1633   -1.1054 C   0  0  0  0  0  0  0  0  0  0  0  0
   -4.0787    0.9071   -1.3625 C   0  0  0  0  0  0  0  0  0  0  0  0
   -2.6932    0.6920   -1.3422 C   0  0  0  0  0  0  0  0  0  0  0  0
    4.4623   -1.7381    0.2618 C   0  0  0  0  0  0  0  0  0  0  0  0
    4.4762   -0.4874    1.1723 C   0  0  0  0  0  0  0  0  0  0  0  0
    3.4790   -0.2658    1.5952 H   0  0  0  0  0  0  0  0  0  0  0  0
    4.8376    0.4023    0.6166 H   0  0  0  0  0  0  0  0  0  0  0  0
    5.1664   -0.6560    2.0240 H   0  0  0  0  0  0  0  0  0  0  0  0
    5.9178   -2.0572   -0.1259 C   0  0  0  0  0  0  0  0  0  0  0  0
    5.9932   -2.9630   -0.7613 H   0  0  0  0  0  0  0  0  0  0  0  0
    6.5060   -2.2484    0.7933 H   0  0  0  0  0  0  0  0  0  0  0  0
    6.4028   -1.2140   -0.6592 H   0  0  0  0  0  0  0  0  0  0  0  0
    3.8971   -2.9500    1.0428 C   0  0  0  0  0  0  0  0  0  0  0  0
    3.9083   -3.8632    0.4138 H   0  0  0  0  0  0  0  0  0  0  0  0
    2.8610   -2.7737    1.3854 H   0  0  0  0  0  0  0  0  0  0  0  0
    4.5237   -3.1432    1.9374 H   0  0  0  0  0  0  0  0  0  0  0  0
  5 22  1  0  0  0  0
  6 23  1  0  0  0  0
  7 24  1  0  0  0  0
  8  1  1  0  0  0  0
  9  8  1  0  0  0  0
  9 25  1  0  0  0  0
 10  9  2  0  0  0  0
 11 10  1  0  0  0  0
 12 14  2  0  0  0  0
 12 10  1  0  0  0  0
 13 12  1  0  0  0  0
 14 16  1  0  0  0  0
 15 14  1  0  0  0  0
 16 17  1  0  0  0  0
 16  8  2  0  0  0  0
 17  2  1  0  0  0  0
 18 17  1  0  0  0  0
 19  2  1  0  0  0  0
 19 20  1  0  0  0  0
 20  3  1  0  0  0  0
 21 20  2  0  0  0  0
 21  4  1  0  0  0  0
 22 21  1  0  0  0  0
 23 24  1  0  0  0  0
 23 22  2  0  0  0  0
 24 19  2  0  0  0  0
 25 34  1  0  0  0  0
 25 26  1  0  0  0  0
 26 27  1  0  0  0  0
 26 29  1  0  0  0  0
 28 26  1  0  0  0  0
 30 25  1  0  0  0  0
 30 32  1  0  0  0  0
 31 30  1  0  0  0  0
 33 30  1  0  0  0  0
 34 36  1  0  0  0  0
 34 37  1  0  0  0  0
 35 34  1  0  0  0  0
M  CHG  1   1  -1
M  END
