1,2
q = -1.0, confidence = 0.024

 32 35  0  0  0  0  0  0  0  0999 V2000
   -1.6591   -0.5504   -1.0861 O   0  0  0  0  0  1  0  0  0  0  0  0
   -0.9716   -0.8847    1.4203 N   0  0  0  0  0  2  0  0  0  0  0  0
   -0.5929   -1.2737    2.6625 C   0  0  0  0  0  3  0  0  0  0  0  0
   -1.2286   -0.7940    3.8051 C   0  0  0  0  0  0  0  0  0  0  0  0
   -2.2834    0.1277    3.6552 C   0  0  0  0  0  0  0  0  0  0  0  0
   -2.6858    0.4994    2.3703 C   0  0  0  0  0  0  0  0  0  0  0  0
   -2.0165   -0.0364    1.2569 C   0  0  0  0  0  0  0  0  0  0  0  0
   -2.4325    0.2231   -0.1914 C   0  0  0  0  0  0  0  0  0  0  0  0
   -3.9318   -0.0733   -0.3324 C   0  0  0  0  0  0  0  0  0  0  0  0
   -4.5699   -1.3101   -0.2444 C   0  0  0  0  0  0  0  0  0  0  0  0
   -5.9686   -1.3520   -0.4000 C   0  0  0  0  0  0  0  0  0  0  0  0
   -6.6972   -0.1708   -0.6334 C   0  0  0  0  0  0  0  0  0  0  0  0
   -6.0480    1.0727   -0.7301 C   0  0  0  0  0  0  0  0  0  0  0  0
   -4.6525    1.1182   -0.5858 C   0  0  0  0  0  0  0  0  0  0  0  0
   -3.6958    2.2352   -0.6785 C   0  0  0  0  0  0  0  0  0  0  0  0
   -3.8926    3.6011   -0.9341 C   0  0  0  0  0  0  0  0  0  0  0  0
   -2.7683    4.4415   -1.0123 C   0  0  0  0  0  0  0  0  0  0  0  0
   -1.4698    3.9268   -0.8425 C   0  0  0  0  0  0  0  0  0  0  0  0
   -1.2653    2.5598   -0.5753 C   0  0  0  0  0  0  0  0  0  0  0  0
   -2.3851    1.7303   -0.4904 C   0  0  0  0  0  0  0  0  0  0  0  0
    0.2492   -1.9803    2.7071 H   0  0  0  0  0  0  0  0  0  0  0  0
   -0.8940   -1.1278    4.7972 H   0  0  0  0  0  0  0  0  0  0  0  0
   -2.7919    0.5422    4.5383 H   0  0  0  0  0  0  0  0  0  0  0  0
   -3.5229    1.1927    2.2056 H   0  0  0  0  0  0  0  0  0  0  0  0
   -3.9883   -2.2283   -0.0701 H   0  0  0  0  0  0  0  0  0  0  0  0
   -6.4962   -2.3161   -0.3440 H   0  0  0  0  0  0  0  0  0  0  0  0
   -7.7904   -0.2225   -0.7506 H   0  0  0  0  0  0  0  0  0  0  0  0
   -6.6248    1.9893   -0.9267 H   0  0  0  0  0  0  0  0  0  0  0  0
   -4.9052    4.0069   -1.0812 H   0  0  0  0  0  0  0  0  0  0  0  0
   -2.9059    5.5143   -1.2172 H   0  0  0  0  0  0  0  0  0  0  0  0
   -0.6016    4.5984   -0.9224 H   0  0  0  0  0  0  0  0  0  0  0  0
   -0.2577    2.1359   -0.4546 H   0  0  0  0  0  0  0  0  0  0  0  0
  1  8  1  0  0  0  0
  2  3  1  0  0  0  0
  3 21  1  0  0  0  0
  3  4  1  0  0  0  0
  4 22  1  0  0  0  0
  5  4  2  0  0  0  0
  5 23  1  0  0  0  0
  6  5  1  0  0  0  0
  7  2  1  0  0  0  0
  7  6  2  0  0  0  0
  8  7  1  0  0  0  0
  9 10  1  0  0  0  0
  9  8  1  0  0  0  0
 10 25  1  0  0  0  0
 11 26  1  0  0  0  0
 11 10  2  0  0  0  0
 12 11  1  0  0  0  0
 13 12  2  0  0  0  0
 13 14  1  0  0  0  0
 14  9  2  0  0  0  0
 15 14  1  0  0  0  0
 15 20  1  0  0  0  0
 16 15  2  0  0  0  0
 17 16  1  0  0  0  0
 17 18  2  0  0  0  0
 18 19  1  0  0  0  0
 19 20  2  0  0  0  0
 19 32  1  0  0  0  0
 20  8  1  0  0  0  0
 24  6  1  0  0  0  0
 27 12  1  0  0  0  0
 28 13  1  0  0  0  0
 29 16  1  0  0  0  0
 30 17  1  0  0  0  0
 31 18  1  0  0  0  0
M  END
