1,2
q = -1.0

 39 40  0  0  1  0  0  0  0  0999 V2000
    1.0428   -0.1720   -0.0205 O   0  5  0  0  0  0  0  0  0  0  0  0
   -1.3764    1.4714   -0.0272 N   0  0  0  0  0  2  0  0  0  0  0  0
    0.9418    2.2135   -0.1820 C   0  0  0  0  0  0  0  0  0  0  0  0
    1.5613    3.1086   -0.3089 H   0  0  0  0  0  0  0  0  0  0  0  0
    7.2893    0.7683    0.1837 O   0  0  0  0  0  0  0  0  0  0  0  0
   -2.7544    1.8285    0.0105 C   0  0  0  0  0  0  0  0  0  0  0  0
    3.1011    0.9411    0.0002 C   0  0  0  0  0  0  0  0  0  0  0  0
    5.9335    0.7552    0.1048 C   0  0  0  0  0  0  0  0  0  0  0  0
    3.8902    2.0498    0.3894 C   0  0  0  0  0  0  0  0  0  0  0  0
    3.4045    2.9924    0.6808 H   0  0  0  0  0  0  0  0  0  0  0  0
   -0.4570    2.4340   -0.1545 C   0  0  1  0  0  3  0  0  0  0  0  0
   -5.4943    2.4922    0.0691 C   0  0  0  0  0  0  0  0  0  0  0  0
   -6.5638    2.7504    0.0911 H   0  0  0  0  0  0  0  0  0  0  0  0
    8.0115   -0.4173   -0.1421 C   0  0  0  0  0  0  0  0  0  0  0  0
    7.7833   -0.7242   -1.1894 H   0  0  0  0  0  0  0  0  0  0  0  0
    7.6895   -1.2521    0.5234 H   0  0  0  0  0  0  0  0  0  0  0  0
   -0.9130    3.8729   -0.3023 C   0  0  0  0  0  0  0  0  0  0  0  0
   -1.7385    3.9508   -1.0371 H   0  0  0  0  0  0  0  0  0  0  0  0
   -0.0736    4.5080   -0.6379 H   0  0  0  0  0  0  0  0  0  0  0  0
   -1.2974    4.2860    0.6516 H   0  0  0  0  0  0  0  0  0  0  0  0
    1.6136    0.9864   -0.0671 C   0  0  0  0  0  0  0  0  0  0  0  0
    5.1619   -0.3623   -0.2809 C   0  0  0  0  0  0  0  0  0  0  0  0
    5.6399   -1.3121   -0.5550 H   0  0  0  0  0  0  0  0  0  0  0  0
    3.7660   -0.2595   -0.3245 C   0  0  0  0  0  0  0  0  0  0  0  0
    3.1580   -1.1226   -0.6305 H   0  0  0  0  0  0  0  0  0  0  0  0
    5.2799    1.9621    0.4433 C   0  0  0  0  0  0  0  0  0  0  0  0
    5.8968    2.8175    0.7546 H   0  0  0  0  0  0  0  0  0  0  0  0
   -4.9400    1.8634   -1.0607 C   0  0  0  0  0  0  0  0  0  0  0  0
   -5.5762    1.6325   -1.9294 H   0  0  0  0  0  0  0  0  0  0  0  0
   -4.6733    2.7915    1.1676 C   0  0  0  0  0  0  0  0  0  0  0  0
   -5.0988    3.2797    2.0580 H   0  0  0  0  0  0  0  0  0  0  0  0
   -3.3103    2.4586    1.1424 C   0  0  0  0  0  0  0  0  0  0  0  0
   -2.6635    2.6722    2.0068 H   0  0  0  0  0  0  0  0  0  0  0  0
   -3.5785    1.5322   -1.0960 C   0  0  0  0  0  0  0  0  0  0  0  0
   -3.1119    1.0422   -1.9652 H   0  0  0  0  0  0  0  0  0  0  0  0
    9.4900   -0.1255    0.0285 C   0  0  0  0  0  0  0  0  0  0  0  0
   10.0892   -1.0245   -0.2161 H   0  0  0  0  0  0  0  0  0  0  0  0
    9.7134    0.1715    1.0722 H   0  0  0  0  0  0  0  0  0  0  0  0
    9.8064    0.6990   -0.6405 H   0  0  0  0  0  0  0  0  0  0  0  0
  2  6  1  0  0  0  0
  3 21  2  0  0  0  0
  4  3  1  0  0  0  0
  6 32  1  0  0  0  0
  7  9  1  0  0  0  0
  8  5  1  0  0  0  0
  8 26  1  0  0  0  0
  9 26  2  0  0  0  0
  9 10  1  0  0  0  0
 11  3  1  6  0  0  0
 11  2  1  0  0  0  0
 12 13  1  0  0  0  0
 12 30  1  0  0  0  0
 14 36  1  0  0  0  0
 14  5  1  0  0  0  0
 14 16  1  0  0  0  0
 15 14  1  0  0  0  0
 17 11  1  0  0  0  0
 17 20  1  0  0  0  0
 18 17  1  0  0  0  0
 19 17  1  0  0  0  0
 21  1  1  0  0  0  0
 21  7  1  0  0  0  0
 22  8  2  0  0  0  0
 23 22  1  0  0  0  0
 24 22  1  0  0  0  0
 24  7  2  0  0  0  0
 25 24  1  0  0  0  0
 26 27  1  0  0  0  0
 28 12  2  0  0  0  0
 29 28  1  0  0  0  0
 30 31  1  0  0  0  0
 32 30  2  0  0  0  0
 32 33  1  0  0  0  0
 34 28  1  0  0  0  0
 34  6  2  0  0  0  0
 35 34  1  0  0  0  0
 36 38  1  0  0  0  0
 37 36  1  0  0  0  0
 39 36  1  0  0  0  0
M  CHG  1   1  -1
M  END
