1,2
q = -1.0

 31 32  0  0  0  0  0  0  0  0999 V2000
   -0.5432    1.6829    0.9952 O   0  5  0  0  0  0  0  0  0  0  0  0
   -1.9829   -0.4376   -0.1840 N   0  0  0  0  0  2  0  0  0  0  0  0
   -4.1241   -0.0126   -0.4324 N   0  0  0  0  0  0  0  0  0  0  0  0
   -1.5210    2.4543    0.5779 C   0  0  0  0  0  0  0  0  0  0  0  0
   -1.4786    3.8477    0.8893 C   0  0  0  0  0  0  0  0  0  0  0  0
   -0.6296    4.2071    1.4890 H   0  0  0  0  0  0  0  0  0  0  0  0
   -2.4661    4.7288    0.4510 C   0  0  0  0  0  0  0  0  0  0  0  0
   -2.3830    5.7986    0.6993 H   0  0  0  0  0  0  0  0  0  0  0  0
   -3.5563    4.2682   -0.3162 C   0  0  0  0  0  0  0  0  0  0  0  0
   -4.3182    4.9676   -0.6890 H   0  0  0  0  0  0  0  0  0  0  0  0
   -3.6505    2.9040   -0.5954 C   0  0  0  0  0  3  0  0  0  0  0  0
   -4.4980    2.5358   -1.1975 H   0  0  0  0  0  0  0  0  0  0  0  0
   -2.6735    1.9835   -0.1451 C   0  0  0  0  0  0  0  0  0  0  0  0
   -2.8897    0.5556   -0.2795 C   0  0  0  0  0  0  0  0  0  0  0  0
   -4.0117   -1.3943   -0.4089 C   0  0  0  0  0  0  0  0  0  0  0  0
   -2.6571   -1.6559   -0.2439 C   0  0  0  0  0  0  0  0  0  0  0  0
   -5.2020   -2.2968   -0.4742 C   0  0  0  0  0  0  0  0  0  0  0  0
   -4.8466   -3.3178   -0.7182 H   0  0  0  0  0  0  0  0  0  0  0  0
   -5.8516   -1.9933   -1.3253 H   0  0  0  0  0  0  0  0  0  0  0  0
   -6.0271   -2.3307    0.8235 C   0  0  0  0  0  0  0  0  0  0  0  0
   -6.8993   -3.0079    0.7256 H   0  0  0  0  0  0  0  0  0  0  0  0
   -6.4120   -1.3245    1.0889 H   0  0  0  0  0  0  0  0  0  0  0  0
   -5.4088   -2.6817    1.6736 H   0  0  0  0  0  0  0  0  0  0  0  0
   -1.9941   -2.9859   -0.0782 C   0  0  0  0  0  0  0  0  0  0  0  0
   -1.2015   -3.0781   -0.8447 H   0  0  0  0  0  0  0  0  0  0  0  0
   -2.7471   -3.7754   -0.2792 H   0  0  0  0  0  0  0  0  0  0  0  0
   -1.3769   -3.1886    1.3130 C   0  0  0  0  0  0  0  0  0  0  0  0
   -0.8525   -4.1627    1.3730 H   0  0  0  0  0  0  0  0  0  0  0  0
   -2.1494   -3.1534    2.1085 H   0  0  0  0  0  0  0  0  0  0  0  0
   -0.6326   -2.3949    1.5278 H   0  0  0  0  0  0  0  0  0  0  0  0
   -4.9956    0.5153   -0.4521 H   0  0  0  0  0  0  0  0  0  0  0  0
  3 15  1  0  0  0  0
  3 14  1  0  0  0  0
  4  5  2  0  0  0  0
  4  1  1  0  0  0  0
  5  6  1  0  0  0  0
  7  8  1  0  0  0  0
  7  5  1  0  0  0  0
  9  7  2  0  0  0  0
 10  9  1  0  0  0  0
 11  9  1  0  0  0  0
 11 13  1  0  0  0  0
 12 11  1  0  0  0  0
 13  4  1  0  0  0  0
 14  2  1  0  0  0  0
 14 13  2  0  0  0  0
 15 16  2  0  0  0  0
 16  2  1  0  0  0  0
 16 24  1  0  0  0  0
 17 15  1  0  0  0  0
 17 20  1  0  0  0  0
 18 17  1  0  0  0  0
 19 17  1  0  0  0  0
 20 22  1  0  0  0  0
 20 23  1  0  0  0  0
 21 20  1  0  0  0  0
 24 27  1  0  0  0  0
 25 24  1  0  0  0  0
 26 24  1  0  0  0  0
 27 28  1  0  0  0  0
 27 30  1  0  0  0  0
 27 29  1  0  0  0  0
 31  3  1  0  0  0  0
M  CHG  1   1  -1
M  END
