1,2
q = -1.0

 31 32  0  0  1  0  0  0  0  0999 V2000
    0.5432   -1.6830   -0.9952 O   0  0  0  0  0  1  0  0  0  0  0  0
    1.9829    0.4375    0.1841 N   0  0  0  0  0  2  0  0  0  0  0  0
    4.1241    0.0126    0.4325 N   0  0  0  0  0  0  0  0  0  0  0  0
    1.5210   -2.4544   -0.5778 C   0  0  1  0  0  3  0  0  0  0  0  0
    1.4786   -3.8478   -0.8891 C   0  0  0  0  0  0  0  0  0  0  0  0
    0.6296   -4.2071   -1.4888 H   0  0  0  0  0  0  0  0  0  0  0  0
    2.4661   -4.7288   -0.4508 C   0  0  0  0  0  0  0  0  0  0  0  0
    2.3829   -5.7986   -0.6991 H   0  0  0  0  0  0  0  0  0  0  0  0
    3.5563   -4.2682    0.3164 C   0  0  0  0  0  0  0  0  0  0  0  0
    4.3182   -4.9677    0.6892 H   0  0  0  0  0  0  0  0  0  0  0  0
    3.6505   -2.9041    0.5955 C   0  0  0  0  0  0  0  0  0  0  0  0
    4.4980   -2.5358    1.1976 H   0  0  0  0  0  0  0  0  0  0  0  0
    2.6736   -1.9836    0.1452 C   0  0  0  0  0  0  0  0  0  0  0  0
    2.8897   -0.5556    0.2795 C   0  0  0  0  0  0  0  0  0  0  0  0
    4.0117    1.3943    0.4089 C   0  0  0  0  0  0  0  0  0  0  0  0
    2.6571    1.6559    0.2439 C   0  0  0  0  0  0  0  0  0  0  0  0
    5.2020    2.2968    0.4741 C   0  0  0  0  0  0  0  0  0  0  0  0
    4.8466    3.3178    0.7185 H   0  0  0  0  0  0  0  0  0  0  0  0
    5.8519    1.9931    1.3249 H   0  0  0  0  0  0  0  0  0  0  0  0
    6.0267    2.3310   -0.8239 C   0  0  0  0  0  0  0  0  0  0  0  0
    6.8989    3.0082   -0.7261 H   0  0  0  0  0  0  0  0  0  0  0  0
    6.4115    1.3249   -1.0896 H   0  0  0  0  0  0  0  0  0  0  0  0
    5.4081    2.6823   -1.6737 H   0  0  0  0  0  0  0  0  0  0  0  0
    1.9941    2.9858    0.0781 C   0  0  0  0  0  0  0  0  0  0  0  0
    1.2015    3.0780    0.8445 H   0  0  0  0  0  0  0  0  0  0  0  0
    2.7471    3.7753    0.2792 H   0  0  0  0  0  0  0  0  0  0  0  0
    1.3771    3.1885   -1.3132 C   0  0  0  0  0  0  0  0  0  0  0  0
    0.8527    4.1626   -1.3733 H   0  0  0  0  0  0  0  0  0  0  0  0
    2.1497    3.1532   -2.1086 H   0  0  0  0  0  0  0  0  0  0  0  0
    0.6328    2.3948   -1.5280 H   0  0  0  0  0  0  0  0  0  0  0  0
    4.9957   -0.5152    0.4521 H   0  0  0  0  0  0  0  0  0  0  0  0
  2 16  1  0  0  0  0
  2 14  1  0  0  0  0
  3 31  1  0  0  0  0
  4  1  1  6  0  0  0
  4 13  1  0  0  0  0
  5  4  1  0  0  0  0
  5  7  2  0  0  0  0
  6  5  1  0  0  0  0
  7  9  1  0  0  0  0
  8  7  1  0  0  0  0
  9 11  2  0  0  0  0
  9 10  1  0  0  0  0
 11 12  1  0  0  0  0
 13 14  2  0  0  0  0
 13 11  1  0  0  0  0
 14  3  1  0  0  0  0
 15  3  1  0  0  0  0
 15 17  1  0  0  0  0
 16 15  2  0  0  0  0
 17 18  1  0  0  0  0
 17 19  1  0  0  0  0
 20 21  1  0  0  0  0
 20 17  1  0  0  0  0
 22 20  1  0  0  0  0
 23 20  1  0  0  0  0
 24 16  1  0  0  0  0
 24 26  1  0  0  0  0
 24 25  1  0  0  0  0
 27 24  1  0  0  0  0
 28 27  1  0  0  0  0
 29 27  1  0  0  0  0
 30 27  1  0  0  0  0
M  END
