1,2
q = -1.0, confidence = 0.0

 20 20  0  0  0  0  0  0  0  0999 V2000
    1.0764   -1.1038   -0.2120 O   0  0  0  0  0  1  0  0  0  0  0  0
    0.8577    1.5311   -0.2544 N   0  0  0  0  0  2  0  0  0  0  0  0
    0.6650    2.8414   -0.5399 C   0  0  0  0  0  3  0  0  0  0  0  0
   -0.3768    3.1454   -0.6997 H   0  0  0  0  0  0  0  0  0  0  0  0
    1.7175    3.7526   -0.6333 C   0  0  0  0  0  0  0  0  0  0  0  0
    1.5000    4.8041   -0.8673 H   0  0  0  0  0  0  0  0  0  0  0  0
    3.0265    3.2987   -0.4249 C   0  0  0  0  0  0  0  0  0  0  0  0
    3.8803    3.9902   -0.4759 H   0  0  0  0  0  0  0  0  0  0  0  0
    3.2320    1.9377   -0.1719 C   0  0  0  0  0  0  0  0  0  0  0  0
    4.2406    1.5317   -0.0316 H   0  0  0  0  0  0  0  0  0  0  0  0
    2.1379    1.0636   -0.1190 C   0  0  0  0  0  0  0  0  0  0  0  0
    2.2495   -0.4613    0.0518 C   0  0  0  0  0  0  0  0  0  0  0  0
    2.6914   -0.7619    1.5287 C   0  0  0  0  0  0  0  0  0  0  0  0
    3.3041   -1.0206   -0.9665 C   0  0  0  0  0  0  0  0  0  0  0  0
    1.7492   -0.3031    2.3799 F   0  0  0  0  0  0  0  0  0  0  0  0
    2.8333   -2.0817    1.7325 F   0  0  0  0  0  0  0  0  0  0  0  0
    3.8643   -0.1625    1.8670 F   0  0  0  0  0  0  0  0  0  0  0  0
    3.2834   -2.3595   -0.9838 F   0  0  0  0  0  0  0  0  0  0  0  0
    4.5842   -0.6393   -0.6935 F   0  0  0  0  0  0  0  0  0  0  0  0
    3.0105   -0.5764   -2.2073 F   0  0  0  0  0  0  0  0  0  0  0  0
  1 12  1  0  0  0  0
  2 11  1  0  0  0  0
  3  2  1  0  0  0  0
  4  3  1  0  0  0  0
  5  3  1  0  0  0  0
  5  7  2  0  0  0  0
  6  5  1  0  0  0  0
  7  9  1  0  0  0  0
  8  7  1  0  0  0  0
  9 11  2  0  0  0  0
  9 10  1  0  0  0  0
 11 12  1  0  0  0  0
 12 13  1  0  0  0  0
 13 16  1  0  0  0  0
 13 17  1  0  0  0  0
 13 15  1  0  0  0  0
 14 19  1  0  0  0  0
 14 12  1  0  0  0  0
 18 14  1  0  0  0  0
 20 14  1  0  0  0  0
M  END
