1,7
q = -1.0

 26 27  0  0  1  0  0  0  0  0999 V2000
   -0.5881   -0.8132    0.5840 O   0  0  0  0  0  1  0  0  0  0  0  0
   -1.7267   -0.0657    0.8416 C   0  0  1  0  0  0  0  0  0  0  0  0
   -1.9590    0.0522    2.3649 C   0  0  0  0  0  0  0  0  0  0  0  0
   -1.1296    0.6160    2.8335 H   0  0  0  0  0  0  0  0  0  0  0  0
   -1.9827   -0.9678    2.7943 H   0  0  0  0  0  0  0  0  0  0  0  0
   -2.9204    0.5545    2.5810 H   0  0  0  0  0  0  0  0  0  0  0  0
   -0.3449    1.4709   -0.4215 N   0  0  0  0  0  2  0  0  0  0  0  0
   -0.0564    2.6665   -0.9785 C   0  0  0  0  0  3  0  0  0  0  0  0
    0.9041    2.7321   -1.5073 H   0  0  0  0  0  0  0  0  0  0  0  0
   -0.9175    3.7637   -0.9060 C   0  0  0  0  0  0  0  0  0  0  0  0
   -0.6284    4.7177   -1.3696 H   0  0  0  0  0  0  0  0  0  0  0  0
   -2.1479    3.6085   -0.2468 C   0  0  0  0  0  0  0  0  0  0  0  0
   -2.8600    4.4453   -0.1819 H   0  0  0  0  0  0  0  0  0  0  0  0
   -2.4573    2.3695    0.3215 C   0  0  0  0  0  0  0  0  0  0  0  0
   -3.4183    2.1733    0.8156 H   0  0  0  0  0  0  0  0  0  0  0  0
   -1.5229    1.3218    0.2241 C   0  0  0  0  0  0  0  0  0  0  0  0
   -4.1606   -0.1547    0.4404 N   0  0  0  0  0  0  0  0  0  0  0  0
   -3.9748   -2.4646   -1.1365 C   0  0  0  0  0  0  0  0  0  0  0  0
   -3.8976   -3.3736   -1.7529 H   0  0  0  0  0  0  0  0  0  0  0  0
   -5.2205   -1.8684   -0.8932 C   0  0  0  0  0  0  0  0  0  0  0  0
   -6.1492   -2.2874   -1.3080 H   0  0  0  0  0  0  0  0  0  0  0  0
   -5.2557   -0.7131   -0.0963 C   0  0  0  0  0  0  0  0  0  0  0  0
   -6.2173   -0.2145    0.1215 H   0  0  0  0  0  0  0  0  0  0  0  0
   -2.8237   -1.8884   -0.5819 C   0  0  0  0  0  0  0  0  0  0  0  0
   -1.8228   -2.3128   -0.7317 H   0  0  0  0  0  0  0  0  0  0  0  0
   -2.9677   -0.7275    0.1986 C   0  0  0  0  0  0  0  0  0  0  0  0
  2  1  1  6  0  0  0
  2  3  1  0  0  0  0
  3  6  1  0  0  0  0
  3  5  1  0  0  0  0
  3  4  1  0  0  0  0
  7 16  1  0  0  0  0
  8 10  1  0  0  0  0
  8  7  1  0  0  0  0
  9  8  1  0  0  0  0
 10 12  2  0  0  0  0
 11 10  1  0  0  0  0
 12 13  1  0  0  0  0
 12 14  1  0  0  0  0
 14 15  1  0  0  0  0
 16 14  2  0  0  0  0
 16  2  1  0  0  0  0
 18 20  2  0  0  0  0
 18 24  1  0  0  0  0
 19 18  1  0  0  0  0
 20 22  1  0  0  0  0
 21 20  1  0  0  0  0
 22 23  1  0  0  0  0
 22 17  2  0  0  0  0
 24 26  2  0  0  0  0
 25 24  1  0  0  0  0
 26 17  1  0  0  0  0
 26  2  1  0  0  0  0
M  END
