2,3
q = -1.0

 22 23  0  0  0  0  0  0  0  0999 V2000
    6.9578    0.1688   -0.7028 F   0  0  0  0  0  0  0  0  0  0  0  0
    1.0242   -0.6869   -1.5457 N   0  0  0  0  0  2  0  0  0  0  0  0
    1.7484    0.2228    1.0546 O   0  5  0  0  0  0  0  0  0  0  0  0
    3.3000   -0.1860   -0.7696 C   0  0  0  0  0  0  0  0  0  0  0  0
    2.9579    0.2032    0.5754 C   0  0  0  0  0  0  0  0  0  0  0  0
    4.0353    0.5663    1.4460 C   0  0  0  0  0  0  0  0  0  0  0  0
    3.7778    0.8687    2.4713 H   0  0  0  0  0  0  0  0  0  0  0  0
    5.3583    0.5534    1.0202 C   0  0  0  0  0  0  0  0  0  0  0  0
    6.1773    0.8409    1.6963 H   0  0  0  0  0  0  0  0  0  0  0  0
    5.6665    0.1741   -0.3035 C   0  0  0  0  0  0  0  0  0  0  0  0
    4.6625   -0.1889   -1.1847 C   0  0  0  0  0  0  0  0  0  0  0  0
    4.9254   -0.4814   -2.2125 H   0  0  0  0  0  0  0  0  0  0  0  0
    2.3125   -0.5964   -1.7257 C   0  0  0  0  0  3  0  0  0  0  0  0
    2.7009   -0.8668   -2.7271 H   0  0  0  0  0  0  0  0  0  0  0  0
    0.1786   -1.0610   -2.6498 C   0  0  0  0  0  0  0  0  0  0  0  0
   -0.4890   -0.2325   -2.9360 H   0  0  0  0  0  0  0  0  0  0  0  0
    0.6246   -2.0077   -3.7375 C   0  0  0  0  0  0  0  0  0  0  0  0
    1.6144   -2.4841   -3.6586 H   0  0  0  0  0  0  0  0  0  0  0  0
    0.3220   -1.7763   -4.7703 H   0  0  0  0  0  0  0  0  0  0  0  0
   -0.4275   -2.4388   -2.7365 C   0  0  0  0  0  0  0  0  0  0  0  0
   -1.4808   -2.5188   -3.0441 H   0  0  0  0  0  0  0  0  0  0  0  0
   -0.1200   -3.1739   -1.9781 H   0  0  0  0  0  0  0  0  0  0  0  0
  1 10  1  0  0  0  0
  4  5  1  0  0  0  0
  5  3  1  0  0  0  0
  5  6  2  0  0  0  0
  6  7  1  0  0  0  0
  8  6  1  0  0  0  0
  8  9  1  0  0  0  0
 10  8  2  0  0  0  0
 11  4  2  0  0  0  0
 11 10  1  0  0  0  0
 12 11  1  0  0  0  0
 13  2  1  0  0  0  0
 13  4  1  0  0  0  0
 14 13  1  0  0  0  0
 15  2  1  0  0  0  0
 16 15  1  0  0  0  0
 17 18  1  0  0  0  0
 17 20  1  0  0  0  0
 17 15  1  0  0  0  0
 19 17  1  0  0  0  0
 20 15  1  0  0  0  0
 20 22  1  0  0  0  0
 21 20  1  0  0  0  0
M  CHG  1   3  -1
M  END
