1,2
q = -1.0

 55 56  0  0  1  0  0  0  0  0999 V2000
    0.7068   -1.1253    0.0454 O   0  5  0  0  0  0  0  0  0  0  0  0
   -0.7864    1.2320   -0.7700 N   0  0  0  0  0  2  0  0  0  0  0  0
    1.7510   -0.3521   -0.0177 C   0  0  0  0  0  0  0  0  0  0  0  0
    3.0593   -0.9101    0.2550 C   0  0  0  0  0  0  0  0  0  0  0  0
    4.1560   -0.0497    0.2279 C   0  0  0  0  0  0  0  0  0  0  0  0
    5.1476   -0.4797    0.4242 H   0  0  0  0  0  0  0  0  0  0  0  0
    4.0893    1.3452   -0.0495 C   0  0  0  0  0  0  0  0  0  0  0  0
    2.8319    1.8627   -0.3263 C   0  0  0  0  0  3  0  0  0  0  0  0
    2.7029    2.9288   -0.5644 H   0  0  0  0  0  0  0  0  0  0  0  0
    1.6633    1.0469   -0.3280 C   0  0  0  0  0  0  0  0  0  0  0  0
    0.4306    1.7044   -0.6402 C   0  0  0  0  0  0  0  0  0  0  0  0
    0.5430    2.7956   -0.8088 H   0  0  0  0  0  0  0  0  0  0  0  0
   -1.8017    2.2281   -1.1838 C   0  0  1  0  0  0  0  0  0  0  0  0
   -1.2458    3.1843   -1.3227 H   0  0  0  0  0  0  0  0  0  0  0  0
   -2.4012    1.8887   -2.5492 C   0  0  0  0  0  0  0  0  0  0  0  0
   -1.5877    1.6390   -3.2548 H   0  0  0  0  0  0  0  0  0  0  0  0
   -2.9728    2.7528   -2.9409 H   0  0  0  0  0  0  0  0  0  0  0  0
   -3.0688    1.0100   -2.5089 H   0  0  0  0  0  0  0  0  0  0  0  0
   -2.8018    2.5156   -0.0649 C   0  0  0  0  0  0  0  0  0  0  0  0
   -4.1869    2.6167   -0.2932 C   0  0  0  0  0  0  0  0  0  0  0  0
   -4.5886    2.4656   -1.3056 H   0  0  0  0  0  0  0  0  0  0  0  0
   -5.0720    2.9048    0.7596 C   0  0  0  0  0  0  0  0  0  0  0  0
   -6.1524    2.9707    0.5598 H   0  0  0  0  0  0  0  0  0  0  0  0
   -4.5835    3.1081    2.0583 C   0  0  0  0  0  0  0  0  0  0  0  0
   -5.2764    3.3317    2.8834 H   0  0  0  0  0  0  0  0  0  0  0  0
   -3.2002    3.0320    2.2944 C   0  0  0  0  0  0  0  0  0  0  0  0
   -2.8026    3.1986    3.3073 H   0  0  0  0  0  0  0  0  0  0  0  0
   -2.3216    2.7397    1.2424 C   0  0  0  0  0  0  0  0  0  0  0  0
   -1.2424    2.6601    1.4410 H   0  0  0  0  0  0  0  0  0  0  0  0
    3.2220   -2.4177    0.5242 C   0  0  0  0  0  0  0  0  0  0  0  0
    2.6879   -3.2199   -0.6873 C   0  0  0  0  0  0  0  0  0  0  0  0
    3.2720   -2.9813   -1.5989 H   0  0  0  0  0  0  0  0  0  0  0  0
    1.6287   -2.9827   -0.8951 H   0  0  0  0  0  0  0  0  0  0  0  0
    2.7835   -4.3091   -0.4939 H   0  0  0  0  0  0  0  0  0  0  0  0
    4.6955   -2.8114    0.7352 C   0  0  0  0  0  0  0  0  0  0  0  0
    5.3175   -2.5855   -0.1547 H   0  0  0  0  0  0  0  0  0  0  0  0
    4.7609   -3.9030    0.9173 H   0  0  0  0  0  0  0  0  0  0  0  0
    5.1444   -2.3011    1.6118 H   0  0  0  0  0  0  0  0  0  0  0  0
    2.4465   -2.8076    1.8037 C   0  0  0  0  0  0  0  0  0  0  0  0
    2.5437   -3.8964    1.9974 H   0  0  0  0  0  0  0  0  0  0  0  0
    1.3751   -2.5600    1.6970 H   0  0  0  0  0  0  0  0  0  0  0  0
    2.8433   -2.2650    2.6863 H   0  0  0  0  0  0  0  0  0  0  0  0
    5.3771    2.1842   -0.0459 C   0  0  0  0  0  0  0  0  0  0  0  0
    6.0398    2.1001    1.3480 C   0  0  0  0  0  0  0  0  0  0  0  0
    5.3639    2.4995    2.1311 H   0  0  0  0  0  0  0  0  0  0  0  0
    6.9812    2.6880    1.3701 H   0  0  0  0  0  0  0  0  0  0  0  0
    6.2904    1.0556    1.6212 H   0  0  0  0  0  0  0  0  0  0  0  0
    6.3510    1.6330   -1.1123 C   0  0  0  0  0  0  0  0  0  0  0  0
    6.6150    0.5740   -0.9193 H   0  0  0  0  0  0  0  0  0  0  0  0
    7.2944    2.2181   -1.1206 H   0  0  0  0  0  0  0  0  0  0  0  0
    5.9000    1.6875   -2.1236 H   0  0  0  0  0  0  0  0  0  0  0  0
    5.0988    3.6634   -0.3618 C   0  0  0  0  0  0  0  0  0  0  0  0
    4.4177    4.1213    0.3840 H   0  0  0  0  0  0  0  0  0  0  0  0
    4.6471    3.7908   -1.3664 H   0  0  0  0  0  0  0  0  0  0  0  0
    6.0465    4.2387   -0.3466 H   0  0  0  0  0  0  0  0  0  0  0  0
  2 11  1  0  0  0  0
  3  1  1  0  0  0  0
  3  4  2  0  0  0  0
  4 30  1  0  0  0  0
  5  4  1  0  0  0  0
  5  6  1  0  0  0  0
  7 43  1  0  0  0  0
  7  5  2  0  0  0  0
  8  7  1  0  0  0  0
  9  8  1  0  0  0  0
 10  8  1  0  0  0  0
 10  3  1  0  0  0  0
 11 10  2  0  0  0  0
 12 11  1  0  0  0  0
 13 14  1  6  0  0  0
 13  2  1  0  0  0  0
 13 19  1  0  0  0  0
 15 18  1  0  0  0  0
 15 13  1  0  0  0  0
 16 15  1  0  0  0  0
 17 15  1  0  0  0  0
 19 28  1  0  0  0  0
 20 19  2  0  0  0  0
 20 22  1  0  0  0  0
 21 20  1  0  0  0  0
 22 24  2  0  0  0  0
 23 22  1  0  0  0  0
 24 26  1  0  0  0  0
 24 25  1  0  0  0  0
 26 27  1  0  0  0  0
 28 29  1  0  0  0  0
 28 26  2  0  0  0  0
 30 35  1  0  0  0  0
 30 39  1  0  0  0  0
 31 34  1  0  0  0  0
 31 30  1  0  0  0  0
 32 31  1  0  0  0  0
 33 31  1  0  0  0  0
 35 37  1  0  0  0  0
 35 38  1  0  0  0  0
 36 35  1  0  0  0  0
 39 40  1  0  0  0  0
 39 42  1  0  0  0  0
 41 39  1  0  0  0  0
 43 44  1  0  0  0  0
 44 46  1  0  0  0  0
 44 47  1  0  0  0  0
 44 45  1  0  0  0  0
 48 49  1  0  0  0  0
 48 43  1  0  0  0  0
 50 48  1  0  0  0  0
 51 48  1  0  0  0  0
 52 55  1  0  0  0  0
 52 43  1  0  0  0  0
 52 53  1  0  0  0  0
 54 52  1  0  0  0  0
M  CHG  1   1  -1
M  END
