1,3
q = -1.0

 19 19  0  0  1  0  0  0  0  0999 V2000
   -1.0218    1.0604   -1.6724 O   0  5  0  0  0  0  0  0  0  0  0  0
   -2.7819    2.4331   -1.9537 O   0  0  0  0  0  0  0  0  0  0  0  0
   -1.1270    1.1875    0.9799 N   0  0  0  0  0  0  0  0  0  0  0  0
   -1.3514    0.7684    1.8942 H   0  0  0  0  0  0  0  0  0  0  0  0
   -0.5843    2.0452    1.1645 H   0  0  0  0  0  0  0  0  0  0  0  0
   -2.0725    1.7327   -1.2505 C   0  0  0  0  0  0  0  0  0  0  0  0
   -2.4002    1.5361    0.2565 C   0  0  1  0  0  0  0  0  0  0  0  0
   -2.8043    2.4914    0.6490 H   0  0  0  0  0  0  0  0  0  0  0  0
   -3.4240    0.4411    0.4869 C   0  0  0  0  0  0  0  0  0  0  0  0
   -3.4002   -0.7527   -0.2648 C   0  0  0  0  0  0  0  0  0  0  0  0
   -2.6611   -0.8716   -1.0724 H   0  0  0  0  0  0  0  0  0  0  0  0
   -4.3219   -1.7742    0.0044 C   0  0  0  0  0  0  0  0  0  0  0  0
   -4.2999   -2.6969   -0.5950 H   0  0  0  0  0  0  0  0  0  0  0  0
   -5.2770   -1.6177    1.0227 C   0  0  0  0  0  0  0  0  0  0  0  0
   -6.0026   -2.4196    1.2272 H   0  0  0  0  0  0  0  0  0  0  0  0
   -5.3126   -0.4300    1.7691 C   0  0  0  0  0  0  0  0  0  0  0  0
   -6.0675   -0.2943    2.5583 H   0  0  0  0  0  0  0  0  0  0  0  0
   -4.3902    0.5933    1.5009 C   0  0  0  0  0  0  0  0  0  0  0  0
   -4.4280    1.5317    2.0777 H   0  0  0  0  0  0  0  0  0  0  0  0
  1  6  1  0  0  0  0
  2  6  2  0  0  0  0
  3  5  1  0  0  0  0
  3  4  1  0  0  0  0
  6  7  1  0  0  0  0
  7  9  1  0  0  0  0
  7  8  1  1  0  0  0
  7  3  1  0  0  0  0
  9 18  1  0  0  0  0
 10 12  1  0  0  0  0
 10  9  2  0  0  0  0
 11 10  1  0  0  0  0
 12 14  2  0  0  0  0
 13 12  1  0  0  0  0
 14 15  1  0  0  0  0
 14 16  1  0  0  0  0
 16 17  1  0  0  0  0
 18 16  2  0  0  0  0
 18 19  1  0  0  0  0
M  CHG  1   1  -1
M  END
