1,2
q = -1.0, confidence = 0.0

 30 32  0  0  0  0  0  0  0  0999 V2000
   -1.4206   -0.8645   -1.7932 O   0  5  0  0  0  0  0  0  0  0  0  0
   -1.2851    1.2022    0.2026 N   0  0  0  0  0  2  0  0  0  0  0  0
   -2.5720    1.0895    0.1811 N   0  0  0  0  0  2  0  0  0  0  0  0
   -2.6799   -0.7295   -1.5539 C   0  0  0  0  0  0  0  0  0  0  0  0
   -3.2465    0.1782   -0.5616 C   0  0  0  0  0  0  0  0  0  0  0  0
   -4.6990    0.1883   -0.3462 C   0  0  0  0  0  0  0  0  0  0  0  0
   -5.3025    1.0059    0.6426 C   0  0  0  0  0  0  0  0  0  0  0  0
   -4.6516    1.6364    1.2627 H   0  0  0  0  0  0  0  0  0  0  0  0
   -6.6835    1.0039    0.8313 C   0  0  0  0  0  0  0  0  0  0  0  0
   -7.1254    1.6485    1.6066 H   0  0  0  0  0  0  0  0  0  0  0  0
   -7.5199    0.1816    0.0423 C   0  0  0  0  0  0  0  0  0  0  0  0
   -8.6088    0.1852    0.1993 H   0  0  0  0  0  0  0  0  0  0  0  0
   -6.9520   -0.6341   -0.9312 C   0  0  0  0  0  0  0  0  0  0  0  0
   -7.5844   -1.2850   -1.5552 H   0  0  0  0  0  0  0  0  0  0  0  0
   -5.5480   -0.6478   -1.1416 C   0  0  0  0  0  0  0  0  0  0  0  0
   -4.9513   -1.4883   -2.1412 C   0  0  0  0  0  0  0  0  0  0  0  0
   -5.6133   -2.1220   -2.7533 H   0  0  0  0  0  0  0  0  0  0  0  0
   -3.5938   -1.5241   -2.3403 C   0  0  0  0  0  0  0  0  0  0  0  0
   -3.1336   -2.1746   -3.0984 H   0  0  0  0  0  0  0  0  0  0  0  0
   -0.7817    2.2754    0.9804 C   0  0  0  0  0  0  0  0  0  0  0  0
   -1.5968    3.3366    1.4348 C   0  0  0  0  0  0  0  0  0  0  0  0
   -2.6623    3.3313    1.1693 H   0  0  0  0  0  0  0  0  0  0  0  0
   -1.0345    4.3702    2.1904 C   0  0  0  0  0  0  0  0  0  0  0  0
   -1.6731    5.1979    2.5351 H   0  0  0  0  0  0  0  0  0  0  0  0
    0.3377    4.3671    2.5016 C   0  0  0  0  0  0  0  0  0  0  0  0
    0.7732    5.1868    3.0922 H   0  0  0  0  0  0  0  0  0  0  0  0
    1.1493    3.3159    2.0457 C   0  0  0  0  0  0  0  0  0  0  0  0
    2.2239    3.3005    2.2810 H   0  0  0  0  0  0  0  0  0  0  0  0
    0.5965    2.2775    1.2873 C   0  0  0  0  0  0  0  0  0  0  0  0
    1.2360    1.4520    0.9410 H   0  0  0  0  0  0  0  0  0  0  0  0
  1  4  1  0  0  0  0
  2 20  1  0  0  0  0
  3  2  1  0  0  0  0
  4  5  1  0  0  0  0
  5  6  2  0  0  0  0
  5  3  1  0  0  0  0
  6  7  1  0  0  0  0
  7  9  2  0  0  0  0
  7  8  1  0  0  0  0
  9 10  1  0  0  0  0
 11 12  1  0  0  0  0
 11  9  1  0  0  0  0
 13 11  2  0  0  0  0
 14 13  1  0  0  0  0
 15 13  1  0  0  0  0
 15  6  1  0  0  0  0
 16 15  2  0  0  0  0
 17 16  1  0  0  0  0
 18 16  1  0  0  0  0
 18  4  2  0  0  0  0
 19 18  1  0  0  0  0
 20 29  2  0  0  0  0
 20 21  1  0  0  0  0
 21 23  2  0  0  0  0
 22 21  1  0  0  0  0
 23 25  1  0  0  0  0
 23 24  1  0  0  0  0
 25 26  1  0  0  0  0
 27 28  1  0  0  0  0
 27 25  2  0  0  0  0
 29 27  1  0  0  0  0
 30 29  1  0  0  0  0
M  CHG  1   1  -1
M  END
