1,2
q = -1.0

 24 25  0  0  0  0  0  0  0  0999 V2000
   -0.5908   -2.2885   -0.1235 O   0  5  0  0  0  0  0  0  0  0  0  0
   -1.3884    0.2506    0.1072 N   0  0  0  0  0  2  0  0  0  0  0  0
   -4.6604   -1.4708   -0.2297 N   0  0  0  0  0  2  0  0  0  0  0  0
   -5.4986    1.3595    0.1529 N   0  0  0  0  0  0  0  0  0  0  0  0
   -2.3630   -0.7191   -0.0524 C   0  0  0  0  0  0  0  0  0  0  0  0
   -1.8718   -2.0730   -0.1905 C   0  0  0  0  0  0  0  0  0  0  0  0
   -2.8432   -3.0799   -0.3722 C   0  0  0  0  0  0  0  0  0  0  0  0
   -2.5281   -4.1266   -0.4867 H   0  0  0  0  0  0  0  0  0  0  0  0
   -4.1969   -2.7135   -0.3908 C   0  0  0  0  0  0  0  0  0  0  0  0
   -4.9641   -3.4953   -0.5385 H   0  0  0  0  0  0  0  0  0  0  0  0
   -3.7695   -0.4616   -0.0436 C   0  0  0  0  0  0  0  0  0  0  0  0
   -4.2033    0.9230    0.1759 C   0  0  0  0  0  0  0  0  0  0  0  0
   -3.1579    1.8516    0.4272 C   0  0  0  0  0  0  0  0  0  0  0  0
   -3.3817    2.8944    0.6748 H   0  0  0  0  0  0  0  0  0  0  0  0
   -1.8103    1.4923    0.3843 C   0  0  0  0  0  0  0  0  0  0  0  0
   -1.0368    2.2404    0.5980 H   0  0  0  0  0  0  0  0  0  0  0  0
   -6.6853    0.5091    0.1279 C   0  0  0  0  0  0  0  0  0  0  0  0
   -7.3563    0.8253   -0.6990 H   0  0  0  0  0  0  0  0  0  0  0  0
   -7.2461    0.6066    1.0844 H   0  0  0  0  0  0  0  0  0  0  0  0
   -6.3702   -0.5398   -0.0222 H   0  0  0  0  0  0  0  0  0  0  0  0
   -5.7714    2.7799    0.3138 C   0  0  0  0  0  0  0  0  0  0  0  0
   -5.1746    3.3905   -0.3948 H   0  0  0  0  0  0  0  0  0  0  0  0
   -5.5581    3.1399    1.3460 H   0  0  0  0  0  0  0  0  0  0  0  0
   -6.8413    2.9593    0.1040 H   0  0  0  0  0  0  0  0  0  0  0  0
  2 15  1  0  0  0  0
  3 11  1  0  0  0  0
  4 12  1  0  0  0  0
  4 21  1  0  0  0  0
  5 11  1  0  0  0  0
  5  2  1  0  0  0  0
  6  1  1  0  0  0  0
  6  5  2  0  0  0  0
  7  6  1  0  0  0  0
  8  7  1  0  0  0  0
  9  7  2  0  0  0  0
  9  3  1  0  0  0  0
 10  9  1  0  0  0  0
 11 12  2  0  0  0  0
 12 13  1  0  0  0  0
 13 14  1  0  0  0  0
 15 13  2  0  0  0  0
 15 16  1  0  0  0  0
 17  4  1  0  0  0  0
 17 19  1  0  0  0  0
 18 17  1  0  0  0  0
 20 17  1  0  0  0  0
 21 23  1  0  0  0  0
 22 21  1  0  0  0  0
 24 21  1  0  0  0  0
M  CHG  1   1  -1
M  END
