1,3
q = -1.0, confidence = 0.024

 37 41  0  0  0  0  0  0  0  0999 V2000
   -1.2520   -2.4297   -0.4878 O   0  5  0  0  0  0  0  0  0  0  0  0
    6.9594    0.5193   -0.0012 O   0  0  0  0  0  0  0  0  0  0  0  0
   -0.1056   -0.0324   -0.0556 N   0  0  0  0  0  2  0  0  0  0  0  0
    2.9175   -2.1745   -0.2927 N   0  0  0  0  0  2  0  0  0  0  0  0
    4.1268    0.3757    0.0017 N   0  0  0  0  0  0  0  0  0  0  0  0
    0.4799    1.1753   -0.0044 C   0  0  0  0  0  0  0  0  0  0  0  0
   -0.1855    2.0460    0.0337 H   0  0  0  0  0  0  0  0  0  0  0  0
    1.8761    1.3391    0.0131 C   0  0  0  0  0  0  0  0  0  0  0  0
    2.2936    2.3525    0.0851 H   0  0  0  0  0  0  0  0  0  0  0  0
    2.7270    0.2302   -0.0292 C   0  0  0  0  0  0  0  0  0  0  0  0
    2.2896   -3.3434   -0.4619 C   0  0  0  0  0  0  0  0  0  0  0  0
    2.9458   -4.2264   -0.5706 H   0  0  0  0  0  0  0  0  0  0  0  0
    0.8948   -3.5277   -0.5284 C   0  0  0  0  0  0  0  0  0  0  0  0
    0.4599   -4.5231   -0.6972 H   0  0  0  0  0  0  0  0  0  0  0  0
    0.0441   -2.4077   -0.3990 C   0  0  0  0  0  0  0  0  0  0  0  0
    0.7066   -1.1428   -0.1730 C   0  0  0  0  0  0  0  0  0  0  0  0
    2.1355   -1.0787   -0.1552 C   0  0  0  0  0  0  0  0  0  0  0  0
    4.1549    1.6997   -2.1023 C   0  0  0  0  0  0  0  0  0  0  0  0
    3.0639    1.6215   -2.1906 H   0  0  0  0  0  0  0  0  0  0  0  0
    4.8778    2.3884   -3.0897 C   0  0  0  0  0  0  0  0  0  0  0  0
    4.3338    2.8521   -3.9254 H   0  0  0  0  0  0  0  0  0  0  0  0
    6.2735    2.4736   -3.0154 C   0  0  0  0  0  0  0  0  0  0  0  0
    6.8465    3.0142   -3.7824 H   0  0  0  0  0  0  0  0  0  0  0  0
    6.9426    1.8441   -1.9546 C   0  0  0  0  0  0  0  0  0  0  0  0
    8.0383    1.8616   -1.8662 H   0  0  0  0  0  0  0  0  0  0  0  0
    7.0721   -0.6926    2.0269 C   0  0  0  0  0  0  0  0  0  0  0  0
    8.1644   -0.6015    1.9426 H   0  0  0  0  0  0  0  0  0  0  0  0
    6.4614   -1.3376    3.1129 C   0  0  0  0  0  0  0  0  0  0  0  0
    7.0803   -1.7793    3.9071 H   0  0  0  0  0  0  0  0  0  0  0  0
    5.0627   -1.3955    3.1788 C   0  0  0  0  0  0  0  0  0  0  0  0
    4.5642   -1.8786    4.0318 H   0  0  0  0  0  0  0  0  0  0  0  0
    4.2811   -0.8329    2.1591 C   0  0  0  0  0  0  0  0  0  0  0  0
    3.1865   -0.8738    2.2280 H   0  0  0  0  0  0  0  0  0  0  0  0
    4.8077    1.0922   -1.0117 C   0  0  0  0  0  0  0  0  0  0  0  0
    6.2244    1.1532   -0.9730 C   0  0  0  0  0  0  0  0  0  0  0  0
    6.2908   -0.1331    1.0105 C   0  0  0  0  0  0  0  0  0  0  0  0
    4.8796   -0.2191    1.0432 C   0  0  0  0  0  0  0  0  0  0  0  0
  1 15  1  0  0  0  0
  2 36  1  0  0  0  0
  3  6  1  0  0  0  0
  4 17  1  0  0  0  0
  5 37  1  0  0  0  0
  6  8  2  0  0  0  0
  6  7  1  0  0  0  0
  8  9  1  0  0  0  0
 10  5  1  0  0  0  0
 10  8  1  0  0  0  0
 11  4  1  0  0  0  0
 12 11  1  0  0  0  0
 13 11  2  0  0  0  0
 13 15  1  0  0  0  0
 14 13  1  0  0  0  0
 15 16  2  0  0  0  0
 16 17  1  0  0  0  0
 16  3  1  0  0  0  0
 17 10  2  0  0  0  0
 18 34  1  0  0  0  0
 19 18  1  0  0  0  0
 20 22  1  0  0  0  0
 20 18  2  0  0  0  0
 21 20  1  0  0  0  0
 22 24  2  0  0  0  0
 23 22  1  0  0  0  0
 24 25  1  0  0  0  0
 24 35  1  0  0  0  0
 26 28  1  0  0  0  0
 27 26  1  0  0  0  0
 28 30  2  0  0  0  0
 28 29  1  0  0  0  0
 30 31  1  0  0  0  0
 32 33  1  0  0  0  0
 32 30  1  0  0  0  0
 34 35  2  0  0  0  0
 34  5  1  0  0  0  0
 35  2  1  0  0  0  0
 36 37  1  0  0  0  0
 36 26  2  0  0  0  0
 37 32  2  0  0  0  0
M  CHG  1   1  -1
M  END
