1,16
q = -1.0, confidence = 0.01

 33 35  0  0  1  0  0  0  0  0999 V2000
    1.0047   -2.0601   -1.2857 O   0  5  0  0  0  0  0  0  0  0  0  0
    1.1770   -2.7180   -0.1565 C   0  0  0  0  0  0  0  0  0  0  0  0
    0.3100   -2.6742    0.9910 C   0  0  0  0  0  0  0  0  0  0  0  0
   -0.8580   -1.8210    1.0387 C   0  0  1  0  0  3  0  0  0  0  0  0
   -2.5559   -0.3662    0.5861 C   0  0  2  0  0  0  0  0  0  0  0  0
   -2.4425    0.7078    0.3406 H   0  0  0  0  0  0  0  0  0  0  0  0
   -1.5059   -1.7238    2.2113 O   0  0  0  0  0  0  0  0  0  0  0  0
   -3.8377   -0.8919   -0.0883 C   0  0  0  0  0  0  0  0  0  0  0  0
   -3.6762   -0.8395   -1.1836 H   0  0  0  0  0  0  0  0  0  0  0  0
   -3.9798   -1.9602    0.1778 H   0  0  0  0  0  0  0  0  0  0  0  0
   -5.0423   -0.0707    0.3026 C   0  0  0  0  0  0  0  0  0  0  0  0
   -5.9988   -0.5514    1.2186 C   0  0  0  0  0  0  0  0  0  0  0  0
   -5.8964   -1.5723    1.6214 H   0  0  0  0  0  0  0  0  0  0  0  0
    0.6343   -3.4353    2.1485 C   0  0  0  0  0  0  0  0  0  0  0  0
   -0.0496   -3.3835    3.0070 H   0  0  0  0  0  0  0  0  0  0  0  0
   -1.3579   -1.0746    0.0716 N   0  0  0  0  0  2  0  0  0  0  0  0
   -2.4653   -0.6340    2.0961 C   0  0  0  0  0  0  0  0  0  0  0  0
   -2.0550    0.2209    2.6718 H   0  0  0  0  0  0  0  0  0  0  0  0
   -3.4191   -0.9625    2.5507 H   0  0  0  0  0  0  0  0  0  0  0  0
   -5.1988    1.2324   -0.2183 C   0  0  0  0  0  0  0  0  0  0  0  0
   -4.4555    1.6094   -0.9398 H   0  0  0  0  0  0  0  0  0  0  0  0
   -6.2841    2.0299    0.1697 C   0  0  0  0  0  0  0  0  0  0  0  0
   -6.3957    3.0413   -0.2506 H   0  0  0  0  0  0  0  0  0  0  0  0
   -7.2317    1.5404    1.0849 C   0  0  0  0  0  0  0  0  0  0  0  0
   -8.0857    2.1663    1.3856 H   0  0  0  0  0  0  0  0  0  0  0  0
   -7.0875    0.2464    1.6072 C   0  0  0  0  0  0  0  0  0  0  0  0
   -7.8294   -0.1483    2.3184 H   0  0  0  0  0  0  0  0  0  0  0  0
    1.7834   -4.2153    2.2050 C   0  0  0  0  0  0  0  0  0  0  0  0
    2.0150   -4.7994    3.1072 H   0  0  0  0  0  0  0  0  0  0  0  0
    2.6492   -4.2450    1.0868 C   0  0  0  0  0  0  0  0  0  0  0  0
    3.5695   -4.8486    1.1213 H   0  0  0  0  0  0  0  0  0  0  0  0
    2.3536   -3.5170   -0.0601 C   0  0  0  0  0  0  0  0  0  0  0  0
    3.0162   -3.5240   -0.9367 H   0  0  0  0  0  0  0  0  0  0  0  0
  1  2  1  0  0  0  0
  2 32  2  0  0  0  0
  2  3  1  0  0  0  0
  3 14  2  0  0  0  0
  4  3  1  1  0  0  0
  4  7  1  0  0  0  0
  5  6  1  6  0  0  0
  5 17  1  0  0  0  0
  8 10  1  0  0  0  0
  8 11  1  0  0  0  0
  8  5  1  0  0  0  0
  9  8  1  0  0  0  0
 11 12  1  0  0  0  0
 12 26  2  0  0  0  0
 12 13  1  0  0  0  0
 14 28  1  0  0  0  0
 14 15  1  0  0  0  0
 16  5  1  0  0  0  0
 16  4  1  0  0  0  0
 17  7  1  0  0  0  0
 17 19  1  0  0  0  0
 17 18  1  0  0  0  0
 20 22  1  0  0  0  0
 20 11  2  0  0  0  0
 21 20  1  0  0  0  0
 22 24  2  0  0  0  0
 23 22  1  0  0  0  0
 24 25  1  0  0  0  0
 24 26  1  0  0  0  0
 26 27  1  0  0  0  0
 28 29  1  0  0  0  0
 30 31  1  0  0  0  0
 30 28  2  0  0  0  0
 32 30  1  0  0  0  0
 33 32  1  0  0  0  0
M  CHG  1   1  -1
M  END
