1,2
q = 0.0, confidence = 0.938

 30 31  0  0  0  0  0  0  0  0999 V2000
   -0.8006    1.3107   -0.1380 O   0  5  0  0  0  0  0  0  0  0  0  0
   -0.8657   -1.1590   -0.0819 N   0  0  0  0  0  2  0  0  0  0  0  0
   -1.0556   -2.6007    0.0445 C   0  0  0  0  0  0  0  0  0  0  0  0
    0.3866   -0.6475   -0.0908 C   0  0  0  0  0  0  0  0  0  0  0  0
    0.3862    0.7787   -0.1338 C   0  0  0  0  0  0  0  0  0  0  0  0
    1.5499    1.6846   -0.1461 C   0  0  0  0  0  0  0  0  0  0  0  0
    1.3658    3.0122    0.3122 C   0  0  0  0  0  0  0  0  0  0  0  0
    2.4276    3.9225    0.3101 C   0  0  0  0  0  0  0  0  0  0  0  0
    3.6937    3.5322   -0.1588 C   0  0  0  0  0  0  0  0  0  0  0  0
    3.8830    2.2248   -0.6351 C   0  0  0  0  0  0  0  0  0  0  0  0
    2.8251    1.3067   -0.6320 C   0  0  0  0  0  0  0  0  0  0  0  0
    1.5975   -1.5027    0.0161 C   0  0  0  0  0  0  0  0  0  0  0  0
    2.4086   -1.4365    1.1701 C   0  0  0  0  0  0  0  0  0  0  0  0
    3.5613   -2.2270    1.2738 C   0  0  0  0  0  0  0  0  0  0  0  0
    3.9192   -3.0940    0.2286 C   0  0  0  0  0  0  0  0  0  0  0  0
    3.1167   -3.1700   -0.9212 C   0  0  0  0  0  0  0  0  0  0  0  0
    1.9621   -2.3814   -1.0271 C   0  0  0  0  0  0  0  0  0  0  0  0
   -2.0419   -2.8054    0.4972 H   0  0  0  0  0  0  0  0  0  0  0  0
   -0.2654   -3.0659    0.6673 H   0  0  0  0  0  0  0  0  0  0  0  0
   -1.0326   -3.0913   -0.9516 H   0  0  0  0  0  0  0  0  0  0  0  0
    0.3690    3.3078    0.6689 H   0  0  0  0  0  0  0  0  0  0  0  0
    2.2678    4.9476    0.6779 H   0  0  0  0  0  0  0  0  0  0  0  0
    4.5294    4.2483   -0.1603 H   0  0  0  0  0  0  0  0  0  0  0  0
    4.8658    1.9159   -1.0225 H   0  0  0  0  0  0  0  0  0  0  0  0
    2.9865    0.2968   -1.0309 H   0  0  0  0  0  0  0  0  0  0  0  0
    2.1297   -0.7502    1.9836 H   0  0  0  0  0  0  0  0  0  0  0  0
    4.1858   -2.1649    2.1778 H   0  0  0  0  0  0  0  0  0  0  0  0
    4.8261   -3.7121    0.3101 H   0  0  0  0  0  0  0  0  0  0  0  0
    3.3946   -3.8451   -1.7447 H   0  0  0  0  0  0  0  0  0  0  0  0
    1.3421   -2.4292   -1.9352 H   0  0  0  0  0  0  0  0  0  0  0  0
  1  5  1  0  0  0  0
  2  3  1  0  0  0  0
  3 18  1  0  0  0  0
  3 19  1  0  0  0  0
  4  2  1  0  0  0  0
  4 12  1  0  0  0  0
  5  4  2  0  0  0  0
  6  5  1  0  0  0  0
  6  7  1  0  0  0  0
  7 21  1  0  0  0  0
  8  7  2  0  0  0  0
  8 22  1  0  0  0  0
  9  8  1  0  0  0  0
 10 11  1  0  0  0  0
 10  9  2  0  0  0  0
 11  6  2  0  0  0  0
 12 13  1  0  0  0  0
 13 14  2  0  0  0  0
 13 26  1  0  0  0  0
 14 27  1  0  0  0  0
 15 28  1  0  0  0  0
 15 14  1  0  0  0  0
 16 15  2  0  0  0  0
 17 16  1  0  0  0  0
 17 12  2  0  0  0  0
 20  3  1  0  0  0  0
 23  9  1  0  0  0  0
 24 10  1  0  0  0  0
 25 11  1  0  0  0  0
 29 16  1  0  0  0  0
 30 17  1  0  0  0  0
M  CHG  1   1  -1
M  END
