4,7
q = 0.0, confidence = 0.976

 29 30  0  0  1  0  0  0  0  0999 V2000
   -0.8155    3.4860   -0.9186 S   0  0  0  0  0  0  0  0  0  0  0  0
    2.1196    4.0316   -0.6059 S   0  0  0  0  0  0  0  0  0  0  0  0
    5.0202    1.5307   -0.8018 O   0  0  0  0  0  0  0  0  0  0  0  0
    1.7204   -0.7600    0.3140 O   0  0  0  0  0  1  0  0  0  0  0  0
    2.3751    1.1711   -0.6175 N   0  0  0  0  0  0  0  0  0  0  0  0
    3.0813    1.9177   -0.7403 H   0  0  0  0  0  0  0  0  0  0  0  0
    1.0475    1.5218   -0.6135 N   0  0  0  0  0  2  0  0  0  0  0  0
    5.2098    0.2738   -0.3037 C   0  0  0  0  0  0  0  0  0  0  0  0
    6.4999   -0.2606   -0.1393 C   0  0  0  0  0  0  0  0  0  0  0  0
    7.3727    0.3497   -0.4243 H   0  0  0  0  0  0  0  0  0  0  0  0
    6.6746   -1.5487    0.3819 C   0  0  0  0  0  0  0  0  0  0  0  0
    7.6923   -1.9488    0.5041 H   0  0  0  0  0  0  0  0  0  0  0  0
    5.5564   -2.3191    0.7469 C   0  0  0  0  0  0  0  0  0  0  0  0
    5.6889   -3.3293    1.1604 H   0  0  0  0  0  0  0  0  0  0  0  0
    4.2737   -1.7925    0.5842 C   0  0  0  0  0  0  0  0  0  0  0  0
    3.3732   -2.3621    0.8608 H   0  0  0  0  0  0  0  0  0  0  0  0
    4.0702   -0.4961    0.0552 C   0  0  0  0  0  0  0  0  0  0  0  0
    2.6771   -0.0392   -0.0734 C   0  0  2  0  0  3  0  0  0  0  0  0
    0.7987    2.8117   -0.7626 C   0  0  0  0  0  3  0  0  0  0  0  0
   -0.9205    4.2306    0.7742 C   0  0  0  0  0  0  0  0  0  0  0  0
   -1.9004    4.7494    0.7831 H   0  0  0  0  0  0  0  0  0  0  0  0
   -0.9506    3.3656    1.4725 H   0  0  0  0  0  0  0  0  0  0  0  0
    0.2174    5.1907    1.1152 C   0  0  0  0  0  0  0  0  0  0  0  0
    0.0344    5.5751    2.1444 H   0  0  0  0  0  0  0  0  0  0  0  0
    0.2064    6.0663    0.4318 H   0  0  0  0  0  0  0  0  0  0  0  0
    1.6031    4.5437    1.1032 C   0  0  0  0  0  0  0  0  0  0  0  0
    1.6286    3.6336    1.7387 H   0  0  0  0  0  0  0  0  0  0  0  0
    2.3894    5.2498    1.4378 H   0  0  0  0  0  0  0  0  0  0  0  0
    5.8839    1.9469   -0.9779 H   0  0  0  0  0  0  0  0  0  0  0  0
  1 19  1  0  0  0  0
  1 20  1  0  0  0  0
  2 26  1  0  0  0  0
  3  8  1  0  0  0  0
  5  7  1  0  0  0  0
  5 18  1  0  0  0  0
  6  5  1  0  0  0  0
  8  9  2  0  0  0  0
  8 17  1  0  0  0  0
  9 11  1  0  0  0  0
 10  9  1  0  0  0  0
 11 12  1  0  0  0  0
 11 13  2  0  0  0  0
 13 14  1  0  0  0  0
 15 13  1  0  0  0  0
 15 16  1  0  0  0  0
 17 15  2  0  0  0  0
 18 17  1  0  0  0  0
 18  4  1  6  0  0  0
 19  7  1  0  0  0  0
 19  2  1  0  0  0  0
 20 21  1  0  0  0  0
 20 23  1  0  0  0  0
 20 22  1  0  0  0  0
 23 24  1  0  0  0  0
 25 23  1  0  0  0  0
 26 23  1  0  0  0  0
 26 28  1  0  0  0  0
 26 27  1  0  0  0  0
 29  3  1  0  0  0  0
M  END
