1,2
q = -1.0

 33 34  0  0  0  0  0  0  0  0999 V2000
   -1.5329   -0.9357    2.4509 O   0  5  0  0  0  0  0  0  0  0  0  0
    0.2746   -1.6466    0.2024 N   0  0  0  0  0  2  0  0  0  0  0  0
    4.9748   -1.4492   -2.9538 N   0  0  0  0  0  0  0  0  0  0  0  0
   -2.1558   -2.0152    2.0718 C   0  0  0  0  0  0  0  0  0  0  0  0
   -3.3184   -2.4212    2.8018 C   0  0  0  0  0  0  0  0  0  0  0  0
   -3.5973   -1.7959    3.6627 H   0  0  0  0  0  0  0  0  0  0  0  0
   -4.0632   -3.5380    2.4436 C   0  0  0  0  0  0  0  0  0  0  0  0
   -4.9536   -3.8069    3.0341 H   0  0  0  0  0  0  0  0  0  0  0  0
   -3.6918   -4.3335    1.3316 C   0  0  0  0  0  0  0  0  0  0  0  0
   -4.2830   -5.2174    1.0523 H   0  0  0  0  0  0  0  0  0  0  0  0
   -2.5618   -3.9796    0.6078 C   0  0  0  0  0  0  0  0  0  0  0  0
   -2.2480   -4.5909   -0.2547 H   0  0  0  0  0  0  0  0  0  0  0  0
   -1.7671   -2.8405    0.9387 C   0  0  0  0  0  0  0  0  0  0  0  0
   -0.6041   -2.6229    0.1226 C   0  0  0  0  0  3  0  0  0  0  0  0
   -0.4479   -3.3888   -0.6664 H   0  0  0  0  0  0  0  0  0  0  0  0
    1.4394   -1.6429   -0.5938 C   0  0  0  0  0  0  0  0  0  0  0  0
    2.0821   -0.4128   -0.8568 C   0  0  0  0  0  0  0  0  0  0  0  0
    1.6564    0.5137   -0.4472 H   0  0  0  0  0  0  0  0  0  0  0  0
    3.2383   -0.3403   -1.6307 C   0  0  0  0  0  0  0  0  0  0  0  0
    3.6908    0.6451   -1.7977 H   0  0  0  0  0  0  0  0  0  0  0  0
    3.8278   -1.5124   -2.1837 C   0  0  0  0  0  0  0  0  0  0  0  0
    3.1964   -2.7549   -1.8896 C   0  0  0  0  0  0  0  0  0  0  0  0
    3.6326   -3.6963   -2.2470 H   0  0  0  0  0  0  0  0  0  0  0  0
    2.0365   -2.8132   -1.1158 C   0  0  0  0  0  0  0  0  0  0  0  0
    1.6129   -3.8002   -0.8784 H   0  0  0  0  0  0  0  0  0  0  0  0
    5.6431   -0.1792   -3.1480 C   0  0  0  0  0  0  0  0  0  0  0  0
    4.9830    0.5647   -3.6478 H   0  0  0  0  0  0  0  0  0  0  0  0
    6.5294   -0.3262   -3.7914 H   0  0  0  0  0  0  0  0  0  0  0  0
    5.9867    0.2724   -2.1886 H   0  0  0  0  0  0  0  0  0  0  0  0
    5.5778   -2.6662   -3.4543 C   0  0  0  0  0  0  0  0  0  0  0  0
    4.8697   -3.2488   -4.0850 H   0  0  0  0  0  0  0  0  0  0  0  0
    5.9275   -3.3397   -2.6370 H   0  0  0  0  0  0  0  0  0  0  0  0
    6.4518   -2.4117   -4.0807 H   0  0  0  0  0  0  0  0  0  0  0  0
  3 21  1  0  0  0  0
  4  1  1  0  0  0  0
  4  5  1  0  0  0  0
  5  6  1  0  0  0  0
  7  5  2  0  0  0  0
  7  8  1  0  0  0  0
  9  7  1  0  0  0  0
 10  9  1  0  0  0  0
 11 13  1  0  0  0  0
 11  9  2  0  0  0  0
 12 11  1  0  0  0  0
 13  4  2  0  0  0  0
 14  2  1  0  0  0  0
 14 13  1  0  0  0  0
 15 14  1  0  0  0  0
 16  2  1  0  0  0  0
 17 16  1  0  0  0  0
 17 18  1  0  0  0  0
 19 17  2  0  0  0  0
 20 19  1  0  0  0  0
 21 22  2  0  0  0  0
 21 19  1  0  0  0  0
 22 24  1  0  0  0  0
 23 22  1  0  0  0  0
 24 25  1  0  0  0  0
 24 16  2  0  0  0  0
 26  3  1  0  0  0  0
 26 29  1  0  0  0  0
 27 26  1  0  0  0  0
 28 26  1  0  0  0  0
 30  3  1  0  0  0  0
 30 32  1  0  0  0  0
 31 30  1  0  0  0  0
 33 30  1  0  0  0  0
M  CHG  1   1  -1
M  END
