1,2
q = -1.0

 30 29  0  0  1  0  0  0  0  0999 V2000
    0.0954   -1.4878   -1.7248 O   0  5  0  0  0  0  0  0  0  0  0  0
    1.7944   -0.2418    0.3774 N   0  0  0  0  0  2  0  0  0  0  0  0
    0.5616   -3.7490   -2.2324 C   0  0  0  0  0  0  0  0  0  0  0  0
    0.6514   -3.4991   -3.3092 H   0  0  0  0  0  0  0  0  0  0  0  0
   -0.4867   -4.0789   -2.0728 H   0  0  0  0  0  0  0  0  0  0  0  0
    1.2438   -4.5847   -1.9908 H   0  0  0  0  0  0  0  0  0  0  0  0
    0.8244   -2.5051   -1.4103 C   0  0  0  0  0  0  0  0  0  0  0  0
    1.8013   -2.5473   -0.3979 C   0  0  0  0  0  0  0  0  0  0  0  0
    2.3076   -3.5122   -0.2611 H   0  0  0  0  0  0  0  0  0  0  0  0
    2.3162   -1.4639    0.3844 C   0  0  1  0  0  3  0  0  0  0  0  0
    3.5370   -1.7876    1.2287 C   0  0  0  0  0  0  0  0  0  0  0  0
    4.4419   -1.2807    0.8370 H   0  0  0  0  0  0  0  0  0  0  0  0
    3.7316   -2.8749    1.2277 H   0  0  0  0  0  0  0  0  0  0  0  0
    3.4046   -1.4569    2.2784 H   0  0  0  0  0  0  0  0  0  0  0  0
    2.4641    0.9051    0.9994 C   0  0  0  0  0  0  0  0  0  0  0  0
    3.2972    0.5590    1.6503 H   0  0  0  0  0  0  0  0  0  0  0  0
    3.0693    1.8095   -0.0968 C   0  0  0  0  0  0  0  0  0  0  0  0
    2.2397    2.1607   -0.7467 H   0  0  0  0  0  0  0  0  0  0  0  0
    3.4936    2.7082    0.4015 H   0  0  0  0  0  0  0  0  0  0  0  0
    4.1377    1.1307   -0.9515 C   0  0  0  0  0  0  0  0  0  0  0  0
    4.5153    1.8155   -1.7370 H   0  0  0  0  0  0  0  0  0  0  0  0
    3.7310    0.2346   -1.4631 H   0  0  0  0  0  0  0  0  0  0  0  0
    5.0107    0.8097   -0.3445 H   0  0  0  0  0  0  0  0  0  0  0  0
    1.4781    1.6796    1.8900 C   0  0  0  0  0  0  0  0  0  0  0  0
    1.9689    2.6226    2.2124 H   0  0  0  0  0  0  0  0  0  0  0  0
    0.6040    1.9903    1.2757 H   0  0  0  0  0  0  0  0  0  0  0  0
    1.0095    0.8879    3.1079 C   0  0  0  0  0  0  0  0  0  0  0  0
    0.2506    1.4464    3.6917 H   0  0  0  0  0  0  0  0  0  0  0  0
    1.8543    0.6538    3.7892 H   0  0  0  0  0  0  0  0  0  0  0  0
    0.5543   -0.0733    2.7974 H   0  0  0  0  0  0  0  0  0  0  0  0
  1  7  1  0  0  0  0
  2 10  1  0  0  0  0
  2 15  1  0  0  0  0
  3  5  1  0  0  0  0
  3  6  1  0  0  0  0
  3  7  1  0  0  0  0
  4  3  1  0  0  0  0
  7  8  2  0  0  0  0
  8  9  1  0  0  0  0
 10  8  1  6  0  0  0
 10 11  1  0  0  0  0
 11 14  1  0  0  0  0
 12 11  1  0  0  0  0
 13 11  1  0  0  0  0
 15 16  1  0  0  0  0
 15 24  1  0  0  0  0
 17 19  1  0  0  0  0
 17 15  1  0  0  0  0
 18 17  1  0  0  0  0
 20 23  1  0  0  0  0
 20 17  1  0  0  0  0
 21 20  1  0  0  0  0
 22 20  1  0  0  0  0
 24 25  1  0  0  0  0
 24 27  1  0  0  0  0
 26 24  1  0  0  0  0
 27 28  1  0  0  0  0
 27 29  1  0  0  0  0
 30 27  1  0  0  0  0
M  CHG  1   1  -1
M  END
