2,3
q = 0.0, confidence = 0.99

 36 36  0  0  0  0  0  0  0  0999 V2000
    6.1553    0.8949   -0.0434 Br  0  0  0  0  0  0  0  0  0  0  0  0
    0.8349   -2.0127    0.1195 O   0  5  0  0  0  0  0  0  0  0  0  0
   -0.2708    0.3785   -1.2332 N   0  0  0  0  0  2  0  0  0  0  0  0
   -2.9134    1.5674   -0.2652 N   0  3  0  0  0  0  0  0  0  0  0  0
    2.0646   -0.0051   -0.5167 C   0  0  0  0  0  0  0  0  0  0  0  0
    1.9372   -1.3437    0.0464 C   0  0  0  0  0  0  0  0  0  0  0  0
    3.1455   -1.9517    0.5302 C   0  0  0  0  0  0  0  0  0  0  0  0
    3.0523   -2.9669    0.9421 H   0  0  0  0  0  0  0  0  0  0  0  0
    4.3677   -1.3001    0.5092 C   0  0  0  0  0  0  0  0  0  0  0  0
    5.2678   -1.7938    0.9044 H   0  0  0  0  0  0  0  0  0  0  0  0
    4.4657    0.0122   -0.0224 C   0  0  0  0  0  0  0  0  0  0  0  0
    3.3402    0.6382   -0.5303 C   0  0  0  0  0  0  0  0  0  0  0  0
    3.4206    1.6484   -0.9604 H   0  0  0  0  0  0  0  0  0  0  0  0
    0.9943    0.7132   -1.1456 C   0  0  0  0  0  3  0  0  0  0  0  0
    1.3060    1.6661   -1.6340 H   0  0  0  0  0  0  0  0  0  0  0  0
   -1.1253    1.2181   -2.0586 C   0  0  0  0  0  0  0  0  0  0  0  0
   -1.0945    0.8579   -3.1131 H   0  0  0  0  0  0  0  0  0  0  0  0
   -0.7490    2.2687   -2.0884 H   0  0  0  0  0  0  0  0  0  0  0  0
   -2.5956    1.1482   -1.6708 C   0  0  0  0  0  0  0  0  0  0  0  0
   -3.2019    1.7700   -2.3587 H   0  0  0  0  0  0  0  0  0  0  0  0
   -2.9392    0.0941   -1.7504 H   0  0  0  0  0  0  0  0  0  0  0  0
   -2.5142    2.9726    0.0761 C   0  0  0  0  0  0  0  0  0  0  0  0
   -1.4223    3.0299   -0.0972 H   0  0  0  0  0  0  0  0  0  0  0  0
   -2.6485    3.0685    1.1701 H   0  0  0  0  0  0  0  0  0  0  0  0
   -3.2659    4.0512   -0.6850 C   0  0  0  0  0  0  0  0  0  0  0  0
   -3.1034    3.9925   -1.7795 H   0  0  0  0  0  0  0  0  0  0  0  0
   -2.9033    5.0435   -0.3536 H   0  0  0  0  0  0  0  0  0  0  0  0
   -4.3566    4.0188   -0.4927 H   0  0  0  0  0  0  0  0  0  0  0  0
   -4.3450    1.2033    0.0498 C   0  0  0  0  0  0  0  0  0  0  0  0
   -4.9860    1.6950   -0.7104 H   0  0  0  0  0  0  0  0  0  0  0  0
   -4.3885    0.1070   -0.1207 H   0  0  0  0  0  0  0  0  0  0  0  0
   -4.7692    1.5409    1.4686 C   0  0  0  0  0  0  0  0  0  0  0  0
   -4.0693    1.0935    2.2024 H   0  0  0  0  0  0  0  0  0  0  0  0
   -5.7713    1.1046    1.6461 H   0  0  0  0  0  0  0  0  0  0  0  0
   -4.8453    2.6307    1.6533 H   0  0  0  0  0  0  0  0  0  0  0  0
   -2.3217    0.9690    0.4252 H   0  0  0  0  0  0  0  0  0  0  0  0
  1 11  1  0  0  0  0
  3 14  1  0  0  0  0
  4 29  1  0  0  0  0
  4 22  1  0  0  0  0
  4 36  1  0  0  0  0
  5  6  1  0  0  0  0
  6  2  1  0  0  0  0
  6  7  2  0  0  0  0
  7  8  1  0  0  0  0
  9  7  1  0  0  0  0
  9 10  1  0  0  0  0
 11  9  2  0  0  0  0
 12  5  2  0  0  0  0
 12 11  1  0  0  0  0
 13 12  1  0  0  0  0
 14  5  1  0  0  0  0
 15 14  1  0  0  0  0
 16 19  1  0  0  0  0
 16  3  1  0  0  0  0
 17 16  1  0  0  0  0
 18 16  1  0  0  0  0
 19  4  1  0  0  0  0
 20 19  1  0  0  0  0
 21 19  1  0  0  0  0
 22 24  1  0  0  0  0
 23 22  1  0  0  0  0
 25 28  1  0  0  0  0
 25 27  1  0  0  0  0
 25 22  1  0  0  0  0
 26 25  1  0  0  0  0
 29 32  1  0  0  0  0
 30 29  1  0  0  0  0
 31 29  1  0  0  0  0
 32 34  1  0  0  0  0
 32 35  1  0  0  0  0
 32 33  1  0  0  0  0
M  CHG  2   2  -1   4   1
M  END
