1,4
q = -1.0

 37 37  0  0  1  0  0  0  0  0999 V2000
    1.3634    0.1256   -1.2680 O   0  0  0  0  0  1  0  0  0  0  0  0
    7.2050   -1.3451    0.4863 O   0  0  0  0  0  0  0  0  0  0  0  0
    7.6011   -0.1975   -1.3349 O   0  0  0  0  0  0  0  0  0  0  0  0
    0.9016   -1.3960    0.9548 N   0  0  0  0  0  2  0  0  0  0  0  0
   -0.7600   -3.7689    0.0791 N   0  0  0  0  0  0  0  0  0  0  0  0
    6.8409   -0.6989   -0.5007 N   0  0  0  0  0  0  0  0  0  0  0  0
    3.1184   -0.8688    0.0466 C   0  0  0  0  0  0  0  0  0  0  0  0
    2.6221   -0.1156   -1.0775 C   0  0  1  0  0  3  0  0  0  0  0  0
    3.5777    0.3728   -2.0282 C   0  0  0  0  0  0  0  0  0  0  0  0
    3.1948    0.9055   -2.9107 H   0  0  0  0  0  0  0  0  0  0  0  0
    4.9388    0.1921   -1.8369 C   0  0  0  0  0  0  0  0  0  0  0  0
    5.6825    0.5816   -2.5454 H   0  0  0  0  0  0  0  0  0  0  0  0
    5.3996   -0.5125   -0.7004 C   0  0  0  0  0  0  0  0  0  0  0  0
    4.5055   -1.0509    0.2212 C   0  0  0  0  0  0  0  0  0  0  0  0
    4.9016   -1.6119    1.0793 H   0  0  0  0  0  0  0  0  0  0  0  0
    2.2040   -1.5216    0.9401 C   0  0  0  0  0  0  0  0  0  0  0  0
    2.6609   -2.2310    1.6575 H   0  0  0  0  0  0  0  0  0  0  0  0
    0.1945   -2.2507    1.9150 C   0  0  0  0  0  0  0  0  0  0  0  0
    0.9362   -2.9267    2.3907 H   0  0  0  0  0  0  0  0  0  0  0  0
   -0.2190   -1.6047    2.7151 H   0  0  0  0  0  0  0  0  0  0  0  0
   -0.9800   -3.0581    1.3558 C   0  0  0  0  0  0  0  0  0  0  0  0
   -1.8406   -2.3856    1.1865 H   0  0  0  0  0  0  0  0  0  0  0  0
   -1.2899   -3.7728    2.1553 H   0  0  0  0  0  0  0  0  0  0  0  0
    0.4922   -4.5519   -0.0018 C   0  0  0  0  0  0  0  0  0  0  0  0
    1.3318   -3.8458    0.1425 H   0  0  0  0  0  0  0  0  0  0  0  0
    0.5868   -4.9071   -1.0469 H   0  0  0  0  0  0  0  0  0  0  0  0
    0.6088   -5.7276    0.9685 C   0  0  0  0  0  0  0  0  0  0  0  0
   -0.1771   -6.4908    0.7991 H   0  0  0  0  0  0  0  0  0  0  0  0
    1.5882   -6.2278    0.8342 H   0  0  0  0  0  0  0  0  0  0  0  0
    0.5456   -5.4059    2.0278 H   0  0  0  0  0  0  0  0  0  0  0  0
   -1.9844   -4.5363   -0.2625 C   0  0  0  0  0  0  0  0  0  0  0  0
   -2.8154   -3.8001   -0.2489 H   0  0  0  0  0  0  0  0  0  0  0  0
   -2.2103   -5.2754    0.5418 H   0  0  0  0  0  0  0  0  0  0  0  0
   -1.9335   -5.2203   -1.6229 C   0  0  0  0  0  0  0  0  0  0  0  0
   -1.2168   -6.0647   -1.6509 H   0  0  0  0  0  0  0  0  0  0  0  0
   -2.9333   -5.6312   -1.8631 H   0  0  0  0  0  0  0  0  0  0  0  0
   -1.6641   -4.5038   -2.4241 H   0  0  0  0  0  0  0  0  0  0  0  0
  3  6  2  0  0  0  0
  4 18  1  0  0  0  0
  5 21  1  0  0  0  0
  6  2  2  0  0  0  0
  7 14  1  0  0  0  0
  7 16  2  0  0  0  0
  8  1  1  6  0  0  0
  8  7  1  0  0  0  0
  9 11  2  0  0  0  0
  9  8  1  0  0  0  0
 10  9  1  0  0  0  0
 11 13  1  0  0  0  0
 12 11  1  0  0  0  0
 13  6  1  0  0  0  0
 13 14  2  0  0  0  0
 14 15  1  0  0  0  0
 16  4  1  0  0  0  0
 16 17  1  0  0  0  0
 18 19  1  0  0  0  0
 18 20  1  0  0  0  0
 21 18  1  0  0  0  0
 21 23  1  0  0  0  0
 22 21  1  0  0  0  0
 24  5  1  0  0  0  0
 24 25  1  0  0  0  0
 24 27  1  0  0  0  0
 26 24  1  0  0  0  0
 27 30  1  0  0  0  0
 28 27  1  0  0  0  0
 29 27  1  0  0  0  0
 31 32  1  0  0  0  0
 31  5  1  0  0  0  0
 31 33  1  0  0  0  0
 34 31  1  0  0  0  0
 35 34  1  0  0  0  0
 36 34  1  0  0  0  0
 37 34  1  0  0  0  0
M  END
