9,12
q = 0.0, confidence = 0.946

 19 19  0  0  1  0  0  0  0  0999 V2000
   -2.2668   -1.2111   -0.3439 N   0  0  0  0  0  0  0  0  0  0  0  0
   -2.2963   -2.6651   -0.4763 C   0  0  0  0  0  0  0  0  0  0  0  0
   -3.4119   -0.4740   -0.1088 C   0  0  2  0  0  3  0  0  0  0  0  0
   -4.5828   -1.1479   -0.0324 N   0  0  0  0  0  0  0  0  0  0  0  0
   -3.4497    0.8435    0.0412 N   0  0  0  0  0  0  0  0  0  0  0  0
   -2.2882    1.5318   -0.0213 C   0  0  0  0  0  0  0  0  0  0  0  0
   -2.3002    2.8573    0.1439 N   0  0  0  0  0  0  0  0  0  0  0  0
   -1.0349    0.8702   -0.2582 C   0  0  0  0  0  0  0  0  0  0  0  0
    0.2021    1.4599   -0.2892 N   0  0  0  0  0  2  0  0  0  0  0  0
    0.3046    2.6972   -0.1651 O   0  0  0  0  0  1  0  0  0  0  0  0
   -1.0116   -0.5622   -0.4420 C   0  0  0  0  0  0  0  0  0  0  0  0
    0.0116   -1.2253   -0.6664 O   0  5  0  0  0  0  0  0  0  0  0  0
   -2.9045   -2.9721   -1.3518 H   0  0  0  0  0  0  0  0  0  0  0  0
   -1.2519   -2.9930   -0.6285 H   0  0  0  0  0  0  0  0  0  0  0  0
   -2.6883   -3.1350    0.4488 H   0  0  0  0  0  0  0  0  0  0  0  0
   -4.6472   -2.1595   -0.1040 H   0  0  0  0  0  0  0  0  0  0  0  0
   -5.4175   -0.5971    0.1638 H   0  0  0  0  0  0  0  0  0  0  0  0
   -1.3653    3.3117    0.0982 H   0  0  0  0  0  0  0  0  0  0  0  0
   -3.1821    3.3300    0.3443 H   0  0  0  0  0  0  0  0  0  0  0  0
  1  3  1  0  0  0  0
  2  1  1  0  0  0  0
  2 15  1  0  0  0  0
  3  4  1  6  0  0  0
  3  5  1  0  0  0  0
  4 17  1  0  0  0  0
  6  5  2  0  0  0  0
  6  7  1  0  0  0  0
  7 19  1  0  0  0  0
  8  6  1  0  0  0  0
  9  8  1  0  0  0  0
  9 10  1  0  0  0  0
 11  1  1  0  0  0  0
 11  8  2  0  0  0  0
 12 11  1  0  0  0  0
 13  2  1  0  0  0  0
 14  2  1  0  0  0  0
 16  4  1  0  0  0  0
 18  7  1  0  0  0  0
M  CHG  1  12  -1
M  END
