2,5
q = -2.0, confidence = 0.946

 35 36  0  0  1  0  0  0  0  0999 V2000
   -1.0585   -2.9059    0.1441 S   0  0  0  0  0  0  0  0  0  0  0  0
    1.8444    0.0846    0.7508 O   0  0  0  0  0  1  0  0  0  0  0  0
   -2.0442   -3.0184    1.2339 O   0  0  0  0  0  0  0  0  0  0  0  0
   -0.3511   -4.1074   -0.3613 O   0  0  0  0  0  0  0  0  0  0  0  0
    0.1982   -1.8003    0.5886 N   0  0  0  0  0  2  0  0  0  0  0  0
    2.3962   -1.0691    0.0980 C   0  0  1  0  0  0  0  0  0  0  0  0
    2.2461   -0.9091   -0.9965 H   0  0  0  0  0  0  0  0  0  0  0  0
    3.8981   -1.1622    0.3794 C   0  0  0  0  0  0  0  0  0  0  0  0
    4.3417   -0.1626    0.2001 H   0  0  0  0  0  0  0  0  0  0  0  0
    4.3336   -1.8457   -0.3827 H   0  0  0  0  0  0  0  0  0  0  0  0
    4.2207   -1.6837    1.7820 C   0  0  0  0  0  0  0  0  0  0  0  0
    5.3197   -1.7742    1.9040 H   0  0  0  0  0  0  0  0  0  0  0  0
    3.8754   -0.9457    2.5379 H   0  0  0  0  0  0  0  0  0  0  0  0
    3.5293   -3.0295    2.0261 C   0  0  0  0  0  0  0  0  0  0  0  0
    3.7845   -3.4296    3.0288 H   0  0  0  0  0  0  0  0  0  0  0  0
    3.8985   -3.7768    1.2876 H   0  0  0  0  0  0  0  0  0  0  0  0
    2.0108   -2.8750    1.9016 C   0  0  0  0  0  0  0  0  0  0  0  0
    1.4816   -3.8390    2.0440 H   0  0  0  0  0  0  0  0  0  0  0  0
    1.6498   -2.1931    2.7016 H   0  0  0  0  0  0  0  0  0  0  0  0
    1.5931   -2.2977    0.5372 C   0  0  1  0  0  0  0  0  0  0  0  0
    1.6652   -3.0882   -0.2368 H   0  0  0  0  0  0  0  0  0  0  0  0
   -1.8347   -2.0997   -1.2644 C   0  0  0  0  0  0  0  0  0  0  0  0
   -1.0517   -1.5773   -2.3014 C   0  0  0  0  0  0  0  0  0  0  0  0
   -1.6907   -0.9811   -3.3978 C   0  0  0  0  0  0  0  0  0  0  0  0
   -3.0972   -0.9131   -3.4806 C   0  0  0  0  0  0  0  0  0  0  0  0
   -3.8542   -1.4627   -2.4226 C   0  0  0  0  0  0  0  0  0  0  0  0
   -3.2338   -2.0519   -1.3148 C   0  0  0  0  0  0  0  0  0  0  0  0
    0.0462   -1.6132   -2.2478 H   0  0  0  0  0  0  0  0  0  0  0  0
   -1.0827   -0.5592   -4.2136 H   0  0  0  0  0  0  0  0  0  0  0  0
   -4.9540   -1.4164   -2.4637 H   0  0  0  0  0  0  0  0  0  0  0  0
   -3.8129   -2.4544   -0.4714 H   0  0  0  0  0  0  0  0  0  0  0  0
   -3.7814   -0.2822   -4.6657 C   0  0  0  0  0  0  0  0  0  0  0  0
   -4.5432    0.4578   -4.3458 H   0  0  0  0  0  0  0  0  0  0  0  0
   -4.3125   -1.0466   -5.2712 H   0  0  0  0  0  0  0  0  0  0  0  0
   -3.0610    0.2315   -5.3307 H   0  0  0  0  0  0  0  0  0  0  0  0
  1  5  1  0  0  0  0
  1  3  2  0  0  0  0
  4  1  2  0  0  0  0
  6  7  1  6  0  0  0
  6  8  1  0  0  0  0
  6 20  1  0  0  0  0
  6  2  1  0  0  0  0
  8 11  1  0  0  0  0
  9  8  1  0  0  0  0
 10  8  1  0  0  0  0
 11 12  1  0  0  0  0
 11 14  1  0  0  0  0
 11 13  1  0  0  0  0
 14 15  1  0  0  0  0
 16 14  1  0  0  0  0
 17 14  1  0  0  0  0
 17 18  1  0  0  0  0
 17 19  1  0  0  0  0
 20 21  1  6  0  0  0
 20  5  1  0  0  0  0
 20 17  1  0  0  0  0
 22  1  1  0  0  0  0
 23 28  1  0  0  0  0
 23 22  2  0  0  0  0
 24 23  1  0  0  0  0
 25 24  2  0  0  0  0
 25 26  1  0  0  0  0
 26 27  2  0  0  0  0
 27 22  1  0  0  0  0
 27 31  1  0  0  0  0
 29 24  1  0  0  0  0
 30 26  1  0  0  0  0
 32 33  1  0  0  0  0
 32 25  1  0  0  0  0
 34 32  1  0  0  0  0
 35 32  1  0  0  0  0
M  END
