1,3
q = -1.0

 27 29  0  0  0  0  0  0  0  0999 V2000
   -1.8409   -0.3727   -0.2230 O   0  5  0  0  0  0  0  0  0  0  0  0
   -0.0916   -4.0168    0.6012 O   0  0  0  0  0  0  0  0  0  0  0  0
    0.3718   -1.8735    0.0726 N   0  0  0  0  0  2  0  0  0  0  0  0
   -1.9093   -2.6109    0.4913 N   0  0  0  0  0  4  0  0  0  0  0  0
   -2.4583   -1.4619    0.0909 C   0  0  0  0  0  0  0  0  0  0  0  0
   -0.5950   -2.7519    0.4141 C   0  0  0  0  0  0  0  0  0  0  0  0
    1.2428   -3.9452    0.2951 C   0  0  0  0  0  0  0  0  0  0  0  0
    1.5538   -2.6101   -0.0561 C   0  0  0  0  0  0  0  0  0  0  0  0
    2.8525   -2.3000   -0.4982 C   0  0  0  0  0  0  0  0  0  0  0  0
    3.1257   -1.2786   -0.7838 H   0  0  0  0  0  0  0  0  0  0  0  0
    3.7952   -3.3416   -0.5305 C   0  0  0  0  0  0  0  0  0  0  0  0
    4.8189   -3.1167   -0.8653 H   0  0  0  0  0  0  0  0  0  0  0  0
    3.4679   -4.6572   -0.1418 C   0  0  0  0  0  0  0  0  0  0  0  0
    4.2373   -5.4423   -0.1778 H   0  0  0  0  0  0  0  0  0  0  0  0
    2.1665   -4.9869    0.2783 C   0  0  0  0  0  0  0  0  0  0  0  0
    1.8790   -6.0081    0.5634 H   0  0  0  0  0  0  0  0  0  0  0  0
   -3.9419   -1.4337   -0.0407 C   0  0  0  0  0  0  0  0  0  0  0  0
   -4.7244   -2.4475    0.5532 C   0  0  0  0  0  0  0  0  0  0  0  0
   -4.2084   -3.2483    1.1014 H   0  0  0  0  0  0  0  0  0  0  0  0
   -6.1192   -2.4160    0.4381 C   0  0  0  0  0  0  0  0  0  0  0  0
   -6.7247   -3.2033    0.9124 H   0  0  0  0  0  0  0  0  0  0  0  0
   -6.7462   -1.3859   -0.2842 C   0  0  0  0  0  0  0  0  0  0  0  0
   -7.8430   -1.3663   -0.3767 H   0  0  0  0  0  0  0  0  0  0  0  0
   -5.9709   -0.3862   -0.8950 C   0  0  0  0  0  0  0  0  0  0  0  0
   -6.4572    0.4137   -1.4739 H   0  0  0  0  0  0  0  0  0  0  0  0
   -4.5753   -0.4066   -0.7741 C   0  0  0  0  0  0  0  0  0  0  0  0
   -3.9569    0.3637   -1.2553 H   0  0  0  0  0  0  0  0  0  0  0  0
  1  5  1  0  0  0  0
  3  6  1  0  0  0  0
  5  4  2  0  0  0  0
  6  4  2  0  0  0  0
  6  2  1  0  0  0  0
  7  2  1  0  0  0  0
  8  3  1  0  0  0  0
  8  7  2  0  0  0  0
  9  8  1  0  0  0  0
 10  9  1  0  0  0  0
 11  9  2  0  0  0  0
 11 13  1  0  0  0  0
 12 11  1  0  0  0  0
 13 15  2  0  0  0  0
 14 13  1  0  0  0  0
 15  7  1  0  0  0  0
 15 16  1  0  0  0  0
 17  5  1  0  0  0  0
 17 18  1  0  0  0  0
 18 19  1  0  0  0  0
 20 18  2  0  0  0  0
 20 21  1  0  0  0  0
 22 20  1  0  0  0  0
 23 22  1  0  0  0  0
 24 26  1  0  0  0  0
 24 22  2  0  0  0  0
 25 24  1  0  0  0  0
 26 17  2  0  0  0  0
 27 26  1  0  0  0  0
M  CHG  1   1  -1
M  END
