1,4
q = -1.0

 33 34  0  0  1  0  0  0  0  0999 V2000
    1.7790   -0.8286   -1.6618 O   0  5  0  0  0  0  0  0  0  0  0  0
    7.7353   -2.3435   -0.4739 O   0  0  0  0  0  0  0  0  0  0  0  0
    7.1689   -1.5779    1.4964 O   0  0  0  0  0  0  0  0  0  0  0  0
    1.1848    0.1919    1.0389 N   0  0  0  0  0  2  0  0  0  0  0  0
    6.9244   -1.8552    0.3179 N   0  0  0  0  0  0  0  0  0  0  0  0
    2.9483   -1.0505   -1.1505 C   0  0  0  0  0  0  0  0  0  0  0  0
    3.9717   -1.6058   -1.9920 C   0  0  0  0  0  0  0  0  0  0  0  0
    3.6875   -1.8204   -3.0322 H   0  0  0  0  0  0  0  0  0  0  0  0
    5.2472   -1.8737   -1.5274 C   0  0  0  0  0  0  0  0  0  0  0  0
    6.0245   -2.3069   -2.1716 H   0  0  0  0  0  0  0  0  0  0  0  0
    5.5714   -1.5838   -0.1811 C   0  0  0  0  0  0  0  0  0  0  0  0
    4.6263   -1.0324    0.6754 C   0  0  0  0  0  0  0  0  0  0  0  0
    4.9278   -0.8120    1.7101 H   0  0  0  0  0  0  0  0  0  0  0  0
    3.3118   -0.7557    0.2305 C   0  0  0  0  0  0  0  0  0  0  0  0
    2.4381   -0.1251    1.1964 C   0  0  0  0  0  3  0  0  0  0  0  0
    2.9328    0.1309    2.1548 H   0  0  0  0  0  0  0  0  0  0  0  0
    0.4469    0.9845    2.0395 C   0  0  2  0  0  0  0  0  0  0  0  0
    0.3009    1.9755    1.5559 H   0  0  0  0  0  0  0  0  0  0  0  0
    1.1641    1.2210    3.3709 C   0  0  0  0  0  0  0  0  0  0  0  0
    2.1111    1.7823    3.2398 H   0  0  0  0  0  0  0  0  0  0  0  0
    1.3787    0.2697    3.8993 H   0  0  0  0  0  0  0  0  0  0  0  0
    0.5067    1.8243    4.0251 H   0  0  0  0  0  0  0  0  0  0  0  0
   -0.9386    0.3869    2.2422 C   0  0  0  0  0  0  0  0  0  0  0  0
   -1.0925   -0.9535    2.6480 C   0  0  0  0  0  0  0  0  0  0  0  0
   -0.2042   -1.5932    2.7664 H   0  0  0  0  0  0  0  0  0  0  0  0
   -2.3693   -1.4819    2.8795 C   0  0  0  0  0  0  0  0  0  0  0  0
   -2.4789   -2.5327    3.1867 H   0  0  0  0  0  0  0  0  0  0  0  0
   -3.5092   -0.6790    2.7063 C   0  0  0  0  0  0  0  0  0  0  0  0
   -4.5116   -1.0996    2.8754 H   0  0  0  0  0  0  0  0  0  0  0  0
   -3.3661    0.6530    2.2933 C   0  0  0  0  0  0  0  0  0  0  0  0
   -4.2565    1.2811    2.1400 H   0  0  0  0  0  0  0  0  0  0  0  0
   -2.0859    1.1813    2.0617 C   0  0  0  0  0  0  0  0  0  0  0  0
   -1.9690    2.2264    1.7328 H   0  0  0  0  0  0  0  0  0  0  0  0
  1  6  1  0  0  0  0
  2  5  2  0  0  0  0
  4 15  1  0  0  0  0
  4 17  1  0  0  0  0
  5  3  2  0  0  0  0
  6 14  1  0  0  0  0
  7  9  1  0  0  0  0
  7  6  2  0  0  0  0
  8  7  1  0  0  0  0
  9 11  2  0  0  0  0
 10  9  1  0  0  0  0
 11  5  1  0  0  0  0
 11 12  1  0  0  0  0
 12 13  1  0  0  0  0
 14 12  2  0  0  0  0
 14 15  1  0  0  0  0
 15 16  1  0  0  0  0
 17 18  1  6  0  0  0
 17 23  1  0  0  0  0
 17 19  1  0  0  0  0
 19 21  1  0  0  0  0
 19 22  1  0  0  0  0
 20 19  1  0  0  0  0
 23 24  1  0  0  0  0
 24 25  1  0  0  0  0
 24 26  2  0  0  0  0
 26 27  1  0  0  0  0
 28 29  1  0  0  0  0
 28 26  1  0  0  0  0
 30 28  2  0  0  0  0
 31 30  1  0  0  0  0
 32 23  2  0  0  0  0
 32 30  1  0  0  0  0
 33 32  1  0  0  0  0
M  CHG  1   1  -1
M  END
