1,2
q = -1.0, confidence = 0.0

 31 32  0  0  1  0  0  0  0  0999 V2000
    0.3241    1.7245    1.6138 O   0  5  0  0  0  0  0  0  0  0  0  0
   -1.7380    0.5772   -0.1022 N   0  0  0  0  0  2  0  0  0  0  0  0
    1.7862    3.9863    2.7064 Cl  0  0  0  0  0  0  0  0  0  0  0  0
   -1.5872    6.9767   -0.3236 Cl  0  0  0  0  0  0  0  0  0  0  0  0
   -0.1595    2.8417    1.1812 C   0  0  0  0  0  0  0  0  0  0  0  0
    0.4290    4.0846    1.6186 C   0  0  0  0  0  0  0  0  0  0  0  0
   -0.0000    5.3288    1.1713 C   0  0  0  0  0  0  0  0  0  0  0  0
    0.5030    6.2407    1.5200 H   0  0  0  0  0  0  0  0  0  0  0  0
   -1.0740    5.4096    0.2563 C   0  0  0  0  0  0  0  0  0  0  0  0
   -1.7042    4.2533   -0.1813 C   0  0  0  0  0  0  0  0  0  0  0  0
   -2.5448    4.3244   -0.8871 H   0  0  0  0  0  0  0  0  0  0  0  0
   -1.2692    2.9717    0.2559 C   0  0  0  0  0  0  0  0  0  0  0  0
   -2.0164    1.8437   -0.2452 C   0  0  0  0  0  3  0  0  0  0  0  0
   -2.9457    2.1036   -0.8010 H   0  0  0  0  0  0  0  0  0  0  0  0
   -2.7259   -0.4240   -0.5409 C   0  0  2  0  0  0  0  0  0  0  0  0
   -3.4553    0.0923   -1.2108 H   0  0  0  0  0  0  0  0  0  0  0  0
   -3.4827   -0.9433    0.6855 C   0  0  0  0  0  0  0  0  0  0  0  0
   -3.9725   -0.0992    1.2085 H   0  0  0  0  0  0  0  0  0  0  0  0
   -2.7912   -1.4428    1.3924 H   0  0  0  0  0  0  0  0  0  0  0  0
   -4.2667   -1.6648    0.3830 H   0  0  0  0  0  0  0  0  0  0  0  0
   -2.0348   -1.5038   -1.3701 C   0  0  0  0  0  0  0  0  0  0  0  0
   -1.3274   -1.1137   -2.5257 C   0  0  0  0  0  0  0  0  0  0  0  0
   -1.2877   -0.0476   -2.7962 H   0  0  0  0  0  0  0  0  0  0  0  0
   -0.6711   -2.0616   -3.3230 C   0  0  0  0  0  0  0  0  0  0  0  0
   -0.1246   -1.7373   -4.2225 H   0  0  0  0  0  0  0  0  0  0  0  0
   -0.7181   -3.4230   -2.9794 C   0  0  0  0  0  0  0  0  0  0  0  0
   -0.2006   -4.1710   -3.5987 H   0  0  0  0  0  0  0  0  0  0  0  0
   -1.4287   -3.8230   -1.8393 C   0  0  0  0  0  0  0  0  0  0  0  0
   -1.4613   -4.8852   -1.5548 H   0  0  0  0  0  0  0  0  0  0  0  0
   -2.0811   -2.8712   -1.0393 C   0  0  0  0  0  0  0  0  0  0  0  0
   -2.6139   -3.2054   -0.1388 H   0  0  0  0  0  0  0  0  0  0  0  0
  4  9  1  0  0  0  0
  5  1  1  0  0  0  0
  5  6  1  0  0  0  0
  6  3  1  0  0  0  0
  7  8  1  0  0  0  0
  7  6  2  0  0  0  0
  9  7  1  0  0  0  0
 10 12  1  0  0  0  0
 10  9  2  0  0  0  0
 11 10  1  0  0  0  0
 12  5  2  0  0  0  0
 13  2  1  0  0  0  0
 13 12  1  0  0  0  0
 14 13  1  0  0  0  0
 15 16  1  6  0  0  0
 15  2  1  0  0  0  0
 15 17  1  0  0  0  0
 17 18  1  0  0  0  0
 17 19  1  0  0  0  0
 20 17  1  0  0  0  0
 21 30  1  0  0  0  0
 21 15  1  0  0  0  0
 22 21  2  0  0  0  0
 23 22  1  0  0  0  0
 24 26  2  0  0  0  0
 24 22  1  0  0  0  0
 25 24  1  0  0  0  0
 26 28  1  0  0  0  0
 27 26  1  0  0  0  0
 28 29  1  0  0  0  0
 28 30  2  0  0  0  0
 30 31  1  0  0  0  0
M  CHG  1   1  -1
M  END
