1,2
q = -1.0, confidence = 0.002

 28 29  0  0  0  0  0  0  0  0999 V2000
   -2.0870   -0.3627    0.6006 O   0  5  0  0  0  0  0  0  0  0  0  0
   -0.0405    1.0442   -0.9657 N   0  0  0  0  0  2  0  0  0  0  0  0
   -4.9397    1.8660    0.6877 C   0  0  0  0  0  0  0  0  0  0  0  0
   -5.9538    1.8781    1.1175 H   0  0  0  0  0  0  0  0  0  0  0  0
   -2.7983    0.7027    0.3632 C   0  0  0  0  0  0  0  0  0  0  0  0
    4.0519    3.2804    1.2152 C   0  0  0  0  0  0  0  0  0  0  0  0
    4.7796    3.7267    1.9096 H   0  0  0  0  0  0  0  0  0  0  0  0
   -1.0289    1.9191   -0.9852 C   0  0  0  0  0  0  0  0  0  0  0  0
   -0.8262    2.8730   -1.5150 H   0  0  0  0  0  0  0  0  0  0  0  0
    4.4302    2.9707   -0.1021 C   0  0  0  0  0  0  0  0  0  0  0  0
    5.4565    3.1737   -0.4443 H   0  0  0  0  0  0  0  0  0  0  0  0
    1.2083    1.5210   -1.5625 C   0  0  0  0  0  0  0  0  0  0  0  0
    0.9771    2.2828   -2.3413 H   0  0  0  0  0  0  0  0  0  0  0  0
    1.7009    0.6810   -2.0916 H   0  0  0  0  0  0  0  0  0  0  0  0
    2.7425    3.0116    1.6390 C   0  0  0  0  0  0  0  0  0  0  0  0
    2.4373    3.2445    2.6706 H   0  0  0  0  0  0  0  0  0  0  0  0
   -2.3354    1.8304   -0.4120 C   0  0  0  0  0  0  0  0  0  0  0  0
   -4.1214    0.7656    0.9027 C   0  0  0  0  0  0  0  0  0  0  0  0
   -4.4587   -0.0989    1.4925 H   0  0  0  0  0  0  0  0  0  0  0  0
    1.8123    2.4406    0.7549 C   0  0  0  0  0  0  0  0  0  0  0  0
    0.7929    2.2178    1.1012 H   0  0  0  0  0  0  0  0  0  0  0  0
    2.1845    2.1264   -0.5649 C   0  0  0  0  0  0  0  0  0  0  0  0
   -4.4887    2.9731   -0.0766 C   0  0  0  0  0  0  0  0  0  0  0  0
   -5.1435    3.8406   -0.2411 H   0  0  0  0  0  0  0  0  0  0  0  0
    3.5040    2.3958   -0.9824 C   0  0  0  0  0  0  0  0  0  0  0  0
    3.8094    2.1456   -2.0115 H   0  0  0  0  0  0  0  0  0  0  0  0
   -3.2091    2.9434   -0.6091 C   0  0  0  0  0  3  0  0  0  0  0  0
   -2.8371    3.7955   -1.2010 H   0  0  0  0  0  0  0  0  0  0  0  0
  3 18  1  0  0  0  0
  3  4  1  0  0  0  0
  5  1  1  0  0  0  0
  5 18  2  0  0  0  0
  6 15  1  0  0  0  0
  6  7  1  0  0  0  0
  8  2  1  0  0  0  0
  8 17  2  0  0  0  0
  9  8  1  0  0  0  0
 10  6  2  0  0  0  0
 11 10  1  0  0  0  0
 12  2  1  0  0  0  0
 12 22  1  0  0  0  0
 13 12  1  0  0  0  0
 14 12  1  0  0  0  0
 15 16  1  0  0  0  0
 17  5  1  0  0  0  0
 18 19  1  0  0  0  0
 20 21  1  0  0  0  0
 20 15  2  0  0  0  0
 22 20  1  0  0  0  0
 23  3  2  0  0  0  0
 24 23  1  0  0  0  0
 25 22  2  0  0  0  0
 25 10  1  0  0  0  0
 26 25  1  0  0  0  0
 27 17  1  0  0  0  0
 27 23  1  0  0  0  0
 28 27  1  0  0  0  0
M  CHG  1   1  -1
M  END
