1,2
q = -1.0

 22 21  0  0  0  0  0  0  0  0999 V2000
    0.5938   -0.5489   -0.7480 O   0  0  0  0  0  1  0  0  0  0  0  0
   -0.2769    1.7015    0.3343 N   0  0  0  0  0  0  0  0  0  0  0  0
   -0.2190    2.5029   -0.9187 C   0  0  0  0  0  0  0  0  0  0  0  0
    0.3712    3.4305   -0.7461 H   0  0  0  0  0  0  0  0  0  0  0  0
   -1.2476    2.7670   -1.2251 H   0  0  0  0  0  0  0  0  0  0  0  0
    0.2586    1.9061   -1.7123 H   0  0  0  0  0  0  0  0  0  0  0  0
   -0.9237    2.5011    1.4040 C   0  0  0  0  0  0  0  0  0  0  0  0
   -0.3105    3.3981    1.6401 H   0  0  0  0  0  0  0  0  0  0  0  0
   -1.0394    1.8817    2.3121 H   0  0  0  0  0  0  0  0  0  0  0  0
   -1.9226    2.8299    1.0646 H   0  0  0  0  0  0  0  0  0  0  0  0
    1.0898    1.2998    0.7854 C   0  0  0  0  0  0  0  0  0  0  0  0
    1.0235    1.0903    1.8677 H   0  0  0  0  0  0  0  0  0  0  0  0
    1.7912    2.1512    0.6566 H   0  0  0  0  0  0  0  0  0  0  0  0
    1.5748    0.0117    0.0349 C   0  0  0  0  0  0  0  0  0  0  0  0
    2.0268   -1.0133    1.1312 C   0  0  0  0  0  0  0  0  0  0  0  0
    2.7859    0.3542   -0.8884 C   0  0  0  0  0  0  0  0  0  0  0  0
    2.5318   -2.1336    0.6007 F   0  0  0  0  0  0  0  0  0  0  0  0
    2.9557   -0.4795    1.9659 F   0  0  0  0  0  0  0  0  0  0  0  0
    0.9617   -1.3568    1.8952 F   0  0  0  0  0  0  0  0  0  0  0  0
    3.2364   -0.7164   -1.5505 F   0  0  0  0  0  0  0  0  0  0  0  0
    3.8145    0.8838   -0.1802 F   0  0  0  0  0  0  0  0  0  0  0  0
    2.4242    1.2849   -1.8087 F   0  0  0  0  0  0  0  0  0  0  0  0
  1 14  1  0  0  0  0
  2 11  1  0  0  0  0
  2  7  1  0  0  0  0
  3  4  1  0  0  0  0
  3  2  1  0  0  0  0
  5  3  1  0  0  0  0
  6  3  1  0  0  0  0
  7  8  1  0  0  0  0
  7  9  1  0  0  0  0
 10  7  1  0  0  0  0
 11 12  1  0  0  0  0
 13 11  1  0  0  0  0
 14 11  1  0  0  0  0
 14 15  1  0  0  0  0
 15 19  1  0  0  0  0
 15 18  1  0  0  0  0
 16 21  1  0  0  0  0
 16 14  1  0  0  0  0
 17 15  1  0  0  0  0
 20 16  1  0  0  0  0
 22 16  1  0  0  0  0
M  END
