1,3
q = -1.0

 30 33  0  0  0  0  0  0  0  0999 V2000
    1.6723   -1.1444   -0.0783 N   0  0  0  0  0  2  0  0  0  0  0  0
    2.9433   -2.7320   -1.0031 O   0  0  0  0  0  0  0  0  0  0  0  0
   -1.1285   -1.6597   -0.1897 O   0  5  0  0  0  0  0  0  0  0  0  0
    3.6075    0.0618    1.1683 C   0  0  0  0  0  0  0  0  0  0  0  0
    2.9025    0.9966    1.9735 C   0  0  0  0  0  0  0  0  0  0  0  0
    1.8074    1.0236    1.9252 H   0  0  0  0  0  0  0  0  0  0  0  0
    3.5901    1.8683    2.8071 C   0  0  0  0  0  0  0  0  0  0  0  0
    3.0282    2.5847    3.4250 H   0  0  0  0  0  0  0  0  0  0  0  0
    5.0070    1.8446    2.8679 C   0  0  0  0  0  0  0  0  0  0  0  0
    5.5395    2.5491    3.5246 H   0  0  0  0  0  0  0  0  0  0  0  0
    5.7191    0.9233    2.1143 C   0  0  0  0  0  0  0  0  0  0  0  0
    6.8179    0.8838    2.1746 H   0  0  0  0  0  0  0  0  0  0  0  0
    5.0524   -0.0043    1.2615 C   0  0  0  0  0  0  0  0  0  0  0  0
    5.7968   -0.9970    0.5434 C   0  0  0  0  0  0  0  0  0  0  0  0
    6.8920   -1.0018    0.6501 H   0  0  0  0  0  0  0  0  0  0  0  0
    5.1776   -1.9581   -0.2433 C   0  0  0  0  0  0  0  0  0  0  0  0
    5.7343   -2.7460   -0.7680 H   0  0  0  0  0  0  0  0  0  0  0  0
    3.7773   -1.8727   -0.3288 C   0  0  0  0  0  0  0  0  0  0  0  0
    2.9972   -0.8883    0.2886 C   0  0  0  0  0  0  0  0  0  0  0  0
    1.6759   -2.2662   -0.8091 C   0  0  0  0  0  0  0  0  0  0  0  0
    0.5655   -3.0284   -1.3062 C   0  0  0  0  0  0  0  0  0  0  0  0
   -0.7808   -2.7029   -0.9007 C   0  0  0  0  0  0  0  0  0  0  0  0
   -1.8159   -3.6061   -1.2934 C   0  0  0  0  0  0  0  0  0  0  0  0
   -2.8370   -3.3629   -0.9662 H   0  0  0  0  0  0  0  0  0  0  0  0
   -1.5456   -4.7241   -2.0738 C   0  0  0  0  0  0  0  0  0  0  0  0
   -2.3750   -5.3845   -2.3719 H   0  0  0  0  0  0  0  0  0  0  0  0
   -0.2270   -5.0175   -2.4973 C   0  0  0  0  0  0  0  0  0  0  0  0
   -0.0236   -5.8993   -3.1212 H   0  0  0  0  0  0  0  0  0  0  0  0
    0.8096   -4.1793   -2.1065 C   0  0  0  0  0  3  0  0  0  0  0  0
    1.8455   -4.3978   -2.4029 H   0  0  0  0  0  0  0  0  0  0  0  0
  1 19  1  0  0  0  0
  2 20  1  0  0  0  0
  2 18  1  0  0  0  0
  4 13  1  0  0  0  0
  4  5  2  0  0  0  0
  5  7  1  0  0  0  0
  6  5  1  0  0  0  0
  7  9  2  0  0  0  0
  7  8  1  0  0  0  0
  9 10  1  0  0  0  0
 11 12  1  0  0  0  0
 11  9  1  0  0  0  0
 13 11  2  0  0  0  0
 14 15  1  0  0  0  0
 14 13  1  0  0  0  0
 16 14  2  0  0  0  0
 17 16  1  0  0  0  0
 18 16  1  0  0  0  0
 18 19  2  0  0  0  0
 19  4  1  0  0  0  0
 20  1  1  0  0  0  0
 21 22  1  0  0  0  0
 21 20  2  0  0  0  0
 22  3  1  0  0  0  0
 23 24  1  0  0  0  0
 23 22  2  0  0  0  0
 25 23  1  0  0  0  0
 26 25  1  0  0  0  0
 27 29  1  0  0  0  0
 27 25  2  0  0  0  0
 28 27  1  0  0  0  0
 29 21  1  0  0  0  0
 30 29  1  0  0  0  0
M  CHG  1   3  -1
M  END
