1,3
q = -1.0

 20 21  0  0  1  0  0  0  0  0999 V2000
    1.0804    0.1165   -1.5272 O   0  5  0  0  0  0  0  0  0  0  0  0
    1.9667   -3.5631    0.5541 N   0  0  0  0  0  0  0  0  0  0  0  0
    0.2888   -1.8771    0.3543 N   0  0  0  0  0  2  0  0  0  0  0  0
    2.2872   -0.3943   -1.3793 C   0  0  0  0  0  0  0  0  0  0  0  0
    3.3492    0.2069   -2.1149 C   0  0  0  0  0  0  0  0  0  0  0  0
    3.0877    1.0584   -2.7599 H   0  0  0  0  0  0  0  0  0  0  0  0
    4.6587   -0.2459   -2.0017 C   0  0  0  0  0  0  0  0  0  0  0  0
    5.4584    0.2562   -2.5680 H   0  0  0  0  0  0  0  0  0  0  0  0
    4.9674   -1.3378   -1.1579 C   0  0  0  0  0  0  0  0  0  0  0  0
    6.0032   -1.6932   -1.0620 H   0  0  0  0  0  0  0  0  0  0  0  0
    3.9444   -1.9694   -0.4625 C   0  0  0  0  0  0  0  0  0  0  0  0
    4.1508   -2.8427    0.1708 H   0  0  0  0  0  0  0  0  0  0  0  0
    2.5915   -1.5292   -0.5465 C   0  0  0  0  0  0  0  0  0  0  0  0
    1.5778   -2.3360    0.1355 C   0  0  1  0  0  3  0  0  0  0  0  0
    1.0890   -4.3925    1.1059 C   0  0  0  0  0  0  0  0  0  0  0  0
    1.4727   -5.3707    1.4466 H   0  0  0  0  0  0  0  0  0  0  0  0
   -0.2686   -4.0501    1.2462 C   0  0  0  0  0  0  0  0  0  0  0  0
   -1.0165   -4.7392    1.6603 H   0  0  0  0  0  0  0  0  0  0  0  0
   -0.6114   -2.7590    0.8624 C   0  0  0  0  0  0  0  0  0  0  0  0
   -1.6390   -2.3909    0.9860 H   0  0  0  0  0  0  0  0  0  0  0  0
  1  4  1  0  0  0  0
  2 15  2  0  0  0  0
  3 19  1  0  0  0  0
  4 13  1  0  0  0  0
  5  7  1  0  0  0  0
  5  4  2  0  0  0  0
  6  5  1  0  0  0  0
  7  9  2  0  0  0  0
  8  7  1  0  0  0  0
  9 10  1  0  0  0  0
  9 11  1  0  0  0  0
 11 12  1  0  0  0  0
 13 11  2  0  0  0  0
 14 13  1  1  0  0  0
 14  3  1  0  0  0  0
 14  2  1  0  0  0  0
 15 17  1  0  0  0  0
 15 16  1  0  0  0  0
 17 18  1  0  0  0  0
 19 20  1  0  0  0  0
 19 17  2  0  0  0  0
M  CHG  1   1  -1
M  END
