1,3
q = -2.0, confidence = 0.674

 18 19  0  0  0  0  0  0  0  0999 V2000
    1.1167   -0.1121   -1.4478 O   0  5  0  0  0  0  0  0  0  0  0  0
    1.4478   -3.6465    0.9863 N   0  0  0  0  0  0  0  0  0  0  0  0
    0.1495   -1.8346    0.5785 N   0  0  0  0  0  0  0  0  0  0  0  0
    2.2881   -0.7256   -1.2603 C   0  0  0  0  0  0  0  0  0  0  0  0
    3.4059   -0.2558   -2.0013 C   0  0  0  0  0  0  0  0  0  0  0  0
    3.2419    0.6097   -2.6612 H   0  0  0  0  0  0  0  0  0  0  0  0
    4.6591   -0.8628   -1.8947 C   0  0  0  0  0  0  0  0  0  0  0  0
    5.5083   -0.4681   -2.4750 H   0  0  0  0  0  0  0  0  0  0  0  0
    4.8333   -1.9734   -1.0442 C   0  0  0  0  0  0  0  0  0  0  0  0
    5.8166   -2.4600   -0.9568 H   0  0  0  0  0  0  0  0  0  0  0  0
    3.7441   -2.4562   -0.3147 C   0  0  0  0  0  0  0  0  0  0  0  0
    3.8365   -3.3321    0.3448 H   0  0  0  0  0  0  0  0  0  0  0  0
    2.4651   -1.8553   -0.3942 C   0  0  0  0  0  0  0  0  0  0  0  0
    1.3695   -2.4460    0.3736 C   0  0  0  0  0  0  0  0  0  0  0  0
    0.2369   -3.8183    1.5892 C   0  0  0  0  0  3  0  0  0  0  0  0
    0.0016   -4.7202    2.1716 H   0  0  0  0  0  0  0  0  0  0  0  0
   -0.5834   -2.7117    1.3487 C   0  0  0  0  0  0  0  0  0  0  0  0
   -1.6058   -2.4887    1.6746 H   0  0  0  0  0  0  0  0  0  0  0  0
  1  4  1  0  0  0  0
  2 15  1  0  0  0  0
  3 17  2  0  0  0  0
  4 13  1  0  0  0  0
  5  7  1  0  0  0  0
  5  4  2  0  0  0  0
  6  5  1  0  0  0  0
  7  9  2  0  0  0  0
  8  7  1  0  0  0  0
  9 10  1  0  0  0  0
  9 11  1  0  0  0  0
 11 12  1  0  0  0  0
 13 11  2  0  0  0  0
 13 14  1  0  0  0  0
 14  3  1  0  0  0  0
 14  2  2  0  0  0  0
 15 16  1  0  0  0  0
 17 15  1  0  0  0  0
 17 18  1  0  0  0  0
M  CHG  1   1  -1
M  END
