3,8
q = -1.0

 32 33  0  0  1  0  0  0  0  0999 V2000
   -5.9897    1.5530    3.0765 C   0  0  0  0  0  0  0  0  0  0  0  0
   -7.0068    1.6335    3.4893 H   0  0  0  0  0  0  0  0  0  0  0  0
    1.7989    0.6263   -1.4165 O   0  5  0  0  0  0  0  0  0  0  0  0
    2.1133    1.8148   -1.8608 C   0  0  0  0  0  0  0  0  0  0  0  0
    1.3003    2.9974   -1.6498 C   0  0  0  0  0  0  0  0  0  0  0  0
    1.7549    4.2554   -2.1380 C   0  0  0  0  0  0  0  0  0  0  0  0
    1.1198    5.1393   -1.9601 H   0  0  0  0  0  0  0  0  0  0  0  0
   -0.5973    1.9534   -0.4809 N   0  0  0  0  0  2  0  0  0  0  0  0
   -1.8932    2.1124    0.1444 C   0  0  0  0  0  0  0  0  0  0  0  0
   -2.6697    1.7470   -0.5655 H   0  0  0  0  0  0  0  0  0  0  0  0
   -2.1229    3.1757    0.3817 H   0  0  0  0  0  0  0  0  0  0  0  0
   -1.9870    1.2517    1.4259 C   0  0  2  0  0  0  0  0  0  0  0  0
   -1.2453    1.6319    2.1591 H   0  0  0  0  0  0  0  0  0  0  0  0
   -1.5895   -0.0924    1.1538 O   0  0  0  0  0  0  0  0  0  0  0  0
   -2.0921   -0.4134    0.3583 H   0  0  0  0  0  0  0  0  0  0  0  0
   -3.3795    1.3378    2.0215 C   0  0  0  0  0  0  0  0  0  0  0  0
   -4.9205    2.2119    3.7024 C   0  0  0  0  0  0  0  0  0  0  0  0
   -5.0954    2.8099    4.6098 H   0  0  0  0  0  0  0  0  0  0  0  0
   -4.4602    0.6820    1.3977 C   0  0  0  0  0  0  0  0  0  0  0  0
   -4.2890    0.0749    0.4936 H   0  0  0  0  0  0  0  0  0  0  0  0
    0.0334    2.9862   -0.9616 C   0  0  0  0  0  3  0  0  0  0  0  0
   -0.4511    3.9844   -0.8539 H   0  0  0  0  0  0  0  0  0  0  0  0
    2.9558    4.3906   -2.8240 C   0  0  0  0  0  0  0  0  0  0  0  0
    3.2839    5.3728   -3.1932 H   0  0  0  0  0  0  0  0  0  0  0  0
    3.7478    3.2379   -3.0394 C   0  0  0  0  0  0  0  0  0  0  0  0
    4.7013    3.3259   -3.5842 H   0  0  0  0  0  0  0  0  0  0  0  0
    3.3397    1.9920   -2.5741 C   0  0  0  0  0  0  0  0  0  0  0  0
    3.9486    1.0907   -2.7406 H   0  0  0  0  0  0  0  0  0  0  0  0
   -3.6237    2.1026    3.1765 C   0  0  0  0  0  0  0  0  0  0  0  0
   -2.7829    2.6131    3.6732 H   0  0  0  0  0  0  0  0  0  0  0  0
   -5.7557    0.7861    1.9230 C   0  0  0  0  0  0  0  0  0  0  0  0
   -6.5895    0.2644    1.4289 H   0  0  0  0  0  0  0  0  0  0  0  0
  1  2  1  0  0  0  0
  1 17  1  0  0  0  0
  4  5  1  0  0  0  0
  4  3  1  0  0  0  0
  5 21  1  0  0  0  0
  6  7  1  0  0  0  0
  6  5  2  0  0  0  0
  8  9  1  0  0  0  0
  9 11  1  0  0  0  0
  9 12  1  0  0  0  0
 10  9  1  0  0  0  0
 12 16  1  0  0  0  0
 12 13  1  1  0  0  0
 14 12  1  0  0  0  0
 15 14  1  0  0  0  0
 16 29  1  0  0  0  0
 17 18  1  0  0  0  0
 19 31  1  0  0  0  0
 19 16  2  0  0  0  0
 20 19  1  0  0  0  0
 21 22  1  0  0  0  0
 21  8  1  0  0  0  0
 23  6  1  0  0  0  0
 24 23  1  0  0  0  0
 25 23  2  0  0  0  0
 25 27  1  0  0  0  0
 26 25  1  0  0  0  0
 27  4  2  0  0  0  0
 28 27  1  0  0  0  0
 29 30  1  0  0  0  0
 29 17  2  0  0  0  0
 31  1  2  0  0  0  0
 32 31  1  0  0  0  0
M  CHG  1   3  -1
M  END
