1,3
q = -1.0

 29 31  0  0  1  0  0  0  0  0999 V2000
    0.9250    0.0923    1.9907 O   0  5  0  0  0  0  0  0  0  0  0  0
   -0.1916    0.0282    1.3763 C   0  0  0  0  0  0  0  0  0  0  0  0
   -0.0249   -0.0711   -0.0153 N   0  0  0  0  0  2  0  0  0  0  0  0
   -1.0125   -0.3447   -0.8199 N   0  0  0  0  0  0  0  0  0  0  0  0
   -2.2620   -0.3924   -0.3007 C   0  0  0  0  0  0  0  0  0  0  0  0
   -2.4697    0.0014    1.0594 C   0  0  1  0  0  3  0  0  0  0  0  0
   -1.4177    0.1405    1.8933 N   0  0  0  0  0  0  0  0  0  0  0  0
   -3.2973   -0.8985   -1.2307 C   0  0  0  0  0  0  0  0  0  0  0  0
   -3.1546   -0.6886   -2.6206 C   0  0  0  0  0  0  0  0  0  0  0  0
   -2.2891   -0.1106   -2.9733 H   0  0  0  0  0  0  0  0  0  0  0  0
   -4.0894   -1.2137   -3.5226 C   0  0  0  0  0  0  0  0  0  0  0  0
   -3.9658   -1.0344   -4.6019 H   0  0  0  0  0  0  0  0  0  0  0  0
   -5.1803   -1.9654   -3.0558 C   0  0  0  0  0  0  0  0  0  0  0  0
   -5.9152   -2.3770   -3.7643 H   0  0  0  0  0  0  0  0  0  0  0  0
   -5.3223   -2.1943   -1.6767 C   0  0  0  0  0  0  0  0  0  0  0  0
   -6.1650   -2.7948   -1.3010 H   0  0  0  0  0  0  0  0  0  0  0  0
   -4.3893   -1.6705   -0.7728 C   0  0  0  0  0  0  0  0  0  0  0  0
   -4.4977   -1.8714    0.3025 H   0  0  0  0  0  0  0  0  0  0  0  0
   -3.7905    0.3712    1.6246 C   0  0  0  0  0  0  0  0  0  0  0  0
   -4.7845    1.0042    0.8436 C   0  0  0  0  0  0  0  0  0  0  0  0
   -4.5911    1.2056   -0.2194 H   0  0  0  0  0  0  0  0  0  0  0  0
   -5.9990    1.3940    1.4215 C   0  0  0  0  0  0  0  0  0  0  0  0
   -6.7608    1.8928    0.8029 H   0  0  0  0  0  0  0  0  0  0  0  0
   -6.2442    1.1567    2.7848 C   0  0  0  0  0  0  0  0  0  0  0  0
   -7.2026    1.4582    3.2347 H   0  0  0  0  0  0  0  0  0  0  0  0
   -5.2559    0.5432    3.5722 C   0  0  0  0  0  0  0  0  0  0  0  0
   -5.4375    0.3635    4.6431 H   0  0  0  0  0  0  0  0  0  0  0  0
   -4.0351    0.1632    3.0001 C   0  0  0  0  0  0  0  0  0  0  0  0
   -3.2398   -0.2961    3.6048 H   0  0  0  0  0  0  0  0  0  0  0  0
  2  7  2  0  0  0  0
  2  1  1  0  0  0  0
  3  2  1  0  0  0  0
  4  5  2  0  0  0  0
  4  3  1  0  0  0  0
  5  6  1  0  0  0  0
  6 19  1  6  0  0  0
  6  7  1  0  0  0  0
  8 17  1  0  0  0  0
  8  5  1  0  0  0  0
  9  8  2  0  0  0  0
 10  9  1  0  0  0  0
 11 13  2  0  0  0  0
 11  9  1  0  0  0  0
 12 11  1  0  0  0  0
 13 15  1  0  0  0  0
 14 13  1  0  0  0  0
 15 16  1  0  0  0  0
 15 17  2  0  0  0  0
 17 18  1  0  0  0  0
 19 28  1  0  0  0  0
 20 22  1  0  0  0  0
 20 19  2  0  0  0  0
 21 20  1  0  0  0  0
 22 24  2  0  0  0  0
 23 22  1  0  0  0  0
 24 25  1  0  0  0  0
 24 26  1  0  0  0  0
 26 27  1  0  0  0  0
 28 26  2  0  0  0  0
 28 29  1  0  0  0  0
M  CHG  1   1  -1
M  END
