1,6
q = -1.0

 40 43  0  0  0  0  0  0  0  0999 V2000
   -1.6418    0.4534    0.0272 O   0  5  0  0  0  0  0  0  0  0  0  0
    1.5508   -0.5214   -3.8997 O   0  0  0  0  0  0  0  0  0  0  0  0
   -3.5127    0.4886    2.0631 N   0  0  0  0  0  0  0  0  0  0  0  0
   -4.2317    0.8754    1.0102 N   0  0  0  0  0  0  0  0  0  0  0  0
   -5.5244    0.5094    0.9687 N   0  0  0  0  0  0  0  0  0  0  0  0
    0.3726    1.3288   -1.8759 N   0  0  0  0  0  2  0  0  0  0  0  0
   -2.3401    1.3903   -0.5124 C   0  0  0  0  0  0  0  0  0  0  0  0
   -3.6828    1.6591   -0.0442 C   0  0  0  0  0  0  0  0  0  0  0  0
   -4.5084    2.6103   -0.6381 C   0  0  0  0  0  0  0  0  0  0  0  0
   -5.5267    2.7178   -0.2362 H   0  0  0  0  0  0  0  0  0  0  0  0
   -4.0758    3.4100   -1.7221 C   0  0  0  0  0  0  0  0  0  0  0  0
   -2.7745    3.2058   -2.1752 C   0  0  0  0  0  0  0  0  0  0  0  0
   -2.3910    3.8217   -3.0062 H   0  0  0  0  0  0  0  0  0  0  0  0
   -1.9011    2.2318   -1.6159 C   0  0  0  0  0  0  0  0  0  0  0  0
   -4.4056   -0.2192    2.7981 C   0  0  0  0  0  0  0  0  0  0  0  0
   -4.2486   -0.9021    4.0309 C   0  0  0  0  0  0  0  0  0  0  0  0
   -3.2793   -0.9098    4.5489 H   0  0  0  0  0  0  0  0  0  0  0  0
   -5.3666   -1.5539    4.5381 C   0  0  0  0  0  0  0  0  0  0  0  0
   -5.2897   -2.0986    5.4913 H   0  0  0  0  0  0  0  0  0  0  0  0
   -6.6241   -1.5406    3.8556 C   0  0  0  0  0  0  0  0  0  0  0  0
   -7.4736   -2.0763    4.3059 H   0  0  0  0  0  0  0  0  0  0  0  0
   -6.8009   -0.8738    2.6486 C   0  0  0  0  0  0  0  0  0  0  0  0
   -7.7667   -0.8624    2.1237 H   0  0  0  0  0  0  0  0  0  0  0  0
   -5.6724   -0.2013    2.1132 C   0  0  0  0  0  0  0  0  0  0  0  0
   -4.9938    4.4397   -2.3300 C   0  0  0  0  0  0  0  0  0  0  0  0
   -5.3092    5.1969   -1.5818 H   0  0  0  0  0  0  0  0  0  0  0  0
   -5.9215    3.9748   -2.7249 H   0  0  0  0  0  0  0  0  0  0  0  0
   -4.5040    4.9764   -3.1655 H   0  0  0  0  0  0  0  0  0  0  0  0
   -0.5770    2.1676   -2.1826 C   0  0  0  0  0  3  0  0  0  0  0  0
   -0.3538    2.9410   -2.9527 H   0  0  0  0  0  0  0  0  0  0  0  0
    1.7021    1.4661   -2.4650 C   0  0  0  0  0  0  0  0  0  0  0  0
    2.4005    1.8287   -1.6793 H   0  0  0  0  0  0  0  0  0  0  0  0
    1.6846    2.2137   -3.2931 H   0  0  0  0  0  0  0  0  0  0  0  0
    2.2428    0.1540   -2.9225 C   0  0  0  0  0  0  0  0  0  0  0  0
    3.3463   -0.5760   -2.5402 C   0  0  0  0  0  0  0  0  0  0  0  0
    4.0607   -0.2757   -1.7657 H   0  0  0  0  0  0  0  0  0  0  0  0
    3.3343   -1.7736   -3.3309 C   0  0  0  0  0  0  0  0  0  0  0  0
    4.0568   -2.5964   -3.2996 H   0  0  0  0  0  0  0  0  0  0  0  0
    2.2221   -1.6876   -4.1352 C   0  0  0  0  0  0  0  0  0  0  0  0
    1.7905   -2.3400   -4.9013 H   0  0  0  0  0  0  0  0  0  0  0  0
  2 34  1  0  0  0  0
  3 15  2  0  0  0  0
  4  3  1  0  0  0  0
  5  4  1  0  0  0  0
  5 24  2  0  0  0  0
  7  8  1  0  0  0  0
  7  1  1  0  0  0  0
  8  4  1  0  0  0  0
  9 10  1  0  0  0  0
  9  8  2  0  0  0  0
 11  9  1  0  0  0  0
 12 11  2  0  0  0  0
 12 14  1  0  0  0  0
 13 12  1  0  0  0  0
 14  7  2  0  0  0  0
 15 16  1  0  0  0  0
 16 18  2  0  0  0  0
 16 17  1  0  0  0  0
 18 19  1  0  0  0  0
 20 21  1  0  0  0  0
 20 18  1  0  0  0  0
 22 20  2  0  0  0  0
 23 22  1  0  0  0  0
 24 22  1  0  0  0  0
 24 15  1  0  0  0  0
 25 11  1  0  0  0  0
 25 26  1  0  0  0  0
 27 25  1  0  0  0  0
 28 25  1  0  0  0  0
 29  6  1  0  0  0  0
 29 14  1  0  0  0  0
 30 29  1  0  0  0  0
 31  6  1  0  0  0  0
 31 32  1  0  0  0  0
 33 31  1  0  0  0  0
 34 35  2  0  0  0  0
 34 31  1  0  0  0  0
 35 36  1  0  0  0  0
 37 38  1  0  0  0  0
 37 35  1  0  0  0  0
 39  2  1  0  0  0  0
 39 37  2  0  0  0  0
 40 39  1  0  0  0  0
M  CHG  1   1  -1
M  END
