1,2
q = -1.0, confidence = 0.008

 29 31  0  0  0  0  0  0  0  0999 V2000
   -0.0287   -0.3943    0.7373 N   0  0  0  0  0  0  0  0  0  0  0  0
   -0.5759    0.7731   -1.6573 O   0  5  0  0  0  0  0  0  0  0  0  0
    2.3776   -0.1867    0.3451 C   0  0  0  0  0  3  0  0  0  0  0  0
    1.0152    0.0052   -0.0522 C   0  0  0  0  0  0  0  0  0  0  0  0
    0.6642    0.6352   -1.3202 C   0  0  0  0  0  0  0  0  0  0  0  0
    0.2073   -0.9952    1.9067 C   0  0  0  0  0  0  0  0  0  0  0  0
   -0.6779   -1.2948    2.4898 H   0  0  0  0  0  0  0  0  0  0  0  0
    1.5241   -1.2279    2.3706 C   0  0  0  0  0  0  0  0  0  0  0  0
    1.6733   -1.7253    3.3400 H   0  0  0  0  0  0  0  0  0  0  0  0
    1.7494    1.0611   -2.1421 C   0  0  0  0  0  0  0  0  0  0  0  0
    1.5005    1.5403   -3.1008 H   0  0  0  0  0  0  0  0  0  0  0  0
    3.4306    0.2645   -0.5254 C   0  0  0  0  0  0  0  0  0  0  0  0
    2.6038   -0.8231    1.5969 C   0  0  0  0  0  0  0  0  0  0  0  0
    3.6436   -0.9782    1.9168 H   0  0  0  0  0  0  0  0  0  0  0  0
    3.0740    0.8795   -1.7505 C   0  0  0  0  0  0  0  0  0  0  0  0
    3.9046    1.2125   -2.3905 H   0  0  0  0  0  0  0  0  0  0  0  0
    4.7330    0.0602   -0.0946 N   0  0  0  0  0  0  0  0  0  0  0  0
    5.6559    0.4688   -0.8790 N   0  0  0  0  0  2  0  0  0  0  0  0
    6.9672    0.2520   -0.4233 C   0  0  0  0  0  0  0  0  0  0  0  0
    7.3096   -0.3710    0.8039 C   0  0  0  0  0  0  0  0  0  0  0  0
    6.4949   -0.7146    1.4561 H   0  0  0  0  0  0  0  0  0  0  0  0
    8.0033    0.7000   -1.2755 C   0  0  0  0  0  0  0  0  0  0  0  0
    7.7140    1.1800   -2.2219 H   0  0  0  0  0  0  0  0  0  0  0  0
    9.3471    0.5368   -0.9231 C   0  0  0  0  0  0  0  0  0  0  0  0
   10.1640    0.8796   -1.5741 H   0  0  0  0  0  0  0  0  0  0  0  0
   10.9439   -0.2453    0.6464 F   0  0  0  0  0  0  0  0  0  0  0  0
    9.6535   -0.0822    0.2958 C   0  0  0  0  0  0  0  0  0  0  0  0
    8.6475   -0.5384    1.1639 C   0  0  0  0  0  0  0  0  0  0  0  0
    8.9374   -1.0187    2.1102 H   0  0  0  0  0  0  0  0  0  0  0  0
  1  6  2  0  0  0  0
  2  5  1  0  0  0  0
  3 13  1  0  0  0  0
  4  3  1  0  0  0  0
  4  1  1  0  0  0  0
  5  4  2  0  0  0  0
  6  8  1  0  0  0  0
  6  7  1  0  0  0  0
  8  9  1  0  0  0  0
 10 15  2  0  0  0  0
 10  5  1  0  0  0  0
 11 10  1  0  0  0  0
 12 17  2  0  0  0  0
 12  3  1  0  0  0  0
 13 14  1  0  0  0  0
 13  8  2  0  0  0  0
 15 12  1  0  0  0  0
 16 15  1  0  0  0  0
 18 19  1  0  0  0  0
 18 17  1  0  0  0  0
 19 20  1  0  0  0  0
 20 28  2  0  0  0  0
 20 21  1  0  0  0  0
 22 24  1  0  0  0  0
 22 19  2  0  0  0  0
 23 22  1  0  0  0  0
 24 27  2  0  0  0  0
 25 24  1  0  0  0  0
 27 26  1  0  0  0  0
 27 28  1  0  0  0  0
 28 29  1  0  0  0  0
M  CHG  1   2  -1
M  END
