12,14
q = -1.0, confidence = 0.022

 42 44  0  0  1  0  0  0  0  0999 V2000
   -4.5586    0.1089    0.6686 C   0  0  0  0  0  0  0  0  0  0  0  0
   -3.8561    0.7407    1.2284 H   0  0  0  0  0  0  0  0  0  0  0  0
   -4.0429   -0.9333   -0.1275 C   0  0  0  0  0  0  0  0  0  0  0  0
   -5.9398    0.3258    0.7374 C   0  0  0  0  0  0  0  0  0  0  0  0
   -6.3326    1.1420    1.3625 H   0  0  0  0  0  0  0  0  0  0  0  0
   -4.9220   -1.7603   -0.8707 C   0  0  0  0  0  0  0  0  0  0  0  0
   -2.5779   -1.1678   -0.1930 C   0  0  1  0  0  3  0  0  0  0  0  0
   -6.3046   -1.5284   -0.7943 C   0  0  0  0  0  0  0  0  0  0  0  0
   -6.9897   -2.1682   -1.3733 H   0  0  0  0  0  0  0  0  0  0  0  0
   -6.8157   -0.4934    0.0058 C   0  0  0  0  0  0  0  0  0  0  0  0
   -7.9027   -0.3273    0.0579 H   0  0  0  0  0  0  0  0  0  0  0  0
   -1.8445   -0.1764    0.2025 O   0  0  0  0  0  1  0  0  0  0  0  0
   -0.7326   -2.7969   -0.3571 C   0  0  0  0  0  0  0  0  0  0  0  0
    0.2250   -1.9252   -0.0099 N   0  0  0  0  0  2  0  0  0  0  0  0
   -2.0946   -2.4299   -0.5918 C   0  0  0  0  0  0  0  0  0  0  0  0
    3.7171   -3.2134   -0.3212 C   0  0  0  0  0  0  0  0  0  0  0  0
    4.4762   -3.3777   -1.1016 H   0  0  0  0  0  0  0  0  0  0  0  0
    1.7943   -2.7308    1.6895 C   0  0  0  0  0  0  0  0  0  0  0  0
    2.4820   -2.6450   -0.6814 C   0  0  0  0  0  0  0  0  0  0  0  0
    3.9953   -3.5509    1.0109 C   0  0  0  0  0  0  0  0  0  0  0  0
    4.9667   -3.9955    1.2753 H   0  0  0  0  0  0  0  0  0  0  0  0
    3.0452   -3.2930    2.0093 C   0  0  0  0  0  0  0  0  0  0  0  0
    3.2689   -3.5329    3.0608 H   0  0  0  0  0  0  0  0  0  0  0  0
    1.5139   -2.4417    0.3319 C   0  0  0  0  0  0  0  0  0  0  0  0
    0.7607   -2.4446    2.7457 C   0  0  0  0  0  0  0  0  0  0  0  0
    0.4070   -1.3947    2.6706 H   0  0  0  0  0  0  0  0  0  0  0  0
    1.1627   -2.6157    3.7623 H   0  0  0  0  0  0  0  0  0  0  0  0
   -0.1422   -3.0790    2.6194 H   0  0  0  0  0  0  0  0  0  0  0  0
    2.1769   -2.2509   -2.1004 C   0  0  0  0  0  0  0  0  0  0  0  0
    1.3978   -2.9005   -2.5533 H   0  0  0  0  0  0  0  0  0  0  0  0
    3.0804   -2.3078   -2.7366 H   0  0  0  0  0  0  0  0  0  0  0  0
    1.7800   -1.2156   -2.1301 H   0  0  0  0  0  0  0  0  0  0  0  0
   -3.0983   -3.4682   -1.0655 C   0  0  0  0  0  0  0  0  0  0  0  0
   -2.6232   -4.1685   -1.7805 H   0  0  0  0  0  0  0  0  0  0  0  0
   -3.4496   -4.0965   -0.2116 H   0  0  0  0  0  0  0  0  0  0  0  0
   -4.3113   -2.8248   -1.7437 C   0  0  0  0  0  0  0  0  0  0  0  0
   -3.9785   -2.3562   -2.6990 H   0  0  0  0  0  0  0  0  0  0  0  0
   -5.0665   -3.5910   -2.0115 H   0  0  0  0  0  0  0  0  0  0  0  0
   -0.4011   -4.2714   -0.4821 C   0  0  0  0  0  0  0  0  0  0  0  0
   -0.4498   -4.5873   -1.5453 H   0  0  0  0  0  0  0  0  0  0  0  0
   -1.1418   -4.8875    0.0644 H   0  0  0  0  0  0  0  0  0  0  0  0
    0.6070   -4.5078   -0.1027 H   0  0  0  0  0  0  0  0  0  0  0  0
  1  4  1  0  0  0  0
  1  2  1  0  0  0  0
  3  1  2  0  0  0  0
  4  5  1  0  0  0  0
  6  8  2  0  0  0  0
  6  3  1  0  0  0  0
  7  3  1  0  0  0  0
  7 12  1  1  0  0  0
  8 10  1  0  0  0  0
  9  8  1  0  0  0  0
 10 11  1  0  0  0  0
 10  4  2  0  0  0  0
 13 14  1  0  0  0  0
 14 24  1  0  0  0  0
 15 13  2  0  0  0  0
 15  7  1  0  0  0  0
 16 20  1  0  0  0  0
 17 16  1  0  0  0  0
 18 22  1  0  0  0  0
 18 25  1  0  0  0  0
 19 16  2  0  0  0  0
 19 24  1  0  0  0  0
 20 21  1  0  0  0  0
 20 22  2  0  0  0  0
 22 23  1  0  0  0  0
 24 18  2  0  0  0  0
 25 27  1  0  0  0  0
 26 25  1  0  0  0  0
 28 25  1  0  0  0  0
 29 19  1  0  0  0  0
 30 29  1  0  0  0  0
 31 29  1  0  0  0  0
 32 29  1  0  0  0  0
 33 15  1  0  0  0  0
 33 35  1  0  0  0  0
 34 33  1  0  0  0  0
 36 33  1  0  0  0  0
 36  6  1  0  0  0  0
 37 36  1  0  0  0  0
 38 36  1  0  0  0  0
 39 13  1  0  0  0  0
 39 42  1  0  0  0  0
 39 41  1  0  0  0  0
 40 39  1  0  0  0  0
M  END
