2,3
q = -1.0

 36 38  0  0  1  0  0  0  0  0999 V2000
   -1.5626    1.7342   -2.5930 Cl  0  0  0  0  0  0  0  0  0  0  0  0
    1.6404    0.1960   -0.7352 O   0  0  0  0  0  1  0  0  0  0  0  0
   -0.2461    1.9103    0.1101 N   0  0  0  0  0  2  0  0  0  0  0  0
    3.9142    0.7765   -0.5749 C   0  0  0  0  0  0  0  0  0  0  0  0
    2.4872    1.0643   -0.2893 C   0  0  1  0  0  3  0  0  0  0  0  0
    2.1451    2.2664    0.3610 C   0  0  0  0  0  0  0  0  0  0  0  0
    0.7931    2.7244    0.3444 C   0  0  0  0  0  0  0  0  0  0  0  0
    4.9160    1.3874    0.2207 C   0  0  0  0  0  0  0  0  0  0  0  0
   -1.5481    2.4602    0.0392 C   0  0  0  0  0  0  0  0  0  0  0  0
    3.2679    3.1503    0.8743 C   0  0  0  0  0  0  0  0  0  0  0  0
    3.6101    3.8701    0.0919 H   0  0  0  0  0  0  0  0  0  0  0  0
    2.9157    3.7641    1.7274 H   0  0  0  0  0  0  0  0  0  0  0  0
   -2.2779    2.4467   -1.1735 C   0  0  0  0  0  0  0  0  0  0  0  0
    4.2746   -0.1134   -1.6054 C   0  0  0  0  0  0  0  0  0  0  0  0
    3.4742   -0.5821   -2.1941 H   0  0  0  0  0  0  0  0  0  0  0  0
    5.6229   -0.3943   -1.8539 C   0  0  0  0  0  0  0  0  0  0  0  0
    5.8999   -1.0871   -2.6631 H   0  0  0  0  0  0  0  0  0  0  0  0
    6.2638    1.0866   -0.0320 C   0  0  0  0  0  0  0  0  0  0  0  0
    7.0451    1.5535    0.5888 H   0  0  0  0  0  0  0  0  0  0  0  0
   -2.1716    3.0190    1.1743 C   0  0  0  0  0  0  0  0  0  0  0  0
   -1.6266    2.9888    2.1288 H   0  0  0  0  0  0  0  0  0  0  0  0
   -3.5610    3.0064   -1.2560 C   0  0  0  0  0  0  0  0  0  0  0  0
   -4.0933    2.9755   -2.2168 H   0  0  0  0  0  0  0  0  0  0  0  0
    0.5761    4.2129    0.5374 C   0  0  0  0  0  0  0  0  0  0  0  0
   -0.3398    4.5587    0.0263 H   0  0  0  0  0  0  0  0  0  0  0  0
    0.4673    4.4708    1.6120 H   0  0  0  0  0  0  0  0  0  0  0  0
    1.4373    4.7867    0.1492 H   0  0  0  0  0  0  0  0  0  0  0  0
    4.4625    2.3030    1.3279 C   0  0  0  0  0  0  0  0  0  0  0  0
    5.2984    2.9438    1.6735 H   0  0  0  0  0  0  0  0  0  0  0  0
    4.1434    1.6814    2.1964 H   0  0  0  0  0  0  0  0  0  0  0  0
   -3.4466    3.5954    1.0965 C   0  0  0  0  0  0  0  0  0  0  0  0
   -3.9034    4.0333    1.9965 H   0  0  0  0  0  0  0  0  0  0  0  0
   -4.1422    3.5937   -0.1228 C   0  0  0  0  0  0  0  0  0  0  0  0
   -5.1475    4.0344   -0.1943 H   0  0  0  0  0  0  0  0  0  0  0  0
    6.6199    0.2027   -1.0641 C   0  0  0  0  0  0  0  0  0  0  0  0
    7.6816   -0.0174   -1.2544 H   0  0  0  0  0  0  0  0  0  0  0  0
  1 13  1  0  0  0  0
  3  7  1  0  0  0  0
  4  5  1  0  0  0  0
  4  8  1  0  0  0  0
  5  2  1  6  0  0  0
  5  6  1  0  0  0  0
  6 10  1  0  0  0  0
  7  6  2  0  0  0  0
  7 24  1  0  0  0  0
  8 28  1  0  0  0  0
  9  3  1  0  0  0  0
  9 20  1  0  0  0  0
 10 28  1  0  0  0  0
 10 12  1  0  0  0  0
 11 10  1  0  0  0  0
 13  9  2  0  0  0  0
 14  4  2  0  0  0  0
 15 14  1  0  0  0  0
 16 14  1  0  0  0  0
 16 35  2  0  0  0  0
 17 16  1  0  0  0  0
 18  8  2  0  0  0  0
 18 19  1  0  0  0  0
 20 21  1  0  0  0  0
 22 13  1  0  0  0  0
 22 33  2  0  0  0  0
 23 22  1  0  0  0  0
 24 26  1  0  0  0  0
 25 24  1  0  0  0  0
 27 24  1  0  0  0  0
 28 29  1  0  0  0  0
 28 30  1  0  0  0  0
 31 20  2  0  0  0  0
 31 32  1  0  0  0  0
 33 31  1  0  0  0  0
 34 33  1  0  0  0  0
 35 18  1  0  0  0  0
 36 35  1  0  0  0  0
M  END
