3,7
q = 0.0, confidence = 0.98

 30 30  0  0  0  0  0  0  0  0999 V2000
    5.9168   -1.7468   -0.8899 Cl  0  0  0  0  0  0  0  0  0  0  0  0
    3.3868    1.7274    2.4380 Cl  0  0  0  0  0  0  0  0  0  0  0  0
   -0.2894   -0.1973   -1.4192 N   0  0  0  0  0  2  0  0  0  0  0  0
   -3.2619   -3.0653   -0.0701 N   0  3  0  0  0  0  0  0  0  0  0  0
   -3.6536   -2.3492    0.6758 H   0  0  0  0  0  0  0  0  0  0  0  0
   -4.0327   -3.2292   -0.7394 H   0  0  0  0  0  0  0  0  0  0  0  0
    1.0588    1.1777    0.7855 O   0  5  0  0  0  0  0  0  0  0  0  0
    2.0770    0.5177    0.3792 C   0  0  0  0  0  0  0  0  0  0  0  0
    3.3447    0.6546    1.0723 C   0  0  0  0  0  0  0  0  0  0  0  0
    4.4928   -0.0255    0.6908 C   0  0  0  0  0  0  0  0  0  0  0  0
    5.4254    0.1175    1.2530 H   0  0  0  0  0  0  0  0  0  0  0  0
    4.4580   -0.9001   -0.4236 C   0  0  0  0  0  0  0  0  0  0  0  0
    3.2814   -1.0787   -1.1316 C   0  0  0  0  0  0  0  0  0  0  0  0
    3.2629   -1.7576   -1.9975 H   0  0  0  0  0  0  0  0  0  0  0  0
    2.0874   -0.3941   -0.7549 C   0  0  0  0  0  0  0  0  0  0  0  0
    0.9251   -0.6660   -1.5551 C   0  0  0  0  0  3  0  0  0  0  0  0
    1.1036   -1.3749   -2.3973 H   0  0  0  0  0  0  0  0  0  0  0  0
   -1.3076   -0.6342   -2.3633 C   0  0  0  0  0  0  0  0  0  0  0  0
   -0.8664   -1.3366   -3.1108 H   0  0  0  0  0  0  0  0  0  0  0  0
   -1.7030    0.2553   -2.8943 H   0  0  0  0  0  0  0  0  0  0  0  0
   -2.5059   -1.2812   -1.6518 C   0  0  0  0  0  0  0  0  0  0  0  0
   -2.9896   -0.4917   -1.0403 H   0  0  0  0  0  0  0  0  0  0  0  0
   -3.2381   -1.5979   -2.4268 H   0  0  0  0  0  0  0  0  0  0  0  0
   -2.0942   -2.4676   -0.7943 C   0  0  0  0  0  0  0  0  0  0  0  0
   -1.6298   -3.2753   -1.3995 H   0  0  0  0  0  0  0  0  0  0  0  0
   -1.3672   -2.1579   -0.0179 H   0  0  0  0  0  0  0  0  0  0  0  0
   -2.9567   -4.3044    0.6860 C   0  0  0  0  0  0  0  0  0  0  0  0
   -2.5567   -5.0797    0.0065 H   0  0  0  0  0  0  0  0  0  0  0  0
   -3.8771   -4.6639    1.1808 H   0  0  0  0  0  0  0  0  0  0  0  0
   -2.2112   -4.0563    1.4632 H   0  0  0  0  0  0  0  0  0  0  0  0
  1 12  1  0  0  0  0
  4  5  1  0  0  0  0
  4 27  1  0  0  0  0
  6  4  1  0  0  0  0
  8  7  1  0  0  0  0
  8  9  1  0  0  0  0
  9  2  1  0  0  0  0
 10  9  2  0  0  0  0
 10 11  1  0  0  0  0
 12 10  1  0  0  0  0
 13 15  1  0  0  0  0
 13 12  2  0  0  0  0
 14 13  1  0  0  0  0
 15  8  2  0  0  0  0
 16  3  1  0  0  0  0
 16 15  1  0  0  0  0
 17 16  1  0  0  0  0
 18 21  1  0  0  0  0
 18  3  1  0  0  0  0
 19 18  1  0  0  0  0
 20 18  1  0  0  0  0
 21 22  1  0  0  0  0
 21 24  1  0  0  0  0
 23 21  1  0  0  0  0
 24  4  1  0  0  0  0
 24 26  1  0  0  0  0
 25 24  1  0  0  0  0
 27 29  1  0  0  0  0
 27 30  1  0  0  0  0
 28 27  1  0  0  0  0
M  CHG  2   4   1   7  -1
M  END
