2,4
q = -1.0, confidence = 0.032

 42 44  0  0  1  0  0  0  0  0999 V2000
    6.4663    0.9965   -1.5878 Cl  0  0  0  0  0  0  0  0  0  0  0  0
   -1.3025    1.6929   -0.6421 O   0  0  0  0  0  1  0  0  0  0  0  0
    3.7999    3.5297    0.4701 O   0  0  0  0  0  0  0  0  0  0  0  0
   -0.6946   -0.6222    0.9849 N   0  0  0  0  0  2  0  0  0  0  0  0
    0.9429   -2.7219   -0.0227 N   0  0  0  0  0  0  0  0  0  0  0  0
    0.7619   -2.1379   -0.8537 H   0  0  0  0  0  0  0  0  0  0  0  0
    4.7279   -2.3248    1.8745 N   0  0  0  0  0  0  0  0  0  0  0  0
    0.4073    0.0794    1.1545 C   0  0  0  0  0  0  0  0  0  0  0  0
    1.1396   -0.3317    1.8765 H   0  0  0  0  0  0  0  0  0  0  0  0
    0.7939    1.3050    0.5324 C   0  0  0  0  0  0  0  0  0  0  0  0
   -0.0834    2.0524   -0.3221 C   0  0  2  0  0  3  0  0  0  0  0  0
    0.4012    3.2960   -0.8299 C   0  0  0  0  0  0  0  0  0  0  0  0
   -0.2740    3.8766   -1.4745 H   0  0  0  0  0  0  0  0  0  0  0  0
    1.6824    3.7424   -0.5491 C   0  0  0  0  0  0  0  0  0  0  0  0
    2.0562    4.6896   -0.9664 H   0  0  0  0  0  0  0  0  0  0  0  0
    2.5627    2.9905    0.2795 C   0  0  0  0  0  0  0  0  0  0  0  0
    2.1075    1.7932    0.8236 C   0  0  0  0  0  0  0  0  0  0  0  0
    2.7557    1.1756    1.4606 H   0  0  0  0  0  0  0  0  0  0  0  0
    4.6935    2.8388    1.3231 C   0  0  0  0  0  0  0  0  0  0  0  0
    4.2951    2.7645    2.3611 H   0  0  0  0  0  0  0  0  0  0  0  0
    5.6318    3.4232    1.3358 H   0  0  0  0  0  0  0  0  0  0  0  0
    4.9141    1.8142    0.9524 H   0  0  0  0  0  0  0  0  0  0  0  0
   -0.7176   -1.9243    1.6521 C   0  0  0  0  0  0  0  0  0  0  0  0
   -1.7290   -2.1416    2.0454 H   0  0  0  0  0  0  0  0  0  0  0  0
   -0.0204   -1.9060    2.5168 H   0  0  0  0  0  0  0  0  0  0  0  0
   -0.2824   -3.0438    0.6715 C   0  0  0  0  0  0  0  0  0  0  0  0
   -0.2006   -4.0015    1.2280 H   0  0  0  0  0  0  0  0  0  0  0  0
   -1.0640   -3.1729   -0.1024 H   0  0  0  0  0  0  0  0  0  0  0  0
    2.1561   -2.5876    0.5988 C   0  0  0  0  0  0  0  0  0  0  0  0
    2.4660   -3.2259    1.8128 C   0  0  0  0  0  0  0  0  0  0  0  0
    1.7327   -3.8714    2.3160 H   0  0  0  0  0  0  0  0  0  0  0  0
    3.7506   -3.0660    2.3798 C   0  0  0  0  0  0  0  0  0  0  0  0
    3.9771   -3.5955    3.3248 H   0  0  0  0  0  0  0  0  0  0  0  0
    4.4498   -1.6626    0.7099 C   0  0  0  0  0  0  0  0  0  0  0  0
    5.4676   -0.8186    0.1752 C   0  0  0  0  0  0  0  0  0  0  0  0
    6.4244   -0.7690    0.7117 H   0  0  0  0  0  0  0  0  0  0  0  0
    5.2309   -0.0792   -0.9744 C   0  0  0  0  0  0  0  0  0  0  0  0
    3.9857   -0.1416   -1.6486 C   0  0  0  0  0  0  0  0  0  0  0  0
    3.8148    0.4791   -2.5384 H   0  0  0  0  0  0  0  0  0  0  0  0
    2.9861   -0.9664   -1.1521 C   0  0  0  0  0  0  0  0  0  0  0  0
    2.0130   -0.9625   -1.6678 H   0  0  0  0  0  0  0  0  0  0  0  0
    3.1861   -1.7485    0.0195 C   0  0  0  0  0  0  0  0  0  0  0  0
  1 37  1  0  0  0  0
  3 19  1  0  0  0  0
  4  8  1  0  0  0  0
  4 23  1  0  0  0  0
  5 29  1  0  0  0  0
  5 26  1  0  0  0  0
  6  5  1  0  0  0  0
  7 32  1  0  0  0  0
  8  9  1  0  0  0  0
 10 17  1  0  0  0  0
 10  8  2  0  0  0  0
 11  2  1  1  0  0  0
 11 10  1  0  0  0  0
 12 14  2  0  0  0  0
 12 11  1  0  0  0  0
 13 12  1  0  0  0  0
 14 16  1  0  0  0  0
 15 14  1  0  0  0  0
 16  3  1  0  0  0  0
 16 17  2  0  0  0  0
 17 18  1  0  0  0  0
 19 21  1  0  0  0  0
 19 20  1  0  0  0  0
 22 19  1  0  0  0  0
 23 24  1  0  0  0  0
 23 25  1  0  0  0  0
 26 27  1  0  0  0  0
 26 23  1  0  0  0  0
 28 26  1  0  0  0  0
 29 30  1  0  0  0  0
 30 31  1  0  0  0  0
 30 32  2  0  0  0  0
 32 33  1  0  0  0  0
 34  7  2  0  0  0  0
 35 34  1  0  0  0  0
 35 36  1  0  0  0  0
 37 35  2  0  0  0  0
 38 40  2  0  0  0  0
 38 37  1  0  0  0  0
 39 38  1  0  0  0  0
 40 42  1  0  0  0  0
 41 40  1  0  0  0  0
 42 29  2  0  0  0  0
 42 34  1  0  0  0  0
M  END
