3,6
q = -1.0, confidence = 0.002

 38 40  0  0  1  0  0  0  0  0999 V2000
   -6.2144    1.0180   -1.4213 Cl  0  0  0  0  0  0  0  0  0  0  0  0
   -4.0625    3.2793    0.6665 Cl  0  0  0  0  0  0  0  0  0  0  0  0
    1.4712    1.6838   -0.6257 O   0  0  0  0  0  1  0  0  0  0  0  0
   -4.3790   -2.3892    1.9062 N   0  0  0  0  0  0  0  0  0  0  0  0
   -0.6774   -2.7927   -0.1492 N   0  0  0  0  0  0  0  0  0  0  0  0
    0.9493   -0.7141    0.9264 N   0  0  0  0  0  2  0  0  0  0  0  0
   -4.9640   -0.0648   -0.8639 C   0  0  0  0  0  0  0  0  0  0  0  0
   -3.7551   -0.1475   -1.6010 C   0  0  0  0  0  0  0  0  0  0  0  0
   -2.7513   -1.0035   -1.1707 C   0  0  0  0  0  0  0  0  0  0  0  0
   -2.9108   -1.8023   -0.0039 C   0  0  0  0  0  0  0  0  0  0  0  0
   -4.1382   -1.7007    0.7478 C   0  0  0  0  0  0  0  0  0  0  0  0
   -5.1582   -0.8188    0.2838 C   0  0  0  0  0  0  0  0  0  0  0  0
   -3.4022   -3.1713    2.3442 C   0  0  0  0  0  0  0  0  0  0  0  0
   -2.1461   -3.3417    1.7176 C   0  0  0  0  0  0  0  0  0  0  0  0
   -1.8725   -2.6697    0.5140 C   0  0  0  0  0  0  0  0  0  0  0  0
    0.5660   -3.1250    0.5061 C   0  0  0  0  0  0  0  0  0  0  0  0
    1.0054   -2.0447    1.5300 C   0  0  0  0  0  0  0  0  0  0  0  0
   -0.1620   -0.0492    1.1366 C   0  0  0  0  0  0  0  0  0  0  0  0
   -0.5912    1.1867    0.5575 C   0  0  0  0  0  0  0  0  0  0  0  0
   -1.9165    1.6114    0.8602 C   0  0  0  0  0  0  0  0  0  0  0  0
   -2.4154    2.7983    0.3445 C   0  0  0  0  0  0  0  0  0  0  0  0
   -1.5880    3.6186   -0.4619 C   0  0  0  0  0  0  0  0  0  0  0  0
   -0.2865    3.2315   -0.7544 C   0  0  0  0  0  0  0  0  0  0  0  0
    0.2512    1.9929   -0.2856 C   0  0  1  0  0  3  0  0  0  0  0  0
   -3.6168    0.4808   -2.4912 H   0  0  0  0  0  0  0  0  0  0  0  0
   -1.8074   -1.0153   -1.7374 H   0  0  0  0  0  0  0  0  0  0  0  0
   -6.0848   -0.7553    0.8690 H   0  0  0  0  0  0  0  0  0  0  0  0
   -3.6015   -3.7256    3.2811 H   0  0  0  0  0  0  0  0  0  0  0  0
   -1.4059   -4.0165    2.1700 H   0  0  0  0  0  0  0  0  0  0  0  0
    0.3219   -2.0779    2.4053 H   0  0  0  0  0  0  0  0  0  0  0  0
    2.0248   -2.2663    1.8986 H   0  0  0  0  0  0  0  0  0  0  0  0
   -0.8775   -0.5017    1.8510 H   0  0  0  0  0  0  0  0  0  0  0  0
   -2.5600    0.9704    1.4809 H   0  0  0  0  0  0  0  0  0  0  0  0
   -1.9928    4.5599   -0.8615 H   0  0  0  0  0  0  0  0  0  0  0  0
    0.3596    3.8574   -1.3863 H   0  0  0  0  0  0  0  0  0  0  0  0
   -0.5188   -2.1768   -0.9608 H   0  0  0  0  0  0  0  0  0  0  0  0
    1.3331   -3.2093   -0.2883 H   0  0  0  0  0  0  0  0  0  0  0  0
    0.5100   -4.1065    1.0234 H   0  0  0  0  0  0  0  0  0  0  0  0
  1  7  1  0  0  0  0
  4 13  1  0  0  0  0
  5 16  1  0  0  0  0
  5 15  1  0  0  0  0
  6 18  1  0  0  0  0
  6 17  1  0  0  0  0
  7 12  2  0  0  0  0
  8  9  2  0  0  0  0
  8  7  1  0  0  0  0
  9 10  1  0  0  0  0
 10 15  2  0  0  0  0
 10 11  1  0  0  0  0
 11  4  2  0  0  0  0
 12 11  1  0  0  0  0
 12 27  1  0  0  0  0
 13 28  1  0  0  0  0
 14 29  1  0  0  0  0
 14 13  2  0  0  0  0
 15 14  1  0  0  0  0
 16 38  1  0  0  0  0
 16 17  1  0  0  0  0
 17 31  1  0  0  0  0
 17 30  1  0  0  0  0
 18 32  1  0  0  0  0
 19 20  1  0  0  0  0
 19 18  2  0  0  0  0
 20 33  1  0  0  0  0
 21  2  1  0  0  0  0
 21 20  2  0  0  0  0
 22 21  1  0  0  0  0
 23 22  2  0  0  0  0
 23 24  1  0  0  0  0
 24  3  1  1  0  0  0
 24 19  1  0  0  0  0
 25  8  1  0  0  0  0
 26  9  1  0  0  0  0
 34 22  1  0  0  0  0
 35 23  1  0  0  0  0
 36  5  1  0  0  0  0
 37 16  1  0  0  0  0
M  END
