24,25
q = -1.0

 37 37  0  0  1  0  0  0  0  0999 V2000
    2.5838   -2.0522   -0.7167 C   0  0  0  0  0  0  0  0  0  0  0  0
    2.8207   -0.5439   -0.4374 C   0  0  0  0  0  0  0  0  0  0  0  0
    2.0110    0.3396    0.3330 C   0  0  0  0  0  0  0  0  0  0  0  0
    2.4586   -2.2577   -2.2469 C   0  0  0  0  0  0  0  0  0  0  0  0
    1.5847   -1.7130   -2.6564 H   0  0  0  0  0  0  0  0  0  0  0  0
    2.3269   -3.3345   -2.4793 H   0  0  0  0  0  0  0  0  0  0  0  0
    3.3544   -1.9025   -2.7925 H   0  0  0  0  0  0  0  0  0  0  0  0
    3.8089   -2.8529   -0.2097 C   0  0  0  0  0  0  0  0  0  0  0  0
    4.7497   -2.5518   -0.7101 H   0  0  0  0  0  0  0  0  0  0  0  0
    3.6583   -3.9359   -0.3977 H   0  0  0  0  0  0  0  0  0  0  0  0
    3.9494   -2.7156    0.8818 H   0  0  0  0  0  0  0  0  0  0  0  0
    2.3982    1.6892    0.5150 C   0  0  0  0  0  0  0  0  0  0  0  0
    1.7221    2.3178    1.1160 H   0  0  0  0  0  0  0  0  0  0  0  0
    1.3354   -2.6722   -0.0595 C   0  0  0  0  0  0  0  0  0  0  0  0
    1.2172   -3.7100   -0.4334 H   0  0  0  0  0  0  0  0  0  0  0  0
    0.4124   -2.1131   -0.2877 H   0  0  0  0  0  0  0  0  0  0  0  0
    1.4192   -2.7302    1.0415 H   0  0  0  0  0  0  0  0  0  0  0  0
    3.9871    0.0210   -1.0132 C   0  0  0  0  0  0  0  0  0  0  0  0
    4.6376   -0.6234   -1.6230 H   0  0  0  0  0  0  0  0  0  0  0  0
    3.5633    2.2015   -0.0575 C   0  0  0  0  0  0  0  0  0  0  0  0
    3.8405    3.2546    0.1030 H   0  0  0  0  0  0  0  0  0  0  0  0
    4.3642    1.3560   -0.8404 C   0  0  0  0  0  0  0  0  0  0  0  0
    5.2856    1.7301   -1.3117 H   0  0  0  0  0  0  0  0  0  0  0  0
    0.7784   -0.0254    0.9640 N   0  0  0  0  0  2  0  0  0  0  0  0
   -2.0777   -0.4115    1.3998 O   0  5  0  0  0  0  0  0  0  0  0  0
    0.8213   -0.5241    2.1989 C   0  0  1  0  0  3  0  0  0  0  0  0
   -1.6457   -0.9357    2.4942 C   0  0  0  0  0  0  0  0  0  0  0  0
   -0.3168   -0.9516    2.9309 C   0  0  0  0  0  0  0  0  0  0  0  0
   -0.1245   -1.3908    3.9177 H   0  0  0  0  0  0  0  0  0  0  0  0
    2.1647   -0.6762    2.8805 C   0  0  0  0  0  0  0  0  0  0  0  0
    2.6386    0.3191    3.0006 H   0  0  0  0  0  0  0  0  0  0  0  0
    2.8698   -1.2821    2.2787 H   0  0  0  0  0  0  0  0  0  0  0  0
    2.0531   -1.1406    3.8762 H   0  0  0  0  0  0  0  0  0  0  0  0
   -2.7260   -1.5846    3.3295 C   0  0  0  0  0  0  0  0  0  0  0  0
   -3.2438   -2.3624    2.7311 H   0  0  0  0  0  0  0  0  0  0  0  0
   -3.4880   -0.8245    3.5980 H   0  0  0  0  0  0  0  0  0  0  0  0
   -2.3284   -2.0433    4.2531 H   0  0  0  0  0  0  0  0  0  0  0  0
  1  2  1  0  0  0  0
  1  8  1  0  0  0  0
  1 14  1  0  0  0  0
  2  3  1  0  0  0  0
  3 12  2  0  0  0  0
  3 24  1  0  0  0  0
  4  1  1  0  0  0  0
  5  4  1  0  0  0  0
  6  4  1  0  0  0  0
  7  4  1  0  0  0  0
  8 11  1  0  0  0  0
  9  8  1  0  0  0  0
 10  8  1  0  0  0  0
 12 13  1  0  0  0  0
 14 17  1  0  0  0  0
 15 14  1  0  0  0  0
 16 14  1  0  0  0  0
 18 22  1  0  0  0  0
 18  2  2  0  0  0  0
 19 18  1  0  0  0  0
 20 21  1  0  0  0  0
 20 12  1  0  0  0  0
 22 20  2  0  0  0  0
 23 22  1  0  0  0  0
 25 27  1  0  0  0  0
 26 24  1  6  0  0  0
 26 30  1  0  0  0  0
 26 28  1  0  0  0  0
 27 28  2  0  0  0  0
 27 34  1  0  0  0  0
 28 29  1  0  0  0  0
 30 31  1  0  0  0  0
 30 33  1  0  0  0  0
 32 30  1  0  0  0  0
 34 36  1  0  0  0  0
 34 37  1  0  0  0  0
 35 34  1  0  0  0  0
M  CHG  1  25  -1
M  END
