1,7
q = -1.0

 23 22  0  0  0  0  0  0  0  0999 V2000
    0.0063    1.7964   -0.9054 O   0  5  0  0  0  0  0  0  0  0  0  0
    1.1895    3.7275   -0.9362 O   0  0  0  0  0  0  0  0  0  0  0  0
   -0.1759    0.5439    2.1975 O   0  0  0  0  0  0  0  0  0  0  0  0
   -0.1030   -0.4422    2.2874 H   0  0  0  0  0  0  0  0  0  0  0  0
    4.9142   -1.7025   -0.8283 O   0  0  0  0  0  0  0  0  0  0  0  0
    5.8771   -1.7256   -0.6917 H   0  0  0  0  0  0  0  0  0  0  0  0
    2.1220    0.4314    0.3780 N   0  0  0  0  0  0  0  0  0  0  0  0
    1.0781    2.5303   -0.7136 C   0  0  0  0  0  0  0  0  0  0  0  0
    2.3486    1.7573   -0.2425 C   0  0  0  0  0  0  0  0  0  0  0  0
    2.9617    1.6257   -1.1579 H   0  0  0  0  0  0  0  0  0  0  0  0
    2.9299    2.4306    0.4220 H   0  0  0  0  0  0  0  0  0  0  0  0
    2.2483    0.4440    1.8493 C   0  0  0  0  0  0  0  0  0  0  0  0
    3.1969    0.9305    2.1779 H   0  0  0  0  0  0  0  0  0  0  0  0
    2.2841   -0.6138    2.1852 H   0  0  0  0  0  0  0  0  0  0  0  0
    1.0756    1.1385    2.5400 C   0  0  0  0  0  0  0  0  0  0  0  0
    1.2412    1.1131    3.6406 H   0  0  0  0  0  0  0  0  0  0  0  0
    1.0044    2.2048    2.2413 H   0  0  0  0  0  0  0  0  0  0  0  0
    2.8737   -0.6770   -0.2514 C   0  0  0  0  0  0  0  0  0  0  0  0
    2.6419   -0.6754   -1.3355 H   0  0  0  0  0  0  0  0  0  0  0  0
    2.4734   -1.6307    0.1499 H   0  0  0  0  0  0  0  0  0  0  0  0
    4.3908   -0.6316   -0.0686 C   0  0  0  0  0  0  0  0  0  0  0  0
    4.7824    0.3603   -0.4089 H   0  0  0  0  0  0  0  0  0  0  0  0
    4.6458   -0.7227    1.0165 H   0  0  0  0  0  0  0  0  0  0  0  0
  1  8  1  0  0  0  0
  2  8  2  0  0  0  0
  3  4  1  0  0  0  0
  3 15  1  0  0  0  0
  5  6  1  0  0  0  0
  5 21  1  0  0  0  0
  7 12  1  0  0  0  0
  8  9  1  0  0  0  0
  9  7  1  0  0  0  0
  9 11  1  0  0  0  0
 10  9  1  0  0  0  0
 12 13  1  0  0  0  0
 12 14  1  0  0  0  0
 12 15  1  0  0  0  0
 15 16  1  0  0  0  0
 17 15  1  0  0  0  0
 18 21  1  0  0  0  0
 18 20  1  0  0  0  0
 18  7  1  0  0  0  0
 19 18  1  0  0  0  0
 21 23  1  0  0  0  0
 22 21  1  0  0  0  0
M  CHG  1   1  -1
M  END
