1,2
q = -1.0

 39 40  0  0  0  0  0  0  0  0999 V2000
   -1.3540   -1.8297   -0.0731 O   0  5  0  0  0  0  0  0  0  0  0  0
    0.1639    0.5723   -0.4478 N   0  0  0  0  0  2  0  0  0  0  0  0
   -1.0566    1.0578   -0.4396 C   0  0  0  0  0  3  0  0  0  0  0  0
   -1.1211    2.1369   -0.6705 H   0  0  0  0  0  0  0  0  0  0  0  0
    1.2436    1.5468   -0.6362 C   0  0  0  0  0  0  0  0  0  0  0  0
    0.8545    2.4189   -1.2097 H   0  0  0  0  0  0  0  0  0  0  0  0
    2.0331    1.0932   -1.2649 H   0  0  0  0  0  0  0  0  0  0  0  0
    1.8306    2.0367    0.6948 C   0  0  0  0  0  0  0  0  0  0  0  0
    2.0787    1.1569    1.3250 H   0  0  0  0  0  0  0  0  0  0  0  0
    1.0265    2.5661    1.2472 H   0  0  0  0  0  0  0  0  0  0  0  0
    3.0478    2.9528    0.5242 C   0  0  0  0  0  0  0  0  0  0  0  0
    2.8026    3.7817   -0.1789 H   0  0  0  0  0  0  0  0  0  0  0  0
    3.2601    3.4437    1.4984 H   0  0  0  0  0  0  0  0  0  0  0  0
    4.3224    2.2470    0.0471 C   0  0  0  0  0  0  0  0  0  0  0  0
    4.5673    1.4247    0.7581 H   0  0  0  0  0  0  0  0  0  0  0  0
    4.1453    1.7545   -0.9362 H   0  0  0  0  0  0  0  0  0  0  0  0
    5.5345    3.1745   -0.0834 C   0  0  0  0  0  0  0  0  0  0  0  0
    5.2869    3.9977   -0.7901 H   0  0  0  0  0  0  0  0  0  0  0  0
    5.7189    3.6687    0.8963 H   0  0  0  0  0  0  0  0  0  0  0  0
    6.8026    2.4581   -0.5480 C   0  0  0  0  0  0  0  0  0  0  0  0
    6.6580    1.9848   -1.5421 H   0  0  0  0  0  0  0  0  0  0  0  0
    7.0934    1.6535    0.1595 H   0  0  0  0  0  0  0  0  0  0  0  0
    7.6614    3.1539   -0.6325 H   0  0  0  0  0  0  0  0  0  0  0  0
   -2.3031    0.3990   -0.2187 C   0  0  0  0  0  0  0  0  0  0  0  0
   -2.3717   -1.0279   -0.1043 C   0  0  0  0  0  0  0  0  0  0  0  0
   -3.6692   -1.6576   -0.0595 C   0  0  0  0  0  0  0  0  0  0  0  0
   -3.6830   -2.7554   -0.0016 H   0  0  0  0  0  0  0  0  0  0  0  0
   -4.8242   -0.9174   -0.0656 C   0  0  0  0  0  0  0  0  0  0  0  0
   -5.8024   -1.4222   -0.0149 H   0  0  0  0  0  0  0  0  0  0  0  0
   -4.8008    0.5148   -0.1200 C   0  0  0  0  0  0  0  0  0  0  0  0
   -6.0079    1.2625   -0.0974 C   0  0  0  0  0  0  0  0  0  0  0  0
   -6.9612    0.7130   -0.0450 H   0  0  0  0  0  0  0  0  0  0  0  0
   -5.9957    2.6516   -0.1347 C   0  0  0  0  0  0  0  0  0  0  0  0
   -6.9364    3.2215   -0.1151 H   0  0  0  0  0  0  0  0  0  0  0  0
   -4.7531    3.3236   -0.1856 C   0  0  0  0  0  0  0  0  0  0  0  0
   -4.7254    4.4241   -0.1981 H   0  0  0  0  0  0  0  0  0  0  0  0
   -3.5568    2.6114   -0.2086 C   0  0  0  0  0  0  0  0  0  0  0  0
   -2.6183    3.1831   -0.2201 H   0  0  0  0  0  0  0  0  0  0  0  0
   -3.5300    1.1874   -0.1900 C   0  0  0  0  0  0  0  0  0  0  0  0
  2  3  1  0  0  0  0
  3 24  1  0  0  0  0
  4  3  1  0  0  0  0
  5  2  1  0  0  0  0
  5  8  1  0  0  0  0
  6  5  1  0  0  0  0
  7  5  1  0  0  0  0
  8 10  1  0  0  0  0
  8  9  1  0  0  0  0
 11  8  1  0  0  0  0
 11 13  1  0  0  0  0
 12 11  1  0  0  0  0
 14 11  1  0  0  0  0
 14 15  1  0  0  0  0
 16 14  1  0  0  0  0
 17 14  1  0  0  0  0
 17 19  1  0  0  0  0
 18 17  1  0  0  0  0
 20 17  1  0  0  0  0
 20 22  1  0  0  0  0
 21 20  1  0  0  0  0
 23 20  1  0  0  0  0
 24 39  2  0  0  0  0
 24 25  1  0  0  0  0
 25  1  1  0  0  0  0
 25 26  2  0  0  0  0
 26 27  1  0  0  0  0
 28 26  1  0  0  0  0
 28 29  1  0  0  0  0
 30 31  1  0  0  0  0
 30 28  2  0  0  0  0
 31 32  1  0  0  0  0
 33 34  1  0  0  0  0
 33 31  2  0  0  0  0
 35 33  1  0  0  0  0
 36 35  1  0  0  0  0
 37 39  1  0  0  0  0
 37 35  2  0  0  0  0
 38 37  1  0  0  0  0
 39 30  1  0  0  0  0
M  CHG  1   1  -1
M  END
