4,5
q = -1.0

 31 33  0  0  0  0  0  0  0  0999 V2000
   -0.6469   -1.5558    2.7185 Cl  0  0  0  0  0  0  0  0  0  0  0  0
   -5.3595   -2.7323    0.3191 Cl  0  0  0  0  0  0  0  0  0  0  0  0
   -4.4082   -1.1874   -2.3061 Cl  0  0  0  0  0  0  0  0  0  0  0  0
    2.0598    1.8372   -0.0045 O   0  5  0  0  0  0  0  0  0  0  0  0
    0.0366   -0.1630    0.0664 N   0  0  0  0  0  2  0  0  0  0  0  0
    2.8616    0.8236   -0.0730 C   0  0  0  0  0  0  0  0  0  0  0  0
    4.2696    1.1415   -0.0812 C   0  0  0  0  0  0  0  0  0  0  0  0
    4.5334    2.2075   -0.0328 H   0  0  0  0  0  0  0  0  0  0  0  0
    5.2241    0.1610   -0.1647 C   0  0  0  0  0  0  0  0  0  0  0  0
    6.2918    0.4330   -0.1822 H   0  0  0  0  0  0  0  0  0  0  0  0
    4.8770   -1.2287   -0.2428 C   0  0  0  0  0  0  0  0  0  0  0  0
    5.8860   -2.2224   -0.3436 C   0  0  0  0  0  0  0  0  0  0  0  0
    6.9387   -1.8987   -0.3553 H   0  0  0  0  0  0  0  0  0  0  0  0
    5.5613   -3.5711   -0.4292 C   0  0  0  0  0  0  0  0  0  0  0  0
    6.3498   -4.3338   -0.5083 H   0  0  0  0  0  0  0  0  0  0  0  0
    4.1998   -3.9483   -0.4210 C   0  0  0  0  0  0  0  0  0  0  0  0
    3.9248   -5.0113   -0.4985 H   0  0  0  0  0  0  0  0  0  0  0  0
    3.1936   -2.9901   -0.3228 C   0  0  0  0  0  0  0  0  0  0  0  0
    2.1517   -3.3388   -0.3377 H   0  0  0  0  0  0  0  0  0  0  0  0
    3.4882   -1.6016   -0.2228 C   0  0  0  0  0  0  0  0  0  0  0  0
    2.4683   -0.5592   -0.1137 C   0  0  0  0  0  0  0  0  0  0  0  0
    1.1034   -0.9365   -0.0073 C   0  0  0  0  0  3  0  0  0  0  0  0
    0.8901   -2.0182    0.0301 H   0  0  0  0  0  0  0  0  0  0  0  0
   -1.2287   -0.8037    0.1435 C   0  0  0  0  0  0  0  0  0  0  0  0
   -1.6661   -1.4842    1.3028 C   0  0  0  0  0  0  0  0  0  0  0  0
   -2.9368   -2.0779    1.3488 C   0  0  0  0  0  0  0  0  0  0  0  0
   -3.2691   -2.5985    2.2562 H   0  0  0  0  0  0  0  0  0  0  0  0
   -3.7908   -1.9984    0.2393 C   0  0  0  0  0  0  0  0  0  0  0  0
   -3.3651   -1.3162   -0.9265 C   0  0  0  0  0  0  0  0  0  0  0  0
   -2.0950   -0.7299   -0.9636 C   0  0  0  0  0  0  0  0  0  0  0  0
   -1.7400   -0.1791   -1.8502 H   0  0  0  0  0  0  0  0  0  0  0  0
  3 29  1  0  0  0  0
  5 24  1  0  0  0  0
  6  4  1  0  0  0  0
  7  6  1  0  0  0  0
  7  8  1  0  0  0  0
  9  7  2  0  0  0  0
 10  9  1  0  0  0  0
 11 20  1  0  0  0  0
 11  9  1  0  0  0  0
 12 11  2  0  0  0  0
 13 12  1  0  0  0  0
 14 16  2  0  0  0  0
 14 12  1  0  0  0  0
 15 14  1  0  0  0  0
 16 18  1  0  0  0  0
 17 16  1  0  0  0  0
 18 20  2  0  0  0  0
 19 18  1  0  0  0  0
 20 21  1  0  0  0  0
 21  6  2  0  0  0  0
 21 22  1  0  0  0  0
 22 23  1  0  0  0  0
 22  5  1  0  0  0  0
 24 25  1  0  0  0  0
 25 26  2  0  0  0  0
 25  1  1  0  0  0  0
 26 27  1  0  0  0  0
 28  2  1  0  0  0  0
 28 26  1  0  0  0  0
 29 28  2  0  0  0  0
 30 29  1  0  0  0  0
 30 24  2  0  0  0  0
 31 30  1  0  0  0  0
M  CHG  1   4  -1
M  END
