1,2
q = -1.0

 27 26  0  0  0  0  0  0  0  0999 V2000
   -2.0960   -0.1356   -0.1345 N   0  0  0  0  0  0  0  0  0  0  0  0
   -0.2113    1.4762   -1.3657 O   0  5  0  0  0  0  0  0  0  0  0  0
   -1.7222    2.3206   -2.8019 O   0  0  0  0  0  0  0  0  0  0  0  0
   -0.9267   -2.3110   -1.7453 O   0  0  0  0  0  0  0  0  0  0  0  0
   -1.9406   -3.7929   -0.3752 O   0  0  0  0  0  0  0  0  0  0  0  0
   -1.4057   -4.3992   -0.9326 H   0  0  0  0  0  0  0  0  0  0  0  0
   -1.3925    1.5106   -1.9471 C   0  0  0  0  0  0  0  0  0  0  0  0
   -2.3570    0.3860   -1.5152 C   0  0  0  0  0  0  0  0  0  0  0  0
   -3.4069    0.7208   -1.6347 H   0  0  0  0  0  0  0  0  0  0  0  0
   -2.1782   -0.4486   -2.2193 H   0  0  0  0  0  0  0  0  0  0  0  0
   -2.4995   -1.5522   -0.0105 C   0  0  0  0  0  0  0  0  0  0  0  0
   -3.5608   -1.6939   -0.3151 H   0  0  0  0  0  0  0  0  0  0  0  0
   -2.4150   -1.8623    1.0458 H   0  0  0  0  0  0  0  0  0  0  0  0
   -1.6777   -2.5466   -0.8158 C   0  0  0  0  0  0  0  0  0  0  0  0
   -2.7850    0.7207    0.9644 C   0  0  0  0  0  0  0  0  0  0  0  0
   -2.4928    2.2078    0.7139 C   0  0  0  0  0  0  0  0  0  0  0  0
   -2.9410    2.7899    1.5421 H   0  0  0  0  0  0  0  0  0  0  0  0
   -2.9279    2.5844   -0.2309 H   0  0  0  0  0  0  0  0  0  0  0  0
   -1.4046    2.3994    0.7089 H   0  0  0  0  0  0  0  0  0  0  0  0
   -4.3089    0.4908    0.9453 C   0  0  0  0  0  0  0  0  0  0  0  0
   -4.5924   -0.5255    1.2810 H   0  0  0  0  0  0  0  0  0  0  0  0
   -4.7507    0.6715   -0.0551 H   0  0  0  0  0  0  0  0  0  0  0  0
   -4.7835    1.2068    1.6434 H   0  0  0  0  0  0  0  0  0  0  0  0
   -2.2143    0.3482    2.3413 C   0  0  0  0  0  0  0  0  0  0  0  0
   -1.1316    0.5708    2.3901 H   0  0  0  0  0  0  0  0  0  0  0  0
   -2.3546   -0.7175    2.6037 H   0  0  0  0  0  0  0  0  0  0  0  0
   -2.7352    0.9499    3.1117 H   0  0  0  0  0  0  0  0  0  0  0  0
  1 11  1  0  0  0  0
  1 15  1  0  0  0  0
  3  7  2  0  0  0  0
  4 14  2  0  0  0  0
  6  5  1  0  0  0  0
  7  8  1  0  0  0  0
  7  2  1  0  0  0  0
  8  1  1  0  0  0  0
  9  8  1  0  0  0  0
 10  8  1  0  0  0  0
 11 13  1  0  0  0  0
 12 11  1  0  0  0  0
 14  5  1  0  0  0  0
 14 11  1  0  0  0  0
 15 24  1  0  0  0  0
 16 15  1  0  0  0  0
 16 17  1  0  0  0  0
 18 16  1  0  0  0  0
 19 16  1  0  0  0  0
 20 15  1  0  0  0  0
 20 21  1  0  0  0  0
 20 23  1  0  0  0  0
 22 20  1  0  0  0  0
 24 25  1  0  0  0  0
 24 26  1  0  0  0  0
 24 27  1  0  0  0  0
M  CHG  1   2  -1
M  END
