1,2
q = -1.0

 24 23  0  0  0  0  0  0  0  0999 V2000
    2.0933    0.0616    0.1212 N   0  0  0  0  0  0  0  0  0  0  0  0
    0.2289    1.4300   -1.4061 O   0  5  0  0  0  0  0  0  0  0  0  0
    1.8290    2.5377   -2.5338 O   0  0  0  0  0  0  0  0  0  0  0  0
    1.4706   -2.1650   -1.6857 O   0  0  0  0  0  0  0  0  0  0  0  0
    2.3884   -3.5840   -0.1855 O   0  0  0  0  0  0  0  0  0  0  0  0
    2.0387   -4.2217   -0.8455 H   0  0  0  0  0  0  0  0  0  0  0  0
    1.4774    1.6565   -1.7631 C   0  0  0  0  0  0  0  0  0  0  0  0
    2.5102    0.6626   -1.1844 C   0  0  0  0  0  0  0  0  0  0  0  0
    3.5015    1.1521   -1.1078 H   0  0  0  0  0  0  0  0  0  0  0  0
    2.5828   -0.1582   -1.9224 H   0  0  0  0  0  0  0  0  0  0  0  0
    2.5989   -1.3113    0.3230 C   0  0  0  0  0  0  0  0  0  0  0  0
    3.7095   -1.3475    0.2558 H   0  0  0  0  0  0  0  0  0  0  0  0
    2.3140   -1.6391    1.3417 H   0  0  0  0  0  0  0  0  0  0  0  0
    2.0656   -2.3569   -0.6412 C   0  0  0  0  0  0  0  0  0  0  0  0
    2.4905    0.9167    1.3209 C   0  0  0  0  0  0  0  0  0  0  0  0
    1.9900    0.4132    2.1745 H   0  0  0  0  0  0  0  0  0  0  0  0
    1.9427    2.3380    1.2140 C   0  0  0  0  0  0  0  0  0  0  0  0
    0.8442    2.3369    1.0970 H   0  0  0  0  0  0  0  0  0  0  0  0
    2.1855    2.8792    2.1492 H   0  0  0  0  0  0  0  0  0  0  0  0
    2.3960    2.8998    0.3732 H   0  0  0  0  0  0  0  0  0  0  0  0
    4.0048    0.9350    1.5747 C   0  0  0  0  0  0  0  0  0  0  0  0
    4.5622    1.3888    0.7304 H   0  0  0  0  0  0  0  0  0  0  0  0
    4.2037    1.5591    2.4672 H   0  0  0  0  0  0  0  0  0  0  0  0
    4.4293   -0.0662    1.7799 H   0  0  0  0  0  0  0  0  0  0  0  0
  1 11  1  0  0  0  0
  1 15  1  0  0  0  0
  3  7  2  0  0  0  0
  4 14  2  0  0  0  0
  6  5  1  0  0  0  0
  7  2  1  0  0  0  0
  7  8  1  0  0  0  0
  8  9  1  0  0  0  0
  8  1  1  0  0  0  0
 10  8  1  0  0  0  0
 11 13  1  0  0  0  0
 12 11  1  0  0  0  0
 14  5  1  0  0  0  0
 14 11  1  0  0  0  0
 15 21  1  0  0  0  0
 15 16  1  0  0  0  0
 17 15  1  0  0  0  0
 17 19  1  0  0  0  0
 18 17  1  0  0  0  0
 20 17  1  0  0  0  0
 21 24  1  0  0  0  0
 21 23  1  0  0  0  0
 22 21  1  0  0  0  0
M  CHG  1   2  -1
M  END
