1,5
q = -1.0

 42 46  0  0  0  0  0  0  0  0999 V2000
    2.0535    1.9313    0.0481 O   0  5  0  0  0  0  0  0  0  0  0  0
   -1.7044   -0.1204    1.4744 O   0  0  0  0  0  0  0  0  0  0  0  0
   -4.5691   -3.8957   -1.0138 O   0  0  0  0  0  0  0  0  0  0  0  0
   -0.6337    1.0363   -0.8212 N   0  0  0  0  0  2  0  0  0  0  0  0
    0.1183    0.0047   -0.7141 N   0  0  0  0  0  2  0  0  0  0  0  0
    1.0446    2.7197   -0.1023 C   0  0  0  0  0  0  0  0  0  0  0  0
    1.2511    4.1162    0.1949 C   0  0  0  0  0  0  0  0  0  0  0  0
    2.2595    4.4036    0.5263 H   0  0  0  0  0  0  0  0  0  0  0  0
    0.2452    5.0403    0.0528 C   0  0  0  0  0  0  0  0  0  0  0  0
    0.4412    6.1010    0.2783 H   0  0  0  0  0  0  0  0  0  0  0  0
   -1.0714    4.6706   -0.3867 C   0  0  0  0  0  0  0  0  0  0  0  0
   -2.1081    5.6313   -0.5198 C   0  0  0  0  0  0  0  0  0  0  0  0
   -1.8856    6.6835   -0.2820 H   0  0  0  0  0  0  0  0  0  0  0  0
   -3.3800    5.2550   -0.9405 C   0  0  0  0  0  0  0  0  0  0  0  0
   -4.1772    6.0067   -1.0409 H   0  0  0  0  0  0  0  0  0  0  0  0
   -3.6400    3.8975   -1.2399 C   0  0  0  0  0  0  0  0  0  0  0  0
   -4.6440    3.5941   -1.5744 H   0  0  0  0  0  0  0  0  0  0  0  0
   -2.6380    2.9366   -1.1187 C   0  0  0  0  0  0  0  0  0  0  0  0
   -2.8358    1.8821   -1.3547 H   0  0  0  0  0  0  0  0  0  0  0  0
   -1.3347    3.2957   -0.6907 C   0  0  0  0  0  0  0  0  0  0  0  0
   -0.2697    2.3043   -0.5421 C   0  0  0  0  0  0  0  0  0  0  0  0
   -0.5714   -1.2016   -1.0416 C   0  0  0  0  0  0  0  0  0  0  0  0
   -1.8484   -1.4937   -0.4917 C   0  0  0  0  0  0  0  0  0  0  0  0
   -2.4072   -0.7524    0.6814 C   0  0  0  0  0  0  0  0  0  0  0  0
   -3.8759   -0.8838    0.9198 C   0  0  0  0  0  0  0  0  0  0  0  0
   -4.5085    0.0166    1.7975 C   0  0  0  0  0  0  0  0  0  0  0  0
   -3.8991    0.8098    2.2551 H   0  0  0  0  0  0  0  0  0  0  0  0
   -5.8778   -0.1083    2.0606 C   0  0  0  0  0  0  0  0  0  0  0  0
   -6.3748    0.6084    2.7319 H   0  0  0  0  0  0  0  0  0  0  0  0
   -6.6197   -1.1522    1.4738 C   0  0  0  0  0  0  0  0  0  0  0  0
   -7.6940   -1.2516    1.6911 H   0  0  0  0  0  0  0  0  0  0  0  0
   -5.9918   -2.0655    0.6189 C   0  0  0  0  0  0  0  0  0  0  0  0
   -6.5365   -2.9018    0.1562 H   0  0  0  0  0  0  0  0  0  0  0  0
   -4.6216   -1.9302    0.3271 C   0  0  0  0  0  0  0  0  0  0  0  0
   -3.9643   -2.9132   -0.5828 C   0  0  0  0  0  0  0  0  0  0  0  0
   -2.5532   -2.6227   -0.9935 C   0  0  0  0  0  0  0  0  0  0  0  0
   -1.9536   -3.4792   -1.9342 C   0  0  0  0  0  0  0  0  0  0  0  0
   -2.5381   -4.3440   -2.2807 H   0  0  0  0  0  0  0  0  0  0  0  0
   -0.6664   -3.2069   -2.4143 C   0  0  0  0  0  0  0  0  0  0  0  0
   -0.2024   -3.8688   -3.1612 H   0  0  0  0  0  0  0  0  0  0  0  0
    0.0187   -2.0607   -1.9856 C   0  0  0  0  0  0  0  0  0  0  0  0
    0.9967   -1.7661   -2.4007 H   0  0  0  0  0  0  0  0  0  0  0  0
  3 35  2  0  0  0  0
  4  5  1  0  0  0  0
  4 21  1  0  0  0  0
  6  1  1  0  0  0  0
  6  7  1  0  0  0  0
  7  8  1  0  0  0  0
  9  7  2  0  0  0  0
  9 10  1  0  0  0  0
 11  9  1  0  0  0  0
 12 11  1  0  0  0  0
 12 13  1  0  0  0  0
 14 12  2  0  0  0  0
 15 14  1  0  0  0  0
 16 18  2  0  0  0  0
 16 14  1  0  0  0  0
 17 16  1  0  0  0  0
 18 20  1  0  0  0  0
 19 18  1  0  0  0  0
 20 21  1  0  0  0  0
 20 11  2  0  0  0  0
 21  6  2  0  0  0  0
 22  5  1  0  0  0  0
 22 23  1  0  0  0  0
 23 24  1  0  0  0  0
 24 25  1  0  0  0  0
 24  2  2  0  0  0  0
 25 26  1  0  0  0  0
 26 28  2  0  0  0  0
 26 27  1  0  0  0  0
 28 29  1  0  0  0  0
 30 31  1  0  0  0  0
 30 28  1  0  0  0  0
 32 30  2  0  0  0  0
 33 32  1  0  0  0  0
 34 32  1  0  0  0  0
 34 25  2  0  0  0  0
 35 34  1  0  0  0  0
 36 35  1  0  0  0  0
 36 23  2  0  0  0  0
 37 36  1  0  0  0  0
 38 37  1  0  0  0  0
 39 41  1  0  0  0  0
 39 37  2  0  0  0  0
 40 39  1  0  0  0  0
 41 22  2  0  0  0  0
 42 41  1  0  0  0  0
M  CHG  1   1  -1
M  END
