1,2
q = 0.0, confidence = 1.0

 31 32  0  0  1  0  0  0  0  0999 V2000
    1.4547    1.9237   -0.0085 O   0  0  0  0  0  1  0  0  0  0  0  0
    2.3121   -0.6033   -0.6786 N   0  0  0  0  0  2  0  0  0  0  0  0
    2.7886   -1.8256   -0.7365 C   0  0  1  0  0  3  0  0  0  0  0  0
    4.2226   -2.1920   -0.6134 C   0  0  0  0  0  0  0  0  0  0  0  0
    3.1507    0.4355   -0.4857 N   0  0  0  0  0  0  0  0  0  0  0  0
    4.1747    0.1660   -0.4387 H   0  0  0  0  0  0  0  0  0  0  0  0
    5.1476   -1.2001   -0.5226 N   0  0  0  0  0  0  0  0  0  0  0  0
    6.4449   -1.5051   -0.3928 C   0  0  0  0  0  0  0  0  0  0  0  0
    7.1390   -0.6515   -0.3079 H   0  0  0  0  0  0  0  0  0  0  0  0
    6.9189   -2.8229   -0.3622 C   0  0  0  0  0  0  0  0  0  0  0  0
    7.9933   -3.0268   -0.2498 H   0  0  0  0  0  0  0  0  0  0  0  0
    5.9811   -3.8616   -0.4789 C   0  0  0  0  0  0  0  0  0  0  0  0
    6.3056   -4.9129   -0.4607 H   0  0  0  0  0  0  0  0  0  0  0  0
    4.6263   -3.5498   -0.6079 C   0  0  0  0  0  0  0  0  0  0  0  0
    3.8789   -4.3492   -0.6803 H   0  0  0  0  0  0  0  0  0  0  0  0
    1.7784   -2.9233   -0.9177 C   0  0  0  0  0  0  0  0  0  0  0  0
    0.7645   -2.5067   -1.0524 H   0  0  0  0  0  0  0  0  0  0  0  0
    2.0144   -3.5552   -1.7982 H   0  0  0  0  0  0  0  0  0  0  0  0
    1.7641   -3.5704   -0.0159 H   0  0  0  0  0  0  0  0  0  0  0  0
    2.6631    1.6828   -0.1834 C   0  0  2  0  0  3  0  0  0  0  0  0
    3.6987    2.7509   -0.0543 C   0  0  0  0  0  0  0  0  0  0  0  0
    3.3306    3.9442    0.6000 C   0  0  0  0  0  0  0  0  0  0  0  0
    2.3048    4.0298    0.9861 H   0  0  0  0  0  0  0  0  0  0  0  0
    4.2577    4.9821    0.7497 C   0  0  0  0  0  0  0  0  0  0  0  0
    3.9654    5.9075    1.2683 H   0  0  0  0  0  0  0  0  0  0  0  0
    5.5587    4.8432    0.2378 C   0  0  0  0  0  0  0  0  0  0  0  0
    6.2868    5.6605    0.3529 H   0  0  0  0  0  0  0  0  0  0  0  0
    5.9280    3.6631   -0.4283 C   0  0  0  0  0  0  0  0  0  0  0  0
    6.9414    3.5582   -0.8440 H   0  0  0  0  0  0  0  0  0  0  0  0
    5.0042    2.6201   -0.5758 C   0  0  0  0  0  0  0  0  0  0  0  0
    5.2977    1.7110   -1.1222 H   0  0  0  0  0  0  0  0  0  0  0  0
  2  5  1  0  0  0  0
  3  2  1  1  0  0  0
  3  4  1  0  0  0  0
  4 14  2  0  0  0  0
  4  7  1  0  0  0  0
  5  6  1  0  0  0  0
  5 20  1  0  0  0  0
  7  8  2  0  0  0  0
  8 10  1  0  0  0  0
  8  9  1  0  0  0  0
 10 11  1  0  0  0  0
 12 13  1  0  0  0  0
 12 10  2  0  0  0  0
 14 12  1  0  0  0  0
 15 14  1  0  0  0  0
 16  3  1  0  0  0  0
 16 19  1  0  0  0  0
 17 16  1  0  0  0  0
 18 16  1  0  0  0  0
 20 21  1  0  0  0  0
 20  1  1  1  0  0  0
 21 22  1  0  0  0  0
 22 24  2  0  0  0  0
 22 23  1  0  0  0  0
 24 25  1  0  0  0  0
 26 27  1  0  0  0  0
 26 24  1  0  0  0  0
 28 26  2  0  0  0  0
 29 28  1  0  0  0  0
 30 28  1  0  0  0  0
 30 21  2  0  0  0  0
 31 30  1  0  0  0  0
M  END
