1,2
q = -1.0

 25 26  0  0  1  0  0  0  0  0999 V2000
    0.4494   -0.5419    0.5882 O   0  0  0  0  0  1  0  0  0  0  0  0
   -1.0934    0.9674   -1.1359 N   0  0  0  0  0  2  0  0  0  0  0  0
    1.4237    0.1426    0.1353 C   0  0  1  0  0  3  0  0  0  0  0  0
    2.7679   -0.3994    0.5214 C   0  0  0  0  0  0  0  0  0  0  0  0
    2.9334   -0.9364    1.8172 C   0  0  0  0  0  0  0  0  0  0  0  0
    4.1462   -1.5222    2.1988 C   0  0  0  0  0  0  0  0  0  0  0  0
    5.2074   -1.6088    1.2814 C   0  0  0  0  0  0  0  0  0  0  0  0
    5.0440   -1.1077   -0.0197 C   0  0  0  0  0  0  0  0  0  0  0  0
    3.8356   -0.5041   -0.3975 C   0  0  0  0  0  0  0  0  0  0  0  0
    1.2957    1.3233   -0.6864 C   0  0  0  0  0  0  0  0  0  0  0  0
    2.4138    2.1987   -0.8716 C   0  0  0  0  0  0  0  0  0  0  0  0
    2.3575    3.3279   -1.6711 C   0  0  0  0  0  0  0  0  0  0  0  0
    1.1433    3.6271   -2.3526 C   0  0  0  0  0  0  0  0  0  0  0  0
    0.0272    2.8314   -2.1886 C   0  0  0  0  0  0  0  0  0  0  0  0
    0.0239    1.6712   -1.3258 C   0  0  0  0  0  0  0  0  0  0  0  0
    2.0864   -0.8888    2.5171 H   0  0  0  0  0  0  0  0  0  0  0  0
    3.7055   -0.1297   -1.4236 H   0  0  0  0  0  0  0  0  0  0  0  0
   -0.9152    3.0813   -2.7034 H   0  0  0  0  0  0  0  0  0  0  0  0
    1.0858    4.5118   -3.0066 H   0  0  0  0  0  0  0  0  0  0  0  0
    3.3417    1.9748   -0.3270 H   0  0  0  0  0  0  0  0  0  0  0  0
    3.2317    3.9866   -1.7714 H   0  0  0  0  0  0  0  0  0  0  0  0
    5.8625   -1.1930   -0.7508 H   0  0  0  0  0  0  0  0  0  0  0  0
    4.2651   -1.9210    3.2179 H   0  0  0  0  0  0  0  0  0  0  0  0
    6.1588   -2.0758    1.5784 H   0  0  0  0  0  0  0  0  0  0  0  0
   -1.8841    1.3431   -1.6754 H   0  0  0  0  0  0  0  0  0  0  0  0
  3  4  1  0  0  0  0
  3  1  1  6  0  0  0
  4  5  1  0  0  0  0
  5  6  2  0  0  0  0
  5 16  1  0  0  0  0
  6 23  1  0  0  0  0
  7 24  1  0  0  0  0
  7  6  1  0  0  0  0
  8  7  2  0  0  0  0
  9  8  1  0  0  0  0
  9  4  2  0  0  0  0
 10  3  1  0  0  0  0
 11 10  1  0  0  0  0
 11 20  1  0  0  0  0
 12 11  2  0  0  0  0
 13 14  2  0  0  0  0
 13 12  1  0  0  0  0
 14 15  1  0  0  0  0
 15  2  1  0  0  0  0
 15 10  2  0  0  0  0
 17  9  1  0  0  0  0
 18 14  1  0  0  0  0
 19 13  1  0  0  0  0
 21 12  1  0  0  0  0
 22  8  1  0  0  0  0
 25  2  1  0  0  0  0
M  END
