1,14
q = -1.0, confidence = 0.0

 25 26  0  0  0  0  0  0  0  0999 V2000
   -0.1450   -0.3393   -0.0506 O   0  5  0  0  0  0  0  0  0  0  0  0
    1.1133   -0.0851   -0.0645 C   0  0  0  0  0  0  0  0  0  0  0  0
    1.9750   -1.3073   -0.0052 C   0  0  0  0  0  0  0  0  0  0  0  0
    3.0743   -1.4128    0.8755 C   0  0  0  0  0  0  0  0  0  0  0  0
    3.3384   -0.5578    1.5148 H   0  0  0  0  0  0  0  0  0  0  0  0
    3.4548   -3.7110    0.1701 C   0  0  0  0  0  0  0  0  0  0  0  0
    4.0336   -4.6449    0.2358 H   0  0  0  0  0  0  0  0  0  0  0  0
    3.8049   -2.6068    0.9630 C   0  0  0  0  0  0  0  0  0  0  0  0
    4.6513   -2.6769    1.6632 H   0  0  0  0  0  0  0  0  0  0  0  0
    1.6171   -2.4339   -0.7790 C   0  0  0  0  0  0  0  0  0  0  0  0
    0.7508   -2.3584   -1.4525 H   0  0  0  0  0  0  0  0  0  0  0  0
    2.3565   -3.6205   -0.7016 C   0  0  0  0  0  0  0  0  0  0  0  0
    2.0750   -4.4830   -1.3251 H   0  0  0  0  0  0  0  0  0  0  0  0
   -0.5213    2.3245    0.2058 N   0  0  0  0  0  2  0  0  0  0  0  0
   -0.9518    3.2479    0.3317 H   0  0  0  0  0  0  0  0  0  0  0  0
    1.6637    1.2377   -0.1267 C   0  0  0  0  0  0  0  0  0  0  0  0
    0.8049    2.4074    0.0345 C   0  0  0  0  0  0  0  0  0  0  0  0
    3.0598    1.4415   -0.3795 C   0  0  0  0  0  3  0  0  0  0  0  0
    3.6864    0.5606   -0.5760 H   0  0  0  0  0  0  0  0  0  0  0  0
    1.4490    3.6980    0.0162 C   0  0  0  0  0  0  0  0  0  0  0  0
    0.8129    4.5856    0.1650 H   0  0  0  0  0  0  0  0  0  0  0  0
    3.6293    2.7009   -0.4214 C   0  0  0  0  0  0  0  0  0  0  0  0
    4.7012    2.8219   -0.6339 H   0  0  0  0  0  0  0  0  0  0  0  0
    2.8046    3.8406   -0.2002 C   0  0  0  0  0  0  0  0  0  0  0  0
    3.2474    4.8490   -0.2174 H   0  0  0  0  0  0  0  0  0  0  0  0
  2  1  1  0  0  0  0
  2  3  1  0  0  0  0
  3  4  1  0  0  0  0
  4  8  2  0  0  0  0
  4  5  1  0  0  0  0
  6  7  1  0  0  0  0
  6  8  1  0  0  0  0
  8  9  1  0  0  0  0
 10 12  1  0  0  0  0
 10  3  2  0  0  0  0
 11 10  1  0  0  0  0
 12  6  2  0  0  0  0
 13 12  1  0  0  0  0
 14 15  1  0  0  0  0
 16  2  2  0  0  0  0
 16 17  1  0  0  0  0
 17 14  1  0  0  0  0
 18 16  1  0  0  0  0
 19 18  1  0  0  0  0
 20 17  2  0  0  0  0
 20 21  1  0  0  0  0
 22 18  1  0  0  0  0
 22 24  2  0  0  0  0
 23 22  1  0  0  0  0
 24 20  1  0  0  0  0
 25 24  1  0  0  0  0
M  CHG  1   1  -1
M  END
