1,2
q = -1.0

 34 35  0  0  1  0  0  0  0  0999 V2000
    0.1367    1.7210   -0.7000 O   0  5  0  0  0  0  0  0  0  0  0  0
   -1.7380    0.2454    0.8037 N   0  0  0  0  0  0  0  0  0  0  0  0
   -1.6073    0.4866    2.2496 C   0  0  0  0  0  0  0  0  0  0  0  0
   -2.6020    1.2239    0.1040 C   0  0  1  0  0  0  0  0  0  0  0  0
   -0.6305    2.7454   -0.3567 C   0  0  0  0  0  0  0  0  0  0  0  0
   -1.9837    2.5994    0.0836 C   0  0  0  0  0  0  0  0  0  0  0  0
   -2.7432    3.7348    0.4151 C   0  0  0  0  0  0  0  0  0  0  0  0
   -2.2094    5.0271    0.3169 C   0  0  0  0  0  0  0  0  0  0  0  0
   -0.8816    5.1789   -0.1246 C   0  0  0  0  0  0  0  0  0  0  0  0
   -0.1045    4.0637   -0.4488 C   0  0  0  0  0  0  0  0  0  0  0  0
   -2.8726    0.7278   -1.3278 C   0  0  0  0  0  0  0  0  0  0  0  0
   -3.5150   -0.9824   -1.4277 S   0  0  0  0  0  0  0  0  0  0  0  0
   -5.0772   -0.8706   -0.5731 C   0  0  0  0  0  0  0  0  0  0  0  0
   -5.5416   -2.0410    0.0653 C   0  0  0  0  0  0  0  0  0  0  0  0
   -6.7850   -2.0461    0.7118 C   0  0  0  0  0  0  0  0  0  0  0  0
   -7.5723   -0.8837    0.7486 C   0  0  0  0  0  0  0  0  0  0  0  0
   -7.1090    0.2823    0.1193 C   0  0  0  0  0  0  0  0  0  0  0  0
   -5.8748    0.2927   -0.5478 C   0  0  0  0  0  0  0  0  0  0  0  0
   -2.1340   -0.7027    0.6532 H   0  0  0  0  0  0  0  0  0  0  0  0
   -1.0966    1.4534    2.4215 H   0  0  0  0  0  0  0  0  0  0  0  0
   -1.0126   -0.3389    2.6815 H   0  0  0  0  0  0  0  0  0  0  0  0
   -2.6040    0.5227    2.7427 H   0  0  0  0  0  0  0  0  0  0  0  0
   -3.5736    1.2784    0.6464 H   0  0  0  0  0  0  0  0  0  0  0  0
   -3.7823    3.5924    0.7572 H   0  0  0  0  0  0  0  0  0  0  0  0
   -2.8168    5.9037    0.5848 H   0  0  0  0  0  0  0  0  0  0  0  0
   -0.4419    6.1855   -0.2072 H   0  0  0  0  0  0  0  0  0  0  0  0
    0.9375    4.1687   -0.7860 H   0  0  0  0  0  0  0  0  0  0  0  0
   -3.5465    1.4358   -1.8477 H   0  0  0  0  0  0  0  0  0  0  0  0
   -1.9187    0.6972   -1.8923 H   0  0  0  0  0  0  0  0  0  0  0  0
   -4.9146   -2.9460    0.0573 H   0  0  0  0  0  0  0  0  0  0  0  0
   -7.1346   -2.9666    1.2037 H   0  0  0  0  0  0  0  0  0  0  0  0
   -8.5424   -0.8860    1.2673 H   0  0  0  0  0  0  0  0  0  0  0  0
   -7.7185    1.1988    0.1373 H   0  0  0  0  0  0  0  0  0  0  0  0
   -5.5413    1.2100   -1.0539 H   0  0  0  0  0  0  0  0  0  0  0  0
  1  5  1  0  0  0  0
  2  3  1  0  0  0  0
  3 20  1  0  0  0  0
  3 21  1  0  0  0  0
  3 22  1  0  0  0  0
  4 23  1  1  0  0  0
  4  2  1  0  0  0  0
  5  6  1  0  0  0  0
  6  4  1  0  0  0  0
  6  7  2  0  0  0  0
  7 24  1  0  0  0  0
  8  7  1  0  0  0  0
  8 25  1  0  0  0  0
  9  8  2  0  0  0  0
 10  5  2  0  0  0  0
 10  9  1  0  0  0  0
 11  4  1  0  0  0  0
 12 11  1  0  0  0  0
 12 13  1  0  0  0  0
 13 18  2  0  0  0  0
 13 14  1  0  0  0  0
 14 15  2  0  0  0  0
 15 16  1  0  0  0  0
 15 31  1  0  0  0  0
 16 32  1  0  0  0  0
 17 33  1  0  0  0  0
 17 16  2  0  0  0  0
 18 17  1  0  0  0  0
 19  2  1  0  0  0  0
 26  9  1  0  0  0  0
 27 10  1  0  0  0  0
 28 11  1  0  0  0  0
 29 11  1  0  0  0  0
 30 14  1  0  0  0  0
 34 18  1  0  0  0  0
M  CHG  1   1  -1
M  END
