1,2
q = -1.0

 33 34  0  0  1  0  0  0  0  0999 V2000
   -1.2914    1.4118   -0.6693 N   0  0  0  0  0  2  0  0  0  0  0  0
   -1.3415   -1.2919   -0.5162 O   0  5  0  0  0  0  0  0  0  0  0  0
   -2.5723   -1.1672   -0.1123 C   0  0  0  0  0  0  0  0  0  0  0  0
   -3.3176   -2.3807    0.1068 C   0  0  0  0  0  0  0  0  0  0  0  0
   -2.7972   -3.3308   -0.0820 H   0  0  0  0  0  0  0  0  0  0  0  0
   -4.6196   -2.3441    0.5452 C   0  0  0  0  0  0  0  0  0  0  0  0
   -5.1690   -3.2839    0.7147 H   0  0  0  0  0  0  0  0  0  0  0  0
   -5.2943   -1.1063    0.8049 C   0  0  0  0  0  0  0  0  0  0  0  0
   -6.6331   -1.0862    1.2796 C   0  0  0  0  0  0  0  0  0  0  0  0
   -7.1462   -2.0478    1.4393 H   0  0  0  0  0  0  0  0  0  0  0  0
   -7.2855    0.1126    1.5414 C   0  0  0  0  0  0  0  0  0  0  0  0
   -8.3223    0.1161    1.9092 H   0  0  0  0  0  0  0  0  0  0  0  0
   -6.5964    1.3312    1.3389 C   0  0  0  0  0  0  0  0  0  0  0  0
   -7.0981    2.2865    1.5565 H   0  0  0  0  0  0  0  0  0  0  0  0
   -5.2832    1.3383    0.8768 C   0  0  0  0  0  0  0  0  0  0  0  0
   -4.7754    2.3062    0.7584 H   0  0  0  0  0  0  0  0  0  0  0  0
   -4.5902    0.1298    0.5826 C   0  0  1  0  0  3  0  0  0  0  0  0
   -3.2241    0.0876    0.0899 C   0  0  0  0  0  0  0  0  0  0  0  0
   -2.5468    1.2827   -0.3022 C   0  0  0  0  0  0  0  0  0  0  0  0
   -3.1670    2.1952   -0.3461 H   0  0  0  0  0  0  0  0  0  0  0  0
   -0.8714    2.7649   -1.1236 C   0  0  1  0  0  0  0  0  0  0  0  0
    0.1247    2.6215   -1.5800 H   0  0  0  0  0  0  0  0  0  0  0  0
   -1.8055    3.3409   -2.1929 C   0  0  0  0  0  0  0  0  0  0  0  0
   -1.3493    4.2409   -2.6495 H   0  0  0  0  0  0  0  0  0  0  0  0
   -1.9777    2.6024   -3.0008 H   0  0  0  0  0  0  0  0  0  0  0  0
   -2.7926    3.6449   -1.7866 H   0  0  0  0  0  0  0  0  0  0  0  0
   -0.6707    3.6814    0.0976 C   0  0  0  0  0  0  0  0  0  0  0  0
   -1.6541    3.8523    0.5912 H   0  0  0  0  0  0  0  0  0  0  0  0
   -0.0472    3.1185    0.8219 H   0  0  0  0  0  0  0  0  0  0  0  0
   -0.0067    5.0177   -0.2312 C   0  0  0  0  0  0  0  0  0  0  0  0
    0.1977    5.5988    0.6901 H   0  0  0  0  0  0  0  0  0  0  0  0
    0.9627    4.8641   -0.7508 H   0  0  0  0  0  0  0  0  0  0  0  0
   -0.6371    5.6513   -0.8877 H   0  0  0  0  0  0  0  0  0  0  0  0
  1 19  1  0  0  0  0
  2  3  1  0  0  0  0
  3 18  1  0  0  0  0
  3  4  2  0  0  0  0
  4  6  1  0  0  0  0
  5  4  1  0  0  0  0
  6  7  1  0  0  0  0
  6  8  2  0  0  0  0
  8  9  1  0  0  0  0
  9 10  1  0  0  0  0
  9 11  2  0  0  0  0
 11 12  1  0  0  0  0
 13 11  1  0  0  0  0
 13 14  1  0  0  0  0
 15 13  2  0  0  0  0
 16 15  1  0  0  0  0
 17 18  1  1  0  0  0
 17  8  1  0  0  0  0
 17 15  1  0  0  0  0
 19 18  2  0  0  0  0
 20 19  1  0  0  0  0
 21 22  1  6  0  0  0
 21  1  1  0  0  0  0
 21 27  1  0  0  0  0
 23 26  1  0  0  0  0
 23 21  1  0  0  0  0
 24 23  1  0  0  0  0
 25 23  1  0  0  0  0
 27 28  1  0  0  0  0
 27 29  1  0  0  0  0
 30 27  1  0  0  0  0
 30 31  1  0  0  0  0
 32 30  1  0  0  0  0
 33 30  1  0  0  0  0
M  CHG  1   2  -1
M  END
