4,7
q = -1.0

 33 35  0  0  1  0  0  0  0  0999 V2000
   -0.1325   -3.4167    0.6388 F   0  0  0  0  0  0  0  0  0  0  0  0
   -7.6362   -1.2097   -0.3115 F   0  0  0  0  0  0  0  0  0  0  0  0
    2.8847   -1.7686   -2.6460 F   0  0  0  0  0  0  0  0  0  0  0  0
   -1.8326    0.6138    1.1970 O   0  5  0  0  0  0  0  0  0  0  0  0
    1.9622   -4.4554    2.0265 F   0  0  0  0  0  0  0  0  0  0  0  0
   -6.6086   -3.0880   -0.7486 F   0  0  0  0  0  0  0  0  0  0  0  0
   -0.6606   -1.0273   -0.9259 N   0  0  0  0  0  2  0  0  0  0  0  0
   -2.0577   -2.6434   -1.6402 O   0  0  0  0  0  0  0  0  0  0  0  0
   -7.2251   -2.6158    1.2964 F   0  0  0  0  0  0  0  0  0  0  0  0
    4.5094   -4.1615    1.0879 F   0  0  0  0  0  0  0  0  0  0  0  0
    4.9643   -2.8261   -1.2665 F   0  0  0  0  0  0  0  0  0  0  0  0
   -1.8690   -1.5447   -0.8641 C   0  0  2  0  0  3  0  0  0  0  0  0
   -5.2976   -0.4023    1.4084 C   0  0  0  0  0  0  0  0  0  0  0  0
   -6.1918   -0.1367    1.9931 H   0  0  0  0  0  0  0  0  0  0  0  0
    2.1751   -3.8193    0.8713 C   0  0  0  0  0  0  0  0  0  0  0  0
    1.3130   -2.5434   -1.0390 C   0  0  0  0  0  0  0  0  0  0  0  0
    2.6315   -2.4371   -1.5118 C   0  0  0  0  0  0  0  0  0  0  0  0
   -2.9044   -0.0501    0.9050 C   0  0  0  0  0  0  0  0  0  0  0  0
    3.4860   -3.6728    0.3869 C   0  0  0  0  0  0  0  0  0  0  0  0
   -3.0078   -1.0937   -0.0965 C   0  0  0  0  0  0  0  0  0  0  0  0
   -0.8569   -2.8679   -2.3967 C   0  0  0  0  0  0  0  0  0  0  0  0
   -1.0668   -2.6553   -3.4659 H   0  0  0  0  0  0  0  0  0  0  0  0
   -0.5659   -3.9305   -2.2905 H   0  0  0  0  0  0  0  0  0  0  0  0
    3.7197   -2.9825   -0.8128 C   0  0  0  0  0  0  0  0  0  0  0  0
   -6.7040   -2.0844    0.1578 C   0  0  0  0  0  0  0  0  0  0  0  0
   -4.1007    0.2472    1.6457 C   0  0  0  0  0  0  0  0  0  0  0  0
   -4.0167    1.0321    2.4109 H   0  0  0  0  0  0  0  0  0  0  0  0
   -5.3864   -1.4116    0.4113 C   0  0  0  0  0  0  0  0  0  0  0  0
   -4.2511   -1.7450   -0.3156 C   0  0  0  0  0  0  0  0  0  0  0  0
   -4.3054   -2.5333   -1.0771 H   0  0  0  0  0  0  0  0  0  0  0  0
    1.1082   -3.2656    0.1498 C   0  0  0  0  0  0  0  0  0  0  0  0
    0.1759   -1.8791   -1.7908 C   0  0  1  0  0  0  0  0  0  0  0  0
    0.6380   -1.2489   -2.5752 H   0  0  0  0  0  0  0  0  0  0  0  0
  2 25  1  0  0  0  0
  3 17  1  0  0  0  0
  6 25  1  0  0  0  0
  7 12  1  0  0  0  0
  8 12  1  0  0  0  0
 11 24  1  0  0  0  0
 12 20  1  6  0  0  0
 13 26  1  0  0  0  0
 13 14  1  0  0  0  0
 15  5  1  0  0  0  0
 16 31  1  0  0  0  0
 17 16  2  0  0  0  0
 17 24  1  0  0  0  0
 18  4  1  0  0  0  0
 18 26  2  0  0  0  0
 19 15  1  0  0  0  0
 19 10  1  0  0  0  0
 20 18  1  0  0  0  0
 21 23  1  0  0  0  0
 21 32  1  0  0  0  0
 21  8  1  0  0  0  0
 22 21  1  0  0  0  0
 24 19  2  0  0  0  0
 25 28  1  0  0  0  0
 25  9  1  0  0  0  0
 26 27  1  0  0  0  0
 28 13  2  0  0  0  0
 29 20  2  0  0  0  0
 29 28  1  0  0  0  0
 30 29  1  0  0  0  0
 31  1  1  0  0  0  0
 31 15  2  0  0  0  0
 32 33  1  6  0  0  0
 32 16  1  0  0  0  0
 32  7  1  0  0  0  0
M  CHG  1   4  -1
M  END
