1,2
q = -1.0, confidence = 0.016

 29 28  0  0  0  0  0  0  0  0999 V2000
   -1.8460   -0.2371    0.3052 O   0  5  0  0  0  0  0  0  0  0  0  0
    0.2529   -1.8881   -0.3286 N   0  0  0  0  0  2  0  0  0  0  0  0
   -0.5012   -2.8041    0.1361 N   0  0  0  0  0  2  0  0  0  0  0  0
   -1.6377   -2.5550    0.8182 C   0  0  0  0  0  0  0  0  0  0  0  0
   -2.1355   -3.4411    1.2378 H   0  0  0  0  0  0  0  0  0  0  0  0
   -2.3063   -1.3173    0.8340 C   0  0  0  0  0  0  0  0  0  0  0  0
   -3.7034   -1.2226    1.4340 C   0  0  0  0  0  0  0  0  0  0  0  0
   -3.9470   -2.2273    1.8406 H   0  0  0  0  0  0  0  0  0  0  0  0
   -3.7217   -0.2079    2.5889 C   0  0  0  0  0  0  0  0  0  0  0  0
   -2.9874   -0.4764    3.3744 H   0  0  0  0  0  0  0  0  0  0  0  0
   -4.7268   -0.1679    3.0552 H   0  0  0  0  0  0  0  0  0  0  0  0
   -3.4713    0.8075    2.2224 H   0  0  0  0  0  0  0  0  0  0  0  0
   -4.7355   -0.8706    0.3502 C   0  0  0  0  0  0  0  0  0  0  0  0
   -4.5135    0.1204   -0.0937 H   0  0  0  0  0  0  0  0  0  0  0  0
   -5.7562   -0.8328    0.7817 H   0  0  0  0  0  0  0  0  0  0  0  0
   -4.7339   -1.6190   -0.4674 H   0  0  0  0  0  0  0  0  0  0  0  0
    1.3783   -2.4261   -1.1946 C   0  0  0  0  0  0  0  0  0  0  0  0
    2.5776   -2.7286   -0.2807 C   0  0  0  0  0  0  0  0  0  0  0  0
    2.8945   -1.8100    0.2436 H   0  0  0  0  0  0  0  0  0  0  0  0
    3.4261   -3.1213   -0.8770 H   0  0  0  0  0  0  0  0  0  0  0  0
    2.2955   -3.4921    0.4714 H   0  0  0  0  0  0  0  0  0  0  0  0
    0.9228   -3.7096   -1.9086 C   0  0  0  0  0  0  0  0  0  0  0  0
    0.6878   -4.5128   -1.1876 H   0  0  0  0  0  0  0  0  0  0  0  0
    1.7316   -4.0544   -2.5834 H   0  0  0  0  0  0  0  0  0  0  0  0
    0.0166   -3.5218   -2.5189 H   0  0  0  0  0  0  0  0  0  0  0  0
    1.7217   -1.3692   -2.2560 C   0  0  0  0  0  0  0  0  0  0  0  0
    0.8300   -1.1313   -2.8711 H   0  0  0  0  0  0  0  0  0  0  0  0
    2.5025   -1.7695   -2.9337 H   0  0  0  0  0  0  0  0  0  0  0  0
    2.1011   -0.4359   -1.8044 H   0  0  0  0  0  0  0  0  0  0  0  0
  1  6  1  0  0  0  0
  2  3  1  0  0  0  0
  3  4  1  0  0  0  0
  4  6  2  0  0  0  0
  4  5  1  0  0  0  0
  6  7  1  0  0  0  0
  7  8  1  0  0  0  0
  7  9  1  0  0  0  0
  9 11  1  0  0  0  0
  9 10  1  0  0  0  0
 12  9  1  0  0  0  0
 13 15  1  0  0  0  0
 13  7  1  0  0  0  0
 14 13  1  0  0  0  0
 16 13  1  0  0  0  0
 17  2  1  0  0  0  0
 17 18  1  0  0  0  0
 18 19  1  0  0  0  0
 18 21  1  0  0  0  0
 20 18  1  0  0  0  0
 22 17  1  0  0  0  0
 22 23  1  0  0  0  0
 24 22  1  0  0  0  0
 25 22  1  0  0  0  0
 26 29  1  0  0  0  0
 26 17  1  0  0  0  0
 27 26  1  0  0  0  0
 28 26  1  0  0  0  0
M  CHG  1   1  -1
M  END
