1,2
q = -1.0

 26 25  0  0  0  0  0  0  0  0999 V2000
    0.5854    1.7818   -0.2002 O   0  5  0  0  0  0  0  0  0  0  0  0
    1.8271   -0.5716    0.1900 N   0  0  0  0  0  2  0  0  0  0  0  0
    2.8123   -0.0067   -0.3911 N   0  0  0  0  0  2  0  0  0  0  0  0
    2.2430   -1.7510    1.0490 C   0  0  0  0  0  0  0  0  0  0  0  0
    1.2280   -1.8971    2.1936 C   0  0  0  0  0  0  0  0  0  0  0  0
    1.1687   -0.9588    2.7822 H   0  0  0  0  0  0  0  0  0  0  0  0
    1.5596   -2.7046    2.8773 H   0  0  0  0  0  0  0  0  0  0  0  0
    0.2198   -2.1498    1.8221 H   0  0  0  0  0  0  0  0  0  0  0  0
    3.6326   -1.4921    1.6559 C   0  0  0  0  0  0  0  0  0  0  0  0
    3.6358   -0.5536    2.2462 H   0  0  0  0  0  0  0  0  0  0  0  0
    4.4070   -1.4058    0.8729 H   0  0  0  0  0  0  0  0  0  0  0  0
    3.8957   -2.3294    2.3329 H   0  0  0  0  0  0  0  0  0  0  0  0
    2.2825   -3.0027    0.1562 C   0  0  0  0  0  0  0  0  0  0  0  0
    1.2874   -3.1860   -0.2866 H   0  0  0  0  0  0  0  0  0  0  0  0
    2.5884   -3.8890    0.7485 H   0  0  0  0  0  0  0  0  0  0  0  0
    3.0171   -2.8571   -0.6609 H   0  0  0  0  0  0  0  0  0  0  0  0
    2.7370    1.1705   -1.0536 C   0  0  0  0  0  0  0  0  0  0  0  0
    3.9650    1.5724   -1.8328 C   0  0  0  0  0  0  0  0  0  0  0  0
    4.6947    0.7420   -1.8011 H   0  0  0  0  0  0  0  0  0  0  0  0
    4.4625    2.4781   -1.4225 H   0  0  0  0  0  0  0  0  0  0  0  0
    3.7351    1.7857   -2.8984 H   0  0  0  0  0  0  0  0  0  0  0  0
    1.6587    2.0670   -0.8548 C   0  0  0  0  0  0  0  0  0  0  0  0
    1.7685    3.4900   -1.3516 C   0  0  0  0  0  0  0  0  0  0  0  0
    0.9020    4.0796   -1.0017 H   0  0  0  0  0  0  0  0  0  0  0  0
    1.7932    3.5144   -2.4614 H   0  0  0  0  0  0  0  0  0  0  0  0
    2.7042    3.9728   -1.0026 H   0  0  0  0  0  0  0  0  0  0  0  0
  2  4  1  0  0  0  0
  3  2  1  0  0  0  0
  4  9  1  0  0  0  0
  4  5  1  0  0  0  0
  5  6  1  0  0  0  0
  5  7  1  0  0  0  0
  8  5  1  0  0  0  0
  9 10  1  0  0  0  0
  9 12  1  0  0  0  0
 11  9  1  0  0  0  0
 13 15  1  0  0  0  0
 13  4  1  0  0  0  0
 14 13  1  0  0  0  0
 16 13  1  0  0  0  0
 17 22  2  0  0  0  0
 17  3  1  0  0  0  0
 18 19  1  0  0  0  0
 18 20  1  0  0  0  0
 18 17  1  0  0  0  0
 21 18  1  0  0  0  0
 22  1  1  0  0  0  0
 23 26  1  0  0  0  0
 23 24  1  0  0  0  0
 23 22  1  0  0  0  0
 25 23  1  0  0  0  0
M  CHG  1   1  -1
M  END
