1,4
q = -1.0, confidence = 0.0

 26 27  0  0  1  0  0  0  0  0999 V2000
   -1.9701   -0.6756   -0.4722 N   0  0  0  0  0  2  0  0  0  0  0  0
   -2.4488    1.1399    0.8644 N   0  0  0  0  0  0  0  0  0  0  0  0
   -1.0998    1.3502    0.8983 N   0  0  0  0  0  0  0  0  0  0  0  0
    0.0446   -1.7112   -1.8550 O   0  5  0  0  0  0  0  0  0  0  0  0
   -1.1337   -3.6234   -2.2334 O   0  0  0  0  0  0  0  0  0  0  0  0
   -0.9941   -2.4699   -1.8103 C   0  0  0  0  0  0  0  0  0  0  0  0
   -2.2026   -1.8492   -1.0775 C   0  0  1  0  0  3  0  0  0  0  0  0
   -3.4547   -2.4736   -0.9800 C   0  0  0  0  0  0  0  0  0  0  0  0
   -3.5977   -3.4347   -1.4925 H   0  0  0  0  0  0  0  0  0  0  0  0
   -4.4429   -1.8447   -0.2106 C   0  0  0  0  0  0  0  0  0  0  0  0
   -5.4357   -2.3058   -0.0939 H   0  0  0  0  0  0  0  0  0  0  0  0
   -4.1750   -0.6304    0.4464 C   0  0  0  0  0  0  0  0  0  0  0  0
   -4.9314   -0.1654    1.0866 H   0  0  0  0  0  0  0  0  0  0  0  0
   -2.8987   -0.0645    0.2737 C   0  0  0  0  0  0  0  0  0  0  0  0
   -4.6382    2.3564    1.3934 C   0  0  0  0  0  0  0  0  0  0  0  0
   -4.9051    3.4029    1.6290 H   0  0  0  0  0  0  0  0  0  0  0  0
   -5.0927    1.7146    2.1772 H   0  0  0  0  0  0  0  0  0  0  0  0
   -5.1100    2.0951    0.4246 H   0  0  0  0  0  0  0  0  0  0  0  0
   -3.1513    2.2357    1.3426 C   0  0  0  0  0  0  0  0  0  0  0  0
   -2.1852    3.1672    1.7010 C   0  0  0  0  0  0  0  0  0  0  0  0
   -2.3721    4.1644    2.1136 H   0  0  0  0  0  0  0  0  0  0  0  0
   -0.9250    2.5751    1.4005 C   0  0  0  0  0  0  0  0  0  0  0  0
    0.4367    3.1725    1.5479 C   0  0  0  0  0  0  0  0  0  0  0  0
    1.1987    2.3835    1.6876 H   0  0  0  0  0  0  0  0  0  0  0  0
    0.4746    3.8639    2.4112 H   0  0  0  0  0  0  0  0  0  0  0  0
    0.7070    3.7498    0.6385 H   0  0  0  0  0  0  0  0  0  0  0  0
  1 14  1  0  0  0  0
  2  3  1  0  0  0  0
  2 19  1  0  0  0  0
  3 22  2  0  0  0  0
  4  6  1  0  0  0  0
  5  6  2  0  0  0  0
  7  6  1  1  0  0  0
  7  8  1  0  0  0  0
  7  1  1  0  0  0  0
  8 10  2  0  0  0  0
  9  8  1  0  0  0  0
 10 11  1  0  0  0  0
 10 12  1  0  0  0  0
 12 13  1  0  0  0  0
 14 12  2  0  0  0  0
 14  2  1  0  0  0  0
 15 16  1  0  0  0  0
 15 17  1  0  0  0  0
 18 15  1  0  0  0  0
 19 15  1  0  0  0  0
 19 20  2  0  0  0  0
 20 21  1  0  0  0  0
 22 23  1  0  0  0  0
 22 20  1  0  0  0  0
 23 24  1  0  0  0  0
 23 25  1  0  0  0  0
 26 23  1  0  0  0  0
M  CHG  1   4  -1
M  END
