1,13
q = -2.0, confidence = 0.848

 33 34  0  0  1  0  0  0  0  0999 V2000
   -0.6681   -1.6116   -0.6481 O   0  0  0  0  0  1  0  0  0  0  0  0
   -1.7992   -2.1767   -0.3202 C   0  0  2  0  0  3  0  0  0  0  0  0
   -1.9140   -3.5963   -0.4490 C   0  0  0  0  0  0  0  0  0  0  0  0
   -1.0401   -4.1494   -0.8216 H   0  0  0  0  0  0  0  0  0  0  0  0
   -3.0842   -4.2605   -0.0999 C   0  0  0  0  0  0  0  0  0  0  0  0
   -3.1313   -5.3568   -0.1931 H   0  0  0  0  0  0  0  0  0  0  0  0
   -4.2041   -3.5453    0.3824 C   0  0  0  0  0  0  0  0  0  0  0  0
   -5.1204   -4.0750    0.6793 H   0  0  0  0  0  0  0  0  0  0  0  0
   -4.1347   -2.1592    0.4729 C   0  0  0  0  0  0  0  0  0  0  0  0
   -5.0058   -1.6064    0.8458 H   0  0  0  0  0  0  0  0  0  0  0  0
   -2.9563   -1.4440    0.1230 C   0  0  0  0  0  0  0  0  0  0  0  0
   -2.9104   -0.0009    0.0961 C   0  0  0  0  0  0  0  0  0  0  0  0
   -1.7961    0.7122    0.0678 N   0  0  0  0  0  2  0  0  0  0  0  0
   -2.0892    2.1590   -0.0589 C   0  0  0  0  0  0  0  0  0  0  0  0
   -3.5465    2.1514   -0.3365 N   0  0  0  0  0  0  0  0  0  0  0  0
   -4.1753    0.8515   -0.0276 C   0  0  0  0  0  0  0  0  0  0  0  0
   -5.0771    0.4655   -1.2152 C   0  0  0  0  0  0  0  0  0  0  0  0
   -4.4717    0.2889   -2.1249 H   0  0  0  0  0  0  0  0  0  0  0  0
   -5.7582    1.3182   -1.4053 H   0  0  0  0  0  0  0  0  0  0  0  0
   -5.6738   -0.4404   -1.0050 H   0  0  0  0  0  0  0  0  0  0  0  0
   -4.9983    1.0022    1.2742 C   0  0  0  0  0  0  0  0  0  0  0  0
   -5.5738    1.9451    1.1805 H   0  0  0  0  0  0  0  0  0  0  0  0
   -4.3456    1.0715    2.1652 H   0  0  0  0  0  0  0  0  0  0  0  0
   -5.7114    0.1696    1.4200 H   0  0  0  0  0  0  0  0  0  0  0  0
   -4.2141    3.2123   -0.5026 O   0  0  0  0  0  1  0  0  0  0  0  0
   -1.3831    2.8028   -1.2551 C   0  0  0  0  0  0  0  0  0  0  0  0
   -1.4715    2.1494   -2.1445 H   0  0  0  0  0  0  0  0  0  0  0  0
   -0.3184    2.9953   -1.0446 H   0  0  0  0  0  0  0  0  0  0  0  0
   -1.8979    3.7597   -1.4690 H   0  0  0  0  0  0  0  0  0  0  0  0
   -1.8765    2.9253    1.2581 C   0  0  0  0  0  0  0  0  0  0  0  0
   -2.3860    2.4024    2.0903 H   0  0  0  0  0  0  0  0  0  0  0  0
   -2.3319    3.9279    1.1393 H   0  0  0  0  0  0  0  0  0  0  0  0
   -0.8027    2.9954    1.4915 H   0  0  0  0  0  0  0  0  0  0  0  0
  2  1  1  6  0  0  0
  2 11  1  0  0  0  0
  3  2  1  0  0  0  0
  3  5  2  0  0  0  0
  4  3  1  0  0  0  0
  5  7  1  0  0  0  0
  6  5  1  0  0  0  0
  7  9  2  0  0  0  0
  7  8  1  0  0  0  0
  9 10  1  0  0  0  0
 11  9  1  0  0  0  0
 12 11  2  0  0  0  0
 13 12  1  0  0  0  0
 14 13  1  0  0  0  0
 14 30  1  0  0  0  0
 15 14  1  0  0  0  0
 15 16  1  0  0  0  0
 16 12  1  0  0  0  0
 16 21  1  0  0  0  0
 17 20  1  0  0  0  0
 17 16  1  0  0  0  0
 18 17  1  0  0  0  0
 19 17  1  0  0  0  0
 21 24  1  0  0  0  0
 21 23  1  0  0  0  0
 22 21  1  0  0  0  0
 25 15  1  0  0  0  0
 26 28  1  0  0  0  0
 26 14  1  0  0  0  0
 27 26  1  0  0  0  0
 29 26  1  0  0  0  0
 30 33  1  0  0  0  0
 30 31  1  0  0  0  0
 32 30  1  0  0  0  0
M  END
