1,3
q = -1.0

 38 39  0  0  1  0  0  0  0  0999 V2000
    1.1274    0.3689    1.6664 N   0  0  0  0  0  2  0  0  0  0  0  0
    2.1572    1.5103   -0.7610 N   0  0  0  0  0  0  0  0  0  0  0  0
    1.2615    0.6272   -1.1141 O   0  0  0  0  0  1  0  0  0  0  0  0
    0.5776    0.1464    2.8871 C   0  0  0  0  0  3  0  0  0  0  0  0
    1.3153    0.2124    4.0679 C   0  0  0  0  0  0  0  0  0  0  0  0
    2.6821    0.5188    3.9927 C   0  0  0  0  0  0  0  0  0  0  0  0
    3.2338    0.7740    2.7366 C   0  0  0  0  0  0  0  0  0  0  0  0
    2.4335    0.7111    1.5798 C   0  0  0  0  0  0  0  0  0  0  0  0
    3.1042    1.0820    0.2492 C   0  0  1  0  0  0  0  0  0  0  0  0
    4.0640   -0.0009   -0.2431 C   0  0  0  0  0  0  0  0  0  0  0  0
    3.6682   -1.3475   -0.3327 C   0  0  0  0  0  0  0  0  0  0  0  0
    4.5574   -2.3116   -0.8305 C   0  0  0  0  0  0  0  0  0  0  0  0
    5.8511   -1.9442   -1.2320 C   0  0  0  0  0  0  0  0  0  0  0  0
    6.2555   -0.6029   -1.1345 C   0  0  0  0  0  0  0  0  0  0  0  0
    5.3649    0.3628   -0.6433 C   0  0  0  0  0  0  0  0  0  0  0  0
    2.0155    2.9553   -1.1260 C   0  0  0  0  0  0  0  0  0  0  0  0
    3.3438    3.4123   -1.7643 C   0  0  0  0  0  0  0  0  0  0  0  0
    1.7095    3.8144    0.1185 C   0  0  0  0  0  0  0  0  0  0  0  0
    0.8983    3.0661   -2.1693 C   0  0  0  0  0  0  0  0  0  0  0  0
   -0.4962   -0.0909    2.8845 H   0  0  0  0  0  0  0  0  0  0  0  0
    0.8156    0.0226    5.0280 H   0  0  0  0  0  0  0  0  0  0  0  0
    3.3034    0.5692    4.8993 H   0  0  0  0  0  0  0  0  0  0  0  0
    4.2985    1.0270    2.6251 H   0  0  0  0  0  0  0  0  0  0  0  0
    3.7267    1.9670    0.4834 H   0  0  0  0  0  0  0  0  0  0  0  0
    2.6561   -1.6437   -0.0303 H   0  0  0  0  0  0  0  0  0  0  0  0
    4.2257   -3.3584   -0.9017 H   0  0  0  0  0  0  0  0  0  0  0  0
    6.5477   -2.7034   -1.6193 H   0  0  0  0  0  0  0  0  0  0  0  0
    7.2698   -0.3061   -1.4422 H   0  0  0  0  0  0  0  0  0  0  0  0
    5.6839    1.4155   -0.5749 H   0  0  0  0  0  0  0  0  0  0  0  0
    3.6039    2.7738   -2.6308 H   0  0  0  0  0  0  0  0  0  0  0  0
    4.1862    3.3795   -1.0442 H   0  0  0  0  0  0  0  0  0  0  0  0
    3.2516    4.4614   -2.1099 H   0  0  0  0  0  0  0  0  0  0  0  0
    1.5503    4.8705   -0.1778 H   0  0  0  0  0  0  0  0  0  0  0  0
    2.5536    3.8000    0.8385 H   0  0  0  0  0  0  0  0  0  0  0  0
    0.8017    3.4548    0.6338 H   0  0  0  0  0  0  0  0  0  0  0  0
   -0.0710    2.7277   -1.7690 H   0  0  0  0  0  0  0  0  0  0  0  0
    1.1292    2.4510   -3.0595 H   0  0  0  0  0  0  0  0  0  0  0  0
    0.7986    4.1240   -2.4798 H   0  0  0  0  0  0  0  0  0  0  0  0
  1  4  1  0  0  0  0
  2  9  1  0  0  0  0
  3  2  1  0  0  0  0
  4  5  1  0  0  0  0
  5 21  1  0  0  0  0
  6  5  2  0  0  0  0
  6 22  1  0  0  0  0
  7  6  1  0  0  0  0
  8  1  1  0  0  0  0
  8  7  2  0  0  0  0
  9 24  1  1  0  0  0
  9  8  1  0  0  0  0
 10  9  1  0  0  0  0
 11 10  1  0  0  0  0
 11 25  1  0  0  0  0
 12 11  2  0  0  0  0
 13 14  2  0  0  0  0
 13 12  1  0  0  0  0
 14 15  1  0  0  0  0
 15 29  1  0  0  0  0
 15 10  2  0  0  0  0
 16  2  1  0  0  0  0
 16 18  1  0  0  0  0
 17 16  1  0  0  0  0
 17 31  1  0  0  0  0
 18 35  1  0  0  0  0
 18 34  1  0  0  0  0
 19 36  1  0  0  0  0
 19 16  1  0  0  0  0
 20  4  1  0  0  0  0
 23  7  1  0  0  0  0
 26 12  1  0  0  0  0
 27 13  1  0  0  0  0
 28 14  1  0  0  0  0
 30 17  1  0  0  0  0
 32 17  1  0  0  0  0
 33 18  1  0  0  0  0
 37 19  1  0  0  0  0
 38 19  1  0  0  0  0
M  END
