1,2
q = -1.0, confidence = 0.0

 31 32  0  0  1  0  0  0  0  0999 V2000
    2.2314   -0.5014   -0.1752 O   0  0  0  0  0  1  0  0  0  0  0  0
   -0.5663    0.5885    0.1822 N   0  0  0  0  0  2  0  0  0  0  0  0
    2.5312    0.7626   -0.1246 C   0  0  1  0  0  3  0  0  0  0  0  0
    3.9140    1.1205   -0.2473 C   0  0  0  0  0  0  0  0  0  0  0  0
    4.3357    2.4416   -0.2052 C   0  0  0  0  0  0  0  0  0  0  0  0
    3.4059    3.4995   -0.0417 C   0  0  0  0  0  0  0  0  0  0  0  0
    2.0600    3.1881    0.0744 C   0  0  0  0  0  0  0  0  0  0  0  0
    1.5811    1.8424    0.0395 C   0  0  0  0  0  0  0  0  0  0  0  0
    0.1585    1.6787    0.1524 C   0  0  0  0  0  0  0  0  0  0  0  0
   -2.0342    0.7112    0.2089 C   0  0  0  0  0  0  0  0  0  0  0  0
   -2.6033    1.9064    0.9912 C   0  0  0  0  0  0  0  0  0  0  0  0
   -4.1366    1.8301    1.0258 C   0  0  0  0  0  0  0  0  0  0  0  0
   -4.7261    1.7948   -0.3905 C   0  0  0  0  0  0  0  0  0  0  0  0
   -4.1317    0.6468   -1.2168 C   0  0  0  0  0  0  0  0  0  0  0  0
   -2.5987    0.6898   -1.2251 C   0  0  0  0  0  0  0  0  0  0  0  0
    4.6260    0.2922   -0.3745 H   0  0  0  0  0  0  0  0  0  0  0  0
    5.4094    2.6688   -0.3012 H   0  0  0  0  0  0  0  0  0  0  0  0
    3.7456    4.5445   -0.0099 H   0  0  0  0  0  0  0  0  0  0  0  0
    1.3184    3.9946    0.1980 H   0  0  0  0  0  0  0  0  0  0  0  0
   -0.3856    2.6414    0.2189 H   0  0  0  0  0  0  0  0  0  0  0  0
   -2.4042   -0.2001    0.7209 H   0  0  0  0  0  0  0  0  0  0  0  0
   -2.3145    2.8652    0.5078 H   0  0  0  0  0  0  0  0  0  0  0  0
   -2.1800    1.9205    2.0176 H   0  0  0  0  0  0  0  0  0  0  0  0
   -4.5451    2.6895    1.5966 H   0  0  0  0  0  0  0  0  0  0  0  0
   -4.4458    0.9141    1.5777 H   0  0  0  0  0  0  0  0  0  0  0  0
   -4.5072    2.7611   -0.8983 H   0  0  0  0  0  0  0  0  0  0  0  0
   -5.8318    1.7089   -0.3476 H   0  0  0  0  0  0  0  0  0  0  0  0
   -4.4627   -0.3250   -0.7862 H   0  0  0  0  0  0  0  0  0  0  0  0
   -4.5182    0.6726   -2.2568 H   0  0  0  0  0  0  0  0  0  0  0  0
   -2.2404    1.6029   -1.7517 H   0  0  0  0  0  0  0  0  0  0  0  0
   -2.1781   -0.1758   -1.7772 H   0  0  0  0  0  0  0  0  0  0  0  0
  2 10  1  0  0  0  0
  3  1  1  6  0  0  0
  3  8  1  0  0  0  0
  4  5  2  0  0  0  0
  4  3  1  0  0  0  0
  5  6  1  0  0  0  0
  6 18  1  0  0  0  0
  6  7  2  0  0  0  0
  7 19  1  0  0  0  0
  8  7  1  0  0  0  0
  8  9  2  0  0  0  0
  9  2  1  0  0  0  0
  9 20  1  0  0  0  0
 10 21  1  0  0  0  0
 10 11  1  0  0  0  0
 11 12  1  0  0  0  0
 11 23  1  0  0  0  0
 12 25  1  0  0  0  0
 12 24  1  0  0  0  0
 13 27  1  0  0  0  0
 13 12  1  0  0  0  0
 14 28  1  0  0  0  0
 14 13  1  0  0  0  0
 15 14  1  0  0  0  0
 15 10  1  0  0  0  0
 16  4  1  0  0  0  0
 17  5  1  0  0  0  0
 22 11  1  0  0  0  0
 26 13  1  0  0  0  0
 29 14  1  0  0  0  0
 30 15  1  0  0  0  0
 31 15  1  0  0  0  0
M  END
