1,2
q = -1.0

 26 27  0  0  1  0  0  0  0  0999 V2000
    1.3476   -1.4755   -0.1786 N   0  0  0  0  0  2  0  0  0  0  0  0
    1.4461    1.3931   -0.1834 O   0  5  0  0  0  0  0  0  0  0  0  0
    3.3409   -2.4915   -0.2636 O   0  0  0  0  0  0  0  0  0  0  0  0
    2.7388    1.1910   -0.2369 C   0  0  0  0  0  0  0  0  0  0  0  0
    3.5763    2.3509   -0.2505 C   0  0  0  0  0  0  0  0  0  0  0  0
    4.9602    2.2538   -0.3232 C   0  0  0  0  0  0  0  0  0  0  0  0
    5.5981    0.9923   -0.3869 C   0  0  0  0  0  0  0  0  0  0  0  0
    4.8169   -0.1565   -0.3705 C   0  0  0  0  0  3  0  0  0  0  0  0
    3.3983   -0.0905   -0.2902 C   0  0  0  0  0  0  0  0  0  0  0  0
    2.6500   -1.3252   -0.2475 C   0  0  0  0  0  0  0  0  0  0  0  0
    2.3657   -3.5542   -0.4074 C   0  0  0  0  0  0  0  0  0  0  0  0
    1.0293   -2.9045   -0.0012 C   0  0  1  0  0  0  0  0  0  0  0  0
    0.5891   -3.2015    1.4409 C   0  0  0  0  0  0  0  0  0  0  0  0
    0.0702   -4.6270    1.6204 C   0  0  0  0  0  0  0  0  0  0  0  0
    2.6743   -4.3933    0.2453 H   0  0  0  0  0  0  0  0  0  0  0  0
    2.3786   -3.8907   -1.4661 H   0  0  0  0  0  0  0  0  0  0  0  0
    1.4440   -3.0004    2.1234 H   0  0  0  0  0  0  0  0  0  0  0  0
   -0.2073   -2.4740    1.6936 H   0  0  0  0  0  0  0  0  0  0  0  0
   -0.2348   -4.8131    2.6689 H   0  0  0  0  0  0  0  0  0  0  0  0
    0.8341   -5.3905    1.3611 H   0  0  0  0  0  0  0  0  0  0  0  0
   -0.8157   -4.8101    0.9771 H   0  0  0  0  0  0  0  0  0  0  0  0
    3.0722    3.3275   -0.2050 H   0  0  0  0  0  0  0  0  0  0  0  0
    5.5646    3.1746   -0.3337 H   0  0  0  0  0  0  0  0  0  0  0  0
    6.6934    0.9211   -0.4477 H   0  0  0  0  0  0  0  0  0  0  0  0
    5.2830   -1.1508   -0.4159 H   0  0  0  0  0  0  0  0  0  0  0  0
    0.2036   -3.1767   -0.6880 H   0  0  0  0  0  0  0  0  0  0  0  0
  1 12  1  0  0  0  0
  3 10  1  0  0  0  0
  4  2  1  0  0  0  0
  5  4  2  0  0  0  0
  5 22  1  0  0  0  0
  6  5  1  0  0  0  0
  7  8  1  0  0  0  0
  7  6  2  0  0  0  0
  8  9  1  0  0  0  0
  9 10  2  0  0  0  0
  9  4  1  0  0  0  0
 10  1  1  0  0  0  0
 11  3  1  0  0  0  0
 11 12  1  0  0  0  0
 11 15  1  0  0  0  0
 12 26  1  6  0  0  0
 12 13  1  0  0  0  0
 13 14  1  0  0  0  0
 13 18  1  0  0  0  0
 13 17  1  0  0  0  0
 14 19  1  0  0  0  0
 16 11  1  0  0  0  0
 20 14  1  0  0  0  0
 21 14  1  0  0  0  0
 23  6  1  0  0  0  0
 24  7  1  0  0  0  0
 25  8  1  0  0  0  0
M  CHG  1   2  -1
M  END
