1,3
q = -1.0

 16 16  0  0  0  0  0  0  0  0999 V2000
    1.4843   -1.7058   -0.4074 O   0  5  0  0  0  0  0  0  0  0  0  0
    1.1376    2.1225    0.1902 O   0  0  0  0  0  1  0  0  0  0  0  0
    1.3328    0.9110    0.1043 N   0  0  0  0  0  2  0  0  0  0  0  0
    2.5812   -1.0846   -0.1546 C   0  0  0  0  0  0  0  0  0  0  0  0
    2.5908    0.3526    0.0750 C   0  0  0  0  0  0  0  0  0  0  0  0
    3.7913    1.0890    0.2798 C   0  0  0  0  0  0  0  0  0  0  0  0
    5.0098    0.4282    0.3015 C   0  0  0  0  0  0  0  0  0  0  0  0
    5.0115   -0.9981    0.1084 C   0  0  0  0  0  0  0  0  0  0  0  0
    3.8598   -1.7355   -0.1033 C   0  0  0  0  0  0  0  0  0  0  0  0
    6.3116    1.1520    0.5241 C   0  0  0  0  0  0  0  0  0  0  0  0
    3.7136    2.1762    0.4271 H   0  0  0  0  0  0  0  0  0  0  0  0
    5.9812   -1.5225    0.1290 H   0  0  0  0  0  0  0  0  0  0  0  0
    3.8884   -2.8238   -0.2570 H   0  0  0  0  0  0  0  0  0  0  0  0
    7.0043    1.0076   -0.3321 H   0  0  0  0  0  0  0  0  0  0  0  0
    6.1555    2.2396    0.6556 H   0  0  0  0  0  0  0  0  0  0  0  0
    6.8367    0.7707    1.4255 H   0  0  0  0  0  0  0  0  0  0  0  0
  1  4  1  0  0  0  0
  3  2  1  0  0  0  0
  4  9  2  0  0  0  0
  4  5  1  0  0  0  0
  5  3  1  0  0  0  0
  5  6  2  0  0  0  0
  6  7  1  0  0  0  0
  6 11  1  0  0  0  0
  7 10  1  0  0  0  0
  8 12  1  0  0  0  0
  8  7  2  0  0  0  0
  9  8  1  0  0  0  0
 10 15  1  0  0  0  0
 10 16  1  0  0  0  0
 13  9  1  0  0  0  0
 14 10  1  0  0  0  0
M  CHG  1   1  -1
M  END
