1,3
q = 0.0, confidence = 0.656

 15 15  0  0  0  0  0  0  0  0999 V2000
   -1.5939   -1.7413    0.0614 O   0  5  0  0  0  0  0  0  0  0  0  0
   -1.2593    2.0733   -0.7008 O   0  0  0  0  0  1  0  0  0  0  0  0
   -1.4476    0.8443   -0.6369 N   0  0  0  0  0  2  0  0  0  0  0  0
   -2.6708   -1.0765    0.1126 C   0  0  0  0  0  0  0  0  0  0  0  0
   -2.6784    0.3584   -0.1703 C   0  0  0  0  0  0  0  0  0  0  0  0
   -3.8343    1.1230   -0.0780 C   0  0  0  0  0  0  0  0  0  0  0  0
   -5.0865    0.4989    0.2563 C   0  0  0  0  0  0  0  0  0  0  0  0
   -5.0803   -0.9386    0.5273 C   0  0  0  0  0  0  0  0  0  0  0  0
   -3.9396   -1.6895    0.4747 C   0  0  0  0  0  0  0  0  0  0  0  0
   -6.2676    1.2057    0.3690 C   0  0  0  0  0  3  0  0  0  0  0  0
   -3.7677    2.2049   -0.2612 H   0  0  0  0  0  0  0  0  0  0  0  0
   -6.0389   -1.4129    0.7913 H   0  0  0  0  0  0  0  0  0  0  0  0
   -3.9343   -2.7680    0.6889 H   0  0  0  0  0  0  0  0  0  0  0  0
   -6.3021    2.2891    0.1804 H   0  0  0  0  0  0  0  0  0  0  0  0
   -7.2017    0.7060    0.6657 H   0  0  0  0  0  0  0  0  0  0  0  0
  1  4  1  0  0  0  0
  2  3  1  0  0  0  0
  3  5  1  0  0  0  0
  4  9  1  0  0  0  0
  5  6  1  0  0  0  0
  5  4  2  0  0  0  0
  6  7  2  0  0  0  0
  7 10  1  0  0  0  0
  7  8  1  0  0  0  0
  8 12  1  0  0  0  0
  9  8  2  0  0  0  0
  9 13  1  0  0  0  0
 10 15  1  0  0  0  0
 11  6  1  0  0  0  0
 14 10  1  0  0  0  0
M  CHG  1   1  -1
M  END
