1,3
q = -1.0, confidence = 0.084

 51 54  0  0  1  0  0  0  0  0999 V2000
   -1.0301    1.0314   -0.0042 N   0  0  0  0  0  2  0  0  0  0  0  0
    4.6199    0.6399   -0.2961 N   0  0  0  0  0  0  0  0  0  0  0  0
   -3.8257    0.3393   -0.4850 O   0  0  0  0  0  1  0  0  0  0  0  0
   -5.0301    5.7148    0.0514 O   0  0  0  0  0  0  0  0  0  0  0  0
   -4.0270    1.6146   -0.3412 C   0  0  2  0  0  3  0  0  0  0  0  0
   -5.3596    2.1251   -0.4874 C   0  0  0  0  0  0  0  0  0  0  0  0
   -6.1541    1.3975   -0.7077 H   0  0  0  0  0  0  0  0  0  0  0  0
   -5.6473    3.4699   -0.3453 C   0  0  0  0  0  0  0  0  0  0  0  0
   -6.6764    3.8462   -0.4475 H   0  0  0  0  0  0  0  0  0  0  0  0
   -4.6189    4.4155   -0.0653 C   0  0  0  0  0  0  0  0  0  0  0  0
   -3.3092    3.9675    0.0581 C   0  0  0  0  0  0  0  0  0  0  0  0
   -2.4873    4.6695    0.2570 H   0  0  0  0  0  0  0  0  0  0  0  0
   -2.9837    2.5758   -0.0653 C   0  0  0  0  0  0  0  0  0  0  0  0
   -4.0463    6.6896    0.3181 C   0  0  0  0  0  0  0  0  0  0  0  0
   -3.5222    6.4998    1.2835 H   0  0  0  0  0  0  0  0  0  0  0  0
   -4.5696    7.6621    0.3796 H   0  0  0  0  0  0  0  0  0  0  0  0
   -3.2807    6.7424   -0.4905 H   0  0  0  0  0  0  0  0  0  0  0  0
   -1.6009    2.2299   -0.0120 C   0  0  0  0  0  0  0  0  0  0  0  0
   -0.8998    3.0859   -0.0333 H   0  0  0  0  0  0  0  0  0  0  0  0
    0.3933    1.0053   -0.1083 C   0  0  0  0  0  0  0  0  0  0  0  0
    1.0004    0.1989   -1.0916 C   0  0  0  0  0  0  0  0  0  0  0  0
    0.3575   -0.3650   -1.7821 H   0  0  0  0  0  0  0  0  0  0  0  0
    2.3890    0.1106   -1.1770 C   0  0  0  0  0  0  0  0  0  0  0  0
    2.8510   -0.5200   -1.9494 H   0  0  0  0  0  0  0  0  0  0  0  0
    3.2147    0.8007   -0.2593 C   0  0  0  0  0  0  0  0  0  0  0  0
    2.6044    1.6285    0.7098 C   0  0  0  0  0  0  0  0  0  0  0  0
    3.2317    2.1646    1.4361 H   0  0  0  0  0  0  0  0  0  0  0  0
    1.2110    1.7397    0.7736 C   0  0  0  0  0  0  0  0  0  0  0  0
    0.7470    2.3472    1.5651 H   0  0  0  0  0  0  0  0  0  0  0  0
    5.4657    1.7429   -0.0109 C   0  0  0  0  0  0  0  0  0  0  0  0
    5.1737    3.0200   -0.5400 C   0  0  0  0  0  0  0  0  0  0  0  0
    4.2911    3.1457   -1.1836 H   0  0  0  0  0  0  0  0  0  0  0  0
    6.0012    4.1113   -0.2471 C   0  0  0  0  0  0  0  0  0  0  0  0
    5.7605    5.0992   -0.6689 H   0  0  0  0  0  0  0  0  0  0  0  0
    7.1394    3.9489    0.5602 C   0  0  0  0  0  0  0  0  0  0  0  0
    7.7910    4.8069    0.7820 H   0  0  0  0  0  0  0  0  0  0  0  0
    7.4364    2.6782    1.0801 C   0  0  0  0  0  0  0  0  0  0  0  0
    8.3206    2.5374    1.7207 H   0  0  0  0  0  0  0  0  0  0  0  0
    6.6062    1.5836    0.8073 C   0  0  0  0  0  0  0  0  0  0  0  0
    6.8340    0.5929    1.2260 H   0  0  0  0  0  0  0  0  0  0  0  0
    5.1786   -0.6409   -0.5483 C   0  0  0  0  0  0  0  0  0  0  0  0
    6.3711   -0.7674   -1.2955 C   0  0  0  0  0  0  0  0  0  0  0  0
    6.8612    0.1355   -1.6871 H   0  0  0  0  0  0  0  0  0  0  0  0
    6.9225   -2.0328   -1.5346 C   0  0  0  0  0  0  0  0  0  0  0  0
    7.8517   -2.1126   -2.1194 H   0  0  0  0  0  0  0  0  0  0  0  0
    6.2918   -3.1923   -1.0538 C   0  0  0  0  0  0  0  0  0  0  0  0
    6.7244   -4.1840   -1.2522 H   0  0  0  0  0  0  0  0  0  0  0  0
    5.1002   -3.0689   -0.3202 C   0  0  0  0  0  0  0  0  0  0  0  0
    4.5891   -3.9644    0.0660 H   0  0  0  0  0  0  0  0  0  0  0  0
    4.5500   -1.8083   -0.0592 C   0  0  0  0  0  0  0  0  0  0  0  0
    3.6179   -1.7254    0.5173 H   0  0  0  0  0  0  0  0  0  0  0  0
  2 25  1  0  0  0  0
  2 30  1  0  0  0  0
  4 14  1  0  0  0  0
  5  3  1  6  0  0  0
  5 13  1  0  0  0  0
  6  8  2  0  0  0  0
  6  5  1  0  0  0  0
  7  6  1  0  0  0  0
  8 10  1  0  0  0  0
  9  8  1  0  0  0  0
 10  4  1  0  0  0  0
 10 11  2  0  0  0  0
 11 12  1  0  0  0  0
 13 18  2  0  0  0  0
 13 11  1  0  0  0  0
 14 16  1  0  0  0  0
 14 15  1  0  0  0  0
 17 14  1  0  0  0  0
 18  1  1  0  0  0  0
 19 18  1  0  0  0  0
 20  1  1  0  0  0  0
 20 28  1  0  0  0  0
 21 20  2  0  0  0  0
 22 21  1  0  0  0  0
 23 21  1  0  0  0  0
 23 25  2  0  0  0  0
 24 23  1  0  0  0  0
 25 26  1  0  0  0  0
 26 28  2  0  0  0  0
 26 27  1  0  0  0  0
 28 29  1  0  0  0  0
 30 39  1  0  0  0  0
 31 33  1  0  0  0  0
 31 30  2  0  0  0  0
 32 31  1  0  0  0  0
 33 35  2  0  0  0  0
 34 33  1  0  0  0  0
 35 36  1  0  0  0  0
 35 37  1  0  0  0  0
 37 38  1  0  0  0  0
 39 37  2  0  0  0  0
 39 40  1  0  0  0  0
 41  2  1  0  0  0  0
 41 50  1  0  0  0  0
 42 41  2  0  0  0  0
 43 42  1  0  0  0  0
 44 42  1  0  0  0  0
 44 46  2  0  0  0  0
 45 44  1  0  0  0  0
 46 48  1  0  0  0  0
 47 46  1  0  0  0  0
 48 50  2  0  0  0  0
 48 49  1  0  0  0  0
 50 51  1  0  0  0  0
M  END
