1,3
q = -1.0

 61 65  0  0  0  0  0  0  0  0999 V2000
   -2.5558    1.0175    0.0475 N   0  0  0  0  0  2  0  0  0  0  0  0
    7.4396    0.2471    0.1837 N   0  0  0  0  0  0  0  0  0  0  0  0
   -5.3674    0.4011    0.5601 O   0  5  0  0  0  0  0  0  0  0  0  0
   -6.3474    5.8471    0.5582 O   0  0  0  0  0  0  0  0  0  0  0  0
   -5.5179    1.6903    0.5404 C   0  0  0  0  0  0  0  0  0  0  0  0
   -6.8222    2.2400    0.7761 C   0  0  0  0  0  0  0  0  0  0  0  0
   -7.6419    1.5292    0.9553 H   0  0  0  0  0  0  0  0  0  0  0  0
   -7.0527    3.6029    0.7675 C   0  0  0  0  0  0  0  0  0  0  0  0
   -8.0603    4.0113    0.9382 H   0  0  0  0  0  0  0  0  0  0  0  0
   -5.9913    4.5267    0.5411 C   0  0  0  0  0  0  0  0  0  0  0  0
   -4.7075    4.0377    0.3328 C   0  0  0  0  0  3  0  0  0  0  0  0
   -3.8612    4.7199    0.1707 H   0  0  0  0  0  0  0  0  0  0  0  0
   -4.4416    2.6277    0.3179 C   0  0  0  0  0  0  0  0  0  0  0  0
   -5.3291    6.8005    0.3496 C   0  0  0  0  0  0  0  0  0  0  0  0
   -5.8097    7.7957    0.3962 H   0  0  0  0  0  0  0  0  0  0  0  0
   -4.8431    6.6804   -0.6464 H   0  0  0  0  0  0  0  0  0  0  0  0
   -4.5381    6.7447    1.1333 H   0  0  0  0  0  0  0  0  0  0  0  0
   -3.0793    2.2314    0.1780 C   0  0  0  0  0  0  0  0  0  0  0  0
   -2.3442    3.0563    0.2369 H   0  0  0  0  0  0  0  0  0  0  0  0
   -1.1289    0.9525    0.0835 C   0  0  0  0  0  0  0  0  0  0  0  0
   -0.3408    1.7317   -0.7864 C   0  0  0  0  0  0  0  0  0  0  0  0
   -0.8308    2.3977   -1.5122 H   0  0  0  0  0  0  0  0  0  0  0  0
    1.0545    1.6271   -0.7581 C   0  0  0  0  0  0  0  0  0  0  0  0
    1.6513    2.2491   -1.4417 H   0  0  0  0  0  0  0  0  0  0  0  0
    1.7090    0.7500    0.1377 C   0  0  0  0  0  0  0  0  0  0  0  0
    0.8995   -0.0118    1.0145 C   0  0  0  0  0  0  0  0  0  0  0  0
    1.3726   -0.7242    1.7062 H   0  0  0  0  0  0  0  0  0  0  0  0
   -0.4933    0.0822    0.9896 C   0  0  0  0  0  0  0  0  0  0  0  0
   -1.1160   -0.5401    1.6479 H   0  0  0  0  0  0  0  0  0  0  0  0
    3.1836    0.6248    0.1506 C   0  0  0  0  0  0  0  0  0  0  0  0
    3.9474    0.7802   -1.0304 C   0  0  0  0  0  0  0  0  0  0  0  0
    3.4339    0.9629   -1.9865 H   0  0  0  0  0  0  0  0  0  0  0  0
    5.3378    0.6509   -1.0274 C   0  0  0  0  0  0  0  0  0  0  0  0
    5.9023    0.7512   -1.9654 H   0  0  0  0  0  0  0  0  0  0  0  0
    6.0312    0.3737    0.1730 C   0  0  0  0  0  0  0  0  0  0  0  0
    5.2812    0.2244    1.3621 C   0  0  0  0  0  0  0  0  0  0  0  0
    5.8045    0.0264    2.3084 H   0  0  0  0  0  0  0  0  0  0  0  0
    3.8897    0.3398    1.3433 C   0  0  0  0  0  0  0  0  0  0  0  0
    3.3368    0.2476    2.2902 H   0  0  0  0  0  0  0  0  0  0  0  0
    8.0625   -0.7165    1.0195 C   0  0  0  0  0  0  0  0  0  0  0  0
    9.2525   -0.3997    1.7118 C   0  0  0  0  0  0  0  0  0  0  0  0
    9.6875    0.6042    1.6026 H   0  0  0  0  0  0  0  0  0  0  0  0
    9.8698   -1.3565    2.5272 C   0  0  0  0  0  0  0  0  0  0  0  0
   10.7960   -1.0932    3.0608 H   0  0  0  0  0  0  0  0  0  0  0  0
    9.3079   -2.6347    2.6812 C   0  0  0  0  0  0  0  0  0  0  0  0
    9.7924   -3.3811    3.3279 H   0  0  0  0  0  0  0  0  0  0  0  0
    8.1206   -2.9493    1.9996 C   0  0  0  0  0  0  0  0  0  0  0  0
    7.6732   -3.9497    2.1035 H   0  0  0  0  0  0  0  0  0  0  0  0
    7.5041   -2.0056    1.1683 C   0  0  0  0  0  0  0  0  0  0  0  0
    6.5824   -2.2591    0.6250 H   0  0  0  0  0  0  0  0  0  0  0  0
    8.2366    1.0804   -0.6439 C   0  0  0  0  0  0  0  0  0  0  0  0
    7.9213    2.4487   -0.8002 C   0  0  0  0  0  0  0  0  0  0  0  0
    7.0537    2.8651   -0.2684 H   0  0  0  0  0  0  0  0  0  0  0  0
    8.7075    3.2638   -1.6242 C   0  0  0  0  0  0  0  0  0  0  0  0
    8.4490    4.3282   -1.7341 H   0  0  0  0  0  0  0  0  0  0  0  0
    9.8271    2.7390   -2.2909 C   0  0  0  0  0  0  0  0  0  0  0  0
   10.4458    3.3842   -2.9319 H   0  0  0  0  0  0  0  0  0  0  0  0
   10.1480    1.3810   -2.1292 C   0  0  0  0  0  0  0  0  0  0  0  0
   11.0181    0.9539   -2.6509 H   0  0  0  0  0  0  0  0  0  0  0  0
    9.3587    0.5530   -1.3210 C   0  0  0  0  0  0  0  0  0  0  0  0
    9.6047   -0.5124   -1.2058 H   0  0  0  0  0  0  0  0  0  0  0  0
  1 20  1  0  0  0  0
  1 18  1  0  0  0  0
  2 40  1  0  0  0  0
  5  3  1  0  0  0  0
  5  6  2  0  0  0  0
  6  7  1  0  0  0  0
  8  6  1  0  0  0  0
  8  9  1  0  0  0  0
 10  4  1  0  0  0  0
 10  8  2  0  0  0  0
 11 10  1  0  0  0  0
 12 11  1  0  0  0  0
 13 11  1  0  0  0  0
 13  5  1  0  0  0  0
 14 15  1  0  0  0  0
 14  4  1  0  0  0  0
 14 17  1  0  0  0  0
 16 14  1  0  0  0  0
 18 19  1  0  0  0  0
 18 13  2  0  0  0  0
 20 28  1  0  0  0  0
 21 23  1  0  0  0  0
 21 20  2  0  0  0  0
 22 21  1  0  0  0  0
 23 25  2  0  0  0  0
 24 23  1  0  0  0  0
 25 30  1  0  0  0  0
 25 26  1  0  0  0  0
 26 27  1  0  0  0  0
 28 26  2  0  0  0  0
 28 29  1  0  0  0  0
 30 38  1  0  0  0  0
 31 33  1  0  0  0  0
 31 30  2  0  0  0  0
 32 31  1  0  0  0  0
 33 35  2  0  0  0  0
 34 33  1  0  0  0  0
 35  2  1  0  0  0  0
 35 36  1  0  0  0  0
 36 37  1  0  0  0  0
 38 36  2  0  0  0  0
 38 39  1  0  0  0  0
 40 49  2  0  0  0  0
 40 41  1  0  0  0  0
 41 43  2  0  0  0  0
 42 41  1  0  0  0  0
 43 45  1  0  0  0  0
 43 44  1  0  0  0  0
 45 46  1  0  0  0  0
 47 48  1  0  0  0  0
 47 45  2  0  0  0  0
 49 47  1  0  0  0  0
 50 49  1  0  0  0  0
 51  2  1  0  0  0  0
 52 51  1  0  0  0  0
 52 53  1  0  0  0  0
 54 52  2  0  0  0  0
 55 54  1  0  0  0  0
 56 58  2  0  0  0  0
 56 54  1  0  0  0  0
 57 56  1  0  0  0  0
 58 60  1  0  0  0  0
 59 58  1  0  0  0  0
 60 61  1  0  0  0  0
 60 51  2  0  0  0  0
M  CHG  1   3  -1
M  END
