1,2
q = -1.0

 27 29  0  0  1  0  0  0  0  0999 V2000
   -0.9350    0.4560    0.1320 N   0  0  0  0  0  2  0  0  0  0  0  0
    1.6672    0.0368    0.2294 O   0  5  0  0  0  0  0  0  0  0  0  0
   -1.5510    2.6258    0.0432 O   0  0  0  0  0  0  0  0  0  0  0  0
    1.9003    1.3245    0.1126 C   0  0  0  0  0  0  0  0  0  0  0  0
    3.2483    1.7898    0.0829 C   0  0  0  0  0  0  0  0  0  0  0  0
    3.4632    3.1698   -0.0134 C   0  0  0  0  0  0  0  0  0  0  0  0
    4.5002    3.5414   -0.0304 H   0  0  0  0  0  0  0  0  0  0  0  0
    2.3948    4.0914   -0.0851 C   0  0  0  0  0  0  0  0  0  0  0  0
    2.6046    5.1682   -0.1591 H   0  0  0  0  0  0  0  0  0  0  0  0
    1.0783    3.6380   -0.0573 C   0  0  0  0  0  0  0  0  0  0  0  0
    0.2345    4.3399   -0.1084 H   0  0  0  0  0  0  0  0  0  0  0  0
    0.8175    2.2484    0.0420 C   0  0  0  0  0  0  0  0  0  0  0  0
   -0.5228    1.7239    0.0817 C   0  0  2  0  0  3  0  0  0  0  0  0
   -2.3375    0.5178    0.1128 C   0  0  0  0  0  0  0  0  0  0  0  0
   -3.3454   -0.4647    0.1067 C   0  0  0  0  0  0  0  0  0  0  0  0
   -3.0917   -1.5285    0.1786 H   0  0  0  0  0  0  0  0  0  0  0  0
   -4.6755   -0.0235    0.0519 C   0  0  0  0  0  0  0  0  0  0  0  0
   -5.4830   -0.7704    0.0526 H   0  0  0  0  0  0  0  0  0  0  0  0
   -5.0103    1.3484    0.0054 C   0  0  0  0  0  0  0  0  0  0  0  0
   -6.0684    1.6466   -0.0318 H   0  0  0  0  0  0  0  0  0  0  0  0
   -4.0171    2.3410    0.0060 C   0  0  0  0  0  0  0  0  0  0  0  0
   -4.2509    3.4134   -0.0340 H   0  0  0  0  0  0  0  0  0  0  0  0
   -2.7031    1.8797    0.0555 C   0  0  0  0  0  0  0  0  0  0  0  0
    4.3561    0.7769    0.1540 C   0  0  0  0  0  0  0  0  0  0  0  0
    4.4399    0.2155   -0.8015 H   0  0  0  0  0  0  0  0  0  0  0  0
    4.1475    0.0156    0.9323 H   0  0  0  0  0  0  0  0  0  0  0  0
    5.3325    1.2563    0.3559 H   0  0  0  0  0  0  0  0  0  0  0  0
  3 23  1  0  0  0  0
  3 13  1  0  0  0  0
  4  2  1  0  0  0  0
  5  4  1  0  0  0  0
  5 24  1  0  0  0  0
  6  5  2  0  0  0  0
  7  6  1  0  0  0  0
  8 10  2  0  0  0  0
  8  6  1  0  0  0  0
  9  8  1  0  0  0  0
 10 12  1  0  0  0  0
 11 10  1  0  0  0  0
 12  4  2  0  0  0  0
 13 12  1  6  0  0  0
 13  1  1  0  0  0  0
 14  1  1  0  0  0  0
 15 14  1  0  0  0  0
 15 16  1  0  0  0  0
 17 18  1  0  0  0  0
 17 15  2  0  0  0  0
 19 21  2  0  0  0  0
 19 17  1  0  0  0  0
 20 19  1  0  0  0  0
 21 23  1  0  0  0  0
 22 21  1  0  0  0  0
 23 14  2  0  0  0  0
 24 27  1  0  0  0  0
 24 26  1  0  0  0  0
 25 24  1  0  0  0  0
M  CHG  1   2  -1
M  END
