1,3
q = -1.0

 36 36  0  0  1  0  0  0  0  0999 V2000
   -0.5280   -1.2428   -1.8811 N   0  0  0  0  0  2  0  0  0  0  0  0
    1.5312   -2.9438   -0.6620 N   0  0  0  0  0  0  0  0  0  0  0  0
   -1.2164    0.7741    0.1829 O   0  5  0  0  0  0  0  0  0  0  0  0
   -2.7466    2.9425    0.8186 C   0  0  0  0  0  0  0  0  0  0  0  0
   -1.7283    2.8165    1.2142 H   0  0  0  0  0  0  0  0  0  0  0  0
   -3.5874    3.9677    1.2691 C   0  0  0  0  0  0  0  0  0  0  0  0
   -3.2271    4.6767    2.0307 H   0  0  0  0  0  0  0  0  0  0  0  0
   -4.8882    4.0920    0.7535 C   0  0  0  0  0  0  0  0  0  0  0  0
   -5.5527    4.8942    1.1097 H   0  0  0  0  0  0  0  0  0  0  0  0
   -5.3382    3.1815   -0.2167 C   0  0  0  0  0  0  0  0  0  0  0  0
   -6.3603    3.2637   -0.6177 H   0  0  0  0  0  0  0  0  0  0  0  0
   -4.4919    2.1623   -0.6752 C   0  0  0  0  0  0  0  0  0  0  0  0
   -4.8687    1.4488   -1.4225 H   0  0  0  0  0  0  0  0  0  0  0  0
   -3.1808    2.0298   -0.1679 C   0  0  0  0  0  0  0  0  0  0  0  0
   -2.2213    0.9471   -0.5899 C   0  0  0  0  0  0  0  0  0  0  0  0
   -2.4742    0.2273   -1.7813 C   0  0  0  0  0  0  0  0  0  0  0  0
   -3.3543    0.5274   -2.3625 H   0  0  0  0  0  0  0  0  0  0  0  0
   -1.6353   -0.7360   -2.4170 C   0  0  1  0  0  3  0  0  0  0  0  0
   -2.0598   -1.1799   -3.8043 C   0  0  0  0  0  0  0  0  0  0  0  0
   -1.3126   -0.8720   -4.5659 H   0  0  0  0  0  0  0  0  0  0  0  0
   -3.0342   -0.7447   -4.0892 H   0  0  0  0  0  0  0  0  0  0  0  0
   -2.1341   -2.2856   -3.8682 H   0  0  0  0  0  0  0  0  0  0  0  0
    0.3082   -2.1271   -2.6726 C   0  0  0  0  0  0  0  0  0  0  0  0
    0.5135   -1.7061   -3.6834 H   0  0  0  0  0  0  0  0  0  0  0  0
   -0.2019   -3.1042   -2.8637 H   0  0  0  0  0  0  0  0  0  0  0  0
    1.6607   -2.3590   -1.9996 C   0  0  0  0  0  0  0  0  0  0  0  0
    2.3006   -2.9951   -2.6649 H   0  0  0  0  0  0  0  0  0  0  0  0
    2.1579   -1.3759   -1.8828 H   0  0  0  0  0  0  0  0  0  0  0  0
    1.1518   -4.3482   -0.7213 C   0  0  0  0  0  0  0  0  0  0  0  0
    0.2079   -4.4811   -1.2853 H   0  0  0  0  0  0  0  0  0  0  0  0
    0.9964   -4.7494    0.3006 H   0  0  0  0  0  0  0  0  0  0  0  0
    1.9349   -4.9794   -1.2168 H   0  0  0  0  0  0  0  0  0  0  0  0
    2.7460   -2.7755    0.1295 C   0  0  0  0  0  0  0  0  0  0  0  0
    2.5744   -3.1485    1.1591 H   0  0  0  0  0  0  0  0  0  0  0  0
    3.0016   -1.7030    0.1963 H   0  0  0  0  0  0  0  0  0  0  0  0
    3.6156   -3.3330   -0.3036 H   0  0  0  0  0  0  0  0  0  0  0  0
  2 33  1  0  0  0  0
  4  5  1  0  0  0  0
  4  6  1  0  0  0  0
  6  7  1  0  0  0  0
  8  9  1  0  0  0  0
  8  6  2  0  0  0  0
 10  8  1  0  0  0  0
 11 10  1  0  0  0  0
 12 10  2  0  0  0  0
 12 14  1  0  0  0  0
 13 12  1  0  0  0  0
 14  4  2  0  0  0  0
 15 14  1  0  0  0  0
 15  3  1  0  0  0  0
 16 15  2  0  0  0  0
 17 16  1  0  0  0  0
 18  1  1  6  0  0  0
 18 16  1  0  0  0  0
 19 18  1  0  0  0  0
 20 19  1  0  0  0  0
 21 19  1  0  0  0  0
 22 19  1  0  0  0  0
 23 26  1  0  0  0  0
 23  1  1  0  0  0  0
 24 23  1  0  0  0  0
 25 23  1  0  0  0  0
 26 28  1  0  0  0  0
 26  2  1  0  0  0  0
 27 26  1  0  0  0  0
 29  2  1  0  0  0  0
 29 31  1  0  0  0  0
 30 29  1  0  0  0  0
 32 29  1  0  0  0  0
 33 35  1  0  0  0  0
 33 34  1  0  0  0  0
 36 33  1  0  0  0  0
M  CHG  1   3  -1
M  END
