3,4
q = -1.0

 37 39  0  0  1  0  0  0  0  0999 V2000
   -3.3277    3.2901   -1.9805 Cl  0  0  0  0  0  0  0  0  0  0  0  0
   -7.2624   -0.2671   -0.7887 Cl  0  0  0  0  0  0  0  0  0  0  0  0
   -1.5519    1.0061   -1.5511 O   0  0  0  0  0  1  0  0  0  0  0  0
   -0.9797   -1.6310   -1.0085 N   0  0  0  0  0  2  0  0  0  0  0  0
   -3.2359   -0.6372   -1.0280 C   0  0  0  0  0  0  0  0  0  0  0  0
   -2.7995    0.6796   -1.3873 C   0  0  1  0  0  3  0  0  0  0  0  0
   -3.8192    1.6754   -1.5502 C   0  0  0  0  0  0  0  0  0  0  0  0
   -5.1692    1.3852   -1.3739 C   0  0  0  0  0  0  0  0  0  0  0  0
   -5.5653    0.0763   -1.0143 C   0  0  0  0  0  0  0  0  0  0  0  0
   -4.6149   -0.9229   -0.8418 C   0  0  0  0  0  0  0  0  0  0  0  0
   -2.2801   -1.6938   -0.8623 C   0  0  0  0  0  0  0  0  0  0  0  0
   -0.2631   -2.9419   -0.8312 C   0  0  2  0  0  0  0  0  0  0  0  0
   -0.4734   -3.8084   -2.0719 C   0  0  0  0  0  0  0  0  0  0  0  0
   -0.6176   -3.5763    0.5048 C   0  0  0  0  0  0  0  0  0  0  0  0
   -1.3912   -4.7301    0.5887 C   0  0  0  0  0  0  0  0  0  0  0  0
   -1.7402   -5.3033    1.8410 C   0  0  0  0  0  0  0  0  0  0  0  0
   -1.3117   -4.7164    3.0186 C   0  0  0  0  0  0  0  0  0  0  0  0
   -0.5059   -3.5397    2.9905 C   0  0  0  0  0  0  0  0  0  0  0  0
   -0.0420   -2.9280    4.1926 C   0  0  0  0  0  0  0  0  0  0  0  0
    0.7528   -1.7922    4.1566 C   0  0  0  0  0  0  0  0  0  0  0  0
    1.1150   -1.2222    2.9090 C   0  0  0  0  0  0  0  0  0  0  0  0
    0.6767   -1.7906    1.7219 C   0  0  0  0  0  0  0  0  0  0  0  0
   -0.1453   -2.9575    1.7187 C   0  0  0  0  0  0  0  0  0  0  0  0
   -5.9199    2.1754   -1.5073 H   0  0  0  0  0  0  0  0  0  0  0  0
   -4.9269   -1.9395   -0.5629 H   0  0  0  0  0  0  0  0  0  0  0  0
   -2.7064   -2.6723   -0.5657 H   0  0  0  0  0  0  0  0  0  0  0  0
    0.8096   -2.6872   -0.8129 H   0  0  0  0  0  0  0  0  0  0  0  0
    0.1084   -4.7467   -1.9878 H   0  0  0  0  0  0  0  0  0  0  0  0
   -1.5395   -4.0669   -2.2372 H   0  0  0  0  0  0  0  0  0  0  0  0
   -0.1109   -3.2586   -2.9617 H   0  0  0  0  0  0  0  0  0  0  0  0
   -1.7398   -5.2206   -0.3318 H   0  0  0  0  0  0  0  0  0  0  0  0
   -2.3533   -6.2168    1.8661 H   0  0  0  0  0  0  0  0  0  0  0  0
   -1.5799   -5.1517    3.9938 H   0  0  0  0  0  0  0  0  0  0  0  0
   -0.3268   -3.3809    5.1553 H   0  0  0  0  0  0  0  0  0  0  0  0
    1.1018   -1.3286    5.0917 H   0  0  0  0  0  0  0  0  0  0  0  0
    1.7353   -0.3143    2.8798 H   0  0  0  0  0  0  0  0  0  0  0  0
    0.9470   -1.3178    0.7687 H   0  0  0  0  0  0  0  0  0  0  0  0
  1  7  1  0  0  0  0
  4 11  1  0  0  0  0
  4 12  1  0  0  0  0
  5 11  2  0  0  0  0
  5 10  1  0  0  0  0
  6  3  1  1  0  0  0
  6  5  1  0  0  0  0
  7  6  1  0  0  0  0
  7  8  2  0  0  0  0
  8  9  1  0  0  0  0
  9 10  2  0  0  0  0
  9  2  1  0  0  0  0
 10 25  1  0  0  0  0
 11 26  1  0  0  0  0
 12 27  1  1  0  0  0
 12 14  1  0  0  0  0
 13 28  1  0  0  0  0
 13 12  1  0  0  0  0
 14 15  2  0  0  0  0
 14 23  1  0  0  0  0
 15 16  1  0  0  0  0
 16 32  1  0  0  0  0
 16 17  2  0  0  0  0
 17 33  1  0  0  0  0
 18 17  1  0  0  0  0
 18 19  1  0  0  0  0
 19 34  1  0  0  0  0
 20 19  2  0  0  0  0
 20 35  1  0  0  0  0
 21 20  1  0  0  0  0
 22 21  2  0  0  0  0
 23 22  1  0  0  0  0
 23 18  2  0  0  0  0
 24  8  1  0  0  0  0
 29 13  1  0  0  0  0
 30 13  1  0  0  0  0
 31 15  1  0  0  0  0
 36 21  1  0  0  0  0
 37 22  1  0  0  0  0
M  END
