1,2
q = -1.0

 66 68  0  0  0  0  0  0  0  0999 V2000
    0.5248   -1.3761   -1.1484 O   0  5  0  0  0  0  0  0  0  0  0  0
    0.0197   -1.0268    1.5766 N   0  0  0  0  0  2  0  0  0  0  0  0
   -1.7432    0.2326   -0.1141 N   0  0  0  0  0  0  0  0  0  0  0  0
    1.0660   -1.6357    2.1790 C   0  0  0  0  0  3  0  0  0  0  0  0
    1.2248   -2.6921    1.9330 H   0  0  0  0  0  0  0  0  0  0  0  0
    1.9275   -0.9530    3.0391 C   0  0  0  0  0  0  0  0  0  0  0  0
    2.7696   -1.4891    3.4978 H   0  0  0  0  0  0  0  0  0  0  0  0
    1.7100    0.4127    3.2733 C   0  0  0  0  0  0  0  0  0  0  0  0
    2.3876    0.9859    3.9227 H   0  0  0  0  0  0  0  0  0  0  0  0
    0.6170    1.0366    2.6628 C   0  0  0  0  0  0  0  0  0  0  0  0
    0.4118    2.1052    2.8147 H   0  0  0  0  0  0  0  0  0  0  0  0
   -0.2191    0.2887    1.8232 C   0  0  0  0  0  0  0  0  0  0  0  0
   -1.4874    0.8173    1.2300 C   0  0  0  0  0  0  0  0  0  0  0  0
   -2.3249    0.5083    1.8916 H   0  0  0  0  0  0  0  0  0  0  0  0
   -1.4880    1.9258    1.1924 H   0  0  0  0  0  0  0  0  0  0  0  0
   -3.2057    0.3835   -0.4709 C   0  0  0  0  0  0  0  0  0  0  0  0
   -3.3188   -0.0736   -1.4717 H   0  0  0  0  0  0  0  0  0  0  0  0
   -3.7702   -0.2251    0.2599 H   0  0  0  0  0  0  0  0  0  0  0  0
   -3.7454    1.7969   -0.4813 C   0  0  0  0  0  0  0  0  0  0  0  0
   -4.2905    2.3679    0.6881 C   0  0  0  0  0  0  0  0  0  0  0  0
   -4.3503    1.7720    1.6130 H   0  0  0  0  0  0  0  0  0  0  0  0
   -4.7833    3.6808    0.6837 C   0  0  0  0  0  0  0  0  0  0  0  0
   -5.2103    4.1088    1.6028 H   0  0  0  0  0  0  0  0  0  0  0  0
   -4.7471    4.4403   -0.4963 C   0  0  0  0  0  0  0  0  0  0  0  0
   -5.1384    5.4685   -0.5025 H   0  0  0  0  0  0  0  0  0  0  0  0
   -4.2293    3.8770   -1.6732 C   0  0  0  0  0  0  0  0  0  0  0  0
   -4.2185    4.4600   -2.6061 H   0  0  0  0  0  0  0  0  0  0  0  0
   -3.7354    2.5647   -1.6655 C   0  0  0  0  0  0  0  0  0  0  0  0
   -3.3490    2.1242   -2.5981 H   0  0  0  0  0  0  0  0  0  0  0  0
   -0.9071    0.9515   -1.1472 C   0  0  0  0  0  0  0  0  0  0  0  0
   -1.1038    0.4259   -2.1045 H   0  0  0  0  0  0  0  0  0  0  0  0
   -1.2865    1.9901   -1.2258 H   0  0  0  0  0  0  0  0  0  0  0  0
    0.5558    0.9726   -0.8485 C   0  0  0  0  0  0  0  0  0  0  0  0
    1.2372    2.1656   -0.5545 C   0  0  0  0  0  0  0  0  0  0  0  0
    0.6587    3.0986   -0.4849 H   0  0  0  0  0  0  0  0  0  0  0  0
    2.6250    2.1630   -0.3578 C   0  0  0  0  0  0  0  0  0  0  0  0
    3.4221    3.4182    0.0331 C   0  0  0  0  0  0  0  0  0  0  0  0
    2.5144    4.6503    0.1870 C   0  0  0  0  0  0  0  0  0  0  0  0
    1.9973    4.9037   -0.7603 H   0  0  0  0  0  0  0  0  0  0  0  0
    3.1194    5.5312    0.4795 H   0  0  0  0  0  0  0  0  0  0  0  0
    1.7449    4.5015    0.9725 H   0  0  0  0  0  0  0  0  0  0  0  0
    4.1308    3.1619    1.3831 C   0  0  0  0  0  0  0  0  0  0  0  0
    4.7266    4.0474    1.6852 H   0  0  0  0  0  0  0  0  0  0  0  0
    4.8198    2.2955    1.3296 H   0  0  0  0  0  0  0  0  0  0  0  0
    3.3912    2.9575    2.1848 H   0  0  0  0  0  0  0  0  0  0  0  0
    4.4785    3.7216   -1.0538 C   0  0  0  0  0  0  0  0  0  0  0  0
    3.9958    3.9040   -2.0348 H   0  0  0  0  0  0  0  0  0  0  0  0
    5.1946    2.8856   -1.1797 H   0  0  0  0  0  0  0  0  0  0  0  0
    5.0634    4.6246   -0.7842 H   0  0  0  0  0  0  0  0  0  0  0  0
    3.3004    0.9341   -0.5574 C   0  0  0  0  0  0  0  0  0  0  0  0
    4.3947    0.9354   -0.4669 H   0  0  0  0  0  0  0  0  0  0  0  0
    2.6726   -0.2820   -0.8710 C   0  0  0  0  0  0  0  0  0  0  0  0
    3.4816   -1.5468   -1.2170 C   0  0  0  0  0  0  0  0  0  0  0  0
    4.9991   -1.3021   -1.1392 C   0  0  0  0  0  0  0  0  0  0  0  0
    5.3294   -0.5109   -1.8413 H   0  0  0  0  0  0  0  0  0  0  0  0
    5.5377   -2.2314   -1.4117 H   0  0  0  0  0  0  0  0  0  0  0  0
    5.3248   -1.0182   -0.1177 H   0  0  0  0  0  0  0  0  0  0  0  0
    3.1355   -1.9593   -2.6684 C   0  0  0  0  0  0  0  0  0  0  0  0
    3.3923   -1.1476   -3.3781 H   0  0  0  0  0  0  0  0  0  0  0  0
    2.0564   -2.1817   -2.7734 H   0  0  0  0  0  0  0  0  0  0  0  0
    3.7121   -2.8616   -2.9587 H   0  0  0  0  0  0  0  0  0  0  0  0
    3.1431   -2.7098   -0.2589 C   0  0  0  0  0  0  0  0  0  0  0  0
    3.4441   -2.4641    0.7797 H   0  0  0  0  0  0  0  0  0  0  0  0
    3.6952   -3.6235   -0.5605 H   0  0  0  0  0  0  0  0  0  0  0  0
    2.0601   -2.9318   -0.2790 H   0  0  0  0  0  0  0  0  0  0  0  0
    1.2408   -0.2665   -0.9461 C   0  0  0  0  0  0  0  0  0  0  0  0
  1 66  1  0  0  0  0
  2 12  1  0  0  0  0
  2  4  1  0  0  0  0
  3 13  1  0  0  0  0
  4  6  1  0  0  0  0
  5  4  1  0  0  0  0
  6  8  2  0  0  0  0
  6  7  1  0  0  0  0
  8  9  1  0  0  0  0
 10 11  1  0  0  0  0
 10  8  1  0  0  0  0
 12 10  2  0  0  0  0
 13 12  1  0  0  0  0
 13 14  1  0  0  0  0
 15 13  1  0  0  0  0
 16  3  1  0  0  0  0
 16 18  1  0  0  0  0
 17 16  1  0  0  0  0
 19 16  1  0  0  0  0
 19 20  1  0  0  0  0
 20 21  1  0  0  0  0
 22 20  2  0  0  0  0
 22 23  1  0  0  0  0
 24 22  1  0  0  0  0
 25 24  1  0  0  0  0
 26 28  1  0  0  0  0
 26 24  2  0  0  0  0
 27 26  1  0  0  0  0
 28 19  2  0  0  0  0
 29 28  1  0  0  0  0
 30 33  1  0  0  0  0
 30  3  1  0  0  0  0
 31 30  1  0  0  0  0
 32 30  1  0  0  0  0
 33 34  1  0  0  0  0
 34 35  1  0  0  0  0
 34 36  2  0  0  0  0
 36 37  1  0  0  0  0
 37 38  1  0  0  0  0
 37 42  1  0  0  0  0
 38 40  1  0  0  0  0
 38 41  1  0  0  0  0
 39 38  1  0  0  0  0
 42 43  1  0  0  0  0
 42 45  1  0  0  0  0
 44 42  1  0  0  0  0
 46 49  1  0  0  0  0
 46 37  1  0  0  0  0
 47 46  1  0  0  0  0
 48 46  1  0  0  0  0
 50 51  1  0  0  0  0
 50 36  1  0  0  0  0
 52 50  2  0  0  0  0
 53 54  1  0  0  0  0
 53 52  1  0  0  0  0
 53 62  1  0  0  0  0
 54 57  1  0  0  0  0
 55 54  1  0  0  0  0
 56 54  1  0  0  0  0
 58 53  1  0  0  0  0
 59 58  1  0  0  0  0
 60 58  1  0  0  0  0
 61 58  1  0  0  0  0
 62 63  1  0  0  0  0
 64 62  1  0  0  0  0
 65 62  1  0  0  0  0
 66 52  1  0  0  0  0
 66 33  2  0  0  0  0
M  CHG  1   1  -1
M  END
