1,2
q = -1.0

 33 33  0  0  1  0  0  0  0  0999 V2000
   -0.3323   -0.9144   -1.2978 O   0  0  0  0  0  1  0  0  0  0  0  0
   -1.9509    0.0606   -0.2120 N   0  0  0  0  0  2  0  0  0  0  0  0
   -3.1990    0.4883    0.2916 C   0  0  0  0  0  0  0  0  0  0  0  0
   -1.5954   -0.9247   -1.0352 C   0  0  2  0  0  3  0  0  0  0  0  0
   -2.4373   -2.0453   -1.6434 C   0  0  0  0  0  0  0  0  0  0  0  0
   -3.9674    1.4012   -0.4755 C   0  0  0  0  0  0  0  0  0  0  0  0
   -4.8392    0.5436    2.0721 C   0  0  0  0  0  0  0  0  0  0  0  0
   -5.1752    0.2185    3.0691 H   0  0  0  0  0  0  0  0  0  0  0  0
   -3.6103    0.0669    1.5819 C   0  0  0  0  0  0  0  0  0  0  0  0
   -5.6268    1.4253    1.3188 C   0  0  0  0  0  0  0  0  0  0  0  0
   -6.5833    1.7906    1.7219 H   0  0  0  0  0  0  0  0  0  0  0  0
   -1.8334   -3.3644   -1.1035 C   0  0  0  0  0  0  0  0  0  0  0  0
   -0.7560   -3.4329   -1.3457 H   0  0  0  0  0  0  0  0  0  0  0  0
   -2.3599   -4.2279   -1.5576 H   0  0  0  0  0  0  0  0  0  0  0  0
   -1.9445   -3.4325   -0.0022 H   0  0  0  0  0  0  0  0  0  0  0  0
   -3.9304   -1.9774   -1.2945 C   0  0  0  0  0  0  0  0  0  0  0  0
   -4.1083   -2.0343   -0.2042 H   0  0  0  0  0  0  0  0  0  0  0  0
   -4.4478   -2.8364   -1.7681 H   0  0  0  0  0  0  0  0  0  0  0  0
   -4.4074   -1.0506   -1.6645 H   0  0  0  0  0  0  0  0  0  0  0  0
   -2.7387   -0.8481    2.3971 C   0  0  0  0  0  0  0  0  0  0  0  0
   -2.4714   -1.7719    1.8429 H   0  0  0  0  0  0  0  0  0  0  0  0
   -3.2378   -1.1383    3.3410 H   0  0  0  0  0  0  0  0  0  0  0  0
   -1.7733   -0.3585    2.6399 H   0  0  0  0  0  0  0  0  0  0  0  0
   -5.1879    1.8529    0.0585 C   0  0  0  0  0  0  0  0  0  0  0  0
   -5.7971    2.5578   -0.5287 H   0  0  0  0  0  0  0  0  0  0  0  0
   -2.2430   -1.9766   -3.1746 C   0  0  0  0  0  0  0  0  0  0  0  0
   -2.6640   -1.0385   -3.5901 H   0  0  0  0  0  0  0  0  0  0  0  0
   -2.7632   -2.8288   -3.6562 H   0  0  0  0  0  0  0  0  0  0  0  0
   -1.1691   -2.0188   -3.4381 H   0  0  0  0  0  0  0  0  0  0  0  0
   -3.4847    1.8566   -1.8270 C   0  0  0  0  0  0  0  0  0  0  0  0
   -2.4349    2.2128   -1.7879 H   0  0  0  0  0  0  0  0  0  0  0  0
   -4.1203    2.6707   -2.2237 H   0  0  0  0  0  0  0  0  0  0  0  0
   -3.5010    1.0289   -2.5694 H   0  0  0  0  0  0  0  0  0  0  0  0
  2  3  1  0  0  0  0
  3  9  1  0  0  0  0
  4  1  1  1  0  0  0
  4  2  1  0  0  0  0
  5 16  1  0  0  0  0
  5 12  1  0  0  0  0
  5  4  1  0  0  0  0
  6 24  1  0  0  0  0
  6  3  2  0  0  0  0
  7  8  1  0  0  0  0
  9  7  2  0  0  0  0
  9 20  1  0  0  0  0
 10 11  1  0  0  0  0
 10  7  1  0  0  0  0
 12 15  1  0  0  0  0
 13 12  1  0  0  0  0
 14 12  1  0  0  0  0
 16 17  1  0  0  0  0
 18 16  1  0  0  0  0
 19 16  1  0  0  0  0
 20 23  1  0  0  0  0
 20 22  1  0  0  0  0
 21 20  1  0  0  0  0
 24 10  2  0  0  0  0
 25 24  1  0  0  0  0
 26  5  1  0  0  0  0
 27 26  1  0  0  0  0
 28 26  1  0  0  0  0
 29 26  1  0  0  0  0
 30 31  1  0  0  0  0
 30  6  1  0  0  0  0
 32 30  1  0  0  0  0
 33 30  1  0  0  0  0
M  END
