1,5
q = -1.0

 33 34  0  0  1  0  0  0  0  0999 V2000
   -1.3310   -0.8060    2.5129 O   0  5  0  0  0  0  0  0  0  0  0  0
   -3.5206   -0.7398    3.0899 O   0  0  0  0  0  0  0  0  0  0  0  0
    0.6301    1.7366   -1.3311 N   0  0  0  0  0  0  0  0  0  0  0  0
    0.4600    3.3220   -2.8870 N   0  0  0  0  0  0  0  0  0  0  0  0
   -1.5729    1.1482    0.6864 N   0  0  0  0  0  2  0  0  0  0  0  0
    1.2496    2.3474   -2.3184 C   0  0  0  0  0  0  0  0  0  0  0  0
   -0.7450    3.3394   -2.2197 C   0  0  0  0  0  0  0  0  0  0  0  0
   -1.8447    4.2838   -2.5677 C   0  0  0  0  0  0  0  0  0  0  0  0
   -0.6174    2.3361   -1.2399 C   0  0  0  0  0  0  0  0  0  0  0  0
   -1.6441    2.0181   -0.2685 C   0  0  0  0  0  3  0  0  0  0  0  0
   -2.6963    0.9667    1.6085 C   0  0  2  0  0  0  0  0  0  0  0  0
   -2.5123   -0.3349    2.4882 C   0  0  0  0  0  0  0  0  0  0  0  0
   -4.1010    1.0008    0.9668 C   0  0  0  0  0  0  0  0  0  0  0  0
   -4.3266   -0.0612   -0.0882 C   0  0  0  0  0  0  0  0  0  0  0  0
   -4.2320    0.2338   -1.4655 C   0  0  0  0  0  0  0  0  0  0  0  0
   -4.4045   -0.7647   -2.4385 C   0  0  0  0  0  0  0  0  0  0  0  0
   -4.6867   -2.0842   -2.0492 C   0  0  0  0  0  0  0  0  0  0  0  0
   -4.7952   -2.3907   -0.6812 C   0  0  0  0  0  0  0  0  0  0  0  0
   -4.6133   -1.3941    0.2898 C   0  0  0  0  0  0  0  0  0  0  0  0
    0.7195    3.9394   -3.6584 H   0  0  0  0  0  0  0  0  0  0  0  0
    2.2691    2.1375   -2.6693 H   0  0  0  0  0  0  0  0  0  0  0  0
   -1.5369    5.3424   -2.4320 H   0  0  0  0  0  0  0  0  0  0  0  0
   -2.1737    4.1636   -3.6217 H   0  0  0  0  0  0  0  0  0  0  0  0
   -2.7265    4.1127   -1.9237 H   0  0  0  0  0  0  0  0  0  0  0  0
   -2.5698    2.6194   -0.3706 H   0  0  0  0  0  0  0  0  0  0  0  0
   -2.6274    1.7899    2.3560 H   0  0  0  0  0  0  0  0  0  0  0  0
   -4.7831    0.8239    1.8211 H   0  0  0  0  0  0  0  0  0  0  0  0
   -4.3329    2.0046    0.5519 H   0  0  0  0  0  0  0  0  0  0  0  0
   -4.0271    1.2676   -1.7856 H   0  0  0  0  0  0  0  0  0  0  0  0
   -4.3264   -0.5074   -3.5062 H   0  0  0  0  0  0  0  0  0  0  0  0
   -4.8377   -2.8661   -2.8101 H   0  0  0  0  0  0  0  0  0  0  0  0
   -5.0269   -3.4192   -0.3630 H   0  0  0  0  0  0  0  0  0  0  0  0
   -4.6637   -1.6281    1.3646 H   0  0  0  0  0  0  0  0  0  0  0  0
  3  9  1  0  0  0  0
  4  6  1  0  0  0  0
  4  7  1  0  0  0  0
  5 11  1  0  0  0  0
  6  3  2  0  0  0  0
  7  9  2  0  0  0  0
  8 22  1  0  0  0  0
  8  7  1  0  0  0  0
  8 24  1  0  0  0  0
  9 10  1  0  0  0  0
 10  5  1  0  0  0  0
 11 26  1  1  0  0  0
 11 12  1  0  0  0  0
 12  1  1  0  0  0  0
 12  2  2  0  0  0  0
 13 11  1  0  0  0  0
 13 27  1  0  0  0  0
 14 19  1  0  0  0  0
 14 13  1  0  0  0  0
 15 14  2  0  0  0  0
 16 17  2  0  0  0  0
 16 15  1  0  0  0  0
 17 18  1  0  0  0  0
 18 32  1  0  0  0  0
 18 19  2  0  0  0  0
 19 33  1  0  0  0  0
 20  4  1  0  0  0  0
 21  6  1  0  0  0  0
 23  8  1  0  0  0  0
 25 10  1  0  0  0  0
 28 13  1  0  0  0  0
 29 15  1  0  0  0  0
 30 16  1  0  0  0  0
 31 17  1  0  0  0  0
M  CHG  1   1  -1
M  END
