1,14
q = -1.0

 37 38  0  0  1  0  0  0  0  0999 V2000
   -1.6023   -0.8818    0.3120 O   0  0  0  0  0  1  0  0  0  0  0  0
   -2.8210   -0.3880    0.4820 C   0  0  1  0  0  3  0  0  0  0  0  0
    0.0181    2.7832   -0.1643 O   0  0  0  0  0  0  0  0  0  0  0  0
    0.9126    2.3247   -0.2844 H   0  0  0  0  0  0  0  0  0  0  0  0
   -3.0943    1.0148    0.4493 C   0  0  0  0  0  0  0  0  0  0  0  0
   -4.4281    1.4665    0.6377 C   0  0  0  0  0  0  0  0  0  0  0  0
   -4.6284    2.5498    0.6008 H   0  0  0  0  0  0  0  0  0  0  0  0
   -5.4760    0.5767    0.8628 C   0  0  0  0  0  0  0  0  0  0  0  0
   -5.1841   -0.8089    0.8839 C   0  0  0  0  0  0  0  0  0  0  0  0
   -6.0208   -1.5102    1.0326 H   0  0  0  0  0  0  0  0  0  0  0  0
   -3.8928   -1.3078    0.6982 C   0  0  0  0  0  0  0  0  0  0  0  0
   -2.0576    1.9858    0.2220 C   0  0  0  0  0  0  0  0  0  0  0  0
   -2.3239    3.0570    0.2036 H   0  0  0  0  0  0  0  0  0  0  0  0
   -0.7923    1.7041    0.0307 N   0  0  0  0  0  2  0  0  0  0  0  0
   -6.8931    1.0530    1.1063 C   0  0  0  0  0  0  0  0  0  0  0  0
   -7.1357    0.9422    2.1872 H   0  0  0  0  0  0  0  0  0  0  0  0
   -6.9552    2.1546    0.8891 H   0  0  0  0  0  0  0  0  0  0  0  0
   -7.8816    0.2850    0.3650 N   0  0  0  0  0  0  0  0  0  0  0  0
   -9.2424    0.4849    0.8484 C   0  0  0  0  0  0  0  0  0  0  0  0
   -9.5865    1.5440    0.6752 H   0  0  0  0  0  0  0  0  0  0  0  0
   -9.2486    0.3282    1.9479 H   0  0  0  0  0  0  0  0  0  0  0  0
  -10.2191   -0.4768    0.1671 C   0  0  0  0  0  0  0  0  0  0  0  0
  -11.2478   -0.2858    0.5374 H   0  0  0  0  0  0  0  0  0  0  0  0
   -9.9519   -1.5157    0.4586 H   0  0  0  0  0  0  0  0  0  0  0  0
  -10.1483   -0.3379   -1.3577 C   0  0  0  0  0  0  0  0  0  0  0  0
  -10.5290    0.6667   -1.6507 H   0  0  0  0  0  0  0  0  0  0  0  0
  -10.8066   -1.0817   -1.8533 H   0  0  0  0  0  0  0  0  0  0  0  0
   -8.6990   -0.4844   -1.8339 C   0  0  0  0  0  0  0  0  0  0  0  0
   -8.3503   -1.5246   -1.6550 H   0  0  0  0  0  0  0  0  0  0  0  0
   -8.6176   -0.2958   -2.9246 H   0  0  0  0  0  0  0  0  0  0  0  0
   -7.7773    0.4753   -1.0790 C   0  0  0  0  0  0  0  0  0  0  0  0
   -6.7209    0.3151   -1.3767 H   0  0  0  0  0  0  0  0  0  0  0  0
   -8.0327    1.5360   -1.3606 H   0  0  0  0  0  0  0  0  0  0  0  0
   -3.5862   -2.7804    0.7174 C   0  0  0  0  0  0  0  0  0  0  0  0
   -4.5010   -3.3797    0.8831 H   0  0  0  0  0  0  0  0  0  0  0  0
   -2.8599   -3.0322    1.5200 H   0  0  0  0  0  0  0  0  0  0  0  0
   -3.1264   -3.1103   -0.2389 H   0  0  0  0  0  0  0  0  0  0  0  0
  2  1  1  6  0  0  0
  2 11  1  0  0  0  0
  3 14  1  0  0  0  0
  4  3  1  0  0  0  0
  5  2  1  0  0  0  0
  5  6  1  0  0  0  0
  6  8  2  0  0  0  0
  7  6  1  0  0  0  0
  8  9  1  0  0  0  0
  8 15  1  0  0  0  0
  9 10  1  0  0  0  0
 11 34  1  0  0  0  0
 11  9  2  0  0  0  0
 12  5  2  0  0  0  0
 13 12  1  0  0  0  0
 14 12  1  0  0  0  0
 15 16  1  0  0  0  0
 17 15  1  0  0  0  0
 18 19  1  0  0  0  0
 18 15  1  0  0  0  0
 19 21  1  0  0  0  0
 20 19  1  0  0  0  0
 22 24  1  0  0  0  0
 22 23  1  0  0  0  0
 22 19  1  0  0  0  0
 25 22  1  0  0  0  0
 26 25  1  0  0  0  0
 27 25  1  0  0  0  0
 28 29  1  0  0  0  0
 28 25  1  0  0  0  0
 28 31  1  0  0  0  0
 30 28  1  0  0  0  0
 31 18  1  0  0  0  0
 32 31  1  0  0  0  0
 33 31  1  0  0  0  0
 34 35  1  0  0  0  0
 34 36  1  0  0  0  0
 37 34  1  0  0  0  0
M  END
