2,5
q = -1.0

 33 35  0  0  1  0  0  0  0  0999 V2000
    1.4970    0.9361    1.1252 N   0  0  0  0  0  0  0  0  0  0  0  0
   -0.9046   -1.8532    0.2697 O   0  0  0  0  0  1  0  0  0  0  0  0
    2.2334   -1.0717   -1.4353 C   0  0  0  0  0  0  0  0  0  0  0  0
    1.8957   -0.2563   -2.0897 H   0  0  0  0  0  0  0  0  0  0  0  0
   -0.4980    0.0905   -0.6473 N   0  0  0  0  0  2  0  0  0  0  0  0
    1.2500    1.6890    0.0179 C   0  0  0  0  0  0  0  0  0  0  0  0
    1.3651   -1.5991   -0.4560 C   0  0  0  0  0  0  0  0  0  0  0  0
    1.9912    2.8869   -0.2779 C   0  0  0  0  0  0  0  0  0  0  0  0
   -0.0102   -1.0894   -0.2595 C   0  0  2  0  0  3  0  0  0  0  0  0
    1.7978   -2.6746    0.3482 C   0  0  0  0  0  0  0  0  0  0  0  0
    1.0997   -3.0927    1.0873 H   0  0  0  0  0  0  0  0  0  0  0  0
    3.5237   -1.5890   -1.5894 C   0  0  0  0  0  0  0  0  0  0  0  0
    4.2157   -1.1978   -2.3484 H   0  0  0  0  0  0  0  0  0  0  0  0
    2.4847    1.2683    1.9488 C   0  0  0  0  0  0  0  0  0  0  0  0
    0.2115    1.2639   -0.8953 C   0  0  0  0  0  0  0  0  0  0  0  0
    0.6201    3.2641   -2.2511 C   0  0  0  0  0  0  0  0  0  0  0  0
    0.3540    3.8677   -3.1318 H   0  0  0  0  0  0  0  0  0  0  0  0
    1.6581    3.6660   -1.4205 C   0  0  0  0  0  0  0  0  0  0  0  0
    2.2308    4.5824   -1.6308 H   0  0  0  0  0  0  0  0  0  0  0  0
   -0.0961    2.0702   -1.9959 C   0  0  0  0  0  0  0  0  0  0  0  0
   -0.9099    1.7481   -2.6591 H   0  0  0  0  0  0  0  0  0  0  0  0
    3.9382   -2.6379   -0.7569 C   0  0  0  0  0  0  0  0  0  0  0  0
    2.7117    0.4025    3.1597 C   0  0  0  0  0  0  0  0  0  0  0  0
    2.0687   -0.4950    3.1079 H   0  0  0  0  0  0  0  0  0  0  0  0
    2.4797    0.9553    4.0947 H   0  0  0  0  0  0  0  0  0  0  0  0
    3.7717    0.0828    3.2286 H   0  0  0  0  0  0  0  0  0  0  0  0
    3.0885   -3.1936    0.2097 C   0  0  0  0  0  0  0  0  0  0  0  0
    3.4502   -4.0245    0.8319 H   0  0  0  0  0  0  0  0  0  0  0  0
    3.3055    2.4166    1.7127 C   0  0  0  0  0  0  0  0  0  0  0  0
    4.1234    2.6542    2.4096 H   0  0  0  0  0  0  0  0  0  0  0  0
    3.0466    3.2220    0.6199 C   0  0  0  0  0  0  0  0  0  0  0  0
    3.6495    4.1232    0.4256 H   0  0  0  0  0  0  0  0  0  0  0  0
    5.1809   -3.1293   -0.8953 F   0  0  0  0  0  0  0  0  0  0  0  0
  1 14  1  0  0  0  0
  3  7  1  0  0  0  0
  4  3  1  0  0  0  0
  5  9  1  0  0  0  0
  6  1  2  0  0  0  0
  7  9  1  0  0  0  0
  7 10  2  0  0  0  0
  8  6  1  0  0  0  0
  8 31  2  0  0  0  0
  9  2  1  6  0  0  0
 10 11  1  0  0  0  0
 12  3  2  0  0  0  0
 12 22  1  0  0  0  0
 13 12  1  0  0  0  0
 14 23  1  0  0  0  0
 15  5  1  0  0  0  0
 15  6  1  0  0  0  0
 16 20  1  0  0  0  0
 16 18  2  0  0  0  0
 17 16  1  0  0  0  0
 18  8  1  0  0  0  0
 19 18  1  0  0  0  0
 20 15  2  0  0  0  0
 21 20  1  0  0  0  0
 22 27  2  0  0  0  0
 23 26  1  0  0  0  0
 23 25  1  0  0  0  0
 24 23  1  0  0  0  0
 27 10  1  0  0  0  0
 27 28  1  0  0  0  0
 29 14  2  0  0  0  0
 29 30  1  0  0  0  0
 31 29  1  0  0  0  0
 32 31  1  0  0  0  0
 33 22  1  0  0  0  0
M  END
