1,2
q = -1.0

 51 51  0  0  0  0  0  0  0  0999 V2000
   -1.5961   -1.4790   -0.0021 N   0  0  0  0  0  2  0  0  0  0  0  0
   -0.4485    0.9956   -0.0045 O   0  5  0  0  0  0  0  0  0  0  0  0
    0.7614    0.4350   -0.0029 C   0  0  0  0  0  0  0  0  0  0  0  0
    1.9321    1.2430   -0.0033 C   0  0  0  0  0  0  0  0  0  0  0  0
    1.8401    2.7796   -0.0055 C   0  0  0  0  0  0  0  0  0  0  0  0
    1.0914    3.2568   -1.2737 C   0  0  0  0  0  0  0  0  0  0  0  0
    1.6017    2.9021   -2.1920 H   0  0  0  0  0  0  0  0  0  0  0  0
    1.0731    4.3655   -1.2994 H   0  0  0  0  0  0  0  0  0  0  0  0
    0.0432    2.9056   -1.2946 H   0  0  0  0  0  0  0  0  0  0  0  0
    1.0896    3.2605    1.2603 C   0  0  0  0  0  0  0  0  0  0  0  0
    1.5982    2.9077    2.1804 H   0  0  0  0  0  0  0  0  0  0  0  0
    0.0411    2.9104    1.2805 H   0  0  0  0  0  0  0  0  0  0  0  0
    1.0722    4.3693    1.2833 H   0  0  0  0  0  0  0  0  0  0  0  0
    3.2381    3.4242   -0.0054 C   0  0  0  0  0  0  0  0  0  0  0  0
    3.8263    3.1471   -0.9040 H   0  0  0  0  0  0  0  0  0  0  0  0
    3.8249    3.1500    0.8949 H   0  0  0  0  0  0  0  0  0  0  0  0
    3.1316    4.5269   -0.0073 H   0  0  0  0  0  0  0  0  0  0  0  0
    3.1573    0.5583   -0.0014 C   0  0  0  0  0  0  0  0  0  0  0  0
    4.0772    1.1574   -0.0015 H   0  0  0  0  0  0  0  0  0  0  0  0
    3.2870   -0.8531    0.0006 C   0  0  0  0  0  0  0  0  0  0  0  0
    4.6887   -1.4856    0.0025 C   0  0  0  0  0  0  0  0  0  0  0  0
    5.4534   -1.0282   -1.2607 C   0  0  0  0  0  0  0  0  0  0  0  0
    4.9256   -1.3478   -2.1818 H   0  0  0  0  0  0  0  0  0  0  0  0
    6.4717   -1.4680   -1.2758 H   0  0  0  0  0  0  0  0  0  0  0  0
    5.5641    0.0738   -1.3001 H   0  0  0  0  0  0  0  0  0  0  0  0
    5.4516   -1.0245    1.2654 C   0  0  0  0  0  0  0  0  0  0  0  0
    4.9226   -1.3414    2.1867 H   0  0  0  0  0  0  0  0  0  0  0  0
    5.5624    0.0775    1.3018 H   0  0  0  0  0  0  0  0  0  0  0  0
    6.4700   -1.4644    1.2831 H   0  0  0  0  0  0  0  0  0  0  0  0
    4.6261   -3.0224    0.0047 C   0  0  0  0  0  0  0  0  0  0  0  0
    4.1091   -3.4159   -0.8938 H   0  0  0  0  0  0  0  0  0  0  0  0
    4.1078   -3.4133    0.9037 H   0  0  0  0  0  0  0  0  0  0  0  0
    5.6527   -3.4400    0.0060 H   0  0  0  0  0  0  0  0  0  0  0  0
    2.1101   -1.6057    0.0007 C   0  0  0  0  0  0  0  0  0  0  0  0
    2.1430   -2.7044    0.0021 H   0  0  0  0  0  0  0  0  0  0  0  0
    0.8388   -0.9828   -0.0009 C   0  0  0  0  0  0  0  0  0  0  0  0
   -0.3424   -1.8262   -0.0014 C   0  0  0  0  0  3  0  0  0  0  0  0
   -0.0968   -2.9078   -0.0013 H   0  0  0  0  0  0  0  0  0  0  0  0
   -2.5972   -2.6198   -0.0050 C   0  0  0  0  0  0  0  0  0  0  0  0
   -2.3842   -3.4627    1.2673 C   0  0  0  0  0  0  0  0  0  0  0  0
   -2.4805   -2.8187    2.1635 H   0  0  0  0  0  0  0  0  0  0  0  0
   -1.3902   -3.9522    1.2894 H   0  0  0  0  0  0  0  0  0  0  0  0
   -3.1507   -4.2605    1.3219 H   0  0  0  0  0  0  0  0  0  0  0  0
   -2.3890   -3.4485   -1.2874 C   0  0  0  0  0  0  0  0  0  0  0  0
   -2.4910   -2.7950   -2.1762 H   0  0  0  0  0  0  0  0  0  0  0  0
   -3.1537   -4.2476   -1.3471 H   0  0  0  0  0  0  0  0  0  0  0  0
   -1.3936   -3.9345   -1.3193 H   0  0  0  0  0  0  0  0  0  0  0  0
   -4.0426   -2.0933    0.0013 C   0  0  0  0  0  0  0  0  0  0  0  0
   -4.2589   -1.4823   -0.8944 H   0  0  0  0  0  0  0  0  0  0  0  0
   -4.2557   -1.4952    0.9063 H   0  0  0  0  0  0  0  0  0  0  0  0
   -4.7332   -2.9591   -0.0041 H   0  0  0  0  0  0  0  0  0  0  0  0
  1 37  1  0  0  0  0
  2  3  1  0  0  0  0
  3 36  1  0  0  0  0
  4  3  2  0  0  0  0
  4 18  1  0  0  0  0
  5 14  1  0  0  0  0
  5  4  1  0  0  0  0
  5 10  1  0  0  0  0
  6  5  1  0  0  0  0
  7  6  1  0  0  0  0
  8  6  1  0  0  0  0
  9  6  1  0  0  0  0
 10 12  1  0  0  0  0
 10 13  1  0  0  0  0
 10 11  1  0  0  0  0
 14 16  1  0  0  0  0
 15 14  1  0  0  0  0
 17 14  1  0  0  0  0
 18 20  2  0  0  0  0
 19 18  1  0  0  0  0
 20 34  1  0  0  0  0
 20 21  1  0  0  0  0
 21 30  1  0  0  0  0
 21 26  1  0  0  0  0
 22 21  1  0  0  0  0
 23 22  1  0  0  0  0
 24 22  1  0  0  0  0
 25 22  1  0  0  0  0
 26 29  1  0  0  0  0
 26 28  1  0  0  0  0
 26 27  1  0  0  0  0
 30 33  1  0  0  0  0
 30 32  1  0  0  0  0
 31 30  1  0  0  0  0
 34 35  1  0  0  0  0
 36 34  2  0  0  0  0
 37 38  1  0  0  0  0
 37 36  1  0  0  0  0
 39  1  1  0  0  0  0
 39 48  1  0  0  0  0
 39 40  1  0  0  0  0
 40 42  1  0  0  0  0
 40 43  1  0  0  0  0
 40 41  1  0  0  0  0
 44 39  1  0  0  0  0
 45 44  1  0  0  0  0
 46 44  1  0  0  0  0
 47 44  1  0  0  0  0
 48 50  1  0  0  0  0
 49 48  1  0  0  0  0
 51 48  1  0  0  0  0
M  CHG  1   2  -1
M  END
