1,2
q = -1.0

 16 15  0  0  1  0  0  0  0  0999 V2000
    1.4365   -1.5376   -0.0169 O   0  0  0  0  0  1  0  0  0  0  0  0
    1.6699    1.1421   -0.1120 N   0  0  0  0  0  0  0  0  0  0  0  0
    1.7620    1.4714   -1.0883 H   0  0  0  0  0  0  0  0  0  0  0  0
    1.6233    1.9921    0.4684 H   0  0  0  0  0  0  0  0  0  0  0  0
    2.6654   -1.0255   -0.3988 C   0  0  0  0  0  0  0  0  0  0  0  0
    2.7826   -0.8975   -1.5175 H   0  0  0  0  0  0  0  0  0  0  0  0
    3.4752   -1.7265   -0.0829 H   0  0  0  0  0  0  0  0  0  0  0  0
    2.9049    0.3540    0.2331 C   0  0  1  0  0  0  0  0  0  0  0  0
    2.8830    0.2262    1.3367 H   0  0  0  0  0  0  0  0  0  0  0  0
    4.1771    1.0885   -0.1935 C   0  0  0  0  0  0  0  0  0  0  0  0
    4.1460    2.1274    0.2072 H   0  0  0  0  0  0  0  0  0  0  0  0
    4.1779    1.1865   -1.3035 H   0  0  0  0  0  0  0  0  0  0  0  0
    5.4669    0.4049    0.2661 C   0  0  0  0  0  0  0  0  0  0  0  0
    5.4805    0.2753    1.3680 H   0  0  0  0  0  0  0  0  0  0  0  0
    6.3583    1.0006   -0.0135 H   0  0  0  0  0  0  0  0  0  0  0  0
    5.5800   -0.5995   -0.1876 H   0  0  0  0  0  0  0  0  0  0  0  0
  2  8  1  0  0  0  0
  2  4  1  0  0  0  0
  3  2  1  0  0  0  0
  5  7  1  0  0  0  0
  5  1  1  0  0  0  0
  5  8  1  0  0  0  0
  6  5  1  0  0  0  0
  8  9  1  1  0  0  0
 10 11  1  0  0  0  0
 10  8  1  0  0  0  0
 10 13  1  0  0  0  0
 12 10  1  0  0  0  0
 13 14  1  0  0  0  0
 15 13  1  0  0  0  0
 16 13  1  0  0  0  0
M  END
