1,2
q = -1.0

 31 32  0  0  1  0  0  0  0  0999 V2000
    1.9794    0.6306   -0.8903 O   0  0  0  0  0  1  0  0  0  0  0  0
    0.0025   -0.7471    0.7842 N   0  0  0  0  0  2  0  0  0  0  0  0
    2.7119   -0.4032   -0.6068 C   0  0  2  0  0  3  0  0  0  0  0  0
    4.0108   -0.4847   -1.2046 C   0  0  0  0  0  0  0  0  0  0  0  0
    4.8652   -1.5461   -0.9376 C   0  0  0  0  0  0  0  0  0  0  0  0
    4.4765   -2.6033   -0.0768 C   0  0  0  0  0  0  0  0  0  0  0  0
    3.2127   -2.5646    0.4943 C   0  0  0  0  0  0  0  0  0  0  0  0
    2.3080   -1.4894    0.2519 C   0  0  0  0  0  0  0  0  0  0  0  0
    1.0057   -1.5851    0.8385 C   0  0  0  0  0  0  0  0  0  0  0  0
   -1.2311   -1.1404    1.4883 C   0  0  1  0  0  0  0  0  0  0  0  0
   -1.5749   -0.1528    2.6089 C   0  0  0  0  0  0  0  0  0  0  0  0
   -2.3648   -1.4323    0.5049 C   0  0  0  0  0  0  0  0  0  0  0  0
   -2.0767   -1.9554   -0.7726 C   0  0  0  0  0  0  0  0  0  0  0  0
   -3.1063   -2.2579   -1.6756 C   0  0  0  0  0  0  0  0  0  0  0  0
   -4.4474   -2.0454   -1.3176 C   0  0  0  0  0  0  0  0  0  0  0  0
   -4.7470   -1.5344   -0.0460 C   0  0  0  0  0  0  0  0  0  0  0  0
   -3.7147   -1.2307    0.8563 C   0  0  0  0  0  0  0  0  0  0  0  0
    4.3095    0.3413   -1.8657 H   0  0  0  0  0  0  0  0  0  0  0  0
    5.8642   -1.5607   -1.4016 H   0  0  0  0  0  0  0  0  0  0  0  0
    5.1616   -3.4375    0.1301 H   0  0  0  0  0  0  0  0  0  0  0  0
    2.8813   -3.3801    1.1577 H   0  0  0  0  0  0  0  0  0  0  0  0
    0.8254   -2.5224    1.4051 H   0  0  0  0  0  0  0  0  0  0  0  0
   -1.0027   -2.1146    1.9821 H   0  0  0  0  0  0  0  0  0  0  0  0
   -2.0068    0.7864    2.2157 H   0  0  0  0  0  0  0  0  0  0  0  0
   -2.2995   -0.6049    3.3136 H   0  0  0  0  0  0  0  0  0  0  0  0
   -0.6536    0.1174    3.1574 H   0  0  0  0  0  0  0  0  0  0  0  0
   -1.0285   -2.1106   -1.0681 H   0  0  0  0  0  0  0  0  0  0  0  0
   -2.8579   -2.6625   -2.6689 H   0  0  0  0  0  0  0  0  0  0  0  0
   -5.2558   -2.2795   -2.0265 H   0  0  0  0  0  0  0  0  0  0  0  0
   -5.7941   -1.3667    0.2491 H   0  0  0  0  0  0  0  0  0  0  0  0
   -3.9705   -0.8265    1.8462 H   0  0  0  0  0  0  0  0  0  0  0  0
  2  9  1  0  0  0  0
  2 10  1  0  0  0  0
  3  1  1  6  0  0  0
  3  8  1  0  0  0  0
  4  5  2  0  0  0  0
  4  3  1  0  0  0  0
  5  6  1  0  0  0  0
  6 20  1  0  0  0  0
  6  7  2  0  0  0  0
  7 21  1  0  0  0  0
  8  7  1  0  0  0  0
  8  9  2  0  0  0  0
  9 22  1  0  0  0  0
 10 23  1  1  0  0  0
 10 11  1  0  0  0  0
 11 26  1  0  0  0  0
 11 25  1  0  0  0  0
 12 17  1  0  0  0  0
 12 10  1  0  0  0  0
 13 12  2  0  0  0  0
 14 15  2  0  0  0  0
 14 13  1  0  0  0  0
 15 16  1  0  0  0  0
 16 30  1  0  0  0  0
 16 17  2  0  0  0  0
 17 31  1  0  0  0  0
 18  4  1  0  0  0  0
 19  5  1  0  0  0  0
 24 11  1  0  0  0  0
 27 13  1  0  0  0  0
 28 14  1  0  0  0  0
 29 15  1  0  0  0  0
M  END
