1,3
q = -1.0

 28 29  0  0  0  0  0  0  0  0999 V2000
    1.4301   -1.4020    0.0725 O   0  5  0  0  0  0  0  0  0  0  0  0
   -4.5831    1.6830   -0.9186 O   0  0  0  0  0  0  0  0  0  0  0  0
   -1.2133   -1.6280   -0.0990 N   0  0  0  0  0  2  0  0  0  0  0  0
   -3.2791   -0.5066   -0.0872 N   0  0  0  0  0  0  0  0  0  0  0  0
    0.9521   -2.6398   -0.0426 C   0  0  0  0  0  0  0  0  0  0  0  0
    1.8086   -3.7646   -0.0626 C   0  0  0  0  0  0  0  0  0  0  0  0
    2.8899   -3.5863    0.0235 H   0  0  0  0  0  0  0  0  0  0  0  0
    1.2743   -5.0502   -0.2023 C   0  0  0  0  0  0  0  0  0  0  0  0
    1.9496   -5.9195   -0.2243 H   0  0  0  0  0  0  0  0  0  0  0  0
   -0.1153   -5.2392   -0.3275 C   0  0  0  0  0  0  0  0  0  0  0  0
   -0.5305   -6.2498   -0.4519 H   0  0  0  0  0  0  0  0  0  0  0  0
   -0.9759   -4.1325   -0.3077 C   0  0  0  0  0  0  0  0  0  0  0  0
   -2.0573   -4.2957   -0.4278 H   0  0  0  0  0  0  0  0  0  0  0  0
   -0.4569   -2.8325   -0.1534 C   0  0  0  0  0  0  0  0  0  0  0  0
   -2.7694    0.4124   -0.1661 H   0  0  0  0  0  0  0  0  0  0  0  0
   -5.1566    2.4193   -1.1991 H   0  0  0  0  0  0  0  0  0  0  0  0
   -2.5287   -1.6253   -0.0765 C   0  0  0  0  0  3  0  0  0  0  0  0
   -3.0761   -2.5837   -0.0639 H   0  0  0  0  0  0  0  0  0  0  0  0
   -4.6735   -0.4787    0.0488 C   0  0  0  0  0  0  0  0  0  0  0  0
   -5.4293   -1.5333    0.5981 C   0  0  0  0  0  0  0  0  0  0  0  0
   -4.9141   -2.4205    0.9934 H   0  0  0  0  0  0  0  0  0  0  0  0
   -6.8275   -1.4537    0.6802 C   0  0  0  0  0  0  0  0  0  0  0  0
   -7.3937   -2.2900    1.1151 H   0  0  0  0  0  0  0  0  0  0  0  0
   -7.4924   -0.3038    0.2322 C   0  0  0  0  0  0  0  0  0  0  0  0
   -8.5873   -0.2277    0.3007 H   0  0  0  0  0  0  0  0  0  0  0  0
   -6.7525    0.7651   -0.2985 C   0  0  0  0  0  0  0  0  0  0  0  0
   -7.2627    1.6761   -0.6524 H   0  0  0  0  0  0  0  0  0  0  0  0
   -5.3555    0.6884   -0.3975 C   0  0  0  0  0  0  0  0  0  0  0  0
  2 28  1  0  0  0  0
  3 17  1  0  0  0  0
  4 17  1  0  0  0  0
  4 19  1  0  0  0  0
  5  1  1  0  0  0  0
  6  5  1  0  0  0  0
  6  7  1  0  0  0  0
  8  6  2  0  0  0  0
  9  8  1  0  0  0  0
 10 12  2  0  0  0  0
 10  8  1  0  0  0  0
 11 10  1  0  0  0  0
 12 14  1  0  0  0  0
 13 12  1  0  0  0  0
 14  3  1  0  0  0  0
 14  5  2  0  0  0  0
 15  4  1  0  0  0  0
 16  2  1  0  0  0  0
 17 18  1  0  0  0  0
 19 20  1  0  0  0  0
 20 22  2  0  0  0  0
 20 21  1  0  0  0  0
 22 23  1  0  0  0  0
 24 25  1  0  0  0  0
 24 22  1  0  0  0  0
 26 24  2  0  0  0  0
 27 26  1  0  0  0  0
 28 26  1  0  0  0  0
 28 19  2  0  0  0  0
M  CHG  1   1  -1
M  END
