31,32
q = -1.0

 32 33  0  0  1  0  0  0  0  0999 V2000
   -2.1612   -1.8762   -0.6166 C   0  0  0  0  0  0  0  0  0  0  0  0
   -2.5577   -2.2602    0.6792 C   0  0  0  0  0  0  0  0  0  0  0  0
   -1.8311   -2.2127    1.4985 H   0  0  0  0  0  0  0  0  0  0  0  0
   -3.8637   -2.7161    0.9048 C   0  0  0  0  0  0  0  0  0  0  0  0
   -4.1655   -3.0066    1.9224 H   0  0  0  0  0  0  0  0  0  0  0  0
   -4.7761   -2.8088   -0.1567 C   0  0  0  0  0  0  0  0  0  0  0  0
   -5.7995   -3.1708    0.0225 H   0  0  0  0  0  0  0  0  0  0  0  0
   -4.3723   -2.4414   -1.4501 C   0  0  0  0  0  0  0  0  0  0  0  0
   -5.0770   -2.5164   -2.2919 H   0  0  0  0  0  0  0  0  0  0  0  0
   -3.0762   -1.9647   -1.6830 C   0  0  0  0  0  0  0  0  0  0  0  0
   -2.7566   -1.6472   -2.6844 H   0  0  0  0  0  0  0  0  0  0  0  0
    0.1791   -2.1060   -1.1110 C   0  0  2  0  0  3  0  0  0  0  0  0
   -0.0196   -3.6382   -1.2256 C   0  0  0  0  0  0  0  0  0  0  0  0
    1.5254   -1.6685   -1.2798 C   0  0  0  0  0  0  0  0  0  0  0  0
    2.2822   -2.4311   -1.4653 H   0  0  0  0  0  0  0  0  0  0  0  0
    1.9172   -0.3379   -1.1599 C   0  0  0  0  0  0  0  0  0  0  0  0
    3.3252    0.1570   -1.1456 C   0  0  0  0  0  0  0  0  0  0  0  0
    4.5012   -0.5904   -0.8663 C   0  0  0  0  0  0  0  0  0  0  0  0
    5.7502    0.0465   -0.7709 C   0  0  0  0  0  0  0  0  0  0  0  0
    6.6333   -0.5602   -0.5280 H   0  0  0  0  0  0  0  0  0  0  0  0
    5.8721    1.4252   -0.9608 C   0  0  0  0  0  0  0  0  0  0  0  0
    6.8502    1.9189   -0.8812 H   0  0  0  0  0  0  0  0  0  0  0  0
    4.7191    2.1774   -1.2418 C   0  0  0  0  0  0  0  0  0  0  0  0
    3.4718    1.5559   -1.3255 C   0  0  0  0  0  0  0  0  0  0  0  0
    2.5665    2.1519   -1.5042 H   0  0  0  0  0  0  0  0  0  0  0  0
    4.5069   -2.3060   -0.5281 Cl  0  0  0  0  0  0  0  0  0  0  0  0
    4.8436    3.8973   -1.4634 Cl  0  0  0  0  0  0  0  0  0  0  0  0
    1.1253   -4.2693   -1.5701 F   0  0  0  0  0  0  0  0  0  0  0  0
   -0.4212   -4.1648   -0.0485 F   0  0  0  0  0  0  0  0  0  0  0  0
   -0.9367   -3.9465   -2.1646 F   0  0  0  0  0  0  0  0  0  0  0  0
   -0.8543   -1.3312   -0.8365 N   0  0  0  0  0  2  0  0  0  0  0  0
    1.0321    0.6046   -1.0234 O   0  5  0  0  0  0  0  0  0  0  0  0
  1  2  1  0  0  0  0
  2  4  2  0  0  0  0
  2  3  1  0  0  0  0
  4  5  1  0  0  0  0
  6  7  1  0  0  0  0
  6  4  1  0  0  0  0
  8  6  2  0  0  0  0
  9  8  1  0  0  0  0
 10  8  1  0  0  0  0
 10  1  2  0  0  0  0
 11 10  1  0  0  0  0
 12 14  1  1  0  0  0
 12 31  1  0  0  0  0
 13 12  1  0  0  0  0
 13 29  1  0  0  0  0
 14 16  2  0  0  0  0
 15 14  1  0  0  0  0
 16 17  1  0  0  0  0
 16 32  1  0  0  0  0
 17 18  1  0  0  0  0
 18 19  2  0  0  0  0
 18 26  1  0  0  0  0
 19 20  1  0  0  0  0
 21 22  1  0  0  0  0
 21 19  1  0  0  0  0
 23 21  2  0  0  0  0
 24 23  1  0  0  0  0
 24 17  2  0  0  0  0
 25 24  1  0  0  0  0
 27 23  1  0  0  0  0
 28 13  1  0  0  0  0
 30 13  1  0  0  0  0
 31  1  1  0  0  0  0
M  CHG  1  32  -1
M  END
