34,35
q = -1.0

 36 37  0  0  1  0  0  0  0  0999 V2000
   -2.5182    1.8870   -0.4675 C   0  0  0  0  0  0  0  0  0  0  0  0
   -3.5020    2.0061   -1.4677 C   0  0  0  0  0  0  0  0  0  0  0  0
   -3.2408    1.7466   -2.5023 H   0  0  0  0  0  0  0  0  0  0  0  0
   -4.7897    2.4404   -1.1293 C   0  0  0  0  0  0  0  0  0  0  0  0
   -5.5486    2.5409   -1.9198 H   0  0  0  0  0  0  0  0  0  0  0  0
   -5.1169    2.7340    0.2042 C   0  0  0  0  0  0  0  0  0  0  0  0
   -6.1337    3.0625    0.4659 H   0  0  0  0  0  0  0  0  0  0  0  0
   -4.1362    2.6107    1.1996 C   0  0  0  0  0  0  0  0  0  0  0  0
   -4.3779    2.8429    2.2478 H   0  0  0  0  0  0  0  0  0  0  0  0
   -2.8385    2.1975    0.8685 C   0  0  0  0  0  0  0  0  0  0  0  0
   -2.0598    2.1255    1.6369 H   0  0  0  0  0  0  0  0  0  0  0  0
   -0.2195    2.2023   -1.0843 C   0  0  1  0  0  3  0  0  0  0  0  0
   -0.4553    3.7329   -1.0969 C   0  0  0  0  0  0  0  0  0  0  0  0
    1.1216    1.8069   -1.3535 C   0  0  0  0  0  0  0  0  0  0  0  0
    1.8568    2.5934   -1.5305 H   0  0  0  0  0  0  0  0  0  0  0  0
    1.5460    0.4793   -1.3166 C   0  0  0  0  0  0  0  0  0  0  0  0
    2.9726    0.0798   -1.3238 C   0  0  0  0  0  0  0  0  0  0  0  0
    3.9931    0.8952   -0.7833 C   0  0  0  0  0  0  0  0  0  0  0  0
    5.2912    0.4249   -0.5507 C   0  0  0  0  0  0  0  0  0  0  0  0
    5.6345   -0.9176   -0.8294 C   0  0  0  0  0  0  0  0  0  0  0  0
    4.6437   -1.7287   -1.4348 C   0  0  0  0  0  0  0  0  0  0  0  0
    3.3515   -1.2462   -1.6694 C   0  0  0  0  0  0  0  0  0  0  0  0
    7.5823   -1.0759    0.5523 C   0  0  0  0  0  0  0  0  0  0  0  0
    8.1143   -0.1216    0.3705 H   0  0  0  0  0  0  0  0  0  0  0  0
    8.3162   -1.8826    0.7332 H   0  0  0  0  0  0  0  0  0  0  0  0
    6.9200   -0.9689    1.4360 H   0  0  0  0  0  0  0  0  0  0  0  0
    0.6515    4.4086   -1.4807 F   0  0  0  0  0  0  0  0  0  0  0  0
   -1.4402    4.0738   -1.9518 F   0  0  0  0  0  0  0  0  0  0  0  0
   -0.7846    4.1833    0.1337 F   0  0  0  0  0  0  0  0  0  0  0  0
    3.7421    2.1583   -0.3992 F   0  0  0  0  0  0  0  0  0  0  0  0
    6.1928    1.2703   -0.0238 F   0  0  0  0  0  0  0  0  0  0  0  0
    4.9445   -2.9888   -1.7489 F   0  0  0  0  0  0  0  0  0  0  0  0
    2.4820   -2.0879   -2.2217 F   0  0  0  0  0  0  0  0  0  0  0  0
   -1.2177    1.3860   -0.7971 N   0  0  0  0  0  2  0  0  0  0  0  0
    0.7052   -0.4998   -1.1860 O   0  5  0  0  0  0  0  0  0  0  0  0
    6.8273   -1.4899   -0.5950 O   0  0  0  0  0  0  0  0  0  0  0  0
  1 10  1  0  0  0  0
  2  4  1  0  0  0  0
  2  1  2  0  0  0  0
  3  2  1  0  0  0  0
  4  6  2  0  0  0  0
  5  4  1  0  0  0  0
  6  7  1  0  0  0  0
  6  8  1  0  0  0  0
  8  9  1  0  0  0  0
 10  8  2  0  0  0  0
 10 11  1  0  0  0  0
 12 14  1  1  0  0  0
 12 34  1  0  0  0  0
 13 12  1  0  0  0  0
 13 29  1  0  0  0  0
 14 16  2  0  0  0  0
 15 14  1  0  0  0  0
 16 35  1  0  0  0  0
 17 16  1  0  0  0  0
 17 18  1  0  0  0  0
 18 19  2  0  0  0  0
 18 30  1  0  0  0  0
 19 31  1  0  0  0  0
 20 36  1  0  0  0  0
 20 19  1  0  0  0  0
 21 20  2  0  0  0  0
 22 21  1  0  0  0  0
 22 17  2  0  0  0  0
 23 25  1  0  0  0  0
 23 26  1  0  0  0  0
 24 23  1  0  0  0  0
 27 13  1  0  0  0  0
 28 13  1  0  0  0  0
 32 21  1  0  0  0  0
 33 22  1  0  0  0  0
 34  1  1  0  0  0  0
 36 23  1  0  0  0  0
M  CHG  1  35  -1
M  END
