2,3
q = -1.0

 28 29  0  0  0  0  0  0  0  0999 V2000
   -3.2159   -1.2018    0.5866 O   0  0  0  0  0  0  0  0  0  0  0  0
   -1.1902    0.1682   -0.5177 O   0  0  0  0  0  1  0  0  0  0  0  0
    0.9269    1.7713   -0.7219 N   0  0  0  0  0  2  0  0  0  0  0  0
   -1.8616    1.2073   -0.0107 N   0  0  0  0  0  0  0  0  0  0  0  0
   -3.1445    1.1189    0.1947 N   0  0  0  0  0  2  0  0  0  0  0  0
    2.0298    2.1248   -1.4351 C   0  0  0  0  0  0  0  0  0  0  0  0
    2.6653    1.3006   -1.7867 H   0  0  0  0  0  0  0  0  0  0  0  0
    2.3669    3.4480   -1.6896 C   0  0  0  0  0  0  0  0  0  0  0  0
    3.2700    3.6781   -2.2703 H   0  0  0  0  0  0  0  0  0  0  0  0
    1.5413    4.4644   -1.1591 C   0  0  0  0  0  0  0  0  0  0  0  0
    1.7961    5.5245   -1.3045 H   0  0  0  0  0  0  0  0  0  0  0  0
    0.3821    4.1119   -0.4826 C   0  0  0  0  0  0  0  0  0  0  0  0
   -0.3133    4.8769   -0.1097 H   0  0  0  0  0  0  0  0  0  0  0  0
    0.0312    2.7379   -0.3227 C   0  0  0  0  0  0  0  0  0  0  0  0
   -1.2509    2.4021    0.1868 C   0  0  0  0  0  0  0  0  0  0  0  0
   -1.9179    3.1729    0.5857 H   0  0  0  0  0  0  0  0  0  0  0  0
   -3.7748   -0.1142    0.3977 C   0  0  0  0  0  0  0  0  0  0  0  0
   -5.2619    0.0221    0.4355 C   0  0  0  0  0  0  0  0  0  0  0  0
   -5.9191    1.2541    0.2236 C   0  0  0  0  0  0  0  0  0  0  0  0
   -5.3190    2.1554    0.0377 H   0  0  0  0  0  0  0  0  0  0  0  0
   -7.3179    1.3164    0.2534 C   0  0  0  0  0  0  0  0  0  0  0  0
   -7.8279    2.2769    0.0862 H   0  0  0  0  0  0  0  0  0  0  0  0
   -8.0696    0.1556    0.5009 C   0  0  0  0  0  0  0  0  0  0  0  0
   -9.1687    0.2081    0.5268 H   0  0  0  0  0  0  0  0  0  0  0  0
   -7.4201   -1.0730    0.7175 C   0  0  0  0  0  0  0  0  0  0  0  0
   -8.0106   -1.9809    0.9121 H   0  0  0  0  0  0  0  0  0  0  0  0
   -6.0237   -1.1401    0.6850 C   0  0  0  0  0  0  0  0  0  0  0  0
   -5.4896   -2.0870    0.8501 H   0  0  0  0  0  0  0  0  0  0  0  0
  2  4  1  0  0  0  0
  3 14  1  0  0  0  0
  4 15  1  0  0  0  0
  4  5  1  0  0  0  0
  5 17  1  0  0  0  0
  6  3  1  0  0  0  0
  7  6  1  0  0  0  0
  8  6  2  0  0  0  0
  8 10  1  0  0  0  0
  9  8  1  0  0  0  0
 10 12  2  0  0  0  0
 11 10  1  0  0  0  0
 12 14  1  0  0  0  0
 12 13  1  0  0  0  0
 14 15  2  0  0  0  0
 15 16  1  0  0  0  0
 17 18  1  0  0  0  0
 17  1  2  0  0  0  0
 18 27  1  0  0  0  0
 19 21  1  0  0  0  0
 19 18  2  0  0  0  0
 20 19  1  0  0  0  0
 21 23  2  0  0  0  0
 22 21  1  0  0  0  0
 23 24  1  0  0  0  0
 23 25  1  0  0  0  0
 25 26  1  0  0  0  0
 27 25  2  0  0  0  0
 27 28  1  0  0  0  0
M  END
