1,2
q = 0.0, confidence = 0.924

 65 66  0  0  0  0  0  0  0  0999 V2000
   -0.0604    0.6850   -0.2158 N   0  0  0  0  0  2  0  0  0  0  0  0
    0.1962   -1.7085    0.9175 O   0  5  0  0  0  0  0  0  0  0  0  0
    1.2556   -1.1705    0.5051 C   0  0  0  0  0  0  0  0  0  0  0  0
    2.5673   -1.8072    0.6025 C   0  0  0  0  0  0  0  0  0  0  0  0
    3.6509   -1.0566    0.1996 C   0  0  0  0  0  0  0  0  0  0  0  0
    4.6479   -1.5079    0.2843 H   0  0  0  0  0  0  0  0  0  0  0  0
    3.5860    0.2833   -0.3649 C   0  0  0  0  0  0  0  0  0  0  0  0
    2.3634    0.9033   -0.4754 C   0  0  0  0  0  0  0  0  0  0  0  0
    2.2513    1.8968   -0.9254 H   0  0  0  0  0  0  0  0  0  0  0  0
    1.1684    0.2171   -0.0703 C   0  0  0  0  0  0  0  0  0  0  0  0
    2.6851   -3.2388    1.1370 C   0  0  0  0  0  0  0  0  0  0  0  0
    2.1512   -3.2971    2.5896 C   0  0  0  0  0  0  0  0  0  0  0  0
    2.7318   -2.6226    3.2517 H   0  0  0  0  0  0  0  0  0  0  0  0
    2.2538   -4.3296    2.9810 H   0  0  0  0  0  0  0  0  0  0  0  0
    1.0851   -3.0120    2.6421 H   0  0  0  0  0  0  0  0  0  0  0  0
    1.8620   -4.1851    0.2286 C   0  0  0  0  0  0  0  0  0  0  0  0
    2.2515   -4.1724   -0.8096 H   0  0  0  0  0  0  0  0  0  0  0  0
    0.7922   -3.9068    0.2005 H   0  0  0  0  0  0  0  0  0  0  0  0
    1.9390   -5.2240    0.6091 H   0  0  0  0  0  0  0  0  0  0  0  0
    4.1466   -3.7185    1.1408 C   0  0  0  0  0  0  0  0  0  0  0  0
    4.7889   -3.1003    1.8012 H   0  0  0  0  0  0  0  0  0  0  0  0
    4.5879   -3.7191    0.1230 H   0  0  0  0  0  0  0  0  0  0  0  0
    4.1890   -4.7587    1.5193 H   0  0  0  0  0  0  0  0  0  0  0  0
    4.8919    0.9327   -0.8324 C   0  0  0  0  0  0  0  0  0  0  0  0
    5.5798    0.0152   -1.8708 C   0  0  0  0  0  0  0  0  0  0  0  0
    4.9318   -0.1357   -2.7574 H   0  0  0  0  0  0  0  0  0  0  0  0
    5.8274   -0.9819   -1.4562 H   0  0  0  0  0  0  0  0  0  0  0  0
    6.5284    0.4773   -2.2119 H   0  0  0  0  0  0  0  0  0  0  0  0
    4.6545    2.3080   -1.4774 C   0  0  0  0  0  0  0  0  0  0  0  0
    4.0038    2.2358   -2.3718 H   0  0  0  0  0  0  0  0  0  0  0  0
    5.6214    2.7416   -1.8007 H   0  0  0  0  0  0  0  0  0  0  0  0
    4.1910    3.0235   -0.7692 H   0  0  0  0  0  0  0  0  0  0  0  0
    5.8119    1.1122    0.3997 C   0  0  0  0  0  0  0  0  0  0  0  0
    5.3400    1.7744    1.1532 H   0  0  0  0  0  0  0  0  0  0  0  0
    6.7733    1.5705    0.0901 H   0  0  0  0  0  0  0  0  0  0  0  0
    6.0451    0.1473    0.8923 H   0  0  0  0  0  0  0  0  0  0  0  0
   -0.3058    2.0421   -0.4841 C   0  0  0  0  0  0  0  0  0  0  0  0
   -1.1083    2.3594   -1.6237 C   0  0  0  0  0  0  0  0  0  0  0  0
   -1.3819    3.7082   -1.8896 C   0  0  0  0  0  0  0  0  0  0  0  0
   -1.9791    3.9714   -2.7739 H   0  0  0  0  0  0  0  0  0  0  0  0
   -0.9035    4.7212   -1.0466 C   0  0  0  0  0  0  0  0  0  0  0  0
   -1.1270    5.7751   -1.2708 H   0  0  0  0  0  0  0  0  0  0  0  0
   -0.1618    4.3918    0.0939 C   0  0  0  0  0  0  0  0  0  0  0  0
    0.1610    5.1919    0.7772 H   0  0  0  0  0  0  0  0  0  0  0  0
    0.1575    3.0600    0.4110 C   0  0  0  0  0  0  0  0  0  0  0  0
   -1.5609    1.2491   -2.5513 C   0  0  0  0  0  0  0  0  0  0  0  0
   -1.7579    0.3569   -1.9144 H   0  0  0  0  0  0  0  0  0  0  0  0
   -2.8578    1.5512   -3.3053 C   0  0  0  0  0  0  0  0  0  0  0  0
   -3.6612    1.8769   -2.6153 H   0  0  0  0  0  0  0  0  0  0  0  0
   -3.2064    0.6368   -3.8246 H   0  0  0  0  0  0  0  0  0  0  0  0
   -2.7208    2.3370   -4.0774 H   0  0  0  0  0  0  0  0  0  0  0  0
   -0.4307    0.8367   -3.5131 C   0  0  0  0  0  0  0  0  0  0  0  0
    0.4981    0.5730   -2.9686 H   0  0  0  0  0  0  0  0  0  0  0  0
   -0.1922    1.6630   -4.2149 H   0  0  0  0  0  0  0  0  0  0  0  0
   -0.7354   -0.0511   -4.1027 H   0  0  0  0  0  0  0  0  0  0  0  0
    0.8261    2.7656    1.7518 C   0  0  0  0  0  0  0  0  0  0  0  0
    1.0072    1.6756    1.8249 H   0  0  0  0  0  0  0  0  0  0  0  0
    2.1857    3.4691    1.8975 C   0  0  0  0  0  0  0  0  0  0  0  0
    2.8871    3.1846    1.0885 H   0  0  0  0  0  0  0  0  0  0  0  0
    2.6557    3.2004    2.8651 H   0  0  0  0  0  0  0  0  0  0  0  0
    2.0765    4.5729    1.8789 H   0  0  0  0  0  0  0  0  0  0  0  0
   -0.1195    3.1348    2.9103 C   0  0  0  0  0  0  0  0  0  0  0  0
    0.3398    2.8619    3.8824 H   0  0  0  0  0  0  0  0  0  0  0  0
   -1.0842    2.5968    2.8203 H   0  0  0  0  0  0  0  0  0  0  0  0
   -0.3280    4.2244    2.9288 H   0  0  0  0  0  0  0  0  0  0  0  0
  1 10  1  0  0  0  0
  3  4  1  0  0  0  0
  3  2  1  0  0  0  0
  4 11  1  0  0  0  0
  5  6  1  0  0  0  0
  5  4  2  0  0  0  0
  7  5  1  0  0  0  0
  8  7  2  0  0  0  0
  8 10  1  0  0  0  0
  9  8  1  0  0  0  0
 10  3  2  0  0  0  0
 11 20  1  0  0  0  0
 11 12  1  0  0  0  0
 12 15  1  0  0  0  0
 12 14  1  0  0  0  0
 12 13  1  0  0  0  0
 16 19  1  0  0  0  0
 16 11  1  0  0  0  0
 17 16  1  0  0  0  0
 18 16  1  0  0  0  0
 20 23  1  0  0  0  0
 20 21  1  0  0  0  0
 22 20  1  0  0  0  0
 24  7  1  0  0  0  0
 24 33  1  0  0  0  0
 25 27  1  0  0  0  0
 25 24  1  0  0  0  0
 26 25  1  0  0  0  0
 28 25  1  0  0  0  0
 29 24  1  0  0  0  0
 29 32  1  0  0  0  0
 30 29  1  0  0  0  0
 31 29  1  0  0  0  0
 33 36  1  0  0  0  0
 33 34  1  0  0  0  0
 35 33  1  0  0  0  0
 37  1  1  0  0  0  0
 37 45  1  0  0  0  0
 38 37  2  0  0  0  0
 39 38  1  0  0  0  0
 39 41  2  0  0  0  0
 40 39  1  0  0  0  0
 41 43  1  0  0  0  0
 42 41  1  0  0  0  0
 43 45  2  0  0  0  0
 43 44  1  0  0  0  0
 45 56  1  0  0  0  0
 46 47  1  0  0  0  0
 46 38  1  0  0  0  0
 48 49  1  0  0  0  0
 48 46  1  0  0  0  0
 50 48  1  0  0  0  0
 51 48  1  0  0  0  0
 52 53  1  0  0  0  0
 52 46  1  0  0  0  0
 54 52  1  0  0  0  0
 55 52  1  0  0  0  0
 56 57  1  0  0  0  0
 56 58  1  0  0  0  0
 56 62  1  0  0  0  0
 58 60  1  0  0  0  0
 59 58  1  0  0  0  0
 61 58  1  0  0  0  0
 62 65  1  0  0  0  0
 62 63  1  0  0  0  0
 64 62  1  0  0  0  0
M  CHG  1   2  -1
M  END
