1,2
q = -1.0

 41 43  0  0  0  0  0  0  0  0999 V2000
    1.7824    0.3573   -0.4794 O   0  5  0  0  0  0  0  0  0  0  0  0
   -0.2388   -1.1298   -1.4279 N   0  0  0  0  0  2  0  0  0  0  0  0
    0.7358   -1.8050   -1.9803 C   0  0  0  0  0  3  0  0  0  0  0  0
    2.1465   -1.5263   -1.8823 C   0  0  0  0  0  0  0  0  0  0  0  0
    2.6265   -0.4147   -1.1278 C   0  0  0  0  0  0  0  0  0  0  0  0
    4.0203   -0.1217   -1.0610 C   0  0  0  0  0  0  0  0  0  0  0  0
    4.8993   -0.9750   -1.7397 C   0  0  0  0  0  0  0  0  0  0  0  0
    4.4413   -2.0879   -2.4806 C   0  0  0  0  0  0  0  0  0  0  0  0
    3.0773   -2.3565   -2.5571 C   0  0  0  0  0  0  0  0  0  0  0  0
    4.4332    1.0969   -0.2693 C   0  0  0  0  0  0  0  0  0  0  0  0
    4.1024    2.4079   -1.0243 C   0  0  0  0  0  0  0  0  0  0  0  0
    4.3763    3.6285   -0.1384 C   0  0  0  0  0  0  0  0  0  0  0  0
    5.8174    3.6357    0.3882 C   0  0  0  0  0  0  0  0  0  0  0  0
    6.1681    2.3206    1.0980 C   0  0  0  0  0  0  0  0  0  0  0  0
    5.8929    1.1046    0.2030 C   0  0  0  0  0  0  0  0  0  0  0  0
   -1.5622   -1.6128   -1.6367 C   0  0  0  0  0  0  0  0  0  0  0  0
   -2.5215   -0.7855   -2.2543 C   0  0  0  0  0  0  0  0  0  0  0  0
   -3.8349   -1.2451   -2.4101 C   0  0  0  0  0  0  0  0  0  0  0  0
   -4.2089   -2.5163   -1.9420 C   0  0  0  0  0  0  0  0  0  0  0  0
   -3.2524   -3.3410   -1.3317 C   0  0  0  0  0  0  0  0  0  0  0  0
   -1.9304   -2.8961   -1.1846 C   0  0  0  0  0  0  0  0  0  0  0  0
    0.4639   -2.6776   -2.6120 H   0  0  0  0  0  0  0  0  0  0  0  0
    5.9802   -0.7751   -1.6917 H   0  0  0  0  0  0  0  0  0  0  0  0
    5.1637   -2.7349   -2.9991 H   0  0  0  0  0  0  0  0  0  0  0  0
    2.7035   -3.2134   -3.1398 H   0  0  0  0  0  0  0  0  0  0  0  0
    3.7853    1.1014    0.6352 H   0  0  0  0  0  0  0  0  0  0  0  0
    4.7232    2.4542   -1.9475 H   0  0  0  0  0  0  0  0  0  0  0  0
    3.0415    2.3977   -1.3448 H   0  0  0  0  0  0  0  0  0  0  0  0
    4.1638    4.5627   -0.6993 H   0  0  0  0  0  0  0  0  0  0  0  0
    3.6628    3.6090    0.7157 H   0  0  0  0  0  0  0  0  0  0  0  0
    6.5160    3.7805   -0.4672 H   0  0  0  0  0  0  0  0  0  0  0  0
    5.9789    4.4966    1.0706 H   0  0  0  0  0  0  0  0  0  0  0  0
    7.2293    2.3263    1.4249 H   0  0  0  0  0  0  0  0  0  0  0  0
    5.5554    2.2309    2.0237 H   0  0  0  0  0  0  0  0  0  0  0  0
    6.1236    0.1603    0.7414 H   0  0  0  0  0  0  0  0  0  0  0  0
    6.5734    1.1423   -0.6778 H   0  0  0  0  0  0  0  0  0  0  0  0
   -2.2166    0.2162   -2.5887 H   0  0  0  0  0  0  0  0  0  0  0  0
   -4.5792   -0.5953   -2.8952 H   0  0  0  0  0  0  0  0  0  0  0  0
   -5.2480   -2.8614   -2.0495 H   0  0  0  0  0  0  0  0  0  0  0  0
   -3.5369   -4.3346   -0.9543 H   0  0  0  0  0  0  0  0  0  0  0  0
   -1.1799   -3.5247   -0.6822 H   0  0  0  0  0  0  0  0  0  0  0  0
  3  4  1  0  0  0  0
  3  2  1  0  0  0  0
  4  5  1  0  0  0  0
  5  6  2  0  0  0  0
  5  1  1  0  0  0  0
  6 10  1  0  0  0  0
  7 23  1  0  0  0  0
  7  6  1  0  0  0  0
  8  7  2  0  0  0  0
  9  8  1  0  0  0  0
  9  4  2  0  0  0  0
 10 15  1  0  0  0  0
 10 26  1  0  0  0  0
 11 10  1  0  0  0  0
 11 12  1  0  0  0  0
 12 13  1  0  0  0  0
 12 30  1  0  0  0  0
 13 32  1  0  0  0  0
 13 14  1  0  0  0  0
 14 33  1  0  0  0  0
 14 34  1  0  0  0  0
 15 35  1  0  0  0  0
 15 14  1  0  0  0  0
 16  2  1  0  0  0  0
 16 21  1  0  0  0  0
 17 16  2  0  0  0  0
 18 17  1  0  0  0  0
 18 19  2  0  0  0  0
 19 20  1  0  0  0  0
 20 21  2  0  0  0  0
 20 40  1  0  0  0  0
 21 41  1  0  0  0  0
 22  3  1  0  0  0  0
 24  8  1  0  0  0  0
 25  9  1  0  0  0  0
 27 11  1  0  0  0  0
 28 11  1  0  0  0  0
 29 12  1  0  0  0  0
 31 13  1  0  0  0  0
 36 15  1  0  0  0  0
 37 17  1  0  0  0  0
 38 18  1  0  0  0  0
 39 19  1  0  0  0  0
M  CHG  1   1  -1
M  END
