1,2
q = -1.0

 37 39  0  0  1  0  0  0  0  0999 V2000
    1.6535   -0.5182   -2.1325 O   0  5  0  0  0  0  0  0  0  0  0  0
    0.8480    1.5856   -0.3289 N   0  0  0  0  0  2  0  0  0  0  0  0
    2.8356   -0.2485   -1.6746 C   0  0  0  0  0  0  0  0  0  0  0  0
    3.9467   -0.9434   -2.2855 C   0  0  0  0  0  0  0  0  0  0  0  0
    3.6983   -1.6078   -3.1262 H   0  0  0  0  0  0  0  0  0  0  0  0
    5.2326   -0.8076   -1.8262 C   0  0  0  0  0  0  0  0  0  0  0  0
    6.0528   -1.3694   -2.3021 H   0  0  0  0  0  0  0  0  0  0  0  0
    5.5443    0.0370   -0.7108 C   0  0  0  0  0  0  0  0  0  0  0  0
    6.8664    0.1121   -0.1974 C   0  0  0  0  0  0  0  0  0  0  0  0
    7.6537   -0.4784   -0.6923 H   0  0  0  0  0  0  0  0  0  0  0  0
    7.1661    0.9012    0.9070 C   0  0  0  0  0  0  0  0  0  0  0  0
    8.1928    0.9494    1.2990 H   0  0  0  0  0  0  0  0  0  0  0  0
    6.1276    1.6307    1.5309 C   0  0  0  0  0  0  0  0  0  0  0  0
    6.3454    2.2420    2.4202 H   0  0  0  0  0  0  0  0  0  0  0  0
    4.8241    1.5730    1.0442 C   0  0  0  0  0  0  0  0  0  0  0  0
    4.0408    2.1195    1.5879 H   0  0  0  0  0  0  0  0  0  0  0  0
    4.4848    0.7945   -0.0997 C   0  0  0  0  0  0  0  0  0  0  0  0
    3.1312    0.7009   -0.6266 C   0  0  0  0  0  0  0  0  0  0  0  0
    2.1457    1.6281   -0.1482 C   0  0  0  0  0  3  0  0  0  0  0  0
    2.5340    2.5127    0.3999 H   0  0  0  0  0  0  0  0  0  0  0  0
    0.0294    2.7401    0.0657 C   0  0  1  0  0  0  0  0  0  0  0  0
    0.6594    3.4029    0.7075 H   0  0  0  0  0  0  0  0  0  0  0  0
   -0.3703    3.5238   -1.1884 C   0  0  0  0  0  0  0  0  0  0  0  0
   -0.9630    4.4216   -0.9245 H   0  0  0  0  0  0  0  0  0  0  0  0
   -0.9654    2.8828   -1.8695 H   0  0  0  0  0  0  0  0  0  0  0  0
    0.5383    3.8542   -1.7278 H   0  0  0  0  0  0  0  0  0  0  0  0
   -1.1441    2.2611    0.9195 C   0  0  0  0  0  0  0  0  0  0  0  0
   -0.8663    1.5157    2.0836 C   0  0  0  0  0  0  0  0  0  0  0  0
    0.1806    1.2954    2.3419 H   0  0  0  0  0  0  0  0  0  0  0  0
   -1.9023    1.0415    2.9003 C   0  0  0  0  0  0  0  0  0  0  0  0
   -1.6637    0.4601    3.8049 H   0  0  0  0  0  0  0  0  0  0  0  0
   -3.2406    1.3085    2.5670 C   0  0  0  0  0  0  0  0  0  0  0  0
   -4.0590    0.9258    3.1947 H   0  0  0  0  0  0  0  0  0  0  0  0
   -3.5281    2.0556    1.4166 C   0  0  0  0  0  0  0  0  0  0  0  0
   -4.5731    2.2545    1.1365 H   0  0  0  0  0  0  0  0  0  0  0  0
   -2.4885    2.5265    0.5989 C   0  0  0  0  0  0  0  0  0  0  0  0
   -2.7400    3.0925   -0.3080 H   0  0  0  0  0  0  0  0  0  0  0  0
  1  3  1  0  0  0  0
  2 19  1  0  0  0  0
  2 21  1  0  0  0  0
  3 18  1  0  0  0  0
  4  6  1  0  0  0  0
  4  3  2  0  0  0  0
  5  4  1  0  0  0  0
  6  8  2  0  0  0  0
  7  6  1  0  0  0  0
  8  9  1  0  0  0  0
  8 17  1  0  0  0  0
  9 11  2  0  0  0  0
 10  9  1  0  0  0  0
 11 12  1  0  0  0  0
 11 13  1  0  0  0  0
 13 14  1  0  0  0  0
 15 13  2  0  0  0  0
 15 16  1  0  0  0  0
 17 15  1  0  0  0  0
 18 19  1  0  0  0  0
 18 17  2  0  0  0  0
 19 20  1  0  0  0  0
 21 22  1  1  0  0  0
 21 27  1  0  0  0  0
 23 24  1  0  0  0  0
 23 21  1  0  0  0  0
 25 23  1  0  0  0  0
 26 23  1  0  0  0  0
 27 28  1  0  0  0  0
 28 29  1  0  0  0  0
 28 30  2  0  0  0  0
 30 31  1  0  0  0  0
 32 30  1  0  0  0  0
 32 33  1  0  0  0  0
 34 32  2  0  0  0  0
 35 34  1  0  0  0  0
 36 27  2  0  0  0  0
 36 34  1  0  0  0  0
 37 36  1  0  0  0  0
M  CHG  1   1  -1
M  END
