1,3
q = -1.0, confidence = 0.002

 41 43  0  0  1  0  0  0  0  0999 V2000
   -1.2851   -2.5041    0.2356 O   0  5  0  0  0  0  0  0  0  0  0  0
    2.9335    4.2904    0.0837 O   0  0  0  0  0  0  0  0  0  0  0  0
   -0.7937   -0.4117   -1.7086 N   0  0  0  0  0  2  0  0  0  0  0  0
   -2.5219   -2.1565    0.0798 C   0  0  0  0  0  0  0  0  0  0  0  0
   -2.9873   -1.0902   -0.7754 C   0  0  0  0  0  0  0  0  0  0  0  0
   -4.4061   -0.7536   -0.8043 C   0  0  0  0  0  0  0  0  0  0  0  0
   -6.3099    0.6105   -1.5705 C   0  0  0  0  0  0  0  0  0  0  0  0
   -6.6776    1.4664   -2.1571 H   0  0  0  0  0  0  0  0  0  0  0  0
   -4.9441    0.3421   -1.5416 C   0  0  0  0  0  0  0  0  0  0  0  0
   -4.2765    1.0215   -2.0879 H   0  0  0  0  0  0  0  0  0  0  0  0
   -7.2217   -0.1875   -0.8414 C   0  0  0  0  0  0  0  0  0  0  0  0
   -8.2995    0.0314   -0.8678 H   0  0  0  0  0  0  0  0  0  0  0  0
   -6.7303   -1.2408   -0.0787 C   0  0  0  0  0  0  0  0  0  0  0  0
   -7.4145   -1.8697    0.5129 H   0  0  0  0  0  0  0  0  0  0  0  0
   -5.3416   -1.5394   -0.0416 C   0  0  0  0  0  0  0  0  0  0  0  0
   -4.8472   -2.6256    0.7525 C   0  0  0  0  0  0  0  0  0  0  0  0
   -5.5723   -3.2245    1.3273 H   0  0  0  0  0  0  0  0  0  0  0  0
   -3.5094   -2.9205    0.8095 C   0  0  0  0  0  0  0  0  0  0  0  0
   -3.1236   -3.7492    1.4212 H   0  0  0  0  0  0  0  0  0  0  0  0
   -2.1035   -0.3826   -1.6570 C   0  0  0  0  0  3  0  0  0  0  0  0
   -2.5952    0.2567   -2.4178 H   0  0  0  0  0  0  0  0  0  0  0  0
   -0.1147    0.3763   -2.7549 C   0  0  2  0  0  0  0  0  0  0  0  0
   -0.8993    0.8966   -3.3516 H   0  0  0  0  0  0  0  0  0  0  0  0
    0.6649   -0.5616   -3.6823 C   0  0  0  0  0  0  0  0  0  0  0  0
    1.3563   -1.2067   -3.1045 H   0  0  0  0  0  0  0  0  0  0  0  0
    1.2474    0.0194   -4.4241 H   0  0  0  0  0  0  0  0  0  0  0  0
   -0.0359   -1.2288   -4.2217 H   0  0  0  0  0  0  0  0  0  0  0  0
    0.7292    1.4521   -2.0857 C   0  0  0  0  0  0  0  0  0  0  0  0
    2.0223    1.1859   -1.5886 C   0  0  0  0  0  0  0  0  0  0  0  0
    2.4877    0.2061   -1.7586 H   0  0  0  0  0  0  0  0  0  0  0  0
    2.7359    2.1473   -0.8699 C   0  0  0  0  0  0  0  0  0  0  0  0
    3.7380    1.9305   -0.4715 H   0  0  0  0  0  0  0  0  0  0  0  0
    2.1735    3.4210   -0.6363 C   0  0  0  0  0  0  0  0  0  0  0  0
    0.8938    3.7161   -1.1538 C   0  0  0  0  0  0  0  0  0  0  0  0
    0.4349    4.7022   -1.0028 H   0  0  0  0  0  0  0  0  0  0  0  0
    0.1904    2.7304   -1.8634 C   0  0  0  0  0  0  0  0  0  0  0  0
   -0.8170    2.9643   -2.2437 H   0  0  0  0  0  0  0  0  0  0  0  0
    2.4023    5.5706    0.3664 C   0  0  0  0  0  0  0  0  0  0  0  0
    2.2053    6.1541   -0.5612 H   0  0  0  0  0  0  0  0  0  0  0  0
    3.1643    6.1009    0.9672 H   0  0  0  0  0  0  0  0  0  0  0  0
    1.4581    5.5076    0.9533 H   0  0  0  0  0  0  0  0  0  0  0  0
  2 38  1  0  0  0  0
  3 20  1  0  0  0  0
  4  1  1  0  0  0  0
  4 18  1  0  0  0  0
  5  4  2  0  0  0  0
  6  5  1  0  0  0  0
  6 15  1  0  0  0  0
  7  9  1  0  0  0  0
  7 11  2  0  0  0  0
  8  7  1  0  0  0  0
  9  6  2  0  0  0  0
 10  9  1  0  0  0  0
 11 13  1  0  0  0  0
 12 11  1  0  0  0  0
 13 15  2  0  0  0  0
 13 14  1  0  0  0  0
 15 16  1  0  0  0  0
 16 18  2  0  0  0  0
 16 17  1  0  0  0  0
 18 19  1  0  0  0  0
 20  5  1  0  0  0  0
 21 20  1  0  0  0  0
 22 23  1  6  0  0  0
 22 28  1  0  0  0  0
 22  3  1  0  0  0  0
 24 25  1  0  0  0  0
 24 22  1  0  0  0  0
 26 24  1  0  0  0  0
 27 24  1  0  0  0  0
 28 36  2  0  0  0  0
 28 29  1  0  0  0  0
 29 31  2  0  0  0  0
 30 29  1  0  0  0  0
 31 33  1  0  0  0  0
 31 32  1  0  0  0  0
 33  2  1  0  0  0  0
 34 35  1  0  0  0  0
 34 33  2  0  0  0  0
 36 34  1  0  0  0  0
 37 36  1  0  0  0  0
 38 41  1  0  0  0  0
 38 40  1  0  0  0  0
 39 38  1  0  0  0  0
M  CHG  1   1  -1
M  END
