3,15
q = -1.0

 41 43  0  0  1  0  0  0  0  0999 V2000
    2.5218   -2.1564    0.0800 C   0  0  0  0  0  0  0  0  0  0  0  0
    2.9874   -1.0902   -0.7753 C   0  0  0  0  0  0  0  0  0  0  0  0
    1.2850   -2.5038    0.2359 O   0  5  0  0  0  0  0  0  0  0  0  0
   -2.9333    4.2907    0.0836 O   0  0  0  0  0  0  0  0  0  0  0  0
    4.4062   -0.7538   -0.8043 C   0  0  0  0  0  0  0  0  0  0  0  0
    4.9443    0.3416   -1.5418 C   0  0  0  0  0  0  0  0  0  0  0  0
    4.2768    1.0210   -2.0883 H   0  0  0  0  0  0  0  0  0  0  0  0
    6.3102    0.6099   -1.5708 C   0  0  0  0  0  0  0  0  0  0  0  0
    6.6780    1.4657   -2.1575 H   0  0  0  0  0  0  0  0  0  0  0  0
    7.2219   -0.1881   -0.8416 C   0  0  0  0  0  0  0  0  0  0  0  0
    8.2997    0.0307   -0.8681 H   0  0  0  0  0  0  0  0  0  0  0  0
    6.7303   -1.2412   -0.0788 C   0  0  0  0  0  0  0  0  0  0  0  0
    7.4145   -1.8701    0.5129 H   0  0  0  0  0  0  0  0  0  0  0  0
    5.3416   -1.5396   -0.0416 C   0  0  0  0  0  0  0  0  0  0  0  0
    0.7938   -0.4116   -1.7086 N   0  0  0  0  0  2  0  0  0  0  0  0
    2.1036   -0.3826   -1.6569 C   0  0  0  0  0  3  0  0  0  0  0  0
    2.5954    0.2567   -2.4177 H   0  0  0  0  0  0  0  0  0  0  0  0
   -2.1733    3.4213   -0.6364 C   0  0  0  0  0  0  0  0  0  0  0  0
    0.1149    0.3764   -2.7549 C   0  0  1  0  0  0  0  0  0  0  0  0
    0.8996    0.8968   -3.3515 H   0  0  0  0  0  0  0  0  0  0  0  0
   -0.6647   -0.5613   -3.6824 C   0  0  0  0  0  0  0  0  0  0  0  0
    0.0360   -1.2285   -4.2219 H   0  0  0  0  0  0  0  0  0  0  0  0
   -1.2472    0.0197   -4.4241 H   0  0  0  0  0  0  0  0  0  0  0  0
   -1.3561   -1.2065   -3.1046 H   0  0  0  0  0  0  0  0  0  0  0  0
   -0.7290    1.4523   -2.0856 C   0  0  0  0  0  0  0  0  0  0  0  0
   -2.0222    1.1862   -1.5889 C   0  0  0  0  0  0  0  0  0  0  0  0
   -2.4878    0.2065   -1.7592 H   0  0  0  0  0  0  0  0  0  0  0  0
   -2.7358    2.1477   -0.8703 C   0  0  0  0  0  0  0  0  0  0  0  0
   -3.7381    1.9310   -0.4721 H   0  0  0  0  0  0  0  0  0  0  0  0
    4.8472   -2.6256    0.7528 C   0  0  0  0  0  0  0  0  0  0  0  0
    5.5722   -3.2245    1.3277 H   0  0  0  0  0  0  0  0  0  0  0  0
   -0.8934    3.7162   -1.1535 C   0  0  0  0  0  0  0  0  0  0  0  0
   -0.4344    4.7023   -1.0023 H   0  0  0  0  0  0  0  0  0  0  0  0
    3.5093   -2.9204    0.8099 C   0  0  0  0  0  0  0  0  0  0  0  0
    3.1234   -3.7489    1.4218 H   0  0  0  0  0  0  0  0  0  0  0  0
   -0.1900    2.7305   -1.8632 C   0  0  0  0  0  0  0  0  0  0  0  0
    0.8175    2.9643   -2.2432 H   0  0  0  0  0  0  0  0  0  0  0  0
   -2.4019    5.5708    0.3666 C   0  0  0  0  0  0  0  0  0  0  0  0
   -1.4578    5.5075    0.9537 H   0  0  0  0  0  0  0  0  0  0  0  0
   -3.1640    6.1010    0.9674 H   0  0  0  0  0  0  0  0  0  0  0  0
   -2.2047    6.1543   -0.5609 H   0  0  0  0  0  0  0  0  0  0  0  0
  1  3  1  0  0  0  0
  1 34  1  0  0  0  0
  2  1  2  0  0  0  0
  4 38  1  0  0  0  0
  5  2  1  0  0  0  0
  5 14  1  0  0  0  0
  6  5  2  0  0  0  0
  7  6  1  0  0  0  0
  8  6  1  0  0  0  0
  8 10  2  0  0  0  0
  9  8  1  0  0  0  0
 10 12  1  0  0  0  0
 11 10  1  0  0  0  0
 12 14  2  0  0  0  0
 12 13  1  0  0  0  0
 14 30  1  0  0  0  0
 15 16  1  0  0  0  0
 16  2  1  0  0  0  0
 17 16  1  0  0  0  0
 18  4  1  0  0  0  0
 19 20  1  6  0  0  0
 19 25  1  0  0  0  0
 19 15  1  0  0  0  0
 21 24  1  0  0  0  0
 21 19  1  0  0  0  0
 22 21  1  0  0  0  0
 23 21  1  0  0  0  0
 25 36  2  0  0  0  0
 25 26  1  0  0  0  0
 26 28  2  0  0  0  0
 27 26  1  0  0  0  0
 28 18  1  0  0  0  0
 28 29  1  0  0  0  0
 30 34  2  0  0  0  0
 30 31  1  0  0  0  0
 32 33  1  0  0  0  0
 32 18  2  0  0  0  0
 34 35  1  0  0  0  0
 36 32  1  0  0  0  0
 37 36  1  0  0  0  0
 38 39  1  0  0  0  0
 38 40  1  0  0  0  0
 41 38  1  0  0  0  0
M  CHG  1   3  -1
M  END
