1,2
q = -1.0

 28 27  0  0  0  0  0  0  0  0999 V2000
   -0.8766    1.5735   -0.4377 O   0  0  0  0  0  1  0  0  0  0  0  0
   -1.7176   -0.9290   -0.1489 N   0  0  0  0  0  0  0  0  0  0  0  0
   -2.2511    1.5251   -0.1643 C   0  0  0  0  0  0  0  0  0  0  0  0
   -2.7443    0.0989   -0.5201 C   0  0  0  0  0  0  0  0  0  0  0  0
   -3.7278   -0.1528   -0.0672 H   0  0  0  0  0  0  0  0  0  0  0  0
   -2.8716    0.0554   -1.6169 H   0  0  0  0  0  0  0  0  0  0  0  0
   -2.9639    2.5403   -1.0774 C   0  0  0  0  0  0  0  0  0  0  0  0
   -2.5822    3.5577   -0.8600 H   0  0  0  0  0  0  0  0  0  0  0  0
   -4.0643    2.5407   -0.9321 H   0  0  0  0  0  0  0  0  0  0  0  0
   -2.7402    2.3131   -2.1391 H   0  0  0  0  0  0  0  0  0  0  0  0
   -2.5458    1.8972    1.3070 C   0  0  0  0  0  0  0  0  0  0  0  0
   -1.9948    1.2365    2.0035 H   0  0  0  0  0  0  0  0  0  0  0  0
   -3.6274    1.8419    1.5526 H   0  0  0  0  0  0  0  0  0  0  0  0
   -2.1961    2.9319    1.4969 H   0  0  0  0  0  0  0  0  0  0  0  0
   -1.5723   -1.9938   -1.1861 C   0  0  0  0  0  0  0  0  0  0  0  0
   -2.5450   -2.5201   -1.3179 H   0  0  0  0  0  0  0  0  0  0  0  0
   -0.8341   -2.7029   -0.7625 H   0  0  0  0  0  0  0  0  0  0  0  0
   -1.0626   -1.4901   -2.5291 C   0  0  0  0  0  0  0  0  0  0  0  0
   -1.7742   -0.8132   -3.0416 H   0  0  0  0  0  0  0  0  0  0  0  0
   -0.8763   -2.3525   -3.2001 H   0  0  0  0  0  0  0  0  0  0  0  0
   -0.1134   -0.9374   -2.3851 H   0  0  0  0  0  0  0  0  0  0  0  0
   -1.9622   -1.5497    1.1917 C   0  0  0  0  0  0  0  0  0  0  0  0
   -2.0574   -0.7190    1.9151 H   0  0  0  0  0  0  0  0  0  0  0  0
   -1.0266   -2.0902    1.4394 H   0  0  0  0  0  0  0  0  0  0  0  0
   -3.1777   -2.4707    1.3066 C   0  0  0  0  0  0  0  0  0  0  0  0
   -4.1246   -1.9708    1.0162 H   0  0  0  0  0  0  0  0  0  0  0  0
   -3.2863   -2.7877    2.3630 H   0  0  0  0  0  0  0  0  0  0  0  0
   -3.0737   -3.3905    0.6984 H   0  0  0  0  0  0  0  0  0  0  0  0
  1  3  1  0  0  0  0
  2 22  1  0  0  0  0
  3 11  1  0  0  0  0
  4  3  1  0  0  0  0
  4  2  1  0  0  0  0
  4  5  1  0  0  0  0
  6  4  1  0  0  0  0
  7  9  1  0  0  0  0
  7  8  1  0  0  0  0
  7  3  1  0  0  0  0
 10  7  1  0  0  0  0
 11 14  1  0  0  0  0
 11 13  1  0  0  0  0
 11 12  1  0  0  0  0
 15 17  1  0  0  0  0
 15  2  1  0  0  0  0
 16 15  1  0  0  0  0
 18 21  1  0  0  0  0
 18 15  1  0  0  0  0
 19 18  1  0  0  0  0
 20 18  1  0  0  0  0
 22 25  1  0  0  0  0
 22 24  1  0  0  0  0
 22 23  1  0  0  0  0
 25 27  1  0  0  0  0
 26 25  1  0  0  0  0
 28 25  1  0  0  0  0
M  END
