1,2
q = -1.0

 43 44  0  0  0  0  0  0  0  0999 V2000
   -0.5566    0.1217   -0.0428 N   0  0  0  0  0  2  0  0  0  0  0  0
    1.4188    1.7083   -0.1371 O   0  5  0  0  0  0  0  0  0  0  0  0
   -2.7865    3.0786   -0.7570 C   0  0  0  0  0  0  0  0  0  0  0  0
   -3.8835    3.0890   -0.8730 H   0  0  0  0  0  0  0  0  0  0  0  0
   -1.8672   -1.6840   -1.0628 C   0  0  0  0  0  0  0  0  0  0  0  0
   -3.5992   -2.8011    0.2529 C   0  0  0  0  0  0  0  0  0  0  0  0
   -4.3983   -3.5546    0.3248 H   0  0  0  0  0  0  0  0  0  0  0  0
   -0.8956    1.4084   -0.2939 C   0  0  0  0  0  0  0  0  0  0  0  0
   -1.5835   -0.8596    0.0598 C   0  0  0  0  0  0  0  0  0  0  0  0
   -1.4741   -1.1213    3.6971 C   0  0  0  0  0  0  0  0  0  0  0  0
   -1.1387   -0.5097    4.5599 H   0  0  0  0  0  0  0  0  0  0  0  0
   -0.6407   -1.7920    3.4072 H   0  0  0  0  0  0  0  0  0  0  0  0
   -2.3140   -1.7570    4.0469 H   0  0  0  0  0  0  0  0  0  0  0  0
   -0.7805    4.5857   -0.7978 C   0  0  0  0  0  0  0  0  0  0  0  0
   -0.4791    5.6378   -0.9355 H   0  0  0  0  0  0  0  0  0  0  0  0
   -2.8870   -2.6450   -0.9439 C   0  0  0  0  0  0  0  0  0  0  0  0
   -3.1265   -3.2877   -1.8043 H   0  0  0  0  0  0  0  0  0  0  0  0
   -1.8949   -0.2177    2.5257 C   0  0  0  0  0  0  0  0  0  0  0  0
   -1.0133    0.3966    2.2520 H   0  0  0  0  0  0  0  0  0  0  0  0
   -2.2464    1.8181   -0.4988 C   0  0  0  0  0  3  0  0  0  0  0  0
   -2.9753    0.9952   -0.4432 H   0  0  0  0  0  0  0  0  0  0  0  0
   -1.0818   -1.5078   -2.3557 C   0  0  0  0  0  0  0  0  0  0  0  0
   -0.1089   -1.0611   -2.0566 H   0  0  0  0  0  0  0  0  0  0  0  0
    0.2869    2.2983   -0.3339 C   0  0  0  0  0  0  0  0  0  0  0  0
   -0.7867   -2.8343   -3.0678 C   0  0  0  0  0  0  0  0  0  0  0  0
   -1.7060   -3.3017   -3.4783 H   0  0  0  0  0  0  0  0  0  0  0  0
   -0.3120   -3.5662   -2.3832 H   0  0  0  0  0  0  0  0  0  0  0  0
   -0.1006   -2.6666   -3.9229 H   0  0  0  0  0  0  0  0  0  0  0  0
   -2.2630   -1.0373    1.2944 C   0  0  0  0  0  0  0  0  0  0  0  0
    0.2774    3.6979   -0.5610 C   0  0  0  0  0  0  0  0  0  0  0  0
    1.2929    4.1253   -0.5389 H   0  0  0  0  0  0  0  0  0  0  0  0
   -3.2776   -2.0105    1.3627 C   0  0  0  0  0  0  0  0  0  0  0  0
   -3.8213   -2.1552    2.3095 H   0  0  0  0  0  0  0  0  0  0  0  0
   -3.0282    0.7377    2.9371 C   0  0  0  0  0  0  0  0  0  0  0  0
   -3.2961    1.4261    2.1117 H   0  0  0  0  0  0  0  0  0  0  0  0
   -2.7253    1.3533    3.8092 H   0  0  0  0  0  0  0  0  0  0  0  0
   -3.9423    0.1762    3.2238 H   0  0  0  0  0  0  0  0  0  0  0  0
   -2.1543    4.3302   -0.8894 C   0  0  0  0  0  0  0  0  0  0  0  0
   -2.8080    5.1934   -1.0892 H   0  0  0  0  0  0  0  0  0  0  0  0
   -1.7775   -0.5143   -3.3037 C   0  0  0  0  0  0  0  0  0  0  0  0
   -1.9386    0.4687   -2.8199 H   0  0  0  0  0  0  0  0  0  0  0  0
   -2.7691   -0.9025   -3.6188 H   0  0  0  0  0  0  0  0  0  0  0  0
   -1.1694   -0.3492   -4.2171 H   0  0  0  0  0  0  0  0  0  0  0  0
  1  9  1  0  0  0  0
  3 20  1  0  0  0  0
  4  3  1  0  0  0  0
  5 16  2  0  0  0  0
  5  9  1  0  0  0  0
  6  7  1  0  0  0  0
  6 32  2  0  0  0  0
  8  1  1  0  0  0  0
  9 29  2  0  0  0  0
 10 13  1  0  0  0  0
 10 11  1  0  0  0  0
 12 10  1  0  0  0  0
 14 30  2  0  0  0  0
 15 14  1  0  0  0  0
 16  6  1  0  0  0  0
 17 16  1  0  0  0  0
 18 34  1  0  0  0  0
 18 10  1  0  0  0  0
 19 18  1  0  0  0  0
 20 21  1  0  0  0  0
 20  8  1  0  0  0  0
 22 23  1  0  0  0  0
 22  5  1  0  0  0  0
 24  8  2  0  0  0  0
 24  2  1  0  0  0  0
 25 27  1  0  0  0  0
 25 22  1  0  0  0  0
 26 25  1  0  0  0  0
 28 25  1  0  0  0  0
 29 32  1  0  0  0  0
 29 18  1  0  0  0  0
 30 31  1  0  0  0  0
 30 24  1  0  0  0  0
 32 33  1  0  0  0  0
 34 37  1  0  0  0  0
 34 36  1  0  0  0  0
 35 34  1  0  0  0  0
 38 14  1  0  0  0  0
 38  3  2  0  0  0  0
 39 38  1  0  0  0  0
 40 41  1  0  0  0  0
 40 22  1  0  0  0  0
 42 40  1  0  0  0  0
 43 40  1  0  0  0  0
M  CHG  1   2  -1
M  END
