3,5
q = -1.0

 37 38  0  0  1  0  0  0  0  0999 V2000
    4.3992    2.5972   -0.3173 Br  0  0  0  0  0  0  0  0  0  0  0  0
    7.3175   -2.1122    0.3043 Cl  0  0  0  0  0  0  0  0  0  0  0  0
    0.9275   -1.9500    0.7343 N   0  0  0  0  0  2  0  0  0  0  0  0
   -0.6313   -0.0074    2.5417 N   0  0  0  0  0  0  0  0  0  0  0  0
    2.1249    0.7273    0.2725 O   0  0  0  0  0  1  0  0  0  0  0  0
    0.2166    2.5342    3.6365 O   0  0  0  0  0  0  0  0  0  0  0  0
    3.3270   -1.3750    0.5279 C   0  0  0  0  0  0  0  0  0  0  0  0
    3.2207    0.0567    0.2791 C   0  0  2  0  0  3  0  0  0  0  0  0
    4.4790    0.7272    0.0304 C   0  0  0  0  0  0  0  0  0  0  0  0
    5.7102    0.0837    0.0326 C   0  0  0  0  0  0  0  0  0  0  0  0
    6.6337    0.6447   -0.1644 H   0  0  0  0  0  0  0  0  0  0  0  0
    5.7666   -1.3052    0.2931 C   0  0  0  0  0  0  0  0  0  0  0  0
    4.5988   -2.0140    0.5409 C   0  0  0  0  0  0  0  0  0  0  0  0
    4.6541   -3.0937    0.7461 H   0  0  0  0  0  0  0  0  0  0  0  0
    2.1950   -2.2315    0.8128 C   0  0  0  0  0  0  0  0  0  0  0  0
    2.4716   -3.2630    1.1398 H   0  0  0  0  0  0  0  0  0  0  0  0
   -0.0459   -2.9229    1.2085 C   0  0  0  0  0  0  0  0  0  0  0  0
    0.3972   -3.9467    1.2249 H   0  0  0  0  0  0  0  0  0  0  0  0
   -0.9110   -2.9278    0.5120 H   0  0  0  0  0  0  0  0  0  0  0  0
   -0.5453   -2.5775    2.6215 C   0  0  0  0  0  0  0  0  0  0  0  0
   -1.2234   -3.3973    2.9388 H   0  0  0  0  0  0  0  0  0  0  0  0
    0.3131   -2.6055    3.3264 H   0  0  0  0  0  0  0  0  0  0  0  0
   -1.3452   -1.2824    2.7808 C   0  0  0  0  0  0  0  0  0  0  0  0
   -2.2094   -1.3083    2.0876 H   0  0  0  0  0  0  0  0  0  0  0  0
   -1.7584   -1.2666    3.8215 H   0  0  0  0  0  0  0  0  0  0  0  0
   -1.5665    1.1049    2.8101 C   0  0  0  0  0  0  0  0  0  0  0  0
   -2.0031    0.9901    3.8345 H   0  0  0  0  0  0  0  0  0  0  0  0
   -2.4030    1.0555    2.0839 H   0  0  0  0  0  0  0  0  0  0  0  0
   -0.8683    2.4587    2.7322 C   0  0  0  0  0  0  0  0  0  0  0  0
   -0.5185    2.6418    1.6875 H   0  0  0  0  0  0  0  0  0  0  0  0
   -1.5831    3.2625    3.0002 H   0  0  0  0  0  0  0  0  0  0  0  0
    1.1646    1.5268    3.3158 C   0  0  0  0  0  0  0  0  0  0  0  0
    1.9956    1.6162    4.0434 H   0  0  0  0  0  0  0  0  0  0  0  0
    1.5802    1.6857    2.2922 H   0  0  0  0  0  0  0  0  0  0  0  0
    0.5571    0.1286    3.4068 C   0  0  0  0  0  0  0  0  0  0  0  0
    1.3186   -0.6150    3.1000 H   0  0  0  0  0  0  0  0  0  0  0  0
    0.2757   -0.0822    4.4698 H   0  0  0  0  0  0  0  0  0  0  0  0
  1  9  1  0  0  0  0
  3 15  1  0  0  0  0
  3 17  1  0  0  0  0
  4 23  1  0  0  0  0
  4 26  1  0  0  0  0
  4 35  1  0  0  0  0
  7 13  1  0  0  0  0
  7 15  2  0  0  0  0
  8  5  1  1  0  0  0
  8  7  1  0  0  0  0
  9 10  2  0  0  0  0
  9  8  1  0  0  0  0
 10 12  1  0  0  0  0
 11 10  1  0  0  0  0
 12  2  1  0  0  0  0
 12 13  2  0  0  0  0
 13 14  1  0  0  0  0
 15 16  1  0  0  0  0
 17 18  1  0  0  0  0
 17 20  1  0  0  0  0
 19 17  1  0  0  0  0
 20 23  1  0  0  0  0
 20 21  1  0  0  0  0
 20 22  1  0  0  0  0
 23 25  1  0  0  0  0
 24 23  1  0  0  0  0
 26 27  1  0  0  0  0
 28 26  1  0  0  0  0
 29 26  1  0  0  0  0
 29 31  1  0  0  0  0
 29  6  1  0  0  0  0
 30 29  1  0  0  0  0
 32 35  1  0  0  0  0
 32  6  1  0  0  0  0
 32 33  1  0  0  0  0
 34 32  1  0  0  0  0
 35 37  1  0  0  0  0
 36 35  1  0  0  0  0
M  END
