1,2
q = -1.0

 32 32  0  0  1  0  0  0  0  0999 V2000
   -1.7732    0.4928   -0.5484 O   0  0  0  0  0  1  0  0  0  0  0  0
   -0.5313   -1.8465    0.1801 N   0  0  0  0  0  2  0  0  0  0  0  0
    0.7248   -1.0857   -2.4727 N   0  0  0  0  0  0  0  0  0  0  0  0
   -4.1325    2.3692   -1.0440 Br  0  0  0  0  0  0  0  0  0  0  0  0
   -2.9660   -1.4787    0.1656 C   0  0  0  0  0  0  0  0  0  0  0  0
   -2.8865   -0.1102   -0.2769 C   0  0  2  0  0  3  0  0  0  0  0  0
   -4.1455    0.5657   -0.4358 C   0  0  0  0  0  0  0  0  0  0  0  0
   -5.3675   -0.0428   -0.1605 C   0  0  0  0  0  0  0  0  0  0  0  0
   -6.3043    0.5160   -0.2880 H   0  0  0  0  0  0  0  0  0  0  0  0
   -5.3987   -1.3834    0.2845 C   0  0  0  0  0  0  0  0  0  0  0  0
   -4.2140   -2.0955    0.4369 C   0  0  0  0  0  0  0  0  0  0  0  0
   -4.2419   -3.1438    0.7678 H   0  0  0  0  0  0  0  0  0  0  0  0
   -1.7686   -2.2650    0.2713 C   0  0  0  0  0  0  0  0  0  0  0  0
   -1.9244   -3.3534    0.4194 H   0  0  0  0  0  0  0  0  0  0  0  0
    0.4887   -2.9021    0.1135 C   0  0  0  0  0  0  0  0  0  0  0  0
    1.4048   -2.5319    0.6043 H   0  0  0  0  0  0  0  0  0  0  0  0
    0.1202   -3.7855    0.6794 H   0  0  0  0  0  0  0  0  0  0  0  0
    0.8003   -3.3400   -1.3264 C   0  0  0  0  0  0  0  0  0  0  0  0
    1.4847   -4.2119   -1.2592 H   0  0  0  0  0  0  0  0  0  0  0  0
   -0.1286   -3.7225   -1.8036 H   0  0  0  0  0  0  0  0  0  0  0  0
    1.4847   -2.3055   -2.2237 C   0  0  0  0  0  0  0  0  0  0  0  0
    1.7603   -2.8128   -3.1900 H   0  0  0  0  0  0  0  0  0  0  0  0
    2.4418   -2.0075   -1.7470 H   0  0  0  0  0  0  0  0  0  0  0  0
   -0.5445   -1.2914   -3.1455 C   0  0  0  0  0  0  0  0  0  0  0  0
   -0.4297   -1.7164   -4.1783 H   0  0  0  0  0  0  0  0  0  0  0  0
   -1.1943   -1.9734   -2.5641 H   0  0  0  0  0  0  0  0  0  0  0  0
   -1.0805   -0.3248   -3.2221 H   0  0  0  0  0  0  0  0  0  0  0  0
    1.5288   -0.0790   -3.1421 C   0  0  0  0  0  0  0  0  0  0  0  0
    0.9672    0.8756   -3.1972 H   0  0  0  0  0  0  0  0  0  0  0  0
    2.4606    0.1053   -2.5719 H   0  0  0  0  0  0  0  0  0  0  0  0
    1.8169   -0.3711   -4.1874 H   0  0  0  0  0  0  0  0  0  0  0  0
   -6.9378   -2.1345    0.6305 Cl  0  0  0  0  0  0  0  0  0  0  0  0
  2 13  1  0  0  0  0
  3 21  1  0  0  0  0
  4  7  1  0  0  0  0
  5 13  2  0  0  0  0
  5 11  1  0  0  0  0
  6  1  1  6  0  0  0
  6  5  1  0  0  0  0
  7  6  1  0  0  0  0
  7  8  2  0  0  0  0
  8 10  1  0  0  0  0
  9  8  1  0  0  0  0
 10 11  2  0  0  0  0
 10 32  1  0  0  0  0
 11 12  1  0  0  0  0
 13 14  1  0  0  0  0
 15  2  1  0  0  0  0
 15 16  1  0  0  0  0
 15 17  1  0  0  0  0
 18 19  1  0  0  0  0
 18 15  1  0  0  0  0
 20 18  1  0  0  0  0
 21 23  1  0  0  0  0
 21 18  1  0  0  0  0
 22 21  1  0  0  0  0
 24 26  1  0  0  0  0
 24  3  1  0  0  0  0
 25 24  1  0  0  0  0
 27 24  1  0  0  0  0
 28 30  1  0  0  0  0
 28  3  1  0  0  0  0
 29 28  1  0  0  0  0
 31 28  1  0  0  0  0
M  END
