1,8
q = -1.0

 38 42  0  0  1  0  0  0  0  0999 V2000
   -0.5737    1.4929   -1.3901 N   0  0  0  0  0  0  0  0  0  0  0  0
    0.5918    2.0250   -3.3118 N   0  0  0  0  0  0  0  0  0  0  0  0
    2.1836    0.4586   -0.3805 N   0  0  0  0  0  0  0  0  0  0  0  0
    6.0121   -0.5273    1.0907 N   0  0  0  0  0  0  0  0  0  0  0  0
    7.0761    0.5800   -0.5636 N   0  0  0  0  0  0  0  0  0  0  0  0
    7.2179    1.1494   -1.3965 H   0  0  0  0  0  0  0  0  0  0  0  0
    1.1439   -0.0812    0.3487 O   0  0  0  0  0  0  0  0  0  0  0  0
    0.7172    0.9476    1.2991 O   0  0  0  0  0  1  0  0  0  0  0  0
   -1.4688    1.9490   -2.3218 C   0  0  0  0  0  0  0  0  0  0  0  0
   -2.8683    2.1387   -2.2482 C   0  0  0  0  0  0  0  0  0  0  0  0
   -3.4277    1.9190   -1.3277 H   0  0  0  0  0  0  0  0  0  0  0  0
   -3.5009    2.6284   -3.3884 C   0  0  0  0  0  0  0  0  0  0  0  0
   -4.5894    2.7899   -3.3705 H   0  0  0  0  0  0  0  0  0  0  0  0
   -2.7793    2.9338   -4.5833 C   0  0  0  0  0  0  0  0  0  0  0  0
   -3.3346    3.3189   -5.4521 H   0  0  0  0  0  0  0  0  0  0  0  0
   -1.4019    2.7620   -4.6688 C   0  0  0  0  0  0  0  0  0  0  0  0
   -0.8394    3.0003   -5.5830 H   0  0  0  0  0  0  0  0  0  0  0  0
   -0.7287    2.2674   -3.5218 C   0  0  0  0  0  0  0  0  0  0  0  0
    0.6427    1.5556   -2.0372 C   0  0  0  0  0  3  0  0  0  0  0  0
    1.9462    1.2105   -1.5121 C   0  0  2  0  0  3  0  0  0  0  0  0
    3.4148    0.1580    0.0971 C   0  0  0  0  0  0  0  0  0  0  0  0
    3.4372   -0.4238    1.0278 H   0  0  0  0  0  0  0  0  0  0  0  0
    4.3822    1.3099   -1.7749 C   0  0  0  0  0  0  0  0  0  0  0  0
    5.2456    1.6523   -2.3643 H   0  0  0  0  0  0  0  0  0  0  0  0
    4.5672    0.5678   -0.5738 C   0  0  0  0  0  0  0  0  0  0  0  0
    3.1085    1.6169   -2.2219 C   0  0  0  0  0  0  0  0  0  0  0  0
    2.9177    2.1785   -3.1463 H   0  0  0  0  0  0  0  0  0  0  0  0
    5.8612    0.2016   -0.0087 C   0  0  0  0  0  0  0  0  0  0  0  0
    8.0744    0.0579    0.2385 C   0  0  0  0  0  0  0  0  0  0  0  0
    9.4755    0.1128    0.1779 C   0  0  0  0  0  0  0  0  0  0  0  0
   10.0056    0.6500   -0.6221 H   0  0  0  0  0  0  0  0  0  0  0  0
   10.1723   -0.5544    1.1932 C   0  0  0  0  0  0  0  0  0  0  0  0
   11.2724   -0.5386    1.1870 H   0  0  0  0  0  0  0  0  0  0  0  0
    9.4971   -1.2496    2.2292 C   0  0  0  0  0  0  0  0  0  0  0  0
   10.0909   -1.7575    3.0037 H   0  0  0  0  0  0  0  0  0  0  0  0
    8.1020   -1.3021    2.2866 C   0  0  0  0  0  0  0  0  0  0  0  0
    7.5712   -1.8379    3.0861 H   0  0  0  0  0  0  0  0  0  0  0  0
    7.3738   -0.6385    1.2767 C   0  0  0  0  0  0  0  0  0  0  0  0
  2 19  1  0  0  0  0
  3 21  1  0  0  0  0
  3  7  1  0  0  0  0
  4 38  1  0  0  0  0
  5 28  1  0  0  0  0
  5 29  1  0  0  0  0
  6  5  1  0  0  0  0
  7  8  1  0  0  0  0
  9 10  1  0  0  0  0
  9  1  2  0  0  0  0
 10 11  1  0  0  0  0
 12 13  1  0  0  0  0
 12 10  2  0  0  0  0
 14 12  1  0  0  0  0
 15 14  1  0  0  0  0
 16 14  2  0  0  0  0
 16 18  1  0  0  0  0
 17 16  1  0  0  0  0
 18  2  2  0  0  0  0
 18  9  1  0  0  0  0
 19  1  1  0  0  0  0
 20 19  1  6  0  0  0
 20  3  1  0  0  0  0
 21 22  1  0  0  0  0
 23 25  1  0  0  0  0
 24 23  1  0  0  0  0
 25 28  1  0  0  0  0
 25 21  2  0  0  0  0
 26 23  2  0  0  0  0
 26 20  1  0  0  0  0
 27 26  1  0  0  0  0
 28  4  2  0  0  0  0
 29 38  1  0  0  0  0
 30 29  2  0  0  0  0
 30 32  1  0  0  0  0
 31 30  1  0  0  0  0
 32 34  2  0  0  0  0
 33 32  1  0  0  0  0
 34 36  1  0  0  0  0
 34 35  1  0  0  0  0
 36 37  1  0  0  0  0
 38 36  2  0  0  0  0
M  END
