1,2
q = -1.0

 24 23  0  0  1  0  0  0  0  0999 V2000
    1.3799    1.0010    1.4594 O   0  5  0  0  0  0  0  0  0  0  0  0
    1.2276   -1.1583   -0.5873 N   0  0  0  0  0  2  0  0  0  0  0  0
    3.5556    1.6707    2.0896 C   0  0  0  0  0  0  0  0  0  0  0  0
    3.3719    2.7332    1.8256 H   0  0  0  0  0  0  0  0  0  0  0  0
    4.6276    1.4427    1.9435 H   0  0  0  0  0  0  0  0  0  0  0  0
    3.3004    1.5663    3.1640 H   0  0  0  0  0  0  0  0  0  0  0  0
    2.6388    0.7866    1.2698 C   0  0  0  0  0  0  0  0  0  0  0  0
    3.2092   -0.1605    0.3976 C   0  0  0  0  0  0  0  0  0  0  0  0
    4.3066   -0.2004    0.3853 H   0  0  0  0  0  0  0  0  0  0  0  0
    2.5483   -1.0905   -0.4640 C   0  0  2  0  0  3  0  0  0  0  0  0
    3.4400   -2.0217   -1.2651 C   0  0  0  0  0  0  0  0  0  0  0  0
    3.2047   -3.0851   -1.0559 H   0  0  0  0  0  0  0  0  0  0  0  0
    4.5049   -1.8512   -1.0277 H   0  0  0  0  0  0  0  0  0  0  0  0
    3.3025   -1.8696   -2.3558 H   0  0  0  0  0  0  0  0  0  0  0  0
    0.5714   -2.1583   -1.4177 C   0  0  0  0  0  0  0  0  0  0  0  0
    1.2084   -2.4881   -2.2680 H   0  0  0  0  0  0  0  0  0  0  0  0
   -0.3275   -1.6825   -1.8708 H   0  0  0  0  0  0  0  0  0  0  0  0
    0.1149   -3.3795   -0.6028 C   0  0  0  0  0  0  0  0  0  0  0  0
    1.0106   -3.8864   -0.1814 H   0  0  0  0  0  0  0  0  0  0  0  0
   -0.4671   -3.0096    0.2684 H   0  0  0  0  0  0  0  0  0  0  0  0
   -0.7163   -4.3622   -1.4254 C   0  0  0  0  0  0  0  0  0  0  0  0
   -1.0317   -5.2342   -0.8184 H   0  0  0  0  0  0  0  0  0  0  0  0
   -0.1502   -4.7508   -2.2983 H   0  0  0  0  0  0  0  0  0  0  0  0
   -1.6362   -3.8790   -1.8169 H   0  0  0  0  0  0  0  0  0  0  0  0
  3  6  1  0  0  0  0
  4  3  1  0  0  0  0
  5  3  1  0  0  0  0
  7  1  1  0  0  0  0
  7  3  1  0  0  0  0
  8  7  2  0  0  0  0
  9  8  1  0  0  0  0
 10  2  1  6  0  0  0
 10  8  1  0  0  0  0
 11 12  1  0  0  0  0
 11 13  1  0  0  0  0
 11 10  1  0  0  0  0
 14 11  1  0  0  0  0
 15 18  1  0  0  0  0
 15  2  1  0  0  0  0
 16 15  1  0  0  0  0
 17 15  1  0  0  0  0
 18 19  1  0  0  0  0
 18 20  1  0  0  0  0
 21 22  1  0  0  0  0
 21 18  1  0  0  0  0
 23 21  1  0  0  0  0
 24 21  1  0  0  0  0
M  CHG  1   1  -1
M  END
