1,3
q = -1.0

 28 27  0  0  1  0  0  0  0  0999 V2000
   -1.4087   -0.5881    1.5866 O   0  5  0  0  0  0  0  0  0  0  0  0
    2.4577   -2.3900   -1.4965 O   0  0  0  0  0  0  0  0  0  0  0  0
   -0.1341   -0.9845   -1.0869 N   0  0  0  0  0  2  0  0  0  0  0  0
   -2.6041   -2.4432    2.4322 C   0  0  0  0  0  0  0  0  0  0  0  0
   -3.5543   -1.8857    2.5680 H   0  0  0  0  0  0  0  0  0  0  0  0
   -2.0515   -2.3636    3.3902 H   0  0  0  0  0  0  0  0  0  0  0  0
   -2.8381   -3.5046    2.2296 H   0  0  0  0  0  0  0  0  0  0  0  0
   -1.7858   -1.7928    1.3340 C   0  0  0  0  0  0  0  0  0  0  0  0
   -1.5262   -2.5315    0.1606 C   0  0  0  0  0  0  0  0  0  0  0  0
   -1.9583   -3.5406    0.1280 H   0  0  0  0  0  0  0  0  0  0  0  0
   -0.7279   -2.1701   -0.9674 C   0  0  2  0  0  3  0  0  0  0  0  0
   -0.5751   -3.2205   -2.0501 C   0  0  0  0  0  0  0  0  0  0  0  0
    0.4931   -3.4922   -2.1602 H   0  0  0  0  0  0  0  0  0  0  0  0
   -0.9223   -2.8352   -3.0317 H   0  0  0  0  0  0  0  0  0  0  0  0
   -1.1604   -4.1257   -1.8096 H   0  0  0  0  0  0  0  0  0  0  0  0
    0.8321   -0.7207   -2.1411 C   0  0  0  0  0  0  0  0  0  0  0  0
    0.7792    0.3580   -2.4078 H   0  0  0  0  0  0  0  0  0  0  0  0
    0.6334   -1.2957   -3.0707 H   0  0  0  0  0  0  0  0  0  0  0  0
    2.2633   -0.9986   -1.6708 C   0  0  0  0  0  0  0  0  0  0  0  0
    2.9835   -0.5963   -2.4260 H   0  0  0  0  0  0  0  0  0  0  0  0
    2.4253   -0.4447   -0.7193 H   0  0  0  0  0  0  0  0  0  0  0  0
    3.2339   -2.7676   -0.3632 C   0  0  0  0  0  0  0  0  0  0  0  0
    4.1274   -2.1027   -0.2696 H   0  0  0  0  0  0  0  0  0  0  0  0
    3.6182   -3.7838   -0.5948 H   0  0  0  0  0  0  0  0  0  0  0  0
    2.4368   -2.7822    0.9372 C   0  0  0  0  0  0  0  0  0  0  0  0
    1.5577   -3.4521    0.8478 H   0  0  0  0  0  0  0  0  0  0  0  0
    2.0711   -1.7723    1.2137 H   0  0  0  0  0  0  0  0  0  0  0  0
    3.0717   -3.1528    1.7690 H   0  0  0  0  0  0  0  0  0  0  0  0
  2 22  1  0  0  0  0
  4  5  1  0  0  0  0
  4  6  1  0  0  0  0
  7  4  1  0  0  0  0
  8  1  1  0  0  0  0
  8  4  1  0  0  0  0
  9  8  2  0  0  0  0
 10  9  1  0  0  0  0
 11  3  1  1  0  0  0
 11  9  1  0  0  0  0
 12 15  1  0  0  0  0
 12 11  1  0  0  0  0
 13 12  1  0  0  0  0
 14 12  1  0  0  0  0
 16 19  1  0  0  0  0
 16  3  1  0  0  0  0
 17 16  1  0  0  0  0
 18 16  1  0  0  0  0
 19  2  1  0  0  0  0
 19 21  1  0  0  0  0
 20 19  1  0  0  0  0
 22 23  1  0  0  0  0
 22 25  1  0  0  0  0
 24 22  1  0  0  0  0
 25 27  1  0  0  0  0
 25 28  1  0  0  0  0
 26 25  1  0  0  0  0
M  CHG  1   1  -1
M  END
