2,5
q = -1.0

 50 52  0  0  0  0  0  0  0  0999 V2000
   -2.9426   -1.6247    1.0067 S   0  0  0  0  0  0  0  0  0  0  0  0
    1.7678    0.0579   -0.5776 O   0  5  0  0  0  0  0  0  0  0  0  0
   -2.1154   -2.8151    0.6868 O   0  0  0  0  0  0  0  0  0  0  0  0
   -4.2355   -1.7699    1.7223 O   0  0  0  0  0  0  0  0  0  0  0  0
   -0.9388   -0.4283   -1.1620 N   0  0  0  0  0  2  0  0  0  0  0  0
    1.9237   -1.2365   -0.6119 C   0  0  0  0  0  0  0  0  0  0  0  0
    3.1951   -1.8399   -0.2476 C   0  0  0  0  0  0  0  0  0  0  0  0
    3.3137   -3.2301   -0.3147 C   0  0  0  0  0  0  0  0  0  0  0  0
    4.2682   -3.6941   -0.0307 H   0  0  0  0  0  0  0  0  0  0  0  0
    2.2655   -4.0850   -0.7327 C   0  0  0  0  0  0  0  0  0  0  0  0
    2.4204   -5.1731   -0.7621 H   0  0  0  0  0  0  0  0  0  0  0  0
    1.0505   -3.5289   -1.0857 C   0  0  0  0  0  3  0  0  0  0  0  0
    0.2035   -4.1630   -1.3911 H   0  0  0  0  0  0  0  0  0  0  0  0
    0.8515   -2.1200   -1.0183 C   0  0  0  0  0  0  0  0  0  0  0  0
    4.3905   -0.9624    0.1630 C   0  0  0  0  0  0  0  0  0  0  0  0
    3.9986   -0.0293    1.3338 C   0  0  0  0  0  0  0  0  0  0  0  0
    3.1099    0.5734    1.0750 H   0  0  0  0  0  0  0  0  0  0  0  0
    4.8408    0.6481    1.5880 H   0  0  0  0  0  0  0  0  0  0  0  0
    3.7618   -0.6271    2.2383 H   0  0  0  0  0  0  0  0  0  0  0  0
    5.6002   -1.7917    0.6320 C   0  0  0  0  0  0  0  0  0  0  0  0
    5.3557   -2.4214    1.5116 H   0  0  0  0  0  0  0  0  0  0  0  0
    6.4215   -1.1074    0.9272 H   0  0  0  0  0  0  0  0  0  0  0  0
    5.9934   -2.4505   -0.1682 H   0  0  0  0  0  0  0  0  0  0  0  0
    4.8302   -0.1507   -1.0783 C   0  0  0  0  0  0  0  0  0  0  0  0
    5.2378   -0.8318   -1.8524 H   0  0  0  0  0  0  0  0  0  0  0  0
    5.6227    0.5818   -0.8152 H   0  0  0  0  0  0  0  0  0  0  0  0
    3.9750    0.3912   -1.5179 H   0  0  0  0  0  0  0  0  0  0  0  0
   -0.4591   -1.6500   -1.3254 C   0  0  0  0  0  0  0  0  0  0  0  0
   -1.1626   -2.4178   -1.6954 H   0  0  0  0  0  0  0  0  0  0  0  0
   -2.3266   -0.2892   -1.4416 C   0  0  0  0  0  0  0  0  0  0  0  0
   -2.7389    0.3526   -2.6248 C   0  0  0  0  0  0  0  0  0  0  0  0
   -1.9589    0.7169   -3.3094 H   0  0  0  0  0  0  0  0  0  0  0  0
   -4.0980    0.5226   -2.9144 C   0  0  0  0  0  0  0  0  0  0  0  0
   -4.3963    1.0164   -3.8516 H   0  0  0  0  0  0  0  0  0  0  0  0
   -5.0765    0.0707   -2.0129 C   0  0  0  0  0  0  0  0  0  0  0  0
   -6.1451    0.2086   -2.2348 H   0  0  0  0  0  0  0  0  0  0  0  0
   -4.6860   -0.5564   -0.8238 C   0  0  0  0  0  0  0  0  0  0  0  0
   -5.4196   -0.9174   -0.0880 H   0  0  0  0  0  0  0  0  0  0  0  0
   -3.3221   -0.7402   -0.5425 C   0  0  0  0  0  0  0  0  0  0  0  0
   -1.9312   -0.4720    1.9539 C   0  0  0  0  0  0  0  0  0  0  0  0
   -2.5805    0.5164    2.7098 C   0  0  0  0  0  0  0  0  0  0  0  0
   -3.6794    0.5508    2.7276 H   0  0  0  0  0  0  0  0  0  0  0  0
   -1.8024    1.4266    3.4378 C   0  0  0  0  0  0  0  0  0  0  0  0
   -2.2933    2.2045    4.0418 H   0  0  0  0  0  0  0  0  0  0  0  0
   -0.3992    1.3368    3.4055 C   0  0  0  0  0  0  0  0  0  0  0  0
    0.2067    2.0504    3.9844 H   0  0  0  0  0  0  0  0  0  0  0  0
    0.2330    0.3388    2.6475 C   0  0  0  0  0  0  0  0  0  0  0  0
    1.3296    0.2603    2.6274 H   0  0  0  0  0  0  0  0  0  0  0  0
   -0.5339   -0.5806    1.9129 C   0  0  0  0  0  0  0  0  0  0  0  0
   -0.0632   -1.3984    1.3493 H   0  0  0  0  0  0  0  0  0  0  0  0
  1  4  2  0  0  0  0
  1 40  1  0  0  0  0
  3  1  2  0  0  0  0
  6  2  1  0  0  0  0
  6  7  2  0  0  0  0
  7 15  1  0  0  0  0
  8  7  1  0  0  0  0
  8  9  1  0  0  0  0
 10  8  2  0  0  0  0
 11 10  1  0  0  0  0
 12 14  1  0  0  0  0
 12 10  1  0  0  0  0
 13 12  1  0  0  0  0
 14  6  1  0  0  0  0
 15 20  1  0  0  0  0
 15 16  1  0  0  0  0
 16 18  1  0  0  0  0
 16 19  1  0  0  0  0
 17 16  1  0  0  0  0
 20 22  1  0  0  0  0
 20 21  1  0  0  0  0
 23 20  1  0  0  0  0
 24 26  1  0  0  0  0
 24 15  1  0  0  0  0
 25 24  1  0  0  0  0
 27 24  1  0  0  0  0
 28  5  1  0  0  0  0
 28 14  2  0  0  0  0
 29 28  1  0  0  0  0
 30  5  1  0  0  0  0
 30 39  1  0  0  0  0
 31 30  2  0  0  0  0
 32 31  1  0  0  0  0
 33 31  1  0  0  0  0
 33 35  2  0  0  0  0
 34 33  1  0  0  0  0
 35 37  1  0  0  0  0
 36 35  1  0  0  0  0
 37 39  2  0  0  0  0
 37 38  1  0  0  0  0
 39  1  1  0  0  0  0
 40 41  1  0  0  0  0
 41 42  1  0  0  0  0
 41 43  2  0  0  0  0
 43 44  1  0  0  0  0
 45 43  1  0  0  0  0
 45 46  1  0  0  0  0
 47 45  2  0  0  0  0
 48 47  1  0  0  0  0
 49 40  2  0  0  0  0
 49 47  1  0  0  0  0
 50 49  1  0  0  0  0
M  CHG  1   2  -1
M  END
