1,2
q = -1.0

 28 29  0  0  1  0  0  0  0  0999 V2000
   -1.6324    0.8179    0.4817 N   0  0  0  0  0  2  0  0  0  0  0  0
   -1.4564   -1.2931    1.2000 O   0  0  0  0  0  1  0  0  0  0  0  0
   -2.1511   -0.2052    1.1471 C   0  0  1  0  0  3  0  0  0  0  0  0
   -3.4944   -0.1782    1.8610 C   0  0  0  0  0  0  0  0  0  0  0  0
   -3.3245   -0.6496    2.8518 H   0  0  0  0  0  0  0  0  0  0  0  0
   -3.8200    0.8665    2.0256 H   0  0  0  0  0  0  0  0  0  0  0  0
   -4.5664   -0.9471    1.1084 C   0  0  0  0  0  0  0  0  0  0  0  0
   -5.7533   -0.3087    0.6984 C   0  0  0  0  0  0  0  0  0  0  0  0
   -5.9034    0.7558    0.9383 H   0  0  0  0  0  0  0  0  0  0  0  0
   -6.7392   -1.0112   -0.0124 C   0  0  0  0  0  0  0  0  0  0  0  0
   -7.6608   -0.4951   -0.3224 H   0  0  0  0  0  0  0  0  0  0  0  0
   -6.5489   -2.3648   -0.3294 C   0  0  0  0  0  0  0  0  0  0  0  0
   -7.3182   -2.9159   -0.8913 H   0  0  0  0  0  0  0  0  0  0  0  0
   -5.3699   -3.0111    0.0768 C   0  0  0  0  0  0  0  0  0  0  0  0
   -5.2123   -4.0731   -0.1668 H   0  0  0  0  0  0  0  0  0  0  0  0
   -4.3880   -2.3108    0.7924 C   0  0  0  0  0  0  0  0  0  0  0  0
   -3.4583   -2.8106    1.1021 H   0  0  0  0  0  0  0  0  0  0  0  0
   -2.2534    2.0471    0.2352 C   0  0  0  0  0  0  0  0  0  0  0  0
   -3.4740    2.1473   -0.4736 C   0  0  0  0  0  0  0  0  0  0  0  0
   -3.9716    1.2267   -0.8118 H   0  0  0  0  0  0  0  0  0  0  0  0
   -4.0269    3.4040   -0.7603 C   0  0  0  0  0  0  0  0  0  0  0  0
   -4.9762    3.4633   -1.3151 H   0  0  0  0  0  0  0  0  0  0  0  0
   -3.3735    4.5797   -0.3564 C   0  0  0  0  0  0  0  0  0  0  0  0
   -3.8086    5.5636   -0.5870 H   0  0  0  0  0  0  0  0  0  0  0  0
   -2.1535    4.4880    0.3353 C   0  0  0  0  0  0  0  0  0  0  0  0
   -1.6287    5.4033    0.6499 H   0  0  0  0  0  0  0  0  0  0  0  0
   -1.5934    3.2370    0.6250 C   0  0  0  0  0  0  0  0  0  0  0  0
   -0.6290    3.1534    1.1486 H   0  0  0  0  0  0  0  0  0  0  0  0
  1  3  1  0  0  0  0
  3  2  1  1  0  0  0
  3  4  1  0  0  0  0
  4  6  1  0  0  0  0
  4  5  1  0  0  0  0
  7  4  1  0  0  0  0
  8  9  1  0  0  0  0
  8  7  2  0  0  0  0
 10  8  1  0  0  0  0
 11 10  1  0  0  0  0
 12 10  2  0  0  0  0
 12 14  1  0  0  0  0
 13 12  1  0  0  0  0
 14 16  2  0  0  0  0
 15 14  1  0  0  0  0
 16 17  1  0  0  0  0
 16  7  1  0  0  0  0
 18  1  1  0  0  0  0
 18 27  1  0  0  0  0
 19 18  2  0  0  0  0
 20 19  1  0  0  0  0
 21 19  1  0  0  0  0
 21 23  2  0  0  0  0
 22 21  1  0  0  0  0
 23 25  1  0  0  0  0
 24 23  1  0  0  0  0
 25 27  2  0  0  0  0
 25 26  1  0  0  0  0
 27 28  1  0  0  0  0
M  END
