2,3
q = -1.0

 29 29  0  0  0  0  0  0  0  0999 V2000
    6.7243   -1.7593   -1.5518 Cl  0  0  0  0  0  0  0  0  0  0  0  0
    1.4146   -0.0320    1.6085 N   0  0  0  0  0  2  0  0  0  0  0  0
    1.5814    1.1171   -1.0475 O   0  5  0  0  0  0  0  0  0  0  0  0
   -1.0584    0.8316    2.2525 O   0  0  0  0  0  0  0  0  0  0  0  0
    0.6703   -2.6680    1.8065 O   0  0  0  0  0  0  0  0  0  0  0  0
    0.3907   -2.3291    0.9123 H   0  0  0  0  0  0  0  0  0  0  0  0
    3.2175   -0.3665   -0.0484 C   0  0  0  0  0  0  0  0  0  0  0  0
    2.7140    0.4621   -1.1180 C   0  0  0  0  0  0  0  0  0  0  0  0
    3.5148    0.5691   -2.2941 C   0  0  0  0  0  0  0  0  0  0  0  0
    3.1290    1.2028   -3.1060 H   0  0  0  0  0  0  0  0  0  0  0  0
    4.7268   -0.1000   -2.4278 C   0  0  0  0  0  0  0  0  0  0  0  0
    5.3227   -0.0051   -3.3474 H   0  0  0  0  0  0  0  0  0  0  0  0
    5.2013   -0.9168   -1.3762 C   0  0  0  0  0  0  0  0  0  0  0  0
    4.4578   -1.0438   -0.2085 C   0  0  0  0  0  0  0  0  0  0  0  0
    4.8329   -1.6783    0.6087 H   0  0  0  0  0  0  0  0  0  0  0  0
    2.5477   -0.5537    1.2196 C   0  0  0  0  0  3  0  0  0  0  0  0
    3.1000   -1.2087    1.9208 H   0  0  0  0  0  0  0  0  0  0  0  0
    0.8607   -0.4366    2.9035 C   0  0  0  0  0  0  0  0  0  0  0  0
   -0.1272    0.6621    3.3215 C   0  0  0  0  0  0  0  0  0  0  0  0
   -0.6525    0.3518    4.2533 H   0  0  0  0  0  0  0  0  0  0  0  0
    0.4281    1.6061    3.5218 H   0  0  0  0  0  0  0  0  0  0  0  0
    0.0557   -1.7908    2.7028 C   0  0  0  0  0  0  0  0  0  0  0  0
   -0.0075   -2.2830    3.6977 H   0  0  0  0  0  0  0  0  0  0  0  0
   -0.9774   -1.5334    2.3835 H   0  0  0  0  0  0  0  0  0  0  0  0
    1.9151   -0.6173    4.0021 C   0  0  0  0  0  0  0  0  0  0  0  0
    2.4988   -1.5455    3.8496 H   0  0  0  0  0  0  0  0  0  0  0  0
    1.4190   -0.7089    4.9889 H   0  0  0  0  0  0  0  0  0  0  0  0
    2.6156    0.2415    4.0402 H   0  0  0  0  0  0  0  0  0  0  0  0
   -1.6046    1.6254    2.3994 H   0  0  0  0  0  0  0  0  0  0  0  0
  1 13  1  0  0  0  0
  2 18  1  0  0  0  0
  4 29  1  0  0  0  0
  4 19  1  0  0  0  0
  5 22  1  0  0  0  0
  6  5  1  0  0  0  0
  7 16  1  0  0  0  0
  8  3  1  0  0  0  0
  8  7  2  0  0  0  0
  9  8  1  0  0  0  0
 10  9  1  0  0  0  0
 11  9  2  0  0  0  0
 11 13  1  0  0  0  0
 12 11  1  0  0  0  0
 13 14  2  0  0  0  0
 14  7  1  0  0  0  0
 14 15  1  0  0  0  0
 16  2  1  0  0  0  0
 16 17  1  0  0  0  0
 18 19  1  0  0  0  0
 18 25  1  0  0  0  0
 19 21  1  0  0  0  0
 19 20  1  0  0  0  0
 22 18  1  0  0  0  0
 22 23  1  0  0  0  0
 24 22  1  0  0  0  0
 25 28  1  0  0  0  0
 25 27  1  0  0  0  0
 26 25  1  0  0  0  0
M  CHG  1   3  -1
M  END
