2,7
q = 0.0, confidence = 0.992

 31 33  0  0  1  0  0  0  0  0999 V2000
   -2.1120    4.1892    0.0208 S   0  0  0  0  0  0  0  0  0  0  0  0
   -2.0608    1.2169    0.1379 O   0  0  0  0  0  1  0  0  0  0  0  0
    2.7893    1.3110    0.1657 O   0  0  0  0  0  0  0  0  0  0  0  0
    4.4857   -2.4378   -0.0077 O   0  0  0  0  0  0  0  0  0  0  0  0
    0.2027    0.9280    0.1710 N   0  0  0  0  0  0  0  0  0  0  0  0
    1.2060    1.2772    0.1644 H   0  0  0  0  0  0  0  0  0  0  0  0
    0.0121   -0.4104    0.1912 N   0  0  0  0  0  2  0  0  0  0  0  0
   -0.9077    1.7235    0.1241 C   0  0  2  0  0  3  0  0  0  0  0  0
    1.0167   -1.2528    0.1698 C   0  0  0  0  0  0  0  0  0  0  0  0
    0.6760   -2.2992    0.1754 H   0  0  0  0  0  0  0  0  0  0  0  0
    2.4696   -1.0888    0.1158 C   0  0  0  0  0  0  0  0  0  0  0  0
    3.2657    0.1563    0.1135 C   0  0  0  0  0  0  0  0  0  0  0  0
    4.7242   -0.0340    0.0468 C   0  0  0  0  0  0  0  0  0  0  0  0
    5.2877   -1.3269   -0.0132 C   0  0  0  0  0  0  0  0  0  0  0  0
    3.1608   -2.2914    0.0550 C   0  0  0  0  0  3  0  0  0  0  0  0
    2.6487   -3.2655    0.0493 H   0  0  0  0  0  0  0  0  0  0  0  0
    6.6748   -1.5346   -0.0803 C   0  0  0  0  0  0  0  0  0  0  0  0
    7.0622   -2.5619   -0.1261 H   0  0  0  0  0  0  0  0  0  0  0  0
    7.5149   -0.4199   -0.0871 C   0  0  0  0  0  0  0  0  0  0  0  0
    8.6041   -0.5646   -0.1398 H   0  0  0  0  0  0  0  0  0  0  0  0
    6.9791    0.8872   -0.0276 C   0  0  0  0  0  0  0  0  0  0  0  0
    7.6547    1.7549   -0.0344 H   0  0  0  0  0  0  0  0  0  0  0  0
    5.6007    1.0773    0.0383 C   0  0  0  0  0  0  0  0  0  0  0  0
    5.1512    2.0793    0.0844 H   0  0  0  0  0  0  0  0  0  0  0  0
   -0.7030    3.1645    0.0821 C   0  0  0  0  0  0  0  0  0  0  0  0
   -1.1271    5.6014   -0.0112 C   0  0  0  0  0  0  0  0  0  0  0  0
   -1.6002    6.5904   -0.0549 H   0  0  0  0  0  0  0  0  0  0  0  0
    0.2289    5.3072    0.0204 C   0  0  0  0  0  0  0  0  0  0  0  0
    1.0152    6.0737    0.0041 H   0  0  0  0  0  0  0  0  0  0  0  0
    0.4767    3.9105    0.0736 C   0  0  0  0  0  0  0  0  0  0  0  0
    1.4800    3.4631    0.1016 H   0  0  0  0  0  0  0  0  0  0  0  0
  1 25  1  0  0  0  0
  4 15  1  0  0  0  0
  5  7  1  0  0  0  0
  6  5  1  0  0  0  0
  8  2  1  1  0  0  0
  8  5  1  0  0  0  0
  9 10  1  0  0  0  0
  9  7  1  0  0  0  0
 11  9  2  0  0  0  0
 12 11  1  0  0  0  0
 12  3  2  0  0  0  0
 13 12  1  0  0  0  0
 14  4  1  0  0  0  0
 14 13  2  0  0  0  0
 15 11  1  0  0  0  0
 16 15  1  0  0  0  0
 17 14  1  0  0  0  0
 18 17  1  0  0  0  0
 19 17  2  0  0  0  0
 19 21  1  0  0  0  0
 20 19  1  0  0  0  0
 21 23  2  0  0  0  0
 22 21  1  0  0  0  0
 23 13  1  0  0  0  0
 23 24  1  0  0  0  0
 25  8  1  0  0  0  0
 26 28  2  0  0  0  0
 26  1  1  0  0  0  0
 27 26  1  0  0  0  0
 28 30  1  0  0  0  0
 29 28  1  0  0  0  0
 30 25  2  0  0  0  0
 30 31  1  0  0  0  0
M  END
