1,3
q = -1.0

 24 25  0  0  0  0  0  0  0  0999 V2000
   -1.3255   -2.5185    0.2028 O   0  5  0  0  0  0  0  0  0  0  0  0
   -2.7243    0.1123    0.3947 N   0  0  0  0  0  0  0  0  0  0  0  0
   -1.4559    0.3203    0.4282 N   0  0  0  0  0  2  0  0  0  0  0  0
   -2.4714    2.6415   -0.7612 F   0  0  0  0  0  0  0  0  0  0  0  0
    0.1737    0.7396    2.6811 F   0  0  0  0  0  0  0  0  0  0  0  0
   -2.6048   -2.3689    0.0522 C   0  0  0  0  0  0  0  0  0  0  0  0
   -3.4093   -3.5377   -0.1279 C   0  0  0  0  0  0  0  0  0  0  0  0
   -2.8825   -4.5024   -0.1459 H   0  0  0  0  0  0  0  0  0  0  0  0
   -4.7831   -3.4511   -0.2976 C   0  0  0  0  0  0  0  0  0  0  0  0
   -5.3639   -4.3736   -0.4543 H   0  0  0  0  0  0  0  0  0  0  0  0
   -5.4537   -2.1972   -0.2694 C   0  0  0  0  0  0  0  0  0  0  0  0
   -6.5439   -2.1478   -0.4007 H   0  0  0  0  0  0  0  0  0  0  0  0
   -4.7169   -1.0467   -0.0561 C   0  0  0  0  0  3  0  0  0  0  0  0
   -5.1874   -0.0547    0.0039 H   0  0  0  0  0  0  0  0  0  0  0  0
   -3.2941   -1.0874    0.0968 C   0  0  0  0  0  0  0  0  0  0  0  0
   -1.1619    1.6295    0.9329 C   0  0  0  0  0  0  0  0  0  0  0  0
   -1.7228    2.7830    0.3401 C   0  0  0  0  0  0  0  0  0  0  0  0
   -1.4846    4.0608    0.8489 C   0  0  0  0  0  0  0  0  0  0  0  0
   -1.9317    4.9238    0.3372 H   0  0  0  0  0  0  0  0  0  0  0  0
   -0.6691    4.2043    1.9820 C   0  0  0  0  0  0  0  0  0  0  0  0
   -0.4747    5.2072    2.3889 H   0  0  0  0  0  0  0  0  0  0  0  0
   -0.0972    3.0837    2.5979 C   0  0  0  0  0  0  0  0  0  0  0  0
    0.5437    3.1665    3.4860 H   0  0  0  0  0  0  0  0  0  0  0  0
   -0.3526    1.8123    2.0731 C   0  0  0  0  0  0  0  0  0  0  0  0
  2  3  1  0  0  0  0
  3 16  1  0  0  0  0
  4 17  1  0  0  0  0
  6 15  1  0  0  0  0
  6  1  1  0  0  0  0
  7  6  2  0  0  0  0
  8  7  1  0  0  0  0
  9 11  2  0  0  0  0
  9  7  1  0  0  0  0
 10  9  1  0  0  0  0
 11 13  1  0  0  0  0
 12 11  1  0  0  0  0
 13 14  1  0  0  0  0
 13 15  1  0  0  0  0
 15  2  2  0  0  0  0
 16 24  1  0  0  0  0
 17 18  1  0  0  0  0
 17 16  2  0  0  0  0
 18 20  2  0  0  0  0
 19 18  1  0  0  0  0
 20 21  1  0  0  0  0
 20 22  1  0  0  0  0
 22 23  1  0  0  0  0
 24 22  2  0  0  0  0
 24  5  1  0  0  0  0
M  CHG  1   1  -1
M  END
