1,4
q = -1.0

 36 37  0  0  1  0  0  0  0  0999 V2000
    0.8342    1.1873   -1.1563 O   0  0  0  0  0  1  0  0  0  0  0  0
    2.2234    2.8134    0.3570 O   0  0  0  0  0  0  0  0  0  0  0  0
    1.4707    2.3694   -0.1269 H   0  0  0  0  0  0  0  0  0  0  0  0
    1.2479   -1.2554   -0.5857 N   0  0  0  0  0  2  0  0  0  0  0  0
    4.1085   -0.2984    0.7709 N   0  0  0  0  0  0  0  0  0  0  0  0
    1.3027   -2.5438   -0.1744 C   0  0  0  0  0  3  0  0  0  0  0  0
    0.5776   -2.8124    0.6085 H   0  0  0  0  0  0  0  0  0  0  0  0
    2.2293   -3.4411   -0.7043 C   0  0  0  0  0  0  0  0  0  0  0  0
    2.2389   -4.4819   -0.3518 H   0  0  0  0  0  0  0  0  0  0  0  0
    3.1362   -2.9853   -1.6752 C   0  0  0  0  0  0  0  0  0  0  0  0
    3.8781   -3.6692   -2.1138 H   0  0  0  0  0  0  0  0  0  0  0  0
    3.0951   -1.6424   -2.0645 C   0  0  0  0  0  0  0  0  0  0  0  0
    3.8086   -1.2446   -2.7996 H   0  0  0  0  0  0  0  0  0  0  0  0
    2.1400   -0.7851   -1.4995 C   0  0  0  0  0  0  0  0  0  0  0  0
    1.7639    0.8551   -3.3431 C   0  0  0  0  0  0  0  0  0  0  0  0
    1.5177    1.9152   -3.5482 H   0  0  0  0  0  0  0  0  0  0  0  0
    2.6646    0.5818   -3.9296 H   0  0  0  0  0  0  0  0  0  0  0  0
    0.9157    0.2252   -3.6759 H   0  0  0  0  0  0  0  0  0  0  0  0
    1.9831    0.6926   -1.8245 C   0  0  1  0  0  0  0  0  0  0  0  0
    3.2553    1.4937   -1.3958 C   0  0  0  0  0  0  0  0  0  0  0  0
    3.2806    2.4328   -1.9866 H   0  0  0  0  0  0  0  0  0  0  0  0
    4.1667    0.9134   -1.6419 H   0  0  0  0  0  0  0  0  0  0  0  0
    3.2954    1.9224    0.0949 C   0  0  1  0  0  0  0  0  0  0  0  0
    4.6028    2.6717    0.3847 C   0  0  0  0  0  0  0  0  0  0  0  0
    4.5750    3.0670    1.4192 H   0  0  0  0  0  0  0  0  0  0  0  0
    5.4712    1.9932    0.2825 H   0  0  0  0  0  0  0  0  0  0  0  0
    4.7104    3.5273   -0.3114 H   0  0  0  0  0  0  0  0  0  0  0  0
    4.0734   -1.3866    1.5545 C   0  0  0  0  0  0  0  0  0  0  0  0
    4.7975   -2.1863    1.3139 H   0  0  0  0  0  0  0  0  0  0  0  0
    3.1765   -1.5440    2.6241 C   0  0  0  0  0  0  0  0  0  0  0  0
    3.1873   -2.4619    3.2305 H   0  0  0  0  0  0  0  0  0  0  0  0
    2.2733   -0.5050    2.8860 C   0  0  0  0  0  0  0  0  0  0  0  0
    1.5464   -0.5883    3.7080 H   0  0  0  0  0  0  0  0  0  0  0  0
    2.2962    0.6331    2.0694 C   0  0  0  0  0  0  0  0  0  0  0  0
    1.6194    1.4843    2.2202 H   0  0  0  0  0  0  0  0  0  0  0  0
    3.2308    0.6938    1.0182 C   0  0  0  0  0  0  0  0  0  0  0  0
  3  2  1  0  0  0  0
  4  6  1  0  0  0  0
  5 36  2  0  0  0  0
  5 28  1  0  0  0  0
  6  7  1  0  0  0  0
  8  9  1  0  0  0  0
  8  6  1  0  0  0  0
 10  8  2  0  0  0  0
 11 10  1  0  0  0  0
 12 10  1  0  0  0  0
 12 14  2  0  0  0  0
 13 12  1  0  0  0  0
 14  4  1  0  0  0  0
 15 19  1  0  0  0  0
 16 15  1  0  0  0  0
 17 15  1  0  0  0  0
 18 15  1  0  0  0  0
 19 14  1  0  0  0  0
 19 20  1  0  0  0  0
 19  1  1  1  0  0  0
 20 23  1  0  0  0  0
 21 20  1  0  0  0  0
 22 20  1  0  0  0  0
 23  2  1  1  0  0  0
 23 24  1  0  0  0  0
 23 36  1  0  0  0  0
 24 25  1  0  0  0  0
 26 24  1  0  0  0  0
 27 24  1  0  0  0  0
 28 30  2  0  0  0  0
 29 28  1  0  0  0  0
 30 32  1  0  0  0  0
 30 31  1  0  0  0  0
 32 33  1  0  0  0  0
 34 35  1  0  0  0  0
 34 32  2  0  0  0  0
 36 34  1  0  0  0  0
M  END
