1,4
q = -1.0

 36 37  0  0  1  0  0  0  0  0999 V2000
   -0.8343   -1.1878    1.1560 O   0  0  0  0  0  1  0  0  0  0  0  0
   -2.2239   -2.8133   -0.3575 O   0  0  0  0  0  0  0  0  0  0  0  0
   -1.4711   -2.3695    0.1263 H   0  0  0  0  0  0  0  0  0  0  0  0
   -1.2479    1.2551    0.5857 N   0  0  0  0  0  2  0  0  0  0  0  0
   -4.1085    0.2989   -0.7708 N   0  0  0  0  0  0  0  0  0  0  0  0
   -1.3026    2.5434    0.1745 C   0  0  0  0  0  3  0  0  0  0  0  0
   -0.5778    2.8119   -0.6086 H   0  0  0  0  0  0  0  0  0  0  0  0
   -2.2289    3.4409    0.7048 C   0  0  0  0  0  0  0  0  0  0  0  0
   -2.2384    4.4817    0.3523 H   0  0  0  0  0  0  0  0  0  0  0  0
   -3.1354    2.9851    1.6760 C   0  0  0  0  0  0  0  0  0  0  0  0
   -3.8771    3.6691    2.1150 H   0  0  0  0  0  0  0  0  0  0  0  0
   -3.0945    1.6422    2.0652 C   0  0  0  0  0  0  0  0  0  0  0  0
   -3.8076    1.2445    2.8006 H   0  0  0  0  0  0  0  0  0  0  0  0
   -2.1397    0.7848    1.4998 C   0  0  0  0  0  0  0  0  0  0  0  0
   -1.7640   -0.8561    3.3430 C   0  0  0  0  0  0  0  0  0  0  0  0
   -1.5180   -1.9162    3.5478 H   0  0  0  0  0  0  0  0  0  0  0  0
   -2.6647   -0.5828    3.9296 H   0  0  0  0  0  0  0  0  0  0  0  0
   -0.9157   -0.2264    3.6761 H   0  0  0  0  0  0  0  0  0  0  0  0
   -1.9831   -0.6930    1.8244 C   0  0  2  0  0  0  0  0  0  0  0  0
   -3.2556   -1.4936    1.3955 C   0  0  0  0  0  0  0  0  0  0  0  0
   -3.2812   -2.4328    1.9862 H   0  0  0  0  0  0  0  0  0  0  0  0
   -4.1668   -0.9131    1.6416 H   0  0  0  0  0  0  0  0  0  0  0  0
   -3.2957   -1.9221   -0.0953 C   0  0  2  0  0  0  0  0  0  0  0  0
   -4.6033   -2.6712   -0.3852 C   0  0  0  0  0  0  0  0  0  0  0  0
   -4.5755   -3.0661   -1.4198 H   0  0  0  0  0  0  0  0  0  0  0  0
   -5.4715   -1.9925   -0.2827 H   0  0  0  0  0  0  0  0  0  0  0  0
   -4.7110   -3.5269    0.3107 H   0  0  0  0  0  0  0  0  0  0  0  0
   -4.0734    1.3872   -1.5543 C   0  0  0  0  0  0  0  0  0  0  0  0
   -4.7973    2.1870   -1.3136 H   0  0  0  0  0  0  0  0  0  0  0  0
   -3.1764    1.5447   -2.6239 C   0  0  0  0  0  0  0  0  0  0  0  0
   -3.1872    2.4626   -3.2302 H   0  0  0  0  0  0  0  0  0  0  0  0
   -2.2733    0.5055   -2.8860 C   0  0  0  0  0  0  0  0  0  0  0  0
   -1.5464    0.5889   -3.7080 H   0  0  0  0  0  0  0  0  0  0  0  0
   -2.2964   -0.6326   -2.0695 C   0  0  0  0  0  0  0  0  0  0  0  0
   -1.6196   -1.4839   -2.2205 H   0  0  0  0  0  0  0  0  0  0  0  0
   -3.2309   -0.6933   -1.0183 C   0  0  0  0  0  0  0  0  0  0  0  0
  2  3  1  0  0  0  0
  4 14  1  0  0  0  0
  6  4  1  0  0  0  0
  6  8  1  0  0  0  0
  7  6  1  0  0  0  0
  8 10  2  0  0  0  0
  9  8  1  0  0  0  0
 10 12  1  0  0  0  0
 10 11  1  0  0  0  0
 12 13  1  0  0  0  0
 14 19  1  0  0  0  0
 14 12  2  0  0  0  0
 15 16  1  0  0  0  0
 15 18  1  0  0  0  0
 15 17  1  0  0  0  0
 19  1  1  6  0  0  0
 19 15  1  0  0  0  0
 20 22  1  0  0  0  0
 20 19  1  0  0  0  0
 20 21  1  0  0  0  0
 23  2  1  6  0  0  0
 23 20  1  0  0  0  0
 24 26  1  0  0  0  0
 24 23  1  0  0  0  0
 24 27  1  0  0  0  0
 25 24  1  0  0  0  0
 28 29  1  0  0  0  0
 28  5  2  0  0  0  0
 30 28  1  0  0  0  0
 31 30  1  0  0  0  0
 32 30  2  0  0  0  0
 32 34  1  0  0  0  0
 33 32  1  0  0  0  0
 34 36  2  0  0  0  0
 35 34  1  0  0  0  0
 36  5  1  0  0  0  0
 36 23  1  0  0  0  0
M  END
