1,5
q = -2.0, confidence = 0.598

 18 18  0  0  0  0  0  0  0  0999 V2000
    0.3575   -1.8917    0.0518 O   0  5  0  0  0  0  0  0  0  0  0  0
   -7.8561   -0.7456   -0.2608 O   0  0  0  0  0  0  0  0  0  0  0  0
   -7.5625    1.3696    0.2124 O   0  0  0  0  0  0  0  0  0  0  0  0
   -0.9907   -1.8073    0.1043 N   0  0  0  0  0  0  0  0  0  0  0  0
   -0.5712    0.4925    0.0314 N   0  0  0  0  0  2  0  0  0  0  0  0
   -0.9489    1.3692   -0.3348 H   0  0  0  0  0  0  0  0  0  0  0  0
   -7.1446    0.2310   -0.0143 N   0  0  0  0  0  0  0  0  0  0  0  0
   -1.4516   -0.5807    0.0417 C   0  0  0  0  0  0  0  0  0  0  0  0
   -2.9089   -0.3706    0.0435 C   0  0  0  0  0  0  0  0  0  0  0  0
   -3.4627    0.9036    0.3171 C   0  0  0  0  0  0  0  0  0  0  0  0
   -2.8014    1.7419    0.5819 H   0  0  0  0  0  0  0  0  0  0  0  0
   -4.8452    1.1063    0.2973 C   0  0  0  0  0  0  0  0  0  0  0  0
   -5.2975    2.0840    0.5093 H   0  0  0  0  0  0  0  0  0  0  0  0
   -5.6844    0.0215    0.0118 C   0  0  0  0  0  0  0  0  0  0  0  0
   -5.1676   -1.2600   -0.2461 C   0  0  0  0  0  0  0  0  0  0  0  0
   -5.8669   -2.0789   -0.4603 H   0  0  0  0  0  0  0  0  0  0  0  0
   -3.7869   -1.4496   -0.2315 C   0  0  0  0  0  0  0  0  0  0  0  0
   -3.3489   -2.4361   -0.4366 H   0  0  0  0  0  0  0  0  0  0  0  0
  1  4  1  0  0  0  0
  2  7  2  0  0  0  0
  5  8  1  0  0  0  0
  6  5  1  0  0  0  0
  7 14  1  0  0  0  0
  7  3  2  0  0  0  0
  8  9  1  0  0  0  0
  8  4  2  0  0  0  0
  9 10  1  0  0  0  0
 10 11  1  0  0  0  0
 12 10  2  0  0  0  0
 12 13  1  0  0  0  0
 14 12  1  0  0  0  0
 15 17  1  0  0  0  0
 15 14  2  0  0  0  0
 16 15  1  0  0  0  0
 17  9  2  0  0  0  0
 18 17  1  0  0  0  0
M  CHG  1   1  -1
M  END
