1,2
q = -1.0

 23 25  0  0  1  0  0  0  0  0999 V2000
   -1.6194    2.8592   -0.0645 O   0  5  0  0  0  0  0  0  0  0  0  0
   -2.1835    0.3210    0.5042 N   0  0  0  0  0  2  0  0  0  0  0  0
   -2.8805    2.4912   -0.1842 C   0  0  0  0  0  0  0  0  0  0  0  0
   -3.9220    3.3527   -0.5630 C   0  0  0  0  0  0  0  0  0  0  0  0
   -3.6791    4.3982   -0.8008 H   0  0  0  0  0  0  0  0  0  0  0  0
   -5.2596    2.8838   -0.6243 C   0  0  0  0  0  0  0  0  0  0  0  0
   -6.0461    3.5880   -0.9376 H   0  0  0  0  0  0  0  0  0  0  0  0
   -5.6095    1.5824   -0.2848 C   0  0  0  0  0  0  0  0  0  0  0  0
   -6.6555    1.2451   -0.3139 H   0  0  0  0  0  0  0  0  0  0  0  0
   -4.5944    0.6728    0.1397 C   0  0  0  0  0  0  0  0  0  0  0  0
   -3.2234    1.1248    0.1420 C   0  0  0  0  0  0  0  0  0  0  0  0
   -2.4248   -0.8927    1.0736 C   0  0  1  0  0  3  0  0  0  0  0  0
   -1.3723   -1.6392    1.6779 C   0  0  0  0  0  0  0  0  0  0  0  0
   -0.3645   -1.2038    1.6830 H   0  0  0  0  0  0  0  0  0  0  0  0
   -1.6320   -2.8680    2.2557 C   0  0  0  0  0  0  0  0  0  0  0  0
   -0.8110   -3.4262    2.7297 H   0  0  0  0  0  0  0  0  0  0  0  0
   -2.9456   -3.4230    2.2424 C   0  0  0  0  0  0  0  0  0  0  0  0
   -3.1245   -4.4100    2.6941 H   0  0  0  0  0  0  0  0  0  0  0  0
   -3.9907   -2.7163    1.6814 C   0  0  0  0  0  0  0  0  0  0  0  0
   -5.0141   -3.1219    1.6848 H   0  0  0  0  0  0  0  0  0  0  0  0
   -3.7754   -1.4236    1.1043 C   0  0  0  0  0  0  0  0  0  0  0  0
   -4.8250   -0.6410    0.5902 C   0  0  0  0  0  0  0  0  0  0  0  0
   -5.8494   -1.0470    0.5851 H   0  0  0  0  0  0  0  0  0  0  0  0
  3  1  1  0  0  0  0
  3 11  1  0  0  0  0
  4  3  2  0  0  0  0
  5  4  1  0  0  0  0
  6  4  1  0  0  0  0
  6  8  2  0  0  0  0
  7  6  1  0  0  0  0
  8 10  1  0  0  0  0
  9  8  1  0  0  0  0
 10 11  2  0  0  0  0
 10 22  1  0  0  0  0
 11  2  1  0  0  0  0
 12  2  1  1  0  0  0
 12 21  1  0  0  0  0
 12 13  1  0  0  0  0
 13 14  1  0  0  0  0
 13 15  2  0  0  0  0
 15 16  1  0  0  0  0
 17 15  1  0  0  0  0
 17 18  1  0  0  0  0
 19 20  1  0  0  0  0
 19 17  2  0  0  0  0
 21 19  1  0  0  0  0
 22 21  2  0  0  0  0
 23 22  1  0  0  0  0
M  CHG  1   1  -1
M  END
