1,2
q = 0.0, confidence = 0.908

 25 25  0  0  0  0  0  0  0  0999 V2000
    1.1632    0.5709   -0.9731 O   0  5  0  0  0  0  0  0  0  0  0  0
    1.9081   -0.1281    1.3109 N   0  0  0  0  0  2  0  0  0  0  0  0
    2.1909   -0.3706    2.2670 H   0  0  0  0  0  0  0  0  0  0  0  0
    2.7311   -0.5663    0.3095 C   0  0  0  0  0  0  0  0  0  0  0  0
    3.9112   -1.3340    0.4406 C   0  0  0  0  0  0  0  0  0  0  0  0
    4.2206   -1.6523    1.4467 H   0  0  0  0  0  0  0  0  0  0  0  0
    4.6605   -1.6830   -0.6931 C   0  0  0  0  0  0  0  0  0  0  0  0
    4.1959   -1.2324   -1.9632 C   0  0  0  0  0  0  0  0  0  0  0  0
    4.7704   -1.4970   -2.8647 H   0  0  0  0  0  0  0  0  0  0  0  0
    3.0385   -0.4674   -2.1195 C   0  0  0  0  0  0  0  0  0  0  0  0
    2.7011   -0.1350   -3.1124 H   0  0  0  0  0  0  0  0  0  0  0  0
    2.2647   -0.1202   -0.9814 C   0  0  0  0  0  0  0  0  0  0  0  0
    5.9471   -2.5237   -0.6122 C   0  0  0  0  0  0  0  0  0  0  0  0
    6.2974   -2.9094    0.8351 C   0  0  0  0  0  0  0  0  0  0  0  0
    5.4975   -3.5176    1.3036 H   0  0  0  0  0  0  0  0  0  0  0  0
    6.4674   -2.0156    1.4691 H   0  0  0  0  0  0  0  0  0  0  0  0
    7.2280   -3.5122    0.8510 H   0  0  0  0  0  0  0  0  0  0  0  0
    5.7609   -3.8240   -1.4277 C   0  0  0  0  0  0  0  0  0  0  0  0
    4.9214   -4.4249   -1.0235 H   0  0  0  0  0  0  0  0  0  0  0  0
    6.6811   -4.4442   -1.3905 H   0  0  0  0  0  0  0  0  0  0  0  0
    5.5395   -3.6123   -2.4925 H   0  0  0  0  0  0  0  0  0  0  0  0
    7.1281   -1.7154   -1.1965 C   0  0  0  0  0  0  0  0  0  0  0  0
    6.9509   -1.4347   -2.2537 H   0  0  0  0  0  0  0  0  0  0  0  0
    8.0656   -2.3090   -1.1577 H   0  0  0  0  0  0  0  0  0  0  0  0
    7.2872   -0.7799   -0.6226 H   0  0  0  0  0  0  0  0  0  0  0  0
  2  3  1  0  0  0  0
  4  5  1  0  0  0  0
  4  2  1  0  0  0  0
  5  6  1  0  0  0  0
  7 13  1  0  0  0  0
  7  5  2  0  0  0  0
  8  7  1  0  0  0  0
  9  8  1  0  0  0  0
 10  8  2  0  0  0  0
 10 12  1  0  0  0  0
 11 10  1  0  0  0  0
 12  1  1  0  0  0  0
 12  4  2  0  0  0  0
 13 14  1  0  0  0  0
 14 17  1  0  0  0  0
 14 15  1  0  0  0  0
 14 16  1  0  0  0  0
 18 20  1  0  0  0  0
 18 19  1  0  0  0  0
 18 13  1  0  0  0  0
 21 18  1  0  0  0  0
 22 24  1  0  0  0  0
 22 25  1  0  0  0  0
 22 13  1  0  0  0  0
 23 22  1  0  0  0  0
M  CHG  1   1  -1
M  END
