1,2
q = -1.0

 31 33  0  0  1  0  0  0  0  0999 V2000
    2.3144    0.7206   -1.6087 O   0  5  0  0  0  0  0  0  0  0  0  0
    0.1893    1.7219   -0.5951 N   0  0  0  0  0  2  0  0  0  0  0  0
   -8.3979   -1.7007   -0.1991 Cl  0  0  0  0  0  0  0  0  0  0  0  0
   -8.2552    0.7290    1.8647 Cl  0  0  0  0  0  0  0  0  0  0  0  0
    1.2785    2.5550   -0.6337 C   0  0  2  0  0  3  0  0  0  0  0  0
    2.4578    1.9723   -1.1883 C   0  0  0  0  0  0  0  0  0  0  0  0
    3.6351    2.7244   -1.2595 C   0  0  0  0  0  0  0  0  0  0  0  0
    4.5390    2.2711   -1.6889 H   0  0  0  0  0  0  0  0  0  0  0  0
    3.6329    4.0549   -0.7767 C   0  0  0  0  0  0  0  0  0  0  0  0
    4.5629    4.6407   -0.8338 H   0  0  0  0  0  0  0  0  0  0  0  0
    2.4871    4.6403   -0.2388 C   0  0  0  0  0  0  0  0  0  0  0  0
    2.5034    5.6776    0.1263 H   0  0  0  0  0  0  0  0  0  0  0  0
    1.2761    3.8999   -0.1629 C   0  0  0  0  0  0  0  0  0  0  0  0
    0.0342    4.3849    0.3427 C   0  0  0  0  0  0  0  0  0  0  0  0
   -0.0367    5.4153    0.7225 H   0  0  0  0  0  0  0  0  0  0  0  0
   -1.0759    3.5660    0.3084 C   0  0  0  0  0  0  0  0  0  0  0  0
   -2.0550    3.9466    0.6284 H   0  0  0  0  0  0  0  0  0  0  0  0
   -1.0096    2.2251   -0.1898 C   0  0  0  0  0  0  0  0  0  0  0  0
   -2.2028    1.4058   -0.3254 C   0  0  0  0  0  0  0  0  0  0  0  0
   -2.1379    0.6227   -1.0926 H   0  0  0  0  0  0  0  0  0  0  0  0
   -3.3611    1.5654    0.3757 C   0  0  0  0  0  0  0  0  0  0  0  0
   -3.4203    2.3426    1.1570 H   0  0  0  0  0  0  0  0  0  0  0  0
   -4.5646    0.7569    0.2109 C   0  0  0  0  0  0  0  0  0  0  0  0
   -5.7033    1.0573    0.9940 C   0  0  0  0  0  0  0  0  0  0  0  0
   -5.6756    1.8902    1.7115 H   0  0  0  0  0  0  0  0  0  0  0  0
   -6.8857    0.3151    0.8795 C   0  0  0  0  0  0  0  0  0  0  0  0
   -6.9521   -0.7607   -0.0337 C   0  0  0  0  0  0  0  0  0  0  0  0
   -5.8225   -1.0712   -0.8159 C   0  0  0  0  0  0  0  0  0  0  0  0
   -5.8856   -1.9133   -1.5193 H   0  0  0  0  0  0  0  0  0  0  0  0
   -4.6483   -0.3295   -0.6980 C   0  0  0  0  0  0  0  0  0  0  0  0
   -3.7821   -0.6030   -1.3173 H   0  0  0  0  0  0  0  0  0  0  0  0
  1  6  1  0  0  0  0
  2 18  1  0  0  0  0
  3 27  1  0  0  0  0
  5  6  1  1  0  0  0
  5  2  1  0  0  0  0
  5 13  1  0  0  0  0
  7  6  2  0  0  0  0
  7  9  1  0  0  0  0
  8  7  1  0  0  0  0
  9 11  2  0  0  0  0
 10  9  1  0  0  0  0
 11 13  1  0  0  0  0
 11 12  1  0  0  0  0
 13 14  2  0  0  0  0
 14 15  1  0  0  0  0
 16 14  1  0  0  0  0
 16 17  1  0  0  0  0
 18 16  2  0  0  0  0
 19 18  1  0  0  0  0
 19 21  2  0  0  0  0
 20 19  1  0  0  0  0
 21 22  1  0  0  0  0
 23 21  1  0  0  0  0
 23 24  1  0  0  0  0
 24 25  1  0  0  0  0
 26 24  2  0  0  0  0
 26  4  1  0  0  0  0
 27 26  1  0  0  0  0
 28 30  1  0  0  0  0
 28 27  2  0  0  0  0
 29 28  1  0  0  0  0
 30 23  2  0  0  0  0
 31 30  1  0  0  0  0
M  CHG  1   1  -1
M  END
