14,17
q = -1.0, confidence = 0.018

 17 17  0  0  0  0  0  0  0  0999 V2000
   -3.4563   -1.3850    1.0292 C   0  0  0  0  0  0  0  0  0  0  0  0
   -3.3638   -1.5896    2.1069 H   0  0  0  0  0  0  0  0  0  0  0  0
   -4.6437   -1.6917    0.3461 C   0  0  0  0  0  0  0  0  0  0  0  0
   -2.3465   -0.8131    0.3533 C   0  0  0  0  0  0  0  0  0  0  0  0
   -2.4761   -0.5625   -1.0302 C   0  0  0  0  0  0  0  0  0  0  0  0
   -3.6535   -0.8578   -1.7277 C   0  0  0  0  0  0  0  0  0  0  0  0
   -3.7278   -0.6465   -2.8072 H   0  0  0  0  0  0  0  0  0  0  0  0
   -4.7352   -1.4249   -1.0433 C   0  0  0  0  0  0  0  0  0  0  0  0
   -5.6616   -1.6642   -1.5860 H   0  0  0  0  0  0  0  0  0  0  0  0
   -5.8176   -2.2992    1.0731 C   0  0  0  0  0  0  0  0  0  0  0  0
   -6.7089   -1.6407    1.0112 H   0  0  0  0  0  0  0  0  0  0  0  0
   -5.5960   -2.4718    2.1433 H   0  0  0  0  0  0  0  0  0  0  0  0
   -6.1085   -3.2706    0.6225 H   0  0  0  0  0  0  0  0  0  0  0  0
   -1.2962    0.0588   -1.6311 N   0  0  0  0  0  0  0  0  0  0  0  0
   -1.5792    0.9715   -2.0254 H   0  0  0  0  0  0  0  0  0  0  0  0
   -0.9827   -0.5052   -2.4366 H   0  0  0  0  0  0  0  0  0  0  0  0
   -1.2035   -0.5287    0.9529 O   0  5  0  0  0  0  0  0  0  0  0  0
  1  2  1  0  0  0  0
  3  1  2  0  0  0  0
  3 10  1  0  0  0  0
  4 17  1  0  0  0  0
  4  1  1  0  0  0  0
  5  4  2  0  0  0  0
  6  8  2  0  0  0  0
  6  5  1  0  0  0  0
  7  6  1  0  0  0  0
  8  3  1  0  0  0  0
  9  8  1  0  0  0  0
 10 12  1  0  0  0  0
 11 10  1  0  0  0  0
 13 10  1  0  0  0  0
 14  5  1  0  0  0  0
 15 14  1  0  0  0  0
 16 14  1  0  0  0  0
M  CHG  1  17  -1
M  END
