1,2
q = -1.0

 43 44  0  0  1  0  0  0  0  0999 V2000
   -0.4230   -1.6043    1.1123 O   0  0  0  0  0  1  0  0  0  0  0  0
    0.3742    0.1674    0.0765 N   0  0  0  0  0  2  0  0  0  0  0  0
    0.6283   -0.9098    0.8113 C   0  0  2  0  0  3  0  0  0  0  0  0
    1.9548   -1.4020    1.2803 C   0  0  0  0  0  0  0  0  0  0  0  0
    3.0817   -0.5667    1.4467 C   0  0  0  0  0  0  0  0  0  0  0  0
    3.0119    0.5066    1.2312 H   0  0  0  0  0  0  0  0  0  0  0  0
    4.2985   -1.1081    1.8832 C   0  0  0  0  0  0  0  0  0  0  0  0
    5.1689   -0.4478    2.0131 H   0  0  0  0  0  0  0  0  0  0  0  0
    4.4114   -2.4831    2.1449 C   0  0  0  0  0  0  0  0  0  0  0  0
    5.3731   -2.9044    2.4753 H   0  0  0  0  0  0  0  0  0  0  0  0
    3.2928   -3.3183    1.9887 C   0  0  0  0  0  0  0  0  0  0  0  0
    3.3744   -4.3957    2.1976 H   0  0  0  0  0  0  0  0  0  0  0  0
    2.0701   -2.7795    1.5699 C   0  0  0  0  0  0  0  0  0  0  0  0
    1.1809   -3.4153    1.4535 H   0  0  0  0  0  0  0  0  0  0  0  0
    1.3449    1.0282   -0.4965 C   0  0  0  0  0  0  0  0  0  0  0  0
    1.4581    2.3600   -0.0055 C   0  0  0  0  0  0  0  0  0  0  0  0
    2.4595    3.1938   -0.5314 C   0  0  0  0  0  0  0  0  0  0  0  0
    2.5608    4.2197   -0.1469 H   0  0  0  0  0  0  0  0  0  0  0  0
    3.3279    2.7420   -1.5331 C   0  0  0  0  0  0  0  0  0  0  0  0
    4.1127    3.4050   -1.9279 H   0  0  0  0  0  0  0  0  0  0  0  0
    3.1747    1.4489   -2.0435 C   0  0  0  0  0  0  0  0  0  0  0  0
    3.8375    1.1044   -2.8526 H   0  0  0  0  0  0  0  0  0  0  0  0
    2.1843    0.5767   -1.5539 C   0  0  0  0  0  0  0  0  0  0  0  0
    2.0205   -0.7904   -2.2065 C   0  0  0  0  0  0  0  0  0  0  0  0
    1.1871   -1.3070   -1.6918 H   0  0  0  0  0  0  0  0  0  0  0  0
    3.2712   -1.6746   -2.0673 C   0  0  0  0  0  0  0  0  0  0  0  0
    4.1433   -1.2205   -2.5820 H   0  0  0  0  0  0  0  0  0  0  0  0
    3.0978   -2.6702   -2.5256 H   0  0  0  0  0  0  0  0  0  0  0  0
    3.5479   -1.8279   -1.0064 H   0  0  0  0  0  0  0  0  0  0  0  0
    1.6200   -0.6278   -3.6849 C   0  0  0  0  0  0  0  0  0  0  0  0
    0.7517    0.0532   -3.7915 H   0  0  0  0  0  0  0  0  0  0  0  0
    1.3616   -1.6078   -4.1370 H   0  0  0  0  0  0  0  0  0  0  0  0
    2.4498   -0.1946   -4.2804 H   0  0  0  0  0  0  0  0  0  0  0  0
    0.5443    2.8499    1.1066 C   0  0  0  0  0  0  0  0  0  0  0  0
   -0.3495    2.2027    1.0593 H   0  0  0  0  0  0  0  0  0  0  0  0
    1.1900    2.6516    2.4891 C   0  0  0  0  0  0  0  0  0  0  0  0
    1.4393    1.5870    2.6743 H   0  0  0  0  0  0  0  0  0  0  0  0
    0.5079    2.9870    3.2984 H   0  0  0  0  0  0  0  0  0  0  0  0
    2.1304    3.2350    2.5788 H   0  0  0  0  0  0  0  0  0  0  0  0
    0.0640    4.2915    0.9040 C   0  0  0  0  0  0  0  0  0  0  0  0
    0.8882    5.0299    0.9898 H   0  0  0  0  0  0  0  0  0  0  0  0
   -0.6875    4.5571    1.6763 H   0  0  0  0  0  0  0  0  0  0  0  0
   -0.4085    4.4082   -0.0911 H   0  0  0  0  0  0  0  0  0  0  0  0
  2  3  1  0  0  0  0
  3  1  1  6  0  0  0
  3  4  1  0  0  0  0
  4  5  2  0  0  0  0
  4 13  1  0  0  0  0
  5  7  1  0  0  0  0
  6  5  1  0  0  0  0
  7  8  1  0  0  0  0
  7  9  2  0  0  0  0
  9 10  1  0  0  0  0
 11  9  1  0  0  0  0
 11 12  1  0  0  0  0
 13 11  2  0  0  0  0
 14 13  1  0  0  0  0
 15 16  1  0  0  0  0
 15  2  1  0  0  0  0
 16 34  1  0  0  0  0
 17 18  1  0  0  0  0
 17 16  2  0  0  0  0
 19 17  1  0  0  0  0
 20 19  1  0  0  0  0
 21 23  1  0  0  0  0
 21 19  2  0  0  0  0
 22 21  1  0  0  0  0
 23 15  2  0  0  0  0
 24 26  1  0  0  0  0
 24 25  1  0  0  0  0
 24 23  1  0  0  0  0
 26 29  1  0  0  0  0
 27 26  1  0  0  0  0
 28 26  1  0  0  0  0
 30 24  1  0  0  0  0
 31 30  1  0  0  0  0
 32 30  1  0  0  0  0
 33 30  1  0  0  0  0
 34 36  1  0  0  0  0
 35 34  1  0  0  0  0
 36 39  1  0  0  0  0
 36 37  1  0  0  0  0
 36 38  1  0  0  0  0
 40 41  1  0  0  0  0
 40 34  1  0  0  0  0
 40 42  1  0  0  0  0
 43 40  1  0  0  0  0
M  END
