1,2
q = -1.0, confidence = 0.0

 39 43  0  0  0  0  0  0  0  0999 V2000
    2.6289    1.6265    0.5673 O   0  5  0  0  0  0  0  0  0  0  0  0
    0.0752    1.6169   -0.9539 N   0  0  0  0  0  2  0  0  0  0  0  0
    2.7260    2.8149    0.0584 C   0  0  0  0  0  0  0  0  0  0  0  0
    3.8975    3.5865    0.3654 C   0  0  0  0  0  0  0  0  0  0  0  0
    4.6515    3.0989    1.0006 H   0  0  0  0  0  0  0  0  0  0  0  0
    4.0781    4.8741   -0.1169 C   0  0  0  0  0  0  0  0  0  0  0  0
    4.9986    5.4227    0.1395 H   0  0  0  0  0  0  0  0  0  0  0  0
    3.0957    5.4953   -0.9317 C   0  0  0  0  0  0  0  0  0  0  0  0
    3.2433    6.5187   -1.3049 H   0  0  0  0  0  0  0  0  0  0  0  0
    1.9440    4.7883   -1.2387 C   0  0  0  0  0  0  0  0  0  0  0  0
    1.1607    5.2546   -1.8590 H   0  0  0  0  0  0  0  0  0  0  0  0
    1.7228    3.4531   -0.7790 C   0  0  0  0  0  0  0  0  0  0  0  0
    0.4672    2.8594   -1.1340 C   0  0  0  0  0  3  0  0  0  0  0  0
   -0.2549    3.5396   -1.6322 H   0  0  0  0  0  0  0  0  0  0  0  0
   -1.2793    1.2752   -1.2076 C   0  0  0  0  0  0  0  0  0  0  0  0
   -1.6021    0.3649   -2.2234 C   0  0  0  0  0  0  0  0  0  0  0  0
   -0.7987    0.0371   -2.8970 H   0  0  0  0  0  0  0  0  0  0  0  0
   -2.8960   -0.2020   -2.3661 C   0  0  0  0  0  0  0  0  0  0  0  0
   -3.0771   -0.9327   -3.1686 H   0  0  0  0  0  0  0  0  0  0  0  0
   -3.8864    0.1424   -1.4500 C   0  0  0  0  0  0  0  0  0  0  0  0
   -5.2757   -0.2765   -1.1973 C   0  0  0  0  0  0  0  0  0  0  0  0
   -6.0993   -1.2086   -1.8403 C   0  0  0  0  0  0  0  0  0  0  0  0
   -5.7330   -1.7738   -2.7110 H   0  0  0  0  0  0  0  0  0  0  0  0
   -7.4041   -1.4153   -1.3545 C   0  0  0  0  0  0  0  0  0  0  0  0
   -8.0600   -2.1460   -1.8516 H   0  0  0  0  0  0  0  0  0  0  0  0
   -7.8801   -0.6998   -0.2407 C   0  0  0  0  0  0  0  0  0  0  0  0
   -8.9039   -0.8768    0.1223 H   0  0  0  0  0  0  0  0  0  0  0  0
   -7.0613    0.2385    0.4156 C   0  0  0  0  0  0  0  0  0  0  0  0
   -7.4400    0.7922    1.2886 H   0  0  0  0  0  0  0  0  0  0  0  0
   -5.7613    0.4532   -0.0568 C   0  0  0  0  0  0  0  0  0  0  0  0
   -4.6772    1.3359    0.4155 C   0  0  0  0  0  0  0  0  0  0  0  0
   -3.5675    1.1055   -0.4514 C   0  0  0  0  0  0  0  0  0  0  0  0
   -2.3041    1.7196   -0.2982 C   0  0  0  0  0  0  0  0  0  0  0  0
   -2.1792    2.6530    0.7758 C   0  0  0  0  0  0  0  0  0  0  0  0
   -1.2224    3.1627    0.9576 H   0  0  0  0  0  0  0  0  0  0  0  0
   -3.2678    2.9049    1.6113 C   0  0  0  0  0  0  0  0  0  0  0  0
   -3.1469    3.6247    2.4350 H   0  0  0  0  0  0  0  0  0  0  0  0
   -4.5244    2.2485    1.4549 C   0  0  0  0  0  0  0  0  0  0  0  0
   -5.3451    2.4672    2.1553 H   0  0  0  0  0  0  0  0  0  0  0  0
  3  4  1  0  0  0  0
  3  1  1  0  0  0  0
  4  5  1  0  0  0  0
  6  7  1  0  0  0  0
  6  4  2  0  0  0  0
  8  6  1  0  0  0  0
  9  8  1  0  0  0  0
 10  8  2  0  0  0  0
 10 12  1  0  0  0  0
 11 10  1  0  0  0  0
 12  3  2  0  0  0  0
 13  2  1  0  0  0  0
 13 12  1  0  0  0  0
 14 13  1  0  0  0  0
 15  2  1  0  0  0  0
 15 33  1  0  0  0  0
 16 15  2  0  0  0  0
 17 16  1  0  0  0  0
 18 16  1  0  0  0  0
 18 20  2  0  0  0  0
 19 18  1  0  0  0  0
 20 21  1  0  0  0  0
 20 32  1  0  0  0  0
 21 30  1  0  0  0  0
 22 24  1  0  0  0  0
 22 21  2  0  0  0  0
 23 22  1  0  0  0  0
 24 26  2  0  0  0  0
 25 24  1  0  0  0  0
 26 27  1  0  0  0  0
 26 28  1  0  0  0  0
 28 29  1  0  0  0  0
 30 31  1  0  0  0  0
 30 28  2  0  0  0  0
 31 38  1  0  0  0  0
 32 33  1  0  0  0  0
 32 31  2  0  0  0  0
 33 34  2  0  0  0  0
 34 35  1  0  0  0  0
 34 36  1  0  0  0  0
 36 37  1  0  0  0  0
 38 36  2  0  0  0  0
 38 39  1  0  0  0  0
M  CHG  1   1  -1
M  END
