2,4
q = -1.0

 25 26  0  0  1  0  0  0  0  0999 V2000
    6.2119    1.5357   -0.6932 Cl  0  0  0  0  0  0  0  0  0  0  0  0
   -1.7571   -2.1622   -0.3105 O   0  0  0  0  0  1  0  0  0  0  0  0
    2.2968   -0.7177   -0.1305 C   0  0  0  0  0  0  0  0  0  0  0  0
    1.0549   -1.3933    0.0385 N   0  0  0  0  0  2  0  0  0  0  0  0
    0.4330   -5.0233    0.4965 C   0  0  0  0  0  0  0  0  0  0  0  0
    1.4954   -5.2401    0.6947 H   0  0  0  0  0  0  0  0  0  0  0  0
    0.0613   -3.6680    0.2375 C   0  0  0  0  0  0  0  0  0  0  0  0
    3.3518   -0.8833    0.7894 C   0  0  0  0  0  0  0  0  0  0  0  0
    3.2098   -1.5294    1.6682 H   0  0  0  0  0  0  0  0  0  0  0  0
   -0.4974   -6.0503    0.5072 C   0  0  0  0  0  0  0  0  0  0  0  0
   -0.1899   -7.0840    0.7201 H   0  0  0  0  0  0  0  0  0  0  0  0
   -1.3270   -3.3530   -0.0461 C   0  0  2  0  0  3  0  0  0  0  0  0
   -1.8552   -5.7454    0.2264 C   0  0  0  0  0  0  0  0  0  0  0  0
   -2.6045   -6.5530    0.2250 H   0  0  0  0  0  0  0  0  0  0  0  0
    2.4700    0.1462   -1.2301 C   0  0  0  0  0  0  0  0  0  0  0  0
    1.6343    0.2840   -1.9308 H   0  0  0  0  0  0  0  0  0  0  0  0
    4.5599   -0.1929    0.6192 C   0  0  0  0  0  0  0  0  0  0  0  0
    5.3776   -0.3040    1.3448 H   0  0  0  0  0  0  0  0  0  0  0  0
   -2.2556   -4.4468   -0.0515 C   0  0  0  0  0  0  0  0  0  0  0  0
   -3.3056   -4.2075   -0.2749 H   0  0  0  0  0  0  0  0  0  0  0  0
    4.7156    0.6639   -0.4820 C   0  0  0  0  0  0  0  0  0  0  0  0
    1.1159   -2.7069    0.1762 C   0  0  0  0  0  0  0  0  0  0  0  0
    2.1362   -3.1390    0.1999 H   0  0  0  0  0  0  0  0  0  0  0  0
    3.6743    0.8321   -1.4118 C   0  0  0  0  0  0  0  0  0  0  0  0
    3.8115    1.5074   -2.2676 H   0  0  0  0  0  0  0  0  0  0  0  0
  1 21  1  0  0  0  0
  3  4  1  0  0  0  0
  3  8  1  0  0  0  0
  4 22  1  0  0  0  0
  5 10  2  0  0  0  0
  5  6  1  0  0  0  0
  7  5  1  0  0  0  0
  8  9  1  0  0  0  0
 10 11  1  0  0  0  0
 12  2  1  6  0  0  0
 12  7  1  0  0  0  0
 13 10  1  0  0  0  0
 14 13  1  0  0  0  0
 15  3  2  0  0  0  0
 16 15  1  0  0  0  0
 17  8  2  0  0  0  0
 17 18  1  0  0  0  0
 19 12  1  0  0  0  0
 19 13  2  0  0  0  0
 20 19  1  0  0  0  0
 21 17  1  0  0  0  0
 22 23  1  0  0  0  0
 22  7  2  0  0  0  0
 24 15  1  0  0  0  0
 24 21  2  0  0  0  0
 25 24  1  0  0  0  0
M  END
