1,2
q = -1.0, confidence = 0.02

 22 22  0  0  0  0  0  0  0  0999 V2000
   -1.1473    0.8899   -1.4365 N   0  0  0  0  0  2  0  0  0  0  0  0
   -0.9590   -0.7707    0.7929 O   0  5  0  0  0  0  0  0  0  0  0  0
    1.0095    2.2686   -0.6959 O   0  0  0  0  0  0  0  0  0  0  0  0
    1.1580    2.8455    0.0831 H   0  0  0  0  0  0  0  0  0  0  0  0
   -2.1688   -1.1122    0.4502 C   0  0  0  0  0  0  0  0  0  0  0  0
   -2.8298   -2.0846    1.2666 C   0  0  0  0  0  0  0  0  0  0  0  0
   -2.2770   -2.4603    2.1396 H   0  0  0  0  0  0  0  0  0  0  0  0
   -4.1082   -2.5382    0.9665 C   0  0  0  0  0  0  0  0  0  0  0  0
   -4.5786   -3.2879    1.6223 H   0  0  0  0  0  0  0  0  0  0  0  0
   -4.8137   -2.0521   -0.1619 C   0  0  0  0  0  0  0  0  0  0  0  0
   -5.8261   -2.4153   -0.3882 H   0  0  0  0  0  0  0  0  0  0  0  0
   -4.1992   -1.1088   -0.9751 C   0  0  0  0  0  0  0  0  0  0  0  0
   -4.7235   -0.7164   -1.8619 H   0  0  0  0  0  0  0  0  0  0  0  0
   -2.8913   -0.6207   -0.7009 C   0  0  0  0  0  0  0  0  0  0  0  0
   -2.3112    0.3351   -1.5989 C   0  0  0  0  0  3  0  0  0  0  0  0
   -2.9026    0.6080   -2.4979 H   0  0  0  0  0  0  0  0  0  0  0  0
   -0.5666    1.8155   -2.3903 C   0  0  0  0  0  0  0  0  0  0  0  0
    0.2179    1.2804   -2.9705 H   0  0  0  0  0  0  0  0  0  0  0  0
   -1.3211    2.2207   -3.0995 H   0  0  0  0  0  0  0  0  0  0  0  0
    0.0834    2.9331   -1.5905 C   0  0  0  0  0  0  0  0  0  0  0  0
   -0.6840    3.4648   -0.9907 H   0  0  0  0  0  0  0  0  0  0  0  0
    0.6396    3.6389   -2.2425 H   0  0  0  0  0  0  0  0  0  0  0  0
  3  4  1  0  0  0  0
  5  2  1  0  0  0  0
  5  6  1  0  0  0  0
  6  7  1  0  0  0  0
  8  6  2  0  0  0  0
  8  9  1  0  0  0  0
 10  8  1  0  0  0  0
 11 10  1  0  0  0  0
 12 14  1  0  0  0  0
 12 10  2  0  0  0  0
 13 12  1  0  0  0  0
 14  5  2  0  0  0  0
 15  1  1  0  0  0  0
 15 14  1  0  0  0  0
 16 15  1  0  0  0  0
 17 20  1  0  0  0  0
 17  1  1  0  0  0  0
 18 17  1  0  0  0  0
 19 17  1  0  0  0  0
 20 21  1  0  0  0  0
 20  3  1  0  0  0  0
 22 20  1  0  0  0  0
M  CHG  1   2  -1
M  END
