1,4
q = -1.0

 14 13  0  0  1  0  0  0  0  0999 V2000
   -1.0314    1.4072   -0.6990 O   0  5  0  0  0  0  0  0  0  0  0  0
   -2.9169    2.5887   -0.9144 O   0  0  0  0  0  0  0  0  0  0  0  0
   -1.1149   -2.5048   -0.0525 O   0  0  0  0  0  0  0  0  0  0  0  0
   -1.4480   -1.1732    0.0978 N   0  0  0  0  0  2  0  0  0  0  0  0
   -2.3268    1.6136   -0.4826 C   0  0  0  0  0  0  0  0  0  0  0  0
   -3.0215    0.5911    0.4303 C   0  0  0  0  0  0  0  0  0  0  0  0
   -4.1100    0.7694    0.3788 H   0  0  0  0  0  0  0  0  0  0  0  0
   -2.6624    0.8587    1.4532 H   0  0  0  0  0  0  0  0  0  0  0  0
   -2.7061   -0.8598    0.2085 C   0  0  2  0  0  3  0  0  0  0  0  0
   -3.7972   -1.8808    0.1831 C   0  0  0  0  0  0  0  0  0  0  0  0
   -3.3905   -2.9047    0.2484 H   0  0  0  0  0  0  0  0  0  0  0  0
   -4.5060   -1.6979    1.0159 H   0  0  0  0  0  0  0  0  0  0  0  0
   -4.3805   -1.7841   -0.7580 H   0  0  0  0  0  0  0  0  0  0  0  0
   -0.1702   -2.4749    0.3248 H   0  0  0  0  0  0  0  0  0  0  0  0
  1  5  1  0  0  0  0
  2  5  2  0  0  0  0
  3  4  1  0  0  0  0
  3 14  1  0  0  0  0
  5  6  1  0  0  0  0
  6  8  1  0  0  0  0
  7  6  1  0  0  0  0
  9  4  1  1  0  0  0
  9  6  1  0  0  0  0
 10  9  1  0  0  0  0
 10 11  1  0  0  0  0
 10 12  1  0  0  0  0
 13 10  1  0  0  0  0
M  CHG  1   1  -1
M  END
