1,8
q = -1.0

 24 25  0  0  1  0  0  0  0  0999 V2000
    1.9334    0.6916    0.7224 N   0  0  0  0  0  2  0  0  0  0  0  0
    2.3339    1.6865    1.5640 C   0  0  2  0  0  3  0  0  0  0  0  0
    3.6158    2.2449    1.4441 C   0  0  0  0  0  0  0  0  0  0  0  0
    4.5002    1.7433    0.4812 C   0  0  0  0  0  0  0  0  0  0  0  0
    4.0965    0.6773   -0.3185 C   0  0  0  0  0  0  0  0  0  0  0  0
    2.7898    0.1452   -0.1960 C   0  0  0  0  0  0  0  0  0  0  0  0
    1.3823    2.1585    2.6223 C   0  0  0  0  0  0  0  0  0  0  0  0
    0.8159   -1.8567    0.6560 O   0  5  0  0  0  0  0  0  0  0  0  0
    1.4899   -2.0157   -0.4665 C   0  0  0  0  0  0  0  0  0  0  0  0
    2.3978   -1.0267   -0.9957 C   0  0  0  0  0  0  0  0  0  0  0  0
    3.0228   -1.2724   -2.2433 C   0  0  0  0  0  0  0  0  0  0  0  0
    2.8255   -2.4593   -2.9499 C   0  0  0  0  0  0  0  0  0  0  0  0
    1.9986   -3.4569   -2.3937 C   0  0  0  0  0  0  0  0  0  0  0  0
    1.3490   -3.2407   -1.1801 C   0  0  0  0  0  0  0  0  0  0  0  0
    3.9091    3.0588    2.1214 H   0  0  0  0  0  0  0  0  0  0  0  0
    5.5138    2.1601    0.3811 H   0  0  0  0  0  0  0  0  0  0  0  0
    4.7958    0.2105   -1.0232 H   0  0  0  0  0  0  0  0  0  0  0  0
    1.8718    2.8902    3.2911 H   0  0  0  0  0  0  0  0  0  0  0  0
    1.0254    1.2987    3.2258 H   0  0  0  0  0  0  0  0  0  0  0  0
    0.4854    2.6114    2.1541 H   0  0  0  0  0  0  0  0  0  0  0  0
    3.6658   -0.4916   -2.6772 H   0  0  0  0  0  0  0  0  0  0  0  0
    3.3061   -2.6090   -3.9274 H   0  0  0  0  0  0  0  0  0  0  0  0
    1.8432   -4.4060   -2.9306 H   0  0  0  0  0  0  0  0  0  0  0  0
    0.6795   -3.9968   -0.7445 H   0  0  0  0  0  0  0  0  0  0  0  0
  1  2  1  0  0  0  0
  2  7  1  1  0  0  0
  3  2  1  0  0  0  0
  3 15  1  0  0  0  0
  4  3  2  0  0  0  0
  5  6  2  0  0  0  0
  5  4  1  0  0  0  0
  6  1  1  0  0  0  0
  7 19  1  0  0  0  0
  7 18  1  0  0  0  0
  9  8  1  0  0  0  0
 10  9  1  0  0  0  0
 10  6  1  0  0  0  0
 11 10  2  0  0  0  0
 12 13  2  0  0  0  0
 12 11  1  0  0  0  0
 13 14  1  0  0  0  0
 14 24  1  0  0  0  0
 14  9  2  0  0  0  0
 16  4  1  0  0  0  0
 17  5  1  0  0  0  0
 20  7  1  0  0  0  0
 21 11  1  0  0  0  0
 22 12  1  0  0  0  0
 23 13  1  0  0  0  0
M  CHG  1   8  -1
M  END
