1,8
q = -1.0, confidence = 0.002

 37 39  0  0  1  0  0  0  0  0999 V2000
    2.0116    0.6011   -0.2562 O   0  5  0  0  0  0  0  0  0  0  0  0
    2.3193    1.7419   -0.8493 C   0  0  0  0  0  0  0  0  0  0  0  0
    1.6243    2.2448   -2.0090 C   0  0  0  0  0  0  0  0  0  0  0  0
    1.9993    3.5032   -2.5392 C   0  0  0  0  0  0  0  0  0  0  0  0
    3.0482    4.2498   -2.0002 C   0  0  0  0  0  0  0  0  0  0  0  0
    3.7729    3.7244   -0.9114 C   0  0  0  0  0  0  0  0  0  0  0  0
    3.4169    2.4990   -0.3501 C   0  0  0  0  0  0  0  0  0  0  0  0
   -0.1101    0.4838   -2.0522 N   0  0  0  0  0  2  0  0  0  0  0  0
    0.6476    1.4071   -2.7247 C   0  0  2  0  0  3  0  0  0  0  0  0
    0.5344    1.4969   -4.1317 C   0  0  0  0  0  0  0  0  0  0  0  0
   -0.3341    0.6538   -4.8236 C   0  0  0  0  0  0  0  0  0  0  0  0
   -1.0492   -0.3150   -4.1119 C   0  0  0  0  0  0  0  0  0  0  0  0
   -0.9069   -0.3973   -2.7172 C   0  0  0  0  0  0  0  0  0  0  0  0
   -1.6283   -1.4753   -1.9505 C   0  0  0  0  0  0  0  0  0  0  0  0
   -3.1651   -1.3092   -1.9265 C   0  0  0  0  0  0  0  0  0  0  0  0
   -3.8254   -2.3535   -1.0562 C   0  0  0  0  0  0  0  0  0  0  0  0
   -4.4606   -3.4798   -1.6140 C   0  0  0  0  0  0  0  0  0  0  0  0
   -5.0386   -4.4613   -0.7928 C   0  0  0  0  0  0  0  0  0  0  0  0
   -4.9857   -4.3293    0.6031 C   0  0  0  0  0  0  0  0  0  0  0  0
   -4.3531   -3.2103    1.1705 C   0  0  0  0  0  0  0  0  0  0  0  0
   -3.7767   -2.2307    0.3494 C   0  0  0  0  0  0  0  0  0  0  0  0
    1.4300    3.9121   -3.3879 H   0  0  0  0  0  0  0  0  0  0  0  0
    3.3000    5.2347   -2.4189 H   0  0  0  0  0  0  0  0  0  0  0  0
    4.6128    4.2934   -0.4827 H   0  0  0  0  0  0  0  0  0  0  0  0
    3.9579    2.0886    0.5151 H   0  0  0  0  0  0  0  0  0  0  0  0
    1.1704    2.2100   -4.6709 H   0  0  0  0  0  0  0  0  0  0  0  0
   -0.4234    0.7257   -5.9181 H   0  0  0  0  0  0  0  0  0  0  0  0
   -1.7086   -1.0299   -4.6243 H   0  0  0  0  0  0  0  0  0  0  0  0
   -1.2451   -1.4987   -0.9110 H   0  0  0  0  0  0  0  0  0  0  0  0
   -1.3761   -2.4556   -2.4089 H   0  0  0  0  0  0  0  0  0  0  0  0
   -3.3830   -0.2989   -1.5298 H   0  0  0  0  0  0  0  0  0  0  0  0
   -3.5666   -1.3679   -2.9600 H   0  0  0  0  0  0  0  0  0  0  0  0
   -4.5071   -3.5862   -2.7102 H   0  0  0  0  0  0  0  0  0  0  0  0
   -5.5349   -5.3329   -1.2469 H   0  0  0  0  0  0  0  0  0  0  0  0
   -5.4396   -5.0966    1.2489 H   0  0  0  0  0  0  0  0  0  0  0  0
   -4.3121   -3.0976    2.2651 H   0  0  0  0  0  0  0  0  0  0  0  0
   -3.2790   -1.3488    0.7845 H   0  0  0  0  0  0  0  0  0  0  0  0
  2  7  1  0  0  0  0
  2  1  1  0  0  0  0
  3  2  2  0  0  0  0
  4  3  1  0  0  0  0
  4  5  2  0  0  0  0
  5  6  1  0  0  0  0
  6 24  1  0  0  0  0
  6  7  2  0  0  0  0
  7 25  1  0  0  0  0
  9  8  1  0  0  0  0
  9  3  1  6  0  0  0
 10  9  1  0  0  0  0
 11 10  2  0  0  0  0
 11 12  1  0  0  0  0
 12 13  2  0  0  0  0
 13  8  1  0  0  0  0
 13 14  1  0  0  0  0
 14 15  1  0  0  0  0
 14 29  1  0  0  0  0
 15 31  1  0  0  0  0
 15 16  1  0  0  0  0
 16 21  1  0  0  0  0
 17 16  2  0  0  0  0
 17 18  1  0  0  0  0
 18 19  2  0  0  0  0
 19 20  1  0  0  0  0
 19 35  1  0  0  0  0
 20 36  1  0  0  0  0
 21 37  1  0  0  0  0
 21 20  2  0  0  0  0
 22  4  1  0  0  0  0
 23  5  1  0  0  0  0
 26 10  1  0  0  0  0
 27 11  1  0  0  0  0
 28 12  1  0  0  0  0
 30 14  1  0  0  0  0
 32 15  1  0  0  0  0
 33 17  1  0  0  0  0
 34 18  1  0  0  0  0
M  CHG  1   1  -1
M  END
