2,12
q = 0.0, confidence = 0.63

 22 22  0  0  1  0  0  0  0  0999 V2000
   -0.3512    4.2700    0.6814 C   0  0  0  0  0  0  0  0  0  0  0  0
   -0.9725    1.9518    0.4272 O   0  5  0  0  0  0  0  0  0  0  0  0
    0.0499    2.8710    0.3444 C   0  0  0  0  0  0  0  0  0  0  0  0
    1.2646    2.4000   -0.0298 C   0  0  0  0  0  0  0  0  0  0  0  0
    1.3313    0.9599   -0.4063 C   0  0  2  0  0  3  0  0  0  0  0  0
    2.6169    0.2442   -0.2227 C   0  0  0  0  0  0  0  0  0  0  0  0
    3.0590   -0.7405   -1.1397 C   0  0  0  0  0  0  0  0  0  0  0  0
    4.2745   -1.4095   -0.9435 C   0  0  0  0  0  0  0  0  0  0  0  0
    5.0850   -1.1105    0.1639 C   0  0  0  0  0  0  0  0  0  0  0  0
    4.6749   -0.1133    1.0646 C   0  0  0  0  0  0  0  0  0  0  0  0
    3.4620    0.5614    0.8678 C   0  0  0  0  0  0  0  0  0  0  0  0
    0.5775    0.6096   -1.6124 N   0  3  0  0  0  2  0  0  0  0  0  0
    0.9353    0.6987   -2.8069 O   0  5  0  0  0  0  0  0  0  0  0  0
   -1.1263    4.6355   -0.0253 H   0  0  0  0  0  0  0  0  0  0  0  0
    0.5155    4.9552    0.6391 H   0  0  0  0  0  0  0  0  0  0  0  0
   -0.7974    4.3152    1.6975 H   0  0  0  0  0  0  0  0  0  0  0  0
    2.1482    3.0519   -0.0963 H   0  0  0  0  0  0  0  0  0  0  0  0
    2.4456   -0.9629   -2.0237 H   0  0  0  0  0  0  0  0  0  0  0  0
    4.5972   -2.1705   -1.6710 H   0  0  0  0  0  0  0  0  0  0  0  0
    6.0383   -1.6391    0.3157 H   0  0  0  0  0  0  0  0  0  0  0  0
    5.3076    0.1439    1.9284 H   0  0  0  0  0  0  0  0  0  0  0  0
    3.1487    1.3465    1.5724 H   0  0  0  0  0  0  0  0  0  0  0  0
  1 16  1  0  0  0  0
  3  2  1  0  0  0  0
  3  1  1  0  0  0  0
  4  3  2  0  0  0  0
  5 12  1  6  0  0  0
  5  6  1  0  0  0  0
  5  4  1  0  0  0  0
  6 11  1  0  0  0  0
  7  8  1  0  0  0  0
  7  6  2  0  0  0  0
  8  9  2  0  0  0  0
  9 20  1  0  0  0  0
  9 10  1  0  0  0  0
 10 21  1  0  0  0  0
 11 10  2  0  0  0  0
 11 22  1  0  0  0  0
 13 12  1  0  0  0  0
 14  1  1  0  0  0  0
 15  1  1  0  0  0  0
 17  4  1  0  0  0  0
 18  7  1  0  0  0  0
 19  8  1  0  0  0  0
M  CHG  3   2  -1  12   1  13  -1
M  END
