2,11
q = -1.0, confidence = 0.004

 25 25  0  0  1  0  0  0  0  0999 V2000
   -0.5743   -0.4248   -3.0534 F   0  0  0  0  0  0  0  0  0  0  0  0
    2.1110   -0.5797    0.6654 O   0  5  0  0  0  0  0  0  0  0  0  0
   -2.4523   -2.7297    0.6167 F   0  0  0  0  0  0  0  0  0  0  0  0
   -1.4542   -1.5551   -1.1679 C   0  0  0  0  0  0  0  0  0  0  0  0
    4.7841   -0.6157   -0.2799 F   0  0  0  0  0  0  0  0  0  0  0  0
    4.4882   -1.5539    1.6682 F   0  0  0  0  0  0  0  0  0  0  0  0
    0.2618   -3.4936   -2.1051 C   0  0  0  0  0  0  0  0  0  0  0  0
    0.2185   -2.9681   -3.0820 H   0  0  0  0  0  0  0  0  0  0  0  0
   -0.7481   -3.9021   -1.9077 H   0  0  0  0  0  0  0  0  0  0  0  0
    0.9832   -4.3250   -2.1960 H   0  0  0  0  0  0  0  0  0  0  0  0
   -0.1754   -1.6274   -0.5512 N   0  0  0  0  0  2  0  0  0  0  0  0
    4.7509   -2.7944   -0.1101 F   0  0  0  0  0  0  0  0  0  0  0  0
   -3.8852   -1.9381   -1.0905 C   0  0  0  0  0  0  0  0  0  0  0  0
   -4.7421   -2.3496   -0.5408 H   0  0  0  0  0  0  0  0  0  0  0  0
    0.6828   -2.5226   -1.0298 C   0  0  2  0  0  3  0  0  0  0  0  0
    2.0521   -2.5914   -0.6063 C   0  0  0  0  0  0  0  0  0  0  0  0
    2.6675   -3.4075   -1.0014 H   0  0  0  0  0  0  0  0  0  0  0  0
    2.6801   -1.6157    0.1387 C   0  0  0  0  0  0  0  0  0  0  0  0
   -2.6062   -2.0794   -0.5419 C   0  0  0  0  0  0  0  0  0  0  0  0
    4.1962   -1.6554    0.3599 C   0  0  0  0  0  0  0  0  0  0  0  0
   -1.6528   -0.9088   -2.4067 C   0  0  0  0  0  0  0  0  0  0  0  0
   -4.0353   -1.2689   -2.3133 C   0  0  0  0  0  0  0  0  0  0  0  0
   -5.0377   -1.1472   -2.7481 H   0  0  0  0  0  0  0  0  0  0  0  0
   -2.9164   -0.7568   -2.9850 C   0  0  0  0  0  0  0  0  0  0  0  0
   -2.9994   -0.2363   -3.9491 H   0  0  0  0  0  0  0  0  0  0  0  0
  1 21  1  0  0  0  0
  4 11  1  0  0  0  0
  4 19  1  0  0  0  0
  5 20  1  0  0  0  0
  7  9  1  0  0  0  0
  7 15  1  0  0  0  0
  8  7  1  0  0  0  0
 10  7  1  0  0  0  0
 12 20  1  0  0  0  0
 13 19  2  0  0  0  0
 13 14  1  0  0  0  0
 15 16  1  6  0  0  0
 15 11  1  0  0  0  0
 16 18  2  0  0  0  0
 17 16  1  0  0  0  0
 18 20  1  0  0  0  0
 18  2  1  0  0  0  0
 19  3  1  0  0  0  0
 20  6  1  0  0  0  0
 21  4  2  0  0  0  0
 22 13  1  0  0  0  0
 23 22  1  0  0  0  0
 24 21  1  0  0  0  0
 24 22  2  0  0  0  0
 25 24  1  0  0  0  0
M  CHG  1   2  -1
M  END
