1,8
q = -2.0, confidence = 0.916

 20 21  0  0  1  0  0  0  0  0999 V2000
    0.5875   -1.7687   -0.6381 O   0  0  0  0  0  1  0  0  0  0  0  0
    2.0138   -1.6259   -0.6130 C   0  0  2  0  0  0  0  0  0  0  0  0
    2.5708   -2.0188    0.7620 C   0  0  0  0  0  0  0  0  0  0  0  0
    4.0305   -1.5815    0.9173 C   0  0  0  0  0  0  0  0  0  0  0  0
    4.1198   -0.0532    0.8586 C   0  0  0  0  0  0  0  0  0  0  0  0
    3.6306    0.4908   -0.4890 C   0  0  1  0  0  0  0  0  0  0  0  0
    2.3461   -0.1817   -1.0108 C   0  0  2  0  0  0  0  0  0  0  0  0
    1.3223    0.6860   -0.4157 N   0  0  0  0  0  2  0  0  0  0  0  0
    1.8609    1.9212   -0.1282 C   0  0  0  0  0  0  0  0  0  0  0  0
    1.3012    2.9320    0.2627 O   0  0  0  0  0  0  0  0  0  0  0  0
    3.2251    1.8761   -0.3432 O   0  0  0  0  0  0  0  0  0  0  0  0
    2.4227   -2.3181   -1.3840 H   0  0  0  0  0  0  0  0  0  0  0  0
    1.9481   -1.5294    1.5412 H   0  0  0  0  0  0  0  0  0  0  0  0
    2.4519   -3.1133    0.8944 H   0  0  0  0  0  0  0  0  0  0  0  0
    4.6571   -2.0361    0.1158 H   0  0  0  0  0  0  0  0  0  0  0  0
    4.4471   -1.9487    1.8772 H   0  0  0  0  0  0  0  0  0  0  0  0
    5.1488    0.3120    1.0503 H   0  0  0  0  0  0  0  0  0  0  0  0
    3.4750    0.3734    1.6560 H   0  0  0  0  0  0  0  0  0  0  0  0
    4.4407    0.4646   -1.2446 H   0  0  0  0  0  0  0  0  0  0  0  0
    2.2912   -0.0914   -2.1212 H   0  0  0  0  0  0  0  0  0  0  0  0
  1  2  1  0  0  0  0
  2 12  1  6  0  0  0
  2  3  1  0  0  0  0
  3 14  1  0  0  0  0
  3  4  1  0  0  0  0
  3 13  1  0  0  0  0
  4 16  1  0  0  0  0
  5  4  1  0  0  0  0
  5 17  1  0  0  0  0
  5 18  1  0  0  0  0
  6 19  1  6  0  0  0
  6 11  1  0  0  0  0
  6  5  1  0  0  0  0
  7 20  1  6  0  0  0
  7  2  1  0  0  0  0
  7  6  1  0  0  0  0
  7  8  1  0  0  0  0
  8  9  1  0  0  0  0
  9 10  2  0  0  0  0
 11  9  1  0  0  0  0
 15  4  1  0  0  0  0
M  END
