1,3
q = -1.0

 36 36  0  0  0  0  0  0  0  0999 V2000
   -2.5314    0.0813    0.3745 O   0  5  0  0  0  0  0  0  0  0  0  0
   -5.0545    0.0136    1.0291 O   0  0  0  0  0  0  0  0  0  0  0  0
   -0.3374    1.5466   -0.7326 N   0  0  0  0  0  2  0  0  0  0  0  0
    4.2320    3.2274    0.3319 N   0  0  0  0  0  0  0  0  0  0  0  0
   -3.1968    1.1669    0.1457 C   0  0  0  0  0  0  0  0  0  0  0  0
   -4.6043    1.1877    0.4917 C   0  0  0  0  0  0  0  0  0  0  0  0
   -5.3854    2.3221    0.2760 C   0  0  0  0  0  0  0  0  0  0  0  0
   -6.4501    2.3224    0.5486 H   0  0  0  0  0  0  0  0  0  0  0  0
   -4.8197    3.4897   -0.2997 C   0  0  0  0  0  0  0  0  0  0  0  0
   -5.4520    4.3744   -0.4624 H   0  0  0  0  0  0  0  0  0  0  0  0
   -3.4800    3.5019   -0.6528 C   0  0  0  0  0  0  0  0  0  0  0  0
   -3.0297    4.4006   -1.1043 H   0  0  0  0  0  0  0  0  0  0  0  0
   -2.6491    2.3611   -0.4402 C   0  0  0  0  0  0  0  0  0  0  0  0
   -1.2701    2.4503   -0.8505 C   0  0  0  0  0  3  0  0  0  0  0  0
   -0.9930    3.4177   -1.3330 H   0  0  0  0  0  0  0  0  0  0  0  0
   -6.4107   -0.0586    1.4087 C   0  0  0  0  0  0  0  0  0  0  0  0
   -6.5717   -1.0736    1.8184 H   0  0  0  0  0  0  0  0  0  0  0  0
   -7.0958    0.0948    0.5431 H   0  0  0  0  0  0  0  0  0  0  0  0
   -6.6656    0.6917    2.1922 H   0  0  0  0  0  0  0  0  0  0  0  0
    0.9912    1.8885   -1.2258 C   0  0  0  0  0  0  0  0  0  0  0  0
    0.9213    2.6951   -1.9945 H   0  0  0  0  0  0  0  0  0  0  0  0
    1.4173    0.9953   -1.7312 H   0  0  0  0  0  0  0  0  0  0  0  0
    1.9387    2.3344   -0.1064 C   0  0  0  0  0  0  0  0  0  0  0  0
    1.5484    3.2620    0.3638 H   0  0  0  0  0  0  0  0  0  0  0  0
    1.9506    1.5482    0.6755 H   0  0  0  0  0  0  0  0  0  0  0  0
    3.3452    2.6086   -0.6457 C   0  0  0  0  0  0  0  0  0  0  0  0
    3.7779    1.6566   -1.0630 H   0  0  0  0  0  0  0  0  0  0  0  0
    3.2641    3.3094   -1.5057 H   0  0  0  0  0  0  0  0  0  0  0  0
    4.6241    2.3231    1.3955 C   0  0  0  0  0  0  0  0  0  0  0  0
    5.1847    2.8758    2.1778 H   0  0  0  0  0  0  0  0  0  0  0  0
    5.2807    1.4852    1.0309 H   0  0  0  0  0  0  0  0  0  0  0  0
    3.7373    1.8616    1.8699 H   0  0  0  0  0  0  0  0  0  0  0  0
    5.3854    3.8502   -0.2853 C   0  0  0  0  0  0  0  0  0  0  0  0
    5.9858    4.3822    0.4818 H   0  0  0  0  0  0  0  0  0  0  0  0
    5.0627    4.5953   -1.0413 H   0  0  0  0  0  0  0  0  0  0  0  0
    6.0707    3.1196   -0.7984 H   0  0  0  0  0  0  0  0  0  0  0  0
  2 16  1  0  0  0  0
  4 29  1  0  0  0  0
  5  1  1  0  0  0  0
  5  6  1  0  0  0  0
  6  2  1  0  0  0  0
  7  6  2  0  0  0  0
  7  8  1  0  0  0  0
  9  7  1  0  0  0  0
 10  9  1  0  0  0  0
 11 13  1  0  0  0  0
 11  9  2  0  0  0  0
 12 11  1  0  0  0  0
 13  5  2  0  0  0  0
 14  3  1  0  0  0  0
 14 13  1  0  0  0  0
 15 14  1  0  0  0  0
 16 17  1  0  0  0  0
 16 19  1  0  0  0  0
 18 16  1  0  0  0  0
 20  3  1  0  0  0  0
 20 23  1  0  0  0  0
 21 20  1  0  0  0  0
 22 20  1  0  0  0  0
 23 24  1  0  0  0  0
 23 25  1  0  0  0  0
 26 23  1  0  0  0  0
 26  4  1  0  0  0  0
 27 26  1  0  0  0  0
 28 26  1  0  0  0  0
 29 32  1  0  0  0  0
 29 30  1  0  0  0  0
 31 29  1  0  0  0  0
 33  4  1  0  0  0  0
 33 34  1  0  0  0  0
 35 33  1  0  0  0  0
 36 33  1  0  0  0  0
M  CHG  1   1  -1
M  END
