1,20
q = -1.0

 29 30  0  0  0  0  0  0  0  0999 V2000
    1.8751    1.7319   -1.8038 O   0  5  0  0  0  0  0  0  0  0  0  0
    2.9531    1.1183   -1.4674 N   0  0  0  0  0  0  0  0  0  0  0  0
    1.3550   -1.1260    0.6291 N   0  0  0  0  0  2  0  0  0  0  0  0
   -0.5077   -0.1469    1.7326 N   0  0  0  0  0  0  0  0  0  0  0  0
    2.8597    0.1285   -0.5742 C   0  0  0  0  0  0  0  0  0  0  0  0
    4.0858   -0.6146   -0.2207 C   0  0  0  0  0  0  0  0  0  0  0  0
    4.2263   -1.3810    0.9573 C   0  0  0  0  0  0  0  0  0  0  0  0
    3.3816   -1.4769    1.6493 H   0  0  0  0  0  0  0  0  0  0  0  0
    5.4369   -2.0247    1.2475 C   0  0  0  0  0  0  0  0  0  0  0  0
    5.5201   -2.6130    2.1752 H   0  0  0  0  0  0  0  0  0  0  0  0
    6.5460   -1.9394    0.3854 C   0  0  0  0  0  0  0  0  0  0  0  0
    6.4007   -1.1696   -0.7896 C   0  0  0  0  0  0  0  0  0  0  0  0
    7.2487   -1.0819   -1.4876 H   0  0  0  0  0  0  0  0  0  0  0  0
    5.2017   -0.5217   -1.0899 C   0  0  0  0  0  0  0  0  0  0  0  0
    5.1057    0.0747   -2.0080 H   0  0  0  0  0  0  0  0  0  0  0  0
    7.8380   -2.6545    0.6860 C   0  0  0  0  0  0  0  0  0  0  0  0
    8.7100   -1.9759    0.5855 H   0  0  0  0  0  0  0  0  0  0  0  0
    8.0046   -3.4947   -0.0217 H   0  0  0  0  0  0  0  0  0  0  0  0
    7.8453   -3.0742    1.7105 H   0  0  0  0  0  0  0  0  0  0  0  0
    1.5830   -0.0755   -0.0518 N   0  0  0  0  0  2  0  0  0  0  0  0
    0.1035   -1.2433    1.2444 C   0  0  0  0  0  0  0  0  0  0  0  0
   -1.6953   -0.3147    2.3301 C   0  0  0  0  0  0  0  0  0  0  0  0
   -2.1720    0.5969    2.7304 H   0  0  0  0  0  0  0  0  0  0  0  0
   -2.3411   -1.5570    2.4442 C   0  0  0  0  0  0  0  0  0  0  0  0
   -3.3318   -1.6262    2.9156 H   0  0  0  0  0  0  0  0  0  0  0  0
   -1.6918   -2.6955    1.9389 C   0  0  0  0  0  0  0  0  0  0  0  0
   -2.1643   -3.6869    2.0034 H   0  0  0  0  0  0  0  0  0  0  0  0
   -0.4333   -2.5479    1.3510 C   0  0  0  0  0  0  0  0  0  0  0  0
    0.1335   -3.3957    0.9418 H   0  0  0  0  0  0  0  0  0  0  0  0
  1  2  1  0  0  0  0
  2  5  2  0  0  0  0
  3 21  1  0  0  0  0
  4 22  1  0  0  0  0
  5  6  1  0  0  0  0
  5 20  1  0  0  0  0
  6  7  1  0  0  0  0
  7  9  2  0  0  0  0
  7  8  1  0  0  0  0
  9 10  1  0  0  0  0
 11 16  1  0  0  0  0
 11  9  1  0  0  0  0
 12 11  2  0  0  0  0
 13 12  1  0  0  0  0
 14 12  1  0  0  0  0
 14  6  2  0  0  0  0
 15 14  1  0  0  0  0
 16 19  1  0  0  0  0
 17 16  1  0  0  0  0
 18 16  1  0  0  0  0
 20  3  1  0  0  0  0
 21 28  1  0  0  0  0
 21  4  2  0  0  0  0
 22 24  2  0  0  0  0
 22 23  1  0  0  0  0
 24 25  1  0  0  0  0
 26 27  1  0  0  0  0
 26 24  1  0  0  0  0
 28 26  2  0  0  0  0
 29 28  1  0  0  0  0
M  CHG  1   1  -1
M  END
