1,2
q = 0.0, confidence = 0.934

 19 20  0  0  0  0  0  0  0  0999 V2000
   -0.7954   -0.5227    0.8440 O   0  5  0  0  0  0  0  0  0  0  0  0
   -0.0647   -0.7649   -1.5910 N   0  0  0  0  0  2  0  0  0  0  0  0
    0.2264   -0.9182   -2.5652 H   0  0  0  0  0  0  0  0  0  0  0  0
   -1.3732   -0.5675   -1.4207 C   0  0  0  0  0  0  0  0  0  0  0  0
   -2.3858   -0.5309   -2.4376 C   0  0  0  0  0  0  0  0  0  0  0  0
   -2.0942   -0.6463   -3.4925 H   0  0  0  0  0  0  0  0  0  0  0  0
   -3.6976   -0.3391   -2.0784 C   0  0  0  0  0  0  0  0  0  0  0  0
   -4.4781   -0.2968   -2.8536 H   0  0  0  0  0  0  0  0  0  0  0  0
   -4.1057   -0.1824   -0.6983 C   0  0  0  0  0  0  0  0  0  0  0  0
   -3.1289   -0.2266    0.3507 C   0  0  0  0  0  0  0  0  0  0  0  0
   -1.7404   -0.4209   -0.0119 C   0  0  0  0  0  0  0  0  0  0  0  0
   -5.4613    0.0154   -0.3446 C   0  0  0  0  0  0  0  0  0  0  0  0
   -6.2209    0.0525   -1.1406 H   0  0  0  0  0  0  0  0  0  0  0  0
   -5.8374    0.1624    0.9935 C   0  0  0  0  0  0  0  0  0  0  0  0
   -6.8968    0.3159    1.2486 H   0  0  0  0  0  0  0  0  0  0  0  0
   -4.8680    0.1171    2.0187 C   0  0  0  0  0  0  0  0  0  0  0  0
   -5.1730    0.2358    3.0689 H   0  0  0  0  0  0  0  0  0  0  0  0
   -3.5231   -0.0750    1.6994 C   0  0  0  0  0  0  0  0  0  0  0  0
   -2.7471   -0.1076    2.4778 H   0  0  0  0  0  0  0  0  0  0  0  0
  2  4  1  0  0  0  0
  3  2  1  0  0  0  0
  4 11  1  0  0  0  0
  5  7  1  0  0  0  0
  5  4  2  0  0  0  0
  6  5  1  0  0  0  0
  7  9  2  0  0  0  0
  8  7  1  0  0  0  0
  9 12  1  0  0  0  0
  9 10  1  0  0  0  0
 10 18  1  0  0  0  0
 11 10  2  0  0  0  0
 11  1  1  0  0  0  0
 12 14  2  0  0  0  0
 13 12  1  0  0  0  0
 14 15  1  0  0  0  0
 14 16  1  0  0  0  0
 16 17  1  0  0  0  0
 18 16  2  0  0  0  0
 18 19  1  0  0  0  0
M  CHG  1   1  -1
M  END
