1,2
q = 0.0, confidence = 0.932

 19 20  0  0  0  0  0  0  0  0999 V2000
    0.1152   -1.6113    0.4212 O   0  5  0  0  0  0  0  0  0  0  0  0
   -0.5223    0.8572    0.2278 N   0  0  0  0  0  2  0  0  0  0  0  0
   -1.1372   -1.3841    0.2869 C   0  0  0  0  0  0  0  0  0  0  0  0
   -2.1330   -2.4161    0.3222 C   0  0  0  0  0  0  0  0  0  0  0  0
   -1.7960   -3.4580    0.4125 H   0  0  0  0  0  0  0  0  0  0  0  0
   -3.4618   -2.0771    0.2354 C   0  0  0  0  0  0  0  0  0  0  0  0
   -4.2292   -2.8669    0.2492 H   0  0  0  0  0  0  0  0  0  0  0  0
   -3.9148   -0.7075    0.1224 C   0  0  0  0  0  0  0  0  0  0  0  0
   -2.9631    0.3656    0.0955 C   0  0  0  0  0  0  0  0  0  0  0  0
   -1.5528    0.0205    0.1783 C   0  0  0  0  0  0  0  0  0  0  0  0
   -5.2936   -0.4020    0.0321 C   0  0  0  0  0  0  0  0  0  0  0  0
   -6.0220   -1.2272    0.0509 H   0  0  0  0  0  0  0  0  0  0  0  0
   -5.7313    0.9194   -0.0798 C   0  0  0  0  0  0  0  0  0  0  0  0
   -6.8068    1.1392   -0.1487 H   0  0  0  0  0  0  0  0  0  0  0  0
   -4.7933    1.9713   -0.1098 C   0  0  0  0  0  0  0  0  0  0  0  0
   -5.1354    3.0124   -0.2041 H   0  0  0  0  0  0  0  0  0  0  0  0
   -3.4265    1.6948   -0.0271 C   0  0  0  0  0  0  0  0  0  0  0  0
   -2.7088    2.5288   -0.0690 H   0  0  0  0  0  0  0  0  0  0  0  0
   -0.7588    1.8569    0.2384 H   0  0  0  0  0  0  0  0  0  0  0  0
  2 19  1  0  0  0  0
  3  4  1  0  0  0  0
  3  1  1  0  0  0  0
  4  5  1  0  0  0  0
  6  7  1  0  0  0  0
  6  4  2  0  0  0  0
  8  6  1  0  0  0  0
  9  8  1  0  0  0  0
  9 10  1  0  0  0  0
 10  2  1  0  0  0  0
 10  3  2  0  0  0  0
 11 12  1  0  0  0  0
 11  8  2  0  0  0  0
 13 11  1  0  0  0  0
 14 13  1  0  0  0  0
 15 13  2  0  0  0  0
 15 17  1  0  0  0  0
 16 15  1  0  0  0  0
 17  9  2  0  0  0  0
 18 17  1  0  0  0  0
M  CHG  1   1  -1
M  END
