1,3
q = -1.0

 16 16  0  0  1  0  0  0  0  0999 V2000
    1.3353   -0.6794   -1.8111 O   0  0  0  0  0  1  0  0  0  0  0  0
    2.4125   -0.1971   -1.2763 C   0  0  2  0  0  3  0  0  0  0  0  0
    2.3006    0.0326    0.0696 N   0  0  0  0  0  2  0  0  0  0  0  0
    3.3399    0.5894    0.7306 C   0  0  0  0  0  0  0  0  0  0  0  0
    4.5111    0.8857    0.1582 N   0  0  0  0  0  0  0  0  0  0  0  0
    4.6571    0.6378   -1.1696 C   0  0  0  0  0  0  0  0  0  0  0  0
    3.6247    0.1039   -1.9442 C   0  0  0  0  0  0  0  0  0  0  0  0
    5.9974    0.9825   -1.7583 C   0  0  0  0  0  0  0  0  0  0  0  0
    3.1881    0.9183    2.1901 C   0  0  0  0  0  0  0  0  0  0  0  0
    3.7211   -0.0813   -3.0224 H   0  0  0  0  0  0  0  0  0  0  0  0
    6.2149    2.0573   -1.5927 H   0  0  0  0  0  0  0  0  0  0  0  0
    6.0511    0.7624   -2.8406 H   0  0  0  0  0  0  0  0  0  0  0  0
    6.7945    0.4191   -1.2315 H   0  0  0  0  0  0  0  0  0  0  0  0
    2.1672    0.7104    2.5505 H   0  0  0  0  0  0  0  0  0  0  0  0
    3.4303    1.9888    2.3431 H   0  0  0  0  0  0  0  0  0  0  0  0
    3.9261    0.3425    2.7842 H   0  0  0  0  0  0  0  0  0  0  0  0
  2  1  1  6  0  0  0
  2  3  1  0  0  0  0
  3  4  1  0  0  0  0
  4  9  1  0  0  0  0
  5  4  2  0  0  0  0
  6  5  1  0  0  0  0
  7  2  1  0  0  0  0
  7  6  2  0  0  0  0
  8 11  1  0  0  0  0
  8 13  1  0  0  0  0
  8  6  1  0  0  0  0
  9 15  1  0  0  0  0
  9 14  1  0  0  0  0
  9 16  1  0  0  0  0
 10  7  1  0  0  0  0
 12  8  1  0  0  0  0
M  END
