1,2
q = -1.0, confidence = 0.0

 30 32  0  0  1  0  0  0  0  0999 V2000
    1.5388   -0.9079   -0.5113 O   0  0  0  0  0  1  0  0  0  0  0  0
   -1.0480   -1.6216    0.0141 N   0  0  0  0  0  2  0  0  0  0  0  0
   -4.4428   -2.0760    1.4334 N   0  0  0  0  0  0  0  0  0  0  0  0
    1.8203   -2.1759   -0.4258 C   0  0  2  0  0  3  0  0  0  0  0  0
    3.1683   -2.5966   -0.6480 C   0  0  0  0  0  0  0  0  0  0  0  0
    3.9116   -1.8197   -0.8774 H   0  0  0  0  0  0  0  0  0  0  0  0
    3.5175   -3.9389   -0.5612 C   0  0  0  0  0  0  0  0  0  0  0  0
    4.5667   -4.2311   -0.7250 H   0  0  0  0  0  0  0  0  0  0  0  0
    2.5513   -4.9359   -0.2675 C   0  0  0  0  0  0  0  0  0  0  0  0
    2.8453   -5.9933   -0.2056 H   0  0  0  0  0  0  0  0  0  0  0  0
    1.2313   -4.5568   -0.0676 C   0  0  0  0  0  0  0  0  0  0  0  0
    0.4600   -5.3136    0.1487 H   0  0  0  0  0  0  0  0  0  0  0  0
    0.8380   -3.1889   -0.1349 C   0  0  0  0  0  0  0  0  0  0  0  0
   -0.5362   -2.8407    0.0155 C   0  0  0  0  0  0  0  0  0  0  0  0
   -1.2494   -3.6839    0.0976 H   0  0  0  0  0  0  0  0  0  0  0  0
   -2.4632   -1.5357    0.1318 C   0  0  0  0  0  0  0  0  0  0  0  0
   -3.2213   -0.8484   -0.8061 C   0  0  0  0  0  0  0  0  0  0  0  0
   -2.7302   -0.3613   -1.6612 H   0  0  0  0  0  0  0  0  0  0  0  0
   -4.6267   -0.7650   -0.6393 C   0  0  0  0  0  0  0  0  0  0  0  0
   -5.4780   -0.0670   -1.5462 C   0  0  0  0  0  0  0  0  0  0  0  0
   -5.0295    0.4295   -2.4207 H   0  0  0  0  0  0  0  0  0  0  0  0
   -6.8452   -0.0115   -1.3223 C   0  0  0  0  0  0  0  0  0  0  0  0
   -7.4956    0.5306   -2.0252 H   0  0  0  0  0  0  0  0  0  0  0  0
   -7.4165   -0.6508   -0.1865 C   0  0  0  0  0  0  0  0  0  0  0  0
   -8.5039   -0.5976   -0.0247 H   0  0  0  0  0  0  0  0  0  0  0  0
   -6.6146   -1.3348    0.7148 C   0  0  0  0  0  0  0  0  0  0  0  0
   -7.0272   -1.8344    1.6032 H   0  0  0  0  0  0  0  0  0  0  0  0
   -5.2049   -1.4086    0.5172 C   0  0  0  0  0  0  0  0  0  0  0  0
   -3.1369   -2.1253    1.2466 C   0  0  0  0  0  0  0  0  0  0  0  0
   -2.5316   -2.6412    2.0159 H   0  0  0  0  0  0  0  0  0  0  0  0
  2 14  1  0  0  0  0
  2 16  1  0  0  0  0
  4  1  1  6  0  0  0
  4 13  1  0  0  0  0
  5  7  2  0  0  0  0
  5  4  1  0  0  0  0
  6  5  1  0  0  0  0
  7  9  1  0  0  0  0
  8  7  1  0  0  0  0
  9 10  1  0  0  0  0
  9 11  2  0  0  0  0
 11 12  1  0  0  0  0
 13 11  1  0  0  0  0
 13 14  2  0  0  0  0
 14 15  1  0  0  0  0
 16 29  2  0  0  0  0
 17 19  2  0  0  0  0
 17 16  1  0  0  0  0
 18 17  1  0  0  0  0
 19 28  1  0  0  0  0
 20 22  2  0  0  0  0
 20 19  1  0  0  0  0
 21 20  1  0  0  0  0
 22 24  1  0  0  0  0
 23 22  1  0  0  0  0
 24 25  1  0  0  0  0
 24 26  2  0  0  0  0
 26 27  1  0  0  0  0
 28 26  1  0  0  0  0
 28  3  2  0  0  0  0
 29  3  1  0  0  0  0
 29 30  1  0  0  0  0
M  END
