1,4
q = -2.0, confidence = 0.932

 13 13  0  0  0  0  0  0  0  0999 V2000
   -0.4781   -0.0818   -0.0895 N   0  0  0  0  0  0  0  0  0  0  0  0
   -1.6691   -0.6840   -0.1597 N   0  0  0  0  0  0  0  0  0  0  0  0
   -3.4403   -1.7849   -0.3594 H   0  0  0  0  0  0  0  0  0  0  0  0
    1.7398    1.2999    0.2934 O   0  5  0  0  0  0  0  0  0  0  0  0
    0.6593    3.2998    0.1524 O   0  0  0  0  0  0  0  0  0  0  0  0
   -4.3156   -1.3388   -0.3149 O   0  0  0  0  0  0  0  0  0  0  0  0
   -4.9443    0.8128   -0.0865 O   0  0  0  0  0  0  0  0  0  0  0  0
    0.6469    2.0805    0.1609 C   0  0  0  0  0  0  0  0  0  0  0  0
   -0.6090    1.2717    0.0262 C   0  0  0  0  0  3  0  0  0  0  0  0
   -1.9793    1.5713    0.0118 C   0  0  0  0  0  0  0  0  0  0  0  0
   -2.4633    2.5499    0.0779 H   0  0  0  0  0  0  0  0  0  0  0  0
   -2.6050    0.3084   -0.1012 C   0  0  0  0  0  0  0  0  0  0  0  0
   -4.0565   -0.0104   -0.1621 C   0  0  0  0  0  0  0  0  0  0  0  0
  1  9  1  0  0  0  0
  2 12  1  0  0  0  0
  2  1  2  0  0  0  0
  3  6  1  0  0  0  0
  5  8  2  0  0  0  0
  6 13  1  0  0  0  0
  8  4  1  0  0  0  0
  9  8  1  0  0  0  0
 10  9  1  0  0  0  0
 10 11  1  0  0  0  0
 12 10  2  0  0  0  0
 13 12  1  0  0  0  0
 13  7  2  0  0  0  0
M  CHG  1   4  -1
M  END
