2,14
q = -1.0

 25 25  0  0  0  0  0  0  0  0999 V2000
    2.8166    0.4454    0.1898 C   0  0  0  0  0  0  0  0  0  0  0  0
    1.8303   -0.4102    0.2384 O   0  5  0  0  0  0  0  0  0  0  0  0
    3.9513    0.2331    1.0309 C   0  0  0  0  0  0  0  0  0  0  0  0
    3.9154   -0.6170    1.7284 H   0  0  0  0  0  0  0  0  0  0  0  0
    5.0559    1.0798    0.9858 C   0  0  0  0  0  0  0  0  0  0  0  0
    5.9063    0.8905    1.6599 H   0  0  0  0  0  0  0  0  0  0  0  0
    5.0976    2.1786    0.0966 C   0  0  0  0  0  0  0  0  0  0  0  0
    5.9720    2.8443    0.0704 H   0  0  0  0  0  0  0  0  0  0  0  0
    4.0107    2.3998   -0.7439 C   0  0  0  0  0  0  0  0  0  0  0  0
    4.0205    3.2450   -1.4512 H   0  0  0  0  0  0  0  0  0  0  0  0
    2.8638    1.5628   -0.7183 C   0  0  0  0  0  0  0  0  0  0  0  0
    1.8039    1.8282   -1.6537 C   0  0  0  0  0  3  0  0  0  0  0  0
    1.9984    2.6296   -2.3934 H   0  0  0  0  0  0  0  0  0  0  0  0
    0.6498    1.2260   -1.7194 N   0  0  0  0  0  2  0  0  0  0  0  0
   -0.2994    1.6933   -2.7254 C   0  0  0  0  0  0  0  0  0  0  0  0
   -1.0095    0.8798   -2.9598 H   0  0  0  0  0  0  0  0  0  0  0  0
    0.2424    1.9681   -3.6573 H   0  0  0  0  0  0  0  0  0  0  0  0
   -1.0802    2.9109   -2.2386 C   0  0  0  0  0  0  0  0  0  0  0  0
   -1.9089    3.1221   -2.9614 H   0  0  0  0  0  0  0  0  0  0  0  0
   -1.5388    2.6777   -1.2521 H   0  0  0  0  0  0  0  0  0  0  0  0
   -0.1901    4.0046   -2.1526 O   0  0  0  0  0  0  0  0  0  0  0  0
   -0.7334    5.1055   -1.4639 C   0  0  0  0  0  0  0  0  0  0  0  0
   -1.6197    5.5365   -1.9919 H   0  0  0  0  0  0  0  0  0  0  0  0
    0.0508    5.8853   -1.4025 H   0  0  0  0  0  0  0  0  0  0  0  0
   -1.0534    4.8336   -0.4298 H   0  0  0  0  0  0  0  0  0  0  0  0
  1  2  1  0  0  0  0
  1  3  1  0  0  0  0
  3  4  1  0  0  0  0
  5  3  2  0  0  0  0
  5  6  1  0  0  0  0
  7  5  1  0  0  0  0
  8  7  1  0  0  0  0
  9 11  1  0  0  0  0
  9  7  2  0  0  0  0
 10  9  1  0  0  0  0
 11  1  2  0  0  0  0
 12 11  1  0  0  0  0
 13 12  1  0  0  0  0
 14 12  1  0  0  0  0
 15 18  1  0  0  0  0
 15 14  1  0  0  0  0
 16 15  1  0  0  0  0
 17 15  1  0  0  0  0
 18 21  1  0  0  0  0
 18 20  1  0  0  0  0
 19 18  1  0  0  0  0
 21 22  1  0  0  0  0
 22 24  1  0  0  0  0
 22 25  1  0  0  0  0
 23 22  1  0  0  0  0
M  CHG  1   2  -1
M  END
