1,4
q = -1.0, confidence = 0.002

 39 40  0  0  1  0  0  0  0  0999 V2000
    1.6238   -0.6348   -0.6174 O   0  0  0  0  0  1  0  0  0  0  0  0
    5.4762   -3.4356   -0.4469 O   0  0  0  0  0  0  0  0  0  0  0  0
   -8.4708   -0.8738   -0.4724 O   0  0  0  0  0  0  0  0  0  0  0  0
   -0.7822   -1.7448   -0.0415 N   0  0  0  0  0  2  0  0  0  0  0  0
   -7.0923   -0.8812   -0.6014 N   0  0  0  0  0  0  0  0  0  0  0  0
    2.1327   -1.8147   -0.4139 C   0  0  2  0  0  3  0  0  0  0  0  0
    3.5399   -1.9730   -0.5666 C   0  0  0  0  0  0  0  0  0  0  0  0
    4.1120   -1.0725   -0.8196 H   0  0  0  0  0  0  0  0  0  0  0  0
    4.1415   -3.2178   -0.3617 C   0  0  0  0  0  0  0  0  0  0  0  0
    3.3545   -4.3640   -0.0339 C   0  0  0  0  0  0  0  0  0  0  0  0
    3.8636   -5.3268    0.1078 H   0  0  0  0  0  0  0  0  0  0  0  0
    1.9848   -4.2276    0.0948 C   0  0  0  0  0  0  0  0  0  0  0  0
    1.3685   -5.1076    0.3394 H   0  0  0  0  0  0  0  0  0  0  0  0
    1.3358   -2.9682   -0.0709 C   0  0  0  0  0  0  0  0  0  0  0  0
   -0.0803   -2.8647    0.0129 C   0  0  0  0  0  0  0  0  0  0  0  0
   -0.6493   -3.8121    0.0893 H   0  0  0  0  0  0  0  0  0  0  0  0
   -2.2009   -1.8387   -0.0215 C   0  0  0  0  0  0  0  0  0  0  0  0
   -2.8833   -2.5008    1.0139 C   0  0  0  0  0  0  0  0  0  0  0  0
   -2.3094   -2.9645    1.8298 H   0  0  0  0  0  0  0  0  0  0  0  0
   -4.2847   -2.5144    1.0408 C   0  0  0  0  0  0  0  0  0  0  0  0
   -4.7927   -3.0114    1.8799 H   0  0  0  0  0  0  0  0  0  0  0  0
   -5.0400   -1.8583    0.0442 C   0  0  0  0  0  0  0  0  0  0  0  0
   -4.3383   -1.2215   -1.0117 C   0  0  0  0  0  0  0  0  0  0  0  0
   -4.9163   -0.7259   -1.8039 H   0  0  0  0  0  0  0  0  0  0  0  0
   -2.9474   -1.2090   -1.0413 C   0  0  0  0  0  0  0  0  0  0  0  0
   -2.4077   -0.6933   -1.8484 H   0  0  0  0  0  0  0  0  0  0  0  0
   -6.5169   -1.8040    0.1185 C   0  0  0  0  0  0  0  0  0  0  0  0
   -7.2788   -2.7510    1.0068 C   0  0  0  0  0  0  0  0  0  0  0  0
   -8.3201   -2.8497    0.6516 H   0  0  0  0  0  0  0  0  0  0  0  0
   -6.7991   -3.7474    1.0349 H   0  0  0  0  0  0  0  0  0  0  0  0
   -7.3193   -2.3684    2.0492 H   0  0  0  0  0  0  0  0  0  0  0  0
   -9.0254    0.0957   -1.3497 C   0  0  0  0  0  0  0  0  0  0  0  0
  -10.1208    0.0427   -1.2027 H   0  0  0  0  0  0  0  0  0  0  0  0
   -8.6660    1.1188   -1.1047 H   0  0  0  0  0  0  0  0  0  0  0  0
   -8.7797   -0.1265   -2.4105 H   0  0  0  0  0  0  0  0  0  0  0  0
    6.3197   -2.3342   -0.7529 C   0  0  0  0  0  0  0  0  0  0  0  0
    6.2423   -1.5210    0.0021 H   0  0  0  0  0  0  0  0  0  0  0  0
    7.3528   -2.7291   -0.7615 H   0  0  0  0  0  0  0  0  0  0  0  0
    6.0875   -1.9074   -1.7538 H   0  0  0  0  0  0  0  0  0  0  0  0
  2  9  1  0  0  0  0
  4 17  1  0  0  0  0
  4 15  1  0  0  0  0
  5  3  1  0  0  0  0
  5 27  2  0  0  0  0
  6  1  1  6  0  0  0
  6 14  1  0  0  0  0
  7  6  1  0  0  0  0
  7  9  2  0  0  0  0
  8  7  1  0  0  0  0
  9 10  1  0  0  0  0
 10 12  2  0  0  0  0
 10 11  1  0  0  0  0
 12 13  1  0  0  0  0
 14 15  2  0  0  0  0
 14 12  1  0  0  0  0
 15 16  1  0  0  0  0
 17 18  1  0  0  0  0
 18 20  2  0  0  0  0
 18 19  1  0  0  0  0
 20 21  1  0  0  0  0
 22 27  1  0  0  0  0
 22 20  1  0  0  0  0
 23 22  2  0  0  0  0
 24 23  1  0  0  0  0
 25 23  1  0  0  0  0
 25 17  2  0  0  0  0
 26 25  1  0  0  0  0
 27 28  1  0  0  0  0
 28 30  1  0  0  0  0
 28 31  1  0  0  0  0
 29 28  1  0  0  0  0
 32 33  1  0  0  0  0
 32 34  1  0  0  0  0
 32  3  1  0  0  0  0
 35 32  1  0  0  0  0
 36  2  1  0  0  0  0
 36 37  1  0  0  0  0
 38 36  1  0  0  0  0
 39 36  1  0  0  0  0
M  END
