1,6
q = -1.0

 17 17  0  0  0  0  0  0  0  0999 V2000
    1.3771   -1.5691   -1.5931 O   0  5  0  0  0  0  0  0  0  0  0  0
    3.2329   -0.5101   -2.3301 O   0  0  0  0  0  0  0  0  0  0  0  0
    4.8075    1.2645   -1.4513 O   0  0  0  0  0  0  0  0  0  0  0  0
    4.1804    0.5217   -1.8474 H   0  0  0  0  0  0  0  0  0  0  0  0
    5.0485    2.5074    0.4039 O   0  0  0  0  0  0  0  0  0  0  0  0
    1.4301   -0.3007    0.7861 N   0  0  0  0  0  2  0  0  0  0  0  0
    2.7542    1.2798    1.6054 N   0  0  0  0  0  0  0  0  0  0  0  0
    2.3555   -0.7499   -1.4691 C   0  0  0  0  0  0  0  0  0  0  0  0
    2.3957   -0.0222   -0.1532 C   0  0  0  0  0  0  0  0  0  0  0  0
    1.6640    0.4939    1.8271 C   0  0  0  0  0  3  0  0  0  0  0  0
    1.0676    0.5361    2.7471 H   0  0  0  0  0  0  0  0  0  0  0  0
    3.2470    0.9718    0.3394 C   0  0  0  0  0  0  0  0  0  0  0  0
    4.4552    1.6502   -0.2422 C   0  0  0  0  0  0  0  0  0  0  0  0
    3.2809    2.2636    2.5486 C   0  0  0  0  0  0  0  0  0  0  0  0
    4.3259    2.0194    2.8093 H   0  0  0  0  0  0  0  0  0  0  0  0
    2.6408    2.2516    3.4500 H   0  0  0  0  0  0  0  0  0  0  0  0
    3.2845    3.2673    2.0881 H   0  0  0  0  0  0  0  0  0  0  0  0
  1  8  1  0  0  0  0
  2  8  2  0  0  0  0
  3 13  1  0  0  0  0
  4  3  1  0  0  0  0
  6 10  1  0  0  0  0
  7 10  1  0  0  0  0
  7 14  1  0  0  0  0
  8  9  1  0  0  0  0
  9 12  2  0  0  0  0
  9  6  1  0  0  0  0
 10 11  1  0  0  0  0
 12  7  1  0  0  0  0
 13 12  1  0  0  0  0
 13  5  2  0  0  0  0
 14 15  1  0  0  0  0
 14 16  1  0  0  0  0
 17 14  1  0  0  0  0
M  CHG  1   1  -1
M  END
