1,3
q = 0.0, confidence = 0.986

 33 33  0  0  0  0  0  0  0  0999 V2000
   -0.2449    0.7290   -0.9402 N   0  0  0  0  0  2  0  0  0  0  0  0
   -2.9539    1.3445    0.2821 N   0  3  0  0  0  0  0  0  0  0  0  0
    1.1386   -1.7315   -0.0190 O   0  5  0  0  0  0  0  0  0  0  0  0
    2.1452    0.4686   -0.3603 C   0  0  0  0  0  0  0  0  0  0  0  0
    2.1682   -0.9472   -0.0192 C   0  0  0  0  0  0  0  0  0  0  0  0
    3.4501   -1.4947    0.3227 C   0  0  0  0  0  0  0  0  0  0  0  0
    3.4731   -2.5667    0.5672 H   0  0  0  0  0  0  0  0  0  0  0  0
    4.5962   -0.7191    0.3650 C   0  0  0  0  0  0  0  0  0  0  0  0
    5.5522   -1.1909    0.6479 H   0  0  0  0  0  0  0  0  0  0  0  0
    4.5820    0.6738    0.0557 C   0  0  0  0  0  0  0  0  0  0  0  0
    3.3591    1.2237   -0.3036 C   0  0  0  0  0  0  0  0  0  0  0  0
    3.3076    2.2944   -0.5669 H   0  0  0  0  0  0  0  0  0  0  0  0
    5.8494    1.4875    0.1164 C   0  0  0  0  0  0  0  0  0  0  0  0
    6.6295    1.0805   -0.5617 H   0  0  0  0  0  0  0  0  0  0  0  0
    6.2855    1.4880    1.1383 H   0  0  0  0  0  0  0  0  0  0  0  0
    5.6707    2.5419   -0.1717 H   0  0  0  0  0  0  0  0  0  0  0  0
    0.9851    1.1721   -0.8194 C   0  0  0  0  0  3  0  0  0  0  0  0
    1.1816    2.2257   -1.1290 H   0  0  0  0  0  0  0  0  0  0  0  0
   -1.2185    1.6146   -1.5585 C   0  0  0  0  0  0  0  0  0  0  0  0
   -1.1767    1.5103   -2.6680 H   0  0  0  0  0  0  0  0  0  0  0  0
   -0.9813    2.6858   -1.3496 H   0  0  0  0  0  0  0  0  0  0  0  0
   -2.6532    1.2623   -1.1857 C   0  0  0  0  0  0  0  0  0  0  0  0
   -3.3690    1.9227   -1.7175 H   0  0  0  0  0  0  0  0  0  0  0  0
   -2.8432    0.2050   -1.4722 H   0  0  0  0  0  0  0  0  0  0  0  0
   -4.2020    0.6037    0.6151 C   0  0  0  0  0  0  0  0  0  0  0  0
   -4.3274    0.6089    1.7129 H   0  0  0  0  0  0  0  0  0  0  0  0
   -4.0674   -0.4398    0.2653 H   0  0  0  0  0  0  0  0  0  0  0  0
   -5.0681    1.0835    0.1197 H   0  0  0  0  0  0  0  0  0  0  0  0
   -2.9371    2.7207    0.8271 C   0  0  0  0  0  0  0  0  0  0  0  0
   -3.7719    3.3096    0.3999 H   0  0  0  0  0  0  0  0  0  0  0  0
   -1.9728    3.2011    0.5827 H   0  0  0  0  0  0  0  0  0  0  0  0
   -3.0333    2.6633    1.9267 H   0  0  0  0  0  0  0  0  0  0  0  0
   -2.1825    0.7943    0.8567 H   0  0  0  0  0  0  0  0  0  0  0  0
  1 17  1  0  0  0  0
  2 25  1  0  0  0  0
  2 29  1  0  0  0  0
  2 33  1  0  0  0  0
  4 11  2  0  0  0  0
  4  5  1  0  0  0  0
  5  3  1  0  0  0  0
  5  6  2  0  0  0  0
  6  8  1  0  0  0  0
  6  7  1  0  0  0  0
  8  9  1  0  0  0  0
 10 13  1  0  0  0  0
 10  8  2  0  0  0  0
 11 10  1  0  0  0  0
 12 11  1  0  0  0  0
 13 15  1  0  0  0  0
 14 13  1  0  0  0  0
 16 13  1  0  0  0  0
 17  4  1  0  0  0  0
 18 17  1  0  0  0  0
 19 21  1  0  0  0  0
 19 22  1  0  0  0  0
 19  1  1  0  0  0  0
 20 19  1  0  0  0  0
 22  2  1  0  0  0  0
 23 22  1  0  0  0  0
 24 22  1  0  0  0  0
 25 26  1  0  0  0  0
 27 25  1  0  0  0  0
 28 25  1  0  0  0  0
 29 32  1  0  0  0  0
 30 29  1  0  0  0  0
 31 29  1  0  0  0  0
M  CHG  2   2   1   3  -1
M  END
