1,5
q = -2.0, confidence = 0.702

 23 23  0  0  0  0  0  0  0  0999 V2000
    1.1550   -1.1837   -2.4629 O   0  5  0  0  0  0  0  0  0  0  0  0
   -0.2276   -2.4163   -3.7296 O   0  0  0  0  0  0  0  0  0  0  0  0
   -0.0203   -1.5638   -2.8600 C   0  0  0  0  0  0  0  0  0  0  0  0
   -1.2702   -0.8802   -2.2218 C   0  0  0  0  0  0  0  0  0  0  0  0
   -1.0216   -0.3211   -0.9005 N   0  0  0  0  0  2  0  0  0  0  0  0
   -1.8149    1.0399   -0.4600 S   0  0  0  0  0  0  0  0  0  0  0  0
   -2.1431    1.9336   -1.6092 O   0  0  0  0  0  0  0  0  0  0  0  0
   -1.1009    1.6041    0.7219 O   0  0  0  0  0  0  0  0  0  0  0  0
   -3.4180    0.4146    0.1591 C   0  0  0  0  0  0  0  0  0  0  0  0
   -3.4951   -0.9432    0.5067 C   0  0  0  0  0  0  0  0  0  0  0  0
   -4.7022   -1.5029    0.9498 C   0  0  0  0  0  0  0  0  0  0  0  0
   -5.8616   -0.7146    1.0189 C   0  0  0  0  0  0  0  0  0  0  0  0
   -5.8033    0.6381    0.6598 C   0  0  0  0  0  0  0  0  0  0  0  0
   -4.5826    1.1985    0.2595 C   0  0  0  0  0  0  0  0  0  0  0  0
   -4.5799    2.6596   -0.0017 N   0  0  0  0  0  0  0  0  0  0  0  0
   -3.6099    3.2942    0.3964 O   0  0  0  0  0  0  0  0  0  0  0  0
   -5.5774    3.1266   -0.5505 O   0  0  0  0  0  0  0  0  0  0  0  0
   -1.6048   -0.1006   -2.9442 H   0  0  0  0  0  0  0  0  0  0  0  0
   -2.0591   -1.6641   -2.1912 H   0  0  0  0  0  0  0  0  0  0  0  0
   -2.5793   -1.5444    0.4046 H   0  0  0  0  0  0  0  0  0  0  0  0
   -4.7377   -2.5670    1.2285 H   0  0  0  0  0  0  0  0  0  0  0  0
   -6.8161   -1.1514    1.3480 H   0  0  0  0  0  0  0  0  0  0  0  0
   -6.6905    1.2857    0.6860 H   0  0  0  0  0  0  0  0  0  0  0  0
  2  3  2  0  0  0  0
  3  1  1  0  0  0  0
  3  4  1  0  0  0  0
  4 19  1  0  0  0  0
  4  5  1  0  0  0  0
  5  6  1  0  0  0  0
  6  9  1  0  0  0  0
  6  8  2  0  0  0  0
  7  6  2  0  0  0  0
  9 14  2  0  0  0  0
  9 10  1  0  0  0  0
 10 11  2  0  0  0  0
 11 12  1  0  0  0  0
 11 21  1  0  0  0  0
 12 22  1  0  0  0  0
 13 23  1  0  0  0  0
 13 12  2  0  0  0  0
 14 13  1  0  0  0  0
 15 14  1  0  0  0  0
 15 16  2  0  0  0  0
 17 15  2  0  0  0  0
 18  4  1  0  0  0  0
 20 10  1  0  0  0  0
M  CHG  1   1  -1
M  END
