1,2
q = -1.0

 30 30  0  0  1  0  0  0  0  0999 V2000
   -1.9177    0.5122   -0.3600 O   0  0  0  0  0  1  0  0  0  0  0  0
    0.5340    1.9185    0.4044 N   0  0  0  0  0  2  0  0  0  0  0  0
   -1.7413    2.8768    0.2104 C   0  0  0  0  0  0  0  0  0  0  0  0
   -2.4539    1.6970   -0.2091 C   0  0  1  0  0  3  0  0  0  0  0  0
   -3.8492    1.8284   -0.4878 C   0  0  0  0  0  0  0  0  0  0  0  0
   -4.3810    0.9278   -0.8241 H   0  0  0  0  0  0  0  0  0  0  0  0
   -4.5084    3.0420   -0.3343 C   0  0  0  0  0  0  0  0  0  0  0  0
   -5.5862    3.1002   -0.5537 H   0  0  0  0  0  0  0  0  0  0  0  0
   -3.8147    4.1993    0.0960 C   0  0  0  0  0  0  0  0  0  0  0  0
   -4.3421    5.1563    0.2154 H   0  0  0  0  0  0  0  0  0  0  0  0
   -2.4543    4.1033    0.3549 C   0  0  0  0  0  0  0  0  0  0  0  0
   -1.8901    4.9934    0.6775 H   0  0  0  0  0  0  0  0  0  0  0  0
   -0.3286    2.9050    0.4566 C   0  0  0  0  0  0  0  0  0  0  0  0
    0.0840    3.9017    0.7108 H   0  0  0  0  0  0  0  0  0  0  0  0
    1.9503    2.2694    0.5831 C   0  0  0  0  0  0  0  0  0  0  0  0
    2.0117    3.2180    1.1600 H   0  0  0  0  0  0  0  0  0  0  0  0
    2.4288    1.4675    1.1731 H   0  0  0  0  0  0  0  0  0  0  0  0
    2.6652    2.4332   -0.7643 C   0  0  0  0  0  0  0  0  0  0  0  0
    2.6045    1.4697   -1.3127 H   0  0  0  0  0  0  0  0  0  0  0  0
    2.1026    3.1776   -1.3680 H   0  0  0  0  0  0  0  0  0  0  0  0
    4.1274    2.8760   -0.6349 C   0  0  0  0  0  0  0  0  0  0  0  0
    4.1804    3.8232   -0.0501 H   0  0  0  0  0  0  0  0  0  0  0  0
    4.5086    3.1320   -1.6478 H   0  0  0  0  0  0  0  0  0  0  0  0
    5.0662    1.8397   -0.0063 C   0  0  0  0  0  0  0  0  0  0  0  0
    4.9997    0.8960   -0.5906 H   0  0  0  0  0  0  0  0  0  0  0  0
    4.7136    1.5831    1.0168 H   0  0  0  0  0  0  0  0  0  0  0  0
    6.5201    2.3074    0.0621 C   0  0  0  0  0  0  0  0  0  0  0  0
    7.1789    1.5382    0.5130 H   0  0  0  0  0  0  0  0  0  0  0  0
    6.6198    3.2308    0.6706 H   0  0  0  0  0  0  0  0  0  0  0  0
    6.9176    2.5367   -0.9490 H   0  0  0  0  0  0  0  0  0  0  0  0
  2 13  1  0  0  0  0
  2 15  1  0  0  0  0
  3 11  1  0  0  0  0
  3 13  2  0  0  0  0
  4  1  1  6  0  0  0
  4  3  1  0  0  0  0
  5  7  2  0  0  0  0
  5  4  1  0  0  0  0
  6  5  1  0  0  0  0
  7  9  1  0  0  0  0
  8  7  1  0  0  0  0
  9 10  1  0  0  0  0
  9 11  2  0  0  0  0
 11 12  1  0  0  0  0
 13 14  1  0  0  0  0
 15 16  1  0  0  0  0
 15 17  1  0  0  0  0
 18 21  1  0  0  0  0
 18 15  1  0  0  0  0
 19 18  1  0  0  0  0
 20 18  1  0  0  0  0
 21 22  1  0  0  0  0
 21 24  1  0  0  0  0
 23 21  1  0  0  0  0
 24 27  1  0  0  0  0
 24 26  1  0  0  0  0
 25 24  1  0  0  0  0
 27 28  1  0  0  0  0
 27 29  1  0  0  0  0
 30 27  1  0  0  0  0
M  END
