1,2
q = -1.0, confidence = 0.006

 36 37  0  0  0  0  0  0  0  0999 V2000
    1.9659    0.3176    0.3238 O   0  5  0  0  0  0  0  0  0  0  0  0
   -0.2905    1.9208   -0.6048 N   0  0  0  0  0  2  0  0  0  0  0  0
    2.0873    2.6081   -0.4551 C   0  0  0  0  0  0  0  0  0  0  0  0
    2.6469    1.3966    0.0541 C   0  0  0  0  0  0  0  0  0  0  0  0
    4.0846    1.3425    0.2917 C   0  0  0  0  0  0  0  0  0  0  0  0
    4.6867    0.1640    0.8015 C   0  0  0  0  0  0  0  0  0  0  0  0
    4.0382   -0.6911    1.0263 H   0  0  0  0  0  0  0  0  0  0  0  0
    6.0597    0.0905    1.0096 C   0  0  0  0  0  0  0  0  0  0  0  0
    6.5086   -0.8346    1.4025 H   0  0  0  0  0  0  0  0  0  0  0  0
    6.8781    1.2089    0.7172 C   0  0  0  0  0  0  0  0  0  0  0  0
    7.9651    1.1518    0.8812 H   0  0  0  0  0  0  0  0  0  0  0  0
    6.3105    2.3798    0.2266 C   0  0  0  0  0  0  0  0  0  0  0  0
    6.9431    3.2527    0.0021 H   0  0  0  0  0  0  0  0  0  0  0  0
    4.9095    2.4815    0.0007 C   0  0  0  0  0  0  0  0  0  0  0  0
    4.3076    3.6792   -0.5080 C   0  0  0  0  0  0  0  0  0  0  0  0
    4.9446    4.5493   -0.7246 H   0  0  0  0  0  0  0  0  0  0  0  0
    2.9509    3.7276   -0.7192 C   0  0  0  0  0  3  0  0  0  0  0  0
    2.4881    4.6483   -1.1090 H   0  0  0  0  0  0  0  0  0  0  0  0
    0.6926    2.7847   -0.7192 C   0  0  0  0  0  0  0  0  0  0  0  0
    0.4104    3.7954   -1.0745 H   0  0  0  0  0  0  0  0  0  0  0  0
   -1.6398    2.4195   -0.9023 C   0  0  0  0  0  0  0  0  0  0  0  0
   -1.5450    3.3490   -1.5047 H   0  0  0  0  0  0  0  0  0  0  0  0
   -2.1559    1.6660   -1.5284 H   0  0  0  0  0  0  0  0  0  0  0  0
   -2.4693    2.6975    0.3548 C   0  0  0  0  0  0  0  0  0  0  0  0
   -2.6267    1.7383    0.8894 H   0  0  0  0  0  0  0  0  0  0  0  0
   -1.8875    3.3513    1.0403 H   0  0  0  0  0  0  0  0  0  0  0  0
   -3.8186    3.3455    0.0289 C   0  0  0  0  0  0  0  0  0  0  0  0
   -4.3041    2.7952   -0.8085 H   0  0  0  0  0  0  0  0  0  0  0  0
   -3.6584    4.3789   -0.3543 H   0  0  0  0  0  0  0  0  0  0  0  0
   -4.7833    3.3787    1.2176 C   0  0  0  0  0  0  0  0  0  0  0  0
   -4.9321    2.3386    1.5828 H   0  0  0  0  0  0  0  0  0  0  0  0
   -4.3086    3.9298    2.0596 H   0  0  0  0  0  0  0  0  0  0  0  0
   -6.1374    4.0034    0.8824 C   0  0  0  0  0  0  0  0  0  0  0  0
   -6.8130    4.0159    1.7612 H   0  0  0  0  0  0  0  0  0  0  0  0
   -6.6500    3.4363    0.0768 H   0  0  0  0  0  0  0  0  0  0  0  0
   -6.0267    5.0504    0.5298 H   0  0  0  0  0  0  0  0  0  0  0  0
  3  4  1  0  0  0  0
  4  5  2  0  0  0  0
  4  1  1  0  0  0  0
  5  6  1  0  0  0  0
  6  8  2  0  0  0  0
  6  7  1  0  0  0  0
  8  9  1  0  0  0  0
 10 11  1  0  0  0  0
 10  8  1  0  0  0  0
 12 10  2  0  0  0  0
 13 12  1  0  0  0  0
 14 12  1  0  0  0  0
 14  5  1  0  0  0  0
 15 14  2  0  0  0  0
 16 15  1  0  0  0  0
 17 15  1  0  0  0  0
 17  3  1  0  0  0  0
 18 17  1  0  0  0  0
 19  2  1  0  0  0  0
 19  3  2  0  0  0  0
 20 19  1  0  0  0  0
 21  2  1  0  0  0  0
 21 24  1  0  0  0  0
 22 21  1  0  0  0  0
 23 21  1  0  0  0  0
 24 25  1  0  0  0  0
 24 26  1  0  0  0  0
 27 24  1  0  0  0  0
 27 30  1  0  0  0  0
 28 27  1  0  0  0  0
 29 27  1  0  0  0  0
 30 31  1  0  0  0  0
 30 32  1  0  0  0  0
 33 30  1  0  0  0  0
 33 34  1  0  0  0  0
 35 33  1  0  0  0  0
 36 33  1  0  0  0  0
M  CHG  1   1  -1
M  END
