1,2
q = -1.0

 30 30  0  0  0  0  0  0  0  0999 V2000
    1.9176   -0.5125    0.3600 O   0  5  0  0  0  0  0  0  0  0  0  0
   -0.5341   -1.9188   -0.4043 N   0  0  0  0  0  2  0  0  0  0  0  0
    1.7414   -2.8769   -0.2111 C   0  0  0  0  0  0  0  0  0  0  0  0
    2.4539   -1.6971    0.2085 C   0  0  0  0  0  0  0  0  0  0  0  0
    3.8493   -1.8284    0.4866 C   0  0  0  0  0  0  0  0  0  0  0  0
    4.3811   -0.9278    0.8230 H   0  0  0  0  0  0  0  0  0  0  0  0
    4.5087   -3.0419    0.3326 C   0  0  0  0  0  0  0  0  0  0  0  0
    5.5865   -3.1000    0.5516 H   0  0  0  0  0  0  0  0  0  0  0  0
    3.8149   -4.1992   -0.0978 C   0  0  0  0  0  0  0  0  0  0  0  0
    4.3424   -5.1560   -0.2176 H   0  0  0  0  0  0  0  0  0  0  0  0
    2.4544   -4.1033   -0.3561 C   0  0  0  0  0  3  0  0  0  0  0  0
    1.8903   -4.9933   -0.6788 H   0  0  0  0  0  0  0  0  0  0  0  0
    0.3285   -2.9052   -0.4568 C   0  0  0  0  0  0  0  0  0  0  0  0
   -0.0841   -3.9019   -0.7109 H   0  0  0  0  0  0  0  0  0  0  0  0
   -1.9505   -2.2697   -0.5825 C   0  0  0  0  0  0  0  0  0  0  0  0
   -2.0120   -3.2185   -1.1591 H   0  0  0  0  0  0  0  0  0  0  0  0
   -2.4291   -1.4681   -1.1727 H   0  0  0  0  0  0  0  0  0  0  0  0
   -2.6650   -2.4331    0.7652 C   0  0  0  0  0  0  0  0  0  0  0  0
   -2.6039   -1.4694    1.3133 H   0  0  0  0  0  0  0  0  0  0  0  0
   -2.1024   -3.1774    1.3689 H   0  0  0  0  0  0  0  0  0  0  0  0
   -4.1273   -2.8755    0.6363 C   0  0  0  0  0  0  0  0  0  0  0  0
   -4.1807   -3.8230    0.0518 H   0  0  0  0  0  0  0  0  0  0  0  0
   -4.5083   -3.1311    1.6494 H   0  0  0  0  0  0  0  0  0  0  0  0
   -5.0660   -1.8392    0.0075 C   0  0  0  0  0  0  0  0  0  0  0  0
   -4.9990   -0.8953    0.5914 H   0  0  0  0  0  0  0  0  0  0  0  0
   -4.7137   -1.5831   -1.0157 H   0  0  0  0  0  0  0  0  0  0  0  0
   -6.5201   -2.3065   -0.0601 C   0  0  0  0  0  0  0  0  0  0  0  0
   -7.1788   -1.5372   -0.5111 H   0  0  0  0  0  0  0  0  0  0  0  0
   -6.6204   -3.2301   -0.6681 H   0  0  0  0  0  0  0  0  0  0  0  0
   -6.9173   -2.5351    0.9512 H   0  0  0  0  0  0  0  0  0  0  0  0
  3  4  1  0  0  0  0
  4  1  1  0  0  0  0
  4  5  2  0  0  0  0
  5  6  1  0  0  0  0
  7  5  1  0  0  0  0
  7  8  1  0  0  0  0
  9  7  2  0  0  0  0
 10  9  1  0  0  0  0
 11  3  1  0  0  0  0
 11  9  1  0  0  0  0
 12 11  1  0  0  0  0
 13  2  1  0  0  0  0
 13  3  2  0  0  0  0
 14 13  1  0  0  0  0
 15  2  1  0  0  0  0
 15 18  1  0  0  0  0
 16 15  1  0  0  0  0
 17 15  1  0  0  0  0
 18 19  1  0  0  0  0
 18 20  1  0  0  0  0
 21 18  1  0  0  0  0
 21 23  1  0  0  0  0
 22 21  1  0  0  0  0
 24 25  1  0  0  0  0
 24 21  1  0  0  0  0
 26 24  1  0  0  0  0
 27 24  1  0  0  0  0
 27 30  1  0  0  0  0
 28 27  1  0  0  0  0
 29 27  1  0  0  0  0
M  CHG  1   1  -1
M  END
