12,13
q = -1.0

 14 14  0  0  1  0  0  0  0  0999 V2000
    1.8213   -2.1700    0.1225 C   0  0  0  0  0  0  0  0  0  0  0  0
    2.5807   -0.9050   -0.2170 C   0  0  1  0  0  3  0  0  0  0  0  0
    3.8667   -0.6539   -0.7494 C   0  0  0  0  0  0  0  0  0  0  0  0
    4.6284   -1.3961   -1.0056 H   0  0  0  0  0  0  0  0  0  0  0  0
    3.9545    0.7388   -0.8841 C   0  0  0  0  0  0  0  0  0  0  0  0
    5.0511    1.6195   -1.3845 C   0  0  0  0  0  0  0  0  0  0  0  0
    4.7147    2.2521   -2.2317 H   0  0  0  0  0  0  0  0  0  0  0  0
    5.8987    1.0039   -1.7357 H   0  0  0  0  0  0  0  0  0  0  0  0
    5.4287    2.2961   -0.5898 H   0  0  0  0  0  0  0  0  0  0  0  0
    2.7572    1.2350   -0.4401 N   0  0  0  0  0  0  0  0  0  0  0  0
    2.4184    2.2011   -0.3999 H   0  0  0  0  0  0  0  0  0  0  0  0
    1.9348    0.2598   -0.0437 N   0  0  0  0  0  2  0  0  0  0  0  0
    0.6196   -1.9227    0.6147 O   0  5  0  0  0  0  0  0  0  0  0  0
    2.3111   -3.2718   -0.0850 O   0  0  0  0  0  0  0  0  0  0  0  0
  1 13  1  0  0  0  0
  2 12  1  0  0  0  0
  2  1  1  6  0  0  0
  3  2  1  0  0  0  0
  4  3  1  0  0  0  0
  5  3  2  0  0  0  0
  5 10  1  0  0  0  0
  6  5  1  0  0  0  0
  6  9  1  0  0  0  0
  7  6  1  0  0  0  0
  8  6  1  0  0  0  0
 10 11  1  0  0  0  0
 10 12  1  0  0  0  0
 14  1  2  0  0  0  0
M  CHG  1  13  -1
M  END
