4,6
q = 0.0, confidence = 0.998

 26 27  0  0  1  0  0  0  0  0999 V2000
   -1.8444    4.2103   -0.1699 S   0  0  0  0  0  0  0  0  0  0  0  0
    1.0584    3.4308   -0.0207 S   0  0  0  0  0  0  0  0  0  0  0  0
   -4.9070    1.8198    0.5968 O   0  0  0  0  0  0  0  0  0  0  0  0
   -1.7409   -0.7299   -0.3601 O   0  0  0  0  0  1  0  0  0  0  0  0
   -2.3201    1.3798    0.1426 N   0  0  0  0  0  0  0  0  0  0  0  0
   -0.9703    1.6498    0.0884 N   0  0  0  0  0  2  0  0  0  0  0  0
   -5.1724    0.5322    0.2118 C   0  0  0  0  0  0  0  0  0  0  0  0
   -6.4900    0.0480    0.1678 C   0  0  0  0  0  0  0  0  0  0  0  0
   -7.3170    0.7204    0.4506 H   0  0  0  0  0  0  0  0  0  0  0  0
   -6.7523   -1.2694   -0.2317 C   0  0  0  0  0  0  0  0  0  0  0  0
   -7.7912   -1.6302   -0.2623 H   0  0  0  0  0  0  0  0  0  0  0  0
   -5.6893   -2.1161   -0.5917 C   0  0  0  0  0  0  0  0  0  0  0  0
   -5.8871   -3.1495   -0.9112 H   0  0  0  0  0  0  0  0  0  0  0  0
   -4.3783   -1.6385   -0.5437 C   0  0  0  0  0  0  0  0  0  0  0  0
   -3.5269   -2.2759   -0.8208 H   0  0  0  0  0  0  0  0  0  0  0  0
   -4.0846   -0.3136   -0.1417 C   0  0  0  0  0  0  0  0  0  0  0  0
   -2.6718    0.0905   -0.1119 C   0  0  1  0  0  3  0  0  0  0  0  0
   -0.6272    2.9079   -0.0122 C   0  0  0  0  0  3  0  0  0  0  0  0
   -0.6509    5.5394    0.2214 C   0  0  0  0  0  0  0  0  0  0  0  0
   -1.0762    6.4857   -0.1693 H   0  0  0  0  0  0  0  0  0  0  0  0
   -0.5278    5.6146    1.3209 H   0  0  0  0  0  0  0  0  0  0  0  0
    0.6517    5.1612   -0.4679 C   0  0  0  0  0  0  0  0  0  0  0  0
    1.4981    5.7907   -0.1263 H   0  0  0  0  0  0  0  0  0  0  0  0
    0.5591    5.2430   -1.5705 H   0  0  0  0  0  0  0  0  0  0  0  0
   -3.0033    2.0869    0.4465 H   0  0  0  0  0  0  0  0  0  0  0  0
   -5.7419    2.2656    0.8302 H   0  0  0  0  0  0  0  0  0  0  0  0
  1 18  1  0  0  0  0
  1 19  1  0  0  0  0
  2 18  1  0  0  0  0
  3 26  1  0  0  0  0
  5 25  1  0  0  0  0
  6  5  1  0  0  0  0
  7  3  1  0  0  0  0
  8  7  1  0  0  0  0
  8  9  1  0  0  0  0
 10  8  2  0  0  0  0
 11 10  1  0  0  0  0
 12 14  2  0  0  0  0
 12 10  1  0  0  0  0
 13 12  1  0  0  0  0
 14 16  1  0  0  0  0
 15 14  1  0  0  0  0
 16 17  1  0  0  0  0
 16  7  2  0  0  0  0
 17  4  1  6  0  0  0
 17  5  1  0  0  0  0
 18  6  1  0  0  0  0
 19 21  1  0  0  0  0
 20 19  1  0  0  0  0
 22 23  1  0  0  0  0
 22  2  1  0  0  0  0
 22 19  1  0  0  0  0
 24 22  1  0  0  0  0
M  END
