1,4
q = -1.0, confidence = 0.002

 16 16  0  0  1  0  0  0  0  0999 V2000
   -2.0900    0.0327   -0.1158 N   0  0  0  0  0  2  0  0  0  0  0  0
   -4.8302   -0.2967    0.0679 C   0  0  0  0  0  0  0  0  0  0  0  0
   -5.9219   -0.4295    0.1406 H   0  0  0  0  0  0  0  0  0  0  0  0
   -0.3507   -2.0405    0.0026 O   0  5  0  0  0  0  0  0  0  0  0  0
   -2.0643   -3.5188    0.2119 O   0  0  0  0  0  0  0  0  0  0  0  0
   -1.6066   -2.3835    0.1007 C   0  0  0  0  0  0  0  0  0  0  0  0
   -2.5972   -1.2070    0.0381 C   0  0  2  0  0  3  0  0  0  0  0  0
   -3.9831   -1.4071    0.1280 C   0  0  0  0  0  0  0  0  0  0  0  0
   -4.3466   -2.4375    0.2475 H   0  0  0  0  0  0  0  0  0  0  0  0
   -2.8968    1.1071   -0.1686 C   0  0  0  0  0  0  0  0  0  0  0  0
   -2.3901    2.0812   -0.2805 H   0  0  0  0  0  0  0  0  0  0  0  0
   -4.2963    1.0031   -0.0815 C   0  0  0  0  0  0  0  0  0  0  0  0
   -5.1756    2.2219   -0.1391 C   0  0  0  0  0  0  0  0  0  0  0  0
   -5.9080    2.1489   -0.9693 H   0  0  0  0  0  0  0  0  0  0  0  0
   -4.5831    3.1452   -0.2843 H   0  0  0  0  0  0  0  0  0  0  0  0
   -5.7603    2.3352    0.7973 H   0  0  0  0  0  0  0  0  0  0  0  0
  1  7  1  0  0  0  0
  2  8  2  0  0  0  0
  2  3  1  0  0  0  0
  4  6  1  0  0  0  0
  6  5  2  0  0  0  0
  7  6  1  6  0  0  0
  7  8  1  0  0  0  0
  8  9  1  0  0  0  0
 10  1  1  0  0  0  0
 10 12  2  0  0  0  0
 11 10  1  0  0  0  0
 12  2  1  0  0  0  0
 13 12  1  0  0  0  0
 13 16  1  0  0  0  0
 14 13  1  0  0  0  0
 15 13  1  0  0  0  0
M  CHG  1   4  -1
M  END
