1,4
q = -1.0, confidence = 0.088

 51 55  0  0  1  0  0  0  0  0999 V2000
    1.9217   -0.2480   -0.3554 O   0  5  0  0  0  0  0  0  0  0  0  0
    3.0064    1.7974    0.0147 N   0  0  0  0  0  0  0  0  0  0  0  0
    2.6835    3.1330    0.1645 N   0  0  0  0  0  0  0  0  0  0  0  0
   -0.9813    0.2527   -0.3130 N   0  0  0  0  0  2  0  0  0  0  0  0
    1.8788    1.0196   -0.1882 C   0  0  0  0  0  0  0  0  0  0  0  0
    4.3582    1.3954    0.1251 C   0  0  0  0  0  0  0  0  0  0  0  0
    4.7781    0.0953   -0.2342 C   0  0  0  0  0  0  0  0  0  0  0  0
    4.0459   -0.6187   -0.6272 H   0  0  0  0  0  0  0  0  0  0  0  0
    6.1284   -0.2566   -0.0954 C   0  0  0  0  0  0  0  0  0  0  0  0
    6.4470   -1.2709   -0.3817 H   0  0  0  0  0  0  0  0  0  0  0  0
    7.0700    0.6640    0.3889 C   0  0  0  0  0  0  0  0  0  0  0  0
    8.1272    0.3777    0.4929 H   0  0  0  0  0  0  0  0  0  0  0  0
    6.6461    1.9585    0.7322 C   0  0  0  0  0  0  0  0  0  0  0  0
    7.3725    2.6956    1.1076 H   0  0  0  0  0  0  0  0  0  0  0  0
    5.3026    2.3290    0.6044 C   0  0  0  0  0  0  0  0  0  0  0  0
    4.9523    3.3365    0.8618 H   0  0  0  0  0  0  0  0  0  0  0  0
    1.3673    3.2249    0.0688 C   0  0  0  0  0  0  0  0  0  0  0  0
    0.7276    4.5729    0.1736 C   0  0  0  0  0  0  0  0  0  0  0  0
    0.0378    4.6370    1.0384 H   0  0  0  0  0  0  0  0  0  0  0  0
    0.1253    4.8107   -0.7257 H   0  0  0  0  0  0  0  0  0  0  0  0
    1.5220    5.3335    0.2898 H   0  0  0  0  0  0  0  0  0  0  0  0
    0.7674    1.9214   -0.1413 C   0  0  0  0  0  0  0  0  0  0  0  0
   -0.5938    1.5218   -0.2061 C   0  0  1  0  0  3  0  0  0  0  0  0
   -1.6504    2.5874   -0.1971 C   0  0  0  0  0  0  0  0  0  0  0  0
   -2.0560    3.1252   -1.4348 C   0  0  0  0  0  0  0  0  0  0  0  0
   -1.5915    2.7466   -2.3583 H   0  0  0  0  0  0  0  0  0  0  0  0
   -3.0339    4.1288   -1.4778 C   0  0  0  0  0  0  0  0  0  0  0  0
   -3.3454    4.5463   -2.4473 H   0  0  0  0  0  0  0  0  0  0  0  0
   -3.6142    4.5988   -0.2882 C   0  0  0  0  0  0  0  0  0  0  0  0
   -4.3825    5.3860   -0.3230 H   0  0  0  0  0  0  0  0  0  0  0  0
   -3.2135    4.0617    0.9450 C   0  0  0  0  0  0  0  0  0  0  0  0
   -3.6667    4.4257    1.8795 H   0  0  0  0  0  0  0  0  0  0  0  0
   -2.2328    3.0594    0.9927 C   0  0  0  0  0  0  0  0  0  0  0  0
   -1.9167    2.6404    1.9588 H   0  0  0  0  0  0  0  0  0  0  0  0
   -2.3786   -0.0409   -0.3210 C   0  0  0  0  0  0  0  0  0  0  0  0
   -3.0558   -0.1653   -1.5306 C   0  0  0  0  0  0  0  0  0  0  0  0
   -2.4855   -0.0116   -2.4584 H   0  0  0  0  0  0  0  0  0  0  0  0
   -4.4287   -0.5153   -1.5495 C   0  0  0  0  0  0  0  0  0  0  0  0
   -4.9469   -0.6033   -2.5165 H   0  0  0  0  0  0  0  0  0  0  0  0
   -5.1180   -0.7444   -0.3666 C   0  0  0  0  0  0  0  0  0  0  0  0
   -6.1848   -1.0157   -0.3812 H   0  0  0  0  0  0  0  0  0  0  0  0
   -4.4558   -0.6282    0.8902 C   0  0  0  0  0  0  0  0  0  0  0  0
   -5.1308   -0.8560    2.1269 C   0  0  0  0  0  0  0  0  0  0  0  0
   -6.1985   -1.1244    2.1003 H   0  0  0  0  0  0  0  0  0  0  0  0
   -4.4655   -0.7432    3.3381 C   0  0  0  0  0  0  0  0  0  0  0  0
   -5.0028   -0.9223    4.2816 H   0  0  0  0  0  0  0  0  0  0  0  0
   -3.0873   -0.3965    3.3655 C   0  0  0  0  0  0  0  0  0  0  0  0
   -2.5641   -0.3110    4.3301 H   0  0  0  0  0  0  0  0  0  0  0  0
   -2.4000   -0.1641    2.1826 C   0  0  0  0  0  0  0  0  0  0  0  0
   -1.3330    0.1003    2.1999 H   0  0  0  0  0  0  0  0  0  0  0  0
   -3.0581   -0.2689    0.9218 C   0  0  0  0  0  0  0  0  0  0  0  0
  1  5  1  0  0  0  0
  2  6  1  0  0  0  0
  2  3  1  0  0  0  0
  5 22  2  0  0  0  0
  5  2  1  0  0  0  0
  6 15  1  0  0  0  0
  7  9  1  0  0  0  0
  7  6  2  0  0  0  0
  8  7  1  0  0  0  0
  9 11  2  0  0  0  0
 10  9  1  0  0  0  0
 11 12  1  0  0  0  0
 11 13  1  0  0  0  0
 13 14  1  0  0  0  0
 15 13  2  0  0  0  0
 15 16  1  0  0  0  0
 17  3  2  0  0  0  0
 17 18  1  0  0  0  0
 18 21  1  0  0  0  0
 18 19  1  0  0  0  0
 20 18  1  0  0  0  0
 22 17  1  0  0  0  0
 23  4  1  6  0  0  0
 23 24  1  0  0  0  0
 23 22  1  0  0  0  0
 24 33  1  0  0  0  0
 25 24  2  0  0  0  0
 26 25  1  0  0  0  0
 27 25  1  0  0  0  0
 27 29  2  0  0  0  0
 28 27  1  0  0  0  0
 29 31  1  0  0  0  0
 30 29  1  0  0  0  0
 31 33  2  0  0  0  0
 31 32  1  0  0  0  0
 33 34  1  0  0  0  0
 35  4  1  0  0  0  0
 35 51  1  0  0  0  0
 36 35  2  0  0  0  0
 37 36  1  0  0  0  0
 38 36  1  0  0  0  0
 38 40  2  0  0  0  0
 39 38  1  0  0  0  0
 40 42  1  0  0  0  0
 41 40  1  0  0  0  0
 42 51  2  0  0  0  0
 42 43  1  0  0  0  0
 43 45  2  0  0  0  0
 44 43  1  0  0  0  0
 45 47  1  0  0  0  0
 45 46  1  0  0  0  0
 47 48  1  0  0  0  0
 49 50  1  0  0  0  0
 49 47  2  0  0  0  0
 51 49  1  0  0  0  0
M  CHG  1   1  -1
M  END
