2,3
q = 0.0, confidence = 0.996

 37 38  0  0  0  0  0  0  0  0999 V2000
    6.9056   -0.6698   -0.6879 Br  0  0  0  0  0  0  0  0  0  0  0  0
    1.4022    0.6650    1.4842 O   0  5  0  0  0  0  0  0  0  0  0  0
    0.3544   -0.8314   -0.8510 N   0  0  0  0  0  2  0  0  0  0  0  0
   -2.9660   -0.8617   -1.4328 N   0  3  0  0  0  0  0  0  0  0  0  0
    2.7197   -0.4224   -0.2573 C   0  0  0  0  0  0  0  0  0  0  0  0
    2.5415    0.3436    0.9695 C   0  0  0  0  0  0  0  0  0  0  0  0
    3.7408    0.7504    1.6485 C   0  0  0  0  0  0  0  0  0  0  0  0
    3.6075    1.3215    2.5786 H   0  0  0  0  0  0  0  0  0  0  0  0
    5.0060    0.4607    1.1650 C   0  0  0  0  0  0  0  0  0  0  0  0
    5.9000    0.7990    1.7095 H   0  0  0  0  0  0  0  0  0  0  0  0
    5.1569   -0.2765   -0.0384 C   0  0  0  0  0  0  0  0  0  0  0  0
    4.0377   -0.7110   -0.7276 C   0  0  0  0  0  0  0  0  0  0  0  0
    4.1546   -1.2932   -1.6546 H   0  0  0  0  0  0  0  0  0  0  0  0
    1.6449   -0.9738   -1.0306 C   0  0  0  0  0  3  0  0  0  0  0  0
    1.9707   -1.6166   -1.8814 H   0  0  0  0  0  0  0  0  0  0  0  0
   -0.5341   -1.6010   -1.7023 C   0  0  0  0  0  0  0  0  0  0  0  0
   -0.9190   -2.4708   -1.1215 H   0  0  0  0  0  0  0  0  0  0  0  0
    0.0286   -2.0297   -2.5628 H   0  0  0  0  0  0  0  0  0  0  0  0
   -1.7091   -0.7826   -2.2565 C   0  0  0  0  0  0  0  0  0  0  0  0
   -1.4257    0.2895   -2.3005 H   0  0  0  0  0  0  0  0  0  0  0  0
   -1.9857   -1.1233   -3.2740 H   0  0  0  0  0  0  0  0  0  0  0  0
   -3.9126    0.2618   -1.7695 C   0  0  0  0  0  0  0  0  0  0  0  0
   -4.1664    0.1464   -2.8450 H   0  0  0  0  0  0  0  0  0  0  0  0
   -3.3370    1.2003   -1.6235 H   0  0  0  0  0  0  0  0  0  0  0  0
   -5.1500    0.2165   -0.8831 C   0  0  0  0  0  0  0  0  0  0  0  0
   -4.8402    0.4092    0.1669 H   0  0  0  0  0  0  0  0  0  0  0  0
   -5.8103    1.0571   -1.1767 H   0  0  0  0  0  0  0  0  0  0  0  0
   -5.8721   -1.1303   -0.9882 C   0  0  0  0  0  0  0  0  0  0  0  0
   -6.7362   -1.1648   -0.2951 H   0  0  0  0  0  0  0  0  0  0  0  0
   -6.2825   -1.2562   -2.0154 H   0  0  0  0  0  0  0  0  0  0  0  0
   -4.8979   -2.2700   -0.6743 C   0  0  0  0  0  0  0  0  0  0  0  0
   -5.3660   -3.2626   -0.8334 H   0  0  0  0  0  0  0  0  0  0  0  0
   -4.5909   -2.2253    0.3921 H   0  0  0  0  0  0  0  0  0  0  0  0
   -3.6440   -2.2002   -1.5412 C   0  0  0  0  0  0  0  0  0  0  0  0
   -3.8793   -2.3434   -2.6173 H   0  0  0  0  0  0  0  0  0  0  0  0
   -2.9067   -2.9681   -1.2382 H   0  0  0  0  0  0  0  0  0  0  0  0
   -2.6927   -0.7546   -0.3958 H   0  0  0  0  0  0  0  0  0  0  0  0
  1 11  1  0  0  0  0
  4 37  1  0  0  0  0
  5  6  1  0  0  0  0
  6  2  1  0  0  0  0
  6  7  2  0  0  0  0
  7  8  1  0  0  0  0
  9  7  1  0  0  0  0
  9 10  1  0  0  0  0
 11  9  2  0  0  0  0
 12  5  2  0  0  0  0
 12 11  1  0  0  0  0
 13 12  1  0  0  0  0
 14  3  1  0  0  0  0
 14  5  1  0  0  0  0
 15 14  1  0  0  0  0
 16 17  1  0  0  0  0
 16  3  1  0  0  0  0
 18 16  1  0  0  0  0
 19 16  1  0  0  0  0
 19  4  1  0  0  0  0
 20 19  1  0  0  0  0
 21 19  1  0  0  0  0
 22 24  1  0  0  0  0
 22  4  1  0  0  0  0
 22 25  1  0  0  0  0
 23 22  1  0  0  0  0
 25 26  1  0  0  0  0
 27 25  1  0  0  0  0
 28 25  1  0  0  0  0
 28 31  1  0  0  0  0
 28 29  1  0  0  0  0
 30 28  1  0  0  0  0
 31 33  1  0  0  0  0
 32 31  1  0  0  0  0
 34  4  1  0  0  0  0
 34 36  1  0  0  0  0
 34 31  1  0  0  0  0
 35 34  1  0  0  0  0
M  CHG  2   2  -1   4   1
M  END
