1,2
q = -1.0

 45 45  0  0  1  0  0  0  0  0999 V2000
   -0.5419    0.0005    1.8490 O   0  0  0  0  0  1  0  0  0  0  0  0
    0.9595   -0.0001    0.2384 N   0  0  0  0  0  2  0  0  0  0  0  0
    2.8040    1.2356   -0.8094 C   0  0  0  0  0  0  0  0  0  0  0  0
    2.2041   -0.0003   -0.4309 C   0  0  0  0  0  0  0  0  0  0  0  0
    0.7336    0.0004    1.5314 C   0  0  2  0  0  3  0  0  0  0  0  0
    2.1151    2.5711   -0.5499 C   0  0  0  0  0  0  0  0  0  0  0  0
    1.1260    2.3455   -0.1015 H   0  0  0  0  0  0  0  0  0  0  0  0
    2.8036   -1.2365   -0.8091 C   0  0  0  0  0  0  0  0  0  0  0  0
    4.0514    1.2076   -1.4589 C   0  0  0  0  0  0  0  0  0  0  0  0
    4.5338    2.1590   -1.7329 H   0  0  0  0  0  0  0  0  0  0  0  0
    1.3741    1.2599    3.5701 C   0  0  0  0  0  0  0  0  0  0  0  0
    1.5565    2.1869    2.9905 H   0  0  0  0  0  0  0  0  0  0  0  0
    2.0209    1.2835    4.4706 H   0  0  0  0  0  0  0  0  0  0  0  0
    0.3169    1.2600    3.8960 H   0  0  0  0  0  0  0  0  0  0  0  0
    4.0510   -1.2091   -1.4586 C   0  0  0  0  0  0  0  0  0  0  0  0
    4.5331   -2.1608   -1.7324 H   0  0  0  0  0  0  0  0  0  0  0  0
    1.8684    3.3203   -1.8714 C   0  0  0  0  0  0  0  0  0  0  0  0
    2.8217    3.5664   -2.3835 H   0  0  0  0  0  0  0  0  0  0  0  0
    1.3338    4.2749   -1.6892 H   0  0  0  0  0  0  0  0  0  0  0  0
    1.2579    2.7146   -2.5697 H   0  0  0  0  0  0  0  0  0  0  0  0
    4.6880   -0.0009   -1.7658 C   0  0  0  0  0  0  0  0  0  0  0  0
    5.6690   -0.0011   -2.2645 H   0  0  0  0  0  0  0  0  0  0  0  0
    1.6958    0.0008    2.7318 C   0  0  0  0  0  0  0  0  0  0  0  0
    1.3738   -1.2577    3.5711 C   0  0  0  0  0  0  0  0  0  0  0  0
    0.3166   -1.2572    3.8971 H   0  0  0  0  0  0  0  0  0  0  0  0
    2.0207   -1.2807    4.4716 H   0  0  0  0  0  0  0  0  0  0  0  0
    1.5560   -2.1851    2.9922 H   0  0  0  0  0  0  0  0  0  0  0  0
    3.1906    0.0004    2.3766 C   0  0  0  0  0  0  0  0  0  0  0  0
    3.4870   -0.8892    1.7925 H   0  0  0  0  0  0  0  0  0  0  0  0
    3.7777    0.0007    3.3177 H   0  0  0  0  0  0  0  0  0  0  0  0
    3.4873    0.8896    1.7919 H   0  0  0  0  0  0  0  0  0  0  0  0
    2.8963    3.4572    0.4350 C   0  0  0  0  0  0  0  0  0  0  0  0
    3.0604    2.9493    1.4057 H   0  0  0  0  0  0  0  0  0  0  0  0
    2.3443    4.3988    0.6359 H   0  0  0  0  0  0  0  0  0  0  0  0
    3.8930    3.7328    0.0309 H   0  0  0  0  0  0  0  0  0  0  0  0
    2.1143   -2.5717   -0.5492 C   0  0  0  0  0  0  0  0  0  0  0  0
    1.1252   -2.3457   -0.1010 H   0  0  0  0  0  0  0  0  0  0  0  0
    1.8676   -3.3215   -1.8704 C   0  0  0  0  0  0  0  0  0  0  0  0
    1.2574   -2.7159   -2.5691 H   0  0  0  0  0  0  0  0  0  0  0  0
    1.3327   -4.2758   -1.6879 H   0  0  0  0  0  0  0  0  0  0  0  0
    2.8209   -3.5681   -2.3823 H   0  0  0  0  0  0  0  0  0  0  0  0
    2.8951   -3.4577    0.4362 C   0  0  0  0  0  0  0  0  0  0  0  0
    3.8918   -3.7336    0.0325 H   0  0  0  0  0  0  0  0  0  0  0  0
    2.3429   -4.3990    0.6373 H   0  0  0  0  0  0  0  0  0  0  0  0
    3.0590   -2.9494    1.4068 H   0  0  0  0  0  0  0  0  0  0  0  0
  2  5  1  0  0  0  0
  3  6  1  0  0  0  0
  3  4  1  0  0  0  0
  4  2  1  0  0  0  0
  5  1  1  1  0  0  0
  5 23  1  0  0  0  0
  6  7  1  0  0  0  0
  6 32  1  0  0  0  0
  8 36  1  0  0  0  0
  8  4  2  0  0  0  0
  9  3  2  0  0  0  0
 10  9  1  0  0  0  0
 11 14  1  0  0  0  0
 11 13  1  0  0  0  0
 12 11  1  0  0  0  0
 15  8  1  0  0  0  0
 16 15  1  0  0  0  0
 17 19  1  0  0  0  0
 17  6  1  0  0  0  0
 18 17  1  0  0  0  0
 20 17  1  0  0  0  0
 21  9  1  0  0  0  0
 21 15  2  0  0  0  0
 22 21  1  0  0  0  0
 23 11  1  0  0  0  0
 23 24  1  0  0  0  0
 24 25  1  0  0  0  0
 24 26  1  0  0  0  0
 27 24  1  0  0  0  0
 28 23  1  0  0  0  0
 28 30  1  0  0  0  0
 29 28  1  0  0  0  0
 31 28  1  0  0  0  0
 32 34  1  0  0  0  0
 32 33  1  0  0  0  0
 35 32  1  0  0  0  0
 36 37  1  0  0  0  0
 36 42  1  0  0  0  0
 38 40  1  0  0  0  0
 38 36  1  0  0  0  0
 39 38  1  0  0  0  0
 41 38  1  0  0  0  0
 42 44  1  0  0  0  0
 42 45  1  0  0  0  0
 43 42  1  0  0  0  0
M  END
