1,2
q = -2.0, confidence = 0.772

 25 25  0  0  1  0  0  0  0  0999 V2000
   -1.3539    0.5601    0.2039 O   0  0  0  0  0  1  0  0  0  0  0  0
   -0.5830   -1.8404    0.0798 N   0  0  0  0  0  2  0  0  0  0  0  0
   -2.3343   -0.3238    0.7334 C   0  0  2  0  0  0  0  0  0  0  0  0
   -2.0521   -1.7578    0.1924 C   0  0  1  0  0  0  0  0  0  0  0  0
   -2.7238   -2.0722   -1.1494 C   0  0  0  0  0  0  0  0  0  0  0  0
   -0.0056   -3.1148    0.4423 C   0  0  0  0  0  0  0  0  0  0  0  0
   -3.7342    0.1790    0.4497 C   0  0  0  0  0  0  0  0  0  0  0  0
   -3.9861    1.0272   -0.6444 C   0  0  0  0  0  0  0  0  0  0  0  0
   -5.2943    1.4434   -0.9343 C   0  0  0  0  0  0  0  0  0  0  0  0
   -6.3667    1.0165   -0.1350 C   0  0  0  0  0  0  0  0  0  0  0  0
   -6.1221    0.1746    0.9624 C   0  0  0  0  0  0  0  0  0  0  0  0
   -4.8132   -0.2367    1.2535 C   0  0  0  0  0  0  0  0  0  0  0  0
   -2.2060   -0.3555    1.8434 H   0  0  0  0  0  0  0  0  0  0  0  0
   -2.4060   -2.4919    0.9536 H   0  0  0  0  0  0  0  0  0  0  0  0
   -2.3948   -3.0661   -1.5138 H   0  0  0  0  0  0  0  0  0  0  0  0
   -3.8276   -2.0813   -1.0587 H   0  0  0  0  0  0  0  0  0  0  0  0
   -2.4414   -1.3216   -1.9141 H   0  0  0  0  0  0  0  0  0  0  0  0
   -0.2978   -3.4298    1.4736 H   0  0  0  0  0  0  0  0  0  0  0  0
   -0.3332   -3.9294   -0.2477 H   0  0  0  0  0  0  0  0  0  0  0  0
    1.0988   -3.0618    0.4025 H   0  0  0  0  0  0  0  0  0  0  0  0
   -3.1370    1.3577   -1.2599 H   0  0  0  0  0  0  0  0  0  0  0  0
   -5.4786    2.1080   -1.7925 H   0  0  0  0  0  0  0  0  0  0  0  0
   -7.3926    1.3440   -0.3627 H   0  0  0  0  0  0  0  0  0  0  0  0
   -6.9561   -0.1576    1.5999 H   0  0  0  0  0  0  0  0  0  0  0  0
   -4.6230   -0.8899    2.1210 H   0  0  0  0  0  0  0  0  0  0  0  0
  1  3  1  0  0  0  0
  2  4  1  0  0  0  0
  2  6  1  0  0  0  0
  3 13  1  1  0  0  0
  4  3  1  0  0  0  0
  4 14  1  1  0  0  0
  5 16  1  0  0  0  0
  5  4  1  0  0  0  0
  6 18  1  0  0  0  0
  7  3  1  0  0  0  0
  7 12  1  0  0  0  0
  8  7  2  0  0  0  0
  9  8  1  0  0  0  0
  9 10  2  0  0  0  0
 10 11  1  0  0  0  0
 11 12  2  0  0  0  0
 11 24  1  0  0  0  0
 12 25  1  0  0  0  0
 15  5  1  0  0  0  0
 17  5  1  0  0  0  0
 19  6  1  0  0  0  0
 20  6  1  0  0  0  0
 21  8  1  0  0  0  0
 22  9  1  0  0  0  0
 23 10  1  0  0  0  0
M  END
