1,11
q = -1.0, confidence = 0.0

 15 14  0  0  1  0  0  0  0  0999 V2000
   -1.8691    0.1751   -0.2053 O   0  5  0  0  0  0  0  0  0  0  0  0
   -3.4688   -2.1904   -1.1185 C   0  0  1  0  0  3  0  0  0  0  0  0
   -3.9626   -0.9262   -0.6654 C   0  0  0  0  0  0  0  0  0  0  0  0
   -5.0490   -0.7769   -0.6460 H   0  0  0  0  0  0  0  0  0  0  0  0
   -3.1539    0.1274   -0.2622 C   0  0  0  0  0  0  0  0  0  0  0  0
   -3.7950    1.4563    0.1568 C   0  0  0  0  0  0  0  0  0  0  0  0
   -4.4924   -3.2085   -1.5674 C   0  0  0  0  0  0  0  0  0  0  0  0
   -5.0777   -2.8192   -2.4257 H   0  0  0  0  0  0  0  0  0  0  0  0
   -5.2155   -3.4189   -0.7531 H   0  0  0  0  0  0  0  0  0  0  0  0
   -4.0201   -4.1629   -1.8710 H   0  0  0  0  0  0  0  0  0  0  0  0
   -2.1828   -2.4940   -1.1598 N   0  0  0  0  0  2  0  0  0  0  0  0
   -2.0170   -3.4420   -1.5121 H   0  0  0  0  0  0  0  0  0  0  0  0
   -3.2637    1.8999    1.3211 F   0  0  0  0  0  0  0  0  0  0  0  0
   -3.5613    2.4161   -0.7770 F   0  0  0  0  0  0  0  0  0  0  0  0
   -5.1336    1.3717    0.3200 F   0  0  0  0  0  0  0  0  0  0  0  0
  2 11  1  6  0  0  0
  2  3  1  0  0  0  0
  3  4  1  0  0  0  0
  3  5  2  0  0  0  0
  5  1  1  0  0  0  0
  5  6  1  0  0  0  0
  6 15  1  0  0  0  0
  6 13  1  0  0  0  0
  7  2  1  0  0  0  0
  7  9  1  0  0  0  0
  8  7  1  0  0  0  0
 10  7  1  0  0  0  0
 12 11  1  0  0  0  0
 14  6  1  0  0  0  0
M  CHG  1   1  -1
M  END
