4,5
q = -1.0, confidence = 0.006

 34 34  0  0  1  0  0  0  0  0999 V2000
    5.2954    0.2854   -0.8005 F   0  0  0  0  0  0  0  0  0  0  0  0
    4.3600   -1.6781   -1.0026 F   0  0  0  0  0  0  0  0  0  0  0  0
    4.2761   -0.2581   -2.6544 F   0  0  0  0  0  0  0  0  0  0  0  0
    0.5086    1.4024    0.3346 N   0  0  0  0  0  2  0  0  0  0  0  0
    1.8663   -0.4440   -1.2381 O   0  5  0  0  0  0  0  0  0  0  0  0
   -0.7087    1.9677    0.8165 C   0  0  0  0  0  0  0  0  0  0  0  0
   -1.4212    1.3556    1.8670 C   0  0  0  0  0  0  0  0  0  0  0  0
   -1.0014    0.4685    2.3585 H   0  0  0  0  0  0  0  0  0  0  0  0
   -2.6417    1.8930    2.2955 C   0  0  0  0  0  0  0  0  0  0  0  0
   -3.1821    1.4126    3.1255 H   0  0  0  0  0  0  0  0  0  0  0  0
   -3.1758    3.0307    1.6708 C   0  0  0  0  0  0  0  0  0  0  0  0
   -4.1391    3.4448    2.0029 H   0  0  0  0  0  0  0  0  0  0  0  0
   -2.4851    3.6183    0.5991 C   0  0  0  0  0  0  0  0  0  0  0  0
   -2.9110    4.4893    0.0789 H   0  0  0  0  0  0  0  0  0  0  0  0
   -1.2654    3.0867    0.1626 C   0  0  0  0  0  0  0  0  0  0  0  0
   -0.7449    3.5014   -0.7116 H   0  0  0  0  0  0  0  0  0  0  0  0
    1.7090    1.8309    0.6902 C   0  0  2  0  0  3  0  0  0  0  0  0
    1.9915    3.0068    1.6783 C   0  0  0  0  0  0  0  0  0  0  0  0
    3.3860    2.8535    2.3372 C   0  0  0  0  0  0  0  0  0  0  0  0
    4.2241    2.9955    1.6291 H   0  0  0  0  0  0  0  0  0  0  0  0
    3.5052    1.8649    2.8250 H   0  0  0  0  0  0  0  0  0  0  0  0
    3.4977    3.6318    3.1172 H   0  0  0  0  0  0  0  0  0  0  0  0
    1.9909    4.3031    0.8307 C   0  0  0  0  0  0  0  0  0  0  0  0
    0.9841    4.5197    0.4275 H   0  0  0  0  0  0  0  0  0  0  0  0
    2.6961    4.2283   -0.0210 H   0  0  0  0  0  0  0  0  0  0  0  0
    2.3012    5.1600    1.4635 H   0  0  0  0  0  0  0  0  0  0  0  0
    0.9854    3.1513    2.8422 C   0  0  0  0  0  0  0  0  0  0  0  0
    1.3855    3.9024    3.5524 H   0  0  0  0  0  0  0  0  0  0  0  0
    0.8590    2.2010    3.3978 H   0  0  0  0  0  0  0  0  0  0  0  0
   -0.0105    3.4992    2.5244 H   0  0  0  0  0  0  0  0  0  0  0  0
    2.8860    1.2465    0.0909 C   0  0  0  0  0  0  0  0  0  0  0  0
    3.8628    1.6416    0.3736 H   0  0  0  0  0  0  0  0  0  0  0  0
    2.8993    0.1839   -0.7820 C   0  0  0  0  0  0  0  0  0  0  0  0
    4.2272   -0.3707   -1.3123 C   0  0  0  0  0  0  0  0  0  0  0  0
  3 34  1  0  0  0  0
  4 17  1  0  0  0  0
  4  6  1  0  0  0  0
  5 33  1  0  0  0  0
  6  7  1  0  0  0  0
  7  9  2  0  0  0  0
  7  8  1  0  0  0  0
  9 10  1  0  0  0  0
 11 12  1  0  0  0  0
 11  9  1  0  0  0  0
 13 11  2  0  0  0  0
 14 13  1  0  0  0  0
 15 13  1  0  0  0  0
 15  6  2  0  0  0  0
 16 15  1  0  0  0  0
 17 31  1  6  0  0  0
 17 18  1  0  0  0  0
 18 19  1  0  0  0  0
 18 27  1  0  0  0  0
 19 21  1  0  0  0  0
 19 22  1  0  0  0  0
 20 19  1  0  0  0  0
 23 26  1  0  0  0  0
 23 18  1  0  0  0  0
 24 23  1  0  0  0  0
 25 23  1  0  0  0  0
 27 29  1  0  0  0  0
 27 28  1  0  0  0  0
 30 27  1  0  0  0  0
 31 32  1  0  0  0  0
 33 31  2  0  0  0  0
 34  2  1  0  0  0  0
 34  1  1  0  0  0  0
 34 33  1  0  0  0  0
M  CHG  1   5  -1
M  END
