1,4
q = -1.0, confidence = 0.024

 30 31  0  0  0  0  0  0  0  0999 V2000
   -1.3348   -2.1353   -0.1855 O   0  5  0  0  0  0  0  0  0  0  0  0
   -7.5227   -1.2940    0.1517 O   0  0  0  0  0  0  0  0  0  0  0  0
   -6.9863    0.5036   -0.9755 O   0  0  0  0  0  0  0  0  0  0  0  0
   -0.7791    0.3411   -1.6843 N   0  0  0  0  0  2  0  0  0  0  0  0
   -6.7062   -0.5605   -0.4137 N   0  0  0  0  0  0  0  0  0  0  0  0
   -2.9788   -0.5308   -0.9981 C   0  0  0  0  0  0  0  0  0  0  0  0
   -2.5613   -1.7481   -0.3103 C   0  0  0  0  0  0  0  0  0  0  0  0
   -3.6006   -2.5618    0.2602 C   0  0  0  0  0  0  0  0  0  0  0  0
   -3.2788   -3.4909    0.7524 H   0  0  0  0  0  0  0  0  0  0  0  0
   -4.9319   -2.1886    0.2314 C   0  0  0  0  0  0  0  0  0  0  0  0
   -5.7200   -2.7984    0.6941 H   0  0  0  0  0  0  0  0  0  0  0  0
   -5.3018   -0.9808   -0.4072 C   0  0  0  0  0  0  0  0  0  0  0  0
   -4.3487   -0.1836   -1.0286 C   0  0  0  0  0  0  0  0  0  0  0  0
   -4.6850    0.7356   -1.5296 H   0  0  0  0  0  0  0  0  0  0  0  0
   -2.0827    0.3670   -1.6862 C   0  0  0  0  0  3  0  0  0  0  0  0
   -2.5826    1.1585   -2.2875 H   0  0  0  0  0  0  0  0  0  0  0  0
   -0.0362    1.3326   -2.4677 C   0  0  0  0  0  0  0  0  0  0  0  0
   -0.7249    1.8602   -3.1631 H   0  0  0  0  0  0  0  0  0  0  0  0
    0.7158    0.7862   -3.0738 H   0  0  0  0  0  0  0  0  0  0  0  0
    0.6587    2.3283   -1.5598 C   0  0  0  0  0  0  0  0  0  0  0  0
    0.0079    3.5149   -1.1712 C   0  0  0  0  0  0  0  0  0  0  0  0
   -0.9872    3.7483   -1.5820 H   0  0  0  0  0  0  0  0  0  0  0  0
    0.6140    4.3963   -0.2638 C   0  0  0  0  0  0  0  0  0  0  0  0
    0.0980    5.3235    0.0283 H   0  0  0  0  0  0  0  0  0  0  0  0
    1.8767    4.0950    0.2740 C   0  0  0  0  0  0  0  0  0  0  0  0
    2.3496    4.7838    0.9902 H   0  0  0  0  0  0  0  0  0  0  0  0
    2.5388    2.9206   -0.1182 C   0  0  0  0  0  0  0  0  0  0  0  0
    3.5350    2.6823    0.2847 H   0  0  0  0  0  0  0  0  0  0  0  0
    1.9346    2.0475   -1.0355 C   0  0  0  0  0  0  0  0  0  0  0  0
    2.4626    1.1377   -1.3542 H   0  0  0  0  0  0  0  0  0  0  0  0
  3  5  2  0  0  0  0
  5 12  1  0  0  0  0
  5  2  2  0  0  0  0
  6  7  1  0  0  0  0
  7  1  1  0  0  0  0
  7  8  2  0  0  0  0
  8  9  1  0  0  0  0
 10  8  1  0  0  0  0
 10 11  1  0  0  0  0
 12 10  2  0  0  0  0
 13  6  2  0  0  0  0
 13 12  1  0  0  0  0
 14 13  1  0  0  0  0
 15  4  1  0  0  0  0
 15  6  1  0  0  0  0
 16 15  1  0  0  0  0
 17  4  1  0  0  0  0
 17 20  1  0  0  0  0
 18 17  1  0  0  0  0
 19 17  1  0  0  0  0
 20 21  2  0  0  0  0
 20 29  1  0  0  0  0
 21 23  1  0  0  0  0
 22 21  1  0  0  0  0
 23 24  1  0  0  0  0
 23 25  2  0  0  0  0
 25 26  1  0  0  0  0
 27 25  1  0  0  0  0
 27 28  1  0  0  0  0
 29 27  2  0  0  0  0
 30 29  1  0  0  0  0
M  CHG  1   1  -1
M  END
