1,2
q = -1.0, confidence = 0.006

 14 14  0  0  1  0  0  0  0  0999 V2000
   -1.9725   -1.0603   -1.4793 O   0  0  0  0  0  1  0  0  0  0  0  0
   -2.4852   -0.4344    0.5585 N   0  0  0  0  0  2  0  0  0  0  0  0
   -2.9472   -0.9328   -0.6337 C   0  0  1  0  0  3  0  0  0  0  0  0
   -4.3311   -1.1740   -0.8185 C   0  0  0  0  0  0  0  0  0  0  0  0
   -4.7009   -1.5753   -1.7703 H   0  0  0  0  0  0  0  0  0  0  0  0
   -5.1887   -0.8447    0.2338 C   0  0  0  0  0  0  0  0  0  0  0  0
   -4.6927   -0.2715    1.4310 C   0  0  0  0  0  0  0  0  0  0  0  0
   -5.3696    0.0108    2.2475 H   0  0  0  0  0  0  0  0  0  0  0  0
   -3.3168   -0.0693    1.5479 C   0  0  0  0  0  0  0  0  0  0  0  0
   -2.8626    0.3899    2.4398 H   0  0  0  0  0  0  0  0  0  0  0  0
   -6.6738   -1.1005    0.1168 C   0  0  0  0  0  0  0  0  0  0  0  0
   -7.3910   -0.0098    0.4849 F   0  0  0  0  0  0  0  0  0  0  0  0
   -7.0435   -1.4267   -1.1419 F   0  0  0  0  0  0  0  0  0  0  0  0
   -7.0597   -2.1171    0.9284 F   0  0  0  0  0  0  0  0  0  0  0  0
  2  9  1  0  0  0  0
  3  1  1  6  0  0  0
  3  2  1  0  0  0  0
  4  3  1  0  0  0  0
  4  6  2  0  0  0  0
  5  4  1  0  0  0  0
  6  7  1  0  0  0  0
  7  9  2  0  0  0  0
  7  8  1  0  0  0  0
  9 10  1  0  0  0  0
 11  6  1  0  0  0  0
 11 12  1  0  0  0  0
 11 14  1  0  0  0  0
 13 11  1  0  0  0  0
M  END
