1,2
q = -1.0

 20 21  0  0  1  0  0  0  0  0999 V2000
    0.7055    2.2811   -0.1920 O   0  5  0  0  0  0  0  0  0  0  0  0
    1.2651    0.1925   -0.5302 N   0  0  0  0  0  2  0  0  0  0  0  0
    1.6950    1.4461   -0.2442 C   0  0  0  0  0  0  0  0  0  0  0  0
    3.0751    1.7101    0.0013 C   0  0  0  0  0  0  0  0  0  0  0  0
    3.4028    2.7386    0.1975 H   0  0  0  0  0  0  0  0  0  0  0  0
    3.9584    0.6444    0.0023 C   0  0  0  0  0  0  0  0  0  0  0  0
    3.4922   -0.7078   -0.1959 C   0  0  0  0  0  0  0  0  0  0  0  0
    4.3260   -1.8599   -0.1405 C   0  0  0  0  0  0  0  0  0  0  0  0
    5.4037   -1.7384    0.0282 H   0  0  0  0  0  0  0  0  0  0  0  0
    3.7927   -3.1363   -0.2810 C   0  0  0  0  0  0  0  0  0  0  0  0
    4.4548   -4.0130   -0.2285 H   0  0  0  0  0  0  0  0  0  0  0  0
    2.4005   -3.3107   -0.4733 C   0  0  0  0  0  0  0  0  0  0  0  0
    1.9816   -4.3251   -0.5561 H   0  0  0  0  0  0  0  0  0  0  0  0
    1.5545   -2.2112   -0.5508 C   0  0  0  0  0  0  0  0  0  0  0  0
    0.4701   -2.3267   -0.6768 H   0  0  0  0  0  0  0  0  0  0  0  0
    2.0812   -0.8977   -0.4352 C   0  0  1  0  0  3  0  0  0  0  0  0
    5.4264    0.9128    0.2570 C   0  0  0  0  0  0  0  0  0  0  0  0
    5.6858    2.2297    0.4133 F   0  0  0  0  0  0  0  0  0  0  0  0
    5.8620    0.2830    1.3790 F   0  0  0  0  0  0  0  0  0  0  0  0
    6.1991    0.4702   -0.7684 F   0  0  0  0  0  0  0  0  0  0  0  0
  2 16  1  0  0  0  0
  2  3  1  0  0  0  0
  3  1  1  0  0  0  0
  3  4  2  0  0  0  0
  4  6  1  0  0  0  0
  4  5  1  0  0  0  0
  6 17  1  0  0  0  0
  7  8  1  0  0  0  0
  7  6  2  0  0  0  0
  8  9  1  0  0  0  0
 10 11  1  0  0  0  0
 10  8  2  0  0  0  0
 12 10  1  0  0  0  0
 13 12  1  0  0  0  0
 14 12  2  0  0  0  0
 15 14  1  0  0  0  0
 16 14  1  1  0  0  0
 16  7  1  0  0  0  0
 17 18  1  0  0  0  0
 17 19  1  0  0  0  0
 20 17  1  0  0  0  0
M  CHG  1   1  -1
M  END
