1,3
q = -1.0

 23 24  0  0  1  0  0  0  0  0999 V2000
    0.1404    0.0536   -1.3406 O   0  5  0  0  0  0  0  0  0  0  0  0
   -3.7770    1.2134   -0.6683 O   0  0  0  0  0  0  0  0  0  0  0  0
   -2.1828   -0.3653    0.0680 N   0  0  0  0  0  2  0  0  0  0  0  0
   -0.2278    1.3194   -1.4265 C   0  0  0  0  0  0  0  0  0  0  0  0
   -1.5232    1.7495   -0.9956 C   0  0  0  0  0  0  0  0  0  0  0  0
   -1.8739    3.1153   -1.1151 C   0  0  0  0  0  0  0  0  0  0  0  0
   -2.8785    3.4278   -0.7975 H   0  0  0  0  0  0  0  0  0  0  0  0
   -0.9641    4.0525   -1.6103 C   0  0  0  0  0  0  0  0  0  0  0  0
   -1.2465    5.1132   -1.6761 H   0  0  0  0  0  0  0  0  0  0  0  0
    0.3107    3.6252   -2.0365 C   0  0  0  0  0  0  0  0  0  0  0  0
    1.0303    4.3566   -2.4361 H   0  0  0  0  0  0  0  0  0  0  0  0
    0.6700    2.2781   -1.9601 C   0  0  0  0  0  0  0  0  0  0  0  0
    1.6563    1.9201   -2.2882 H   0  0  0  0  0  0  0  0  0  0  0  0
   -2.5061    0.7809   -0.4944 C   0  0  2  0  0  3  0  0  0  0  0  0
   -4.8655    0.3128   -0.4041 C   0  0  0  0  0  0  0  0  0  0  0  0
   -5.0151   -0.3237   -1.3044 H   0  0  0  0  0  0  0  0  0  0  0  0
   -5.7558    0.9585   -0.2807 H   0  0  0  0  0  0  0  0  0  0  0  0
   -4.5604   -0.5330    0.8146 C   0  0  0  0  0  0  0  0  0  0  0  0
   -5.3728   -1.2649    0.9954 H   0  0  0  0  0  0  0  0  0  0  0  0
   -4.4950    0.1190    1.7115 H   0  0  0  0  0  0  0  0  0  0  0  0
   -3.2414   -1.2555    0.5771 C   0  0  0  0  0  0  0  0  0  0  0  0
   -2.8575   -1.7101    1.5108 H   0  0  0  0  0  0  0  0  0  0  0  0
   -3.3417   -2.0883   -0.1524 H   0  0  0  0  0  0  0  0  0  0  0  0
  2 14  1  0  0  0  0
  2 15  1  0  0  0  0
  3 21  1  0  0  0  0
  4  1  1  0  0  0  0
  4  5  1  0  0  0  0
  6  5  2  0  0  0  0
  6  7  1  0  0  0  0
  8  6  1  0  0  0  0
  9  8  1  0  0  0  0
 10 12  1  0  0  0  0
 10  8  2  0  0  0  0
 11 10  1  0  0  0  0
 12  4  2  0  0  0  0
 13 12  1  0  0  0  0
 14  5  1  1  0  0  0
 14  3  1  0  0  0  0
 15 17  1  0  0  0  0
 15 18  1  0  0  0  0
 16 15  1  0  0  0  0
 18 19  1  0  0  0  0
 18 20  1  0  0  0  0
 21 18  1  0  0  0  0
 21 22  1  0  0  0  0
 23 21  1  0  0  0  0
M  CHG  1   1  -1
M  END
