3,4
q = -1.0, confidence = 0.0

 37 38  0  0  1  0  0  0  0  0999 V2000
    4.1031   -0.9922   -2.2356 Cl  0  0  0  0  0  0  0  0  0  0  0  0
    6.6130    3.0031    0.4577 Cl  0  0  0  0  0  0  0  0  0  0  0  0
    0.3542    1.7372    1.0137 N   0  0  0  0  0  2  0  0  0  0  0  0
    1.7149   -0.0322   -0.8835 O   0  5  0  0  0  0  0  0  0  0  0  0
    2.7502    0.6698   -0.5511 C   0  0  0  0  0  0  0  0  0  0  0  0
    4.0343    0.3468   -1.1231 C   0  0  0  0  0  0  0  0  0  0  0  0
    5.1979    1.0443   -0.8186 C   0  0  0  0  0  0  0  0  0  0  0  0
    6.1502    0.7502   -1.2797 H   0  0  0  0  0  0  0  0  0  0  0  0
    5.1470    2.1286    0.0869 C   0  0  0  0  0  0  0  0  0  0  0  0
    3.9411    2.4920    0.6701 C   0  0  0  0  0  0  0  0  0  0  0  0
    3.9080    3.3398    1.3701 H   0  0  0  0  0  0  0  0  0  0  0  0
    2.7422    1.7804    0.3810 C   0  0  0  0  0  0  0  0  0  0  0  0
    1.5470    2.2631    1.0349 C   0  0  0  0  0  3  0  0  0  0  0  0
    1.6796    3.2012    1.6189 H   0  0  0  0  0  0  0  0  0  0  0  0
   -0.7561    2.4338    1.6732 C   0  0  2  0  0  0  0  0  0  0  0  0
   -0.3377    3.2996    2.2427 H   0  0  0  0  0  0  0  0  0  0  0  0
   -1.4285    1.4699    2.6559 C   0  0  0  0  0  0  0  0  0  0  0  0
   -1.9196    0.6330    2.1168 H   0  0  0  0  0  0  0  0  0  0  0  0
   -2.2010    1.9860    3.2558 H   0  0  0  0  0  0  0  0  0  0  0  0
   -0.6827    1.0427    3.3546 H   0  0  0  0  0  0  0  0  0  0  0  0
   -1.7237    2.9952    0.5982 C   0  0  0  0  0  0  0  0  0  0  0  0
   -2.1034    2.1243    0.0197 H   0  0  0  0  0  0  0  0  0  0  0  0
   -2.9299    3.7191    1.2235 C   0  0  0  0  0  0  0  0  0  0  0  0
   -3.4912    3.0343    1.8913 H   0  0  0  0  0  0  0  0  0  0  0  0
   -2.5602    4.5542    1.8638 H   0  0  0  0  0  0  0  0  0  0  0  0
   -3.8807    4.2748    0.1537 C   0  0  0  0  0  0  0  0  0  0  0  0
   -4.3282    3.4233   -0.4045 H   0  0  0  0  0  0  0  0  0  0  0  0
   -4.7218    4.8124    0.6399 H   0  0  0  0  0  0  0  0  0  0  0  0
   -3.1514    5.1914   -0.8346 C   0  0  0  0  0  0  0  0  0  0  0  0
   -2.7937    6.1005   -0.2994 H   0  0  0  0  0  0  0  0  0  0  0  0
   -3.8500    5.5464   -1.6211 H   0  0  0  0  0  0  0  0  0  0  0  0
   -1.9547    4.4701   -1.4639 C   0  0  0  0  0  0  0  0  0  0  0  0
   -1.4058    5.1468   -2.1518 H   0  0  0  0  0  0  0  0  0  0  0  0
   -2.3220    3.6206   -2.0806 H   0  0  0  0  0  0  0  0  0  0  0  0
   -1.0007    3.9211   -0.3959 C   0  0  0  0  0  0  0  0  0  0  0  0
   -0.1684    3.3769   -0.8867 H   0  0  0  0  0  0  0  0  0  0  0  0
   -0.5397    4.7683    0.1651 H   0  0  0  0  0  0  0  0  0  0  0  0
  1  6  1  0  0  0  0
  3 13  1  0  0  0  0
  3 15  1  0  0  0  0
  4  5  1  0  0  0  0
  5 12  1  0  0  0  0
  6  7  1  0  0  0  0
  6  5  2  0  0  0  0
  7  9  2  0  0  0  0
  8  7  1  0  0  0  0
  9  2  1  0  0  0  0
  9 10  1  0  0  0  0
 10 11  1  0  0  0  0
 12 10  2  0  0  0  0
 12 13  1  0  0  0  0
 13 14  1  0  0  0  0
 15 16  1  1  0  0  0
 15 17  1  0  0  0  0
 17 19  1  0  0  0  0
 17 20  1  0  0  0  0
 18 17  1  0  0  0  0
 21 23  1  0  0  0  0
 21 15  1  0  0  0  0
 22 21  1  0  0  0  0
 23 25  1  0  0  0  0
 23 24  1  0  0  0  0
 26 28  1  0  0  0  0
 26 23  1  0  0  0  0
 27 26  1  0  0  0  0
 29 30  1  0  0  0  0
 29 26  1  0  0  0  0
 31 29  1  0  0  0  0
 32 29  1  0  0  0  0
 32 35  1  0  0  0  0
 33 32  1  0  0  0  0
 34 32  1  0  0  0  0
 35 37  1  0  0  0  0
 35 21  1  0  0  0  0
 36 35  1  0  0  0  0
M  CHG  1   4  -1
M  END
