2,3
q = -1.0, confidence = 0.0

 31 32  0  0  1  0  0  0  0  0999 V2000
    3.2600    4.4694    0.8936 Cl  0  0  0  0  0  0  0  0  0  0  0  0
   -1.3955   -2.5264    0.0248 O   0  5  0  0  0  0  0  0  0  0  0  0
   -0.6480   -0.2703   -1.7290 N   0  0  0  0  0  2  0  0  0  0  0  0
   -2.6035   -2.1585   -0.2842 C   0  0  0  0  0  0  0  0  0  0  0  0
   -3.7078   -2.8794    0.2758 C   0  0  0  0  0  0  0  0  0  0  0  0
   -3.4608   -3.7335    0.9237 H   0  0  0  0  0  0  0  0  0  0  0  0
   -5.0258   -2.5117    0.0345 C   0  0  0  0  0  0  0  0  0  0  0  0
   -5.8410   -3.0870    0.5018 H   0  0  0  0  0  0  0  0  0  0  0  0
   -5.3361   -1.4109   -0.8023 C   0  0  0  0  0  0  0  0  0  0  0  0
   -6.3810   -1.1234   -0.9864 H   0  0  0  0  0  0  0  0  0  0  0  0
   -4.2934   -0.7089   -1.3912 C   0  0  0  0  0  0  0  0  0  0  0  0
   -4.5098    0.1541   -2.0416 H   0  0  0  0  0  0  0  0  0  0  0  0
   -2.9279   -1.0454   -1.1600 C   0  0  0  0  0  0  0  0  0  0  0  0
   -1.9512   -0.2391   -1.8405 C   0  0  0  0  0  3  0  0  0  0  0  0
   -2.3778    0.4943   -2.5614 H   0  0  0  0  0  0  0  0  0  0  0  0
    0.1487    0.5961   -2.6179 C   0  0  2  0  0  0  0  0  0  0  0  0
   -0.5601    1.2006   -3.2292 H   0  0  0  0  0  0  0  0  0  0  0  0
    0.9883   -0.2777   -3.5580 C   0  0  0  0  0  0  0  0  0  0  0  0
    0.3233   -0.8663   -4.2202 H   0  0  0  0  0  0  0  0  0  0  0  0
    1.6050   -0.9958   -2.9810 H   0  0  0  0  0  0  0  0  0  0  0  0
    1.6510    0.3506   -4.1851 H   0  0  0  0  0  0  0  0  0  0  0  0
    0.9701    1.5739   -1.7888 C   0  0  0  0  0  0  0  0  0  0  0  0
    0.5421    2.9058   -1.6344 C   0  0  0  0  0  0  0  0  0  0  0  0
   -0.3668    3.2466   -2.1552 H   0  0  0  0  0  0  0  0  0  0  0  0
    1.2438    3.8070   -0.8215 C   0  0  0  0  0  0  0  0  0  0  0  0
    0.9061    4.8462   -0.7030 H   0  0  0  0  0  0  0  0  0  0  0  0
    2.3924    3.3656   -0.1431 C   0  0  0  0  0  0  0  0  0  0  0  0
    2.8516    2.0473   -0.2960 C   0  0  0  0  0  0  0  0  0  0  0  0
    3.7579    1.7120    0.2280 H   0  0  0  0  0  0  0  0  0  0  0  0
    2.1413    1.1667   -1.1221 C   0  0  0  0  0  0  0  0  0  0  0  0
    2.5124    0.1409   -1.2420 H   0  0  0  0  0  0  0  0  0  0  0  0
  4  2  1  0  0  0  0
  4  5  1  0  0  0  0
  5  6  1  0  0  0  0
  7  5  2  0  0  0  0
  7  8  1  0  0  0  0
  9  7  1  0  0  0  0
 10  9  1  0  0  0  0
 11 13  1  0  0  0  0
 11  9  2  0  0  0  0
 12 11  1  0  0  0  0
 13  4  2  0  0  0  0
 14  3  1  0  0  0  0
 14 13  1  0  0  0  0
 15 14  1  0  0  0  0
 16 17  1  6  0  0  0
 16 22  1  0  0  0  0
 16  3  1  0  0  0  0
 18 20  1  0  0  0  0
 18 16  1  0  0  0  0
 19 18  1  0  0  0  0
 21 18  1  0  0  0  0
 22 23  2  0  0  0  0
 22 30  1  0  0  0  0
 23 25  1  0  0  0  0
 24 23  1  0  0  0  0
 25 26  1  0  0  0  0
 25 27  2  0  0  0  0
 27  1  1  0  0  0  0
 28 27  1  0  0  0  0
 28 29  1  0  0  0  0
 30 28  2  0  0  0  0
 31 30  1  0  0  0  0
M  CHG  1   2  -1
M  END
