1,3
q = 0.0, confidence = 0.92

 25 27  0  0  0  0  0  0  0  0999 V2000
   -1.3352    0.6615   -0.2711 O   0  5  0  0  0  0  0  0  0  0  0  0
   -1.9403   -1.9107    0.5453 N   0  0  0  0  0  0  0  0  0  0  0  0
   -0.7416   -1.9139    0.5183 N   0  0  0  0  0  2  0  0  0  0  0  0
   -2.5534    0.2777   -0.1713 C   0  0  0  0  0  0  0  0  0  0  0  0
   -2.9437   -1.0316    0.2518 C   0  0  0  0  0  0  0  0  0  0  0  0
   -4.3253   -1.4455    0.3892 C   0  0  0  0  0  0  0  0  0  0  0  0
   -4.6569   -2.7560    0.8133 C   0  0  0  0  0  0  0  0  0  0  0  0
   -5.9867   -3.1478    0.9423 C   0  0  0  0  0  0  0  0  0  0  0  0
   -7.0206   -2.2351    0.6454 C   0  0  0  0  0  0  0  0  0  0  0  0
   -6.7078   -0.9434    0.2252 C   0  0  0  0  0  0  0  0  0  0  0  0
   -5.3644   -0.5126    0.0865 C   0  0  0  0  0  0  0  0  0  0  0  0
   -5.0051    0.8408   -0.3485 C   0  0  0  0  0  0  0  0  0  0  0  0
   -5.9843    1.8196   -0.6574 C   0  0  0  0  0  0  0  0  0  0  0  0
   -5.6316    3.1068   -1.0601 C   0  0  0  0  0  0  0  0  0  0  0  0
   -4.2741    3.4739   -1.1699 C   0  0  0  0  0  0  0  0  0  0  0  0
   -3.2872    2.5378   -0.8767 C   0  0  0  0  0  0  0  0  0  0  0  0
   -3.6319    1.2251   -0.4703 C   0  0  0  0  0  0  0  0  0  0  0  0
   -3.8394   -3.4573    1.0370 H   0  0  0  0  0  0  0  0  0  0  0  0
   -6.2280   -4.1690    1.2736 H   0  0  0  0  0  0  0  0  0  0  0  0
   -8.0732   -2.5395    0.7433 H   0  0  0  0  0  0  0  0  0  0  0  0
   -7.5282   -0.2489   -0.0015 H   0  0  0  0  0  0  0  0  0  0  0  0
   -7.0497    1.5651   -0.5780 H   0  0  0  0  0  0  0  0  0  0  0  0
   -6.4210    3.8383   -1.2905 H   0  0  0  0  0  0  0  0  0  0  0  0
   -3.9960    4.4910   -1.4837 H   0  0  0  0  0  0  0  0  0  0  0  0
   -2.2223    2.7944   -0.9489 H   0  0  0  0  0  0  0  0  0  0  0  0
  1  4  1  0  0  0  0
  3  2  2  0  0  0  0
  4  5  1  0  0  0  0
  5  6  2  0  0  0  0
  5  2  1  0  0  0  0
  6  7  1  0  0  0  0
  7  8  2  0  0  0  0
  7 18  1  0  0  0  0
  8 19  1  0  0  0  0
  9 20  1  0  0  0  0
  9  8  1  0  0  0  0
 10  9  2  0  0  0  0
 11 10  1  0  0  0  0
 11  6  1  0  0  0  0
 12 11  2  0  0  0  0
 13 22  1  0  0  0  0
 13 12  1  0  0  0  0
 14 13  2  0  0  0  0
 15 14  1  0  0  0  0
 15 16  2  0  0  0  0
 16 17  1  0  0  0  0
 17 12  1  0  0  0  0
 17  4  2  0  0  0  0
 21 10  1  0  0  0  0
 23 14  1  0  0  0  0
 24 15  1  0  0  0  0
 25 16  1  0  0  0  0
M  CHG  1   1  -1
M  END
