5,6
q = -1.0, confidence = 0.0

 33 33  0  0  1  0  0  0  0  0999 V2000
    3.3644    3.3750   -1.3066 O   0  0  0  0  0  0  0  0  0  0  0  0
    3.0035    4.3733    0.6969 O   0  0  0  0  0  0  0  0  0  0  0  0
   -1.9437    4.7473    0.0736 O   0  0  0  0  0  0  0  0  0  0  0  0
    5.4722   -1.9047    0.2656 O   0  0  0  0  0  0  0  0  0  0  0  0
   -1.7105    2.5122    0.0832 O   0  5  0  0  0  0  0  0  0  0  0  0
    1.1480    1.6384   -0.1892 N   0  0  0  0  0  2  0  0  0  0  0  0
    1.2683    2.9669   -0.1341 C   0  0  2  0  0  3  0  0  0  0  0  0
    0.2420    3.9251   -0.0144 C   0  0  0  0  0  0  0  0  0  0  0  0
   -1.1430    3.6367    0.0493 C   0  0  0  0  0  0  0  0  0  0  0  0
   -3.3434    4.4829    0.1027 C   0  0  0  0  0  0  0  0  0  0  0  0
    2.6519    3.5599   -0.3396 C   0  0  0  0  0  0  0  0  0  0  0  0
    4.2939    4.9736    0.5668 C   0  0  0  0  0  0  0  0  0  0  0  0
    2.3200    0.8395   -0.1551 C   0  0  0  0  0  0  0  0  0  0  0  0
    2.6051   -0.0545   -1.2039 C   0  0  0  0  0  0  0  0  0  0  0  0
    3.6555   -0.9758   -1.1057 C   0  0  0  0  0  0  0  0  0  0  0  0
    4.4584   -1.0066    0.0534 C   0  0  0  0  0  0  0  0  0  0  0  0
    4.2207   -0.0739    1.0813 C   0  0  0  0  0  0  0  0  0  0  0  0
    3.1622    0.8340    0.9778 C   0  0  0  0  0  0  0  0  0  0  0  0
    5.5238   -3.0394   -0.5739 C   0  0  0  0  0  0  0  0  0  0  0  0
    0.5240    4.9846   -0.0102 H   0  0  0  0  0  0  0  0  0  0  0  0
   -3.8412    5.4693    0.0414 H   0  0  0  0  0  0  0  0  0  0  0  0
   -3.6532    3.8393   -0.7468 H   0  0  0  0  0  0  0  0  0  0  0  0
   -3.6424    3.9654    1.0388 H   0  0  0  0  0  0  0  0  0  0  0  0
    4.4427    5.5855    1.4752 H   0  0  0  0  0  0  0  0  0  0  0  0
    5.0830    4.1973    0.4890 H   0  0  0  0  0  0  0  0  0  0  0  0
    4.3505    5.6094   -0.3409 H   0  0  0  0  0  0  0  0  0  0  0  0
    1.9585   -0.0433   -2.0921 H   0  0  0  0  0  0  0  0  0  0  0  0
    3.8235   -1.6833   -1.9288 H   0  0  0  0  0  0  0  0  0  0  0  0
    4.8509   -0.1168    1.9816 H   0  0  0  0  0  0  0  0  0  0  0  0
    2.9332    1.5142    1.8115 H   0  0  0  0  0  0  0  0  0  0  0  0
    6.3303   -3.6872   -0.1788 H   0  0  0  0  0  0  0  0  0  0  0  0
    4.5654   -3.6053   -0.5609 H   0  0  0  0  0  0  0  0  0  0  0  0
    5.7694   -2.7783   -1.6298 H   0  0  0  0  0  0  0  0  0  0  0  0
  1 11  2  0  0  0  0
  3 10  1  0  0  0  0
  6 13  1  0  0  0  0
  6  7  1  0  0  0  0
  7 11  1  6  0  0  0
  7  8  1  0  0  0  0
  8 20  1  0  0  0  0
  8  9  2  0  0  0  0
  9  3  1  0  0  0  0
  9  5  1  0  0  0  0
 10 23  1  0  0  0  0
 11  2  1  0  0  0  0
 12  2  1  0  0  0  0
 12 24  1  0  0  0  0
 13 18  1  0  0  0  0
 14 15  1  0  0  0  0
 14 13  2  0  0  0  0
 15 16  2  0  0  0  0
 16  4  1  0  0  0  0
 16 17  1  0  0  0  0
 17 29  1  0  0  0  0
 18 17  2  0  0  0  0
 18 30  1  0  0  0  0
 19 32  1  0  0  0  0
 19 31  1  0  0  0  0
 19  4  1  0  0  0  0
 21 10  1  0  0  0  0
 22 10  1  0  0  0  0
 25 12  1  0  0  0  0
 26 12  1  0  0  0  0
 27 14  1  0  0  0  0
 28 15  1  0  0  0  0
 33 19  1  0  0  0  0
M  CHG  1   5  -1
M  END
