2,4
q = -2.0, confidence = 0.902

 15 15  0  0  0  0  0  0  0  0999 V2000
   -7.0934    0.0303   -0.0014 Cl  0  0  0  0  0  0  0  0  0  0  0  0
   -0.8926   -1.6023    0.0009 O   0  5  0  0  0  0  0  0  0  0  0  0
   -2.7231   -2.8299   -0.0038 O   0  0  0  0  0  0  0  0  0  0  0  0
   -1.2524    1.1961    0.0025 N   0  0  0  0  0  2  0  0  0  0  0  0
   -3.0682   -0.4688   -0.0005 C   0  0  0  0  0  0  0  0  0  0  0  0
   -2.5771    0.8790    0.0022 C   0  0  0  0  0  0  0  0  0  0  0  0
   -3.5458    1.9333    0.0042 C   0  0  0  0  0  0  0  0  0  0  0  0
   -4.9128    1.6835    0.0031 C   0  0  0  0  0  0  0  0  0  0  0  0
   -5.3733    0.3506    0.0001 C   0  0  0  0  0  0  0  0  0  0  0  0
   -4.4576   -0.7019   -0.0016 C   0  0  0  0  0  0  0  0  0  0  0  0
   -2.2175   -1.7065   -0.0014 C   0  0  0  0  0  0  0  0  0  0  0  0
   -1.0894    2.2072    0.0068 H   0  0  0  0  0  0  0  0  0  0  0  0
   -3.1863    2.9754    0.0064 H   0  0  0  0  0  0  0  0  0  0  0  0
   -5.6346    2.5127    0.0047 H   0  0  0  0  0  0  0  0  0  0  0  0
   -4.7841   -1.7515   -0.0037 H   0  0  0  0  0  0  0  0  0  0  0  0
  1  9  1  0  0  0  0
  3 11  2  0  0  0  0
  4 12  1  0  0  0  0
  5  6  1  0  0  0  0
  6  4  1  0  0  0  0
  6  7  2  0  0  0  0
  7 13  1  0  0  0  0
  8  7  1  0  0  0  0
  8 14  1  0  0  0  0
  9  8  2  0  0  0  0
 10  5  2  0  0  0  0
 10  9  1  0  0  0  0
 11  5  1  0  0  0  0
 11  2  1  0  0  0  0
 15 10  1  0  0  0  0
M  CHG  1   2  -1
M  END
