3,14
q = -1.0

 25 25  0  0  0  0  0  0  0  0999 V2000
    3.2792    0.3963   -0.2952 C   0  0  0  0  0  0  0  0  0  0  0  0
    2.7543   -0.8163    0.2617 C   0  0  0  0  0  0  0  0  0  0  0  0
    1.4791   -1.0527    0.3943 O   0  5  0  0  0  0  0  0  0  0  0  0
    3.6899   -1.8086    0.6874 C   0  0  0  0  0  0  0  0  0  0  0  0
    3.2938   -2.7438    1.1090 H   0  0  0  0  0  0  0  0  0  0  0  0
    5.0608   -1.6056    0.5786 C   0  0  0  0  0  0  0  0  0  0  0  0
    5.7631   -2.3818    0.9157 H   0  0  0  0  0  0  0  0  0  0  0  0
    5.5612   -0.3981    0.0336 C   0  0  0  0  0  0  0  0  0  0  0  0
    7.4441   -0.1395   -0.1037 Br  0  0  0  0  0  0  0  0  0  0  0  0
    4.6838    0.5879   -0.3999 C   0  0  0  0  0  3  0  0  0  0  0  0
    5.0671    1.5258   -0.8284 H   0  0  0  0  0  0  0  0  0  0  0  0
    2.3976    1.4174   -0.7724 C   0  0  0  0  0  0  0  0  0  0  0  0
    2.8857    2.3168   -1.1931 H   0  0  0  0  0  0  0  0  0  0  0  0
    1.0854    1.3972   -0.7697 N   0  0  0  0  0  2  0  0  0  0  0  0
    0.4561    2.6161   -1.2967 C   0  0  0  0  0  0  0  0  0  0  0  0
    1.1250    3.0776   -2.0531 H   0  0  0  0  0  0  0  0  0  0  0  0
   -0.5011    2.3518   -1.7744 H   0  0  0  0  0  0  0  0  0  0  0  0
    0.1991    3.6264   -0.1867 C   0  0  0  0  0  0  0  0  0  0  0  0
   -0.3802    3.1303    0.6279 H   0  0  0  0  0  0  0  0  0  0  0  0
   -0.4315    4.4620   -0.5846 H   0  0  0  0  0  0  0  0  0  0  0  0
    1.4424    4.1027    0.2813 O   0  0  0  0  0  0  0  0  0  0  0  0
    1.3395    4.8725    1.4547 C   0  0  0  0  0  0  0  0  0  0  0  0
    0.8811    4.2957    2.2947 H   0  0  0  0  0  0  0  0  0  0  0  0
    2.3628    5.1755    1.7502 H   0  0  0  0  0  0  0  0  0  0  0  0
    0.7268    5.7948    1.3021 H   0  0  0  0  0  0  0  0  0  0  0  0
  1  2  1  0  0  0  0
  2  3  1  0  0  0  0
  2  4  2  0  0  0  0
  4  5  1  0  0  0  0
  6  4  1  0  0  0  0
  6  7  1  0  0  0  0
  8  6  2  0  0  0  0
  9  8  1  0  0  0  0
 10  1  1  0  0  0  0
 10  8  1  0  0  0  0
 11 10  1  0  0  0  0
 12 14  1  0  0  0  0
 12  1  2  0  0  0  0
 13 12  1  0  0  0  0
 15 14  1  0  0  0  0
 15 18  1  0  0  0  0
 16 15  1  0  0  0  0
 17 15  1  0  0  0  0
 18 21  1  0  0  0  0
 18 19  1  0  0  0  0
 20 18  1  0  0  0  0
 21 22  1  0  0  0  0
 22 24  1  0  0  0  0
 22 23  1  0  0  0  0
 25 22  1  0  0  0  0
M  CHG  1   3  -1
M  END
