3,14
q = -1.0

 25 25  0  0  1  0  0  0  0  0999 V2000
   -3.2792   -0.3963    0.2951 C   0  0  0  0  0  0  0  0  0  0  0  0
   -2.7542    0.8163   -0.2618 C   0  0  2  0  0  3  0  0  0  0  0  0
   -1.4790    1.0527   -0.3945 O   0  0  0  0  0  1  0  0  0  0  0  0
   -3.6898    1.8086   -0.6875 C   0  0  0  0  0  0  0  0  0  0  0  0
   -3.2937    2.7439   -1.1091 H   0  0  0  0  0  0  0  0  0  0  0  0
   -5.0607    1.6057   -0.5785 C   0  0  0  0  0  0  0  0  0  0  0  0
   -5.7630    2.3819   -0.9157 H   0  0  0  0  0  0  0  0  0  0  0  0
   -5.5611    0.3982   -0.0335 C   0  0  0  0  0  0  0  0  0  0  0  0
   -7.4440    0.1396    0.1039 Br  0  0  0  0  0  0  0  0  0  0  0  0
   -4.6837   -0.5878    0.3999 C   0  0  0  0  0  0  0  0  0  0  0  0
   -5.0670   -1.5257    0.8285 H   0  0  0  0  0  0  0  0  0  0  0  0
   -2.3975   -1.4174    0.7722 C   0  0  0  0  0  0  0  0  0  0  0  0
   -2.8856   -2.3167    1.1930 H   0  0  0  0  0  0  0  0  0  0  0  0
   -1.0853   -1.3973    0.7695 N   0  0  0  0  0  2  0  0  0  0  0  0
   -0.4560   -2.6161    1.2965 C   0  0  0  0  0  0  0  0  0  0  0  0
   -1.1249   -3.0775    2.0530 H   0  0  0  0  0  0  0  0  0  0  0  0
    0.5013   -2.3519    1.7740 H   0  0  0  0  0  0  0  0  0  0  0  0
   -0.1993   -3.6266    0.1866 C   0  0  0  0  0  0  0  0  0  0  0  0
    0.3799   -3.1306   -0.6282 H   0  0  0  0  0  0  0  0  0  0  0  0
    0.4313   -4.4622    0.5844 H   0  0  0  0  0  0  0  0  0  0  0  0
   -1.4427   -4.1028   -0.2811 O   0  0  0  0  0  0  0  0  0  0  0  0
   -1.3401   -4.8728   -1.4545 C   0  0  0  0  0  0  0  0  0  0  0  0
   -0.8819   -4.2961   -2.2946 H   0  0  0  0  0  0  0  0  0  0  0  0
   -2.3635   -5.1758   -1.7498 H   0  0  0  0  0  0  0  0  0  0  0  0
   -0.7275   -5.7951   -1.3019 H   0  0  0  0  0  0  0  0  0  0  0  0
  1 10  1  0  0  0  0
  1 12  2  0  0  0  0
  2  3  1  1  0  0  0
  2  1  1  0  0  0  0
  4  6  2  0  0  0  0
  4  2  1  0  0  0  0
  5  4  1  0  0  0  0
  6  8  1  0  0  0  0
  7  6  1  0  0  0  0
  8  9  1  0  0  0  0
  8 10  2  0  0  0  0
 10 11  1  0  0  0  0
 12 13  1  0  0  0  0
 14 12  1  0  0  0  0
 14 15  1  0  0  0  0
 15 17  1  0  0  0  0
 15 16  1  0  0  0  0
 18 20  1  0  0  0  0
 18 15  1  0  0  0  0
 19 18  1  0  0  0  0
 21 18  1  0  0  0  0
 22 25  1  0  0  0  0
 22 21  1  0  0  0  0
 23 22  1  0  0  0  0
 24 22  1  0  0  0  0
M  END
