3,18
q = -1.0, confidence = 0.0

 29 29  0  0  1  0  0  0  0  0999 V2000
    2.6546   -1.9069    0.5752 C   0  0  0  0  0  0  0  0  0  0  0  0
    2.8118   -0.5802    0.0723 C   0  0  1  0  0  3  0  0  0  0  0  0
    1.8270    0.2317   -0.1736 O   0  0  0  0  0  1  0  0  0  0  0  0
    4.1521   -0.1056   -0.1799 C   0  0  0  0  0  0  0  0  0  0  0  0
    4.2137    1.1745   -0.6514 O   0  0  0  0  0  0  0  0  0  0  0  0
    5.4882    1.7157   -0.9260 C   0  0  0  0  0  0  0  0  0  0  0  0
    6.1307    1.7494   -0.0165 H   0  0  0  0  0  0  0  0  0  0  0  0
    5.3214    2.7483   -1.2862 H   0  0  0  0  0  0  0  0  0  0  0  0
    6.0245    1.1392   -1.7140 H   0  0  0  0  0  0  0  0  0  0  0  0
    5.2496   -0.9342    0.0540 C   0  0  0  0  0  0  0  0  0  0  0  0
    6.2672   -0.5697   -0.1433 H   0  0  0  0  0  0  0  0  0  0  0  0
    5.0712   -2.2535    0.5477 C   0  0  0  0  0  0  0  0  0  0  0  0
    5.9525   -2.8870    0.7233 H   0  0  0  0  0  0  0  0  0  0  0  0
    3.7958   -2.7304    0.8054 C   0  0  0  0  0  0  0  0  0  0  0  0
    3.6426   -3.7502    1.1911 H   0  0  0  0  0  0  0  0  0  0  0  0
    1.3443   -2.4053    0.8663 C   0  0  0  0  0  0  0  0  0  0  0  0
    1.3017   -3.4424    1.2506 H   0  0  0  0  0  0  0  0  0  0  0  0
    0.2007   -1.7731    0.7359 N   0  0  0  0  0  2  0  0  0  0  0  0
   -0.9912   -2.5609    1.0828 C   0  0  0  0  0  0  0  0  0  0  0  0
   -0.7179   -3.3217    1.8445 H   0  0  0  0  0  0  0  0  0  0  0  0
   -1.7690   -1.8937    1.4897 H   0  0  0  0  0  0  0  0  0  0  0  0
   -1.5639   -3.2676   -0.1370 C   0  0  0  0  0  0  0  0  0  0  0  0
   -2.5588   -3.7082    0.1255 H   0  0  0  0  0  0  0  0  0  0  0  0
   -1.7412   -2.5149   -0.9406 H   0  0  0  0  0  0  0  0  0  0  0  0
   -0.6544   -4.2660   -0.5532 O   0  0  0  0  0  0  0  0  0  0  0  0
   -0.9816   -4.8291   -1.7981 C   0  0  0  0  0  0  0  0  0  0  0  0
   -1.9752   -5.3426   -1.7832 H   0  0  0  0  0  0  0  0  0  0  0  0
   -0.2042   -5.5780   -2.0471 H   0  0  0  0  0  0  0  0  0  0  0  0
   -1.0114   -4.0627   -2.6111 H   0  0  0  0  0  0  0  0  0  0  0  0
  1 14  1  0  0  0  0
  1 16  2  0  0  0  0
  2  3  1  1  0  0  0
  2  1  1  0  0  0  0
  4 10  2  0  0  0  0
  4  2  1  0  0  0  0
  5  4  1  0  0  0  0
  6  5  1  0  0  0  0
  6  7  1  0  0  0  0
  8  6  1  0  0  0  0
  9  6  1  0  0  0  0
 10 12  1  0  0  0  0
 11 10  1  0  0  0  0
 12 13  1  0  0  0  0
 12 14  2  0  0  0  0
 14 15  1  0  0  0  0
 16 17  1  0  0  0  0
 18 16  1  0  0  0  0
 18 19  1  0  0  0  0
 19 21  1  0  0  0  0
 19 20  1  0  0  0  0
 22 23  1  0  0  0  0
 22 19  1  0  0  0  0
 24 22  1  0  0  0  0
 25 22  1  0  0  0  0
 26 27  1  0  0  0  0
 26 25  1  0  0  0  0
 28 26  1  0  0  0  0
 29 26  1  0  0  0  0
M  END
