2,3
q = -2.0, confidence = 0.79

 28 29  0  0  0  0  0  0  0  0999 V2000
    0.0103   -2.8334   -0.5497 O   0  0  0  0  0  0  0  0  0  0  0  0
    0.0453    1.7405    0.0183 O   0  5  0  0  0  0  0  0  0  0  0  0
    0.6371   -0.6593   -0.1843 N   0  0  0  0  0  2  0  0  0  0  0  0
    1.7136    0.1833   -0.2182 N   0  0  0  0  0  0  0  0  0  0  0  0
    0.9153   -2.0377   -0.2839 C   0  0  0  0  0  0  0  0  0  0  0  0
    2.3120   -2.5456   -0.0537 C   0  0  0  0  0  0  0  0  0  0  0  0
    2.6553   -3.7456   -0.7133 C   0  0  0  0  0  0  0  0  0  0  0  0
    3.9065   -4.3400   -0.5112 C   0  0  0  0  0  0  0  0  0  0  0  0
    4.8229   -3.7589    0.3807 C   0  0  0  0  0  0  0  0  0  0  0  0
    4.4783   -2.5825    1.0657 C   0  0  0  0  0  0  0  0  0  0  0  0
    3.2364   -1.9706    0.8456 C   0  0  0  0  0  0  0  0  0  0  0  0
    1.3317    1.4347   -0.1084 C   0  0  0  0  0  0  0  0  0  0  0  0
    2.3165    2.5333   -0.1232 C   0  0  0  0  0  0  0  0  0  0  0  0
    3.6937    2.2627   -0.2905 C   0  0  0  0  0  0  0  0  0  0  0  0
    4.6207    3.3110   -0.2982 C   0  0  0  0  0  0  0  0  0  0  0  0
    4.1907    4.6409   -0.1413 C   0  0  0  0  0  0  0  0  0  0  0  0
    2.8234    4.9149    0.0231 C   0  0  0  0  0  0  0  0  0  0  0  0
    1.8897    3.8696    0.0321 C   0  0  0  0  0  0  0  0  0  0  0  0
    1.9125   -4.2000   -1.3850 H   0  0  0  0  0  0  0  0  0  0  0  0
    4.1673   -5.2656   -1.0469 H   0  0  0  0  0  0  0  0  0  0  0  0
    5.8054   -4.2271    0.5469 H   0  0  0  0  0  0  0  0  0  0  0  0
    5.1866   -2.1322    1.7779 H   0  0  0  0  0  0  0  0  0  0  0  0
    2.9773   -1.0446    1.3732 H   0  0  0  0  0  0  0  0  0  0  0  0
    4.0132    1.2181   -0.4168 H   0  0  0  0  0  0  0  0  0  0  0  0
    5.6913    3.0911   -0.4302 H   0  0  0  0  0  0  0  0  0  0  0  0
    4.9226    5.4630   -0.1488 H   0  0  0  0  0  0  0  0  0  0  0  0
    2.4811    5.9541    0.1455 H   0  0  0  0  0  0  0  0  0  0  0  0
    0.8162    4.0679    0.1600 H   0  0  0  0  0  0  0  0  0  0  0  0
  1  5  2  0  0  0  0
  4  3  1  0  0  0  0
  4 12  2  0  0  0  0
  5  3  1  0  0  0  0
  5  6  1  0  0  0  0
  6 11  1  0  0  0  0
  7  8  1  0  0  0  0
  7  6  2  0  0  0  0
  8  9  2  0  0  0  0
  9 21  1  0  0  0  0
  9 10  1  0  0  0  0
 10 22  1  0  0  0  0
 11 10  2  0  0  0  0
 11 23  1  0  0  0  0
 12  2  1  0  0  0  0
 13 12  1  0  0  0  0
 13 18  1  0  0  0  0
 14 13  2  0  0  0  0
 15 14  1  0  0  0  0
 15 16  2  0  0  0  0
 16 17  1  0  0  0  0
 17 18  2  0  0  0  0
 17 27  1  0  0  0  0
 18 28  1  0  0  0  0
 19  7  1  0  0  0  0
 20  8  1  0  0  0  0
 24 14  1  0  0  0  0
 25 15  1  0  0  0  0
 26 16  1  0  0  0  0
M  CHG  1   2  -1
M  END
