1,2
q = -1.0

 19 18  0  0  1  0  0  0  0  0999 V2000
   -1.4391   -1.7426   -0.0240 O   0  0  0  0  0  1  0  0  0  0  0  0
   -1.6681    0.9313   -0.1236 N   0  0  0  0  0  0  0  0  0  0  0  0
   -1.6165    1.7695    0.4711 H   0  0  0  0  0  0  0  0  0  0  0  0
   -1.7416    1.2763   -1.0962 H   0  0  0  0  0  0  0  0  0  0  0  0
   -2.6632   -1.2347   -0.4273 C   0  0  0  0  0  0  0  0  0  0  0  0
   -3.4713   -1.9376   -0.1151 H   0  0  0  0  0  0  0  0  0  0  0  0
   -2.7652   -1.1181   -1.5485 H   0  0  0  0  0  0  0  0  0  0  0  0
   -2.9164    0.1499    0.1915 C   0  0  2  0  0  0  0  0  0  0  0  0
   -2.9253    0.0290    1.2971 H   0  0  0  0  0  0  0  0  0  0  0  0
   -4.1925    0.8815   -0.2635 C   0  0  0  0  0  0  0  0  0  0  0  0
   -4.1271    0.9909   -1.3726 H   0  0  0  0  0  0  0  0  0  0  0  0
   -5.4457    0.0537    0.0529 C   0  0  0  0  0  0  0  0  0  0  0  0
   -5.4481   -0.9175   -0.4778 H   0  0  0  0  0  0  0  0  0  0  0  0
   -6.3636    0.6012   -0.2420 H   0  0  0  0  0  0  0  0  0  0  0  0
   -5.5152   -0.1557    1.1413 H   0  0  0  0  0  0  0  0  0  0  0  0
   -4.3078    2.2852    0.3497 C   0  0  0  0  0  0  0  0  0  0  0  0
   -5.2327    2.7923    0.0085 H   0  0  0  0  0  0  0  0  0  0  0  0
   -3.4610    2.9471    0.0728 H   0  0  0  0  0  0  0  0  0  0  0  0
   -4.3478    2.2304    1.4586 H   0  0  0  0  0  0  0  0  0  0  0  0
  2  8  1  0  0  0  0
  2  3  1  0  0  0  0
  4  2  1  0  0  0  0
  5  6  1  0  0  0  0
  5  1  1  0  0  0  0
  5  8  1  0  0  0  0
  7  5  1  0  0  0  0
  8  9  1  1  0  0  0
 10 12  1  0  0  0  0
 10  8  1  0  0  0  0
 10 16  1  0  0  0  0
 11 10  1  0  0  0  0
 12 15  1  0  0  0  0
 13 12  1  0  0  0  0
 14 12  1  0  0  0  0
 16 19  1  0  0  0  0
 17 16  1  0  0  0  0
 18 16  1  0  0  0  0
M  END
