1,2
q = -1.0, confidence = 0.026

 35 37  0  0  0  0  0  0  0  0999 V2000
   -2.0920    0.7825    0.0909 O   0  5  0  0  0  0  0  0  0  0  0  0
    0.4256    0.1939   -0.1832 N   0  0  0  0  0  2  0  0  0  0  0  0
    2.9429    0.5106   -0.2189 C   0  0  0  0  0  0  0  0  0  0  0  0
    0.0904    1.5205   -0.0881 N   0  0  0  0  0  0  0  0  0  0  0  0
   -1.2097    1.7446    0.0539 C   0  0  0  0  0  0  0  0  0  0  0  0
    1.6852   -0.1981   -0.2359 C   0  0  0  0  0  3  0  0  0  0  0  0
    1.7399   -1.2956   -0.2938 H   0  0  0  0  0  0  0  0  0  0  0  0
    4.1204   -0.2948    0.1132 C   0  0  0  0  0  0  0  0  0  0  0  0
    2.1625    2.7203   -0.9267 O   0  0  0  0  0  0  0  0  0  0  0  0
    1.2379    2.3285   -0.6324 H   0  0  0  0  0  0  0  0  0  0  0  0
   -3.5736    4.6860    0.3475 C   0  0  0  0  0  0  0  0  0  0  0  0
   -4.6588    4.8652    0.3803 H   0  0  0  0  0  0  0  0  0  0  0  0
   -1.6973    3.1370    0.1793 C   0  0  0  0  0  0  0  0  0  0  0  0
    5.4346    0.2856    0.0184 C   0  0  0  0  0  0  0  0  0  0  0  0
   -3.0872    3.3789    0.2238 C   0  0  0  0  0  0  0  0  0  0  0  0
   -3.7746    2.5243    0.1590 H   0  0  0  0  0  0  0  0  0  0  0  0
   -1.2942    5.5309    0.3896 C   0  0  0  0  0  0  0  0  0  0  0  0
   -0.5895    6.3732    0.4571 H   0  0  0  0  0  0  0  0  0  0  0  0
    5.5610    1.6523   -0.3790 C   0  0  0  0  0  0  0  0  0  0  0  0
    6.5696    2.0887   -0.4529 H   0  0  0  0  0  0  0  0  0  0  0  0
   -0.8014    4.2266    0.2661 C   0  0  0  0  0  0  0  0  0  0  0  0
    0.2827    4.0487    0.2384 H   0  0  0  0  0  0  0  0  0  0  0  0
    5.1835   -2.3842    0.8541 C   0  0  0  0  0  0  0  0  0  0  0  0
    5.0762   -3.4259    1.1927 H   0  0  0  0  0  0  0  0  0  0  0  0
    6.4712   -1.8107    0.7370 C   0  0  0  0  0  0  0  0  0  0  0  0
    7.3669   -2.4028    0.9762 H   0  0  0  0  0  0  0  0  0  0  0  0
    4.0407   -1.6465    0.5594 C   0  0  0  0  0  0  0  0  0  0  0  0
    3.0656   -2.1338    0.6965 H   0  0  0  0  0  0  0  0  0  0  0  0
    6.5858   -0.4891    0.3296 C   0  0  0  0  0  0  0  0  0  0  0  0
    7.5747   -0.0120    0.2441 H   0  0  0  0  0  0  0  0  0  0  0  0
   -2.6791    5.7656    0.4301 C   0  0  0  0  0  0  0  0  0  0  0  0
   -3.0615    6.7930    0.5275 H   0  0  0  0  0  0  0  0  0  0  0  0
    3.1309    1.8832   -0.5819 C   0  0  0  0  0  0  0  0  0  0  0  0
    4.4552    2.4203   -0.6569 C   0  0  0  0  0  0  0  0  0  0  0  0
    4.5399    3.4738   -0.9591 H   0  0  0  0  0  0  0  0  0  0  0  0
  2  4  1  0  0  0  0
  3  8  1  0  0  0  0
  4  5  2  0  0  0  0
  5  1  1  0  0  0  0
  5 13  1  0  0  0  0
  6  3  1  0  0  0  0
  6  2  1  0  0  0  0
  7  6  1  0  0  0  0
  8 27  1  0  0  0  0
  9 10  1  0  0  0  0
  9 33  1  0  0  0  0
 11 12  1  0  0  0  0
 11 31  1  0  0  0  0
 13 15  1  0  0  0  0
 13 21  2  0  0  0  0
 14  8  2  0  0  0  0
 14 29  1  0  0  0  0
 15 11  2  0  0  0  0
 16 15  1  0  0  0  0
 17 31  2  0  0  0  0
 17 18  1  0  0  0  0
 19 14  1  0  0  0  0
 20 19  1  0  0  0  0
 21 17  1  0  0  0  0
 22 21  1  0  0  0  0
 23 24  1  0  0  0  0
 25 23  1  0  0  0  0
 25 26  1  0  0  0  0
 27 28  1  0  0  0  0
 27 23  2  0  0  0  0
 29 25  2  0  0  0  0
 30 29  1  0  0  0  0
 31 32  1  0  0  0  0
 33  3  2  0  0  0  0
 34 33  1  0  0  0  0
 34 19  2  0  0  0  0
 35 34  1  0  0  0  0
M  CHG  1   1  -1
M  END
