3,5
q = -1.0

 25 25  0  0  0  0  0  0  0  0999 V2000
    3.7702   -2.8637    0.8186 Cl  0  0  0  0  0  0  0  0  0  0  0  0
    7.1762    1.3306    0.2638 Cl  0  0  0  0  0  0  0  0  0  0  0  0
    1.6808   -0.7990    0.6247 O   0  5  0  0  0  0  0  0  0  0  0  0
   -0.8248    1.0066   -2.2727 O   0  0  0  0  0  0  0  0  0  0  0  0
    0.7560    1.7669    0.2446 N   0  0  0  0  0  2  0  0  0  0  0  0
   -1.3174    2.3298   -2.1637 C   0  0  0  0  0  0  0  0  0  0  0  0
   -2.2952    2.2607   -1.6448 H   0  0  0  0  0  0  0  0  0  0  0  0
   -1.5145    2.7695   -3.1731 H   0  0  0  0  0  0  0  0  0  0  0  0
   -0.4029    3.2843   -1.3975 C   0  0  0  0  0  0  0  0  0  0  0  0
   -0.8759    4.2899   -1.4203 H   0  0  0  0  0  0  0  0  0  0  0  0
    0.5638    3.3928   -1.9437 H   0  0  0  0  0  0  0  0  0  0  0  0
   -0.1127    2.9470    0.0733 C   0  0  0  0  0  0  0  0  0  0  0  0
    0.3918    3.8191    0.5412 H   0  0  0  0  0  0  0  0  0  0  0  0
   -1.0582    2.7642    0.6120 H   0  0  0  0  0  0  0  0  0  0  0  0
    2.0414    2.0282    0.2289 C   0  0  0  0  0  0  0  0  0  0  0  0
    2.3374    3.0910    0.1151 H   0  0  0  0  0  0  0  0  0  0  0  0
    3.1310    1.1038    0.3365 C   0  0  0  0  0  0  0  0  0  0  0  0
    4.4598    1.5988    0.2606 C   0  0  0  0  0  3  0  0  0  0  0  0
    4.6325    2.6757    0.1204 H   0  0  0  0  0  0  0  0  0  0  0  0
    5.5390    0.7292    0.3604 C   0  0  0  0  0  0  0  0  0  0  0  0
    5.3221   -0.6565    0.5382 C   0  0  0  0  0  0  0  0  0  0  0  0
    6.1733   -1.3462    0.6127 H   0  0  0  0  0  0  0  0  0  0  0  0
    4.0228   -1.1484    0.6126 C   0  0  0  0  0  0  0  0  0  0  0  0
    2.8685   -0.2956    0.5233 C   0  0  0  0  0  0  0  0  0  0  0  0
    0.1366    1.0244   -2.4509 H   0  0  0  0  0  0  0  0  0  0  0  0
  2 20  1  0  0  0  0
  4  6  1  0  0  0  0
  6  7  1  0  0  0  0
  6  9  1  0  0  0  0
  8  6  1  0  0  0  0
  9 12  1  0  0  0  0
 10  9  1  0  0  0  0
 11  9  1  0  0  0  0
 12  5  1  0  0  0  0
 12 13  1  0  0  0  0
 12 14  1  0  0  0  0
 15  5  1  0  0  0  0
 15 17  2  0  0  0  0
 16 15  1  0  0  0  0
 17 24  1  0  0  0  0
 18 17  1  0  0  0  0
 18 20  1  0  0  0  0
 19 18  1  0  0  0  0
 20 21  2  0  0  0  0
 21 23  1  0  0  0  0
 21 22  1  0  0  0  0
 23  1  1  0  0  0  0
 24 23  2  0  0  0  0
 24  3  1  0  0  0  0
 25  4  1  0  0  0  0
M  CHG  1   3  -1
M  END
