1,24
q = -1.0, confidence = 0.002

 25 24  0  0  1  0  0  0  0  0999 V2000
   -1.4767    0.2504   -1.5434 N   0  0  0  0  0  2  0  0  0  0  0  0
   -1.9309    1.6400   -1.5906 C   0  0  0  0  0  0  0  0  0  0  0  0
   -2.2845    1.9421   -2.5980 H   0  0  0  0  0  0  0  0  0  0  0  0
   -1.0703    2.2964   -1.3465 H   0  0  0  0  0  0  0  0  0  0  0  0
   -3.0304    1.9283   -0.5725 C   0  0  0  0  0  0  0  0  0  0  0  0
   -2.6822    1.6163    0.4401 H   0  0  0  0  0  0  0  0  0  0  0  0
   -3.2213    3.0320   -0.5467 H   0  0  0  0  0  0  0  0  0  0  0  0
   -4.2049    1.2248   -0.9314 O   0  0  0  0  0  0  0  0  0  0  0  0
   -5.2285    1.3483    0.0258 C   0  0  0  0  0  0  0  0  0  0  0  0
   -4.9154    0.9562    1.0238 H   0  0  0  0  0  0  0  0  0  0  0  0
   -6.0964    0.7587   -0.3286 H   0  0  0  0  0  0  0  0  0  0  0  0
   -5.5509    2.4103    0.1615 H   0  0  0  0  0  0  0  0  0  0  0  0
   -2.9067   -0.1904   -3.5253 C   0  0  0  0  0  0  0  0  0  0  0  0
   -3.7985    0.2771   -3.0646 H   0  0  0  0  0  0  0  0  0  0  0  0
   -3.2218   -1.0595   -4.1298 H   0  0  0  0  0  0  0  0  0  0  0  0
   -2.4569    0.5556   -4.2140 H   0  0  0  0  0  0  0  0  0  0  0  0
   -1.5088   -1.9886   -2.4848 C   0  0  0  0  0  0  0  0  0  0  0  0
   -1.9470   -2.6075   -3.2788 H   0  0  0  0  0  0  0  0  0  0  0  0
   -0.6142   -2.6112   -1.6232 C   0  0  0  0  0  0  0  0  0  0  0  0
   -0.2649   -4.0705   -1.7653 C   0  0  0  0  0  0  0  0  0  0  0  0
    0.8329   -4.1820   -1.8865 H   0  0  0  0  0  0  0  0  0  0  0  0
   -0.7764   -4.5518   -2.6189 H   0  0  0  0  0  0  0  0  0  0  0  0
   -0.5348   -4.6053   -0.8307 H   0  0  0  0  0  0  0  0  0  0  0  0
   -0.0257   -1.9927   -0.6373 O   0  5  0  0  0  0  0  0  0  0  0  0
   -1.9220   -0.6070   -2.4483 C   0  0  1  0  0  3  0  0  0  0  0  0
  2  1  1  0  0  0  0
  2  4  1  0  0  0  0
  2  5  1  0  0  0  0
  3  2  1  0  0  0  0
  5  7  1  0  0  0  0
  5  6  1  0  0  0  0
  8  5  1  0  0  0  0
  8  9  1  0  0  0  0
  9 12  1  0  0  0  0
  9 10  1  0  0  0  0
 11  9  1  0  0  0  0
 13 14  1  0  0  0  0
 13 25  1  0  0  0  0
 15 13  1  0  0  0  0
 16 13  1  0  0  0  0
 17 19  2  0  0  0  0
 18 17  1  0  0  0  0
 19 24  1  0  0  0  0
 20 19  1  0  0  0  0
 20 23  1  0  0  0  0
 21 20  1  0  0  0  0
 22 20  1  0  0  0  0
 25 17  1  6  0  0  0
 25  1  1  0  0  0  0
M  CHG  1  24  -1
M  END
