2,3
q = -1.0, confidence = 0.0

 10 10  0  0  0  0  0  0  0  0999 V2000
   -3.2003   -2.5594    0.3231 O   0  5  0  0  0  0  0  0  0  0  0  0
   -1.0826   -1.7539    0.0969 O   0  0  0  0  0  0  0  0  0  0  0  0
   -1.9560    0.7848   -0.2688 N   0  0  0  0  0  2  0  0  0  0  0  0
   -3.9726    1.5591   -0.1129 N   0  0  0  0  0  0  0  0  0  0  0  0
   -4.7926    2.1711   -0.0894 H   0  0  0  0  0  0  0  0  0  0  0  0
   -4.1165    0.2328    0.0975 N   0  0  0  0  0  0  0  0  0  0  0  0
   -2.3890   -1.6588    0.1686 C   0  0  0  0  0  0  0  0  0  0  0  0
   -2.8649   -0.2157    0.0041 C   0  0  0  0  0  0  0  0  0  0  0  0
   -2.6781    1.8978   -0.3294 C   0  0  0  0  0  3  0  0  0  0  0  0
   -2.3114    2.9145   -0.5148 H   0  0  0  0  0  0  0  0  0  0  0  0
  2  7  2  0  0  0  0
  3  8  1  0  0  0  0
  4  5  1  0  0  0  0
  4  6  1  0  0  0  0
  7  1  1  0  0  0  0
  8  6  2  0  0  0  0
  8  7  1  0  0  0  0
  9  3  1  0  0  0  0
  9  4  1  0  0  0  0
 10  9  1  0  0  0  0
M  CHG  1   1  -1
M  END
