6,7
q = -1.0

 20 21  0  0  1  0  0  0  0  0999 V2000
    4.7575   -0.4129   -0.0039 N   0  0  0  0  0  0  0  0  0  0  0  0
    4.3856   -1.6807    0.1357 C   0  0  1  0  0  3  0  0  0  0  0  0
    5.3348   -2.6390    0.1862 N   0  0  0  0  0  0  0  0  0  0  0  0
    3.0618   -2.0710    0.2458 N   0  0  0  0  0  0  0  0  0  0  0  0
    2.0442   -1.1332    0.1476 C   0  0  0  0  0  0  0  0  0  0  0  0
    0.8134   -1.4192    0.2013 O   0  5  0  0  0  0  0  0  0  0  0  0
    1.3736    1.0774   -0.1675 N   0  0  0  0  0  2  0  0  0  0  0  0
    1.7829    2.4306   -0.5697 C   0  0  0  0  0  0  0  0  0  0  0  0
    3.1070    2.8573    0.0746 C   0  0  0  0  0  0  0  0  0  0  0  0
    4.1436    1.8476   -0.1408 N   0  0  0  0  0  0  0  0  0  0  0  0
    2.4214    0.2131   -0.0389 C   0  0  0  0  0  0  0  0  0  0  0  0
    3.8092    0.5445   -0.0685 C   0  0  0  0  0  0  0  0  0  0  0  0
    2.7900   -3.0501    0.3794 H   0  0  0  0  0  0  0  0  0  0  0  0
    5.1262   -3.6309    0.2809 H   0  0  0  0  0  0  0  0  0  0  0  0
    6.3077   -2.3415    0.1123 H   0  0  0  0  0  0  0  0  0  0  0  0
    0.9766    3.1405   -0.3070 H   0  0  0  0  0  0  0  0  0  0  0  0
    1.8812    2.4369   -1.6783 H   0  0  0  0  0  0  0  0  0  0  0  0
    3.4354    3.8154   -0.3715 H   0  0  0  0  0  0  0  0  0  0  0  0
    2.9614    3.0258    1.1658 H   0  0  0  0  0  0  0  0  0  0  0  0
    5.1354    2.0916   -0.0841 H   0  0  0  0  0  0  0  0  0  0  0  0
  1  2  1  0  0  0  0
  2  3  1  1  0  0  0
  2  4  1  0  0  0  0
  3 14  1  0  0  0  0
  4 13  1  0  0  0  0
  5  6  1  0  0  0  0
  5  4  1  0  0  0  0
  7 11  1  0  0  0  0
  8 16  1  0  0  0  0
  8  7  1  0  0  0  0
  8  9  1  0  0  0  0
  9 19  1  0  0  0  0
 10 20  1  0  0  0  0
 10 12  1  0  0  0  0
 10  9  1  0  0  0  0
 11  5  2  0  0  0  0
 12 11  1  0  0  0  0
 12  1  2  0  0  0  0
 15  3  1  0  0  0  0
 17  8  1  0  0  0  0
 18  9  1  0  0  0  0
M  CHG  1   6  -1
M  END
