22,24
q = -1.0

 24 24  0  0  1  0  0  0  0  0999 V2000
   -1.8714    1.4066   -0.1600 C   0  0  0  0  0  0  0  0  0  0  0  0
   -3.3251    1.4829    0.1104 C   0  0  0  0  0  0  0  0  0  0  0  0
   -4.0500    0.3356    0.0926 C   0  0  0  0  0  3  0  0  0  0  0  0
   -5.1401    0.3810    0.2623 H   0  0  0  0  0  0  0  0  0  0  0  0
   -3.4522   -1.0033   -0.2101 C   0  0  1  0  0  0  0  0  0  0  0  0
   -3.5952   -1.2122   -1.2982 H   0  0  0  0  0  0  0  0  0  0  0  0
   -1.9376   -1.0060    0.0678 C   0  0  1  0  0  0  0  0  0  0  0  0
   -1.7628   -1.2879    1.1363 H   0  0  0  0  0  0  0  0  0  0  0  0
   -1.1285    2.6790   -0.4383 C   0  0  0  0  0  0  0  0  0  0  0  0
   -1.0894    3.3179    0.4690 H   0  0  0  0  0  0  0  0  0  0  0  0
   -1.6608    3.2649   -1.2139 H   0  0  0  0  0  0  0  0  0  0  0  0
   -0.1126    2.4595   -0.8094 H   0  0  0  0  0  0  0  0  0  0  0  0
   -3.9525    2.8299    0.3592 C   0  0  0  0  0  0  0  0  0  0  0  0
   -5.0265    2.7202    0.6020 H   0  0  0  0  0  0  0  0  0  0  0  0
   -3.8726    3.4941   -0.5265 H   0  0  0  0  0  0  0  0  0  0  0  0
   -3.4653    3.3661    1.2003 H   0  0  0  0  0  0  0  0  0  0  0  0
   -4.1509   -2.1322    0.5612 C   0  0  0  0  0  0  0  0  0  0  0  0
   -4.0475   -1.9822    1.6567 H   0  0  0  0  0  0  0  0  0  0  0  0
   -3.6966   -3.0999    0.2796 H   0  0  0  0  0  0  0  0  0  0  0  0
   -5.2331   -2.1639    0.3214 H   0  0  0  0  0  0  0  0  0  0  0  0
   -1.2049   -2.1150   -0.7608 C   0  0  0  0  0  0  0  0  0  0  0  0
   -1.2357    0.2644   -0.1341 N   0  0  0  0  0  2  0  0  0  0  0  0
   -1.8147   -3.1108   -1.1378 O   0  5  0  0  0  0  0  0  0  0  0  0
    0.0630   -1.8949   -0.9533 O   0  0  0  0  0  0  0  0  0  0  0  0
  1 22  1  0  0  0  0
  1  2  2  0  0  0  0
  2 13  1  0  0  0  0
  3  2  1  0  0  0  0
  3  4  1  0  0  0  0
  5  6  1  6  0  0  0
  5  7  1  0  0  0  0
  5  3  1  0  0  0  0
  5 17  1  0  0  0  0
  7  8  1  1  0  0  0
  9  1  1  0  0  0  0
  9 10  1  0  0  0  0
 11  9  1  0  0  0  0
 12  9  1  0  0  0  0
 13 14  1  0  0  0  0
 13 16  1  0  0  0  0
 15 13  1  0  0  0  0
 17 18  1  0  0  0  0
 19 17  1  0  0  0  0
 20 17  1  0  0  0  0
 21  7  1  0  0  0  0
 22  7  1  0  0  0  0
 23 21  1  0  0  0  0
 24 21  2  0  0  0  0
M  CHG  1  23  -1
M  END
