1,3
q = -1.0

 36 36  0  0  1  0  0  0  0  0999 V2000
   -1.7536   -0.0133   -0.6534 O   0  0  0  0  0  1  0  0  0  0  0  0
   -4.0927   -1.0073   -1.3063 O   0  0  0  0  0  0  0  0  0  0  0  0
   -0.2620    1.7045    0.8435 N   0  0  0  0  0  2  0  0  0  0  0  0
    1.0019    1.7814   -1.9081 N   0  0  0  0  0  0  0  0  0  0  0  0
   -2.7891    0.5929   -0.1608 C   0  0  2  0  0  3  0  0  0  0  0  0
   -4.1036    0.1069   -0.5142 C   0  0  0  0  0  0  0  0  0  0  0  0
   -5.2508    0.7435   -0.0393 C   0  0  0  0  0  0  0  0  0  0  0  0
   -6.2451    0.3615   -0.3090 H   0  0  0  0  0  0  0  0  0  0  0  0
   -5.1525    1.8831    0.8015 C   0  0  0  0  0  0  0  0  0  0  0  0
   -6.0705    2.3699    1.1608 H   0  0  0  0  0  0  0  0  0  0  0  0
   -3.9051    2.3675    1.1653 C   0  0  0  0  0  0  0  0  0  0  0  0
   -3.8140    3.2485    1.8199 H   0  0  0  0  0  0  0  0  0  0  0  0
   -2.7170    1.7310    0.7043 C   0  0  0  0  0  0  0  0  0  0  0  0
   -1.4324    2.2514    1.0697 C   0  0  0  0  0  0  0  0  0  0  0  0
   -1.4413    3.2328    1.5884 H   0  0  0  0  0  0  0  0  0  0  0  0
    0.9002    2.5478    1.1571 C   0  0  0  0  0  0  0  0  0  0  0  0
    0.6382    3.2037    2.0167 H   0  0  0  0  0  0  0  0  0  0  0  0
    1.7401    1.8939    1.4520 H   0  0  0  0  0  0  0  0  0  0  0  0
    1.3223    3.4366   -0.0238 C   0  0  0  0  0  0  0  0  0  0  0  0
    0.4694    4.0855   -0.3220 H   0  0  0  0  0  0  0  0  0  0  0  0
    2.1090    4.1277    0.3472 H   0  0  0  0  0  0  0  0  0  0  0  0
    1.9041    2.7103   -1.2399 C   0  0  0  0  0  0  0  0  0  0  0  0
    2.7858    2.1275   -0.9014 H   0  0  0  0  0  0  0  0  0  0  0  0
    2.2915    3.4861   -1.9591 H   0  0  0  0  0  0  0  0  0  0  0  0
    1.6926    0.9764   -2.8973 C   0  0  0  0  0  0  0  0  0  0  0  0
    2.0583    1.5760   -3.7750 H   0  0  0  0  0  0  0  0  0  0  0  0
    2.5674    0.4763   -2.4371 H   0  0  0  0  0  0  0  0  0  0  0  0
    1.0139    0.1880   -3.2814 H   0  0  0  0  0  0  0  0  0  0  0  0
   -0.1988    2.3866   -2.4499 C   0  0  0  0  0  0  0  0  0  0  0  0
    0.0127    3.1333   -3.2625 H   0  0  0  0  0  0  0  0  0  0  0  0
   -0.8535    1.5942   -2.8638 H   0  0  0  0  0  0  0  0  0  0  0  0
   -0.7781    2.8960   -1.6561 H   0  0  0  0  0  0  0  0  0  0  0  0
   -5.3344   -1.5561   -1.6917 C   0  0  0  0  0  0  0  0  0  0  0  0
   -5.1085   -2.4385   -2.3193 H   0  0  0  0  0  0  0  0  0  0  0  0
   -5.9372   -1.8816   -0.8129 H   0  0  0  0  0  0  0  0  0  0  0  0
   -5.9411   -0.8353   -2.2860 H   0  0  0  0  0  0  0  0  0  0  0  0
  2  6  1  0  0  0  0
  3 14  1  0  0  0  0
  3 16  1  0  0  0  0
  4 22  1  0  0  0  0
  5  1  1  6  0  0  0
  5 13  1  0  0  0  0
  6  5  1  0  0  0  0
  6  7  2  0  0  0  0
  7  9  1  0  0  0  0
  8  7  1  0  0  0  0
  9 10  1  0  0  0  0
  9 11  2  0  0  0  0
 11 12  1  0  0  0  0
 13 14  2  0  0  0  0
 13 11  1  0  0  0  0
 14 15  1  0  0  0  0
 16 18  1  0  0  0  0
 16 17  1  0  0  0  0
 19 21  1  0  0  0  0
 19 16  1  0  0  0  0
 20 19  1  0  0  0  0
 22 23  1  0  0  0  0
 22 19  1  0  0  0  0
 24 22  1  0  0  0  0
 25 27  1  0  0  0  0
 25  4  1  0  0  0  0
 26 25  1  0  0  0  0
 28 25  1  0  0  0  0
 29  4  1  0  0  0  0
 29 32  1  0  0  0  0
 30 29  1  0  0  0  0
 31 29  1  0  0  0  0
 33  2  1  0  0  0  0
 33 35  1  0  0  0  0
 34 33  1  0  0  0  0
 36 33  1  0  0  0  0
M  END
