1,2
q = -1.0, confidence = 0.002

 34 36  0  0  0  0  0  0  0  0999 V2000
    0.5347   -1.9223   -0.2649 O   0  5  0  0  0  0  0  0  0  0  0  0
    0.0093    0.8784    0.0910 N   0  0  0  0  0  2  0  0  0  0  0  0
    1.7772   -1.5596   -0.2210 C   0  0  0  0  0  0  0  0  0  0  0  0
    2.7551   -2.5979   -0.4490 C   0  0  0  0  0  0  0  0  0  0  0  0
    2.3612   -3.6029   -0.6580 H   0  0  0  0  0  0  0  0  0  0  0  0
    4.1009   -2.3414   -0.3979 C   0  0  0  0  0  0  0  0  0  0  0  0
    4.8252   -3.1534   -0.5719 H   0  0  0  0  0  0  0  0  0  0  0  0
    4.6074   -1.0309   -0.1076 C   0  0  0  0  0  0  0  0  0  0  0  0
    3.6773    0.0433    0.1178 C   0  0  0  0  0  0  0  0  0  0  0  0
    2.2409   -0.2187    0.0230 C   0  0  0  0  0  0  0  0  0  0  0  0
    1.3338    0.8772    0.1048 C   0  0  0  0  0  3  0  0  0  0  0  0
    1.7927    1.8814    0.1491 H   0  0  0  0  0  0  0  0  0  0  0  0
   -0.6031    2.1709    0.0947 C   0  0  0  0  0  0  0  0  0  0  0  0
   -0.7773    2.8644    1.3060 C   0  0  0  0  0  0  0  0  0  0  0  0
   -0.4150    2.4011    2.2361 H   0  0  0  0  0  0  0  0  0  0  0  0
   -1.4001    4.1214    1.3201 C   0  0  0  0  0  0  0  0  0  0  0  0
   -1.5321    4.6570    2.2722 H   0  0  0  0  0  0  0  0  0  0  0  0
   -1.8505    4.6857    0.1181 C   0  0  0  0  0  0  0  0  0  0  0  0
   -2.3440    5.6691    0.1177 H   0  0  0  0  0  0  0  0  0  0  0  0
   -1.6671    3.9943   -1.0895 C   0  0  0  0  0  0  0  0  0  0  0  0
   -2.0130    4.4434   -2.0340 H   0  0  0  0  0  0  0  0  0  0  0  0
   -1.0426    2.7331   -1.1325 C   0  0  0  0  0  0  0  0  0  0  0  0
   -0.8373    1.9916   -2.4255 C   0  0  0  0  0  0  0  0  0  0  0  0
   -1.3046    2.5251   -3.2746 H   0  0  0  0  0  0  0  0  0  0  0  0
   -1.2614    0.9657   -2.3614 H   0  0  0  0  0  0  0  0  0  0  0  0
    0.2416    1.8593   -2.6510 H   0  0  0  0  0  0  0  0  0  0  0  0
    6.0059   -0.7958   -0.0336 C   0  0  0  0  0  0  0  0  0  0  0  0
    6.6877   -1.6417   -0.2150 H   0  0  0  0  0  0  0  0  0  0  0  0
    6.5096    0.4648    0.2641 C   0  0  0  0  0  0  0  0  0  0  0  0
    7.5948    0.6360    0.3200 H   0  0  0  0  0  0  0  0  0  0  0  0
    5.6053    1.5231    0.5060 C   0  0  0  0  0  0  0  0  0  0  0  0
    5.9872    2.5240    0.7590 H   0  0  0  0  0  0  0  0  0  0  0  0
    4.2295    1.3157    0.4386 C   0  0  0  0  0  0  0  0  0  0  0  0
    3.5705    2.1667    0.6594 H   0  0  0  0  0  0  0  0  0  0  0  0
  1  3  1  0  0  0  0
  2 13  1  0  0  0  0
  2 11  1  0  0  0  0
  3 10  1  0  0  0  0
  4  6  1  0  0  0  0
  4  3  2  0  0  0  0
  5  4  1  0  0  0  0
  6  8  2  0  0  0  0
  7  6  1  0  0  0  0
  8 27  1  0  0  0  0
  8  9  1  0  0  0  0
  9 33  1  0  0  0  0
 10 11  1  0  0  0  0
 10  9  2  0  0  0  0
 11 12  1  0  0  0  0
 13 14  1  0  0  0  0
 14 16  2  0  0  0  0
 14 15  1  0  0  0  0
 16 17  1  0  0  0  0
 18 16  1  0  0  0  0
 19 18  1  0  0  0  0
 20 18  2  0  0  0  0
 21 20  1  0  0  0  0
 22 20  1  0  0  0  0
 22 13  2  0  0  0  0
 23 25  1  0  0  0  0
 23 22  1  0  0  0  0
 24 23  1  0  0  0  0
 26 23  1  0  0  0  0
 27 29  2  0  0  0  0
 28 27  1  0  0  0  0
 29 30  1  0  0  0  0
 29 31  1  0  0  0  0
 31 32  1  0  0  0  0
 33 31  2  0  0  0  0
 33 34  1  0  0  0  0
M  CHG  1   1  -1
M  END
