1,3
q = -1.0, confidence = 0.002

 41 43  0  0  1  0  0  0  0  0999 V2000
   -1.7698    1.9539   -0.1064 O   0  5  0  0  0  0  0  0  0  0  0  0
    5.2623   -3.1860   -1.2334 O   0  0  0  0  0  0  0  0  0  0  0  0
   -0.2175   -0.4009    0.5311 N   0  0  0  0  0  2  0  0  0  0  0  0
   -0.6245    2.5596   -0.0699 C   0  0  0  0  0  0  0  0  0  0  0  0
   -0.6451    3.9928   -0.2439 C   0  0  0  0  0  0  0  0  0  0  0  0
   -1.6332    4.4579   -0.3724 H   0  0  0  0  0  0  0  0  0  0  0  0
    0.5116    4.7302   -0.2553 C   0  0  0  0  0  0  0  0  0  0  0  0
    0.4690    5.8228   -0.3924 H   0  0  0  0  0  0  0  0  0  0  0  0
    1.7988    4.1141   -0.1095 C   0  0  0  0  0  0  0  0  0  0  0  0
    1.8728    2.6891    0.0760 C   0  0  0  0  0  0  0  0  0  0  0  0
    0.6380    1.9102    0.1430 C   0  0  0  0  0  0  0  0  0  0  0  0
    0.7196    0.5275    0.4826 C   0  0  0  0  0  0  0  0  0  0  0  0
    1.7287    0.1831    0.7686 H   0  0  0  0  0  0  0  0  0  0  0  0
    0.2379   -1.7164    1.0772 C   0  0  2  0  0  0  0  0  0  0  0  0
   -0.4838   -2.4667    0.7013 H   0  0  0  0  0  0  0  0  0  0  0  0
    0.1274   -1.6885    2.6031 C   0  0  0  0  0  0  0  0  0  0  0  0
   -0.8980   -1.3896    2.8954 H   0  0  0  0  0  0  0  0  0  0  0  0
    0.8258   -0.9466    3.0409 H   0  0  0  0  0  0  0  0  0  0  0  0
    0.3475   -2.6825    3.0404 H   0  0  0  0  0  0  0  0  0  0  0  0
    1.6006   -2.1320    0.5368 C   0  0  0  0  0  0  0  0  0  0  0  0
    1.7431   -2.3414   -0.8557 C   0  0  0  0  0  0  0  0  0  0  0  0
    0.8681   -2.2069   -1.5115 H   0  0  0  0  0  0  0  0  0  0  0  0
    2.9687   -2.6907   -1.4181 C   0  0  0  0  0  0  0  0  0  0  0  0
    3.0802   -2.8512   -2.5001 H   0  0  0  0  0  0  0  0  0  0  0  0
    4.1093   -2.8459   -0.5965 C   0  0  0  0  0  0  0  0  0  0  0  0
    3.9876   -2.6469    0.7919 C   0  0  0  0  0  0  0  0  0  0  0  0
    4.8520   -2.7637    1.4589 H   0  0  0  0  0  0  0  0  0  0  0  0
    2.7405   -2.2935    1.3400 C   0  0  0  0  0  0  0  0  0  0  0  0
    2.6744   -2.1419    2.4271 H   0  0  0  0  0  0  0  0  0  0  0  0
    6.4351   -3.3433   -0.4586 C   0  0  0  0  0  0  0  0  0  0  0  0
    7.2439   -3.6107   -1.1637 H   0  0  0  0  0  0  0  0  0  0  0  0
    6.3297   -4.1560    0.2952 H   0  0  0  0  0  0  0  0  0  0  0  0
    6.7127   -2.4034    0.0700 H   0  0  0  0  0  0  0  0  0  0  0  0
    2.9862    4.8918   -0.1612 C   0  0  0  0  0  3  0  0  0  0  0  0
    2.8920    5.9805   -0.3003 H   0  0  0  0  0  0  0  0  0  0  0  0
    4.2390    4.3012   -0.0474 C   0  0  0  0  0  0  0  0  0  0  0  0
    5.1526    4.9126   -0.0909 H   0  0  0  0  0  0  0  0  0  0  0  0
    4.3238    2.8990    0.1096 C   0  0  0  0  0  0  0  0  0  0  0  0
    5.3095    2.4136    0.1790 H   0  0  0  0  0  0  0  0  0  0  0  0
    3.1738    2.1153    0.1650 C   0  0  0  0  0  0  0  0  0  0  0  0
    3.2961    1.0267    0.2561 H   0  0  0  0  0  0  0  0  0  0  0  0
  1  4  1  0  0  0  0
  2 25  1  0  0  0  0
  2 30  1  0  0  0  0
  3 14  1  0  0  0  0
  4 11  1  0  0  0  0
  5  4  2  0  0  0  0
  6  5  1  0  0  0  0
  7  5  1  0  0  0  0
  7  9  2  0  0  0  0
  8  7  1  0  0  0  0
  9 10  1  0  0  0  0
 10 11  1  0  0  0  0
 10 40  2  0  0  0  0
 11 12  2  0  0  0  0
 12  3  1  0  0  0  0
 12 13  1  0  0  0  0
 14 15  1  6  0  0  0
 14 16  1  0  0  0  0
 16 17  1  0  0  0  0
 16 19  1  0  0  0  0
 16 18  1  0  0  0  0
 20 14  1  0  0  0  0
 20 28  1  0  0  0  0
 21 20  2  0  0  0  0
 22 21  1  0  0  0  0
 23 21  1  0  0  0  0
 23 25  2  0  0  0  0
 24 23  1  0  0  0  0
 25 26  1  0  0  0  0
 26 28  2  0  0  0  0
 26 27  1  0  0  0  0
 28 29  1  0  0  0  0
 30 33  1  0  0  0  0
 30 32  1  0  0  0  0
 31 30  1  0  0  0  0
 34  9  1  0  0  0  0
 34 36  1  0  0  0  0
 35 34  1  0  0  0  0
 36 38  2  0  0  0  0
 37 36  1  0  0  0  0
 38 40  1  0  0  0  0
 38 39  1  0  0  0  0
 40 41  1  0  0  0  0
M  CHG  1   1  -1
M  END
