1,5
q = -1.0

 31 32  0  0  0  0  0  0  0  0999 V2000
    1.4877    1.1365    0.0049 O   0  5  0  0  0  0  0  0  0  0  0  0
    2.7771    0.8265    0.0031 C   0  0  0  0  0  0  0  0  0  0  0  0
    3.3060   -0.5044    0.0016 C   0  0  0  0  0  0  0  0  0  0  0  0
    2.4181   -1.6580    0.0013 C   0  0  0  0  0  0  0  0  0  0  0  0
    1.0686   -1.5143   -0.0001 N   0  0  0  0  0  2  0  0  0  0  0  0
    0.5194   -2.7420   -0.0001 N   0  0  0  0  0  0  0  0  0  0  0  0
   -0.5180   -2.7299   -0.0023 H   0  0  0  0  0  0  0  0  0  0  0  0
    1.4742   -3.7019    0.0009 C   0  0  0  0  0  0  0  0  0  0  0  0
    1.2134   -4.7653    0.0010 H   0  0  0  0  0  0  0  0  0  0  0  0
    2.7087   -3.0553    0.0020 C   0  0  0  0  0  0  0  0  0  0  0  0
    3.6946   -3.5276    0.0034 H   0  0  0  0  0  0  0  0  0  0  0  0
    4.7093   -0.6972    0.0004 C   0  0  0  0  0  3  0  0  0  0  0  0
    5.0756   -1.7321   -0.0009 H   0  0  0  0  0  0  0  0  0  0  0  0
    5.6289    0.3568    0.0006 C   0  0  0  0  0  0  0  0  0  0  0  0
    7.1525    0.1477   -0.0007 C   0  0  0  0  0  0  0  0  0  0  0  0
    7.7583    0.8046   -1.2620 C   0  0  0  0  0  0  0  0  0  0  0  0
    7.5455    1.8915   -1.3008 H   0  0  0  0  0  0  0  0  0  0  0  0
    7.3428    0.3478   -2.1829 H   0  0  0  0  0  0  0  0  0  0  0  0
    8.8609    0.6768   -1.2788 H   0  0  0  0  0  0  0  0  0  0  0  0
    7.7599    0.8018    1.2613 C   0  0  0  0  0  0  0  0  0  0  0  0
    7.5471    1.8885    1.3028 H   0  0  0  0  0  0  0  0  0  0  0  0
    8.8625    0.6740    1.2764 H   0  0  0  0  0  0  0  0  0  0  0  0
    7.3456    0.3429    2.1817 H   0  0  0  0  0  0  0  0  0  0  0  0
    7.5317   -1.3430   -0.0027 C   0  0  0  0  0  0  0  0  0  0  0  0
    7.1456   -1.8669    0.8952 H   0  0  0  0  0  0  0  0  0  0  0  0
    8.6350   -1.4520   -0.0036 H   0  0  0  0  0  0  0  0  0  0  0  0
    7.1443   -1.8648   -0.9012 H   0  0  0  0  0  0  0  0  0  0  0  0
    5.0883    1.6673    0.0021 C   0  0  0  0  0  0  0  0  0  0  0  0
    5.7621    2.5384    0.0023 H   0  0  0  0  0  0  0  0  0  0  0  0
    3.7158    1.8956    0.0032 C   0  0  0  0  0  0  0  0  0  0  0  0
    3.3205    2.9229    0.0044 H   0  0  0  0  0  0  0  0  0  0  0  0
  2 30  2  0  0  0  0
  2  1  1  0  0  0  0
  3  2  1  0  0  0  0
  4  3  2  0  0  0  0
  4 10  1  0  0  0  0
  5  4  1  0  0  0  0
  6  5  1  0  0  0  0
  6  8  1  0  0  0  0
  7  6  1  0  0  0  0
  8  9  1  0  0  0  0
  8 10  2  0  0  0  0
 10 11  1  0  0  0  0
 12 14  1  0  0  0  0
 12  3  1  0  0  0  0
 13 12  1  0  0  0  0
 14 28  2  0  0  0  0
 15 14  1  0  0  0  0
 15 20  1  0  0  0  0
 16 15  1  0  0  0  0
 17 16  1  0  0  0  0
 18 16  1  0  0  0  0
 19 16  1  0  0  0  0
 20 22  1  0  0  0  0
 20 21  1  0  0  0  0
 20 23  1  0  0  0  0
 24 15  1  0  0  0  0
 24 25  1  0  0  0  0
 26 24  1  0  0  0  0
 27 24  1  0  0  0  0
 28 29  1  0  0  0  0
 28 30  1  0  0  0  0
 30 31  1  0  0  0  0
M  CHG  1   1  -1
M  END
