2,25
q = -1.0, confidence = 0.056

 39 40  0  0  0  0  0  0  0  0999 V2000
    2.9771   -2.7348   -1.1907 S   0  0  0  0  0  0  0  0  0  0  0  0
   -1.6174    2.1853    0.2163 O   0  5  0  0  0  0  0  0  0  0  0  0
    3.4890   -4.0366   -1.6526 O   0  0  0  0  0  0  0  0  0  0  0  0
    1.9830   -2.5879   -0.1043 O   0  0  0  0  0  0  0  0  0  0  0  0
    4.3842   -1.7005   -0.7763 C   0  0  0  0  0  0  0  0  0  0  0  0
    5.6351   -1.9734   -1.3533 C   0  0  0  0  0  0  0  0  0  0  0  0
    5.7553   -2.8560   -1.9986 H   0  0  0  0  0  0  0  0  0  0  0  0
    6.7091   -1.1193   -1.0743 C   0  0  0  0  0  0  0  0  0  0  0  0
    7.6943   -1.3275   -1.5212 H   0  0  0  0  0  0  0  0  0  0  0  0
    6.5554   -0.0002   -0.2264 C   0  0  0  0  0  0  0  0  0  0  0  0
    5.2893    0.2400    0.3466 C   0  0  0  0  0  0  0  0  0  0  0  0
    5.1468    1.1020    1.0152 H   0  0  0  0  0  0  0  0  0  0  0  0
    4.2042   -0.6037    0.0794 C   0  0  0  0  0  0  0  0  0  0  0  0
    3.2234   -0.4248    0.5375 H   0  0  0  0  0  0  0  0  0  0  0  0
   -2.4873    1.7530   -2.0185 C   0  0  0  0  0  0  0  0  0  0  0  0
   -2.4533    2.4498   -0.7413 C   0  0  0  0  0  0  0  0  0  0  0  0
   -3.4376    3.4726   -0.5392 C   0  0  0  0  0  0  0  0  0  0  0  0
   -3.4139    3.9897    0.4311 H   0  0  0  0  0  0  0  0  0  0  0  0
   -4.3660    3.8056   -1.5172 C   0  0  0  0  0  0  0  0  0  0  0  0
   -5.0942    4.6085   -1.3199 H   0  0  0  0  0  0  0  0  0  0  0  0
   -4.3932    3.1259   -2.7615 C   0  0  0  0  0  0  0  0  0  0  0  0
   -5.1338    3.3913   -3.5291 H   0  0  0  0  0  0  0  0  0  0  0  0
   -3.4678    2.1154   -2.9885 C   0  0  0  0  0  0  0  0  0  0  0  0
   -3.4793    1.5629   -3.9425 H   0  0  0  0  0  0  0  0  0  0  0  0
   -0.6322    0.1603   -1.6588 N   0  0  0  0  0  2  0  0  0  0  0  0
    2.2689   -2.0191   -2.5518 N   0  0  0  0  0  0  0  0  0  0  0  0
    2.8706   -2.1134   -3.3749 H   0  0  0  0  0  0  0  0  0  0  0  0
   -1.6306    0.6447   -2.3519 C   0  0  0  0  0  3  0  0  0  0  0  0
   -1.8816    0.1250   -3.3039 H   0  0  0  0  0  0  0  0  0  0  0  0
    0.0460   -1.0383   -2.1237 C   0  0  0  0  0  0  0  0  0  0  0  0
   -0.0287   -1.8160   -1.3356 H   0  0  0  0  0  0  0  0  0  0  0  0
   -0.4435   -1.4463   -3.0361 H   0  0  0  0  0  0  0  0  0  0  0  0
    1.5341   -0.7678   -2.3967 C   0  0  0  0  0  0  0  0  0  0  0  0
    1.9534   -0.1333   -1.5811 H   0  0  0  0  0  0  0  0  0  0  0  0
    1.6548   -0.1726   -3.3245 H   0  0  0  0  0  0  0  0  0  0  0  0
    7.7202    0.9017    0.0903 C   0  0  0  0  0  0  0  0  0  0  0  0
    7.3849    1.9390    0.2863 H   0  0  0  0  0  0  0  0  0  0  0  0
    8.4619    0.9198   -0.7321 H   0  0  0  0  0  0  0  0  0  0  0  0
    8.2511    0.5534    1.0026 H   0  0  0  0  0  0  0  0  0  0  0  0
  1  5  1  0  0  0  0
  1  4  2  0  0  0  0
  3  1  2  0  0  0  0
  5 13  1  0  0  0  0
  6  8  1  0  0  0  0
  6  5  2  0  0  0  0
  7  6  1  0  0  0  0
  8 10  2  0  0  0  0
  9  8  1  0  0  0  0
 10 36  1  0  0  0  0
 10 11  1  0  0  0  0
 11 12  1  0  0  0  0
 13 11  2  0  0  0  0
 13 14  1  0  0  0  0
 15 16  1  0  0  0  0
 16 17  2  0  0  0  0
 16  2  1  0  0  0  0
 17 18  1  0  0  0  0
 19 20  1  0  0  0  0
 19 17  1  0  0  0  0
 21 19  2  0  0  0  0
 22 21  1  0  0  0  0
 23 21  1  0  0  0  0
 23 15  2  0  0  0  0
 24 23  1  0  0  0  0
 26 33  1  0  0  0  0
 26  1  1  0  0  0  0
 27 26  1  0  0  0  0
 28 15  1  0  0  0  0
 28 25  1  0  0  0  0
 29 28  1  0  0  0  0
 30 25  1  0  0  0  0
 30 31  1  0  0  0  0
 32 30  1  0  0  0  0
 33 30  1  0  0  0  0
 33 34  1  0  0  0  0
 35 33  1  0  0  0  0
 36 37  1  0  0  0  0
 36 39  1  0  0  0  0
 38 36  1  0  0  0  0
M  CHG  1   2  -1
M  END
