1,7
q = -1.0

 38 39  0  0  0  0  0  0  0  0999 V2000
    0.0958    1.8509   -0.0226 O   0  5  0  0  0  0  0  0  0  0  0  0
   -0.2314    6.9039   -0.2650 O   0  0  0  0  0  0  0  0  0  0  0  0
   -1.0702    6.4147   -0.3526 H   0  0  0  0  0  0  0  0  0  0  0  0
    4.4008    6.1117    0.2759 O   0  0  0  0  0  0  0  0  0  0  0  0
    5.0296    5.3718    0.3646 H   0  0  0  0  0  0  0  0  0  0  0  0
    2.3571    1.4017    0.0225 N   0  0  0  0  0  0  0  0  0  0  0  0
    1.8696    0.1221    0.0167 N   0  0  0  0  0  2  0  0  0  0  0  0
    8.3442   -1.5365   -0.0487 N   0  0  0  0  0  0  0  0  0  0  0  0
    1.3411    2.2526    0.0026 C   0  0  0  0  0  0  0  0  0  0  0  0
    1.6065    3.7094    0.0045 C   0  0  0  0  0  0  0  0  0  0  0  0
    0.5301    4.6063   -0.1319 C   0  0  0  0  0  0  0  0  0  0  0  0
   -0.4892    4.2065   -0.2404 H   0  0  0  0  0  0  0  0  0  0  0  0
    0.7730    5.9924   -0.1330 C   0  0  0  0  0  0  0  0  0  0  0  0
    2.0812    6.4872    0.0044 C   0  0  0  0  0  0  0  0  0  0  0  0
    2.2668    7.5695    0.0049 H   0  0  0  0  0  0  0  0  0  0  0  0
    3.1511    5.5845    0.1427 C   0  0  0  0  0  0  0  0  0  0  0  0
    2.9211    4.1973    0.1422 C   0  0  0  0  0  0  0  0  0  0  0  0
    3.7501    3.4833    0.2556 H   0  0  0  0  0  0  0  0  0  0  0  0
    2.6787   -0.9194    0.0081 C   0  0  0  0  0  3  0  0  0  0  0  0
    2.1329   -1.8765    0.0082 H   0  0  0  0  0  0  0  0  0  0  0  0
    4.1221   -0.9890   -0.0059 C   0  0  0  0  0  0  0  0  0  0  0  0
    5.0125    0.1193   -0.0428 C   0  0  0  0  0  0  0  0  0  0  0  0
    4.5759    1.1254   -0.0635 H   0  0  0  0  0  0  0  0  0  0  0  0
    6.3922   -0.0601   -0.0580 C   0  0  0  0  0  0  0  0  0  0  0  0
    7.0340    0.8297   -0.0899 H   0  0  0  0  0  0  0  0  0  0  0  0
    6.9763   -1.3617   -0.0357 C   0  0  0  0  0  0  0  0  0  0  0  0
    6.0863   -2.4760   -0.0014 C   0  0  0  0  0  0  0  0  0  0  0  0
    6.4784   -3.5007    0.0138 H   0  0  0  0  0  0  0  0  0  0  0  0
    4.7094   -2.2837    0.0117 C   0  0  0  0  0  0  0  0  0  0  0  0
    4.0491   -3.1653    0.0366 H   0  0  0  0  0  0  0  0  0  0  0  0
    9.2239   -0.3851   -0.0892 C   0  0  0  0  0  0  0  0  0  0  0  0
    9.0646    0.2324   -1.0019 H   0  0  0  0  0  0  0  0  0  0  0  0
   10.2744   -0.7269   -0.0914 H   0  0  0  0  0  0  0  0  0  0  0  0
    9.0839    0.2794    0.7929 H   0  0  0  0  0  0  0  0  0  0  0  0
    8.9058   -2.8725   -0.0306 C   0  0  0  0  0  0  0  0  0  0  0  0
    8.6082   -3.4390    0.8804 H   0  0  0  0  0  0  0  0  0  0  0  0
   10.0085   -2.8068   -0.0422 H   0  0  0  0  0  0  0  0  0  0  0  0
    8.5910   -3.4717   -0.9148 H   0  0  0  0  0  0  0  0  0  0  0  0
  1  9  1  0  0  0  0
  2 13  1  0  0  0  0
  3  2  1  0  0  0  0
  4  5  1  0  0  0  0
  7  6  1  0  0  0  0
  8 26  1  0  0  0  0
  8 35  1  0  0  0  0
  9 10  1  0  0  0  0
  9  6  2  0  0  0  0
 10 17  1  0  0  0  0
 11 10  2  0  0  0  0
 12 11  1  0  0  0  0
 13 11  1  0  0  0  0
 13 14  2  0  0  0  0
 14 15  1  0  0  0  0
 14 16  1  0  0  0  0
 16  4  1  0  0  0  0
 17 16  2  0  0  0  0
 17 18  1  0  0  0  0
 19 20  1  0  0  0  0
 19  7  1  0  0  0  0
 21 19  1  0  0  0  0
 21 29  1  0  0  0  0
 22 21  2  0  0  0  0
 23 22  1  0  0  0  0
 24 22  1  0  0  0  0
 24 26  2  0  0  0  0
 25 24  1  0  0  0  0
 26 27  1  0  0  0  0
 27 29  2  0  0  0  0
 27 28  1  0  0  0  0
 29 30  1  0  0  0  0
 31  8  1  0  0  0  0
 31 34  1  0  0  0  0
 32 31  1  0  0  0  0
 33 31  1  0  0  0  0
 35 36  1  0  0  0  0
 37 35  1  0  0  0  0
 38 35  1  0  0  0  0
M  CHG  1   1  -1
M  END
