1,2
q = -1.0

 18 18  0  0  0  0  0  0  0  0999 V2000
   -1.4476    1.1532    0.0020 O   0  5  0  0  0  0  0  0  0  0  0  0
   -1.0521   -1.5025    0.0009 N   0  0  0  0  0  2  0  0  0  0  0  0
   -3.2448   -0.5105    0.0002 C   0  0  0  0  0  0  0  0  0  0  0  0
   -2.7167    0.8372    0.0010 C   0  0  0  0  0  0  0  0  0  0  0  0
   -3.6544    1.9174    0.0010 C   0  0  0  0  0  0  0  0  0  0  0  0
   -3.2365    2.9347    0.0018 H   0  0  0  0  0  0  0  0  0  0  0  0
   -5.0251    1.6954   -0.0002 C   0  0  0  0  0  0  0  0  0  0  0  0
   -5.7128    2.5557   -0.0002 H   0  0  0  0  0  0  0  0  0  0  0  0
   -5.5424    0.3786   -0.0013 C   0  0  0  0  0  0  0  0  0  0  0  0
   -6.6277    0.2035   -0.0023 H   0  0  0  0  0  0  0  0  0  0  0  0
   -4.6569   -0.6930   -0.0010 C   0  0  0  0  0  3  0  0  0  0  0  0
   -5.0620   -1.7150   -0.0019 H   0  0  0  0  0  0  0  0  0  0  0  0
   -2.3549   -1.6575    0.0007 C   0  0  0  0  0  0  0  0  0  0  0  0
   -2.9196   -3.0573    0.0008 C   0  0  0  0  0  0  0  0  0  0  0  0
   -2.1080   -3.8094    0.0035 H   0  0  0  0  0  0  0  0  0  0  0  0
   -3.5530   -3.2320   -0.8924 H   0  0  0  0  0  0  0  0  0  0  0  0
   -3.5575   -3.2304    0.8911 H   0  0  0  0  0  0  0  0  0  0  0  0
   -0.4941   -2.3687    0.0014 H   0  0  0  0  0  0  0  0  0  0  0  0
  2 18  1  0  0  0  0
  3 13  2  0  0  0  0
  3  4  1  0  0  0  0
  4  5  2  0  0  0  0
  4  1  1  0  0  0  0
  5  6  1  0  0  0  0
  7  5  1  0  0  0  0
  8  7  1  0  0  0  0
  9 11  1  0  0  0  0
  9  7  2  0  0  0  0
 10  9  1  0  0  0  0
 11  3  1  0  0  0  0
 12 11  1  0  0  0  0
 13 14  1  0  0  0  0
 13  2  1  0  0  0  0
 14 15  1  0  0  0  0
 14 17  1  0  0  0  0
 16 14  1  0  0  0  0
M  CHG  1   1  -1
M  END
