3,5
q = 0.0, confidence = 0.99

 32 32  0  0  0  0  0  0  0  0999 V2000
   -6.3869    0.2032    0.3834 O   0  0  0  0  0  0  0  0  0  0  0  0
   -5.3918    2.0588   -0.2132 O   0  0  0  0  0  0  0  0  0  0  0  0
   -0.5196   -1.9165   -0.0650 O   0  5  0  0  0  0  0  0  0  0  0  0
   -5.3876    0.8548    0.0658 N   0  0  0  0  0  0  0  0  0  0  0  0
    0.6578    0.6515   -0.9695 N   0  0  0  0  0  2  0  0  0  0  0  0
    3.2685    1.5322    0.3236 N   0  3  0  0  0  0  0  0  0  0  0  0
   -1.7000    0.1884   -0.3983 C   0  0  0  0  0  0  0  0  0  0  0  0
   -1.6094   -1.2329   -0.0621 C   0  0  0  0  0  0  0  0  0  0  0  0
   -2.8406   -1.8990    0.2767 C   0  0  0  0  0  0  0  0  0  0  0  0
   -2.7643   -2.9697    0.5143 H   0  0  0  0  0  0  0  0  0  0  0  0
   -4.0518   -1.2368    0.3257 C   0  0  0  0  0  0  0  0  0  0  0  0
   -4.9854   -1.7472    0.5995 H   0  0  0  0  0  0  0  0  0  0  0  0
   -4.1055    0.1460    0.0173 C   0  0  0  0  0  0  0  0  0  0  0  0
   -2.9580    0.8380   -0.3431 C   0  0  0  0  0  0  0  0  0  0  0  0
   -3.0523    1.9052   -0.5927 H   0  0  0  0  0  0  0  0  0  0  0  0
   -0.5977    0.9947   -0.8528 C   0  0  0  0  0  3  0  0  0  0  0  0
   -0.8847    2.0282   -1.1568 H   0  0  0  0  0  0  0  0  0  0  0  0
    1.5678    1.6176   -1.5695 C   0  0  0  0  0  0  0  0  0  0  0  0
    1.2241    2.6633   -1.3853 H   0  0  0  0  0  0  0  0  0  0  0  0
    1.5662    1.4895   -2.6763 H   0  0  0  0  0  0  0  0  0  0  0  0
    3.0169    1.4025   -1.1504 C   0  0  0  0  0  0  0  0  0  0  0  0
    3.3117    0.3643   -1.4172 H   0  0  0  0  0  0  0  0  0  0  0  0
    3.6828    2.1188   -1.6738 H   0  0  0  0  0  0  0  0  0  0  0  0
    4.5692    0.9101    0.6997 C   0  0  0  0  0  0  0  0  0  0  0  0
    5.4010    1.4574    0.2160 H   0  0  0  0  0  0  0  0  0  0  0  0
    4.5385   -0.1461    0.3649 H   0  0  0  0  0  0  0  0  0  0  0  0
    4.6673    0.9449    1.7996 H   0  0  0  0  0  0  0  0  0  0  0  0
    3.1160    2.9109    0.8437 C   0  0  0  0  0  0  0  0  0  0  0  0
    3.1941    2.8815    1.9458 H   0  0  0  0  0  0  0  0  0  0  0  0
    2.1183    3.2989    0.5710 H   0  0  0  0  0  0  0  0  0  0  0  0
    3.9038    3.5648    0.4224 H   0  0  0  0  0  0  0  0  0  0  0  0
    2.5341    0.9242    0.8812 H   0  0  0  0  0  0  0  0  0  0  0  0
  2  4  2  0  0  0  0
  3  8  1  0  0  0  0
  4  1  2  0  0  0  0
  5 16  1  0  0  0  0
  6 24  1  0  0  0  0
  6 28  1  0  0  0  0
  6 32  1  0  0  0  0
  7 14  2  0  0  0  0
  7  8  1  0  0  0  0
  8  9  2  0  0  0  0
  9 11  1  0  0  0  0
  9 10  1  0  0  0  0
 11 12  1  0  0  0  0
 13  4  1  0  0  0  0
 13 11  2  0  0  0  0
 14 13  1  0  0  0  0
 15 14  1  0  0  0  0
 16  7  1  0  0  0  0
 17 16  1  0  0  0  0
 18 19  1  0  0  0  0
 18 21  1  0  0  0  0
 18  5  1  0  0  0  0
 20 18  1  0  0  0  0
 21  6  1  0  0  0  0
 22 21  1  0  0  0  0
 23 21  1  0  0  0  0
 24 27  1  0  0  0  0
 25 24  1  0  0  0  0
 26 24  1  0  0  0  0
 28 29  1  0  0  0  0
 30 28  1  0  0  0  0
 31 28  1  0  0  0  0
M  CHG  2   3  -1   6   1
M  END
