3,6
q = -1.0, confidence = 0.0

 29 29  0  0  1  0  0  0  0  0999 V2000
   -3.4532   -1.0731   -2.4752 C   0  0  0  0  0  0  0  0  0  0  0  0
   -2.0458   -0.7292   -2.0775 C   0  0  0  0  0  0  0  0  0  0  0  0
   -1.6047   -1.3407   -1.0191 O   0  5  0  0  0  0  0  0  0  0  0  0
   -1.2715    0.1905   -2.7703 C   0  0  0  0  0  0  0  0  0  0  0  0
    0.0405    0.6004   -2.3715 C   0  0  2  0  0  3  0  0  0  0  0  0
    0.6570    0.1118   -1.3030 N   0  0  0  0  0  2  0  0  0  0  0  0
    1.9537    0.6138   -0.9818 C   0  0  0  0  0  0  0  0  0  0  0  0
    3.1064   -0.0917   -1.3707 C   0  0  0  0  0  0  0  0  0  0  0  0
    4.3851    0.3695   -1.0223 C   0  0  0  0  0  0  0  0  0  0  0  0
    5.7192    2.0754    0.1377 O   0  0  0  0  0  0  0  0  0  0  0  0
    6.9043    1.3951   -0.2248 C   0  0  0  0  0  0  0  0  0  0  0  0
    4.5265    1.5497   -0.2624 C   0  0  0  0  0  0  0  0  0  0  0  0
    3.3711    2.2540    0.1389 C   0  0  0  0  0  0  0  0  0  0  0  0
    2.1029    1.7893   -0.2161 C   0  0  0  0  0  0  0  0  0  0  0  0
    0.7228    1.6442   -3.2294 C   0  0  0  0  0  0  0  0  0  0  0  0
   -3.5400   -2.1691   -2.6217 H   0  0  0  0  0  0  0  0  0  0  0  0
   -3.7710   -0.5480   -3.3939 H   0  0  0  0  0  0  0  0  0  0  0  0
   -4.1333   -0.8027   -1.6411 H   0  0  0  0  0  0  0  0  0  0  0  0
   -1.7021    0.6638   -3.6615 H   0  0  0  0  0  0  0  0  0  0  0  0
    2.9838   -1.0322   -1.9268 H   0  0  0  0  0  0  0  0  0  0  0  0
    5.2632   -0.2078   -1.3411 H   0  0  0  0  0  0  0  0  0  0  0  0
    3.4974    3.1648    0.7417 H   0  0  0  0  0  0  0  0  0  0  0  0
    1.2055    2.3313    0.1157 H   0  0  0  0  0  0  0  0  0  0  0  0
    7.7438    1.9803    0.1945 H   0  0  0  0  0  0  0  0  0  0  0  0
    6.9383    0.3641    0.1953 H   0  0  0  0  0  0  0  0  0  0  0  0
    7.0267    1.3295   -1.3297 H   0  0  0  0  0  0  0  0  0  0  0  0
    0.1141    1.8947   -4.1163 H   0  0  0  0  0  0  0  0  0  0  0  0
    1.7174    1.2835   -3.5593 H   0  0  0  0  0  0  0  0  0  0  0  0
    0.9110    2.5711   -2.6515 H   0  0  0  0  0  0  0  0  0  0  0  0
  1  2  1  0  0  0  0
  1 18  1  0  0  0  0
  2  3  1  0  0  0  0
  4  2  2  0  0  0  0
  5  4  1  1  0  0  0
  5  6  1  0  0  0  0
  6  7  1  0  0  0  0
  7 14  1  0  0  0  0
  8  9  1  0  0  0  0
  8  7  2  0  0  0  0
  9 12  2  0  0  0  0
 11 10  1  0  0  0  0
 11 24  1  0  0  0  0
 11 25  1  0  0  0  0
 12 10  1  0  0  0  0
 12 13  1  0  0  0  0
 13 22  1  0  0  0  0
 14 23  1  0  0  0  0
 14 13  2  0  0  0  0
 15 29  1  0  0  0  0
 15  5  1  0  0  0  0
 16  1  1  0  0  0  0
 17  1  1  0  0  0  0
 19  4  1  0  0  0  0
 20  8  1  0  0  0  0
 21  9  1  0  0  0  0
 26 11  1  0  0  0  0
 27 15  1  0  0  0  0
 28 15  1  0  0  0  0
M  CHG  1   3  -1
M  END
