3,6
q = -1.0

 22 21  0  0  1  0  0  0  0  0999 V2000
    1.0091   -3.9068   -0.2177 C   0  0  0  0  0  0  0  0  0  0  0  0
    0.2965   -2.5866   -0.3264 C   0  0  0  0  0  0  0  0  0  0  0  0
    0.2965   -1.8616    0.7565 O   0  5  0  0  0  0  0  0  0  0  0  0
   -0.3469   -2.1769   -1.4872 C   0  0  0  0  0  0  0  0  0  0  0  0
   -1.3076   -1.1092   -1.5143 C   0  0  2  0  0  3  0  0  0  0  0  0
   -1.4592   -0.2733   -0.4993 N   0  0  0  0  0  2  0  0  0  0  0  0
   -2.6761    0.5504   -0.4427 C   0  0  0  0  0  0  0  0  0  0  0  0
   -3.8987   -0.2578   -0.0917 C   0  0  0  0  0  0  0  0  0  0  0  0
   -5.0697   -0.2100   -0.7497 C   0  0  0  0  0  0  0  0  0  0  0  0
   -2.1966   -1.0328   -2.7341 C   0  0  0  0  0  0  0  0  0  0  0  0
    2.0729   -3.7434    0.0526 H   0  0  0  0  0  0  0  0  0  0  0  0
    0.9543   -4.4912   -1.1540 H   0  0  0  0  0  0  0  0  0  0  0  0
    0.5612   -4.4963    0.6085 H   0  0  0  0  0  0  0  0  0  0  0  0
   -0.2903   -2.8292   -2.3686 H   0  0  0  0  0  0  0  0  0  0  0  0
   -2.8300    1.1158   -1.3883 H   0  0  0  0  0  0  0  0  0  0  0  0
   -2.5249    1.2932    0.3648 H   0  0  0  0  0  0  0  0  0  0  0  0
   -3.7774   -0.8926    0.8033 H   0  0  0  0  0  0  0  0  0  0  0  0
   -5.2067    0.4279   -1.6400 H   0  0  0  0  0  0  0  0  0  0  0  0
   -5.9420   -0.7916   -0.4130 H   0  0  0  0  0  0  0  0  0  0  0  0
   -1.8313   -1.7006   -3.5345 H   0  0  0  0  0  0  0  0  0  0  0  0
   -2.2367    0.0045   -3.1252 H   0  0  0  0  0  0  0  0  0  0  0  0
   -3.2375   -1.3182   -2.4793 H   0  0  0  0  0  0  0  0  0  0  0  0
  1 11  1  0  0  0  0
  1 13  1  0  0  0  0
  2  1  1  0  0  0  0
  2  3  1  0  0  0  0
  4  2  2  0  0  0  0
  5  4  1  1  0  0  0
  5  6  1  0  0  0  0
  6  7  1  0  0  0  0
  7  8  1  0  0  0  0
  7 16  1  0  0  0  0
  8 17  1  0  0  0  0
  9 19  1  0  0  0  0
  9  8  2  0  0  0  0
 10 22  1  0  0  0  0
 10  5  1  0  0  0  0
 12  1  1  0  0  0  0
 14  4  1  0  0  0  0
 15  7  1  0  0  0  0
 18  9  1  0  0  0  0
 20 10  1  0  0  0  0
 21 10  1  0  0  0  0
M  CHG  1   3  -1
M  END
