8,9
q = -1.0, confidence = 0.016

 26 26  0  0  1  0  0  0  0  0999 V2000
    3.1545   -0.8893    1.1204 F   0  0  0  0  0  0  0  0  0  0  0  0
    4.2658    0.9495    1.6013 F   0  0  0  0  0  0  0  0  0  0  0  0
    3.4553   -0.0558   -1.6804 F   0  0  0  0  0  0  0  0  0  0  0  0
    4.9635    1.3455   -0.8976 F   0  0  0  0  0  0  0  0  0  0  0  0
    4.7545   -2.1625   -0.6756 F   0  0  0  0  0  0  0  0  0  0  0  0
    6.1008   -0.8976    0.4956 F   0  0  0  0  0  0  0  0  0  0  0  0
    6.1682   -0.8471   -1.6868 F   0  0  0  0  0  0  0  0  0  0  0  0
    1.1622    0.4014    0.2404 O   0  0  0  0  0  1  0  0  0  0  0  0
   -0.2373    2.7670   -0.1918 N   0  0  0  0  0  2  0  0  0  0  0  0
    4.2288    4.0754    0.8396 N   0  0  0  0  0  0  0  0  0  0  0  0
    2.1714    1.1508    0.4290 C   0  0  2  0  0  3  0  0  0  0  0  0
    2.1622    2.5610    0.3793 C   0  0  0  0  0  0  0  0  0  0  0  0
    0.9600    3.2862    0.0419 C   0  0  0  0  0  0  0  0  0  0  0  0
    3.3245    3.3513    0.6373 C   0  0  0  0  0  0  0  0  0  0  0  0
    3.4764    0.3569    0.6692 C   0  0  0  0  0  0  0  0  0  0  0  0
    4.3074    0.1901   -0.6466 C   0  0  0  0  0  0  0  0  0  0  0  0
    5.3574   -0.9644   -0.6205 C   0  0  0  0  0  0  0  0  0  0  0  0
    0.9589    4.7994   -0.0522 C   0  0  0  0  0  0  0  0  0  0  0  0
    0.9372    5.2129    0.9817 H   0  0  0  0  0  0  0  0  0  0  0  0
    1.8790    5.1955   -0.5225 H   0  0  0  0  0  0  0  0  0  0  0  0
   -1.1980    3.8560   -0.4838 C   0  0  0  0  0  0  0  0  0  0  0  0
   -1.8331    4.0172    0.4150 H   0  0  0  0  0  0  0  0  0  0  0  0
   -1.8871    3.5511   -1.2921 H   0  0  0  0  0  0  0  0  0  0  0  0
   -0.3365    5.0784   -0.8216 C   0  0  0  0  0  0  0  0  0  0  0  0
   -0.1283    5.1043   -1.9112 H   0  0  0  0  0  0  0  0  0  0  0  0
   -0.8189    6.0355   -0.5480 H   0  0  0  0  0  0  0  0  0  0  0  0
  3 16  1  0  0  0  0
  4 16  1  0  0  0  0
  5 17  1  0  0  0  0
  7 17  1  0  0  0  0
  9 13  1  0  0  0  0
 11  8  1  6  0  0  0
 11 15  1  0  0  0  0
 12 11  1  0  0  0  0
 12 14  1  0  0  0  0
 13 12  2  0  0  0  0
 14 10  3  0  0  0  0
 15  1  1  0  0  0  0
 15  2  1  0  0  0  0
 16 17  1  0  0  0  0
 16 15  1  0  0  0  0
 17  6  1  0  0  0  0
 18 13  1  0  0  0  0
 18 19  1  0  0  0  0
 20 18  1  0  0  0  0
 21  9  1  0  0  0  0
 21 22  1  0  0  0  0
 23 21  1  0  0  0  0
 24 26  1  0  0  0  0
 24 21  1  0  0  0  0
 24 18  1  0  0  0  0
 25 24  1  0  0  0  0
M  END
