1,2
q = -1.0

 47 48  0  0  1  0  0  0  0  0999 V2000
   -1.6914   -0.1022   -0.0207 O   0  0  0  0  0  1  0  0  0  0  0  0
    1.0607   -0.6339    0.1122 N   0  0  0  0  0  2  0  0  0  0  0  0
    2.4937   -0.5689    0.1564 C   0  0  0  0  0  0  0  0  0  0  0  0
    5.2912   -0.5087    0.2847 C   0  0  0  0  0  0  0  0  0  0  0  0
    6.3904   -0.4977    0.3407 H   0  0  0  0  0  0  0  0  0  0  0  0
   -3.2835   -1.8026    0.3616 C   0  0  0  0  0  0  0  0  0  0  0  0
   -1.8647   -1.3459    0.2639 C   0  0  2  0  0  3  0  0  0  0  0  0
    0.5567   -1.8290    0.4406 C   0  0  0  0  0  0  0  0  0  0  0  0
    1.3052   -2.6011    0.7039 H   0  0  0  0  0  0  0  0  0  0  0  0
    4.6523   -0.9871   -0.8655 C   0  0  0  0  0  0  0  0  0  0  0  0
    5.2565   -1.3407   -1.7150 H   0  0  0  0  0  0  0  0  0  0  0  0
    3.1237   -0.0388    1.3123 C   0  0  0  0  0  0  0  0  0  0  0  0
    3.2475   -1.0152   -0.9583 C   0  0  0  0  0  0  0  0  0  0  0  0
   -0.7903   -2.2248    0.5018 C   0  0  0  0  0  0  0  0  0  0  0  0
   -0.9871   -3.2606    0.8025 H   0  0  0  0  0  0  0  0  0  0  0  0
    2.5537   -1.5033   -2.2248 C   0  0  0  0  0  0  0  0  0  0  0  0
    1.4998   -1.1608   -2.1585 H   0  0  0  0  0  0  0  0  0  0  0  0
   -4.3051   -0.8298    0.4468 C   0  0  0  0  0  0  0  0  0  0  0  0
   -4.0105    0.2294    0.4463 H   0  0  0  0  0  0  0  0  0  0  0  0
   -3.6507   -3.1667    0.3582 C   0  0  0  0  0  0  0  0  0  0  0  0
   -2.8778   -3.9431    0.2646 H   0  0  0  0  0  0  0  0  0  0  0  0
   -4.9971   -3.5449    0.4437 C   0  0  0  0  0  0  0  0  0  0  0  0
   -5.2651   -4.6124    0.4322 H   0  0  0  0  0  0  0  0  0  0  0  0
    4.5294   -0.0265    1.3578 C   0  0  0  0  0  0  0  0  0  0  0  0
    5.0384    0.3692    2.2494 H   0  0  0  0  0  0  0  0  0  0  0  0
    3.1588   -0.8907   -3.4973 C   0  0  0  0  0  0  0  0  0  0  0  0
    3.1795    0.2162   -3.4412 H   0  0  0  0  0  0  0  0  0  0  0  0
    2.5614   -1.1785   -4.3865 H   0  0  0  0  0  0  0  0  0  0  0  0
    4.1972   -1.2401   -3.6739 H   0  0  0  0  0  0  0  0  0  0  0  0
   -5.6500   -1.2085    0.5375 C   0  0  0  0  0  0  0  0  0  0  0  0
   -6.4323   -0.4373    0.6116 H   0  0  0  0  0  0  0  0  0  0  0  0
   -6.0026   -2.5683    0.5368 C   0  0  0  0  0  0  0  0  0  0  0  0
   -7.0596   -2.8677    0.6058 H   0  0  0  0  0  0  0  0  0  0  0  0
    2.5424   -3.0401   -2.3024 C   0  0  0  0  0  0  0  0  0  0  0  0
    2.0315   -3.4882   -1.4275 H   0  0  0  0  0  0  0  0  0  0  0  0
    3.5768   -3.4426   -2.3299 H   0  0  0  0  0  0  0  0  0  0  0  0
    2.0173   -3.3864   -3.2167 H   0  0  0  0  0  0  0  0  0  0  0  0
    2.8797    1.7255    3.1410 C   0  0  0  0  0  0  0  0  0  0  0  0
    2.1659    2.1454    3.8788 H   0  0  0  0  0  0  0  0  0  0  0  0
    3.1158    2.5166    2.4005 H   0  0  0  0  0  0  0  0  0  0  0  0
    3.8136    1.4901    3.6928 H   0  0  0  0  0  0  0  0  0  0  0  0
    2.2791    0.4863    2.4656 C   0  0  0  0  0  0  0  0  0  0  0  0
    1.3081    0.7859    2.0129 H   0  0  0  0  0  0  0  0  0  0  0  0
    1.9884   -0.6214    3.4933 C   0  0  0  0  0  0  0  0  0  0  0  0
    1.4764   -1.4851    3.0257 H   0  0  0  0  0  0  0  0  0  0  0  0
    1.3375   -0.2433    4.3088 H   0  0  0  0  0  0  0  0  0  0  0  0
    2.9304   -0.9918    3.9494 H   0  0  0  0  0  0  0  0  0  0  0  0
  2  3  1  0  0  0  0
  2  8  1  0  0  0  0
  3 12  1  0  0  0  0
  4  5  1  0  0  0  0
  4 24  1  0  0  0  0
  6 18  1  0  0  0  0
  7  1  1  1  0  0  0
  7  6  1  0  0  0  0
  7 14  1  0  0  0  0
  8 14  2  0  0  0  0
  8  9  1  0  0  0  0
 10  4  2  0  0  0  0
 11 10  1  0  0  0  0
 12 24  2  0  0  0  0
 12 42  1  0  0  0  0
 13 10  1  0  0  0  0
 13  3  2  0  0  0  0
 14 15  1  0  0  0  0
 16 17  1  0  0  0  0
 16 13  1  0  0  0  0
 18 30  2  0  0  0  0
 19 18  1  0  0  0  0
 20  6  2  0  0  0  0
 20 22  1  0  0  0  0
 21 20  1  0  0  0  0
 22 32  2  0  0  0  0
 23 22  1  0  0  0  0
 24 25  1  0  0  0  0
 26 27  1  0  0  0  0
 26 16  1  0  0  0  0
 28 26  1  0  0  0  0
 29 26  1  0  0  0  0
 30 31  1  0  0  0  0
 32 30  1  0  0  0  0
 32 33  1  0  0  0  0
 34 16  1  0  0  0  0
 34 35  1  0  0  0  0
 36 34  1  0  0  0  0
 37 34  1  0  0  0  0
 38 41  1  0  0  0  0
 38 39  1  0  0  0  0
 40 38  1  0  0  0  0
 42 38  1  0  0  0  0
 42 44  1  0  0  0  0
 43 42  1  0  0  0  0
 44 47  1  0  0  0  0
 44 46  1  0  0  0  0
 45 44  1  0  0  0  0
M  END
