1,2
q = -1.0

 53 55  0  0  1  0  0  0  0  0999 V2000
   -1.1042    0.2142   -0.3099 O   0  0  0  0  0  1  0  0  0  0  0  0
    1.6209    0.6146    0.1705 N   0  0  0  0  0  2  0  0  0  0  0  0
   -1.2890    1.3920    0.1769 C   0  0  1  0  0  3  0  0  0  0  0  0
    1.1125    1.7553    0.6505 C   0  0  0  0  0  0  0  0  0  0  0  0
    1.8495    2.4494    1.0985 H   0  0  0  0  0  0  0  0  0  0  0  0
    3.0452    0.5017    0.3066 C   0  0  0  0  0  0  0  0  0  0  0  0
   -2.6936    1.9022    0.2018 C   0  0  0  0  0  0  0  0  0  0  0  0
    3.5787   -0.1891    1.4252 C   0  0  0  0  0  0  0  0  0  0  0  0
   -3.8191    1.0294    0.4485 C   0  0  0  0  0  0  0  0  0  0  0  0
    4.9771   -0.2486    1.5650 C   0  0  0  0  0  0  0  0  0  0  0  0
    5.4127   -0.7686    2.4314 H   0  0  0  0  0  0  0  0  0  0  0  0
   -3.6879   -0.3575    0.7673 C   0  0  0  0  0  0  0  0  0  0  0  0
   -2.6826   -0.7917    0.8171 H   0  0  0  0  0  0  0  0  0  0  0  0
   -0.2291    2.1782    0.6695 C   0  0  0  0  0  0  0  0  0  0  0  0
   -0.4444    3.1470    1.1368 H   0  0  0  0  0  0  0  0  0  0  0  0
    2.6442   -0.8338    2.4405 C   0  0  0  0  0  0  0  0  0  0  0  0
    1.6941   -1.0260    1.8950 H   0  0  0  0  0  0  0  0  0  0  0  0
   -2.9245    3.2562   -0.0547 C   0  0  0  0  0  0  0  0  0  0  0  0
   -2.0654    3.9093   -0.2674 H   0  0  0  0  0  0  0  0  0  0  0  0
    3.8857    1.0613   -0.6884 C   0  0  0  0  0  0  0  0  0  0  0  0
    5.2792    0.9790   -0.5049 C   0  0  0  0  0  0  0  0  0  0  0  0
    5.9501    1.4176   -1.2592 H   0  0  0  0  0  0  0  0  0  0  0  0
   -5.1522    1.5887    0.4010 C   0  0  0  0  0  0  0  0  0  0  0  0
    5.8236    0.3413    0.6165 C   0  0  0  0  0  0  0  0  0  0  0  0
    6.9156    0.2903    0.7456 H   0  0  0  0  0  0  0  0  0  0  0  0
   -4.2325    3.7959   -0.0937 C   0  0  0  0  0  0  0  0  0  0  0  0
   -4.3725    4.8653   -0.3124 H   0  0  0  0  0  0  0  0  0  0  0  0
   -4.8030   -1.1504    0.9984 C   0  0  0  0  0  0  0  0  0  0  0  0
   -4.6688   -2.2160    1.2407 H   0  0  0  0  0  0  0  0  0  0  0  0
    3.2900    1.7274   -1.9232 C   0  0  0  0  0  0  0  0  0  0  0  0
    2.2359    1.3840   -1.9862 H   0  0  0  0  0  0  0  0  0  0  0  0
   -6.2761    0.7426    0.6400 C   0  0  0  0  0  0  0  0  0  0  0  0
   -7.2834    1.1858    0.5960 H   0  0  0  0  0  0  0  0  0  0  0  0
   -5.3277    2.9759    0.1244 C   0  0  0  0  0  0  0  0  0  0  0  0
   -6.3507    3.3819    0.0865 H   0  0  0  0  0  0  0  0  0  0  0  0
    3.1592   -2.1807    2.9643 C   0  0  0  0  0  0  0  0  0  0  0  0
    3.4135   -2.8686    2.1325 H   0  0  0  0  0  0  0  0  0  0  0  0
    2.3874   -2.6697    3.5933 H   0  0  0  0  0  0  0  0  0  0  0  0
    4.0650   -2.0655    3.5955 H   0  0  0  0  0  0  0  0  0  0  0  0
   -6.1105   -0.6026    0.9273 C   0  0  0  0  0  0  0  0  0  0  0  0
   -6.9872   -1.2428    1.1095 H   0  0  0  0  0  0  0  0  0  0  0  0
    2.3277    0.1286    3.5986 C   0  0  0  0  0  0  0  0  0  0  0  0
    1.8735    1.0700    3.2321 H   0  0  0  0  0  0  0  0  0  0  0  0
    3.2517    0.3924    4.1546 H   0  0  0  0  0  0  0  0  0  0  0  0
    1.6167   -0.3338    4.3143 H   0  0  0  0  0  0  0  0  0  0  0  0
    3.9934    1.3003   -3.2202 C   0  0  0  0  0  0  0  0  0  0  0  0
    4.0208    0.1966   -3.3195 H   0  0  0  0  0  0  0  0  0  0  0  0
    5.0383    1.6709   -3.2688 H   0  0  0  0  0  0  0  0  0  0  0  0
    3.4602    1.7113   -4.1018 H   0  0  0  0  0  0  0  0  0  0  0  0
    3.2742    3.2596   -1.7809 C   0  0  0  0  0  0  0  0  0  0  0  0
    2.6931    3.5800   -0.8938 H   0  0  0  0  0  0  0  0  0  0  0  0
    2.8198    3.7353   -2.6747 H   0  0  0  0  0  0  0  0  0  0  0  0
    4.3049    3.6567   -1.6693 H   0  0  0  0  0  0  0  0  0  0  0  0
  2  6  1  0  0  0  0
  2  4  1  0  0  0  0
  3  1  1  1  0  0  0
  3  7  1  0  0  0  0
  3 14  1  0  0  0  0
  4 14  2  0  0  0  0
  4  5  1  0  0  0  0
  6  8  1  0  0  0  0
  7  9  1  0  0  0  0
  8 10  2  0  0  0  0
  8 16  1  0  0  0  0
  9 12  1  0  0  0  0
 10 11  1  0  0  0  0
 12 13  1  0  0  0  0
 12 28  2  0  0  0  0
 14 15  1  0  0  0  0
 16 36  1  0  0  0  0
 16 42  1  0  0  0  0
 17 16  1  0  0  0  0
 18  7  2  0  0  0  0
 19 18  1  0  0  0  0
 20 21  1  0  0  0  0
 20  6  2  0  0  0  0
 21 24  2  0  0  0  0
 22 21  1  0  0  0  0
 23  9  2  0  0  0  0
 23 32  1  0  0  0  0
 24 25  1  0  0  0  0
 24 10  1  0  0  0  0
 26 18  1  0  0  0  0
 26 34  2  0  0  0  0
 27 26  1  0  0  0  0
 28 29  1  0  0  0  0
 30 50  1  0  0  0  0
 30 20  1  0  0  0  0
 31 30  1  0  0  0  0
 32 40  2  0  0  0  0
 33 32  1  0  0  0  0
 34 23  1  0  0  0  0
 35 34  1  0  0  0  0
 36 38  1  0  0  0  0
 36 39  1  0  0  0  0
 37 36  1  0  0  0  0
 40 28  1  0  0  0  0
 40 41  1  0  0  0  0
 42 44  1  0  0  0  0
 42 45  1  0  0  0  0
 43 42  1  0  0  0  0
 46 30  1  0  0  0  0
 47 46  1  0  0  0  0
 48 46  1  0  0  0  0
 49 46  1  0  0  0  0
 50 53  1  0  0  0  0
 50 51  1  0  0  0  0
 52 50  1  0  0  0  0
M  END
