1,2
q = -1.0, confidence = 0.0

 51 52  0  0  1  0  0  0  0  0999 V2000
   -1.1627    0.3832   -0.0743 O   0  0  0  0  0  1  0  0  0  0  0  0
    1.4081   -0.7263    0.0936 N   0  0  0  0  0  2  0  0  0  0  0  0
   -7.2843   -1.0961    0.3150 O   0  0  0  0  0  0  0  0  0  0  0  0
    2.8194   -0.9746    0.1590 C   0  0  0  0  0  0  0  0  0  0  0  0
   -1.6081   -0.8032    0.1570 C   0  0  2  0  0  3  0  0  0  0  0  0
   -3.0894   -0.9476    0.2017 C   0  0  0  0  0  0  0  0  0  0  0  0
   -5.1435   -2.2910    0.2157 C   0  0  0  0  0  0  0  0  0  0  0  0
   -5.6140   -3.2828    0.1894 H   0  0  0  0  0  0  0  0  0  0  0  0
    0.6505   -1.7978    0.3595 C   0  0  0  0  0  0  0  0  0  0  0  0
    1.2101   -2.7227    0.5991 H   0  0  0  0  0  0  0  0  0  0  0  0
    4.8966   -0.9463    1.4113 C   0  0  0  0  0  0  0  0  0  0  0  0
    5.4583   -0.7154    2.3289 H   0  0  0  0  0  0  0  0  0  0  0  0
   -3.8918    0.2187    0.2538 C   0  0  0  0  0  0  0  0  0  0  0  0
   -3.3846    1.1939    0.2696 H   0  0  0  0  0  0  0  0  0  0  0  0
   -3.7458   -2.1951    0.1812 C   0  0  0  0  0  0  0  0  0  0  0  0
   -3.1597   -3.1231    0.1153 H   0  0  0  0  0  0  0  0  0  0  0  0
   -0.7495   -1.8990    0.3817 C   0  0  0  0  0  0  0  0  0  0  0  0
   -1.1684   -2.8799    0.6354 H   0  0  0  0  0  0  0  0  0  0  0  0
    3.5225   -0.6525    1.3490 C   0  0  0  0  0  0  0  0  0  0  0  0
    3.4857   -1.5159   -0.9696 C   0  0  0  0  0  0  0  0  0  0  0  0
   -5.9248   -1.1173    0.2753 C   0  0  0  0  0  0  0  0  0  0  0  0
   -5.2816    0.1409    0.2935 C   0  0  0  0  0  0  0  0  0  0  0  0
   -5.9079    1.0437    0.3428 H   0  0  0  0  0  0  0  0  0  0  0  0
    5.5614   -1.5263    0.3223 C   0  0  0  0  0  0  0  0  0  0  0  0
    6.6358   -1.7556    0.3913 H   0  0  0  0  0  0  0  0  0  0  0  0
    2.7313   -1.7769   -2.2681 C   0  0  0  0  0  0  0  0  0  0  0  0
    1.7771   -1.2142   -2.1951 H   0  0  0  0  0  0  0  0  0  0  0  0
    2.7838   -0.0162    2.5189 C   0  0  0  0  0  0  0  0  0  0  0  0
    1.9108    0.5079    2.0711 H   0  0  0  0  0  0  0  0  0  0  0  0
    4.8611   -1.7965   -0.8596 C   0  0  0  0  0  0  0  0  0  0  0  0
    5.3946   -2.2285   -1.7202 H   0  0  0  0  0  0  0  0  0  0  0  0
    3.6209    1.0286    3.2675 C   0  0  0  0  0  0  0  0  0  0  0  0
    2.9972    1.5548    4.0187 H   0  0  0  0  0  0  0  0  0  0  0  0
    4.0384    1.7865    2.5738 H   0  0  0  0  0  0  0  0  0  0  0  0
    4.4696    0.5696    3.8164 H   0  0  0  0  0  0  0  0  0  0  0  0
   -7.9780   -2.3290    0.3060 C   0  0  0  0  0  0  0  0  0  0  0  0
   -9.0553   -2.0833    0.3492 H   0  0  0  0  0  0  0  0  0  0  0  0
   -7.7157   -2.9597    1.1852 H   0  0  0  0  0  0  0  0  0  0  0  0
   -7.7777   -2.9121   -0.6210 H   0  0  0  0  0  0  0  0  0  0  0  0
    3.4847   -1.2515   -3.4997 C   0  0  0  0  0  0  0  0  0  0  0  0
    3.7474   -0.1808   -3.3848 H   0  0  0  0  0  0  0  0  0  0  0  0
    2.8586   -1.3559   -4.4094 H   0  0  0  0  0  0  0  0  0  0  0  0
    4.4243   -1.8129   -3.6833 H   0  0  0  0  0  0  0  0  0  0  0  0
    2.3844   -3.2676   -2.4264 C   0  0  0  0  0  0  0  0  0  0  0  0
    1.7668   -3.6331   -1.5825 H   0  0  0  0  0  0  0  0  0  0  0  0
    3.3054   -3.8866   -2.4620 H   0  0  0  0  0  0  0  0  0  0  0  0
    1.8177   -3.4449   -3.3640 H   0  0  0  0  0  0  0  0  0  0  0  0
    2.2382   -1.0849    3.4821 C   0  0  0  0  0  0  0  0  0  0  0  0
    1.5619   -1.7920    2.9630 H   0  0  0  0  0  0  0  0  0  0  0  0
    1.6666   -0.6162    4.3099 H   0  0  0  0  0  0  0  0  0  0  0  0
    3.0677   -1.6733    3.9275 H   0  0  0  0  0  0  0  0  0  0  0  0
  2  4  1  0  0  0  0
  2  9  1  0  0  0  0
  4 19  1  0  0  0  0
  5  1  1  1  0  0  0
  5  6  1  0  0  0  0
  5 17  1  0  0  0  0
  6 13  1  0  0  0  0
  7 21  2  0  0  0  0
  8  7  1  0  0  0  0
  9 17  2  0  0  0  0
  9 10  1  0  0  0  0
 11 12  1  0  0  0  0
 13 14  1  0  0  0  0
 13 22  2  0  0  0  0
 15  6  2  0  0  0  0
 15  7  1  0  0  0  0
 16 15  1  0  0  0  0
 17 18  1  0  0  0  0
 19 11  2  0  0  0  0
 19 28  1  0  0  0  0
 20 30  1  0  0  0  0
 20  4  2  0  0  0  0
 21 22  1  0  0  0  0
 21  3  1  0  0  0  0
 22 23  1  0  0  0  0
 24 25  1  0  0  0  0
 24 11  1  0  0  0  0
 26 27  1  0  0  0  0
 26 20  1  0  0  0  0
 28 32  1  0  0  0  0
 28 48  1  0  0  0  0
 29 28  1  0  0  0  0
 30 24  2  0  0  0  0
 31 30  1  0  0  0  0
 32 35  1  0  0  0  0
 32 33  1  0  0  0  0
 34 32  1  0  0  0  0
 36  3  1  0  0  0  0
 36 37  1  0  0  0  0
 36 38  1  0  0  0  0
 39 36  1  0  0  0  0
 40 41  1  0  0  0  0
 40 26  1  0  0  0  0
 42 40  1  0  0  0  0
 43 40  1  0  0  0  0
 44 26  1  0  0  0  0
 44 45  1  0  0  0  0
 46 44  1  0  0  0  0
 47 44  1  0  0  0  0
 48 51  1  0  0  0  0
 48 50  1  0  0  0  0
 49 48  1  0  0  0  0
M  END
