1,2
q = -1.0

 33 34  0  0  1  0  0  0  0  0999 V2000
   -0.5415    1.7311   -0.1493 N   0  0  0  0  0  2  0  0  0  0  0  0
    0.3964   -0.3502    1.4966 O   0  0  0  0  0  1  0  0  0  0  0  0
   -0.2886   -0.6421   -1.1451 O   0  0  0  0  0  0  0  0  0  0  0  0
   -0.9465    2.9789    0.1746 C   0  0  0  0  0  3  0  0  0  0  0  0
   -1.7983    3.0511    0.8665 H   0  0  0  0  0  0  0  0  0  0  0  0
   -0.3218    4.1209   -0.3338 C   0  0  0  0  0  0  0  0  0  0  0  0
   -0.6864    5.1153   -0.0405 H   0  0  0  0  0  0  0  0  0  0  0  0
    0.7532    3.9662   -1.2218 C   0  0  0  0  0  0  0  0  0  0  0  0
    1.2568    4.8441   -1.6530 H   0  0  0  0  0  0  0  0  0  0  0  0
    1.1667    2.6715   -1.5603 C   0  0  0  0  0  0  0  0  0  0  0  0
    1.9910    2.5031   -2.2675 H   0  0  0  0  0  0  0  0  0  0  0  0
    0.5035    1.5695   -1.0004 C   0  0  0  0  0  0  0  0  0  0  0  0
    0.8830    0.1347   -1.2793 C   0  0  1  0  0  0  0  0  0  0  0  0
    1.2627    0.0488   -2.3203 H   0  0  0  0  0  0  0  0  0  0  0  0
    1.9990   -0.3977   -0.3472 C   0  0  1  0  0  0  0  0  0  0  0  0
    2.2061   -1.4308   -0.7080 H   0  0  0  0  0  0  0  0  0  0  0  0
    3.3317    0.3800   -0.3998 C   0  0  0  0  0  0  0  0  0  0  0  0
    3.6674    0.4377   -1.4565 H   0  0  0  0  0  0  0  0  0  0  0  0
    3.1726    1.4260   -0.0573 H   0  0  0  0  0  0  0  0  0  0  0  0
    4.3988   -0.2845    0.4758 C   0  0  0  0  0  0  0  0  0  0  0  0
    4.6172   -1.3014    0.0818 H   0  0  0  0  0  0  0  0  0  0  0  0
    5.3482    0.2867    0.4198 H   0  0  0  0  0  0  0  0  0  0  0  0
    3.9270   -0.3839    1.9299 C   0  0  0  0  0  0  0  0  0  0  0  0
    3.8140    0.6390    2.3512 H   0  0  0  0  0  0  0  0  0  0  0  0
    4.6814   -0.8992    2.5581 H   0  0  0  0  0  0  0  0  0  0  0  0
    2.5782   -1.1193    2.0394 C   0  0  0  0  0  0  0  0  0  0  0  0
    2.7087   -2.1883    1.7516 H   0  0  0  0  0  0  0  0  0  0  0  0
    2.1592   -1.1014    3.0635 H   0  0  0  0  0  0  0  0  0  0  0  0
    1.5424   -0.5849    1.0844 C   0  0  2  0  0  3  0  0  0  0  0  0
   -0.1690   -2.1513   -1.5267 B   0  0  0  0  0  0  0  0  0  0  0  0
    0.7198   -2.2052   -2.6007 F   0  0  0  0  0  0  0  0  0  0  0  0
   -1.4480   -2.5622   -1.8200 F   0  0  0  0  0  0  0  0  0  0  0  0
    0.3678   -2.8181   -0.4068 F   0  0  0  0  0  0  0  0  0  0  0  0
  1  4  1  0  0  0  0
  4  5  1  0  0  0  0
  6  7  1  0  0  0  0
  6  4  1  0  0  0  0
  8  6  2  0  0  0  0
  9  8  1  0  0  0  0
 10  8  1  0  0  0  0
 10 12  2  0  0  0  0
 11 10  1  0  0  0  0
 12  1  1  0  0  0  0
 13 14  1  6  0  0  0
 13  3  1  0  0  0  0
 13 12  1  0  0  0  0
 13 15  1  0  0  0  0
 15 16  1  6  0  0  0
 15 29  1  0  0  0  0
 17 15  1  0  0  0  0
 17 19  1  0  0  0  0
 17 20  1  0  0  0  0
 18 17  1  0  0  0  0
 20 23  1  0  0  0  0
 21 20  1  0  0  0  0
 22 20  1  0  0  0  0
 23 26  1  0  0  0  0
 23 24  1  0  0  0  0
 23 25  1  0  0  0  0
 26 28  1  0  0  0  0
 27 26  1  0  0  0  0
 29  2  1  6  0  0  0
 29 26  1  0  0  0  0
 30  3  1  0  0  0  0
 30 33  1  0  0  0  0
 31 30  1  0  0  0  0
 32 30  1  0  0  0  0
M  END
