1,4
q = 0.0, confidence = 0.964

 30 31  0  0  1  0  0  0  0  0999 V2000
    0.6421    1.6035    0.1330 N   0  0  0  0  0  2  0  0  0  0  0  0
   -0.5555   -0.0245   -1.6765 O   0  0  0  0  0  0  0  0  0  0  0  0
   -0.1389    0.1688   -2.5394 H   0  0  0  0  0  0  0  0  0  0  0  0
   -0.9442   -0.6575    1.0368 O   0  0  0  0  0  1  0  0  0  0  0  0
    1.4564    2.4436    0.8169 C   0  0  0  0  0  3  0  0  0  0  0  0
    2.3301    1.9848    1.3022 H   0  0  0  0  0  0  0  0  0  0  0  0
    1.2051    3.8152    0.9059 C   0  0  0  0  0  0  0  0  0  0  0  0
    1.8936    4.4568    1.4734 H   0  0  0  0  0  0  0  0  0  0  0  0
    0.0785    4.3430    0.2586 C   0  0  0  0  0  0  0  0  0  0  0  0
   -0.1415    5.4198    0.3018 H   0  0  0  0  0  0  0  0  0  0  0  0
   -0.7584    3.4753   -0.4574 C   0  0  0  0  0  0  0  0  0  0  0  0
   -1.6418    3.8561   -0.9911 H   0  0  0  0  0  0  0  0  0  0  0  0
   -0.4522    2.1091   -0.4966 C   0  0  0  0  0  0  0  0  0  0  0  0
   -1.3388    1.1124   -1.2282 C   0  0  2  0  0  0  0  0  0  0  0  0
   -1.7816    1.6086   -2.1164 H   0  0  0  0  0  0  0  0  0  0  0  0
   -2.5060    0.5829   -0.3753 C   0  0  1  0  0  0  0  0  0  0  0  0
   -3.0459    1.4729    0.0192 H   0  0  0  0  0  0  0  0  0  0  0  0
   -3.5327   -0.2468   -1.2017 C   0  0  0  0  0  0  0  0  0  0  0  0
   -3.0085   -1.1283   -1.6274 H   0  0  0  0  0  0  0  0  0  0  0  0
   -3.8752    0.3704   -2.0581 H   0  0  0  0  0  0  0  0  0  0  0  0
   -4.7162   -0.6927   -0.3377 C   0  0  0  0  0  0  0  0  0  0  0  0
   -5.2961    0.1995   -0.0144 H   0  0  0  0  0  0  0  0  0  0  0  0
   -5.4079   -1.3080   -0.9476 H   0  0  0  0  0  0  0  0  0  0  0  0
   -4.2532   -1.4824    0.8888 C   0  0  0  0  0  0  0  0  0  0  0  0
   -5.1085   -1.7529    1.5388 H   0  0  0  0  0  0  0  0  0  0  0  0
   -3.7817   -2.4367    0.5711 H   0  0  0  0  0  0  0  0  0  0  0  0
   -3.2253   -0.6739    1.7256 C   0  0  0  0  0  0  0  0  0  0  0  0
   -2.8187   -1.2627    2.5688 H   0  0  0  0  0  0  0  0  0  0  0  0
   -3.7253    0.2335    2.1304 H   0  0  0  0  0  0  0  0  0  0  0  0
   -2.1016   -0.2464    0.8332 C   0  0  1  0  0  3  0  0  0  0  0  0
  1  5  1  0  0  0  0
  2 14  1  0  0  0  0
  3  2  1  0  0  0  0
  5  7  1  0  0  0  0
  5  6  1  0  0  0  0
  7  8  1  0  0  0  0
  9 10  1  0  0  0  0
  9  7  2  0  0  0  0
 11  9  1  0  0  0  0
 12 11  1  0  0  0  0
 13 11  2  0  0  0  0
 13  1  1  0  0  0  0
 14 15  1  6  0  0  0
 14 13  1  0  0  0  0
 14 16  1  0  0  0  0
 16 17  1  1  0  0  0
 16 30  1  0  0  0  0
 18 16  1  0  0  0  0
 18 21  1  0  0  0  0
 19 18  1  0  0  0  0
 20 18  1  0  0  0  0
 21 22  1  0  0  0  0
 21 24  1  0  0  0  0
 23 21  1  0  0  0  0
 24 25  1  0  0  0  0
 24 27  1  0  0  0  0
 26 24  1  0  0  0  0
 27 29  1  0  0  0  0
 27 28  1  0  0  0  0
 30  4  1  6  0  0  0
 30 27  1  0  0  0  0
M  END
