2,3
q = -1.0

 42 46  0  0  0  0  0  0  0  0999 V2000
    8.3051   -2.4213   -0.2173 Br  0  0  0  0  0  0  0  0  0  0  0  0
    2.3138    0.9444    0.2254 O   0  5  0  0  0  0  0  0  0  0  0  0
    0.2876   -0.5137   -0.3624 N   0  0  0  0  0  2  0  0  0  0  0  0
    1.5023   -1.1342   -0.3835 N   0  0  0  0  0  0  0  0  0  0  0  0
   -3.1871   -1.6435   -0.3978 C   0  0  0  0  0  0  0  0  0  0  0  0
    2.4927   -0.2989   -0.0974 C   0  0  0  0  0  0  0  0  0  0  0  0
    3.8815   -0.8168   -0.1324 C   0  0  0  0  0  0  0  0  0  0  0  0
    4.1445   -2.1673   -0.4465 C   0  0  0  0  0  0  0  0  0  0  0  0
    3.2973   -2.8295   -0.6728 H   0  0  0  0  0  0  0  0  0  0  0  0
    5.4571   -2.6498   -0.4719 C   0  0  0  0  0  0  0  0  0  0  0  0
    5.6641   -3.7011   -0.7165 H   0  0  0  0  0  0  0  0  0  0  0  0
    6.5166   -1.7719   -0.1838 C   0  0  0  0  0  0  0  0  0  0  0  0
    6.2771   -0.4229    0.1260 C   0  0  0  0  0  0  0  0  0  0  0  0
    7.1182    0.2501    0.3437 H   0  0  0  0  0  0  0  0  0  0  0  0
    4.9590    0.0476    0.1504 C   0  0  0  0  0  0  0  0  0  0  0  0
    4.7455    1.0998    0.3856 H   0  0  0  0  0  0  0  0  0  0  0  0
   -0.7325   -1.2768   -0.6948 C   0  0  0  0  0  3  0  0  0  0  0  0
   -0.4714   -2.3380   -0.8611 H   0  0  0  0  0  0  0  0  0  0  0  0
   -2.1103   -0.8442   -0.8992 C   0  0  0  0  0  0  0  0  0  0  0  0
   -2.3990    0.3217   -1.6503 C   0  0  0  0  0  0  0  0  0  0  0  0
   -1.5587    0.9080   -2.0567 H   0  0  0  0  0  0  0  0  0  0  0  0
   -3.7155    0.7136   -1.8893 C   0  0  0  0  0  0  0  0  0  0  0  0
   -3.9147    1.6154   -2.4895 H   0  0  0  0  0  0  0  0  0  0  0  0
   -4.8089   -0.0374   -1.3963 C   0  0  0  0  0  0  0  0  0  0  0  0
   -6.1728    0.3486   -1.6300 C   0  0  0  0  0  0  0  0  0  0  0  0
   -6.3631    1.2629   -2.2132 H   0  0  0  0  0  0  0  0  0  0  0  0
   -7.2197   -0.3980   -1.1443 C   0  0  0  0  0  0  0  0  0  0  0  0
   -8.2597   -0.0896   -1.3330 H   0  0  0  0  0  0  0  0  0  0  0  0
   -6.9891   -1.5944   -0.3802 C   0  0  0  0  0  0  0  0  0  0  0  0
   -8.0486   -2.3767    0.1331 C   0  0  0  0  0  0  0  0  0  0  0  0
   -9.0854   -2.0605   -0.0601 H   0  0  0  0  0  0  0  0  0  0  0  0
   -7.7919   -3.5368    0.8762 C   0  0  0  0  0  0  0  0  0  0  0  0
   -8.6311   -4.1322    1.2664 H   0  0  0  0  0  0  0  0  0  0  0  0
   -6.4748   -3.9428    1.1270 C   0  0  0  0  0  0  0  0  0  0  0  0
   -6.2761   -4.8532    1.7133 H   0  0  0  0  0  0  0  0  0  0  0  0
   -5.3818   -3.1938    0.6340 C   0  0  0  0  0  0  0  0  0  0  0  0
   -4.0176   -3.5722    0.8781 C   0  0  0  0  0  0  0  0  0  0  0  0
   -3.8231   -4.4768    1.4750 H   0  0  0  0  0  0  0  0  0  0  0  0
   -2.9691   -2.8278    0.3905 C   0  0  0  0  0  0  0  0  0  0  0  0
   -1.9372   -3.1373    0.6120 H   0  0  0  0  0  0  0  0  0  0  0  0
   -5.6339   -2.0053   -0.1321 C   0  0  0  0  0  0  0  0  0  0  0  0
   -4.5423   -1.2327   -0.6440 C   0  0  0  0  0  0  0  0  0  0  0  0
  1 12  1  0  0  0  0
  4  3  1  0  0  0  0
  4  6  2  0  0  0  0
  5 39  1  0  0  0  0
  6  2  1  0  0  0  0
  7  6  1  0  0  0  0
  7 15  1  0  0  0  0
  8  7  2  0  0  0  0
  9  8  1  0  0  0  0
 10  8  1  0  0  0  0
 10 12  2  0  0  0  0
 11 10  1  0  0  0  0
 12 13  1  0  0  0  0
 13 15  2  0  0  0  0
 13 14  1  0  0  0  0
 15 16  1  0  0  0  0
 17  3  1  0  0  0  0
 18 17  1  0  0  0  0
 19 17  1  0  0  0  0
 19  5  1  0  0  0  0
 20 19  2  0  0  0  0
 21 20  1  0  0  0  0
 22 20  1  0  0  0  0
 22 24  2  0  0  0  0
 23 22  1  0  0  0  0
 24 42  1  0  0  0  0
 25 24  1  0  0  0  0
 25 27  2  0  0  0  0
 26 25  1  0  0  0  0
 27 29  1  0  0  0  0
 28 27  1  0  0  0  0
 29 41  2  0  0  0  0
 29 30  1  0  0  0  0
 30 32  2  0  0  0  0
 31 30  1  0  0  0  0
 32 34  1  0  0  0  0
 32 33  1  0  0  0  0
 34 35  1  0  0  0  0
 36 37  1  0  0  0  0
 36 34  2  0  0  0  0
 37 38  1  0  0  0  0
 39 40  1  0  0  0  0
 39 37  2  0  0  0  0
 41 36  1  0  0  0  0
 42  5  2  0  0  0  0
 42 41  1  0  0  0  0
M  CHG  1   2  -1
M  END
