1,3
q = -1.0

 16 16  0  0  0  0  0  0  0  0999 V2000
   -0.0620    1.6212    0.3910 O   0  5  0  0  0  0  0  0  0  0  0  0
   -2.0384    2.6938    0.3692 O   0  0  0  0  0  0  0  0  0  0  0  0
   -1.0745   -0.6547   -0.3277 N   0  0  0  0  0  2  0  0  0  0  0  0
   -1.4795   -1.9024   -0.6383 C   0  0  0  0  0  3  0  0  0  0  0  0
   -0.6948   -2.6650   -0.7371 H   0  0  0  0  0  0  0  0  0  0  0  0
   -2.8330   -2.2017   -0.7991 C   0  0  0  0  0  0  0  0  0  0  0  0
   -3.1383   -3.2263   -1.0541 H   0  0  0  0  0  0  0  0  0  0  0  0
   -3.7769   -1.1834   -0.6183 C   0  0  0  0  0  0  0  0  0  0  0  0
   -4.8507   -1.3970   -0.7351 H   0  0  0  0  0  0  0  0  0  0  0  0
   -3.3697    0.1199   -0.2732 C   0  0  0  0  0  0  0  0  0  0  0  0
   -1.9778    0.3409   -0.1343 C   0  0  0  0  0  0  0  0  0  0  0  0
   -1.3641    1.6747    0.2429 C   0  0  0  0  0  0  0  0  0  0  0  0
   -4.3819    1.2080   -0.0553 C   0  0  0  0  0  0  0  0  0  0  0  0
   -4.2801    1.6456    0.9568 H   0  0  0  0  0  0  0  0  0  0  0  0
   -5.4084    0.8160   -0.1904 H   0  0  0  0  0  0  0  0  0  0  0  0
   -4.2097    2.0563   -0.7454 H   0  0  0  0  0  0  0  0  0  0  0  0
  3 11  1  0  0  0  0
  4  3  1  0  0  0  0
  5  4  1  0  0  0  0
  6  4  1  0  0  0  0
  6  8  2  0  0  0  0
  7  6  1  0  0  0  0
  8 10  1  0  0  0  0
  9  8  1  0  0  0  0
 10 11  2  0  0  0  0
 10 13  1  0  0  0  0
 11 12  1  0  0  0  0
 12  2  2  0  0  0  0
 12  1  1  0  0  0  0
 13 14  1  0  0  0  0
 15 13  1  0  0  0  0
 16 13  1  0  0  0  0
M  CHG  1   1  -1
M  END
