2,3
q = -1.0

 32 32  0  0  0  0  0  0  0  0999 V2000
    7.3866    0.1723   -0.1567 Br  0  0  0  0  0  0  0  0  0  0  0  0
    1.4828   -0.2660    1.1292 O   0  5  0  0  0  0  0  0  0  0  0  0
    0.9691    1.2628   -1.0677 N   0  0  0  0  0  2  0  0  0  0  0  0
   -0.6876    2.4196    1.2006 N   0  0  0  0  0  0  0  0  0  0  0  0
    3.2088    0.6150   -0.3065 C   0  0  0  0  0  0  0  0  0  0  0  0
    2.7402   -0.1505    0.8186 C   0  0  0  0  0  0  0  0  0  0  0  0
    3.7281   -0.7799    1.6393 C   0  0  0  0  0  0  0  0  0  0  0  0
    3.3819   -1.3488    2.5147 H   0  0  0  0  0  0  0  0  0  0  0  0
    5.0853   -0.6876    1.3482 C   0  0  0  0  0  0  0  0  0  0  0  0
    5.8242   -1.1913    1.9884 H   0  0  0  0  0  0  0  0  0  0  0  0
    5.5229    0.0578    0.2275 C   0  0  0  0  0  0  0  0  0  0  0  0
    4.5985    0.7100   -0.5813 C   0  0  0  0  0  3  0  0  0  0  0  0
    4.9377    1.3069   -1.4413 H   0  0  0  0  0  0  0  0  0  0  0  0
    2.2759    1.3514   -1.1091 C   0  0  0  0  0  0  0  0  0  0  0  0
    2.7151    2.0905   -1.8108 H   0  0  0  0  0  0  0  0  0  0  0  0
    0.2387    2.2865   -1.8251 C   0  0  0  0  0  0  0  0  0  0  0  0
    0.8576    2.5944   -2.6964 H   0  0  0  0  0  0  0  0  0  0  0  0
   -0.6934    1.8290   -2.2011 H   0  0  0  0  0  0  0  0  0  0  0  0
   -0.0807    3.5343   -0.9864 C   0  0  0  0  0  0  0  0  0  0  0  0
   -0.5045    4.2952   -1.6759 H   0  0  0  0  0  0  0  0  0  0  0  0
    0.8684    3.9720   -0.6070 H   0  0  0  0  0  0  0  0  0  0  0  0
   -1.0863    3.3527    0.1542 C   0  0  0  0  0  0  0  0  0  0  0  0
   -2.0427    2.9802   -0.2706 H   0  0  0  0  0  0  0  0  0  0  0  0
   -1.3106    4.3695    0.5828 H   0  0  0  0  0  0  0  0  0  0  0  0
    0.5248    2.7914    1.9060 C   0  0  0  0  0  0  0  0  0  0  0  0
    0.4256    3.7586    2.4677 H   0  0  0  0  0  0  0  0  0  0  0  0
    0.7890    1.9920    2.6256 H   0  0  0  0  0  0  0  0  0  0  0  0
    1.3774    2.8851    1.2064 H   0  0  0  0  0  0  0  0  0  0  0  0
   -1.7775    2.1472    2.1200 C   0  0  0  0  0  0  0  0  0  0  0  0
   -2.6725    1.8099    1.5613 H   0  0  0  0  0  0  0  0  0  0  0  0
   -1.4861    1.3363    2.8180 H   0  0  0  0  0  0  0  0  0  0  0  0
   -2.0693    3.0423    2.7326 H   0  0  0  0  0  0  0  0  0  0  0  0
  1 11  1  0  0  0  0
  4 25  1  0  0  0  0
  4 29  1  0  0  0  0
  5  6  1  0  0  0  0
  6  2  1  0  0  0  0
  6  7  2  0  0  0  0
  7  8  1  0  0  0  0
  9  7  1  0  0  0  0
  9 10  1  0  0  0  0
 11  9  2  0  0  0  0
 12  5  1  0  0  0  0
 12 11  1  0  0  0  0
 13 12  1  0  0  0  0
 14  3  1  0  0  0  0
 14  5  2  0  0  0  0
 15 14  1  0  0  0  0
 16  3  1  0  0  0  0
 16 19  1  0  0  0  0
 17 16  1  0  0  0  0
 18 16  1  0  0  0  0
 19 21  1  0  0  0  0
 19 22  1  0  0  0  0
 20 19  1  0  0  0  0
 22 24  1  0  0  0  0
 22  4  1  0  0  0  0
 23 22  1  0  0  0  0
 25 26  1  0  0  0  0
 25 27  1  0  0  0  0
 28 25  1  0  0  0  0
 29 32  1  0  0  0  0
 29 31  1  0  0  0  0
 30 29  1  0  0  0  0
M  CHG  1   2  -1
M  END
