1,9
q = -1.0

 17 17  0  0  0  0  0  0  0  0999 V2000
   -1.7498   -0.4283    0.5953 O   0  5  0  0  0  0  0  0  0  0  0  0
   -2.6834   -1.2899    0.2049 C   0  0  0  0  0  0  0  0  0  0  0  0
   -3.8380   -1.4804    1.0003 C   0  0  0  0  0  0  0  0  0  0  0  0
   -4.8294   -2.3910    0.6177 C   0  0  0  0  0  0  0  0  0  0  0  0
   -4.6939   -3.1243   -0.5786 C   0  0  0  0  0  0  0  0  0  0  0  0
   -3.5678   -2.9335   -1.3823 C   0  0  0  0  0  0  0  0  0  0  0  0
   -2.5415   -2.0241   -1.0194 C   0  0  0  0  0  0  0  0  0  0  0  0
   -1.4200   -1.8114   -1.8948 C   0  0  0  0  0  3  0  0  0  0  0  0
   -0.3593   -1.0805   -1.6106 N   0  0  0  0  0  2  0  0  0  0  0  0
    0.6154   -0.9973   -2.5707 N   0  0  0  0  0  0  0  0  0  0  0  0
    1.1387   -0.1239   -2.4494 H   0  0  0  0  0  0  0  0  0  0  0  0
    0.2540   -1.1073   -3.5269 H   0  0  0  0  0  0  0  0  0  0  0  0
   -3.9286   -0.8849    1.9210 H   0  0  0  0  0  0  0  0  0  0  0  0
   -5.7182   -2.5279    1.2522 H   0  0  0  0  0  0  0  0  0  0  0  0
   -5.4718   -3.8404   -0.8814 H   0  0  0  0  0  0  0  0  0  0  0  0
   -3.4595   -3.4989   -2.3218 H   0  0  0  0  0  0  0  0  0  0  0  0
   -1.4621   -2.2946   -2.8915 H   0  0  0  0  0  0  0  0  0  0  0  0
  2  1  1  0  0  0  0
  2  3  1  0  0  0  0
  3 13  1  0  0  0  0
  4  3  2  0  0  0  0
  4 14  1  0  0  0  0
  5  4  1  0  0  0  0
  6  7  1  0  0  0  0
  6  5  2  0  0  0  0
  7  2  2  0  0  0  0
  8  9  1  0  0  0  0
  8  7  1  0  0  0  0
 10 11  1  0  0  0  0
 10  9  1  0  0  0  0
 12 10  1  0  0  0  0
 15  5  1  0  0  0  0
 16  6  1  0  0  0  0
 17  8  1  0  0  0  0
M  CHG  1   1  -1
M  END
