1,3
q = -1.0

 33 33  0  0  0  0  0  0  0  0999 V2000
   -1.7201    0.1212    0.7458 O   0  5  0  0  0  0  0  0  0  0  0  0
   -4.0656    1.2347    1.1646 O   0  0  0  0  0  0  0  0  0  0  0  0
   -0.2335   -1.8638   -0.3612 N   0  0  0  0  0  2  0  0  0  0  0  0
    1.1585   -1.0892    2.2121 N   0  0  0  0  0  0  0  0  0  0  0  0
   -2.6854   -1.8563   -0.2423 C   0  0  0  0  0  0  0  0  0  0  0  0
   -2.7564   -0.5644    0.3728 C   0  0  0  0  0  0  0  0  0  0  0  0
   -4.0727   -0.0151    0.6094 C   0  0  0  0  0  0  0  0  0  0  0  0
   -5.2194   -0.7277    0.2563 C   0  0  0  0  0  0  0  0  0  0  0  0
   -6.2137   -0.2938    0.4307 H   0  0  0  0  0  0  0  0  0  0  0  0
   -5.1208   -2.0129   -0.3377 C   0  0  0  0  0  0  0  0  0  0  0  0
   -6.0383   -2.5572   -0.6040 H   0  0  0  0  0  0  0  0  0  0  0  0
   -3.8724   -2.5680   -0.5781 C   0  0  0  0  0  3  0  0  0  0  0  0
   -3.7804   -3.5650   -1.0369 H   0  0  0  0  0  0  0  0  0  0  0  0
   -1.3997   -2.4543   -0.4589 C   0  0  0  0  0  0  0  0  0  0  0  0
   -1.4036   -3.5330   -0.7220 H   0  0  0  0  0  0  0  0  0  0  0  0
    0.9423   -2.7386   -0.4389 C   0  0  0  0  0  0  0  0  0  0  0  0
    0.6792   -3.6325   -1.0471 H   0  0  0  0  0  0  0  0  0  0  0  0
    1.7567   -2.1884   -0.9452 H   0  0  0  0  0  0  0  0  0  0  0  0
    1.4195   -3.2141    0.9438 C   0  0  0  0  0  0  0  0  0  0  0  0
    2.1652   -4.0208    0.7794 H   0  0  0  0  0  0  0  0  0  0  0  0
    0.5662   -3.6905    1.4800 H   0  0  0  0  0  0  0  0  0  0  0  0
    2.0680   -2.1581    1.8398 C   0  0  0  0  0  0  0  0  0  0  0  0
    2.9273   -1.7060    1.2980 H   0  0  0  0  0  0  0  0  0  0  0  0
    2.5076   -2.6786    2.7350 H   0  0  0  0  0  0  0  0  0  0  0  0
    1.7140   -0.1261    3.1424 C   0  0  0  0  0  0  0  0  0  0  0  0
    2.5838    0.3809    2.6752 H   0  0  0  0  0  0  0  0  0  0  0  0
    0.9607    0.6552    3.3670 H   0  0  0  0  0  0  0  0  0  0  0  0
    2.0664   -0.5668    4.1124 H   0  0  0  0  0  0  0  0  0  0  0  0
   -5.3084    1.8561    1.4082 C   0  0  0  0  0  0  0  0  0  0  0  0
   -5.9319    1.2739    2.1247 H   0  0  0  0  0  0  0  0  0  0  0  0
   -5.0859    2.8462    1.8485 H   0  0  0  0  0  0  0  0  0  0  0  0
   -5.8938    2.0000    0.4708 H   0  0  0  0  0  0  0  0  0  0  0  0
    0.2742   -1.4716    2.5670 H   0  0  0  0  0  0  0  0  0  0  0  0
  2 29  1  0  0  0  0
  4 33  1  0  0  0  0
  4 25  1  0  0  0  0
  5  6  1  0  0  0  0
  6  7  2  0  0  0  0
  6  1  1  0  0  0  0
  7  2  1  0  0  0  0
  8  9  1  0  0  0  0
  8  7  1  0  0  0  0
 10  8  2  0  0  0  0
 11 10  1  0  0  0  0
 12 10  1  0  0  0  0
 12  5  1  0  0  0  0
 13 12  1  0  0  0  0
 14  3  1  0  0  0  0
 14  5  2  0  0  0  0
 15 14  1  0  0  0  0
 16  3  1  0  0  0  0
 16 19  1  0  0  0  0
 17 16  1  0  0  0  0
 18 16  1  0  0  0  0
 19 21  1  0  0  0  0
 19 22  1  0  0  0  0
 20 19  1  0  0  0  0
 22  4  1  0  0  0  0
 22 24  1  0  0  0  0
 23 22  1  0  0  0  0
 25 27  1  0  0  0  0
 25 28  1  0  0  0  0
 26 25  1  0  0  0  0
 29 31  1  0  0  0  0
 29 30  1  0  0  0  0
 32 29  1  0  0  0  0
M  CHG  1   1  -1
M  END
