1,3
q = -1.0

 33 33  0  0  1  0  0  0  0  0999 V2000
    1.7203   -0.1214   -0.7454 O   0  0  0  0  0  1  0  0  0  0  0  0
    4.0659   -1.2347   -1.1644 O   0  0  0  0  0  0  0  0  0  0  0  0
    0.2336    1.8638    0.3612 N   0  0  0  0  0  2  0  0  0  0  0  0
   -1.1591    1.0888   -2.2120 N   0  0  0  0  0  0  0  0  0  0  0  0
    2.6855    1.8565    0.2422 C   0  0  0  0  0  0  0  0  0  0  0  0
    2.7566    0.5644   -0.3728 C   0  0  2  0  0  3  0  0  0  0  0  0
    4.0729    0.0152   -0.6095 C   0  0  0  0  0  0  0  0  0  0  0  0
    5.2195    0.7281   -0.2567 C   0  0  0  0  0  0  0  0  0  0  0  0
    6.2139    0.2943   -0.4312 H   0  0  0  0  0  0  0  0  0  0  0  0
    5.1209    2.0134    0.3371 C   0  0  0  0  0  0  0  0  0  0  0  0
    6.0384    2.5578    0.6032 H   0  0  0  0  0  0  0  0  0  0  0  0
    3.8725    2.5683    0.5776 C   0  0  0  0  0  0  0  0  0  0  0  0
    3.7805    3.5654    1.0363 H   0  0  0  0  0  0  0  0  0  0  0  0
    1.3998    2.4544    0.4589 C   0  0  0  0  0  0  0  0  0  0  0  0
    1.4037    3.5330    0.7219 H   0  0  0  0  0  0  0  0  0  0  0  0
   -0.9422    2.7386    0.4388 C   0  0  0  0  0  0  0  0  0  0  0  0
   -0.6791    3.6325    1.0469 H   0  0  0  0  0  0  0  0  0  0  0  0
   -1.7566    2.1885    0.9453 H   0  0  0  0  0  0  0  0  0  0  0  0
   -1.4195    3.2139   -0.9438 C   0  0  0  0  0  0  0  0  0  0  0  0
   -2.1652    4.0207   -0.7796 H   0  0  0  0  0  0  0  0  0  0  0  0
   -0.5662    3.6901   -1.4802 H   0  0  0  0  0  0  0  0  0  0  0  0
   -2.0684    2.1578   -1.8396 C   0  0  0  0  0  0  0  0  0  0  0  0
   -2.9276    1.7059   -1.2975 H   0  0  0  0  0  0  0  0  0  0  0  0
   -2.5082    2.6782   -2.7347 H   0  0  0  0  0  0  0  0  0  0  0  0
   -1.7149    0.1257   -3.1421 C   0  0  0  0  0  0  0  0  0  0  0  0
   -2.5848   -0.3811   -2.6747 H   0  0  0  0  0  0  0  0  0  0  0  0
   -0.9618   -0.6559   -3.3667 H   0  0  0  0  0  0  0  0  0  0  0  0
   -2.0675    0.5662   -4.1121 H   0  0  0  0  0  0  0  0  0  0  0  0
    5.3087   -1.8559   -1.4081 C   0  0  0  0  0  0  0  0  0  0  0  0
    5.9320   -1.2737   -2.1248 H   0  0  0  0  0  0  0  0  0  0  0  0
    5.0862   -2.8461   -1.8483 H   0  0  0  0  0  0  0  0  0  0  0  0
    5.8943   -1.9995   -0.4708 H   0  0  0  0  0  0  0  0  0  0  0  0
   -0.2749    1.4711   -2.5672 H   0  0  0  0  0  0  0  0  0  0  0  0
  2  7  1  0  0  0  0
  3 16  1  0  0  0  0
  3 14  1  0  0  0  0
  4 22  1  0  0  0  0
  5 14  2  0  0  0  0
  5 12  1  0  0  0  0
  6  1  1  6  0  0  0
  6  5  1  0  0  0  0
  7  6  1  0  0  0  0
  7  8  2  0  0  0  0
  8 10  1  0  0  0  0
  9  8  1  0  0  0  0
 10 12  2  0  0  0  0
 10 11  1  0  0  0  0
 12 13  1  0  0  0  0
 14 15  1  0  0  0  0
 16 18  1  0  0  0  0
 16 17  1  0  0  0  0
 19 20  1  0  0  0  0
 19 16  1  0  0  0  0
 21 19  1  0  0  0  0
 22 23  1  0  0  0  0
 22 19  1  0  0  0  0
 24 22  1  0  0  0  0
 25 26  1  0  0  0  0
 25  4  1  0  0  0  0
 27 25  1  0  0  0  0
 28 25  1  0  0  0  0
 29  2  1  0  0  0  0
 29 32  1  0  0  0  0
 30 29  1  0  0  0  0
 31 29  1  0  0  0  0
 33  4  1  0  0  0  0
M  END
