1,5
q = -1.0, confidence = 0.0

 34 36  0  0  0  0  0  0  0  0999 V2000
    0.6686   -1.6843   -0.3538 O   0  5  0  0  0  0  0  0  0  0  0  0
    1.2187   -2.1156   -1.4478 C   0  0  0  0  0  0  0  0  0  0  0  0
    1.7127   -1.2647   -2.4893 C   0  0  0  0  0  0  0  0  0  0  0  0
    1.7267    0.1440   -2.2746 C   0  0  0  0  0  0  0  0  0  0  0  0
    1.1548    0.7962   -1.2770 N   0  0  0  0  0  2  0  0  0  0  0  0
    1.3767    2.2060   -1.2059 C   0  0  0  0  0  0  0  0  0  0  0  0
    2.0468    2.7489   -0.0796 C   0  0  0  0  0  0  0  0  0  0  0  0
    2.2345    4.1418   -0.0389 C   0  0  0  0  0  0  0  0  0  0  0  0
    1.7777    4.9794   -1.0695 C   0  0  0  0  0  0  0  0  0  0  0  0
    1.1178    4.4258   -2.1759 C   0  0  0  0  0  0  0  0  0  0  0  0
    0.9164    3.0397   -2.2396 C   0  0  0  0  0  0  0  0  0  0  0  0
    0.3714    2.5875   -3.0817 H   0  0  0  0  0  0  0  0  0  0  0  0
    0.7496    5.0712   -2.9875 H   0  0  0  0  0  0  0  0  0  0  0  0
    1.9389    6.0661   -1.0056 H   0  0  0  0  0  0  0  0  0  0  0  0
    2.7560    4.5774    0.8279 H   0  0  0  0  0  0  0  0  0  0  0  0
    2.5193    1.8584    1.0365 C   0  0  0  0  0  0  0  0  0  0  0  0
    3.1169    2.4237    1.7765 H   0  0  0  0  0  0  0  0  0  0  0  0
    3.1322    1.0156    0.6571 H   0  0  0  0  0  0  0  0  0  0  0  0
    1.6547    1.4008    1.5640 H   0  0  0  0  0  0  0  0  0  0  0  0
    2.3165    0.7614   -2.9755 H   0  0  0  0  0  0  0  0  0  0  0  0
    2.2868   -1.8462   -3.6928 C   0  0  0  0  0  0  0  0  0  0  0  0
    2.3930   -3.2778   -3.7955 C   0  0  0  0  0  0  0  0  0  0  0  0
    1.9193   -4.0909   -2.7121 C   0  0  0  0  0  0  0  0  0  0  0  0
    1.3579   -3.5431   -1.5843 C   0  0  0  0  0  0  0  0  0  0  0  0
    0.9789   -4.1594   -0.7561 H   0  0  0  0  0  0  0  0  0  0  0  0
    2.0066   -5.1853   -2.8060 H   0  0  0  0  0  0  0  0  0  0  0  0
    2.9538   -3.8655   -4.9605 C   0  0  0  0  0  3  0  0  0  0  0  0
    3.4054   -3.0813   -6.0158 C   0  0  0  0  0  0  0  0  0  0  0  0
    3.2943   -1.6744   -5.9265 C   0  0  0  0  0  0  0  0  0  0  0  0
    2.7449   -1.0741   -4.7964 C   0  0  0  0  0  0  0  0  0  0  0  0
    2.6553    0.0215   -4.7766 H   0  0  0  0  0  0  0  0  0  0  0  0
    3.6381   -1.0437   -6.7606 H   0  0  0  0  0  0  0  0  0  0  0  0
    3.8383   -3.5476   -6.9131 H   0  0  0  0  0  0  0  0  0  0  0  0
    3.0226   -4.9636   -5.0116 H   0  0  0  0  0  0  0  0  0  0  0  0
  2  1  1  0  0  0  0
  3  4  2  0  0  0  0
  3  2  1  0  0  0  0
  4  5  1  0  0  0  0
  5  6  1  0  0  0  0
  6  7  1  0  0  0  0
  7  8  2  0  0  0  0
  7 16  1  0  0  0  0
  8 15  1  0  0  0  0
  9 14  1  0  0  0  0
  9  8  1  0  0  0  0
 10  9  2  0  0  0  0
 11 10  1  0  0  0  0
 11  6  2  0  0  0  0
 12 11  1  0  0  0  0
 13 10  1  0  0  0  0
 16 19  1  0  0  0  0
 16 17  1  0  0  0  0
 18 16  1  0  0  0  0
 20  4  1  0  0  0  0
 21  3  1  0  0  0  0
 22 21  1  0  0  0  0
 22 23  2  0  0  0  0
 23 24  1  0  0  0  0
 24  2  2  0  0  0  0
 24 25  1  0  0  0  0
 26 23  1  0  0  0  0
 27 22  1  0  0  0  0
 28 29  2  0  0  0  0
 28 27  1  0  0  0  0
 29 30  1  0  0  0  0
 30 31  1  0  0  0  0
 30 21  2  0  0  0  0
 32 29  1  0  0  0  0
 33 28  1  0  0  0  0
 34 27  1  0  0  0  0
M  CHG  1   1  -1
M  END
