2,3
q = -1.0

 18 18  0  0  1  0  0  0  0  0999 V2000
    6.8936   -1.1000    0.0001 Cl  0  0  0  0  0  0  0  0  0  0  0  0
    1.8676   -0.7520   -0.0001 O   0  0  0  0  0  1  0  0  0  0  0  0
    0.6492    1.9226   -0.0000 N   0  0  0  0  0  2  0  0  0  0  0  0
   -0.3280    3.0095   -0.0001 C   0  0  0  0  0  0  0  0  0  0  0  0
    1.9203    2.2443   -0.0000 C   0  0  0  0  0  0  0  0  0  0  0  0
    3.0617    1.3758    0.0000 C   0  0  0  0  0  0  0  0  0  0  0  0
    2.9787   -0.0641   -0.0000 C   0  0  2  0  0  3  0  0  0  0  0  0
    4.1977   -0.8070    0.0000 C   0  0  0  0  0  0  0  0  0  0  0  0
    5.4258   -0.1566    0.0001 C   0  0  0  0  0  0  0  0  0  0  0  0
    5.5257    1.2569    0.0001 C   0  0  0  0  0  0  0  0  0  0  0  0
    4.3480    1.9888    0.0001 C   0  0  0  0  0  0  0  0  0  0  0  0
   -0.9845    2.9290   -0.8873 H   0  0  0  0  0  0  0  0  0  0  0  0
    0.1856    3.9918    0.0003 H   0  0  0  0  0  0  0  0  0  0  0  0
   -0.9853    2.9285    0.8863 H   0  0  0  0  0  0  0  0  0  0  0  0
    2.1533    3.3273   -0.0000 H   0  0  0  0  0  0  0  0  0  0  0  0
    4.1364   -1.9029   -0.0000 H   0  0  0  0  0  0  0  0  0  0  0  0
    6.5102    1.7418    0.0002 H   0  0  0  0  0  0  0  0  0  0  0  0
    4.3984    3.0894    0.0001 H   0  0  0  0  0  0  0  0  0  0  0  0
  3  5  1  0  0  0  0
  4  3  1  0  0  0  0
  4 13  1  0  0  0  0
  4 14  1  0  0  0  0
  5  6  2  0  0  0  0
  6 11  1  0  0  0  0
  7  2  1  6  0  0  0
  7  8  1  0  0  0  0
  7  6  1  0  0  0  0
  8  9  2  0  0  0  0
  9 10  1  0  0  0  0
  9  1  1  0  0  0  0
 10 17  1  0  0  0  0
 11 18  1  0  0  0  0
 11 10  2  0  0  0  0
 12  4  1  0  0  0  0
 15  5  1  0  0  0  0
 16  8  1  0  0  0  0
M  END
