1,6
q = -1.0

 24 24  0  0  0  0  0  0  0  0999 V2000
   -0.9036    1.6022   -0.1264 O   0  0  0  0  0  1  0  0  0  0  0  0
    7.4018   -1.1244    0.6621 O   0  0  0  0  0  0  0  0  0  0  0  0
    7.8014    0.6471   -0.5579 O   0  0  0  0  0  0  0  0  0  0  0  0
   -0.0342    2.6191   -0.1319 N   0  0  0  0  0  0  0  0  0  0  0  0
    1.2266    2.4160   -0.0357 N   0  0  0  0  0  2  0  0  0  0  0  0
    1.5065    1.1281    0.0807 N   0  0  0  0  0  2  0  0  0  0  0  0
    7.0460   -0.1111    0.0551 N   0  0  0  0  0  0  0  0  0  0  0  0
    2.8807    0.8299    0.0644 C   0  0  0  0  0  0  0  0  0  0  0  0
    3.7993    1.6530   -0.6357 C   0  0  0  0  0  0  0  0  0  0  0  0
    5.1604    1.3506   -0.6338 C   0  0  0  0  0  0  0  0  0  0  0  0
    5.6093    0.2181    0.0630 C   0  0  0  0  0  0  0  0  0  0  0  0
    4.7191   -0.6072    0.7665 C   0  0  0  0  0  0  0  0  0  0  0  0
    3.3588   -0.2988    0.7714 C   0  0  0  0  0  0  0  0  0  0  0  0
   -0.6027    3.9648   -0.1397 C   0  0  0  0  0  0  0  0  0  0  0  0
   -1.4750    4.2186    1.0854 C   0  0  0  0  0  0  0  0  0  0  0  0
    3.4220    2.5272   -1.1826 H   0  0  0  0  0  0  0  0  0  0  0  0
    5.8932    1.9657   -1.1727 H   0  0  0  0  0  0  0  0  0  0  0  0
    5.1194   -1.4721    1.3116 H   0  0  0  0  0  0  0  0  0  0  0  0
    2.6460   -0.9227    1.3222 H   0  0  0  0  0  0  0  0  0  0  0  0
   -1.1935    4.0604   -1.0750 H   0  0  0  0  0  0  0  0  0  0  0  0
    0.2602    4.6535   -0.1980 H   0  0  0  0  0  0  0  0  0  0  0  0
   -1.9200    5.2305    1.0239 H   0  0  0  0  0  0  0  0  0  0  0  0
   -0.8789    4.1538    2.0167 H   0  0  0  0  0  0  0  0  0  0  0  0
   -2.2938    3.4759    1.1373 H   0  0  0  0  0  0  0  0  0  0  0  0
  3  7  2  0  0  0  0
  4  1  1  0  0  0  0
  4  5  1  0  0  0  0
  5  6  1  0  0  0  0
  7 11  1  0  0  0  0
  7  2  2  0  0  0  0
  8  6  1  0  0  0  0
  8 13  1  0  0  0  0
  9 10  1  0  0  0  0
  9  8  2  0  0  0  0
 10 11  2  0  0  0  0
 11 12  1  0  0  0  0
 12 13  2  0  0  0  0
 12 18  1  0  0  0  0
 13 19  1  0  0  0  0
 14  4  1  0  0  0  0
 14 15  1  0  0  0  0
 15 24  1  0  0  0  0
 15 23  1  0  0  0  0
 16  9  1  0  0  0  0
 17 10  1  0  0  0  0
 20 14  1  0  0  0  0
 21 14  1  0  0  0  0
 22 15  1  0  0  0  0
M  END
