2,5
q = -1.0

 14 15  0  0  1  0  0  0  0  0999 V2000
   -5.5488   -1.2449   -0.0264 O   0  0  0  0  0  0  0  0  0  0  0  0
   -0.9315   -1.7611   -0.1365 O   0  0  0  0  0  1  0  0  0  0  0  0
   -3.2523   -1.4744   -0.0769 N   0  0  0  0  0  0  0  0  0  0  0  0
   -4.2620    0.6719    0.0792 N   0  0  0  0  0  0  0  0  0  0  0  0
   -0.7405    1.1893    0.0569 N   0  0  0  0  0  0  0  0  0  0  0  0
   -2.6237    2.5270    0.1723 N   0  0  0  0  0  0  0  0  0  0  0  0
   -4.4575   -0.7093   -0.0081 C   0  0  0  0  0  0  0  0  0  0  0  0
   -3.0046    1.2356    0.0961 C   0  0  0  0  0  0  0  0  0  0  0  0
   -1.8775    0.4037    0.0252 C   0  0  0  0  0  0  0  0  0  0  0  0
   -1.9542   -1.0020   -0.0674 C   0  0  2  0  0  3  0  0  0  0  0  0
   -1.2656    2.4429    0.1451 C   0  0  0  0  0  3  0  0  0  0  0  0
   -3.4110   -2.4845   -0.1429 H   0  0  0  0  0  0  0  0  0  0  0  0
   -5.1084    1.2455    0.1287 H   0  0  0  0  0  0  0  0  0  0  0  0
   -0.6323    3.3414    0.1931 H   0  0  0  0  0  0  0  0  0  0  0  0
  1  7  2  0  0  0  0
  3 10  1  0  0  0  0
  3  7  1  0  0  0  0
  4  8  1  0  0  0  0
  4 13  1  0  0  0  0
  5 11  1  0  0  0  0
  7  4  1  0  0  0  0
  8  6  2  0  0  0  0
  9  5  2  0  0  0  0
  9  8  1  0  0  0  0
 10  2  1  6  0  0  0
 10  9  1  0  0  0  0
 11  6  1  0  0  0  0
 11 14  1  0  0  0  0
 12  3  1  0  0  0  0
M  END
