1,16
q = -2.0, confidence = 0.856

 16 16  0  0  0  0  0  0  0  0999 V2000
   -0.7031    1.5077    0.0010 N   0  0  0  0  0  2  0  0  0  0  0  0
   -2.0998    1.6297   -0.0001 C   0  0  0  0  0  0  0  0  0  0  0  0
   -2.9315    0.4292    0.0006 C   0  0  0  0  0  0  0  0  0  0  0  0
   -2.4190   -0.9085    0.0013 C   0  0  0  0  0  0  0  0  0  0  0  0
   -3.3496   -1.9885    0.0016 C   0  0  0  0  0  0  0  0  0  0  0  0
   -2.9338   -3.0067    0.0021 H   0  0  0  0  0  0  0  0  0  0  0  0
   -4.7209   -1.7586    0.0012 C   0  0  0  0  0  0  0  0  0  0  0  0
   -5.4148   -2.6138    0.0014 H   0  0  0  0  0  0  0  0  0  0  0  0
   -5.2264   -0.4375    0.0005 C   0  0  0  0  0  0  0  0  0  0  0  0
   -6.3114   -0.2571    0.0002 H   0  0  0  0  0  0  0  0  0  0  0  0
   -4.3367    0.6314    0.0002 C   0  0  0  0  0  0  0  0  0  0  0  0
   -4.6888    1.6732   -0.0004 H   0  0  0  0  0  0  0  0  0  0  0  0
   -0.1397    2.7695   -0.0008 O   0  0  0  0  0  0  0  0  0  0  0  0
   -1.0119    3.3121   -0.0023 H   0  0  0  0  0  0  0  0  0  0  0  0
   -2.5547    2.8009   -0.0019 O   0  0  0  0  0  0  0  0  0  0  0  0
   -1.1366   -1.2263    0.0015 O   0  5  0  0  0  0  0  0  0  0  0  0
  2  3  1  0  0  0  0
  2  1  1  0  0  0  0
  3  4  1  0  0  0  0
  4 16  1  0  0  0  0
  4  5  2  0  0  0  0
  5  6  1  0  0  0  0
  7  8  1  0  0  0  0
  7  5  1  0  0  0  0
  9  7  2  0  0  0  0
 10  9  1  0  0  0  0
 11  9  1  0  0  0  0
 11  3  2  0  0  0  0
 12 11  1  0  0  0  0
 13  1  1  0  0  0  0
 14 13  1  0  0  0  0
 15  2  2  0  0  0  0
M  CHG  1  16  -1
M  END
