1,3
q = -1.0

 27 29  0  0  0  0  0  0  0  0999 V2000
    0.7554   -2.6130   -0.1198 O   0  5  0  0  0  0  0  0  0  0  0  0
   -4.9479   -0.7859   -0.0275 O   0  0  0  0  0  0  0  0  0  0  0  0
   -0.7815   -0.4038    0.0048 N   0  0  0  0  0  2  0  0  0  0  0  0
   -3.4053   -3.0177   -0.3357 N   0  0  0  0  0  2  0  0  0  0  0  0
   -1.5622    0.6649    0.2130 C   0  0  0  0  0  0  0  0  0  0  0  0
   -1.0545    1.6196    0.3968 H   0  0  0  0  0  0  0  0  0  0  0  0
   -2.9674    0.5999    0.2164 C   0  0  0  0  0  0  0  0  0  0  0  0
   -3.5464    1.5167    0.3879 H   0  0  0  0  0  0  0  0  0  0  0  0
   -3.6093   -0.6231    0.0016 C   0  0  0  0  0  0  0  0  0  0  0  0
   -2.5865   -4.0695   -0.4432 C   0  0  0  0  0  0  0  0  0  0  0  0
   -3.0809   -5.0495   -0.5774 H   0  0  0  0  0  0  0  0  0  0  0  0
   -1.1794   -4.0285   -0.3859 C   0  0  0  0  0  0  0  0  0  0  0  0
   -0.5804   -4.9478   -0.4562 H   0  0  0  0  0  0  0  0  0  0  0  0
   -0.5299   -2.7854   -0.2224 C   0  0  0  0  0  0  0  0  0  0  0  0
   -1.3967   -1.6335   -0.1447 C   0  0  0  0  0  0  0  0  0  0  0  0
   -2.8130   -1.8111   -0.1740 C   0  0  0  0  0  0  0  0  0  0  0  0
   -5.7704    0.3282    0.1092 C   0  0  0  0  0  0  0  0  0  0  0  0
   -6.0994    1.0869   -1.0239 C   0  0  0  0  0  0  0  0  0  0  0  0
   -5.6719    0.8131   -1.9992 H   0  0  0  0  0  0  0  0  0  0  0  0
   -6.9759    2.1734   -0.8834 C   0  0  0  0  0  0  0  0  0  0  0  0
   -7.2434    2.7723   -1.7669 H   0  0  0  0  0  0  0  0  0  0  0  0
   -7.5144    2.4923    0.3741 C   0  0  0  0  0  0  0  0  0  0  0  0
   -8.2032    3.3437    0.4781 H   0  0  0  0  0  0  0  0  0  0  0  0
   -7.1772    1.7197    1.4973 C   0  0  0  0  0  0  0  0  0  0  0  0
   -7.6018    1.9630    2.4829 H   0  0  0  0  0  0  0  0  0  0  0  0
   -6.3005    0.6312    1.3712 C   0  0  0  0  0  0  0  0  0  0  0  0
   -6.0253    0.0070    2.2334 H   0  0  0  0  0  0  0  0  0  0  0  0
  2  9  1  0  0  0  0
  2 17  1  0  0  0  0
  3  5  1  0  0  0  0
  4 16  1  0  0  0  0
  5  7  2  0  0  0  0
  5  6  1  0  0  0  0
  7  8  1  0  0  0  0
  9  7  1  0  0  0  0
 10 12  2  0  0  0  0
 10  4  1  0  0  0  0
 11 10  1  0  0  0  0
 12 14  1  0  0  0  0
 13 12  1  0  0  0  0
 14 15  2  0  0  0  0
 14  1  1  0  0  0  0
 15  3  1  0  0  0  0
 16 15  1  0  0  0  0
 16  9  2  0  0  0  0
 17 26  1  0  0  0  0
 18 20  1  0  0  0  0
 18 17  2  0  0  0  0
 19 18  1  0  0  0  0
 20 22  2  0  0  0  0
 21 20  1  0  0  0  0
 22 23  1  0  0  0  0
 22 24  1  0  0  0  0
 24 25  1  0  0  0  0
 26 24  2  0  0  0  0
 26 27  1  0  0  0  0
M  CHG  1   1  -1
M  END
