1,9
q = -1.0

 30 30  0  0  1  0  0  0  0  0999 V2000
    1.6354   -0.9770   -0.7842 O   0  0  0  0  0  1  0  0  0  0  0  0
    5.0689   -1.0511    0.1747 F   0  0  0  0  0  0  0  0  0  0  0  0
    1.6224   -3.4204    0.4456 F   0  0  0  0  0  0  0  0  0  0  0  0
    3.1562   -3.3688   -1.0988 F   0  0  0  0  0  0  0  0  0  0  0  0
    3.7214   -3.2601    1.0090 F   0  0  0  0  0  0  0  0  0  0  0  0
    4.1606   -0.9807   -1.8110 F   0  0  0  0  0  0  0  0  0  0  0  0
    3.9026    0.6885   -0.4379 F   0  0  0  0  0  0  0  0  0  0  0  0
    1.2029   -1.2434    2.1529 C   0  0  2  0  0  3  0  0  0  0  0  0
    0.0540   -1.0045    1.5996 N   0  0  0  0  0  2  0  0  0  0  0  0
    3.9726   -0.6565   -0.5196 C   0  0  0  0  0  0  0  0  0  0  0  0
   -1.1415   -1.4861    2.2034 C   0  0  0  0  0  0  0  0  0  0  0  0
    2.8049   -2.8563    0.0912 C   0  0  0  0  0  0  0  0  0  0  0  0
   -1.7416   -2.6658    1.7192 C   0  0  0  0  0  0  0  0  0  0  0  0
   -1.2568   -3.1942    0.8906 H   0  0  0  0  0  0  0  0  0  0  0  0
    2.6624   -1.2983    0.0507 C   0  0  0  0  0  0  0  0  0  0  0  0
    2.4585   -0.7431    1.4886 C   0  0  0  0  0  0  0  0  0  0  0  0
    3.3449   -0.9644    2.1098 H   0  0  0  0  0  0  0  0  0  0  0  0
    2.3713    0.3509    1.3558 H   0  0  0  0  0  0  0  0  0  0  0  0
   -1.7544   -0.7795    3.2586 C   0  0  0  0  0  0  0  0  0  0  0  0
   -1.2723    0.1252    3.6575 H   0  0  0  0  0  0  0  0  0  0  0  0
   -2.9391   -3.1236    2.2837 C   0  0  0  0  0  0  0  0  0  0  0  0
   -3.3975   -4.0459    1.8956 H   0  0  0  0  0  0  0  0  0  0  0  0
   -3.5583   -2.4137    3.3261 C   0  0  0  0  0  0  0  0  0  0  0  0
   -4.5017   -2.7754    3.7616 H   0  0  0  0  0  0  0  0  0  0  0  0
    1.3942   -2.0229    3.4233 C   0  0  0  0  0  0  0  0  0  0  0  0
    0.4508   -2.4214    3.8351 H   0  0  0  0  0  0  0  0  0  0  0  0
    1.8837   -1.3793    4.1842 H   0  0  0  0  0  0  0  0  0  0  0  0
    2.0958   -2.8589    3.2231 H   0  0  0  0  0  0  0  0  0  0  0  0
   -2.9589   -1.2410    3.8127 C   0  0  0  0  0  0  0  0  0  0  0  0
   -3.4252   -0.6818    4.6383 H   0  0  0  0  0  0  0  0  0  0  0  0
  1 15  1  0  0  0  0
  4 12  1  0  0  0  0
  6 10  1  0  0  0  0
  8  9  1  6  0  0  0
  8 25  1  0  0  0  0
  9 11  1  0  0  0  0
 10  7  1  0  0  0  0
 10 15  1  0  0  0  0
 10  2  1  0  0  0  0
 11 19  1  0  0  0  0
 12  3  1  0  0  0  0
 12  5  1  0  0  0  0
 13 11  2  0  0  0  0
 13 21  1  0  0  0  0
 14 13  1  0  0  0  0
 15 12  1  0  0  0  0
 15 16  1  0  0  0  0
 16 17  1  0  0  0  0
 16  8  1  0  0  0  0
 18 16  1  0  0  0  0
 19 20  1  0  0  0  0
 19 29  2  0  0  0  0
 21 23  2  0  0  0  0
 22 21  1  0  0  0  0
 23 24  1  0  0  0  0
 23 29  1  0  0  0  0
 25 26  1  0  0  0  0
 25 27  1  0  0  0  0
 28 25  1  0  0  0  0
 29 30  1  0  0  0  0
M  END
