1,2
q = -1.0, confidence = 0.022

 23 26  0  0  1  0  0  0  0  0999 V2000
    1.6650    0.7702    0.3585 N   0  0  0  0  0  2  0  0  0  0  0  0
    0.6363   -1.7897   -0.2627 O   0  0  0  0  0  1  0  0  0  0  0  0
    2.8495    0.2292    0.5425 C   0  0  2  0  0  3  0  0  0  0  0  0
    1.6466    1.7968    0.4763 H   0  0  0  0  0  0  0  0  0  0  0  0
    1.8639   -1.9933   -0.0203 C   0  0  2  0  0  3  0  0  0  0  0  0
    2.8930   -1.2088    0.6114 C   0  0  1  0  0  0  0  0  0  0  0  0
    4.0220    1.1627    0.8458 C   0  0  0  0  0  0  0  0  0  0  0  0
    3.0258   -2.6313   -0.5582 C   0  0  1  0  0  3  0  0  0  0  0  0
    3.8613   -2.3342    0.6302 C   0  0  1  0  0  0  0  0  0  0  0  0
    3.8418    2.0770    1.6432 O   0  0  0  0  0  0  0  0  0  0  0  0
    5.2922    0.9439    0.1131 C   0  0  0  0  0  0  0  0  0  0  0  0
    5.3375   -2.2800    0.6156 O   0  0  0  0  0  0  0  0  0  0  0  0
    4.7920   -2.9582    1.6039 C   0  0  0  0  0  2  0  0  0  0  0  0
    5.3554    0.1447   -1.0503 C   0  0  0  0  0  0  0  0  0  0  0  0
    6.4474    1.6236    0.5624 C   0  0  0  0  0  0  0  0  0  0  0  0
    6.5633    0.0220   -1.7482 C   0  0  0  0  0  0  0  0  0  0  0  0
    4.4625   -0.3838   -1.4206 H   0  0  0  0  0  0  0  0  0  0  0  0
    7.6533    1.4844   -0.1288 C   0  0  0  0  0  0  0  0  0  0  0  0
    6.3657    2.2536    1.4603 H   0  0  0  0  0  0  0  0  0  0  0  0
    7.7115    0.6841   -1.2853 C   0  0  0  0  0  0  0  0  0  0  0  0
    6.6093   -0.5996   -2.6544 H   0  0  0  0  0  0  0  0  0  0  0  0
    8.5562    2.0017    0.2289 H   0  0  0  0  0  0  0  0  0  0  0  0
    8.6619    0.5771   -1.8301 H   0  0  0  0  0  0  0  0  0  0  0  0
  1  4  1  0  0  0  0
  3  1  1  1  0  0  0
  3  7  1  0  0  0  0
  5  2  1  6  0  0  0
  5  6  1  0  0  0  0
  6  3  1  6  0  0  0
  6  9  1  0  0  0  0
  7 10  2  0  0  0  0
  8  5  1  0  0  0  0
  8  6  1  0  0  0  0
  8  9  1  0  0  0  0
  9 13  1  0  0  0  0
 11 15  1  0  0  0  0
 11  7  1  0  0  0  0
 12  9  1  0  0  0  0
 12 13  1  0  0  0  0
 14 11  2  0  0  0  0
 15 19  1  0  0  0  0
 16 20  2  0  0  0  0
 16 14  1  0  0  0  0
 17 14  1  0  0  0  0
 18 22  1  0  0  0  0
 18 15  2  0  0  0  0
 20 18  1  0  0  0  0
 21 16  1  0  0  0  0
 23 20  1  0  0  0  0
M  END
