1,2
q = -1.0, confidence = 0.026

 43 45  0  0  1  0  0  0  0  0999 V2000
   -0.5330   -1.9108   -1.0499 O   0  5  0  0  0  0  0  0  0  0  0  0
   -0.1624    0.5333    0.2884 N   0  0  0  0  0  2  0  0  0  0  0  0
   -0.2967    1.9308    0.0464 C   0  0  0  0  0  0  0  0  0  0  0  0
   -0.5506    2.4003   -1.2609 C   0  0  0  0  0  0  0  0  0  0  0  0
   -0.6119    1.6717   -2.0832 H   0  0  0  0  0  0  0  0  0  0  0  0
   -0.7308    3.7674   -1.4957 C   0  0  0  0  0  0  0  0  0  0  0  0
   -0.9310    4.1144   -2.5216 H   0  0  0  0  0  0  0  0  0  0  0  0
   -0.6566    4.7139   -0.4477 C   0  0  0  0  0  0  0  0  0  0  0  0
   -0.3867    4.2351    0.8499 C   0  0  0  0  0  0  0  0  0  0  0  0
   -0.3179    4.9486    1.6857 H   0  0  0  0  0  0  0  0  0  0  0  0
   -0.2066    2.8652    1.1007 C   0  0  0  0  0  0  0  0  0  0  0  0
    0.0083    2.5120    2.1214 H   0  0  0  0  0  0  0  0  0  0  0  0
   -0.8305    6.1840   -0.7225 C   0  0  0  0  0  0  0  0  0  0  0  0
    0.0723    6.6004   -1.2179 H   0  0  0  0  0  0  0  0  0  0  0  0
   -0.9942    6.7604    0.2077 H   0  0  0  0  0  0  0  0  0  0  0  0
   -1.6838    6.3726   -1.4040 H   0  0  0  0  0  0  0  0  0  0  0  0
    1.0612    0.0067    0.4146 C   0  0  2  0  0  3  0  0  0  0  0  0
    1.2673   -1.4444    0.5120 C   0  0  0  0  0  0  0  0  0  0  0  0
    0.4729   -2.3288   -0.2905 C   0  0  0  0  0  0  0  0  0  0  0  0
    0.8116   -3.7097   -0.2960 C   0  0  0  0  0  0  0  0  0  0  0  0
    0.2319   -4.3771   -0.9506 H   0  0  0  0  0  0  0  0  0  0  0  0
    1.8427   -4.2000    0.5059 C   0  0  0  0  0  0  0  0  0  0  0  0
    2.0738   -5.2762    0.4901 H   0  0  0  0  0  0  0  0  0  0  0  0
    2.5722   -3.3371    1.3495 C   0  0  0  0  0  0  0  0  0  0  0  0
    3.3585   -3.7328    2.0074 H   0  0  0  0  0  0  0  0  0  0  0  0
    2.2916   -1.9714    1.3342 C   0  0  0  0  0  0  0  0  0  0  0  0
    2.8708   -1.2877    1.9709 H   0  0  0  0  0  0  0  0  0  0  0  0
    2.1431    0.8349    0.4555 N   0  0  0  0  0  0  0  0  0  0  0  0
    1.9201    1.8334    0.5346 H   0  0  0  0  0  0  0  0  0  0  0  0
    3.5072    0.5409    0.1658 C   0  0  0  0  0  0  0  0  0  0  0  0
    4.5057    1.2085    0.8951 C   0  0  0  0  0  0  0  0  0  0  0  0
    4.2218    1.9064    1.6978 H   0  0  0  0  0  0  0  0  0  0  0  0
    5.8580    0.9777    0.6068 C   0  0  0  0  0  0  0  0  0  0  0  0
    6.6290    1.5094    1.1852 H   0  0  0  0  0  0  0  0  0  0  0  0
    6.2483    0.0722   -0.3988 C   0  0  0  0  0  0  0  0  0  0  0  0
    5.2282   -0.5837   -1.1232 C   0  0  0  0  0  0  0  0  0  0  0  0
    5.5021   -1.2858   -1.9261 H   0  0  0  0  0  0  0  0  0  0  0  0
    3.8753   -0.3519   -0.8597 C   0  0  0  0  0  0  0  0  0  0  0  0
    3.1008   -0.8628   -1.4489 H   0  0  0  0  0  0  0  0  0  0  0  0
    7.6996   -0.1913   -0.7041 C   0  0  0  0  0  0  0  0  0  0  0  0
    7.9559   -1.2589   -0.5416 H   0  0  0  0  0  0  0  0  0  0  0  0
    8.3700    0.4189   -0.0698 H   0  0  0  0  0  0  0  0  0  0  0  0
    7.9341    0.0350   -1.7649 H   0  0  0  0  0  0  0  0  0  0  0  0
  1 19  1  0  0  0  0
  3  2  1  0  0  0  0
  3 11  1  0  0  0  0
  4  3  2  0  0  0  0
  5  4  1  0  0  0  0
  6  4  1  0  0  0  0
  6  8  2  0  0  0  0
  7  6  1  0  0  0  0
  8  9  1  0  0  0  0
  9 11  2  0  0  0  0
  9 10  1  0  0  0  0
 11 12  1  0  0  0  0
 13  8  1  0  0  0  0
 13 15  1  0  0  0  0
 14 13  1  0  0  0  0
 16 13  1  0  0  0  0
 17  2  1  1  0  0  0
 17 28  1  0  0  0  0
 17 18  1  0  0  0  0
 18 26  1  0  0  0  0
 19 18  2  0  0  0  0
 20 19  1  0  0  0  0
 20 22  2  0  0  0  0
 21 20  1  0  0  0  0
 22 24  1  0  0  0  0
 23 22  1  0  0  0  0
 24 25  1  0  0  0  0
 26 24  2  0  0  0  0
 26 27  1  0  0  0  0
 28 29  1  0  0  0  0
 30 28  1  0  0  0  0
 30 31  1  0  0  0  0
 31 32  1  0  0  0  0
 33 31  2  0  0  0  0
 33 34  1  0  0  0  0
 35 33  1  0  0  0  0
 36 38  1  0  0  0  0
 36 35  2  0  0  0  0
 37 36  1  0  0  0  0
 38 30  2  0  0  0  0
 39 38  1  0  0  0  0
 40 41  1  0  0  0  0
 40 35  1  0  0  0  0
 40 42  1  0  0  0  0
 43 40  1  0  0  0  0
M  CHG  1   1  -1
M  END
