1,2
q = -1.0, confidence = 0.034

 29 29  0  0  0  0  0  0  0  0999 V2000
   -0.0989    1.6132    0.7045 O   0  5  0  0  0  0  0  0  0  0  0  0
    0.6174   -1.0269   -0.0241 N   0  0  0  0  0  2  0  0  0  0  0  0
    0.6168   -1.9979    0.3095 H   0  0  0  0  0  0  0  0  0  0  0  0
    2.9463   -1.2632    0.1461 N   0  0  0  0  0  0  0  0  0  0  0  0
    1.0293    1.9147    0.0771 C   0  0  0  0  0  0  0  0  0  0  0  0
    2.0027    0.9476   -0.3437 C   0  0  0  0  0  0  0  0  0  0  0  0
    3.1297    1.3810   -1.0904 C   0  0  0  0  0  3  0  0  0  0  0  0
    3.8196    0.6217   -1.4877 H   0  0  0  0  0  0  0  0  0  0  0  0
    3.3554    2.7294   -1.3548 C   0  0  0  0  0  0  0  0  0  0  0  0
    4.2246    3.0401   -1.9514 H   0  0  0  0  0  0  0  0  0  0  0  0
    2.4451    3.6879   -0.8592 C   0  0  0  0  0  0  0  0  0  0  0  0
    2.6196    4.7588   -1.0444 H   0  0  0  0  0  0  0  0  0  0  0  0
    1.3042    3.2902   -0.1672 C   0  0  0  0  0  0  0  0  0  0  0  0
    0.5735    4.0265    0.1983 H   0  0  0  0  0  0  0  0  0  0  0  0
    1.8311   -0.4811   -0.0448 C   0  0  0  0  0  0  0  0  0  0  0  0
    4.1211   -0.7616    0.8913 C   0  0  0  0  0  0  0  0  0  0  0  0
    4.2025    0.3268    0.7314 H   0  0  0  0  0  0  0  0  0  0  0  0
    5.0265   -1.2205    0.4420 H   0  0  0  0  0  0  0  0  0  0  0  0
    4.0381   -1.0571    2.3884 C   0  0  0  0  0  0  0  0  0  0  0  0
    4.9426   -0.6705    2.8984 H   0  0  0  0  0  0  0  0  0  0  0  0
    3.9758   -2.1429    2.6040 H   0  0  0  0  0  0  0  0  0  0  0  0
    3.1551   -0.5608    2.8398 H   0  0  0  0  0  0  0  0  0  0  0  0
    2.8308   -2.7241    0.0586 C   0  0  0  0  0  0  0  0  0  0  0  0
    2.0686   -3.1153    0.7769 H   0  0  0  0  0  0  0  0  0  0  0  0
    3.7906   -3.1424    0.4168 H   0  0  0  0  0  0  0  0  0  0  0  0
    2.5582   -3.2161   -1.3628 C   0  0  0  0  0  0  0  0  0  0  0  0
    2.4856   -4.3213   -1.3795 H   0  0  0  0  0  0  0  0  0  0  0  0
    3.3797   -2.9140   -2.0410 H   0  0  0  0  0  0  0  0  0  0  0  0
    1.6164   -2.8014   -1.7733 H   0  0  0  0  0  0  0  0  0  0  0  0
  2  3  1  0  0  0  0
  4 16  1  0  0  0  0
  5  1  1  0  0  0  0
  6 15  2  0  0  0  0
  6  5  1  0  0  0  0
  7  6  1  0  0  0  0
  8  7  1  0  0  0  0
  9  7  1  0  0  0  0
  9 11  2  0  0  0  0
 10  9  1  0  0  0  0
 11 13  1  0  0  0  0
 12 11  1  0  0  0  0
 13  5  2  0  0  0  0
 13 14  1  0  0  0  0
 15  2  1  0  0  0  0
 15  4  1  0  0  0  0
 16 19  1  0  0  0  0
 17 16  1  0  0  0  0
 18 16  1  0  0  0  0
 19 21  1  0  0  0  0
 19 22  1  0  0  0  0
 19 20  1  0  0  0  0
 23  4  1  0  0  0  0
 23 25  1  0  0  0  0
 23 24  1  0  0  0  0
 26 23  1  0  0  0  0
 27 26  1  0  0  0  0
 28 26  1  0  0  0  0
 29 26  1  0  0  0  0
M  CHG  1   1  -1
M  END
