1,10
q = -1.0, confidence = 0.002

 12 11  0  0  0  0  0  0  0  0999 V2000
    1.6817    1.1186   -0.1468 O   0  5  0  0  0  0  0  0  0  0  0  0
    3.8773    1.4859   -0.0476 O   0  0  0  0  0  0  0  0  0  0  0  0
    2.9305    0.7137    0.0161 C   0  0  0  0  0  0  0  0  0  0  0  0
    3.1844   -0.7784    0.3343 C   0  0  0  0  0  0  0  0  0  0  0  0
    4.2548   -0.9581    0.1187 H   0  0  0  0  0  0  0  0  0  0  0  0
    3.0662   -0.9146    1.4337 H   0  0  0  0  0  0  0  0  0  0  0  0
    2.3395   -1.8172   -0.3976 C   0  0  0  0  0  0  0  0  0  0  0  0
    2.7835   -2.8295   -0.2756 H   0  0  0  0  0  0  0  0  0  0  0  0
    2.2970   -1.5984   -1.4832 H   0  0  0  0  0  0  0  0  0  0  0  0
    0.9435   -1.8257    0.1067 N   0  0  0  0  0  0  0  0  0  0  0  0
    0.9262   -2.1256    1.0956 H   0  0  0  0  0  0  0  0  0  0  0  0
    0.3441   -2.4999   -0.3975 H   0  0  0  0  0  0  0  0  0  0  0  0
  1  3  1  0  0  0  0
  2  3  2  0  0  0  0
  3  4  1  0  0  0  0
  4  6  1  0  0  0  0
  5  4  1  0  0  0  0
  7  8  1  0  0  0  0
  7 10  1  0  0  0  0
  7  4  1  0  0  0  0
  9  7  1  0  0  0  0
 10 11  1  0  0  0  0
 12 10  1  0  0  0  0
M  CHG  1   1  -1
M  END
