1,8
q = -2.0, confidence = 0.786

  9  9  0  0  0  0  0  0  0  0999 V2000
   -0.4172   -0.8841   -2.2440 O   0  5  0  0  0  0  0  0  0  0  0  0
   -0.2152   -2.7276   -3.5408 O   0  0  0  0  0  0  0  0  0  0  0  0
    0.8388   -4.2955    0.4507 N   0  0  0  0  0  0  0  0  0  0  0  0
    0.3145   -2.8946   -1.2163 C   0  0  0  0  0  0  0  0  0  0  0  0
    0.5284   -4.2353   -0.8727 C   0  0  0  0  0  0  0  0  0  0  0  0
    0.4615   -5.1310   -1.5013 H   0  0  0  0  0  0  0  0  0  0  0  0
   -0.1340   -2.1601   -2.4489 C   0  0  0  0  0  0  0  0  0  0  0  0
    0.5322   -2.1995   -0.0636 N   0  0  0  0  0  0  0  0  0  0  0  0
    0.8388   -3.0474    0.9311 N   0  0  0  0  0  2  0  0  0  0  0  0
  2  7  2  0  0  0  0
  3  9  1  0  0  0  0
  4  5  1  0  0  0  0
  4  8  2  0  0  0  0
  5  3  2  0  0  0  0
  6  5  1  0  0  0  0
  7  1  1  0  0  0  0
  7  4  1  0  0  0  0
  8  9  1  0  0  0  0
M  CHG  1   1  -1
M  END
