1,6
q = -1.0

 25 24  0  0  1  0  0  0  0  0999 V2000
   -1.5187   -0.6173   -0.7909 O   0  5  0  0  0  0  0  0  0  0  0  0
    1.3105    0.9533    2.1901 O   0  0  0  0  0  0  0  0  0  0  0  0
   -3.1257   -1.2643   -2.9131 F   0  0  0  0  0  0  0  0  0  0  0  0
   -4.6644    0.1160   -2.2169 F   0  0  0  0  0  0  0  0  0  0  0  0
   -4.1397   -1.6326   -1.0141 F   0  0  0  0  0  0  0  0  0  0  0  0
   -0.8507    1.8582    0.7096 N   0  0  0  0  0  2  0  0  0  0  0  0
   -2.5356    0.1077   -1.0494 C   0  0  0  0  0  0  0  0  0  0  0  0
   -1.9974    2.2527    0.1740 C   0  0  1  0  0  3  0  0  0  0  0  0
   -2.8029    1.4257   -0.6726 C   0  0  0  0  0  0  0  0  0  0  0  0
   -3.7434    1.8593   -1.0318 H   0  0  0  0  0  0  0  0  0  0  0  0
   -2.5446    3.6338    0.4745 C   0  0  0  0  0  0  0  0  0  0  0  0
   -2.6862    3.7812    1.5656 H   0  0  0  0  0  0  0  0  0  0  0  0
   -3.5136    3.7997   -0.0279 H   0  0  0  0  0  0  0  0  0  0  0  0
   -1.8418    4.4239    0.1364 H   0  0  0  0  0  0  0  0  0  0  0  0
    2.6115    0.4447    2.4279 C   0  0  0  0  0  0  0  0  0  0  0  0
    3.2710    0.5670    1.5404 H   0  0  0  0  0  0  0  0  0  0  0  0
    2.5077   -0.6329    2.6528 H   0  0  0  0  0  0  0  0  0  0  0  0
    3.0838    0.9566    3.2981 H   0  0  0  0  0  0  0  0  0  0  0  0
    1.3089    2.3169    1.7820 C   0  0  0  0  0  0  0  0  0  0  0  0
    1.8644    2.4194    0.8212 H   0  0  0  0  0  0  0  0  0  0  0  0
    1.8043    2.9532    2.5526 H   0  0  0  0  0  0  0  0  0  0  0  0
   -3.6271   -0.6588   -1.8207 C   0  0  0  0  0  0  0  0  0  0  0  0
   -0.1392    2.7475    1.6143 C   0  0  0  0  0  0  0  0  0  0  0  0
   -0.6301    2.7474    2.6178 H   0  0  0  0  0  0  0  0  0  0  0  0
   -0.1372    3.8030    1.2633 H   0  0  0  0  0  0  0  0  0  0  0  0
  2 15  1  0  0  0  0
  3 22  1  0  0  0  0
  4 22  1  0  0  0  0
  6 23  1  0  0  0  0
  7  1  1  0  0  0  0
  7  9  2  0  0  0  0
  8  9  1  1  0  0  0
  8 11  1  0  0  0  0
  8  6  1  0  0  0  0
 10  9  1  0  0  0  0
 11 12  1  0  0  0  0
 13 11  1  0  0  0  0
 14 11  1  0  0  0  0
 15 17  1  0  0  0  0
 15 18  1  0  0  0  0
 16 15  1  0  0  0  0
 19  2  1  0  0  0  0
 19 21  1  0  0  0  0
 20 19  1  0  0  0  0
 22  7  1  0  0  0  0
 22  5  1  0  0  0  0
 23 19  1  0  0  0  0
 23 24  1  0  0  0  0
 25 23  1  0  0  0  0
M  CHG  1   1  -1
M  END
