1,2
q = -1.0, confidence = 0.0

 29 29  0  0  1  0  0  0  0  0999 V2000
    0.4898    0.2247   -1.9716 N   0  0  0  0  0  2  0  0  0  0  0  0
    1.6800   -1.1614    0.3647 O   0  5  0  0  0  0  0  0  0  0  0  0
   -1.3302    1.8239   -0.5490 O   0  0  0  0  0  0  0  0  0  0  0  0
    3.4515   -3.2594    0.6141 F   0  0  0  0  0  0  0  0  0  0  0  0
    4.4073   -1.3308    0.9756 F   0  0  0  0  0  0  0  0  0  0  0  0
    4.7416   -2.3813   -0.9105 F   0  0  0  0  0  0  0  0  0  0  0  0
    2.5690   -1.3612   -0.5294 C   0  0  0  0  0  0  0  0  0  0  0  0
    2.5826   -0.9851   -1.8752 C   0  0  0  0  0  0  0  0  0  0  0  0
    3.4535   -1.2977   -2.4629 H   0  0  0  0  0  0  0  0  0  0  0  0
    1.5629   -0.2567   -2.5734 C   0  0  1  0  0  3  0  0  0  0  0  0
    3.8032   -2.0996    0.0250 C   0  0  0  0  0  0  0  0  0  0  0  0
    1.7778   -0.0661   -4.0643 C   0  0  0  0  0  0  0  0  0  0  0  0
    0.9601   -0.5383   -4.6470 H   0  0  0  0  0  0  0  0  0  0  0  0
    2.7323   -0.5185   -4.3865 H   0  0  0  0  0  0  0  0  0  0  0  0
    1.7963    1.0082   -4.3419 H   0  0  0  0  0  0  0  0  0  0  0  0
   -0.5489    0.9421   -2.6795 C   0  0  0  0  0  0  0  0  0  0  0  0
   -1.4449    0.2828   -2.7624 H   0  0  0  0  0  0  0  0  0  0  0  0
   -0.2667    1.2489   -3.7096 H   0  0  0  0  0  0  0  0  0  0  0  0
   -0.9578    2.1974   -1.8947 C   0  0  1  0  0  0  0  0  0  0  0  0
   -0.0721    2.8595   -1.7886 H   0  0  0  0  0  0  0  0  0  0  0  0
   -2.1850    2.9226   -2.4920 C   0  0  0  0  0  0  0  0  0  0  0  0
   -1.9127    3.8785   -2.9790 H   0  0  0  0  0  0  0  0  0  0  0  0
   -2.6648    2.2813   -3.2609 H   0  0  0  0  0  0  0  0  0  0  0  0
   -3.1261    3.1056   -1.2872 C   0  0  0  0  0  0  0  0  0  0  0  0
   -2.8921    4.0450   -0.7452 H   0  0  0  0  0  0  0  0  0  0  0  0
   -4.1964    3.1278   -1.5708 H   0  0  0  0  0  0  0  0  0  0  0  0
   -2.7581    1.8999   -0.4272 C   0  0  0  0  0  0  0  0  0  0  0  0
   -2.9943    1.9993    0.6498 H   0  0  0  0  0  0  0  0  0  0  0  0
   -3.2366    0.9685   -0.8040 H   0  0  0  0  0  0  0  0  0  0  0  0
  3 27  1  0  0  0  0
  6 11  1  0  0  0  0
  7 11  1  0  0  0  0
  7  2  1  0  0  0  0
  8  7  2  0  0  0  0
  9  8  1  0  0  0  0
 10  1  1  6  0  0  0
 10  8  1  0  0  0  0
 11  4  1  0  0  0  0
 11  5  1  0  0  0  0
 12 10  1  0  0  0  0
 13 12  1  0  0  0  0
 14 12  1  0  0  0  0
 15 12  1  0  0  0  0
 16  1  1  0  0  0  0
 16 19  1  0  0  0  0
 17 16  1  0  0  0  0
 18 16  1  0  0  0  0
 19 20  1  1  0  0  0
 19  3  1  0  0  0  0
 21 19  1  0  0  0  0
 21 24  1  0  0  0  0
 22 21  1  0  0  0  0
 23 21  1  0  0  0  0
 24 25  1  0  0  0  0
 24 27  1  0  0  0  0
 26 24  1  0  0  0  0
 27 28  1  0  0  0  0
 29 27  1  0  0  0  0
M  CHG  1   2  -1
M  END
