1,2
q = -1.0, confidence = 0.002

 29 28  0  0  1  0  0  0  0  0999 V2000
    0.2319    1.9535    0.6690 N   0  0  0  0  0  2  0  0  0  0  0  0
    1.2755    0.1054   -1.3877 O   0  5  0  0  0  0  0  0  0  0  0  0
   -1.2363    0.1159    2.1906 O   0  0  0  0  0  0  0  0  0  0  0  0
    0.3383    1.2664    3.4191 O   0  0  0  0  0  0  0  0  0  0  0  0
    4.0235   -0.2699   -1.8942 F   0  0  0  0  0  0  0  0  0  0  0  0
    2.8405    0.3451   -3.6241 F   0  0  0  0  0  0  0  0  0  0  0  0
    4.1260    1.7907   -2.6169 F   0  0  0  0  0  0  0  0  0  0  0  0
    2.1132    1.0672   -1.4662 C   0  0  0  0  0  0  0  0  0  0  0  0
    2.1337    2.2865   -0.7875 C   0  0  0  0  0  0  0  0  0  0  0  0
    2.9405    2.9813   -1.0478 H   0  0  0  0  0  0  0  0  0  0  0  0
    1.2002    2.7259    0.2089 C   0  0  2  0  0  3  0  0  0  0  0  0
    3.2814    0.7521   -2.4196 C   0  0  0  0  0  0  0  0  0  0  0  0
    1.3881    4.1403    0.7249 C   0  0  0  0  0  0  0  0  0  0  0  0
    1.5423    4.1481    1.8236 H   0  0  0  0  0  0  0  0  0  0  0  0
    0.4975    4.7667    0.5123 H   0  0  0  0  0  0  0  0  0  0  0  0
    2.2625    4.6195    0.2505 H   0  0  0  0  0  0  0  0  0  0  0  0
   -0.7222    2.4244    1.6507 C   0  0  0  0  0  0  0  0  0  0  0  0
   -1.7151    2.5487    1.1616 H   0  0  0  0  0  0  0  0  0  0  0  0
   -0.4505    3.3895    2.1230 H   0  0  0  0  0  0  0  0  0  0  0  0
   -0.8803    1.3794    2.7581 C   0  0  0  0  0  0  0  0  0  0  0  0
   -1.6959    1.6786    3.4688 H   0  0  0  0  0  0  0  0  0  0  0  0
   -2.6215   -0.2023    2.2430 C   0  0  0  0  0  0  0  0  0  0  0  0
   -3.2415    0.5169    1.6662 H   0  0  0  0  0  0  0  0  0  0  0  0
   -2.9792   -0.2400    3.2965 H   0  0  0  0  0  0  0  0  0  0  0  0
   -2.7367   -1.1996    1.7807 H   0  0  0  0  0  0  0  0  0  0  0  0
    0.3559    0.2836    4.4444 C   0  0  0  0  0  0  0  0  0  0  0  0
    0.2608   -0.7379    4.0211 H   0  0  0  0  0  0  0  0  0  0  0  0
   -0.4637    0.4522    5.1827 H   0  0  0  0  0  0  0  0  0  0  0  0
    1.3286    0.3768    4.9629 H   0  0  0  0  0  0  0  0  0  0  0  0
  1 17  1  0  0  0  0
  3 22  1  0  0  0  0
  3 20  1  0  0  0  0
  4 26  1  0  0  0  0
  6 12  1  0  0  0  0
  7 12  1  0  0  0  0
  8  2  1  0  0  0  0
  8  9  2  0  0  0  0
 10  9  1  0  0  0  0
 11  9  1  1  0  0  0
 11  1  1  0  0  0  0
 11 13  1  0  0  0  0
 12  5  1  0  0  0  0
 12  8  1  0  0  0  0
 13 14  1  0  0  0  0
 15 13  1  0  0  0  0
 16 13  1  0  0  0  0
 17 19  1  0  0  0  0
 17 20  1  0  0  0  0
 18 17  1  0  0  0  0
 20  4  1  0  0  0  0
 20 21  1  0  0  0  0
 22 24  1  0  0  0  0
 23 22  1  0  0  0  0
 25 22  1  0  0  0  0
 26 29  1  0  0  0  0
 26 28  1  0  0  0  0
 27 26  1  0  0  0  0
M  CHG  1   2  -1
M  END
