1,2
q = -1.0

 31 32  0  0  0  0  0  0  0  0999 V2000
    1.0239   -1.8728    0.8757 O   0  5  0  0  0  0  0  0  0  0  0  0
   -1.2780   -1.4268   -0.8196 N   0  0  0  0  0  2  0  0  0  0  0  0
    0.6199   -3.1113    0.8037 C   0  0  0  0  0  0  0  0  0  0  0  0
    1.4665   -4.0791    1.4352 C   0  0  0  0  0  0  0  0  0  0  0  0
    2.3781   -3.6938    1.9143 H   0  0  0  0  0  0  0  0  0  0  0  0
    1.1588   -5.4301    1.4470 C   0  0  0  0  0  0  0  0  0  0  0  0
    1.8387   -6.1403    1.9432 H   0  0  0  0  0  0  0  0  0  0  0  0
   -0.0219   -5.8927    0.8216 C   0  0  0  0  0  0  0  0  0  0  0  0
   -0.2709   -6.9634    0.8124 H   0  0  0  0  0  0  0  0  0  0  0  0
   -0.8661   -4.9749    0.2113 C   0  0  0  0  0  3  0  0  0  0  0  0
   -1.7672   -5.3602   -0.2821 H   0  0  0  0  0  0  0  0  0  0  0  0
   -0.5980   -3.5709    0.1711 C   0  0  0  0  0  0  0  0  0  0  0  0
   -1.5272   -2.6958   -0.5419 C   0  0  0  0  0  0  0  0  0  0  0  0
   -2.8414   -3.2973   -1.0073 C   0  0  0  0  0  0  0  0  0  0  0  0
   -3.6285   -2.5293   -1.0968 H   0  0  0  0  0  0  0  0  0  0  0  0
   -2.7328   -3.8012   -1.9910 H   0  0  0  0  0  0  0  0  0  0  0  0
   -3.2018   -4.0511   -0.2867 H   0  0  0  0  0  0  0  0  0  0  0  0
   -2.1914   -0.6850   -1.6921 C   0  0  0  0  0  0  0  0  0  0  0  0
   -1.5942    0.1116   -2.1773 H   0  0  0  0  0  0  0  0  0  0  0  0
   -2.5760   -1.3403   -2.4998 H   0  0  0  0  0  0  0  0  0  0  0  0
   -3.3430    0.0053   -0.9827 C   0  0  0  0  0  0  0  0  0  0  0  0
   -3.3969    0.1316    0.4170 C   0  0  0  0  0  0  0  0  0  0  0  0
   -2.6058   -0.3234    1.0319 H   0  0  0  0  0  0  0  0  0  0  0  0
   -4.4335    0.8542    1.0284 C   0  0  0  0  0  0  0  0  0  0  0  0
   -4.4518    0.9537    2.1243 H   0  0  0  0  0  0  0  0  0  0  0  0
   -5.4333    1.4558    0.2506 C   0  0  0  0  0  0  0  0  0  0  0  0
   -6.2437    2.0247    0.7311 H   0  0  0  0  0  0  0  0  0  0  0  0
   -5.3933    1.3259   -1.1477 C   0  0  0  0  0  0  0  0  0  0  0  0
   -6.1754    1.7895   -1.7684 H   0  0  0  0  0  0  0  0  0  0  0  0
   -4.3562    0.6062   -1.7574 C   0  0  0  0  0  0  0  0  0  0  0  0
   -4.3246    0.5155   -2.8555 H   0  0  0  0  0  0  0  0  0  0  0  0
  2 13  1  0  0  0  0
  3  1  1  0  0  0  0
  3  4  2  0  0  0  0
  4  6  1  0  0  0  0
  4  5  1  0  0  0  0
  6  7  1  0  0  0  0
  8  6  2  0  0  0  0
  9  8  1  0  0  0  0
 10  8  1  0  0  0  0
 11 10  1  0  0  0  0
 12 10  1  0  0  0  0
 12  3  1  0  0  0  0
 13 12  2  0  0  0  0
 14 13  1  0  0  0  0
 14 17  1  0  0  0  0
 15 14  1  0  0  0  0
 16 14  1  0  0  0  0
 18 21  1  0  0  0  0
 18  2  1  0  0  0  0
 19 18  1  0  0  0  0
 20 18  1  0  0  0  0
 21 22  1  0  0  0  0
 22 24  2  0  0  0  0
 22 23  1  0  0  0  0
 24 25  1  0  0  0  0
 26 27  1  0  0  0  0
 26 24  1  0  0  0  0
 28 26  2  0  0  0  0
 29 28  1  0  0  0  0
 30 28  1  0  0  0  0
 30 21  2  0  0  0  0
 31 30  1  0  0  0  0
M  CHG  1   1  -1
M  END
