1,2
q = -1.0

 34 36  0  0  0  0  0  0  0  0999 V2000
   -0.6768   -1.5933   -0.1373 N   0  0  0  0  0  2  0  0  0  0  0  0
   -1.2926    0.9275   -1.4975 O   0  5  0  0  0  0  0  0  0  0  0  0
    1.0533   -1.3220    1.9817 N   0  0  0  0  0  0  0  0  0  0  0  0
   -2.4689    0.4556   -1.5734 C   0  0  0  0  0  0  0  0  0  0  0  0
   -2.8252   -0.9152   -1.1854 C   0  0  0  0  0  0  0  0  0  0  0  0
    1.0768   -2.4988    1.3001 C   0  0  0  0  0  0  0  0  0  0  0  0
   -1.8949   -1.8254   -0.6238 C   0  0  0  0  0  3  0  0  0  0  0  0
   -2.2590   -2.8693   -0.5201 H   0  0  0  0  0  0  0  0  0  0  0  0
   -6.4583   -0.9333   -2.1270 O   0  0  0  0  0  0  0  0  0  0  0  0
    0.1524   -2.6647    0.2021 C   0  0  0  0  0  0  0  0  0  0  0  0
   -3.5567    1.2707   -2.0799 C   0  0  0  0  0  0  0  0  0  0  0  0
   -3.3037    2.3072   -2.3475 H   0  0  0  0  0  0  0  0  0  0  0  0
   -5.1545   -0.5742   -1.9033 C   0  0  0  0  0  0  0  0  0  0  0  0
   -4.1654   -1.3968   -1.3893 C   0  0  0  0  0  0  0  0  0  0  0  0
   -4.3829   -2.4382   -1.1098 H   0  0  0  0  0  0  0  0  0  0  0  0
    0.1559   -3.8786   -0.4971 C   0  0  0  0  0  0  0  0  0  0  0  0
   -0.4984   -3.9931   -1.3732 H   0  0  0  0  0  0  0  0  0  0  0  0
   -4.8329    0.7791   -2.2416 C   0  0  0  0  0  0  0  0  0  0  0  0
   -5.6431    1.4082   -2.6422 H   0  0  0  0  0  0  0  0  0  0  0  0
    2.8875   -3.3294    2.7094 C   0  0  0  0  0  0  0  0  0  0  0  0
    3.6017   -4.1190    2.9920 H   0  0  0  0  0  0  0  0  0  0  0  0
    1.9158   -1.1366    2.9703 C   0  0  0  0  0  0  0  0  0  0  0  0
    1.8691   -0.1607    3.4872 H   0  0  0  0  0  0  0  0  0  0  0  0
    1.9789   -3.5671    1.6383 C   0  0  0  0  0  0  0  0  0  0  0  0
    1.9291   -4.7924    0.9123 C   0  0  0  0  0  0  0  0  0  0  0  0
    2.6170   -5.6075    1.1838 H   0  0  0  0  0  0  0  0  0  0  0  0
    1.0264   -4.9343   -0.1324 C   0  0  0  0  0  0  0  0  0  0  0  0
    0.9974   -5.8708   -0.7102 H   0  0  0  0  0  0  0  0  0  0  0  0
    2.8656   -2.1130    3.3737 C   0  0  0  0  0  0  0  0  0  0  0  0
    3.5609   -1.8981    4.1987 H   0  0  0  0  0  0  0  0  0  0  0  0
   -6.8269   -2.2586   -1.8236 C   0  0  0  0  0  0  0  0  0  0  0  0
   -7.8996   -2.3588   -2.0751 H   0  0  0  0  0  0  0  0  0  0  0  0
   -6.6859   -2.4950   -0.7427 H   0  0  0  0  0  0  0  0  0  0  0  0
   -6.2449   -3.0008   -2.4184 H   0  0  0  0  0  0  0  0  0  0  0  0
  1 10  1  0  0  0  0
  3 22  1  0  0  0  0
  4  2  1  0  0  0  0
  4  5  1  0  0  0  0
  5  7  1  0  0  0  0
  6 24  1  0  0  0  0
  6  3  2  0  0  0  0
  7  8  1  0  0  0  0
  7  1  1  0  0  0  0
  9 13  1  0  0  0  0
  9 31  1  0  0  0  0
 10  6  1  0  0  0  0
 11  4  2  0  0  0  0
 12 11  1  0  0  0  0
 13 14  1  0  0  0  0
 14  5  2  0  0  0  0
 14 15  1  0  0  0  0
 16 27  1  0  0  0  0
 16 10  2  0  0  0  0
 17 16  1  0  0  0  0
 18 11  1  0  0  0  0
 18 13  2  0  0  0  0
 19 18  1  0  0  0  0
 20 21  1  0  0  0  0
 20 29  1  0  0  0  0
 22 29  2  0  0  0  0
 22 23  1  0  0  0  0
 24 20  2  0  0  0  0
 25 26  1  0  0  0  0
 25 24  1  0  0  0  0
 27 25  2  0  0  0  0
 28 27  1  0  0  0  0
 29 30  1  0  0  0  0
 31 33  1  0  0  0  0
 32 31  1  0  0  0  0
 34 31  1  0  0  0  0
M  CHG  1   2  -1
M  END
