1,4
q = -1.0, confidence = 0.004

 35 36  0  0  1  0  0  0  0  0999 V2000
   -1.4063    1.8179    0.7458 O   0  5  0  0  0  0  0  0  0  0  0  0
   -7.6625    1.5118    0.5125 O   0  0  0  0  0  0  0  0  0  0  0  0
   -7.1684    0.5342   -1.3820 O   0  0  0  0  0  0  0  0  0  0  0  0
   -1.1461   -0.3288   -1.4000 N   0  0  0  0  0  0  0  0  0  0  0  0
   -1.6629   -1.0685   -0.8932 H   0  0  0  0  0  0  0  0  0  0  0  0
   -6.8558    1.1149   -0.3351 N   0  0  0  0  0  0  0  0  0  0  0  0
   -2.6700    1.7010    0.4338 C   0  0  0  0  0  0  0  0  0  0  0  0
   -3.6691    2.1644    1.3478 C   0  0  0  0  0  0  0  0  0  0  0  0
   -3.3177    2.6572    2.2665 H   0  0  0  0  0  0  0  0  0  0  0  0
   -5.0258    1.9835    1.1053 C   0  0  0  0  0  0  0  0  0  0  0  0
   -5.7961    2.3194    1.8127 H   0  0  0  0  0  0  0  0  0  0  0  0
   -5.4334    1.3403   -0.0794 C   0  0  0  0  0  0  0  0  0  0  0  0
   -4.4887    0.9151   -1.0252 C   0  0  0  0  0  0  0  0  0  0  0  0
   -4.8576    0.4434   -1.9476 H   0  0  0  0  0  0  0  0  0  0  0  0
   -3.1220    1.0971   -0.7967 C   0  0  0  0  0  0  0  0  0  0  0  0
   -2.1309    0.7031   -1.8591 C   0  0  0  0  0  0  0  0  0  0  0  0
   -2.6841    0.3384   -2.7493 H   0  0  0  0  0  0  0  0  0  0  0  0
   -1.5313    1.5838   -2.1811 H   0  0  0  0  0  0  0  0  0  0  0  0
   -0.3856   -0.9637   -2.5305 C   0  0  2  0  0  0  0  0  0  0  0  0
   -0.0793   -0.1164   -3.1787 H   0  0  0  0  0  0  0  0  0  0  0  0
   -1.2602   -1.9252   -3.3397 C   0  0  0  0  0  0  0  0  0  0  0  0
   -2.1374   -1.4123   -3.7796 H   0  0  0  0  0  0  0  0  0  0  0  0
   -1.6364   -2.7561   -2.7082 H   0  0  0  0  0  0  0  0  0  0  0  0
   -0.6774   -2.3676   -4.1704 H   0  0  0  0  0  0  0  0  0  0  0  0
    0.8878   -1.6028   -1.9981 C   0  0  0  0  0  0  0  0  0  0  0  0
    0.8807   -2.8644   -1.3707 C   0  0  0  0  0  0  0  0  0  0  0  0
   -0.0510   -3.4442   -1.3145 H   0  0  0  0  0  0  0  0  0  0  0  0
    2.0553   -3.3899   -0.8086 C   0  0  0  0  0  0  0  0  0  0  0  0
    2.0343   -4.3784   -0.3237 H   0  0  0  0  0  0  0  0  0  0  0  0
    3.2564   -2.6631   -0.8714 C   0  0  0  0  0  0  0  0  0  0  0  0
    4.1761   -3.0707   -0.4254 H   0  0  0  0  0  0  0  0  0  0  0  0
    3.2810   -1.4191   -1.5222 C   0  0  0  0  0  0  0  0  0  0  0  0
    4.2144   -0.8403   -1.5846 H   0  0  0  0  0  0  0  0  0  0  0  0
    2.1058   -0.9010   -2.0872 C   0  0  0  0  0  0  0  0  0  0  0  0
    2.1289    0.0792   -2.5844 H   0  0  0  0  0  0  0  0  0  0  0  0
  3  6  2  0  0  0  0
  4  5  1  0  0  0  0
  6 12  1  0  0  0  0
  6  2  2  0  0  0  0
  7  1  1  0  0  0  0
  7  8  1  0  0  0  0
  8  9  1  0  0  0  0
 10  8  2  0  0  0  0
 10 11  1  0  0  0  0
 12 10  1  0  0  0  0
 13 15  1  0  0  0  0
 13 12  2  0  0  0  0
 14 13  1  0  0  0  0
 15  7  2  0  0  0  0
 16  4  1  0  0  0  0
 16 15  1  0  0  0  0
 17 16  1  0  0  0  0
 18 16  1  0  0  0  0
 19 20  1  6  0  0  0
 19 25  1  0  0  0  0
 19  4  1  0  0  0  0
 21 23  1  0  0  0  0
 21 19  1  0  0  0  0
 22 21  1  0  0  0  0
 24 21  1  0  0  0  0
 25 26  1  0  0  0  0
 26 27  1  0  0  0  0
 26 28  2  0  0  0  0
 28 29  1  0  0  0  0
 30 28  1  0  0  0  0
 30 31  1  0  0  0  0
 32 30  2  0  0  0  0
 33 32  1  0  0  0  0
 34 25  2  0  0  0  0
 34 32  1  0  0  0  0
 35 34  1  0  0  0  0
M  CHG  1   1  -1
M  END
