1,3
q = -1.0

 35 37  0  0  0  0  0  0  0  0999 V2000
   -1.4251   -0.9250   -1.4090 O   0  5  0  0  0  0  0  0  0  0  0  0
    0.9002    1.3187    1.5716 O   0  0  0  0  0  0  0  0  0  0  0  0
   -1.2597    1.5280    0.0761 N   0  0  0  0  0  2  0  0  0  0  0  0
   -3.3268    0.3698   -0.6209 C   0  0  0  0  0  0  0  0  0  0  0  0
   -2.6932   -0.7428   -1.3078 C   0  0  0  0  0  0  0  0  0  0  0  0
   -3.5511   -1.7167   -1.9512 C   0  0  0  0  0  0  0  0  0  0  0  0
   -3.0364   -2.5273   -2.4873 H   0  0  0  0  0  0  0  0  0  0  0  0
   -4.9175   -1.6404   -1.8856 C   0  0  0  0  0  0  0  0  0  0  0  0
   -5.5395   -2.4031   -2.3819 H   0  0  0  0  0  0  0  0  0  0  0  0
   -5.5802   -0.5900   -1.1653 C   0  0  0  0  0  0  0  0  0  0  0  0
   -6.9966   -0.5527   -1.0820 C   0  0  0  0  0  0  0  0  0  0  0  0
   -7.5701   -1.3400   -1.5966 H   0  0  0  0  0  0  0  0  0  0  0  0
   -7.6516    0.4444   -0.3678 C   0  0  0  0  0  0  0  0  0  0  0  0
   -8.7500    0.4634   -0.3095 H   0  0  0  0  0  0  0  0  0  0  0  0
   -6.8824    1.4271    0.2938 C   0  0  0  0  0  0  0  0  0  0  0  0
   -7.3832    2.2141    0.8785 H   0  0  0  0  0  0  0  0  0  0  0  0
   -5.4906    1.4090    0.2265 C   0  0  0  0  0  0  0  0  0  0  0  0
   -4.9401    2.1807    0.7824 H   0  0  0  0  0  0  0  0  0  0  0  0
   -4.7858    0.4183   -0.5153 C   0  0  0  0  0  0  0  0  0  0  0  0
   -2.5695    1.4537   -0.0858 C   0  0  0  0  0  3  0  0  0  0  0  0
   -3.1478    2.3388    0.2436 H   0  0  0  0  0  0  0  0  0  0  0  0
   -0.6583    2.7202    0.5045 C   0  0  0  0  0  0  0  0  0  0  0  0
    0.5278    2.6018    1.2892 C   0  0  0  0  0  0  0  0  0  0  0  0
    1.2107    3.7465    1.7237 C   0  0  0  0  0  0  0  0  0  0  0  0
    2.1267    3.6531    2.3218 H   0  0  0  0  0  0  0  0  0  0  0  0
    0.7169    5.0215    1.3934 C   0  0  0  0  0  0  0  0  0  0  0  0
    1.2603    5.9146    1.7361 H   0  0  0  0  0  0  0  0  0  0  0  0
   -0.4454    5.1537    0.6219 C   0  0  0  0  0  0  0  0  0  0  0  0
   -0.8174    6.1509    0.3446 H   0  0  0  0  0  0  0  0  0  0  0  0
   -1.1217    4.0083    0.1746 C   0  0  0  0  0  0  0  0  0  0  0  0
   -2.0014    4.1054   -0.4787 H   0  0  0  0  0  0  0  0  0  0  0  0
    2.0928    1.0899    2.3070 C   0  0  0  0  0  0  0  0  0  0  0  0
    2.9836    1.4792    1.7694 H   0  0  0  0  0  0  0  0  0  0  0  0
    2.1803   -0.0065    2.4053 H   0  0  0  0  0  0  0  0  0  0  0  0
    2.0337    1.5502    3.3171 H   0  0  0  0  0  0  0  0  0  0  0  0
  1  5  1  0  0  0  0
  2 32  1  0  0  0  0
  3 22  1  0  0  0  0
  4 19  1  0  0  0  0
  4 20  1  0  0  0  0
  5  4  2  0  0  0  0
  6  8  2  0  0  0  0
  6  5  1  0  0  0  0
  7  6  1  0  0  0  0
  8 10  1  0  0  0  0
  9  8  1  0  0  0  0
 10 11  2  0  0  0  0
 10 19  1  0  0  0  0
 11 13  1  0  0  0  0
 12 11  1  0  0  0  0
 13 14  1  0  0  0  0
 13 15  2  0  0  0  0
 15 16  1  0  0  0  0
 17 15  1  0  0  0  0
 17 18  1  0  0  0  0
 19 17  2  0  0  0  0
 20  3  1  0  0  0  0
 20 21  1  0  0  0  0
 22 23  1  0  0  0  0
 23  2  1  0  0  0  0
 23 24  2  0  0  0  0
 24 25  1  0  0  0  0
 26 24  1  0  0  0  0
 26 27  1  0  0  0  0
 28 26  2  0  0  0  0
 29 28  1  0  0  0  0
 30 22  2  0  0  0  0
 30 28  1  0  0  0  0
 31 30  1  0  0  0  0
 32 34  1  0  0  0  0
 32 35  1  0  0  0  0
 33 32  1  0  0  0  0
M  CHG  1   1  -1
M  END
