1,2
q = -1.0

 42 44  0  0  0  0  0  0  0  0999 V2000
    1.5600   -0.3024   -1.2566 O   0  5  0  0  0  0  0  0  0  0  0  0
    0.0035   -1.8391    0.9623 N   0  0  0  0  0  0  0  0  0  0  0  0
    2.5271   -1.1020   -0.8508 C   0  0  0  0  0  0  0  0  0  0  0  0
    2.2715   -2.2761   -0.0985 C   0  0  0  0  0  0  0  0  0  0  0  0
    3.3526   -3.0506    0.4027 C   0  0  0  0  0  0  0  0  0  0  0  0
    3.1202   -3.9510    0.9959 H   0  0  0  0  0  0  0  0  0  0  0  0
    4.6750   -2.7081    0.1631 C   0  0  0  0  0  0  0  0  0  0  0  0
    5.4975   -3.3139    0.5716 H   0  0  0  0  0  0  0  0  0  0  0  0
    4.9772   -1.5767   -0.6523 C   0  0  0  0  0  0  0  0  0  0  0  0
    6.3161   -1.1970   -0.9688 C   0  0  0  0  0  0  0  0  0  0  0  0
    7.1437   -1.7899   -0.5480 H   0  0  0  0  0  0  0  0  0  0  0  0
    6.5803   -0.1161   -1.7990 C   0  0  0  0  0  0  0  0  0  0  0  0
    7.6214    0.1548   -2.0330 H   0  0  0  0  0  0  0  0  0  0  0  0
    5.5130    0.6337   -2.3609 C   0  0  0  0  0  0  0  0  0  0  0  0
    5.7301    1.4750   -3.0368 H   0  0  0  0  0  0  0  0  0  0  0  0
    4.1987    0.3038   -2.0558 C   0  0  0  0  0  0  0  0  0  0  0  0
    3.3541    0.8667   -2.4784 H   0  0  0  0  0  0  0  0  0  0  0  0
    3.9011   -0.7843   -1.1902 C   0  0  0  0  0  0  0  0  0  0  0  0
    0.8450   -2.7214    0.0691 C   0  0  0  0  0  0  0  0  0  0  0  0
    0.8124   -3.7588    0.4754 H   0  0  0  0  0  0  0  0  0  0  0  0
    0.3548   -2.7262   -0.9234 H   0  0  0  0  0  0  0  0  0  0  0  0
    0.6754   -1.7489    2.2751 C   0  0  0  0  0  0  0  0  0  0  0  0
    1.7210   -1.4260    2.1295 H   0  0  0  0  0  0  0  0  0  0  0  0
    0.6837   -2.7439    2.7767 H   0  0  0  0  0  0  0  0  0  0  0  0
    0.1631   -1.0291    2.9351 H   0  0  0  0  0  0  0  0  0  0  0  0
   -1.3853   -2.4052    1.1400 C   0  0  0  0  0  0  0  0  0  0  0  0
   -1.2618   -3.3382    1.7475 H   0  0  0  0  0  0  0  0  0  0  0  0
   -2.0695   -2.7814   -0.1829 C   0  0  0  0  0  0  0  0  0  0  0  0
   -1.4752   -3.5347   -0.7347 H   0  0  0  0  0  0  0  0  0  0  0  0
   -2.1200   -1.8693   -0.8162 H   0  0  0  0  0  0  0  0  0  0  0  0
   -3.4792   -3.3489    0.0503 C   0  0  0  0  0  0  0  0  0  0  0  0
   -3.9493   -3.5573   -0.9329 H   0  0  0  0  0  0  0  0  0  0  0  0
   -3.3942   -4.3302    0.5705 H   0  0  0  0  0  0  0  0  0  0  0  0
   -4.3669   -2.4130    0.8752 C   0  0  0  0  0  0  0  0  0  0  0  0
   -4.5778   -1.4952    0.2877 H   0  0  0  0  0  0  0  0  0  0  0  0
   -5.3480   -2.8906    1.0774 H   0  0  0  0  0  0  0  0  0  0  0  0
   -3.6759   -2.0271    2.1840 C   0  0  0  0  0  0  0  0  0  0  0  0
   -3.5741   -2.9230    2.8377 H   0  0  0  0  0  0  0  0  0  0  0  0
   -4.2873   -1.2940    2.7496 H   0  0  0  0  0  0  0  0  0  0  0  0
   -2.2851   -1.4357    1.9228 C   0  0  0  0  0  0  0  0  0  0  0  0
   -1.8213   -1.1496    2.8868 H   0  0  0  0  0  0  0  0  0  0  0  0
   -2.3948   -0.5073    1.3203 H   0  0  0  0  0  0  0  0  0  0  0  0
  1  3  1  0  0  0  0
  2 26  1  0  0  0  0
  2 22  1  0  0  0  0
  3  4  1  0  0  0  0
  4 19  1  0  0  0  0
  4  5  2  0  0  0  0
  5  6  1  0  0  0  0
  7  5  1  0  0  0  0
  7  8  1  0  0  0  0
  9  7  2  0  0  0  0
 10  9  1  0  0  0  0
 10 11  1  0  0  0  0
 12 10  2  0  0  0  0
 13 12  1  0  0  0  0
 14 16  2  0  0  0  0
 14 12  1  0  0  0  0
 15 14  1  0  0  0  0
 16 18  1  0  0  0  0
 17 16  1  0  0  0  0
 18  3  2  0  0  0  0
 18  9  1  0  0  0  0
 19 20  1  0  0  0  0
 19  2  1  0  0  0  0
 21 19  1  0  0  0  0
 22 24  1  0  0  0  0
 22 25  1  0  0  0  0
 23 22  1  0  0  0  0
 26 27  1  0  0  0  0
 26 40  1  0  0  0  0
 28 31  1  0  0  0  0
 28 26  1  0  0  0  0
 29 28  1  0  0  0  0
 30 28  1  0  0  0  0
 31 33  1  0  0  0  0
 31 34  1  0  0  0  0
 32 31  1  0  0  0  0
 34 36  1  0  0  0  0
 34 37  1  0  0  0  0
 35 34  1  0  0  0  0
 37 39  1  0  0  0  0
 37 38  1  0  0  0  0
 40 37  1  0  0  0  0
 40 41  1  0  0  0  0
 42 40  1  0  0  0  0
M  CHG  1   1  -1
M  END
