2,3
q = -1.0

 17 18  0  0  0  0  0  0  0  0999 V2000
   -4.7806   -1.8893   -0.0000 Br  0  0  0  0  0  0  0  0  0  0  0  0
   -1.0144    1.7297    0.0000 N   0  0  0  0  0  2  0  0  0  0  0  0
   -1.8592   -0.7982    0.0000 O   0  5  0  0  0  0  0  0  0  0  0  0
   -1.3618    4.0958    0.0000 C   0  0  0  0  0  0  0  0  0  0  0  0
   -0.9153    5.1000    0.0001 H   0  0  0  0  0  0  0  0  0  0  0  0
   -3.3011    2.6123    0.0000 C   0  0  0  0  0  0  0  0  0  0  0  0
   -0.5099    2.9650    0.0000 C   0  0  0  0  0  0  0  0  0  0  0  0
    0.5891    3.0382    0.0000 H   0  0  0  0  0  0  0  0  0  0  0  0
   -2.3738    1.5203    0.0000 C   0  0  0  0  0  0  0  0  0  0  0  0
   -5.0993    0.9736   -0.0000 C   0  0  0  0  0  0  0  0  0  0  0  0
   -6.1710    0.7268   -0.0000 H   0  0  0  0  0  0  0  0  0  0  0  0
   -2.7411    3.9215    0.0000 C   0  0  0  0  0  0  0  0  0  0  0  0
   -3.4143    4.7928    0.0000 H   0  0  0  0  0  0  0  0  0  0  0  0
   -4.6894    2.3055   -0.0000 C   0  0  0  0  0  3  0  0  0  0  0  0
   -5.4295    3.1181   -0.0000 H   0  0  0  0  0  0  0  0  0  0  0  0
   -2.7781    0.1408   -0.0000 C   0  0  0  0  0  0  0  0  0  0  0  0
   -4.1711   -0.0948   -0.0000 C   0  0  0  0  0  0  0  0  0  0  0  0
  1 17  1  0  0  0  0
  2  7  1  0  0  0  0
  4  5  1  0  0  0  0
  6 12  2  0  0  0  0
  7  4  2  0  0  0  0
  7  8  1  0  0  0  0
  9  6  1  0  0  0  0
  9  2  1  0  0  0  0
 10 17  2  0  0  0  0
 10 14  1  0  0  0  0
 11 10  1  0  0  0  0
 12 13  1  0  0  0  0
 12  4  1  0  0  0  0
 14  6  1  0  0  0  0
 15 14  1  0  0  0  0
 16  3  1  0  0  0  0
 16  9  2  0  0  0  0
 17 16  1  0  0  0  0
M  CHG  1   3  -1
M  END
