2,3
q = -1.0

 27 29  0  0  1  0  0  0  0  0999 V2000
    3.1045   -2.2994   -1.4647 S   0  0  0  0  0  0  0  0  0  0  0  0
    1.5287    0.7715    1.8351 O   0  5  0  0  0  0  0  0  0  0  0  0
    1.0924   -1.2380   -0.2089 N   0  0  0  0  0  2  0  0  0  0  0  0
    2.7867    0.5647    1.5621 C   0  0  0  0  0  0  0  0  0  0  0  0
    3.2050    2.2755    3.3572 C   0  0  0  0  0  0  0  0  0  0  0  0
    4.0182    2.8193    3.8747 H   0  0  0  0  0  0  0  0  0  0  0  0
    2.5988    1.7315    4.1113 H   0  0  0  0  0  0  0  0  0  0  0  0
    2.5135    3.0119    2.8972 H   0  0  0  0  0  0  0  0  0  0  0  0
    3.7468    1.3313    2.3221 C   0  0  0  0  0  0  0  0  0  0  0  0
    5.1096    1.1873    2.0796 C   0  0  0  0  0  0  0  0  0  0  0  0
    5.8195    1.7866    2.6726 H   0  0  0  0  0  0  0  0  0  0  0  0
    5.6010    0.2973    1.0945 C   0  0  0  0  0  0  0  0  0  0  0  0
    6.6821    0.2005    0.9203 H   0  0  0  0  0  0  0  0  0  0  0  0
    4.7017   -0.4525    0.3553 C   0  0  0  0  0  0  0  0  0  0  0  0
    5.0831   -1.1490   -0.4088 H   0  0  0  0  0  0  0  0  0  0  0  0
    3.2923   -0.3532    0.5549 C   0  0  0  0  0  0  0  0  0  0  0  0
    2.4250   -1.1854   -0.2484 C   0  0  2  0  0  3  0  0  0  0  0  0
    1.4925   -2.8213   -1.9028 C   0  0  0  0  0  0  0  0  0  0  0  0
    1.0976   -3.7605   -2.8675 C   0  0  0  0  0  0  0  0  0  0  0  0
    1.8409   -4.2904   -3.4801 H   0  0  0  0  0  0  0  0  0  0  0  0
   -0.2740   -4.0037   -3.0276 C   0  0  0  0  0  0  0  0  0  0  0  0
   -0.6067   -4.7355   -3.7786 H   0  0  0  0  0  0  0  0  0  0  0  0
   -1.2301   -3.3270   -2.2395 C   0  0  0  0  0  0  0  0  0  0  0  0
   -2.3001   -3.5388   -2.3810 H   0  0  0  0  0  0  0  0  0  0  0  0
   -0.8391   -2.3916   -1.2760 C   0  0  0  0  0  0  0  0  0  0  0  0
   -1.5755   -1.8698   -0.6484 H   0  0  0  0  0  0  0  0  0  0  0  0
    0.5359   -2.1330   -1.1077 C   0  0  0  0  0  0  0  0  0  0  0  0
  1 17  1  0  0  0  0
  4  2  1  0  0  0  0
  4  9  1  0  0  0  0
  5  6  1  0  0  0  0
  5  7  1  0  0  0  0
  8  5  1  0  0  0  0
  9  5  1  0  0  0  0
 10  9  2  0  0  0  0
 10 11  1  0  0  0  0
 12 10  1  0  0  0  0
 13 12  1  0  0  0  0
 14 16  1  0  0  0  0
 14 12  2  0  0  0  0
 15 14  1  0  0  0  0
 16  4  2  0  0  0  0
 17  3  1  0  0  0  0
 17 16  1  6  0  0  0
 18  1  1  0  0  0  0
 18 27  1  0  0  0  0
 19 18  2  0  0  0  0
 20 19  1  0  0  0  0
 21 19  1  0  0  0  0
 21 23  2  0  0  0  0
 22 21  1  0  0  0  0
 23 25  1  0  0  0  0
 24 23  1  0  0  0  0
 25 27  2  0  0  0  0
 25 26  1  0  0  0  0
 27  3  1  0  0  0  0
M  CHG  1   2  -1
M  END
