2,3
q = -1.0

 25 26  0  0  0  0  0  0  0  0999 V2000
    7.0406    0.8863    0.1183 Cl  0  0  0  0  0  0  0  0  0  0  0  0
   -1.5393    0.9653    0.3860 O   0  5  0  0  0  0  0  0  0  0  0  0
    1.1040    1.5744    0.0356 N   0  0  0  0  0  2  0  0  0  0  0  0
   -0.7254    3.2110    0.0191 C   0  0  0  0  0  0  0  0  0  0  0  0
   -1.7640    2.2407    0.2574 C   0  0  0  0  0  0  0  0  0  0  0  0
   -3.1071    2.7150    0.3778 C   0  0  0  0  0  0  0  0  0  0  0  0
   -3.8914    1.9680    0.5677 H   0  0  0  0  0  0  0  0  0  0  0  0
   -3.3982    4.0675    0.2455 C   0  0  0  0  0  0  0  0  0  0  0  0
   -4.4440    4.4023    0.3314 H   0  0  0  0  0  0  0  0  0  0  0  0
   -2.3766    5.0221    0.0031 C   0  0  0  0  0  0  0  0  0  0  0  0
   -2.6250    6.0883   -0.0962 H   0  0  0  0  0  0  0  0  0  0  0  0
   -1.0612    4.5906   -0.0982 C   0  0  0  0  0  3  0  0  0  0  0  0
   -0.2487    5.3146   -0.2717 H   0  0  0  0  0  0  0  0  0  0  0  0
    0.6432    2.8104   -0.0237 C   0  0  0  0  0  0  0  0  0  0  0  0
    1.3944    3.6229   -0.0702 H   0  0  0  0  0  0  0  0  0  0  0  0
    2.5246    1.4243    0.0461 C   0  0  0  0  0  0  0  0  0  0  0  0
    3.3088    1.8863   -1.0252 C   0  0  0  0  0  0  0  0  0  0  0  0
    2.8185    2.3487   -1.8947 H   0  0  0  0  0  0  0  0  0  0  0  0
    4.7020    1.7292   -1.0058 C   0  0  0  0  0  0  0  0  0  0  0  0
    5.3196    2.0813   -1.8437 H   0  0  0  0  0  0  0  0  0  0  0  0
    5.3084    1.1002    0.0920 C   0  0  0  0  0  0  0  0  0  0  0  0
    4.5347    0.6312    1.1694 C   0  0  0  0  0  0  0  0  0  0  0  0
    5.0256    0.1391    2.0203 H   0  0  0  0  0  0  0  0  0  0  0  0
    3.1469    0.7896    1.1379 C   0  0  0  0  0  0  0  0  0  0  0  0
    2.5240    0.4124    1.9611 H   0  0  0  0  0  0  0  0  0  0  0  0
  3 16  1  0  0  0  0
  4  5  1  0  0  0  0
  5  6  2  0  0  0  0
  5  2  1  0  0  0  0
  6  7  1  0  0  0  0
  8  9  1  0  0  0  0
  8  6  1  0  0  0  0
 10  8  2  0  0  0  0
 11 10  1  0  0  0  0
 12 10  1  0  0  0  0
 12  4  1  0  0  0  0
 13 12  1  0  0  0  0
 14  4  2  0  0  0  0
 14  3  1  0  0  0  0
 15 14  1  0  0  0  0
 16 24  1  0  0  0  0
 17 19  1  0  0  0  0
 17 16  2  0  0  0  0
 18 17  1  0  0  0  0
 19 21  2  0  0  0  0
 20 19  1  0  0  0  0
 21  1  1  0  0  0  0
 21 22  1  0  0  0  0
 22 23  1  0  0  0  0
 24 22  2  0  0  0  0
 24 25  1  0  0  0  0
M  CHG  1   2  -1
M  END
