4,5
q = -1.0

 25 26  0  0  0  0  0  0  0  0999 V2000
    3.6143    2.8518   -1.4870 Br  0  0  0  0  0  0  0  0  0  0  0  0
    6.6635   -1.7895   -1.0663 Cl  0  0  0  0  0  0  0  0  0  0  0  0
   -0.8819   -6.0529    2.1595 Cl  0  0  0  0  0  0  0  0  0  0  0  0
    1.3849    0.8588   -1.2642 O   0  5  0  0  0  0  0  0  0  0  0  0
    0.2822   -1.7451   -0.4867 N   0  0  0  0  0  2  0  0  0  0  0  0
    2.5106    0.2344   -1.1834 C   0  0  0  0  0  0  0  0  0  0  0  0
    3.7449    0.9695   -1.3132 C   0  0  0  0  0  0  0  0  0  0  0  0
    4.9920    0.3607   -1.2747 C   0  0  0  0  0  0  0  0  0  0  0  0
    5.9056    0.9633   -1.3676 H   0  0  0  0  0  0  0  0  0  0  0  0
    5.0864   -1.0423   -1.1024 C   0  0  0  0  0  0  0  0  0  0  0  0
    3.9408   -1.8038   -0.9430 C   0  0  0  0  0  0  0  0  0  0  0  0
    4.0237   -2.8886   -0.7816 H   0  0  0  0  0  0  0  0  0  0  0  0
    2.6499   -1.1944   -0.9492 C   0  0  0  0  0  0  0  0  0  0  0  0
    1.5447   -2.0697   -0.6810 C   0  0  0  0  0  3  0  0  0  0  0  0
    1.8062   -3.1465   -0.6157 H   0  0  0  0  0  0  0  0  0  0  0  0
   -0.6624   -2.7403   -0.1270 C   0  0  0  0  0  0  0  0  0  0  0  0
   -1.9763   -2.6375   -0.6329 C   0  0  0  0  0  0  0  0  0  0  0  0
   -2.2398   -1.8006   -1.2959 H   0  0  0  0  0  0  0  0  0  0  0  0
   -2.9311   -3.6012   -0.2878 C   0  0  0  0  0  0  0  0  0  0  0  0
   -3.9509   -3.5143   -0.6922 H   0  0  0  0  0  0  0  0  0  0  0  0
   -2.6078   -4.6684    0.5638 C   0  0  0  0  0  0  0  0  0  0  0  0
   -3.3539   -5.4237    0.8460 H   0  0  0  0  0  0  0  0  0  0  0  0
   -1.3014   -4.7526    1.0735 C   0  0  0  0  0  0  0  0  0  0  0  0
   -0.3262   -3.8009    0.7426 C   0  0  0  0  0  0  0  0  0  0  0  0
    0.6737   -3.8716    1.1922 H   0  0  0  0  0  0  0  0  0  0  0  0
  1  7  1  0  0  0  0
  4  6  1  0  0  0  0
  5 16  1  0  0  0  0
  6 13  1  0  0  0  0
  7  8  1  0  0  0  0
  7  6  2  0  0  0  0
  8 10  2  0  0  0  0
  9  8  1  0  0  0  0
 10  2  1  0  0  0  0
 10 11  1  0  0  0  0
 11 12  1  0  0  0  0
 13 11  2  0  0  0  0
 13 14  1  0  0  0  0
 14 15  1  0  0  0  0
 14  5  1  0  0  0  0
 16 24  1  0  0  0  0
 17 19  1  0  0  0  0
 17 16  2  0  0  0  0
 18 17  1  0  0  0  0
 19 21  2  0  0  0  0
 20 19  1  0  0  0  0
 21 22  1  0  0  0  0
 21 23  1  0  0  0  0
 23  3  1  0  0  0  0
 24 23  2  0  0  0  0
 24 25  1  0  0  0  0
M  CHG  1   4  -1
M  END
