2,4
q = -1.0

 27 28  0  0  1  0  0  0  0  0999 V2000
    3.7536   -2.7124   -1.9052 S   0  0  0  0  0  0  0  0  0  0  0  0
   -1.8888   -0.1133    1.1835 O   0  5  0  0  0  0  0  0  0  0  0  0
    0.3048   -3.7183    0.6803 O   0  0  0  0  0  0  0  0  0  0  0  0
    0.4123   -1.5172    0.2345 N   0  0  0  0  0  2  0  0  0  0  0  0
   -0.3494   -2.5387    0.5867 C   0  0  1  0  0  3  0  0  0  0  0  0
    1.7208   -3.4243    0.6277 C   0  0  0  0  0  0  0  0  0  0  0  0
    2.2360   -4.1995    0.0298 H   0  0  0  0  0  0  0  0  0  0  0  0
    2.1133   -3.4423    1.6661 H   0  0  0  0  0  0  0  0  0  0  0  0
    1.7793   -2.0272   -0.0103 C   0  0  1  0  0  0  0  0  0  0  0  0
    2.5181   -1.3761    0.4993 H   0  0  0  0  0  0  0  0  0  0  0  0
    2.0907   -2.0748   -1.5172 C   0  0  0  0  0  0  0  0  0  0  0  0
    1.9478   -1.0774   -1.9775 H   0  0  0  0  0  0  0  0  0  0  0  0
    1.3929   -2.7796   -2.0165 H   0  0  0  0  0  0  0  0  0  0  0  0
    4.7860   -1.3302   -1.3254 C   0  0  0  0  0  0  0  0  0  0  0  0
    5.8308   -1.6037   -1.5674 H   0  0  0  0  0  0  0  0  0  0  0  0
    4.7143   -1.1725   -0.2302 H   0  0  0  0  0  0  0  0  0  0  0  0
    4.5328   -0.3900   -1.8544 H   0  0  0  0  0  0  0  0  0  0  0  0
   -2.4590   -1.2990    1.1544 C   0  0  0  0  0  0  0  0  0  0  0  0
   -3.8428   -1.3895    1.4863 C   0  0  0  0  0  0  0  0  0  0  0  0
   -4.3666   -0.4489    1.7103 H   0  0  0  0  0  0  0  0  0  0  0  0
   -4.5017   -2.6139    1.5239 C   0  0  0  0  0  0  0  0  0  0  0  0
   -5.5736   -2.6424    1.7739 H   0  0  0  0  0  0  0  0  0  0  0  0
   -3.8135   -3.8189    1.2481 C   0  0  0  0  0  0  0  0  0  0  0  0
   -4.3404   -4.7828    1.2840 H   0  0  0  0  0  0  0  0  0  0  0  0
   -2.4597   -3.7697    0.9390 C   0  0  0  0  0  0  0  0  0  0  0  0
   -1.8987   -4.6932    0.7376 H   0  0  0  0  0  0  0  0  0  0  0  0
   -1.7661   -2.5295    0.8676 C   0  0  0  0  0  0  0  0  0  0  0  0
  1 11  1  0  0  0  0
  1 14  1  0  0  0  0
  4  5  1  0  0  0  0
  5  3  1  0  0  0  0
  5 27  1  6  0  0  0
  6  3  1  0  0  0  0
  6  8  1  0  0  0  0
  7  6  1  0  0  0  0
  9  4  1  0  0  0  0
  9 10  1  1  0  0  0
  9  6  1  0  0  0  0
 11  9  1  0  0  0  0
 12 11  1  0  0  0  0
 13 11  1  0  0  0  0
 14 16  1  0  0  0  0
 15 14  1  0  0  0  0
 17 14  1  0  0  0  0
 18  2  1  0  0  0  0
 18 19  1  0  0  0  0
 19 21  2  0  0  0  0
 19 20  1  0  0  0  0
 21 22  1  0  0  0  0
 23 24  1  0  0  0  0
 23 21  1  0  0  0  0
 25 23  2  0  0  0  0
 26 25  1  0  0  0  0
 27 25  1  0  0  0  0
 27 18  2  0  0  0  0
M  CHG  1   2  -1
M  END
