1,5
q = -1.0, confidence = 0.026

 32 33  0  0  0  0  0  0  0  0999 V2000
   -1.7399    0.5141    0.3994 O   0  5  0  0  0  0  0  0  0  0  0  0
   -2.3444    1.6542    0.2010 C   0  0  0  0  0  0  0  0  0  0  0  0
   -1.6610    2.8458   -0.2189 C   0  0  0  0  0  0  0  0  0  0  0  0
   -0.2407    2.8448   -0.3747 C   0  0  0  0  0  0  0  0  0  0  0  0
    0.5741    1.8187   -0.2762 N   0  0  0  0  0  2  0  0  0  0  0  0
    2.0069    2.1332   -0.3400 C   0  0  0  0  0  0  0  0  0  0  0  0
    2.6575    2.0612    1.0462 C   0  0  0  0  0  0  0  0  0  0  0  0
    4.1020    2.5742    1.0872 C   0  0  0  0  0  0  0  0  0  0  0  0
    5.0779    1.7529    0.3839 N   0  0  0  0  0  0  0  0  0  0  0  0
    5.3465    1.7985   -0.9708 C   0  0  0  0  0  0  0  0  0  0  0  0
    6.3376    0.8620   -1.2502 C   0  0  0  0  0  0  0  0  0  0  0  0
    6.6793    0.2285   -0.0165 C   0  0  0  0  0  0  0  0  0  0  0  0
    5.8817    0.7969    0.9710 C   0  0  0  0  0  0  0  0  0  0  0  0
    5.8154    0.5968    2.0462 H   0  0  0  0  0  0  0  0  0  0  0  0
    7.4273   -0.5573    0.1378 H   0  0  0  0  0  0  0  0  0  0  0  0
    6.7733    0.6658   -2.2365 H   0  0  0  0  0  0  0  0  0  0  0  0
    4.8246    2.5085   -1.6213 H   0  0  0  0  0  0  0  0  0  0  0  0
    4.4339    2.6476    2.1418 H   0  0  0  0  0  0  0  0  0  0  0  0
    4.1536    3.6022    0.6682 H   0  0  0  0  0  0  0  0  0  0  0  0
    2.6143    1.0156    1.4118 H   0  0  0  0  0  0  0  0  0  0  0  0
    2.0614    2.6792    1.7518 H   0  0  0  0  0  0  0  0  0  0  0  0
    2.4997    1.4156   -1.0203 H   0  0  0  0  0  0  0  0  0  0  0  0
    2.1293    3.1588   -0.7550 H   0  0  0  0  0  0  0  0  0  0  0  0
    0.2190    3.8330   -0.5822 H   0  0  0  0  0  0  0  0  0  0  0  0
   -2.3949    4.0488   -0.4207 C   0  0  0  0  0  3  0  0  0  0  0  0
   -3.7688    4.0948   -0.2213 C   0  0  0  0  0  0  0  0  0  0  0  0
   -4.4394    2.9207    0.2057 C   0  0  0  0  0  0  0  0  0  0  0  0
   -3.7519    1.7322    0.4231 C   0  0  0  0  0  0  0  0  0  0  0  0
   -4.2785    0.8272    0.7575 H   0  0  0  0  0  0  0  0  0  0  0  0
   -5.5286    2.9386    0.3688 H   0  0  0  0  0  0  0  0  0  0  0  0
   -4.3276    5.0272   -0.3864 H   0  0  0  0  0  0  0  0  0  0  0  0
   -1.8465    4.9502   -0.7395 H   0  0  0  0  0  0  0  0  0  0  0  0
  2  1  1  0  0  0  0
  2 28  2  0  0  0  0
  3  2  1  0  0  0  0
  4  5  1  0  0  0  0
  4  3  2  0  0  0  0
  6  5  1  0  0  0  0
  6  7  1  0  0  0  0
  7  8  1  0  0  0  0
  7 20  1  0  0  0  0
  7 21  1  0  0  0  0
  8 18  1  0  0  0  0
  9 13  1  0  0  0  0
  9  8  1  0  0  0  0
 10  9  1  0  0  0  0
 11 10  2  0  0  0  0
 11 12  1  0  0  0  0
 12 15  1  0  0  0  0
 12 13  2  0  0  0  0
 13 14  1  0  0  0  0
 16 11  1  0  0  0  0
 17 10  1  0  0  0  0
 19  8  1  0  0  0  0
 22  6  1  0  0  0  0
 23  6  1  0  0  0  0
 24  4  1  0  0  0  0
 25 26  1  0  0  0  0
 25  3  1  0  0  0  0
 26 27  2  0  0  0  0
 27 30  1  0  0  0  0
 27 28  1  0  0  0  0
 28 29  1  0  0  0  0
 31 26  1  0  0  0  0
 32 25  1  0  0  0  0
M  CHG  1   1  -1
M  END
