1,2
q = -1.0

 32 33  0  0  1  0  0  0  0  0999 V2000
    1.7402   -0.5140   -0.3988 O   0  0  0  0  0  1  0  0  0  0  0  0
   -0.5740   -1.8188    0.2760 N   0  0  0  0  0  2  0  0  0  0  0  0
   -5.0780   -1.7525   -0.3831 N   0  0  0  0  0  0  0  0  0  0  0  0
    0.2407   -2.8451    0.3739 C   0  0  0  0  0  0  0  0  0  0  0  0
    1.6609   -2.8462    0.2179 C   0  0  0  0  0  0  0  0  0  0  0  0
    2.3445   -1.6544   -0.2013 C   0  0  1  0  0  3  0  0  0  0  0  0
    3.7520   -1.7324   -0.4234 C   0  0  0  0  0  0  0  0  0  0  0  0
    4.4393   -2.9212   -0.2069 C   0  0  0  0  0  0  0  0  0  0  0  0
    3.7686   -4.0955    0.2193 C   0  0  0  0  0  0  0  0  0  0  0  0
    2.3946   -4.0494    0.4189 C   0  0  0  0  0  0  0  0  0  0  0  0
   -2.0069   -2.1332    0.3402 C   0  0  0  0  0  0  0  0  0  0  0  0
   -2.6577   -2.0608   -1.0459 C   0  0  0  0  0  0  0  0  0  0  0  0
   -4.1023   -2.5737   -1.0868 C   0  0  0  0  0  0  0  0  0  0  0  0
   -5.3461   -1.7981    0.9716 C   0  0  0  0  0  0  0  0  0  0  0  0
   -6.3373   -0.8617    1.2515 C   0  0  0  0  0  0  0  0  0  0  0  0
   -6.6794   -0.2282    0.0179 C   0  0  0  0  0  0  0  0  0  0  0  0
   -5.8821   -0.7965   -0.9700 C   0  0  0  0  0  0  0  0  0  0  0  0
   -0.2191   -3.8332    0.5812 H   0  0  0  0  0  0  0  0  0  0  0  0
    4.2787   -0.8273   -0.7573 H   0  0  0  0  0  0  0  0  0  0  0  0
    5.5285   -2.9392   -0.3701 H   0  0  0  0  0  0  0  0  0  0  0  0
    4.3272   -5.0281    0.3838 H   0  0  0  0  0  0  0  0  0  0  0  0
    1.8461   -4.9509    0.7371 H   0  0  0  0  0  0  0  0  0  0  0  0
   -2.4994   -1.4157    1.0207 H   0  0  0  0  0  0  0  0  0  0  0  0
   -2.1292   -3.1588    0.7549 H   0  0  0  0  0  0  0  0  0  0  0  0
   -2.6145   -1.0151   -1.4113 H   0  0  0  0  0  0  0  0  0  0  0  0
   -2.0618   -2.6787   -1.7518 H   0  0  0  0  0  0  0  0  0  0  0  0
   -4.4344   -2.6467   -2.1414 H   0  0  0  0  0  0  0  0  0  0  0  0
   -4.1539   -3.6017   -0.6680 H   0  0  0  0  0  0  0  0  0  0  0  0
   -4.8239   -2.5081    1.6220 H   0  0  0  0  0  0  0  0  0  0  0  0
   -6.7726   -0.6655    2.2378 H   0  0  0  0  0  0  0  0  0  0  0  0
   -7.4276    0.5575   -0.1362 H   0  0  0  0  0  0  0  0  0  0  0  0
   -5.8161   -0.5964   -2.0451 H   0  0  0  0  0  0  0  0  0  0  0  0
  2 11  1  0  0  0  0
  2  4  1  0  0  0  0
  3 14  1  0  0  0  0
  4 18  1  0  0  0  0
  5  4  2  0  0  0  0
  5 10  1  0  0  0  0
  6  1  1  6  0  0  0
  6  5  1  0  0  0  0
  7  8  2  0  0  0  0
  7  6  1  0  0  0  0
  8  9  1  0  0  0  0
  9 21  1  0  0  0  0
  9 10  2  0  0  0  0
 10 22  1  0  0  0  0
 11 24  1  0  0  0  0
 11 23  1  0  0  0  0
 12 11  1  0  0  0  0
 13 12  1  0  0  0  0
 13 28  1  0  0  0  0
 13  3  1  0  0  0  0
 14 15  2  0  0  0  0
 14 29  1  0  0  0  0
 15 30  1  0  0  0  0
 16 15  1  0  0  0  0
 17  3  1  0  0  0  0
 17 16  2  0  0  0  0
 19  7  1  0  0  0  0
 20  8  1  0  0  0  0
 25 12  1  0  0  0  0
 26 12  1  0  0  0  0
 27 13  1  0  0  0  0
 31 16  1  0  0  0  0
 32 17  1  0  0  0  0
M  END
