1,2
q = -1.0

 41 42  0  0  1  0  0  0  0  0999 V2000
    0.9993   -0.2079   -1.6359 O   0  5  0  0  0  0  0  0  0  0  0  0
    0.7474   -1.6298    0.5970 N   0  0  0  0  0  2  0  0  0  0  0  0
   -1.7380   -1.3841   -1.1520 N   0  0  0  0  0  0  0  0  0  0  0  0
   -2.4942   -0.8014   -1.5284 H   0  0  0  0  0  0  0  0  0  0  0  0
   -1.1538   -1.6990   -1.9376 H   0  0  0  0  0  0  0  0  0  0  0  0
    2.8750   -1.0676   -0.3937 C   0  0  0  0  0  0  0  0  0  0  0  0
    2.2820   -0.3619   -1.4926 C   0  0  0  0  0  0  0  0  0  0  0  0
    3.1598    0.1829   -2.5005 C   0  0  0  0  0  0  0  0  0  0  0  0
    2.6829    0.6160   -3.3928 H   0  0  0  0  0  0  0  0  0  0  0  0
    4.5263    0.1975   -2.3331 C   0  0  0  0  0  0  0  0  0  0  0  0
    5.1754    0.6433   -3.1039 H   0  0  0  0  0  0  0  0  0  0  0  0
    5.1319   -0.3101   -1.1387 C   0  0  0  0  0  0  0  0  0  0  0  0
    6.5234   -0.1641   -0.8931 C   0  0  0  0  0  3  0  0  0  0  0  0
    7.1415    0.3232   -1.6641 H   0  0  0  0  0  0  0  0  0  0  0  0
    7.0988   -0.6050    0.2942 C   0  0  0  0  0  0  0  0  0  0  0  0
    8.1769   -0.4781    0.4730 H   0  0  0  0  0  0  0  0  0  0  0  0
    6.2765   -1.1965    1.2825 C   0  0  0  0  0  0  0  0  0  0  0  0
    6.7151   -1.5145    2.2410 H   0  0  0  0  0  0  0  0  0  0  0  0
    4.9114   -1.3618    1.0651 C   0  0  0  0  0  0  0  0  0  0  0  0
    4.2912   -1.7806    1.8706 H   0  0  0  0  0  0  0  0  0  0  0  0
    4.2920   -0.9521   -0.1551 C   0  0  0  0  0  0  0  0  0  0  0  0
    2.0028   -1.9583    0.3711 C   0  0  0  0  0  0  0  0  0  0  0  0
    2.5262   -3.3332    0.7438 C   0  0  0  0  0  0  0  0  0  0  0  0
    2.4987   -3.5184    1.8382 H   0  0  0  0  0  0  0  0  0  0  0  0
    3.5635   -3.4697    0.3948 H   0  0  0  0  0  0  0  0  0  0  0  0
    1.8997   -4.1159    0.2689 H   0  0  0  0  0  0  0  0  0  0  0  0
   -0.1848   -2.5699    1.2130 C   0  0  0  0  0  0  0  0  0  0  0  0
   -0.8098   -1.9781    1.9109 H   0  0  0  0  0  0  0  0  0  0  0  0
    0.3644   -3.3169    1.8206 H   0  0  0  0  0  0  0  0  0  0  0  0
   -1.0942   -3.3147    0.2155 C   0  0  0  0  0  0  0  0  0  0  0  0
   -0.4789   -3.7321   -0.6143 H   0  0  0  0  0  0  0  0  0  0  0  0
   -1.5238   -4.1892    0.7479 H   0  0  0  0  0  0  0  0  0  0  0  0
   -2.2578   -2.5008   -0.3699 C   0  0  2  0  0  0  0  0  0  0  0  0
   -2.8120   -2.0504    0.4857 H   0  0  0  0  0  0  0  0  0  0  0  0
   -3.2552   -3.4052   -1.1254 C   0  0  0  0  0  0  0  0  0  0  0  0
   -2.7226   -3.8995   -1.9702 H   0  0  0  0  0  0  0  0  0  0  0  0
   -3.5772   -4.2239   -0.4443 H   0  0  0  0  0  0  0  0  0  0  0  0
   -4.4866   -2.6589   -1.6409 C   0  0  0  0  0  0  0  0  0  0  0  0
   -5.0271   -2.1481   -0.8164 H   0  0  0  0  0  0  0  0  0  0  0  0
   -5.1985   -3.3452   -2.1410 H   0  0  0  0  0  0  0  0  0  0  0  0
   -4.2125   -1.8782   -2.3806 H   0  0  0  0  0  0  0  0  0  0  0  0
  1  7  1  0  0  0  0
  2 27  1  0  0  0  0
  3 33  1  0  0  0  0
  4  3  1  0  0  0  0
  5  3  1  0  0  0  0
  6 21  1  0  0  0  0
  6 22  2  0  0  0  0
  7  6  1  0  0  0  0
  8 10  1  0  0  0  0
  8  7  2  0  0  0  0
  9  8  1  0  0  0  0
 10 12  2  0  0  0  0
 11 10  1  0  0  0  0
 12 13  1  0  0  0  0
 12 21  1  0  0  0  0
 13 15  1  0  0  0  0
 14 13  1  0  0  0  0
 15 16  1  0  0  0  0
 15 17  2  0  0  0  0
 17 18  1  0  0  0  0
 19 17  1  0  0  0  0
 19 20  1  0  0  0  0
 21 19  2  0  0  0  0
 22  2  1  0  0  0  0
 22 23  1  0  0  0  0
 23 24  1  0  0  0  0
 25 23  1  0  0  0  0
 26 23  1  0  0  0  0
 27 29  1  0  0  0  0
 27 28  1  0  0  0  0
 30 32  1  0  0  0  0
 30 27  1  0  0  0  0
 31 30  1  0  0  0  0
 33 30  1  0  0  0  0
 33 34  1  1  0  0  0
 35 37  1  0  0  0  0
 35 33  1  0  0  0  0
 36 35  1  0  0  0  0
 38 35  1  0  0  0  0
 38 39  1  0  0  0  0
 40 38  1  0  0  0  0
 41 38  1  0  0  0  0
M  CHG  1   1  -1
M  END
