2,6
q = -1.0

 72 72  0  0  0  0  0  0  0  0999 V2000
   -4.9875    0.8933    0.2088 Si  0  0  0  0  0  0  0  0  0  0  0  0
    2.5132   -1.1897   -0.0488 O   0  5  0  0  0  0  0  0  0  0  0  0
   -5.1433    2.5628    0.1916 O   0  0  0  0  0  0  0  0  0  0  0  0
   -6.4390    0.1039   -0.1343 O   0  0  0  0  0  0  0  0  0  0  0  0
   -4.6544    0.5016    1.7942 O   0  0  0  0  0  0  0  0  0  0  0  0
    0.1538    0.2077   -0.9816 N   0  0  0  0  0  2  0  0  0  0  0  0
    3.0726   -0.0310   -0.0767 C   0  0  0  0  0  0  0  0  0  0  0  0
    2.3909    1.1726   -0.4970 C   0  0  0  0  0  0  0  0  0  0  0  0
    3.0787    2.4191   -0.5151 C   0  0  0  0  0  0  0  0  0  0  0  0
    2.5117    3.2993   -0.8549 H   0  0  0  0  0  0  0  0  0  0  0  0
    4.4064    2.5385   -0.1232 C   0  0  0  0  0  0  0  0  0  0  0  0
    5.0651    1.3407    0.2837 C   0  0  0  0  0  0  0  0  0  0  0  0
    6.1177    1.4186    0.5913 H   0  0  0  0  0  0  0  0  0  0  0  0
    4.4688    0.0832    0.3143 C   0  0  0  0  0  0  0  0  0  0  0  0
    5.2354   -1.1802    0.7470 C   0  0  0  0  0  0  0  0  0  0  0  0
    5.2716   -2.1918   -0.4248 C   0  0  0  0  0  0  0  0  0  0  0  0
    5.7796   -1.7507   -1.3075 H   0  0  0  0  0  0  0  0  0  0  0  0
    4.2485   -2.4950   -0.7147 H   0  0  0  0  0  0  0  0  0  0  0  0
    5.8340   -3.1005   -0.1213 H   0  0  0  0  0  0  0  0  0  0  0  0
    6.6872   -0.8554    1.1438 C   0  0  0  0  0  0  0  0  0  0  0  0
    7.2612   -0.4117    0.3037 H   0  0  0  0  0  0  0  0  0  0  0  0
    7.2036   -1.7907    1.4421 H   0  0  0  0  0  0  0  0  0  0  0  0
    6.7387   -0.1564    2.0047 H   0  0  0  0  0  0  0  0  0  0  0  0
    4.5417   -1.8354    1.9675 C   0  0  0  0  0  0  0  0  0  0  0  0
    5.1437   -2.6999    2.3204 H   0  0  0  0  0  0  0  0  0  0  0  0
    3.5339   -2.2036    1.7006 H   0  0  0  0  0  0  0  0  0  0  0  0
    4.4559   -1.1129    2.8061 H   0  0  0  0  0  0  0  0  0  0  0  0
    5.1784    3.8682   -0.1158 C   0  0  0  0  0  0  0  0  0  0  0  0
    6.3995    3.7639   -1.0582 C   0  0  0  0  0  0  0  0  0  0  0  0
    6.9838    4.7092   -1.0567 H   0  0  0  0  0  0  0  0  0  0  0  0
    6.0745    3.5567   -2.0980 H   0  0  0  0  0  0  0  0  0  0  0  0
    7.0806    2.9448   -0.7527 H   0  0  0  0  0  0  0  0  0  0  0  0
    5.6663    4.1744    1.3189 C   0  0  0  0  0  0  0  0  0  0  0  0
    4.8064    4.2680    2.0129 H   0  0  0  0  0  0  0  0  0  0  0  0
    6.2432    5.1239    1.3478 H   0  0  0  0  0  0  0  0  0  0  0  0
    6.3211    3.3686    1.7064 H   0  0  0  0  0  0  0  0  0  0  0  0
    4.3064    5.0440   -0.5880 C   0  0  0  0  0  0  0  0  0  0  0  0
    3.4216    5.1845    0.0653 H   0  0  0  0  0  0  0  0  0  0  0  0
    3.9450    4.8935   -1.6255 H   0  0  0  0  0  0  0  0  0  0  0  0
    4.8934    5.9856   -0.5686 H   0  0  0  0  0  0  0  0  0  0  0  0
    1.0353    1.1735   -0.9730 C   0  0  0  0  0  3  0  0  0  0  0  0
    0.6979    2.1406   -1.4039 H   0  0  0  0  0  0  0  0  0  0  0  0
   -1.1538    0.4829   -1.5705 C   0  0  0  0  0  0  0  0  0  0  0  0
   -1.0918    1.3795   -2.2289 H   0  0  0  0  0  0  0  0  0  0  0  0
   -1.4059   -0.3780   -2.2228 H   0  0  0  0  0  0  0  0  0  0  0  0
   -2.2375    0.7020   -0.5033 C   0  0  0  0  0  0  0  0  0  0  0  0
   -2.1254    1.7200   -0.0720 H   0  0  0  0  0  0  0  0  0  0  0  0
   -2.0578    0.0007    0.3350 H   0  0  0  0  0  0  0  0  0  0  0  0
   -3.6594    0.4911   -1.0433 C   0  0  0  0  0  0  0  0  0  0  0  0
   -3.7722   -0.5659   -1.3706 H   0  0  0  0  0  0  0  0  0  0  0  0
   -3.8404    1.1221   -1.9423 H   0  0  0  0  0  0  0  0  0  0  0  0
   -5.7909    3.3026    1.2191 C   0  0  0  0  0  0  0  0  0  0  0  0
   -5.5077    2.8965    2.2168 H   0  0  0  0  0  0  0  0  0  0  0  0
   -5.4031    4.3441    1.1650 H   0  0  0  0  0  0  0  0  0  0  0  0
   -7.3088    3.3005    1.0660 C   0  0  0  0  0  0  0  0  0  0  0  0
   -7.6026    3.6967    0.0724 H   0  0  0  0  0  0  0  0  0  0  0  0
   -7.7838    3.9295    1.8476 H   0  0  0  0  0  0  0  0  0  0  0  0
   -7.7098    2.2705    1.1520 H   0  0  0  0  0  0  0  0  0  0  0  0
   -6.9126   -0.1924   -1.4379 C   0  0  0  0  0  0  0  0  0  0  0  0
   -6.1042   -0.6446   -2.0603 H   0  0  0  0  0  0  0  0  0  0  0  0
   -7.6982   -0.9728   -1.3309 H   0  0  0  0  0  0  0  0  0  0  0  0
   -7.4879    1.0292   -2.1484 C   0  0  0  0  0  0  0  0  0  0  0  0
   -8.3090    1.4777   -1.5535 H   0  0  0  0  0  0  0  0  0  0  0  0
   -7.8882    0.7507   -3.1453 H   0  0  0  0  0  0  0  0  0  0  0  0
   -6.7134    1.8103   -2.2916 H   0  0  0  0  0  0  0  0  0  0  0  0
   -4.9060   -0.7418    2.4458 C   0  0  0  0  0  0  0  0  0  0  0  0
   -5.8403   -1.1962    2.0444 H   0  0  0  0  0  0  0  0  0  0  0  0
   -5.0892   -0.5073    3.5181 H   0  0  0  0  0  0  0  0  0  0  0  0
   -3.7404   -1.7108    2.3136 C   0  0  0  0  0  0  0  0  0  0  0  0
   -3.5788   -2.0168    1.2608 H   0  0  0  0  0  0  0  0  0  0  0  0
   -3.9349   -2.6318    2.9012 H   0  0  0  0  0  0  0  0  0  0  0  0
   -2.7988   -1.2603    2.6855 H   0  0  0  0  0  0  0  0  0  0  0  0
  1  5  1  0  0  0  0
  3  1  1  0  0  0  0
  3 52  1  0  0  0  0
  4  1  1  0  0  0  0
  5 66  1  0  0  0  0
  6 41  1  0  0  0  0
  7  2  1  0  0  0  0
  7 14  1  0  0  0  0
  8  7  2  0  0  0  0
  9  8  1  0  0  0  0
  9 11  2  0  0  0  0
 10  9  1  0  0  0  0
 11 28  1  0  0  0  0
 11 12  1  0  0  0  0
 12 14  2  0  0  0  0
 12 13  1  0  0  0  0
 14 15  1  0  0  0  0
 15 20  1  0  0  0  0
 15 24  1  0  0  0  0
 16 19  1  0  0  0  0
 16 15  1  0  0  0  0
 17 16  1  0  0  0  0
 18 16  1  0  0  0  0
 20 22  1  0  0  0  0
 20 23  1  0  0  0  0
 21 20  1  0  0  0  0
 24 25  1  0  0  0  0
 24 27  1  0  0  0  0
 26 24  1  0  0  0  0
 28 33  1  0  0  0  0
 29 30  1  0  0  0  0
 29 32  1  0  0  0  0
 29 28  1  0  0  0  0
 31 29  1  0  0  0  0
 33 35  1  0  0  0  0
 33 36  1  0  0  0  0
 33 34  1  0  0  0  0
 37 40  1  0  0  0  0
 37 28  1  0  0  0  0
 37 38  1  0  0  0  0
 39 37  1  0  0  0  0
 41  8  1  0  0  0  0
 42 41  1  0  0  0  0
 43  6  1  0  0  0  0
 43 46  1  0  0  0  0
 44 43  1  0  0  0  0
 45 43  1  0  0  0  0
 46 47  1  0  0  0  0
 46 48  1  0  0  0  0
 49 46  1  0  0  0  0
 49  1  1  0  0  0  0
 50 49  1  0  0  0  0
 51 49  1  0  0  0  0
 52 53  1  0  0  0  0
 54 52  1  0  0  0  0
 55 58  1  0  0  0  0
 55 52  1  0  0  0  0
 55 57  1  0  0  0  0
 56 55  1  0  0  0  0
 59 61  1  0  0  0  0
 59  4  1  0  0  0  0
 60 59  1  0  0  0  0
 62 63  1  0  0  0  0
 62 59  1  0  0  0  0
 64 62  1  0  0  0  0
 65 62  1  0  0  0  0
 66 68  1  0  0  0  0
 67 66  1  0  0  0  0
 69 66  1  0  0  0  0
 69 72  1  0  0  0  0
 69 71  1  0  0  0  0
 70 69  1  0  0  0  0
M  CHG  1   2  -1
M  END
