1,8
q = -1.0

 17 17  0  0  0  0  0  0  0  0999 V2000
    0.1717    0.2441    1.3845 N   0  0  0  0  0  2  0  0  0  0  0  0
    1.1628    2.2492    1.6037 N   0  0  0  0  0  0  0  0  0  0  0  0
    1.8254    2.9227    1.1980 H   0  0  0  0  0  0  0  0  0  0  0  0
    3.3106    1.3372   -0.2633 N   0  0  0  0  0  0  0  0  0  0  0  0
    2.7522   -0.8867    0.5153 N   0  3  0  0  0  3  0  0  0  0  0  0
    3.3079    2.5445    0.0497 O   0  0  0  0  0  0  0  0  0  0  0  0
    3.9679    0.8700   -1.1884 O   0  0  0  0  0  0  0  0  0  0  0  0
    1.8310   -1.7421    0.8972 O   0  0  0  0  0  1  0  0  0  0  0  0
    3.8636   -1.3325    0.2359 O   0  5  0  0  0  0  0  0  0  0  0  0
   -0.7622    1.0879    2.1504 C   0  0  0  0  0  0  0  0  0  0  0  0
   -0.6932    0.8288    3.2320 H   0  0  0  0  0  0  0  0  0  0  0  0
   -1.8064    0.9297    1.8265 H   0  0  0  0  0  0  0  0  0  0  0  0
   -0.2510    2.5181    1.8771 C   0  0  0  0  0  0  0  0  0  0  0  0
   -0.7352    2.9749    0.9838 H   0  0  0  0  0  0  0  0  0  0  0  0
   -0.3785    3.1915    2.7459 H   0  0  0  0  0  0  0  0  0  0  0  0
    1.2642    0.9700    1.1551 C   0  0  0  0  0  0  0  0  0  0  0  0
    2.4483    0.4606    0.4959 C   0  0  0  0  0  0  0  0  0  0  0  0
  1 10  1  0  0  0  0
  2 13  1  0  0  0  0
  3  2  1  0  0  0  0
  4  6  2  0  0  0  0
  4 17  1  0  0  0  0
  5  8  1  0  0  0  0
  7  4  2  0  0  0  0
  9  5  1  0  0  0  0
 10 11  1  0  0  0  0
 12 10  1  0  0  0  0
 13 10  1  0  0  0  0
 13 15  1  0  0  0  0
 14 13  1  0  0  0  0
 16  1  1  0  0  0  0
 16  2  1  0  0  0  0
 17  5  1  0  0  0  0
 17 16  2  0  0  0  0
M  CHG  2   5   1   9  -1
M  END
