1,29
q = -1.0

 29 31  0  0  1  0  0  0  0  0999 V2000
    1.6988   -0.7078   -0.0458 N   0  0  0  0  0  2  0  0  0  0  0  0
    2.7988    0.0539    0.1115 N   0  0  0  0  0  0  0  0  0  0  0  0
    2.6342    1.0677    0.0828 H   0  0  0  0  0  0  0  0  0  0  0  0
    3.9534   -0.6633   -0.0723 C   0  0  1  0  0  3  0  0  0  0  0  0
    5.2773   -0.0518    0.0337 C   0  0  0  0  0  0  0  0  0  0  0  0
    5.4632    1.1599    0.7409 C   0  0  0  0  0  0  0  0  0  0  0  0
    4.6112    1.6283    1.2570 H   0  0  0  0  0  0  0  0  0  0  0  0
    6.7318    1.7462    0.8291 C   0  0  0  0  0  0  0  0  0  0  0  0
    6.8586    2.6858    1.3878 H   0  0  0  0  0  0  0  0  0  0  0  0
    7.8397    1.1316    0.2236 C   0  0  0  0  0  0  0  0  0  0  0  0
    8.8365    1.5917    0.2967 H   0  0  0  0  0  0  0  0  0  0  0  0
    7.6680   -0.0767   -0.4729 C   0  0  0  0  0  0  0  0  0  0  0  0
    8.5307   -0.5636   -0.9523 H   0  0  0  0  0  0  0  0  0  0  0  0
    6.4005   -0.6620   -0.5715 C   0  0  0  0  0  0  0  0  0  0  0  0
    6.2682   -1.5943   -1.1401 H   0  0  0  0  0  0  0  0  0  0  0  0
    3.5485   -1.9777   -0.3337 C   0  0  0  0  0  0  0  0  0  0  0  0
    4.2060   -2.8364   -0.4940 H   0  0  0  0  0  0  0  0  0  0  0  0
    2.1254   -1.9728   -0.3085 C   0  0  0  0  0  0  0  0  0  0  0  0
    1.1675   -3.0421   -0.5472 C   0  0  0  0  0  0  0  0  0  0  0  0
    1.6120   -4.3736   -0.7250 C   0  0  0  0  0  0  0  0  0  0  0  0
    2.6865   -4.5885   -0.6282 H   0  0  0  0  0  0  0  0  0  0  0  0
    0.7269   -5.4140   -1.0142 C   0  0  0  0  0  0  0  0  0  0  0  0
    1.1045   -6.4390   -1.1414 H   0  0  0  0  0  0  0  0  0  0  0  0
   -0.6479   -5.1380   -1.1440 C   0  0  0  0  0  0  0  0  0  0  0  0
   -1.3571   -5.9466   -1.3777 H   0  0  0  0  0  0  0  0  0  0  0  0
   -1.1153   -3.8343   -0.9748 C   0  0  0  0  0  0  0  0  0  0  0  0
   -2.1844   -3.5939   -1.0756 H   0  0  0  0  0  0  0  0  0  0  0  0
   -0.2356   -2.7674   -0.6597 C   0  0  0  0  0  0  0  0  0  0  0  0
   -0.7930   -1.5612   -0.4865 O   0  5  0  0  0  0  0  0  0  0  0  0
  1  2  1  0  0  0  0
  3  2  1  0  0  0  0
  4  5  1  1  0  0  0
  4  2  1  0  0  0  0
  5  6  1  0  0  0  0
  6  8  2  0  0  0  0
  6  7  1  0  0  0  0
  8  9  1  0  0  0  0
 10 11  1  0  0  0  0
 10  8  1  0  0  0  0
 12 10  2  0  0  0  0
 13 12  1  0  0  0  0
 14 12  1  0  0  0  0
 14  5  2  0  0  0  0
 15 14  1  0  0  0  0
 16 18  2  0  0  0  0
 16  4  1  0  0  0  0
 17 16  1  0  0  0  0
 18  1  1  0  0  0  0
 19 18  1  0  0  0  0
 20 21  1  0  0  0  0
 20 19  2  0  0  0  0
 22 20  1  0  0  0  0
 23 22  1  0  0  0  0
 24 22  2  0  0  0  0
 24 26  1  0  0  0  0
 25 24  1  0  0  0  0
 26 28  2  0  0  0  0
 27 26  1  0  0  0  0
 28 19  1  0  0  0  0
 28 29  1  0  0  0  0
M  CHG  1  29  -1
M  END
