2,16
q = -1.0

 22 23  0  0  0  0  0  0  0  0999 V2000
    6.5004    1.7813   -0.1894 O   0  0  0  0  0  0  0  0  0  0  0  0
    2.1953   -0.3463   -0.0001 N   0  0  0  0  0  2  0  0  0  0  0  0
    4.3178    0.8484    0.0045 C   0  0  0  0  0  0  0  0  0  0  0  0
    2.8783    0.8124   -0.0113 C   0  0  0  0  0  0  0  0  0  0  0  0
    5.3181    2.0351   -0.0088 C   0  0  0  0  0  0  0  0  0  0  0  0
    4.8814    3.2548    0.2107 O   0  0  0  0  0  0  0  0  0  0  0  0
    3.8484    3.2758    0.2687 H   0  0  0  0  0  0  0  0  0  0  0  0
    1.9667    2.0508   -0.0890 C   0  0  0  0  0  0  0  0  0  0  0  0
    2.8374   -1.5562    0.0296 C   0  0  0  0  0  0  0  0  0  0  0  0
    4.2757   -1.6099    0.0229 C   0  0  0  0  0  0  0  0  0  0  0  0
    4.9722   -0.3837    0.0075 C   0  0  0  0  0  0  0  0  0  0  0  0
    6.0730   -0.3538   -0.0138 H   0  0  0  0  0  0  0  0  0  0  0  0
    2.0972   -2.7743    0.0476 C   0  0  0  0  0  0  0  0  0  0  0  0
    0.9972   -2.7393    0.0821 H   0  0  0  0  0  0  0  0  0  0  0  0
    2.4053    3.1893    0.1602 O   0  5  0  0  0  0  0  0  0  0  0  0
    0.7483    1.8262   -0.4318 O   0  0  0  0  0  0  0  0  0  0  0  0
    2.7725   -3.9869    0.0493 C   0  0  0  0  0  0  0  0  0  0  0  0
    2.1932   -4.9226    0.0646 H   0  0  0  0  0  0  0  0  0  0  0  0
    4.1935   -4.0437    0.0370 C   0  0  0  0  0  0  0  0  0  0  0  0
    4.7006   -5.0200    0.0390 H   0  0  0  0  0  0  0  0  0  0  0  0
    4.9349   -2.8735    0.0265 C   0  0  0  0  0  3  0  0  0  0  0  0
    6.0351   -2.8949    0.0205 H   0  0  0  0  0  0  0  0  0  0  0  0
  1  5  2  0  0  0  0
  2  9  1  0  0  0  0
  3 11  1  0  0  0  0
  4  2  1  0  0  0  0
  4  3  2  0  0  0  0
  5  3  1  0  0  0  0
  5  6  1  0  0  0  0
  6  7  1  0  0  0  0
  8  4  1  0  0  0  0
  8 15  1  0  0  0  0
  9 13  2  0  0  0  0
 10 21  1  0  0  0  0
 10  9  1  0  0  0  0
 11 10  2  0  0  0  0
 12 11  1  0  0  0  0
 13 17  1  0  0  0  0
 13 14  1  0  0  0  0
 16  8  2  0  0  0  0
 17 18  1  0  0  0  0
 19 20  1  0  0  0  0
 19 17  2  0  0  0  0
 21 19  1  0  0  0  0
 22 21  1  0  0  0  0
M  CHG  1  15  -1
M  END
