1,22
q = -1.0, confidence = 0.0

 22 23  0  0  0  0  0  0  0  0999 V2000
   -1.7514   -2.1590    0.0289 N   0  0  0  0  0  2  0  0  0  0  0  0
   -1.6467   -3.5268    0.0541 O   0  0  0  0  0  0  0  0  0  0  0  0
   -0.6561   -3.6745    0.0466 H   0  0  0  0  0  0  0  0  0  0  0  0
   -2.9836   -1.7144    0.0409 C   0  0  0  0  0  0  0  0  0  0  0  0
   -3.7403   -2.5133    0.0707 H   0  0  0  0  0  0  0  0  0  0  0  0
   -3.4137   -0.3450    0.0110 C   0  0  0  0  0  0  0  0  0  0  0  0
   -4.8470   -0.0672    0.0235 C   0  0  0  0  0  0  0  0  0  0  0  0
   -5.8459   -1.0819    0.0886 C   0  0  0  0  0  0  0  0  0  0  0  0
   -5.5598   -2.1412    0.1359 H   0  0  0  0  0  0  0  0  0  0  0  0
   -7.2035   -0.7770    0.0982 C   0  0  0  0  0  0  0  0  0  0  0  0
   -7.9384   -1.5948    0.1504 H   0  0  0  0  0  0  0  0  0  0  0  0
   -7.6455    0.5653    0.0430 C   0  0  0  0  0  0  0  0  0  0  0  0
   -8.7207    0.7978    0.0508 H   0  0  0  0  0  0  0  0  0  0  0  0
   -6.7016    1.5816   -0.0201 C   0  0  0  0  0  3  0  0  0  0  0  0
   -7.0171    2.6361   -0.0634 H   0  0  0  0  0  0  0  0  0  0  0  0
   -5.3094    1.2961   -0.0305 C   0  0  0  0  0  0  0  0  0  0  0  0
   -4.3471    2.3530   -0.0964 C   0  0  0  0  0  0  0  0  0  0  0  0
   -4.7093    3.3922   -0.1441 H   0  0  0  0  0  0  0  0  0  0  0  0
   -2.9993    2.0929   -0.1019 C   0  0  0  0  0  0  0  0  0  0  0  0
   -2.2498    2.8955   -0.1558 H   0  0  0  0  0  0  0  0  0  0  0  0
   -2.4920    0.7475   -0.0407 C   0  0  0  0  0  0  0  0  0  0  0  0
   -1.1798    0.6728   -0.0423 O   0  5  0  0  0  0  0  0  0  0  0  0
  1  4  1  0  0  0  0
  1  2  1  0  0  0  0
  3  2  1  0  0  0  0
  4  5  1  0  0  0  0
  6  7  1  0  0  0  0
  6  4  2  0  0  0  0
  7  8  2  0  0  0  0
  8 10  1  0  0  0  0
  8  9  1  0  0  0  0
 10 11  1  0  0  0  0
 12 13  1  0  0  0  0
 12 10  2  0  0  0  0
 14 12  1  0  0  0  0
 15 14  1  0  0  0  0
 16 14  1  0  0  0  0
 16  7  1  0  0  0  0
 17 16  2  0  0  0  0
 18 17  1  0  0  0  0
 19 17  1  0  0  0  0
 19 21  2  0  0  0  0
 20 19  1  0  0  0  0
 21  6  1  0  0  0  0
 22 21  1  0  0  0  0
M  CHG  1  22  -1
M  END
