1,2
q = -1.0

 26 27  0  0  1  0  0  0  0  0999 V2000
    1.1531    1.4708   -0.2375 N   0  0  0  0  0  2  0  0  0  0  0  0
    1.4256   -1.1497    0.3869 O   0  5  0  0  0  0  0  0  0  0  0  0
    2.4693    1.4548   -0.2562 C   0  0  0  0  0  0  0  0  0  0  0  0
    3.0495    2.6573   -0.4813 O   0  0  0  0  0  0  0  0  0  0  0  0
    2.7145   -0.9474    0.2866 C   0  0  0  0  0  0  0  0  0  0  0  0
    3.3190    0.3135   -0.0447 C   0  0  0  0  0  0  0  0  0  0  0  0
    0.7062    2.8785   -0.3299 C   0  0  1  0  0  0  0  0  0  0  0  0
   -0.1238    2.9428   -1.0583 H   0  0  0  0  0  0  0  0  0  0  0  0
    3.5949   -2.0476    0.5245 C   0  0  0  0  0  0  0  0  0  0  0  0
    3.1381   -3.0139    0.7846 H   0  0  0  0  0  0  0  0  0  0  0  0
    0.2123    3.3837    1.0344 C   0  0  0  0  0  0  0  0  0  0  0  0
   -0.5032    2.6296    1.4173 H   0  0  0  0  0  0  0  0  0  0  0  0
    1.0715    3.4010    1.7409 H   0  0  0  0  0  0  0  0  0  0  0  0
    4.9749   -1.9027    0.4277 C   0  0  0  0  0  0  0  0  0  0  0  0
    5.6208   -2.7752    0.6142 H   0  0  0  0  0  0  0  0  0  0  0  0
    4.7299    0.4351   -0.1395 C   0  0  0  0  0  3  0  0  0  0  0  0
    5.1495    1.4177   -0.3988 H   0  0  0  0  0  0  0  0  0  0  0  0
    1.9822    3.5695   -0.8397 C   0  0  0  0  0  0  0  0  0  0  0  0
    2.1879    4.5456   -0.3596 H   0  0  0  0  0  0  0  0  0  0  0  0
    1.9940    3.6958   -1.9435 H   0  0  0  0  0  0  0  0  0  0  0  0
    5.5585   -0.6576    0.0924 C   0  0  0  0  0  0  0  0  0  0  0  0
    6.6504   -0.5558    0.0165 H   0  0  0  0  0  0  0  0  0  0  0  0
   -0.4569    4.7544    0.9587 C   0  0  0  0  0  0  0  0  0  0  0  0
    0.2277    5.5358    0.5659 H   0  0  0  0  0  0  0  0  0  0  0  0
   -1.3461    4.7264    0.2951 H   0  0  0  0  0  0  0  0  0  0  0  0
   -0.7975    5.0903    1.9579 H   0  0  0  0  0  0  0  0  0  0  0  0
  3  1  1  0  0  0  0
  3  6  2  0  0  0  0
  4  3  1  0  0  0  0
  5  2  1  0  0  0  0
  5  9  2  0  0  0  0
  6  5  1  0  0  0  0
  7  8  1  6  0  0  0
  7  1  1  0  0  0  0
  7 11  1  0  0  0  0
  9 10  1  0  0  0  0
 11 12  1  0  0  0  0
 11 13  1  0  0  0  0
 14  9  1  0  0  0  0
 14 15  1  0  0  0  0
 16  6  1  0  0  0  0
 16 21  1  0  0  0  0
 17 16  1  0  0  0  0
 18  4  1  0  0  0  0
 18 19  1  0  0  0  0
 18  7  1  0  0  0  0
 20 18  1  0  0  0  0
 21 14  2  0  0  0  0
 22 21  1  0  0  0  0
 23 11  1  0  0  0  0
 23 26  1  0  0  0  0
 24 23  1  0  0  0  0
 25 23  1  0  0  0  0
M  CHG  1   2  -1
M  END
