3,6
q = 0.0, confidence = 0.974

 20 20  0  0  1  0  0  0  0  0999 V2000
   -3.7654    0.7961   -0.2535 C   0  0  0  0  0  0  0  0  0  0  0  0
   -2.5190   -0.0104   -0.3541 C   0  0  1  0  0  3  0  0  0  0  0  0
   -1.6685   -0.0031    0.5625 O   0  0  0  0  0  1  0  0  0  0  0  0
   -2.3655   -0.7592   -1.4904 N   0  0  0  0  0  0  0  0  0  0  0  0
   -3.1423   -0.8406   -2.1531 H   0  0  0  0  0  0  0  0  0  0  0  0
   -1.2105   -1.5076   -1.6931 N   0  0  0  0  0  0  0  0  0  0  0  0
   -0.6842   -1.1717   -2.5132 H   0  0  0  0  0  0  0  0  0  0  0  0
   -1.3929   -2.5295   -1.7811 H   0  0  0  0  0  0  0  0  0  0  0  0
   -4.4811    1.2323   -1.3915 C   0  0  0  0  0  0  0  0  0  0  0  0
   -4.1160    1.0229   -2.4086 H   0  0  0  0  0  0  0  0  0  0  0  0
   -5.6473    1.9899   -1.2408 C   0  0  0  0  0  0  0  0  0  0  0  0
   -6.2267    2.3555   -2.0992 H   0  0  0  0  0  0  0  0  0  0  0  0
   -6.0781    2.3028    0.0532 C   0  0  0  0  0  0  0  0  0  0  0  0
   -7.3271    3.1107    0.2175 N   0  0  0  0  0  0  0  0  0  0  0  0
   -7.6703    3.3699    1.3662 O   0  0  0  0  0  0  0  0  0  0  0  0
   -7.9068    3.4474   -0.8099 O   0  0  0  0  0  0  0  0  0  0  0  0
   -5.3815    1.8979    1.1979 C   0  0  0  0  0  0  0  0  0  0  0  0
   -5.7685    2.1821    2.1857 H   0  0  0  0  0  0  0  0  0  0  0  0
   -4.2144    1.1456    1.0386 C   0  0  0  0  0  0  0  0  0  0  0  0
   -3.6361    0.8130    1.9117 H   0  0  0  0  0  0  0  0  0  0  0  0
  1 19  1  0  0  0  0
  2  1  1  0  0  0  0
  2  3  1  1  0  0  0
  4  2  1  0  0  0  0
  5  4  1  0  0  0  0
  6  4  1  0  0  0  0
  7  6  1  0  0  0  0
  8  6  1  0  0  0  0
  9 11  1  0  0  0  0
  9  1  2  0  0  0  0
 10  9  1  0  0  0  0
 11 13  2  0  0  0  0
 12 11  1  0  0  0  0
 13 14  1  0  0  0  0
 13 17  1  0  0  0  0
 14 15  2  0  0  0  0
 16 14  2  0  0  0  0
 17 18  1  0  0  0  0
 19 17  2  0  0  0  0
 19 20  1  0  0  0  0
M  END
