1,2
q = -1.0

 54 56  0  0  1  0  0  0  0  0999 V2000
   -0.1703   -1.0786   -0.0131 O   0  5  0  0  0  0  0  0  0  0  0  0
   -1.2243    1.2868   -0.3986 N   0  0  0  0  0  2  0  0  0  0  0  0
    0.0495    1.7013   -0.1840 N   0  0  0  0  0  0  0  0  0  0  0  0
    0.1893    2.9743    0.1580 N   0  0  0  0  0  0  0  0  0  0  0  0
    1.0440   -0.5500   -0.0754 C   0  0  0  0  0  0  0  0  0  0  0  0
    1.1938    0.8554   -0.2322 C   0  0  0  0  0  0  0  0  0  0  0  0
    2.4570    1.4569   -0.3219 C   0  0  0  0  0  0  0  0  0  0  0  0
    2.4963    2.5481   -0.4291 H   0  0  0  0  0  0  0  0  0  0  0  0
    3.6167    0.6747   -0.2508 C   0  0  0  0  0  0  0  0  0  0  0  0
    3.4571   -0.7175   -0.0773 C   0  0  0  0  0  0  0  0  0  0  0  0
    4.3574   -1.3375   -0.0157 H   0  0  0  0  0  0  0  0  0  0  0  0
    2.2121   -1.3628    0.0124 C   0  0  0  0  0  0  0  0  0  0  0  0
    4.9946    1.3515   -0.3409 C   0  0  0  0  0  0  0  0  0  0  0  0
    5.0961    2.1134   -1.6812 C   0  0  0  0  0  0  0  0  0  0  0  0
    6.0816    2.6162   -1.7668 H   0  0  0  0  0  0  0  0  0  0  0  0
    4.3131    2.8922   -1.7716 H   0  0  0  0  0  0  0  0  0  0  0  0
    4.9850    1.4215   -2.5401 H   0  0  0  0  0  0  0  0  0  0  0  0
    6.1467    0.3332   -0.2848 C   0  0  0  0  0  0  0  0  0  0  0  0
    6.1003   -0.3792   -1.1328 H   0  0  0  0  0  0  0  0  0  0  0  0
    6.1505   -0.2561    0.6530 H   0  0  0  0  0  0  0  0  0  0  0  0
    7.1176    0.8646   -0.3483 H   0  0  0  0  0  0  0  0  0  0  0  0
    5.1432    2.3759    0.8231 C   0  0  0  0  0  0  0  0  0  0  0  0
    6.1317    2.8735    0.7107 H   0  0  0  0  0  0  0  0  0  0  0  0
    4.3879    3.1786    0.6814 H   0  0  0  0  0  0  0  0  0  0  0  0
    5.0063    1.8011    2.2326 C   0  0  0  0  0  0  0  0  0  0  0  0
    4.0253    1.3019    2.3706 H   0  0  0  0  0  0  0  0  0  0  0  0
    5.0857    2.6018    2.9950 H   0  0  0  0  0  0  0  0  0  0  0  0
    5.7949    1.0549    2.4583 H   0  0  0  0  0  0  0  0  0  0  0  0
    2.0986   -2.8931    0.1400 C   0  0  0  0  0  0  0  0  0  0  0  0
    1.5570   -3.4570   -1.1956 C   0  0  0  0  0  0  0  0  0  0  0  0
    0.5604   -3.0479   -1.4418 H   0  0  0  0  0  0  0  0  0  0  0  0
    1.4644   -4.5610   -1.1292 H   0  0  0  0  0  0  0  0  0  0  0  0
    2.2451   -3.2168   -2.0307 H   0  0  0  0  0  0  0  0  0  0  0  0
    3.4733   -3.5379    0.4040 C   0  0  0  0  0  0  0  0  0  0  0  0
    4.1765   -3.3766   -0.4372 H   0  0  0  0  0  0  0  0  0  0  0  0
    3.3460   -4.6329    0.5158 H   0  0  0  0  0  0  0  0  0  0  0  0
    3.9528   -3.1569    1.3282 H   0  0  0  0  0  0  0  0  0  0  0  0
    1.1287   -3.3094    1.2878 C   0  0  0  0  0  0  0  0  0  0  0  0
    0.0882   -3.1091    0.9667 H   0  0  0  0  0  0  0  0  0  0  0  0
    1.2059   -4.4139    1.3887 H   0  0  0  0  0  0  0  0  0  0  0  0
    1.3886   -2.6509    2.6425 C   0  0  0  0  0  0  0  0  0  0  0  0
    2.4054   -2.8669    3.0301 H   0  0  0  0  0  0  0  0  0  0  0  0
    0.6661   -3.0117    3.4031 H   0  0  0  0  0  0  0  0  0  0  0  0
    1.2905   -1.5469    2.5852 H   0  0  0  0  0  0  0  0  0  0  0  0
   -1.9823    2.3949   -0.1394 C   0  0  2  0  0  3  0  0  0  0  0  0
   -1.0761    3.4556    0.1947 C   0  0  0  0  0  0  0  0  0  0  0  0
   -1.5380    4.7536    0.5255 C   0  0  0  0  0  0  0  0  0  0  0  0
   -0.8264    5.5532    0.7731 H   0  0  0  0  0  0  0  0  0  0  0  0
   -2.9129    4.9489    0.5274 C   0  0  0  0  0  0  0  0  0  0  0  0
   -3.3212    5.9388    0.7801 H   0  0  0  0  0  0  0  0  0  0  0  0
   -3.8167    3.8896    0.2109 C   0  0  0  0  0  0  0  0  0  0  0  0
   -4.8977    4.0953    0.2282 H   0  0  0  0  0  0  0  0  0  0  0  0
   -3.3823    2.6108   -0.1226 C   0  0  0  0  0  0  0  0  0  0  0  0
   -4.0755    1.8048   -0.3909 H   0  0  0  0  0  0  0  0  0  0  0  0
  2  3  1  0  0  0  0
  3  4  1  0  0  0  0
  4 46  2  0  0  0  0
  5  1  1  0  0  0  0
  5 12  1  0  0  0  0
  6  3  1  0  0  0  0
  6  5  2  0  0  0  0
  7  9  2  0  0  0  0
  7  6  1  0  0  0  0
  8  7  1  0  0  0  0
  9 10  1  0  0  0  0
 10 11  1  0  0  0  0
 10 12  2  0  0  0  0
 12 29  1  0  0  0  0
 13 18  1  0  0  0  0
 13  9  1  0  0  0  0
 13 22  1  0  0  0  0
 14 13  1  0  0  0  0
 15 14  1  0  0  0  0
 16 14  1  0  0  0  0
 17 14  1  0  0  0  0
 18 20  1  0  0  0  0
 19 18  1  0  0  0  0
 21 18  1  0  0  0  0
 22 25  1  0  0  0  0
 23 22  1  0  0  0  0
 24 22  1  0  0  0  0
 25 26  1  0  0  0  0
 25 28  1  0  0  0  0
 25 27  1  0  0  0  0
 29 34  1  0  0  0  0
 29 38  1  0  0  0  0
 30 32  1  0  0  0  0
 30 29  1  0  0  0  0
 31 30  1  0  0  0  0
 33 30  1  0  0  0  0
 34 36  1  0  0  0  0
 34 37  1  0  0  0  0
 35 34  1  0  0  0  0
 38 40  1  0  0  0  0
 38 41  1  0  0  0  0
 39 38  1  0  0  0  0
 41 42  1  0  0  0  0
 41 43  1  0  0  0  0
 44 41  1  0  0  0  0
 45  2  1  1  0  0  0
 45 53  1  0  0  0  0
 45 46  1  0  0  0  0
 46 47  1  0  0  0  0
 47 49  2  0  0  0  0
 47 48  1  0  0  0  0
 49 50  1  0  0  0  0
 51 52  1  0  0  0  0
 51 49  1  0  0  0  0
 53 51  2  0  0  0  0
 54 53  1  0  0  0  0
M  CHG  1   1  -1
M  END
