1,2
q = 0.0, confidence = 0.994

 45 45  0  0  1  0  0  0  0  0999 V2000
   -0.3405   -1.7483    1.2907 O   0  0  0  0  0  1  0  0  0  0  0  0
   -0.7049    0.5738   -0.2105 N   0  0  0  0  0  2  0  0  0  0  0  0
   -1.4177    1.6777    0.0193 C   0  0  0  0  0  3  0  0  0  0  0  0
    1.6166   -2.7824    0.9122 O   0  0  0  0  0  0  0  0  0  0  0  0
   -2.5486    1.9211   -0.7030 N   0  0  0  0  0  0  0  0  0  0  0  0
   -2.7688    1.2436   -1.9744 C   0  0  0  0  0  0  0  0  0  0  0  0
   -3.2220    1.9539   -2.6973 H   0  0  0  0  0  0  0  0  0  0  0  0
   -3.4570    0.3806   -1.8371 H   0  0  0  0  0  0  0  0  0  0  0  0
   -1.8096    0.8673   -2.3731 H   0  0  0  0  0  0  0  0  0  0  0  0
   -3.7438    2.4975   -0.0986 C   0  0  0  0  0  0  0  0  0  0  0  0
   -4.5458    1.7297   -0.0988 H   0  0  0  0  0  0  0  0  0  0  0  0
   -4.0834    3.3984   -0.6531 H   0  0  0  0  0  0  0  0  0  0  0  0
   -3.5432    2.7667    0.9524 H   0  0  0  0  0  0  0  0  0  0  0  0
   -1.0800    2.5749    1.0094 N   0  0  0  0  0  0  0  0  0  0  0  0
   -0.3534    2.1204    2.1831 C   0  0  0  0  0  0  0  0  0  0  0  0
   -0.7625    2.6254    3.0835 H   0  0  0  0  0  0  0  0  0  0  0  0
    0.7359    2.3397    2.1166 H   0  0  0  0  0  0  0  0  0  0  0  0
   -0.4865    1.0290    2.2959 H   0  0  0  0  0  0  0  0  0  0  0  0
    4.9740    0.7016   -0.2701 N   0  0  0  0  0  0  0  0  0  0  0  0
   -1.2041    4.0104    0.8382 C   0  0  0  0  0  0  0  0  0  0  0  0
   -1.8636    4.4708    1.6066 H   0  0  0  0  0  0  0  0  0  0  0  0
   -1.6175    4.2359   -0.1614 H   0  0  0  0  0  0  0  0  0  0  0  0
   -0.2014    4.4896    0.9165 H   0  0  0  0  0  0  0  0  0  0  0  0
    0.6942    0.6034   -0.1473 C   0  0  0  0  0  0  0  0  0  0  0  0
    1.4093    1.7184   -0.6484 C   0  0  0  0  0  0  0  0  0  0  0  0
    0.8380    2.5667   -1.0549 H   0  0  0  0  0  0  0  0  0  0  0  0
    2.8012    1.7664   -0.6855 C   0  0  0  0  0  0  0  0  0  0  0  0
    3.2818    2.6631   -1.0978 H   0  0  0  0  0  0  0  0  0  0  0  0
    3.5888    0.6672   -0.2367 C   0  0  0  0  0  0  0  0  0  0  0  0
    2.8853   -0.4656    0.2318 C   0  0  0  0  0  0  0  0  0  0  0  0
    3.4224   -1.3590    0.5679 H   0  0  0  0  0  0  0  0  0  0  0  0
    1.4770   -0.5001    0.3055 C   0  0  0  0  0  0  0  0  0  0  0  0
    0.8268   -1.7035    0.8686 C   0  0  2  0  0  3  0  0  0  0  0  0
    0.9555   -4.0139    1.2588 C   0  0  0  0  0  0  0  0  0  0  0  0
    1.7322   -4.7959    1.2000 H   0  0  0  0  0  0  0  0  0  0  0  0
    0.1435   -4.2021    0.5279 H   0  0  0  0  0  0  0  0  0  0  0  0
    0.5278   -3.9590    2.2789 H   0  0  0  0  0  0  0  0  0  0  0  0
    5.7242   -0.4860    0.0789 C   0  0  0  0  0  0  0  0  0  0  0  0
    6.8058   -0.2690    0.0132 H   0  0  0  0  0  0  0  0  0  0  0  0
    5.5039   -1.3481   -0.5940 H   0  0  0  0  0  0  0  0  0  0  0  0
    5.5107   -0.8159    1.1200 H   0  0  0  0  0  0  0  0  0  0  0  0
    5.6512    1.8345   -0.8620 C   0  0  0  0  0  0  0  0  0  0  0  0
    6.7437    1.6995   -0.7647 H   0  0  0  0  0  0  0  0  0  0  0  0
    5.3871    2.7868   -0.3502 H   0  0  0  0  0  0  0  0  0  0  0  0
    5.4183    1.9631   -1.9461 H   0  0  0  0  0  0  0  0  0  0  0  0
  2 24  1  0  0  0  0
  2  3  1  0  0  0  0
  3 14  1  0  0  0  0
  4 34  1  0  0  0  0
  5 10  1  0  0  0  0
  5  3  1  0  0  0  0
  6  8  1  0  0  0  0
  6  5  1  0  0  0  0
  7  6  1  0  0  0  0
  9  6  1  0  0  0  0
 10 13  1  0  0  0  0
 11 10  1  0  0  0  0
 12 10  1  0  0  0  0
 14 15  1  0  0  0  0
 15 18  1  0  0  0  0
 15 16  1  0  0  0  0
 17 15  1  0  0  0  0
 19 29  1  0  0  0  0
 19 38  1  0  0  0  0
 20 23  1  0  0  0  0
 20 14  1  0  0  0  0
 20 21  1  0  0  0  0
 22 20  1  0  0  0  0
 24 32  1  0  0  0  0
 25 24  2  0  0  0  0
 26 25  1  0  0  0  0
 27 25  1  0  0  0  0
 27 29  2  0  0  0  0
 28 27  1  0  0  0  0
 29 30  1  0  0  0  0
 30 32  2  0  0  0  0
 30 31  1  0  0  0  0
 32 33  1  0  0  0  0
 33  4  1  0  0  0  0
 33  1  1  1  0  0  0
 34 37  1  0  0  0  0
 35 34  1  0  0  0  0
 36 34  1  0  0  0  0
 38 41  1  0  0  0  0
 39 38  1  0  0  0  0
 40 38  1  0  0  0  0
 42 43  1  0  0  0  0
 42 44  1  0  0  0  0
 42 19  1  0  0  0  0
 45 42  1  0  0  0  0
M  END
