2,3
q = 0.0, confidence = 0.998

 37 37  0  0  1  0  0  0  0  0999 V2000
   -1.3011   -1.6124   -0.0240 C   0  0  0  0  0  3  0  0  0  0  0  0
    0.0480    1.7272    1.3095 O   0  0  0  0  0  1  0  0  0  0  0  0
   -0.5042   -0.5526   -0.2089 N   0  0  0  0  0  2  0  0  0  0  0  0
   -2.5926   -0.9994   -2.0074 C   0  0  0  0  0  0  0  0  0  0  0  0
   -1.6083   -0.6612   -2.3770 H   0  0  0  0  0  0  0  0  0  0  0  0
   -3.2311   -0.1047   -1.8383 H   0  0  0  0  0  0  0  0  0  0  0  0
   -3.0757   -1.6485   -2.7669 H   0  0  0  0  0  0  0  0  0  0  0  0
    2.0571    2.6282    0.8636 O   0  0  0  0  0  0  0  0  0  0  0  0
   -2.4350   -1.7438   -0.7631 N   0  0  0  0  0  0  0  0  0  0  0  0
    5.4461   -1.1050   -0.4462 Cl  0  0  0  0  0  0  0  0  0  0  0  0
   -1.2996   -3.9675    0.7585 C   0  0  0  0  0  0  0  0  0  0  0  0
   -1.7007   -4.1473   -0.2551 H   0  0  0  0  0  0  0  0  0  0  0  0
   -2.0229   -4.3660    1.5031 H   0  0  0  0  0  0  0  0  0  0  0  0
   -0.3502   -4.5393    0.8635 H   0  0  0  0  0  0  0  0  0  0  0  0
   -0.2838   -2.1808    2.1328 C   0  0  0  0  0  0  0  0  0  0  0  0
   -0.7383   -2.6693    3.0197 H   0  0  0  0  0  0  0  0  0  0  0  0
   -0.3289   -1.0850    2.2687 H   0  0  0  0  0  0  0  0  0  0  0  0
    0.7834   -2.4895    2.0663 H   0  0  0  0  0  0  0  0  0  0  0  0
    0.8805   -0.6840   -0.1843 C   0  0  0  0  0  0  0  0  0  0  0  0
    1.4980   -1.8556   -0.6996 C   0  0  0  0  0  0  0  0  0  0  0  0
    0.8569   -2.6622   -1.0847 H   0  0  0  0  0  0  0  0  0  0  0  0
    2.8829   -1.9970   -0.7692 C   0  0  0  0  0  0  0  0  0  0  0  0
    3.3326   -2.9146   -1.1747 H   0  0  0  0  0  0  0  0  0  0  0  0
    3.7126   -0.9414   -0.3454 C   0  0  0  0  0  0  0  0  0  0  0  0
    3.1454    0.2357    0.1434 C   0  0  0  0  0  0  0  0  0  0  0  0
    3.7868    1.0658    0.4648 H   0  0  0  0  0  0  0  0  0  0  0  0
    1.7435    0.3700    0.2533 C   0  0  0  0  0  0  0  0  0  0  0  0
    1.1937    1.6110    0.8446 C   0  0  1  0  0  3  0  0  0  0  0  0
    1.5048    3.9022    1.2498 C   0  0  0  0  0  0  0  0  0  0  0  0
    0.6837    4.1612    0.5517 H   0  0  0  0  0  0  0  0  0  0  0  0
    2.3365    4.6230    1.1704 H   0  0  0  0  0  0  0  0  0  0  0  0
    1.1127    3.8632    2.2846 H   0  0  0  0  0  0  0  0  0  0  0  0
   -3.6745   -2.2668   -0.1986 C   0  0  0  0  0  0  0  0  0  0  0  0
   -4.0454   -3.1420   -0.7731 H   0  0  0  0  0  0  0  0  0  0  0  0
   -4.4338   -1.4577   -0.2121 H   0  0  0  0  0  0  0  0  0  0  0  0
   -3.5197   -2.5535    0.8552 H   0  0  0  0  0  0  0  0  0  0  0  0
   -1.0385   -2.5512    0.9457 N   0  0  0  0  0  0  0  0  0  0  0  0
  1 37  1  0  0  0  0
  3 19  1  0  0  0  0
  3  1  1  0  0  0  0
  4  6  1  0  0  0  0
  4  9  1  0  0  0  0
  5  4  1  0  0  0  0
  7  4  1  0  0  0  0
  8 29  1  0  0  0  0
  9 33  1  0  0  0  0
  9  1  1  0  0  0  0
 10 24  1  0  0  0  0
 11 14  1  0  0  0  0
 11 37  1  0  0  0  0
 11 13  1  0  0  0  0
 12 11  1  0  0  0  0
 15 17  1  0  0  0  0
 15 16  1  0  0  0  0
 18 15  1  0  0  0  0
 19 27  1  0  0  0  0
 20 19  2  0  0  0  0
 21 20  1  0  0  0  0
 22 20  1  0  0  0  0
 22 24  2  0  0  0  0
 23 22  1  0  0  0  0
 24 25  1  0  0  0  0
 25 27  2  0  0  0  0
 25 26  1  0  0  0  0
 27 28  1  0  0  0  0
 28  8  1  0  0  0  0
 28  2  1  1  0  0  0
 29 32  1  0  0  0  0
 30 29  1  0  0  0  0
 31 29  1  0  0  0  0
 33 36  1  0  0  0  0
 34 33  1  0  0  0  0
 35 33  1  0  0  0  0
 37 15  1  0  0  0  0
M  END
