1,3
q = 0.0, confidence = 1.0

 45 45  0  0  1  0  0  0  0  0999 V2000
   -1.4649   -1.7187    1.1126 O   0  0  0  0  0  1  0  0  0  0  0  0
   -0.2122    1.8096    0.2059 C   0  0  0  0  0  3  0  0  0  0  0  0
   -0.2376    0.5031   -0.0666 N   0  0  0  0  0  2  0  0  0  0  0  0
   -0.3453   -3.6484    0.8696 O   0  0  0  0  0  0  0  0  0  0  0  0
    0.6697    1.4651    2.4658 C   0  0  0  0  0  0  0  0  0  0  0  0
    0.5459    2.0729    3.3864 H   0  0  0  0  0  0  0  0  0  0  0  0
    1.6860    1.0104    2.4716 H   0  0  0  0  0  0  0  0  0  0  0  0
   -0.0796    0.6527    2.4711 H   0  0  0  0  0  0  0  0  0  0  0  0
   -0.9104    2.6819   -0.5722 N   0  0  0  0  0  0  0  0  0  0  0  0
    1.1975    3.5545    1.2627 C   0  0  0  0  0  0  0  0  0  0  0  0
    1.0910    4.0268    0.2695 H   0  0  0  0  0  0  0  0  0  0  0  0
    2.2802    3.3528    1.4372 H   0  0  0  0  0  0  0  0  0  0  0  0
    0.8559    4.2759    2.0372 H   0  0  0  0  0  0  0  0  0  0  0  0
    4.5727    0.0990   -0.5911 N   0  0  0  0  0  0  0  0  0  0  0  0
   -1.6107    3.8320   -0.0120 C   0  0  0  0  0  0  0  0  0  0  0  0
   -1.2979    4.7768   -0.5058 H   0  0  0  0  0  0  0  0  0  0  0  0
   -1.4188    3.9002    1.0722 H   0  0  0  0  0  0  0  0  0  0  0  0
   -2.7017    3.6781   -0.1466 H   0  0  0  0  0  0  0  0  0  0  0  0
    0.9100   -0.2810    0.0519 C   0  0  0  0  0  0  0  0  0  0  0  0
    0.8467   -1.6661    0.4136 C   0  0  0  0  0  0  0  0  0  0  0  0
    2.0438   -2.4221    0.3807 C   0  0  0  0  0  0  0  0  0  0  0  0
    1.9824   -3.4893    0.6331 H   0  0  0  0  0  0  0  0  0  0  0  0
    3.2749   -1.8662    0.0664 C   0  0  0  0  0  0  0  0  0  0  0  0
    4.1671   -2.5034    0.0718 H   0  0  0  0  0  0  0  0  0  0  0  0
    3.3638   -0.4812   -0.2711 C   0  0  0  0  0  0  0  0  0  0  0  0
    2.1633    0.2720   -0.2889 C   0  0  0  0  0  0  0  0  0  0  0  0
    2.1762    1.3154   -0.6257 H   0  0  0  0  0  0  0  0  0  0  0  0
   -0.4067   -2.3076    0.8172 C   0  0  2  0  0  3  0  0  0  0  0  0
    4.6311    1.5011   -0.9493 C   0  0  0  0  0  0  0  0  0  0  0  0
    4.0543    1.7274   -1.8751 H   0  0  0  0  0  0  0  0  0  0  0  0
    5.6821    1.7929   -1.1241 H   0  0  0  0  0  0  0  0  0  0  0  0
    4.2281    2.1503   -0.1391 H   0  0  0  0  0  0  0  0  0  0  0  0
   -1.6047   -4.3118    1.0687 C   0  0  0  0  0  0  0  0  0  0  0  0
   -2.0438   -4.0455    2.0503 H   0  0  0  0  0  0  0  0  0  0  0  0
   -1.3843   -5.3925    1.0201 H   0  0  0  0  0  0  0  0  0  0  0  0
   -2.3079   -4.0138    0.2653 H   0  0  0  0  0  0  0  0  0  0  0  0
    5.7791   -0.7061   -0.6321 C   0  0  0  0  0  0  0  0  0  0  0  0
    6.6373   -0.0642   -0.8997 H   0  0  0  0  0  0  0  0  0  0  0  0
    5.7149   -1.5221   -1.3865 H   0  0  0  0  0  0  0  0  0  0  0  0
    5.9998   -1.1747    0.3524 H   0  0  0  0  0  0  0  0  0  0  0  0
   -1.3482    2.2868   -1.9059 C   0  0  0  0  0  0  0  0  0  0  0  0
   -2.4216    1.9972   -1.8851 H   0  0  0  0  0  0  0  0  0  0  0  0
   -0.7635    1.4183   -2.2580 H   0  0  0  0  0  0  0  0  0  0  0  0
   -1.2168    3.1392   -2.6049 H   0  0  0  0  0  0  0  0  0  0  0  0
    0.4530    2.3105    1.3039 N   0  0  0  0  0  0  0  0  0  0  0  0
  2 45  1  0  0  0  0
  3 19  1  0  0  0  0
  3  2  1  0  0  0  0
  4 33  1  0  0  0  0
  5  8  1  0  0  0  0
  5  7  1  0  0  0  0
  5  6  1  0  0  0  0
  9 15  1  0  0  0  0
  9  2  1  0  0  0  0
 10 45  1  0  0  0  0
 10 12  1  0  0  0  0
 10 13  1  0  0  0  0
 11 10  1  0  0  0  0
 14 25  1  0  0  0  0
 15 17  1  0  0  0  0
 16 15  1  0  0  0  0
 18 15  1  0  0  0  0
 19 20  1  0  0  0  0
 20 28  1  0  0  0  0
 21 20  2  0  0  0  0
 21 22  1  0  0  0  0
 23 24  1  0  0  0  0
 23 21  1  0  0  0  0
 25 23  2  0  0  0  0
 26 25  1  0  0  0  0
 26 19  2  0  0  0  0
 27 26  1  0  0  0  0
 28  4  1  0  0  0  0
 28  1  1  1  0  0  0
 29 14  1  0  0  0  0
 29 32  1  0  0  0  0
 30 29  1  0  0  0  0
 31 29  1  0  0  0  0
 33 34  1  0  0  0  0
 35 33  1  0  0  0  0
 36 33  1  0  0  0  0
 37 14  1  0  0  0  0
 37 40  1  0  0  0  0
 38 37  1  0  0  0  0
 39 37  1  0  0  0  0
 41 42  1  0  0  0  0
 41  9  1  0  0  0  0
 43 41  1  0  0  0  0
 44 41  1  0  0  0  0
 45  5  1  0  0  0  0
M  END
