2,3
q = -1.0

 27 27  0  0  0  0  0  0  0  0999 V2000
    7.1905   -0.9300   -1.1477 Cl  0  0  0  0  0  0  0  0  0  0  0  0
    1.0106   -1.5300    0.5076 N   0  0  0  0  0  2  0  0  0  0  0  0
    1.5246    0.6757   -0.9518 O   0  5  0  0  0  0  0  0  0  0  0  0
    3.2312   -0.9138   -0.2872 C   0  0  0  0  0  0  0  0  0  0  0  0
    2.7726    0.2515   -1.0000 C   0  0  0  0  0  0  0  0  0  0  0  0
    3.7124    1.0011   -1.7607 C   0  0  0  0  0  0  0  0  0  0  0  0
    3.3393    1.8803   -2.3058 H   0  0  0  0  0  0  0  0  0  0  0  0
    5.0557    0.6467   -1.8043 C   0  0  0  0  0  0  0  0  0  0  0  0
    5.7777    1.2345   -2.3883 H   0  0  0  0  0  0  0  0  0  0  0  0
    5.5007   -0.4912   -1.0852 C   0  0  0  0  0  0  0  0  0  0  0  0
    4.6108   -1.2572   -0.3415 C   0  0  0  0  0  0  0  0  0  0  0  0
    4.9715   -2.1425    0.2023 H   0  0  0  0  0  0  0  0  0  0  0  0
    2.3240   -1.7162    0.4699 C   0  0  0  0  0  3  0  0  0  0  0  0
    2.7511   -2.5528    1.0566 H   0  0  0  0  0  0  0  0  0  0  0  0
    0.2161   -2.4628    1.3126 C   0  0  0  0  0  0  0  0  0  0  0  0
    0.8628   -3.2867    1.6890 H   0  0  0  0  0  0  0  0  0  0  0  0
   -0.5491   -2.9042    0.6384 H   0  0  0  0  0  0  0  0  0  0  0  0
   -0.4907   -1.7726    2.4833 C   0  0  0  0  0  0  0  0  0  0  0  0
    0.2714   -1.2990    3.1414 H   0  0  0  0  0  0  0  0  0  0  0  0
   -1.1121   -0.9419    2.0833 H   0  0  0  0  0  0  0  0  0  0  0  0
   -1.3723   -2.7247    3.2944 C   0  0  0  0  0  0  0  0  0  0  0  0
   -0.7506   -3.5580    3.6916 H   0  0  0  0  0  0  0  0  0  0  0  0
   -2.1130   -3.1994    2.6132 H   0  0  0  0  0  0  0  0  0  0  0  0
   -2.1014   -2.0291    4.4441 C   0  0  0  0  0  0  0  0  0  0  0  0
   -1.3852   -1.5720    5.1585 H   0  0  0  0  0  0  0  0  0  0  0  0
   -2.7379   -2.7355    5.0137 H   0  0  0  0  0  0  0  0  0  0  0  0
   -2.7565   -1.2159    4.0678 H   0  0  0  0  0  0  0  0  0  0  0  0
  1 10  1  0  0  0  0
  2 15  1  0  0  0  0
  4 13  1  0  0  0  0
  5  3  1  0  0  0  0
  5  4  2  0  0  0  0
  6  5  1  0  0  0  0
  7  6  1  0  0  0  0
  8  6  2  0  0  0  0
  8 10  1  0  0  0  0
  9  8  1  0  0  0  0
 10 11  2  0  0  0  0
 11  4  1  0  0  0  0
 11 12  1  0  0  0  0
 13  2  1  0  0  0  0
 13 14  1  0  0  0  0
 15 16  1  0  0  0  0
 15 18  1  0  0  0  0
 17 15  1  0  0  0  0
 18 19  1  0  0  0  0
 18 21  1  0  0  0  0
 20 18  1  0  0  0  0
 21 22  1  0  0  0  0
 21 24  1  0  0  0  0
 23 21  1  0  0  0  0
 24 26  1  0  0  0  0
 24 25  1  0  0  0  0
 27 24  1  0  0  0  0
M  CHG  1   3  -1
M  END
