1,2
q = -1.0

 46 48  0  0  1  0  0  0  0  0999 V2000
   -1.5493    1.1835    0.4438 O   0  5  0  0  0  0  0  0  0  0  0  0
    0.3352   -0.6331   -0.6616 N   0  0  0  0  0  2  0  0  0  0  0  0
    0.3673    1.7625   -0.7888 N   0  0  0  0  0  0  0  0  0  0  0  0
    2.2039    0.5358   -1.4337 N   0  0  0  0  0  0  0  0  0  0  0  0
    2.6859   -0.3660   -1.4056 H   0  0  0  0  0  0  0  0  0  0  0  0
    0.9330    0.5411   -0.9188 C   0  0  2  0  0  3  0  0  0  0  0  0
   -0.8060    1.9949   -0.2239 C   0  0  0  0  0  0  0  0  0  0  0  0
    1.0275   -1.8376   -0.9673 C   0  0  0  0  0  0  0  0  0  0  0  0
    0.8349   -2.4805   -2.2051 C   0  0  0  0  0  0  0  0  0  0  0  0
    0.1717   -2.0129   -2.9484 H   0  0  0  0  0  0  0  0  0  0  0  0
    1.4734   -3.7013   -2.4754 C   0  0  0  0  0  0  0  0  0  0  0  0
    1.3046   -4.1970   -3.4448 H   0  0  0  0  0  0  0  0  0  0  0  0
    2.3263   -4.3067   -1.5316 C   0  0  0  0  0  0  0  0  0  0  0  0
    2.5237   -3.6421   -0.2998 C   0  0  0  0  0  0  0  0  0  0  0  0
    3.1880   -4.0924    0.4557 H   0  0  0  0  0  0  0  0  0  0  0  0
    1.8901   -2.4274   -0.0145 C   0  0  0  0  0  0  0  0  0  0  0  0
    2.0137   -1.9178    0.9541 H   0  0  0  0  0  0  0  0  0  0  0  0
    3.0236   -5.6117   -1.8232 C   0  0  0  0  0  0  0  0  0  0  0  0
    2.8633   -6.3489   -1.0097 H   0  0  0  0  0  0  0  0  0  0  0  0
    4.1216   -5.4693   -1.9123 H   0  0  0  0  0  0  0  0  0  0  0  0
    2.6673   -6.0641   -2.7689 H   0  0  0  0  0  0  0  0  0  0  0  0
    3.0274    1.7213   -1.5609 C   0  0  0  0  0  0  0  0  0  0  0  0
    2.3254    2.5768   -1.6327 H   0  0  0  0  0  0  0  0  0  0  0  0
    3.6024    1.6738   -2.5099 H   0  0  0  0  0  0  0  0  0  0  0  0
    3.9764    1.9307   -0.3921 C   0  0  0  0  0  0  0  0  0  0  0  0
    5.2788    2.4168   -0.6139 C   0  0  0  0  0  0  0  0  0  0  0  0
    5.6149    2.6151   -1.6450 H   0  0  0  0  0  0  0  0  0  0  0  0
    6.1512    2.6483    0.4610 C   0  0  0  0  0  0  0  0  0  0  0  0
    7.1673    3.0269    0.2702 H   0  0  0  0  0  0  0  0  0  0  0  0
    5.7307    2.3872    1.7744 C   0  0  0  0  0  0  0  0  0  0  0  0
    6.4143    2.5627    2.6192 H   0  0  0  0  0  0  0  0  0  0  0  0
    4.4352    1.8951    2.0023 C   0  0  0  0  0  0  0  0  0  0  0  0
    4.0933    1.6827    3.0270 H   0  0  0  0  0  0  0  0  0  0  0  0
    3.5610    1.6672    0.9293 C   0  0  0  0  0  0  0  0  0  0  0  0
    2.5509    1.2765    1.1344 H   0  0  0  0  0  0  0  0  0  0  0  0
   -1.3609    3.3812   -0.3646 C   0  0  0  0  0  0  0  0  0  0  0  0
   -0.6845    4.3551   -1.1274 C   0  0  0  0  0  0  0  0  0  0  0  0
    0.2641    4.0750   -1.6054 H   0  0  0  0  0  0  0  0  0  0  0  0
   -1.2187    5.6425   -1.2657 C   0  0  0  0  0  0  0  0  0  0  0  0
   -0.6834    6.3959   -1.8637 H   0  0  0  0  0  0  0  0  0  0  0  0
   -2.4333    5.9737   -0.6417 C   0  0  0  0  0  0  0  0  0  0  0  0
   -2.8513    6.9864   -0.7497 H   0  0  0  0  0  0  0  0  0  0  0  0
   -3.1108    5.0097    0.1233 C   0  0  0  0  0  0  0  0  0  0  0  0
   -4.0596    5.2669    0.6186 H   0  0  0  0  0  0  0  0  0  0  0  0
   -2.5786    3.7211    0.2613 C   0  0  0  0  0  0  0  0  0  0  0  0
   -3.0902    2.9566    0.8627 H   0  0  0  0  0  0  0  0  0  0  0  0
  3  7  2  0  0  0  0
  4  5  1  0  0  0  0
  4  6  1  0  0  0  0
  6  3  1  6  0  0  0
  6  2  1  0  0  0  0
  7  1  1  0  0  0  0
  8  2  1  0  0  0  0
  8 16  1  0  0  0  0
  9  8  2  0  0  0  0
 10  9  1  0  0  0  0
 11  9  1  0  0  0  0
 11 13  2  0  0  0  0
 12 11  1  0  0  0  0
 13 14  1  0  0  0  0
 14 16  2  0  0  0  0
 14 15  1  0  0  0  0
 16 17  1  0  0  0  0
 18 13  1  0  0  0  0
 18 19  1  0  0  0  0
 20 18  1  0  0  0  0
 21 18  1  0  0  0  0
 22  4  1  0  0  0  0
 22 25  1  0  0  0  0
 23 22  1  0  0  0  0
 24 22  1  0  0  0  0
 25 34  1  0  0  0  0
 26 25  2  0  0  0  0
 26 28  1  0  0  0  0
 27 26  1  0  0  0  0
 28 30  2  0  0  0  0
 29 28  1  0  0  0  0
 30 32  1  0  0  0  0
 30 31  1  0  0  0  0
 32 33  1  0  0  0  0
 34 35  1  0  0  0  0
 34 32  2  0  0  0  0
 36  7  1  0  0  0  0
 36 45  1  0  0  0  0
 37 36  2  0  0  0  0
 38 37  1  0  0  0  0
 39 37  1  0  0  0  0
 39 41  2  0  0  0  0
 40 39  1  0  0  0  0
 41 43  1  0  0  0  0
 42 41  1  0  0  0  0
 43 45  2  0  0  0  0
 43 44  1  0  0  0  0
 45 46  1  0  0  0  0
M  CHG  1   1  -1
M  END
