1,2
q = -1.0

 39 41  0  0  0  0  0  0  0  0999 V2000
   -0.9552   -1.6024   -0.3116 N   0  0  0  0  0  2  0  0  0  0  0  0
   -1.2990    0.9876   -0.8892 O   0  5  0  0  0  0  0  0  0  0  0  0
   -3.1360   -0.5073   -0.4100 C   0  0  0  0  0  0  0  0  0  0  0  0
   -4.5746   -0.6489   -0.2649 C   0  0  0  0  0  0  0  0  0  0  0  0
   -5.4260    0.4646   -0.5898 C   0  0  0  0  0  0  0  0  0  0  0  0
   -2.2745   -1.6388   -0.3167 C   0  0  0  0  0  0  0  0  0  0  0  0
   -2.7230   -2.6477   -0.2960 H   0  0  0  0  0  0  0  0  0  0  0  0
   -0.7333   -3.8115    0.4515 N   0  0  0  0  0  0  0  0  0  0  0  0
   -0.1017   -5.0000    0.5105 C   0  0  0  0  0  0  0  0  0  0  0  0
   -2.5740    0.7542   -0.8016 C   0  0  0  0  0  0  0  0  0  0  0  0
   -3.4639    1.8308   -1.1539 C   0  0  0  0  0  0  0  0  0  0  0  0
   -2.9996    2.7711   -1.4837 H   0  0  0  0  0  0  0  0  0  0  0  0
   -4.8269    1.6861   -1.0448 C   0  0  0  0  0  0  0  0  0  0  0  0
   -5.4901    2.5289   -1.2980 H   0  0  0  0  0  0  0  0  0  0  0  0
   -0.2540   -2.8452   -0.3357 C   0  0  0  0  0  0  0  0  0  0  0  0
    0.8822   -2.9936   -1.1823 C   0  0  0  0  0  0  0  0  0  0  0  0
   -6.8345    0.3423   -0.4525 C   0  0  0  0  0  3  0  0  0  0  0  0
   -7.4637    1.2096   -0.7080 H   0  0  0  0  0  0  0  0  0  0  0  0
   -5.1954   -1.8391    0.2057 C   0  0  0  0  0  0  0  0  0  0  0  0
   -4.5767   -2.6978    0.5036 H   0  0  0  0  0  0  0  0  0  0  0  0
    1.0679   -5.2338   -0.2330 C   0  0  0  0  0  0  0  0  0  0  0  0
    1.5931   -6.1975   -0.1559 H   0  0  0  0  0  0  0  0  0  0  0  0
    1.5442   -4.2261   -1.0858 C   0  0  0  0  0  0  0  0  0  0  0  0
    2.4432   -4.4087   -1.6920 H   0  0  0  0  0  0  0  0  0  0  0  0
   -7.4121   -0.8403   -0.0049 C   0  0  0  0  0  0  0  0  0  0  0  0
   -8.5041   -0.9240    0.0980 H   0  0  0  0  0  0  0  0  0  0  0  0
   -6.5793   -1.9344    0.3277 C   0  0  0  0  0  0  0  0  0  0  0  0
   -7.0266   -2.8700    0.6969 H   0  0  0  0  0  0  0  0  0  0  0  0
    1.3082   -1.9083   -2.1447 C   0  0  0  0  0  0  0  0  0  0  0  0
    0.5429   -1.8392   -2.9508 H   0  0  0  0  0  0  0  0  0  0  0  0
    1.2340   -0.9274   -1.6219 H   0  0  0  0  0  0  0  0  0  0  0  0
   -0.7077   -6.0420    1.4142 C   0  0  0  0  0  0  0  0  0  0  0  0
   -0.7788   -5.6575    2.4521 H   0  0  0  0  0  0  0  0  0  0  0  0
   -0.1198   -6.9790    1.4194 H   0  0  0  0  0  0  0  0  0  0  0  0
   -1.7435   -6.2753    1.0921 H   0  0  0  0  0  0  0  0  0  0  0  0
    2.7012   -2.0554   -2.7511 C   0  0  0  0  0  0  0  0  0  0  0  0
    3.4790   -2.1094   -1.9619 H   0  0  0  0  0  0  0  0  0  0  0  0
    2.9355   -1.1822   -3.3906 H   0  0  0  0  0  0  0  0  0  0  0  0
    2.7931   -2.9612   -3.3852 H   0  0  0  0  0  0  0  0  0  0  0  0
  2 10  1  0  0  0  0
  3  6  2  0  0  0  0
  3  4  1  0  0  0  0
  4 19  2  0  0  0  0
  5 17  1  0  0  0  0
  5  4  1  0  0  0  0
  6  1  1  0  0  0  0
  6  7  1  0  0  0  0
  8  9  1  0  0  0  0
  9 32  1  0  0  0  0
 10  3  1  0  0  0  0
 11 13  1  0  0  0  0
 11 10  2  0  0  0  0
 12 11  1  0  0  0  0
 13  5  2  0  0  0  0
 14 13  1  0  0  0  0
 15  1  1  0  0  0  0
 15  8  2  0  0  0  0
 16 23  2  0  0  0  0
 16 15  1  0  0  0  0
 17 25  1  0  0  0  0
 18 17  1  0  0  0  0
 19 27  1  0  0  0  0
 19 20  1  0  0  0  0
 21 22  1  0  0  0  0
 21  9  2  0  0  0  0
 23 21  1  0  0  0  0
 24 23  1  0  0  0  0
 25 26  1  0  0  0  0
 25 27  2  0  0  0  0
 27 28  1  0  0  0  0
 29 31  1  0  0  0  0
 29 16  1  0  0  0  0
 30 29  1  0  0  0  0
 32 34  1  0  0  0  0
 32 33  1  0  0  0  0
 35 32  1  0  0  0  0
 36 29  1  0  0  0  0
 36 37  1  0  0  0  0
 38 36  1  0  0  0  0
 39 36  1  0  0  0  0
M  CHG  1   2  -1
M  END
