1,2
q = -1.0, confidence = 0.012

 14 14  0  0  1  0  0  0  0  0999 V2000
    1.3832   -0.8322    0.2816 N   0  0  0  0  0  0  0  0  0  0  0  0
    0.7879    1.4073   -1.0049 O   0  0  0  0  0  1  0  0  0  0  0  0
    1.9427   -1.8903    0.9002 C   0  0  0  0  0  3  0  0  0  0  0  0
    1.3196   -2.7007    1.3019 H   0  0  0  0  0  0  0  0  0  0  0  0
    3.3619   -1.7696    0.9133 C   0  0  0  0  0  0  0  0  0  0  0  0
    4.0657   -2.4891    1.3482 H   0  0  0  0  0  0  0  0  0  0  0  0
    3.6715   -0.5695    0.2622 C   0  0  0  0  0  0  0  0  0  0  0  0
    4.6682   -0.1512    0.0789 H   0  0  0  0  0  0  0  0  0  0  0  0
    2.4259    0.0051   -0.1269 C   0  0  0  0  0  0  0  0  0  0  0  0
    2.0386    1.1816   -0.8221 C   0  0  1  0  0  3  0  0  0  0  0  0
    3.0252    2.1687   -1.3739 C   0  0  0  0  0  0  0  0  0  0  0  0
    3.0060    2.1170   -2.4825 H   0  0  0  0  0  0  0  0  0  0  0  0
    4.0563    1.9769   -1.0269 H   0  0  0  0  0  0  0  0  0  0  0  0
    2.7213    3.1980   -1.0986 H   0  0  0  0  0  0  0  0  0  0  0  0
  1  3  1  0  0  0  0
  3  5  1  0  0  0  0
  3  4  1  0  0  0  0
  5  6  1  0  0  0  0
  7  5  2  0  0  0  0
  8  7  1  0  0  0  0
  9  7  1  0  0  0  0
  9  1  2  0  0  0  0
 10  2  1  6  0  0  0
 10  9  1  0  0  0  0
 11 14  1  0  0  0  0
 11 13  1  0  0  0  0
 11 10  1  0  0  0  0
 12 11  1  0  0  0  0
M  END
