1,6
q = -1.0

 41 42  0  0  0  0  0  0  0  0999 V2000
    2.4986   -0.2964   -0.4429 O   0  5  0  0  0  0  0  0  0  0  0  0
   -5.7479    0.7022    0.3118 O   0  0  0  0  0  0  0  0  0  0  0  0
   -4.2346    2.3779    1.7367 O   0  0  0  0  0  0  0  0  0  0  0  0
    5.0242    0.2076   -0.7073 O   0  0  0  0  0  0  0  0  0  0  0  0
   -4.6755   -0.8556   -1.6461 O   0  0  0  0  0  0  0  0  0  0  0  0
   -0.2027    0.6913   -0.4879 N   0  0  0  0  0  2  0  0  0  0  0  0
    0.4145    1.7407   -0.9753 C   0  0  0  0  0  3  0  0  0  0  0  0
   -0.2267    2.6060   -1.2356 H   0  0  0  0  0  0  0  0  0  0  0  0
    1.8171    1.9133   -1.2011 C   0  0  0  0  0  0  0  0  0  0  0  0
   -1.6221    0.7558   -0.3284 C   0  0  0  0  0  0  0  0  0  0  0  0
   -4.1354   -1.6656   -2.6788 C   0  0  0  0  0  0  0  0  0  0  0  0
   -3.4047   -2.4063   -2.2866 H   0  0  0  0  0  0  0  0  0  0  0  0
   -3.6270   -1.0556   -3.4575 H   0  0  0  0  0  0  0  0  0  0  0  0
   -4.9899   -2.2009   -3.1320 H   0  0  0  0  0  0  0  0  0  0  0  0
    2.7731    0.8847   -0.8943 C   0  0  0  0  0  0  0  0  0  0  0  0
   -4.4056    0.7407    0.0619 C   0  0  0  0  0  0  0  0  0  0  0  0
    4.1753    1.2076   -1.0774 C   0  0  0  0  0  0  0  0  0  0  0  0
   -6.5643    1.3513   -0.6582 C   0  0  0  0  0  0  0  0  0  0  0  0
   -6.3142    2.4332   -0.7375 H   0  0  0  0  0  0  0  0  0  0  0  0
   -7.6110    1.2506   -0.3125 H   0  0  0  0  0  0  0  0  0  0  0  0
   -6.4659    0.8787   -1.6593 H   0  0  0  0  0  0  0  0  0  0  0  0
   -3.8125   -0.0810   -0.9335 C   0  0  0  0  0  0  0  0  0  0  0  0
    4.5654    2.4451   -1.5848 C   0  0  0  0  0  0  0  0  0  0  0  0
    5.6310    2.6674   -1.7339 H   0  0  0  0  0  0  0  0  0  0  0  0
   -3.5820    1.5994    0.8318 C   0  0  0  0  0  0  0  0  0  0  0  0
    6.4096    0.4285   -0.8597 C   0  0  0  0  0  0  0  0  0  0  0  0
    6.9158   -0.4898   -0.5078 H   0  0  0  0  0  0  0  0  0  0  0  0
    6.7638    1.2935   -0.2527 H   0  0  0  0  0  0  0  0  0  0  0  0
    6.6859    0.6086   -1.9235 H   0  0  0  0  0  0  0  0  0  0  0  0
   -2.1818    1.6008    0.6454 C   0  0  0  0  0  0  0  0  0  0  0  0
   -1.5192    2.2364    1.2460 H   0  0  0  0  0  0  0  0  0  0  0  0
   -2.4203   -0.0785   -1.1271 C   0  0  0  0  0  0  0  0  0  0  0  0
   -1.9100   -0.7237   -1.8563 H   0  0  0  0  0  0  0  0  0  0  0  0
    3.5998    3.4332   -1.9153 C   0  0  0  0  0  0  0  0  0  0  0  0
    3.9311    4.4004   -2.3195 H   0  0  0  0  0  0  0  0  0  0  0  0
    2.2559    3.1719   -1.7187 C   0  0  0  0  0  0  0  0  0  0  0  0
    1.4966    3.9329   -1.9571 H   0  0  0  0  0  0  0  0  0  0  0  0
   -3.4641    3.2377    2.5506 C   0  0  0  0  0  0  0  0  0  0  0  0
   -2.7442    2.6748    3.1879 H   0  0  0  0  0  0  0  0  0  0  0  0
   -4.1773    3.7723    3.2052 H   0  0  0  0  0  0  0  0  0  0  0  0
   -2.8950    3.9838    1.9508 H   0  0  0  0  0  0  0  0  0  0  0  0
  3 38  1  0  0  0  0
  5 22  1  0  0  0  0
  6 10  1  0  0  0  0
  7  6  1  0  0  0  0
  8  7  1  0  0  0  0
  9  7  1  0  0  0  0
  9 15  1  0  0  0  0
 10 30  1  0  0  0  0
 11 12  1  0  0  0  0
 11  5  1  0  0  0  0
 13 11  1  0  0  0  0
 14 11  1  0  0  0  0
 15  1  1  0  0  0  0
 16  2  1  0  0  0  0
 16 25  1  0  0  0  0
 17 15  2  0  0  0  0
 17  4  1  0  0  0  0
 18 20  1  0  0  0  0
 18  2  1  0  0  0  0
 19 18  1  0  0  0  0
 21 18  1  0  0  0  0
 22 16  2  0  0  0  0
 23 17  1  0  0  0  0
 24 23  1  0  0  0  0
 25  3  1  0  0  0  0
 26  4  1  0  0  0  0
 26 27  1  0  0  0  0
 26 28  1  0  0  0  0
 29 26  1  0  0  0  0
 30 25  2  0  0  0  0
 30 31  1  0  0  0  0
 32 22  1  0  0  0  0
 32 10  2  0  0  0  0
 33 32  1  0  0  0  0
 34 36  1  0  0  0  0
 34 23  2  0  0  0  0
 35 34  1  0  0  0  0
 36  9  2  0  0  0  0
 37 36  1  0  0  0  0
 38 39  1  0  0  0  0
 38 40  1  0  0  0  0
 41 38  1  0  0  0  0
M  CHG  1   1  -1
M  END
