1,2
q = -1.0

 30 31  0  0  0  0  0  0  0  0999 V2000
    1.3336   -1.2383   -0.3819 O   0  5  0  0  0  0  0  0  0  0  0  0
    1.2310    1.4590   -0.2105 N   0  0  0  0  0  2  0  0  0  0  0  0
    3.3001    0.1240   -0.0955 C   0  0  0  0  0  0  0  0  0  0  0  0
    2.6260   -1.1183   -0.2961 C   0  0  0  0  0  0  0  0  0  0  0  0
    3.4082   -2.3194   -0.4425 C   0  0  0  0  0  0  0  0  0  0  0  0
    4.7783   -2.2890   -0.3388 C   0  0  0  0  0  0  0  0  0  0  0  0
    5.4894   -1.0707   -0.0825 C   0  0  0  0  0  0  0  0  0  0  0  0
    6.9041   -1.0610    0.0458 C   0  0  0  0  0  3  0  0  0  0  0  0
    7.5951    0.1175    0.3010 C   0  0  0  0  0  0  0  0  0  0  0  0
    6.8712    1.3243    0.4430 C   0  0  0  0  0  0  0  0  0  0  0  0
    5.4842    1.3410    0.3234 C   0  0  0  0  0  0  0  0  0  0  0  0
    4.7459    0.1554    0.0477 C   0  0  0  0  0  0  0  0  0  0  0  0
    2.5380    1.3302   -0.1458 C   0  0  0  0  0  0  0  0  0  0  0  0
    0.7190    2.8492   -0.3782 C   0  0  0  0  0  0  0  0  0  0  0  0
    0.7231    3.5791    0.9681 C   0  0  0  0  0  0  0  0  0  0  0  0
    1.4406    3.6266   -1.4842 C   0  0  0  0  0  0  0  0  0  0  0  0
    2.8620   -3.2544   -0.6344 H   0  0  0  0  0  0  0  0  0  0  0  0
    5.3587   -3.2194   -0.4458 H   0  0  0  0  0  0  0  0  0  0  0  0
    7.4458   -2.0143   -0.0601 H   0  0  0  0  0  0  0  0  0  0  0  0
    8.6908    0.1131    0.3991 H   0  0  0  0  0  0  0  0  0  0  0  0
    7.4065    2.2617    0.6586 H   0  0  0  0  0  0  0  0  0  0  0  0
    4.9586    2.2961    0.4655 H   0  0  0  0  0  0  0  0  0  0  0  0
    3.1242    2.2648   -0.1890 H   0  0  0  0  0  0  0  0  0  0  0  0
   -0.3349    2.7272   -0.6828 H   0  0  0  0  0  0  0  0  0  0  0  0
    0.1479    2.9973    1.7132 H   0  0  0  0  0  0  0  0  0  0  0  0
    0.2570    4.5804    0.8684 H   0  0  0  0  0  0  0  0  0  0  0  0
    1.7575    3.7192    1.3471 H   0  0  0  0  0  0  0  0  0  0  0  0
    2.4778    3.9114   -1.2110 H   0  0  0  0  0  0  0  0  0  0  0  0
    0.8914    4.5671   -1.6896 H   0  0  0  0  0  0  0  0  0  0  0  0
    1.4795    3.0395   -2.4232 H   0  0  0  0  0  0  0  0  0  0  0  0
  1  4  1  0  0  0  0
  2 13  1  0  0  0  0
  3 12  1  0  0  0  0
  4  3  1  0  0  0  0
  5  6  1  0  0  0  0
  5  4  2  0  0  0  0
  6  7  2  0  0  0  0
  7  8  1  0  0  0  0
  7 12  1  0  0  0  0
  8  9  1  0  0  0  0
  9 20  1  0  0  0  0
  9 10  2  0  0  0  0
 10 21  1  0  0  0  0
 11 10  1  0  0  0  0
 11 22  1  0  0  0  0
 12 11  2  0  0  0  0
 13  3  2  0  0  0  0
 14  2  1  0  0  0  0
 14 15  1  0  0  0  0
 15 27  1  0  0  0  0
 15 25  1  0  0  0  0
 16 28  1  0  0  0  0
 16 14  1  0  0  0  0
 17  5  1  0  0  0  0
 18  6  1  0  0  0  0
 19  8  1  0  0  0  0
 23 13  1  0  0  0  0
 24 14  1  0  0  0  0
 26 15  1  0  0  0  0
 29 16  1  0  0  0  0
 30 16  1  0  0  0  0
M  CHG  1   1  -1
M  END
