1,2
q = -1.0

 27 27  0  0  1  0  0  0  0  0999 V2000
   -0.4062    1.2580    0.5278 N   0  0  0  0  0  2  0  0  0  0  0  0
   -1.5924   -1.1663   -0.5382 O   0  0  0  0  0  1  0  0  0  0  0  0
   -2.7161   -0.6053   -0.1775 C   0  0  1  0  0  3  0  0  0  0  0  0
   -2.8206    0.6871    0.4458 C   0  0  0  0  0  0  0  0  0  0  0  0
   -4.1087    1.1992    0.7822 C   0  0  0  0  0  0  0  0  0  0  0  0
   -4.1663    2.1946    1.2514 H   0  0  0  0  0  0  0  0  0  0  0  0
   -5.2666    0.4779    0.5304 C   0  0  0  0  0  0  0  0  0  0  0  0
   -6.2507    0.8854    0.8021 H   0  0  0  0  0  0  0  0  0  0  0  0
   -5.1606   -0.7914   -0.0925 C   0  0  0  0  0  0  0  0  0  0  0  0
   -6.0722   -1.3725   -0.3028 H   0  0  0  0  0  0  0  0  0  0  0  0
   -3.9245   -1.3184   -0.4447 C   0  0  0  0  0  0  0  0  0  0  0  0
   -3.8293   -2.3005   -0.9290 H   0  0  0  0  0  0  0  0  0  0  0  0
   -1.6849    1.5258    0.6736 C   0  0  0  0  0  0  0  0  0  0  0  0
   -1.9201    2.5572    1.0003 H   0  0  0  0  0  0  0  0  0  0  0  0
    0.5289    2.3771    0.6766 C   0  0  0  0  0  0  0  0  0  0  0  0
    1.3548    2.0637    1.3426 H   0  0  0  0  0  0  0  0  0  0  0  0
   -0.0066    3.2287    1.1509 H   0  0  0  0  0  0  0  0  0  0  0  0
    1.1282    2.8392   -0.6660 C   0  0  0  0  0  0  0  0  0  0  0  0
    1.6113    1.9449   -1.1204 H   0  0  0  0  0  0  0  0  0  0  0  0
    0.0564    3.3436   -1.6350 C   0  0  0  0  0  0  0  0  0  0  0  0
   -0.6994    2.5629   -1.8543 H   0  0  0  0  0  0  0  0  0  0  0  0
    0.5073    3.6518   -2.5997 H   0  0  0  0  0  0  0  0  0  0  0  0
   -0.4742    4.2266   -1.2179 H   0  0  0  0  0  0  0  0  0  0  0  0
    2.2202    3.8796   -0.3993 C   0  0  0  0  0  0  0  0  0  0  0  0
    1.8048    4.7765    0.1081 H   0  0  0  0  0  0  0  0  0  0  0  0
    2.6835    4.2203   -1.3471 H   0  0  0  0  0  0  0  0  0  0  0  0
    3.0155    3.4531    0.2436 H   0  0  0  0  0  0  0  0  0  0  0  0
  1 13  1  0  0  0  0
  1 15  1  0  0  0  0
  3  2  1  6  0  0  0
  3  4  1  0  0  0  0
  4 13  2  0  0  0  0
  4  5  1  0  0  0  0
  5  6  1  0  0  0  0
  7  5  2  0  0  0  0
  7  8  1  0  0  0  0
  9  7  1  0  0  0  0
 10  9  1  0  0  0  0
 11  3  1  0  0  0  0
 11  9  2  0  0  0  0
 12 11  1  0  0  0  0
 13 14  1  0  0  0  0
 15 17  1  0  0  0  0
 15 16  1  0  0  0  0
 18 24  1  0  0  0  0
 18 15  1  0  0  0  0
 19 18  1  0  0  0  0
 20 23  1  0  0  0  0
 20 18  1  0  0  0  0
 21 20  1  0  0  0  0
 22 20  1  0  0  0  0
 24 25  1  0  0  0  0
 24 27  1  0  0  0  0
 26 24  1  0  0  0  0
M  END
