1,12
q = -2.0, confidence = 0.914

 15 15  0  0  0  0  0  0  0  0999 V2000
   -0.6662    2.7251   -0.0690 O   0  5  0  0  0  0  0  0  0  0  0  0
   -1.9041    3.2087    0.0209 C   0  0  0  0  0  0  0  0  0  0  0  0
   -2.1209    4.4214    0.1428 O   0  0  0  0  0  0  0  0  0  0  0  0
   -2.9800    2.1974   -0.0580 C   0  0  0  0  0  0  0  0  0  0  0  0
   -4.3203    2.5647   -0.0100 C   0  0  0  0  0  3  0  0  0  0  0  0
   -4.7805    3.8234    0.2043 N   0  0  0  0  0  0  0  0  0  0  0  0
   -5.3458    1.5244   -0.2151 C   0  0  0  0  0  0  0  0  0  0  0  0
   -6.5589    1.7476   -0.2243 O   0  0  0  0  0  0  0  0  0  0  0  0
   -4.8120    0.2587   -0.4299 N   0  0  0  0  0  0  0  0  0  0  0  0
   -3.4612   -0.1230   -0.4790 C   0  0  0  0  0  0  0  0  0  0  0  0
   -3.1671   -1.3053   -0.7277 O   0  0  0  0  0  0  0  0  0  0  0  0
   -2.5635    0.8751   -0.2458 N   0  0  0  0  0  0  0  0  0  0  0  0
   -5.7766    3.9706    0.0387 H   0  0  0  0  0  0  0  0  0  0  0  0
   -4.0753    4.5706    0.1976 H   0  0  0  0  0  0  0  0  0  0  0  0
   -5.4823   -0.4955   -0.6028 H   0  0  0  0  0  0  0  0  0  0  0  0
  1  2  1  0  0  0  0
  2  3  2  0  0  0  0
  4  5  1  0  0  0  0
  4  2  1  0  0  0  0
  5  6  1  0  0  0  0
  7  5  1  0  0  0  0
  8  7  2  0  0  0  0
  9  7  1  0  0  0  0
 10  9  1  0  0  0  0
 10 12  1  0  0  0  0
 11 10  2  0  0  0  0
 12  4  2  0  0  0  0
 13  6  1  0  0  0  0
 14  6  1  0  0  0  0
 15  9  1  0  0  0  0
M  CHG  1   1  -1
M  END
