6,7
q = -1.0

 28 29  0  0  0  0  0  0  0  0999 V2000
    1.1442    3.5688    1.4061 F   0  0  0  0  0  0  0  0  0  0  0  0
    3.6650    4.4135    0.8128 F   0  0  0  0  0  0  0  0  0  0  0  0
    5.0538    3.2387   -1.2399 F   0  0  0  0  0  0  0  0  0  0  0  0
    3.9024    1.2424   -2.7041 F   0  0  0  0  0  0  0  0  0  0  0  0
    1.3787    0.4148   -2.1476 F   0  0  0  0  0  0  0  0  0  0  0  0
   -1.7724   -0.0056    1.5964 O   0  5  0  0  0  0  0  0  0  0  0  0
   -0.0472    1.4203    0.0809 N   0  0  0  0  0  2  0  0  0  0  0  0
   -2.7099    0.8579    1.2769 C   0  0  0  0  0  0  0  0  0  0  0  0
   -4.0300    0.6738    1.7866 C   0  0  0  0  0  0  0  0  0  0  0  0
   -5.0223    1.5801    1.3900 C   0  0  0  0  0  0  0  0  0  0  0  0
   -6.0478    1.4315    1.7640 H   0  0  0  0  0  0  0  0  0  0  0  0
   -4.7504    2.6662    0.5284 C   0  0  0  0  0  0  0  0  0  0  0  0
   -5.5591    3.3508    0.2358 H   0  0  0  0  0  0  0  0  0  0  0  0
   -3.4539    2.8687    0.0654 C   0  0  0  0  0  0  0  0  0  0  0  0
   -3.2184    3.7179   -0.5948 H   0  0  0  0  0  0  0  0  0  0  0  0
   -2.4154    1.9703    0.4258 C   0  0  0  0  0  0  0  0  0  0  0  0
   -4.2913   -0.4818    2.7097 C   0  0  0  0  0  0  0  0  0  0  0  0
   -3.9844   -1.4431    2.2518 H   0  0  0  0  0  0  0  0  0  0  0  0
   -5.3602   -0.5447    2.9859 H   0  0  0  0  0  0  0  0  0  0  0  0
   -3.6875   -0.3862    3.6360 H   0  0  0  0  0  0  0  0  0  0  0  0
   -1.0802    2.2142   -0.0518 C   0  0  0  0  0  3  0  0  0  0  0  0
   -0.9336    3.1747   -0.5876 H   0  0  0  0  0  0  0  0  0  0  0  0
    1.2069    1.9377   -0.3236 C   0  0  0  0  0  0  0  0  0  0  0  0
    1.8077    2.9887    0.4033 C   0  0  0  0  0  0  0  0  0  0  0  0
    3.1049    3.4330    0.1014 C   0  0  0  0  0  0  0  0  0  0  0  0
    3.8105    2.8450   -0.9609 C   0  0  0  0  0  0  0  0  0  0  0  0
    3.2169    1.8184   -1.7125 C   0  0  0  0  0  0  0  0  0  0  0  0
    1.9210    1.3825   -1.4028 C   0  0  0  0  0  0  0  0  0  0  0  0
  3 26  1  0  0  0  0
  4 27  1  0  0  0  0
  5 28  1  0  0  0  0
  8  6  1  0  0  0  0
  8  9  1  0  0  0  0
  9 17  1  0  0  0  0
 10 11  1  0  0  0  0
 10  9  2  0  0  0  0
 12 10  1  0  0  0  0
 13 12  1  0  0  0  0
 14 16  1  0  0  0  0
 14 12  2  0  0  0  0
 15 14  1  0  0  0  0
 16  8  2  0  0  0  0
 17 19  1  0  0  0  0
 17 20  1  0  0  0  0
 18 17  1  0  0  0  0
 21  7  1  0  0  0  0
 21 16  1  0  0  0  0
 22 21  1  0  0  0  0
 23  7  1  0  0  0  0
 23 24  1  0  0  0  0
 24  1  1  0  0  0  0
 25 24  2  0  0  0  0
 25  2  1  0  0  0  0
 26 25  1  0  0  0  0
 27 28  1  0  0  0  0
 27 26  2  0  0  0  0
 28 23  2  0  0  0  0
M  CHG  1   6  -1
M  END
