5,6
q = -1.0

 16 16  0  0  1  0  0  0  0  0999 V2000
   -5.0698   -0.1493    1.2099 F   0  0  0  0  0  0  0  0  0  0  0  0
   -5.0705   -1.4387   -0.5528 F   0  0  0  0  0  0  0  0  0  0  0  0
   -5.0776    0.7366   -0.7863 F   0  0  0  0  0  0  0  0  0  0  0  0
   -0.5983    3.2128   -0.4735 O   0  5  0  0  0  0  0  0  0  0  0  0
    1.1789    1.8583   -0.1939 O   0  0  0  0  0  0  0  0  0  0  0  0
   -0.2932   -0.2765    0.1100 N   0  0  0  0  0  2  0  0  0  0  0  0
   -0.1198    2.1128   -0.2736 C   0  0  0  0  0  0  0  0  0  0  0  0
   -0.9696    0.8779   -0.0981 C   0  0  1  0  0  3  0  0  0  0  0  0
   -2.3647    0.9178   -0.1716 C   0  0  0  0  0  0  0  0  0  0  0  0
   -3.0802   -0.2774   -0.0306 C   0  0  0  0  0  0  0  0  0  0  0  0
   -2.3708   -1.4758    0.1627 C   0  0  0  0  0  0  0  0  0  0  0  0
   -0.9762   -1.4385    0.2328 C   0  0  0  0  0  0  0  0  0  0  0  0
   -4.6044   -0.2803   -0.0476 C   0  0  0  0  0  0  0  0  0  0  0  0
   -2.8460    1.8916   -0.3474 H   0  0  0  0  0  0  0  0  0  0  0  0
   -2.8972   -2.4362    0.2545 H   0  0  0  0  0  0  0  0  0  0  0  0
   -0.3859   -2.3530    0.3836 H   0  0  0  0  0  0  0  0  0  0  0  0
  2 13  1  0  0  0  0
  3 13  1  0  0  0  0
  4  7  1  0  0  0  0
  6 12  1  0  0  0  0
  7  5  2  0  0  0  0
  8  7  1  6  0  0  0
  8  6  1  0  0  0  0
  9  8  1  0  0  0  0
  9 10  2  0  0  0  0
 10 11  1  0  0  0  0
 11 12  2  0  0  0  0
 11 15  1  0  0  0  0
 12 16  1  0  0  0  0
 13 10  1  0  0  0  0
 13  1  1  0  0  0  0
 14  9  1  0  0  0  0
M  CHG  1   4  -1
M  END
