3,4
q = -1.0

 13 13  0  0  1  0  0  0  0  0999 V2000
   -5.2422   -0.4729   -0.0994 Cl  0  0  0  0  0  0  0  0  0  0  0  0
   -1.1569    3.1526   -0.4733 O   0  5  0  0  0  0  0  0  0  0  0  0
    0.6607    1.8545   -0.1929 O   0  0  0  0  0  0  0  0  0  0  0  0
   -0.7397   -0.3257    0.1189 N   0  0  0  0  0  2  0  0  0  0  0  0
   -1.4555    0.8056   -0.0938 C   0  0  2  0  0  3  0  0  0  0  0  0
   -2.8482    0.8097   -0.1662 C   0  0  0  0  0  0  0  0  0  0  0  0
   -3.5304   -0.4103   -0.0213 C   0  0  0  0  0  0  0  0  0  0  0  0
   -2.7825   -1.5892    0.1852 C   0  0  0  0  0  0  0  0  0  0  0  0
   -1.3920   -1.5048    0.2522 C   0  0  0  0  0  0  0  0  0  0  0  0
   -0.6455    2.0677   -0.2723 C   0  0  0  0  0  0  0  0  0  0  0  0
   -3.3585    1.7686   -0.3391 H   0  0  0  0  0  0  0  0  0  0  0  0
   -3.2825   -2.5612    0.2944 H   0  0  0  0  0  0  0  0  0  0  0  0
   -0.7782   -2.4024    0.4121 H   0  0  0  0  0  0  0  0  0  0  0  0
  1  7  1  0  0  0  0
  2 10  1  0  0  0  0
  4  9  1  0  0  0  0
  5 10  1  6  0  0  0
  5  4  1  0  0  0  0
  6  5  1  0  0  0  0
  6  7  2  0  0  0  0
  7  8  1  0  0  0  0
  8  9  2  0  0  0  0
  8 12  1  0  0  0  0
  9 13  1  0  0  0  0
 10  3  2  0  0  0  0
 11  6  1  0  0  0  0
M  CHG  1   2  -1
M  END
