1,5
q = -1.0

 17 18  0  0  1  0  0  0  0  0999 V2000
    0.4063    0.6269   -2.4718 O   0  5  0  0  0  0  0  0  0  0  0  0
    0.5761    2.7974   -3.1799 O   0  0  0  0  0  0  0  0  0  0  0  0
    0.1387    1.9035   -2.4575 C   0  0  0  0  0  0  0  0  0  0  0  0
   -0.8468    2.1996   -1.3725 C   0  0  1  0  0  3  0  0  0  0  0  0
   -1.2662    1.2251   -0.5648 N   0  0  0  0  0  2  0  0  0  0  0  0
   -2.1736    1.7914    0.3208 C   0  0  0  0  0  0  0  0  0  0  0  0
   -2.2731    3.1869    0.0143 C   0  0  0  0  0  0  0  0  0  0  0  0
   -3.0907    4.0516    0.7571 C   0  0  0  0  0  0  0  0  0  0  0  0
   -3.1594    5.1228    0.5196 H   0  0  0  0  0  0  0  0  0  0  0  0
   -3.8105    3.4896    1.8184 C   0  0  0  0  0  0  0  0  0  0  0  0
   -4.4637    4.1345    2.4247 H   0  0  0  0  0  0  0  0  0  0  0  0
   -3.7220    2.1093    2.1263 C   0  0  0  0  0  0  0  0  0  0  0  0
   -4.3117    1.7092    2.9642 H   0  0  0  0  0  0  0  0  0  0  0  0
   -2.9092    1.2436    1.3867 C   0  0  0  0  0  0  0  0  0  0  0  0
   -2.8447    0.1730    1.6187 H   0  0  0  0  0  0  0  0  0  0  0  0
   -1.4213    3.3908   -1.0581 N   0  0  0  0  0  0  0  0  0  0  0  0
   -1.2040    4.2538   -1.5597 H   0  0  0  0  0  0  0  0  0  0  0  0
  1  3  1  0  0  0  0
  2  3  2  0  0  0  0
  4  3  1  1  0  0  0
  4 16  1  0  0  0  0
  4  5  1  0  0  0  0
  5  6  1  0  0  0  0
  6 14  1  0  0  0  0
  7  6  2  0  0  0  0
  7  8  1  0  0  0  0
  8 10  2  0  0  0  0
  9  8  1  0  0  0  0
 10 12  1  0  0  0  0
 10 11  1  0  0  0  0
 12 13  1  0  0  0  0
 14 15  1  0  0  0  0
 14 12  2  0  0  0  0
 16  7  1  0  0  0  0
 17 16  1  0  0  0  0
M  CHG  1   1  -1
M  END
