2,4
q = -1.0

 37 38  0  0  1  0  0  0  0  0999 V2000
   -2.9779    0.8475   -0.2793 S   0  0  0  0  0  0  0  0  0  0  0  0
   -1.3207   -1.9008   -0.6050 N   0  0  0  0  0  2  0  0  0  0  0  0
   -2.8307   -0.2712   -1.4181 N   0  0  0  0  0  2  0  0  0  0  0  0
   -1.8602    0.7445    0.7557 O   0  0  0  0  0  1  0  0  0  0  0  0
   -3.0355    2.1797   -0.9667 O   0  0  0  0  0  1  0  0  0  0  0  0
   -1.0260   -3.1708   -0.2238 C   0  0  2  0  0  3  0  0  0  0  0  0
   -2.0131   -4.1738   -0.2542 C   0  0  0  0  0  0  0  0  0  0  0  0
   -1.7473   -5.1966    0.0477 H   0  0  0  0  0  0  0  0  0  0  0  0
   -3.3149   -3.8579   -0.6686 C   0  0  0  0  0  0  0  0  0  0  0  0
   -4.0955   -4.6340   -0.6907 H   0  0  0  0  0  0  0  0  0  0  0  0
   -3.6109   -2.5479   -1.0434 C   0  0  0  0  0  0  0  0  0  0  0  0
   -4.6143   -2.2369   -1.3629 H   0  0  0  0  0  0  0  0  0  0  0  0
   -2.5859   -1.5743   -1.0030 C   0  0  0  0  0  0  0  0  0  0  0  0
    0.3667   -3.4818    0.2374 C   0  0  0  0  0  0  0  0  0  0  0  0
    1.1237   -3.2724   -0.5449 H   0  0  0  0  0  0  0  0  0  0  0  0
    0.4517   -4.5415    0.5403 H   0  0  0  0  0  0  0  0  0  0  0  0
    0.6532   -2.8325    1.0876 H   0  0  0  0  0  0  0  0  0  0  0  0
   -4.5420    0.5748    0.5875 C   0  0  0  0  0  0  0  0  0  0  0  0
   -5.7289    0.8503   -0.1519 C   0  0  0  0  0  0  0  0  0  0  0  0
   -6.9627    0.5896    0.4668 C   0  0  0  0  0  0  0  0  0  0  0  0
   -7.8835    0.8039   -0.0995 H   0  0  0  0  0  0  0  0  0  0  0  0
   -7.0591    0.0603    1.7652 C   0  0  0  0  0  0  0  0  0  0  0  0
   -5.8659   -0.2316    2.4416 C   0  0  0  0  0  0  0  0  0  0  0  0
   -5.9163   -0.6702    3.4510 H   0  0  0  0  0  0  0  0  0  0  0  0
   -4.5904    0.0018    1.8868 C   0  0  0  0  0  0  0  0  0  0  0  0
   -3.3923   -0.3885    2.7188 C   0  0  0  0  0  0  0  0  0  0  0  0
   -3.7318   -0.8538    3.6637 H   0  0  0  0  0  0  0  0  0  0  0  0
   -2.7555    0.4848    2.9540 H   0  0  0  0  0  0  0  0  0  0  0  0
   -2.7335   -1.1030    2.1886 H   0  0  0  0  0  0  0  0  0  0  0  0
   -8.4022   -0.1749    2.4066 C   0  0  0  0  0  0  0  0  0  0  0  0
   -8.8425    0.7810    2.7632 H   0  0  0  0  0  0  0  0  0  0  0  0
   -8.3271   -0.8513    3.2800 H   0  0  0  0  0  0  0  0  0  0  0  0
   -9.1249   -0.6123    1.6886 H   0  0  0  0  0  0  0  0  0  0  0  0
   -5.7286    1.3837   -1.5624 C   0  0  0  0  0  0  0  0  0  0  0  0
   -5.3421    2.4204   -1.5970 H   0  0  0  0  0  0  0  0  0  0  0  0
   -6.7532    1.3621   -1.9793 H   0  0  0  0  0  0  0  0  0  0  0  0
   -5.0575    0.7870   -2.2124 H   0  0  0  0  0  0  0  0  0  0  0  0
  1 18  1  0  0  0  0
  1  4  1  0  0  0  0
  2  6  1  0  0  0  0
  3 13  1  0  0  0  0
  3  1  1  0  0  0  0
  5  1  1  0  0  0  0
  6 14  1  1  0  0  0
  7  6  1  0  0  0  0
  7  8  1  0  0  0  0
  9  7  2  0  0  0  0
 10  9  1  0  0  0  0
 11 13  2  0  0  0  0
 11  9  1  0  0  0  0
 12 11  1  0  0  0  0
 13  2  1  0  0  0  0
 14 16  1  0  0  0  0
 14 17  1  0  0  0  0
 15 14  1  0  0  0  0
 18 25  1  0  0  0  0
 19 20  1  0  0  0  0
 19 18  2  0  0  0  0
 20 22  2  0  0  0  0
 21 20  1  0  0  0  0
 22 30  1  0  0  0  0
 22 23  1  0  0  0  0
 23 24  1  0  0  0  0
 25 23  2  0  0  0  0
 25 26  1  0  0  0  0
 26 28  1  0  0  0  0
 26 27  1  0  0  0  0
 29 26  1  0  0  0  0
 30 31  1  0  0  0  0
 30 32  1  0  0  0  0
 33 30  1  0  0  0  0
 34 19  1  0  0  0  0
 35 34  1  0  0  0  0
 36 34  1  0  0  0  0
 37 34  1  0  0  0  0
M  END
