1,23
q = -1.0, confidence = 0.0

 30 32  0  0  1  0  0  0  0  0999 V2000
    1.8859    0.5169   -0.6327 O   0  0  0  0  0  1  0  0  0  0  0  0
    2.9580   -0.1625   -0.4128 C   0  0  1  0  0  3  0  0  0  0  0  0
    2.9705   -1.5782   -0.2160 C   0  0  0  0  0  0  0  0  0  0  0  0
    4.2171   -2.3276    0.0333 C   0  0  0  0  0  0  0  0  0  0  0  0
    4.2382   -3.5500    0.2186 O   0  0  0  0  0  0  0  0  0  0  0  0
    6.6447   -2.3115    0.3063 C   0  0  0  0  0  0  0  0  0  0  0  0
    7.1441   -1.9474    1.2272 H   0  0  0  0  0  0  0  0  0  0  0  0
    7.3465   -2.2092   -0.5462 H   0  0  0  0  0  0  0  0  0  0  0  0
    6.3653   -3.3722    0.4303 H   0  0  0  0  0  0  0  0  0  0  0  0
    5.4114   -1.5769    0.0564 N   0  0  0  0  0  0  0  0  0  0  0  0
    5.4471   -0.1988   -0.1447 C   0  0  0  0  0  0  0  0  0  0  0  0
    4.2440    0.5311   -0.3883 C   0  0  0  0  0  0  0  0  0  0  0  0
    6.6711    0.5132   -0.1079 C   0  0  0  0  0  0  0  0  0  0  0  0
    7.6134   -0.0156    0.0783 H   0  0  0  0  0  0  0  0  0  0  0  0
    6.6921    1.8977   -0.3042 C   0  0  0  0  0  0  0  0  0  0  0  0
    7.6573    2.4255   -0.2637 H   0  0  0  0  0  0  0  0  0  0  0  0
    5.5067    2.6170   -0.5463 C   0  0  0  0  0  0  0  0  0  0  0  0
    5.5258    3.7071   -0.6854 H   0  0  0  0  0  0  0  0  0  0  0  0
    4.2965    1.9284   -0.5897 C   0  0  0  0  0  0  0  0  0  0  0  0
    3.3525    2.4572   -0.7714 H   0  0  0  0  0  0  0  0  0  0  0  0
    1.8149   -2.3987   -0.3240 C   0  0  0  0  0  0  0  0  0  0  0  0
    2.0136   -3.4887   -0.3057 H   0  0  0  0  0  0  0  0  0  0  0  0
    0.5729   -1.9641   -0.4436 N   0  0  0  0  0  2  0  0  0  0  0  0
   -0.4080   -2.9351   -0.5627 N   0  0  0  0  0  0  0  0  0  0  0  0
   -1.4560   -2.8871   -1.4520 C   0  0  0  0  0  0  0  0  0  0  0  0
   -1.5417   -2.0941   -2.2042 H   0  0  0  0  0  0  0  0  0  0  0  0
   -2.2770   -3.8989   -1.2363 N   0  0  0  0  0  0  0  0  0  0  0  0
   -1.7824   -4.6189   -0.1690 N   0  0  0  0  0  0  0  0  0  0  0  0
   -0.6640   -4.0382    0.2270 C   0  0  0  0  0  0  0  0  0  0  0  0
   -0.0171   -4.3513    1.0554 H   0  0  0  0  0  0  0  0  0  0  0  0
  2  1  1  6  0  0  0
  2 12  1  0  0  0  0
  2  3  1  0  0  0  0
  3  4  1  0  0  0  0
  4 10  1  0  0  0  0
  4  5  2  0  0  0  0
  6  9  1  0  0  0  0
  6  7  1  0  0  0  0
  8  6  1  0  0  0  0
 10  6  1  0  0  0  0
 11 13  1  0  0  0  0
 11 10  1  0  0  0  0
 12 11  2  0  0  0  0
 13 14  1  0  0  0  0
 15 16  1  0  0  0  0
 15 13  2  0  0  0  0
 17 15  1  0  0  0  0
 18 17  1  0  0  0  0
 19 17  2  0  0  0  0
 19 12  1  0  0  0  0
 20 19  1  0  0  0  0
 21 22  1  0  0  0  0
 21  3  2  0  0  0  0
 23 21  1  0  0  0  0
 24 23  1  0  0  0  0
 24 29  1  0  0  0  0
 25 27  2  0  0  0  0
 25 24  1  0  0  0  0
 26 25  1  0  0  0  0
 27 28  1  0  0  0  0
 28 29  2  0  0  0  0
 29 30  1  0  0  0  0
M  END
