2,32
q = -1.0

 32 33  0  0  1  0  0  0  0  0999 V2000
   -5.9429    0.8300    0.2103 Br  0  0  0  0  0  0  0  0  0  0  0  0
    1.8923   -1.1993   -0.2516 N   0  0  0  0  0  2  0  0  0  0  0  0
    4.1704   -1.2607    0.6438 C   0  0  0  0  0  0  0  0  0  0  0  0
    3.7201   -1.3521    1.6444 H   0  0  0  0  0  0  0  0  0  0  0  0
    5.5558   -1.1785    0.4486 C   0  0  0  0  0  0  0  0  0  0  0  0
    6.2300   -1.2375    1.3170 H   0  0  0  0  0  0  0  0  0  0  0  0
   -5.3894   -1.9805    0.0284 C   0  0  0  0  0  0  0  0  0  0  0  0
   -6.4818   -2.0981    0.0158 H   0  0  0  0  0  0  0  0  0  0  0  0
    3.3007   -1.1835   -0.4643 C   0  0  0  0  0  0  0  0  0  0  0  0
   -0.2045   -2.4292   -0.3082 C   0  0  0  0  0  0  0  0  0  0  0  0
   -0.6320   -3.4029   -0.5698 H   0  0  0  0  0  0  0  0  0  0  0  0
   -4.5386   -3.0954   -0.0349 C   0  0  0  0  0  0  0  0  0  0  0  0
   -4.9753   -4.1040   -0.0907 H   0  0  0  0  0  0  0  0  0  0  0  0
   -2.5709   -1.6531    0.0582 C   0  0  0  0  0  0  0  0  0  0  0  0
    6.0869   -1.0176   -0.8438 C   0  0  0  0  0  0  0  0  0  0  0  0
    7.1752   -0.9492   -0.9909 H   0  0  0  0  0  0  0  0  0  0  0  0
   -1.0905   -1.4104    0.0676 C   0  0  2  0  0  3  0  0  0  0  0  0
   -4.8126   -0.7038    0.1175 C   0  0  0  0  0  0  0  0  0  0  0  0
    3.8318   -1.0312   -1.7610 C   0  0  0  0  0  0  0  0  0  0  0  0
    3.1426   -0.9693   -2.6171 H   0  0  0  0  0  0  0  0  0  0  0  0
    5.2209   -0.9459   -1.9465 C   0  0  0  0  0  0  0  0  0  0  0  0
    5.6286   -0.8205   -2.9614 H   0  0  0  0  0  0  0  0  0  0  0  0
   -3.4247   -0.5316    0.1420 C   0  0  0  0  0  0  0  0  0  0  0  0
   -2.9770    0.4663    0.2317 H   0  0  0  0  0  0  0  0  0  0  0  0
    1.2025   -2.3176   -0.4634 C   0  0  0  0  0  0  0  0  0  0  0  0
    1.9463   -3.5614   -0.9050 C   0  0  0  0  0  0  0  0  0  0  0  0
    2.3952   -3.4343   -1.9102 H   0  0  0  0  0  0  0  0  0  0  0  0
    1.2707   -4.4348   -0.9302 H   0  0  0  0  0  0  0  0  0  0  0  0
    2.7847   -3.7764   -0.2126 H   0  0  0  0  0  0  0  0  0  0  0  0
   -3.1466   -2.9395   -0.0230 C   0  0  0  0  0  0  0  0  0  0  0  0
   -2.5072   -3.8321   -0.0553 H   0  0  0  0  0  0  0  0  0  0  0  0
   -0.7559   -0.2118    0.4018 O   0  0  0  0  0  1  0  0  0  0  0  0
  3  4  1  0  0  0  0
  5  3  1  0  0  0  0
  5  6  1  0  0  0  0
  7 18  1  0  0  0  0
  8  7  1  0  0  0  0
  9  2  1  0  0  0  0
  9  3  2  0  0  0  0
 10 17  1  0  0  0  0
 11 10  1  0  0  0  0
 12 30  1  0  0  0  0
 12  7  2  0  0  0  0
 13 12  1  0  0  0  0
 14 17  1  0  0  0  0
 14 23  1  0  0  0  0
 15  5  2  0  0  0  0
 16 15  1  0  0  0  0
 17 32  1  6  0  0  0
 18 23  2  0  0  0  0
 18  1  1  0  0  0  0
 19  9  1  0  0  0  0
 20 19  1  0  0  0  0
 21 19  2  0  0  0  0
 21 15  1  0  0  0  0
 22 21  1  0  0  0  0
 23 24  1  0  0  0  0
 25 10  2  0  0  0  0
 25  2  1  0  0  0  0
 26 25  1  0  0  0  0
 26 29  1  0  0  0  0
 27 26  1  0  0  0  0
 28 26  1  0  0  0  0
 30 14  2  0  0  0  0
 31 30  1  0  0  0  0
M  END
