2,4
q = -1.0

 32 33  0  0  1  0  0  0  0  0999 V2000
    7.3391   -0.2495    0.1427 Br  0  0  0  0  0  0  0  0  0  0  0  0
    0.5574    0.2996    0.3893 O   0  5  0  0  0  0  0  0  0  0  0  0
   -0.8762   -2.2165   -0.4275 C   0  0  1  0  0  3  0  0  0  0  0  0
   -1.8003   -1.2763   -0.2413 N   0  0  0  0  0  2  0  0  0  0  0  0
    1.1511   -0.7978    0.0609 C   0  0  0  0  0  0  0  0  0  0  0  0
    2.6430   -0.7047    0.0635 C   0  0  0  0  0  0  0  0  0  0  0  0
    3.2577    0.3191    0.8177 C   0  0  0  0  0  0  0  0  0  0  0  0
    2.6150    1.0021    1.3908 H   0  0  0  0  0  0  0  0  0  0  0  0
    5.4453   -0.4320    0.1118 C   0  0  0  0  0  0  0  0  0  0  0  0
   -3.1755   -1.5830   -0.4497 C   0  0  0  0  0  0  0  0  0  0  0  0
    4.6496    0.4585    0.8511 C   0  0  0  0  0  0  0  0  0  0  0  0
    5.1204    1.2508    1.4500 H   0  0  0  0  0  0  0  0  0  0  0  0
   -4.0054   -1.8427    0.6613 C   0  0  0  0  0  0  0  0  0  0  0  0
   -3.5469   -1.8186    1.6620 H   0  0  0  0  0  0  0  0  0  0  0  0
    4.8608   -1.4534   -0.6550 C   0  0  0  0  0  0  0  0  0  0  0  0
    5.4942   -2.1357   -1.2390 H   0  0  0  0  0  0  0  0  0  0  0  0
   -1.3218   -3.6084   -0.8257 C   0  0  0  0  0  0  0  0  0  0  0  0
   -2.0796   -3.9905   -0.1127 H   0  0  0  0  0  0  0  0  0  0  0  0
   -0.4650   -4.3050   -0.8447 H   0  0  0  0  0  0  0  0  0  0  0  0
   -1.8021   -3.6126   -1.8244 H   0  0  0  0  0  0  0  0  0  0  0  0
    0.5189   -2.0022   -0.2788 C   0  0  0  0  0  0  0  0  0  0  0  0
    1.1590   -2.8745   -0.4533 H   0  0  0  0  0  0  0  0  0  0  0  0
   -5.0994   -1.8056   -1.9298 C   0  0  0  0  0  0  0  0  0  0  0  0
   -5.5246   -1.7888   -2.9451 H   0  0  0  0  0  0  0  0  0  0  0  0
    3.4667   -1.5826   -0.6736 C   0  0  0  0  0  0  0  0  0  0  0  0
    3.0146   -2.3677   -1.2966 H   0  0  0  0  0  0  0  0  0  0  0  0
   -5.9268   -2.0583   -0.8241 C   0  0  0  0  0  0  0  0  0  0  0  0
   -7.0022   -2.2403   -0.9692 H   0  0  0  0  0  0  0  0  0  0  0  0
   -3.7271   -1.5713   -1.7467 C   0  0  0  0  0  0  0  0  0  0  0  0
   -3.0693   -1.3664   -2.6052 H   0  0  0  0  0  0  0  0  0  0  0  0
   -5.3732   -2.0793    0.4687 C   0  0  0  0  0  0  0  0  0  0  0  0
   -6.0166   -2.2796    1.3394 H   0  0  0  0  0  0  0  0  0  0  0  0
  3 21  1  6  0  0  0
  3  4  1  0  0  0  0
  5  6  1  0  0  0  0
  5  2  1  0  0  0  0
  6  7  1  0  0  0  0
  7 11  2  0  0  0  0
  7  8  1  0  0  0  0
  9  1  1  0  0  0  0
  9 11  1  0  0  0  0
 10  4  1  0  0  0  0
 10 13  1  0  0  0  0
 11 12  1  0  0  0  0
 13 14  1  0  0  0  0
 15  9  2  0  0  0  0
 16 15  1  0  0  0  0
 17  3  1  0  0  0  0
 17 18  1  0  0  0  0
 19 17  1  0  0  0  0
 20 17  1  0  0  0  0
 21  5  2  0  0  0  0
 22 21  1  0  0  0  0
 23 29  1  0  0  0  0
 23 27  2  0  0  0  0
 24 23  1  0  0  0  0
 25 15  1  0  0  0  0
 25  6  2  0  0  0  0
 26 25  1  0  0  0  0
 27 31  1  0  0  0  0
 28 27  1  0  0  0  0
 29 10  2  0  0  0  0
 30 29  1  0  0  0  0
 31 13  2  0  0  0  0
 31 32  1  0  0  0  0
M  CHG  1   2  -1
M  END
