1,2
q = -1.0

 29 30  0  0  1  0  0  0  0  0999 V2000
   -0.4998    1.1069   -0.2857 O   0  0  0  0  0  1  0  0  0  0  0  0
    1.0784   -1.2450    0.0216 N   0  0  0  0  0  2  0  0  0  0  0  0
    1.3848   -2.2159    0.1320 H   0  0  0  0  0  0  0  0  0  0  0  0
    0.3928    5.9855   -0.5692 C   0  0  0  0  0  0  0  0  0  0  0  0
    0.3161    7.0793   -0.6658 H   0  0  0  0  0  0  0  0  0  0  0  0
   -0.6409    3.8319   -0.1155 C   0  0  0  0  0  0  0  0  0  0  0  0
   -1.5173    3.2220    0.1442 H   0  0  0  0  0  0  0  0  0  0  0  0
    6.0659   -1.9149    0.5908 C   0  0  0  0  0  0  0  0  0  0  0  0
    7.0837   -2.3145    0.7157 H   0  0  0  0  0  0  0  0  0  0  0  0
    5.1849   -2.5037   -0.3300 C   0  0  0  0  0  0  0  0  0  0  0  0
    5.5134   -3.3599   -0.9387 H   0  0  0  0  0  0  0  0  0  0  0  0
    0.5943    3.1759   -0.3161 C   0  0  0  0  0  0  0  0  0  0  0  0
   -0.7390    5.2235   -0.2359 C   0  0  0  0  0  0  0  0  0  0  0  0
   -1.7067    5.7199   -0.0655 H   0  0  0  0  0  0  0  0  0  0  0  0
    1.6234    5.3432   -0.7831 C   0  0  0  0  0  0  0  0  0  0  0  0
    2.5124    5.9313   -1.0574 H   0  0  0  0  0  0  0  0  0  0  0  0
    0.6471    1.6877   -0.1677 C   0  0  2  0  0  3  0  0  0  0  0  0
    2.0615   -0.3612    0.1206 C   0  0  0  0  0  0  0  0  0  0  0  0
    1.7240    3.9512   -0.6578 C   0  0  0  0  0  0  0  0  0  0  0  0
    2.6882    3.4598   -0.8528 H   0  0  0  0  0  0  0  0  0  0  0  0
    3.8880   -1.9951   -0.4866 C   0  0  0  0  0  0  0  0  0  0  0  0
    3.2095   -2.4428   -1.2298 H   0  0  0  0  0  0  0  0  0  0  0  0
    3.4519   -0.8864    0.2716 C   0  0  0  0  0  0  0  0  0  0  0  0
    5.6421   -0.8122    1.3501 C   0  0  0  0  0  0  0  0  0  0  0  0
    6.3241   -0.3514    2.0807 H   0  0  0  0  0  0  0  0  0  0  0  0
    4.3481   -0.2981    1.1897 C   0  0  0  0  0  0  0  0  0  0  0  0
    4.0099    0.5516    1.8011 H   0  0  0  0  0  0  0  0  0  0  0  0
    1.8734    1.0441    0.0677 C   0  0  0  0  0  0  0  0  0  0  0  0
    2.7712    1.6652    0.1539 H   0  0  0  0  0  0  0  0  0  0  0  0
  2 18  1  0  0  0  0
  2  3  1  0  0  0  0
  4 13  1  0  0  0  0
  5  4  1  0  0  0  0
  6  7  1  0  0  0  0
  8  9  1  0  0  0  0
  8 24  1  0  0  0  0
 10  8  2  0  0  0  0
 11 10  1  0  0  0  0
 12 17  1  0  0  0  0
 12  6  1  0  0  0  0
 13  6  2  0  0  0  0
 13 14  1  0  0  0  0
 15 19  1  0  0  0  0
 15  4  2  0  0  0  0
 16 15  1  0  0  0  0
 17  1  1  6  0  0  0
 17 28  1  0  0  0  0
 18 23  1  0  0  0  0
 19 12  2  0  0  0  0
 20 19  1  0  0  0  0
 21 10  1  0  0  0  0
 21 23  2  0  0  0  0
 22 21  1  0  0  0  0
 23 26  1  0  0  0  0
 24 25  1  0  0  0  0
 26 24  2  0  0  0  0
 26 27  1  0  0  0  0
 28 18  2  0  0  0  0
 28 29  1  0  0  0  0
M  END
