1,2
q = -1.0

 35 36  0  0  1  0  0  0  0  0999 V2000
    1.2738    0.2431   -0.4221 O   0  0  0  0  0  1  0  0  0  0  0  0
   -1.1176   -1.2677    0.2331 N   0  0  0  0  0  2  0  0  0  0  0  0
    1.8435   -0.8727   -0.1125 C   0  0  1  0  0  3  0  0  0  0  0  0
   -0.2170   -2.2362    0.3947 C   0  0  0  0  0  0  0  0  0  0  0  0
    3.3366   -0.8223   -0.1334 C   0  0  0  0  0  0  0  0  0  0  0  0
    4.1447   -1.7300    0.5839 C   0  0  0  0  0  0  0  0  0  0  0  0
    3.6768   -2.5054    1.2080 H   0  0  0  0  0  0  0  0  0  0  0  0
    5.5405   -1.6335    0.5421 C   0  0  0  0  0  0  0  0  0  0  0  0
    6.1495   -2.3468    1.1201 H   0  0  0  0  0  0  0  0  0  0  0  0
    3.9760    0.1904   -0.8821 C   0  0  0  0  0  0  0  0  0  0  0  0
    3.3483    0.9016   -1.4374 H   0  0  0  0  0  0  0  0  0  0  0  0
    1.1799   -2.0620    0.2251 C   0  0  0  0  0  0  0  0  0  0  0  0
    1.7976   -2.9534    0.3822 H   0  0  0  0  0  0  0  0  0  0  0  0
    6.1832   -0.6332   -0.2164 C   0  0  0  0  0  0  0  0  0  0  0  0
   -2.4970   -1.5360    0.4617 C   0  0  0  0  0  0  0  0  0  0  0  0
   -0.6977   -3.6184    0.7868 C   0  0  0  0  0  0  0  0  0  0  0  0
   -1.1683   -3.6173    1.7901 H   0  0  0  0  0  0  0  0  0  0  0  0
    0.1396   -4.3386    0.7916 H   0  0  0  0  0  0  0  0  0  0  0  0
   -1.4729   -3.9737    0.0784 H   0  0  0  0  0  0  0  0  0  0  0  0
   -3.0276   -1.5189    1.7676 C   0  0  0  0  0  0  0  0  0  0  0  0
   -2.3501   -1.3401    2.6166 H   0  0  0  0  0  0  0  0  0  0  0  0
    5.3709    0.2782   -0.9237 C   0  0  0  0  0  0  0  0  0  0  0  0
    5.8468    1.0721   -1.5215 H   0  0  0  0  0  0  0  0  0  0  0  0
   -3.3527   -1.7631   -0.6371 C   0  0  0  0  0  0  0  0  0  0  0  0
   -2.9102   -1.7453   -1.6451 H   0  0  0  0  0  0  0  0  0  0  0  0
   -4.4029   -1.7146    1.9717 C   0  0  0  0  0  0  0  0  0  0  0  0
   -4.8108   -1.6935    2.9940 H   0  0  0  0  0  0  0  0  0  0  0  0
   -5.2554   -1.9341    0.8780 C   0  0  0  0  0  0  0  0  0  0  0  0
   -6.3333   -2.0857    1.0395 H   0  0  0  0  0  0  0  0  0  0  0  0
    7.6865   -0.5556   -0.2911 C   0  0  0  0  0  0  0  0  0  0  0  0
    8.1651   -1.0000    0.6037 H   0  0  0  0  0  0  0  0  0  0  0  0
    8.0378    0.4908   -0.3901 H   0  0  0  0  0  0  0  0  0  0  0  0
    8.0688   -1.1102   -1.1756 H   0  0  0  0  0  0  0  0  0  0  0  0
   -4.7236   -1.9611   -0.4238 C   0  0  0  0  0  0  0  0  0  0  0  0
   -5.3866   -2.1357   -1.2853 H   0  0  0  0  0  0  0  0  0  0  0  0
  2  4  1  0  0  0  0
  2 15  1  0  0  0  0
  3  1  1  1  0  0  0
  3 12  1  0  0  0  0
  4 16  1  0  0  0  0
  5  3  1  0  0  0  0
  5  6  1  0  0  0  0
  6  7  1  0  0  0  0
  8  6  2  0  0  0  0
  8  9  1  0  0  0  0
 10  5  2  0  0  0  0
 11 10  1  0  0  0  0
 12 13  1  0  0  0  0
 12  4  2  0  0  0  0
 14  8  1  0  0  0  0
 15 20  1  0  0  0  0
 16 18  1  0  0  0  0
 16 17  1  0  0  0  0
 19 16  1  0  0  0  0
 20 26  2  0  0  0  0
 20 21  1  0  0  0  0
 22 10  1  0  0  0  0
 22 14  2  0  0  0  0
 23 22  1  0  0  0  0
 24 34  1  0  0  0  0
 24 15  2  0  0  0  0
 25 24  1  0  0  0  0
 26 27  1  0  0  0  0
 28 29  1  0  0  0  0
 28 26  1  0  0  0  0
 30 14  1  0  0  0  0
 30 31  1  0  0  0  0
 32 30  1  0  0  0  0
 33 30  1  0  0  0  0
 34 28  2  0  0  0  0
 35 34  1  0  0  0  0
M  END
