2,4
q = -1.0

 32 33  0  0  1  0  0  0  0  0999 V2000
   -7.4908   -0.5535    0.2734 F   0  0  0  0  0  0  0  0  0  0  0  0
   -1.2902    0.2436    0.4129 O   0  5  0  0  0  0  0  0  0  0  0  0
    2.4832   -1.5340   -0.4676 C   0  0  0  0  0  0  0  0  0  0  0  0
    1.1029   -1.2659   -0.2417 N   0  0  0  0  0  2  0  0  0  0  0  0
    0.2036   -2.2338   -0.4087 C   0  0  1  0  0  3  0  0  0  0  0  0
   -6.1488   -0.6402    0.2276 C   0  0  0  0  0  0  0  0  0  0  0  0
   -1.1941   -2.0610   -0.2382 C   0  0  0  0  0  0  0  0  0  0  0  0
   -1.8102   -2.9537   -0.3947 H   0  0  0  0  0  0  0  0  0  0  0  0
   -5.5552   -1.6438   -0.5491 C   0  0  0  0  0  0  0  0  0  0  0  0
   -6.1944   -2.3367   -1.1145 H   0  0  0  0  0  0  0  0  0  0  0  0
   -1.8575   -0.8733    0.1032 C   0  0  0  0  0  0  0  0  0  0  0  0
    3.3344   -1.7697    0.6327 C   0  0  0  0  0  0  0  0  0  0  0  0
    2.8884   -1.7584    1.6393 H   0  0  0  0  0  0  0  0  0  0  0  0
   -4.1586   -1.7297   -0.5926 C   0  0  0  0  0  0  0  0  0  0  0  0
   -3.6907   -2.5001   -1.2220 H   0  0  0  0  0  0  0  0  0  0  0  0
   -3.3507   -0.8247    0.1304 C   0  0  0  0  0  0  0  0  0  0  0  0
   -5.3772    0.2774    0.9523 C   0  0  0  0  0  0  0  0  0  0  0  0
   -5.8808    1.0480    1.5534 H   0  0  0  0  0  0  0  0  0  0  0  0
   -3.9829    0.1817    0.8952 C   0  0  0  0  0  0  0  0  0  0  0  0
   -3.3499    0.8838    1.4557 H   0  0  0  0  0  0  0  0  0  0  0  0
    3.0180   -1.5082   -1.7715 C   0  0  0  0  0  0  0  0  0  0  0  0
    2.3437   -1.3230   -2.6217 H   0  0  0  0  0  0  0  0  0  0  0  0
    0.6846   -3.6141   -0.8067 C   0  0  0  0  0  0  0  0  0  0  0  0
    1.1577   -3.6076   -1.8087 H   0  0  0  0  0  0  0  0  0  0  0  0
   -0.1526   -4.3343   -0.8173 H   0  0  0  0  0  0  0  0  0  0  0  0
    1.4579   -3.9730   -0.0983 H   0  0  0  0  0  0  0  0  0  0  0  0
    4.7057   -1.9680    0.4229 C   0  0  0  0  0  0  0  0  0  0  0  0
    5.3655   -2.1495    1.2855 H   0  0  0  0  0  0  0  0  0  0  0  0
    4.3938   -1.7042   -1.9720 C   0  0  0  0  0  0  0  0  0  0  0  0
    4.8054   -1.6765   -2.9927 H   0  0  0  0  0  0  0  0  0  0  0  0
    5.2421   -1.9325   -0.8768 C   0  0  0  0  0  0  0  0  0  0  0  0
    6.3203   -2.0844   -1.0356 H   0  0  0  0  0  0  0  0  0  0  0  0
  3  4  1  0  0  0  0
  3 12  1  0  0  0  0
  5  4  1  6  0  0  0
  5  7  1  0  0  0  0
  6  1  1  0  0  0  0
  6 17  1  0  0  0  0
  7 11  2  0  0  0  0
  8  7  1  0  0  0  0
  9  6  2  0  0  0  0
 10  9  1  0  0  0  0
 11 16  1  0  0  0  0
 11  2  1  0  0  0  0
 12 13  1  0  0  0  0
 14  9  1  0  0  0  0
 14 16  2  0  0  0  0
 15 14  1  0  0  0  0
 16 19  1  0  0  0  0
 17 18  1  0  0  0  0
 19 17  2  0  0  0  0
 19 20  1  0  0  0  0
 21  3  2  0  0  0  0
 22 21  1  0  0  0  0
 23  5  1  0  0  0  0
 23 26  1  0  0  0  0
 24 23  1  0  0  0  0
 25 23  1  0  0  0  0
 27 12  2  0  0  0  0
 27 28  1  0  0  0  0
 29 21  1  0  0  0  0
 29 31  2  0  0  0  0
 30 29  1  0  0  0  0
 31 27  1  0  0  0  0
 32 31  1  0  0  0  0
M  CHG  1   2  -1
M  END
