1,5
q = -1.0, confidence = 0.002

 36 37  0  0  1  0  0  0  0  0999 V2000
   -0.0133   -1.1547   -1.1535 O   0  0  0  0  0  1  0  0  0  0  0  0
   -2.4552    2.5290    0.2792 O   0  0  0  0  0  1  0  0  0  0  0  0
   -1.0285   -0.4281   -0.7900 N   0  0  0  0  0  0  0  0  0  0  0  0
   -2.1262    1.3481   -0.0166 N   0  0  0  0  0  0  0  0  0  0  0  0
    1.4353    0.9204   -0.2667 N   0  0  0  0  0  2  0  0  0  0  0  0
   -0.9504    0.9062   -0.5034 C   0  0  0  0  0  3  0  0  0  0  0  0
   -2.3465   -1.0342   -0.4284 C   0  0  0  0  0  0  0  0  0  0  0  0
   -3.0055    0.1524    0.3780 C   0  0  0  0  0  0  0  0  0  0  0  0
   -3.0598   -1.3755   -1.7464 C   0  0  0  0  0  0  0  0  0  0  0  0
   -3.2161   -0.4784   -2.3760 H   0  0  0  0  0  0  0  0  0  0  0  0
   -4.0410   -1.8509   -1.5550 H   0  0  0  0  0  0  0  0  0  0  0  0
   -2.4304   -2.0884   -2.3132 H   0  0  0  0  0  0  0  0  0  0  0  0
   -2.0989   -2.3055    0.3896 C   0  0  0  0  0  0  0  0  0  0  0  0
   -3.0618   -2.7227    0.7425 H   0  0  0  0  0  0  0  0  0  0  0  0
   -1.4351   -2.1187    1.2533 H   0  0  0  0  0  0  0  0  0  0  0  0
   -1.6003   -3.0590   -0.2487 H   0  0  0  0  0  0  0  0  0  0  0  0
   -4.4525    0.4715    0.0243 C   0  0  0  0  0  0  0  0  0  0  0  0
   -4.7447    1.4024    0.5457 H   0  0  0  0  0  0  0  0  0  0  0  0
   -5.1170   -0.3477    0.3604 H   0  0  0  0  0  0  0  0  0  0  0  0
   -4.6017    0.6278   -1.0594 H   0  0  0  0  0  0  0  0  0  0  0  0
   -2.8257    0.0453    1.9004 C   0  0  0  0  0  0  0  0  0  0  0  0
   -3.4522   -0.7688    2.3114 H   0  0  0  0  0  0  0  0  0  0  0  0
   -3.1416    1.0023    2.3581 H   0  0  0  0  0  0  0  0  0  0  0  0
   -1.7672   -0.1417    2.1693 H   0  0  0  0  0  0  0  0  0  0  0  0
    0.2971    1.6505   -0.4958 C   0  0  1  0  0  3  0  0  0  0  0  0
    0.3267    3.0534   -0.5878 C   0  0  0  0  0  0  0  0  0  0  0  0
   -0.6188    3.5876   -0.7426 H   0  0  0  0  0  0  0  0  0  0  0  0
    1.5532    3.7103   -0.4419 C   0  0  0  0  0  0  0  0  0  0  0  0
    1.6070    4.8063   -0.5136 H   0  0  0  0  0  0  0  0  0  0  0  0
    2.7069    2.9560   -0.1873 C   0  0  0  0  0  0  0  0  0  0  0  0
    3.6842    3.4404   -0.0507 H   0  0  0  0  0  0  0  0  0  0  0  0
    2.6247    1.5582   -0.0856 C   0  0  0  0  0  0  0  0  0  0  0  0
    3.7946    0.6906    0.2725 C   0  0  0  0  0  0  0  0  0  0  0  0
    3.6795    0.3300    1.3171 H   0  0  0  0  0  0  0  0  0  0  0  0
    4.7526    1.2354    0.1810 H   0  0  0  0  0  0  0  0  0  0  0  0
    3.8284   -0.2194   -0.3683 H   0  0  0  0  0  0  0  0  0  0  0  0
  1  3  1  0  0  0  0
  3  6  1  0  0  0  0
  3  7  1  0  0  0  0
  4  2  1  0  0  0  0
  4  8  1  0  0  0  0
  5 32  1  0  0  0  0
  6  4  1  0  0  0  0
  7  8  1  0  0  0  0
  7 13  1  0  0  0  0
  8 21  1  0  0  0  0
  9 11  1  0  0  0  0
  9  7  1  0  0  0  0
 10  9  1  0  0  0  0
 12  9  1  0  0  0  0
 13 14  1  0  0  0  0
 13 15  1  0  0  0  0
 16 13  1  0  0  0  0
 17 19  1  0  0  0  0
 17  8  1  0  0  0  0
 17 18  1  0  0  0  0
 20 17  1  0  0  0  0
 21 24  1  0  0  0  0
 21 22  1  0  0  0  0
 21 23  1  0  0  0  0
 25  6  1  1  0  0  0
 25  5  1  0  0  0  0
 26 25  1  0  0  0  0
 26 28  2  0  0  0  0
 27 26  1  0  0  0  0
 28 30  1  0  0  0  0
 29 28  1  0  0  0  0
 30 32  2  0  0  0  0
 30 31  1  0  0  0  0
 32 33  1  0  0  0  0
 33 34  1  0  0  0  0
 35 33  1  0  0  0  0
 36 33  1  0  0  0  0
M  END
