1,17
q = -1.0

 53 54  0  0  1  0  0  0  0  0999 V2000
   -0.2014   -0.8423   -0.7202 O   0  5  0  0  0  0  0  0  0  0  0  0
   -1.4366   -0.4711   -0.4523 C   0  0  0  0  0  0  0  0  0  0  0  0
   -2.5524   -1.3188   -0.7411 C   0  0  0  0  0  0  0  0  0  0  0  0
   -3.8134   -0.8914   -0.2973 C   0  0  0  0  0  0  0  0  0  0  0  0
   -4.6666   -1.5530   -0.4836 H   0  0  0  0  0  0  0  0  0  0  0  0
   -4.0574    0.3345    0.3699 C   0  0  0  0  0  0  0  0  0  0  0  0
   -2.9700    1.1933    0.5446 C   0  0  0  0  0  0  0  0  0  0  0  0
   -3.0977    2.1865    0.9970 H   0  0  0  0  0  0  0  0  0  0  0  0
   -1.6724    0.8174    0.1268 C   0  0  0  0  0  0  0  0  0  0  0  0
   -0.5949    1.7857    0.1587 C   0  0  2  0  0  3  0  0  0  0  0  0
   -0.9339    3.0470    0.5125 O   0  0  0  0  0  0  0  0  0  0  0  0
    0.2882    3.8240    0.5342 C   0  0  0  0  0  0  0  0  0  0  0  0
    0.5924    3.9579    1.5937 H   0  0  0  0  0  0  0  0  0  0  0  0
    0.0709    4.8144    0.0919 H   0  0  0  0  0  0  0  0  0  0  0  0
    1.2716    2.9717   -0.2830 C   0  0  1  0  0  0  0  0  0  0  0  0
    2.2839    2.9568    0.1650 H   0  0  0  0  0  0  0  0  0  0  0  0
    0.6702    1.6172   -0.1779 N   0  0  0  0  0  2  0  0  0  0  0  0
    1.4078    3.4093   -1.7646 C   0  0  0  0  0  0  0  0  0  0  0  0
    2.0140    2.6111   -2.2402 H   0  0  0  0  0  0  0  0  0  0  0  0
    2.2050    4.7147   -1.8555 C   0  0  0  0  0  0  0  0  0  0  0  0
    2.3637    5.0025   -2.9138 H   0  0  0  0  0  0  0  0  0  0  0  0
    3.2026    4.6097   -1.3825 H   0  0  0  0  0  0  0  0  0  0  0  0
    1.6788    5.5615   -1.3637 H   0  0  0  0  0  0  0  0  0  0  0  0
    0.0662    3.4948   -2.4999 C   0  0  0  0  0  0  0  0  0  0  0  0
    0.2326    3.7454   -3.5667 H   0  0  0  0  0  0  0  0  0  0  0  0
   -0.5999    4.2782   -2.0808 H   0  0  0  0  0  0  0  0  0  0  0  0
   -0.4795    2.5302   -2.4723 H   0  0  0  0  0  0  0  0  0  0  0  0
   -2.3681   -2.6256   -1.5369 C   0  0  0  0  0  0  0  0  0  0  0  0
   -1.7310   -2.2917   -2.9079 C   0  0  0  0  0  0  0  0  0  0  0  0
   -0.7239   -1.8505   -2.7891 H   0  0  0  0  0  0  0  0  0  0  0  0
   -2.3683   -1.5836   -3.4758 H   0  0  0  0  0  0  0  0  0  0  0  0
   -1.6264   -3.2175   -3.5104 H   0  0  0  0  0  0  0  0  0  0  0  0
   -1.4548   -3.6145   -0.7771 C   0  0  0  0  0  0  0  0  0  0  0  0
   -0.4396   -3.2002   -0.6434 H   0  0  0  0  0  0  0  0  0  0  0  0
   -1.3601   -4.5576   -1.3535 H   0  0  0  0  0  0  0  0  0  0  0  0
   -1.8821   -3.8671    0.2154 H   0  0  0  0  0  0  0  0  0  0  0  0
   -3.7147   -3.3263   -1.7937 C   0  0  0  0  0  0  0  0  0  0  0  0
   -4.2130   -3.6351   -0.8520 H   0  0  0  0  0  0  0  0  0  0  0  0
   -3.5415   -4.2431   -2.3917 H   0  0  0  0  0  0  0  0  0  0  0  0
   -4.4168   -2.6850   -2.3643 H   0  0  0  0  0  0  0  0  0  0  0  0
   -5.4549    0.7474    0.8674 C   0  0  0  0  0  0  0  0  0  0  0  0
   -6.5161   -0.3284    0.5783 C   0  0  0  0  0  0  0  0  0  0  0  0
   -7.5015    0.0045    0.9616 H   0  0  0  0  0  0  0  0  0  0  0  0
   -6.2741   -1.2910    1.0724 H   0  0  0  0  0  0  0  0  0  0  0  0
   -6.6292   -0.5172   -0.5084 H   0  0  0  0  0  0  0  0  0  0  0  0
   -5.8832    2.0558    0.1650 C   0  0  0  0  0  0  0  0  0  0  0  0
   -6.8865    2.3758    0.5154 H   0  0  0  0  0  0  0  0  0  0  0  0
   -5.9294    1.9175   -0.9341 H   0  0  0  0  0  0  0  0  0  0  0  0
   -5.1755    2.8834    0.3707 H   0  0  0  0  0  0  0  0  0  0  0  0
   -5.3978    0.9774    2.3948 C   0  0  0  0  0  0  0  0  0  0  0  0
   -6.3918    1.2849    2.7812 H   0  0  0  0  0  0  0  0  0  0  0  0
   -4.6719    1.7712    2.6617 H   0  0  0  0  0  0  0  0  0  0  0  0
   -5.0938    0.0509    2.9231 H   0  0  0  0  0  0  0  0  0  0  0  0
  1  2  1  0  0  0  0
  2  9  1  0  0  0  0
  3  2  2  0  0  0  0
  3  4  1  0  0  0  0
  4  6  2  0  0  0  0
  5  4  1  0  0  0  0
  6  7  1  0  0  0  0
  6 41  1  0  0  0  0
  7  8  1  0  0  0  0
  9  7  2  0  0  0  0
 10  9  1  6  0  0  0
 10 11  1  0  0  0  0
 11 12  1  0  0  0  0
 12 13  1  0  0  0  0
 14 12  1  0  0  0  0
 15 17  1  0  0  0  0
 15 16  1  1  0  0  0
 15 12  1  0  0  0  0
 17 10  1  0  0  0  0
 18 15  1  0  0  0  0
 19 18  1  0  0  0  0
 20 18  1  0  0  0  0
 20 22  1  0  0  0  0
 20 23  1  0  0  0  0
 21 20  1  0  0  0  0
 24 27  1  0  0  0  0
 24 26  1  0  0  0  0
 24 18  1  0  0  0  0
 25 24  1  0  0  0  0
 28 33  1  0  0  0  0
 28  3  1  0  0  0  0
 29 30  1  0  0  0  0
 29 28  1  0  0  0  0
 31 29  1  0  0  0  0
 32 29  1  0  0  0  0
 33 34  1  0  0  0  0
 33 36  1  0  0  0  0
 35 33  1  0  0  0  0
 37 28  1  0  0  0  0
 37 38  1  0  0  0  0
 39 37  1  0  0  0  0
 40 37  1  0  0  0  0
 41 50  1  0  0  0  0
 42 41  1  0  0  0  0
 42 43  1  0  0  0  0
 42 44  1  0  0  0  0
 45 42  1  0  0  0  0
 46 49  1  0  0  0  0
 46 47  1  0  0  0  0
 46 41  1  0  0  0  0
 48 46  1  0  0  0  0
 50 52  1  0  0  0  0
 50 51  1  0  0  0  0
 50 53  1  0  0  0  0
M  CHG  1   1  -1
M  END
