1,6
q = -1.0

 32 34  0  0  1  0  0  0  0  0999 V2000
    1.6694    0.2890   -1.7097 O   0  5  0  0  0  0  0  0  0  0  0  0
    2.5737    1.0415   -1.2369 C   0  0  0  0  0  0  0  0  0  0  0  0
    2.3574    2.3814   -0.9402 N   0  0  0  0  0  0  0  0  0  0  0  0
    3.2529    2.8271   -0.5749 H   0  0  0  0  0  0  0  0  0  0  0  0
    1.1623    3.0482   -0.7655 C   0  0  1  0  0  3  0  0  0  0  0  0
   -0.0114    2.3775   -0.6386 N   0  0  0  0  0  2  0  0  0  0  0  0
   -1.1653    3.0581   -0.4604 C   0  0  0  0  0  0  0  0  0  0  0  0
   -1.2173    4.4504   -0.3879 C   0  0  0  0  0  0  0  0  0  0  0  0
   -0.0056    5.1613   -0.4950 C   0  0  0  0  0  0  0  0  0  0  0  0
    1.1862    4.4674   -0.6873 C   0  0  0  0  0  0  0  0  0  0  0  0
    2.1476    4.9914   -0.7870 H   0  0  0  0  0  0  0  0  0  0  0  0
    0.0055    6.2603   -0.4330 H   0  0  0  0  0  0  0  0  0  0  0  0
   -2.1814    4.9559   -0.2397 H   0  0  0  0  0  0  0  0  0  0  0  0
   -2.0790    2.4467   -0.3637 H   0  0  0  0  0  0  0  0  0  0  0  0
    3.9119    0.5643   -0.9856 C   0  0  0  0  0  0  0  0  0  0  0  0
    4.1627   -0.7862   -1.3873 N   0  0  0  0  0  0  0  0  0  0  0  0
    5.0249   -1.7550   -0.3058 S   0  0  0  0  0  0  0  0  0  0  0  0
    5.4459   -2.9929   -0.9928 O   0  0  0  0  0  0  0  0  0  0  0  0
    4.2478   -1.8504    0.9569 O   0  0  0  0  0  0  0  0  0  0  0  0
    6.4161   -0.7002    0.0060 C   0  0  0  0  0  0  0  0  0  0  0  0
    7.7389   -1.0608    0.3895 C   0  0  0  0  0  0  0  0  0  0  0  0
    8.4897    0.0666    0.6736 C   0  0  0  0  0  0  0  0  0  0  0  0
    7.5917    1.5410    0.4865 S   0  0  0  0  0  0  0  0  0  0  0  0
    6.1708    0.6719   -0.0052 C   0  0  0  0  0  0  0  0  0  0  0  0
    4.9127    1.3651   -0.3457 C   0  0  0  0  0  0  0  0  0  0  0  0
    4.7713    2.5852   -0.0059 O   0  0  0  0  0  0  0  0  0  0  0  0
    9.5407    0.1085    0.9859 H   0  0  0  0  0  0  0  0  0  0  0  0
    8.1067   -2.0935    0.4448 H   0  0  0  0  0  0  0  0  0  0  0  0
    4.2885   -1.0715   -2.8183 C   0  0  0  0  0  0  0  0  0  0  0  0
    4.4560   -2.1544   -2.9611 H   0  0  0  0  0  0  0  0  0  0  0  0
    3.3310   -0.7878   -3.2970 H   0  0  0  0  0  0  0  0  0  0  0  0
    5.1229   -0.5009   -3.2830 H   0  0  0  0  0  0  0  0  0  0  0  0
  1  2  1  0  0  0  0
  2 15  2  0  0  0  0
  2  3  1  0  0  0  0
  3  4  1  0  0  0  0
  5  3  1  1  0  0  0
  5 10  1  0  0  0  0
  5  6  1  0  0  0  0
  6  7  1  0  0  0  0
  7  8  2  0  0  0  0
  7 14  1  0  0  0  0
  8 13  1  0  0  0  0
  9 12  1  0  0  0  0
  9  8  1  0  0  0  0
 10  9  2  0  0  0  0
 11 10  1  0  0  0  0
 15 25  1  0  0  0  0
 16 15  1  0  0  0  0
 16 17  1  0  0  0  0
 17 20  1  0  0  0  0
 17 19  2  0  0  0  0
 18 17  2  0  0  0  0
 20 21  1  0  0  0  0
 21 28  1  0  0  0  0
 21 22  2  0  0  0  0
 22 27  1  0  0  0  0
 23 22  1  0  0  0  0
 24 20  2  0  0  0  0
 24 23  1  0  0  0  0
 25 26  2  0  0  0  0
 25 24  1  0  0  0  0
 29 16  1  0  0  0  0
 30 29  1  0  0  0  0
 31 29  1  0  0  0  0
 32 29  1  0  0  0  0
M  CHG  1   1  -1
M  END
