1,2
q = 0.0, confidence = 0.826

 50 51  0  0  0  0  0  0  0  0999 V2000
    0.0889   -0.8132   -0.3258 N   0  0  0  0  0  2  0  0  0  0  0  0
   -0.5775    1.5914    0.1000 O   0  5  0  0  0  0  0  0  0  0  0  0
   -0.5495   -2.4113    2.3118 F   0  0  0  0  0  0  0  0  0  0  0  0
    1.0958   -3.8102    2.5940 F   0  0  0  0  0  0  0  0  0  0  0  0
    1.5124   -1.7372    2.0803 F   0  0  0  0  0  0  0  0  0  0  0  0
    0.7373    1.4157   -0.0193 C   0  0  0  0  0  0  0  0  0  0  0  0
    1.7019    2.4626    0.0789 C   0  0  0  0  0  0  0  0  0  0  0  0
    3.0432    2.0940   -0.0950 C   0  0  0  0  0  0  0  0  0  0  0  0
    3.8074    2.8792   -0.0255 H   0  0  0  0  0  0  0  0  0  0  0  0
    3.4799    0.7653   -0.3553 C   0  0  0  0  0  0  0  0  0  0  0  0
    2.5180   -0.2450   -0.4445 C   0  0  0  0  0  0  0  0  0  0  0  0
    2.7966   -1.2885   -0.6358 H   0  0  0  0  0  0  0  0  0  0  0  0
    1.1553    0.0789   -0.2710 C   0  0  0  0  0  0  0  0  0  0  0  0
    0.3389   -2.1727   -0.6334 C   0  0  0  0  0  0  0  0  0  0  0  0
    0.6193   -3.1414    0.3652 C   0  0  0  0  0  0  0  0  0  0  0  0
    0.8000   -4.4874   -0.0024 C   0  0  0  0  0  0  0  0  0  0  0  0
    1.0088   -5.2269    0.7827 H   0  0  0  0  0  0  0  0  0  0  0  0
    0.7180   -4.8856   -1.3429 C   0  0  0  0  0  0  0  0  0  0  0  0
    0.8625   -5.9424   -1.6107 H   0  0  0  0  0  0  0  0  0  0  0  0
    0.4562   -3.9276   -2.3353 C   0  0  0  0  0  0  0  0  0  0  0  0
    0.3973   -4.2264   -3.3929 H   0  0  0  0  0  0  0  0  0  0  0  0
    0.2717   -2.5860   -1.9803 C   0  0  0  0  0  0  0  0  0  0  0  0
    0.0641   -1.8168   -2.7382 H   0  0  0  0  0  0  0  0  0  0  0  0
    1.2668    3.9074    0.3699 C   0  0  0  0  0  0  0  0  0  0  0  0
    0.2973    4.3884   -0.7358 C   0  0  0  0  0  0  0  0  0  0  0  0
    0.8004    4.3839   -1.7243 H   0  0  0  0  0  0  0  0  0  0  0  0
   -0.0399    5.4255   -0.5271 H   0  0  0  0  0  0  0  0  0  0  0  0
   -0.5921    3.7340   -0.7963 H   0  0  0  0  0  0  0  0  0  0  0  0
    0.5633    3.9524    1.7468 C   0  0  0  0  0  0  0  0  0  0  0  0
   -0.3007    3.2624    1.7750 H   0  0  0  0  0  0  0  0  0  0  0  0
    0.2012    4.9793    1.9639 H   0  0  0  0  0  0  0  0  0  0  0  0
    1.2649    3.6568    2.5529 H   0  0  0  0  0  0  0  0  0  0  0  0
    2.4618    4.8753    0.4111 C   0  0  0  0  0  0  0  0  0  0  0  0
    3.1866    4.6064    1.2061 H   0  0  0  0  0  0  0  0  0  0  0  0
    2.0999    5.9018    0.6235 H   0  0  0  0  0  0  0  0  0  0  0  0
    3.0042    4.9052   -0.5557 H   0  0  0  0  0  0  0  0  0  0  0  0
    4.9846    0.4870   -0.5210 C   0  0  0  0  0  0  0  0  0  0  0  0
    5.5307    1.3067   -1.7121 C   0  0  0  0  0  0  0  0  0  0  0  0
    6.6186    1.1282   -1.8437 H   0  0  0  0  0  0  0  0  0  0  0  0
    5.3833    2.3948   -1.5634 H   0  0  0  0  0  0  0  0  0  0  0  0
    5.0173    1.0236   -2.6534 H   0  0  0  0  0  0  0  0  0  0  0  0
    5.7258    0.8990    0.7714 C   0  0  0  0  0  0  0  0  0  0  0  0
    5.3502    0.3224    1.6408 H   0  0  0  0  0  0  0  0  0  0  0  0
    5.5895    1.9751    0.9979 H   0  0  0  0  0  0  0  0  0  0  0  0
    6.8155    0.7099    0.6740 H   0  0  0  0  0  0  0  0  0  0  0  0
    5.2694   -1.0014   -0.7859 C   0  0  0  0  0  0  0  0  0  0  0  0
    4.9191   -1.6407    0.0494 H   0  0  0  0  0  0  0  0  0  0  0  0
    6.3606   -1.1635   -0.8976 H   0  0  0  0  0  0  0  0  0  0  0  0
    4.7814   -1.3539   -1.7170 H   0  0  0  0  0  0  0  0  0  0  0  0
    0.6783   -2.7678    1.8320 C   0  0  0  0  0  0  0  0  0  0  0  0
  1 13  1  0  0  0  0
  6  7  1  0  0  0  0
  6  2  1  0  0  0  0
  7 24  1  0  0  0  0
  8  9  1  0  0  0  0
  8  7  2  0  0  0  0
 10  8  1  0  0  0  0
 11 10  2  0  0  0  0
 11 13  1  0  0  0  0
 12 11  1  0  0  0  0
 13  6  2  0  0  0  0
 14  1  1  0  0  0  0
 14 15  1  0  0  0  0
 15 50  1  0  0  0  0
 16 15  2  0  0  0  0
 16 17  1  0  0  0  0
 18 16  1  0  0  0  0
 19 18  1  0  0  0  0
 20 22  1  0  0  0  0
 20 18  2  0  0  0  0
 21 20  1  0  0  0  0
 22 14  2  0  0  0  0
 23 22  1  0  0  0  0
 24 33  1  0  0  0  0
 24 29  1  0  0  0  0
 25 27  1  0  0  0  0
 25 24  1  0  0  0  0
 26 25  1  0  0  0  0
 28 25  1  0  0  0  0
 29 30  1  0  0  0  0
 29 31  1  0  0  0  0
 29 32  1  0  0  0  0
 33 35  1  0  0  0  0
 33 34  1  0  0  0  0
 36 33  1  0  0  0  0
 37 10  1  0  0  0  0
 37 42  1  0  0  0  0
 38 40  1  0  0  0  0
 38 37  1  0  0  0  0
 39 38  1  0  0  0  0
 41 38  1  0  0  0  0
 42 44  1  0  0  0  0
 42 43  1  0  0  0  0
 45 42  1  0  0  0  0
 46 37  1  0  0  0  0
 46 47  1  0  0  0  0
 48 46  1  0  0  0  0
 49 46  1  0  0  0  0
 50  5  1  0  0  0  0
 50  3  1  0  0  0  0
 50  4  1  0  0  0  0
M  CHG  1   2  -1
M  END
