2,3
q = -1.0, confidence = 0.0

 28 29  0  0  0  0  0  0  0  0999 V2000
    7.3758    0.4707   -0.0167 Br  0  0  0  0  0  0  0  0  0  0  0  0
    1.5928   -0.6195   -1.5043 O   0  5  0  0  0  0  0  0  0  0  0  0
    0.9221    1.4999    0.4317 N   0  0  0  0  0  2  0  0  0  0  0  0
    3.1714    0.6937   -0.1825 C   0  0  0  0  0  0  0  0  0  0  0  0
    2.8105   -0.3252   -1.1537 C   0  0  0  0  0  0  0  0  0  0  0  0
    3.8897   -1.0511   -1.7552 C   0  0  0  0  0  0  0  0  0  0  0  0
    3.6175   -1.8136   -2.4996 H   0  0  0  0  0  0  0  0  0  0  0  0
    5.2184   -0.8243   -1.4230 C   0  0  0  0  0  0  0  0  0  0  0  0
    6.0183   -1.4094   -1.9000 H   0  0  0  0  0  0  0  0  0  0  0  0
    5.5492    0.1663   -0.4669 C   0  0  0  0  0  0  0  0  0  0  0  0
    4.5446    0.9140    0.1305 C   0  0  0  0  0  0  0  0  0  0  0  0
    4.8026    1.6936    0.8635 H   0  0  0  0  0  0  0  0  0  0  0  0
    2.2253    1.5564    0.4832 C   0  0  0  0  0  3  0  0  0  0  0  0
    2.6766    2.3576    1.1112 H   0  0  0  0  0  0  0  0  0  0  0  0
    0.1263    2.5103    1.1178 C   0  0  0  0  0  0  0  0  0  0  0  0
    0.8018    3.1182    1.7638 H   0  0  0  0  0  0  0  0  0  0  0  0
   -0.6007    3.4557    0.1350 C   0  0  0  0  0  0  0  0  0  0  0  0
   -0.9989    2.8480   -0.7053 H   0  0  0  0  0  0  0  0  0  0  0  0
    0.0783    4.2240   -0.2857 H   0  0  0  0  0  0  0  0  0  0  0  0
   -1.7519    4.0134    0.9780 C   0  0  0  0  0  0  0  0  0  0  0  0
   -1.3665    4.7707    1.6954 H   0  0  0  0  0  0  0  0  0  0  0  0
   -2.5345    4.5082    0.3693 H   0  0  0  0  0  0  0  0  0  0  0  0
   -2.2688    2.7728    1.7322 C   0  0  0  0  0  0  0  0  0  0  0  0
   -2.9856    2.2219    1.0898 H   0  0  0  0  0  0  0  0  0  0  0  0
   -2.8072    3.0304    2.6653 H   0  0  0  0  0  0  0  0  0  0  0  0
   -1.0129    1.8999    1.9869 C   0  0  0  0  0  0  0  0  0  0  0  0
   -0.7143    1.8772    3.0539 H   0  0  0  0  0  0  0  0  0  0  0  0
   -1.1877    0.8459    1.6914 H   0  0  0  0  0  0  0  0  0  0  0  0
  2  5  1  0  0  0  0
  3 13  1  0  0  0  0
  3 15  1  0  0  0  0
  4 11  1  0  0  0  0
  4 13  1  0  0  0  0
  5  4  2  0  0  0  0
  6  8  2  0  0  0  0
  6  5  1  0  0  0  0
  7  6  1  0  0  0  0
  8 10  1  0  0  0  0
  9  8  1  0  0  0  0
 10  1  1  0  0  0  0
 10 11  2  0  0  0  0
 11 12  1  0  0  0  0
 13 14  1  0  0  0  0
 15 16  1  0  0  0  0
 15 26  1  0  0  0  0
 17 20  1  0  0  0  0
 17 15  1  0  0  0  0
 18 17  1  0  0  0  0
 19 17  1  0  0  0  0
 20 21  1  0  0  0  0
 20 23  1  0  0  0  0
 22 20  1  0  0  0  0
 23 26  1  0  0  0  0
 23 25  1  0  0  0  0
 24 23  1  0  0  0  0
 26 27  1  0  0  0  0
 28 26  1  0  0  0  0
M  CHG  1   2  -1
M  END
