29,36
q = -1.0

 73 74  0  0  0  0  0  0  0  0999 V2000
   -2.1045    1.4641   -1.5381 O   0  0  0  0  0  0  0  0  0  0  0  0
   -3.3478    2.1391   -1.3263 C   0  0  0  0  0  0  0  0  0  0  0  0
   -3.7231    2.5315   -2.2986 H   0  0  0  0  0  0  0  0  0  0  0  0
   -3.1015    2.9990   -0.6733 H   0  0  0  0  0  0  0  0  0  0  0  0
   -4.4320    1.3107   -0.6596 C   0  0  0  0  0  0  0  0  0  0  0  0
   -4.0390    0.8191    0.2565 H   0  0  0  0  0  0  0  0  0  0  0  0
   -5.2503    2.0008   -0.3354 H   0  0  0  0  0  0  0  0  0  0  0  0
   -4.9295    0.3574   -1.5898 O   0  0  0  0  0  0  0  0  0  0  0  0
   -6.0374   -0.4082   -1.1517 C   0  0  0  0  0  0  0  0  0  0  0  0
   -6.4635   -0.8735   -2.0646 H   0  0  0  0  0  0  0  0  0  0  0  0
   -6.8217    0.2494   -0.7031 H   0  0  0  0  0  0  0  0  0  0  0  0
   -5.7011   -1.5133   -0.1619 C   0  0  0  0  0  0  0  0  0  0  0  0
   -6.5470   -2.2472   -0.1463 H   0  0  0  0  0  0  0  0  0  0  0  0
   -4.7933   -2.0575   -0.5111 H   0  0  0  0  0  0  0  0  0  0  0  0
   -5.5059   -0.9555    1.1272 O   0  0  0  0  0  0  0  0  0  0  0  0
   -4.9698   -1.8532    2.0846 C   0  0  0  0  0  0  0  0  0  0  0  0
   -5.1591   -2.9111    1.7895 H   0  0  0  0  0  0  0  0  0  0  0  0
   -5.4945   -1.6780    3.0497 H   0  0  0  0  0  0  0  0  0  0  0  0
   -3.4840   -1.6403    2.3182 C   0  0  0  0  0  0  0  0  0  0  0  0
   -3.3018   -0.5895    2.6500 H   0  0  0  0  0  0  0  0  0  0  0  0
   -3.1540   -2.3111    3.1516 H   0  0  0  0  0  0  0  0  0  0  0  0
   -2.7539   -1.9148    1.1355 O   0  0  0  0  0  0  0  0  0  0  0  0
   -1.3530   -1.8625    1.3542 C   0  0  0  0  0  0  0  0  0  0  0  0
   -1.0482   -2.6774    2.0578 H   0  0  0  0  0  0  0  0  0  0  0  0
   -1.0705   -0.8953    1.8326 H   0  0  0  0  0  0  0  0  0  0  0  0
   -0.5638   -2.0318    0.0711 C   0  0  0  0  0  0  0  0  0  0  0  0
    0.4998   -2.1403    0.3667 H   0  0  0  0  0  0  0  0  0  0  0  0
   -0.8619   -2.9775   -0.4424 H   0  0  0  0  0  0  0  0  0  0  0  0
   -0.6205   -0.9002   -0.8806 N   0  0  0  0  0  0  0  0  0  0  0  0
   -1.8580   -0.9366   -1.6939 C   0  0  0  0  0  0  0  0  0  0  0  0
   -2.7065   -1.1130   -1.0077 H   0  0  0  0  0  0  0  0  0  0  0  0
   -1.8215   -1.7889   -2.4164 H   0  0  0  0  0  0  0  0  0  0  0  0
   -2.0999    0.3595   -2.4571 C   0  0  0  0  0  0  0  0  0  0  0  0
   -1.3028    0.5600   -3.2029 H   0  0  0  0  0  0  0  0  0  0  0  0
   -3.0720    0.2909   -2.9812 H   0  0  0  0  0  0  0  0  0  0  0  0
    1.0589    1.5943   -0.7528 O   0  5  0  0  0  0  0  0  0  0  0  0
    2.0485    0.7198   -0.5980 C   0  0  0  0  0  0  0  0  0  0  0  0
    3.3143    1.0800   -0.0185 C   0  0  0  0  0  0  0  0  0  0  0  0
    3.5763    2.5279    0.4340 C   0  0  0  0  0  0  0  0  0  0  0  0
    2.5669    2.9115    1.5407 C   0  0  0  0  0  0  0  0  0  0  0  0
    1.5298    2.8001    1.1746 H   0  0  0  0  0  0  0  0  0  0  0  0
    2.7185    3.9649    1.8575 H   0  0  0  0  0  0  0  0  0  0  0  0
    2.6991    2.2638    2.4319 H   0  0  0  0  0  0  0  0  0  0  0  0
    3.4110    3.4774   -0.7758 C   0  0  0  0  0  0  0  0  0  0  0  0
    4.1548    3.2373   -1.5631 H   0  0  0  0  0  0  0  0  0  0  0  0
    3.5697    4.5313   -0.4635 H   0  0  0  0  0  0  0  0  0  0  0  0
    2.3972    3.3800   -1.2066 H   0  0  0  0  0  0  0  0  0  0  0  0
    4.9947    2.7180    0.9995 C   0  0  0  0  0  0  0  0  0  0  0  0
    5.1746    2.0903    1.8962 H   0  0  0  0  0  0  0  0  0  0  0  0
    5.1331    3.7762    1.3015 H   0  0  0  0  0  0  0  0  0  0  0  0
    5.7766    2.4806    0.2494 H   0  0  0  0  0  0  0  0  0  0  0  0
    4.2879    0.0777    0.1120 C   0  0  0  0  0  0  0  0  0  0  0  0
    5.2502    0.3524    0.5661 H   0  0  0  0  0  0  0  0  0  0  0  0
    4.1150   -1.2645   -0.2988 C   0  0  0  0  0  0  0  0  0  0  0  0
    5.2518   -2.2814   -0.0951 C   0  0  0  0  0  0  0  0  0  0  0  0
    6.5099   -1.8113   -0.8602 C   0  0  0  0  0  0  0  0  0  0  0  0
    6.3025   -1.7314   -1.9465 H   0  0  0  0  0  0  0  0  0  0  0  0
    7.3479   -2.5261   -0.7183 H   0  0  0  0  0  0  0  0  0  0  0  0
    6.8522   -0.8169   -0.5109 H   0  0  0  0  0  0  0  0  0  0  0  0
    5.5806   -2.3904    1.4114 C   0  0  0  0  0  0  0  0  0  0  0  0
    5.8905   -1.4136    1.8330 H   0  0  0  0  0  0  0  0  0  0  0  0
    6.4079   -3.1109    1.5838 H   0  0  0  0  0  0  0  0  0  0  0  0
    4.6955   -2.7362    1.9833 H   0  0  0  0  0  0  0  0  0  0  0  0
    4.8719   -3.6813   -0.6074 C   0  0  0  0  0  0  0  0  0  0  0  0
    3.9843   -4.0849   -0.0791 H   0  0  0  0  0  0  0  0  0  0  0  0
    5.7107   -4.3873   -0.4401 H   0  0  0  0  0  0  0  0  0  0  0  0
    4.6516   -3.6752   -1.6942 H   0  0  0  0  0  0  0  0  0  0  0  0
    2.8857   -1.5894   -0.8915 C   0  0  0  0  0  0  0  0  0  0  0  0
    2.6934   -2.6072   -1.2650 H   0  0  0  0  0  0  0  0  0  0  0  0
    1.8742   -0.6251   -1.0475 C   0  0  0  0  0  0  0  0  0  0  0  0
    0.5934   -0.9377   -1.7630 C   0  0  0  0  0  0  0  0  0  0  0  0
    0.4357   -0.1738   -2.5495 H   0  0  0  0  0  0  0  0  0  0  0  0
    0.6450   -1.9360   -2.2579 H   0  0  0  0  0  0  0  0  0  0  0  0
  1  2  1  0  0  0  0
  2  4  1  0  0  0  0
  2  5  1  0  0  0  0
  3  2  1  0  0  0  0
  5  7  1  0  0  0  0
  5  6  1  0  0  0  0
  8  9  1  0  0  0  0
  8  5  1  0  0  0  0
  9 11  1  0  0  0  0
  9 12  1  0  0  0  0
 10  9  1  0  0  0  0
 12 13  1  0  0  0  0
 12 15  1  0  0  0  0
 14 12  1  0  0  0  0
 15 16  1  0  0  0  0
 16 19  1  0  0  0  0
 16 18  1  0  0  0  0
 17 16  1  0  0  0  0
 19 20  1  0  0  0  0
 19 21  1  0  0  0  0
 22 23  1  0  0  0  0
 22 19  1  0  0  0  0
 23 25  1  0  0  0  0
 23 24  1  0  0  0  0
 26 27  1  0  0  0  0
 26 23  1  0  0  0  0
 28 26  1  0  0  0  0
 29 26  1  0  0  0  0
 30 31  1  0  0  0  0
 30 29  1  0  0  0  0
 32 30  1  0  0  0  0
 33 30  1  0  0  0  0
 33  1  1  0  0  0  0
 34 33  1  0  0  0  0
 35 33  1  0  0  0  0
 36 37  1  0  0  0  0
 37 38  1  0  0  0  0
 38 52  2  0  0  0  0
 38 39  1  0  0  0  0
 39 48  1  0  0  0  0
 39 40  1  0  0  0  0
 40 42  1  0  0  0  0
 40 43  1  0  0  0  0
 41 40  1  0  0  0  0
 44 46  1  0  0  0  0
 44 39  1  0  0  0  0
 45 44  1  0  0  0  0
 47 44  1  0  0  0  0
 48 50  1  0  0  0  0
 48 49  1  0  0  0  0
 51 48  1  0  0  0  0
 52 53  1  0  0  0  0
 54 55  1  0  0  0  0
 54 52  1  0  0  0  0
 55 60  1  0  0  0  0
 56 58  1  0  0  0  0
 56 59  1  0  0  0  0
 56 55  1  0  0  0  0
 57 56  1  0  0  0  0
 60 62  1  0  0  0  0
 60 61  1  0  0  0  0
 60 63  1  0  0  0  0
 64 66  1  0  0  0  0
 64 55  1  0  0  0  0
 64 65  1  0  0  0  0
 67 64  1  0  0  0  0
 68 54  2  0  0  0  0
 69 68  1  0  0  0  0
 70 68  1  0  0  0  0
 70 37  2  0  0  0  0
 71 70  1  0  0  0  0
 71 29  1  0  0  0  0
 72 71  1  0  0  0  0
 73 71  1  0  0  0  0
M  CHG  1  36  -1
M  END
