1,2
q = -1.0

 25 25  0  0  1  0  0  0  0  0999 V2000
    0.9646   -1.6093    0.4393 N   0  0  0  0  0  2  0  0  0  0  0  0
    1.5559    0.9441   -0.3662 O   0  0  0  0  0  1  0  0  0  0  0  0
    3.2356   -0.7023    0.1730 C   0  0  0  0  0  0  0  0  0  0  0  0
    2.2731   -1.7190    0.4572 C   0  0  0  0  0  0  0  0  0  0  0  0
    2.6908   -2.7115    0.7208 H   0  0  0  0  0  0  0  0  0  0  0  0
    5.1687    1.2484   -0.3871 C   0  0  0  0  0  0  0  0  0  0  0  0
    5.9232    2.0219   -0.6066 H   0  0  0  0  0  0  0  0  0  0  0  0
    5.6077   -0.0460    0.0135 C   0  0  0  0  0  0  0  0  0  0  0  0
    0.2305   -2.8589    0.7307 C   0  0  0  0  0  0  0  0  0  0  0  0
    0.9000   -3.5553    1.2782 H   0  0  0  0  0  0  0  0  0  0  0  0
   -0.6247   -2.6010    1.3835 H   0  0  0  0  0  0  0  0  0  0  0  0
    4.6244   -0.9942    0.2844 C   0  0  0  0  0  0  0  0  0  0  0  0
    4.9182   -2.0103    0.5969 H   0  0  0  0  0  0  0  0  0  0  0  0
   -0.2801   -3.5122   -0.5246 C   0  0  0  0  0  0  0  0  0  0  0  0
   -0.9421   -2.8822   -1.1422 H   0  0  0  0  0  0  0  0  0  0  0  0
    3.8231    1.5699   -0.5104 C   0  0  0  0  0  0  0  0  0  0  0  0
    3.5028    2.5757   -0.8191 H   0  0  0  0  0  0  0  0  0  0  0  0
    0.0152   -4.7687   -0.8970 C   0  0  0  0  0  0  0  0  0  0  0  0
    0.6759   -5.4114   -0.2903 H   0  0  0  0  0  0  0  0  0  0  0  0
   -0.3991   -5.2078   -1.8179 H   0  0  0  0  0  0  0  0  0  0  0  0
    7.0787   -0.3547    0.1328 C   0  0  0  0  0  0  0  0  0  0  0  0
    7.2501   -1.4013    0.4517 H   0  0  0  0  0  0  0  0  0  0  0  0
    7.5761    0.3080    0.8725 H   0  0  0  0  0  0  0  0  0  0  0  0
    7.6064   -0.2067   -0.8332 H   0  0  0  0  0  0  0  0  0  0  0  0
    2.8086    0.6035   -0.2335 C   0  0  1  0  0  3  0  0  0  0  0  0
  1  4  1  0  0  0  0
  1  9  1  0  0  0  0
  3 12  1  0  0  0  0
  3  4  2  0  0  0  0
  4  5  1  0  0  0  0
  6  8  1  0  0  0  0
  7  6  1  0  0  0  0
  8 21  1  0  0  0  0
  8 12  2  0  0  0  0
  9 10  1  0  0  0  0
  9 11  1  0  0  0  0
 12 13  1  0  0  0  0
 14  9  1  0  0  0  0
 15 14  1  0  0  0  0
 16  6  2  0  0  0  0
 16 25  1  0  0  0  0
 17 16  1  0  0  0  0
 18 14  2  0  0  0  0
 18 19  1  0  0  0  0
 20 18  1  0  0  0  0
 21 22  1  0  0  0  0
 21 23  1  0  0  0  0
 24 21  1  0  0  0  0
 25  2  1  6  0  0  0
 25  3  1  0  0  0  0
M  END
