1,2
q = -1.0

 25 25  0  0  0  0  0  0  0  0999 V2000
   -0.9646    1.6094   -0.4394 N   0  0  0  0  0  2  0  0  0  0  0  0
   -1.5560   -0.9441    0.3661 O   0  5  0  0  0  0  0  0  0  0  0  0
   -3.2357    0.7024   -0.1730 C   0  0  0  0  0  0  0  0  0  0  0  0
   -2.2731    1.7190   -0.4572 C   0  0  0  0  0  0  0  0  0  0  0  0
   -2.6909    2.7116   -0.7207 H   0  0  0  0  0  0  0  0  0  0  0  0
   -5.1687   -1.2484    0.3871 C   0  0  0  0  0  0  0  0  0  0  0  0
   -5.9232   -2.0219    0.6066 H   0  0  0  0  0  0  0  0  0  0  0  0
   -5.6077    0.0460   -0.0135 C   0  0  0  0  0  0  0  0  0  0  0  0
   -0.2305    2.8589   -0.7307 C   0  0  0  0  0  0  0  0  0  0  0  0
   -0.9001    3.5555   -1.2780 H   0  0  0  0  0  0  0  0  0  0  0  0
    0.6245    2.6011   -1.3837 H   0  0  0  0  0  0  0  0  0  0  0  0
   -4.6245    0.9942   -0.2844 C   0  0  0  0  0  3  0  0  0  0  0  0
   -4.9183    2.0103   -0.5968 H   0  0  0  0  0  0  0  0  0  0  0  0
    0.2803    3.5120    0.5246 C   0  0  0  0  0  0  0  0  0  0  0  0
    0.9424    2.8819    1.1419 H   0  0  0  0  0  0  0  0  0  0  0  0
   -3.8232   -1.5698    0.5104 C   0  0  0  0  0  0  0  0  0  0  0  0
   -3.5028   -2.5757    0.8191 H   0  0  0  0  0  0  0  0  0  0  0  0
   -0.0148    4.7684    0.8973 C   0  0  0  0  0  0  0  0  0  0  0  0
   -0.6756    5.4113    0.2909 H   0  0  0  0  0  0  0  0  0  0  0  0
    0.3997    5.2073    1.8182 H   0  0  0  0  0  0  0  0  0  0  0  0
   -7.0787    0.3548   -0.1327 C   0  0  0  0  0  0  0  0  0  0  0  0
   -7.2502    1.4013   -0.4516 H   0  0  0  0  0  0  0  0  0  0  0  0
   -7.5762   -0.3080   -0.8723 H   0  0  0  0  0  0  0  0  0  0  0  0
   -7.6064    0.2069    0.8334 H   0  0  0  0  0  0  0  0  0  0  0  0
   -2.8086   -0.6035    0.2334 C   0  0  0  0  0  0  0  0  0  0  0  0
  3 25  1  0  0  0  0
  4  1  1  0  0  0  0
  4  3  2  0  0  0  0
  5  4  1  0  0  0  0
  6 16  1  0  0  0  0
  6  7  1  0  0  0  0
  8  6  2  0  0  0  0
  9  1  1  0  0  0  0
  9 14  1  0  0  0  0
 10  9  1  0  0  0  0
 11  9  1  0  0  0  0
 12  3  1  0  0  0  0
 12  8  1  0  0  0  0
 13 12  1  0  0  0  0
 14 18  2  0  0  0  0
 14 15  1  0  0  0  0
 16 17  1  0  0  0  0
 18 20  1  0  0  0  0
 19 18  1  0  0  0  0
 21  8  1  0  0  0  0
 21 24  1  0  0  0  0
 22 21  1  0  0  0  0
 23 21  1  0  0  0  0
 25  2  1  0  0  0  0
 25 16  2  0  0  0  0
M  CHG  1   2  -1
M  END
