2,3
q = -1.0, confidence = 0.002

 27 28  0  0  1  0  0  0  0  0999 V2000
   -7.2908   -0.4497    0.1090 Cl  0  0  0  0  0  0  0  0  0  0  0  0
   -1.6206    1.0505   -0.5416 O   0  0  0  0  0  1  0  0  0  0  0  0
   -1.0096   -1.7525   -0.2363 N   0  0  0  0  0  2  0  0  0  0  0  0
   -0.7698   -4.0269    0.3506 N   0  0  0  0  0  0  0  0  0  0  0  0
   -3.2469   -0.7240   -0.1564 C   0  0  0  0  0  0  0  0  0  0  0  0
   -2.8486    0.6451   -0.3957 C   0  0  2  0  0  3  0  0  0  0  0  0
   -0.3018   -2.9893   -0.3499 C   0  0  0  0  0  0  0  0  0  0  0  0
   -5.2243    1.2914   -0.3416 C   0  0  0  0  0  0  0  0  0  0  0  0
   -6.0047    2.0634   -0.4097 H   0  0  0  0  0  0  0  0  0  0  0  0
   -4.6300   -1.0403   -0.0111 C   0  0  0  0  0  0  0  0  0  0  0  0
   -4.9255   -2.0852    0.1631 H   0  0  0  0  0  0  0  0  0  0  0  0
    0.9926   -5.3927   -0.5523 C   0  0  0  0  0  0  0  0  0  0  0  0
    1.4924   -6.3713   -0.6002 H   0  0  0  0  0  0  0  0  0  0  0  0
   -5.6003   -0.0523   -0.0889 C   0  0  0  0  0  0  0  0  0  0  0  0
   -0.1433   -5.2175    0.2626 C   0  0  0  0  0  0  0  0  0  0  0  0
   -3.8870    1.6253   -0.4999 C   0  0  0  0  0  0  0  0  0  0  0  0
   -3.5791    2.6620   -0.6972 H   0  0  0  0  0  0  0  0  0  0  0  0
    1.4654   -4.3040   -1.3022 C   0  0  0  0  0  0  0  0  0  0  0  0
    2.3403   -4.4159   -1.9602 H   0  0  0  0  0  0  0  0  0  0  0  0
    0.8141   -3.0722   -1.2071 C   0  0  0  0  0  0  0  0  0  0  0  0
    1.1416   -2.1924   -1.7757 H   0  0  0  0  0  0  0  0  0  0  0  0
   -2.3211   -1.8152   -0.1611 C   0  0  0  0  0  0  0  0  0  0  0  0
   -2.7487   -2.8354   -0.1257 H   0  0  0  0  0  0  0  0  0  0  0  0
   -0.7193   -6.3401    1.0850 C   0  0  0  0  0  0  0  0  0  0  0  0
   -1.7779   -6.5171    0.8053 H   0  0  0  0  0  0  0  0  0  0  0  0
   -0.1545   -7.2822    0.9554 H   0  0  0  0  0  0  0  0  0  0  0  0
   -0.7180   -6.0667    2.1598 H   0  0  0  0  0  0  0  0  0  0  0  0
  3 22  1  0  0  0  0
  5 10  1  0  0  0  0
  6  2  1  6  0  0  0
  6  5  1  0  0  0  0
  7  3  1  0  0  0  0
  7  4  2  0  0  0  0
  8 14  1  0  0  0  0
  9  8  1  0  0  0  0
 10 11  1  0  0  0  0
 12 15  2  0  0  0  0
 13 12  1  0  0  0  0
 14 10  2  0  0  0  0
 14  1  1  0  0  0  0
 15  4  1  0  0  0  0
 15 24  1  0  0  0  0
 16  6  1  0  0  0  0
 16  8  2  0  0  0  0
 17 16  1  0  0  0  0
 18 20  2  0  0  0  0
 18 12  1  0  0  0  0
 19 18  1  0  0  0  0
 20  7  1  0  0  0  0
 21 20  1  0  0  0  0
 22  5  2  0  0  0  0
 22 23  1  0  0  0  0
 24 27  1  0  0  0  0
 25 24  1  0  0  0  0
 26 24  1  0  0  0  0
M  END
