18,22
q = -2.0, confidence = 0.808

 28 28  0  0  0  0  0  0  0  0999 V2000
    0.2318    2.3050   -0.0316 C   0  0  0  0  0  0  0  0  0  0  0  0
   -4.2982    1.4902   -1.2782 F   0  0  0  0  0  0  0  0  0  0  0  0
    1.6507   -1.9902   -0.0875 O   0  0  0  0  0  0  0  0  0  0  0  0
    1.2177    1.4489   -0.0856 N   0  0  0  0  0  0  0  0  0  0  0  0
   -1.2210    2.2366    0.0355 C   0  0  0  0  0  0  0  0  0  0  0  0
   -1.6648    3.2065    0.2966 H   0  0  0  0  0  0  0  0  0  0  0  0
    3.4902   -0.4589   -0.0322 C   0  0  0  0  0  0  0  0  0  0  0  0
    2.0708    3.8624    0.0529 F   0  0  0  0  0  0  0  0  0  0  0  0
    0.1876    4.4820    0.9547 F   0  0  0  0  0  0  0  0  0  0  0  0
    4.3649   -1.5723   -0.0443 C   0  0  0  0  0  0  0  0  0  0  0  0
    3.9187   -2.5761   -0.0805 H   0  0  0  0  0  0  0  0  0  0  0  0
    0.3715    4.3683   -1.2147 F   0  0  0  0  0  0  0  0  0  0  0  0
    2.0296   -0.7712   -0.0669 C   0  0  0  0  0  0  0  0  0  0  0  0
   -3.6460    1.6776   -0.1079 C   0  0  0  0  0  0  0  0  0  0  0  0
   -4.2741    0.8893    0.8184 F   0  0  0  0  0  0  0  0  0  0  0  0
    5.4362    1.0103    0.0516 C   0  0  0  0  0  0  0  0  0  0  0  0
    5.8541    2.0280    0.0893 H   0  0  0  0  0  0  0  0  0  0  0  0
   -2.0849    0.0267   -0.6184 O   0  5  0  0  0  0  0  0  0  0  0  0
    0.7327    3.7521   -0.0586 C   0  0  0  0  0  0  0  0  0  0  0  0
   -3.8501    2.9582    0.2706 F   0  0  0  0  0  0  0  0  0  0  0  0
   -2.1703    1.2680   -0.2376 C   0  0  0  0  0  0  0  0  0  0  0  0
    1.0002    0.1267   -0.0641 N   0  0  0  0  0  2  0  0  0  0  0  0
    4.0443    0.8423    0.0169 C   0  0  0  0  0  0  0  0  0  0  0  0
    3.3693    1.7064    0.0248 H   0  0  0  0  0  0  0  0  0  0  0  0
    6.2937   -0.1005    0.0384 C   0  0  0  0  0  0  0  0  0  0  0  0
    7.3853    0.0419    0.0658 H   0  0  0  0  0  0  0  0  0  0  0  0
    5.7518   -1.3962   -0.0096 C   0  0  0  0  0  0  0  0  0  0  0  0
    6.4167   -2.2736   -0.0201 H   0  0  0  0  0  0  0  0  0  0  0  0
  1  5  1  0  0  0  0
  2 14  1  0  0  0  0
  3 13  2  0  0  0  0
  4 22  1  0  0  0  0
  4  1  2  0  0  0  0
  5  6  1  0  0  0  0
  7 23  1  0  0  0  0
 10  7  2  0  0  0  0
 10 27  1  0  0  0  0
 11 10  1  0  0  0  0
 12 19  1  0  0  0  0
 13 22  1  0  0  0  0
 13  7  1  0  0  0  0
 14 20  1  0  0  0  0
 14 15  1  0  0  0  0
 16 17  1  0  0  0  0
 18 21  1  0  0  0  0
 19  1  1  0  0  0  0
 19  8  1  0  0  0  0
 19  9  1  0  0  0  0
 21 14  1  0  0  0  0
 21  5  2  0  0  0  0
 23 24  1  0  0  0  0
 23 16  2  0  0  0  0
 25 16  1  0  0  0  0
 25 26  1  0  0  0  0
 27 25  2  0  0  0  0
 28 27  1  0  0  0  0
M  CHG  1  18  -1
M  END
