3,4
q = -1.0, confidence = 0.026

 32 32  0  0  1  0  0  0  0  0999 V2000
   -3.7879   -2.8949   -1.0242 Br  0  0  0  0  0  0  0  0  0  0  0  0
   -7.3011    1.3738    0.3586 Br  0  0  0  0  0  0  0  0  0  0  0  0
   -1.6838   -0.7285   -0.5662 O   0  0  0  0  0  1  0  0  0  0  0  0
   -0.7497    1.7775    0.0604 N   0  0  0  0  0  2  0  0  0  0  0  0
    0.6775    1.0266   -2.5102 N   0  0  0  0  0  0  0  0  0  0  0  0
   -3.1221    1.1210    0.0058 C   0  0  0  0  0  0  0  0  0  0  0  0
   -2.8682   -0.2493   -0.3587 C   0  0  1  0  0  3  0  0  0  0  0  0
   -4.0332   -1.0776   -0.5141 C   0  0  0  0  0  0  0  0  0  0  0  0
   -5.3271   -0.6064   -0.3032 C   0  0  0  0  0  0  0  0  0  0  0  0
   -6.1832   -1.2835   -0.4256 H   0  0  0  0  0  0  0  0  0  0  0  0
   -5.5284    0.7417    0.0675 C   0  0  0  0  0  0  0  0  0  0  0  0
   -4.4422    1.5978    0.2109 C   0  0  0  0  0  0  0  0  0  0  0  0
   -4.5980    2.6521    0.4828 H   0  0  0  0  0  0  0  0  0  0  0  0
   -2.0297    2.0495    0.0972 C   0  0  0  0  0  0  0  0  0  0  0  0
   -2.3176    3.1178    0.1796 H   0  0  0  0  0  0  0  0  0  0  0  0
    0.1409    2.9419   -0.0411 C   0  0  0  0  0  0  0  0  0  0  0  0
   -0.3479    3.8050    0.4615 H   0  0  0  0  0  0  0  0  0  0  0  0
    1.0772    2.7118    0.4954 H   0  0  0  0  0  0  0  0  0  0  0  0
    0.4468    3.3334   -1.4954 C   0  0  0  0  0  0  0  0  0  0  0  0
    1.0207    4.2834   -1.4615 H   0  0  0  0  0  0  0  0  0  0  0  0
   -0.5044    3.5746   -2.0188 H   0  0  0  0  0  0  0  0  0  0  0  0
    1.2786    2.3407   -2.3121 C   0  0  0  0  0  0  0  0  0  0  0  0
    2.2478    2.1865   -1.7933 H   0  0  0  0  0  0  0  0  0  0  0  0
    1.5246    2.8240   -3.2983 H   0  0  0  0  0  0  0  0  0  0  0  0
   -0.5841    1.0417   -3.2276 C   0  0  0  0  0  0  0  0  0  0  0  0
   -1.0005    0.0154   -3.2600 H   0  0  0  0  0  0  0  0  0  0  0  0
   -1.3281    1.6738   -2.7060 H   0  0  0  0  0  0  0  0  0  0  0  0
   -0.4851    1.4181   -4.2806 H   0  0  0  0  0  0  0  0  0  0  0  0
    1.6171    0.0899   -3.1001 C   0  0  0  0  0  0  0  0  0  0  0  0
    1.9014    0.3582   -4.1527 H   0  0  0  0  0  0  0  0  0  0  0  0
    2.5456    0.0507   -2.4972 H   0  0  0  0  0  0  0  0  0  0  0  0
    1.1756   -0.9272   -3.1150 H   0  0  0  0  0  0  0  0  0  0  0  0
  1  8  1  0  0  0  0
  4 14  1  0  0  0  0
  5 22  1  0  0  0  0
  6 14  2  0  0  0  0
  6 12  1  0  0  0  0
  7  3  1  6  0  0  0
  7  6  1  0  0  0  0
  8  7  1  0  0  0  0
  8  9  2  0  0  0  0
  9 11  1  0  0  0  0
 10  9  1  0  0  0  0
 11 12  2  0  0  0  0
 11  2  1  0  0  0  0
 12 13  1  0  0  0  0
 14 15  1  0  0  0  0
 16  4  1  0  0  0  0
 16 17  1  0  0  0  0
 16 18  1  0  0  0  0
 19 20  1  0  0  0  0
 19 16  1  0  0  0  0
 21 19  1  0  0  0  0
 22 23  1  0  0  0  0
 22 19  1  0  0  0  0
 24 22  1  0  0  0  0
 25 27  1  0  0  0  0
 25  5  1  0  0  0  0
 26 25  1  0  0  0  0
 28 25  1  0  0  0  0
 29  5  1  0  0  0  0
 29 31  1  0  0  0  0
 30 29  1  0  0  0  0
 32 29  1  0  0  0  0
M  END
