1,3
q = -1.0

 62 63  0  0  0  0  0  0  0  0999 V2000
    1.7682    1.0460    0.3691 O   0  5  0  0  0  0  0  0  0  0  0  0
    6.1895   -0.4634    0.0121 O   0  0  0  0  0  0  0  0  0  0  0  0
   -0.3678   -0.9477    0.2146 N   0  0  0  0  0  2  0  0  0  0  0  0
    0.7163   -1.7095    0.1566 C   0  0  0  0  0  0  0  0  0  0  0  0
    0.5329   -2.7983    0.2354 H   0  0  0  0  0  0  0  0  0  0  0  0
    2.0866   -1.3336    0.0657 C   0  0  0  0  0  0  0  0  0  0  0  0
    3.0448   -2.3788   -0.0767 C   0  0  0  0  0  3  0  0  0  0  0  0
    2.6747   -3.4130   -0.1661 H   0  0  0  0  0  0  0  0  0  0  0  0
    4.4105   -2.1463   -0.1112 C   0  0  0  0  0  0  0  0  0  0  0  0
    5.1082   -2.9837   -0.2320 H   0  0  0  0  0  0  0  0  0  0  0  0
    4.8750   -0.8037    0.0257 C   0  0  0  0  0  0  0  0  0  0  0  0
    3.9680    0.2469    0.1892 C   0  0  0  0  0  0  0  0  0  0  0  0
    4.3473    1.2717    0.2995 H   0  0  0  0  0  0  0  0  0  0  0  0
    2.5622    0.0326    0.2066 C   0  0  0  0  0  0  0  0  0  0  0  0
    7.1767   -1.4776   -0.1527 C   0  0  0  0  0  0  0  0  0  0  0  0
    7.0162   -2.0186   -1.1148 H   0  0  0  0  0  0  0  0  0  0  0  0
    7.0965   -2.2300    0.6667 H   0  0  0  0  0  0  0  0  0  0  0  0
    8.5447   -0.8138   -0.1351 C   0  0  0  0  0  0  0  0  0  0  0  0
    8.6557   -0.2575    0.8205 H   0  0  0  0  0  0  0  0  0  0  0  0
    8.5791   -0.0517   -0.9431 H   0  0  0  0  0  0  0  0  0  0  0  0
    9.6908   -1.8140   -0.3014 C   0  0  0  0  0  0  0  0  0  0  0  0
    9.6370   -2.5796    0.5056 H   0  0  0  0  0  0  0  0  0  0  0  0
    9.5606   -2.3748   -1.2547 H   0  0  0  0  0  0  0  0  0  0  0  0
   11.0764   -1.1630   -0.2858 C   0  0  0  0  0  0  0  0  0  0  0  0
   11.2074   -0.6010    0.6666 H   0  0  0  0  0  0  0  0  0  0  0  0
   11.1317   -0.3976   -1.0928 H   0  0  0  0  0  0  0  0  0  0  0  0
   12.2292   -2.1577   -0.4503 C   0  0  0  0  0  0  0  0  0  0  0  0
   12.1685   -2.9218    0.3567 H   0  0  0  0  0  0  0  0  0  0  0  0
   12.0929   -2.7186   -1.4020 H   0  0  0  0  0  0  0  0  0  0  0  0
   13.6090   -1.4992   -0.4336 C   0  0  0  0  0  0  0  0  0  0  0  0
   14.4219   -2.2432   -0.5546 H   0  0  0  0  0  0  0  0  0  0  0  0
   13.7874   -0.9613    0.5211 H   0  0  0  0  0  0  0  0  0  0  0  0
   13.7111   -0.7564   -1.2524 H   0  0  0  0  0  0  0  0  0  0  0  0
   -1.6024   -1.6304    0.4459 C   0  0  0  0  0  0  0  0  0  0  0  0
   -2.4242   -1.2305    1.5160 C   0  0  0  0  0  0  0  0  0  0  0  0
   -2.0813   -0.4155    2.1690 H   0  0  0  0  0  0  0  0  0  0  0  0
   -3.6691   -1.8372    1.7052 C   0  0  0  0  0  0  0  0  0  0  0  0
   -4.3108   -1.5027    2.5357 H   0  0  0  0  0  0  0  0  0  0  0  0
   -4.1323   -2.8499    0.8393 C   0  0  0  0  0  0  0  0  0  0  0  0
   -3.2833   -3.2644   -0.2057 C   0  0  0  0  0  0  0  0  0  0  0  0
   -3.6217   -4.0530   -0.8968 H   0  0  0  0  0  0  0  0  0  0  0  0
   -2.0294   -2.6692   -0.4030 C   0  0  0  0  0  0  0  0  0  0  0  0
   -1.3975   -2.9699   -1.2520 H   0  0  0  0  0  0  0  0  0  0  0  0
   -5.5355   -3.3914    0.9654 C   0  0  0  0  0  0  0  0  0  0  0  0
   -5.5729   -4.4408    0.6018 H   0  0  0  0  0  0  0  0  0  0  0  0
   -5.8352   -3.4172    2.0353 H   0  0  0  0  0  0  0  0  0  0  0  0
   -6.5528   -2.5448    0.1777 C   0  0  0  0  0  0  0  0  0  0  0  0
   -6.2487   -2.5226   -0.8927 H   0  0  0  0  0  0  0  0  0  0  0  0
   -6.4876   -1.4896    0.5246 H   0  0  0  0  0  0  0  0  0  0  0  0
   -7.9947   -3.0420    0.2951 C   0  0  0  0  0  0  0  0  0  0  0  0
   -8.0507   -4.0994   -0.0502 H   0  0  0  0  0  0  0  0  0  0  0  0
   -8.2906   -3.0636    1.3686 H   0  0  0  0  0  0  0  0  0  0  0  0
   -9.0001   -2.1969   -0.4913 C   0  0  0  0  0  0  0  0  0  0  0  0
   -8.9399   -1.1394   -0.1464 H   0  0  0  0  0  0  0  0  0  0  0  0
   -8.7027   -2.1759   -1.5645 H   0  0  0  0  0  0  0  0  0  0  0  0
  -10.4475   -2.6848   -0.3772 C   0  0  0  0  0  0  0  0  0  0  0  0
  -10.7407   -2.7055    0.6963 H   0  0  0  0  0  0  0  0  0  0  0  0
  -10.5032   -3.7419   -0.7209 H   0  0  0  0  0  0  0  0  0  0  0  0
  -11.4422   -1.8332   -1.1667 C   0  0  0  0  0  0  0  0  0  0  0  0
  -12.4798   -2.2101   -1.0646 H   0  0  0  0  0  0  0  0  0  0  0  0
  -11.1948   -1.8239   -2.2489 H   0  0  0  0  0  0  0  0  0  0  0  0
  -11.4339   -0.7786   -0.8198 H   0  0  0  0  0  0  0  0  0  0  0  0
  2 11  1  0  0  0  0
  3 34  1  0  0  0  0
  4  3  1  0  0  0  0
  4  5  1  0  0  0  0
  6  4  2  0  0  0  0
  6 14  1  0  0  0  0
  7  6  1  0  0  0  0
  8  7  1  0  0  0  0
  9  7  1  0  0  0  0
  9 11  2  0  0  0  0
 10  9  1  0  0  0  0
 11 12  1  0  0  0  0
 12 14  2  0  0  0  0
 12 13  1  0  0  0  0
 14  1  1  0  0  0  0
 15 18  1  0  0  0  0
 15  2  1  0  0  0  0
 15 17  1  0  0  0  0
 16 15  1  0  0  0  0
 18 19  1  0  0  0  0
 20 18  1  0  0  0  0
 21 24  1  0  0  0  0
 21 18  1  0  0  0  0
 21 22  1  0  0  0  0
 23 21  1  0  0  0  0
 24 25  1  0  0  0  0
 26 24  1  0  0  0  0
 27 30  1  0  0  0  0
 27 24  1  0  0  0  0
 27 28  1  0  0  0  0
 29 27  1  0  0  0  0
 30 32  1  0  0  0  0
 31 30  1  0  0  0  0
 33 30  1  0  0  0  0
 34 35  1  0  0  0  0
 35 37  2  0  0  0  0
 35 36  1  0  0  0  0
 37 38  1  0  0  0  0
 39 44  1  0  0  0  0
 39 37  1  0  0  0  0
 40 39  2  0  0  0  0
 41 40  1  0  0  0  0
 42 40  1  0  0  0  0
 42 34  2  0  0  0  0
 43 42  1  0  0  0  0
 44 46  1  0  0  0  0
 45 44  1  0  0  0  0
 47 50  1  0  0  0  0
 47 49  1  0  0  0  0
 47 44  1  0  0  0  0
 48 47  1  0  0  0  0
 50 52  1  0  0  0  0
 51 50  1  0  0  0  0
 53 56  1  0  0  0  0
 53 54  1  0  0  0  0
 53 50  1  0  0  0  0
 55 53  1  0  0  0  0
 56 57  1  0  0  0  0
 58 56  1  0  0  0  0
 59 60  1  0  0  0  0
 59 62  1  0  0  0  0
 59 56  1  0  0  0  0
 61 59  1  0  0  0  0
M  CHG  1   1  -1
M  END
