2,3
q = -1.0

 30 29  0  0  1  0  0  0  0  0999 V2000
   -1.7703   -3.9595    0.2057 O   0  0  0  0  0  0  0  0  0  0  0  0
   -1.7746    0.6797    0.7050 O   0  0  0  0  0  1  0  0  0  0  0  0
   -0.9304   -1.4568   -1.0884 N   0  0  0  0  0  2  0  0  0  0  0  0
   -2.1526   -4.4139    1.4831 C   0  0  0  0  0  0  0  0  0  0  0  0
   -3.2194   -4.7048    1.4287 H   0  0  0  0  0  0  0  0  0  0  0  0
   -2.0431   -3.6149    2.2544 H   0  0  0  0  0  0  0  0  0  0  0  0
   -1.5569   -5.3003    1.8110 H   0  0  0  0  0  0  0  0  0  0  0  0
   -0.4283   -3.5282    0.1373 C   0  0  0  0  0  0  0  0  0  0  0  0
    0.2833   -4.3902    0.1546 H   0  0  0  0  0  0  0  0  0  0  0  0
   -0.1719   -2.8718    1.0048 H   0  0  0  0  0  0  0  0  0  0  0  0
   -0.2327   -2.7403   -1.1497 C   0  0  0  0  0  0  0  0  0  0  0  0
    0.8415   -2.4995   -1.2739 H   0  0  0  0  0  0  0  0  0  0  0  0
   -0.5707   -3.3409   -2.0177 H   0  0  0  0  0  0  0  0  0  0  0  0
   -2.1120   -1.2673   -1.5879 C   0  0  1  0  0  3  0  0  0  0  0  0
   -2.6863    0.1249   -1.5180 C   0  0  0  0  0  0  0  0  0  0  0  0
   -3.6341    0.1860   -2.0839 H   0  0  0  0  0  0  0  0  0  0  0  0
   -1.9603    0.8284   -1.9733 H   0  0  0  0  0  0  0  0  0  0  0  0
   -2.9038    0.6343   -0.0616 C   0  0  0  0  0  0  0  0  0  0  0  0
   -2.9543   -2.3252   -2.2397 C   0  0  0  0  0  0  0  0  0  0  0  0
   -2.6334   -3.3473   -1.9810 H   0  0  0  0  0  0  0  0  0  0  0  0
   -2.9556   -2.1880   -3.3428 H   0  0  0  0  0  0  0  0  0  0  0  0
   -4.0007   -2.1938   -1.9003 H   0  0  0  0  0  0  0  0  0  0  0  0
   -3.4597    2.0950   -0.1795 C   0  0  0  0  0  0  0  0  0  0  0  0
   -3.9624   -0.2772    0.6477 C   0  0  0  0  0  0  0  0  0  0  0  0
   -2.6112    2.8510   -0.9282 F   0  0  0  0  0  0  0  0  0  0  0  0
   -3.5631    2.6909    1.0203 F   0  0  0  0  0  0  0  0  0  0  0  0
   -4.6735    2.1458   -0.7790 F   0  0  0  0  0  0  0  0  0  0  0  0
   -5.0666   -0.4925   -0.1221 F   0  0  0  0  0  0  0  0  0  0  0  0
   -4.3771    0.2433    1.8153 F   0  0  0  0  0  0  0  0  0  0  0  0
   -3.4232   -1.4910    0.9057 F   0  0  0  0  0  0  0  0  0  0  0  0
  1  4  1  0  0  0  0
  4  7  1  0  0  0  0
  4  6  1  0  0  0  0
  5  4  1  0  0  0  0
  8  9  1  0  0  0  0
  8  1  1  0  0  0  0
  8 10  1  0  0  0  0
 11  3  1  0  0  0  0
 11  8  1  0  0  0  0
 12 11  1  0  0  0  0
 13 11  1  0  0  0  0
 14 15  1  0  0  0  0
 14  3  1  6  0  0  0
 15 18  1  0  0  0  0
 16 15  1  0  0  0  0
 17 15  1  0  0  0  0
 18 24  1  0  0  0  0
 18  2  1  0  0  0  0
 19 20  1  0  0  0  0
 19 22  1  0  0  0  0
 19 14  1  0  0  0  0
 21 19  1  0  0  0  0
 23 18  1  0  0  0  0
 23 26  1  0  0  0  0
 24 30  1  0  0  0  0
 24 29  1  0  0  0  0
 25 23  1  0  0  0  0
 27 23  1  0  0  0  0
 28 24  1  0  0  0  0
M  END
