1,2
q = -1.0, confidence = 0.0

 28 29  0  0  1  0  0  0  0  0999 V2000
   -1.4080   -1.0137   -0.8314 O   0  0  0  0  0  1  0  0  0  0  0  0
    0.1242    1.2365    0.1481 N   0  0  0  0  0  2  0  0  0  0  0  0
    1.2196    2.0456    0.5746 C   0  0  0  0  0  0  0  0  0  0  0  0
   -2.3268    1.1135   -0.0790 C   0  0  0  0  0  0  0  0  0  0  0  0
   -1.0854    1.7356    0.2578 C   0  0  0  0  0  0  0  0  0  0  0  0
   -1.1541    2.7652    0.6618 H   0  0  0  0  0  0  0  0  0  0  0  0
   -2.4175   -0.2311   -0.5934 C   0  0  2  0  0  3  0  0  0  0  0  0
   -4.7889    1.3652   -0.1243 C   0  0  0  0  0  0  0  0  0  0  0  0
    2.1741    2.4690   -0.3729 C   0  0  0  0  0  0  0  0  0  0  0  0
    2.0242    2.1717   -1.4228 H   0  0  0  0  0  0  0  0  0  0  0  0
   -3.5195    1.8683    0.1356 C   0  0  0  0  0  0  0  0  0  0  0  0
   -3.4135    2.8954    0.5237 H   0  0  0  0  0  0  0  0  0  0  0  0
    1.3640    2.3952    1.9307 C   0  0  0  0  0  0  0  0  0  0  0  0
    0.6139    2.0488    2.6579 H   0  0  0  0  0  0  0  0  0  0  0  0
   -4.8644    0.0307   -0.6195 C   0  0  0  0  0  0  0  0  0  0  0  0
   -5.8554   -0.4013   -0.8373 H   0  0  0  0  0  0  0  0  0  0  0  0
   -6.0405    2.1759    0.0965 C   0  0  0  0  0  0  0  0  0  0  0  0
   -6.7330    1.6748    0.8059 H   0  0  0  0  0  0  0  0  0  0  0  0
   -6.6043    2.3214   -0.8496 H   0  0  0  0  0  0  0  0  0  0  0  0
   -5.8086    3.1788    0.5049 H   0  0  0  0  0  0  0  0  0  0  0  0
   -3.7336   -0.7402   -0.8399 C   0  0  0  0  0  0  0  0  0  0  0  0
   -3.8078   -1.7664   -1.2280 H   0  0  0  0  0  0  0  0  0  0  0  0
    2.4708    3.1572    2.3413 C   0  0  0  0  0  0  0  0  0  0  0  0
    2.5860    3.4208    3.4037 H   0  0  0  0  0  0  0  0  0  0  0  0
    3.4261    3.5758    1.4032 C   0  0  0  0  0  0  0  0  0  0  0  0
    4.2928    4.1716    1.7266 H   0  0  0  0  0  0  0  0  0  0  0  0
    3.2694    3.2338    0.0470 C   0  0  0  0  0  0  0  0  0  0  0  0
    4.0103    3.5708   -0.6943 H   0  0  0  0  0  0  0  0  0  0  0  0
  2  5  1  0  0  0  0
  2  3  1  0  0  0  0
  3 13  1  0  0  0  0
  4 11  1  0  0  0  0
  4  5  2  0  0  0  0
  5  6  1  0  0  0  0
  7  1  1  1  0  0  0
  7  4  1  0  0  0  0
  8 17  1  0  0  0  0
  8 11  2  0  0  0  0
  9 27  1  0  0  0  0
  9  3  2  0  0  0  0
 10  9  1  0  0  0  0
 11 12  1  0  0  0  0
 13 23  2  0  0  0  0
 13 14  1  0  0  0  0
 15  8  1  0  0  0  0
 16 15  1  0  0  0  0
 17 20  1  0  0  0  0
 17 18  1  0  0  0  0
 19 17  1  0  0  0  0
 21 15  2  0  0  0  0
 21  7  1  0  0  0  0
 22 21  1  0  0  0  0
 23 24  1  0  0  0  0
 25 26  1  0  0  0  0
 25 23  1  0  0  0  0
 27 25  2  0  0  0  0
 28 27  1  0  0  0  0
M  END
