2,15
q = -1.0, confidence = 0.0

 25 25  0  0  0  0  0  0  0  0999 V2000
    3.5194    0.0130    0.0606 C   0  0  0  0  0  0  0  0  0  0  0  0
    2.6151    0.8257    0.5377 O   0  5  0  0  0  0  0  0  0  0  0  0
    4.8696    0.5274    0.0732 C   0  0  0  0  0  0  0  0  0  0  0  0
    5.0260    1.7810    0.5417 O   0  0  0  0  0  0  0  0  0  0  0  0
    4.0985    2.0665    0.7438 H   0  0  0  0  0  0  0  0  0  0  0  0
    5.9374   -0.2558   -0.3615 C   0  0  0  0  0  0  0  0  0  0  0  0
    6.9503    0.1723   -0.3384 H   0  0  0  0  0  0  0  0  0  0  0  0
    5.7060   -1.5709   -0.8308 C   0  0  0  0  0  0  0  0  0  0  0  0
    6.5553   -2.1792   -1.1742 H   0  0  0  0  0  0  0  0  0  0  0  0
    4.4151   -2.0878   -0.8736 C   0  0  0  0  0  0  0  0  0  0  0  0
    4.2340   -3.1038   -1.2569 H   0  0  0  0  0  0  0  0  0  0  0  0
    3.2980   -1.3108   -0.4452 C   0  0  0  0  0  0  0  0  0  0  0  0
    1.9804   -1.8797   -0.5455 C   0  0  0  0  0  3  0  0  0  0  0  0
    1.9442   -2.9489   -0.8496 H   0  0  0  0  0  0  0  0  0  0  0  0
    0.8375   -1.2834   -0.3336 N   0  0  0  0  0  2  0  0  0  0  0  0
   -0.3938   -2.0766   -0.3617 C   0  0  0  0  0  0  0  0  0  0  0  0
   -0.2149   -2.9949   -0.9691 H   0  0  0  0  0  0  0  0  0  0  0  0
   -1.1923   -1.4800   -0.8454 H   0  0  0  0  0  0  0  0  0  0  0  0
   -0.8760   -2.4695    1.0433 C   0  0  0  0  0  0  0  0  0  0  0  0
   -1.1546   -1.5425    1.5824 H   0  0  0  0  0  0  0  0  0  0  0  0
   -1.8255   -3.0297    0.9049 H   0  0  0  0  0  0  0  0  0  0  0  0
    0.1232   -3.3017    1.8434 C   0  0  0  0  0  0  0  0  0  0  0  0
    0.4039   -4.2360    1.3116 H   0  0  0  0  0  0  0  0  0  0  0  0
   -0.2986   -3.5935    2.8260 H   0  0  0  0  0  0  0  0  0  0  0  0
    1.0584   -2.7394    2.0442 H   0  0  0  0  0  0  0  0  0  0  0  0
  1  3  1  0  0  0  0
  1  2  1  0  0  0  0
  3  4  1  0  0  0  0
  4  5  1  0  0  0  0
  6  7  1  0  0  0  0
  6  3  2  0  0  0  0
  8  6  1  0  0  0  0
  9  8  1  0  0  0  0
 10  8  2  0  0  0  0
 10 12  1  0  0  0  0
 11 10  1  0  0  0  0
 12  1  2  0  0  0  0
 13 12  1  0  0  0  0
 13 15  1  0  0  0  0
 14 13  1  0  0  0  0
 16 15  1  0  0  0  0
 16 19  1  0  0  0  0
 17 16  1  0  0  0  0
 18 16  1  0  0  0  0
 19 20  1  0  0  0  0
 19 22  1  0  0  0  0
 21 19  1  0  0  0  0
 22 25  1  0  0  0  0
 22 24  1  0  0  0  0
 23 22  1  0  0  0  0
M  CHG  1   2  -1
M  END
