3,5
q = -1.0

 19 18  0  0  0  0  0  0  0  0999 V2000
    1.4842   -2.5447    0.3188 O   0  0  0  0  0  0  0  0  0  0  0  0
    0.4389   -2.7141    0.2008 H   0  0  0  0  0  0  0  0  0  0  0  0
    1.5797   -1.2148    0.2025 N   0  0  0  0  0  2  0  0  0  0  0  0
    2.7698   -0.6511    0.3183 C   0  0  0  0  0  0  0  0  0  0  0  0
    1.4578    1.2627   -0.1104 O   0  5  0  0  0  0  0  0  0  0  0  0
    2.6909    0.8008    0.1241 C   0  0  0  0  0  0  0  0  0  0  0  0
    4.0039   -1.4721    0.5403 C   0  0  0  0  0  0  0  0  0  0  0  0
    4.7914   -0.8326    0.9845 H   0  0  0  0  0  0  0  0  0  0  0  0
    3.7588   -2.2587    1.2838 H   0  0  0  0  0  0  0  0  0  0  0  0
    4.5080   -2.1325   -0.7540 C   0  0  0  0  0  0  0  0  0  0  0  0
    3.7237   -2.7879   -1.1804 H   0  0  0  0  0  0  0  0  0  0  0  0
    5.4065   -2.7513   -0.5581 H   0  0  0  0  0  0  0  0  0  0  0  0
    4.7713   -1.3670   -1.5110 H   0  0  0  0  0  0  0  0  0  0  0  0
    3.7954    1.6164    0.1723 C   0  0  0  0  0  3  0  0  0  0  0  0
    4.7734    1.1505    0.3651 H   0  0  0  0  0  0  0  0  0  0  0  0
    3.7354    3.0941   -0.0299 C   0  0  0  0  0  0  0  0  0  0  0  0
    4.3351    3.4148   -0.9112 H   0  0  0  0  0  0  0  0  0  0  0  0
    2.6906    3.4251   -0.1836 H   0  0  0  0  0  0  0  0  0  0  0  0
    4.1539    3.6454    0.8414 H   0  0  0  0  0  0  0  0  0  0  0  0
  2  1  1  0  0  0  0
  3  4  1  0  0  0  0
  3  1  1  0  0  0  0
  4  7  1  0  0  0  0
  5  6  1  0  0  0  0
  6 14  1  0  0  0  0
  6  4  2  0  0  0  0
  7  8  1  0  0  0  0
  7  9  1  0  0  0  0
 10 12  1  0  0  0  0
 10  7  1  0  0  0  0
 11 10  1  0  0  0  0
 13 10  1  0  0  0  0
 14 15  1  0  0  0  0
 16 14  1  0  0  0  0
 16 19  1  0  0  0  0
 17 16  1  0  0  0  0
 18 16  1  0  0  0  0
M  CHG  1   5  -1
M  END
