1,3
q = -1.0

 45 45  0  0  0  0  0  0  0  0999 V2000
    0.3821    0.3122   -0.3044 N   0  0  0  0  0  2  0  0  0  0  0  0
   -4.2589   -1.1941   -0.7434 N   0  0  0  0  0  0  0  0  0  0  0  0
    1.0100   -2.1094    0.4467 O   0  5  0  0  0  0  0  0  0  0  0  0
   -3.5147   -3.5016    0.1056 O   0  0  0  0  0  0  0  0  0  0  0  0
    0.2396    1.7154   -0.6412 C   0  0  0  0  0  0  0  0  0  0  0  0
   -0.6149    1.8591   -1.3383 H   0  0  0  0  0  0  0  0  0  0  0  0
    1.1622    2.0102   -1.1804 H   0  0  0  0  0  0  0  0  0  0  0  0
    0.0726    2.6847    0.5724 C   0  0  0  0  0  0  0  0  0  0  0  0
    1.2415    2.5311    1.5604 C   0  0  0  0  0  0  0  0  0  0  0  0
    2.2141    2.7029    1.0598 H   0  0  0  0  0  0  0  0  0  0  0  0
    1.2682    1.5130    1.9986 H   0  0  0  0  0  0  0  0  0  0  0  0
    1.1380    3.2595    2.3907 H   0  0  0  0  0  0  0  0  0  0  0  0
    0.0740    4.1111   -0.0062 C   0  0  0  0  0  0  0  0  0  0  0  0
    1.0293    4.3337   -0.5250 H   0  0  0  0  0  0  0  0  0  0  0  0
   -0.0554    4.8600    0.8016 H   0  0  0  0  0  0  0  0  0  0  0  0
   -0.7514    4.2553   -0.7345 H   0  0  0  0  0  0  0  0  0  0  0  0
   -1.2527    2.4338    1.3097 C   0  0  0  0  0  0  0  0  0  0  0  0
   -2.1260    2.6052    0.6478 H   0  0  0  0  0  0  0  0  0  0  0  0
   -1.3479    3.1252    2.1721 H   0  0  0  0  0  0  0  0  0  0  0  0
   -1.3190    1.3986    1.6993 H   0  0  0  0  0  0  0  0  0  0  0  0
   -0.6471   -0.5382   -0.2505 C   0  0  0  0  0  0  0  0  0  0  0  0
   -0.2524   -1.9168    0.1854 C   0  0  0  0  0  0  0  0  0  0  0  0
   -1.2091   -2.9192    0.3179 C   0  0  0  0  0  3  0  0  0  0  0  0
   -0.9085   -3.9212    0.6508 H   0  0  0  0  0  0  0  0  0  0  0  0
   -2.5834   -2.6747    0.0212 C   0  0  0  0  0  0  0  0  0  0  0  0
   -2.9508   -1.2629   -0.4559 C   0  0  0  0  0  0  0  0  0  0  0  0
   -2.0060   -0.2484   -0.5581 C   0  0  0  0  0  0  0  0  0  0  0  0
   -2.2989    0.7609   -0.8692 H   0  0  0  0  0  0  0  0  0  0  0  0
   -5.0350   -0.0587   -1.1725 C   0  0  0  0  0  0  0  0  0  0  0  0
   -5.7089   -0.3860   -1.9947 H   0  0  0  0  0  0  0  0  0  0  0  0
   -4.3539    0.7040   -1.6037 H   0  0  0  0  0  0  0  0  0  0  0  0
   -5.9021    0.5893   -0.0549 C   0  0  0  0  0  0  0  0  0  0  0  0
   -6.8427   -0.4705    0.5455 C   0  0  0  0  0  0  0  0  0  0  0  0
   -7.4953   -0.9200   -0.2321 H   0  0  0  0  0  0  0  0  0  0  0  0
   -7.5000   -0.0179    1.3153 H   0  0  0  0  0  0  0  0  0  0  0  0
   -6.2738   -1.2880    1.0334 H   0  0  0  0  0  0  0  0  0  0  0  0
   -6.7253    1.7149   -0.7022 C   0  0  0  0  0  0  0  0  0  0  0  0
   -7.3946    1.3231   -1.4962 H   0  0  0  0  0  0  0  0  0  0  0  0
   -6.0688    2.4845   -1.1592 H   0  0  0  0  0  0  0  0  0  0  0  0
   -7.3596    2.2208    0.0536 H   0  0  0  0  0  0  0  0  0  0  0  0
   -4.9972    1.1669    1.0453 C   0  0  0  0  0  0  0  0  0  0  0  0
   -4.3421    1.9691    0.6483 H   0  0  0  0  0  0  0  0  0  0  0  0
   -4.3459    0.3870    1.4885 H   0  0  0  0  0  0  0  0  0  0  0  0
   -5.6062    1.6041    1.8625 H   0  0  0  0  0  0  0  0  0  0  0  0
   -4.7031   -2.1154   -0.5584 H   0  0  0  0  0  0  0  0  0  0  0  0
  1 21  1  0  0  0  0
  2 45  1  0  0  0  0
  2 26  1  0  0  0  0
  5  1  1  0  0  0  0
  5  8  1  0  0  0  0
  6  5  1  0  0  0  0
  7  5  1  0  0  0  0
  8 17  1  0  0  0  0
  8  9  1  0  0  0  0
  9 11  1  0  0  0  0
  9 12  1  0  0  0  0
 10  9  1  0  0  0  0
 13  8  1  0  0  0  0
 13 15  1  0  0  0  0
 14 13  1  0  0  0  0
 16 13  1  0  0  0  0
 17 20  1  0  0  0  0
 17 19  1  0  0  0  0
 18 17  1  0  0  0  0
 21 22  2  0  0  0  0
 22 23  1  0  0  0  0
 22  3  1  0  0  0  0
 23 24  1  0  0  0  0
 25  4  2  0  0  0  0
 25 23  1  0  0  0  0
 26 25  1  0  0  0  0
 27 26  2  0  0  0  0
 27 21  1  0  0  0  0
 28 27  1  0  0  0  0
 29  2  1  0  0  0  0
 29 32  1  0  0  0  0
 30 29  1  0  0  0  0
 31 29  1  0  0  0  0
 32 33  1  0  0  0  0
 32 41  1  0  0  0  0
 33 36  1  0  0  0  0
 33 35  1  0  0  0  0
 34 33  1  0  0  0  0
 37 32  1  0  0  0  0
 37 40  1  0  0  0  0
 38 37  1  0  0  0  0
 39 37  1  0  0  0  0
 41 43  1  0  0  0  0
 41 44  1  0  0  0  0
 42 41  1  0  0  0  0
M  CHG  1   3  -1
M  END
