1,2
q = -1.0

 15 15  0  0  1  0  0  0  0  0999 V2000
   -1.0116   -1.8188    0.2522 O   0  0  0  0  0  1  0  0  0  0  0  0
   -2.2091    0.4510   -0.2021 N   0  0  0  0  0  2  0  0  0  0  0  0
   -4.3067   -0.1446    0.1486 N   0  0  0  0  0  0  0  0  0  0  0  0
   -3.0003    1.5649   -0.4158 C   0  0  0  0  0  0  0  0  0  0  0  0
   -2.5793    2.5301   -0.7129 H   0  0  0  0  0  0  0  0  0  0  0  0
   -4.3121    1.2029   -0.2044 C   0  0  0  0  0  0  0  0  0  0  0  0
   -5.2424    1.7753   -0.2713 H   0  0  0  0  0  0  0  0  0  0  0  0
   -3.0211   -0.5698    0.1361 C   0  0  1  0  0  3  0  0  0  0  0  0
   -2.4133   -1.9058    0.4194 C   0  0  0  0  0  0  0  0  0  0  0  0
   -2.6514   -2.2311    1.4610 H   0  0  0  0  0  0  0  0  0  0  0  0
   -2.8356   -2.6803   -0.2651 H   0  0  0  0  0  0  0  0  0  0  0  0
   -5.4791   -0.9649    0.4282 C   0  0  0  0  0  0  0  0  0  0  0  0
   -5.2207   -1.7459    1.1669 H   0  0  0  0  0  0  0  0  0  0  0  0
   -5.8521   -1.4475   -0.4973 H   0  0  0  0  0  0  0  0  0  0  0  0
   -6.2779   -0.3302    0.8523 H   0  0  0  0  0  0  0  0  0  0  0  0
  1  9  1  0  0  0  0
  2  8  1  0  0  0  0
  3 12  1  0  0  0  0
  4  6  2  0  0  0  0
  4  2  1  0  0  0  0
  5  4  1  0  0  0  0
  6  3  1  0  0  0  0
  7  6  1  0  0  0  0
  8  3  1  0  0  0  0
  8  9  1  6  0  0  0
  9 10  1  0  0  0  0
 11  9  1  0  0  0  0
 12 15  1  0  0  0  0
 12 13  1  0  0  0  0
 14 12  1  0  0  0  0
M  END
