1,2
q = -1.0

 35 36  0  0  1  0  0  0  0  0999 V2000
    0.6897   -1.6335   -0.8011 N   0  0  0  0  0  2  0  0  0  0  0  0
   -1.7446   -0.6381   -0.0145 O   0  0  0  0  0  1  0  0  0  0  0  0
   -4.5147   -0.9791   -0.1529 C   0  0  0  0  0  0  0  0  0  0  0  0
   -4.1102   -0.0206   -0.5022 H   0  0  0  0  0  0  0  0  0  0  0  0
   -5.8918   -1.1360    0.0501 C   0  0  0  0  0  0  0  0  0  0  0  0
   -6.5648   -0.2862   -0.1412 H   0  0  0  0  0  0  0  0  0  0  0  0
   -6.4063   -2.3649    0.4941 C   0  0  0  0  0  0  0  0  0  0  0  0
   -7.4878   -2.4873    0.6584 H   0  0  0  0  0  0  0  0  0  0  0  0
   -5.5312   -3.4379    0.7328 C   0  0  0  0  0  0  0  0  0  0  0  0
   -5.9245   -4.4008    1.0933 H   0  0  0  0  0  0  0  0  0  0  0  0
   -4.1540   -3.2859    0.5243 C   0  0  0  0  0  0  0  0  0  0  0  0
   -3.4751   -4.1241    0.7397 H   0  0  0  0  0  0  0  0  0  0  0  0
   -3.6275   -2.0535    0.0769 C   0  0  0  0  0  0  0  0  0  0  0  0
   -2.1647   -1.8573   -0.1460 C   0  0  1  0  0  3  0  0  0  0  0  0
   -1.3453   -2.9279   -0.5062 C   0  0  0  0  0  0  0  0  0  0  0  0
   -1.7997   -3.9182   -0.6229 H   0  0  0  0  0  0  0  0  0  0  0  0
    0.0192   -2.7879   -0.8692 C   0  0  0  0  0  0  0  0  0  0  0  0
    0.6963   -4.0376   -1.3955 C   0  0  0  0  0  0  0  0  0  0  0  0
    1.6541   -4.2325   -0.8736 H   0  0  0  0  0  0  0  0  0  0  0  0
    0.0386   -4.9160   -1.2724 H   0  0  0  0  0  0  0  0  0  0  0  0
    0.9318   -3.9395   -2.4763 H   0  0  0  0  0  0  0  0  0  0  0  0
    2.0615   -1.6422   -1.3104 C   0  0  0  0  0  0  0  0  0  0  0  0
    2.1187   -2.2096   -2.2628 H   0  0  0  0  0  0  0  0  0  0  0  0
    2.3411   -0.5988   -1.5480 H   0  0  0  0  0  0  0  0  0  0  0  0
    3.0992   -2.1770   -0.3404 C   0  0  0  0  0  0  0  0  0  0  0  0
    4.3644   -2.5732   -0.8173 C   0  0  0  0  0  0  0  0  0  0  0  0
    4.5673   -2.5472   -1.9003 H   0  0  0  0  0  0  0  0  0  0  0  0
    5.3698   -2.9831    0.0708 C   0  0  0  0  0  0  0  0  0  0  0  0
    6.3537   -3.2866   -0.3192 H   0  0  0  0  0  0  0  0  0  0  0  0
    5.1212   -3.0095    1.4532 C   0  0  0  0  0  0  0  0  0  0  0  0
    5.9086   -3.3308    2.1517 H   0  0  0  0  0  0  0  0  0  0  0  0
    3.8594   -2.6274    1.9356 C   0  0  0  0  0  0  0  0  0  0  0  0
    3.6549   -2.6434    3.0172 H   0  0  0  0  0  0  0  0  0  0  0  0
    2.8562   -2.2140    1.0457 C   0  0  0  0  0  0  0  0  0  0  0  0
    1.8730   -1.8916    1.4180 H   0  0  0  0  0  0  0  0  0  0  0  0
  3  5  2  0  0  0  0
  3 13  1  0  0  0  0
  4  3  1  0  0  0  0
  5  7  1  0  0  0  0
  6  5  1  0  0  0  0
  7  8  1  0  0  0  0
  7  9  2  0  0  0  0
  9 10  1  0  0  0  0
 11  9  1  0  0  0  0
 11 12  1  0  0  0  0
 13 11  2  0  0  0  0
 14  2  1  6  0  0  0
 14 13  1  0  0  0  0
 15 14  1  0  0  0  0
 16 15  1  0  0  0  0
 17  1  1  0  0  0  0
 17 15  2  0  0  0  0
 18 20  1  0  0  0  0
 18 19  1  0  0  0  0
 18 17  1  0  0  0  0
 21 18  1  0  0  0  0
 22  1  1  0  0  0  0
 22 25  1  0  0  0  0
 23 22  1  0  0  0  0
 24 22  1  0  0  0  0
 25 34  1  0  0  0  0
 26 25  2  0  0  0  0
 26 28  1  0  0  0  0
 27 26  1  0  0  0  0
 28 30  2  0  0  0  0
 29 28  1  0  0  0  0
 30 32  1  0  0  0  0
 30 31  1  0  0  0  0
 32 33  1  0  0  0  0
 34 35  1  0  0  0  0
 34 32  2  0  0  0  0
M  END
