1,20
q = -1.0

 36 37  0  0  0  0  0  0  0  0999 V2000
    0.9288   -1.1509   -1.1392 O   0  5  0  0  0  0  0  0  0  0  0  0
    0.6970    1.7137    3.1260 O   0  0  0  0  0  0  0  0  0  0  0  0
   -0.2120    3.5151   -0.7033 O   0  0  0  0  0  0  0  0  0  0  0  0
    3.7226    3.5507    0.9517 O   0  0  0  0  0  0  0  0  0  0  0  0
    2.2224   -1.2670   -1.2008 C   0  0  0  0  0  0  0  0  0  0  0  0
    2.7439   -2.4370   -1.8624 C   0  0  0  0  0  0  0  0  0  0  0  0
    4.0928   -2.6458   -2.0001 C   0  0  0  0  0  0  0  0  0  0  0  0
    5.0519   -1.7142   -1.4866 C   0  0  0  0  0  0  0  0  0  0  0  0
    6.4438   -1.9604   -1.6320 C   0  0  0  0  0  0  0  0  0  0  0  0
    7.3881   -1.0802   -1.1203 C   0  0  0  0  0  0  0  0  0  0  0  0
    6.9435    0.0731   -0.4345 C   0  0  0  0  0  0  0  0  0  0  0  0
    5.5852    0.3354   -0.2770 C   0  0  0  0  0  0  0  0  0  0  0  0
    4.5850   -0.5339   -0.8058 C   0  0  0  0  0  0  0  0  0  0  0  0
    3.1467   -0.2957   -0.6747 C   0  0  0  0  0  0  0  0  0  0  0  0
    2.7390    0.9367   -0.0556 C   0  0  0  0  0  3  0  0  0  0  0  0
    1.4292    2.6938    0.9420 C   0  0  0  0  0  0  0  0  0  0  0  0
    1.6321    2.5784    2.4718 C   0  0  0  0  0  0  0  0  0  0  0  0
    0.0068    3.2450    0.6449 C   0  0  0  0  0  0  0  0  0  0  0  0
    2.4234    3.7354    0.3901 C   0  0  0  0  0  0  0  0  0  0  0  0
    1.5452    1.3534    0.3138 N   0  0  0  0  0  2  0  0  0  0  0  0
   -0.5735    2.6625   -1.0846 H   0  0  0  0  0  0  0  0  0  0  0  0
    4.3256    4.1768    0.5128 H   0  0  0  0  0  0  0  0  0  0  0  0
    2.0029   -3.1590   -2.2362 H   0  0  0  0  0  0  0  0  0  0  0  0
    4.4635   -3.5513   -2.5072 H   0  0  0  0  0  0  0  0  0  0  0  0
    6.7585   -2.8741   -2.1606 H   0  0  0  0  0  0  0  0  0  0  0  0
    8.4636   -1.2796   -1.2375 H   0  0  0  0  0  0  0  0  0  0  0  0
    7.6785    0.7738   -0.0089 H   0  0  0  0  0  0  0  0  0  0  0  0
    5.3017    1.2357    0.2857 H   0  0  0  0  0  0  0  0  0  0  0  0
    3.5647    1.6420    0.1330 H   0  0  0  0  0  0  0  0  0  0  0  0
    2.6366    2.1661    2.6809 H   0  0  0  0  0  0  0  0  0  0  0  0
    1.5895    3.5960    2.9225 H   0  0  0  0  0  0  0  0  0  0  0  0
   -0.1203    4.1841    1.2340 H   0  0  0  0  0  0  0  0  0  0  0  0
   -0.7400    2.5063    1.0395 H   0  0  0  0  0  0  0  0  0  0  0  0
    2.4141    3.6515   -0.7194 H   0  0  0  0  0  0  0  0  0  0  0  0
    2.0301    4.7479    0.6437 H   0  0  0  0  0  0  0  0  0  0  0  0
   -0.1999    2.0786    3.0034 H   0  0  0  0  0  0  0  0  0  0  0  0
  3 18  1  0  0  0  0
  5  1  1  0  0  0  0
  5 14  1  0  0  0  0
  6  5  2  0  0  0  0
  7  6  1  0  0  0  0
  7  8  2  0  0  0  0
  8 13  1  0  0  0  0
  9  8  1  0  0  0  0
  9 10  2  0  0  0  0
 10 11  1  0  0  0  0
 11 12  2  0  0  0  0
 11 27  1  0  0  0  0
 12 28  1  0  0  0  0
 13 14  2  0  0  0  0
 13 12  1  0  0  0  0
 14 15  1  0  0  0  0
 15 29  1  0  0  0  0
 15 20  1  0  0  0  0
 16 17  1  0  0  0  0
 17 30  1  0  0  0  0
 17 31  1  0  0  0  0
 17  2  1  0  0  0  0
 18 16  1  0  0  0  0
 18 33  1  0  0  0  0
 18 32  1  0  0  0  0
 19 35  1  0  0  0  0
 19 16  1  0  0  0  0
 19  4  1  0  0  0  0
 20 16  1  0  0  0  0
 21  3  1  0  0  0  0
 22  4  1  0  0  0  0
 23  6  1  0  0  0  0
 24  7  1  0  0  0  0
 25  9  1  0  0  0  0
 26 10  1  0  0  0  0
 34 19  1  0  0  0  0
 36  2  1  0  0  0  0
M  CHG  1   1  -1
M  END
