1,2
q = -1.0

 27 28  0  0  0  0  0  0  0  0999 V2000
    0.5405    1.6239    0.0675 N   0  0  0  0  0  2  0  0  0  0  0  0
    1.1596   -0.9020    0.2029 O   0  0  0  0  0  1  0  0  0  0  0  0
    0.0798    2.8933   -0.0006 C   0  0  0  0  0  3  0  0  0  0  0  0
   -1.0075    3.0017   -0.1075 H   0  0  0  0  0  0  0  0  0  0  0  0
    0.9306    3.9975    0.0442 C   0  0  0  0  0  0  0  0  0  0  0  0
    0.5108    5.0112   -0.0162 H   0  0  0  0  0  0  0  0  0  0  0  0
    2.3127    3.7753    0.1525 C   0  0  0  0  0  0  0  0  0  0  0  0
    3.0161    4.6205    0.1930 H   0  0  0  0  0  0  0  0  0  0  0  0
    2.7821    2.4591    0.1938 C   0  0  0  0  0  0  0  0  0  0  0  0
    3.8585    2.2477    0.2597 H   0  0  0  0  0  0  0  0  0  0  0  0
    1.8772    1.3841    0.1425 C   0  0  0  0  0  0  0  0  0  0  0  0
    2.2856   -0.0785    0.1125 C   0  0  0  0  0  0  0  0  0  0  0  0
    3.0553   -0.3541   -1.2211 C   0  0  0  0  0  0  0  0  0  0  0  0
    2.3689   -0.1211   -2.0590 H   0  0  0  0  0  0  0  0  0  0  0  0
    3.9369    0.3226   -1.2923 H   0  0  0  0  0  0  0  0  0  0  0  0
    3.5070   -1.8157   -1.2718 C   0  0  0  0  0  0  0  0  0  0  0  0
    2.5967   -2.4515   -1.2729 H   0  0  0  0  0  0  0  0  0  0  0  0
    4.0418   -2.0118   -2.2248 H   0  0  0  0  0  0  0  0  0  0  0  0
    4.3894   -2.1806   -0.0713 C   0  0  0  0  0  0  0  0  0  0  0  0
    4.6777   -3.2525   -0.1104 H   0  0  0  0  0  0  0  0  0  0  0  0
    5.3397   -1.6002   -0.1240 H   0  0  0  0  0  0  0  0  0  0  0  0
    3.6829   -1.8690    1.2545 C   0  0  0  0  0  0  0  0  0  0  0  0
    4.3486   -2.0894    2.1159 H   0  0  0  0  0  0  0  0  0  0  0  0
    2.7907   -2.5218    1.3590 H   0  0  0  0  0  0  0  0  0  0  0  0
    3.2195   -0.4099    1.3130 C   0  0  0  0  0  0  0  0  0  0  0  0
    2.6642   -0.2060    2.2524 H   0  0  0  0  0  0  0  0  0  0  0  0
    4.1065    0.2620    1.2979 H   0  0  0  0  0  0  0  0  0  0  0  0
  1 11  1  0  0  0  0
  3  5  1  0  0  0  0
  3  1  1  0  0  0  0
  4  3  1  0  0  0  0
  5  7  2  0  0  0  0
  6  5  1  0  0  0  0
  7  8  1  0  0  0  0
  7  9  1  0  0  0  0
  9 10  1  0  0  0  0
 11  9  2  0  0  0  0
 12 11  1  0  0  0  0
 12  2  1  0  0  0  0
 12 25  1  0  0  0  0
 13 12  1  0  0  0  0
 14 13  1  0  0  0  0
 15 13  1  0  0  0  0
 16 13  1  0  0  0  0
 16 19  1  0  0  0  0
 17 16  1  0  0  0  0
 18 16  1  0  0  0  0
 19 22  1  0  0  0  0
 20 19  1  0  0  0  0
 21 19  1  0  0  0  0
 22 25  1  0  0  0  0
 22 24  1  0  0  0  0
 22 23  1  0  0  0  0
 25 26  1  0  0  0  0
 27 25  1  0  0  0  0
M  END
