1,2
q = -1.0, confidence = 0.002

 20 20  0  0  1  0  0  0  0  0999 V2000
   -0.2338   -1.8063    0.3402 O   0  0  0  0  0  1  0  0  0  0  0  0
   -1.7445    0.4667    0.6737 N   0  0  0  0  0  2  0  0  0  0  0  0
   -1.2416   -2.4535    0.8388 C   0  0  2  0  0  3  0  0  0  0  0  0
   -2.6148   -0.3912    1.1447 C   0  0  0  0  0  0  0  0  0  0  0  0
   -2.1623    1.8701    0.6740 C   0  0  0  0  0  0  0  0  0  0  0  0
   -2.4599   -1.8117    1.2595 C   0  0  0  0  0  0  0  0  0  0  0  0
   -1.1468   -3.8759    0.9825 C   0  0  0  0  0  0  0  0  0  0  0  0
   -3.5844    0.0113    1.4990 H   0  0  0  0  0  0  0  0  0  0  0  0
   -2.1400    2.2741   -0.3550 H   0  0  0  0  0  0  0  0  0  0  0  0
   -1.4538    2.4777    1.2668 H   0  0  0  0  0  0  0  0  0  0  0  0
   -3.1834    1.9691    1.0937 H   0  0  0  0  0  0  0  0  0  0  0  0
   -3.5168   -2.5818    1.7941 C   0  0  0  0  0  0  0  0  0  0  0  0
   -2.1933   -4.6154    1.5085 C   0  0  0  0  0  0  0  0  0  0  0  0
   -0.2144   -4.3606    0.6605 H   0  0  0  0  0  0  0  0  0  0  0  0
   -3.3803   -3.9603    1.9138 C   0  0  0  0  0  0  0  0  0  0  0  0
   -4.4558   -2.1135    2.1219 H   0  0  0  0  0  0  0  0  0  0  0  0
   -2.1341   -5.7061    1.6238 H   0  0  0  0  0  0  0  0  0  0  0  0
   -4.4882   -4.7474    2.4713 N   0  0  0  0  0  0  0  0  0  0  0  0
   -4.3284   -5.9675    2.5624 O   0  0  0  0  0  0  0  0  0  0  0  0
   -5.5070   -4.1402    2.8131 O   0  0  0  0  0  0  0  0  0  0  0  0
  2  5  1  0  0  0  0
  2  4  1  0  0  0  0
  3  1  1  1  0  0  0
  3  7  1  0  0  0  0
  3  6  1  0  0  0  0
  4  6  2  0  0  0  0
  4  8  1  0  0  0  0
  5 11  1  0  0  0  0
  5 10  1  0  0  0  0
  6 12  1  0  0  0  0
  7 13  2  0  0  0  0
  9  5  1  0  0  0  0
 12 15  2  0  0  0  0
 12 16  1  0  0  0  0
 13 17  1  0  0  0  0
 13 15  1  0  0  0  0
 14  7  1  0  0  0  0
 15 18  1  0  0  0  0
 18 19  2  0  0  0  0
 18 20  2  0  0  0  0
M  END
