1,2
q = -1.0

 53 54  0  0  0  0  0  0  0  0999 V2000
   -1.1994    0.8645   -0.4964 N   0  0  0  0  0  2  0  0  0  0  0  0
    0.5004   -1.2117   -0.2405 O   0  5  0  0  0  0  0  0  0  0  0  0
   -2.1053    2.4979    1.4508 O   0  0  0  0  0  0  0  0  0  0  0  0
    1.5323   -0.3773   -0.2234 C   0  0  0  0  0  0  0  0  0  0  0  0
    1.2631    1.0188   -0.3076 C   0  0  0  0  0  0  0  0  0  0  0  0
    2.3367    1.9426   -0.2850 C   0  0  0  0  0  0  0  0  0  0  0  0
    2.0945    3.0121   -0.3572 H   0  0  0  0  0  0  0  0  0  0  0  0
    3.6590    1.5104   -0.1725 C   0  0  0  0  0  0  0  0  0  0  0  0
    3.8808    0.1109   -0.1067 C   0  0  0  0  0  0  0  0  0  0  0  0
    4.9187   -0.2374   -0.0267 H   0  0  0  0  0  0  0  0  0  0  0  0
    2.8696   -0.8612   -0.1369 C   0  0  0  0  0  0  0  0  0  0  0  0
   -2.3812    1.6463   -0.7263 C   0  0  0  0  0  0  0  0  0  0  0  0
   -3.0835    1.5557   -1.9336 C   0  0  0  0  0  0  0  0  0  0  0  0
   -2.7005    0.8828   -2.7130 H   0  0  0  0  0  0  0  0  0  0  0  0
   -4.2668    2.2879   -2.1183 C   0  0  0  0  0  0  0  0  0  0  0  0
   -4.8136    2.2120   -3.0691 H   0  0  0  0  0  0  0  0  0  0  0  0
   -4.7499    3.0972   -1.0818 C   0  0  0  0  0  0  0  0  0  0  0  0
   -5.6836    3.6646   -1.2127 H   0  0  0  0  0  0  0  0  0  0  0  0
   -4.0563    3.1933    0.1357 C   0  0  0  0  0  0  0  0  0  0  0  0
   -4.4504    3.8286    0.9401 H   0  0  0  0  0  0  0  0  0  0  0  0
   -2.8599    2.4765    0.3228 C   0  0  0  0  0  0  0  0  0  0  0  0
   -0.0743    1.5312   -0.4904 C   0  0  0  0  0  3  0  0  0  0  0  0
   -0.1357    2.6233   -0.6699 H   0  0  0  0  0  0  0  0  0  0  0  0
    4.8579    2.4712   -0.1243 C   0  0  0  0  0  0  0  0  0  0  0  0
    4.4182    3.9424   -0.2127 C   0  0  0  0  0  0  0  0  0  0  0  0
    5.3072    4.6029   -0.1724 H   0  0  0  0  0  0  0  0  0  0  0  0
    3.7551    4.2261    0.6293 H   0  0  0  0  0  0  0  0  0  0  0  0
    3.8873    4.1585   -1.1619 H   0  0  0  0  0  0  0  0  0  0  0  0
    5.8005    2.1684   -1.3115 C   0  0  0  0  0  0  0  0  0  0  0  0
    6.1825    1.1285   -1.2818 H   0  0  0  0  0  0  0  0  0  0  0  0
    6.6775    2.8476   -1.2903 H   0  0  0  0  0  0  0  0  0  0  0  0
    5.2782    2.3093   -2.2792 H   0  0  0  0  0  0  0  0  0  0  0  0
    5.6173    2.2651    1.2064 C   0  0  0  0  0  0  0  0  0  0  0  0
    5.9934    1.2279    1.3113 H   0  0  0  0  0  0  0  0  0  0  0  0
    4.9611    2.4759    2.0747 H   0  0  0  0  0  0  0  0  0  0  0  0
    6.4918    2.9456    1.2605 H   0  0  0  0  0  0  0  0  0  0  0  0
    3.1731   -2.3678   -0.0693 C   0  0  0  0  0  0  0  0  0  0  0  0
    4.6881   -2.6348   -0.0026 C   0  0  0  0  0  0  0  0  0  0  0  0
    4.8638   -3.7281    0.0316 H   0  0  0  0  0  0  0  0  0  0  0  0
    5.1503   -2.1981    0.9060 H   0  0  0  0  0  0  0  0  0  0  0  0
    5.2221   -2.2411   -0.8914 H   0  0  0  0  0  0  0  0  0  0  0  0
    2.5250   -2.9745    1.1983 C   0  0  0  0  0  0  0  0  0  0  0  0
    2.7950   -4.0475    1.2773 H   0  0  0  0  0  0  0  0  0  0  0  0
    1.4224   -2.9089    1.1777 H   0  0  0  0  0  0  0  0  0  0  0  0
    2.8868   -2.4617    2.1123 H   0  0  0  0  0  0  0  0  0  0  0  0
    2.6207   -3.0657   -1.3355 C   0  0  0  0  0  0  0  0  0  0  0  0
    2.8503   -4.1501   -1.2950 H   0  0  0  0  0  0  0  0  0  0  0  0
    3.0895   -2.6510   -2.2509 H   0  0  0  0  0  0  0  0  0  0  0  0
    1.5245   -2.9551   -1.4258 H   0  0  0  0  0  0  0  0  0  0  0  0
   -2.6326    3.1135    2.6117 C   0  0  0  0  0  0  0  0  0  0  0  0
   -1.9096    2.9109    3.4228 H   0  0  0  0  0  0  0  0  0  0  0  0
   -3.6184    2.6794    2.8877 H   0  0  0  0  0  0  0  0  0  0  0  0
   -2.7428    4.2140    2.4853 H   0  0  0  0  0  0  0  0  0  0  0  0
  1 22  1  0  0  0  0
  2  4  1  0  0  0  0
  3 50  1  0  0  0  0
  4 11  1  0  0  0  0
  5  6  1  0  0  0  0
  5  4  2  0  0  0  0
  6  8  2  0  0  0  0
  7  6  1  0  0  0  0
  8 24  1  0  0  0  0
  8  9  1  0  0  0  0
  9 10  1  0  0  0  0
 11  9  2  0  0  0  0
 11 37  1  0  0  0  0
 12  1  1  0  0  0  0
 12 21  1  0  0  0  0
 13 12  2  0  0  0  0
 14 13  1  0  0  0  0
 15 13  1  0  0  0  0
 15 17  2  0  0  0  0
 16 15  1  0  0  0  0
 17 19  1  0  0  0  0
 18 17  1  0  0  0  0
 19 21  2  0  0  0  0
 19 20  1  0  0  0  0
 21  3  1  0  0  0  0
 22  5  1  0  0  0  0
 23 22  1  0  0  0  0
 24 33  1  0  0  0  0
 25 26  1  0  0  0  0
 25 24  1  0  0  0  0
 25 27  1  0  0  0  0
 28 25  1  0  0  0  0
 29 31  1  0  0  0  0
 29 30  1  0  0  0  0
 29 24  1  0  0  0  0
 32 29  1  0  0  0  0
 33 36  1  0  0  0  0
 33 34  1  0  0  0  0
 33 35  1  0  0  0  0
 37 38  1  0  0  0  0
 37 42  1  0  0  0  0
 38 39  1  0  0  0  0
 38 40  1  0  0  0  0
 41 38  1  0  0  0  0
 42 43  1  0  0  0  0
 42 45  1  0  0  0  0
 44 42  1  0  0  0  0
 46 47  1  0  0  0  0
 46 37  1  0  0  0  0
 48 46  1  0  0  0  0
 49 46  1  0  0  0  0
 50 52  1  0  0  0  0
 50 51  1  0  0  0  0
 53 50  1  0  0  0  0
M  CHG  1   2  -1
M  END
