1,2
q = -1.0

 36 38  0  0  0  0  0  0  0  0999 V2000
    1.8878   -1.0538   -0.1242 O   0  5  0  0  0  0  0  0  0  0  0  0
   -0.3236   -0.1341    1.1973 N   0  0  0  0  0  2  0  0  0  0  0  0
    2.4794    0.0904    0.1508 C   0  0  0  0  0  0  0  0  0  0  0  0
    1.7934    1.1012    0.8844 C   0  0  0  0  0  0  0  0  0  0  0  0
    2.4436    2.3240    1.1725 C   0  0  0  0  0  0  0  0  0  0  0  0
    1.9181    3.1032    1.7422 H   0  0  0  0  0  0  0  0  0  0  0  0
    3.7497    2.5424    0.7277 C   0  0  0  0  0  0  0  0  0  0  0  0
    4.5430    4.0521    1.0701 Cl  0  0  0  0  0  0  0  0  0  0  0  0
    4.4409    1.5499    0.0040 C   0  0  0  0  0  0  0  0  0  0  0  0
    5.4675    1.7266   -0.3428 H   0  0  0  0  0  0  0  0  0  0  0  0
    3.8123    0.3319   -0.2768 C   0  0  0  0  0  0  0  0  0  0  0  0
    4.6342   -0.9019   -1.1663 Cl  0  0  0  0  0  0  0  0  0  0  0  0
   -1.6177   -0.0570    1.7985 C   0  0  0  0  0  0  0  0  0  0  0  0
   -2.0563   -1.0392    2.7058 C   0  0  0  0  0  0  0  0  0  0  0  0
   -1.3672   -1.8521    2.9715 H   0  0  0  0  0  0  0  0  0  0  0  0
   -3.3505   -0.9841    3.2338 C   0  0  0  0  0  0  0  0  0  0  0  0
   -3.6798   -1.7558    3.9445 H   0  0  0  0  0  0  0  0  0  0  0  0
   -4.2265    0.0445    2.8469 C   0  0  0  0  0  0  0  0  0  0  0  0
   -5.2478    0.0853    3.2538 H   0  0  0  0  0  0  0  0  0  0  0  0
   -3.8016    1.0291    1.9475 C   0  0  0  0  0  0  0  0  0  0  0  0
   -4.4705    1.8434    1.6335 H   0  0  0  0  0  0  0  0  0  0  0  0
   -2.4954    0.9928    1.4302 C   0  0  0  0  0  0  0  0  0  0  0  0
    0.4567    0.8934    1.4027 C   0  0  0  0  0  3  0  0  0  0  0  0
    0.0828    1.6998    2.0622 H   0  0  0  0  0  0  0  0  0  0  0  0
   -2.0229    1.9813    0.6002 O   0  0  0  0  0  0  0  0  0  0  0  0
   -2.7342    2.3052   -0.5463 C   0  0  0  0  0  0  0  0  0  0  0  0
   -3.4481    1.3404   -1.2766 C   0  0  0  0  0  0  0  0  0  0  0  0
   -3.4724    0.2953   -0.9355 H   0  0  0  0  0  0  0  0  0  0  0  0
   -4.0989    1.7294   -2.4560 C   0  0  0  0  0  0  0  0  0  0  0  0
   -4.6514    0.9751   -3.0364 H   0  0  0  0  0  0  0  0  0  0  0  0
   -4.0344    3.0579   -2.9069 C   0  0  0  0  0  0  0  0  0  0  0  0
   -4.5447    3.3521   -3.8358 H   0  0  0  0  0  0  0  0  0  0  0  0
   -3.3080    4.0067   -2.1691 C   0  0  0  0  0  0  0  0  0  0  0  0
   -3.2485    5.0495   -2.5158 H   0  0  0  0  0  0  0  0  0  0  0  0
   -2.6569    3.6362   -0.9837 C   0  0  0  0  0  0  0  0  0  0  0  0
   -2.0832    4.3605   -0.3879 H   0  0  0  0  0  0  0  0  0  0  0  0
  1  3  1  0  0  0  0
  2 23  1  0  0  0  0
  2 13  1  0  0  0  0
  3  4  1  0  0  0  0
  4  5  2  0  0  0  0
  4 23  1  0  0  0  0
  5  6  1  0  0  0  0
  7  8  1  0  0  0  0
  7  5  1  0  0  0  0
  9  7  2  0  0  0  0
 10  9  1  0  0  0  0
 11  9  1  0  0  0  0
 11  3  2  0  0  0  0
 12 11  1  0  0  0  0
 13 14  1  0  0  0  0
 14 15  1  0  0  0  0
 14 16  2  0  0  0  0
 16 17  1  0  0  0  0
 18 16  1  0  0  0  0
 18 19  1  0  0  0  0
 20 18  2  0  0  0  0
 21 20  1  0  0  0  0
 22 13  2  0  0  0  0
 22 20  1  0  0  0  0
 23 24  1  0  0  0  0
 25 22  1  0  0  0  0
 26 25  1  0  0  0  0
 27 28  1  0  0  0  0
 27 26  2  0  0  0  0
 29 27  1  0  0  0  0
 30 29  1  0  0  0  0
 31 29  2  0  0  0  0
 31 33  1  0  0  0  0
 32 31  1  0  0  0  0
 33 35  2  0  0  0  0
 34 33  1  0  0  0  0
 35 26  1  0  0  0  0
 35 36  1  0  0  0  0
M  CHG  1   1  -1
M  END
