7,8
q = -1.0

 21 21  0  0  0  0  0  0  0  0999 V2000
   -3.9538    1.2354   -1.1926 F   0  0  0  0  0  0  0  0  0  0  0  0
   -4.4214    1.8844    0.8348 F   0  0  0  0  0  0  0  0  0  0  0  0
   -4.4420    3.3236   -0.8083 F   0  0  0  0  0  0  0  0  0  0  0  0
   -2.5889    3.3933    2.1676 F   0  0  0  0  0  0  0  0  0  0  0  0
   -2.6962    4.8299    0.5245 F   0  0  0  0  0  0  0  0  0  0  0  0
   -0.7775    3.9862    1.1159 F   0  0  0  0  0  0  0  0  0  0  0  0
   -1.7274    1.3632    0.4572 O   0  0  0  0  0  1  0  0  0  0  0  0
    0.6356    2.2325   -1.1014 N   0  0  0  0  0  2  0  0  0  0  0  0
   -0.2704    3.1771   -1.4589 N   0  0  0  0  0  0  0  0  0  0  0  0
    0.3531    4.3226   -1.8514 C   0  0  0  0  0  3  0  0  0  0  0  0
   -0.2301    5.1936   -2.1680 H   0  0  0  0  0  0  0  0  0  0  0  0
    1.7256    4.1090   -1.7523 C   0  0  0  0  0  0  0  0  0  0  0  0
    2.5273    4.8133   -1.9926 H   0  0  0  0  0  0  0  0  0  0  0  0
    1.8508    2.7880   -1.2775 C   0  0  0  0  0  0  0  0  0  0  0  0
    2.7487    2.2016   -1.0554 H   0  0  0  0  0  0  0  0  0  0  0  0
   -1.7044    2.9458   -1.4367 C   0  0  0  0  0  0  0  0  0  0  0  0
   -1.9637    2.1586   -2.1687 H   0  0  0  0  0  0  0  0  0  0  0  0
   -2.1841    3.8869   -1.7598 H   0  0  0  0  0  0  0  0  0  0  0  0
   -2.2635    2.4961   -0.0552 C   0  0  0  0  0  0  0  0  0  0  0  0
   -3.7974    2.2405   -0.2944 C   0  0  0  0  0  0  0  0  0  0  0  0
   -2.0940    3.6899    0.9520 C   0  0  0  0  0  0  0  0  0  0  0  0
  1 20  1  0  0  0  0
  3 20  1  0  0  0  0
  5 21  1  0  0  0  0
  9 16  1  0  0  0  0
  9  8  1  0  0  0  0
 10 12  1  0  0  0  0
 10  9  1  0  0  0  0
 11 10  1  0  0  0  0
 12 14  2  0  0  0  0
 13 12  1  0  0  0  0
 14  8  1  0  0  0  0
 14 15  1  0  0  0  0
 16 19  1  0  0  0  0
 17 16  1  0  0  0  0
 18 16  1  0  0  0  0
 19  7  1  0  0  0  0
 19 21  1  0  0  0  0
 20 19  1  0  0  0  0
 20  2  1  0  0  0  0
 21  6  1  0  0  0  0
 21  4  1  0  0  0  0
M  END
