1,3
q = -1.0, confidence = 0.0

 35 37  0  0  0  0  0  0  0  0999 V2000
   -1.2726   -1.1961   -0.1433 O   0  5  0  0  0  0  0  0  0  0  0  0
   -6.3717    0.6119   -0.0434 O   0  0  0  0  0  0  0  0  0  0  0  0
   -1.5838    1.3572   -0.0395 N   0  0  0  0  0  2  0  0  0  0  0  0
   -2.4787   -0.8130   -0.1266 C   0  0  0  0  0  0  0  0  0  0  0  0
   -2.7347    0.6426   -0.0616 C   0  0  0  0  0  0  0  0  0  0  0  0
   -4.0536    1.1098   -0.0317 C   0  0  0  0  0  3  0  0  0  0  0  0
   -5.1905    0.2210   -0.0633 C   0  0  0  0  0  0  0  0  0  0  0  0
   -5.9798   -2.1702   -0.1439 C   0  0  0  0  0  0  0  0  0  0  0  0
   -5.7382   -3.5520   -0.1916 C   0  0  0  0  0  0  0  0  0  0  0  0
   -4.4198   -4.0470   -0.2180 C   0  0  0  0  0  0  0  0  0  0  0  0
   -3.3397   -3.1577   -0.2003 C   0  0  0  0  0  0  0  0  0  0  0  0
   -3.5823   -1.7670   -0.1574 C   0  0  0  0  0  0  0  0  0  0  0  0
   -4.9091   -1.2660   -0.1250 C   0  0  0  0  0  0  0  0  0  0  0  0
   -1.6440    2.7659    0.1036 C   0  0  0  0  0  0  0  0  0  0  0  0
   -1.7580    3.3251    1.4020 C   0  0  0  0  0  0  0  0  0  0  0  0
   -1.7140    4.7247    1.5342 C   0  0  0  0  0  0  0  0  0  0  0  0
   -1.5662    5.5495    0.4108 C   0  0  0  0  0  0  0  0  0  0  0  0
   -1.4788    4.9815   -0.8678 C   0  0  0  0  0  0  0  0  0  0  0  0
   -1.5240    3.5874   -1.0449 C   0  0  0  0  0  0  0  0  0  0  0  0
   -1.9086    2.4226    2.5975 C   0  0  0  0  0  0  0  0  0  0  0  0
   -1.4653    2.9574   -2.4096 C   0  0  0  0  0  0  0  0  0  0  0  0
   -4.2619    2.1881    0.0110 H   0  0  0  0  0  0  0  0  0  0  0  0
   -6.9957   -1.7478   -0.1181 H   0  0  0  0  0  0  0  0  0  0  0  0
   -6.5853   -4.2553   -0.2064 H   0  0  0  0  0  0  0  0  0  0  0  0
   -4.2386   -5.1320   -0.2514 H   0  0  0  0  0  0  0  0  0  0  0  0
   -2.2985   -3.5132   -0.2138 H   0  0  0  0  0  0  0  0  0  0  0  0
   -1.7899    5.1689    2.5395 H   0  0  0  0  0  0  0  0  0  0  0  0
   -1.5233    6.6426    0.5319 H   0  0  0  0  0  0  0  0  0  0  0  0
   -1.3742    5.6282   -1.7531 H   0  0  0  0  0  0  0  0  0  0  0  0
   -2.9026    1.9262    2.6027 H   0  0  0  0  0  0  0  0  0  0  0  0
   -1.8006    2.9835    3.5454 H   0  0  0  0  0  0  0  0  0  0  0  0
   -1.1574    1.6049    2.5764 H   0  0  0  0  0  0  0  0  0  0  0  0
   -1.2594    3.7103   -3.1941 H   0  0  0  0  0  0  0  0  0  0  0  0
   -2.4229    2.4513   -2.6558 H   0  0  0  0  0  0  0  0  0  0  0  0
   -0.6767    2.1794   -2.4484 H   0  0  0  0  0  0  0  0  0  0  0  0
  1  4  1  0  0  0  0
  3 14  1  0  0  0  0
  4  5  2  0  0  0  0
  5  3  1  0  0  0  0
  5  6  1  0  0  0  0
  6 22  1  0  0  0  0
  7  2  2  0  0  0  0
  7  6  1  0  0  0  0
  8 13  1  0  0  0  0
  8 23  1  0  0  0  0
  9  8  2  0  0  0  0
 10 11  2  0  0  0  0
 10  9  1  0  0  0  0
 11 12  1  0  0  0  0
 12  4  1  0  0  0  0
 12 13  2  0  0  0  0
 13  7  1  0  0  0  0
 14 15  1  0  0  0  0
 15 16  2  0  0  0  0
 15 20  1  0  0  0  0
 16 27  1  0  0  0  0
 17 28  1  0  0  0  0
 17 16  1  0  0  0  0
 18 17  2  0  0  0  0
 19 18  1  0  0  0  0
 19 14  2  0  0  0  0
 20 30  1  0  0  0  0
 20 31  1  0  0  0  0
 21 19  1  0  0  0  0
 24  9  1  0  0  0  0
 25 10  1  0  0  0  0
 26 11  1  0  0  0  0
 29 18  1  0  0  0  0
 32 20  1  0  0  0  0
 33 21  1  0  0  0  0
 34 21  1  0  0  0  0
 35 21  1  0  0  0  0
M  CHG  1   1  -1
M  END
