1,3
q = -1.0

 38 40  0  0  0  0  0  0  0  0999 V2000
   -1.0302    1.5614   -0.3208 O   0  5  0  0  0  0  0  0  0  0  0  0
   -6.3236    0.4795   -0.0206 O   0  0  0  0  0  0  0  0  0  0  0  0
   -1.6924   -0.9258   -0.2677 N   0  0  0  0  0  2  0  0  0  0  0  0
   -2.2772    1.3488   -0.2777 C   0  0  0  0  0  0  0  0  0  0  0  0
   -2.7319   -0.0578   -0.2255 C   0  0  0  0  0  0  0  0  0  0  0  0
   -4.0998   -0.3366   -0.1239 C   0  0  0  0  0  3  0  0  0  0  0  0
   -5.1016    0.7018   -0.0996 C   0  0  0  0  0  0  0  0  0  0  0  0
   -4.6189    2.1352   -0.1809 C   0  0  0  0  0  0  0  0  0  0  0  0
   -5.5540    3.1792   -0.1677 C   0  0  0  0  0  0  0  0  0  0  0  0
   -5.1256    4.5137   -0.2414 C   0  0  0  0  0  0  0  0  0  0  0  0
   -3.7535    4.8206   -0.3281 C   0  0  0  0  0  0  0  0  0  0  0  0
   -2.8070    3.7903   -0.3411 C   0  0  0  0  0  0  0  0  0  0  0  0
   -3.2379    2.4472   -0.2695 C   0  0  0  0  0  0  0  0  0  0  0  0
   -1.9313   -2.3143   -0.1177 C   0  0  0  0  0  0  0  0  0  0  0  0
   -1.9313   -3.1507   -1.2616 C   0  0  0  0  0  0  0  0  0  0  0  0
   -2.0406   -4.5380   -1.0788 C   0  0  0  0  0  0  0  0  0  0  0  0
   -2.1649   -5.1149    0.1994 C   0  0  0  0  0  0  0  0  0  0  0  0
   -2.2009   -4.2560    1.3121 C   0  0  0  0  0  0  0  0  0  0  0  0
   -2.0856   -2.8611    1.1801 C   0  0  0  0  0  0  0  0  0  0  0  0
   -1.8363   -2.5377   -2.6319 C   0  0  0  0  0  0  0  0  0  0  0  0
   -2.2277   -6.6129    0.3653 C   0  0  0  0  0  0  0  0  0  0  0  0
   -2.0973   -1.9563    2.3836 C   0  0  0  0  0  0  0  0  0  0  0  0
   -4.4534   -1.3759   -0.0709 H   0  0  0  0  0  0  0  0  0  0  0  0
   -6.6167    2.9020   -0.0974 H   0  0  0  0  0  0  0  0  0  0  0  0
   -5.8670    5.3278   -0.2308 H   0  0  0  0  0  0  0  0  0  0  0  0
   -3.4257    5.8696   -0.3844 H   0  0  0  0  0  0  0  0  0  0  0  0
   -1.7283    3.9983   -0.4068 H   0  0  0  0  0  0  0  0  0  0  0  0
   -2.0276   -5.1907   -1.9673 H   0  0  0  0  0  0  0  0  0  0  0  0
   -2.3091   -4.6851    2.3220 H   0  0  0  0  0  0  0  0  0  0  0  0
   -1.0151   -1.7950   -2.6708 H   0  0  0  0  0  0  0  0  0  0  0  0
   -2.7690   -1.9906   -2.8873 H   0  0  0  0  0  0  0  0  0  0  0  0
   -1.6613   -3.3051   -3.4098 H   0  0  0  0  0  0  0  0  0  0  0  0
   -1.2204   -7.0686    0.2497 H   0  0  0  0  0  0  0  0  0  0  0  0
   -2.8816   -7.0821   -0.3977 H   0  0  0  0  0  0  0  0  0  0  0  0
   -2.6075   -6.8991    1.3657 H   0  0  0  0  0  0  0  0  0  0  0  0
   -2.9873   -1.2917    2.3820 H   0  0  0  0  0  0  0  0  0  0  0  0
   -1.2102   -1.2884    2.3865 H   0  0  0  0  0  0  0  0  0  0  0  0
   -2.1029   -2.5372    3.3256 H   0  0  0  0  0  0  0  0  0  0  0  0
  1  4  1  0  0  0  0
  3  5  1  0  0  0  0
  3 14  1  0  0  0  0
  4 13  1  0  0  0  0
  4  5  2  0  0  0  0
  5  6  1  0  0  0  0
  6  7  1  0  0  0  0
  6 23  1  0  0  0  0
  7  2  2  0  0  0  0
  8  9  1  0  0  0  0
  8  7  1  0  0  0  0
  9 24  1  0  0  0  0
 10 25  1  0  0  0  0
 10  9  2  0  0  0  0
 11 10  1  0  0  0  0
 12 11  2  0  0  0  0
 12 13  1  0  0  0  0
 13  8  2  0  0  0  0
 14 19  1  0  0  0  0
 15 16  1  0  0  0  0
 15 14  2  0  0  0  0
 16 17  2  0  0  0  0
 17 21  1  0  0  0  0
 17 18  1  0  0  0  0
 18 29  1  0  0  0  0
 19 18  2  0  0  0  0
 19 22  1  0  0  0  0
 20 15  1  0  0  0  0
 21 35  1  0  0  0  0
 22 37  1  0  0  0  0
 22 38  1  0  0  0  0
 26 11  1  0  0  0  0
 27 12  1  0  0  0  0
 28 16  1  0  0  0  0
 30 20  1  0  0  0  0
 31 20  1  0  0  0  0
 32 20  1  0  0  0  0
 33 21  1  0  0  0  0
 34 21  1  0  0  0  0
 36 22  1  0  0  0  0
M  CHG  1   1  -1
M  END
