2,3
q = -1.0

 13 13  0  0  1  0  0  0  0  0999 V2000
    4.1016   -1.2743    0.8123 S   0  0  0  0  0  0  0  0  0  0  0  0
    1.0066    1.4571   -1.3098 O   0  5  0  0  0  0  0  0  0  0  0  0
    1.6367   -0.5738    0.6269 N   0  0  0  0  0  2  0  0  0  0  0  0
    1.6509   -1.5287    1.5889 N   0  0  0  0  0  0  0  0  0  0  0  0
    2.8340   -0.2710    0.0666 C   0  0  1  0  0  3  0  0  0  0  0  0
    3.1576    0.6008   -0.8837 N   0  0  0  0  0  0  0  0  0  0  0  0
    2.8545   -1.9894    1.7996 C   0  0  0  0  0  0  0  0  0  0  0  0
    3.0668   -2.7700    2.5432 H   0  0  0  0  0  0  0  0  0  0  0  0
    2.2693    1.3933   -1.5044 C   0  0  0  0  0  0  0  0  0  0  0  0
    2.8275    2.3181   -2.5588 C   0  0  0  0  0  0  0  0  0  0  0  0
    3.9203    2.2022   -2.6548 H   0  0  0  0  0  0  0  0  0  0  0  0
    2.3354    2.1066   -3.5299 H   0  0  0  0  0  0  0  0  0  0  0  0
    2.5756    3.3664   -2.2993 H   0  0  0  0  0  0  0  0  0  0  0  0
  1  7  1  0  0  0  0
  3  4  1  0  0  0  0
  4  7  2  0  0  0  0
  5  6  1  1  0  0  0
  5  3  1  0  0  0  0
  5  1  1  0  0  0  0
  7  8  1  0  0  0  0
  9  2  1  0  0  0  0
  9  6  2  0  0  0  0
 10 13  1  0  0  0  0
 10  9  1  0  0  0  0
 11 10  1  0  0  0  0
 12 10  1  0  0  0  0
M  CHG  1   2  -1
M  END
