1,2
q = -1.0

 35 34  0  0  1  0  0  0  0  0999 V2000
   -1.8360    1.4400   -1.1952 O   0  5  0  0  0  0  0  0  0  0  0  0
    0.5798    1.0294    0.0126 N   0  0  0  0  0  2  0  0  0  0  0  0
    4.0194   -0.5616   -0.0579 N   0  0  0  0  0  0  0  0  0  0  0  0
    0.5587    2.3604    0.1236 C   0  0  1  0  0  3  0  0  0  0  0  0
   -0.4899    3.1853   -0.3840 C   0  0  0  0  0  0  0  0  0  0  0  0
   -0.3821    4.2713   -0.2678 H   0  0  0  0  0  0  0  0  0  0  0  0
   -1.6174    2.7031   -1.0434 C   0  0  0  0  0  0  0  0  0  0  0  0
    1.6655    3.1093    0.8475 C   0  0  0  0  0  0  0  0  0  0  0  0
    1.7257    2.7915    1.9094 H   0  0  0  0  0  0  0  0  0  0  0  0
    1.4777    4.1972    0.8284 H   0  0  0  0  0  0  0  0  0  0  0  0
    2.6615    2.9263    0.4003 H   0  0  0  0  0  0  0  0  0  0  0  0
   -2.6598    3.6284   -1.6203 C   0  0  0  0  0  0  0  0  0  0  0  0
   -2.7805    3.4186   -2.7029 H   0  0  0  0  0  0  0  0  0  0  0  0
   -2.4024    4.6947   -1.4828 H   0  0  0  0  0  0  0  0  0  0  0  0
   -3.6430    3.4274   -1.1467 H   0  0  0  0  0  0  0  0  0  0  0  0
    1.7730    0.3476    0.5194 C   0  0  0  0  0  0  0  0  0  0  0  0
    1.5129   -0.6953    0.7586 H   0  0  0  0  0  0  0  0  0  0  0  0
    2.1394    0.7989    1.4651 H   0  0  0  0  0  0  0  0  0  0  0  0
    2.9300    0.2947   -0.5051 C   0  0  0  0  0  0  0  0  0  0  0  0
    2.5082   -0.0813   -1.4584 H   0  0  0  0  0  0  0  0  0  0  0  0
    3.2936    1.3251   -0.7294 H   0  0  0  0  0  0  0  0  0  0  0  0
    5.2105    0.1242    0.4188 C   0  0  0  0  0  0  0  0  0  0  0  0
    5.6409    0.8218   -0.3508 H   0  0  0  0  0  0  0  0  0  0  0  0
    5.9880   -0.6499    0.5942 H   0  0  0  0  0  0  0  0  0  0  0  0
    4.9918    0.9025    1.7164 C   0  0  0  0  0  0  0  0  0  0  0  0
    4.2738    1.7366    1.5817 H   0  0  0  0  0  0  0  0  0  0  0  0
    5.9442    1.3467    2.0705 H   0  0  0  0  0  0  0  0  0  0  0  0
    4.5939    0.2365    2.5086 H   0  0  0  0  0  0  0  0  0  0  0  0
    4.2703   -1.7321   -0.8947 C   0  0  0  0  0  0  0  0  0  0  0  0
    3.3038   -2.2617   -1.0337 H   0  0  0  0  0  0  0  0  0  0  0  0
    4.9209   -2.4277   -0.3198 H   0  0  0  0  0  0  0  0  0  0  0  0
    4.9009   -1.4595   -2.2688 C   0  0  0  0  0  0  0  0  0  0  0  0
    4.2610   -0.7915   -2.8818 H   0  0  0  0  0  0  0  0  0  0  0  0
    5.0320   -2.4041   -2.8351 H   0  0  0  0  0  0  0  0  0  0  0  0
    5.8982   -0.9824   -2.1768 H   0  0  0  0  0  0  0  0  0  0  0  0
  1  7  1  0  0  0  0
  2  4  1  0  0  0  0
  2 16  1  0  0  0  0
  3 22  1  0  0  0  0
  4  5  1  1  0  0  0
  4  8  1  0  0  0  0
  5  6  1  0  0  0  0
  7  5  2  0  0  0  0
  8  9  1  0  0  0  0
 10  8  1  0  0  0  0
 11  8  1  0  0  0  0
 12 14  1  0  0  0  0
 12 15  1  0  0  0  0
 12  7  1  0  0  0  0
 13 12  1  0  0  0  0
 16 17  1  0  0  0  0
 16 18  1  0  0  0  0
 19  3  1  0  0  0  0
 19 16  1  0  0  0  0
 20 19  1  0  0  0  0
 21 19  1  0  0  0  0
 22 24  1  0  0  0  0
 22 25  1  0  0  0  0
 23 22  1  0  0  0  0
 25 27  1  0  0  0  0
 25 28  1  0  0  0  0
 26 25  1  0  0  0  0
 29 31  1  0  0  0  0
 29  3  1  0  0  0  0
 30 29  1  0  0  0  0
 32 35  1  0  0  0  0
 32 29  1  0  0  0  0
 33 32  1  0  0  0  0
 34 32  1  0  0  0  0
M  CHG  1   1  -1
M  END
