1,2
q = -1.0

 23 24  0  0  1  0  0  0  0  0999 V2000
   -1.5027   -0.9915   -0.6810 N   0  0  0  0  0  2  0  0  0  0  0  0
   -1.1525    1.3644    0.9652 O   0  5  0  0  0  0  0  0  0  0  0  0
   -2.7682   -0.6229   -0.5659 C   0  0  2  0  0  3  0  0  0  0  0  0
   -1.4725   -2.3537   -1.2353 C   0  0  2  0  0  0  0  0  0  0  0  0
   -2.4450    1.4835    0.8093 C   0  0  0  0  0  0  0  0  0  0  0  0
   -3.2885    0.5686    0.0614 C   0  0  0  0  0  0  0  0  0  0  0  0
   -3.6512   -1.4904   -1.1056 O   0  0  0  0  0  0  0  0  0  0  0  0
   -2.9053   -2.5366   -1.7694 C   0  0  0  0  0  0  0  0  0  0  0  0
   -0.7114   -2.4308   -2.0458 H   0  0  0  0  0  0  0  0  0  0  0  0
   -1.0530   -3.3082   -0.1328 C   0  0  0  0  0  3  0  0  0  0  0  0
   -3.0958    2.6050    1.4134 C   0  0  0  0  0  0  0  0  0  0  0  0
   -4.6878    0.8206   -0.0472 C   0  0  0  0  0  0  0  0  0  0  0  0
   -3.3442   -3.5160   -1.4951 H   0  0  0  0  0  0  0  0  0  0  0  0
   -2.9774   -2.3775   -2.8645 H   0  0  0  0  0  0  0  0  0  0  0  0
   -0.1750   -2.9588    0.4574 H   0  0  0  0  0  0  0  0  0  0  0  0
   -1.6896   -4.4600    0.1399 C   0  0  0  0  0  0  0  0  0  0  0  0
   -2.3154   -5.5647    0.4105 C   0  0  0  0  0  3  0  0  0  0  0  0
   -2.4599    3.2919    1.9910 H   0  0  0  0  0  0  0  0  0  0  0  0
   -4.4610    2.8226    1.2852 C   0  0  0  0  0  0  0  0  0  0  0  0
   -5.2743    1.9277    0.5482 C   0  0  0  0  0  0  0  0  0  0  0  0
   -5.2980    0.1080   -0.6192 H   0  0  0  0  0  0  0  0  0  0  0  0
   -4.9144    3.7038    1.7657 H   0  0  0  0  0  0  0  0  0  0  0  0
   -6.3549    2.1044    0.4515 H   0  0  0  0  0  0  0  0  0  0  0  0
  1  3  1  0  0  0  0
  3  6  1  1  0  0  0
  4  9  1  6  0  0  0
  4  1  1  0  0  0  0
  4 10  1  0  0  0  0
  5  2  1  0  0  0  0
  5 11  1  0  0  0  0
  6  5  2  0  0  0  0
  7  3  1  0  0  0  0
  8 13  1  0  0  0  0
  8  4  1  0  0  0  0
  8  7  1  0  0  0  0
 10 16  1  0  0  0  0
 10 15  1  0  0  0  0
 11 18  1  0  0  0  0
 12  6  1  0  0  0  0
 12 20  2  0  0  0  0
 14  8  1  0  0  0  0
 16 17  3  0  0  0  0
 19 11  2  0  0  0  0
 19 22  1  0  0  0  0
 20 19  1  0  0  0  0
 21 12  1  0  0  0  0
 23 20  1  0  0  0  0
M  CHG  1   2  -1
M  END
