2,5
q = -1.0

 43 44  0  0  0  0  0  0  0  0999 V2000
    3.1829   -1.6362    1.2473 S   0  0  0  0  0  0  0  0  0  0  0  0
   -1.6501    0.1172   -0.3248 O   0  5  0  0  0  0  0  0  0  0  0  0
    2.5475   -2.8401    0.6530 O   0  0  0  0  0  0  0  0  0  0  0  0
    4.4446   -1.7722    2.0147 O   0  0  0  0  0  0  0  0  0  0  0  0
    1.1098   -0.1629   -0.7131 N   0  0  0  0  0  2  0  0  0  0  0  0
   -1.7220   -1.1785   -0.4677 C   0  0  0  0  0  0  0  0  0  0  0  0
   -0.5675   -1.9659   -0.8404 C   0  0  0  0  0  0  0  0  0  0  0  0
   -0.6707   -3.3735   -1.0346 C   0  0  0  0  0  3  0  0  0  0  0  0
    0.2387   -3.9319   -1.3058 H   0  0  0  0  0  0  0  0  0  0  0  0
   -1.8761   -4.0209   -0.8399 C   0  0  0  0  0  0  0  0  0  0  0  0
   -1.9611   -5.1097   -0.9665 H   0  0  0  0  0  0  0  0  0  0  0  0
   -3.0087   -3.2602   -0.4607 C   0  0  0  0  0  0  0  0  0  0  0  0
   -3.9553   -3.7961   -0.3066 H   0  0  0  0  0  0  0  0  0  0  0  0
   -2.9825   -1.8759   -0.2767 C   0  0  0  0  0  0  0  0  0  0  0  0
   -4.2594   -1.0996    0.0882 C   0  0  0  0  0  0  0  0  0  0  0  0
   -5.4600   -2.0259    0.3556 C   0  0  0  0  0  0  0  0  0  0  0  0
   -5.7352   -2.6247   -0.5360 H   0  0  0  0  0  0  0  0  0  0  0  0
   -6.3435   -1.4119    0.6250 H   0  0  0  0  0  0  0  0  0  0  0  0
   -5.2679   -2.7229    1.1965 H   0  0  0  0  0  0  0  0  0  0  0  0
   -4.6254   -0.1955   -1.1127 C   0  0  0  0  0  0  0  0  0  0  0  0
   -3.7649    0.4256   -1.4171 H   0  0  0  0  0  0  0  0  0  0  0  0
   -5.4800    0.4692   -0.8646 H   0  0  0  0  0  0  0  0  0  0  0  0
   -4.9194   -0.8188   -1.9813 H   0  0  0  0  0  0  0  0  0  0  0  0
   -4.0298   -0.2707    1.3750 C   0  0  0  0  0  0  0  0  0  0  0  0
   -3.8645   -0.9443    2.2405 H   0  0  0  0  0  0  0  0  0  0  0  0
   -4.9196    0.3553    1.5974 H   0  0  0  0  0  0  0  0  0  0  0  0
   -3.1416    0.3781    1.2749 H   0  0  0  0  0  0  0  0  0  0  0  0
    0.7243   -1.3942   -1.0152 C   0  0  0  0  0  0  0  0  0  0  0  0
    1.4967   -2.0744   -1.4151 H   0  0  0  0  0  0  0  0  0  0  0  0
    2.4945    0.1042   -0.9190 C   0  0  0  0  0  0  0  0  0  0  0  0
    2.8824    0.9746   -1.9555 C   0  0  0  0  0  0  0  0  0  0  0  0
    2.0915    1.4032   -2.5883 H   0  0  0  0  0  0  0  0  0  0  0  0
    4.2305    1.2857   -2.1688 C   0  0  0  0  0  0  0  0  0  0  0  0
    4.5084    1.9591   -2.9937 H   0  0  0  0  0  0  0  0  0  0  0  0
    5.2227    0.7490   -1.3316 C   0  0  0  0  0  0  0  0  0  0  0  0
    6.2819    1.0003   -1.4895 H   0  0  0  0  0  0  0  0  0  0  0  0
    4.8561   -0.1070   -0.2861 C   0  0  0  0  0  0  0  0  0  0  0  0
    5.5991   -0.5394    0.4004 H   0  0  0  0  0  0  0  0  0  0  0  0
    3.5048   -0.4324   -0.0856 C   0  0  0  0  0  0  0  0  0  0  0  0
    1.9697   -0.8441    2.3256 C   0  0  0  0  0  0  0  0  0  0  0  0
    1.1149   -0.4882    1.7188 H   0  0  0  0  0  0  0  0  0  0  0  0
    2.4678   -0.0143    2.8577 H   0  0  0  0  0  0  0  0  0  0  0  0
    1.6593   -1.6432    3.0244 H   0  0  0  0  0  0  0  0  0  0  0  0
  1  4  2  0  0  0  0
  1 40  1  0  0  0  0
  3  1  2  0  0  0  0
  6  2  1  0  0  0  0
  6 14  2  0  0  0  0
  7  6  1  0  0  0  0
  8  7  1  0  0  0  0
  8 10  1  0  0  0  0
  9  8  1  0  0  0  0
 10 12  2  0  0  0  0
 11 10  1  0  0  0  0
 12 13  1  0  0  0  0
 12 14  1  0  0  0  0
 14 15  1  0  0  0  0
 15 16  1  0  0  0  0
 15 24  1  0  0  0  0
 16 18  1  0  0  0  0
 16 19  1  0  0  0  0
 17 16  1  0  0  0  0
 20 22  1  0  0  0  0
 20 15  1  0  0  0  0
 21 20  1  0  0  0  0
 23 20  1  0  0  0  0
 24 26  1  0  0  0  0
 24 25  1  0  0  0  0
 27 24  1  0  0  0  0
 28  7  2  0  0  0  0
 28  5  1  0  0  0  0
 29 28  1  0  0  0  0
 30  5  1  0  0  0  0
 30 39  1  0  0  0  0
 31 30  2  0  0  0  0
 32 31  1  0  0  0  0
 33 31  1  0  0  0  0
 33 35  2  0  0  0  0
 34 33  1  0  0  0  0
 35 37  1  0  0  0  0
 36 35  1  0  0  0  0
 37 39  2  0  0  0  0
 37 38  1  0  0  0  0
 39  1  1  0  0  0  0
 40 42  1  0  0  0  0
 40 43  1  0  0  0  0
 41 40  1  0  0  0  0
M  CHG  1   2  -1
M  END
