1,2
q = -1.0

 27 28  0  0  0  0  0  0  0  0999 V2000
   -1.6306   -0.1636    1.8937 O   0  5  0  0  0  0  0  0  0  0  0  0
   -0.6562    1.6836   -0.1209 N   0  0  0  0  0  2  0  0  0  0  0  0
   -2.7666    0.3652    1.6053 C   0  0  0  0  0  0  0  0  0  0  0  0
    1.4660    1.5798   -0.9581 N   0  0  0  0  0  0  0  0  0  0  0  0
   -3.9461   -0.1193    2.2744 C   0  0  0  0  0  0  0  0  0  0  0  0
   -3.7918   -0.9296    3.0019 H   0  0  0  0  0  0  0  0  0  0  0  0
   -5.2070    0.3927    2.0145 C   0  0  0  0  0  0  0  0  0  0  0  0
   -6.0783   -0.0191    2.5488 H   0  0  0  0  0  0  0  0  0  0  0  0
   -5.3964    1.4411    1.0721 C   0  0  0  0  0  0  0  0  0  0  0  0
   -6.4014    1.8416    0.8771 H   0  0  0  0  0  0  0  0  0  0  0  0
   -4.2906    1.9485    0.4121 C   0  0  0  0  0  0  0  0  0  0  0  0
   -4.4124    2.7637   -0.3208 H   0  0  0  0  0  0  0  0  0  0  0  0
   -2.9701    1.4462    0.6366 C   0  0  0  0  0  0  0  0  0  0  0  0
   -1.9221    2.0443   -0.1237 C   0  0  0  0  0  3  0  0  0  0  0  0
   -2.2361    2.8769   -0.7899 H   0  0  0  0  0  0  0  0  0  0  0  0
    0.3402    2.3157   -0.8755 C   0  0  0  0  0  0  0  0  0  0  0  0
    0.2262    3.5942   -1.4687 C   0  0  0  0  0  0  0  0  0  0  0  0
   -0.6864    4.1970   -1.3622 H   0  0  0  0  0  0  0  0  0  0  0  0
    1.3279    4.0831   -2.1763 C   0  0  0  0  0  0  0  0  0  0  0  0
    1.2812    5.0757   -2.6501 H   0  0  0  0  0  0  0  0  0  0  0  0
    2.4959    3.3110   -2.2662 C   0  0  0  0  0  0  0  0  0  0  0  0
    3.3776    3.6813   -2.8090 H   0  0  0  0  0  0  0  0  0  0  0  0
    2.5308    2.0515   -1.6307 C   0  0  0  0  0  0  0  0  0  0  0  0
    3.7583    1.1814   -1.6533 C   0  0  0  0  0  0  0  0  0  0  0  0
    4.5498    1.6001   -2.3025 H   0  0  0  0  0  0  0  0  0  0  0  0
    3.5015    0.1616   -2.0017 H   0  0  0  0  0  0  0  0  0  0  0  0
    4.1633    1.0615   -0.6269 H   0  0  0  0  0  0  0  0  0  0  0  0
  3  1  1  0  0  0  0
  3  5  1  0  0  0  0
  4 16  1  0  0  0  0
  5  6  1  0  0  0  0
  7  5  2  0  0  0  0
  7  8  1  0  0  0  0
  9  7  1  0  0  0  0
 10  9  1  0  0  0  0
 11 13  1  0  0  0  0
 11  9  2  0  0  0  0
 12 11  1  0  0  0  0
 13  3  2  0  0  0  0
 14  2  1  0  0  0  0
 14 13  1  0  0  0  0
 15 14  1  0  0  0  0
 16  2  1  0  0  0  0
 17 18  1  0  0  0  0
 17 16  2  0  0  0  0
 19 17  1  0  0  0  0
 20 19  1  0  0  0  0
 21 19  2  0  0  0  0
 21 23  1  0  0  0  0
 22 21  1  0  0  0  0
 23  4  2  0  0  0  0
 24 23  1  0  0  0  0
 24 27  1  0  0  0  0
 25 24  1  0  0  0  0
 26 24  1  0  0  0  0
M  CHG  1   1  -1
M  END
