2,6
q = -1.0, confidence = 0.024

 32 32  0  0  1  0  0  0  0  0999 V2000
    7.2569    0.7972   -0.0976 Br  0  0  0  0  0  0  0  0  0  0  0  0
    0.7809    1.4176   -0.9921 N   0  0  0  0  0  2  0  0  0  0  0  0
   -1.4272    1.9439    1.0507 N   0  0  0  0  0  0  0  0  0  0  0  0
   -0.7665    2.3795    1.7085 H   0  0  0  0  0  0  0  0  0  0  0  0
   -2.2024    1.5645    1.6069 H   0  0  0  0  0  0  0  0  0  0  0  0
    1.3984    0.0862    1.2840 O   0  5  0  0  0  0  0  0  0  0  0  0
    2.6436    0.2778    0.9671 C   0  0  0  0  0  0  0  0  0  0  0  0
    3.6786   -0.1963    1.8347 C   0  0  0  0  0  0  0  0  0  0  0  0
    3.3750   -0.7011    2.7638 H   0  0  0  0  0  0  0  0  0  0  0  0
    5.0259   -0.0469    1.5194 C   0  0  0  0  0  0  0  0  0  0  0  0
    5.7999   -0.4415    2.1938 H   0  0  0  0  0  0  0  0  0  0  0  0
    5.4066    0.6148    0.3283 C   0  0  0  0  0  0  0  0  0  0  0  0
    4.4365    1.1424   -0.5187 C   0  0  0  0  0  3  0  0  0  0  0  0
    4.7326    1.6918   -1.4252 H   0  0  0  0  0  0  0  0  0  0  0  0
    3.0584    0.9804   -0.2229 C   0  0  0  0  0  0  0  0  0  0  0  0
    2.0696    1.6377   -1.0344 C   0  0  0  0  0  0  0  0  0  0  0  0
    2.4365    2.4267   -1.7239 H   0  0  0  0  0  0  0  0  0  0  0  0
   -0.0830    2.3454   -1.7218 C   0  0  0  0  0  0  0  0  0  0  0  0
    0.5273    2.8746   -2.4870 H   0  0  0  0  0  0  0  0  0  0  0  0
   -0.8568    1.7483   -2.2404 H   0  0  0  0  0  0  0  0  0  0  0  0
   -0.7526    3.3973   -0.8197 C   0  0  0  0  0  0  0  0  0  0  0  0
   -1.1463    4.1924   -1.4877 H   0  0  0  0  0  0  0  0  0  0  0  0
    0.0239    3.8863   -0.1876 H   0  0  0  0  0  0  0  0  0  0  0  0
   -1.9095    2.9150    0.0678 C   0  0  2  0  0  0  0  0  0  0  0  0
   -2.6268    2.3676   -0.5847 H   0  0  0  0  0  0  0  0  0  0  0  0
   -2.6722    4.1129    0.6757 C   0  0  0  0  0  0  0  0  0  0  0  0
   -2.9903    4.7879   -0.1493 H   0  0  0  0  0  0  0  0  0  0  0  0
   -1.9664    4.7058    1.3018 H   0  0  0  0  0  0  0  0  0  0  0  0
   -3.8939    3.7079    1.5004 C   0  0  0  0  0  0  0  0  0  0  0  0
   -3.6076    3.0876    2.3752 H   0  0  0  0  0  0  0  0  0  0  0  0
   -4.4339    4.5927    1.8919 H   0  0  0  0  0  0  0  0  0  0  0  0
   -4.6103    3.1144    0.8941 H   0  0  0  0  0  0  0  0  0  0  0  0
  1 12  1  0  0  0  0
  3  5  1  0  0  0  0
  3  4  1  0  0  0  0
  7  6  1  0  0  0  0
  7  8  2  0  0  0  0
  8  9  1  0  0  0  0
 10  8  1  0  0  0  0
 10 11  1  0  0  0  0
 12 10  2  0  0  0  0
 13 15  1  0  0  0  0
 13 12  1  0  0  0  0
 14 13  1  0  0  0  0
 15  7  1  0  0  0  0
 16  2  1  0  0  0  0
 16 15  2  0  0  0  0
 17 16  1  0  0  0  0
 18  2  1  0  0  0  0
 18 21  1  0  0  0  0
 19 18  1  0  0  0  0
 20 18  1  0  0  0  0
 21 23  1  0  0  0  0
 21 24  1  0  0  0  0
 22 21  1  0  0  0  0
 24 25  1  6  0  0  0
 24 26  1  0  0  0  0
 24  3  1  0  0  0  0
 26 28  1  0  0  0  0
 26 29  1  0  0  0  0
 27 26  1  0  0  0  0
 29 31  1  0  0  0  0
 29 30  1  0  0  0  0
 32 29  1  0  0  0  0
M  CHG  1   6  -1
M  END
