2,6
q = -1.0

 32 32  0  0  1  0  0  0  0  0999 V2000
   -7.2569   -0.7971    0.0977 Br  0  0  0  0  0  0  0  0  0  0  0  0
   -0.7809   -1.4177    0.9921 N   0  0  0  0  0  2  0  0  0  0  0  0
    1.4271   -1.9440   -1.0507 N   0  0  0  0  0  0  0  0  0  0  0  0
    0.7665   -2.3796   -1.7085 H   0  0  0  0  0  0  0  0  0  0  0  0
    2.2023   -1.5644   -1.6070 H   0  0  0  0  0  0  0  0  0  0  0  0
   -1.3984   -0.0864   -1.2840 O   0  0  0  0  0  1  0  0  0  0  0  0
   -2.6436   -0.2778   -0.9671 C   0  0  1  0  0  3  0  0  0  0  0  0
   -3.6786    0.1963   -1.8347 C   0  0  0  0  0  0  0  0  0  0  0  0
   -3.3750    0.7010   -2.7638 H   0  0  0  0  0  0  0  0  0  0  0  0
   -5.0259    0.0469   -1.5194 C   0  0  0  0  0  0  0  0  0  0  0  0
   -5.7999    0.4416   -2.1937 H   0  0  0  0  0  0  0  0  0  0  0  0
   -5.4066   -0.6148   -0.3282 C   0  0  0  0  0  0  0  0  0  0  0  0
   -4.4365   -1.1424    0.5187 C   0  0  0  0  0  0  0  0  0  0  0  0
   -4.7326   -1.6918    1.4252 H   0  0  0  0  0  0  0  0  0  0  0  0
   -3.0584   -0.9805    0.2229 C   0  0  0  0  0  0  0  0  0  0  0  0
   -2.0696   -1.6378    1.0344 C   0  0  0  0  0  0  0  0  0  0  0  0
   -2.4365   -2.4268    1.7238 H   0  0  0  0  0  0  0  0  0  0  0  0
    0.0830   -2.3456    1.7217 C   0  0  0  0  0  0  0  0  0  0  0  0
   -0.5273   -2.8748    2.4869 H   0  0  0  0  0  0  0  0  0  0  0  0
    0.8567   -1.7484    2.2403 H   0  0  0  0  0  0  0  0  0  0  0  0
    0.7526   -3.3974    0.8197 C   0  0  0  0  0  0  0  0  0  0  0  0
    1.1464   -4.1925    1.4876 H   0  0  0  0  0  0  0  0  0  0  0  0
   -0.0238   -3.8864    0.1875 H   0  0  0  0  0  0  0  0  0  0  0  0
    1.9095   -2.9150   -0.0679 C   0  0  1  0  0  0  0  0  0  0  0  0
    2.6268   -2.3676    0.5847 H   0  0  0  0  0  0  0  0  0  0  0  0
    2.6723   -4.1129   -0.6757 C   0  0  0  0  0  0  0  0  0  0  0  0
    2.9904   -4.7878    0.1492 H   0  0  0  0  0  0  0  0  0  0  0  0
    1.9665   -4.7058   -1.3018 H   0  0  0  0  0  0  0  0  0  0  0  0
    3.8940   -3.7078   -1.5004 C   0  0  0  0  0  0  0  0  0  0  0  0
    3.6076   -3.0875   -2.3753 H   0  0  0  0  0  0  0  0  0  0  0  0
    4.4341   -4.5924   -1.8920 H   0  0  0  0  0  0  0  0  0  0  0  0
    4.6103   -3.1142   -0.8942 H   0  0  0  0  0  0  0  0  0  0  0  0
  2 16  1  0  0  0  0
  2 18  1  0  0  0  0
  3 24  1  0  0  0  0
  4  3  1  0  0  0  0
  5  3  1  0  0  0  0
  7  6  1  6  0  0  0
  7 15  1  0  0  0  0
  8 10  2  0  0  0  0
  8  7  1  0  0  0  0
  9  8  1  0  0  0  0
 10 12  1  0  0  0  0
 11 10  1  0  0  0  0
 12  1  1  0  0  0  0
 12 13  2  0  0  0  0
 13 14  1  0  0  0  0
 15 13  1  0  0  0  0
 15 16  2  0  0  0  0
 16 17  1  0  0  0  0
 18 20  1  0  0  0  0
 18 19  1  0  0  0  0
 21 22  1  0  0  0  0
 21 18  1  0  0  0  0
 23 21  1  0  0  0  0
 24 25  1  1  0  0  0
 24 21  1  0  0  0  0
 26 24  1  0  0  0  0
 26 27  1  0  0  0  0
 28 26  1  0  0  0  0
 29 32  1  0  0  0  0
 29 26  1  0  0  0  0
 30 29  1  0  0  0  0
 31 29  1  0  0  0  0
M  END
