4,7
q = 0.0, confidence = 0.996

 24 24  0  0  1  0  0  0  0  0999 V2000
   -0.7218   -3.9606    0.3400 N   0  0  0  0  0  0  0  0  0  0  0  0
   -0.0049   -4.6888    0.3885 H   0  0  0  0  0  0  0  0  0  0  0  0
   -1.7015   -4.2305    0.4230 H   0  0  0  0  0  0  0  0  0  0  0  0
   -0.8020   -0.3771   -0.3220 N   0  0  0  0  0  0  0  0  0  0  0  0
   -1.2744    0.4548    0.0647 H   0  0  0  0  0  0  0  0  0  0  0  0
   -0.9956   -0.3632   -1.3355 H   0  0  0  0  0  0  0  0  0  0  0  0
    0.8657   -2.3656    0.1204 O   0  0  0  0  0  1  0  0  0  0  0  0
   -0.3470   -2.6809    0.2330 C   0  0  2  0  0  3  0  0  0  0  0  0
   -1.4016   -1.5868    0.2985 C   0  0  2  0  0  0  0  0  0  0  0  0
   -1.4624   -1.3423    1.3830 H   0  0  0  0  0  0  0  0  0  0  0  0
   -2.7985   -1.9200   -0.2595 C   0  0  0  0  0  0  0  0  0  0  0  0
   -2.7105   -2.3617   -1.2745 H   0  0  0  0  0  0  0  0  0  0  0  0
   -3.2719   -2.6850    0.3934 H   0  0  0  0  0  0  0  0  0  0  0  0
   -3.6623   -0.6757   -0.3066 C   0  0  0  0  0  0  0  0  0  0  0  0
   -4.0199   -0.0973   -1.5401 C   0  0  0  0  0  0  0  0  0  0  0  0
   -3.7372   -0.5988   -2.4802 H   0  0  0  0  0  0  0  0  0  0  0  0
   -4.7525    1.1004   -1.5830 C   0  0  0  0  0  0  0  0  0  0  0  0
   -5.0352    1.5341   -2.5538 H   0  0  0  0  0  0  0  0  0  0  0  0
   -5.1291    1.7362   -0.3907 C   0  0  0  0  0  0  0  0  0  0  0  0
   -5.7050    2.6730   -0.4223 H   0  0  0  0  0  0  0  0  0  0  0  0
   -4.7775    1.1671    0.8449 C   0  0  0  0  0  0  0  0  0  0  0  0
   -5.0794    1.6557    1.7833 H   0  0  0  0  0  0  0  0  0  0  0  0
   -4.0489   -0.0303    0.8870 C   0  0  0  0  0  0  0  0  0  0  0  0
   -3.7847   -0.4697    1.8628 H   0  0  0  0  0  0  0  0  0  0  0  0
  1  2  1  0  0  0  0
  1  3  1  0  0  0  0
  4  5  1  0  0  0  0
  4  9  1  0  0  0  0
  6  4  1  0  0  0  0
  8  7  1  1  0  0  0
  8  9  1  0  0  0  0
  8  1  1  0  0  0  0
  9 10  1  1  0  0  0
 11  9  1  0  0  0  0
 11 13  1  0  0  0  0
 12 11  1  0  0  0  0
 14 11  1  0  0  0  0
 14 23  1  0  0  0  0
 15 14  2  0  0  0  0
 16 15  1  0  0  0  0
 17 15  1  0  0  0  0
 17 19  2  0  0  0  0
 18 17  1  0  0  0  0
 19 21  1  0  0  0  0
 20 19  1  0  0  0  0
 21 23  2  0  0  0  0
 21 22  1  0  0  0  0
 23 24  1  0  0  0  0
M  END
