1,4
q = -1.0, confidence = 0.01

 21 20  0  0  1  0  0  0  0  0999 V2000
   -2.6887   -0.7793   -0.1657 N   0  0  0  0  0  0  0  0  0  0  0  0
   -2.7565   -1.7138   -0.5999 H   0  0  0  0  0  0  0  0  0  0  0  0
   -3.1352   -0.8703    0.7586 H   0  0  0  0  0  0  0  0  0  0  0  0
   -1.2170    0.6076   -1.8918 O   0  5  0  0  0  0  0  0  0  0  0  0
   -2.9837    1.2540   -3.1350 O   0  0  0  0  0  0  0  0  0  0  0  0
   -2.5047    0.7346   -2.1383 C   0  0  0  0  0  0  0  0  0  0  0  0
   -3.4294    0.2033   -1.0055 C   0  0  1  0  0  0  0  0  0  0  0  0
   -3.6201    1.0801   -0.3500 H   0  0  0  0  0  0  0  0  0  0  0  0
   -4.7546   -0.3316   -1.5398 C   0  0  0  0  0  0  0  0  0  0  0  0
   -5.1614    0.4576   -2.2064 H   0  0  0  0  0  0  0  0  0  0  0  0
   -4.5444   -1.1973   -2.2080 H   0  0  0  0  0  0  0  0  0  0  0  0
   -5.7982   -0.7344   -0.4811 C   0  0  0  0  0  0  0  0  0  0  0  0
   -5.3754   -1.5709    0.1269 H   0  0  0  0  0  0  0  0  0  0  0  0
   -6.1374    0.4174    0.4744 C   0  0  0  0  0  0  0  0  0  0  0  0
   -6.5212    1.2948   -0.0876 H   0  0  0  0  0  0  0  0  0  0  0  0
   -5.2626    0.7604    1.0670 H   0  0  0  0  0  0  0  0  0  0  0  0
   -6.9205    0.1161    1.1984 H   0  0  0  0  0  0  0  0  0  0  0  0
   -7.0606   -1.2685   -1.1690 C   0  0  0  0  0  0  0  0  0  0  0  0
   -7.8090   -1.6159   -0.4293 H   0  0  0  0  0  0  0  0  0  0  0  0
   -6.8287   -2.1176   -1.8435 H   0  0  0  0  0  0  0  0  0  0  0  0
   -7.5358   -0.4754   -1.7833 H   0  0  0  0  0  0  0  0  0  0  0  0
  1  3  1  0  0  0  0
  2  1  1  0  0  0  0
  5  6  2  0  0  0  0
  6  4  1  0  0  0  0
  6  7  1  0  0  0  0
  7  8  1  1  0  0  0
  7  1  1  0  0  0  0
  9  7  1  0  0  0  0
  9 12  1  0  0  0  0
 10  9  1  0  0  0  0
 11  9  1  0  0  0  0
 12 13  1  0  0  0  0
 12 14  1  0  0  0  0
 14 16  1  0  0  0  0
 14 17  1  0  0  0  0
 15 14  1  0  0  0  0
 18 12  1  0  0  0  0
 18 19  1  0  0  0  0
 20 18  1  0  0  0  0
 21 18  1  0  0  0  0
M  CHG  1   4  -1
M  END
