1,4
q = 0.0, confidence = 1.0

 24 24  0  0  1  0  0  0  0  0999 V2000
   -0.1032    1.2328   -0.2134 O   0  5  0  0  0  0  0  0  0  0  0  0
   -5.3739   -1.8647    0.4767 O   0  0  0  0  0  0  0  0  0  0  0  0
   -3.5841    1.7683   -0.1124 N   0  0  0  0  0  0  0  0  0  0  0  0
    0.2097   -1.6089   -0.7253 N   0  0  0  0  0  0  0  0  0  0  0  0
   -2.2617    2.0025   -0.1900 C   0  0  2  0  0  3  0  0  0  0  0  0
   -1.3400    0.8930   -0.1461 C   0  0  0  0  0  0  0  0  0  0  0  0
   -1.9068   -0.4408   -0.0378 C   0  0  0  0  0  0  0  0  0  0  0  0
   -3.3109   -0.5819    0.0662 C   0  0  0  0  0  0  0  0  0  0  0  0
   -4.1465    0.5341    0.0188 C   0  0  0  0  0  0  0  0  0  0  0  0
   -1.7375    3.3899   -0.3047 C   0  0  0  0  0  0  0  0  0  0  0  0
   -1.0465   -1.6877    0.0410 C   0  0  0  0  0  0  0  0  0  0  0  0
   -3.9867   -1.9409    0.2283 C   0  0  0  0  0  0  0  0  0  0  0  0
   -5.4899   -1.6057    1.4097 H   0  0  0  0  0  0  0  0  0  0  0  0
   -4.2057    2.5832   -0.1485 H   0  0  0  0  0  0  0  0  0  0  0  0
    0.8059   -2.4498   -0.5852 H   0  0  0  0  0  0  0  0  0  0  0  0
    0.0245   -1.5306   -1.7374 H   0  0  0  0  0  0  0  0  0  0  0  0
   -5.2384    0.4609    0.0628 H   0  0  0  0  0  0  0  0  0  0  0  0
   -0.9898    3.5703    0.4951 H   0  0  0  0  0  0  0  0  0  0  0  0
   -2.5389    4.1527   -0.2569 H   0  0  0  0  0  0  0  0  0  0  0  0
   -1.1708    3.5040   -1.2522 H   0  0  0  0  0  0  0  0  0  0  0  0
   -1.6364   -2.5672   -0.2965 H   0  0  0  0  0  0  0  0  0  0  0  0
   -0.7580   -1.8755    1.0989 H   0  0  0  0  0  0  0  0  0  0  0  0
   -3.4576   -2.5288    1.0143 H   0  0  0  0  0  0  0  0  0  0  0  0
   -3.8682   -2.5162   -0.7168 H   0  0  0  0  0  0  0  0  0  0  0  0
  1  6  1  0  0  0  0
  2 13  1  0  0  0  0
  3  9  1  0  0  0  0
  4 15  1  0  0  0  0
  4 11  1  0  0  0  0
  5 10  1  1  0  0  0
  5  6  1  0  0  0  0
  5  3  1  0  0  0  0
  6  7  2  0  0  0  0
  7 11  1  0  0  0  0
  7  8  1  0  0  0  0
  8 12  1  0  0  0  0
  9 17  1  0  0  0  0
  9  8  2  0  0  0  0
 10 19  1  0  0  0  0
 10 18  1  0  0  0  0
 11 22  1  0  0  0  0
 12  2  1  0  0  0  0
 12 23  1  0  0  0  0
 14  3  1  0  0  0  0
 16  4  1  0  0  0  0
 20 10  1  0  0  0  0
 21 11  1  0  0  0  0
 24 12  1  0  0  0  0
M  CHG  1   1  -1
M  END
