1,3
q = -1.0

 32 33  0  0  1  0  0  0  0  0999 V2000
   -0.9385    1.7837   -0.2959 O   0  5  0  0  0  0  0  0  0  0  0  0
   -3.8863   -1.3260   -0.8211 O   0  0  0  0  0  0  0  0  0  0  0  0
   -1.7574   -0.9582   -0.2389 N   0  0  0  0  0  2  0  0  0  0  0  0
   -2.1816    1.9865   -0.6542 C   0  0  0  0  0  0  0  0  0  0  0  0
   -2.5994    3.3444   -0.8221 C   0  0  0  0  0  0  0  0  0  0  0  0
   -1.8505    4.1244   -0.6213 H   0  0  0  0  0  0  0  0  0  0  0  0
   -3.8847    3.6676   -1.2399 C   0  0  0  0  0  0  0  0  0  0  0  0
   -4.1579    4.7270   -1.3675 H   0  0  0  0  0  0  0  0  0  0  0  0
   -4.8386    2.6579   -1.5094 C   0  0  0  0  0  0  0  0  0  0  0  0
   -5.8520    2.9201   -1.8451 H   0  0  0  0  0  0  0  0  0  0  0  0
   -4.4748    1.3281   -1.3369 C   0  0  0  0  0  3  0  0  0  0  0  0
   -5.1968    0.5208   -1.5238 H   0  0  0  0  0  0  0  0  0  0  0  0
   -3.1701    0.9652   -0.9022 C   0  0  0  0  0  0  0  0  0  0  0  0
   -2.8859   -0.4281   -0.6537 C   0  0  0  0  0  0  0  0  0  0  0  0
   -3.2851   -2.6384   -0.6766 C   0  0  0  0  0  0  0  0  0  0  0  0
   -3.0950   -3.0419   -1.6941 H   0  0  0  0  0  0  0  0  0  0  0  0
   -4.0118   -3.2886   -0.1567 H   0  0  0  0  0  0  0  0  0  0  0  0
   -1.9846   -2.3751    0.1024 C   0  0  2  0  0  0  0  0  0  0  0  0
   -1.1349   -2.9700   -0.2857 H   0  0  0  0  0  0  0  0  0  0  0  0
   -2.0894   -2.6271    1.6460 C   0  0  0  0  0  0  0  0  0  0  0  0
   -3.2622   -1.8422    2.2606 C   0  0  0  0  0  0  0  0  0  0  0  0
   -3.3165   -2.0338    3.3514 H   0  0  0  0  0  0  0  0  0  0  0  0
   -4.2416   -2.1253    1.8251 H   0  0  0  0  0  0  0  0  0  0  0  0
   -3.1287   -0.7502    2.1222 H   0  0  0  0  0  0  0  0  0  0  0  0
   -2.2932   -4.1394    1.8577 C   0  0  0  0  0  0  0  0  0  0  0  0
   -2.3327   -4.3724    2.9408 H   0  0  0  0  0  0  0  0  0  0  0  0
   -1.4560   -4.7210    1.4189 H   0  0  0  0  0  0  0  0  0  0  0  0
   -3.2385   -4.5087    1.4094 H   0  0  0  0  0  0  0  0  0  0  0  0
   -0.7840   -2.2079    2.3443 C   0  0  0  0  0  0  0  0  0  0  0  0
   -0.8401   -2.4503    3.4253 H   0  0  0  0  0  0  0  0  0  0  0  0
   -0.6059   -1.1182    2.2458 H   0  0  0  0  0  0  0  0  0  0  0  0
    0.0932   -2.7231    1.9079 H   0  0  0  0  0  0  0  0  0  0  0  0
  2 15  1  0  0  0  0
  2 14  1  0  0  0  0
  3 18  1  0  0  0  0
  4  1  1  0  0  0  0
  5  4  2  0  0  0  0
  5  6  1  0  0  0  0
  7  5  1  0  0  0  0
  8  7  1  0  0  0  0
  9 11  1  0  0  0  0
  9  7  2  0  0  0  0
 10  9  1  0  0  0  0
 11 13  1  0  0  0  0
 12 11  1  0  0  0  0
 13  4  1  0  0  0  0
 13 14  2  0  0  0  0
 14  3  1  0  0  0  0
 15 17  1  0  0  0  0
 15 18  1  0  0  0  0
 16 15  1  0  0  0  0
 18 19  1  6  0  0  0
 18 20  1  0  0  0  0
 20 25  1  0  0  0  0
 20 21  1  0  0  0  0
 20 29  1  0  0  0  0
 21 22  1  0  0  0  0
 23 21  1  0  0  0  0
 24 21  1  0  0  0  0
 25 26  1  0  0  0  0
 27 25  1  0  0  0  0
 28 25  1  0  0  0  0
 29 30  1  0  0  0  0
 31 29  1  0  0  0  0
 32 29  1  0  0  0  0
M  CHG  1   1  -1
M  END
