1,4
q = -1.0

 37 38  0  0  1  0  0  0  0  0999 V2000
    2.4855    0.1348   -1.3731 O   0  5  0  0  0  0  0  0  0  0  0  0
   -1.9178   -2.7012    1.2559 O   0  0  0  0  0  0  0  0  0  0  0  0
   -2.0330   -0.7034    2.3167 O   0  0  0  0  0  0  0  0  0  0  0  0
   -0.0116   -0.7188   -0.2570 N   0  0  0  0  0  2  0  0  0  0  0  0
    2.7442   -1.1367   -1.4090 C   0  0  0  0  0  0  0  0  0  0  0  0
    4.0158   -1.5545   -1.9209 C   0  0  0  0  0  0  0  0  0  0  0  0
    4.3659   -2.8967   -1.9880 C   0  0  0  0  0  0  0  0  0  0  0  0
    3.4744   -3.9122   -1.5569 C   0  0  0  0  0  0  0  0  0  0  0  0
    2.2290   -3.5420   -1.0697 C   0  0  0  0  0  0  0  0  0  0  0  0
    1.8355   -2.1749   -0.9754 C   0  0  0  0  0  0  0  0  0  0  0  0
    0.5083   -1.8940   -0.5184 C   0  0  0  0  0  3  0  0  0  0  0  0
   -1.4679   -0.6574   -0.0050 C   0  0  1  0  0  0  0  0  0  0  0  0
   -2.2901   -1.1125   -1.2313 C   0  0  0  0  0  0  0  0  0  0  0  0
   -3.7259   -0.6665   -1.1051 C   0  0  0  0  0  0  0  0  0  0  0  0
   -4.7145   -1.5088   -0.5584 C   0  0  0  0  0  0  0  0  0  0  0  0
   -6.0326   -1.0529   -0.3975 C   0  0  0  0  0  0  0  0  0  0  0  0
   -6.3774    0.2537   -0.7773 C   0  0  0  0  0  0  0  0  0  0  0  0
   -5.3975    1.1025   -1.3191 C   0  0  0  0  0  0  0  0  0  0  0  0
   -4.0812    0.6470   -1.4799 C   0  0  0  0  0  0  0  0  0  0  0  0
   -1.8339   -1.4866    1.2281 C   0  0  0  0  0  0  0  0  0  0  0  0
   -2.3637   -1.4022    3.5276 C   0  0  0  0  0  0  0  0  0  0  0  0
    4.7012   -0.7640   -2.2594 H   0  0  0  0  0  0  0  0  0  0  0  0
    5.3547   -3.1747   -2.3862 H   0  0  0  0  0  0  0  0  0  0  0  0
    3.7616   -4.9714   -1.6185 H   0  0  0  0  0  0  0  0  0  0  0  0
    1.5092   -4.3107   -0.7445 H   0  0  0  0  0  0  0  0  0  0  0  0
   -0.1473   -2.7741   -0.3684 H   0  0  0  0  0  0  0  0  0  0  0  0
   -1.7118    0.3981    0.1954 H   0  0  0  0  0  0  0  0  0  0  0  0
   -2.2214   -2.2149   -1.3237 H   0  0  0  0  0  0  0  0  0  0  0  0
   -1.8080   -0.6434   -2.1109 H   0  0  0  0  0  0  0  0  0  0  0  0
   -4.4418   -2.5331   -0.2584 H   0  0  0  0  0  0  0  0  0  0  0  0
   -6.7966   -1.7244    0.0240 H   0  0  0  0  0  0  0  0  0  0  0  0
   -7.4117    0.6101   -0.6551 H   0  0  0  0  0  0  0  0  0  0  0  0
   -5.6634    2.1264   -1.6244 H   0  0  0  0  0  0  0  0  0  0  0  0
   -3.3049    1.3050   -1.9045 H   0  0  0  0  0  0  0  0  0  0  0  0
   -3.2991   -1.9812    3.3971 H   0  0  0  0  0  0  0  0  0  0  0  0
   -1.5518   -2.1030    3.8074 H   0  0  0  0  0  0  0  0  0  0  0  0
   -2.4921   -0.6262    4.3024 H   0  0  0  0  0  0  0  0  0  0  0  0
  3 21  1  0  0  0  0
  4 12  1  0  0  0  0
  5  1  1  0  0  0  0
  5 10  1  0  0  0  0
  6  5  2  0  0  0  0
  7  6  1  0  0  0  0
  7  8  2  0  0  0  0
  8  9  1  0  0  0  0
  9 10  2  0  0  0  0
  9 25  1  0  0  0  0
 10 11  1  0  0  0  0
 11 26  1  0  0  0  0
 11  4  1  0  0  0  0
 12 27  1  1  0  0  0
 12 20  1  0  0  0  0
 13 14  1  0  0  0  0
 13 12  1  0  0  0  0
 14 15  1  0  0  0  0
 15 16  2  0  0  0  0
 15 30  1  0  0  0  0
 16 31  1  0  0  0  0
 17 32  1  0  0  0  0
 17 16  1  0  0  0  0
 18 17  2  0  0  0  0
 19 18  1  0  0  0  0
 19 14  2  0  0  0  0
 20  2  2  0  0  0  0
 20  3  1  0  0  0  0
 21 36  1  0  0  0  0
 21 37  1  0  0  0  0
 22  6  1  0  0  0  0
 23  7  1  0  0  0  0
 24  8  1  0  0  0  0
 28 13  1  0  0  0  0
 29 13  1  0  0  0  0
 33 18  1  0  0  0  0
 34 19  1  0  0  0  0
 35 21  1  0  0  0  0
M  CHG  1   1  -1
M  END
