1,6
q = -1.0

 38 39  0  0  1  0  0  0  0  0999 V2000
   -0.3683   -1.4319    0.3959 O   0  5  0  0  0  0  0  0  0  0  0  0
    4.0473   -1.7221    0.3047 O   0  0  0  0  0  0  0  0  0  0  0  0
    1.9705    1.8831   -0.1078 N   0  0  0  0  0  0  0  0  0  0  0  0
    1.7257   -0.4535    0.2254 N   0  0  0  0  0  0  0  0  0  0  0  0
    2.2477   -1.3494    0.3205 H   0  0  0  0  0  0  0  0  0  0  0  0
   -1.6309    0.9733    0.0815 N   0  0  0  0  0  2  0  0  0  0  0  0
    0.0391    3.2116   -0.2152 N   0  0  0  0  0  0  0  0  0  0  0  0
    0.6511    4.0191   -0.3427 H   0  0  0  0  0  0  0  0  0  0  0  0
    3.8521    0.5390    0.0033 N   0  0  0  0  0  0  0  0  0  0  0  0
    4.3349    1.4282   -0.1461 H   0  0  0  0  0  0  0  0  0  0  0  0
    2.4705    0.6704    0.0401 C   0  0  2  0  0  3  0  0  0  0  0  0
    0.3313   -0.4106    0.2455 C   0  0  0  0  0  0  0  0  0  0  0  0
   -2.1635    2.2779    0.1094 C   0  0  0  0  0  0  0  0  0  0  0  0
   -1.3451    3.3816   -0.0658 C   0  0  0  0  0  0  0  0  0  0  0  0
   -0.2449    0.8905    0.0795 C   0  0  0  0  0  0  0  0  0  0  0  0
    0.6155    1.9836   -0.0799 C   0  0  0  0  0  0  0  0  0  0  0  0
   -3.6318    2.4153    0.3750 C   0  0  0  0  0  0  0  0  0  0  0  0
   -3.9177    1.7431    1.2082 H   0  0  0  0  0  0  0  0  0  0  0  0
   -4.2369    2.1035   -0.4991 H   0  0  0  0  0  0  0  0  0  0  0  0
   -3.9052    3.4477    0.6497 H   0  0  0  0  0  0  0  0  0  0  0  0
   -1.7794    4.8153   -0.0940 C   0  0  0  0  0  0  0  0  0  0  0  0
   -1.3787    5.3195   -0.9999 H   0  0  0  0  0  0  0  0  0  0  0  0
   -1.3956    5.3724    0.7892 H   0  0  0  0  0  0  0  0  0  0  0  0
   -2.8755    4.9225   -0.1169 H   0  0  0  0  0  0  0  0  0  0  0  0
    4.5943   -0.6332    0.1308 C   0  0  0  0  0  0  0  0  0  0  0  0
    6.1203   -0.4520    0.0459 C   0  0  0  0  0  0  0  0  0  0  0  0
    6.7718   -1.8380    0.1557 C   0  0  0  0  0  0  0  0  0  0  0  0
    7.8739   -1.7381    0.1063 H   0  0  0  0  0  0  0  0  0  0  0  0
    6.4404   -2.5024   -0.6651 H   0  0  0  0  0  0  0  0  0  0  0  0
    6.5035   -2.3315    1.1090 H   0  0  0  0  0  0  0  0  0  0  0  0
    6.4898    0.1992   -1.3054 C   0  0  0  0  0  0  0  0  0  0  0  0
    7.5922    0.2789   -1.3889 H   0  0  0  0  0  0  0  0  0  0  0  0
    6.0812    1.2252   -1.4149 H   0  0  0  0  0  0  0  0  0  0  0  0
    6.1263   -0.4073   -2.1587 H   0  0  0  0  0  0  0  0  0  0  0  0
    6.5861    0.4442    1.2158 C   0  0  0  0  0  0  0  0  0  0  0  0
    7.6900    0.5421    1.1914 H   0  0  0  0  0  0  0  0  0  0  0  0
    6.3040    0.0070    2.1942 H   0  0  0  0  0  0  0  0  0  0  0  0
    6.1642    1.4690    1.1636 H   0  0  0  0  0  0  0  0  0  0  0  0
  3 16  2  0  0  0  0
  3 11  1  0  0  0  0
  4 12  1  0  0  0  0
  4  5  1  0  0  0  0
  6 13  1  0  0  0  0
  7 16  1  0  0  0  0
  7 14  1  0  0  0  0
  8  7  1  0  0  0  0
  9 25  1  0  0  0  0
 10  9  1  0  0  0  0
 11  9  1  1  0  0  0
 11  4  1  0  0  0  0
 12  1  1  0  0  0  0
 13 17  1  0  0  0  0
 14 13  2  0  0  0  0
 15  6  1  0  0  0  0
 15 12  2  0  0  0  0
 16 15  1  0  0  0  0
 17 20  1  0  0  0  0
 17 18  1  0  0  0  0
 19 17  1  0  0  0  0
 21 14  1  0  0  0  0
 21 23  1  0  0  0  0
 22 21  1  0  0  0  0
 24 21  1  0  0  0  0
 25  2  2  0  0  0  0
 26 25  1  0  0  0  0
 26 27  1  0  0  0  0
 26 35  1  0  0  0  0
 27 30  1  0  0  0  0
 28 27  1  0  0  0  0
 29 27  1  0  0  0  0
 31 26  1  0  0  0  0
 32 31  1  0  0  0  0
 33 31  1  0  0  0  0
 34 31  1  0  0  0  0
 35 37  1  0  0  0  0
 36 35  1  0  0  0  0
 38 35  1  0  0  0  0
M  CHG  1   1  -1
M  END
