1,2
q = -1.0

 20 20  0  0  0  0  0  0  0  0999 V2000
    1.2425   -0.5079    1.0679 O   0  0  0  0  0  1  0  0  0  0  0  0
    2.6428   -0.7754   -1.3655 N   0  0  0  0  0  0  0  0  0  0  0  0
    2.5504   -1.8070   -1.3362 H   0  0  0  0  0  0  0  0  0  0  0  0
    2.6691   -0.4918   -2.3533 H   0  0  0  0  0  0  0  0  0  0  0  0
    3.7876   -0.2861   -0.6482 C   0  0  0  0  0  0  0  0  0  0  0  0
    4.1068   -0.8071    0.6291 C   0  0  0  0  0  0  0  0  0  0  0  0
    5.2206   -0.2656    1.2983 C   0  0  0  0  0  0  0  0  0  0  0  0
    5.4827   -0.6682    2.2897 H   0  0  0  0  0  0  0  0  0  0  0  0
    5.9910    0.7641    0.7402 C   0  0  0  0  0  0  0  0  0  0  0  0
    6.8553    1.1657    1.2896 H   0  0  0  0  0  0  0  0  0  0  0  0
    5.6476    1.2796   -0.5175 C   0  0  0  0  0  0  0  0  0  0  0  0
    6.2331    2.0955   -0.9664 H   0  0  0  0  0  0  0  0  0  0  0  0
    4.5478    0.7548   -1.2070 C   0  0  0  0  0  0  0  0  0  0  0  0
    4.2619    1.1627   -2.1883 H   0  0  0  0  0  0  0  0  0  0  0  0
    3.2480   -1.8557    1.2967 C   0  0  0  0  0  0  0  0  0  0  0  0
    2.9042   -2.6299    0.5772 H   0  0  0  0  0  0  0  0  0  0  0  0
    3.8344   -2.3838    2.0761 H   0  0  0  0  0  0  0  0  0  0  0  0
    1.9976   -1.2584    1.9700 C   0  0  0  0  0  0  0  0  0  0  0  0
    1.3566   -2.0774    2.3717 H   0  0  0  0  0  0  0  0  0  0  0  0
    2.2910   -0.5926    2.8126 H   0  0  0  0  0  0  0  0  0  0  0  0
  1 18  1  0  0  0  0
  2  3  1  0  0  0  0
  2  5  1  0  0  0  0
  4  2  1  0  0  0  0
  5  6  1  0  0  0  0
  6 15  1  0  0  0  0
  6  7  2  0  0  0  0
  7  8  1  0  0  0  0
  9 10  1  0  0  0  0
  9  7  1  0  0  0  0
 11  9  2  0  0  0  0
 12 11  1  0  0  0  0
 13  5  2  0  0  0  0
 13 11  1  0  0  0  0
 14 13  1  0  0  0  0
 15 18  1  0  0  0  0
 15 17  1  0  0  0  0
 16 15  1  0  0  0  0
 18 19  1  0  0  0  0
 18 20  1  0  0  0  0
M  END
