4,5
q = -1.0

 32 33  0  0  1  0  0  0  0  0999 V2000
   -2.4850   -3.5783   -1.8612 F   0  0  0  0  0  0  0  0  0  0  0  0
   -0.4179   -4.0244   -1.3824 F   0  0  0  0  0  0  0  0  0  0  0  0
   -0.8951   -2.4327   -2.8084 F   0  0  0  0  0  0  0  0  0  0  0  0
   -1.8835    0.0212    1.4036 O   0  5  0  0  0  0  0  0  0  0  0  0
   -0.1872   -1.4530   -0.0564 N   0  0  0  0  0  2  0  0  0  0  0  0
    1.8708   -2.7685    0.1573 C   0  0  0  0  0  0  0  0  0  0  0  0
    1.4554   -3.2027    1.0770 H   0  0  0  0  0  0  0  0  0  0  0  0
    3.1632   -3.0823   -0.2779 C   0  0  0  0  0  0  0  0  0  0  0  0
    3.7696   -3.7950    0.3010 H   0  0  0  0  0  0  0  0  0  0  0  0
    3.6920   -2.4803   -1.4317 C   0  0  0  0  0  0  0  0  0  0  0  0
    4.7152   -2.7146   -1.7606 H   0  0  0  0  0  0  0  0  0  0  0  0
    2.9138   -1.5632   -2.1523 C   0  0  0  0  0  0  0  0  0  0  0  0
    3.3236   -1.0737   -3.0480 H   0  0  0  0  0  0  0  0  0  0  0  0
    1.6157   -1.2436   -1.7272 C   0  0  0  0  0  0  0  0  0  0  0  0
    1.0215   -0.5013   -2.2763 H   0  0  0  0  0  0  0  0  0  0  0  0
    1.0886   -1.8490   -0.5712 C   0  0  0  0  0  0  0  0  0  0  0  0
   -1.3165   -1.9686   -0.5117 C   0  0  1  0  0  3  0  0  0  0  0  0
   -2.6273   -1.5944   -0.1023 C   0  0  0  0  0  0  0  0  0  0  0  0
   -3.4675   -2.1123   -0.5671 H   0  0  0  0  0  0  0  0  0  0  0  0
   -2.8766   -0.5590    0.7949 C   0  0  0  0  0  0  0  0  0  0  0  0
   -4.2139   -0.0258    1.1730 C   0  0  0  0  0  0  0  0  0  0  0  0
   -4.2514    0.6965    2.3958 C   0  0  0  0  0  0  0  0  0  0  0  0
   -3.3072    0.7923    2.9503 H   0  0  0  0  0  0  0  0  0  0  0  0
   -5.4216    1.2784    2.8836 C   0  0  0  0  0  0  0  0  0  0  0  0
   -5.4049    1.8227    3.8390 H   0  0  0  0  0  0  0  0  0  0  0  0
   -6.6102    1.1654    2.1464 C   0  0  0  0  0  0  0  0  0  0  0  0
   -7.5444    1.6183    2.5110 H   0  0  0  0  0  0  0  0  0  0  0  0
   -6.6080    0.4768    0.9271 C   0  0  0  0  0  0  0  0  0  0  0  0
   -7.5270    0.3983    0.3299 H   0  0  0  0  0  0  0  0  0  0  0  0
   -5.4284   -0.1130    0.4416 C   0  0  0  0  0  0  0  0  0  0  0  0
   -1.2738   -3.0203   -1.6452 C   0  0  0  0  0  0  0  0  0  0  0  0
   -5.5987   -0.9337   -1.2754 Br  0  0  0  0  0  0  0  0  0  0  0  0
  1 31  1  0  0  0  0
  3 31  1  0  0  0  0
  6  7  1  0  0  0  0
  8  6  1  0  0  0  0
  8  9  1  0  0  0  0
 10  8  2  0  0  0  0
 11 10  1  0  0  0  0
 12 14  2  0  0  0  0
 12 10  1  0  0  0  0
 13 12  1  0  0  0  0
 14 16  1  0  0  0  0
 15 14  1  0  0  0  0
 16  5  1  0  0  0  0
 16  6  2  0  0  0  0
 17 18  1  6  0  0  0
 17  5  1  0  0  0  0
 18 20  2  0  0  0  0
 19 18  1  0  0  0  0
 20 21  1  0  0  0  0
 20  4  1  0  0  0  0
 21 22  1  0  0  0  0
 22 24  2  0  0  0  0
 22 23  1  0  0  0  0
 24 25  1  0  0  0  0
 26 27  1  0  0  0  0
 26 24  1  0  0  0  0
 28 26  2  0  0  0  0
 29 28  1  0  0  0  0
 30 28  1  0  0  0  0
 30 21  2  0  0  0  0
 31  2  1  0  0  0  0
 31 17  1  0  0  0  0
 32 30  1  0  0  0  0
M  CHG  1   4  -1
M  END
