1,3
q = 0.0, confidence = 0.994

 54 56  0  0  1  0  0  0  0  0999 V2000
    0.1797    0.3830    0.7927 O   0  5  0  0  0  0  0  0  0  0  0  0
    2.5208    0.4694    1.7038 N   0  0  0  0  0  4  0  0  0  0  0  0
   -2.1633    0.3314   -0.7860 N   0  0  0  0  0  2  0  0  0  0  0  0
    0.2386    1.6349    0.4932 C   0  0  0  0  0  0  0  0  0  0  0  0
   -0.8171    2.3112   -0.2291 C   0  0  0  0  0  0  0  0  0  0  0  0
   -0.7214    3.6962   -0.4320 C   0  0  0  0  0  0  0  0  0  0  0  0
   -1.5522    4.1972   -0.9580 H   0  0  0  0  0  0  0  0  0  0  0  0
    0.3839    4.4797   -0.0157 C   0  0  0  0  0  0  0  0  0  0  0  0
    1.4333    3.8194    0.6249 C   0  0  0  0  0  0  0  0  0  0  0  0
    2.3264    4.3876    0.9338 H   0  0  0  0  0  0  0  0  0  0  0  0
    1.3947    2.4242    0.8846 C   0  0  0  0  0  0  0  0  0  0  0  0
    0.4127    5.9632   -0.2828 C   0  0  0  0  0  0  0  0  0  0  0  0
    1.3524    6.4230    0.0787 H   0  0  0  0  0  0  0  0  0  0  0  0
   -0.4311    6.4813    0.2191 H   0  0  0  0  0  0  0  0  0  0  0  0
    0.3255    6.1808   -1.3676 H   0  0  0  0  0  0  0  0  0  0  0  0
   -1.9922    1.6130   -0.7373 C   0  0  0  0  0  3  0  0  0  0  0  0
   -2.7995    2.2751   -1.1265 H   0  0  0  0  0  0  0  0  0  0  0  0
    2.5330    1.7556    1.4319 C   0  0  0  0  0  0  0  0  0  0  0  0
    3.4738    2.3144    1.5938 H   0  0  0  0  0  0  0  0  0  0  0  0
   -3.4293   -0.2019   -1.3162 C   0  0  1  0  0  0  0  0  0  0  0  0
   -3.9212    0.5875   -1.9304 H   0  0  0  0  0  0  0  0  0  0  0  0
   -3.1231   -1.4155   -2.2021 C   0  0  0  0  0  0  0  0  0  0  0  0
   -2.4047   -1.1428   -3.0010 H   0  0  0  0  0  0  0  0  0  0  0  0
   -4.0544   -1.8019   -2.6591 H   0  0  0  0  0  0  0  0  0  0  0  0
   -2.6758   -2.2332   -1.5976 H   0  0  0  0  0  0  0  0  0  0  0  0
   -4.3664   -0.5348   -0.1601 C   0  0  0  0  0  0  0  0  0  0  0  0
   -5.6676    0.0008   -0.1373 C   0  0  0  0  0  0  0  0  0  0  0  0
   -5.9946    0.6668   -0.9524 H   0  0  0  0  0  0  0  0  0  0  0  0
   -6.5512   -0.3091    0.9087 C   0  0  0  0  0  0  0  0  0  0  0  0
   -7.5678    0.1135    0.9102 H   0  0  0  0  0  0  0  0  0  0  0  0
   -6.1355   -1.1533    1.9492 C   0  0  0  0  0  0  0  0  0  0  0  0
   -6.8246   -1.3965    2.7724 H   0  0  0  0  0  0  0  0  0  0  0  0
   -4.8354   -1.6852    1.9347 C   0  0  0  0  0  0  0  0  0  0  0  0
   -4.5003   -2.3479    2.7473 H   0  0  0  0  0  0  0  0  0  0  0  0
   -3.9525   -1.3828    0.8883 C   0  0  0  0  0  0  0  0  0  0  0  0
   -2.9363   -1.8122    0.8931 H   0  0  0  0  0  0  0  0  0  0  0  0
    3.6697   -0.3888    1.9864 C   0  0  1  0  0  0  0  0  0  0  0  0
    4.4003    0.2051    2.5788 H   0  0  0  0  0  0  0  0  0  0  0  0
    3.1803   -1.5905    2.8062 C   0  0  0  0  0  0  0  0  0  0  0  0
    2.7459   -1.2657    3.7727 H   0  0  0  0  0  0  0  0  0  0  0  0
    4.0218   -2.2798    3.0061 H   0  0  0  0  0  0  0  0  0  0  0  0
    2.4069   -2.1487    2.2382 H   0  0  0  0  0  0  0  0  0  0  0  0
    4.3427   -0.8276    0.6857 C   0  0  0  0  0  0  0  0  0  0  0  0
    3.5993   -1.0004   -0.4962 C   0  0  0  0  0  0  0  0  0  0  0  0
    2.5241   -0.7707   -0.5486 H   0  0  0  0  0  0  0  0  0  0  0  0
    4.2245   -1.4586   -1.6648 C   0  0  0  0  0  0  0  0  0  0  0  0
    3.6107   -1.5751   -2.5708 H   0  0  0  0  0  0  0  0  0  0  0  0
    5.5963   -1.7528   -1.6628 C   0  0  0  0  0  0  0  0  0  0  0  0
    6.0876   -2.1122   -2.5798 H   0  0  0  0  0  0  0  0  0  0  0  0
    6.3439   -1.5809   -0.4858 C   0  0  0  0  0  0  0  0  0  0  0  0
    7.4222   -1.8021   -0.4779 H   0  0  0  0  0  0  0  0  0  0  0  0
    5.7204   -1.1185    0.6828 C   0  0  0  0  0  0  0  0  0  0  0  0
    6.3119   -0.9811    1.6030 H   0  0  0  0  0  0  0  0  0  0  0  0
    1.5718    0.0437    1.4704 H   0  0  0  0  0  0  0  0  0  0  0  0
  2 37  1  0  0  0  0
  3 16  1  0  0  0  0
  4  1  1  0  0  0  0
  4 11  1  0  0  0  0
  5  4  2  0  0  0  0
  6  5  1  0  0  0  0
  6  8  2  0  0  0  0
  7  6  1  0  0  0  0
  8  9  1  0  0  0  0
  9 11  2  0  0  0  0
  9 10  1  0  0  0  0
 11 18  1  0  0  0  0
 12  8  1  0  0  0  0
 12 13  1  0  0  0  0
 12 14  1  0  0  0  0
 15 12  1  0  0  0  0
 16  5  1  0  0  0  0
 17 16  1  0  0  0  0
 18 19  1  0  0  0  0
 18  2  2  0  0  0  0
 20 21  1  6  0  0  0
 20  3  1  0  0  0  0
 20 26  1  0  0  0  0
 22 25  1  0  0  0  0
 22 20  1  0  0  0  0
 23 22  1  0  0  0  0
 24 22  1  0  0  0  0
 26 27  2  0  0  0  0
 26 35  1  0  0  0  0
 27 29  1  0  0  0  0
 28 27  1  0  0  0  0
 29 30  1  0  0  0  0
 29 31  2  0  0  0  0
 31 32  1  0  0  0  0
 33 31  1  0  0  0  0
 33 34  1  0  0  0  0
 35 36  1  0  0  0  0
 35 33  2  0  0  0  0
 37 38  1  1  0  0  0
 37 39  1  0  0  0  0
 39 41  1  0  0  0  0
 39 40  1  0  0  0  0
 42 39  1  0  0  0  0
 43 37  1  0  0  0  0
 44 43  2  0  0  0  0
 45 44  1  0  0  0  0
 46 48  2  0  0  0  0
 46 44  1  0  0  0  0
 47 46  1  0  0  0  0
 48 50  1  0  0  0  0
 49 48  1  0  0  0  0
 50 51  1  0  0  0  0
 50 52  2  0  0  0  0
 52 43  1  0  0  0  0
 52 53  1  0  0  0  0
 54  2  1  0  0  0  0
M  CHG  1   1  -1
M  END
