4,6
q = -1.0

 57 62  0  0  0  0  0  0  0  0999 V2000
    0.2763   -4.0947    0.4232 Cl  0  0  0  0  0  0  0  0  0  0  0  0
    0.7163    5.1445   -0.7694 Cl  0  0  0  0  0  0  0  0  0  0  0  0
    4.8974    2.0168   -0.1573 O   0  0  0  0  0  0  0  0  0  0  0  0
    1.5376   -0.6772   -0.1931 O   0  5  0  0  0  0  0  0  0  0  0  0
    3.8796    1.1005   -0.1508 C   0  0  0  0  0  0  0  0  0  0  0  0
    4.3381   -0.1450    0.0184 N   0  0  0  0  0  2  0  0  0  0  0  0
    5.7241   -0.0594    0.1314 C   0  0  0  0  0  0  0  0  0  0  0  0
    6.0639    1.3030    0.0192 C   0  0  0  0  0  0  0  0  0  0  0  0
    7.3738    1.7718    0.0854 C   0  0  0  0  0  0  0  0  0  0  0  0
    7.6155    2.8393   -0.0047 H   0  0  0  0  0  0  0  0  0  0  0  0
    8.3614    0.7875    0.2751 C   0  0  0  0  0  0  0  0  0  0  0  0
    9.4154    1.0961    0.3356 H   0  0  0  0  0  0  0  0  0  0  0  0
    8.0367   -0.5837    0.3901 C   0  0  0  0  0  0  0  0  0  0  0  0
    8.8464   -1.3133    0.5380 H   0  0  0  0  0  0  0  0  0  0  0  0
    6.7106   -1.0383    0.3209 C   0  0  0  0  0  0  0  0  0  0  0  0
    6.4362   -2.0998    0.4087 H   0  0  0  0  0  0  0  0  0  0  0  0
    2.5243    1.5514   -0.3107 C   0  0  0  0  0  0  0  0  0  0  0  0
    1.4196    0.6172   -0.3191 C   0  0  0  0  0  0  0  0  0  0  0  0
    0.0793    1.1581   -0.4767 C   0  0  0  0  0  0  0  0  0  0  0  0
   -0.0975    2.5445   -0.6071 C   0  0  0  0  0  0  0  0  0  0  0  0
   -1.1093    2.9631   -0.7089 H   0  0  0  0  0  0  0  0  0  0  0  0
    0.9984    3.4267   -0.6000 C   0  0  0  0  0  0  0  0  0  0  0  0
    2.2955    2.9495   -0.4557 C   0  0  0  0  0  3  0  0  0  0  0  0
    3.1449    3.6439   -0.4477 H   0  0  0  0  0  0  0  0  0  0  0  0
   -1.0119    0.2006   -0.4725 C   0  0  0  0  0  0  0  0  0  0  0  0
   -0.6945   -0.8400   -0.3325 H   0  0  0  0  0  0  0  0  0  0  0  0
   -2.3455    0.4718   -0.6095 C   0  0  0  0  0  0  0  0  0  0  0  0
   -2.6701    1.5148   -0.7501 H   0  0  0  0  0  0  0  0  0  0  0  0
   -3.3940   -0.5122   -0.5438 C   0  0  0  0  0  0  0  0  0  0  0  0
   -4.7341   -0.1583   -0.7349 N   0  0  0  0  0  0  0  0  0  0  0  0
   -5.5432   -1.2729   -0.5713 C   0  0  0  0  0  0  0  0  0  0  0  0
   -4.6989   -2.3921   -0.2859 C   0  0  0  0  0  0  0  0  0  0  0  0
   -3.3403   -1.9059   -0.2721 C   0  0  0  0  0  0  0  0  0  0  0  0
   -6.9418   -1.4041   -0.6413 C   0  0  0  0  0  0  0  0  0  0  0  0
   -7.5943   -0.5429   -0.8469 H   0  0  0  0  0  0  0  0  0  0  0  0
   -7.4856   -2.6769   -0.4298 C   0  0  0  0  0  0  0  0  0  0  0  0
   -8.5771   -2.8080   -0.4776 H   0  0  0  0  0  0  0  0  0  0  0  0
   -6.6611   -3.7956   -0.1525 C   0  0  0  0  0  0  0  0  0  0  0  0
   -7.1258   -4.7798    0.0082 H   0  0  0  0  0  0  0  0  0  0  0  0
   -5.2720   -3.6641   -0.0778 C   0  0  0  0  0  0  0  0  0  0  0  0
   -4.6257   -4.5274    0.1401 H   0  0  0  0  0  0  0  0  0  0  0  0
   -5.2035    1.1807   -1.0373 C   0  0  0  0  0  0  0  0  0  0  0  0
   -6.2657    1.0918   -1.3435 H   0  0  0  0  0  0  0  0  0  0  0  0
   -4.6643    1.5719   -1.9261 H   0  0  0  0  0  0  0  0  0  0  0  0
   -5.0750    2.1607    0.1170 C   0  0  0  0  0  0  0  0  0  0  0  0
   -4.7874    3.5152   -0.1358 C   0  0  0  0  0  0  0  0  0  0  0  0
   -4.6376    3.8552   -1.1736 H   0  0  0  0  0  0  0  0  0  0  0  0
   -4.6809    4.4318    0.9215 C   0  0  0  0  0  0  0  0  0  0  0  0
   -4.4489    5.4867    0.7099 H   0  0  0  0  0  0  0  0  0  0  0  0
   -4.8571    4.0000    2.2452 C   0  0  0  0  0  0  0  0  0  0  0  0
   -4.7663    4.7153    3.0765 H   0  0  0  0  0  0  0  0  0  0  0  0
   -5.1400    2.6492    2.5041 C   0  0  0  0  0  0  0  0  0  0  0  0
   -5.2728    2.3025    3.5402 H   0  0  0  0  0  0  0  0  0  0  0  0
   -5.2479    1.7341    1.4469 C   0  0  0  0  0  0  0  0  0  0  0  0
   -5.4560    0.6727    1.6532 H   0  0  0  0  0  0  0  0  0  0  0  0
   -1.1565   -3.3242    0.1784 C   0  0  0  0  0  0  0  0  0  0  0  0
   -2.1812   -2.6730   -0.0278 C   0  0  0  0  0  0  0  0  0  0  0  0
  2 22  1  0  0  0  0
  3  5  1  0  0  0  0
  3  8  1  0  0  0  0
  5  6  1  0  0  0  0
  6  7  1  0  0  0  0
  7 15  1  0  0  0  0
  8  9  1  0  0  0  0
  8  7  2  0  0  0  0
  9 11  2  0  0  0  0
 10  9  1  0  0  0  0
 11 12  1  0  0  0  0
 11 13  1  0  0  0  0
 13 14  1  0  0  0  0
 15 13  2  0  0  0  0
 15 16  1  0  0  0  0
 17  5  2  0  0  0  0
 18 17  1  0  0  0  0
 18  4  1  0  0  0  0
 19 25  1  0  0  0  0
 19 18  2  0  0  0  0
 20 22  2  0  0  0  0
 20 19  1  0  0  0  0
 21 20  1  0  0  0  0
 22 23  1  0  0  0  0
 23 24  1  0  0  0  0
 23 17  1  0  0  0  0
 25 26  1  0  0  0  0
 27 29  1  0  0  0  0
 27 25  2  0  0  0  0
 28 27  1  0  0  0  0
 29 33  2  0  0  0  0
 30 31  1  0  0  0  0
 30 29  1  0  0  0  0
 31 32  1  0  0  0  0
 32 33  1  0  0  0  0
 32 40  2  0  0  0  0
 33 57  1  0  0  0  0
 34 31  2  0  0  0  0
 34 36  1  0  0  0  0
 35 34  1  0  0  0  0
 36 38  2  0  0  0  0
 37 36  1  0  0  0  0
 38 40  1  0  0  0  0
 38 39  1  0  0  0  0
 40 41  1  0  0  0  0
 42 30  1  0  0  0  0
 42 45  1  0  0  0  0
 43 42  1  0  0  0  0
 44 42  1  0  0  0  0
 45 54  1  0  0  0  0
 46 45  2  0  0  0  0
 46 48  1  0  0  0  0
 47 46  1  0  0  0  0
 48 50  2  0  0  0  0
 49 48  1  0  0  0  0
 50 52  1  0  0  0  0
 50 51  1  0  0  0  0
 52 53  1  0  0  0  0
 54 55  1  0  0  0  0
 54 52  2  0  0  0  0
 56  1  1  0  0  0  0
 57 56  3  0  0  0  0
M  CHG  1   4  -1
M  END
