1,4
q = 0.0, confidence = 0.98

 14 14  0  0  0  0  0  0  0  0999 V2000
    0.3913   -1.6130   -1.4070 O   0  5  0  0  0  0  0  0  0  0  0  0
    1.8974   -3.2296   -1.4970 O   0  0  0  0  0  0  0  0  0  0  0  0
    2.7117   -3.5372   -1.0504 H   0  0  0  0  0  0  0  0  0  0  0  0
    1.4868   -0.3926    0.6963 N   0  0  0  0  0  2  0  0  0  0  0  0
    2.1287   -1.4803    0.2108 C   0  0  0  0  0  0  0  0  0  0  0  0
    1.4183   -2.1171   -0.9591 C   0  0  0  0  0  0  0  0  0  0  0  0
    3.3369   -1.9311    0.7602 C   0  0  0  0  0  0  0  0  0  0  0  0
    3.8707   -2.8062    0.3577 H   0  0  0  0  0  0  0  0  0  0  0  0
    3.2108   -0.1119    2.3435 C   0  0  0  0  0  0  0  0  0  0  0  0
    3.6073    0.4657    3.1904 H   0  0  0  0  0  0  0  0  0  0  0  0
    2.0112    0.2828    1.7305 C   0  0  0  0  0  0  0  0  0  0  0  0
    1.4594    1.1730    2.0680 H   0  0  0  0  0  0  0  0  0  0  0  0
    3.8860   -1.2338    1.8487 C   0  0  0  0  0  0  0  0  0  0  0  0
    4.8345   -1.5633    2.2975 H   0  0  0  0  0  0  0  0  0  0  0  0
  1  6  1  0  0  0  0
  2  3  1  0  0  0  0
  2  6  1  0  0  0  0
  4 11  1  0  0  0  0
  5  4  1  0  0  0  0
  5  7  1  0  0  0  0
  6  5  2  0  0  0  0
  7 13  2  0  0  0  0
  8  7  1  0  0  0  0
  9 10  1  0  0  0  0
 11 12  1  0  0  0  0
 11  9  2  0  0  0  0
 13 14  1  0  0  0  0
 13  9  1  0  0  0  0
M  CHG  1   1  -1
M  END
