1,3
q = -1.0

 32 33  0  0  1  0  0  0  0  0999 V2000
    0.8220   -1.5821   -0.9299 O   0  0  0  0  0  1  0  0  0  0  0  0
   -7.2204   -0.3784   -0.8862 O   0  0  0  0  0  0  0  0  0  0  0  0
   -1.2070   -1.1983    1.1174 N   0  0  0  0  0  2  0  0  0  0  0  0
    0.6561   -2.8467   -0.6465 C   0  0  1  0  0  3  0  0  0  0  0  0
    1.4451   -3.7979   -1.3651 C   0  0  0  0  0  0  0  0  0  0  0  0
    2.1445   -3.4064   -2.1180 H   0  0  0  0  0  0  0  0  0  0  0  0
    1.3359   -5.1617   -1.1196 C   0  0  0  0  0  0  0  0  0  0  0  0
    1.9639   -5.8628   -1.6916 H   0  0  0  0  0  0  0  0  0  0  0  0
    0.4324   -5.6590   -0.1493 C   0  0  0  0  0  0  0  0  0  0  0  0
    0.3500   -6.7392    0.0367 H   0  0  0  0  0  0  0  0  0  0  0  0
   -0.3497   -4.7563    0.5593 C   0  0  0  0  0  0  0  0  0  0  0  0
   -1.0645   -5.1198    1.3152 H   0  0  0  0  0  0  0  0  0  0  0  0
   -0.2636   -3.3511    0.3404 C   0  0  0  0  0  0  0  0  0  0  0  0
   -1.1284   -2.5030    1.1102 C   0  0  0  0  0  0  0  0  0  0  0  0
   -1.8269   -3.0435    1.7813 H   0  0  0  0  0  0  0  0  0  0  0  0
   -2.2727   -0.6031    1.9548 C   0  0  0  0  0  0  0  0  0  0  0  0
   -2.4021   -1.2355    2.8576 H   0  0  0  0  0  0  0  0  0  0  0  0
   -1.9247    0.3972    2.2665 H   0  0  0  0  0  0  0  0  0  0  0  0
   -3.5878   -0.4990    1.2117 C   0  0  0  0  0  0  0  0  0  0  0  0
   -4.6021   -1.4618    1.4004 C   0  0  0  0  0  0  0  0  0  0  0  0
   -4.4513   -2.2765    2.1273 H   0  0  0  0  0  0  0  0  0  0  0  0
   -5.8041   -1.3985    0.6918 C   0  0  0  0  0  0  0  0  0  0  0  0
   -6.6002   -2.1421    0.8406 H   0  0  0  0  0  0  0  0  0  0  0  0
   -6.0219   -0.3605   -0.2396 C   0  0  0  0  0  0  0  0  0  0  0  0
   -5.0185    0.6105   -0.4392 C   0  0  0  0  0  0  0  0  0  0  0  0
   -5.1604    1.4327   -1.1533 H   0  0  0  0  0  0  0  0  0  0  0  0
   -3.8185    0.5328    0.2837 C   0  0  0  0  0  0  0  0  0  0  0  0
   -3.0365    1.2891    0.1252 H   0  0  0  0  0  0  0  0  0  0  0  0
   -7.4863    0.6378   -1.8331 C   0  0  0  0  0  0  0  0  0  0  0  0
   -6.7535    0.6278   -2.6713 H   0  0  0  0  0  0  0  0  0  0  0  0
   -8.4957    0.4344   -2.2367 H   0  0  0  0  0  0  0  0  0  0  0  0
   -7.4802    1.6505   -1.3702 H   0  0  0  0  0  0  0  0  0  0  0  0
  2 24  1  0  0  0  0
  3 16  1  0  0  0  0
  4  1  1  1  0  0  0
  4 13  1  0  0  0  0
  5  7  2  0  0  0  0
  5  4  1  0  0  0  0
  6  5  1  0  0  0  0
  7  9  1  0  0  0  0
  8  7  1  0  0  0  0
  9 10  1  0  0  0  0
  9 11  2  0  0  0  0
 11 12  1  0  0  0  0
 13 11  1  0  0  0  0
 13 14  2  0  0  0  0
 14  3  1  0  0  0  0
 14 15  1  0  0  0  0
 16 18  1  0  0  0  0
 16 17  1  0  0  0  0
 19 20  1  0  0  0  0
 19 16  1  0  0  0  0
 20 21  1  0  0  0  0
 22 23  1  0  0  0  0
 22 20  2  0  0  0  0
 24 22  1  0  0  0  0
 25 24  2  0  0  0  0
 25 27  1  0  0  0  0
 26 25  1  0  0  0  0
 27 19  2  0  0  0  0
 28 27  1  0  0  0  0
 29 32  1  0  0  0  0
 29  2  1  0  0  0  0
 30 29  1  0  0  0  0
 31 29  1  0  0  0  0
M  END
