1,3
q = -1.0, confidence = 0.002

 32 33  0  0  0  0  0  0  0  0999 V2000
   -0.8202    1.5822    0.9277 O   0  5  0  0  0  0  0  0  0  0  0  0
    7.2183    0.3787    0.8956 O   0  0  0  0  0  0  0  0  0  0  0  0
    1.2089    1.1984   -1.1194 N   0  0  0  0  0  2  0  0  0  0  0  0
   -0.6561    2.8467    0.6425 C   0  0  0  0  0  0  0  0  0  0  0  0
   -1.4464    3.7977    1.3599 C   0  0  0  0  0  0  0  0  0  0  0  0
   -2.1452    3.4063    2.1134 H   0  0  0  0  0  0  0  0  0  0  0  0
   -1.3391    5.1614    1.1126 C   0  0  0  0  0  0  0  0  0  0  0  0
   -1.9679    5.8624    1.6838 H   0  0  0  0  0  0  0  0  0  0  0  0
   -0.4362    5.6586    0.1416 C   0  0  0  0  0  0  0  0  0  0  0  0
   -0.3553    6.7386   -0.0458 H   0  0  0  0  0  0  0  0  0  0  0  0
    0.3470    4.7561   -0.5658 C   0  0  0  0  0  3  0  0  0  0  0  0
    1.0613    5.1194   -1.3223 H   0  0  0  0  0  0  0  0  0  0  0  0
    0.2628    3.3510   -0.3450 C   0  0  0  0  0  0  0  0  0  0  0  0
    1.1289    2.5030   -1.1135 C   0  0  0  0  0  0  0  0  0  0  0  0
    1.8273    3.0436   -1.7847 H   0  0  0  0  0  0  0  0  0  0  0  0
    2.2760    0.6033   -1.9549 C   0  0  0  0  0  0  0  0  0  0  0  0
    2.4071    1.2359   -2.8573 H   0  0  0  0  0  0  0  0  0  0  0  0
    1.9287   -0.3969   -2.2673 H   0  0  0  0  0  0  0  0  0  0  0  0
    3.5898    0.4992   -1.2093 C   0  0  0  0  0  0  0  0  0  0  0  0
    4.6035    1.4633   -1.3944 C   0  0  0  0  0  0  0  0  0  0  0  0
    4.4534    2.2791   -2.1203 H   0  0  0  0  0  0  0  0  0  0  0  0
    5.8041    1.4000   -0.6836 C   0  0  0  0  0  0  0  0  0  0  0  0
    6.5999    2.1447   -0.8296 H   0  0  0  0  0  0  0  0  0  0  0  0
    6.0211    0.3607    0.2466 C   0  0  0  0  0  0  0  0  0  0  0  0
    5.0183   -0.6115    0.4427 C   0  0  0  0  0  0  0  0  0  0  0  0
    5.1595   -1.4347    1.1558 H   0  0  0  0  0  0  0  0  0  0  0  0
    3.8196   -0.5338   -0.2825 C   0  0  0  0  0  0  0  0  0  0  0  0
    3.0380   -1.2911   -0.1267 H   0  0  0  0  0  0  0  0  0  0  0  0
    7.4833   -0.6387    1.8414 C   0  0  0  0  0  0  0  0  0  0  0  0
    6.7488   -0.6307    2.6782 H   0  0  0  0  0  0  0  0  0  0  0  0
    8.4916   -0.4350    2.2474 H   0  0  0  0  0  0  0  0  0  0  0  0
    7.4791   -1.6507    1.3769 H   0  0  0  0  0  0  0  0  0  0  0  0
  2 29  1  0  0  0  0
  3 14  1  0  0  0  0
  4  1  1  0  0  0  0
  4  5  2  0  0  0  0
  5  6  1  0  0  0  0
  7  5  1  0  0  0  0
  7  8  1  0  0  0  0
  9  7  2  0  0  0  0
 10  9  1  0  0  0  0
 11 13  1  0  0  0  0
 11  9  1  0  0  0  0
 12 11  1  0  0  0  0
 13  4  1  0  0  0  0
 14 13  2  0  0  0  0
 15 14  1  0  0  0  0
 16 19  1  0  0  0  0
 16  3  1  0  0  0  0
 17 16  1  0  0  0  0
 18 16  1  0  0  0  0
 19 27  1  0  0  0  0
 20 19  2  0  0  0  0
 20 22  1  0  0  0  0
 21 20  1  0  0  0  0
 22 24  2  0  0  0  0
 23 22  1  0  0  0  0
 24 25  1  0  0  0  0
 24  2  1  0  0  0  0
 25 26  1  0  0  0  0
 27 28  1  0  0  0  0
 27 25  2  0  0  0  0
 29 31  1  0  0  0  0
 29 30  1  0  0  0  0
 32 29  1  0  0  0  0
M  CHG  1   1  -1
M  END
