2,4
q = -1.0

 37 38  0  0  0  0  0  0  0  0999 V2000
   -6.9940   -0.9627   -1.8196 Cl  0  0  0  0  0  0  0  0  0  0  0  0
   -1.7232   -2.4842    0.3881 O   0  5  0  0  0  0  0  0  0  0  0  0
    6.0332    3.0422   -0.9201 O   0  0  0  0  0  0  0  0  0  0  0  0
   -0.5960   -0.6942   -1.6660 N   0  0  0  0  0  2  0  0  0  0  0  0
    3.4554    2.1441   -1.7536 N   0  0  0  0  0  0  0  0  0  0  0  0
   -2.8456   -2.1377   -0.1685 C   0  0  0  0  0  0  0  0  0  0  0  0
   -4.0655   -2.6677    0.3667 C   0  0  0  0  0  0  0  0  0  0  0  0
   -3.9695   -3.3603    1.2154 H   0  0  0  0  0  0  0  0  0  0  0  0
   -5.3129   -2.3196   -0.1311 C   0  0  0  0  0  0  0  0  0  0  0  0
   -6.2301   -2.7301    0.3159 H   0  0  0  0  0  0  0  0  0  0  0  0
   -5.4150   -1.4226   -1.2221 C   0  0  0  0  0  0  0  0  0  0  0  0
   -4.2661   -0.9022   -1.7995 C   0  0  0  0  0  0  0  0  0  0  0  0
   -4.3515   -0.2107   -2.6514 H   0  0  0  0  0  0  0  0  0  0  0  0
   -2.9724   -1.2292   -1.2979 C   0  0  0  0  0  0  0  0  0  0  0  0
   -1.8588   -0.6212   -1.9847 C   0  0  0  0  0  3  0  0  0  0  0  0
   -2.1277   -0.0260   -2.8866 H   0  0  0  0  0  0  0  0  0  0  0  0
    0.4060   -0.0546   -2.5070 C   0  0  0  0  0  0  0  0  0  0  0  0
   -0.0863    0.5356   -3.3151 H   0  0  0  0  0  0  0  0  0  0  0  0
    0.9978   -0.8574   -3.0023 H   0  0  0  0  0  0  0  0  0  0  0  0
    1.3603    0.8197   -1.6919 C   0  0  0  0  0  0  0  0  0  0  0  0
    1.8471    0.1817   -0.9258 H   0  0  0  0  0  0  0  0  0  0  0  0
    0.7952    1.5999   -1.1402 H   0  0  0  0  0  0  0  0  0  0  0  0
    2.4373    1.4847   -2.5548 C   0  0  0  0  0  0  0  0  0  0  0  0
    2.8847    0.7223   -3.2508 H   0  0  0  0  0  0  0  0  0  0  0  0
    1.9613    2.2488   -3.2063 H   0  0  0  0  0  0  0  0  0  0  0  0
    4.4398    1.2200   -1.1955 C   0  0  0  0  0  0  0  0  0  0  0  0
    5.0386    0.7249   -2.0077 H   0  0  0  0  0  0  0  0  0  0  0  0
    3.9286    0.4156   -0.6315 H   0  0  0  0  0  0  0  0  0  0  0  0
    5.3881    1.9639   -0.2596 C   0  0  0  0  0  0  0  0  0  0  0  0
    4.8045    2.3389    0.6191 H   0  0  0  0  0  0  0  0  0  0  0  0
    6.1811    1.2866    0.1136 H   0  0  0  0  0  0  0  0  0  0  0  0
    5.0805    3.9419   -1.4570 C   0  0  0  0  0  0  0  0  0  0  0  0
    5.6465    4.7436   -1.9730 H   0  0  0  0  0  0  0  0  0  0  0  0
    4.4754    4.4050   -0.6371 H   0  0  0  0  0  0  0  0  0  0  0  0
    4.1292    3.2450   -2.4306 C   0  0  0  0  0  0  0  0  0  0  0  0
    3.3721    3.9724   -2.7938 H   0  0  0  0  0  0  0  0  0  0  0  0
    4.7171    2.8949   -3.3228 H   0  0  0  0  0  0  0  0  0  0  0  0
  1 11  1  0  0  0  0
  3 29  1  0  0  0  0
  5 26  1  0  0  0  0
  6  7  1  0  0  0  0
  6  2  1  0  0  0  0
  7  8  1  0  0  0  0
  9 10  1  0  0  0  0
  9  7  2  0  0  0  0
 11  9  1  0  0  0  0
 12 14  1  0  0  0  0
 12 11  2  0  0  0  0
 13 12  1  0  0  0  0
 14  6  2  0  0  0  0
 15  4  1  0  0  0  0
 15 14  1  0  0  0  0
 16 15  1  0  0  0  0
 17 20  1  0  0  0  0
 17  4  1  0  0  0  0
 18 17  1  0  0  0  0
 19 17  1  0  0  0  0
 20 22  1  0  0  0  0
 20 21  1  0  0  0  0
 23  5  1  0  0  0  0
 23 20  1  0  0  0  0
 24 23  1  0  0  0  0
 25 23  1  0  0  0  0
 26 28  1  0  0  0  0
 26 29  1  0  0  0  0
 27 26  1  0  0  0  0
 29 31  1  0  0  0  0
 29 30  1  0  0  0  0
 32  3  1  0  0  0  0
 32 34  1  0  0  0  0
 33 32  1  0  0  0  0
 35  5  1  0  0  0  0
 35 32  1  0  0  0  0
 36 35  1  0  0  0  0
 37 35  1  0  0  0  0
M  CHG  1   2  -1
M  END
