1,3
q = -1.0, confidence = 0.002

 28 27  0  0  1  0  0  0  0  0999 V2000
    1.6584    0.2661    0.9536 O   0  5  0  0  0  0  0  0  0  0  0  0
    3.8012   -0.2056    1.4727 O   0  0  0  0  0  0  0  0  0  0  0  0
    0.5398   -1.7018   -1.0089 N   0  0  0  0  0  2  0  0  0  0  0  0
    5.0970    0.9991    3.0693 C   0  0  0  0  0  0  0  0  0  0  0  0
    5.1147    1.8669    3.7581 H   0  0  0  0  0  0  0  0  0  0  0  0
    5.9300    1.1108    2.3470 H   0  0  0  0  0  0  0  0  0  0  0  0
    5.2770    0.0803    3.6621 H   0  0  0  0  0  0  0  0  0  0  0  0
    3.7626    0.9285    2.3528 C   0  0  0  0  0  0  0  0  0  0  0  0
    2.9149    0.8204    3.0625 H   0  0  0  0  0  0  0  0  0  0  0  0
    3.5652    1.8495    1.7611 H   0  0  0  0  0  0  0  0  0  0  0  0
    2.6734   -0.4824    0.7681 C   0  0  0  0  0  0  0  0  0  0  0  0
    2.7951   -1.5981   -0.0930 C   0  0  0  0  0  0  0  0  0  0  0  0
    3.7792   -2.0822   -0.0854 H   0  0  0  0  0  0  0  0  0  0  0  0
    1.7754   -2.1941   -0.8788 C   0  0  2  0  0  3  0  0  0  0  0  0
    2.1680   -3.4717   -1.6003 C   0  0  0  0  0  0  0  0  0  0  0  0
    1.5519   -4.3316   -1.2668 H   0  0  0  0  0  0  0  0  0  0  0  0
    3.2278   -3.7172   -1.4111 H   0  0  0  0  0  0  0  0  0  0  0  0
    2.0254   -3.3768   -2.6965 H   0  0  0  0  0  0  0  0  0  0  0  0
   -0.5129   -2.4424   -1.7138 C   0  0  0  0  0  0  0  0  0  0  0  0
   -0.0588   -3.1214   -2.4678 H   0  0  0  0  0  0  0  0  0  0  0  0
   -1.4270   -1.4725   -2.4708 C   0  0  0  0  0  0  0  0  0  0  0  0
   -0.8489   -0.8616   -3.1920 H   0  0  0  0  0  0  0  0  0  0  0  0
   -1.9453   -0.7779   -1.7764 H   0  0  0  0  0  0  0  0  0  0  0  0
   -2.2064   -2.0275   -3.0303 H   0  0  0  0  0  0  0  0  0  0  0  0
   -1.3100   -3.2973   -0.7147 C   0  0  0  0  0  0  0  0  0  0  0  0
   -0.6538   -4.0323   -0.2065 H   0  0  0  0  0  0  0  0  0  0  0  0
   -2.1256   -3.8520   -1.2224 H   0  0  0  0  0  0  0  0  0  0  0  0
   -1.7518   -2.6422    0.0636 H   0  0  0  0  0  0  0  0  0  0  0  0
  2  8  1  0  0  0  0
  4  7  1  0  0  0  0
  4  5  1  0  0  0  0
  6  4  1  0  0  0  0
  8  9  1  0  0  0  0
  8  4  1  0  0  0  0
 10  8  1  0  0  0  0
 11  1  1  0  0  0  0
 11  2  1  0  0  0  0
 12 13  1  0  0  0  0
 12 11  2  0  0  0  0
 14  3  1  6  0  0  0
 14 12  1  0  0  0  0
 15 17  1  0  0  0  0
 15 16  1  0  0  0  0
 15 14  1  0  0  0  0
 18 15  1  0  0  0  0
 19  3  1  0  0  0  0
 19 25  1  0  0  0  0
 20 19  1  0  0  0  0
 21 23  1  0  0  0  0
 21 19  1  0  0  0  0
 22 21  1  0  0  0  0
 24 21  1  0  0  0  0
 25 26  1  0  0  0  0
 25 28  1  0  0  0  0
 27 25  1  0  0  0  0
M  CHG  1   1  -1
M  END
