1,2
q = -1.0

 19 19  0  0  1  0  0  0  0  0999 V2000
   -1.5730   -0.1627   -1.1303 O   0  0  0  0  0  1  0  0  0  0  0  0
   -0.8189   -1.3636    0.9834 N   0  0  0  0  0  2  0  0  0  0  0  0
   -0.5037   -1.8763    1.8189 H   0  0  0  0  0  0  0  0  0  0  0  0
   -1.9933   -1.7522    0.5366 C   0  0  2  0  0  3  0  0  0  0  0  0
   -2.4186   -1.0681   -0.6014 N   0  0  0  0  0  0  0  0  0  0  0  0
   -3.6195   -1.2429   -1.2299 C   0  0  0  0  0  0  0  0  0  0  0  0
   -6.1139   -1.8194   -2.3031 O   0  0  0  0  0  0  0  0  0  0  0  0
   -4.5046   -2.2367   -0.6919 C   0  0  0  0  0  0  0  0  0  0  0  0
   -3.8441   -0.4756   -2.3003 N   0  0  0  0  0  0  0  0  0  0  0  0
   -3.1117    0.1923   -2.5537 H   0  0  0  0  0  0  0  0  0  0  0  0
   -4.7519   -0.6082   -2.7631 H   0  0  0  0  0  0  0  0  0  0  0  0
   -6.5114   -3.3562   -0.7997 O   0  0  0  0  0  0  0  0  0  0  0  0
   -3.3355   -4.3878    2.6096 O   0  0  0  0  0  0  0  0  0  0  0  0
   -5.7952   -2.4922   -1.2993 N   0  0  0  0  0  0  0  0  0  0  0  0
   -4.1258   -2.9742    0.4321 C   0  0  0  0  0  0  0  0  0  0  0  0
   -4.8057   -3.7362    0.8356 H   0  0  0  0  0  0  0  0  0  0  0  0
   -2.5400   -3.5398    2.2118 N   0  0  0  0  0  0  0  0  0  0  0  0
   -2.8991   -2.7524    1.0458 C   0  0  0  0  0  0  0  0  0  0  0  0
   -1.4369   -3.3100    2.7450 O   0  0  0  0  0  0  0  0  0  0  0  0
  1  5  1  0  0  0  0
  2  3  1  0  0  0  0
  4  2  1  1  0  0  0
  4 18  1  0  0  0  0
  5  4  1  0  0  0  0
  6  8  2  0  0  0  0
  6  5  1  0  0  0  0
  7 14  2  0  0  0  0
  8 15  1  0  0  0  0
  9  6  1  0  0  0  0
 10  9  1  0  0  0  0
 11  9  1  0  0  0  0
 14 12  2  0  0  0  0
 14  8  1  0  0  0  0
 15 16  1  0  0  0  0
 15 18  2  0  0  0  0
 17 13  2  0  0  0  0
 17 19  2  0  0  0  0
 18 17  1  0  0  0  0
M  END
