1,4
q = -1.0

 36 38  0  0  0  0  0  0  0  0999 V2000
    0.7338   -1.7027    0.0152 O   0  5  0  0  0  0  0  0  0  0  0  0
    4.8240   -6.5767   -0.2298 O   0  0  0  0  0  0  0  0  0  0  0  0
    2.6962   -0.4936   -0.1057 N   0  0  0  0  0  0  0  0  0  0  0  0
    1.7932    0.5344   -0.0701 N   0  0  0  0  0  2  0  0  0  0  0  0
    4.8765    4.1814   -0.3028 N   0  0  0  0  0  0  0  0  0  0  0  0
    2.7900   -2.9168   -0.1121 C   0  0  0  0  0  0  0  0  0  0  0  0
    2.1327   -4.1384    0.1561 C   0  0  0  0  0  0  0  0  0  0  0  0
    2.8207   -5.3525    0.1167 C   0  0  0  0  0  0  0  0  0  0  0  0
    4.1944   -5.3714   -0.2015 C   0  0  0  0  0  0  0  0  0  0  0  0
    4.8600   -4.1583   -0.4786 C   0  0  0  0  0  0  0  0  0  0  0  0
    4.1646   -2.9472   -0.4339 C   0  0  0  0  0  0  0  0  0  0  0  0
    2.0411   -1.6455   -0.0664 C   0  0  0  0  0  0  0  0  0  0  0  0
    2.1721    1.7956   -0.0807 C   0  0  0  0  0  3  0  0  0  0  0  0
    3.4690    2.4158   -0.0934 C   0  0  0  0  0  0  0  0  0  0  0  0
    3.5571    3.8064   -0.3386 C   0  0  0  0  0  0  0  0  0  0  0  0
    2.4802    4.7948   -0.6457 C   0  0  0  0  0  0  0  0  0  0  0  0
    5.6865    3.0929   -0.0174 C   0  0  0  0  0  0  0  0  0  0  0  0
    7.0802    3.0373    0.1428 C   0  0  0  0  0  0  0  0  0  0  0  0
    7.6414    1.7977    0.4688 C   0  0  0  0  0  0  0  0  0  0  0  0
    6.8232    0.6558    0.6350 C   0  0  0  0  0  0  0  0  0  0  0  0
    5.4352    0.7190    0.4705 C   0  0  0  0  0  0  0  0  0  0  0  0
    4.8371    1.9506    0.1260 C   0  0  0  0  0  0  0  0  0  0  0  0
    5.7598   -6.4289   -0.4619 H   0  0  0  0  0  0  0  0  0  0  0  0
    5.2082    5.1338   -0.4500 H   0  0  0  0  0  0  0  0  0  0  0  0
    1.0626   -4.1139    0.4067 H   0  0  0  0  0  0  0  0  0  0  0  0
    2.3164   -6.3059    0.3305 H   0  0  0  0  0  0  0  0  0  0  0  0
    5.9323   -4.1701   -0.7365 H   0  0  0  0  0  0  0  0  0  0  0  0
    4.6793   -2.0033   -0.6623 H   0  0  0  0  0  0  0  0  0  0  0  0
    1.3071    2.4766   -0.0952 H   0  0  0  0  0  0  0  0  0  0  0  0
    2.1503    4.7306   -1.7048 H   0  0  0  0  0  0  0  0  0  0  0  0
    1.5841    4.6224   -0.0175 H   0  0  0  0  0  0  0  0  0  0  0  0
    2.8230    5.8324   -0.4620 H   0  0  0  0  0  0  0  0  0  0  0  0
    7.7047    3.9355    0.0227 H   0  0  0  0  0  0  0  0  0  0  0  0
    8.7306    1.7147    0.6029 H   0  0  0  0  0  0  0  0  0  0  0  0
    7.2892   -0.3052    0.9015 H   0  0  0  0  0  0  0  0  0  0  0  0
    4.7878   -0.1587    0.5912 H   0  0  0  0  0  0  0  0  0  0  0  0
  2  9  1  0  0  0  0
  3  4  1  0  0  0  0
  3 12  2  0  0  0  0
  5 17  1  0  0  0  0
  6 12  1  0  0  0  0
  6  7  1  0  0  0  0
  7 25  1  0  0  0  0
  8  7  2  0  0  0  0
  8 26  1  0  0  0  0
  9  8  1  0  0  0  0
 10 11  1  0  0  0  0
 10  9  2  0  0  0  0
 11  6  2  0  0  0  0
 12  1  1  0  0  0  0
 13  4  1  0  0  0  0
 14 13  1  0  0  0  0
 14 22  1  0  0  0  0
 15  5  1  0  0  0  0
 15 14  2  0  0  0  0
 16 32  1  0  0  0  0
 16 15  1  0  0  0  0
 16 31  1  0  0  0  0
 17 22  2  0  0  0  0
 17 18  1  0  0  0  0
 18 19  2  0  0  0  0
 19 34  1  0  0  0  0
 19 20  1  0  0  0  0
 20 35  1  0  0  0  0
 21 36  1  0  0  0  0
 21 20  2  0  0  0  0
 22 21  1  0  0  0  0
 23  2  1  0  0  0  0
 24  5  1  0  0  0  0
 27 10  1  0  0  0  0
 28 11  1  0  0  0  0
 29 13  1  0  0  0  0
 30 16  1  0  0  0  0
 33 18  1  0  0  0  0
M  CHG  1   1  -1
M  END
