1,2
q = -1.0

 33 36  0  0  0  0  0  0  0  0999 V2000
    1.7244   -1.1492   -0.6937 O   0  5  0  0  0  0  0  0  0  0  0  0
   -0.3486   -2.3825    0.4678 N   0  0  0  0  0  2  0  0  0  0  0  0
    3.1334   -2.9221   -0.1486 N   0  0  0  0  0  0  0  0  0  0  0  0
    4.1798   -2.3239   -0.7036 N   0  0  0  0  0  2  0  0  0  0  0  0
    4.9791    1.8406    1.7346 N   0  0  0  0  0  0  0  0  0  0  0  0
    6.8281    1.6961   -0.7433 N   0  0  0  0  0  0  0  0  0  0  0  0
   -1.4561   -2.9534    0.9781 C   0  0  0  0  0  3  0  0  0  0  0  0
   -2.3412   -2.3011    1.0603 H   0  0  0  0  0  0  0  0  0  0  0  0
   -1.4754   -4.2907    1.3847 C   0  0  0  0  0  0  0  0  0  0  0  0
   -2.3977   -4.7296    1.7904 H   0  0  0  0  0  0  0  0  0  0  0  0
   -0.2932   -5.0467    1.2646 C   0  0  0  0  0  0  0  0  0  0  0  0
   -0.2753   -6.1018    1.5772 H   0  0  0  0  0  0  0  0  0  0  0  0
    0.8569   -4.4486    0.7421 C   0  0  0  0  0  0  0  0  0  0  0  0
    1.8066   -4.9876    0.6218 H   0  0  0  0  0  0  0  0  0  0  0  0
    0.7981   -3.0982    0.3488 C   0  0  0  0  0  0  0  0  0  0  0  0
    1.9532   -2.3348   -0.2067 C   0  0  0  0  0  0  0  0  0  0  0  0
    4.7062   -1.2314   -0.2242 C   0  0  0  0  0  0  0  0  0  0  0  0
    4.3551   -0.4018    0.9511 C   0  0  0  0  0  0  0  0  0  0  0  0
    3.4904   -0.5864    2.0372 C   0  0  0  0  0  0  0  0  0  0  0  0
    2.9138   -1.5110    2.1695 H   0  0  0  0  0  0  0  0  0  0  0  0
    3.3915    0.4669    2.9655 C   0  0  0  0  0  0  0  0  0  0  0  0
    2.7450    0.3671    3.8511 H   0  0  0  0  0  0  0  0  0  0  0  0
    4.1292    1.6500    2.7600 C   0  0  0  0  0  0  0  0  0  0  0  0
    4.0305    2.4880    3.4732 H   0  0  0  0  0  0  0  0  0  0  0  0
    5.0933    0.8229    0.8741 C   0  0  0  0  0  0  0  0  0  0  0  0
    5.9795    0.7570   -0.3107 C   0  0  0  0  0  0  0  0  0  0  0  0
    7.5264    1.3815   -1.8489 C   0  0  0  0  0  0  0  0  0  0  0  0
    8.2362    2.1468   -2.2104 H   0  0  0  0  0  0  0  0  0  0  0  0
    7.4009    0.1628   -2.5504 C   0  0  0  0  0  0  0  0  0  0  0  0
    8.0113   -0.0127   -3.4488 H   0  0  0  0  0  0  0  0  0  0  0  0
    6.4950   -0.8092   -2.0961 C   0  0  0  0  0  3  0  0  0  0  0  0
    6.3509   -1.7693   -2.6135 H   0  0  0  0  0  0  0  0  0  0  0  0
    5.7692   -0.5025   -0.9408 C   0  0  0  0  0  0  0  0  0  0  0  0
  1 16  1  0  0  0  0
  2  7  1  0  0  0  0
  4 17  1  0  0  0  0
  4  3  1  0  0  0  0
  5 23  1  0  0  0  0
  6 26  2  0  0  0  0
  7  8  1  0  0  0  0
  7  9  1  0  0  0  0
  9 10  1  0  0  0  0
 11  9  2  0  0  0  0
 11 12  1  0  0  0  0
 13 11  1  0  0  0  0
 14 13  1  0  0  0  0
 15  2  1  0  0  0  0
 15 13  2  0  0  0  0
 16  3  2  0  0  0  0
 16 15  1  0  0  0  0
 17 18  1  0  0  0  0
 18 19  2  0  0  0  0
 19 20  1  0  0  0  0
 19 21  1  0  0  0  0
 21 22  1  0  0  0  0
 23 21  2  0  0  0  0
 23 24  1  0  0  0  0
 25 18  1  0  0  0  0
 25  5  2  0  0  0  0
 26 25  1  0  0  0  0
 27  6  1  0  0  0  0
 28 27  1  0  0  0  0
 29 31  1  0  0  0  0
 29 27  2  0  0  0  0
 30 29  1  0  0  0  0
 31 33  1  0  0  0  0
 32 31  1  0  0  0  0
 33 26  1  0  0  0  0
 33 17  2  0  0  0  0
M  CHG  1   1  -1
M  END
