1,2
q = -1.0

 33 33  0  0  0  0  0  0  0  0999 V2000
   -1.7429    0.5504   -0.3186 O   0  5  0  0  0  0  0  0  0  0  0  0
   -0.6227   -1.9716   -0.8921 N   0  0  0  0  0  2  0  0  0  0  0  0
   -2.8915   -0.0750   -0.2946 C   0  0  0  0  0  0  0  0  0  0  0  0
   -4.1082    0.6878   -0.1004 C   0  0  0  0  0  0  0  0  0  0  0  0
   -5.3162   -0.0093   -0.0098 C   0  0  0  0  0  0  0  0  0  0  0  0
   -6.2420    0.5592    0.1595 H   0  0  0  0  0  0  0  0  0  0  0  0
   -5.4368   -1.4186   -0.1320 C   0  0  0  0  0  0  0  0  0  0  0  0
   -4.2738   -2.1337   -0.3938 C   0  0  0  0  0  0  0  0  0  0  0  0
   -4.3227   -3.2259   -0.5422 H   0  0  0  0  0  0  0  0  0  0  0  0
   -3.0057   -1.4995   -0.4845 C   0  0  0  0  0  0  0  0  0  0  0  0
   -4.0662    2.2289   -0.0343 C   0  0  0  0  0  0  0  0  0  0  0  0
   -3.5084    2.7793   -1.3685 C   0  0  0  0  0  0  0  0  0  0  0  0
   -2.4827    2.4063   -1.5467 H   0  0  0  0  0  0  0  0  0  0  0  0
   -3.4757    3.8886   -1.3463 H   0  0  0  0  0  0  0  0  0  0  0  0
   -4.1478    2.4697   -2.2199 H   0  0  0  0  0  0  0  0  0  0  0  0
   -3.1768    2.7096    1.1357 C   0  0  0  0  0  0  0  0  0  0  0  0
   -3.5824    2.3555    2.1056 H   0  0  0  0  0  0  0  0  0  0  0  0
   -3.1503    3.8190    1.1646 H   0  0  0  0  0  0  0  0  0  0  0  0
   -2.1441    2.3329    1.0222 H   0  0  0  0  0  0  0  0  0  0  0  0
   -5.4664    2.8375    0.1676 C   0  0  0  0  0  0  0  0  0  0  0  0
   -6.1577    2.5799   -0.6601 H   0  0  0  0  0  0  0  0  0  0  0  0
   -5.3856    3.9427    0.2018 H   0  0  0  0  0  0  0  0  0  0  0  0
   -5.9287    2.5081    1.1202 H   0  0  0  0  0  0  0  0  0  0  0  0
   -6.7833   -2.0851   -0.0013 C   0  0  0  0  0  0  0  0  0  0  0  0
   -7.2093   -1.9529    1.0166 H   0  0  0  0  0  0  0  0  0  0  0  0
   -6.7188   -3.1736   -0.1960 H   0  0  0  0  0  0  0  0  0  0  0  0
   -7.5229   -1.6592   -0.7122 H   0  0  0  0  0  0  0  0  0  0  0  0
   -1.8804   -2.3213   -0.8616 C   0  0  0  0  0  3  0  0  0  0  0  0
   -2.1362   -3.3582   -1.1717 H   0  0  0  0  0  0  0  0  0  0  0  0
    0.3405   -2.9491   -1.3706 C   0  0  0  0  0  0  0  0  0  0  0  0
   -0.1447   -3.9184   -1.6194 H   0  0  0  0  0  0  0  0  0  0  0  0
    1.1311   -3.1083   -0.6125 H   0  0  0  0  0  0  0  0  0  0  0  0
    0.8588   -2.5611   -2.2713 H   0  0  0  0  0  0  0  0  0  0  0  0
  1  3  1  0  0  0  0
  2 28  1  0  0  0  0
  3  4  1  0  0  0  0
  4 11  1  0  0  0  0
  4  5  2  0  0  0  0
  5  6  1  0  0  0  0
  7  5  1  0  0  0  0
  7 24  1  0  0  0  0
  8  7  2  0  0  0  0
  9  8  1  0  0  0  0
 10  8  1  0  0  0  0
 10  3  2  0  0  0  0
 11 20  1  0  0  0  0
 11 16  1  0  0  0  0
 12 14  1  0  0  0  0
 12 11  1  0  0  0  0
 13 12  1  0  0  0  0
 15 12  1  0  0  0  0
 16 18  1  0  0  0  0
 16 17  1  0  0  0  0
 19 16  1  0  0  0  0
 20 22  1  0  0  0  0
 20 23  1  0  0  0  0
 21 20  1  0  0  0  0
 24 25  1  0  0  0  0
 26 24  1  0  0  0  0
 27 24  1  0  0  0  0
 28 10  1  0  0  0  0
 29 28  1  0  0  0  0
 30  2  1  0  0  0  0
 30 32  1  0  0  0  0
 31 30  1  0  0  0  0
 33 30  1  0  0  0  0
M  CHG  1   1  -1
M  END
