1,3
q = -1.0

 44 45  0  0  1  0  0  0  0  0999 V2000
   -0.0526    0.7747   -0.5787 O   0  5  0  0  0  0  0  0  0  0  0  0
   -1.3111    0.4433   -0.3895 C   0  0  0  0  0  0  0  0  0  0  0  0
    0.5996   -1.8169   -0.8288 N   0  0  0  0  0  2  0  0  0  0  0  0
   -2.3437    1.4327   -0.2727 C   0  0  0  0  0  0  0  0  0  0  0  0
   -1.1337   -3.2476   -0.5853 O   0  0  0  0  0  0  0  0  0  0  0  0
   -3.6443    0.9872    0.0036 C   0  0  0  0  0  0  0  0  0  0  0  0
   -4.4281    1.7455    0.1087 H   0  0  0  0  0  0  0  0  0  0  0  0
   -4.0126   -0.3723    0.1510 C   0  0  0  0  0  0  0  0  0  0  0  0
   -3.0082   -1.3250   -0.0254 C   0  0  0  0  0  0  0  0  0  0  0  0
   -3.2299   -2.3991    0.0406 H   0  0  0  0  0  0  0  0  0  0  0  0
   -1.6752   -0.9420   -0.3054 C   0  0  0  0  0  0  0  0  0  0  0  0
   -0.6831   -1.9652   -0.5686 C   0  0  2  0  0  3  0  0  0  0  0  0
    1.1318   -3.1462   -1.1684 C   0  0  0  0  0  0  0  0  0  0  0  0
    2.0976   -3.3294   -0.6606 H   0  0  0  0  0  0  0  0  0  0  0  0
    1.3272   -3.1937   -2.2609 H   0  0  0  0  0  0  0  0  0  0  0  0
    0.0223   -4.1057   -0.7158 C   0  0  0  0  0  0  0  0  0  0  0  0
   -0.2182   -4.9057   -1.4413 H   0  0  0  0  0  0  0  0  0  0  0  0
    0.2263   -4.5637    0.2764 H   0  0  0  0  0  0  0  0  0  0  0  0
   -2.0316    2.9273   -0.4793 C   0  0  0  0  0  0  0  0  0  0  0  0
   -3.2916    3.8018   -0.3449 C   0  0  0  0  0  0  0  0  0  0  0  0
   -4.0671    3.5340   -1.0909 H   0  0  0  0  0  0  0  0  0  0  0  0
   -3.0201    4.8628   -0.5152 H   0  0  0  0  0  0  0  0  0  0  0  0
   -3.7432    3.7330    0.6658 H   0  0  0  0  0  0  0  0  0  0  0  0
   -1.4585    3.1331   -1.9020 C   0  0  0  0  0  0  0  0  0  0  0  0
   -2.1936    2.8149   -2.6691 H   0  0  0  0  0  0  0  0  0  0  0  0
   -0.5259    2.5582   -2.0481 H   0  0  0  0  0  0  0  0  0  0  0  0
   -1.2315    4.2064   -2.0698 H   0  0  0  0  0  0  0  0  0  0  0  0
   -1.0066    3.4132    0.5704 C   0  0  0  0  0  0  0  0  0  0  0  0
   -1.3988    3.2756    1.5989 H   0  0  0  0  0  0  0  0  0  0  0  0
   -0.7948    4.4928    0.4261 H   0  0  0  0  0  0  0  0  0  0  0  0
   -0.0566    2.8583    0.4766 H   0  0  0  0  0  0  0  0  0  0  0  0
   -5.4516   -0.8160    0.4740 C   0  0  0  0  0  0  0  0  0  0  0  0
   -6.4088    0.3795    0.6226 C   0  0  0  0  0  0  0  0  0  0  0  0
   -7.4289    0.0161    0.8599 H   0  0  0  0  0  0  0  0  0  0  0  0
   -6.4764    0.9741   -0.3107 H   0  0  0  0  0  0  0  0  0  0  0  0
   -6.0978    1.0585    1.4422 H   0  0  0  0  0  0  0  0  0  0  0  0
   -5.9761   -1.7206   -0.6639 C   0  0  0  0  0  0  0  0  0  0  0  0
   -7.0106   -2.0600   -0.4479 H   0  0  0  0  0  0  0  0  0  0  0  0
   -5.3460   -2.6230   -0.7938 H   0  0  0  0  0  0  0  0  0  0  0  0
   -5.9859   -1.1753   -1.6293 H   0  0  0  0  0  0  0  0  0  0  0  0
   -5.4519   -1.6072    1.8017 C   0  0  0  0  0  0  0  0  0  0  0  0
   -6.4777   -1.9481    2.0538 H   0  0  0  0  0  0  0  0  0  0  0  0
   -5.0823   -0.9781    2.6368 H   0  0  0  0  0  0  0  0  0  0  0  0
   -4.8032   -2.5039    1.7431 H   0  0  0  0  0  0  0  0  0  0  0  0
  1  2  1  0  0  0  0
  2 11  2  0  0  0  0
  2  4  1  0  0  0  0
  3 12  1  0  0  0  0
  4  6  2  0  0  0  0
  5 12  1  0  0  0  0
  6  7  1  0  0  0  0
  6  8  1  0  0  0  0
  8 32  1  0  0  0  0
  9 10  1  0  0  0  0
  9  8  2  0  0  0  0
 11  9  1  0  0  0  0
 12 11  1  6  0  0  0
 13  3  1  0  0  0  0
 13 16  1  0  0  0  0
 13 14  1  0  0  0  0
 15 13  1  0  0  0  0
 16  5  1  0  0  0  0
 16 18  1  0  0  0  0
 17 16  1  0  0  0  0
 19 20  1  0  0  0  0
 19  4  1  0  0  0  0
 19 28  1  0  0  0  0
 20 23  1  0  0  0  0
 21 20  1  0  0  0  0
 22 20  1  0  0  0  0
 24 19  1  0  0  0  0
 25 24  1  0  0  0  0
 26 24  1  0  0  0  0
 27 24  1  0  0  0  0
 28 29  1  0  0  0  0
 30 28  1  0  0  0  0
 31 28  1  0  0  0  0
 32 33  1  0  0  0  0
 32 41  1  0  0  0  0
 33 34  1  0  0  0  0
 33 36  1  0  0  0  0
 35 33  1  0  0  0  0
 37 38  1  0  0  0  0
 37 32  1  0  0  0  0
 39 37  1  0  0  0  0
 40 37  1  0  0  0  0
 41 42  1  0  0  0  0
 41 43  1  0  0  0  0
 44 41  1  0  0  0  0
M  CHG  1   1  -1
M  END
