1,2
q = -1.0

 50 51  0  0  1  0  0  0  0  0999 V2000
   -0.1791   -0.8068   -0.7513 O   0  5  0  0  0  0  0  0  0  0  0  0
    0.6471    1.7815   -0.6230 N   0  0  0  0  0  2  0  0  0  0  0  0
   -1.4216   -0.4382   -0.5079 C   0  0  0  0  0  0  0  0  0  0  0  0
   -1.1240    3.1948   -0.5324 O   0  0  0  0  0  0  0  0  0  0  0  0
   -2.5097   -1.3632   -0.5764 C   0  0  0  0  0  0  0  0  0  0  0  0
   -3.7696   -0.8977   -0.1683 C   0  0  0  0  0  0  0  0  0  0  0  0
   -4.6009   -1.6113   -0.1783 H   0  0  0  0  0  0  0  0  0  0  0  0
   -4.0364    0.4287    0.2492 C   0  0  0  0  0  0  0  0  0  0  0  0
   -2.9807    1.3421    0.1871 C   0  0  0  0  0  0  0  0  0  0  0  0
   -3.1355    2.4027    0.4282 H   0  0  0  0  0  0  0  0  0  0  0  0
   -1.6840    0.9307   -0.1975 C   0  0  0  0  0  0  0  0  0  0  0  0
   -0.6505    1.9288   -0.4281 C   0  0  1  0  0  3  0  0  0  0  0  0
    1.1531    3.1171   -1.1270 C   0  0  0  0  0  0  0  0  0  0  0  0
    0.0136    4.0577   -0.6833 C   0  0  0  0  0  0  0  0  0  0  0  0
    0.2215    4.5385    0.2980 H   0  0  0  0  0  0  0  0  0  0  0  0
   -0.2328    4.8369   -1.4294 H   0  0  0  0  0  0  0  0  0  0  0  0
   -2.3038   -2.7936   -1.1115 C   0  0  0  0  0  0  0  0  0  0  0  0
   -1.7222   -2.7125   -2.5439 C   0  0  0  0  0  0  0  0  0  0  0  0
   -1.6008   -3.7340   -2.9596 H   0  0  0  0  0  0  0  0  0  0  0  0
   -0.7294   -2.2254   -2.5494 H   0  0  0  0  0  0  0  0  0  0  0  0
   -2.4028   -2.1483   -3.2135 H   0  0  0  0  0  0  0  0  0  0  0  0
   -1.3319   -3.5882   -0.2108 C   0  0  0  0  0  0  0  0  0  0  0  0
   -1.7218   -3.6614    0.8257 H   0  0  0  0  0  0  0  0  0  0  0  0
   -0.3296   -3.1248   -0.1946 H   0  0  0  0  0  0  0  0  0  0  0  0
   -1.2163   -4.6205   -0.6004 H   0  0  0  0  0  0  0  0  0  0  0  0
   -3.6319   -3.5695   -1.1780 C   0  0  0  0  0  0  0  0  0  0  0  0
   -4.0879   -3.7071   -0.1762 H   0  0  0  0  0  0  0  0  0  0  0  0
   -3.4445   -4.5783   -1.5966 H   0  0  0  0  0  0  0  0  0  0  0  0
   -4.3750   -3.0702   -1.8326 H   0  0  0  0  0  0  0  0  0  0  0  0
   -5.4264    0.8876    0.7269 C   0  0  0  0  0  0  0  0  0  0  0  0
   -6.4521   -0.2592    0.7162 C   0  0  0  0  0  0  0  0  0  0  0  0
   -6.1463   -1.0933    1.3796 H   0  0  0  0  0  0  0  0  0  0  0  0
   -6.6062   -0.6676   -0.3029 H   0  0  0  0  0  0  0  0  0  0  0  0
   -7.4326    0.1114    1.0771 H   0  0  0  0  0  0  0  0  0  0  0  0
   -5.3094    1.4230    2.1721 C   0  0  0  0  0  0  0  0  0  0  0  0
   -4.6071    2.2781    2.2355 H   0  0  0  0  0  0  0  0  0  0  0  0
   -4.9417    0.6330    2.8580 H   0  0  0  0  0  0  0  0  0  0  0  0
   -6.2970    1.7690    2.5419 H   0  0  0  0  0  0  0  0  0  0  0  0
   -5.9425    2.0121   -0.1991 C   0  0  0  0  0  0  0  0  0  0  0  0
   -5.2623    2.8869   -0.2023 H   0  0  0  0  0  0  0  0  0  0  0  0
   -6.9412    2.3634    0.1342 H   0  0  0  0  0  0  0  0  0  0  0  0
   -6.0341    1.6529   -1.2440 H   0  0  0  0  0  0  0  0  0  0  0  0
    2.4723    3.5867   -0.5181 C   0  0  0  0  0  0  0  0  0  0  0  0
    2.6889    4.6118   -0.8818 H   0  0  0  0  0  0  0  0  0  0  0  0
    3.3082    2.9280   -0.8095 H   0  0  0  0  0  0  0  0  0  0  0  0
    2.4127    3.6254    0.5857 H   0  0  0  0  0  0  0  0  0  0  0  0
    1.2422    3.0306   -2.6596 C   0  0  0  0  0  0  0  0  0  0  0  0
    1.5713    4.0028   -3.0797 H   0  0  0  0  0  0  0  0  0  0  0  0
    0.2561    2.7737   -3.0962 H   0  0  0  0  0  0  0  0  0  0  0  0
    1.9751    2.2549   -2.9520 H   0  0  0  0  0  0  0  0  0  0  0  0
  1  3  1  0  0  0  0
  2 12  1  0  0  0  0
  3 11  1  0  0  0  0
  4 12  1  0  0  0  0
  5  3  2  0  0  0  0
  5  6  1  0  0  0  0
  6  8  2  0  0  0  0
  7  6  1  0  0  0  0
  8 30  1  0  0  0  0
  9  8  1  0  0  0  0
  9 10  1  0  0  0  0
 11  9  2  0  0  0  0
 12 11  1  6  0  0  0
 13 14  1  0  0  0  0
 13  2  1  0  0  0  0
 13 43  1  0  0  0  0
 14  4  1  0  0  0  0
 14 15  1  0  0  0  0
 16 14  1  0  0  0  0
 17  5  1  0  0  0  0
 17 22  1  0  0  0  0
 18 17  1  0  0  0  0
 19 18  1  0  0  0  0
 20 18  1  0  0  0  0
 21 18  1  0  0  0  0
 22 24  1  0  0  0  0
 22 23  1  0  0  0  0
 25 22  1  0  0  0  0
 26 17  1  0  0  0  0
 26 27  1  0  0  0  0
 28 26  1  0  0  0  0
 29 26  1  0  0  0  0
 30 35  1  0  0  0  0
 31 30  1  0  0  0  0
 31 34  1  0  0  0  0
 31 32  1  0  0  0  0
 33 31  1  0  0  0  0
 35 36  1  0  0  0  0
 35 38  1  0  0  0  0
 35 37  1  0  0  0  0
 39 41  1  0  0  0  0
 39 30  1  0  0  0  0
 40 39  1  0  0  0  0
 42 39  1  0  0  0  0
 43 46  1  0  0  0  0
 44 43  1  0  0  0  0
 45 43  1  0  0  0  0
 47 13  1  0  0  0  0
 48 47  1  0  0  0  0
 49 47  1  0  0  0  0
 50 47  1  0  0  0  0
M  CHG  1   1  -1
M  END
