4,5
q = -1.0

 25 25  0  0  1  0  0  0  0  0999 V2000
    1.9926   -2.2617   -0.6378 S   0  0  0  0  0  0  0  0  0  0  0  0
    1.9169   -3.5088   -1.4303 O   0  0  0  0  0  1  0  0  0  0  0  0
    3.2646   -1.4924   -0.6292 O   0  0  0  0  0  1  0  0  0  0  0  0
    0.7687   -1.3637   -1.0686 O   0  0  0  0  0  1  0  0  0  0  0  0
   -1.6685   -0.8522   -0.3336 N   0  0  0  0  0  2  0  0  0  0  0  0
   -0.3109   -1.6095    1.9854 N   0  0  0  0  0  0  0  0  0  0  0  0
   -2.3706   -1.4358    0.6636 C   0  0  1  0  0  3  0  0  0  0  0  0
   -3.6233   -2.0128    0.4082 C   0  0  0  0  0  0  0  0  0  0  0  0
   -4.1715   -2.4857    1.2359 H   0  0  0  0  0  0  0  0  0  0  0  0
   -4.1522   -1.9827   -0.8863 C   0  0  0  0  0  0  0  0  0  0  0  0
   -5.1390   -2.4212   -1.0966 H   0  0  0  0  0  0  0  0  0  0  0  0
   -3.3894   -1.4093   -1.9136 C   0  0  0  0  0  0  0  0  0  0  0  0
   -3.7456   -1.3875   -2.9530 H   0  0  0  0  0  0  0  0  0  0  0  0
   -2.1467   -0.8609   -1.5934 C   0  0  0  0  0  0  0  0  0  0  0  0
   -1.4872   -0.4188   -2.3524 H   0  0  0  0  0  0  0  0  0  0  0  0
   -1.7520   -1.4403    2.0423 C   0  0  0  0  0  0  0  0  0  0  0  0
   -2.2863   -2.2045    2.6600 H   0  0  0  0  0  0  0  0  0  0  0  0
   -1.9548   -0.4404    2.4833 H   0  0  0  0  0  0  0  0  0  0  0  0
    0.2051   -2.8838    1.4965 C   0  0  0  0  0  0  0  0  0  0  0  0
    0.0758   -3.7196    2.2294 H   0  0  0  0  0  0  0  0  0  0  0  0
   -0.3690   -3.1771    0.5919 H   0  0  0  0  0  0  0  0  0  0  0  0
    1.6797   -2.7506    1.1174 C   0  0  0  0  0  0  0  0  0  0  0  0
    2.2044   -2.0112    1.7531 H   0  0  0  0  0  0  0  0  0  0  0  0
    2.2175   -3.7154    1.1868 H   0  0  0  0  0  0  0  0  0  0  0  0
    0.1087   -1.3654    2.8874 H   0  0  0  0  0  0  0  0  0  0  0  0
  1  3  1  0  0  0  0
  1 22  1  0  0  0  0
  2  1  1  0  0  0  0
  4  1  1  0  0  0  0
  5  7  1  0  0  0  0
  6 16  1  0  0  0  0
  6 25  1  0  0  0  0
  7 16  1  6  0  0  0
  8  7  1  0  0  0  0
  8  9  1  0  0  0  0
 10  8  2  0  0  0  0
 11 10  1  0  0  0  0
 12 14  2  0  0  0  0
 12 10  1  0  0  0  0
 13 12  1  0  0  0  0
 14  5  1  0  0  0  0
 15 14  1  0  0  0  0
 16 18  1  0  0  0  0
 16 17  1  0  0  0  0
 19  6  1  0  0  0  0
 19 20  1  0  0  0  0
 21 19  1  0  0  0  0
 22 24  1  0  0  0  0
 22 19  1  0  0  0  0
 22 23  1  0  0  0  0
M  END
