1,4
q = -1.0

 30 32  0  0  0  0  0  0  0  0999 V2000
   -1.5007    1.3166   -0.1506 O   0  5  0  0  0  0  0  0  0  0  0  0
    6.7493   -0.1174   -0.8057 O   0  0  0  0  0  0  0  0  0  0  0  0
    8.8979   -0.1765   -0.1454 O   0  0  0  0  0  0  0  0  0  0  0  0
    1.4029    1.4464   -0.2945 N   0  0  0  0  0  2  0  0  0  0  0  0
   -1.4063    2.6152   -0.1543 C   0  0  0  0  0  0  0  0  0  0  0  0
   -2.6253    3.3642   -0.1193 C   0  0  0  0  0  0  0  0  0  0  0  0
   -3.5625    2.7899   -0.0890 H   0  0  0  0  0  0  0  0  0  0  0  0
   -2.6192    4.7523   -0.1148 C   0  0  0  0  0  0  0  0  0  0  0  0
   -3.5776    5.2938   -0.0789 H   0  0  0  0  0  0  0  0  0  0  0  0
   -1.4026    5.4809   -0.1564 C   0  0  0  0  0  0  0  0  0  0  0  0
   -1.4106    6.5800   -0.1550 H   0  0  0  0  0  0  0  0  0  0  0  0
   -0.2059    4.7829   -0.2051 C   0  0  0  0  0  3  0  0  0  0  0  0
    0.7507    5.3281   -0.2482 H   0  0  0  0  0  0  0  0  0  0  0  0
   -0.1658    3.3551   -0.2017 C   0  0  0  0  0  0  0  0  0  0  0  0
    1.1175    2.7316   -0.2950 C   0  0  0  0  0  0  0  0  0  0  0  0
    1.9762    3.4221   -0.4098 H   0  0  0  0  0  0  0  0  0  0  0  0
    2.7725    1.0681   -0.4035 C   0  0  0  0  0  0  0  0  0  0  0  0
    3.7086    1.4885    0.5464 C   0  0  0  0  0  0  0  0  0  0  0  0
    3.3857    2.1002    1.4021 H   0  0  0  0  0  0  0  0  0  0  0  0
    5.0663    1.1075    0.4379 C   0  0  0  0  0  0  0  0  0  0  0  0
    6.0876    1.4931    1.3794 C   0  0  0  0  0  0  0  0  0  0  0  0
    5.8079    2.1262    2.2368 H   0  0  0  0  0  0  0  0  0  0  0  0
    7.3782    1.0802    1.2132 C   0  0  0  0  0  0  0  0  0  0  0  0
    8.1798    1.3552    1.9121 H   0  0  0  0  0  0  0  0  0  0  0  0
    7.7857    0.2385    0.0897 C   0  0  0  0  0  0  0  0  0  0  0  0
    5.4620    0.2854   -0.6502 C   0  0  0  0  0  0  0  0  0  0  0  0
    4.5198   -0.1429   -1.6040 C   0  0  0  0  0  0  0  0  0  0  0  0
    4.8580   -0.7783   -2.4342 H   0  0  0  0  0  0  0  0  0  0  0  0
    3.1861    0.2391   -1.4739 C   0  0  0  0  0  0  0  0  0  0  0  0
    2.4357   -0.0965   -2.2028 H   0  0  0  0  0  0  0  0  0  0  0  0
  2 26  1  0  0  0  0
  2 25  1  0  0  0  0
  3 25  2  0  0  0  0
  5  1  1  0  0  0  0
  5  6  2  0  0  0  0
  6  8  1  0  0  0  0
  6  7  1  0  0  0  0
  8  9  1  0  0  0  0
 10 11  1  0  0  0  0
 10  8  2  0  0  0  0
 12 14  1  0  0  0  0
 12 10  1  0  0  0  0
 13 12  1  0  0  0  0
 14  5  1  0  0  0  0
 15  4  1  0  0  0  0
 15 14  2  0  0  0  0
 16 15  1  0  0  0  0
 17  4  1  0  0  0  0
 17 18  1  0  0  0  0
 18 19  1  0  0  0  0
 20 18  2  0  0  0  0
 20 21  1  0  0  0  0
 21 22  1  0  0  0  0
 23 21  2  0  0  0  0
 23 24  1  0  0  0  0
 25 23  1  0  0  0  0
 26 20  1  0  0  0  0
 27 29  1  0  0  0  0
 27 26  2  0  0  0  0
 28 27  1  0  0  0  0
 29 17  2  0  0  0  0
 30 29  1  0  0  0  0
M  CHG  1   1  -1
M  END
