1,2
q = -1.0, confidence = 0.024

 42 44  0  0  1  0  0  0  0  0999 V2000
   -0.9287   -1.2936   -0.9568 O   0  0  0  0  0  1  0  0  0  0  0  0
    1.5571   -1.1052    0.0625 N   0  0  0  0  0  2  0  0  0  0  0  0
    2.8567   -0.3939    0.0960 C   0  0  0  0  0  0  0  0  0  0  0  0
    2.7796    0.3108    0.9491 H   0  0  0  0  0  0  0  0  0  0  0  0
   -3.0098   -2.7456   -1.6278 O   0  0  0  0  0  0  0  0  0  0  0  0
    4.0593   -1.2927    0.3322 C   0  0  0  0  0  0  0  0  0  0  0  0
   -0.8264   -2.5762   -0.7507 C   0  0  2  0  0  3  0  0  0  0  0  0
    0.3478   -3.2091   -0.2345 C   0  0  0  0  0  0  0  0  0  0  0  0
    1.5186   -2.4124    0.0036 C   0  0  0  0  0  0  0  0  0  0  0  0
    2.4717   -2.9639    0.1094 H   0  0  0  0  0  0  0  0  0  0  0  0
    4.7587   -1.8942   -0.7335 C   0  0  0  0  0  0  0  0  0  0  0  0
    4.4488   -1.6802   -1.7678 H   0  0  0  0  0  0  0  0  0  0  0  0
   -1.9393   -3.4187   -1.1135 C   0  0  0  0  0  0  0  0  0  0  0  0
    0.3959   -4.6226   -0.0693 C   0  0  0  0  0  0  0  0  0  0  0  0
    1.3180   -5.0798    0.3217 H   0  0  0  0  0  0  0  0  0  0  0  0
    3.0066    0.4846   -1.1432 C   0  0  0  0  0  0  0  0  0  0  0  0
    2.1623    0.3732   -2.2631 C   0  0  0  0  0  0  0  0  0  0  0  0
    1.3584   -0.3774   -2.2687 H   0  0  0  0  0  0  0  0  0  0  0  0
   -1.8745   -4.7990   -0.9161 C   0  0  0  0  0  0  0  0  0  0  0  0
   -2.7369   -5.4317   -1.1670 H   0  0  0  0  0  0  0  0  0  0  0  0
    5.8430   -2.7483   -0.4829 C   0  0  0  0  0  0  0  0  0  0  0  0
    6.3813   -3.2099   -1.3248 H   0  0  0  0  0  0  0  0  0  0  0  0
    4.4725   -1.5598    1.6524 C   0  0  0  0  0  0  0  0  0  0  0  0
    3.9294   -1.0896    2.4877 H   0  0  0  0  0  0  0  0  0  0  0  0
    6.2451   -3.0100    0.8371 C   0  0  0  0  0  0  0  0  0  0  0  0
    7.0986   -3.6769    1.0329 H   0  0  0  0  0  0  0  0  0  0  0  0
    4.0270    1.4566   -1.1565 C   0  0  0  0  0  0  0  0  0  0  0  0
    4.6974    1.5409   -0.2882 H   0  0  0  0  0  0  0  0  0  0  0  0
    5.5576   -2.4122    1.9055 C   0  0  0  0  0  0  0  0  0  0  0  0
    5.8714   -2.6078    2.9424 H   0  0  0  0  0  0  0  0  0  0  0  0
   -0.7034   -5.4042   -0.3915 C   0  0  0  0  0  0  0  0  0  0  0  0
   -0.6772   -6.4941   -0.2492 H   0  0  0  0  0  0  0  0  0  0  0  0
    4.1900    2.3099   -2.2548 C   0  0  0  0  0  0  0  0  0  0  0  0
    4.9877    3.0687   -2.2444 H   0  0  0  0  0  0  0  0  0  0  0  0
    3.3348    2.2023   -3.3648 C   0  0  0  0  0  0  0  0  0  0  0  0
    3.4564    2.8773   -4.2255 H   0  0  0  0  0  0  0  0  0  0  0  0
    2.3257    1.2295   -3.3657 C   0  0  0  0  0  0  0  0  0  0  0  0
    1.6516    1.1328   -4.2304 H   0  0  0  0  0  0  0  0  0  0  0  0
   -4.1676   -3.4883   -1.9413 C   0  0  0  0  0  0  0  0  0  0  0  0
   -3.9720   -4.2543   -2.7260 H   0  0  0  0  0  0  0  0  0  0  0  0
   -4.9123   -2.7649   -2.3235 H   0  0  0  0  0  0  0  0  0  0  0  0
   -4.5861   -4.0000   -1.0442 H   0  0  0  0  0  0  0  0  0  0  0  0
  2  3  1  0  0  0  0
  3  6  1  0  0  0  0
  3  4  1  0  0  0  0
  5 13  1  0  0  0  0
  6 23  1  0  0  0  0
  7  1  1  6  0  0  0
  7  8  1  0  0  0  0
  8 14  1  0  0  0  0
  8  9  2  0  0  0  0
  9  2  1  0  0  0  0
  9 10  1  0  0  0  0
 11 21  1  0  0  0  0
 11  6  2  0  0  0  0
 12 11  1  0  0  0  0
 13 19  2  0  0  0  0
 13  7  1  0  0  0  0
 14 15  1  0  0  0  0
 16  3  1  0  0  0  0
 17 16  2  0  0  0  0
 18 17  1  0  0  0  0
 19 31  1  0  0  0  0
 20 19  1  0  0  0  0
 21 25  2  0  0  0  0
 22 21  1  0  0  0  0
 23 29  2  0  0  0  0
 23 24  1  0  0  0  0
 25 26  1  0  0  0  0
 25 29  1  0  0  0  0
 27 16  1  0  0  0  0
 27 28  1  0  0  0  0
 29 30  1  0  0  0  0
 31 32  1  0  0  0  0
 31 14  2  0  0  0  0
 33 34  1  0  0  0  0
 33 27  2  0  0  0  0
 35 33  1  0  0  0  0
 36 35  1  0  0  0  0
 37 35  2  0  0  0  0
 37 17  1  0  0  0  0
 38 37  1  0  0  0  0
 39  5  1  0  0  0  0
 39 42  1  0  0  0  0
 40 39  1  0  0  0  0
 41 39  1  0  0  0  0
M  END
