1,2
q = -1.0

 42 44  0  0  0  0  0  0  0  0999 V2000
    0.9283    1.2941    0.9562 O   0  5  0  0  0  0  0  0  0  0  0  0
   -1.5575    1.1054   -0.0627 N   0  0  0  0  0  2  0  0  0  0  0  0
   -2.8570    0.3939   -0.0956 C   0  0  0  0  0  0  0  0  0  0  0  0
   -2.7804   -0.3105   -0.9490 H   0  0  0  0  0  0  0  0  0  0  0  0
    3.0096    2.7462    1.6262 O   0  0  0  0  0  0  0  0  0  0  0  0
   -4.0599    1.2926   -0.3305 C   0  0  0  0  0  0  0  0  0  0  0  0
    0.8261    2.5766    0.7494 C   0  0  0  0  0  0  0  0  0  0  0  0
   -0.3481    3.2093    0.2331 C   0  0  0  0  0  0  0  0  0  0  0  0
   -1.5191    2.4126   -0.0043 C   0  0  0  0  0  0  0  0  0  0  0  0
   -2.4722    2.9641   -0.1099 H   0  0  0  0  0  0  0  0  0  0  0  0
   -4.7585    1.8938    0.7358 C   0  0  0  0  0  0  0  0  0  0  0  0
   -4.4475    1.6797    1.7698 H   0  0  0  0  0  0  0  0  0  0  0  0
    1.9391    3.4192    1.1117 C   0  0  0  0  0  0  0  0  0  0  0  0
   -0.3962    4.6227    0.0673 C   0  0  0  0  0  3  0  0  0  0  0  0
   -1.3183    5.0798   -0.3238 H   0  0  0  0  0  0  0  0  0  0  0  0
   -3.0058   -0.4849    1.1435 C   0  0  0  0  0  0  0  0  0  0  0  0
   -2.1616   -0.3727    2.2634 C   0  0  0  0  0  0  0  0  0  0  0  0
   -1.3585    0.3786    2.2689 H   0  0  0  0  0  0  0  0  0  0  0  0
    1.8744    4.7994    0.9135 C   0  0  0  0  0  0  0  0  0  0  0  0
    2.7369    5.4322    1.1640 H   0  0  0  0  0  0  0  0  0  0  0  0
   -5.8430    2.7478    0.4864 C   0  0  0  0  0  0  0  0  0  0  0  0
   -6.3806    3.2092    1.3288 H   0  0  0  0  0  0  0  0  0  0  0  0
   -4.4744    1.5598   -1.6503 C   0  0  0  0  0  0  0  0  0  0  0  0
   -3.9320    1.0897   -2.4862 H   0  0  0  0  0  0  0  0  0  0  0  0
   -6.2464    3.0096   -0.8332 C   0  0  0  0  0  0  0  0  0  0  0  0
   -7.1002    3.6764   -1.0282 H   0  0  0  0  0  0  0  0  0  0  0  0
   -4.0254   -1.4579    1.1568 C   0  0  0  0  0  0  0  0  0  0  0  0
   -4.6956   -1.5429    0.2886 H   0  0  0  0  0  0  0  0  0  0  0  0
   -5.5598    2.4121   -1.9024 C   0  0  0  0  0  0  0  0  0  0  0  0
   -5.8746    2.6076   -2.9390 H   0  0  0  0  0  0  0  0  0  0  0  0
    0.7033    5.4044    0.3889 C   0  0  0  0  0  0  0  0  0  0  0  0
    0.6771    6.4943    0.2460 H   0  0  0  0  0  0  0  0  0  0  0  0
   -4.1875   -2.3114    2.2552 C   0  0  0  0  0  0  0  0  0  0  0  0
   -4.9844   -3.0711    2.2447 H   0  0  0  0  0  0  0  0  0  0  0  0
   -3.3323   -2.2029    3.3651 C   0  0  0  0  0  0  0  0  0  0  0  0
   -3.4533   -2.8781    4.2258 H   0  0  0  0  0  0  0  0  0  0  0  0
   -2.3242   -1.2292    3.3660 C   0  0  0  0  0  0  0  0  0  0  0  0
   -1.6501   -1.1319    4.2307 H   0  0  0  0  0  0  0  0  0  0  0  0
    4.1676    3.4890    1.9389 C   0  0  0  0  0  0  0  0  0  0  0  0
    3.9723    4.2554    2.7233 H   0  0  0  0  0  0  0  0  0  0  0  0
    4.9123    2.7657    2.3214 H   0  0  0  0  0  0  0  0  0  0  0  0
    4.5859    4.0001    1.0415 H   0  0  0  0  0  0  0  0  0  0  0  0
  2  9  1  0  0  0  0
  3  2  1  0  0  0  0
  3 16  1  0  0  0  0
  4  3  1  0  0  0  0
  5 39  1  0  0  0  0
  6  3  1  0  0  0  0
  6 11  1  0  0  0  0
  7  1  1  0  0  0  0
  7 13  2  0  0  0  0
  8  7  1  0  0  0  0
  9  8  2  0  0  0  0
 10  9  1  0  0  0  0
 11 12  1  0  0  0  0
 13  5  1  0  0  0  0
 14  8  1  0  0  0  0
 14 31  1  0  0  0  0
 15 14  1  0  0  0  0
 16 27  2  0  0  0  0
 16 17  1  0  0  0  0
 17 18  1  0  0  0  0
 17 37  2  0  0  0  0
 19 13  1  0  0  0  0
 19 20  1  0  0  0  0
 21 11  2  0  0  0  0
 21 22  1  0  0  0  0
 23  6  2  0  0  0  0
 24 23  1  0  0  0  0
 25 21  1  0  0  0  0
 26 25  1  0  0  0  0
 27 33  1  0  0  0  0
 28 27  1  0  0  0  0
 29 23  1  0  0  0  0
 29 25  2  0  0  0  0
 30 29  1  0  0  0  0
 31 19  2  0  0  0  0
 32 31  1  0  0  0  0
 33 35  2  0  0  0  0
 34 33  1  0  0  0  0
 35 37  1  0  0  0  0
 35 36  1  0  0  0  0
 37 38  1  0  0  0  0
 39 41  1  0  0  0  0
 39 40  1  0  0  0  0
 42 39  1  0  0  0  0
M  CHG  1   1  -1
M  END
