1,22
q = -1.0

 22 23  0  0  1  0  0  0  0  0999 V2000
   -1.7188    1.7678   -0.6917 O   0  5  0  0  0  0  0  0  0  0  0  0
   -1.0419    2.8651   -0.4738 C   0  0  0  0  0  0  0  0  0  0  0  0
    0.2159    2.6226    0.3896 C   0  0  2  0  0  0  0  0  0  0  0  0
   -0.1277    2.6705    1.4501 H   0  0  0  0  0  0  0  0  0  0  0  0
    3.6792   -1.9600   -0.7797 C   0  0  0  0  0  0  0  0  0  0  0  0
    3.4650   -2.8665   -1.3663 H   0  0  0  0  0  0  0  0  0  0  0  0
    4.8957   -1.8408   -0.0873 C   0  0  0  0  0  0  0  0  0  0  0  0
    5.6296   -2.6608   -0.1147 H   0  0  0  0  0  0  0  0  0  0  0  0
   -1.3441    3.9972   -0.8272 O   0  0  0  0  0  0  0  0  0  0  0  0
    1.4259    3.5204    0.1334 C   0  0  0  0  0  0  0  0  0  0  0  0
    1.3997    3.9674   -0.8826 H   0  0  0  0  0  0  0  0  0  0  0  0
    1.5813    4.3157    0.8834 H   0  0  0  0  0  0  0  0  0  0  0  0
    4.2558    0.3840    0.6526 C   0  0  0  0  0  0  0  0  0  0  0  0
    4.4749    1.3114    1.2007 H   0  0  0  0  0  0  0  0  0  0  0  0
    3.0176    0.2490   -0.0161 C   0  0  0  0  0  0  0  0  0  0  0  0
    2.5499    2.5925    0.2118 O   0  0  0  0  0  0  0  0  0  0  0  0
    2.0442    1.3442    0.0815 C   0  0  2  0  0  3  0  0  0  0  0  0
    5.1838   -0.6641    0.6241 C   0  0  0  0  0  0  0  0  0  0  0  0
    6.1410   -0.5602    1.1568 H   0  0  0  0  0  0  0  0  0  0  0  0
    2.7358   -0.9242   -0.7482 C   0  0  0  0  0  0  0  0  0  0  0  0
    1.8016   -0.9806   -1.3312 H   0  0  0  0  0  0  0  0  0  0  0  0
    0.7424    1.2723    0.1488 N   0  0  0  0  0  2  0  0  0  0  0  0
  1  2  1  0  0  0  0
  2  3  1  0  0  0  0
  3  4  1  1  0  0  0
  5 20  2  0  0  0  0
  5  7  1  0  0  0  0
  6  5  1  0  0  0  0
  7 18  2  0  0  0  0
  8  7  1  0  0  0  0
  9  2  2  0  0  0  0
 10 16  1  0  0  0  0
 10  3  1  0  0  0  0
 10 12  1  0  0  0  0
 11 10  1  0  0  0  0
 13 14  1  0  0  0  0
 15 13  2  0  0  0  0
 17 15  1  1  0  0  0
 17 22  1  0  0  0  0
 17 16  1  0  0  0  0
 18 13  1  0  0  0  0
 18 19  1  0  0  0  0
 20 15  1  0  0  0  0
 21 20  1  0  0  0  0
 22  3  1  0  0  0  0
M  CHG  1   1  -1
M  END
