1,2
q = -1.0, confidence = 0.006

 19 19  0  0  1  0  0  0  0  0999 V2000
   -0.3264    0.5825    1.5258 O   0  0  0  0  0  1  0  0  0  0  0  0
   -0.4370    1.2062   -1.0017 N   0  0  0  0  0  2  0  0  0  0  0  0
   -2.5098    1.4824    1.5557 O   0  0  0  0  0  0  0  0  0  0  0  0
   -0.5070    1.6802   -2.3908 C   0  0  0  0  0  0  0  0  0  0  0  0
   -0.6888    0.8244   -3.0709 H   0  0  0  0  0  0  0  0  0  0  0  0
    0.4888    2.0940   -2.6652 H   0  0  0  0  0  0  0  0  0  0  0  0
   -1.6252    2.7480   -2.3938 C   0  0  0  0  0  0  0  0  0  0  0  0
   -2.5842    2.2834   -2.7011 H   0  0  0  0  0  0  0  0  0  0  0  0
   -1.4231    3.5833   -3.0911 H   0  0  0  0  0  0  0  0  0  0  0  0
   -1.7135    3.1844   -0.9124 C   0  0  0  0  0  0  0  0  0  0  0  0
   -1.1333    4.1126   -0.7012 H   0  0  0  0  0  0  0  0  0  0  0  0
   -2.7438    3.3650   -0.5463 H   0  0  0  0  0  0  0  0  0  0  0  0
   -1.0780    2.0161   -0.2147 C   0  0  1  0  0  3  0  0  0  0  0  0
   -1.0977    1.6621    1.2592 C   0  0  2  0  0  0  0  0  0  0  0  0
   -0.7741    2.5656    1.8617 H   0  0  0  0  0  0  0  0  0  0  0  0
   -2.7503    1.3299    2.9397 C   0  0  0  0  0  0  0  0  0  0  0  0
   -3.8396    1.1830    3.0766 H   0  0  0  0  0  0  0  0  0  0  0  0
   -2.4367    2.2366    3.5130 H   0  0  0  0  0  0  0  0  0  0  0  0
   -2.2071    0.4548    3.3619 H   0  0  0  0  0  0  0  0  0  0  0  0
  2 13  1  0  0  0  0
  3 16  1  0  0  0  0
  4  2  1  0  0  0  0
  5  4  1  0  0  0  0
  6  4  1  0  0  0  0
  7  4  1  0  0  0  0
  7 10  1  0  0  0  0
  8  7  1  0  0  0  0
  9  7  1  0  0  0  0
 10 11  1  0  0  0  0
 10 12  1  0  0  0  0
 10 13  1  0  0  0  0
 13 14  1  6  0  0  0
 14  1  1  0  0  0  0
 14  3  1  0  0  0  0
 14 15  1  1  0  0  0
 16 17  1  0  0  0  0
 16 19  1  0  0  0  0
 16 18  1  0  0  0  0
M  END
