1,6
q = -1.0, confidence = 0.014

 33 34  0  0  1  0  0  0  0  0999 V2000
    0.4230    0.5109    1.1841 O   0  5  0  0  0  0  0  0  0  0  0  0
   -1.5348   -3.7213   -0.9838 O   0  0  0  0  0  0  0  0  0  0  0  0
   -1.7843   -4.3377   -1.6969 H   0  0  0  0  0  0  0  0  0  0  0  0
    0.8784   -1.6846    1.9304 C   0  0  0  0  0  0  0  0  0  0  0  0
    1.5435   -2.3232    2.5236 H   0  0  0  0  0  0  0  0  0  0  0  0
   -1.2411   -1.6088    0.7594 N   0  0  0  0  0  2  0  0  0  0  0  0
   -0.3739   -2.2462    1.5602 C   0  0  2  0  0  3  0  0  0  0  0  0
   -2.6722   -3.2349   -0.4130 C   0  0  0  0  0  0  0  0  0  0  0  0
   -3.9520   -3.7390   -0.7029 C   0  0  0  0  0  0  0  0  0  0  0  0
   -4.0520   -4.5611   -1.4309 H   0  0  0  0  0  0  0  0  0  0  0  0
   -0.7460   -3.5959    2.1212 C   0  0  0  0  0  0  0  0  0  0  0  0
   -0.7950   -4.3429    1.3022 H   0  0  0  0  0  0  0  0  0  0  0  0
   -1.7486   -3.5679    2.5932 H   0  0  0  0  0  0  0  0  0  0  0  0
   -0.0068   -3.9330    2.8696 H   0  0  0  0  0  0  0  0  0  0  0  0
   -2.5335   -2.1778    0.5215 C   0  0  0  0  0  0  0  0  0  0  0  0
   -4.9509   -2.1574    0.8499 C   0  0  0  0  0  0  0  0  0  0  0  0
   -5.8375   -1.7298    1.3402 H   0  0  0  0  0  0  0  0  0  0  0  0
   -3.6779   -1.6451    1.1394 C   0  0  0  0  0  0  0  0  0  0  0  0
   -3.5450   -0.7990    1.8266 H   0  0  0  0  0  0  0  0  0  0  0  0
   -5.0861   -3.2036   -0.0753 C   0  0  0  0  0  0  0  0  0  0  0  0
   -6.0802   -3.6085   -0.3169 H   0  0  0  0  0  0  0  0  0  0  0  0
    2.6751    1.6240    2.2712 C   0  0  0  0  0  0  0  0  0  0  0  0
    1.8308    2.2464    1.9427 H   0  0  0  0  0  0  0  0  0  0  0  0
    2.5143    0.2196    2.2470 C   0  0  0  0  0  0  0  0  0  0  0  0
    3.5998   -0.5934    2.6444 C   0  0  0  0  0  0  0  0  0  0  0  0
    3.5138   -1.6886    2.5998 H   0  0  0  0  0  0  0  0  0  0  0  0
    1.2275   -0.3401    1.7574 C   0  0  0  0  0  0  0  0  0  0  0  0
    4.9483    1.3798    3.0973 C   0  0  0  0  0  0  0  0  0  0  0  0
    5.8971    1.8298    3.4267 H   0  0  0  0  0  0  0  0  0  0  0  0
    3.8771    2.1978    2.7004 C   0  0  0  0  0  0  0  0  0  0  0  0
    3.9835    3.2933    2.7219 H   0  0  0  0  0  0  0  0  0  0  0  0
    4.8055   -0.0176    3.0627 C   0  0  0  0  0  0  0  0  0  0  0  0
    5.6452   -0.6650    3.3578 H   0  0  0  0  0  0  0  0  0  0  0  0
  1 27  1  0  0  0  0
  2  8  1  0  0  0  0
  3  2  1  0  0  0  0
  4  5  1  0  0  0  0
  7  6  1  1  0  0  0
  7  4  1  0  0  0  0
  7 11  1  0  0  0  0
  8 15  1  0  0  0  0
  9  8  2  0  0  0  0
  9 20  1  0  0  0  0
 10  9  1  0  0  0  0
 11 13  1  0  0  0  0
 11 14  1  0  0  0  0
 12 11  1  0  0  0  0
 15  6  1  0  0  0  0
 15 18  2  0  0  0  0
 16 18  1  0  0  0  0
 16 17  1  0  0  0  0
 18 19  1  0  0  0  0
 20 16  2  0  0  0  0
 21 20  1  0  0  0  0
 22 30  1  0  0  0  0
 23 22  1  0  0  0  0
 24 22  2  0  0  0  0
 24 25  1  0  0  0  0
 25 32  2  0  0  0  0
 26 25  1  0  0  0  0
 27  4  2  0  0  0  0
 27 24  1  0  0  0  0
 28 29  1  0  0  0  0
 30 31  1  0  0  0  0
 30 28  2  0  0  0  0
 32 28  1  0  0  0  0
 32 33  1  0  0  0  0
M  CHG  1   1  -1
M  END
