1,2
q = -1.0

 23 24  0  0  0  0  0  0  0  0999 V2000
    0.2692   -1.2507   -1.2825 O   0  5  0  0  0  0  0  0  0  0  0  0
    1.7682    0.6140   -0.3512 N   0  0  0  0  0  2  0  0  0  0  0  0
    1.5572   -1.4339   -1.5220 C   0  0  0  0  0  0  0  0  0  0  0  0
    2.4464   -0.4331   -1.0209 C   0  0  0  0  0  0  0  0  0  0  0  0
    2.0733   -2.5342   -2.2404 C   0  0  0  0  0  0  0  0  0  0  0  0
    1.3705   -3.2920   -2.6144 H   0  0  0  0  0  0  0  0  0  0  0  0
    1.8064    2.9733    0.3579 C   0  0  0  0  0  0  0  0  0  0  0  0
    3.4526   -2.6368   -2.4492 C   0  0  0  0  0  0  0  0  0  0  0  0
    3.8561   -3.4988   -3.0020 H   0  0  0  0  0  0  0  0  0  0  0  0
    0.5081    3.5215    0.2375 C   0  0  0  0  0  0  0  0  0  0  0  0
   -0.3513    3.0040   -0.2032 H   0  0  0  0  0  0  0  0  0  0  0  0
    2.3959    1.7425   -0.0625 C   0  0  0  0  0  3  0  0  0  0  0  0
    3.4956    1.7609   -0.1854 H   0  0  0  0  0  0  0  0  0  0  0  0
    3.8298   -0.5452   -1.2546 C   0  0  0  0  0  0  0  0  0  0  0  0
    4.5293    0.2178   -0.8823 H   0  0  0  0  0  0  0  0  0  0  0  0
    4.3305   -1.6503   -1.9562 C   0  0  0  0  0  0  0  0  0  0  0  0
    5.4139   -1.7439   -2.1208 H   0  0  0  0  0  0  0  0  0  0  0  0
    2.6117    3.9790    0.8891 N   0  0  0  0  0  0  0  0  0  0  0  0
    3.5952    3.8623    1.1294 H   0  0  0  0  0  0  0  0  0  0  0  0
    0.5598    4.8510    0.7115 C   0  0  0  0  0  0  0  0  0  0  0  0
   -0.2697    5.5653    0.7494 H   0  0  0  0  0  0  0  0  0  0  0  0
    1.8745    5.1051    1.1214 C   0  0  0  0  0  0  0  0  0  0  0  0
    2.3269    6.0015    1.5594 H   0  0  0  0  0  0  0  0  0  0  0  0
  2 12  1  0  0  0  0
  3  1  1  0  0  0  0
  3  4  1  0  0  0  0
  4  2  1  0  0  0  0
  5  3  2  0  0  0  0
  6  5  1  0  0  0  0
  7 18  1  0  0  0  0
  8  5  1  0  0  0  0
  8 16  2  0  0  0  0
  9  8  1  0  0  0  0
 10  7  2  0  0  0  0
 10 20  1  0  0  0  0
 11 10  1  0  0  0  0
 12  7  1  0  0  0  0
 13 12  1  0  0  0  0
 14  4  2  0  0  0  0
 14 15  1  0  0  0  0
 16 14  1  0  0  0  0
 17 16  1  0  0  0  0
 18 22  1  0  0  0  0
 18 19  1  0  0  0  0
 20 21  1  0  0  0  0
 20 22  2  0  0  0  0
 22 23  1  0  0  0  0
M  CHG  1   1  -1
M  END
