32,33
q = -1.0

 35 36  0  0  1  0  0  0  0  0999 V2000
    1.6357   -0.7356   -2.2977 C   0  0  0  0  0  0  0  0  0  0  0  0
    1.1706   -1.7558   -1.2562 C   0  0  1  0  0  3  0  0  0  0  0  0
    1.6906   -3.1611   -1.3857 C   0  0  0  0  0  0  0  0  0  0  0  0
    1.8973   -3.3181   -2.4622 H   0  0  0  0  0  0  0  0  0  0  0  0
    0.9608   -3.9199   -1.0448 H   0  0  0  0  0  0  0  0  0  0  0  0
    2.9881   -3.2601   -0.5887 C   0  0  0  0  0  0  0  0  0  0  0  0
    4.1600   -2.6399   -1.0721 C   0  0  0  0  0  0  0  0  0  0  0  0
    4.1328   -2.1342   -2.0494 H   0  0  0  0  0  0  0  0  0  0  0  0
    5.3416   -2.6740   -0.3174 C   0  0  0  0  0  0  0  0  0  0  0  0
    6.2521   -2.1995   -0.7135 H   0  0  0  0  0  0  0  0  0  0  0  0
    5.3689   -3.3171    0.9316 C   0  0  0  0  0  0  0  0  0  0  0  0
    6.3001   -3.3520    1.5172 H   0  0  0  0  0  0  0  0  0  0  0  0
    4.2069   -3.9367    1.4193 C   0  0  0  0  0  0  0  0  0  0  0  0
    4.2246   -4.4634    2.3854 H   0  0  0  0  0  0  0  0  0  0  0  0
    3.0236   -3.9066    0.6634 C   0  0  0  0  0  0  0  0  0  0  0  0
    2.1264   -4.4222    1.0423 H   0  0  0  0  0  0  0  0  0  0  0  0
   -0.1754   -2.1246    0.7316 C   0  0  0  0  0  0  0  0  0  0  0  0
    0.0444   -1.6725    1.7197 H   0  0  0  0  0  0  0  0  0  0  0  0
    0.2854   -3.1327    0.7276 H   0  0  0  0  0  0  0  0  0  0  0  0
   -1.6762   -2.2397    0.5510 C   0  0  0  0  0  0  0  0  0  0  0  0
   -2.2223   -2.5165   -0.7187 C   0  0  0  0  0  0  0  0  0  0  0  0
   -1.5571   -2.6453   -1.5861 H   0  0  0  0  0  0  0  0  0  0  0  0
   -3.6084   -2.6024   -0.8868 C   0  0  0  0  0  0  0  0  0  0  0  0
   -4.0355   -2.8085   -1.8814 H   0  0  0  0  0  0  0  0  0  0  0  0
   -4.4685   -2.3952    0.2094 C   0  0  0  0  0  0  0  0  0  0  0  0
   -3.9246   -2.1460    1.4858 C   0  0  0  0  0  0  0  0  0  0  0  0
   -4.6187   -1.9927    2.3262 H   0  0  0  0  0  0  0  0  0  0  0  0
   -2.5398   -2.0761    1.6537 C   0  0  0  0  0  0  0  0  0  0  0  0
   -2.1158   -1.8640    2.6480 H   0  0  0  0  0  0  0  0  0  0  0  0
   -5.9443   -2.3828    0.0202 C   0  0  0  0  0  0  0  0  0  0  0  0
   -6.2879   -2.6757   -1.0173 H   0  0  0  0  0  0  0  0  0  0  0  0
    0.4219   -1.2732   -0.2996 N   0  0  0  0  0  2  0  0  0  0  0  0
    1.2227    0.4855   -2.0565 O   0  5  0  0  0  0  0  0  0  0  0  0
    2.2979   -1.0979   -3.2663 O   0  0  0  0  0  0  0  0  0  0  0  0
   -6.7391   -2.0646    0.8874 O   0  0  0  0  0  0  0  0  0  0  0  0
  1 33  1  0  0  0  0
  2  1  1  1  0  0  0
  2 32  1  0  0  0  0
  3  2  1  0  0  0  0
  3  5  1  0  0  0  0
  3  6  1  0  0  0  0
  4  3  1  0  0  0  0
  6 15  1  0  0  0  0
  7  6  2  0  0  0  0
  7  9  1  0  0  0  0
  8  7  1  0  0  0  0
  9 11  2  0  0  0  0
 10  9  1  0  0  0  0
 11 13  1  0  0  0  0
 11 12  1  0  0  0  0
 13 14  1  0  0  0  0
 15 16  1  0  0  0  0
 15 13  2  0  0  0  0
 17 18  1  0  0  0  0
 19 17  1  0  0  0  0
 20 17  1  0  0  0  0
 20 28  1  0  0  0  0
 21 20  2  0  0  0  0
 22 21  1  0  0  0  0
 23 21  1  0  0  0  0
 23 25  2  0  0  0  0
 24 23  1  0  0  0  0
 25 26  1  0  0  0  0
 26 28  2  0  0  0  0
 26 27  1  0  0  0  0
 28 29  1  0  0  0  0
 30 25  1  0  0  0  0
 30 35  2  0  0  0  0
 31 30  1  0  0  0  0
 32 17  1  0  0  0  0
 34  1  2  0  0  0  0
M  CHG  1  33  -1
M  END
