1,3
q = -1.0, confidence = 0.11

 33 33  0  0  1  0  0  0  0  0999 V2000
    0.9905    0.5317    0.8007 O   0  5  0  0  0  0  0  0  0  0  0  0
    5.1610   -1.6558   -1.8730 O   0  0  0  0  0  0  0  0  0  0  0  0
    0.3941   -0.9412   -1.2784 N   0  0  0  0  0  2  0  0  0  0  0  0
    5.6864   -0.0576    0.0842 N   0  0  0  0  0  0  0  0  0  0  0  0
    6.2471   -0.6292   -0.5832 H   0  0  0  0  0  0  0  0  0  0  0  0
    2.0103    0.0607    0.1609 C   0  0  0  0  0  0  0  0  0  0  0  0
    3.3264    0.3403    0.5695 C   0  0  0  0  0  0  0  0  0  0  0  0
    3.4732    0.9955    1.4389 H   0  0  0  0  0  0  0  0  0  0  0  0
    4.3891   -0.2315   -0.1412 C   0  0  2  0  0  3  0  0  0  0  0  0
    4.1476   -1.1754   -1.3246 C   0  0  0  0  0  0  0  0  0  0  0  0
    2.7931   -1.4264   -1.6881 C   0  0  0  0  0  0  0  0  0  0  0  0
    2.6493   -2.1229   -2.5223 H   0  0  0  0  0  0  0  0  0  0  0  0
    1.7188   -0.8214   -1.0121 C   0  0  0  0  0  0  0  0  0  0  0  0
    6.3217    0.7276    1.1373 C   0  0  0  0  0  0  0  0  0  0  0  0
    5.6843    1.6254    1.2968 H   0  0  0  0  0  0  0  0  0  0  0  0
    7.7016    1.1825    0.6602 C   0  0  0  0  0  0  0  0  0  0  0  0
    8.3600    0.3090    0.4719 H   0  0  0  0  0  0  0  0  0  0  0  0
    8.1887    1.8094    1.4314 H   0  0  0  0  0  0  0  0  0  0  0  0
    7.6308    1.7732   -0.2740 H   0  0  0  0  0  0  0  0  0  0  0  0
    6.3844   -0.0691    2.4490 C   0  0  0  0  0  0  0  0  0  0  0  0
    5.3749   -0.3948    2.7687 H   0  0  0  0  0  0  0  0  0  0  0  0
    6.8205    0.5521    3.2561 H   0  0  0  0  0  0  0  0  0  0  0  0
    7.0169   -0.9717    2.3275 H   0  0  0  0  0  0  0  0  0  0  0  0
    0.0308   -1.8744   -2.3601 C   0  0  0  0  0  0  0  0  0  0  0  0
    0.8336   -1.7976   -3.1265 H   0  0  0  0  0  0  0  0  0  0  0  0
   -1.2771   -1.5303   -3.0745 C   0  0  0  0  0  0  0  0  0  0  0  0
   -2.1658   -1.8248   -2.4873 H   0  0  0  0  0  0  0  0  0  0  0  0
   -1.3222   -2.0842   -4.0327 H   0  0  0  0  0  0  0  0  0  0  0  0
   -1.3554   -0.4505   -3.3077 H   0  0  0  0  0  0  0  0  0  0  0  0
    0.0174   -3.3219   -1.8414 C   0  0  0  0  0  0  0  0  0  0  0  0
    0.9766   -3.5823   -1.3536 H   0  0  0  0  0  0  0  0  0  0  0  0
   -0.1491   -4.0327   -2.6754 H   0  0  0  0  0  0  0  0  0  0  0  0
   -0.7983   -3.4636   -1.1040 H   0  0  0  0  0  0  0  0  0  0  0  0
  2 10  2  0  0  0  0
  3 13  1  0  0  0  0
  4 14  1  0  0  0  0
  5  4  1  0  0  0  0
  6  7  2  0  0  0  0
  6  1  1  0  0  0  0
  7  8  1  0  0  0  0
  9  4  1  1  0  0  0
  9  7  1  0  0  0  0
 10  9  1  0  0  0  0
 11 10  1  0  0  0  0
 11 13  2  0  0  0  0
 12 11  1  0  0  0  0
 13  6  1  0  0  0  0
 14 15  1  0  0  0  0
 14 20  1  0  0  0  0
 16 14  1  0  0  0  0
 16 18  1  0  0  0  0
 17 16  1  0  0  0  0
 19 16  1  0  0  0  0
 20 21  1  0  0  0  0
 20 22  1  0  0  0  0
 23 20  1  0  0  0  0
 24 30  1  0  0  0  0
 24  3  1  0  0  0  0
 25 24  1  0  0  0  0
 26 27  1  0  0  0  0
 26 24  1  0  0  0  0
 28 26  1  0  0  0  0
 29 26  1  0  0  0  0
 30 31  1  0  0  0  0
 30 33  1  0  0  0  0
 32 30  1  0  0  0  0
M  CHG  1   1  -1
M  END
