3,4
q = -1.0, confidence = 0.0

 22 23  0  0  0  0  0  0  0  0999 V2000
    3.6410    2.0858   -2.0639 Br  0  0  0  0  0  0  0  0  0  0  0  0
    7.1045   -1.6319    0.2192 Cl  0  0  0  0  0  0  0  0  0  0  0  0
    1.6346    0.5039   -0.4928 O   0  5  0  0  0  0  0  0  0  0  0  0
    0.7989   -1.5939    1.3971 N   0  0  0  0  0  2  0  0  0  0  0  0
    3.0889   -1.1387    0.5621 C   0  0  0  0  0  0  0  0  0  0  0  0
    2.8098   -0.0052   -0.2979 C   0  0  0  0  0  0  0  0  0  0  0  0
    3.9515    0.5788   -0.9539 C   0  0  0  0  0  0  0  0  0  0  0  0
    5.2451    0.0921   -0.8006 C   0  0  0  0  0  0  0  0  0  0  0  0
    6.0836    0.5718   -1.3232 H   0  0  0  0  0  0  0  0  0  0  0  0
    5.4771   -1.0241    0.0355 C   0  0  0  0  0  0  0  0  0  0  0  0
    4.4198   -1.6264    0.7028 C   0  0  0  0  0  0  0  0  0  0  0  0
    4.6099   -2.4929    1.3532 H   0  0  0  0  0  0  0  0  0  0  0  0
    2.0799   -1.8490    1.3109 C   0  0  0  0  0  3  0  0  0  0  0  0
    2.4613   -2.7204    1.8870 H   0  0  0  0  0  0  0  0  0  0  0  0
   -0.0195   -2.4584    2.1938 C   0  0  0  0  0  0  0  0  0  0  0  0
    0.5506   -3.1734    2.8157 H   0  0  0  0  0  0  0  0  0  0  0  0
   -1.3477   -2.9359    1.6311 C   0  0  0  0  0  0  0  0  0  0  0  0
   -1.6346   -3.9756    1.8512 H   0  0  0  0  0  0  0  0  0  0  0  0
   -1.6189   -2.5734    0.6266 H   0  0  0  0  0  0  0  0  0  0  0  0
   -1.3257   -1.9320    2.7508 C   0  0  0  0  0  0  0  0  0  0  0  0
   -1.6057   -2.2439    3.7687 H   0  0  0  0  0  0  0  0  0  0  0  0
   -1.5884   -0.8898    2.5076 H   0  0  0  0  0  0  0  0  0  0  0  0
  1  7  1  0  0  0  0
  3  6  1  0  0  0  0
  4 15  1  0  0  0  0
  5 11  1  0  0  0  0
  5 13  1  0  0  0  0
  6  5  2  0  0  0  0
  7  8  2  0  0  0  0
  7  6  1  0  0  0  0
  8 10  1  0  0  0  0
  9  8  1  0  0  0  0
 10  2  1  0  0  0  0
 10 11  2  0  0  0  0
 11 12  1  0  0  0  0
 13  4  1  0  0  0  0
 13 14  1  0  0  0  0
 15 20  1  0  0  0  0
 15 16  1  0  0  0  0
 17 18  1  0  0  0  0
 17 15  1  0  0  0  0
 17 20  1  0  0  0  0
 19 17  1  0  0  0  0
 20 21  1  0  0  0  0
 22 20  1  0  0  0  0
M  CHG  1   3  -1
M  END
