2,6
q = 0.0, confidence = 0.972

 48 50  0  0  0  0  0  0  0  0999 V2000
   -2.5956    7.2733   -0.1334 Br  0  0  0  0  0  0  0  0  0  0  0  0
   -0.0269   -1.7394   -0.0898 O   0  5  0  0  0  0  0  0  0  0  0  0
    1.5108    2.1827    0.1320 O   0  0  0  0  0  0  0  0  0  0  0  0
    3.5987    1.4165    0.0948 O   0  0  0  0  0  0  0  0  0  0  0  0
   -0.5414    0.4712    0.0666 N   0  0  0  0  0  0  0  0  0  0  0  0
   -1.8735    0.1561    0.0472 N   0  0  0  0  0  2  0  0  0  0  0  0
   -2.7821    1.0985    0.0215 C   0  0  0  0  0  3  0  0  0  0  0  0
   -3.8086    0.6848    0.0978 H   0  0  0  0  0  0  0  0  0  0  0  0
    0.3640   -0.5392    0.0043 C   0  0  0  0  0  0  0  0  0  0  0  0
    1.7936   -0.2043    0.0353 C   0  0  0  0  0  0  0  0  0  0  0  0
    2.2290    1.1894    0.0901 C   0  0  0  0  0  0  0  0  0  0  0  0
    4.5301    0.4197    0.0553 C   0  0  0  0  0  0  0  0  0  0  0  0
    4.1229   -0.9453    0.0118 C   0  0  0  0  0  0  0  0  0  0  0  0
    5.1558   -1.9215   -0.0192 C   0  0  0  0  0  0  0  0  0  0  0  0
    4.8746   -2.9847   -0.0594 H   0  0  0  0  0  0  0  0  0  0  0  0
    6.4931   -1.5651   -0.0101 C   0  0  0  0  0  0  0  0  0  0  0  0
    7.2492   -2.3579   -0.0538 H   0  0  0  0  0  0  0  0  0  0  0  0
    6.8953   -0.1851    0.0341 C   0  0  0  0  0  0  0  0  0  0  0  0
    8.2216    0.1690    0.0397 N   0  0  0  0  0  0  0  0  0  0  0  0
    8.6409    1.5686   -0.0103 C   0  0  0  0  0  0  0  0  0  0  0  0
    7.9512    2.1311   -0.6720 H   0  0  0  0  0  0  0  0  0  0  0  0
    9.6279    1.5997   -0.5168 H   0  0  0  0  0  0  0  0  0  0  0  0
    8.7346    2.2310    1.3663 C   0  0  0  0  0  0  0  0  0  0  0  0
    9.0761    3.2810    1.2702 H   0  0  0  0  0  0  0  0  0  0  0  0
    7.7530    2.2339    1.8802 H   0  0  0  0  0  0  0  0  0  0  0  0
    9.4554    1.6969    2.0178 H   0  0  0  0  0  0  0  0  0  0  0  0
    9.2902   -0.8268    0.0989 C   0  0  0  0  0  0  0  0  0  0  0  0
    8.9734   -1.6656    0.7511 H   0  0  0  0  0  0  0  0  0  0  0  0
   10.1492   -0.3569    0.6213 H   0  0  0  0  0  0  0  0  0  0  0  0
    9.7275   -1.3404   -1.2749 C   0  0  0  0  0  0  0  0  0  0  0  0
   10.5559   -2.0699   -1.1732 H   0  0  0  0  0  0  0  0  0  0  0  0
    8.8907   -1.8389   -1.8032 H   0  0  0  0  0  0  0  0  0  0  0  0
   10.0831   -0.5092   -1.9168 H   0  0  0  0  0  0  0  0  0  0  0  0
    5.8687    0.8008    0.0681 C   0  0  0  0  0  0  0  0  0  0  0  0
    6.0858    1.8733    0.1230 H   0  0  0  0  0  0  0  0  0  0  0  0
    2.7350   -1.2247    0.0000 C   0  0  0  0  0  3  0  0  0  0  0  0
    2.3758   -2.2644   -0.0387 H   0  0  0  0  0  0  0  0  0  0  0  0
   -2.6382    2.5488   -0.0491 C   0  0  0  0  0  0  0  0  0  0  0  0
   -3.7376    3.3034    0.4405 C   0  0  0  0  0  0  0  0  0  0  0  0
   -4.6075    2.7672    0.8493 H   0  0  0  0  0  0  0  0  0  0  0  0
   -3.7318    4.6996    0.4254 C   0  0  0  0  0  0  0  0  0  0  0  0
   -4.5856    5.2676    0.8205 H   0  0  0  0  0  0  0  0  0  0  0  0
   -2.6197    5.3738   -0.1084 C   0  0  0  0  0  0  0  0  0  0  0  0
   -1.5313    4.6587   -0.6338 C   0  0  0  0  0  0  0  0  0  0  0  0
   -0.6758    5.1933   -1.0691 H   0  0  0  0  0  0  0  0  0  0  0  0
   -1.5430    3.2600   -0.6051 C   0  0  0  0  0  0  0  0  0  0  0  0
   -0.6910    2.7377   -1.0597 H   0  0  0  0  0  0  0  0  0  0  0  0
   -0.1855    1.4362    0.2050 H   0  0  0  0  0  0  0  0  0  0  0  0
  1 43  1  0  0  0  0
  2  9  1  0  0  0  0
  5 48  1  0  0  0  0
  6  5  1  0  0  0  0
  7  6  1  0  0  0  0
  7  8  1  0  0  0  0
  9 10  2  0  0  0  0
  9  5  1  0  0  0  0
 10 11  1  0  0  0  0
 11  4  1  0  0  0  0
 11  3  2  0  0  0  0
 12 34  1  0  0  0  0
 12  4  1  0  0  0  0
 13 12  2  0  0  0  0
 14 16  2  0  0  0  0
 14 13  1  0  0  0  0
 15 14  1  0  0  0  0
 16 18  1  0  0  0  0
 17 16  1  0  0  0  0
 18 19  1  0  0  0  0
 18 34  2  0  0  0  0
 19 27  1  0  0  0  0
 20 19  1  0  0  0  0
 20 23  1  0  0  0  0
 21 20  1  0  0  0  0
 22 20  1  0  0  0  0
 23 25  1  0  0  0  0
 23 26  1  0  0  0  0
 24 23  1  0  0  0  0
 27 29  1  0  0  0  0
 27 28  1  0  0  0  0
 30 31  1  0  0  0  0
 30 27  1  0  0  0  0
 32 30  1  0  0  0  0
 33 30  1  0  0  0  0
 34 35  1  0  0  0  0
 36 13  1  0  0  0  0
 36 10  1  0  0  0  0
 37 36  1  0  0  0  0
 38  7  1  0  0  0  0
 38 39  1  0  0  0  0
 39 40  1  0  0  0  0
 41 39  2  0  0  0  0
 41 42  1  0  0  0  0
 43 41  1  0  0  0  0
 44 46  1  0  0  0  0
 44 43  2  0  0  0  0
 45 44  1  0  0  0  0
 46 38  2  0  0  0  0
 47 46  1  0  0  0  0
M  CHG  1   2  -1
M  END
