1,5
q = -1.0

 22 22  0  0  1  0  0  0  0  0999 V2000
   -0.5094   -1.7797   -0.2297 O   0  5  0  0  0  0  0  0  0  0  0  0
   -2.2484   -3.1769   -0.2228 O   0  0  0  0  0  0  0  0  0  0  0  0
   -4.7482   -3.0375    0.0110 O   0  0  0  0  0  0  0  0  0  0  0  0
   -6.2805   -1.4414    0.2619 O   0  0  0  0  0  0  0  0  0  0  0  0
   -1.8466    0.3345   -0.0021 N   0  0  0  0  0  2  0  0  0  0  0  0
   -1.7894   -2.0272   -0.1520 C   0  0  0  0  0  0  0  0  0  0  0  0
   -2.6336   -0.7824   -0.0056 C   0  0  2  0  0  3  0  0  0  0  0  0
   -4.0388   -0.6687    0.1000 C   0  0  0  0  0  0  0  0  0  0  0  0
   -5.1140   -1.7774    0.1308 C   0  0  0  0  0  0  0  0  0  0  0  0
   -4.5694    0.6329    0.2028 C   0  0  0  0  0  0  0  0  0  0  0  0
   -5.6651    0.7025    0.2918 H   0  0  0  0  0  0  0  0  0  0  0  0
   -3.7552    1.7741    0.2024 C   0  0  0  0  0  0  0  0  0  0  0  0
   -2.3704    1.5671    0.0964 C   0  0  0  0  0  0  0  0  0  0  0  0
   -1.6451    2.3959    0.1008 H   0  0  0  0  0  0  0  0  0  0  0  0
   -4.3287    3.1666    0.2615 C   0  0  0  0  0  0  0  0  0  0  0  0
   -5.1955    3.1676    0.9543 H   0  0  0  0  0  0  0  0  0  0  0  0
   -3.5739    3.8569    0.6914 H   0  0  0  0  0  0  0  0  0  0  0  0
   -4.7710    3.6725   -1.1211 C   0  0  0  0  0  0  0  0  0  0  0  0
   -3.9164    3.7082   -1.8266 H   0  0  0  0  0  0  0  0  0  0  0  0
   -5.1973    4.6925   -1.0485 H   0  0  0  0  0  0  0  0  0  0  0  0
   -5.5430    3.0096   -1.5613 H   0  0  0  0  0  0  0  0  0  0  0  0
   -3.7314   -3.1513   -0.0902 H   0  0  0  0  0  0  0  0  0  0  0  0
  1  6  1  0  0  0  0
  2  6  2  0  0  0  0
  3  9  1  0  0  0  0
  5 13  1  0  0  0  0
  7  6  1  6  0  0  0
  7  5  1  0  0  0  0
  7  8  1  0  0  0  0
  8  9  1  0  0  0  0
  8 10  2  0  0  0  0
  9  4  2  0  0  0  0
 10 11  1  0  0  0  0
 12 10  1  0  0  0  0
 12 15  1  0  0  0  0
 13 14  1  0  0  0  0
 13 12  2  0  0  0  0
 15 17  1  0  0  0  0
 15 16  1  0  0  0  0
 18 20  1  0  0  0  0
 18 15  1  0  0  0  0
 19 18  1  0  0  0  0
 21 18  1  0  0  0  0
 22  3  1  0  0  0  0
M  CHG  1   1  -1
M  END
