2,3
q = -1.0

 27 28  0  0  0  0  0  0  0  0999 V2000
   -0.6745   -1.8268    1.7946 O   0  0  0  0  0  1  0  0  0  0  0  0
   -1.5987    0.2526   -1.2455 O   0  5  0  0  0  0  0  0  0  0  0  0
   -1.0823   -1.1563    0.8422 N   0  0  0  0  0  2  0  0  0  0  0  0
   -2.3956   -1.1551    0.4433 C   0  0  0  0  0  0  0  0  0  0  0  0
   -3.4306   -1.8169    1.2634 C   0  0  0  0  0  0  0  0  0  0  0  0
   -3.2953   -3.1628    1.6684 C   0  0  0  0  0  0  0  0  0  0  0  0
   -2.4025   -3.7291    1.3695 H   0  0  0  0  0  0  0  0  0  0  0  0
   -4.2923   -3.7713    2.4433 C   0  0  0  0  0  0  0  0  0  0  0  0
   -4.1787   -4.8226    2.7489 H   0  0  0  0  0  0  0  0  0  0  0  0
   -5.4305   -3.0456    2.8309 C   0  0  0  0  0  0  0  0  0  0  0  0
   -6.2110   -3.5263    3.4402 H   0  0  0  0  0  0  0  0  0  0  0  0
   -5.5636   -1.7011    2.4477 C   0  0  0  0  0  0  0  0  0  0  0  0
   -6.4452   -1.1215    2.7610 H   0  0  0  0  0  0  0  0  0  0  0  0
   -4.5687   -1.0882    1.6753 C   0  0  0  0  0  0  0  0  0  0  0  0
   -4.6617   -0.0305    1.3879 H   0  0  0  0  0  0  0  0  0  0  0  0
   -2.5923   -0.3856   -0.7506 C   0  0  0  0  0  0  0  0  0  0  0  0
   -3.8805   -0.2909   -1.4804 C   0  0  0  0  0  0  0  0  0  0  0  0
   -4.8149   -1.3500   -1.5174 C   0  0  0  0  0  0  0  0  0  0  0  0
   -4.6085   -2.2834   -0.9765 H   0  0  0  0  0  0  0  0  0  0  0  0
   -5.9940   -1.2196   -2.2619 C   0  0  0  0  0  0  0  0  0  0  0  0
   -6.7116   -2.0531   -2.2936 H   0  0  0  0  0  0  0  0  0  0  0  0
   -6.2603   -0.0333   -2.9653 C   0  0  0  0  0  0  0  0  0  0  0  0
   -7.1935    0.0683   -3.5401 H   0  0  0  0  0  0  0  0  0  0  0  0
   -5.3309    1.0202   -2.9402 C   0  0  0  0  0  0  0  0  0  0  0  0
   -5.5338    1.9488   -3.4948 H   0  0  0  0  0  0  0  0  0  0  0  0
   -4.1428    0.8889   -2.2125 C   0  0  0  0  0  0  0  0  0  0  0  0
   -3.3965    1.6959   -2.1919 H   0  0  0  0  0  0  0  0  0  0  0  0
  2 16  1  0  0  0  0
  3  1  1  0  0  0  0
  4  3  1  0  0  0  0
  4  5  1  0  0  0  0
  5  6  2  0  0  0  0
  5 14  1  0  0  0  0
  6  8  1  0  0  0  0
  7  6  1  0  0  0  0
  8  9  1  0  0  0  0
  8 10  2  0  0  0  0
 10 11  1  0  0  0  0
 12 13  1  0  0  0  0
 12 10  1  0  0  0  0
 14 12  2  0  0  0  0
 15 14  1  0  0  0  0
 16  4  2  0  0  0  0
 17 16  1  0  0  0  0
 18 17  1  0  0  0  0
 18 19  1  0  0  0  0
 20 18  2  0  0  0  0
 21 20  1  0  0  0  0
 22 24  2  0  0  0  0
 22 20  1  0  0  0  0
 23 22  1  0  0  0  0
 24 26  1  0  0  0  0
 25 24  1  0  0  0  0
 26 27  1  0  0  0  0
 26 17  2  0  0  0  0
M  CHG  1   2  -1
M  END
