2,3
q = -1.0, confidence = 0.006

 25 26  0  0  1  0  0  0  0  0999 V2000
   -5.6075   -0.1180    3.2706 Cl  0  0  0  0  0  0  0  0  0  0  0  0
    0.4784    1.3463   -1.6952 O   0  0  0  0  0  1  0  0  0  0  0  0
   -0.6534    1.1328    0.1968 N   0  0  0  0  0  2  0  0  0  0  0  0
   -1.8398    0.9535    0.9098 C   0  0  0  0  0  0  0  0  0  0  0  0
   -1.7618    0.5678    2.2701 C   0  0  0  0  0  0  0  0  0  0  0  0
   -0.7717    0.4888    2.7422 H   0  0  0  0  0  0  0  0  0  0  0  0
   -2.9118    0.2483    2.9992 C   0  0  0  0  0  0  0  0  0  0  0  0
   -2.8386   -0.0605    4.0514 H   0  0  0  0  0  0  0  0  0  0  0  0
   -4.1672    0.3024    2.3723 C   0  0  0  0  0  0  0  0  0  0  0  0
   -4.2718    0.6736    1.0211 C   0  0  0  0  0  0  0  0  0  0  0  0
   -5.2575    0.6902    0.5349 H   0  0  0  0  0  0  0  0  0  0  0  0
   -3.1184    0.9885    0.2962 C   0  0  0  0  0  0  0  0  0  0  0  0
   -3.2004    1.2366   -0.7715 H   0  0  0  0  0  0  0  0  0  0  0  0
   -0.4557    1.8114   -0.9443 C   0  0  1  0  0  3  0  0  0  0  0  0
   -1.1750    3.0488   -1.3460 C   0  0  0  0  0  0  0  0  0  0  0  0
   -1.7926    3.8919   -0.3969 C   0  0  0  0  0  0  0  0  0  0  0  0
   -1.7620    3.6253    0.6692 H   0  0  0  0  0  0  0  0  0  0  0  0
   -2.4323    5.0669   -0.8103 C   0  0  0  0  0  0  0  0  0  0  0  0
   -2.9075    5.7217   -0.0643 H   0  0  0  0  0  0  0  0  0  0  0  0
   -2.4640    5.4123   -2.1723 C   0  0  0  0  0  0  0  0  0  0  0  0
   -2.9714    6.3345   -2.4945 H   0  0  0  0  0  0  0  0  0  0  0  0
   -1.8403    4.5842   -3.1201 C   0  0  0  0  0  0  0  0  0  0  0  0
   -1.8560    4.8575   -4.1862 H   0  0  0  0  0  0  0  0  0  0  0  0
   -1.1923    3.4122   -2.7092 C   0  0  0  0  0  0  0  0  0  0  0  0
   -0.6834    2.7580   -3.4315 H   0  0  0  0  0  0  0  0  0  0  0  0
  3  4  1  0  0  0  0
  4  5  1  0  0  0  0
  5  6  1  0  0  0  0
  5  7  2  0  0  0  0
  7  8  1  0  0  0  0
  9  7  1  0  0  0  0
  9  1  1  0  0  0  0
 10  9  2  0  0  0  0
 11 10  1  0  0  0  0
 12  4  2  0  0  0  0
 12 10  1  0  0  0  0
 13 12  1  0  0  0  0
 14  2  1  1  0  0  0
 14  3  1  0  0  0  0
 15 14  1  0  0  0  0
 15 16  1  0  0  0  0
 16 17  1  0  0  0  0
 18 16  2  0  0  0  0
 18 19  1  0  0  0  0
 20 18  1  0  0  0  0
 21 20  1  0  0  0  0
 22 24  1  0  0  0  0
 22 20  2  0  0  0  0
 23 22  1  0  0  0  0
 24 15  2  0  0  0  0
 25 24  1  0  0  0  0
M  END
