1,10
q = -1.0

 15 14  0  0  1  0  0  0  0  0999 V2000
   -1.1946   -1.9095   -0.0099 N   0  0  0  0  0  0  0  0  0  0  0  0
   -1.0984   -2.3358   -0.9439 H   0  0  0  0  0  0  0  0  0  0  0  0
   -0.6415   -2.4961    0.6320 H   0  0  0  0  0  0  0  0  0  0  0  0
   -2.6327   -1.9113    0.3947 C   0  0  2  0  0  0  0  0  0  0  0  0
   -2.9943   -2.9633    0.3123 H   0  0  0  0  0  0  0  0  0  0  0  0
   -3.4502   -1.0553   -0.5768 C   0  0  0  0  0  0  0  0  0  0  0  0
   -4.5256   -1.2852   -0.4483 H   0  0  0  0  0  0  0  0  0  0  0  0
   -3.1972   -1.3412   -1.6230 H   0  0  0  0  0  0  0  0  0  0  0  0
   -3.3076    0.4858   -0.4548 C   0  0  0  0  0  0  0  0  0  0  0  0
   -2.1155    0.9601   -0.2049 O   0  5  0  0  0  0  0  0  0  0  0  0
   -2.7614   -1.4690    1.8501 C   0  0  0  0  0  0  0  0  0  0  0  0
   -2.3987   -0.4283    1.9658 H   0  0  0  0  0  0  0  0  0  0  0  0
   -2.1820   -2.1286    2.5288 H   0  0  0  0  0  0  0  0  0  0  0  0
   -3.8229   -1.5066    2.1625 H   0  0  0  0  0  0  0  0  0  0  0  0
   -4.3079    1.1813   -0.6170 O   0  0  0  0  0  0  0  0  0  0  0  0
  1  4  1  0  0  0  0
  1  3  1  0  0  0  0
  2  1  1  0  0  0  0
  4  5  1  6  0  0  0
  4 11  1  0  0  0  0
  6  9  1  0  0  0  0
  6  7  1  0  0  0  0
  6  4  1  0  0  0  0
  8  6  1  0  0  0  0
  9 10  1  0  0  0  0
 11 12  1  0  0  0  0
 11 14  1  0  0  0  0
 11 13  1  0  0  0  0
 15  9  2  0  0  0  0
M  CHG  1  10  -1
M  END
