1,14
q = -1.0, confidence = 0.004

 30 30  0  0  0  0  0  0  0  0999 V2000
   -0.9622    1.9710    0.2639 O   0  5  0  0  0  0  0  0  0  0  0  0
   -2.1597    2.0437    0.7954 C   0  0  0  0  0  0  0  0  0  0  0  0
   -2.5471    3.2306    1.4869 C   0  0  0  0  0  0  0  0  0  0  0  0
   -1.8054    4.0417    1.5392 H   0  0  0  0  0  0  0  0  0  0  0  0
   -3.7988    3.3604    2.0827 C   0  0  0  0  0  0  0  0  0  0  0  0
   -4.0518    4.2928    2.6120 H   0  0  0  0  0  0  0  0  0  0  0  0
   -4.7430    2.3104    2.0210 C   0  0  0  0  0  0  0  0  0  0  0  0
   -5.7288    2.4137    2.4966 H   0  0  0  0  0  0  0  0  0  0  0  0
   -4.4006    1.1456    1.3429 C   0  0  0  0  0  0  0  0  0  0  0  0
   -5.1240    0.3161    1.2756 H   0  0  0  0  0  0  0  0  0  0  0  0
   -3.1340    0.9754    0.7172 C   0  0  0  0  0  0  0  0  0  0  0  0
   -2.9322   -0.2690    0.0062 C   0  0  0  0  0  3  0  0  0  0  0  0
   -3.8094   -0.9465    0.0376 H   0  0  0  0  0  0  0  0  0  0  0  0
   -1.8686   -0.6322   -0.6567 N   0  0  0  0  0  2  0  0  0  0  0  0
   -1.7881   -1.9371   -1.2995 C   0  0  0  0  0  0  0  0  0  0  0  0
   -3.1364   -2.4001   -1.8789 C   0  0  0  0  0  0  0  0  0  0  0  0
   -3.8174   -2.6435   -1.0305 H   0  0  0  0  0  0  0  0  0  0  0  0
   -3.5940   -1.5566   -2.4541 H   0  0  0  0  0  0  0  0  0  0  0  0
   -2.9031   -3.5367   -2.6930 O   0  0  0  0  0  0  0  0  0  0  0  0
   -3.7601   -3.9633   -2.8634 H   0  0  0  0  0  0  0  0  0  0  0  0
   -1.2778   -3.0092   -0.2533 C   0  0  0  0  0  0  0  0  0  0  0  0
   -1.6195   -3.9959   -0.6317 H   0  0  0  0  0  0  0  0  0  0  0  0
   -0.1669   -3.0039   -0.2641 H   0  0  0  0  0  0  0  0  0  0  0  0
   -1.7872   -2.8020    1.0332 O   0  0  0  0  0  0  0  0  0  0  0  0
   -1.1969   -2.0946    1.4108 H   0  0  0  0  0  0  0  0  0  0  0  0
   -0.7539   -1.8007   -2.4324 C   0  0  0  0  0  0  0  0  0  0  0  0
   -0.6253   -2.7795   -2.9392 H   0  0  0  0  0  0  0  0  0  0  0  0
   -1.1214   -1.0529   -3.1695 H   0  0  0  0  0  0  0  0  0  0  0  0
    0.4735   -1.3645   -1.8376 O   0  0  0  0  0  0  0  0  0  0  0  0
    1.0357   -0.9436   -2.5126 H   0  0  0  0  0  0  0  0  0  0  0  0
  1  2  1  0  0  0  0
  2  3  1  0  0  0  0
  3  4  1  0  0  0  0
  3  5  2  0  0  0  0
  5  6  1  0  0  0  0
  7  5  1  0  0  0  0
  7  8  1  0  0  0  0
  9  7  2  0  0  0  0
 10  9  1  0  0  0  0
 11  2  2  0  0  0  0
 11  9  1  0  0  0  0
 12 13  1  0  0  0  0
 12 11  1  0  0  0  0
 14 12  1  0  0  0  0
 15 14  1  0  0  0  0
 15 21  1  0  0  0  0
 16 15  1  0  0  0  0
 16 17  1  0  0  0  0
 18 16  1  0  0  0  0
 19 16  1  0  0  0  0
 20 19  1  0  0  0  0
 21 24  1  0  0  0  0
 22 21  1  0  0  0  0
 23 21  1  0  0  0  0
 24 25  1  0  0  0  0
 26 29  1  0  0  0  0
 26 15  1  0  0  0  0
 27 26  1  0  0  0  0
 28 26  1  0  0  0  0
 30 29  1  0  0  0  0
M  CHG  1   1  -1
M  END
