2,39
q = -1.0

 39 41  0  0  1  0  0  0  0  0999 V2000
    0.0461    2.7014   -2.1309 S   0  0  0  0  0  0  0  0  0  0  0  0
    0.3361    0.1960   -1.4579 N   0  0  0  0  0  2  0  0  0  0  0  0
   -2.5946   -0.1829   -0.9114 C   0  0  0  0  0  0  0  0  0  0  0  0
   -4.0226   -0.2914   -0.9266 C   0  0  0  0  0  0  0  0  0  0  0  0
   -4.7483    0.9049   -0.8825 C   0  0  0  0  0  0  0  0  0  0  0  0
   -5.8452    0.8567   -0.8329 H   0  0  0  0  0  0  0  0  0  0  0  0
   -4.1510    2.1911   -0.8803 C   0  0  0  0  0  0  0  0  0  0  0  0
   -2.7704    2.2658   -1.0437 C   0  0  0  0  0  0  0  0  0  0  0  0
   -2.2846    3.2525   -1.1130 H   0  0  0  0  0  0  0  0  0  0  0  0
   -1.9737    1.0946   -1.1029 C   0  0  0  0  0  0  0  0  0  0  0  0
   -0.5712    1.1768   -1.4721 C   0  0  2  0  0  3  0  0  0  0  0  0
    1.5406    0.5799   -2.0472 C   0  0  0  0  0  0  0  0  0  0  0  0
    2.6623   -0.2409   -2.2741 C   0  0  0  0  0  0  0  0  0  0  0  0
    2.6168   -1.3054   -2.0146 H   0  0  0  0  0  0  0  0  0  0  0  0
    3.8070    0.3240   -2.8432 C   0  0  0  0  0  0  0  0  0  0  0  0
    4.6861   -0.3130   -3.0209 H   0  0  0  0  0  0  0  0  0  0  0  0
    3.8544    1.6893   -3.1968 C   0  0  0  0  0  0  0  0  0  0  0  0
    4.7692    2.1084   -3.6415 H   0  0  0  0  0  0  0  0  0  0  0  0
    2.7395    2.5158   -3.0073 C   0  0  0  0  0  0  0  0  0  0  0  0
    2.7614    3.5753   -3.2999 H   0  0  0  0  0  0  0  0  0  0  0  0
    1.5887    1.9463   -2.4425 C   0  0  0  0  0  0  0  0  0  0  0  0
   -4.7111   -1.6683   -1.0147 C   0  0  0  0  0  0  0  0  0  0  0  0
   -4.4466   -2.5227    0.2461 C   0  0  0  0  0  0  0  0  0  0  0  0
   -4.8455   -2.0238    1.1520 H   0  0  0  0  0  0  0  0  0  0  0  0
   -3.3708   -2.7243    0.3964 H   0  0  0  0  0  0  0  0  0  0  0  0
   -4.9627   -3.4998    0.1470 H   0  0  0  0  0  0  0  0  0  0  0  0
   -6.2362   -1.5220   -1.1694 C   0  0  0  0  0  0  0  0  0  0  0  0
   -6.7031   -1.0475   -0.2821 H   0  0  0  0  0  0  0  0  0  0  0  0
   -6.6901   -2.5267   -1.2819 H   0  0  0  0  0  0  0  0  0  0  0  0
   -6.5092   -0.9291   -2.0658 H   0  0  0  0  0  0  0  0  0  0  0  0
   -4.1752   -2.4093   -2.2642 C   0  0  0  0  0  0  0  0  0  0  0  0
   -4.6771   -3.3937   -2.3630 H   0  0  0  0  0  0  0  0  0  0  0  0
   -3.0857   -2.5863   -2.1967 H   0  0  0  0  0  0  0  0  0  0  0  0
   -4.3797   -1.8266   -3.1852 H   0  0  0  0  0  0  0  0  0  0  0  0
   -4.9974    3.4250   -0.7047 C   0  0  0  0  0  0  0  0  0  0  0  0
   -5.3260    3.5289    0.3522 H   0  0  0  0  0  0  0  0  0  0  0  0
   -5.9154    3.3854   -1.3257 H   0  0  0  0  0  0  0  0  0  0  0  0
   -4.4417    4.3452   -0.9710 H   0  0  0  0  0  0  0  0  0  0  0  0
   -1.8373   -1.2492   -0.7098 O   0  5  0  0  0  0  0  0  0  0  0  0
  1 11  1  0  0  0  0
  3 39  1  0  0  0  0
  4  3  1  0  0  0  0
  4  5  2  0  0  0  0
  5  7  1  0  0  0  0
  5  6  1  0  0  0  0
  7 35  1  0  0  0  0
  8  7  2  0  0  0  0
  9  8  1  0  0  0  0
 10  8  1  0  0  0  0
 10  3  2  0  0  0  0
 11  2  1  0  0  0  0
 11 10  1  6  0  0  0
 12  2  1  0  0  0  0
 13 12  1  0  0  0  0
 13 14  1  0  0  0  0
 15 13  2  0  0  0  0
 16 15  1  0  0  0  0
 17 19  2  0  0  0  0
 17 15  1  0  0  0  0
 18 17  1  0  0  0  0
 19 21  1  0  0  0  0
 20 19  1  0  0  0  0
 21  1  1  0  0  0  0
 21 12  2  0  0  0  0
 22  4  1  0  0  0  0
 22 23  1  0  0  0  0
 23 25  1  0  0  0  0
 23 24  1  0  0  0  0
 26 23  1  0  0  0  0
 27 22  1  0  0  0  0
 27 28  1  0  0  0  0
 29 27  1  0  0  0  0
 30 27  1  0  0  0  0
 31 33  1  0  0  0  0
 31 22  1  0  0  0  0
 32 31  1  0  0  0  0
 34 31  1  0  0  0  0
 35 36  1  0  0  0  0
 37 35  1  0  0  0  0
 38 35  1  0  0  0  0
M  CHG  1  39  -1
M  END
