7,8
q = -1.0

 37 38  0  0  0  0  0  0  0  0999 V2000
    4.6185   -1.8296    1.1026 Si  0  0  0  0  0  0  0  0  0  0  0  0
   -2.5993   -2.7517   -1.0277 F   0  0  0  0  0  0  0  0  0  0  0  0
   -5.1530   -1.8701   -1.4702 F   0  0  0  0  0  0  0  0  0  0  0  0
   -5.5740    0.6137   -2.5266 F   0  0  0  0  0  0  0  0  0  0  0  0
   -3.4389    2.1912   -3.2200 F   0  0  0  0  0  0  0  0  0  0  0  0
   -0.9034    1.3214   -2.7818 F   0  0  0  0  0  0  0  0  0  0  0  0
    1.8473   -0.9693    0.1045 O   0  5  0  0  0  0  0  0  0  0  0  0
   -0.3946   -1.0664   -1.3817 N   0  0  0  0  0  2  0  0  0  0  0  0
    2.4440   -1.7147   -0.8065 C   0  0  0  0  0  0  0  0  0  0  0  0
    3.7819   -2.1490   -0.5856 C   0  0  0  0  0  0  0  0  0  0  0  0
    4.3943   -2.9011   -1.6023 C   0  0  0  0  0  0  0  0  0  0  0  0
    3.7381   -3.2310   -2.8100 C   0  0  0  0  0  0  0  0  0  0  0  0
    2.4228   -2.8239   -3.0035 C   0  0  0  0  0  0  0  0  0  0  0  0
    1.7457   -2.0767   -2.0047 C   0  0  0  0  0  0  0  0  0  0  0  0
    4.7301    0.0192    1.4713 C   0  0  0  0  0  0  0  0  0  0  0  0
    3.6202   -2.7071    2.4430 C   0  0  0  0  0  0  0  0  0  0  0  0
    6.3652   -2.5584    1.0113 C   0  0  0  0  0  0  0  0  0  0  0  0
    0.3902   -1.6688   -2.2390 C   0  0  0  0  0  3  0  0  0  0  0  0
   -1.6929   -0.7106   -1.8247 C   0  0  0  0  0  0  0  0  0  0  0  0
   -2.7977   -1.5399   -1.5447 C   0  0  0  0  0  0  0  0  0  0  0  0
   -4.1078   -1.0961   -1.7805 C   0  0  0  0  0  0  0  0  0  0  0  0
   -4.3293    0.1739   -2.3406 C   0  0  0  0  0  0  0  0  0  0  0  0
   -3.2369    0.9800   -2.6930 C   0  0  0  0  0  0  0  0  0  0  0  0
   -1.9306    0.5243   -2.4560 C   0  0  0  0  0  0  0  0  0  0  0  0
    5.4268   -3.2555   -1.4536 H   0  0  0  0  0  0  0  0  0  0  0  0
    4.2609   -3.8135   -3.5822 H   0  0  0  0  0  0  0  0  0  0  0  0
    1.8844   -3.0826   -3.9292 H   0  0  0  0  0  0  0  0  0  0  0  0
   -0.0172   -1.8954   -3.2463 H   0  0  0  0  0  0  0  0  0  0  0  0
    5.2620    0.1812    2.4316 H   0  0  0  0  0  0  0  0  0  0  0  0
    5.2836    0.5620    0.6792 H   0  0  0  0  0  0  0  0  0  0  0  0
    3.7142    0.4498    1.5687 H   0  0  0  0  0  0  0  0  0  0  0  0
    2.6197   -2.2451    2.5549 H   0  0  0  0  0  0  0  0  0  0  0  0
    3.4818   -3.7801    2.2010 H   0  0  0  0  0  0  0  0  0  0  0  0
    4.1439   -2.6364    3.4189 H   0  0  0  0  0  0  0  0  0  0  0  0
    6.3500   -3.6521    0.8262 H   0  0  0  0  0  0  0  0  0  0  0  0
    6.8882   -2.3931    1.9758 H   0  0  0  0  0  0  0  0  0  0  0  0
    6.9739   -2.0800    0.2164 H   0  0  0  0  0  0  0  0  0  0  0  0
  1 15  1  0  0  0  0
  1 16  1  0  0  0  0
  4 22  1  0  0  0  0
  5 23  1  0  0  0  0
  6 24  1  0  0  0  0
  9 10  1  0  0  0  0
  9  7  1  0  0  0  0
 10  1  1  0  0  0  0
 11 25  1  0  0  0  0
 11 10  2  0  0  0  0
 12 11  1  0  0  0  0
 13 12  2  0  0  0  0
 13 14  1  0  0  0  0
 14  9  2  0  0  0  0
 15 31  1  0  0  0  0
 15 29  1  0  0  0  0
 16 32  1  0  0  0  0
 16 34  1  0  0  0  0
 17  1  1  0  0  0  0
 17 36  1  0  0  0  0
 18 14  1  0  0  0  0
 18  8  1  0  0  0  0
 19 20  1  0  0  0  0
 19  8  1  0  0  0  0
 20  2  1  0  0  0  0
 21 20  2  0  0  0  0
 21  3  1  0  0  0  0
 22 21  1  0  0  0  0
 23 24  1  0  0  0  0
 23 22  2  0  0  0  0
 24 19  2  0  0  0  0
 26 12  1  0  0  0  0
 27 13  1  0  0  0  0
 28 18  1  0  0  0  0
 30 15  1  0  0  0  0
 33 16  1  0  0  0  0
 35 17  1  0  0  0  0
 37 17  1  0  0  0  0
M  CHG  1   7  -1
M  END
