5,13
q = -1.0

 54 54  0  0  0  0  0  0  0  0999 V2000
   -3.9298   -0.4369    0.4837 O   0  0  0  0  0  0  0  0  0  0  0  0
   -4.3727   -1.7633    0.1404 C   0  0  0  0  0  0  0  0  0  0  0  0
   -3.4033   -2.8442    0.6071 C   0  0  0  0  0  0  0  0  0  0  0  0
   -2.1256   -2.9508   -0.2243 C   0  0  0  0  0  0  0  0  0  0  0  0
   -1.1854   -1.8314   -0.0330 N   0  0  0  0  0  0  0  0  0  0  0  0
    0.0181   -2.0095   -0.8877 C   0  0  0  0  0  0  0  0  0  0  0  0
    1.1795   -1.1251   -0.5113 C   0  0  0  0  0  0  0  0  0  0  0  0
    2.4598   -1.6568   -0.2958 C   0  0  0  0  0  0  0  0  0  0  0  0
    3.5573   -0.8227   -0.0218 C   0  0  0  0  0  0  0  0  0  0  0  0
    3.3227    0.5686    0.0274 C   0  0  0  0  0  0  0  0  0  0  0  0
    2.0643    1.1633   -0.1684 C   0  0  0  0  0  0  0  0  0  0  0  0
    0.9862    0.2744   -0.4351 C   0  0  0  0  0  0  0  0  0  0  0  0
   -0.2677    0.7263   -0.6151 O   0  5  0  0  0  0  0  0  0  0  0  0
    1.8532    2.6856   -0.0809 C   0  0  0  0  0  0  0  0  0  0  0  0
    1.1956    3.2085   -1.3801 C   0  0  0  0  0  0  0  0  0  0  0  0
    1.0933    4.3119   -1.3282 H   0  0  0  0  0  0  0  0  0  0  0  0
    1.8179    2.9639   -2.2651 H   0  0  0  0  0  0  0  0  0  0  0  0
    0.1867    2.7833   -1.5316 H   0  0  0  0  0  0  0  0  0  0  0  0
    0.9509    3.0111    1.1333 C   0  0  0  0  0  0  0  0  0  0  0  0
    0.8229    4.1100    1.2201 H   0  0  0  0  0  0  0  0  0  0  0  0
   -0.0530    2.5595    1.0426 H   0  0  0  0  0  0  0  0  0  0  0  0
    1.4071    2.6409    2.0734 H   0  0  0  0  0  0  0  0  0  0  0  0
    3.1888    3.4296    0.1044 C   0  0  0  0  0  0  0  0  0  0  0  0
    2.9966    4.5204    0.1402 H   0  0  0  0  0  0  0  0  0  0  0  0
    3.8908    3.2412   -0.7334 H   0  0  0  0  0  0  0  0  0  0  0  0
    3.6941    3.1537    1.0520 H   0  0  0  0  0  0  0  0  0  0  0  0
    4.1744    1.2279    0.2379 H   0  0  0  0  0  0  0  0  0  0  0  0
    4.9772   -1.3629    0.2218 C   0  0  0  0  0  0  0  0  0  0  0  0
    5.0361   -2.8974    0.1303 C   0  0  0  0  0  0  0  0  0  0  0  0
    6.0725   -3.2456    0.3132 H   0  0  0  0  0  0  0  0  0  0  0  0
    4.7344   -3.2630   -0.8721 H   0  0  0  0  0  0  0  0  0  0  0  0
    4.3844   -3.3808    0.8861 H   0  0  0  0  0  0  0  0  0  0  0  0
    5.9357   -0.7744   -0.8387 C   0  0  0  0  0  0  0  0  0  0  0  0
    6.9689   -1.1456   -0.6765 H   0  0  0  0  0  0  0  0  0  0  0  0
    5.6208   -1.0646   -1.8614 H   0  0  0  0  0  0  0  0  0  0  0  0
    5.9654    0.3324   -0.7969 H   0  0  0  0  0  0  0  0  0  0  0  0
    5.4467   -0.9409    1.6329 C   0  0  0  0  0  0  0  0  0  0  0  0
    6.4729   -1.3156    1.8287 H   0  0  0  0  0  0  0  0  0  0  0  0
    5.4630    0.1609    1.7484 H   0  0  0  0  0  0  0  0  0  0  0  0
    4.7740   -1.3511    2.4130 H   0  0  0  0  0  0  0  0  0  0  0  0
    2.5855   -2.7471   -0.3564 H   0  0  0  0  0  0  0  0  0  0  0  0
   -0.3095   -1.8003   -1.9294 H   0  0  0  0  0  0  0  0  0  0  0  0
    0.3471   -3.0723   -0.8483 H   0  0  0  0  0  0  0  0  0  0  0  0
   -2.3847   -2.9772   -1.3035 H   0  0  0  0  0  0  0  0  0  0  0  0
   -1.6061   -3.9090    0.0111 H   0  0  0  0  0  0  0  0  0  0  0  0
   -3.9291   -3.8196    0.5356 H   0  0  0  0  0  0  0  0  0  0  0  0
   -3.1618   -2.6984    1.6826 H   0  0  0  0  0  0  0  0  0  0  0  0
   -4.4733   -1.7748   -0.9638 H   0  0  0  0  0  0  0  0  0  0  0  0
   -5.3754   -1.9120    0.5908 H   0  0  0  0  0  0  0  0  0  0  0  0
   -4.5558    0.1051    1.6557 C   0  0  0  0  0  0  0  0  0  0  0  0
   -4.2053    1.1465    1.7540 H   0  0  0  0  0  0  0  0  0  0  0  0
   -5.6571    0.0871    1.5152 H   0  0  0  0  0  0  0  0  0  0  0  0
   -4.2671   -0.4637    2.5637 H   0  0  0  0  0  0  0  0  0  0  0  0
   -0.8933   -1.7929    0.9578 H   0  0  0  0  0  0  0  0  0  0  0  0
  1 50  1  0  0  0  0
  2  1  1  0  0  0  0
  2 49  1  0  0  0  0
  2  3  1  0  0  0  0
  3 47  1  0  0  0  0
  4  5  1  0  0  0  0
  4 45  1  0  0  0  0
  4  3  1  0  0  0  0
  5 54  1  0  0  0  0
  6 43  1  0  0  0  0
  6  7  1  0  0  0  0
  6  5  1  0  0  0  0
  7 12  2  0  0  0  0
  7  8  1  0  0  0  0
  8  9  2  0  0  0  0
  9 10  1  0  0  0  0
  9 28  1  0  0  0  0
 10 27  1  0  0  0  0
 11 14  1  0  0  0  0
 11 10  2  0  0  0  0
 12 11  1  0  0  0  0
 13 12  1  0  0  0  0
 14 23  1  0  0  0  0
 14 19  1  0  0  0  0
 15 16  1  0  0  0  0
 15 14  1  0  0  0  0
 17 15  1  0  0  0  0
 18 15  1  0  0  0  0
 19 20  1  0  0  0  0
 19 22  1  0  0  0  0
 21 19  1  0  0  0  0
 23 24  1  0  0  0  0
 23 26  1  0  0  0  0
 25 23  1  0  0  0  0
 28 37  1  0  0  0  0
 29 28  1  0  0  0  0
 29 30  1  0  0  0  0
 29 32  1  0  0  0  0
 31 29  1  0  0  0  0
 33 36  1  0  0  0  0
 33 34  1  0  0  0  0
 33 28  1  0  0  0  0
 35 33  1  0  0  0  0
 37 39  1  0  0  0  0
 37 38  1  0  0  0  0
 37 40  1  0  0  0  0
 41  8  1  0  0  0  0
 42  6  1  0  0  0  0
 44  4  1  0  0  0  0
 46  3  1  0  0  0  0
 48  2  1  0  0  0  0
 50 51  1  0  0  0  0
 50 53  1  0  0  0  0
 52 50  1  0  0  0  0
M  CHG  1  13  -1
M  END
