3,5
q = -1.0

 33 34  0  0  0  0  0  0  0  0999 V2000
   -0.9902    1.5373   -1.5333 N   0  0  0  0  0  0  0  0  0  0  0  0
   -1.4631    3.0091   -1.6404 H   0  0  0  0  0  0  0  0  0  0  0  0
   -1.4920    0.3576   -1.1573 N   0  0  0  0  0  2  0  0  0  0  0  0
   -1.2757    4.0402   -1.6856 O   0  0  0  0  0  0  0  0  0  0  0  0
    1.1640    0.6171   -1.5169 O   0  5  0  0  0  0  0  0  0  0  0  0
   -2.4284   -2.4352   -0.0677 Br  0  0  0  0  0  0  0  0  0  0  0  0
    0.9109    2.9898   -1.7075 C   0  0  0  0  0  0  0  0  0  0  0  0
    0.0488    4.1370   -1.7099 C   0  0  0  0  0  0  0  0  0  0  0  0
    0.6439    5.4270   -1.6940 C   0  0  0  0  0  0  0  0  0  0  0  0
   -0.0290    6.2966   -1.6926 H   0  0  0  0  0  0  0  0  0  0  0  0
    2.0355    5.5787   -1.6677 C   0  0  0  0  0  0  0  0  0  0  0  0
    2.4681    6.5918   -1.6548 H   0  0  0  0  0  0  0  0  0  0  0  0
    2.8841    4.4482   -1.6780 C   0  0  0  0  0  0  0  0  0  0  0  0
    3.9769    4.5721   -1.6726 H   0  0  0  0  0  0  0  0  0  0  0  0
    2.3093    3.1734   -1.7074 C   0  0  0  0  0  0  0  0  0  0  0  0
    2.9258    2.2613   -1.7137 H   0  0  0  0  0  0  0  0  0  0  0  0
    0.3862    1.5969   -1.5979 C   0  0  0  0  0  0  0  0  0  0  0  0
   -2.7859    0.1873   -1.2080 C   0  0  0  0  0  0  0  0  0  0  0  0
   -3.4242    0.9979   -1.6145 H   0  0  0  0  0  0  0  0  0  0  0  0
   -3.4921   -0.9916   -0.7638 C   0  0  0  0  0  0  0  0  0  0  0  0
   -4.8609   -1.0660   -0.8506 C   0  0  0  0  0  3  0  0  0  0  0  0
   -5.2811   -0.1420   -1.2875 H   0  0  0  0  0  0  0  0  0  0  0  0
   -5.8835   -2.0453   -0.5157 C   0  0  0  0  0  0  0  0  0  0  0  0
   -7.2278   -1.6863   -0.8168 C   0  0  0  0  0  0  0  0  0  0  0  0
   -7.4222   -0.7063   -1.2806 H   0  0  0  0  0  0  0  0  0  0  0  0
   -8.2969   -2.5424   -0.5399 C   0  0  0  0  0  0  0  0  0  0  0  0
   -9.3233   -2.2317   -0.7874 H   0  0  0  0  0  0  0  0  0  0  0  0
   -8.0605   -3.7939    0.0526 C   0  0  0  0  0  0  0  0  0  0  0  0
   -8.8983   -4.4724    0.2733 H   0  0  0  0  0  0  0  0  0  0  0  0
   -6.7426   -4.1694    0.3611 C   0  0  0  0  0  0  0  0  0  0  0  0
   -6.5449   -5.1468    0.8272 H   0  0  0  0  0  0  0  0  0  0  0  0
   -5.6691   -3.3157    0.0841 C   0  0  0  0  0  0  0  0  0  0  0  0
   -4.6521   -3.6361    0.3383 H   0  0  0  0  0  0  0  0  0  0  0  0
  1  3  1  0  0  0  0
  4  2  1  0  0  0  0
  7 15  1  0  0  0  0
  7 17  1  0  0  0  0
  8  7  2  0  0  0  0
  8  9  1  0  0  0  0
  8  4  1  0  0  0  0
  9 10  1  0  0  0  0
  9 11  2  0  0  0  0
 11 12  1  0  0  0  0
 13 14  1  0  0  0  0
 13 11  1  0  0  0  0
 15 13  2  0  0  0  0
 16 15  1  0  0  0  0
 17  1  2  0  0  0  0
 17  5  1  0  0  0  0
 18  3  1  0  0  0  0
 18 20  2  0  0  0  0
 19 18  1  0  0  0  0
 20  6  1  0  0  0  0
 21 20  1  0  0  0  0
 21 23  1  0  0  0  0
 22 21  1  0  0  0  0
 23 32  1  0  0  0  0
 24 26  1  0  0  0  0
 24 23  2  0  0  0  0
 25 24  1  0  0  0  0
 26 28  2  0  0  0  0
 27 26  1  0  0  0  0
 28 29  1  0  0  0  0
 28 30  1  0  0  0  0
 30 31  1  0  0  0  0
 32 33  1  0  0  0  0
 32 30  2  0  0  0  0
M  CHG  1   5  -1
M  END
