2,3
q = -1.0, confidence = 0.0

 24 26  0  0  1  0  0  0  0  0999 V2000
   -4.3431    0.8398    0.0762 S   0  0  0  0  0  0  0  0  0  0  0  0
    0.0594    2.0481   -0.4998 O   0  0  0  0  0  1  0  0  0  0  0  0
   -1.8901    0.0290   -0.2175 N   0  0  0  0  0  2  0  0  0  0  0  0
   -0.7853    2.8107    0.1328 C   0  0  1  0  0  3  0  0  0  0  0  0
   -0.4495    4.1845    0.3584 C   0  0  0  0  0  0  0  0  0  0  0  0
    0.5224    4.5284   -0.0250 H   0  0  0  0  0  0  0  0  0  0  0  0
   -1.2871    5.0394    1.0631 C   0  0  0  0  0  0  0  0  0  0  0  0
   -0.9729    6.0805    1.2379 H   0  0  0  0  0  0  0  0  0  0  0  0
   -2.5303    4.5877    1.5698 C   0  0  0  0  0  0  0  0  0  0  0  0
   -3.1810    5.2632    2.1428 H   0  0  0  0  0  0  0  0  0  0  0  0
   -2.9149    3.2751    1.3285 C   0  0  0  0  0  0  0  0  0  0  0  0
   -3.8842    2.9117    1.7077 H   0  0  0  0  0  0  0  0  0  0  0  0
   -2.0830    2.3708    0.6119 C   0  0  0  0  0  0  0  0  0  0  0  0
   -2.5986    1.0877    0.2072 C   0  0  0  0  0  0  0  0  0  0  0  0
   -4.0792   -0.7385   -0.6306 C   0  0  0  0  0  0  0  0  0  0  0  0
   -5.0345   -1.6602   -1.0862 C   0  0  0  0  0  0  0  0  0  0  0  0
   -6.1096   -1.4596   -0.9735 H   0  0  0  0  0  0  0  0  0  0  0  0
   -4.5778   -2.8296   -1.7075 C   0  0  0  0  0  0  0  0  0  0  0  0
   -5.3072   -3.5639   -2.0804 H   0  0  0  0  0  0  0  0  0  0  0  0
   -3.1962   -3.0616   -1.8809 C   0  0  0  0  0  0  0  0  0  0  0  0
   -2.8590   -3.9741   -2.3942 H   0  0  0  0  0  0  0  0  0  0  0  0
   -2.2442   -2.1482   -1.4184 C   0  0  0  0  0  0  0  0  0  0  0  0
   -1.1671   -2.3136   -1.5523 H   0  0  0  0  0  0  0  0  0  0  0  0
   -2.6864   -0.9835   -0.7604 C   0  0  0  0  0  0  0  0  0  0  0  0
  1 14  1  0  0  0  0
  3 14  1  0  0  0  0
  4  2  1  6  0  0  0
  4  5  1  0  0  0  0
  4 13  1  0  0  0  0
  5  7  2  0  0  0  0
  6  5  1  0  0  0  0
  7  8  1  0  0  0  0
  7  9  1  0  0  0  0
  9 10  1  0  0  0  0
 11  9  2  0  0  0  0
 11 12  1  0  0  0  0
 13 11  1  0  0  0  0
 14 13  2  0  0  0  0
 15  1  1  0  0  0  0
 16 17  1  0  0  0  0
 16 15  2  0  0  0  0
 18 16  1  0  0  0  0
 19 18  1  0  0  0  0
 20 18  2  0  0  0  0
 20 22  1  0  0  0  0
 21 20  1  0  0  0  0
 22 24  2  0  0  0  0
 23 22  1  0  0  0  0
 24 15  1  0  0  0  0
 24  3  1  0  0  0  0
M  END
