1,2
q = -1.0, confidence = 0.0

 29 30  0  0  0  0  0  0  0  0999 V2000
    2.3330    0.2236    0.4975 O   0  5  0  0  0  0  0  0  0  0  0  0
   -0.3777    1.0909    0.0043 N   0  0  0  0  0  2  0  0  0  0  0  0
    2.6199    1.4593    0.2196 C   0  0  0  0  0  0  0  0  0  0  0  0
    3.9998    1.8447    0.2385 C   0  0  0  0  0  0  0  0  0  0  0  0
    4.7320    1.0698    0.5079 H   0  0  0  0  0  0  0  0  0  0  0  0
    4.3947    3.1451   -0.0449 C   0  0  0  0  0  0  0  0  0  0  0  0
    5.4651    3.4025   -0.0052 H   0  0  0  0  0  0  0  0  0  0  0  0
    3.4456    4.1448   -0.3782 C   0  0  0  0  0  0  0  0  0  0  0  0
    3.7690    5.1721   -0.5981 H   0  0  0  0  0  0  0  0  0  0  0  0
    2.1026    3.8000   -0.4179 C   0  0  0  0  0  0  0  0  0  0  0  0
    1.3443    4.5577   -0.6746 H   0  0  0  0  0  0  0  0  0  0  0  0
    1.6555    2.4766   -0.1301 C   0  0  0  0  0  0  0  0  0  0  0  0
    0.2527    2.2200   -0.2211 C   0  0  0  0  0  3  0  0  0  0  0  0
   -0.3787    3.0832   -0.5120 H   0  0  0  0  0  0  0  0  0  0  0  0
   -1.7946    1.0788   -0.1521 C   0  0  0  0  0  0  0  0  0  0  0  0
   -2.3822    1.2698   -1.4195 C   0  0  0  0  0  0  0  0  0  0  0  0
   -1.7334    1.4450   -2.2912 H   0  0  0  0  0  0  0  0  0  0  0  0
   -3.7723    1.2136   -1.5666 C   0  0  0  0  0  0  0  0  0  0  0  0
   -4.2094    1.3557   -2.5662 H   0  0  0  0  0  0  0  0  0  0  0  0
   -4.6161    0.9756   -0.4565 C   0  0  0  0  0  0  0  0  0  0  0  0
   -4.0027    0.8022    0.8097 C   0  0  0  0  0  0  0  0  0  0  0  0
   -4.6411    0.6297    1.6909 H   0  0  0  0  0  0  0  0  0  0  0  0
   -2.6154    0.8475    0.9692 C   0  0  0  0  0  0  0  0  0  0  0  0
   -2.1268    0.7026    1.9455 H   0  0  0  0  0  0  0  0  0  0  0  0
   -6.0811    0.9039   -0.5603 C   0  0  0  0  0  0  0  0  0  0  0  0
   -6.5991    0.7252    0.3986 H   0  0  0  0  0  0  0  0  0  0  0  0
   -6.8338    1.0303   -1.6743 C   0  0  0  0  0  0  0  0  0  0  0  0
   -6.3944    1.2094   -2.6686 H   0  0  0  0  0  0  0  0  0  0  0  0
   -7.9303    0.9585   -1.6259 H   0  0  0  0  0  0  0  0  0  0  0  0
  3  4  1  0  0  0  0
  3  1  1  0  0  0  0
  4  5  1  0  0  0  0
  6  7  1  0  0  0  0
  6  4  2  0  0  0  0
  8  6  1  0  0  0  0
  9  8  1  0  0  0  0
 10  8  2  0  0  0  0
 10 12  1  0  0  0  0
 11 10  1  0  0  0  0
 12  3  2  0  0  0  0
 13 12  1  0  0  0  0
 13  2  1  0  0  0  0
 14 13  1  0  0  0  0
 15  2  1  0  0  0  0
 15 23  1  0  0  0  0
 16 15  2  0  0  0  0
 17 16  1  0  0  0  0
 18 16  1  0  0  0  0
 18 20  2  0  0  0  0
 19 18  1  0  0  0  0
 20 21  1  0  0  0  0
 21 23  2  0  0  0  0
 21 22  1  0  0  0  0
 23 24  1  0  0  0  0
 25 20  1  0  0  0  0
 25 26  1  0  0  0  0
 27 29  1  0  0  0  0
 27 25  2  0  0  0  0
 28 27  1  0  0  0  0
M  CHG  1   1  -1
M  END
