4,11
q = -1.0

 12 12  0  0  0  0  0  0  0  0999 V2000
    3.9164    2.0015   -0.1939 N   0  0  0  0  0  0  0  0  0  0  0  0
    2.6059    1.7631   -0.2697 C   0  0  0  0  0  3  0  0  0  0  0  0
    1.9172    2.6145   -0.4152 H   0  0  0  0  0  0  0  0  0  0  0  0
    2.0346    0.5463   -0.1788 N   0  0  0  0  0  2  0  0  0  0  0  0
    2.8247   -0.5309    0.0176 C   0  0  0  0  0  0  0  0  0  0  0  0
    4.2137   -0.3755    0.1028 C   0  0  0  0  0  0  0  0  0  0  0  0
    4.8434   -1.2631    0.2558 H   0  0  0  0  0  0  0  0  0  0  0  0
    4.7119    0.9301   -0.0089 C   0  0  0  0  0  0  0  0  0  0  0  0
    5.7964    1.1299    0.0548 H   0  0  0  0  0  0  0  0  0  0  0  0
    2.1461   -1.9123    0.1276 C   0  0  0  0  0  0  0  0  0  0  0  0
    0.8466   -1.8781    0.0534 O   0  5  0  0  0  0  0  0  0  0  0  0
    2.8730   -2.8944    0.2498 O   0  0  0  0  0  0  0  0  0  0  0  0
  1  8  2  0  0  0  0
  2  1  1  0  0  0  0
  2  4  1  0  0  0  0
  3  2  1  0  0  0  0
  4  5  1  0  0  0  0
  5  6  2  0  0  0  0
  5 10  1  0  0  0  0
  6  7  1  0  0  0  0
  8  9  1  0  0  0  0
  8  6  1  0  0  0  0
 10 12  2  0  0  0  0
 11 10  1  0  0  0  0
M  CHG  1  11  -1
M  END
