1,31
q = -1.0, confidence = 0.004

 31 31  0  0  1  0  0  0  0  0999 V2000
   -0.3230   -1.8208   -0.4535 O   0  0  0  0  0  1  0  0  0  0  0  0
   -1.4627   -2.3891   -0.6665 C   0  0  1  0  0  3  0  0  0  0  0  0
   -1.3234   -3.8788   -0.9884 C   0  0  0  0  0  0  0  0  0  0  0  0
   -2.5074   -4.4587   -1.2779 F   0  0  0  0  0  0  0  0  0  0  0  0
   -0.7860   -4.5477    0.0638 F   0  0  0  0  0  0  0  0  0  0  0  0
   -0.5006   -4.0714   -2.0458 F   0  0  0  0  0  0  0  0  0  0  0  0
   -2.7149   -1.8161   -0.5963 C   0  0  0  0  0  0  0  0  0  0  0  0
   -3.6216   -2.4056   -0.7586 H   0  0  0  0  0  0  0  0  0  0  0  0
   -2.8429   -0.4634   -0.1758 C   0  0  0  0  0  0  0  0  0  0  0  0
   -4.0972    0.1153    0.0271 N   0  0  0  0  0  0  0  0  0  0  0  0
   -5.1418   -0.7778    0.3277 O   0  0  0  0  0  0  0  0  0  0  0  0
   -5.7964   -0.5980   -0.3750 H   0  0  0  0  0  0  0  0  0  0  0  0
   -3.9023    1.2168    1.0039 C   0  0  0  0  0  0  0  0  0  0  0  0
   -5.0244    2.2444    0.8863 C   0  0  0  0  0  0  0  0  0  0  0  0
   -4.8153    3.1260    1.5240 H   0  0  0  0  0  0  0  0  0  0  0  0
   -5.9756    1.7962    1.2377 H   0  0  0  0  0  0  0  0  0  0  0  0
   -5.1655    2.5870   -0.1551 H   0  0  0  0  0  0  0  0  0  0  0  0
   -3.8563    0.6385    2.4293 C   0  0  0  0  0  0  0  0  0  0  0  0
   -4.7916    0.0809    2.6268 H   0  0  0  0  0  0  0  0  0  0  0  0
   -3.7657    1.4447    3.1811 H   0  0  0  0  0  0  0  0  0  0  0  0
   -3.0037   -0.0567    2.5563 H   0  0  0  0  0  0  0  0  0  0  0  0
   -2.4847    1.7006    0.4947 C   0  0  0  0  0  0  0  0  0  0  0  0
   -1.7012    2.4107    1.6007 C   0  0  0  0  0  0  0  0  0  0  0  0
   -1.3740    1.7046    2.3865 H   0  0  0  0  0  0  0  0  0  0  0  0
   -0.8104    2.9096    1.1862 H   0  0  0  0  0  0  0  0  0  0  0  0
   -2.3397    3.1860    2.0715 H   0  0  0  0  0  0  0  0  0  0  0  0
   -2.6129    2.5978   -0.7502 C   0  0  0  0  0  0  0  0  0  0  0  0
   -3.0305    3.5883   -0.4818 H   0  0  0  0  0  0  0  0  0  0  0  0
   -1.6118    2.7495   -1.1872 H   0  0  0  0  0  0  0  0  0  0  0  0
   -3.2690    2.1324   -1.5115 H   0  0  0  0  0  0  0  0  0  0  0  0
   -1.8601    0.3923    0.0869 N   0  0  0  0  0  2  0  0  0  0  0  0
  2  7  1  0  0  0  0
  2  1  1  1  0  0  0
  3  2  1  0  0  0  0
  3  5  1  0  0  0  0
  4  3  1  0  0  0  0
  6  3  1  0  0  0  0
  7  9  2  0  0  0  0
  8  7  1  0  0  0  0
  9 10  1  0  0  0  0
  9 31  1  0  0  0  0
 10 11  1  0  0  0  0
 10 13  1  0  0  0  0
 12 11  1  0  0  0  0
 13 18  1  0  0  0  0
 14 13  1  0  0  0  0
 14 16  1  0  0  0  0
 14 15  1  0  0  0  0
 17 14  1  0  0  0  0
 18 21  1  0  0  0  0
 18 19  1  0  0  0  0
 18 20  1  0  0  0  0
 22 13  1  0  0  0  0
 22 23  1  0  0  0  0
 23 26  1  0  0  0  0
 23 24  1  0  0  0  0
 25 23  1  0  0  0  0
 27 28  1  0  0  0  0
 27 22  1  0  0  0  0
 29 27  1  0  0  0  0
 30 27  1  0  0  0  0
 31 22  1  0  0  0  0
M  END
