1,5
q = 0, confidence = 1.0

 37 37  0  0  0  0  0  0  0  0999 V2000
   -0.1197   -0.6274    1.5333 N   0  0  0  0  0  2  0  0  0  0  0  0
    3.8431    1.1036    0.8426 N   0  3  0  0  0  0  0  0  0  0  0  0
    4.5988    0.6940    1.4192 H   0  0  0  0  0  0  0  0  0  0  0  0
   -4.3880   -0.4358   -1.6562 O   0  0  0  0  0  0  0  0  0  0  0  0
   -1.9595   -0.7505   -0.7776 O   0  5  0  0  0  0  0  0  0  0  0  0
   -5.1555    0.3811    0.5130 C   0  0  0  0  0  0  0  0  0  0  0  0
   -6.1823    0.5390    0.1551 H   0  0  0  0  0  0  0  0  0  0  0  0
   -4.8417    0.6870    1.8658 C   0  0  0  0  0  0  0  0  0  0  0  0
   -5.6291    1.0705    2.5306 H   0  0  0  0  0  0  0  0  0  0  0  0
   -3.5573    0.4916    2.3324 C   0  0  0  0  0  0  0  0  0  0  0  0
   -3.3056    0.7091    3.3828 H   0  0  0  0  0  0  0  0  0  0  0  0
   -2.5196   -0.0010    1.4732 C   0  0  0  0  0  0  0  0  0  0  0  0
   -2.8086   -0.3063    0.0855 C   0  0  0  0  0  0  0  0  0  0  0  0
   -4.1831   -0.1115   -0.3536 C   0  0  0  0  0  0  0  0  0  0  0  0
   -5.6854   -0.2684   -2.1824 C   0  0  0  0  0  0  0  0  0  0  0  0
   -5.6402   -0.5868   -3.2406 H   0  0  0  0  0  0  0  0  0  0  0  0
   -6.0197    0.7940   -2.1385 H   0  0  0  0  0  0  0  0  0  0  0  0
   -6.4372   -0.8941   -1.6477 H   0  0  0  0  0  0  0  0  0  0  0  0
   -1.2488   -0.2464    2.0879 C   0  0  0  0  0  3  0  0  0  0  0  0
   -1.2459   -0.1135    3.1950 H   0  0  0  0  0  0  0  0  0  0  0  0
    0.9725   -0.9961    2.4245 C   0  0  0  0  0  0  0  0  0  0  0  0
    0.9408   -2.0943    2.6041 H   0  0  0  0  0  0  0  0  0  0  0  0
    0.8380   -0.5109    3.4216 H   0  0  0  0  0  0  0  0  0  0  0  0
    2.3612   -0.6804    1.8545 C   0  0  0  0  0  0  0  0  0  0  0  0
    3.1246   -1.0302    2.5829 H   0  0  0  0  0  0  0  0  0  0  0  0
    2.5032   -1.2813    0.9358 H   0  0  0  0  0  0  0  0  0  0  0  0
    2.5399    0.7986    1.5552 C   0  0  0  0  0  0  0  0  0  0  0  0
    1.7362    1.1694    0.8885 H   0  0  0  0  0  0  0  0  0  0  0  0
    2.5415    1.4083    2.4811 H   0  0  0  0  0  0  0  0  0  0  0  0
    4.0811    2.5812    0.7657 C   0  0  0  0  0  0  0  0  0  0  0  0
    5.0804    2.7574    0.3287 H   0  0  0  0  0  0  0  0  0  0  0  0
    4.0282    3.0072    1.7840 H   0  0  0  0  0  0  0  0  0  0  0  0
    3.2982    3.0332    0.1148 H   0  0  0  0  0  0  0  0  0  0  0  0
    3.9347    0.4565   -0.5158 C   0  0  0  0  0  0  0  0  0  0  0  0
    4.8030    0.8877   -1.0442 H   0  0  0  0  0  0  0  0  0  0  0  0
    2.9988    0.6715   -1.0634 H   0  0  0  0  0  0  0  0  0  0  0  0
    4.0655   -0.6404   -0.4110 H   0  0  0  0  0  0  0  0  0  0  0  0
  1 19  1  0  0  0  0
  1 21  1  0  0  0  0
  2  3  1  0  0  0  0
  2 27  1  0  0  0  0
  4 14  1  0  0  0  0
  5 13  1  0  0  0  0
  6  8  1  0  0  0  0
  7  6  1  0  0  0  0
  8 10  2  0  0  0  0
  8  9  1  0  0  0  0
 10 11  1  0  0  0  0
 12 19  1  0  0  0  0
 12 10  1  0  0  0  0
 13 12  2  0  0  0  0
 14 13  1  0  0  0  0
 14  6  2  0  0  0  0
 15 17  1  0  0  0  0
 15  4  1  0  0  0  0
 15 18  1  0  0  0  0
 16 15  1  0  0  0  0
 19 20  1  0  0  0  0
 21 22  1  0  0  0  0
 21 23  1  0  0  0  0
 24 21  1  0  0  0  0
 24 25  1  0  0  0  0
 26 24  1  0  0  0  0
 27 24  1  0  0  0  0
 27 29  1  0  0  0  0
 28 27  1  0  0  0  0
 30  2  1  0  0  0  0
 30 32  1  0  0  0  0
 31 30  1  0  0  0  0
 33 30  1  0  0  0  0
 34 37  1  0  0  0  0
 34  2  1  0  0  0  0
 35 34  1  0  0  0  0
 36 34  1  0  0  0  0
M  CHG  2   2   1   5  -1
M  END
