2,5
q = -1.0

 36 38  0  0  1  0  0  0  0  0999 V2000
   -4.5266    3.1672    0.4843 O   0  0  0  0  0  0  0  0  0  0  0  0
   -1.9040    0.1842   -0.6034 O   0  0  0  0  0  1  0  0  0  0  0  0
   -2.1986    2.4821    0.0961 C   0  0  0  0  0  0  0  0  0  0  0  0
   -4.0923    0.9772   -0.4427 C   0  0  0  0  0  0  0  0  0  0  0  0
    0.1901    2.0263   -0.0813 N   0  0  0  0  0  2  0  0  0  0  0  0
   -2.9025    4.5430    1.1155 O   0  0  0  0  0  0  0  0  0  0  0  0
    2.2369    2.1897   -1.4279 C   0  0  0  0  0  0  0  0  0  0  0  0
   -3.1594    3.4738    0.5952 C   0  0  0  0  0  0  0  0  0  0  0  0
   -4.9775    2.0004   -0.0411 C   0  0  0  0  0  0  0  0  0  0  0  0
   -4.6223   -0.2246   -0.9618 C   0  0  0  0  0  0  0  0  0  0  0  0
    1.5358    2.4771   -0.2412 C   0  0  0  0  0  0  0  0  0  0  0  0
   -2.6477    1.1901   -0.3030 C   0  0  1  0  0  3  0  0  0  0  0  0
    2.1911    3.1693    0.7928 C   0  0  0  0  0  0  0  0  0  0  0  0
   -0.5069    4.3690   -0.2037 C   0  0  0  0  0  0  0  0  0  0  0  0
   -0.3566    4.8605    0.7768 H   0  0  0  0  0  0  0  0  0  0  0  0
   -1.3563    4.8898   -0.6765 H   0  0  0  0  0  0  0  0  0  0  0  0
    0.4095    4.5023   -0.8067 H   0  0  0  0  0  0  0  0  0  0  0  0
   -0.8080    2.8962   -0.0283 C   0  0  0  0  0  0  0  0  0  0  0  0
    3.5602    2.6150   -1.5822 C   0  0  0  0  0  0  0  0  0  0  0  0
    4.2264    3.3301   -0.5637 C   0  0  0  0  0  0  0  0  0  0  0  0
   -6.3702    1.8327   -0.1550 C   0  0  0  0  0  0  0  0  0  0  0  0
   -6.0022   -0.3923   -1.0867 C   0  0  0  0  0  0  0  0  0  0  0  0
   -6.8748    0.6395   -0.6800 C   0  0  0  0  0  0  0  0  0  0  0  0
    3.5152    3.5979    0.6226 C   0  0  0  0  0  0  0  0  0  0  0  0
    5.6641    3.7473   -0.7330 C   0  0  0  0  0  0  0  0  0  0  0  0
    6.3341    2.8613   -0.7080 H   0  0  0  0  0  0  0  0  0  0  0  0
    5.9884    4.4373    0.0698 H   0  0  0  0  0  0  0  0  0  0  0  0
    5.8307    4.2501   -1.7075 H   0  0  0  0  0  0  0  0  0  0  0  0
    1.6544    3.3700    1.7314 H   0  0  0  0  0  0  0  0  0  0  0  0
   -3.9175   -1.0131   -1.2566 H   0  0  0  0  0  0  0  0  0  0  0  0
   -7.0267    2.6508    0.1727 H   0  0  0  0  0  0  0  0  0  0  0  0
    1.7282    1.6284   -2.2256 H   0  0  0  0  0  0  0  0  0  0  0  0
   -6.4068   -1.3272   -1.5014 H   0  0  0  0  0  0  0  0  0  0  0  0
   -7.9636    0.5093   -0.7749 H   0  0  0  0  0  0  0  0  0  0  0  0
    4.0943    2.3820   -2.5167 H   0  0  0  0  0  0  0  0  0  0  0  0
    4.0128    4.1445    1.4393 H   0  0  0  0  0  0  0  0  0  0  0  0
  1  8  1  0  0  0  0
  3  8  1  0  0  0  0
  4 12  1  0  0  0  0
  4  9  1  0  0  0  0
  5 18  1  0  0  0  0
  7 11  1  0  0  0  0
  8  6  2  0  0  0  0
  9  1  1  0  0  0  0
 10  4  2  0  0  0  0
 11  5  1  0  0  0  0
 11 13  2  0  0  0  0
 12  2  1  6  0  0  0
 12  3  1  0  0  0  0
 13 29  1  0  0  0  0
 14 18  1  0  0  0  0
 14 15  1  0  0  0  0
 16 14  1  0  0  0  0
 17 14  1  0  0  0  0
 18  3  2  0  0  0  0
 19  7  2  0  0  0  0
 19 20  1  0  0  0  0
 20 24  2  0  0  0  0
 21  9  2  0  0  0  0
 21 31  1  0  0  0  0
 22 10  1  0  0  0  0
 22 23  2  0  0  0  0
 23 21  1  0  0  0  0
 24 13  1  0  0  0  0
 24 36  1  0  0  0  0
 25 26  1  0  0  0  0
 25 20  1  0  0  0  0
 25 27  1  0  0  0  0
 28 25  1  0  0  0  0
 30 10  1  0  0  0  0
 32  7  1  0  0  0  0
 33 22  1  0  0  0  0
 34 23  1  0  0  0  0
 35 19  1  0  0  0  0
M  END
