3,4
q = -1.0

 32 34  0  0  0  0  0  0  0  0999 V2000
   -4.2010    3.2759    0.3836 O   0  0  0  0  0  0  0  0  0  0  0  0
   -2.4851    4.5248    1.1012 O   0  0  0  0  0  0  0  0  0  0  0  0
   -1.6881    0.2103   -0.7914 O   0  5  0  0  0  0  0  0  0  0  0  0
    0.2807    1.8646   -0.1382 N   0  0  0  0  0  2  0  0  0  0  0  0
   -0.6193    2.7525    0.0563 N   0  0  0  0  0  2  0  0  0  0  0  0
   -2.8233    3.4939    0.5688 C   0  0  0  0  0  0  0  0  0  0  0  0
   -1.9352    2.4153    0.1040 C   0  0  0  0  0  0  0  0  0  0  0  0
   -2.4404    1.1913   -0.4322 C   0  0  0  0  0  0  0  0  0  0  0  0
   -3.8798    1.0772   -0.6131 C   0  0  0  0  0  0  0  0  0  0  0  0
   -4.4772   -0.0823   -1.1621 C   0  0  0  0  0  0  0  0  0  0  0  0
   -3.8191   -0.9085   -1.4657 H   0  0  0  0  0  0  0  0  0  0  0  0
   -5.8628   -0.1663   -1.2913 C   0  0  0  0  0  0  0  0  0  0  0  0
   -6.3227   -1.0683   -1.7207 H   0  0  0  0  0  0  0  0  0  0  0  0
   -6.6727    0.9087   -0.8650 C   0  0  0  0  0  0  0  0  0  0  0  0
   -7.7668    0.8449   -0.9650 H   0  0  0  0  0  0  0  0  0  0  0  0
   -6.1029    2.0587   -0.3100 C   0  0  0  0  0  0  0  0  0  0  0  0
   -6.7148    2.9038    0.0349 H   0  0  0  0  0  0  0  0  0  0  0  0
   -4.7048    2.1453   -0.1811 C   0  0  0  0  0  0  0  0  0  0  0  0
    1.6033    2.3584   -0.3476 C   0  0  0  0  0  0  0  0  0  0  0  0
    2.0867    3.4787    0.3523 C   0  0  0  0  0  0  0  0  0  0  0  0
    1.4159    4.0062    1.0455 H   0  0  0  0  0  0  0  0  0  0  0  0
    3.4106    3.8903    0.1566 C   0  0  0  0  0  0  0  0  0  0  0  0
    3.7945    4.7549    0.7207 H   0  0  0  0  0  0  0  0  0  0  0  0
    4.2641    3.2188   -0.7445 C   0  0  0  0  0  0  0  0  0  0  0  0
    3.7395    2.1226   -1.4639 C   0  0  0  0  0  0  0  0  0  0  0  0
    4.3801    1.5931   -2.1863 H   0  0  0  0  0  0  0  0  0  0  0  0
    2.4278    1.6831   -1.2693 C   0  0  0  0  0  0  0  0  0  0  0  0
    2.0171    0.8309   -1.8341 H   0  0  0  0  0  0  0  0  0  0  0  0
    5.7016    3.6318   -0.9227 C   0  0  0  0  0  0  0  0  0  0  0  0
    6.3859    2.8496   -0.5289 H   0  0  0  0  0  0  0  0  0  0  0  0
    5.9279    4.5778   -0.3944 H   0  0  0  0  0  0  0  0  0  0  0  0
    5.9552    3.7656   -1.9943 H   0  0  0  0  0  0  0  0  0  0  0  0
  1  6  1  0  0  0  0
  3  8  1  0  0  0  0
  4  5  1  0  0  0  0
  5  7  1  0  0  0  0
  6  2  2  0  0  0  0
  7  6  1  0  0  0  0
  8  7  2  0  0  0  0
  9  8  1  0  0  0  0
  9 18  1  0  0  0  0
 10  9  2  0  0  0  0
 11 10  1  0  0  0  0
 12 10  1  0  0  0  0
 12 14  2  0  0  0  0
 13 12  1  0  0  0  0
 14 16  1  0  0  0  0
 15 14  1  0  0  0  0
 16 18  2  0  0  0  0
 16 17  1  0  0  0  0
 18  1  1  0  0  0  0
 19  4  1  0  0  0  0
 19 20  1  0  0  0  0
 20 21  1  0  0  0  0
 22 20  2  0  0  0  0
 22 23  1  0  0  0  0
 24 22  1  0  0  0  0
 25 27  1  0  0  0  0
 25 24  2  0  0  0  0
 26 25  1  0  0  0  0
 27 19  2  0  0  0  0
 28 27  1  0  0  0  0
 29 24  1  0  0  0  0
 29 30  1  0  0  0  0
 29 31  1  0  0  0  0
 32 29  1  0  0  0  0
M  CHG  1   3  -1
M  END
