2,3
q = -1.0

 26 27  0  0  0  0  0  0  0  0999 V2000
   -5.5804    2.6365   -0.2157 Cl  0  0  0  0  0  0  0  0  0  0  0  0
   -1.6962   -1.7875    0.3370 O   0  5  0  0  0  0  0  0  0  0  0  0
    0.3780    0.2555   -0.0632 N   0  0  0  0  0  2  0  0  0  0  0  0
    6.6846    2.8935   -0.1187 N   0  0  0  0  0  0  0  0  0  0  0  0
   -2.0586    0.5958   -0.0200 C   0  0  0  0  0  0  0  0  0  0  0  0
   -2.4812   -0.7872    0.2100 C   0  0  0  0  0  0  0  0  0  0  0  0
   -3.9079   -1.0024    0.2994 C   0  0  0  0  0  0  0  0  0  0  0  0
   -4.2291   -2.0399    0.4746 H   0  0  0  0  0  0  0  0  0  0  0  0
   -4.8328    0.0190    0.1719 C   0  0  0  0  0  0  0  0  0  0  0  0
   -5.9119   -0.1845    0.2444 H   0  0  0  0  0  0  0  0  0  0  0  0
   -4.3930    1.3493   -0.0563 C   0  0  0  0  0  0  0  0  0  0  0  0
   -3.0387    1.6244   -0.1490 C   0  0  0  0  0  0  0  0  0  0  0  0
   -2.7038    2.6590   -0.3227 H   0  0  0  0  0  0  0  0  0  0  0  0
   -0.6898    1.0137   -0.1136 C   0  0  0  0  0  3  0  0  0  0  0  0
   -0.5474    2.1086   -0.2642 H   0  0  0  0  0  0  0  0  0  0  0  0
    1.6558    0.8224   -0.0529 C   0  0  0  0  0  0  0  0  0  0  0  0
    1.9418    2.0508    0.5941 C   0  0  0  0  0  0  0  0  0  0  0  0
    1.1459    2.5713    1.1465 H   0  0  0  0  0  0  0  0  0  0  0  0
    3.2327    2.5797    0.5804 C   0  0  0  0  0  0  0  0  0  0  0  0
    3.4492    3.5283    1.0931 H   0  0  0  0  0  0  0  0  0  0  0  0
    4.2791    1.8889   -0.0772 C   0  0  0  0  0  0  0  0  0  0  0  0
    3.9982    0.6473   -0.7038 C   0  0  0  0  0  0  0  0  0  0  0  0
    4.8093    0.1003   -1.2058 H   0  0  0  0  0  0  0  0  0  0  0  0
    2.7108    0.1170   -0.6854 C   0  0  0  0  0  0  0  0  0  0  0  0
    2.4785   -0.8427   -1.1803 H   0  0  0  0  0  0  0  0  0  0  0  0
    5.6009    2.4363   -0.0979 C   0  0  0  0  0  0  0  0  0  0  0  0
  1 11  1  0  0  0  0
  3 16  1  0  0  0  0
  4 26  3  0  0  0  0
  5  6  1  0  0  0  0
  6  7  2  0  0  0  0
  6  2  1  0  0  0  0
  7  8  1  0  0  0  0
  9 10  1  0  0  0  0
  9  7  1  0  0  0  0
 11  9  2  0  0  0  0
 12 11  1  0  0  0  0
 12  5  2  0  0  0  0
 13 12  1  0  0  0  0
 14  3  1  0  0  0  0
 14  5  1  0  0  0  0
 15 14  1  0  0  0  0
 16 17  1  0  0  0  0
 17 18  1  0  0  0  0
 19 17  2  0  0  0  0
 19 20  1  0  0  0  0
 21 19  1  0  0  0  0
 22 24  1  0  0  0  0
 22 21  2  0  0  0  0
 23 22  1  0  0  0  0
 24 16  2  0  0  0  0
 25 24  1  0  0  0  0
 26 21  1  0  0  0  0
M  CHG  1   2  -1
M  END
