1,2
q = -1.0

 17 17  0  0  0  0  0  0  0  0999 V2000
    0.8404    1.3833   -0.0184 N   0  0  0  0  0  2  0  0  0  0  0  0
    1.0239   -1.2575    0.0502 O   0  5  0  0  0  0  0  0  0  0  0  0
    4.6133   -3.3235    0.0625 O   0  0  0  0  0  0  0  0  0  0  0  0
    0.6680    2.7224   -0.0551 C   0  0  0  0  0  3  0  0  0  0  0  0
   -0.3736    3.0783   -0.0653 H   0  0  0  0  0  0  0  0  0  0  0  0
    1.7365    3.6189   -0.0822 C   0  0  0  0  0  0  0  0  0  0  0  0
    1.5437    4.7004   -0.1134 H   0  0  0  0  0  0  0  0  0  0  0  0
    3.0440    3.1025   -0.0690 C   0  0  0  0  0  0  0  0  0  0  0  0
    3.9136    3.7759   -0.0889 H   0  0  0  0  0  0  0  0  0  0  0  0
    3.2261    1.7186   -0.0314 C   0  0  0  0  0  0  0  0  0  0  0  0
    4.2350    1.2866   -0.0215 H   0  0  0  0  0  0  0  0  0  0  0  0
    2.1087    0.8610   -0.0075 C   0  0  0  0  0  0  0  0  0  0  0  0
    2.1737   -0.6294    0.0262 C   0  0  0  0  0  0  0  0  0  0  0  0
    3.3992   -1.2857    0.0325 C   0  0  0  0  0  0  0  0  0  0  0  0
    4.3423   -0.7214    0.0188 H   0  0  0  0  0  0  0  0  0  0  0  0
    3.5333   -2.7312    0.0566 C   0  0  0  0  0  0  0  0  0  0  0  0
    2.5558   -3.2952    0.0688 H   0  0  0  0  0  0  0  0  0  0  0  0
  1 12  1  0  0  0  0
  4  1  1  0  0  0  0
  5  4  1  0  0  0  0
  6  8  2  0  0  0  0
  6  4  1  0  0  0  0
  7  6  1  0  0  0  0
  8 10  1  0  0  0  0
  9  8  1  0  0  0  0
 10 11  1  0  0  0  0
 10 12  2  0  0  0  0
 12 13  1  0  0  0  0
 13 14  2  0  0  0  0
 13  2  1  0  0  0  0
 14 16  1  0  0  0  0
 15 14  1  0  0  0  0
 16  3  2  0  0  0  0
 16 17  1  0  0  0  0
M  CHG  1   2  -1
M  END
