1,2
q = -1.0, confidence = 0.0

 43 43  0  0  1  0  0  0  0  0999 V2000
   -2.0969    1.0393    0.2216 N   0  0  0  0  0  2  0  0  0  0  0  0
    0.0046    3.1207    0.3971 O   0  0  0  0  0  1  0  0  0  0  0  0
   -0.7487    5.3555    0.5992 C   0  0  0  0  0  0  0  0  0  0  0  0
   -0.1059    5.5390    1.4848 H   0  0  0  0  0  0  0  0  0  0  0  0
   -1.6628    5.9729    0.6800 H   0  0  0  0  0  0  0  0  0  0  0  0
   -0.1657    5.6858   -0.2855 H   0  0  0  0  0  0  0  0  0  0  0  0
   -1.0354    3.8692    0.4841 C   0  0  1  0  0  3  0  0  0  0  0  0
   -2.3820    3.4394    0.4808 C   0  0  0  0  0  0  0  0  0  0  0  0
   -3.1425    4.2262    0.5760 H   0  0  0  0  0  0  0  0  0  0  0  0
   -2.8809    2.1149    0.3413 C   0  0  0  0  0  0  0  0  0  0  0  0
   -4.3842    1.9261    0.3232 C   0  0  0  0  0  0  0  0  0  0  0  0
   -4.7110    1.4685   -0.6332 H   0  0  0  0  0  0  0  0  0  0  0  0
   -4.9168    2.8844    0.4590 H   0  0  0  0  0  0  0  0  0  0  0  0
   -4.7003    1.2225    1.1204 H   0  0  0  0  0  0  0  0  0  0  0  0
   -2.6404   -0.2540    0.0135 C   0  0  0  0  0  0  0  0  0  0  0  0
   -2.8736   -1.1091    1.1289 C   0  0  0  0  0  0  0  0  0  0  0  0
   -3.3111   -2.4244    0.8881 C   0  0  0  0  0  0  0  0  0  0  0  0
   -3.4904   -3.0983    1.7391 H   0  0  0  0  0  0  0  0  0  0  0  0
   -3.5372   -2.8863   -0.4157 C   0  0  0  0  0  0  0  0  0  0  0  0
   -3.8884   -3.9160   -0.5840 H   0  0  0  0  0  0  0  0  0  0  0  0
   -3.3295   -2.0271   -1.5030 C   0  0  0  0  0  0  0  0  0  0  0  0
   -3.5156   -2.3938   -2.5230 H   0  0  0  0  0  0  0  0  0  0  0  0
   -2.8852   -0.7062   -1.3159 C   0  0  0  0  0  0  0  0  0  0  0  0
   -2.5998   -0.6089    2.5433 C   0  0  0  0  0  0  0  0  0  0  0  0
   -2.7846    0.4861    2.5389 H   0  0  0  0  0  0  0  0  0  0  0  0
   -1.1164   -0.8042    2.8989 C   0  0  0  0  0  0  0  0  0  0  0  0
   -0.8411   -1.8796    2.8980 H   0  0  0  0  0  0  0  0  0  0  0  0
   -0.8766   -0.3873    3.8985 H   0  0  0  0  0  0  0  0  0  0  0  0
   -0.4690   -0.2937    2.1551 H   0  0  0  0  0  0  0  0  0  0  0  0
   -3.5132   -1.2294    3.6071 C   0  0  0  0  0  0  0  0  0  0  0  0
   -4.5843   -1.1238    3.3402 H   0  0  0  0  0  0  0  0  0  0  0  0
   -3.3520   -0.7358    4.5869 H   0  0  0  0  0  0  0  0  0  0  0  0
   -3.3062   -2.3100    3.7530 H   0  0  0  0  0  0  0  0  0  0  0  0
   -2.6251    0.2192   -2.5013 C   0  0  0  0  0  0  0  0  0  0  0  0
   -2.8350    1.2542   -2.1584 H   0  0  0  0  0  0  0  0  0  0  0  0
   -3.5316   -0.0582   -3.7071 C   0  0  0  0  0  0  0  0  0  0  0  0
   -3.2960   -1.0306   -4.1875 H   0  0  0  0  0  0  0  0  0  0  0  0
   -3.3920    0.7247   -4.4798 H   0  0  0  0  0  0  0  0  0  0  0  0
   -4.6030   -0.0729   -3.4213 H   0  0  0  0  0  0  0  0  0  0  0  0
   -1.1415    0.1818   -2.9094 C   0  0  0  0  0  0  0  0  0  0  0  0
   -0.4934    0.4802   -2.0574 H   0  0  0  0  0  0  0  0  0  0  0  0
   -0.9415    0.8796   -3.7484 H   0  0  0  0  0  0  0  0  0  0  0  0
   -0.8360   -0.8388   -3.2182 H   0  0  0  0  0  0  0  0  0  0  0  0
  1 10  1  0  0  0  0
  3  5  1  0  0  0  0
  3  4  1  0  0  0  0
  6  3  1  0  0  0  0
  7  2  1  6  0  0  0
  7  3  1  0  0  0  0
  8  7  1  0  0  0  0
  8  9  1  0  0  0  0
 10  8  2  0  0  0  0
 11 10  1  0  0  0  0
 11 13  1  0  0  0  0
 11 14  1  0  0  0  0
 12 11  1  0  0  0  0
 15  1  1  0  0  0  0
 15 16  1  0  0  0  0
 16 24  1  0  0  0  0
 17 16  2  0  0  0  0
 17 18  1  0  0  0  0
 19 17  1  0  0  0  0
 20 19  1  0  0  0  0
 21 23  1  0  0  0  0
 21 19  2  0  0  0  0
 22 21  1  0  0  0  0
 23 15  2  0  0  0  0
 24 26  1  0  0  0  0
 24 30  1  0  0  0  0
 25 24  1  0  0  0  0
 26 28  1  0  0  0  0
 27 26  1  0  0  0  0
 29 26  1  0  0  0  0
 30 33  1  0  0  0  0
 30 32  1  0  0  0  0
 31 30  1  0  0  0  0
 34 35  1  0  0  0  0
 34 23  1  0  0  0  0
 36 39  1  0  0  0  0
 36 34  1  0  0  0  0
 37 36  1  0  0  0  0
 38 36  1  0  0  0  0
 40 34  1  0  0  0  0
 40 41  1  0  0  0  0
 42 40  1  0  0  0  0
 43 40  1  0  0  0  0
M  END
