2,5
q = -1.0

 35 36  0  0  0  0  0  0  0  0999 V2000
    1.4503    1.2907    2.1995 S   0  0  0  0  0  0  0  0  0  0  0  0
   -1.5504   -1.2733    0.1747 O   0  5  0  0  0  0  0  0  0  0  0  0
   -6.1154   -1.4189    0.0605 O   0  0  0  0  0  0  0  0  0  0  0  0
   -4.1315    2.6805   -0.5164 O   0  0  0  0  0  0  0  0  0  0  0  0
   -0.2726    1.3599   -0.1973 N   0  0  0  0  0  2  0  0  0  0  0  0
   -3.8106   -1.3243    0.1151 N   0  0  0  0  0  0  0  0  0  0  0  0
   -5.1256    0.6236   -0.2413 N   0  0  0  0  0  0  0  0  0  0  0  0
    0.6114    2.4704   -0.1173 C   0  0  0  0  0  0  0  0  0  0  0  0
    0.5949    3.4708   -1.1055 C   0  0  0  0  0  0  0  0  0  0  0  0
   -0.1173    3.3697   -1.9380 H   0  0  0  0  0  0  0  0  0  0  0  0
    1.4890    4.5499   -1.0540 C   0  0  0  0  0  0  0  0  0  0  0  0
    1.4691    5.3193   -1.8396 H   0  0  0  0  0  0  0  0  0  0  0  0
    2.4128    4.6253   -0.0020 C   0  0  0  0  0  0  0  0  0  0  0  0
    3.1297    5.4586    0.0486 H   0  0  0  0  0  0  0  0  0  0  0  0
    2.4307    3.6435    1.0000 C   0  0  0  0  0  0  0  0  0  0  0  0
    3.1564    3.7329    1.8188 H   0  0  0  0  0  0  0  0  0  0  0  0
    1.5309    2.5592    0.9660 C   0  0  0  0  0  0  0  0  0  0  0  0
    2.7389    1.8087    3.3704 C   0  0  0  0  0  0  0  0  0  0  0  0
    3.7419    1.8074    2.8995 H   0  0  0  0  0  0  0  0  0  0  0  0
    2.7218    1.0481    4.1738 H   0  0  0  0  0  0  0  0  0  0  0  0
    2.5248    2.8021    3.8128 H   0  0  0  0  0  0  0  0  0  0  0  0
   -1.5656    1.6504   -0.2243 C   0  0  0  0  0  3  0  0  0  0  0  0
   -1.8414    2.7228   -0.2301 H   0  0  0  0  0  0  0  0  0  0  0  0
   -2.6940    0.7957   -0.2174 C   0  0  0  0  0  0  0  0  0  0  0  0
   -3.9893    1.4697   -0.3394 C   0  0  0  0  0  0  0  0  0  0  0  0
   -5.0926   -0.7476   -0.0178 C   0  0  0  0  0  0  0  0  0  0  0  0
   -2.6208   -0.6092    0.0185 C   0  0  0  0  0  0  0  0  0  0  0  0
   -3.7383   -2.7603    0.3627 C   0  0  0  0  0  0  0  0  0  0  0  0
   -3.1781   -3.2638   -0.4498 H   0  0  0  0  0  0  0  0  0  0  0  0
   -4.7742   -3.1369    0.4008 H   0  0  0  0  0  0  0  0  0  0  0  0
   -3.2213   -2.9608    1.3216 H   0  0  0  0  0  0  0  0  0  0  0  0
   -6.4524    1.2189   -0.3726 C   0  0  0  0  0  0  0  0  0  0  0  0
   -7.0441    1.0480    0.5476 H   0  0  0  0  0  0  0  0  0  0  0  0
   -6.9983    0.7586   -1.2188 H   0  0  0  0  0  0  0  0  0  0  0  0
   -6.3033    2.2987   -0.5439 H   0  0  0  0  0  0  0  0  0  0  0  0
  1 18  1  0  0  0  0
  4 25  2  0  0  0  0
  5  8  1  0  0  0  0
  6 28  1  0  0  0  0
  7 26  1  0  0  0  0
  8 17  1  0  0  0  0
  9 11  1  0  0  0  0
  9  8  2  0  0  0  0
 10  9  1  0  0  0  0
 11 13  2  0  0  0  0
 12 11  1  0  0  0  0
 13 14  1  0  0  0  0
 13 15  1  0  0  0  0
 15 16  1  0  0  0  0
 17 15  2  0  0  0  0
 17  1  1  0  0  0  0
 18 21  1  0  0  0  0
 18 20  1  0  0  0  0
 19 18  1  0  0  0  0
 22 24  1  0  0  0  0
 22  5  1  0  0  0  0
 23 22  1  0  0  0  0
 24 27  2  0  0  0  0
 25  7  1  0  0  0  0
 25 24  1  0  0  0  0
 26  3  2  0  0  0  0
 26  6  1  0  0  0  0
 27  6  1  0  0  0  0
 27  2  1  0  0  0  0
 28 30  1  0  0  0  0
 28 31  1  0  0  0  0
 29 28  1  0  0  0  0
 32  7  1  0  0  0  0
 32 33  1  0  0  0  0
 34 32  1  0  0  0  0
 35 32  1  0  0  0  0
M  CHG  1   2  -1
M  END
