1,4
q = -1.0

 49 50  0  0  0  0  0  0  0  0999 V2000
    1.4839    1.5901   -0.1675 O   0  5  0  0  0  0  0  0  0  0  0  0
    4.1137   -2.3308    0.4964 O   0  0  0  0  0  0  0  0  0  0  0  0
    6.0462    1.8044   -0.0003 O   0  0  0  0  0  0  0  0  0  0  0  0
    0.2399   -1.0791    0.0857 N   0  0  0  0  0  2  0  0  0  0  0  0
    5.0825   -0.2582    0.2459 N   0  0  0  0  0  0  0  0  0  0  0  0
    3.7441    1.6779   -0.0905 N   0  0  0  0  0  0  0  0  0  0  0  0
    1.5316   -1.3255    0.2297 C   0  0  0  0  0  3  0  0  0  0  0  0
    1.8160   -2.3726    0.4527 H   0  0  0  0  0  0  0  0  0  0  0  0
    2.6572   -0.4682    0.1502 C   0  0  0  0  0  0  0  0  0  0  0  0
    2.5672    0.9380   -0.0432 C   0  0  0  0  0  0  0  0  0  0  0  0
    3.6532    3.1206   -0.2859 C   0  0  0  0  0  0  0  0  0  0  0  0
    3.1240    3.3483   -1.2319 H   0  0  0  0  0  0  0  0  0  0  0  0
    4.6845    3.5101   -0.3210 H   0  0  0  0  0  0  0  0  0  0  0  0
    3.0981    3.5908    0.5500 H   0  0  0  0  0  0  0  0  0  0  0  0
    5.0327    1.1167    0.0487 C   0  0  0  0  0  0  0  0  0  0  0  0
    6.4159   -0.8355    0.3927 C   0  0  0  0  0  0  0  0  0  0  0  0
    7.0243   -0.6325   -0.5098 H   0  0  0  0  0  0  0  0  0  0  0  0
    6.2808   -1.9211    0.5367 H   0  0  0  0  0  0  0  0  0  0  0  0
    6.9356   -0.3877    1.2617 H   0  0  0  0  0  0  0  0  0  0  0  0
    3.9576   -1.1225    0.3140 C   0  0  0  0  0  0  0  0  0  0  0  0
   -0.6008   -2.2293    0.2338 C   0  0  0  0  0  0  0  0  0  0  0  0
   -1.3675   -2.3661    1.4192 C   0  0  0  0  0  0  0  0  0  0  0  0
   -2.2160   -3.4819    1.5331 C   0  0  0  0  0  0  0  0  0  0  0  0
   -2.8235   -3.6073    2.4411 H   0  0  0  0  0  0  0  0  0  0  0  0
   -2.3025   -4.4298    0.5067 C   0  0  0  0  0  0  0  0  0  0  0  0
   -2.9736   -5.2958    0.6116 H   0  0  0  0  0  0  0  0  0  0  0  0
   -1.5321   -4.2803   -0.6542 C   0  0  0  0  0  0  0  0  0  0  0  0
   -1.6086   -5.0329   -1.4514 H   0  0  0  0  0  0  0  0  0  0  0  0
   -0.6642   -3.1835   -0.8197 C   0  0  0  0  0  0  0  0  0  0  0  0
    0.1242   -2.9852   -2.1133 C   0  0  0  0  0  0  0  0  0  0  0  0
    1.1247   -2.5925   -1.8355 H   0  0  0  0  0  0  0  0  0  0  0  0
    0.3626   -4.2825   -2.8948 C   0  0  0  0  0  0  0  0  0  0  0  0
    0.8182   -5.0686   -2.2598 H   0  0  0  0  0  0  0  0  0  0  0  0
    1.0471   -4.0913   -3.7453 H   0  0  0  0  0  0  0  0  0  0  0  0
   -0.5778   -4.6886   -3.3221 H   0  0  0  0  0  0  0  0  0  0  0  0
   -0.5463   -1.9222   -3.0040 C   0  0  0  0  0  0  0  0  0  0  0  0
   -1.5634   -2.2479   -3.3053 H   0  0  0  0  0  0  0  0  0  0  0  0
    0.0479   -1.7553   -3.9258 H   0  0  0  0  0  0  0  0  0  0  0  0
   -0.6449   -0.9499   -2.4796 H   0  0  0  0  0  0  0  0  0  0  0  0
   -1.2550   -1.3376    2.5349 C   0  0  0  0  0  0  0  0  0  0  0  0
   -0.9556   -0.3811    2.0519 H   0  0  0  0  0  0  0  0  0  0  0  0
   -0.1352   -1.7284    3.5163 C   0  0  0  0  0  0  0  0  0  0  0  0
   -0.3674   -2.6915    4.0171 H   0  0  0  0  0  0  0  0  0  0  0  0
   -0.0115   -0.9543    4.3016 H   0  0  0  0  0  0  0  0  0  0  0  0
    0.8378   -1.8474    2.9986 H   0  0  0  0  0  0  0  0  0  0  0  0
   -2.5812   -1.0771    3.2589 C   0  0  0  0  0  0  0  0  0  0  0  0
   -3.3851   -0.8207    2.5398 H   0  0  0  0  0  0  0  0  0  0  0  0
   -2.4692   -0.2302    3.9659 H   0  0  0  0  0  0  0  0  0  0  0  0
   -2.9152   -1.9527    3.8539 H   0  0  0  0  0  0  0  0  0  0  0  0
  1 10  1  0  0  0  0
  3 15  2  0  0  0  0
  4  7  1  0  0  0  0
  4 21  1  0  0  0  0
  5 20  1  0  0  0  0
  5 16  1  0  0  0  0
  6 10  1  0  0  0  0
  6 15  1  0  0  0  0
  7  8  1  0  0  0  0
  9  7  1  0  0  0  0
  9 20  1  0  0  0  0
 10  9  2  0  0  0  0
 11  6  1  0  0  0  0
 11 14  1  0  0  0  0
 12 11  1  0  0  0  0
 13 11  1  0  0  0  0
 15  5  1  0  0  0  0
 16 18  1  0  0  0  0
 16 19  1  0  0  0  0
 17 16  1  0  0  0  0
 20  2  2  0  0  0  0
 21 22  1  0  0  0  0
 22 23  2  0  0  0  0
 22 40  1  0  0  0  0
 23 24  1  0  0  0  0
 25 26  1  0  0  0  0
 25 23  1  0  0  0  0
 27 25  2  0  0  0  0
 28 27  1  0  0  0  0
 29 27  1  0  0  0  0
 29 21  2  0  0  0  0
 30 31  1  0  0  0  0
 30 29  1  0  0  0  0
 32 33  1  0  0  0  0
 32 30  1  0  0  0  0
 34 32  1  0  0  0  0
 35 32  1  0  0  0  0
 36 39  1  0  0  0  0
 36 30  1  0  0  0  0
 37 36  1  0  0  0  0
 38 36  1  0  0  0  0
 40 46  1  0  0  0  0
 40 42  1  0  0  0  0
 41 40  1  0  0  0  0
 42 43  1  0  0  0  0
 42 44  1  0  0  0  0
 45 42  1  0  0  0  0
 46 49  1  0  0  0  0
 46 48  1  0  0  0  0
 47 46  1  0  0  0  0
M  CHG  1   1  -1
M  END
