2,3
q = 0.0, confidence = 0.916

 31 32  0  0  0  0  0  0  0  0999 V2000
    4.5320    0.1505   -2.0153 O   0  0  0  0  0  0  0  0  0  0  0  0
    1.9916    0.4351   -1.5295 O   0  5  0  0  0  0  0  0  0  0  0  0
   -0.0856    1.5526    0.2967 N   0  0  0  0  0  2  0  0  0  0  0  0
    2.3733    1.8314    0.4431 C   0  0  0  0  0  0  0  0  0  0  0  0
    3.3521    2.4451    1.2853 C   0  0  0  0  0  0  0  0  0  0  0  0
    2.9971    3.0369    2.1402 H   0  0  0  0  0  0  0  0  0  0  0  0
    4.7024    2.2914    1.0305 C   0  0  0  0  0  0  0  0  0  0  0  0
    5.4520    2.7621    1.6827 H   0  0  0  0  0  0  0  0  0  0  0  0
    5.1305    1.5287   -0.0888 C   0  0  0  0  0  0  0  0  0  0  0  0
    6.2070    1.4214   -0.2811 H   0  0  0  0  0  0  0  0  0  0  0  0
    4.2107    0.9155   -0.9364 C   0  0  0  0  0  0  0  0  0  0  0  0
    2.7806    1.0334   -0.7131 C   0  0  0  0  0  0  0  0  0  0  0  0
    5.8992   -0.0810   -2.2733 C   0  0  0  0  0  0  0  0  0  0  0  0
    5.9456   -0.7318   -3.1664 H   0  0  0  0  0  0  0  0  0  0  0  0
    6.4004   -0.5967   -1.4211 H   0  0  0  0  0  0  0  0  0  0  0  0
    6.4519    0.8627   -2.4860 H   0  0  0  0  0  0  0  0  0  0  0  0
    1.0019    1.9879    0.7186 C   0  0  0  0  0  2  0  0  0  0  0  0
   -1.4349    1.6566    0.7194 C   0  0  0  0  0  0  0  0  0  0  0  0
   -1.8116    1.1816    1.9894 C   0  0  0  0  0  0  0  0  0  0  0  0
   -1.0410    0.7799    2.6626 H   0  0  0  0  0  0  0  0  0  0  0  0
   -3.1574    1.2092    2.3695 C   0  0  0  0  0  0  0  0  0  0  0  0
   -3.4455    0.8176    3.3573 H   0  0  0  0  0  0  0  0  0  0  0  0
   -4.1524    1.7013    1.5002 C   0  0  0  0  0  0  0  0  0  0  0  0
   -3.7479    2.1968    0.2434 C   0  0  0  0  0  0  0  0  0  0  0  0
   -4.5045    2.5921   -0.4516 H   0  0  0  0  0  0  0  0  0  0  0  0
   -2.4076    2.1734   -0.1541 C   0  0  0  0  0  0  0  0  0  0  0  0
   -2.1063    2.5289   -1.1487 H   0  0  0  0  0  0  0  0  0  0  0  0
   -5.6079    1.6430    1.8810 C   0  0  0  0  0  0  0  0  0  0  0  0
   -6.2112    2.3789    1.3138 H   0  0  0  0  0  0  0  0  0  0  0  0
   -6.0169    0.6330    1.6602 H   0  0  0  0  0  0  0  0  0  0  0  0
   -5.7593    1.8276    2.9631 H   0  0  0  0  0  0  0  0  0  0  0  0
  1 11  1  0  0  0  0
  2 12  1  0  0  0  0
  3 17  1  0  0  0  0
  3 18  1  0  0  0  0
  4 17  1  0  0  0  0
  4  5  1  0  0  0  0
  5  6  1  0  0  0  0
  7  5  2  0  0  0  0
  7  8  1  0  0  0  0
  9  7  1  0  0  0  0
 10  9  1  0  0  0  0
 11 12  1  0  0  0  0
 11  9  2  0  0  0  0
 12  4  2  0  0  0  0
 13  1  1  0  0  0  0
 13 15  1  0  0  0  0
 14 13  1  0  0  0  0
 16 13  1  0  0  0  0
 18 19  1  0  0  0  0
 19 21  2  0  0  0  0
 19 20  1  0  0  0  0
 21 22  1  0  0  0  0
 23 28  1  0  0  0  0
 23 21  1  0  0  0  0
 24 23  2  0  0  0  0
 25 24  1  0  0  0  0
 26 24  1  0  0  0  0
 26 18  2  0  0  0  0
 27 26  1  0  0  0  0
 28 31  1  0  0  0  0
 29 28  1  0  0  0  0
 30 28  1  0  0  0  0
M  CHG  1   2  -1
M  END
