1,4
q = -1.0, confidence = 0.0

 21 21  0  0  1  0  0  0  0  0999 V2000
    1.4488    0.2709   -0.1885 N   0  0  0  0  0  2  0  0  0  0  0  0
    1.7721    1.1958    0.1181 H   0  0  0  0  0  0  0  0  0  0  0  0
    2.2347   -1.9273   -0.6204 N   0  0  0  0  0  0  0  0  0  0  0  0
   -0.0884   -1.7500   -0.9662 O   0  5  0  0  0  0  0  0  0  0  0  0
    0.9051   -3.8773   -1.1963 C   0  0  0  0  0  0  0  0  0  0  0  0
    0.4569   -4.3798   -0.3131 H   0  0  0  0  0  0  0  0  0  0  0  0
    1.8975   -4.3182   -1.3912 H   0  0  0  0  0  0  0  0  0  0  0  0
    0.2217   -4.0508   -2.0493 H   0  0  0  0  0  0  0  0  0  0  0  0
    1.0285   -2.4039   -0.9094 C   0  0  0  0  0  0  0  0  0  0  0  0
    2.4293   -0.6225   -0.3145 C   0  0  2  0  0  3  0  0  0  0  0  0
    3.8413   -0.2001   -0.1039 C   0  0  0  0  0  0  0  0  0  0  0  0
    4.2318    1.1580   -0.1457 C   0  0  0  0  0  0  0  0  0  0  0  0
    3.5010    1.9475   -0.3855 H   0  0  0  0  0  0  0  0  0  0  0  0
    5.5662    1.5211    0.0705 C   0  0  0  0  0  0  0  0  0  0  0  0
    5.8598    2.5803    0.0252 H   0  0  0  0  0  0  0  0  0  0  0  0
    6.5307    0.5323    0.3287 C   0  0  0  0  0  0  0  0  0  0  0  0
    7.5794    0.8187    0.4986 H   0  0  0  0  0  0  0  0  0  0  0  0
    6.1555   -0.8206    0.3569 C   0  0  0  0  0  0  0  0  0  0  0  0
    6.9100   -1.5975    0.5509 H   0  0  0  0  0  0  0  0  0  0  0  0
    4.8229   -1.1874    0.1345 C   0  0  0  0  0  0  0  0  0  0  0  0
    4.5065   -2.2394    0.1424 H   0  0  0  0  0  0  0  0  0  0  0  0
  1  2  1  0  0  0  0
  4  9  1  0  0  0  0
  5  9  1  0  0  0  0
  5  6  1  0  0  0  0
  7  5  1  0  0  0  0
  8  5  1  0  0  0  0
  9  3  2  0  0  0  0
 10  3  1  1  0  0  0
 10  1  1  0  0  0  0
 10 11  1  0  0  0  0
 11 20  1  0  0  0  0
 12 11  2  0  0  0  0
 12 14  1  0  0  0  0
 13 12  1  0  0  0  0
 14 16  2  0  0  0  0
 15 14  1  0  0  0  0
 16 18  1  0  0  0  0
 16 17  1  0  0  0  0
 18 19  1  0  0  0  0
 20 21  1  0  0  0  0
 20 18  2  0  0  0  0
M  CHG  1   4  -1
M  END
