1,3
q = -1.0

 25 25  0  0  1  0  0  0  0  0999 V2000
   -0.8260    1.1497    1.3537 O   0  5  0  0  0  0  0  0  0  0  0  0
    0.7676    2.4999    2.1709 O   0  0  0  0  0  0  0  0  0  0  0  0
    0.7923   -0.0225   -0.4134 N   0  0  0  0  0  0  0  0  0  0  0  0
    0.6983    0.6430   -1.1947 H   0  0  0  0  0  0  0  0  0  0  0  0
    0.4143    1.5485    1.4843 C   0  0  0  0  0  0  0  0  0  0  0  0
    1.4611    0.7076    0.7047 C   0  0  2  0  0  0  0  0  0  0  0  0
    1.7863   -0.0781    1.4188 H   0  0  0  0  0  0  0  0  0  0  0  0
    2.6421    1.5897    0.2796 C   0  0  0  0  0  0  0  0  0  0  0  0
    2.8079    2.2537    1.1556 H   0  0  0  0  0  0  0  0  0  0  0  0
    2.3176    2.2634   -0.5441 H   0  0  0  0  0  0  0  0  0  0  0  0
    3.9186    0.8784   -0.1012 C   0  0  0  0  0  0  0  0  0  0  0  0
    4.4856    1.0323   -1.3823 C   0  0  0  0  0  0  0  0  0  0  0  0
    3.9921    1.6946   -2.1121 H   0  0  0  0  0  0  0  0  0  0  0  0
    5.6634    0.3565   -1.7397 C   0  0  0  0  0  0  0  0  0  0  0  0
    6.0880    0.4917   -2.7464 H   0  0  0  0  0  0  0  0  0  0  0  0
    6.2970   -0.4881   -0.8160 C   0  0  0  0  0  0  0  0  0  0  0  0
    7.2190   -1.0213   -1.0931 H   0  0  0  0  0  0  0  0  0  0  0  0
    5.7488   -0.6426    0.4686 C   0  0  0  0  0  0  0  0  0  0  0  0
    6.2435   -1.2959    1.2036 H   0  0  0  0  0  0  0  0  0  0  0  0
    4.5745    0.0356    0.8219 C   0  0  0  0  0  0  0  0  0  0  0  0
    4.1559   -0.0914    1.8331 H   0  0  0  0  0  0  0  0  0  0  0  0
    1.5390   -1.2085   -0.8944 C   0  0  0  0  0  0  0  0  0  0  0  0
    2.5795   -0.9501   -1.1713 H   0  0  0  0  0  0  0  0  0  0  0  0
    1.5340   -1.9587   -0.0815 H   0  0  0  0  0  0  0  0  0  0  0  0
    1.0155   -1.6315   -1.7718 H   0  0  0  0  0  0  0  0  0  0  0  0
  1  5  1  0  0  0  0
  3  6  1  0  0  0  0
  4  3  1  0  0  0  0
  5  2  2  0  0  0  0
  6  7  1  1  0  0  0
  6  5  1  0  0  0  0
  8  6  1  0  0  0  0
  8  9  1  0  0  0  0
 10  8  1  0  0  0  0
 11  8  1  0  0  0  0
 11 20  1  0  0  0  0
 12 11  2  0  0  0  0
 13 12  1  0  0  0  0
 14 12  1  0  0  0  0
 14 16  2  0  0  0  0
 15 14  1  0  0  0  0
 16 18  1  0  0  0  0
 17 16  1  0  0  0  0
 18 20  2  0  0  0  0
 18 19  1  0  0  0  0
 20 21  1  0  0  0  0
 22  3  1  0  0  0  0
 22 24  1  0  0  0  0
 23 22  1  0  0  0  0
 25 22  1  0  0  0  0
M  CHG  1   1  -1
M  END
