1,5
q = -1.0

 19 20  0  0  1  0  0  0  0  0999 V2000
   -1.9486   -1.0165   -0.2100 N   0  0  0  0  0  2  0  0  0  0  0  0
   -3.3595    2.3304   -0.1609 N   0  0  0  0  0  0  0  0  0  0  0  0
   -4.6643    1.9955   -0.0034 N   0  0  0  0  0  0  0  0  0  0  0  0
   -5.3058    2.7940    0.0416 H   0  0  0  0  0  0  0  0  0  0  0  0
   -1.1968    1.6079   -0.3930 O   0  5  0  0  0  0  0  0  0  0  0  0
   -6.4802    0.6013    0.2452 O   0  0  0  0  0  0  0  0  0  0  0  0
   -2.3082   -2.3160   -0.1630 C   0  0  1  0  0  3  0  0  0  0  0  0
   -3.6704   -2.6819    0.0043 C   0  0  0  0  0  0  0  0  0  0  0  0
   -3.9309   -3.7492    0.0502 H   0  0  0  0  0  0  0  0  0  0  0  0
   -4.6536   -1.7019    0.1041 C   0  0  0  0  0  0  0  0  0  0  0  0
   -5.7203   -1.9396    0.2367 H   0  0  0  0  0  0  0  0  0  0  0  0
   -4.2727   -0.3498    0.0267 C   0  0  0  0  0  0  0  0  0  0  0  0
   -2.9038   -0.0501   -0.1286 C   0  0  0  0  0  0  0  0  0  0  0  0
   -1.2490   -3.3639   -0.3410 C   0  0  0  0  0  0  0  0  0  0  0  0
   -0.2609   -3.0199    0.0250 H   0  0  0  0  0  0  0  0  0  0  0  0
   -1.1316   -3.5889   -1.4240 H   0  0  0  0  0  0  0  0  0  0  0  0
   -1.5376   -4.3099    0.1550 H   0  0  0  0  0  0  0  0  0  0  0  0
   -2.4733    1.3530   -0.2231 C   0  0  0  0  0  0  0  0  0  0  0  0
   -5.2636    0.7453    0.1055 C   0  0  0  0  0  0  0  0  0  0  0  0
  1  7  1  0  0  0  0
  1 13  1  0  0  0  0
  2  3  1  0  0  0  0
  3  4  1  0  0  0  0
  3 19  1  0  0  0  0
  5 18  1  0  0  0  0
  7 14  1  6  0  0  0
  7  8  1  0  0  0  0
  8  9  1  0  0  0  0
  8 10  2  0  0  0  0
 10 11  1  0  0  0  0
 12 10  1  0  0  0  0
 12 19  1  0  0  0  0
 13 12  2  0  0  0  0
 14 15  1  0  0  0  0
 14 17  1  0  0  0  0
 16 14  1  0  0  0  0
 18  2  2  0  0  0  0
 18 13  1  0  0  0  0
 19  6  2  0  0  0  0
M  CHG  1   5  -1
M  END
