1,3
q = -1.0

 22 23  0  0  0  0  0  0  0  0999 V2000
   -0.7151    1.9527    0.0575 O   0  5  0  0  0  0  0  0  0  0  0  0
   -6.1408    2.0778    0.1141 O   0  0  0  0  0  0  0  0  0  0  0  0
   -2.0420   -0.4125   -0.2949 N   0  0  0  0  0  2  0  0  0  0  0  0
   -2.6950    3.1088    0.2530 N   0  0  0  0  0  0  0  0  0  0  0  0
   -4.0529    3.0443    0.2488 N   0  0  0  0  0  0  0  0  0  0  0  0
   -4.5170    3.9477    0.3897 H   0  0  0  0  0  0  0  0  0  0  0  0
   -2.6667   -1.5836   -0.4563 C   0  0  0  0  0  3  0  0  0  0  0  0
   -2.0106   -2.4617   -0.5889 H   0  0  0  0  0  0  0  0  0  0  0  0
   -4.0771   -1.7102   -0.4614 C   0  0  0  0  0  0  0  0  0  0  0  0
   -4.8255   -0.5364   -0.2806 C   0  0  0  0  0  0  0  0  0  0  0  0
   -5.9276   -0.5440   -0.2720 H   0  0  0  0  0  0  0  0  0  0  0  0
   -4.1727    0.6958   -0.1039 C   0  0  0  0  0  0  0  0  0  0  0  0
   -2.7629    0.7208   -0.1098 C   0  0  0  0  0  0  0  0  0  0  0  0
   -2.0239    1.9811    0.0805 C   0  0  0  0  0  0  0  0  0  0  0  0
   -4.9127    1.9627    0.0910 C   0  0  0  0  0  0  0  0  0  0  0  0
   -4.7264   -3.0661   -0.5916 C   0  0  0  0  0  0  0  0  0  0  0  0
   -4.0762   -3.7276   -1.2016 H   0  0  0  0  0  0  0  0  0  0  0  0
   -5.6813   -2.9602   -1.1472 H   0  0  0  0  0  0  0  0  0  0  0  0
   -4.9915   -3.7197    0.7740 C   0  0  0  0  0  0  0  0  0  0  0  0
   -5.4695   -4.7122    0.6526 H   0  0  0  0  0  0  0  0  0  0  0  0
   -5.6610   -3.0899    1.3942 H   0  0  0  0  0  0  0  0  0  0  0  0
   -4.0482   -3.8603    1.3395 H   0  0  0  0  0  0  0  0  0  0  0  0
  1 14  1  0  0  0  0
  3 13  1  0  0  0  0
  5  4  1  0  0  0  0
  5  6  1  0  0  0  0
  7  3  1  0  0  0  0
  8  7  1  0  0  0  0
  9  7  1  0  0  0  0
  9 10  2  0  0  0  0
 10 11  1  0  0  0  0
 10 12  1  0  0  0  0
 12 15  1  0  0  0  0
 13 12  2  0  0  0  0
 13 14  1  0  0  0  0
 14  4  2  0  0  0  0
 15  2  2  0  0  0  0
 15  5  1  0  0  0  0
 16  9  1  0  0  0  0
 16 19  1  0  0  0  0
 17 16  1  0  0  0  0
 18 16  1  0  0  0  0
 19 22  1  0  0  0  0
 19 21  1  0  0  0  0
 20 19  1  0  0  0  0
M  CHG  1   1  -1
M  END
