2,3
q = -1.0, confidence = 0.058

 16 15  0  0  0  0  0  0  0  0999 V2000
    2.5000    1.8666    2.5303 O   0  5  0  0  0  0  0  0  0  0  0  0
    0.6530    0.8357    1.7128 O   0  0  0  0  0  0  0  0  0  0  0  0
    2.0407   -0.5038   -0.0103 N   0  0  0  0  0  2  0  0  0  0  0  0
    2.6900   -1.3088   -1.0661 C   0  0  0  0  0  0  0  0  0  0  0  0
    2.4728   -0.6141   -2.4175 C   0  0  0  0  0  0  0  0  0  0  0  0
    4.1646   -1.6238   -0.8159 C   0  0  0  0  0  0  0  0  0  0  0  0
    2.7248    0.2297    0.8049 C   0  0  0  0  0  3  0  0  0  0  0  0
    1.9443    1.0604    1.7897 C   0  0  0  0  0  0  0  0  0  0  0  0
    2.1258   -2.2647   -1.0802 H   0  0  0  0  0  0  0  0  0  0  0  0
    2.8231   -1.2658   -3.2414 H   0  0  0  0  0  0  0  0  0  0  0  0
    3.0411    0.3376   -2.4583 H   0  0  0  0  0  0  0  0  0  0  0  0
    1.4035   -0.3863   -2.5867 H   0  0  0  0  0  0  0  0  0  0  0  0
    4.8057   -0.7219   -0.8900 H   0  0  0  0  0  0  0  0  0  0  0  0
    4.5181   -2.3403   -1.5827 H   0  0  0  0  0  0  0  0  0  0  0  0
    4.3206   -2.0857    0.1793 H   0  0  0  0  0  0  0  0  0  0  0  0
    3.8275    0.2881    0.7983 H   0  0  0  0  0  0  0  0  0  0  0  0
  2  8  2  0  0  0  0
  3  7  1  0  0  0  0
  4  6  1  0  0  0  0
  4  3  1  0  0  0  0
  5  4  1  0  0  0  0
  6 15  1  0  0  0  0
  7  8  1  0  0  0  0
  8  1  1  0  0  0  0
  9  4  1  0  0  0  0
 10  5  1  0  0  0  0
 11  5  1  0  0  0  0
 12  5  1  0  0  0  0
 13  6  1  0  0  0  0
 14  6  1  0  0  0  0
 16  7  1  0  0  0  0
M  CHG  1   1  -1
M  END
