1,3
q = -2.0, confidence = 0.812

 20 21  0  0  0  0  0  0  0  0999 V2000
   -0.3198   -1.9235    0.0001 O   0  5  0  0  0  0  0  0  0  0  0  0
   -0.6913    2.7898    0.0002 O   0  0  0  0  0  0  0  0  0  0  0  0
   -1.1649    0.5199   -0.0000 N   0  0  0  0  0  0  0  0  0  0  0  0
   -1.5376    1.8824    0.0001 C   0  0  0  0  0  0  0  0  0  0  0  0
   -2.9746    2.1612   -0.0000 C   0  0  0  0  0  0  0  0  0  0  0  0
   -3.9542    1.1977   -0.0001 C   0  0  0  0  0  0  0  0  0  0  0  0
   -3.5443   -0.1952   -0.0000 C   0  0  0  0  0  3  0  0  0  0  0  0
   -4.4278   -1.3033   -0.0000 C   0  0  0  0  0  0  0  0  0  0  0  0
   -3.9302   -2.6136    0.0000 C   0  0  0  0  0  0  0  0  0  0  0  0
   -2.5453   -2.8681    0.0000 C   0  0  0  0  0  0  0  0  0  0  0  0
   -1.6477   -1.7863    0.0000 C   0  0  0  0  0  0  0  0  0  0  0  0
   -2.1482   -0.4555   -0.0000 C   0  0  0  0  0  0  0  0  0  0  0  0
   -5.4131    1.5603   -0.0001 C   0  0  0  0  0  0  0  0  0  0  0  0
   -3.2307    3.2312   -0.0000 H   0  0  0  0  0  0  0  0  0  0  0  0
   -5.5137   -1.1326   -0.0000 H   0  0  0  0  0  0  0  0  0  0  0  0
   -4.6332   -3.4603    0.0000 H   0  0  0  0  0  0  0  0  0  0  0  0
   -2.1461   -3.8927    0.0001 H   0  0  0  0  0  0  0  0  0  0  0  0
   -5.9289    1.1421    0.8896 H   0  0  0  0  0  0  0  0  0  0  0  0
   -5.5556    2.6571   -0.0001 H   0  0  0  0  0  0  0  0  0  0  0  0
   -5.9288    1.1421   -0.8898 H   0  0  0  0  0  0  0  0  0  0  0  0
  3  4  1  0  0  0  0
  4  2  2  0  0  0  0
  5  4  1  0  0  0  0
  6  7  1  0  0  0  0
  6  5  2  0  0  0  0
  7  8  1  0  0  0  0
  7 12  1  0  0  0  0
  8  9  2  0  0  0  0
  9 16  1  0  0  0  0
  9 10  1  0  0  0  0
 10 17  1  0  0  0  0
 11 10  2  0  0  0  0
 11  1  1  0  0  0  0
 12  3  2  0  0  0  0
 12 11  1  0  0  0  0
 13 19  1  0  0  0  0
 13  6  1  0  0  0  0
 13 18  1  0  0  0  0
 14  5  1  0  0  0  0
 15  8  1  0  0  0  0
 20 13  1  0  0  0  0
M  CHG  1   1  -1
M  END
