2,3
q = -1.0, confidence = 0.002

 31 32  0  0  0  0  0  0  0  0999 V2000
    7.3478   -0.7257   -0.0149 Br  0  0  0  0  0  0  0  0  0  0  0  0
    1.6394    0.5796   -1.6155 O   0  5  0  0  0  0  0  0  0  0  0  0
    0.8556   -1.5380    0.2710 N   0  0  0  0  0  2  0  0  0  0  0  0
    3.1441   -0.8111   -0.2859 C   0  0  0  0  0  0  0  0  0  0  0  0
    2.8389    0.2382   -1.2435 C   0  0  0  0  0  0  0  0  0  0  0  0
    3.9541    0.9448   -1.7998 C   0  0  0  0  0  0  0  0  0  0  0  0
    3.7247    1.7330   -2.5317 H   0  0  0  0  0  0  0  0  0  0  0  0
    5.2667    0.6689   -1.4407 C   0  0  0  0  0  0  0  0  0  0  0  0
    6.0958    1.2405   -1.8830 H   0  0  0  0  0  0  0  0  0  0  0  0
    5.5431   -0.3542   -0.5020 C   0  0  0  0  0  0  0  0  0  0  0  0
    4.5013   -1.0831    0.0536 C   0  0  0  0  0  0  0  0  0  0  0  0
    4.7166   -1.8861    0.7751 H   0  0  0  0  0  0  0  0  0  0  0  0
    2.1530   -1.6504    0.3447 C   0  0  0  0  0  3  0  0  0  0  0  0
    2.5612   -2.4803    0.9652 H   0  0  0  0  0  0  0  0  0  0  0  0
    0.0003   -2.5222    0.9336 C   0  0  0  0  0  0  0  0  0  0  0  0
    0.6308   -3.1602    1.6002 H   0  0  0  0  0  0  0  0  0  0  0  0
   -0.6654   -3.4269   -0.1228 C   0  0  0  0  0  0  0  0  0  0  0  0
    0.1251   -3.9773   -0.6746 H   0  0  0  0  0  0  0  0  0  0  0  0
   -1.1736   -2.7692   -0.8609 H   0  0  0  0  0  0  0  0  0  0  0  0
   -1.6735   -4.3950    0.5078 C   0  0  0  0  0  0  0  0  0  0  0  0
   -2.1590   -4.9961   -0.2887 H   0  0  0  0  0  0  0  0  0  0  0  0
   -1.1364   -5.1195    1.1611 H   0  0  0  0  0  0  0  0  0  0  0  0
   -2.7248   -3.6502    1.3401 C   0  0  0  0  0  0  0  0  0  0  0  0
   -3.3287   -2.9973    0.6706 H   0  0  0  0  0  0  0  0  0  0  0  0
   -3.4321   -4.3681    1.8048 H   0  0  0  0  0  0  0  0  0  0  0  0
   -2.0559   -2.7858    2.4158 C   0  0  0  0  0  0  0  0  0  0  0  0
   -1.5294   -3.4432    3.1441 H   0  0  0  0  0  0  0  0  0  0  0  0
   -2.8162   -2.2231    2.9960 H   0  0  0  0  0  0  0  0  0  0  0  0
   -1.0550   -1.8061    1.7941 C   0  0  0  0  0  0  0  0  0  0  0  0
   -1.6062   -1.0931    1.1436 H   0  0  0  0  0  0  0  0  0  0  0  0
   -0.5471   -1.1992    2.5728 H   0  0  0  0  0  0  0  0  0  0  0  0
  2  5  1  0  0  0  0
  3 13  1  0  0  0  0
  3 15  1  0  0  0  0
  4 11  1  0  0  0  0
  4 13  1  0  0  0  0
  5  4  2  0  0  0  0
  6  8  2  0  0  0  0
  6  5  1  0  0  0  0
  7  6  1  0  0  0  0
  8 10  1  0  0  0  0
  9  8  1  0  0  0  0
 10  1  1  0  0  0  0
 10 11  2  0  0  0  0
 11 12  1  0  0  0  0
 13 14  1  0  0  0  0
 15 16  1  0  0  0  0
 15 29  1  0  0  0  0
 17 20  1  0  0  0  0
 17 15  1  0  0  0  0
 18 17  1  0  0  0  0
 19 17  1  0  0  0  0
 20 22  1  0  0  0  0
 20 23  1  0  0  0  0
 21 20  1  0  0  0  0
 23 25  1  0  0  0  0
 23 26  1  0  0  0  0
 24 23  1  0  0  0  0
 26 28  1  0  0  0  0
 26 27  1  0  0  0  0
 29 26  1  0  0  0  0
 29 31  1  0  0  0  0
 30 29  1  0  0  0  0
M  CHG  1   2  -1
M  END
