1,4
q = -1.0, confidence = 0.002

 33 34  0  0  0  0  0  0  0  0999 V2000
   -1.6564    0.5142   -1.5936 O   0  5  0  0  0  0  0  0  0  0  0  0
   -7.7985   -0.3042   -0.7156 O   0  0  0  0  0  0  0  0  0  0  0  0
   -7.0443   -1.8508    0.6367 O   0  0  0  0  0  0  0  0  0  0  0  0
   -0.7989   -1.5723    0.2978 N   0  0  0  0  0  2  0  0  0  0  0  0
   -6.8858   -0.9397   -0.1813 N   0  0  0  0  0  0  0  0  0  0  0  0
   -2.8417    0.1239   -1.2443 C   0  0  0  0  0  0  0  0  0  0  0  0
   -3.9783    0.7848   -1.8228 C   0  0  0  0  0  0  0  0  0  0  0  0
   -3.7657    1.5804   -2.5513 H   0  0  0  0  0  0  0  0  0  0  0  0
   -5.2783    0.4528   -1.4829 C   0  0  0  0  0  0  0  0  0  0  0  0
   -6.1454    0.9674   -1.9191 H   0  0  0  0  0  0  0  0  0  0  0  0
   -5.5093   -0.5817   -0.5462 C   0  0  0  0  0  0  0  0  0  0  0  0
   -4.4495   -1.2707    0.0302 C   0  0  0  0  0  0  0  0  0  0  0  0
   -4.6780   -2.0763    0.7433 H   0  0  0  0  0  0  0  0  0  0  0  0
   -3.1098   -0.9429   -0.2869 C   0  0  0  0  0  0  0  0  0  0  0  0
   -2.0893   -1.7410    0.3564 C   0  0  0  0  0  3  0  0  0  0  0  0
   -2.4713   -2.5888    0.9680 H   0  0  0  0  0  0  0  0  0  0  0  0
    0.0912   -2.5259    0.9621 C   0  0  0  0  0  0  0  0  0  0  0  0
   -0.5168   -3.1805    1.6322 H   0  0  0  0  0  0  0  0  0  0  0  0
    1.1268   -1.7745    1.8158 C   0  0  0  0  0  0  0  0  0  0  0  0
    1.6556   -1.0485    1.1605 H   0  0  0  0  0  0  0  0  0  0  0  0
    0.6043   -1.1793    2.5939 H   0  0  0  0  0  0  0  0  0  0  0  0
    2.1568   -2.7235    2.4382 C   0  0  0  0  0  0  0  0  0  0  0  0
    2.9020   -2.1374    3.0145 H   0  0  0  0  0  0  0  0  0  0  0  0
    1.6501   -3.3912    3.1708 H   0  0  0  0  0  0  0  0  0  0  0  0
    2.8466   -3.5746    1.3651 C   0  0  0  0  0  0  0  0  0  0  0  0
    3.4333   -2.9097    0.6920 H   0  0  0  0  0  0  0  0  0  0  0  0
    3.5730   -4.2711    1.8320 H   0  0  0  0  0  0  0  0  0  0  0  0
    1.8149   -4.3507    0.5371 C   0  0  0  0  0  0  0  0  0  0  0  0
    1.2986   -5.0875    1.1930 H   0  0  0  0  0  0  0  0  0  0  0  0
    2.3149   -4.9405   -0.2586 H   0  0  0  0  0  0  0  0  0  0  0  0
    0.7793   -3.4131   -0.0948 C   0  0  0  0  0  0  0  0  0  0  0  0
    1.2684   -2.7447   -0.8362 H   0  0  0  0  0  0  0  0  0  0  0  0
    0.0036   -3.9869   -0.6436 H   0  0  0  0  0  0  0  0  0  0  0  0
  1  6  1  0  0  0  0
  2  5  2  0  0  0  0
  4 15  1  0  0  0  0
  4 17  1  0  0  0  0
  5  3  2  0  0  0  0
  6 14  1  0  0  0  0
  7  9  1  0  0  0  0
  7  6  2  0  0  0  0
  8  7  1  0  0  0  0
  9 11  2  0  0  0  0
 10  9  1  0  0  0  0
 11  5  1  0  0  0  0
 11 12  1  0  0  0  0
 12 13  1  0  0  0  0
 14 12  2  0  0  0  0
 14 15  1  0  0  0  0
 15 16  1  0  0  0  0
 17 18  1  0  0  0  0
 17 19  1  0  0  0  0
 19 22  1  0  0  0  0
 19 21  1  0  0  0  0
 20 19  1  0  0  0  0
 22 23  1  0  0  0  0
 22 24  1  0  0  0  0
 25 27  1  0  0  0  0
 25 22  1  0  0  0  0
 26 25  1  0  0  0  0
 28 29  1  0  0  0  0
 28 25  1  0  0  0  0
 30 28  1  0  0  0  0
 31 28  1  0  0  0  0
 31 17  1  0  0  0  0
 32 31  1  0  0  0  0
 33 31  1  0  0  0  0
M  CHG  1   1  -1
M  END
