1,3
q = -1.0, confidence = 0.014

 19 19  0  0  1  0  0  0  0  0999 V2000
    0.1887    1.8843   -0.3443 O   0  5  0  0  0  0  0  0  0  0  0  0
    2.0957    3.0857   -0.3892 O   0  0  0  0  0  0  0  0  0  0  0  0
    1.3795   -0.3295    0.3114 N   0  0  0  0  0  0  0  0  0  0  0  0
    1.4934    2.0184   -0.3710 C   0  0  0  0  0  0  0  0  0  0  0  0
    2.2178    0.6650   -0.4207 C   0  0  1  0  0  0  0  0  0  0  0  0
    3.6595    0.6491    0.0665 C   0  0  0  0  0  0  0  0  0  0  0  0
    4.2534   -0.7550   -0.1075 C   0  0  0  0  0  0  0  0  0  0  0  0
    3.3620   -1.8148    0.5583 C   0  0  0  0  0  0  0  0  0  0  0  0
    1.8998   -1.7045    0.1088 C   0  0  0  0  0  0  0  0  0  0  0  0
    1.4529   -0.1027    1.3170 H   0  0  0  0  0  0  0  0  0  0  0  0
    2.1657    0.3434   -1.4849 H   0  0  0  0  0  0  0  0  0  0  0  0
    3.6943    0.9624    1.1350 H   0  0  0  0  0  0  0  0  0  0  0  0
    4.2219    1.4210   -0.4951 H   0  0  0  0  0  0  0  0  0  0  0  0
    4.3347   -0.9795   -1.1936 H   0  0  0  0  0  0  0  0  0  0  0  0
    5.2825   -0.8059    0.3039 H   0  0  0  0  0  0  0  0  0  0  0  0
    3.4098   -1.6965    1.6656 H   0  0  0  0  0  0  0  0  0  0  0  0
    3.7298   -2.8392    0.3410 H   0  0  0  0  0  0  0  0  0  0  0  0
    1.2551   -2.4133    0.6625 H   0  0  0  0  0  0  0  0  0  0  0  0
    1.7693   -1.9175   -0.9716 H   0  0  0  0  0  0  0  0  0  0  0  0
  2  4  2  0  0  0  0
  3 10  1  0  0  0  0
  4  1  1  0  0  0  0
  5 11  1  6  0  0  0
  5  4  1  0  0  0  0
  5  6  1  0  0  0  0
  5  3  1  0  0  0  0
  6 12  1  0  0  0  0
  7  6  1  0  0  0  0
  7 15  1  0  0  0  0
  7  8  1  0  0  0  0
  8 16  1  0  0  0  0
  9  3  1  0  0  0  0
  9  8  1  0  0  0  0
  9 18  1  0  0  0  0
 13  6  1  0  0  0  0
 14  7  1  0  0  0  0
 17  8  1  0  0  0  0
 19  9  1  0  0  0  0
M  CHG  1   1  -1
M  END
