30,31
q = -1.0, confidence = 0.0

 31 32  0  0  1  0  0  0  0  0999 V2000
   -2.5154   -3.1844   -0.9611 C   0  0  0  0  0  0  0  0  0  0  0  0
   -3.2634   -3.0007   -0.1616 H   0  0  0  0  0  0  0  0  0  0  0  0
   -2.4028   -4.2734   -1.1138 H   0  0  0  0  0  0  0  0  0  0  0  0
   -2.9228   -2.7168   -1.8805 H   0  0  0  0  0  0  0  0  0  0  0  0
   -1.2137   -2.5173   -0.5875 C   0  0  2  0  0  3  0  0  0  0  0  0
   -0.0445   -3.2543   -0.3752 C   0  0  0  0  0  0  0  0  0  0  0  0
   -0.0810   -4.3418   -0.5163 H   0  0  0  0  0  0  0  0  0  0  0  0
    1.1906   -2.6808    0.0211 C   0  0  0  0  0  0  0  0  0  0  0  0
    2.3686   -3.6175    0.1870 C   0  0  0  0  0  0  0  0  0  0  0  0
    3.2337   -3.2705   -0.4133 H   0  0  0  0  0  0  0  0  0  0  0  0
    2.1028   -4.6432   -0.1256 H   0  0  0  0  0  0  0  0  0  0  0  0
    2.7132   -3.6447    1.2400 H   0  0  0  0  0  0  0  0  0  0  0  0
    2.6399   -0.9263    0.6777 C   0  0  0  0  0  0  0  0  0  0  0  0
    2.9766   -0.9602    2.0267 C   0  0  0  0  0  0  0  0  0  0  0  0
    2.2360   -1.3419    2.7450 H   0  0  0  0  0  0  0  0  0  0  0  0
    4.2391   -0.4941    2.4732 C   0  0  0  0  0  0  0  0  0  0  0  0
    4.4819   -0.5374    3.5459 H   0  0  0  0  0  0  0  0  0  0  0  0
    5.1582    0.0203    1.5709 C   0  0  0  0  0  0  0  0  0  0  0  0
    6.1375    0.3881    1.9143 H   0  0  0  0  0  0  0  0  0  0  0  0
    4.8463    0.0878    0.1811 C   0  0  0  0  0  0  0  0  0  0  0  0
    5.7563    0.6315   -0.7738 C   0  0  0  0  0  0  0  0  0  0  0  0
    6.7336    0.9969   -0.4209 H   0  0  0  0  0  0  0  0  0  0  0  0
    5.4221    0.7042   -2.1180 C   0  0  0  0  0  0  0  0  0  0  0  0
    6.1350    1.1287   -2.8413 H   0  0  0  0  0  0  0  0  0  0  0  0
    4.1576    0.2348   -2.5657 C   0  0  0  0  0  0  0  0  0  0  0  0
    3.8963    0.3046   -3.6326 H   0  0  0  0  0  0  0  0  0  0  0  0
    3.2504   -0.3030   -1.6645 C   0  0  0  0  0  0  0  0  0  0  0  0
    2.2615   -0.6508   -1.9966 H   0  0  0  0  0  0  0  0  0  0  0  0
    3.5675   -0.3932   -0.2793 C   0  0  0  0  0  0  0  0  0  0  0  0
    1.3553   -1.3701    0.2450 N   0  0  0  0  0  2  0  0  0  0  0  0
   -1.2947   -1.2357   -0.4827 O   0  0  0  0  0  1  0  0  0  0  0  0
  1  5  1  0  0  0  0
  1  2  1  0  0  0  0
  3  1  1  0  0  0  0
  4  1  1  0  0  0  0
  5 31  1  1  0  0  0
  5  6  1  0  0  0  0
  6  8  2  0  0  0  0
  7  6  1  0  0  0  0
  8  9  1  0  0  0  0
  8 30  1  0  0  0  0
  9 12  1  0  0  0  0
 10  9  1  0  0  0  0
 11  9  1  0  0  0  0
 13 14  1  0  0  0  0
 14 16  2  0  0  0  0
 14 15  1  0  0  0  0
 16 17  1  0  0  0  0
 18 19  1  0  0  0  0
 18 16  1  0  0  0  0
 20 18  2  0  0  0  0
 21 22  1  0  0  0  0
 21 20  1  0  0  0  0
 23 21  2  0  0  0  0
 24 23  1  0  0  0  0
 25 23  1  0  0  0  0
 25 27  2  0  0  0  0
 26 25  1  0  0  0  0
 27 29  1  0  0  0  0
 28 27  1  0  0  0  0
 29 20  1  0  0  0  0
 29 13  2  0  0  0  0
 30 13  1  0  0  0  0
M  END
