1,3
q = -1.0

 29 29  0  0  1  0  0  0  0  0999 V2000
    0.6723    1.5784   -1.2475 O   0  5  0  0  0  0  0  0  0  0  0  0
    0.8672    3.6236   -2.1744 O   0  0  0  0  0  0  0  0  0  0  0  0
   -1.8975    0.6443   -0.8849 N   0  0  0  0  0  2  0  0  0  0  0  0
   -3.6778    2.0778   -1.8173 C   0  0  0  0  0  0  0  0  0  0  0  0
   -4.0640    1.3107   -2.5189 H   0  0  0  0  0  0  0  0  0  0  0  0
   -3.8036    3.0711   -2.2833 H   0  0  0  0  0  0  0  0  0  0  0  0
   -4.3086    2.0282   -0.9064 H   0  0  0  0  0  0  0  0  0  0  0  0
   -2.2275    1.8122   -1.4807 C   0  0  2  0  0  3  0  0  0  0  0  0
   -1.2929    2.8028   -1.8138 C   0  0  0  0  0  0  0  0  0  0  0  0
   -1.6424    3.7359   -2.2708 H   0  0  0  0  0  0  0  0  0  0  0  0
    0.1087    2.6122   -1.7080 C   0  0  0  0  0  0  0  0  0  0  0  0
    2.2973    3.4759   -2.0400 C   0  0  0  0  0  0  0  0  0  0  0  0
    2.6244    2.5736   -2.5966 H   0  0  0  0  0  0  0  0  0  0  0  0
    2.5371    3.2988   -0.9698 H   0  0  0  0  0  0  0  0  0  0  0  0
    2.9408    4.7407   -2.5688 C   0  0  0  0  0  0  0  0  0  0  0  0
    2.6853    4.9038   -3.6347 H   0  0  0  0  0  0  0  0  0  0  0  0
    4.0431    4.6669   -2.4844 H   0  0  0  0  0  0  0  0  0  0  0  0
    2.6071    5.6271   -1.9936 H   0  0  0  0  0  0  0  0  0  0  0  0
   -2.9103   -0.3145   -0.6932 C   0  0  0  0  0  0  0  0  0  0  0  0
   -3.6930   -0.3332    0.4797 C   0  0  0  0  0  0  0  0  0  0  0  0
   -4.6219   -1.3538    0.7300 C   0  0  0  0  0  0  0  0  0  0  0  0
   -4.8385   -2.3523   -0.2341 C   0  0  0  0  0  0  0  0  0  0  0  0
   -4.0902   -2.3446   -1.4240 C   0  0  0  0  0  0  0  0  0  0  0  0
   -3.1638   -1.3152   -1.6558 C   0  0  0  0  0  0  0  0  0  0  0  0
   -3.5105    0.6102    1.4136 F   0  0  0  0  0  0  0  0  0  0  0  0
   -5.3032   -1.3803    1.8814 F   0  0  0  0  0  0  0  0  0  0  0  0
   -5.7246   -3.3251   -0.0052 F   0  0  0  0  0  0  0  0  0  0  0  0
   -4.2993   -3.2893   -2.3473 F   0  0  0  0  0  0  0  0  0  0  0  0
   -2.5013   -1.2990   -2.8194 F   0  0  0  0  0  0  0  0  0  0  0  0
  2 12  1  0  0  0  0
  2 11  1  0  0  0  0
  3 19  1  0  0  0  0
  4  8  1  0  0  0  0
  4  7  1  0  0  0  0
  5  4  1  0  0  0  0
  6  4  1  0  0  0  0
  8  9  1  6  0  0  0
  8  3  1  0  0  0  0
  9 11  2  0  0  0  0
 10  9  1  0  0  0  0
 11  1  1  0  0  0  0
 12 14  1  0  0  0  0
 13 12  1  0  0  0  0
 15 17  1  0  0  0  0
 15 12  1  0  0  0  0
 15 18  1  0  0  0  0
 16 15  1  0  0  0  0
 19 20  1  0  0  0  0
 20 21  2  0  0  0  0
 20 25  1  0  0  0  0
 21 26  1  0  0  0  0
 22 27  1  0  0  0  0
 22 21  1  0  0  0  0
 23 22  2  0  0  0  0
 24 23  1  0  0  0  0
 24 19  2  0  0  0  0
 28 23  1  0  0  0  0
 29 24  1  0  0  0  0
M  CHG  1   1  -1
M  END
