5,16
q = -1.0

 33 34  0  0  0  0  0  0  0  0999 V2000
    6.4615    0.3806    0.0003 C   0  0  0  0  0  0  0  0  0  0  0  0
    7.0209    0.0163   -0.8877 H   0  0  0  0  0  0  0  0  0  0  0  0
    7.0171    0.0251    0.8942 H   0  0  0  0  0  0  0  0  0  0  0  0
    6.5045    1.4869   -0.0049 H   0  0  0  0  0  0  0  0  0  0  0  0
    1.1371   -1.6652   -0.0001 O   0  5  0  0  0  0  0  0  0  0  0  0
    2.3216   -1.1412   -0.0001 C   0  0  0  0  0  0  0  0  0  0  0  0
    3.4640   -2.0072   -0.0003 C   0  0  0  0  0  0  0  0  0  0  0  0
    3.2621   -3.0888   -0.0004 H   0  0  0  0  0  0  0  0  0  0  0  0
    4.7589   -1.5171   -0.0004 C   0  0  0  0  0  0  0  0  0  0  0  0
    5.6012   -2.2288   -0.0005 H   0  0  0  0  0  0  0  0  0  0  0  0
    5.0384   -0.1165   -0.0003 C   0  0  0  0  0  0  0  0  0  0  0  0
    3.9514    0.7444   -0.0002 C   0  0  0  0  0  3  0  0  0  0  0  0
    4.0908    1.8362   -0.0003 H   0  0  0  0  0  0  0  0  0  0  0  0
    2.5923    0.2906   -0.0002 C   0  0  0  0  0  0  0  0  0  0  0  0
    1.6849    1.3164   -0.0001 N   0  0  0  0  0  0  0  0  0  0  0  0
    0.4106    1.1691    0.0000 N   0  0  0  0  0  2  0  0  0  0  0  0
   -0.3007    2.4287   -0.0000 C   0  0  0  0  0  0  0  0  0  0  0  0
   -0.6523    3.0052   -1.2392 C   0  0  0  0  0  0  0  0  0  0  0  0
   -1.3890    4.2046   -1.2149 C   0  0  0  0  0  0  0  0  0  0  0  0
   -1.6750    4.6733   -2.1696 H   0  0  0  0  0  0  0  0  0  0  0  0
   -1.7562    4.8002   -0.0001 C   0  0  0  0  0  0  0  0  0  0  0  0
   -2.3336    5.7371   -0.0002 H   0  0  0  0  0  0  0  0  0  0  0  0
   -1.3887    4.2049    1.2147 C   0  0  0  0  0  0  0  0  0  0  0  0
   -1.6744    4.6739    2.1694 H   0  0  0  0  0  0  0  0  0  0  0  0
   -0.6519    3.0055    1.2391 C   0  0  0  0  0  0  0  0  0  0  0  0
   -0.2464    2.3415   -2.5277 C   0  0  0  0  0  0  0  0  0  0  0  0
    0.8582    2.2848   -2.6164 H   0  0  0  0  0  0  0  0  0  0  0  0
   -0.6403    2.8892   -3.4045 H   0  0  0  0  0  0  0  0  0  0  0  0
   -0.6143    1.2934   -2.5641 H   0  0  0  0  0  0  0  0  0  0  0  0
   -0.2457    2.3422    2.5277 C   0  0  0  0  0  0  0  0  0  0  0  0
   -0.6395    2.8899    3.4045 H   0  0  0  0  0  0  0  0  0  0  0  0
    0.8590    2.2859    2.6162 H   0  0  0  0  0  0  0  0  0  0  0  0
   -0.6132    1.2940    2.5643 H   0  0  0  0  0  0  0  0  0  0  0  0
  1  3  1  0  0  0  0
  2  1  1  0  0  0  0
  4  1  1  0  0  0  0
  6  5  1  0  0  0  0
  7  6  2  0  0  0  0
  8  7  1  0  0  0  0
  9  7  1  0  0  0  0
  9 11  2  0  0  0  0
 10  9  1  0  0  0  0
 11 12  1  0  0  0  0
 11  1  1  0  0  0  0
 12 14  1  0  0  0  0
 13 12  1  0  0  0  0
 14  6  1  0  0  0  0
 14 15  2  0  0  0  0
 15 16  1  0  0  0  0
 17 16  1  0  0  0  0
 17 25  1  0  0  0  0
 18 19  1  0  0  0  0
 18 17  2  0  0  0  0
 19 21  2  0  0  0  0
 20 19  1  0  0  0  0
 21 23  1  0  0  0  0
 22 21  1  0  0  0  0
 23 25  2  0  0  0  0
 23 24  1  0  0  0  0
 25 30  1  0  0  0  0
 26 18  1  0  0  0  0
 27 26  1  0  0  0  0
 28 26  1  0  0  0  0
 29 26  1  0  0  0  0
 30 33  1  0  0  0  0
 30 32  1  0  0  0  0
 30 31  1  0  0  0  0
M  CHG  1   5  -1
M  END
