1,3
q = -1.0

 33 35  0  0  0  0  0  0  0  0999 V2000
   -0.3364   -1.2748   -1.4210 O   0  5  0  0  0  0  0  0  0  0  0  0
   -0.3477    3.7926   -1.0791 O   0  0  0  0  0  0  0  0  0  0  0  0
   -0.5519    0.9527   -0.0679 N   0  0  0  0  0  0  0  0  0  0  0  0
   -0.5417    1.0600   -1.0989 H   0  0  0  0  0  0  0  0  0  0  0  0
    0.9513   -1.2827   -1.1071 C   0  0  0  0  0  0  0  0  0  0  0  0
    1.7626   -2.2836   -1.7527 C   0  0  0  0  0  0  0  0  0  0  0  0
    1.2492   -2.9464   -2.4649 H   0  0  0  0  0  0  0  0  0  0  0  0
    3.1070   -2.4101   -1.4837 C   0  0  0  0  0  0  0  0  0  0  0  0
    3.7030   -3.1896   -1.9846 H   0  0  0  0  0  0  0  0  0  0  0  0
    3.7529   -1.5486   -0.5455 C   0  0  0  0  0  0  0  0  0  0  0  0
    5.1342   -1.6805   -0.2373 C   0  0  0  0  0  0  0  0  0  0  0  0
    5.7073   -2.4760   -0.7399 H   0  0  0  0  0  0  0  0  0  0  0  0
    5.7561   -0.8324    0.6704 C   0  0  0  0  0  0  0  0  0  0  0  0
    6.8264   -0.9464    0.8983 H   0  0  0  0  0  0  0  0  0  0  0  0
    4.9983    0.1863    1.3000 C   0  0  0  0  0  0  0  0  0  0  0  0
    5.4850    0.8640    2.0184 H   0  0  0  0  0  0  0  0  0  0  0  0
    3.6457    0.3415    1.0200 C   0  0  0  0  0  0  0  0  0  0  0  0
    3.0929    1.1448    1.5283 H   0  0  0  0  0  0  0  0  0  0  0  0
    2.9710   -0.5159    0.0945 C   0  0  0  0  0  0  0  0  0  0  0  0
    1.5750   -0.3813   -0.2107 C   0  0  0  0  0  0  0  0  0  0  0  0
    0.8260    0.7614    0.4287 C   0  0  0  0  0  0  0  0  0  0  0  0
    0.7619    0.6456    1.5356 H   0  0  0  0  0  0  0  0  0  0  0  0
    1.3899    1.7074    0.2614 H   0  0  0  0  0  0  0  0  0  0  0  0
   -1.2226    2.1593    0.4939 C   0  0  0  0  0  0  0  0  0  0  0  0
   -1.3344    2.0262    1.5870 H   0  0  0  0  0  0  0  0  0  0  0  0
   -2.2297    2.1748    0.0274 H   0  0  0  0  0  0  0  0  0  0  0  0
   -0.4825    3.4254    0.2346 C   0  0  0  0  0  0  0  0  0  0  0  0
    0.1531    4.3465    1.0403 C   0  0  0  0  0  0  0  0  0  0  0  0
    0.2161    4.3131    2.1336 H   0  0  0  0  0  0  0  0  0  0  0  0
    0.7042    5.3422    0.1645 C   0  0  0  0  0  0  0  0  0  0  0  0
    1.2752    6.2337    0.4450 H   0  0  0  0  0  0  0  0  0  0  0  0
    0.3728    4.9494   -1.1107 C   0  0  0  0  0  0  0  0  0  0  0  0
    0.5645    5.3654   -2.1047 H   0  0  0  0  0  0  0  0  0  0  0  0
  1  5  1  0  0  0  0
  2 27  1  0  0  0  0
  3 21  1  0  0  0  0
  3 24  1  0  0  0  0
  4  3  1  0  0  0  0
  5 20  1  0  0  0  0
  6  8  1  0  0  0  0
  6  5  2  0  0  0  0
  7  6  1  0  0  0  0
  8 10  2  0  0  0  0
  9  8  1  0  0  0  0
 10 11  1  0  0  0  0
 10 19  1  0  0  0  0
 11 13  2  0  0  0  0
 12 11  1  0  0  0  0
 13 14  1  0  0  0  0
 13 15  1  0  0  0  0
 15 16  1  0  0  0  0
 17 15  2  0  0  0  0
 17 18  1  0  0  0  0
 19 17  1  0  0  0  0
 20 19  2  0  0  0  0
 20 21  1  0  0  0  0
 21 22  1  0  0  0  0
 23 21  1  0  0  0  0
 24 25  1  0  0  0  0
 26 24  1  0  0  0  0
 27 24  1  0  0  0  0
 27 28  2  0  0  0  0
 28 29  1  0  0  0  0
 30 31  1  0  0  0  0
 30 28  1  0  0  0  0
 32  2  1  0  0  0  0
 32 30  2  0  0  0  0
 33 32  1  0  0  0  0
M  CHG  1   1  -1
M  END
