1,2
q = 0.0, confidence = 0.99

 36 37  0  0  0  0  0  0  0  0999 V2000
    0.7098   -1.9366    0.2070 O   0  5  0  0  0  0  0  0  0  0  0  0
   -0.0335    0.4752   -1.2353 N   0  0  0  0  0  2  0  0  0  0  0  0
   -2.5255    2.0281   -0.5293 N   0  3  0  0  0  0  0  0  0  0  0  0
   -2.2230    3.0165   -0.4850 H   0  0  0  0  0  0  0  0  0  0  0  0
   -1.9563    1.5291    0.2672 H   0  0  0  0  0  0  0  0  0  0  0  0
    2.2170   -0.1180   -0.3807 C   0  0  0  0  0  0  0  0  0  0  0  0
    1.8934   -1.4309    0.1442 C   0  0  0  0  0  0  0  0  0  0  0  0
    2.9854   -2.2664    0.5951 C   0  0  0  0  0  0  0  0  0  0  0  0
    2.7098   -3.2744    0.9373 H   0  0  0  0  0  0  0  0  0  0  0  0
    4.2809   -1.8203    0.6156 C   0  0  0  0  0  0  0  0  0  0  0  0
    5.0870   -2.4792    0.9770 H   0  0  0  0  0  0  0  0  0  0  0  0
    4.6278   -0.4914    0.1980 C   0  0  0  0  0  0  0  0  0  0  0  0
    5.9691   -0.0340    0.2749 C   0  0  0  0  0  0  0  0  0  0  0  0
    6.7373   -0.7297    0.6478 H   0  0  0  0  0  0  0  0  0  0  0  0
    6.3124    1.2600   -0.1012 C   0  0  0  0  0  0  0  0  0  0  0  0
    7.3548    1.6051   -0.0353 H   0  0  0  0  0  0  0  0  0  0  0  0
    5.2970    2.1325   -0.5512 C   0  0  0  0  0  0  0  0  0  0  0  0
    5.5470    3.1685   -0.8274 H   0  0  0  0  0  0  0  0  0  0  0  0
    3.9734    1.7041   -0.6335 C   0  0  0  0  0  0  0  0  0  0  0  0
    3.2138    2.4332   -0.9492 H   0  0  0  0  0  0  0  0  0  0  0  0
    3.5900    0.3780   -0.2866 C   0  0  0  0  0  0  0  0  0  0  0  0
    1.2653    0.6618   -1.1042 C   0  0  0  0  0  3  0  0  0  0  0  0
    1.6914    1.5195   -1.6670 H   0  0  0  0  0  0  0  0  0  0  0  0
   -0.7317    1.3429   -2.1691 C   0  0  0  0  0  0  0  0  0  0  0  0
   -0.6645    0.9364   -3.2056 H   0  0  0  0  0  0  0  0  0  0  0  0
   -0.2587    2.3557   -2.2088 H   0  0  0  0  0  0  0  0  0  0  0  0
   -2.2208    1.4446   -1.8721 C   0  0  0  0  0  0  0  0  0  0  0  0
   -2.7318    2.0632   -2.6369 H   0  0  0  0  0  0  0  0  0  0  0  0
   -2.6719    0.4278   -1.8703 H   0  0  0  0  0  0  0  0  0  0  0  0
   -3.9705    1.9088   -0.1413 C   0  0  0  0  0  0  0  0  0  0  0  0
   -4.1506    0.8172   -0.0459 H   0  0  0  0  0  0  0  0  0  0  0  0
   -4.5743    2.2870   -0.9917 H   0  0  0  0  0  0  0  0  0  0  0  0
   -4.2633    2.6515    1.1502 C   0  0  0  0  0  0  0  0  0  0  0  0
   -3.6476    2.2484    1.9785 H   0  0  0  0  0  0  0  0  0  0  0  0
   -5.3296    2.5185    1.4158 H   0  0  0  0  0  0  0  0  0  0  0  0
   -4.0752    3.7418    1.0553 H   0  0  0  0  0  0  0  0  0  0  0  0
  2 22  1  0  0  0  0
  3  4  1  0  0  0  0
  3 30  1  0  0  0  0
  3  5  1  0  0  0  0
  6 21  2  0  0  0  0
  6  7  1  0  0  0  0
  7  1  1  0  0  0  0
  7  8  2  0  0  0  0
  8 10  1  0  0  0  0
  8  9  1  0  0  0  0
 10 11  1  0  0  0  0
 12 13  1  0  0  0  0
 12 10  2  0  0  0  0
 13 14  1  0  0  0  0
 15 16  1  0  0  0  0
 15 13  2  0  0  0  0
 17 15  1  0  0  0  0
 18 17  1  0  0  0  0
 19 17  2  0  0  0  0
 19 21  1  0  0  0  0
 20 19  1  0  0  0  0
 21 12  1  0  0  0  0
 22  6  1  0  0  0  0
 23 22  1  0  0  0  0
 24 27  1  0  0  0  0
 24  2  1  0  0  0  0
 25 24  1  0  0  0  0
 26 24  1  0  0  0  0
 27 29  1  0  0  0  0
 27  3  1  0  0  0  0
 28 27  1  0  0  0  0
 30 31  1  0  0  0  0
 30 33  1  0  0  0  0
 32 30  1  0  0  0  0
 33 35  1  0  0  0  0
 33 34  1  0  0  0  0
 36 33  1  0  0  0  0
M  CHG  2   1  -1   3   1
M  END
