1,2
q = 0.0, confidence = 0.98

 13 13  0  0  0  0  0  0  0  0999 V2000
   -1.1391    0.2983    0.1556 N   0  0  0  0  0  2  0  0  0  0  0  0
    0.2592   -1.7231    0.9727 O   0  0  0  0  0  1  0  0  0  0  0  0
   -1.8380    1.3924   -0.1975 C   0  0  0  0  0  3  0  0  0  0  0  0
   -1.2557    2.3018   -0.4063 H   0  0  0  0  0  0  0  0  0  0  0  0
   -3.2341    1.3830   -0.3204 C   0  0  0  0  0  0  0  0  0  0  0  0
   -3.7527    2.3048   -0.6196 H   0  0  0  0  0  0  0  0  0  0  0  0
   -3.9461    0.1981   -0.0661 C   0  0  0  0  0  0  0  0  0  0  0  0
   -5.0412    0.1685   -0.1610 H   0  0  0  0  0  0  0  0  0  0  0  0
   -3.2289   -0.9412    0.3105 C   0  0  0  0  0  0  0  0  0  0  0  0
   -3.7319   -1.8953    0.5265 H   0  0  0  0  0  0  0  0  0  0  0  0
   -1.8289   -0.8592    0.4066 C   0  0  0  0  0  0  0  0  0  0  0  0
   -0.9642   -1.9384    0.8568 C   0  0  0  0  0  3  0  0  0  0  0  0
   -1.3931   -2.9202    1.1592 H   0  0  0  0  0  0  0  0  0  0  0  0
  1 11  1  0  0  0  0
  3  1  1  0  0  0  0
  4  3  1  0  0  0  0
  5  3  1  0  0  0  0
  5  7  2  0  0  0  0
  6  5  1  0  0  0  0
  7  9  1  0  0  0  0
  8  7  1  0  0  0  0
  9 11  2  0  0  0  0
  9 10  1  0  0  0  0
 11 12  1  0  0  0  0
 12  2  1  0  0  0  0
 12 13  1  0  0  0  0
M  END
