1,2
q = -1.0

 40 41  0  0  1  0  0  0  0  0999 V2000
    0.8633    1.6839   -0.2374 N   0  0  0  0  0  2  0  0  0  0  0  0
   -1.5793    0.6706   -0.6894 O   0  0  0  0  0  1  0  0  0  0  0  0
   -2.0231    1.8806   -0.4883 C   0  0  2  0  0  3  0  0  0  0  0  0
   -3.4361    2.0878   -0.5225 C   0  0  0  0  0  0  0  0  0  0  0  0
   -4.0651    1.2020   -0.6934 H   0  0  0  0  0  0  0  0  0  0  0  0
   -3.9808    3.3473   -0.3056 C   0  0  0  0  0  0  0  0  0  0  0  0
   -5.0750    3.4731   -0.3131 H   0  0  0  0  0  0  0  0  0  0  0  0
   -3.1453    4.4634   -0.0613 C   0  0  0  0  0  0  0  0  0  0  0  0
   -3.5802    5.4556    0.1265 H   0  0  0  0  0  0  0  0  0  0  0  0
   -1.7648    4.2920   -0.0601 C   0  0  0  0  0  0  0  0  0  0  0  0
   -1.1212    5.1626    0.1304 H   0  0  0  0  0  0  0  0  0  0  0  0
   -1.1663    3.0176   -0.2703 C   0  0  0  0  0  0  0  0  0  0  0  0
    0.2770    2.8688   -0.3401 C   0  0  0  0  0  0  0  0  0  0  0  0
    1.1128    4.1122   -0.5429 C   0  0  0  0  0  0  0  0  0  0  0  0
    2.0958    3.8668   -0.9817 H   0  0  0  0  0  0  0  0  0  0  0  0
    0.5916    4.8366   -1.1943 H   0  0  0  0  0  0  0  0  0  0  0  0
    1.3048    4.6121    0.4305 H   0  0  0  0  0  0  0  0  0  0  0  0
    2.2922    1.6029   -0.3338 C   0  0  0  0  0  0  0  0  0  0  0  0
    3.0895    1.9059    0.7976 C   0  0  0  0  0  0  0  0  0  0  0  0
    2.4883    2.2873    2.1351 C   0  0  0  0  0  0  0  0  0  0  0  0
    1.4246    2.5689    2.0122 H   0  0  0  0  0  0  0  0  0  0  0  0
    3.0124    3.1917    2.5144 H   0  0  0  0  0  0  0  0  0  0  0  0
    2.5824    1.1638    3.1799 C   0  0  0  0  0  0  0  0  0  0  0  0
    3.6366    0.8710    3.3622 H   0  0  0  0  0  0  0  0  0  0  0  0
    2.1469    1.4870    4.1474 H   0  0  0  0  0  0  0  0  0  0  0  0
    2.0421    0.2667    2.8223 H   0  0  0  0  0  0  0  0  0  0  0  0
    4.4872    1.7957    0.6710 C   0  0  0  0  0  0  0  0  0  0  0  0
    5.1193    2.0340    1.5415 H   0  0  0  0  0  0  0  0  0  0  0  0
    5.0792    1.3904   -0.5319 C   0  0  0  0  0  0  0  0  0  0  0  0
    6.1742    1.3145   -0.6118 H   0  0  0  0  0  0  0  0  0  0  0  0
    4.2701    1.0869   -1.6353 C   0  0  0  0  0  0  0  0  0  0  0  0
    4.7289    0.7707   -2.5856 H   0  0  0  0  0  0  0  0  0  0  0  0
    2.8691    1.1881   -1.5609 C   0  0  0  0  0  0  0  0  0  0  0  0
    2.0168    0.8223   -2.7583 C   0  0  0  0  0  0  0  0  0  0  0  0
    1.0938    1.4377   -2.7699 H   0  0  0  0  0  0  0  0  0  0  0  0
    2.5793    1.0784   -3.6804 H   0  0  0  0  0  0  0  0  0  0  0  0
    1.6286   -0.6646   -2.7978 C   0  0  0  0  0  0  0  0  0  0  0  0
    1.0002   -0.9279   -1.9205 H   0  0  0  0  0  0  0  0  0  0  0  0
    1.0463   -0.8993   -3.7117 H   0  0  0  0  0  0  0  0  0  0  0  0
    2.5239   -1.3173   -2.7702 H   0  0  0  0  0  0  0  0  0  0  0  0
  3  2  1  6  0  0  0
  3 12  1  0  0  0  0
  4  3  1  0  0  0  0
  4  6  2  0  0  0  0
  5  4  1  0  0  0  0
  6  8  1  0  0  0  0
  7  6  1  0  0  0  0
  8 10  2  0  0  0  0
  8  9  1  0  0  0  0
 10 11  1  0  0  0  0
 12 10  1  0  0  0  0
 13 12  2  0  0  0  0
 13  1  1  0  0  0  0
 14 13  1  0  0  0  0
 14 17  1  0  0  0  0
 15 14  1  0  0  0  0
 16 14  1  0  0  0  0
 18  1  1  0  0  0  0
 18 19  1  0  0  0  0
 19 20  1  0  0  0  0
 20 22  1  0  0  0  0
 20 23  1  0  0  0  0
 21 20  1  0  0  0  0
 23 24  1  0  0  0  0
 23 25  1  0  0  0  0
 26 23  1  0  0  0  0
 27 19  2  0  0  0  0
 27 28  1  0  0  0  0
 29 27  1  0  0  0  0
 30 29  1  0  0  0  0
 31 33  1  0  0  0  0
 31 29  2  0  0  0  0
 32 31  1  0  0  0  0
 33 18  2  0  0  0  0
 34 33  1  0  0  0  0
 35 34  1  0  0  0  0
 36 34  1  0  0  0  0
 37 40  1  0  0  0  0
 37 34  1  0  0  0  0
 37 38  1  0  0  0  0
 39 37  1  0  0  0  0
M  END
