1,2
q = -1.0

 40 41  0  0  0  0  0  0  0  0999 V2000
   -0.8633   -1.6839    0.2374 N   0  0  0  0  0  2  0  0  0  0  0  0
    1.5793   -0.6706    0.6894 O   0  5  0  0  0  0  0  0  0  0  0  0
    2.0231   -1.8806    0.4884 C   0  0  0  0  0  0  0  0  0  0  0  0
    3.4361   -2.0878    0.5226 C   0  0  0  0  0  0  0  0  0  0  0  0
    4.0651   -1.2020    0.6934 H   0  0  0  0  0  0  0  0  0  0  0  0
    3.9808   -3.3473    0.3057 C   0  0  0  0  0  0  0  0  0  0  0  0
    5.0750   -3.4732    0.3132 H   0  0  0  0  0  0  0  0  0  0  0  0
    3.1452   -4.4634    0.0614 C   0  0  0  0  0  0  0  0  0  0  0  0
    3.5801   -5.4556   -0.1264 H   0  0  0  0  0  0  0  0  0  0  0  0
    1.7648   -4.2920    0.0602 C   0  0  0  0  0  3  0  0  0  0  0  0
    1.1211   -5.1626   -0.1303 H   0  0  0  0  0  0  0  0  0  0  0  0
    1.1663   -3.0176    0.2704 C   0  0  0  0  0  0  0  0  0  0  0  0
   -0.2770   -2.8688    0.3401 C   0  0  0  0  0  0  0  0  0  0  0  0
   -1.1128   -4.1122    0.5429 C   0  0  0  0  0  0  0  0  0  0  0  0
   -2.0958   -3.8668    0.9817 H   0  0  0  0  0  0  0  0  0  0  0  0
   -0.5916   -4.8366    1.1943 H   0  0  0  0  0  0  0  0  0  0  0  0
   -1.3048   -4.6121   -0.4305 H   0  0  0  0  0  0  0  0  0  0  0  0
   -2.2922   -1.6028    0.3338 C   0  0  0  0  0  0  0  0  0  0  0  0
   -3.0894   -1.9059   -0.7977 C   0  0  0  0  0  0  0  0  0  0  0  0
   -2.4883   -2.2874   -2.1351 C   0  0  0  0  0  0  0  0  0  0  0  0
   -1.4245   -2.5689   -2.0122 H   0  0  0  0  0  0  0  0  0  0  0  0
   -3.0122   -3.1918   -2.5143 H   0  0  0  0  0  0  0  0  0  0  0  0
   -2.5823   -1.1639   -3.1800 C   0  0  0  0  0  0  0  0  0  0  0  0
   -3.6366   -0.8711   -3.3623 H   0  0  0  0  0  0  0  0  0  0  0  0
   -2.1468   -1.4871   -4.1474 H   0  0  0  0  0  0  0  0  0  0  0  0
   -2.0421   -0.2668   -2.8224 H   0  0  0  0  0  0  0  0  0  0  0  0
   -4.4871   -1.7956   -0.6711 C   0  0  0  0  0  0  0  0  0  0  0  0
   -5.1192   -2.0339   -1.5416 H   0  0  0  0  0  0  0  0  0  0  0  0
   -5.0792   -1.3903    0.5317 C   0  0  0  0  0  0  0  0  0  0  0  0
   -6.1742   -1.3145    0.6116 H   0  0  0  0  0  0  0  0  0  0  0  0
   -4.2701   -1.0868    1.6352 C   0  0  0  0  0  0  0  0  0  0  0  0
   -4.7289   -0.7707    2.5855 H   0  0  0  0  0  0  0  0  0  0  0  0
   -2.8691   -1.1880    1.5608 C   0  0  0  0  0  0  0  0  0  0  0  0
   -2.0169   -0.8223    2.7583 C   0  0  0  0  0  0  0  0  0  0  0  0
   -1.0939   -1.4377    2.7699 H   0  0  0  0  0  0  0  0  0  0  0  0
   -2.5794   -1.0785    3.6804 H   0  0  0  0  0  0  0  0  0  0  0  0
   -1.6287    0.6646    2.7979 C   0  0  0  0  0  0  0  0  0  0  0  0
   -1.0003    0.9279    1.9206 H   0  0  0  0  0  0  0  0  0  0  0  0
   -1.0464    0.8992    3.7118 H   0  0  0  0  0  0  0  0  0  0  0  0
   -2.5240    1.3173    2.7702 H   0  0  0  0  0  0  0  0  0  0  0  0
  1 18  1  0  0  0  0
  1 13  1  0  0  0  0
  3  4  2  0  0  0  0
  3  2  1  0  0  0  0
  4  5  1  0  0  0  0
  6  7  1  0  0  0  0
  6  4  1  0  0  0  0
  8  6  2  0  0  0  0
  9  8  1  0  0  0  0
 10  8  1  0  0  0  0
 10 12  1  0  0  0  0
 11 10  1  0  0  0  0
 12 13  2  0  0  0  0
 12  3  1  0  0  0  0
 13 14  1  0  0  0  0
 14 15  1  0  0  0  0
 14 16  1  0  0  0  0
 17 14  1  0  0  0  0
 18 33  1  0  0  0  0
 19 27  1  0  0  0  0
 19 18  2  0  0  0  0
 20 21  1  0  0  0  0
 20 19  1  0  0  0  0
 22 20  1  0  0  0  0
 23 26  1  0  0  0  0
 23 20  1  0  0  0  0
 24 23  1  0  0  0  0
 25 23  1  0  0  0  0
 27 29  2  0  0  0  0
 28 27  1  0  0  0  0
 29 30  1  0  0  0  0
 29 31  1  0  0  0  0
 31 32  1  0  0  0  0
 33 31  2  0  0  0  0
 33 34  1  0  0  0  0
 34 35  1  0  0  0  0
 34 37  1  0  0  0  0
 34 36  1  0  0  0  0
 37 39  1  0  0  0  0
 38 37  1  0  0  0  0
 40 37  1  0  0  0  0
M  CHG  1   2  -1
M  END
