1,2
q = -1.0, confidence = 0.0

 34 35  0  0  1  0  0  0  0  0999 V2000
   -1.6136    0.6319   -0.6143 O   0  0  0  0  0  1  0  0  0  0  0  0
    0.7731    1.7513   -0.0587 N   0  0  0  0  0  2  0  0  0  0  0  0
   -2.1199    1.8070   -0.3665 C   0  0  2  0  0  3  0  0  0  0  0  0
   -3.5415    1.9429   -0.4305 C   0  0  0  0  0  0  0  0  0  0  0  0
   -4.1171    1.0332   -0.6555 H   0  0  0  0  0  0  0  0  0  0  0  0
   -4.1567    3.1641   -0.1891 C   0  0  0  0  0  0  0  0  0  0  0  0
   -5.2553    3.2345   -0.2261 H   0  0  0  0  0  0  0  0  0  0  0  0
   -3.3866    4.3127    0.1144 C   0  0  0  0  0  0  0  0  0  0  0  0
   -3.8768    5.2757    0.3177 H   0  0  0  0  0  0  0  0  0  0  0  0
   -2.0004    4.2105    0.1550 C   0  0  0  0  0  0  0  0  0  0  0  0
   -1.4103    5.1071    0.3912 H   0  0  0  0  0  0  0  0  0  0  0  0
   -1.3289    2.9758   -0.0768 C   0  0  0  0  0  0  0  0  0  0  0  0
    0.1214    2.9063   -0.0985 C   0  0  0  0  0  0  0  0  0  0  0  0
    0.8834    4.2098   -0.1912 C   0  0  0  0  0  0  0  0  0  0  0  0
    1.9437    4.0450   -0.4482 H   0  0  0  0  0  0  0  0  0  0  0  0
    0.4234    4.8743   -0.9468 H   0  0  0  0  0  0  0  0  0  0  0  0
    0.8509    4.7492    0.7787 H   0  0  0  0  0  0  0  0  0  0  0  0
    2.2066    1.7609   -0.1129 C   0  0  0  0  0  0  0  0  0  0  0  0
    2.8409    1.4912   -1.3483 C   0  0  0  0  0  0  0  0  0  0  0  0
    4.2472    1.4894   -1.3871 C   0  0  0  0  0  0  0  0  0  0  0  0
    4.7528    1.2846   -2.3436 H   0  0  0  0  0  0  0  0  0  0  0  0
    5.0007    1.7340   -0.2308 C   0  0  0  0  0  0  0  0  0  0  0  0
    6.1002    1.7296   -0.2782 H   0  0  0  0  0  0  0  0  0  0  0  0
    4.3507    1.9658    0.9899 C   0  0  0  0  0  0  0  0  0  0  0  0
    4.9393    2.1312    1.9060 H   0  0  0  0  0  0  0  0  0  0  0  0
    2.9468    1.9750    1.0741 C   0  0  0  0  0  0  0  0  0  0  0  0
    2.0160    1.1732   -2.5657 C   0  0  0  0  0  0  0  0  0  0  0  0
    2.6538    1.0078   -3.4543 H   0  0  0  0  0  0  0  0  0  0  0  0
    1.4125    0.2555   -2.3895 H   0  0  0  0  0  0  0  0  0  0  0  0
    1.2882    1.9774   -2.7999 H   0  0  0  0  0  0  0  0  0  0  0  0
    2.2382    2.1498    2.3901 C   0  0  0  0  0  0  0  0  0  0  0  0
    1.5540    1.2940    2.5654 H   0  0  0  0  0  0  0  0  0  0  0  0
    2.9594    2.2020    3.2276 H   0  0  0  0  0  0  0  0  0  0  0  0
    1.6176    3.0695    2.4200 H   0  0  0  0  0  0  0  0  0  0  0  0
  3  1  1  6  0  0  0
  3 12  1  0  0  0  0
  4  3  1  0  0  0  0
  4  6  2  0  0  0  0
  5  4  1  0  0  0  0
  6  8  1  0  0  0  0
  7  6  1  0  0  0  0
  8 10  2  0  0  0  0
  8  9  1  0  0  0  0
 10 11  1  0  0  0  0
 12 10  1  0  0  0  0
 13 12  2  0  0  0  0
 13  2  1  0  0  0  0
 14 13  1  0  0  0  0
 14 17  1  0  0  0  0
 15 14  1  0  0  0  0
 16 14  1  0  0  0  0
 18  2  1  0  0  0  0
 18 26  1  0  0  0  0
 19 18  2  0  0  0  0
 20 19  1  0  0  0  0
 20 22  2  0  0  0  0
 21 20  1  0  0  0  0
 22 24  1  0  0  0  0
 23 22  1  0  0  0  0
 24 26  2  0  0  0  0
 24 25  1  0  0  0  0
 26 31  1  0  0  0  0
 27 29  1  0  0  0  0
 27 19  1  0  0  0  0
 28 27  1  0  0  0  0
 30 27  1  0  0  0  0
 31 34  1  0  0  0  0
 31 32  1  0  0  0  0
 31 33  1  0  0  0  0
M  END
