1,2
q = 0.0, confidence = 0.99

 31 32  0  0  1  0  0  0  0  0999 V2000
    0.1010    0.2906    1.2502 O   0  0  0  0  0  1  0  0  0  0  0  0
    2.3156   -0.6654   -0.3448 N   0  0  0  0  0  2  0  0  0  0  0  0
   -0.8629   -1.3519   -0.0390 N   0  0  0  0  0  0  0  0  0  0  0  0
   -1.7676   -1.7921   -0.2258 H   0  0  0  0  0  0  0  0  0  0  0  0
    3.5927   -0.8485    0.0377 C   0  0  0  0  0  3  0  0  0  0  0  0
    4.1261    0.0764    0.3242 H   0  0  0  0  0  0  0  0  0  0  0  0
    4.1719   -2.1228    0.0985 C   0  0  0  0  0  0  0  0  0  0  0  0
    5.2200   -2.2343    0.4109 H   0  0  0  0  0  0  0  0  0  0  0  0
    3.3863   -3.2334   -0.2365 C   0  0  0  0  0  0  0  0  0  0  0  0
    3.8055   -4.2503   -0.1959 H   0  0  0  0  0  0  0  0  0  0  0  0
    2.0540   -3.0318   -0.6259 C   0  0  0  0  0  0  0  0  0  0  0  0
    1.4096   -3.8807   -0.8981 H   0  0  0  0  0  0  0  0  0  0  0  0
    1.5428   -1.7250   -0.6743 C   0  0  0  0  0  0  0  0  0  0  0  0
    0.1252   -1.4262   -1.1196 C   0  0  0  0  0  0  0  0  0  0  0  0
    0.1236   -0.4598   -1.6779 H   0  0  0  0  0  0  0  0  0  0  0  0
   -0.2142   -2.2266   -1.8028 H   0  0  0  0  0  0  0  0  0  0  0  0
   -0.8646   -0.4438    0.9686 C   0  0  1  0  0  3  0  0  0  0  0  0
   -2.1577   -0.3674    1.7743 C   0  0  0  0  0  0  0  0  0  0  0  0
   -2.0430    0.5132    2.4363 H   0  0  0  0  0  0  0  0  0  0  0  0
   -2.2376   -1.2605    2.4292 H   0  0  0  0  0  0  0  0  0  0  0  0
   -3.3839   -0.2446    0.8914 C   0  0  0  0  0  0  0  0  0  0  0  0
   -4.5127   -1.0621    1.0923 C   0  0  0  0  0  0  0  0  0  0  0  0
   -4.5066   -1.8051    1.9062 H   0  0  0  0  0  0  0  0  0  0  0  0
   -5.6463   -0.9316    0.2732 C   0  0  0  0  0  0  0  0  0  0  0  0
   -6.5228   -1.5745    0.4459 H   0  0  0  0  0  0  0  0  0  0  0  0
   -5.6587    0.0156   -0.7612 C   0  0  0  0  0  0  0  0  0  0  0  0
   -6.5454    0.1188   -1.4050 H   0  0  0  0  0  0  0  0  0  0  0  0
   -4.5323    0.8284   -0.9753 C   0  0  0  0  0  0  0  0  0  0  0  0
   -4.5304    1.5682   -1.7901 H   0  0  0  0  0  0  0  0  0  0  0  0
   -3.4017    0.7034   -0.1570 C   0  0  0  0  0  0  0  0  0  0  0  0
   -2.5146    1.3307   -0.3528 H   0  0  0  0  0  0  0  0  0  0  0  0
  2  5  1  0  0  0  0
  3 17  1  0  0  0  0
  4  3  1  0  0  0  0
  5  7  1  0  0  0  0
  5  6  1  0  0  0  0
  7  8  1  0  0  0  0
  9 10  1  0  0  0  0
  9  7  2  0  0  0  0
 11  9  1  0  0  0  0
 12 11  1  0  0  0  0
 13 11  2  0  0  0  0
 13  2  1  0  0  0  0
 14 13  1  0  0  0  0
 14  3  1  0  0  0  0
 15 14  1  0  0  0  0
 16 14  1  0  0  0  0
 17  1  1  1  0  0  0
 17 18  1  0  0  0  0
 18 20  1  0  0  0  0
 18 19  1  0  0  0  0
 21 22  1  0  0  0  0
 21 18  1  0  0  0  0
 22 23  1  0  0  0  0
 24 25  1  0  0  0  0
 24 22  2  0  0  0  0
 26 24  1  0  0  0  0
 27 26  1  0  0  0  0
 28 26  2  0  0  0  0
 28 30  1  0  0  0  0
 29 28  1  0  0  0  0
 30 21  2  0  0  0  0
 31 30  1  0  0  0  0
M  END
