1,5
q = 0.0, confidence = 0.96

 29 29  0  0  0  0  0  0  0  0999 V2000
    1.7720   -0.4761   -0.3583 O   0  5  0  0  0  0  0  0  0  0  0  0
    2.6338    0.5019   -0.2179 C   0  0  0  0  0  0  0  0  0  0  0  0
    2.0462    1.7583    0.0616 C   0  0  0  0  0  0  0  0  0  0  0  0
    2.6220    2.6882    0.1544 H   0  0  0  0  0  0  0  0  0  0  0  0
    0.7179    1.7239    0.2429 N   0  0  0  0  0  2  0  0  0  0  0  0
   -0.0406    2.9761    0.5084 C   0  0  0  0  0  0  0  0  0  0  0  0
   -0.7957    3.3611   -0.7818 C   0  0  0  0  0  0  0  0  0  0  0  0
   -0.0758    3.5762   -1.5970 H   0  0  0  0  0  0  0  0  0  0  0  0
   -1.4071    4.2700   -0.6087 H   0  0  0  0  0  0  0  0  0  0  0  0
   -1.4554    2.5347   -1.0998 H   0  0  0  0  0  0  0  0  0  0  0  0
   -1.0214    2.6978    1.6636 C   0  0  0  0  0  0  0  0  0  0  0  0
   -1.7234    1.8909    1.3899 H   0  0  0  0  0  0  0  0  0  0  0  0
   -1.6018    3.6121    1.9017 H   0  0  0  0  0  0  0  0  0  0  0  0
   -0.4665    2.3907    2.5731 H   0  0  0  0  0  0  0  0  0  0  0  0
    0.8740    4.1453    0.9190 C   0  0  0  0  0  0  0  0  0  0  0  0
    1.4845    3.8975    1.8108 H   0  0  0  0  0  0  0  0  0  0  0  0
    0.2412    5.0172    1.1748 H   0  0  0  0  0  0  0  0  0  0  0  0
    1.5500    4.4643    0.1007 H   0  0  0  0  0  0  0  0  0  0  0  0
    4.0660    0.2211   -0.3148 C   0  0  0  0  0  0  0  0  0  0  0  0
    4.5035   -1.1109   -0.5297 C   0  0  0  0  0  0  0  0  0  0  0  0
    3.7469   -1.9025   -0.6215 H   0  0  0  0  0  0  0  0  0  0  0  0
    5.8668   -1.4096   -0.6207 C   0  0  0  0  0  0  0  0  0  0  0  0
    6.1859   -2.4503   -0.7855 H   0  0  0  0  0  0  0  0  0  0  0  0
    6.8283   -0.3907   -0.5066 C   0  0  0  0  0  0  0  0  0  0  0  0
    7.9004   -0.6270   -0.5813 H   0  0  0  0  0  0  0  0  0  0  0  0
    6.4084    0.9351   -0.2979 C   0  0  0  0  0  0  0  0  0  0  0  0
    7.1530    1.7408   -0.2080 H   0  0  0  0  0  0  0  0  0  0  0  0
    5.0470    1.2400   -0.2019 C   0  0  0  0  0  0  0  0  0  0  0  0
    4.7417    2.2838   -0.0383 H   0  0  0  0  0  0  0  0  0  0  0  0
  1  2  1  0  0  0  0
  2  3  2  0  0  0  0
  3  4  1  0  0  0  0
  3  5  1  0  0  0  0
  5  6  1  0  0  0  0
  6 15  1  0  0  0  0
  6 11  1  0  0  0  0
  7  9  1  0  0  0  0
  7  6  1  0  0  0  0
  8  7  1  0  0  0  0
 10  7  1  0  0  0  0
 11 13  1  0  0  0  0
 11 14  1  0  0  0  0
 12 11  1  0  0  0  0
 15 17  1  0  0  0  0
 15 16  1  0  0  0  0
 18 15  1  0  0  0  0
 19  2  1  0  0  0  0
 19 28  1  0  0  0  0
 20 19  2  0  0  0  0
 21 20  1  0  0  0  0
 22 20  1  0  0  0  0
 22 24  2  0  0  0  0
 23 22  1  0  0  0  0
 24 26  1  0  0  0  0
 25 24  1  0  0  0  0
 26 27  1  0  0  0  0
 26 28  2  0  0  0  0
 28 29  1  0  0  0  0
M  CHG  1   1  -1
M  END
