2,3
q = -1.0

 37 38  0  0  0  0  0  0  0  0999 V2000
   -6.6234    2.7146   -0.1973 Cl  0  0  0  0  0  0  0  0  0  0  0  0
   -1.6588   -0.3099    0.7345 O   0  5  0  0  0  0  0  0  0  0  0  0
   -0.2593    1.8936    0.0825 N   0  0  0  0  0  2  0  0  0  0  0  0
   -2.7205    0.4103    0.5085 C   0  0  0  0  0  0  0  0  0  0  0  0
   -3.9953   -0.2262    0.6273 C   0  0  0  0  0  0  0  0  0  0  0  0
   -3.9957   -1.2988    0.8701 H   0  0  0  0  0  0  0  0  0  0  0  0
   -5.1768    0.4699    0.4159 C   0  0  0  0  0  0  0  0  0  0  0  0
   -6.1500   -0.0367    0.4903 H   0  0  0  0  0  0  0  0  0  0  0  0
   -5.1309    1.8459    0.0887 C   0  0  0  0  0  0  0  0  0  0  0  0
   -3.9113    2.5064   -0.0088 C   0  0  0  0  0  3  0  0  0  0  0  0
   -3.9138    3.5740   -0.2629 H   0  0  0  0  0  0  0  0  0  0  0  0
   -2.6845    1.8146    0.1924 C   0  0  0  0  0  0  0  0  0  0  0  0
   -1.4189    2.5298    0.1675 C   0  0  0  0  0  0  0  0  0  0  0  0
   -1.4644    4.0368    0.2709 C   0  0  0  0  0  0  0  0  0  0  0  0
   -0.4652    4.4611    0.4685 H   0  0  0  0  0  0  0  0  0  0  0  0
   -1.8409    4.4802   -0.6748 H   0  0  0  0  0  0  0  0  0  0  0  0
   -2.1607    4.3483    1.0728 H   0  0  0  0  0  0  0  0  0  0  0  0
    0.9598    2.6488    0.1074 C   0  0  0  0  0  0  0  0  0  0  0  0
    1.6999    2.7042    1.3121 C   0  0  0  0  0  0  0  0  0  0  0  0
    2.9086    3.4188    1.3192 C   0  0  0  0  0  0  0  0  0  0  0  0
    3.4880    3.4652    2.2557 H   0  0  0  0  0  0  0  0  0  0  0  0
    3.4031    4.0610    0.1674 C   0  0  0  0  0  0  0  0  0  0  0  0
    2.6558    3.9546   -1.0197 C   0  0  0  0  0  0  0  0  0  0  0  0
    3.0375    4.4237   -1.9411 H   0  0  0  0  0  0  0  0  0  0  0  0
    1.4404    3.2492   -1.0781 C   0  0  0  0  0  0  0  0  0  0  0  0
    1.2156    1.9645    2.5299 C   0  0  0  0  0  0  0  0  0  0  0  0
    1.1911    0.8706    2.3285 H   0  0  0  0  0  0  0  0  0  0  0  0
    1.8736    2.1439    3.4009 H   0  0  0  0  0  0  0  0  0  0  0  0
    0.1792    2.2472    2.8068 H   0  0  0  0  0  0  0  0  0  0  0  0
    4.6987    4.8319    0.2132 C   0  0  0  0  0  0  0  0  0  0  0  0
    5.5059    4.2401    0.6917 H   0  0  0  0  0  0  0  0  0  0  0  0
    5.0398    5.1192   -0.8003 H   0  0  0  0  0  0  0  0  0  0  0  0
    4.5918    5.7649    0.8067 H   0  0  0  0  0  0  0  0  0  0  0  0
    0.6955    3.0790   -2.3748 C   0  0  0  0  0  0  0  0  0  0  0  0
    0.5354    2.0001   -2.5786 H   0  0  0  0  0  0  0  0  0  0  0  0
   -0.3062    3.5565   -2.3553 H   0  0  0  0  0  0  0  0  0  0  0  0
    1.2600    3.5165   -3.2198 H   0  0  0  0  0  0  0  0  0  0  0  0
  1  9  1  0  0  0  0
  3 18  1  0  0  0  0
  3 13  1  0  0  0  0
  4  5  2  0  0  0  0
  4  2  1  0  0  0  0
  5  6  1  0  0  0  0
  7  8  1  0  0  0  0
  7  5  1  0  0  0  0
  9  7  2  0  0  0  0
 10  9  1  0  0  0  0
 10 12  1  0  0  0  0
 11 10  1  0  0  0  0
 12  4  1  0  0  0  0
 13 12  2  0  0  0  0
 13 14  1  0  0  0  0
 14 15  1  0  0  0  0
 14 17  1  0  0  0  0
 16 14  1  0  0  0  0
 18 19  1  0  0  0  0
 19 20  2  0  0  0  0
 19 26  1  0  0  0  0
 20 21  1  0  0  0  0
 22 30  1  0  0  0  0
 22 20  1  0  0  0  0
 23 22  2  0  0  0  0
 24 23  1  0  0  0  0
 25 23  1  0  0  0  0
 25 18  2  0  0  0  0
 26 29  1  0  0  0  0
 26 28  1  0  0  0  0
 27 26  1  0  0  0  0
 30 31  1  0  0  0  0
 30 33  1  0  0  0  0
 32 30  1  0  0  0  0
 34 36  1  0  0  0  0
 34 25  1  0  0  0  0
 35 34  1  0  0  0  0
 37 34  1  0  0  0  0
M  CHG  1   2  -1
M  END
