2,3
q = -1.0

 19 18  0  0  1  0  0  0  0  0999 V2000
    3.1201    0.2227   -1.1112 O   0  0  0  0  0  0  0  0  0  0  0  0
    1.0348   -1.0983    0.1982 N   0  0  0  0  0  2  0  0  0  0  0  0
   -0.3702   -0.1387    2.1298 O   0  5  0  0  0  0  0  0  0  0  0  0
    0.7950   -0.6003    2.5083 C   0  0  0  0  0  0  0  0  0  0  0  0
    2.0383   -0.3140   -3.0316 O   0  0  0  0  0  0  0  0  0  0  0  0
    2.2637   -0.5153   -1.8550 C   0  0  0  0  0  0  0  0  0  0  0  0
    1.6412   -1.6269   -1.0116 C   0  0  0  0  0  0  0  0  0  0  0  0
    0.8586   -2.1235   -1.6123 H   0  0  0  0  0  0  0  0  0  0  0  0
    2.4352   -2.3678   -0.7787 H   0  0  0  0  0  0  0  0  0  0  0  0
    3.7557    1.3153   -1.7920 C   0  0  0  0  0  0  0  0  0  0  0  0
    4.3923    1.8133   -1.0404 H   0  0  0  0  0  0  0  0  0  0  0  0
    2.9990    2.0230   -2.1865 H   0  0  0  0  0  0  0  0  0  0  0  0
    4.3655    0.9466   -2.6405 H   0  0  0  0  0  0  0  0  0  0  0  0
    1.2512   -0.5642    3.6480 O   0  0  0  0  0  0  0  0  0  0  0  0
    1.6024   -1.1946    1.3627 C   0  0  2  0  0  3  0  0  0  0  0  0
    2.9302   -1.8073    1.6508 C   0  0  0  0  0  0  0  0  0  0  0  0
    2.9339   -2.8918    1.4110 H   0  0  0  0  0  0  0  0  0  0  0  0
    3.1298   -1.6773    2.7309 H   0  0  0  0  0  0  0  0  0  0  0  0
    3.7313   -1.3213    1.0583 H   0  0  0  0  0  0  0  0  0  0  0  0
  3  4  1  0  0  0  0
  4 14  2  0  0  0  0
  5  6  2  0  0  0  0
  6  1  1  0  0  0  0
  6  7  1  0  0  0  0
  7  9  1  0  0  0  0
  7  2  1  0  0  0  0
  8  7  1  0  0  0  0
 10  1  1  0  0  0  0
 10 11  1  0  0  0  0
 12 10  1  0  0  0  0
 13 10  1  0  0  0  0
 15  2  1  6  0  0  0
 15 16  1  0  0  0  0
 15  4  1  0  0  0  0
 16 18  1  0  0  0  0
 17 16  1  0  0  0  0
 19 16  1  0  0  0  0
M  CHG  1   3  -1
M  END
