3,4
q = 0.0, confidence = 0.97

 33 33  0  0  0  0  0  0  0  0999 V2000
   -3.3838   -2.3582    0.3208 Br  0  0  0  0  0  0  0  0  0  0  0  0
   -4.9663    2.9828    0.3400 Cl  0  0  0  0  0  0  0  0  0  0  0  0
   -0.7610   -1.1035   -0.4408 O   0  5  0  0  0  0  0  0  0  0  0  0
    0.9971    1.1358   -1.1312 N   0  0  0  0  0  2  0  0  0  0  0  0
    4.7691    0.9367    0.8856 N   0  3  0  0  0  0  0  0  0  0  0  0
   -1.3855    1.2466   -0.4798 C   0  0  0  0  0  0  0  0  0  0  0  0
   -1.6338   -0.1758   -0.2858 C   0  0  0  0  0  0  0  0  0  0  0  0
   -2.9919   -0.5189    0.0807 C   0  0  0  0  0  0  0  0  0  0  0  0
   -3.9881    0.4279    0.2759 C   0  0  0  0  0  0  0  0  0  0  0  0
   -4.9990    0.1150    0.5704 H   0  0  0  0  0  0  0  0  0  0  0  0
   -3.6982    1.8024    0.0937 C   0  0  0  0  0  0  0  0  0  0  0  0
   -2.4269    2.2009   -0.2859 C   0  0  0  0  0  0  0  0  0  0  0  0
   -2.2153    3.2688   -0.4453 H   0  0  0  0  0  0  0  0  0  0  0  0
   -0.1315    1.7715   -0.9515 C   0  0  0  0  0  3  0  0  0  0  0  0
   -0.1578    2.8555   -1.2129 H   0  0  0  0  0  0  0  0  0  0  0  0
    2.0883    1.8530   -1.7783 C   0  0  0  0  0  0  0  0  0  0  0  0
    1.9543    2.9565   -1.6666 H   0  0  0  0  0  0  0  0  0  0  0  0
    2.0607    1.6380   -2.8698 H   0  0  0  0  0  0  0  0  0  0  0  0
    3.4621    1.3990   -1.2644 C   0  0  0  0  0  0  0  0  0  0  0  0
    4.2569    1.9325   -1.8289 H   0  0  0  0  0  0  0  0  0  0  0  0
    3.5319    0.3144   -1.5037 H   0  0  0  0  0  0  0  0  0  0  0  0
    3.5818    1.6265    0.2320 C   0  0  0  0  0  0  0  0  0  0  0  0
    3.6870    2.7019    0.4836 H   0  0  0  0  0  0  0  0  0  0  0  0
    2.6969    1.2160    0.7683 H   0  0  0  0  0  0  0  0  0  0  0  0
    4.7642    1.2324    2.3545 C   0  0  0  0  0  0  0  0  0  0  0  0
    4.7671    2.3267    2.5073 H   0  0  0  0  0  0  0  0  0  0  0  0
    5.6549    0.7745    2.8207 H   0  0  0  0  0  0  0  0  0  0  0  0
    3.8353    0.7841    2.7613 H   0  0  0  0  0  0  0  0  0  0  0  0
    4.8231   -0.5527    0.6659 C   0  0  0  0  0  0  0  0  0  0  0  0
    5.7444   -0.9307    1.1452 H   0  0  0  0  0  0  0  0  0  0  0  0
    4.8048   -0.7888   -0.4113 H   0  0  0  0  0  0  0  0  0  0  0  0
    3.9108   -0.9830    1.1289 H   0  0  0  0  0  0  0  0  0  0  0  0
    5.6259    1.3422    0.4714 H   0  0  0  0  0  0  0  0  0  0  0  0
  3  7  1  0  0  0  0
  4 14  1  0  0  0  0
  5 25  1  0  0  0  0
  6 12  2  0  0  0  0
  6  7  1  0  0  0  0
  7  8  2  0  0  0  0
  8  9  1  0  0  0  0
  8  1  1  0  0  0  0
  9 10  1  0  0  0  0
 11  9  2  0  0  0  0
 11  2  1  0  0  0  0
 12 11  1  0  0  0  0
 13 12  1  0  0  0  0
 14  6  1  0  0  0  0
 15 14  1  0  0  0  0
 16 17  1  0  0  0  0
 16 19  1  0  0  0  0
 16  4  1  0  0  0  0
 18 16  1  0  0  0  0
 19 22  1  0  0  0  0
 20 19  1  0  0  0  0
 21 19  1  0  0  0  0
 22 23  1  0  0  0  0
 22 24  1  0  0  0  0
 22  5  1  0  0  0  0
 25 26  1  0  0  0  0
 25 28  1  0  0  0  0
 25 27  1  0  0  0  0
 29  5  1  0  0  0  0
 29 32  1  0  0  0  0
 29 30  1  0  0  0  0
 31 29  1  0  0  0  0
 33  5  1  0  0  0  0
M  CHG  2   3  -1   5   1
M  END
