1,2
q = -1.0

 22 21  0  0  0  0  0  0  0  0999 V2000
   -1.8181   -0.5864    0.5806 O   0  5  0  0  0  0  0  0  0  0  0  0
   -0.4381   -0.2760   -1.9030 N   0  0  0  0  0  0  0  0  0  0  0  0
    0.3510   -0.8381   -2.2656 H   0  0  0  0  0  0  0  0  0  0  0  0
   -2.5396   -1.5844    0.0724 C   0  0  0  0  0  0  0  0  0  0  0  0
   -3.5233   -2.0413    0.6339 O   0  0  0  0  0  0  0  0  0  0  0  0
   -2.0650   -2.0926   -1.2973 C   0  0  0  0  0  0  0  0  0  0  0  0
   -1.1853   -2.7612   -1.1670 H   0  0  0  0  0  0  0  0  0  0  0  0
   -2.8785   -2.7104   -1.7241 H   0  0  0  0  0  0  0  0  0  0  0  0
    1.6383    2.0249   -0.1901 O   0  0  0  0  0  0  0  0  0  0  0  0
    2.0478    1.1424   -0.3671 H   0  0  0  0  0  0  0  0  0  0  0  0
   -1.7215   -0.9449   -2.2428 C   0  0  0  0  0  0  0  0  0  0  0  0
   -1.6806   -1.2930   -3.2990 H   0  0  0  0  0  0  0  0  0  0  0  0
   -2.5172   -0.1741   -2.1926 H   0  0  0  0  0  0  0  0  0  0  0  0
   -0.3681    1.0765   -2.5342 C   0  0  0  0  0  0  0  0  0  0  0  0
   -1.0778    1.7248   -1.9811 H   0  0  0  0  0  0  0  0  0  0  0  0
   -0.7451    0.9618   -3.5759 H   0  0  0  0  0  0  0  0  0  0  0  0
    1.0223    1.7242   -2.5848 C   0  0  0  0  0  0  0  0  0  0  0  0
    1.8035    0.9434   -2.7169 H   0  0  0  0  0  0  0  0  0  0  0  0
    1.0556    2.3392   -3.5090 H   0  0  0  0  0  0  0  0  0  0  0  0
    1.4204    2.6574   -1.4331 C   0  0  0  0  0  0  0  0  0  0  0  0
    2.3323    3.2177   -1.7597 H   0  0  0  0  0  0  0  0  0  0  0  0
    0.6194    3.4134   -1.2789 H   0  0  0  0  0  0  0  0  0  0  0  0
  3  2  1  0  0  0  0
  4  1  1  0  0  0  0
  4  5  2  0  0  0  0
  6  7  1  0  0  0  0
  6  4  1  0  0  0  0
  8  6  1  0  0  0  0
 10  9  1  0  0  0  0
 11 13  1  0  0  0  0
 11  2  1  0  0  0  0
 11  6  1  0  0  0  0
 12 11  1  0  0  0  0
 14 15  1  0  0  0  0
 14  2  1  0  0  0  0
 16 14  1  0  0  0  0
 17 14  1  0  0  0  0
 17 20  1  0  0  0  0
 18 17  1  0  0  0  0
 19 17  1  0  0  0  0
 20 22  1  0  0  0  0
 20  9  1  0  0  0  0
 21 20  1  0  0  0  0
M  CHG  1   1  -1
M  END
