1,2
q = -1.0

 28 29  0  0  0  0  0  0  0  0999 V2000
    1.2104   -1.5449   -0.5818 N   0  0  0  0  0  2  0  0  0  0  0  0
   -1.3964   -1.0153   -0.5205 O   0  5  0  0  0  0  0  0  0  0  0  0
    0.8031   -2.7568   -0.1965 C   0  0  0  0  0  3  0  0  0  0  0  0
    1.5686   -3.5511   -0.1155 H   0  0  0  0  0  0  0  0  0  0  0  0
   -0.5407   -3.1383    0.1139 C   0  0  0  0  0  0  0  0  0  0  0  0
   -0.8304   -4.4447    0.6015 C   0  0  0  0  0  0  0  0  0  0  0  0
    0.0024   -5.1553    0.7263 H   0  0  0  0  0  0  0  0  0  0  0  0
   -2.1300   -4.8232    0.9272 C   0  0  0  0  0  0  0  0  0  0  0  0
   -2.3284   -5.8347    1.3112 H   0  0  0  0  0  0  0  0  0  0  0  0
   -3.1981   -3.9084    0.7578 C   0  0  0  0  0  0  0  0  0  0  0  0
   -4.2253   -4.2119    1.0104 H   0  0  0  0  0  0  0  0  0  0  0  0
   -2.9575   -2.6247    0.2648 C   0  0  0  0  0  0  0  0  0  0  0  0
   -3.7673   -1.8958    0.1112 H   0  0  0  0  0  0  0  0  0  0  0  0
   -1.6381   -2.2265   -0.0561 C   0  0  0  0  0  0  0  0  0  0  0  0
    2.6193   -1.3760   -0.7463 C   0  0  0  0  0  0  0  0  0  0  0  0
    3.5301   -1.8784    0.2079 C   0  0  0  0  0  0  0  0  0  0  0  0
    3.1556   -2.4148    1.0930 H   0  0  0  0  0  0  0  0  0  0  0  0
    4.9080   -1.6694    0.0544 C   0  0  0  0  0  0  0  0  0  0  0  0
    5.6000   -2.0562    0.8194 H   0  0  0  0  0  0  0  0  0  0  0  0
    5.4216   -0.9637   -1.0508 C   0  0  0  0  0  0  0  0  0  0  0  0
    6.9027   -0.7449   -1.2276 C   0  0  0  0  0  0  0  0  0  0  0  0
    7.2914   -1.3173   -2.0967 H   0  0  0  0  0  0  0  0  0  0  0  0
    7.4742   -1.0643   -0.3346 H   0  0  0  0  0  0  0  0  0  0  0  0
    7.1356    0.3227   -1.4203 H   0  0  0  0  0  0  0  0  0  0  0  0
    4.4981   -0.4719   -1.9992 C   0  0  0  0  0  0  0  0  0  0  0  0
    4.8691    0.0831   -2.8758 H   0  0  0  0  0  0  0  0  0  0  0  0
    3.1211   -0.6639   -1.8557 C   0  0  0  0  0  0  0  0  0  0  0  0
    2.4083   -0.2704   -2.5952 H   0  0  0  0  0  0  0  0  0  0  0  0
  1  3  1  0  0  0  0
  2 14  1  0  0  0  0
  3  4  1  0  0  0  0
  3  5  1  0  0  0  0
  5  6  1  0  0  0  0
  6  7  1  0  0  0  0
  6  8  2  0  0  0  0
  8  9  1  0  0  0  0
 10  8  1  0  0  0  0
 10 11  1  0  0  0  0
 12 10  2  0  0  0  0
 13 12  1  0  0  0  0
 14  5  2  0  0  0  0
 14 12  1  0  0  0  0
 15  1  1  0  0  0  0
 15 16  1  0  0  0  0
 16 17  1  0  0  0  0
 18 16  2  0  0  0  0
 18 19  1  0  0  0  0
 20 18  1  0  0  0  0
 21 20  1  0  0  0  0
 21 23  1  0  0  0  0
 22 21  1  0  0  0  0
 24 21  1  0  0  0  0
 25 27  1  0  0  0  0
 25 20  2  0  0  0  0
 26 25  1  0  0  0  0
 27 15  2  0  0  0  0
 28 27  1  0  0  0  0
M  CHG  1   2  -1
M  END
