1,2
q = -1.0, confidence = 0.0

 28 29  0  0  0  0  0  0  0  0999 V2000
   -1.5881    0.5113    0.8329 O   0  5  0  0  0  0  0  0  0  0  0  0
   -0.8548   -1.4679   -0.8996 N   0  0  0  0  0  2  0  0  0  0  0  0
   -0.4400   -4.3333    0.1201 O   0  0  0  0  0  0  0  0  0  0  0  0
   -2.8185    0.1871    0.5459 C   0  0  0  0  0  0  0  0  0  0  0  0
    0.4790   -3.4648   -0.4155 C   0  0  0  0  0  0  0  0  0  0  0  0
   -0.0243   -2.5474   -1.4766 C   0  0  0  0  0  0  0  0  0  0  0  0
   -0.6367   -3.1187   -2.2062 H   0  0  0  0  0  0  0  0  0  0  0  0
    0.8353   -2.0932   -1.9944 H   0  0  0  0  0  0  0  0  0  0  0  0
   -2.1520   -1.6493   -0.9827 C   0  0  0  0  0  0  0  0  0  0  0  0
   -2.5039   -2.5269   -1.5611 H   0  0  0  0  0  0  0  0  0  0  0  0
   -3.8900    0.8793    1.1904 C   0  0  0  0  0  0  0  0  0  0  0  0
   -3.6329    1.6592    1.9224 H   0  0  0  0  0  0  0  0  0  0  0  0
   -4.5411   -1.1392   -0.6369 C   0  0  0  0  0  3  0  0  0  0  0  0
   -4.7757   -1.9491   -1.3479 H   0  0  0  0  0  0  0  0  0  0  0  0
   -3.1725   -0.8520   -0.3774 C   0  0  0  0  0  0  0  0  0  0  0  0
    0.1905   -5.0467    1.0958 C   0  0  0  0  0  0  0  0  0  0  0  0
   -0.4214   -5.7908    1.6155 H   0  0  0  0  0  0  0  0  0  0  0  0
    1.6911   -3.6221    0.2217 C   0  0  0  0  0  0  0  0  0  0  0  0
    2.6033   -3.0518    0.0178 H   0  0  0  0  0  0  0  0  0  0  0  0
    1.5045   -4.6553    1.2008 C   0  0  0  0  0  0  0  0  0  0  0  0
    2.2505   -5.0542    1.8969 H   0  0  0  0  0  0  0  0  0  0  0  0
   -5.5790   -0.4399   -0.0242 C   0  0  0  0  0  0  0  0  0  0  0  0
   -5.2158    0.5763    0.9036 C   0  0  0  0  0  0  0  0  0  0  0  0
   -6.0131    1.1399    1.4158 H   0  0  0  0  0  0  0  0  0  0  0  0
   -7.0292   -0.7371   -0.3105 C   0  0  0  0  0  0  0  0  0  0  0  0
   -7.5803   -1.0111    0.6139 H   0  0  0  0  0  0  0  0  0  0  0  0
   -7.5490    0.1446   -0.7421 H   0  0  0  0  0  0  0  0  0  0  0  0
   -7.1388   -1.5739   -1.0274 H   0  0  0  0  0  0  0  0  0  0  0  0
  3 16  1  0  0  0  0
  4  1  1  0  0  0  0
  4 11  2  0  0  0  0
  5  3  1  0  0  0  0
  5 18  2  0  0  0  0
  6  2  1  0  0  0  0
  6  5  1  0  0  0  0
  7  6  1  0  0  0  0
  8  6  1  0  0  0  0
  9  2  1  0  0  0  0
  9 15  2  0  0  0  0
 10  9  1  0  0  0  0
 11 12  1  0  0  0  0
 13 15  1  0  0  0  0
 13 22  1  0  0  0  0
 14 13  1  0  0  0  0
 15  4  1  0  0  0  0
 16 20  2  0  0  0  0
 16 17  1  0  0  0  0
 18 20  1  0  0  0  0
 19 18  1  0  0  0  0
 20 21  1  0  0  0  0
 22 23  2  0  0  0  0
 23 11  1  0  0  0  0
 23 24  1  0  0  0  0
 25 22  1  0  0  0  0
 25 26  1  0  0  0  0
 27 25  1  0  0  0  0
 28 25  1  0  0  0  0
M  CHG  1   1  -1
M  END
