1,4
q = -1.0

 31 32  0  0  0  0  0  0  0  0999 V2000
    0.8985    1.4724    0.2296 N   0  0  0  0  0  2  0  0  0  0  0  0
   -5.2636    3.8710   -0.7193 N   0  0  0  0  0  0  0  0  0  0  0  0
    6.2141    1.7272    2.0097 O   0  0  0  0  0  0  0  0  0  0  0  0
   -1.8703    0.5599    0.1002 O   0  5  0  0  0  0  0  0  0  0  0  0
   -6.0900    2.9603   -0.6837 O   0  0  0  0  0  0  0  0  0  0  0  0
   -5.5294    5.0594   -0.9066 O   0  0  0  0  0  0  0  0  0  0  0  0
    7.1644    2.5858    1.4095 C   0  0  0  0  0  0  0  0  0  0  0  0
    8.1152    2.4304    1.9519 H   0  0  0  0  0  0  0  0  0  0  0  0
    6.8704    3.6563    1.4943 H   0  0  0  0  0  0  0  0  0  0  0  0
    7.3196    2.3451    0.3330 H   0  0  0  0  0  0  0  0  0  0  0  0
    4.9421    1.7331    1.5259 C   0  0  0  0  0  0  0  0  0  0  0  0
    4.0323    0.8543    2.1569 C   0  0  0  0  0  0  0  0  0  0  0  0
    4.3957    0.2390    2.9921 H   0  0  0  0  0  0  0  0  0  0  0  0
    2.7137    0.7674    1.7184 C   0  0  0  0  0  0  0  0  0  0  0  0
    2.0071    0.0715    2.1926 H   0  0  0  0  0  0  0  0  0  0  0  0
    2.2587    1.5657    0.6457 C   0  0  0  0  0  0  0  0  0  0  0  0
    3.1650    2.4392    0.0184 C   0  0  0  0  0  0  0  0  0  0  0  0
    2.8342    3.0385   -0.8430 H   0  0  0  0  0  0  0  0  0  0  0  0
    4.4996    2.5273    0.4482 C   0  0  0  0  0  0  0  0  0  0  0  0
    5.1846    3.2079   -0.0746 H   0  0  0  0  0  0  0  0  0  0  0  0
    0.2498    2.6166    0.1054 C   0  0  0  0  0  0  0  0  0  0  0  0
    0.8452    3.5326    0.2904 H   0  0  0  0  0  0  0  0  0  0  0  0
   -1.1354    2.8510   -0.1687 C   0  0  0  0  0  0  0  0  0  0  0  0
   -2.1365    1.8004   -0.1132 C   0  0  0  0  0  0  0  0  0  0  0  0
   -3.5070    2.1921   -0.2847 C   0  0  0  0  0  0  0  0  0  0  0  0
   -4.2905    1.4254   -0.2378 H   0  0  0  0  0  0  0  0  0  0  0  0
   -3.8305    3.5168   -0.5225 C   0  0  0  0  0  0  0  0  0  0  0  0
   -2.8688    4.5531   -0.5825 C   0  0  0  0  0  0  0  0  0  0  0  0
   -3.1938    5.5837   -0.7657 H   0  0  0  0  0  0  0  0  0  0  0  0
   -1.5427    4.2009   -0.3892 C   0  0  0  0  0  3  0  0  0  0  0  0
   -0.7662    4.9825   -0.4096 H   0  0  0  0  0  0  0  0  0  0  0  0
  1 16  1  0  0  0  0
  2  5  2  0  0  0  0
  2 27  1  0  0  0  0
  6  2  2  0  0  0  0
  7  9  1  0  0  0  0
  7  8  1  0  0  0  0
  7  3  1  0  0  0  0
 10  7  1  0  0  0  0
 11  3  1  0  0  0  0
 11 12  1  0  0  0  0
 12 13  1  0  0  0  0
 14 12  2  0  0  0  0
 14 15  1  0  0  0  0
 16 14  1  0  0  0  0
 17 19  1  0  0  0  0
 17 16  2  0  0  0  0
 18 17  1  0  0  0  0
 19 11  2  0  0  0  0
 20 19  1  0  0  0  0
 21  1  1  0  0  0  0
 21 22  1  0  0  0  0
 23 24  1  0  0  0  0
 23 21  2  0  0  0  0
 24  4  1  0  0  0  0
 25 26  1  0  0  0  0
 25 24  2  0  0  0  0
 27 25  1  0  0  0  0
 28 27  2  0  0  0  0
 28 30  1  0  0  0  0
 29 28  1  0  0  0  0
 30 23  1  0  0  0  0
 31 30  1  0  0  0  0
M  CHG  1   4  -1
M  END
