19,23
q = -1.0, confidence = 0.022

 23 24  0  0  0  0  0  0  0  0999 V2000
   -1.0171    2.0922    1.8185 C   0  0  0  0  0  0  0  0  0  0  0  0
   -2.0825    1.3606    1.0230 C   0  0  0  0  0  0  0  0  0  0  0  0
   -3.3260    1.7446    0.5293 C   0  0  0  0  0  0  0  0  0  0  0  0
   -4.0090    3.0609    0.6451 C   0  0  0  0  0  0  0  0  0  0  0  0
   -4.4425    3.3923   -0.3195 H   0  0  0  0  0  0  0  0  0  0  0  0
   -3.2466    3.7800    1.0035 H   0  0  0  0  0  0  0  0  0  0  0  0
   -4.8252    3.0402    1.3967 H   0  0  0  0  0  0  0  0  0  0  0  0
   -4.9508    0.4242   -0.9125 C   0  0  0  0  0  0  0  0  0  0  0  0
   -6.1743    0.9701   -0.4875 C   0  0  0  0  0  0  0  0  0  0  0  0
   -6.2344    1.5324    0.4529 H   0  0  0  0  0  0  0  0  0  0  0  0
   -7.3248    0.7622   -1.2622 C   0  0  0  0  0  0  0  0  0  0  0  0
   -8.2831    1.1881   -0.9297 H   0  0  0  0  0  0  0  0  0  0  0  0
   -7.2603    0.0040   -2.4410 C   0  0  0  0  0  0  0  0  0  0  0  0
   -8.1669   -0.1585   -3.0424 H   0  0  0  0  0  0  0  0  0  0  0  0
   -6.0358   -0.5528   -2.8461 C   0  0  0  0  0  0  0  0  0  0  0  0
   -5.9800   -1.1540   -3.7659 H   0  0  0  0  0  0  0  0  0  0  0  0
   -4.8763   -0.3429   -2.0899 C   0  0  0  0  0  0  0  0  0  0  0  0
   -3.9087   -0.7704   -2.3852 H   0  0  0  0  0  0  0  0  0  0  0  0
   -1.8610    0.0752    0.6147 N   0  0  0  0  0  2  0  0  0  0  0  0
   -2.8549   -0.3855   -0.0927 N   0  0  0  0  0  2  0  0  0  0  0  0
   -3.7619    0.6215   -0.1495 N   0  0  0  0  0  0  0  0  0  0  0  0
   -1.1917    3.2812    2.1001 O   0  5  0  0  0  0  0  0  0  0  0  0
    0.0008    1.3439    2.1091 O   0  0  0  0  0  0  0  0  0  0  0  0
  1 22  1  0  0  0  0
  1 23  2  0  0  0  0
  2  1  1  0  0  0  0
  3  4  1  0  0  0  0
  3  2  2  0  0  0  0
  4  6  1  0  0  0  0
  4  7  1  0  0  0  0
  5  4  1  0  0  0  0
  8  9  1  0  0  0  0
  8 21  1  0  0  0  0
  9 10  1  0  0  0  0
 11 12  1  0  0  0  0
 11  9  2  0  0  0  0
 13 11  1  0  0  0  0
 14 13  1  0  0  0  0
 15 13  2  0  0  0  0
 15 17  1  0  0  0  0
 16 15  1  0  0  0  0
 17  8  2  0  0  0  0
 18 17  1  0  0  0  0
 19  2  1  0  0  0  0
 20 19  1  0  0  0  0
 21 20  1  0  0  0  0
 21  3  1  0  0  0  0
M  CHG  1  22  -1
M  END
