2,7
q = -1.0

 22 21  0  0  1  0  0  0  0  0999 V2000
    3.6575    1.4154    0.4243 O   0  0  0  0  0  0  0  0  0  0  0  0
    1.5348    0.6801    0.5875 O   0  5  0  0  0  0  0  0  0  0  0  0
    2.8710   -2.0129   -2.8310 C   0  0  0  0  0  0  0  0  0  0  0  0
    2.8523   -3.1002   -2.6073 H   0  0  0  0  0  0  0  0  0  0  0  0
    3.9208   -1.7087   -2.9878 H   0  0  0  0  0  0  0  0  0  0  0  0
    2.3209   -1.8796   -3.7859 H   0  0  0  0  0  0  0  0  0  0  0  0
    0.9462   -1.4588   -1.4039 N   0  0  0  0  0  2  0  0  0  0  0  0
    4.5962    3.1202    1.7998 C   0  0  0  0  0  0  0  0  0  0  0  0
    4.4027    3.8298    2.6286 H   0  0  0  0  0  0  0  0  0  0  0  0
    4.9144    3.7011    0.9114 H   0  0  0  0  0  0  0  0  0  0  0  0
    5.4347    2.4590    2.0963 H   0  0  0  0  0  0  0  0  0  0  0  0
    3.3478    2.3131    1.5014 C   0  0  0  0  0  0  0  0  0  0  0  0
    3.0106    1.7295    2.3852 H   0  0  0  0  0  0  0  0  0  0  0  0
    2.4945    2.9624    1.2089 H   0  0  0  0  0  0  0  0  0  0  0  0
    3.0364   -0.2542   -1.0695 C   0  0  0  0  0  0  0  0  0  0  0  0
    2.2252   -1.2170   -1.7166 C   0  0  1  0  0  3  0  0  0  0  0  0
    2.6606    0.5970   -0.0021 C   0  0  0  0  0  0  0  0  0  0  0  0
    0.1965   -2.4724   -2.1251 C   0  0  0  0  0  0  0  0  0  0  0  0
   -0.8165   -2.5604   -1.6854 H   0  0  0  0  0  0  0  0  0  0  0  0
    0.6665   -3.4814   -2.0738 H   0  0  0  0  0  0  0  0  0  0  0  0
    0.0670   -2.2298   -3.2054 H   0  0  0  0  0  0  0  0  0  0  0  0
    4.0717   -0.1430   -1.4139 H   0  0  0  0  0  0  0  0  0  0  0  0
  1 12  1  0  0  0  0
  3  4  1  0  0  0  0
  3 16  1  0  0  0  0
  5  3  1  0  0  0  0
  6  3  1  0  0  0  0
  8 11  1  0  0  0  0
  8  9  1  0  0  0  0
 10  8  1  0  0  0  0
 12  8  1  0  0  0  0
 12 13  1  0  0  0  0
 14 12  1  0  0  0  0
 15 17  2  0  0  0  0
 16  7  1  1  0  0  0
 16 15  1  0  0  0  0
 17  1  1  0  0  0  0
 17  2  1  0  0  0  0
 18 20  1  0  0  0  0
 18 19  1  0  0  0  0
 18  7  1  0  0  0  0
 21 18  1  0  0  0  0
 22 15  1  0  0  0  0
M  CHG  1   2  -1
M  END
