1,3
q = -1.0

 51 55  0  0  1  0  0  0  0  0999 V2000
    1.3979   -1.1713    0.8779 O   0  0  0  0  0  1  0  0  0  0  0  0
   -0.6898    2.5649   -0.3642 N   0  0  0  0  0  0  0  0  0  0  0  0
   -0.4767    0.4031    0.0141 N   0  0  0  0  0  2  0  0  0  0  0  0
    1.9299   -0.0789    0.1663 C   0  0  0  0  0  0  0  0  0  0  0  0
    2.5063   -0.5586   -1.1852 C   0  0  0  0  0  0  0  0  0  0  0  0
    3.1771   -1.7969   -1.1994 C   0  0  0  0  0  0  0  0  0  0  0  0
    3.2268   -2.3717   -0.2634 H   0  0  0  0  0  0  0  0  0  0  0  0
    3.7475   -2.2832   -2.3823 C   0  0  0  0  0  0  0  0  0  0  0  0
    4.2671   -3.2539   -2.3792 H   0  0  0  0  0  0  0  0  0  0  0  0
    3.6531   -1.5402   -3.5719 C   0  0  0  0  0  0  0  0  0  0  0  0
    4.0964   -1.9252   -4.5030 H   0  0  0  0  0  0  0  0  0  0  0  0
    2.9839   -0.3083   -3.5659 C   0  0  0  0  0  0  0  0  0  0  0  0
    2.8966    0.2780   -4.4937 H   0  0  0  0  0  0  0  0  0  0  0  0
    2.4142    0.1805   -2.3772 C   0  0  0  0  0  0  0  0  0  0  0  0
    1.8868    1.1460   -2.3877 H   0  0  0  0  0  0  0  0  0  0  0  0
    3.0301    0.5846    1.0244 C   0  0  0  0  0  0  0  0  0  0  0  0
    4.2050    1.1253    0.4706 C   0  0  0  0  0  0  0  0  0  0  0  0
    4.3878    1.0371   -0.6108 H   0  0  0  0  0  0  0  0  0  0  0  0
    5.1509    1.7620    1.2924 C   0  0  0  0  0  0  0  0  0  0  0  0
    6.0690    2.1758    0.8472 H   0  0  0  0  0  0  0  0  0  0  0  0
    4.9342    1.8569    2.6750 C   0  0  0  0  0  0  0  0  0  0  0  0
    5.6772    2.3514    3.3193 H   0  0  0  0  0  0  0  0  0  0  0  0
    3.7690    1.3044    3.2337 C   0  0  0  0  0  0  0  0  0  0  0  0
    3.5980    1.3638    4.3198 H   0  0  0  0  0  0  0  0  0  0  0  0
    2.8249    0.6710    2.4143 C   0  0  0  0  0  0  0  0  0  0  0  0
    1.9174    0.2166    2.8373 H   0  0  0  0  0  0  0  0  0  0  0  0
    0.7971    0.9140   -0.0415 C   0  0  0  0  0  0  0  0  0  0  0  0
    0.7037    2.2902   -0.2769 C   0  0  0  0  0  0  0  0  0  0  0  0
    1.6214    3.3672   -0.4130 C   0  0  0  0  0  0  0  0  0  0  0  0
    2.6941    3.1460   -0.3330 H   0  0  0  0  0  0  0  0  0  0  0  0
    1.1455    4.6472   -0.6156 C   0  0  0  0  0  0  0  0  0  0  0  0
    1.8450    5.4884   -0.7193 H   0  0  0  0  0  0  0  0  0  0  0  0
   -0.2669    4.8865   -0.6718 C   0  0  0  0  0  0  0  0  0  0  0  0
   -0.6558    5.9046   -0.8111 H   0  0  0  0  0  0  0  0  0  0  0  0
   -1.1628    3.8555   -0.5400 C   0  0  0  0  0  0  0  0  0  0  0  0
   -2.2539    3.9717   -0.5544 H   0  0  0  0  0  0  0  0  0  0  0  0
   -1.3809    1.3891   -0.1753 C   0  0  1  0  0  3  0  0  0  0  0  0
   -2.8405    1.2696   -0.1118 C   0  0  0  0  0  0  0  0  0  0  0  0
   -3.6653    1.7429   -1.1559 C   0  0  0  0  0  0  0  0  0  0  0  0
   -3.2117    2.1972   -2.0501 H   0  0  0  0  0  0  0  0  0  0  0  0
   -5.0558    1.5989   -1.0800 C   0  0  0  0  0  0  0  0  0  0  0  0
   -5.6829    1.9627   -1.9089 H   0  0  0  0  0  0  0  0  0  0  0  0
   -5.6672    0.9757    0.0271 C   0  0  0  0  0  0  0  0  0  0  0  0
   -4.8353    0.5124    1.0682 C   0  0  0  0  0  0  0  0  0  0  0  0
   -5.2883    0.0254    1.9458 H   0  0  0  0  0  0  0  0  0  0  0  0
   -3.4469    0.6581    1.0087 C   0  0  0  0  0  0  0  0  0  0  0  0
   -2.8127    0.2867    1.8271 H   0  0  0  0  0  0  0  0  0  0  0  0
   -7.1589    0.7753    0.0853 C   0  0  0  0  0  0  0  0  0  0  0  0
   -7.4239   -0.2674   -0.1928 H   0  0  0  0  0  0  0  0  0  0  0  0
   -7.6926    1.4498   -0.6119 H   0  0  0  0  0  0  0  0  0  0  0  0
   -7.5535    0.9460    1.1069 H   0  0  0  0  0  0  0  0  0  0  0  0
  2 28  1  0  0  0  0
  2 37  1  0  0  0  0
  4  1  1  0  0  0  0
  4 16  1  0  0  0  0
  5  4  1  0  0  0  0
  6  5  1  0  0  0  0
  6  7  1  0  0  0  0
  8  9  1  0  0  0  0
  8  6  2  0  0  0  0
 10 12  2  0  0  0  0
 10  8  1  0  0  0  0
 11 10  1  0  0  0  0
 12 14  1  0  0  0  0
 13 12  1  0  0  0  0
 14  5  2  0  0  0  0
 15 14  1  0  0  0  0
 16 25  1  0  0  0  0
 17 16  2  0  0  0  0
 17 19  1  0  0  0  0
 18 17  1  0  0  0  0
 19 21  2  0  0  0  0
 20 19  1  0  0  0  0
 21 23  1  0  0  0  0
 21 22  1  0  0  0  0
 23 24  1  0  0  0  0
 25 26  1  0  0  0  0
 25 23  2  0  0  0  0
 27  3  1  0  0  0  0
 27  4  1  0  0  0  0
 28 27  2  0  0  0  0
 29 30  1  0  0  0  0
 29 28  1  0  0  0  0
 31 29  2  0  0  0  0
 32 31  1  0  0  0  0
 33 31  1  0  0  0  0
 33 35  2  0  0  0  0
 34 33  1  0  0  0  0
 35  2  1  0  0  0  0
 36 35  1  0  0  0  0
 37 38  1  1  0  0  0
 37  3  1  0  0  0  0
 38 46  1  0  0  0  0
 39 41  1  0  0  0  0
 39 38  2  0  0  0  0
 40 39  1  0  0  0  0
 41 43  2  0  0  0  0
 42 41  1  0  0  0  0
 43 48  1  0  0  0  0
 43 44  1  0  0  0  0
 44 45  1  0  0  0  0
 46 44  2  0  0  0  0
 46 47  1  0  0  0  0
 48 51  1  0  0  0  0
 49 48  1  0  0  0  0
 50 48  1  0  0  0  0
M  END
