2,5
q = -1.0, confidence = 0.0

 36 38  0  0  1  0  0  0  0  0999 V2000
   -0.9952    1.9760   -1.9136 S   0  0  0  0  0  0  0  0  0  0  0  0
   -1.7828   -0.5959    0.0994 O   0  5  0  0  0  0  0  0  0  0  0  0
   -5.5420    1.1280   -0.2080 O   0  0  0  0  0  0  0  0  0  0  0  0
   -4.6877    3.1754   -0.4773 O   0  0  0  0  0  0  0  0  0  0  0  0
   -0.3059    1.4720    1.1771 N   0  0  0  0  0  2  0  0  0  0  0  0
   -2.9188    0.0218   -0.0159 C   0  0  0  0  0  0  0  0  0  0  0  0
    0.4068    3.1429   -1.7629 C   0  0  0  0  0  0  0  0  0  0  0  0
    0.9658    2.8831   -0.8408 H   0  0  0  0  0  0  0  0  0  0  0  0
    1.0660    2.8628   -2.6104 H   0  0  0  0  0  0  0  0  0  0  0  0
   -1.9858    2.3735   -0.4013 C   0  0  2  0  0  0  0  0  0  0  0  0
   -2.4665    3.3560   -0.5681 H   0  0  0  0  0  0  0  0  0  0  0  0
   -1.1730    2.4654    0.8660 C   0  0  1  0  0  3  0  0  0  0  0  0
   -4.4401    1.9887   -0.3296 C   0  0  0  0  0  0  0  0  0  0  0  0
   -3.1171    1.3900   -0.2614 C   0  0  0  0  0  0  0  0  0  0  0  0
   -4.1225   -0.8158    0.1102 C   0  0  0  0  0  0  0  0  0  0  0  0
   -6.4773   -2.3523    0.3164 C   0  0  0  0  0  0  0  0  0  0  0  0
   -7.3976   -2.9505    0.3971 H   0  0  0  0  0  0  0  0  0  0  0  0
    0.4152    1.5308    2.3189 C   0  0  0  0  0  0  0  0  0  0  0  0
    1.0944    0.6851    2.4994 H   0  0  0  0  0  0  0  0  0  0  0  0
    0.2934    2.5915    3.2186 C   0  0  0  0  0  0  0  0  0  0  0  0
    0.9013    2.5986    4.1340 H   0  0  0  0  0  0  0  0  0  0  0  0
   -1.3445    3.5582    1.7361 C   0  0  0  0  0  0  0  0  0  0  0  0
   -2.0674    4.3400    1.4614 H   0  0  0  0  0  0  0  0  0  0  0  0
   -6.5695   -0.9743    0.1017 C   0  0  0  0  0  0  0  0  0  0  0  0
   -7.5376   -0.4620    0.0096 H   0  0  0  0  0  0  0  0  0  0  0  0
    0.0179    4.6143   -1.8202 C   0  0  0  0  0  0  0  0  0  0  0  0
   -0.5469    4.8461   -2.7448 H   0  0  0  0  0  0  0  0  0  0  0  0
    0.9246    5.2543   -1.7945 H   0  0  0  0  0  0  0  0  0  0  0  0
   -0.6133    4.9048   -0.9562 H   0  0  0  0  0  0  0  0  0  0  0  0
   -0.6084    3.6251    2.9235 C   0  0  0  0  0  0  0  0  0  0  0  0
   -0.7331    4.4764    3.6094 H   0  0  0  0  0  0  0  0  0  0  0  0
   -5.2175   -2.9753    0.4291 C   0  0  0  0  0  0  0  0  0  0  0  0
   -5.1513   -4.0603    0.5975 H   0  0  0  0  0  0  0  0  0  0  0  0
   -5.3941   -0.2070   -0.0020 C   0  0  0  0  0  0  0  0  0  0  0  0
   -4.0542   -2.2097    0.3257 C   0  0  0  0  0  0  0  0  0  0  0  0
   -3.0589   -2.6668    0.4095 H   0  0  0  0  0  0  0  0  0  0  0  0
  1  7  1  0  0  0  0
  1 10  1  0  0  0  0
  3 34  1  0  0  0  0
  4 13  2  0  0  0  0
  5 18  1  0  0  0  0
  6  2  1  0  0  0  0
  6 15  1  0  0  0  0
  7  8  1  0  0  0  0
  9  7  1  0  0  0  0
 10 11  1  6  0  0  0
 10 14  1  0  0  0  0
 12 10  1  1  0  0  0
 12  5  1  0  0  0  0
 12 22  1  0  0  0  0
 13 14  1  0  0  0  0
 13  3  1  0  0  0  0
 14  6  2  0  0  0  0
 15 35  1  0  0  0  0
 16 17  1  0  0  0  0
 16 32  1  0  0  0  0
 18 19  1  0  0  0  0
 18 20  2  0  0  0  0
 20 21  1  0  0  0  0
 22 30  2  0  0  0  0
 23 22  1  0  0  0  0
 24 16  2  0  0  0  0
 25 24  1  0  0  0  0
 26 28  1  0  0  0  0
 26  7  1  0  0  0  0
 26 29  1  0  0  0  0
 27 26  1  0  0  0  0
 30 20  1  0  0  0  0
 30 31  1  0  0  0  0
 32 33  1  0  0  0  0
 34 24  1  0  0  0  0
 34 15  2  0  0  0  0
 35 36  1  0  0  0  0
 35 32  2  0  0  0  0
M  CHG  1   2  -1
M  END
