2,5
q = -1.0

 36 38  0  0  1  0  0  0  0  0999 V2000
    0.9950   -1.9758    1.9133 S   0  0  0  0  0  0  0  0  0  0  0  0
    1.7827    0.5957   -0.1001 O   0  5  0  0  0  0  0  0  0  0  0  0
    5.5420   -1.1276    0.2090 O   0  0  0  0  0  0  0  0  0  0  0  0
    4.6879   -3.1751    0.4784 O   0  0  0  0  0  0  0  0  0  0  0  0
    0.3060   -1.4724   -1.1774 N   0  0  0  0  0  2  0  0  0  0  0  0
    2.9188   -0.0219    0.0157 C   0  0  0  0  0  0  0  0  0  0  0  0
   -0.4070   -3.1427    1.7624 C   0  0  0  0  0  0  0  0  0  0  0  0
   -0.9659   -2.8829    0.8402 H   0  0  0  0  0  0  0  0  0  0  0  0
   -1.0664   -2.8627    2.6098 H   0  0  0  0  0  0  0  0  0  0  0  0
    1.9859   -2.3736    0.4012 C   0  0  1  0  0  0  0  0  0  0  0  0
    2.4666   -3.3560    0.5682 H   0  0  0  0  0  0  0  0  0  0  0  0
    1.1733   -2.4656   -0.8662 C   0  0  2  0  0  3  0  0  0  0  0  0
    4.4402   -1.9884    0.3303 C   0  0  0  0  0  0  0  0  0  0  0  0
    3.1171   -1.3899    0.2615 C   0  0  0  0  0  0  0  0  0  0  0  0
    4.1223    0.8160   -0.1101 C   0  0  0  0  0  0  0  0  0  0  0  0
    6.4770    2.3528   -0.3157 C   0  0  0  0  0  0  0  0  0  0  0  0
    7.3973    2.9511   -0.3961 H   0  0  0  0  0  0  0  0  0  0  0  0
   -0.4150   -1.5314   -2.3193 C   0  0  0  0  0  0  0  0  0  0  0  0
   -1.0944   -0.6859   -2.4999 H   0  0  0  0  0  0  0  0  0  0  0  0
   -0.2929   -2.5921   -3.2189 C   0  0  0  0  0  0  0  0  0  0  0  0
   -0.9008   -2.5994   -4.1344 H   0  0  0  0  0  0  0  0  0  0  0  0
    1.3451   -3.5584   -1.7362 C   0  0  0  0  0  0  0  0  0  0  0  0
    2.0680   -4.3400   -1.4614 H   0  0  0  0  0  0  0  0  0  0  0  0
    6.5694    0.9748   -0.1007 C   0  0  0  0  0  0  0  0  0  0  0  0
    7.5375    0.4626   -0.0081 H   0  0  0  0  0  0  0  0  0  0  0  0
   -0.0181   -4.6142    1.8197 C   0  0  0  0  0  0  0  0  0  0  0  0
    0.5465   -4.8460    2.7444 H   0  0  0  0  0  0  0  0  0  0  0  0
   -0.9248   -5.2542    1.7938 H   0  0  0  0  0  0  0  0  0  0  0  0
    0.6132   -4.9046    0.9558 H   0  0  0  0  0  0  0  0  0  0  0  0
    0.6091   -3.6255   -2.9237 C   0  0  0  0  0  0  0  0  0  0  0  0
    0.7340   -4.4769   -3.6095 H   0  0  0  0  0  0  0  0  0  0  0  0
    5.2171    2.9755   -0.4289 C   0  0  0  0  0  0  0  0  0  0  0  0
    5.1509    4.0605   -0.5976 H   0  0  0  0  0  0  0  0  0  0  0  0
    5.3940    0.2073    0.0027 C   0  0  0  0  0  0  0  0  0  0  0  0
    4.0539    2.2098   -0.3258 C   0  0  0  0  0  0  0  0  0  0  0  0
    3.0587    2.6667   -0.4101 H   0  0  0  0  0  0  0  0  0  0  0  0
  2  6  1  0  0  0  0
  3 13  1  0  0  0  0
  5 12  1  0  0  0  0
  6 14  2  0  0  0  0
  7 26  1  0  0  0  0
  7  1  1  0  0  0  0
  7  9  1  0  0  0  0
  8  7  1  0  0  0  0
 10 11  1  1  0  0  0
 10  1  1  0  0  0  0
 12 10  1  6  0  0  0
 13  4  2  0  0  0  0
 14 13  1  0  0  0  0
 14 10  1  0  0  0  0
 15 34  1  0  0  0  0
 15  6  1  0  0  0  0
 16 24  1  0  0  0  0
 17 16  1  0  0  0  0
 18  5  1  0  0  0  0
 19 18  1  0  0  0  0
 20 30  1  0  0  0  0
 20 18  2  0  0  0  0
 21 20  1  0  0  0  0
 22 23  1  0  0  0  0
 22 12  1  0  0  0  0
 24 25  1  0  0  0  0
 24 34  2  0  0  0  0
 26 27  1  0  0  0  0
 28 26  1  0  0  0  0
 29 26  1  0  0  0  0
 30 22  2  0  0  0  0
 31 30  1  0  0  0  0
 32 35  1  0  0  0  0
 32 16  2  0  0  0  0
 33 32  1  0  0  0  0
 34  3  1  0  0  0  0
 35 15  2  0  0  0  0
 36 35  1  0  0  0  0
M  CHG  1   2  -1
M  END
