1,3
q = -1.0

 40 40  0  0  1  0  0  0  0  0999 V2000
    1.6643   -0.8678   -0.0003 O   0  0  0  0  0  1  0  0  0  0  0  0
    2.9004   -0.3730   -0.0001 C   0  0  2  0  0  3  0  0  0  0  0  0
    0.7746    1.7011    0.0001 N   0  0  0  0  0  2  0  0  0  0  0  0
   -0.0628    2.7799    0.0002 O   0  0  0  0  0  0  0  0  0  0  0  0
    3.1270    1.0433   -0.0001 C   0  0  0  0  0  0  0  0  0  0  0  0
    4.4454    1.5596   -0.0001 C   0  0  0  0  0  0  0  0  0  0  0  0
    4.5636    2.6546   -0.0001 H   0  0  0  0  0  0  0  0  0  0  0  0
    5.5650    0.7273    0.0000 C   0  0  0  0  0  0  0  0  0  0  0  0
    5.3162   -0.6633    0.0001 C   0  0  0  0  0  0  0  0  0  0  0  0
    6.1778   -1.3391    0.0001 H   0  0  0  0  0  0  0  0  0  0  0  0
    4.0385   -1.2468   -0.0000 C   0  0  0  0  0  0  0  0  0  0  0  0
    2.0489    1.9949   -0.0002 C   0  0  0  0  0  0  0  0  0  0  0  0
    2.2941    3.0712   -0.0003 H   0  0  0  0  0  0  0  0  0  0  0  0
    6.9840    1.3244    0.0001 C   0  0  0  0  0  0  0  0  0  0  0  0
    8.0704    0.2349    0.0003 C   0  0  0  0  0  0  0  0  0  0  0  0
    9.0740    0.7056    0.0003 H   0  0  0  0  0  0  0  0  0  0  0  0
    8.0064   -0.4127   -0.8974 H   0  0  0  0  0  0  0  0  0  0  0  0
    8.0062   -0.4125    0.8981 H   0  0  0  0  0  0  0  0  0  0  0  0
    7.1704    2.1973    1.2617 C   0  0  0  0  0  0  0  0  0  0  0  0
    7.0420    1.5935    2.1828 H   0  0  0  0  0  0  0  0  0  0  0  0
    6.4368    3.0272    1.2989 H   0  0  0  0  0  0  0  0  0  0  0  0
    8.1859    2.6451    1.2805 H   0  0  0  0  0  0  0  0  0  0  0  0
    7.1706    2.1969   -1.2619 C   0  0  0  0  0  0  0  0  0  0  0  0
    8.1860    2.6447   -1.2806 H   0  0  0  0  0  0  0  0  0  0  0  0
    6.4369    3.0268   -1.2994 H   0  0  0  0  0  0  0  0  0  0  0  0
    7.0423    1.5929   -2.1828 H   0  0  0  0  0  0  0  0  0  0  0  0
    3.8770   -2.7794   -0.0000 C   0  0  0  0  0  0  0  0  0  0  0  0
    3.1351   -3.2258    1.2842 C   0  0  0  0  0  0  0  0  0  0  0  0
    3.7533   -2.9989    2.1761 H   0  0  0  0  0  0  0  0  0  0  0  0
    2.9511   -4.3198    1.2643 H   0  0  0  0  0  0  0  0  0  0  0  0
    2.1636   -2.7196    1.4256 H   0  0  0  0  0  0  0  0  0  0  0  0
    3.1353   -3.2258   -1.2843 C   0  0  0  0  0  0  0  0  0  0  0  0
    2.1637   -2.7197   -1.4258 H   0  0  0  0  0  0  0  0  0  0  0  0
    2.9513   -4.3198   -1.2644 H   0  0  0  0  0  0  0  0  0  0  0  0
    3.7534   -2.9988   -2.1761 H   0  0  0  0  0  0  0  0  0  0  0  0
    5.2348   -3.5091    0.0000 C   0  0  0  0  0  0  0  0  0  0  0  0
    5.8381   -3.2701   -0.8987 H   0  0  0  0  0  0  0  0  0  0  0  0
    5.0594   -4.6036    0.0001 H   0  0  0  0  0  0  0  0  0  0  0  0
    5.8381   -3.2700    0.8988 H   0  0  0  0  0  0  0  0  0  0  0  0
   -0.9616    2.3164    0.0002 H   0  0  0  0  0  0  0  0  0  0  0  0
  2  1  1  6  0  0  0
  2 11  1  0  0  0  0
  3  4  1  0  0  0  0
  4 40  1  0  0  0  0
  5  2  1  0  0  0  0
  5  6  1  0  0  0  0
  6  8  2  0  0  0  0
  7  6  1  0  0  0  0
  8 14  1  0  0  0  0
  8  9  1  0  0  0  0
  9 10  1  0  0  0  0
 11 27  1  0  0  0  0
 11  9  2  0  0  0  0
 12  5  2  0  0  0  0
 12  3  1  0  0  0  0
 13 12  1  0  0  0  0
 14 15  1  0  0  0  0
 14 19  1  0  0  0  0
 15 16  1  0  0  0  0
 15 18  1  0  0  0  0
 17 15  1  0  0  0  0
 19 22  1  0  0  0  0
 19 21  1  0  0  0  0
 19 20  1  0  0  0  0
 23 14  1  0  0  0  0
 24 23  1  0  0  0  0
 25 23  1  0  0  0  0
 26 23  1  0  0  0  0
 27 36  1  0  0  0  0
 27 28  1  0  0  0  0
 28 31  1  0  0  0  0
 28 29  1  0  0  0  0
 30 28  1  0  0  0  0
 32 34  1  0  0  0  0
 32 27  1  0  0  0  0
 33 32  1  0  0  0  0
 35 32  1  0  0  0  0
 36 38  1  0  0  0  0
 36 39  1  0  0  0  0
 37 36  1  0  0  0  0
M  END
