1,3
q = -1.0

 14 14  0  0  1  0  0  0  0  0999 V2000
    0.4829    2.0978    0.0003 O   0  5  0  0  0  0  0  0  0  0  0  0
   -0.8004    1.8531    0.0003 C   0  0  0  0  0  0  0  0  0  0  0  0
   -1.0101    0.4962    0.0001 N   0  0  0  0  0  2  0  0  0  0  0  0
   -2.2611   -0.0177   -0.0000 C   0  0  2  0  0  3  0  0  0  0  0  0
   -2.3365   -1.7656   -0.0003 S   0  0  0  0  0  0  0  0  0  0  0  0
   -4.1249   -2.0882   -0.0004 C   0  0  0  0  0  0  0  0  0  0  0  0
   -3.3341    0.8956    0.0001 C   0  0  0  0  0  0  0  0  0  0  0  0
   -3.0140    2.2684    0.0003 C   0  0  0  0  0  0  0  0  0  0  0  0
   -1.7672    2.7671    0.0004 N   0  0  0  0  0  0  0  0  0  0  0  0
   -4.2188   -3.1903   -0.0006 H   0  0  0  0  0  0  0  0  0  0  0  0
   -4.6041   -1.6856   -0.9128 H   0  0  0  0  0  0  0  0  0  0  0  0
   -4.6041   -1.6860    0.9123 H   0  0  0  0  0  0  0  0  0  0  0  0
   -4.3794    0.5663    0.0000 H   0  0  0  0  0  0  0  0  0  0  0  0
   -3.8330    3.0093    0.0004 H   0  0  0  0  0  0  0  0  0  0  0  0
  2  1  1  0  0  0  0
  2  9  2  0  0  0  0
  3  2  1  0  0  0  0
  4  5  1  6  0  0  0
  4  7  1  0  0  0  0
  4  3  1  0  0  0  0
  6  5  1  0  0  0  0
  6 12  1  0  0  0  0
  7  8  2  0  0  0  0
  8 14  1  0  0  0  0
  8  9  1  0  0  0  0
 10  6  1  0  0  0  0
 11  6  1  0  0  0  0
 13  7  1  0  0  0  0
M  CHG  1   1  -1
M  END
