1,3
q = -1.0, confidence = 0.016

 33 35  0  0  1  0  0  0  0  0999 V2000
    0.0304    1.9761    1.4055 O   0  5  0  0  0  0  0  0  0  0  0  0
   -2.5100    1.0171   -1.8054 O   0  0  0  0  0  0  0  0  0  0  0  0
   -1.5153    0.1688    0.0347 N   0  0  0  0  0  2  0  0  0  0  0  0
   -0.2972    2.8764    0.5007 C   0  0  0  0  0  0  0  0  0  0  0  0
    0.1990    4.2001    0.6062 C   0  0  0  0  0  0  0  0  0  0  0  0
   -0.1235    5.1595   -0.3549 C   0  0  0  0  0  0  0  0  0  0  0  0
   -0.9531    4.8359   -1.4489 C   0  0  0  0  0  0  0  0  0  0  0  0
   -1.4585    3.5412   -1.5666 C   0  0  0  0  0  0  0  0  0  0  0  0
   -1.1421    2.5473   -0.6075 C   0  0  0  0  0  0  0  0  0  0  0  0
   -1.6972    1.2063   -0.7423 C   0  0  2  0  0  3  0  0  0  0  0  0
   -2.2901   -0.9666   -0.5213 C   0  0  2  0  0  0  0  0  0  0  0  0
   -3.0836   -0.3139   -1.7129 C   0  0  1  0  0  0  0  0  0  0  0  0
   -4.5815   -0.2200   -1.5439 C   0  0  0  0  0  0  0  0  0  0  0  0
   -5.4076   -1.2117   -2.1043 C   0  0  0  0  0  0  0  0  0  0  0  0
   -6.7958   -1.1794   -1.9056 C   0  0  0  0  0  0  0  0  0  0  0  0
   -7.3724   -0.1465   -1.1504 C   0  0  0  0  0  0  0  0  0  0  0  0
   -6.5549    0.8532   -0.5988 C   0  0  0  0  0  0  0  0  0  0  0  0
   -5.1668    0.8176   -0.7930 C   0  0  0  0  0  0  0  0  0  0  0  0
   -3.1472   -1.6866    0.5137 C   0  0  0  0  0  0  0  0  0  0  0  0
    0.8396    4.4371    1.4675 H   0  0  0  0  0  0  0  0  0  0  0  0
    0.2751    6.1808   -0.2530 H   0  0  0  0  0  0  0  0  0  0  0  0
   -1.2051    5.5977   -2.2006 H   0  0  0  0  0  0  0  0  0  0  0  0
   -2.1143    3.2685   -2.4049 H   0  0  0  0  0  0  0  0  0  0  0  0
   -1.5594   -1.6920   -0.9404 H   0  0  0  0  0  0  0  0  0  0  0  0
   -2.8529   -0.8334   -2.6642 H   0  0  0  0  0  0  0  0  0  0  0  0
   -4.9574   -2.0186   -2.7050 H   0  0  0  0  0  0  0  0  0  0  0  0
   -7.4310   -1.9607   -2.3495 H   0  0  0  0  0  0  0  0  0  0  0  0
   -8.4616   -0.1167   -0.9962 H   0  0  0  0  0  0  0  0  0  0  0  0
   -7.0017    1.6689   -0.0106 H   0  0  0  0  0  0  0  0  0  0  0  0
   -4.5325    1.6077   -0.3641 H   0  0  0  0  0  0  0  0  0  0  0  0
   -2.5054   -2.1380    1.2914 H   0  0  0  0  0  0  0  0  0  0  0  0
   -3.7308   -2.4902    0.0232 H   0  0  0  0  0  0  0  0  0  0  0  0
   -3.8537   -0.9929    1.0056 H   0  0  0  0  0  0  0  0  0  0  0  0
  2 12  1  0  0  0  0
  2 10  1  0  0  0  0
  4  5  1  0  0  0  0
  4  1  1  0  0  0  0
  5 20  1  0  0  0  0
  6 21  1  0  0  0  0
  6  5  2  0  0  0  0
  7  6  1  0  0  0  0
  8  7  2  0  0  0  0
  8  9  1  0  0  0  0
  9  4  2  0  0  0  0
 10  9  1  1  0  0  0
 10  3  1  0  0  0  0
 11 24  1  6  0  0  0
 11  3  1  0  0  0  0
 11 19  1  0  0  0  0
 12 25  1  6  0  0  0
 12 13  1  0  0  0  0
 12 11  1  0  0  0  0
 13 18  1  0  0  0  0
 14 15  1  0  0  0  0
 14 13  2  0  0  0  0
 15 16  2  0  0  0  0
 16 28  1  0  0  0  0
 16 17  1  0  0  0  0
 17 29  1  0  0  0  0
 18 17  2  0  0  0  0
 18 30  1  0  0  0  0
 19 33  1  0  0  0  0
 19 31  1  0  0  0  0
 22  7  1  0  0  0  0
 23  8  1  0  0  0  0
 26 14  1  0  0  0  0
 27 15  1  0  0  0  0
 32 19  1  0  0  0  0
M  CHG  1   1  -1
M  END
