1,5
q = -1.0

 16 17  0  0  1  0  0  0  0  0999 V2000
    1.4554   -1.5222    0.0114 O   0  5  0  0  0  0  0  0  0  0  0  0
    5.2218    0.1750   -0.0311 N   0  0  0  0  0  0  0  0  0  0  0  0
    6.0312   -1.9697   -0.1682 N   0  0  0  0  0  0  0  0  0  0  0  0
    3.7461   -1.7865   -0.0803 N   0  0  0  0  0  0  0  0  0  0  0  0
    1.7254    1.2079    0.1232 N   0  0  0  0  0  2  0  0  0  0  0  0
    4.3052    2.3351    0.1126 N   0  0  0  0  0  0  0  0  0  0  0  0
    4.9544   -1.1472   -0.0898 C   0  0  1  0  0  3  0  0  0  0  0  0
    2.6494   -1.0319   -0.0161 C   0  0  0  0  0  0  0  0  0  0  0  0
    1.8878    2.5356    0.1937 C   0  0  0  0  0  3  0  0  0  0  0  0
    3.2022    3.0710    0.1878 C   0  0  0  0  0  0  0  0  0  0  0  0
    4.1458    0.9751    0.0437 C   0  0  0  0  0  0  0  0  0  0  0  0
    2.8187    0.4283    0.0502 C   0  0  2  0  0  3  0  0  0  0  0  0
    0.9814    3.1576    0.2582 H   0  0  0  0  0  0  0  0  0  0  0  0
    3.3332    4.1675    0.2472 H   0  0  0  0  0  0  0  0  0  0  0  0
    5.8829   -2.9749   -0.2146 H   0  0  0  0  0  0  0  0  0  0  0  0
    6.9640   -1.5635   -0.1779 H   0  0  0  0  0  0  0  0  0  0  0  0
  2 11  2  0  0  0  0
  4  8  2  0  0  0  0
  5  9  1  0  0  0  0
  6 10  2  0  0  0  0
  7  3  1  1  0  0  0
  7  4  1  0  0  0  0
  7  2  1  0  0  0  0
  8  1  1  0  0  0  0
  9 13  1  0  0  0  0
 10  9  1  0  0  0  0
 10 14  1  0  0  0  0
 11 12  1  0  0  0  0
 11  6  1  0  0  0  0
 12  8  1  1  0  0  0
 12  5  1  0  0  0  0
 15  3  1  0  0  0  0
 16  3  1  0  0  0  0
M  CHG  1   1  -1
M  END
