1,2
q = -1.0, confidence = 0.014

 16 17  0  0  1  0  0  0  0  0999 V2000
   -1.4532    1.5207   -0.0105 O   0  5  0  0  0  0  0  0  0  0  0  0
   -1.7270   -1.2091   -0.1197 N   0  0  0  0  0  2  0  0  0  0  0  0
   -2.6480    1.0323    0.0154 C   0  0  0  0  0  0  0  0  0  0  0  0
   -1.8912   -2.5367   -0.1893 C   0  0  0  0  0  0  0  0  0  0  0  0
   -2.8192   -0.4278   -0.0495 C   0  0  1  0  0  3  0  0  0  0  0  0
   -3.7437    1.7885    0.0768 N   0  0  0  0  0  0  0  0  0  0  0  0
   -3.2063   -3.0701   -0.1853 C   0  0  0  0  0  0  0  0  0  0  0  0
   -0.9857   -3.1601   -0.2517 H   0  0  0  0  0  0  0  0  0  0  0  0
   -4.1471   -0.9727   -0.0450 C   0  0  0  0  0  0  0  0  0  0  0  0
   -4.9529    1.1509    0.0847 C   0  0  0  0  0  0  0  0  0  0  0  0
   -4.3084   -2.3325   -0.1130 N   0  0  0  0  0  0  0  0  0  0  0  0
   -3.3388   -4.1665   -0.2440 H   0  0  0  0  0  0  0  0  0  0  0  0
   -5.2221   -0.1709    0.0269 N   0  0  0  0  0  0  0  0  0  0  0  0
   -6.0287    1.9751    0.1604 N   0  0  0  0  0  0  0  0  0  0  0  0
   -5.8790    2.9801    0.2063 H   0  0  0  0  0  0  0  0  0  0  0  0
   -6.9621    1.5701    0.1691 H   0  0  0  0  0  0  0  0  0  0  0  0
  1  3  1  0  0  0  0
  3  6  2  0  0  0  0
  4  7  2  0  0  0  0
  4  2  1  0  0  0  0
  5  2  1  6  0  0  0
  5  9  1  0  0  0  0
  5  3  1  0  0  0  0
  6 10  1  0  0  0  0
  7 11  1  0  0  0  0
  8  4  1  0  0  0  0
  9 13  1  0  0  0  0
 10 14  1  0  0  0  0
 11  9  2  0  0  0  0
 12  7  1  0  0  0  0
 13 10  2  0  0  0  0
 14 16  1  0  0  0  0
 14 15  1  0  0  0  0
M  CHG  1   1  -1
M  END
