2,3
q = -1.0, confidence = 0.004

 37 39  0  0  1  0  0  0  0  0999 V2000
    5.8880   -2.0388   -0.8953 Br  0  0  0  0  0  0  0  0  0  0  0  0
   -0.5485   -0.1675    0.7785 N   0  0  0  0  0  2  0  0  0  0  0  0
   -2.5179    1.5550   -0.4405 O   0  5  0  0  0  0  0  0  0  0  0  0
   -1.5956    2.4613   -0.3533 C   0  0  0  0  0  0  0  0  0  0  0  0
   -0.2718    2.2350    0.1575 C   0  0  0  0  0  0  0  0  0  0  0  0
    0.7024    3.3271    0.1494 C   0  0  0  0  0  0  0  0  0  0  0  0
    2.0605    3.1804    0.5520 C   0  0  0  0  0  0  0  0  0  0  0  0
    2.4455    2.2006    0.8675 H   0  0  0  0  0  0  0  0  0  0  0  0
    2.9495    4.2525    0.5379 C   0  0  0  0  0  0  0  0  0  0  0  0
    3.9915    4.0917    0.8542 H   0  0  0  0  0  0  0  0  0  0  0  0
    2.5320    5.5342    0.1137 C   0  0  0  0  0  0  0  0  0  0  0  0
    3.2403    6.3759    0.1057 H   0  0  0  0  0  0  0  0  0  0  0  0
    1.2184    5.7101   -0.3037 C   0  0  0  0  0  3  0  0  0  0  0  0
    0.8695    6.6953   -0.6517 H   0  0  0  0  0  0  0  0  0  0  0  0
    0.2945    4.6314   -0.3008 C   0  0  0  0  0  0  0  0  0  0  0  0
   -1.0517    4.8215   -0.7585 C   0  0  0  0  0  0  0  0  0  0  0  0
   -1.3496    5.8267   -1.0979 H   0  0  0  0  0  0  0  0  0  0  0  0
   -1.9531    3.7886   -0.7937 C   0  0  0  0  0  0  0  0  0  0  0  0
   -2.9820    3.9252   -1.1566 H   0  0  0  0  0  0  0  0  0  0  0  0
    0.1100    0.9775    0.7065 C   0  0  0  0  0  0  0  0  0  0  0  0
    1.1233    0.9573    1.1445 H   0  0  0  0  0  0  0  0  0  0  0  0
    0.1832   -1.2327    1.5238 C   0  0  2  0  0  0  0  0  0  0  0  0
   -0.3521   -2.1785    1.3144 H   0  0  0  0  0  0  0  0  0  0  0  0
    0.0938   -0.9787    3.0299 C   0  0  0  0  0  0  0  0  0  0  0  0
   -0.9660   -0.8417    3.3201 H   0  0  0  0  0  0  0  0  0  0  0  0
    0.6393   -0.0578    3.3199 H   0  0  0  0  0  0  0  0  0  0  0  0
    0.5075   -1.8288    3.6076 H   0  0  0  0  0  0  0  0  0  0  0  0
    1.5957   -1.4250    0.9791 C   0  0  0  0  0  0  0  0  0  0  0  0
    2.7484   -1.3648    1.7827 C   0  0  0  0  0  0  0  0  0  0  0  0
    2.6632   -1.1722    2.8616 H   0  0  0  0  0  0  0  0  0  0  0  0
    4.0292   -1.5476    1.2340 C   0  0  0  0  0  0  0  0  0  0  0  0
    4.9223   -1.4964    1.8725 H   0  0  0  0  0  0  0  0  0  0  0  0
    4.1585   -1.7948   -0.1390 C   0  0  0  0  0  0  0  0  0  0  0  0
    3.0232   -1.8622   -0.9656 C   0  0  0  0  0  0  0  0  0  0  0  0
    3.1351   -2.0546   -2.0419 H   0  0  0  0  0  0  0  0  0  0  0  0
    1.7569   -1.6772   -0.4011 C   0  0  0  0  0  0  0  0  0  0  0  0
    0.8665   -1.7070   -1.0489 H   0  0  0  0  0  0  0  0  0  0  0  0
  1 33  1  0  0  0  0
  2 22  1  0  0  0  0
  3  4  1  0  0  0  0
  4  5  1  0  0  0  0
  5 20  2  0  0  0  0
  6  5  1  0  0  0  0
  6  7  2  0  0  0  0
  7  8  1  0  0  0  0
  9  7  1  0  0  0  0
  9 10  1  0  0  0  0
 11  9  2  0  0  0  0
 12 11  1  0  0  0  0
 13 15  1  0  0  0  0
 13 11  1  0  0  0  0
 14 13  1  0  0  0  0
 15  6  1  0  0  0  0
 16 15  2  0  0  0  0
 17 16  1  0  0  0  0
 18 16  1  0  0  0  0
 18  4  2  0  0  0  0
 19 18  1  0  0  0  0
 20  2  1  0  0  0  0
 20 21  1  0  0  0  0
 22 23  1  6  0  0  0
 22 24  1  0  0  0  0
 24 26  1  0  0  0  0
 24 25  1  0  0  0  0
 24 27  1  0  0  0  0
 28 22  1  0  0  0  0
 28 29  1  0  0  0  0
 29 30  1  0  0  0  0
 31 29  2  0  0  0  0
 31 32  1  0  0  0  0
 33 31  1  0  0  0  0
 34 36  1  0  0  0  0
 34 33  2  0  0  0  0
 35 34  1  0  0  0  0
 36 28  2  0  0  0  0
 37 36  1  0  0  0  0
M  CHG  1   3  -1
M  END
