1,3
q = -1.0

 25 25  0  0  0  0  0  0  0  0999 V2000
    1.9197   -0.2448    0.2067 O   0  5  0  0  0  0  0  0  0  0  0  0
    4.4253   -0.9325    0.3742 O   0  0  0  0  0  0  0  0  0  0  0  0
   -0.0259    1.7713   -0.4537 N   0  0  0  0  0  2  0  0  0  0  0  0
    2.4306    2.0378   -0.4374 C   0  0  0  0  0  0  0  0  0  0  0  0
    2.7729    0.6894   -0.0615 C   0  0  0  0  0  0  0  0  0  0  0  0
    4.1841    0.3632    0.0283 C   0  0  0  0  0  0  0  0  0  0  0  0
    5.1620    1.3245   -0.2234 C   0  0  0  0  0  0  0  0  0  0  0  0
    6.2266    1.0627   -0.1507 H   0  0  0  0  0  0  0  0  0  0  0  0
    4.7991    2.6498   -0.5800 C   0  0  0  0  0  0  0  0  0  0  0  0
    5.5864    3.3923   -0.7748 H   0  0  0  0  0  0  0  0  0  0  0  0
    3.4621    2.9947   -0.6838 C   0  0  0  0  0  0  0  0  0  0  0  0
    3.1703    4.0190   -0.9654 H   0  0  0  0  0  0  0  0  0  0  0  0
    1.0667    2.4763   -0.5790 C   0  0  0  0  0  3  0  0  0  0  0  0
    0.9479    3.5546   -0.8318 H   0  0  0  0  0  0  0  0  0  0  0  0
    5.7737   -1.3606    0.4953 C   0  0  0  0  0  0  0  0  0  0  0  0
    6.3012   -0.7478    1.2647 H   0  0  0  0  0  0  0  0  0  0  0  0
    6.3133   -1.2051   -0.4696 H   0  0  0  0  0  0  0  0  0  0  0  0
    5.7674   -2.8277    0.8824 C   0  0  0  0  0  0  0  0  0  0  0  0
    6.8042   -3.2024    0.9925 H   0  0  0  0  0  0  0  0  0  0  0  0
    5.2562   -3.4344    0.1088 H   0  0  0  0  0  0  0  0  0  0  0  0
    5.2369   -2.9756    1.8438 H   0  0  0  0  0  0  0  0  0  0  0  0
   -1.3124    2.4226   -0.6331 C   0  0  0  0  0  0  0  0  0  0  0  0
   -1.9672    2.2063    0.2338 H   0  0  0  0  0  0  0  0  0  0  0  0
   -1.8305    2.0001   -1.5209 H   0  0  0  0  0  0  0  0  0  0  0  0
   -1.2056    3.5214   -0.7751 H   0  0  0  0  0  0  0  0  0  0  0  0
  2 15  1  0  0  0  0
  4  5  1  0  0  0  0
  5  6  2  0  0  0  0
  5  1  1  0  0  0  0
  6  2  1  0  0  0  0
  7  8  1  0  0  0  0
  7  6  1  0  0  0  0
  9  7  2  0  0  0  0
 10  9  1  0  0  0  0
 11  9  1  0  0  0  0
 11  4  2  0  0  0  0
 12 11  1  0  0  0  0
 13  3  1  0  0  0  0
 13  4  1  0  0  0  0
 14 13  1  0  0  0  0
 15 18  1  0  0  0  0
 15 16  1  0  0  0  0
 17 15  1  0  0  0  0
 18 19  1  0  0  0  0
 18 21  1  0  0  0  0
 20 18  1  0  0  0  0
 22  3  1  0  0  0  0
 22 23  1  0  0  0  0
 24 22  1  0  0  0  0
 25 22  1  0  0  0  0
M  CHG  1   1  -1
M  END
