1,23
q = -1.0, confidence = 0.0

 27 27  0  0  0  0  0  0  0  0999 V2000
    1.5860    0.9462    0.4981 N   0  0  0  0  0  2  0  0  0  0  0  0
    4.9916   -2.4508    0.4357 O   0  0  0  0  0  0  0  0  0  0  0  0
    1.4934    2.3415    0.9273 C   0  0  0  0  0  0  0  0  0  0  0  0
    2.4944    2.7241    1.2139 H   0  0  0  0  0  0  0  0  0  0  0  0
    1.0771    2.9702    0.1174 H   0  0  0  0  0  0  0  0  0  0  0  0
    0.8058    2.4384    1.7896 H   0  0  0  0  0  0  0  0  0  0  0  0
    2.7925    0.4202    0.4832 C   0  0  0  0  0  3  0  0  0  0  0  0
    3.6170    1.0886    0.7953 H   0  0  0  0  0  0  0  0  0  0  0  0
    3.1764   -0.9171    0.1649 C   0  0  0  0  0  0  0  0  0  0  0  0
    4.6082   -1.2924    0.2282 C   0  0  0  0  0  0  0  0  0  0  0  0
    5.6560   -0.2223    0.0156 C   0  0  0  0  0  0  0  0  0  0  0  0
    5.5073    0.8257   -0.9180 C   0  0  0  0  0  0  0  0  0  0  0  0
    4.5751    0.9124   -1.4971 H   0  0  0  0  0  0  0  0  0  0  0  0
    6.5533    1.7346   -1.1390 C   0  0  0  0  0  0  0  0  0  0  0  0
    6.4325    2.5386   -1.8811 H   0  0  0  0  0  0  0  0  0  0  0  0
    7.7536    1.6139   -0.4212 C   0  0  0  0  0  0  0  0  0  0  0  0
    8.5704    2.3325   -0.5885 H   0  0  0  0  0  0  0  0  0  0  0  0
    7.9146    0.5658    0.5020 C   0  0  0  0  0  0  0  0  0  0  0  0
    8.8584    0.4634    1.0592 H   0  0  0  0  0  0  0  0  0  0  0  0
    6.8791   -0.3539    0.7060 C   0  0  0  0  0  0  0  0  0  0  0  0
    6.9945   -1.2011    1.3983 H   0  0  0  0  0  0  0  0  0  0  0  0
    2.1747   -1.8898   -0.0988 C   0  0  0  0  0  0  0  0  0  0  0  0
    0.9236   -1.6010   -0.1644 O   0  5  0  0  0  0  0  0  0  0  0  0
    2.4859   -3.3454   -0.3291 C   0  0  0  0  0  0  0  0  0  0  0  0
    1.5751   -3.8588   -0.6879 H   0  0  0  0  0  0  0  0  0  0  0  0
    2.8440   -3.8091    0.6109 H   0  0  0  0  0  0  0  0  0  0  0  0
    3.3195   -3.4718   -1.0458 H   0  0  0  0  0  0  0  0  0  0  0  0
  1  3  1  0  0  0  0
  3  4  1  0  0  0  0
  3  6  1  0  0  0  0
  5  3  1  0  0  0  0
  7  1  1  0  0  0  0
  7  8  1  0  0  0  0
  9 10  1  0  0  0  0
  9  7  1  0  0  0  0
 10  2  2  0  0  0  0
 11 10  1  0  0  0  0
 11 20  1  0  0  0  0
 12 11  2  0  0  0  0
 13 12  1  0  0  0  0
 14 12  1  0  0  0  0
 14 16  2  0  0  0  0
 15 14  1  0  0  0  0
 16 18  1  0  0  0  0
 17 16  1  0  0  0  0
 18 20  2  0  0  0  0
 18 19  1  0  0  0  0
 20 21  1  0  0  0  0
 22  9  2  0  0  0  0
 23 22  1  0  0  0  0
 24 22  1  0  0  0  0
 24 26  1  0  0  0  0
 25 24  1  0  0  0  0
 27 24  1  0  0  0  0
M  CHG  1  23  -1
M  END
