1,2
q = -1.0

 29 30  0  0  0  0  0  0  0  0999 V2000
    0.4455    2.0816   -0.5829 O   0  5  0  0  0  0  0  0  0  0  0  0
    2.4209    0.3390   -0.6229 N   0  0  0  0  0  2  0  0  0  0  0  0
    3.5813   -1.7358   -0.8224 N   0  0  0  0  0  0  0  0  0  0  0  0
    3.9433   -0.5523    1.0242 N   0  0  0  0  0  0  0  0  0  0  0  0
    1.6667    2.6008   -0.5750 C   0  0  0  0  0  0  0  0  0  0  0  0
    1.9151    3.9935   -0.5636 C   0  0  0  0  0  0  0  0  0  0  0  0
    1.0492    4.6726   -0.5536 H   0  0  0  0  0  0  0  0  0  0  0  0
    3.2312    4.4819   -0.5747 C   0  0  0  0  0  0  0  0  0  0  0  0
    3.4063    5.5692   -0.5692 H   0  0  0  0  0  0  0  0  0  0  0  0
    4.3238    3.5973   -0.6034 C   0  0  0  0  0  0  0  0  0  0  0  0
    5.3538    3.9837   -0.6293 H   0  0  0  0  0  0  0  0  0  0  0  0
    4.0970    2.2087   -0.6160 C   0  0  0  0  0  0  0  0  0  0  0  0
    4.9472    1.5086   -0.6656 H   0  0  0  0  0  0  0  0  0  0  0  0
    2.7826    1.7096   -0.5758 C   0  0  0  0  0  0  0  0  0  0  0  0
    3.2707   -0.5828   -0.1693 C   0  0  0  0  0  3  0  0  0  0  0  0
    4.3494   -2.6313    0.0310 C   0  0  0  0  0  0  0  0  0  0  0  0
    5.1697   -3.1110   -0.5395 H   0  0  0  0  0  0  0  0  0  0  0  0
    3.6902   -3.4312    0.4413 H   0  0  0  0  0  0  0  0  0  0  0  0
    4.8670   -1.6751    1.1287 C   0  0  0  0  0  0  0  0  0  0  0  0
    4.8226   -2.1258    2.1407 H   0  0  0  0  0  0  0  0  0  0  0  0
    5.9193   -1.3537    0.9437 H   0  0  0  0  0  0  0  0  0  0  0  0
    3.1265   -2.0984   -2.1402 C   0  0  0  0  0  0  0  0  0  0  0  0
    2.5621   -1.2407   -2.5505 H   0  0  0  0  0  0  0  0  0  0  0  0
    2.4475   -2.9748   -2.1029 H   0  0  0  0  0  0  0  0  0  0  0  0
    3.9921   -2.3290   -2.7988 H   0  0  0  0  0  0  0  0  0  0  0  0
    3.7327    0.4257    2.0631 C   0  0  0  0  0  0  0  0  0  0  0  0
    2.7127    0.8445    1.9600 H   0  0  0  0  0  0  0  0  0  0  0  0
    4.4520    1.2722    2.0073 H   0  0  0  0  0  0  0  0  0  0  0  0
    3.8194   -0.0671    3.0529 H   0  0  0  0  0  0  0  0  0  0  0  0
  1  5  1  0  0  0  0
  2 14  1  0  0  0  0
  2 15  1  0  0  0  0
  3 15  1  0  0  0  0
  3 16  1  0  0  0  0
  4 19  1  0  0  0  0
  4 26  1  0  0  0  0
  5  6  1  0  0  0  0
  6  7  1  0  0  0  0
  8  9  1  0  0  0  0
  8  6  2  0  0  0  0
 10  8  1  0  0  0  0
 11 10  1  0  0  0  0
 12 10  2  0  0  0  0
 12 14  1  0  0  0  0
 13 12  1  0  0  0  0
 14  5  2  0  0  0  0
 15  4  1  0  0  0  0
 16 18  1  0  0  0  0
 16 19  1  0  0  0  0
 17 16  1  0  0  0  0
 19 20  1  0  0  0  0
 21 19  1  0  0  0  0
 22 24  1  0  0  0  0
 22  3  1  0  0  0  0
 23 22  1  0  0  0  0
 25 22  1  0  0  0  0
 26 29  1  0  0  0  0
 27 26  1  0  0  0  0
 28 26  1  0  0  0  0
M  CHG  1   1  -1
M  END
