1,2
q = -1.0

 35 37  0  0  0  0  0  0  0  0999 V2000
   -1.5022    1.1075    0.2290 O   0  5  0  0  0  0  0  0  0  0  0  0
   -0.8764   -1.4503   -1.3108 N   0  0  0  0  0  2  0  0  0  0  0  0
   -3.7362    1.6598   -0.2925 N   0  0  0  0  0  0  0  0  0  0  0  0
    1.8240   -1.4237   -1.6922 F   0  0  0  0  0  0  0  0  0  0  0  0
   -4.7743    1.1600   -1.0638 N   0  0  0  0  0  0  0  0  0  0  0  0
   -2.9550   -0.2009   -1.2819 C   0  0  0  0  0  0  0  0  0  0  0  0
   -2.5990    0.8725   -0.3815 C   0  0  0  0  0  0  0  0  0  0  0  0
   -2.1426   -1.2767   -1.6766 C   0  0  0  0  0  3  0  0  0  0  0  0
   -2.5972   -2.0301   -2.3523 H   0  0  0  0  0  0  0  0  0  0  0  0
   -4.3248    0.0681   -1.6513 C   0  0  0  0  0  0  0  0  0  0  0  0
   -0.2078   -2.6490   -1.5995 C   0  0  0  0  0  0  0  0  0  0  0  0
   -3.9488    2.8461    0.4566 C   0  0  0  0  0  0  0  0  0  0  0  0
    1.1986   -2.6204   -1.7595 C   0  0  0  0  0  0  0  0  0  0  0  0
   -2.9107    3.4446    1.2035 C   0  0  0  0  0  0  0  0  0  0  0  0
   -1.9148    2.9884    1.2112 H   0  0  0  0  0  0  0  0  0  0  0  0
   -5.1966   -0.7282   -2.5673 C   0  0  0  0  0  0  0  0  0  0  0  0
   -6.1948   -0.2567   -2.6298 H   0  0  0  0  0  0  0  0  0  0  0  0
   -5.3221   -1.7706   -2.2065 H   0  0  0  0  0  0  0  0  0  0  0  0
   -4.7687   -0.7836   -3.5900 H   0  0  0  0  0  0  0  0  0  0  0  0
   -5.2329    3.4319    0.4416 C   0  0  0  0  0  0  0  0  0  0  0  0
   -6.0206    2.9493   -0.1500 H   0  0  0  0  0  0  0  0  0  0  0  0
   -0.8349   -3.9146   -1.6528 C   0  0  0  0  0  0  0  0  0  0  0  0
   -1.9155   -3.9803   -1.4604 H   0  0  0  0  0  0  0  0  0  0  0  0
    1.3013   -5.0151   -2.0422 C   0  0  0  0  0  0  0  0  0  0  0  0
    1.8872   -5.9304   -2.2106 H   0  0  0  0  0  0  0  0  0  0  0  0
    1.9524   -3.7723   -1.9784 C   0  0  0  0  0  0  0  0  0  0  0  0
    3.0406   -3.6750   -2.1007 H   0  0  0  0  0  0  0  0  0  0  0  0
   -0.0915   -5.0805   -1.8785 C   0  0  0  0  0  0  0  0  0  0  0  0
   -0.6048   -6.0530   -1.9009 H   0  0  0  0  0  0  0  0  0  0  0  0
   -3.1724    4.6174    1.9257 C   0  0  0  0  0  0  0  0  0  0  0  0
   -2.3569    5.0777    2.5043 H   0  0  0  0  0  0  0  0  0  0  0  0
   -5.4719    4.6032    1.1696 C   0  0  0  0  0  0  0  0  0  0  0  0
   -6.4774    5.0509    1.1503 H   0  0  0  0  0  0  0  0  0  0  0  0
   -4.4466    5.2047    1.9170 C   0  0  0  0  0  0  0  0  0  0  0  0
   -4.6395    6.1254    2.4876 H   0  0  0  0  0  0  0  0  0  0  0  0
  3 12  1  0  0  0  0
  5  3  1  0  0  0  0
  6  7  2  0  0  0  0
  7  3  1  0  0  0  0
  7  1  1  0  0  0  0
  8  2  1  0  0  0  0
  8  6  1  0  0  0  0
  9  8  1  0  0  0  0
 10  6  1  0  0  0  0
 10  5  2  0  0  0  0
 11  2  1  0  0  0  0
 12 14  1  0  0  0  0
 13  4  1  0  0  0  0
 13 11  2  0  0  0  0
 14 15  1  0  0  0  0
 14 30  2  0  0  0  0
 16 18  1  0  0  0  0
 16 10  1  0  0  0  0
 17 16  1  0  0  0  0
 19 16  1  0  0  0  0
 20 12  2  0  0  0  0
 20 32  1  0  0  0  0
 21 20  1  0  0  0  0
 22 11  1  0  0  0  0
 22 23  1  0  0  0  0
 24 26  2  0  0  0  0
 24 28  1  0  0  0  0
 25 24  1  0  0  0  0
 26 13  1  0  0  0  0
 27 26  1  0  0  0  0
 28 22  2  0  0  0  0
 29 28  1  0  0  0  0
 30 31  1  0  0  0  0
 32 34  2  0  0  0  0
 33 32  1  0  0  0  0
 34 30  1  0  0  0  0
 34 35  1  0  0  0  0
M  CHG  1   1  -1
M  END
