1,10
q = -2.0, confidence = 0.85

 15 15  0  0  0  0  0  0  0  0999 V2000
   -0.9377    0.2354   -1.2747 O   0  5  0  0  0  0  0  0  0  0  0  0
    0.9514   -2.4269    1.0028 O   0  5  0  0  0  0  0  0  0  0  0  0
   -2.3165   -0.9661    0.3087 C   0  0  0  0  0  0  0  0  0  0  0  0
   -2.1219    0.0389   -0.6975 C   0  0  0  0  0  0  0  0  0  0  0  0
   -3.2319    0.8171   -1.1089 C   0  0  0  0  0  0  0  0  0  0  0  0
   -4.5028    0.6025   -0.5645 C   0  0  0  0  0  0  0  0  0  0  0  0
   -4.7020   -0.3898    0.4146 C   0  0  0  0  0  0  0  0  0  0  0  0
   -3.6185   -1.1617    0.8379 C   0  0  0  0  0  0  0  0  0  0  0  0
   -1.2379   -1.8169    0.7674 C   0  0  0  0  0  3  0  0  0  0  0  0
    0.0505   -1.6075    0.5651 N   0  3  0  0  0  2  0  0  0  0  0  0
   -3.0686    1.5744   -1.8904 H   0  0  0  0  0  0  0  0  0  0  0  0
   -5.3498    1.2145   -0.9096 H   0  0  0  0  0  0  0  0  0  0  0  0
   -5.7011   -0.5596    0.8401 H   0  0  0  0  0  0  0  0  0  0  0  0
   -3.7651   -1.9462    1.5969 H   0  0  0  0  0  0  0  0  0  0  0  0
   -1.4749   -2.7142    1.3645 H   0  0  0  0  0  0  0  0  0  0  0  0
  1  4  1  0  0  0  0
  3  9  1  0  0  0  0
  3  8  1  0  0  0  0
  4  3  2  0  0  0  0
  5  4  1  0  0  0  0
  5  6  2  0  0  0  0
  6  7  1  0  0  0  0
  7  8  2  0  0  0  0
  7 13  1  0  0  0  0
  8 14  1  0  0  0  0
  9 15  1  0  0  0  0
 10  9  1  0  0  0  0
 10  2  1  0  0  0  0
 11  5  1  0  0  0  0
 12  6  1  0  0  0  0
M  CHG  3   1  -1   2  -1  10   1
M  END
