1,2
q = -1.0, confidence = 0.0

 17 18  0  0  1  0  0  0  0  0999 V2000
   -1.8199   -1.1042    0.3227 O   0  5  0  0  0  0  0  0  0  0  0  0
   -0.3101    0.2698   -1.3824 N   0  0  0  0  0  2  0  0  0  0  0  0
    0.5798    0.7086   -2.3071 N   0  0  0  0  0  0  0  0  0  0  0  0
    0.0808    1.6888   -2.9803 N   0  0  0  0  0  0  0  0  0  0  0  0
   -1.1651    1.8982   -2.4850 N   0  0  0  0  0  0  0  0  0  0  0  0
   -1.7660    2.6176   -2.8901 H   0  0  0  0  0  0  0  0  0  0  0  0
   -2.7530   -0.1892    0.2191 C   0  0  0  0  0  0  0  0  0  0  0  0
   -3.9391   -0.2951    0.9918 C   0  0  0  0  0  0  0  0  0  0  0  0
   -4.0184   -1.1470    1.6811 H   0  0  0  0  0  0  0  0  0  0  0  0
   -4.9497    0.6568    0.8770 C   0  0  0  0  0  0  0  0  0  0  0  0
   -5.8580    0.5567    1.4908 H   0  0  0  0  0  0  0  0  0  0  0  0
   -4.8222    1.7498   -0.0087 C   0  0  0  0  0  0  0  0  0  0  0  0
   -5.6223    2.4993   -0.0877 H   0  0  0  0  0  0  0  0  0  0  0  0
   -3.6674    1.8733   -0.7783 C   0  0  0  0  0  0  0  0  0  0  0  0
   -3.5649    2.7332   -1.4594 H   0  0  0  0  0  0  0  0  0  0  0  0
   -2.6242    0.9201   -0.6814 C   0  0  0  0  0  0  0  0  0  0  0  0
   -1.4250    1.0186   -1.4804 C   0  0  2  0  0  3  0  0  0  0  0  0
  3  2  1  0  0  0  0
  4  5  1  0  0  0  0
  4  3  2  0  0  0  0
  5 17  1  0  0  0  0
  6  5  1  0  0  0  0
  7  1  1  0  0  0  0
  7  8  1  0  0  0  0
  8  9  1  0  0  0  0
 10  8  2  0  0  0  0
 10 11  1  0  0  0  0
 12 10  1  0  0  0  0
 13 12  1  0  0  0  0
 14 16  1  0  0  0  0
 14 12  2  0  0  0  0
 15 14  1  0  0  0  0
 16  7  2  0  0  0  0
 17  2  1  0  0  0  0
 17 16  1  1  0  0  0
M  CHG  1   1  -1
M  END
