1,2
q = -1.0

 22 22  0  0  0  0  0  0  0  0999 V2000
   -1.3262    1.4777   -0.1004 O   0  5  0  0  0  0  0  0  0  0  0  0
   -1.3992   -1.4016   -0.1879 N   0  0  0  0  0  2  0  0  0  0  0  0
   -0.9166   -2.6798   -0.2692 O   0  0  0  0  0  0  0  0  0  0  0  0
   -3.3405    0.0692   -0.1685 C   0  0  0  0  0  0  0  0  0  0  0  0
   -2.6426    1.3310   -0.0694 C   0  0  0  0  0  0  0  0  0  0  0  0
   -2.7003   -1.2473   -0.3058 C   0  0  0  0  0  0  0  0  0  0  0  0
   -3.5201   -2.5012   -0.5244 C   0  0  0  0  0  0  0  0  0  0  0  0
   -3.8756   -3.2097    0.7924 C   0  0  0  0  0  0  0  0  0  0  0  0
   -3.4012    2.5277    0.0548 C   0  0  0  0  0  0  0  0  0  0  0  0
   -4.7917    2.5179    0.0974 C   0  0  0  0  0  0  0  0  0  0  0  0
   -5.4865    1.2958    0.0187 C   0  0  0  0  0  0  0  0  0  0  0  0
   -4.7638    0.1128   -0.1139 C   0  0  0  0  0  3  0  0  0  0  0  0
    0.0772   -2.5385   -0.1614 H   0  0  0  0  0  0  0  0  0  0  0  0
   -4.4330   -2.2518   -1.0961 H   0  0  0  0  0  0  0  0  0  0  0  0
   -2.9201   -3.1839   -1.1561 H   0  0  0  0  0  0  0  0  0  0  0  0
   -4.4803   -2.5574    1.4537 H   0  0  0  0  0  0  0  0  0  0  0  0
   -4.4550   -4.1335    0.5951 H   0  0  0  0  0  0  0  0  0  0  0  0
   -2.9543   -3.4926    1.3377 H   0  0  0  0  0  0  0  0  0  0  0  0
   -2.8376    3.4700    0.1178 H   0  0  0  0  0  0  0  0  0  0  0  0
   -5.3403    3.4671    0.1968 H   0  0  0  0  0  0  0  0  0  0  0  0
   -6.5846    1.2680    0.0615 H   0  0  0  0  0  0  0  0  0  0  0  0
   -5.3240   -0.8296   -0.1659 H   0  0  0  0  0  0  0  0  0  0  0  0
  1  5  1  0  0  0  0
  3  2  1  0  0  0  0
  3 13  1  0  0  0  0
  4 12  1  0  0  0  0
  4  5  1  0  0  0  0
  5  9  2  0  0  0  0
  6  2  1  0  0  0  0
  6  4  2  0  0  0  0
  7  6  1  0  0  0  0
  7  8  1  0  0  0  0
  8 18  1  0  0  0  0
  8 16  1  0  0  0  0
  9 10  1  0  0  0  0
  9 19  1  0  0  0  0
 10 20  1  0  0  0  0
 11 21  1  0  0  0  0
 11 10  2  0  0  0  0
 12 11  1  0  0  0  0
 14  7  1  0  0  0  0
 15  7  1  0  0  0  0
 17  8  1  0  0  0  0
 22 12  1  0  0  0  0
M  CHG  1   1  -1
M  END
