1,2
q = 0.0, confidence = 0.998

 45 46  0  0  0  0  0  0  0  0999 V2000
   -1.6715   -1.6015    0.7748 O   0  5  0  0  0  0  0  0  0  0  0  0
   -0.7046    0.4743   -0.9771 N   0  0  0  0  0  2  0  0  0  0  0  0
    3.8105    1.9593   -0.7852 N   0  3  0  0  0  0  0  0  0  0  0  0
   -3.0477    0.0987   -0.3089 C   0  0  0  0  0  0  0  0  0  0  0  0
   -2.8172   -1.0716    0.5163 C   0  0  0  0  0  0  0  0  0  0  0  0
   -3.9751   -1.7357    1.0793 C   0  0  0  0  0  0  0  0  0  0  0  0
   -3.7666   -2.6382    1.6720 H   0  0  0  0  0  0  0  0  0  0  0  0
   -5.2489   -1.2671    0.8938 C   0  0  0  0  0  0  0  0  0  0  0  0
   -6.1049   -1.7976    1.3417 H   0  0  0  0  0  0  0  0  0  0  0  0
   -5.5101   -0.0785    0.1339 C   0  0  0  0  0  0  0  0  0  0  0  0
   -6.8349    0.4076   -0.0182 C   0  0  0  0  0  0  0  0  0  0  0  0
   -7.6547   -0.1593    0.4510 H   0  0  0  0  0  0  0  0  0  0  0  0
   -7.1005    1.5700   -0.7333 C   0  0  0  0  0  0  0  0  0  0  0  0
   -8.1312    1.9382   -0.8439 H   0  0  0  0  0  0  0  0  0  0  0  0
   -6.0208    2.2803   -1.3040 C   0  0  0  0  0  0  0  0  0  0  0  0
   -6.2094    3.2138   -1.8565 H   0  0  0  0  0  0  0  0  0  0  0  0
   -4.7124    1.8221   -1.1661 C   0  0  0  0  0  0  0  0  0  0  0  0
   -3.9074    2.4298   -1.6022 H   0  0  0  0  0  0  0  0  0  0  0  0
   -4.4033    0.6219   -0.4627 C   0  0  0  0  0  0  0  0  0  0  0  0
   -1.9912    0.7130   -1.0551 C   0  0  0  0  0  3  0  0  0  0  0  0
   -2.3019    1.4596   -1.8165 H   0  0  0  0  0  0  0  0  0  0  0  0
    0.2129    1.1204   -1.8942 C   0  0  0  0  0  0  0  0  0  0  0  0
   -0.3197    1.8143   -2.5864 H   0  0  0  0  0  0  0  0  0  0  0  0
    0.6939    0.3251   -2.5102 H   0  0  0  0  0  0  0  0  0  0  0  0
    1.3026    1.8396   -1.0806 C   0  0  0  0  0  0  0  0  0  0  0  0
    1.4424    1.2267   -0.1623 H   0  0  0  0  0  0  0  0  0  0  0  0
    0.9271    2.8171   -0.7164 H   0  0  0  0  0  0  0  0  0  0  0  0
    2.6474    1.9763   -1.7743 C   0  0  0  0  0  0  0  0  0  0  0  0
    2.8256    1.1195   -2.4528 H   0  0  0  0  0  0  0  0  0  0  0  0
    2.7494    2.9081   -2.3649 H   0  0  0  0  0  0  0  0  0  0  0  0
    3.6227    2.8819    0.3998 C   0  0  0  0  0  0  0  0  0  0  0  0
    2.8039    2.4435    1.0113 H   0  0  0  0  0  0  0  0  0  0  0  0
    4.5524    2.7844    0.9941 H   0  0  0  0  0  0  0  0  0  0  0  0
    3.3793    4.3264    0.0035 C   0  0  0  0  0  0  0  0  0  0  0  0
    4.1904    4.7298   -0.6387 H   0  0  0  0  0  0  0  0  0  0  0  0
    3.3514    4.9428    0.9227 H   0  0  0  0  0  0  0  0  0  0  0  0
    2.4119    4.4707   -0.5141 H   0  0  0  0  0  0  0  0  0  0  0  0
    4.1761    0.5512   -0.3354 C   0  0  0  0  0  0  0  0  0  0  0  0
    4.7705    0.6728    0.5899 H   0  0  0  0  0  0  0  0  0  0  0  0
    3.2345    0.0321   -0.0572 H   0  0  0  0  0  0  0  0  0  0  0  0
    4.9407   -0.2072   -1.4001 C   0  0  0  0  0  0  0  0  0  0  0  0
    4.3236   -0.4077   -2.2979 H   0  0  0  0  0  0  0  0  0  0  0  0
    5.2010   -1.2021   -0.9911 H   0  0  0  0  0  0  0  0  0  0  0  0
    5.8835    0.3040   -1.6924 H   0  0  0  0  0  0  0  0  0  0  0  0
    4.6300    2.3135   -1.3098 H   0  0  0  0  0  0  0  0  0  0  0  0
  3 38  1  0  0  0  0
  3 31  1  0  0  0  0
  4  5  1  0  0  0  0
  5  1  1  0  0  0  0
  5  6  2  0  0  0  0
  6  7  1  0  0  0  0
  8  6  1  0  0  0  0
  8  9  1  0  0  0  0
 10  8  2  0  0  0  0
 11 10  1  0  0  0  0
 11 12  1  0  0  0  0
 13 11  2  0  0  0  0
 14 13  1  0  0  0  0
 15 17  2  0  0  0  0
 15 13  1  0  0  0  0
 16 15  1  0  0  0  0
 17 19  1  0  0  0  0
 18 17  1  0  0  0  0
 19  4  2  0  0  0  0
 19 10  1  0  0  0  0
 20  2  1  0  0  0  0
 20  4  1  0  0  0  0
 21 20  1  0  0  0  0
 22 25  1  0  0  0  0
 22  2  1  0  0  0  0
 23 22  1  0  0  0  0
 24 22  1  0  0  0  0
 25 27  1  0  0  0  0
 25 26  1  0  0  0  0
 28 25  1  0  0  0  0
 28  3  1  0  0  0  0
 29 28  1  0  0  0  0
 30 28  1  0  0  0  0
 31 33  1  0  0  0  0
 31 32  1  0  0  0  0
 34 31  1  0  0  0  0
 34 36  1  0  0  0  0
 35 34  1  0  0  0  0
 37 34  1  0  0  0  0
 38 40  1  0  0  0  0
 38 39  1  0  0  0  0
 41 43  1  0  0  0  0
 41 38  1  0  0  0  0
 42 41  1  0  0  0  0
 44 41  1  0  0  0  0
 45  3  1  0  0  0  0
M  CHG  2   1  -1   3   1
M  END
