1,2
q = -1.0

 35 36  0  0  0  0  0  0  0  0999 V2000
   -2.0356    0.4481   -0.1253 N   0  0  0  0  0  0  0  0  0  0  0  0
    0.1549    0.9995   -1.7501 O   0  5  0  0  0  0  0  0  0  0  0  0
   -1.1068    2.1586   -3.2115 O   0  0  0  0  0  0  0  0  0  0  0  0
   -0.9901    1.4272   -2.2396 C   0  0  0  0  0  0  0  0  0  0  0  0
   -2.2381    0.8247   -1.5546 C   0  0  0  0  0  0  0  0  0  0  0  0
   -2.3226    1.5923    0.8048 C   0  0  0  0  0  0  0  0  0  0  0  0
   -1.2933    2.6963    0.7414 C   0  0  0  0  0  0  0  0  0  0  0  0
   -1.3836    3.7356   -0.2015 C   0  0  0  0  0  0  0  0  0  0  0  0
   -0.3765    4.7104   -0.2860 C   0  0  0  0  0  0  0  0  0  0  0  0
    0.7176    4.6704    0.5897 C   0  0  0  0  0  0  0  0  0  0  0  0
    0.8009    3.6549    1.5584 C   0  0  0  0  0  0  0  0  0  0  0  0
   -0.1950    2.6713    1.6291 C   0  0  0  0  0  0  0  0  0  0  0  0
   -2.8232   -0.7748    0.2684 C   0  0  0  0  0  0  0  0  0  0  0  0
   -4.3248   -0.5908    0.2610 C   0  0  0  0  0  0  0  0  0  0  0  0
   -5.0057   -0.2336    1.4435 C   0  0  0  0  0  0  0  0  0  0  0  0
   -6.3933   -0.0301    1.4422 C   0  0  0  0  0  0  0  0  0  0  0  0
   -7.1254   -0.1860    0.2547 C   0  0  0  0  0  0  0  0  0  0  0  0
   -6.4641   -0.5580   -0.9262 C   0  0  0  0  0  0  0  0  0  0  0  0
   -5.0763   -0.7615   -0.9204 C   0  0  0  0  0  0  0  0  0  0  0  0
   -2.4507   -0.1080   -2.1150 H   0  0  0  0  0  0  0  0  0  0  0  0
   -3.1151    1.4915   -1.6796 H   0  0  0  0  0  0  0  0  0  0  0  0
   -3.3390    1.9811    0.5777 H   0  0  0  0  0  0  0  0  0  0  0  0
   -2.3410    1.1628    1.8245 H   0  0  0  0  0  0  0  0  0  0  0  0
   -2.2346    3.7754   -0.8979 H   0  0  0  0  0  0  0  0  0  0  0  0
   -0.4491    5.5027   -1.0455 H   0  0  0  0  0  0  0  0  0  0  0  0
    1.5044    5.4371    0.5247 H   0  0  0  0  0  0  0  0  0  0  0  0
    1.6453    3.6326    2.2646 H   0  0  0  0  0  0  0  0  0  0  0  0
   -0.1316    1.8685    2.3808 H   0  0  0  0  0  0  0  0  0  0  0  0
   -2.4563   -1.0663    1.2712 H   0  0  0  0  0  0  0  0  0  0  0  0
   -2.5134   -1.5760   -0.4307 H   0  0  0  0  0  0  0  0  0  0  0  0
   -4.4378   -0.1253    2.3809 H   0  0  0  0  0  0  0  0  0  0  0  0
   -6.9071    0.2450    2.3758 H   0  0  0  0  0  0  0  0  0  0  0  0
   -8.2146   -0.0284    0.2519 H   0  0  0  0  0  0  0  0  0  0  0  0
   -7.0338   -0.6981   -1.8574 H   0  0  0  0  0  0  0  0  0  0  0  0
   -4.5702   -1.0716   -1.8476 H   0  0  0  0  0  0  0  0  0  0  0  0
  1 13  1  0  0  0  0
  1  6  1  0  0  0  0
  3  4  2  0  0  0  0
  4  2  1  0  0  0  0
  4  5  1  0  0  0  0
  5  1  1  0  0  0  0
  6 23  1  0  0  0  0
  7  6  1  0  0  0  0
  7 12  1  0  0  0  0
  8  7  2  0  0  0  0
  9  8  1  0  0  0  0
  9 10  2  0  0  0  0
 10 11  1  0  0  0  0
 11 12  2  0  0  0  0
 11 27  1  0  0  0  0
 12 28  1  0  0  0  0
 13 29  1  0  0  0  0
 14 13  1  0  0  0  0
 14 15  1  0  0  0  0
 15 31  1  0  0  0  0
 16 15  2  0  0  0  0
 16 32  1  0  0  0  0
 17 16  1  0  0  0  0
 18 19  1  0  0  0  0
 18 17  2  0  0  0  0
 19 14  2  0  0  0  0
 20  5  1  0  0  0  0
 21  5  1  0  0  0  0
 22  6  1  0  0  0  0
 24  8  1  0  0  0  0
 25  9  1  0  0  0  0
 26 10  1  0  0  0  0
 30 13  1  0  0  0  0
 33 17  1  0  0  0  0
 34 18  1  0  0  0  0
 35 19  1  0  0  0  0
M  CHG  1   2  -1
M  END
