1,7
q = -1.0

 37 39  0  0  1  0  0  0  0  0999 V2000
   -0.7882   -1.4846    0.3257 N   0  0  0  0  0  2  0  0  0  0  0  0
    0.5385   -1.1945    0.2060 C   0  0  2  0  0  3  0  0  0  0  0  0
    1.5157   -2.2044    0.2389 C   0  0  0  0  0  0  0  0  0  0  0  0
    1.1102   -3.5311    0.4020 C   0  0  0  0  0  0  0  0  0  0  0  0
   -0.2600   -3.8160    0.5320 C   0  0  0  0  0  0  0  0  0  0  0  0
   -1.1812   -2.7656    0.4873 C   0  0  0  0  0  0  0  0  0  0  0  0
   -0.2169    1.0317    0.1041 O   0  5  0  0  0  0  0  0  0  0  0  0
    0.8362    0.2518    0.0705 C   0  0  0  0  0  0  0  0  0  0  0  0
    2.0879    0.6099   -0.0242 N   0  0  0  0  0  0  0  0  0  0  0  0
    2.5674    1.9030   -0.1272 C   0  0  0  0  0  0  0  0  0  0  0  0
    1.8133    3.1026   -0.1888 C   0  0  0  0  0  0  0  0  0  0  0  0
    2.4564    4.3426   -0.2935 C   0  0  0  0  0  0  0  0  0  0  0  0
    4.6769    0.7869   -0.1198 N   0  0  0  0  0  0  0  0  0  0  0  0
    6.0122    0.5084   -0.1395 C   0  0  0  0  0  0  0  0  0  0  0  0
    6.9323    1.3286   -0.2102 O   0  0  0  0  0  0  0  0  0  0  0  0
    4.0053    2.0014   -0.1780 C   0  0  0  0  0  0  0  0  0  0  0  0
    4.6399    3.2533   -0.2801 C   0  0  0  0  0  0  0  0  0  0  0  0
    3.8599    4.4171   -0.3370 C   0  0  0  0  0  0  0  0  0  0  0  0
    5.2421   -1.8317    0.0197 N   0  0  0  0  0  0  0  0  0  0  0  0
    6.2865   -0.9820   -0.0634 C   0  0  0  0  0  0  0  0  0  0  0  0
    7.6250   -1.4142   -0.0847 C   0  0  0  0  0  0  0  0  0  0  0  0
    7.8845   -2.7879   -0.0182 C   0  0  0  0  0  0  0  0  0  0  0  0
    6.8017   -3.6767    0.0670 C   0  0  0  0  0  0  0  0  0  0  0  0
    5.5014   -3.1451    0.0825 C   0  0  0  0  0  0  0  0  0  0  0  0
    2.5718   -1.9102    0.1369 H   0  0  0  0  0  0  0  0  0  0  0  0
    1.8537   -4.3421    0.4282 H   0  0  0  0  0  0  0  0  0  0  0  0
   -0.6264   -4.8439    0.6610 H   0  0  0  0  0  0  0  0  0  0  0  0
   -2.2602   -2.9502    0.5689 H   0  0  0  0  0  0  0  0  0  0  0  0
    0.7196    3.0316   -0.1583 H   0  0  0  0  0  0  0  0  0  0  0  0
    1.8545    5.2631   -0.3438 H   0  0  0  0  0  0  0  0  0  0  0  0
    4.0348   -0.0222   -0.0561 H   0  0  0  0  0  0  0  0  0  0  0  0
    5.7361    3.2827   -0.3143 H   0  0  0  0  0  0  0  0  0  0  0  0
    4.3579    5.3953   -0.4187 H   0  0  0  0  0  0  0  0  0  0  0  0
    8.4154   -0.6535   -0.1540 H   0  0  0  0  0  0  0  0  0  0  0  0
    8.9188   -3.1645   -0.0335 H   0  0  0  0  0  0  0  0  0  0  0  0
    6.9564   -4.7644    0.1200 H   0  0  0  0  0  0  0  0  0  0  0  0
    4.6265   -3.8169    0.1479 H   0  0  0  0  0  0  0  0  0  0  0  0
  1  6  1  0  0  0  0
  2  8  1  1  0  0  0
  2  3  1  0  0  0  0
  2  1  1  0  0  0  0
  3  4  2  0  0  0  0
  4 26  1  0  0  0  0
  4  5  1  0  0  0  0
  5 27  1  0  0  0  0
  6  5  2  0  0  0  0
  6 28  1  0  0  0  0
  8  7  1  0  0  0  0
  9  8  2  0  0  0  0
 10  9  1  0  0  0  0
 11 29  1  0  0  0  0
 11 10  2  0  0  0  0
 12 11  1  0  0  0  0
 13 31  1  0  0  0  0
 14 13  1  0  0  0  0
 14 20  1  0  0  0  0
 15 14  2  0  0  0  0
 16 10  1  0  0  0  0
 16 13  1  0  0  0  0
 17 16  2  0  0  0  0
 18 12  2  0  0  0  0
 18 17  1  0  0  0  0
 19 24  1  0  0  0  0
 20 19  2  0  0  0  0
 21 20  1  0  0  0  0
 21 22  2  0  0  0  0
 22 23  1  0  0  0  0
 23 24  2  0  0  0  0
 23 36  1  0  0  0  0
 24 37  1  0  0  0  0
 25  3  1  0  0  0  0
 30 12  1  0  0  0  0
 32 17  1  0  0  0  0
 33 18  1  0  0  0  0
 34 21  1  0  0  0  0
 35 22  1  0  0  0  0
M  CHG  1   7  -1
M  END
