1,3
q = -1.0, confidence = 0.032

 20 20  0  0  1  0  0  0  0  0999 V2000
   -0.9992   -1.3036   -1.1092 O   0  5  0  0  0  0  0  0  0  0  0  0
   -2.7040   -2.5638   -0.4821 O   0  0  0  0  0  0  0  0  0  0  0  0
   -0.7934   -0.3883    1.4540 N   0  0  0  0  0  2  0  0  0  0  0  0
   -1.9161   -1.6631   -0.2263 C   0  0  0  0  0  0  0  0  0  0  0  0
   -1.9056   -0.9440    1.1214 C   0  0  2  0  0  3  0  0  0  0  0  0
   -3.2215   -0.9025    1.8399 C   0  0  0  0  0  0  0  0  0  0  0  0
   -4.1687   -0.0763    0.9766 C   0  0  0  0  0  0  0  0  0  0  0  0
   -3.8346    1.2522    0.6385 C   0  0  0  0  0  0  0  0  0  0  0  0
   -4.6775    2.0082   -0.1933 C   0  0  0  0  0  0  0  0  0  0  0  0
   -5.8580    1.4420   -0.6994 C   0  0  0  0  0  0  0  0  0  0  0  0
   -6.1899    0.1172   -0.3742 C   0  0  0  0  0  0  0  0  0  0  0  0
   -5.3460   -0.6410    0.4528 C   0  0  0  0  0  0  0  0  0  0  0  0
   -0.8433    0.0766    2.3754 H   0  0  0  0  0  0  0  0  0  0  0  0
   -3.6183   -1.9312    1.9477 H   0  0  0  0  0  0  0  0  0  0  0  0
   -3.0917   -0.4629    2.8502 H   0  0  0  0  0  0  0  0  0  0  0  0
   -2.9000    1.6986    1.0112 H   0  0  0  0  0  0  0  0  0  0  0  0
   -4.4089    3.0450   -0.4457 H   0  0  0  0  0  0  0  0  0  0  0  0
   -6.5191    2.0329   -1.3506 H   0  0  0  0  0  0  0  0  0  0  0  0
   -7.1120   -0.3336   -0.7702 H   0  0  0  0  0  0  0  0  0  0  0  0
   -5.6029   -1.6838    0.6927 H   0  0  0  0  0  0  0  0  0  0  0  0
  1  4  1  0  0  0  0
  2  4  2  0  0  0  0
  3 13  1  0  0  0  0
  5  4  1  6  0  0  0
  5  3  1  0  0  0  0
  5  6  1  0  0  0  0
  6 14  1  0  0  0  0
  6 15  1  0  0  0  0
  7  6  1  0  0  0  0
  8  7  1  0  0  0  0
  8 16  1  0  0  0  0
  9  8  2  0  0  0  0
 10 11  2  0  0  0  0
 10  9  1  0  0  0  0
 11 12  1  0  0  0  0
 12 20  1  0  0  0  0
 12  7  2  0  0  0  0
 17  9  1  0  0  0  0
 18 10  1  0  0  0  0
 19 11  1  0  0  0  0
M  CHG  1   1  -1
M  END
