2,7
q = 0.0, confidence = 0.952

 31 31  0  0  0  0  0  0  0  0999 V2000
   -6.5000   -2.5079   -0.6870 Br  0  0  0  0  0  0  0  0  0  0  0  0
   -0.0657   -2.7652    0.5990 N   0  0  0  0  0  2  0  0  0  0  0  0
    0.9129   -2.5696   -2.2953 N   0  3  0  0  0  0  0  0  0  0  0  0
    1.1911   -2.2102   -3.2197 H   0  0  0  0  0  0  0  0  0  0  0  0
    1.2158   -1.7647   -1.5553 H   0  0  0  0  0  0  0  0  0  0  0  0
   -0.1107   -2.7017   -2.2791 H   0  0  0  0  0  0  0  0  0  0  0  0
   -0.7940   -0.5198   -0.6217 O   0  5  0  0  0  0  0  0  0  0  0  0
   -2.6544    1.0027   -1.6943 O   0  0  0  0  0  0  0  0  0  0  0  0
   -2.0089   -0.9872   -0.6226 C   0  0  0  0  0  0  0  0  0  0  0  0
   -3.0613   -0.1862   -1.2062 C   0  0  0  0  0  0  0  0  0  0  0  0
   -4.3803   -0.6504   -1.1949 C   0  0  0  0  0  0  0  0  0  0  0  0
   -5.1935   -0.0289   -1.5910 H   0  0  0  0  0  0  0  0  0  0  0  0
   -4.6906   -1.9300   -0.6626 C   0  0  0  0  0  0  0  0  0  0  0  0
   -3.7046   -2.7509   -0.1378 C   0  0  0  0  0  0  0  0  0  0  0  0
   -3.9528   -3.7459    0.2578 H   0  0  0  0  0  0  0  0  0  0  0  0
   -2.3578   -2.2804   -0.1018 C   0  0  0  0  0  0  0  0  0  0  0  0
   -1.2922   -3.1455    0.3135 C   0  0  0  0  0  3  0  0  0  0  0  0
   -1.5190   -4.2326    0.3334 H   0  0  0  0  0  0  0  0  0  0  0  0
    0.9759   -3.8036    0.6194 C   0  0  0  0  0  0  0  0  0  0  0  0
    0.7353   -4.5590    1.4006 H   0  0  0  0  0  0  0  0  0  0  0  0
    1.9302   -3.3265    0.9104 H   0  0  0  0  0  0  0  0  0  0  0  0
    1.1268   -4.5504   -0.7209 C   0  0  0  0  0  0  0  0  0  0  0  0
    0.1490   -5.0018   -0.9971 H   0  0  0  0  0  0  0  0  0  0  0  0
    1.8078   -5.4112   -0.5559 H   0  0  0  0  0  0  0  0  0  0  0  0
    1.6874   -3.7911   -1.9250 C   0  0  0  0  0  0  0  0  0  0  0  0
    2.7215   -3.4420   -1.7325 H   0  0  0  0  0  0  0  0  0  0  0  0
    1.7231   -4.4757   -2.7958 H   0  0  0  0  0  0  0  0  0  0  0  0
   -3.6378    1.9177   -2.1573 C   0  0  0  0  0  0  0  0  0  0  0  0
   -3.0935    2.8307   -2.4571 H   0  0  0  0  0  0  0  0  0  0  0  0
   -4.3551    2.1833   -1.3508 H   0  0  0  0  0  0  0  0  0  0  0  0
   -4.1954    1.5123   -3.0302 H   0  0  0  0  0  0  0  0  0  0  0  0
  1 13  1  0  0  0  0
  2 19  1  0  0  0  0
  3  6  1  0  0  0  0
  3 25  1  0  0  0  0
  3  5  1  0  0  0  0
  4  3  1  0  0  0  0
  8 10  1  0  0  0  0
  9  7  1  0  0  0  0
  9 16  1  0  0  0  0
 10 11  1  0  0  0  0
 10  9  2  0  0  0  0
 11 13  2  0  0  0  0
 12 11  1  0  0  0  0
 13 14  1  0  0  0  0
 14 16  2  0  0  0  0
 14 15  1  0  0  0  0
 16 17  1  0  0  0  0
 17 18  1  0  0  0  0
 17  2  1  0  0  0  0
 19 21  1  0  0  0  0
 19 20  1  0  0  0  0
 22 24  1  0  0  0  0
 22 19  1  0  0  0  0
 23 22  1  0  0  0  0
 25 26  1  0  0  0  0
 25 22  1  0  0  0  0
 27 25  1  0  0  0  0
 28  8  1  0  0  0  0
 28 30  1  0  0  0  0
 29 28  1  0  0  0  0
 31 28  1  0  0  0  0
M  CHG  2   3   1   7  -1
M  END
