1,4
q = -1.0

 28 28  0  0  0  0  0  0  0  0999 V2000
   -0.0452    1.9616    0.5540 O   0  0  0  0  0  1  0  0  0  0  0  0
    1.1431    2.6282    0.3337 C   0  0  0  0  0  0  0  0  0  0  0  0
    1.8883    1.9607   -0.7814 O   0  0  0  0  0  0  0  0  0  0  0  0
    1.8605    0.5998   -0.5938 N   0  0  0  0  0  2  0  0  0  0  0  0
    2.9644   -0.0588   -0.7917 C   0  0  0  0  0  3  0  0  0  0  0  0
    3.0215   -1.5499   -0.6737 C   0  0  0  0  0  0  0  0  0  0  0  0
    4.0466   -1.9397    0.4134 C   0  0  0  0  0  0  0  0  0  0  0  0
    5.4108   -1.2826    0.1795 C   0  0  0  0  0  0  0  0  0  0  0  0
    5.2812    0.2393    0.0529 C   0  0  0  0  0  0  0  0  0  0  0  0
    4.2704    0.6414   -1.0452 C   0  0  0  0  0  0  0  0  0  0  0  0
    4.1265    1.7342   -1.0930 H   0  0  0  0  0  0  0  0  0  0  0  0
    4.6488    0.3020   -2.0347 H   0  0  0  0  0  0  0  0  0  0  0  0
    4.9371    0.6659    1.0203 H   0  0  0  0  0  0  0  0  0  0  0  0
    6.2619    0.7075   -0.1707 H   0  0  0  0  0  0  0  0  0  0  0  0
    6.1083   -1.5370    1.0045 H   0  0  0  0  0  0  0  0  0  0  0  0
    5.8653   -1.6904   -0.7519 H   0  0  0  0  0  0  0  0  0  0  0  0
    4.1378   -3.0448    0.4405 H   0  0  0  0  0  0  0  0  0  0  0  0
    3.6290   -1.6286    1.3946 H   0  0  0  0  0  0  0  0  0  0  0  0
    3.3640   -1.9400   -1.6592 H   0  0  0  0  0  0  0  0  0  0  0  0
    2.0239   -1.9819   -0.4710 H   0  0  0  0  0  0  0  0  0  0  0  0
    0.8484    4.0180   -0.2221 C   0  0  0  0  0  0  0  0  0  0  0  0
    0.2689    4.5857    0.5303 H   0  0  0  0  0  0  0  0  0  0  0  0
    0.2426    3.9106   -1.1410 H   0  0  0  0  0  0  0  0  0  0  0  0
    1.7810    4.5712   -0.4466 H   0  0  0  0  0  0  0  0  0  0  0  0
    2.0616    2.6304    1.5595 C   0  0  0  0  0  0  0  0  0  0  0  0
    2.2470    1.5911    1.8940 H   0  0  0  0  0  0  0  0  0  0  0  0
    3.0207    3.1444    1.3480 H   0  0  0  0  0  0  0  0  0  0  0  0
    1.5487    3.1556    2.3882 H   0  0  0  0  0  0  0  0  0  0  0  0
  2  1  1  0  0  0  0
  2 25  1  0  0  0  0
  3  4  1  0  0  0  0
  3  2  1  0  0  0  0
  5  6  1  0  0  0  0
  5  4  1  0  0  0  0
  6 20  1  0  0  0  0
  6  7  1  0  0  0  0
  7 17  1  0  0  0  0
  7 18  1  0  0  0  0
  8  7  1  0  0  0  0
  8 15  1  0  0  0  0
  9  8  1  0  0  0  0
  9 13  1  0  0  0  0
 10  5  1  0  0  0  0
 10  9  1  0  0  0  0
 11 10  1  0  0  0  0
 12 10  1  0  0  0  0
 14  9  1  0  0  0  0
 16  8  1  0  0  0  0
 19  6  1  0  0  0  0
 21  2  1  0  0  0  0
 21 22  1  0  0  0  0
 23 21  1  0  0  0  0
 24 21  1  0  0  0  0
 25 26  1  0  0  0  0
 25 28  1  0  0  0  0
 27 25  1  0  0  0  0
M  END
