1,5
q = -1.0, confidence = 0.0

 20 20  0  0  1  0  0  0  0  0999 V2000
    1.4613    1.1471   -0.0037 O   0  0  0  0  0  1  0  0  0  0  0  0
    0.4229   -2.7528   -0.0023 O   0  0  0  0  0  0  0  0  0  0  0  0
   -0.5445   -2.4488    0.0000 H   0  0  0  0  0  0  0  0  0  0  0  0
    6.9259    0.2185    0.0009 O   0  0  0  0  0  0  0  0  0  0  0  0
    1.0611   -1.5502   -0.0015 N   0  0  0  0  0  2  0  0  0  0  0  0
    2.7572    0.8573   -0.0021 C   0  0  2  0  0  3  0  0  0  0  0  0
    3.6995    1.9195   -0.0015 C   0  0  0  0  0  0  0  0  0  0  0  0
    3.3190    2.9514   -0.0020 H   0  0  0  0  0  0  0  0  0  0  0  0
    5.0676    1.6723   -0.0005 C   0  0  0  0  0  0  0  0  0  0  0  0
    5.7927    2.4993   -0.0000 H   0  0  0  0  0  0  0  0  0  0  0  0
    5.5658    0.3454   -0.0000 C   0  0  0  0  0  0  0  0  0  0  0  0
    4.6591   -0.7177   -0.0006 C   0  0  0  0  0  0  0  0  0  0  0  0
    5.0066   -1.7598   -0.0002 H   0  0  0  0  0  0  0  0  0  0  0  0
    3.2539   -0.4829   -0.0016 C   0  0  0  0  0  0  0  0  0  0  0  0
    2.3705   -1.6175   -0.0019 C   0  0  0  0  0  0  0  0  0  0  0  0
    2.8014   -2.6337   -0.0024 H   0  0  0  0  0  0  0  0  0  0  0  0
    7.4662   -1.0855    0.0025 C   0  0  0  0  0  0  0  0  0  0  0  0
    7.1645   -1.6635   -0.9013 H   0  0  0  0  0  0  0  0  0  0  0  0
    8.5663   -0.9729    0.0040 H   0  0  0  0  0  0  0  0  0  0  0  0
    7.1619   -1.6623    0.9062 H   0  0  0  0  0  0  0  0  0  0  0  0
  2  5  1  0  0  0  0
  2  3  1  0  0  0  0
  4 17  1  0  0  0  0
  6  1  1  6  0  0  0
  6 14  1  0  0  0  0
  6  7  1  0  0  0  0
  7  9  2  0  0  0  0
  8  7  1  0  0  0  0
  9 10  1  0  0  0  0
  9 11  1  0  0  0  0
 11  4  1  0  0  0  0
 12 13  1  0  0  0  0
 12 11  2  0  0  0  0
 14 12  1  0  0  0  0
 15 14  2  0  0  0  0
 15  5  1  0  0  0  0
 16 15  1  0  0  0  0
 17 19  1  0  0  0  0
 17 20  1  0  0  0  0
 18 17  1  0  0  0  0
M  END
