1,13
q = -1.0, confidence = 0.002

 34 36  0  0  0  0  0  0  0  0999 V2000
    1.4142    0.4361   -1.1199 O   0  5  0  0  0  0  0  0  0  0  0  0
    2.6729    0.1580   -0.9472 C   0  0  0  0  0  0  0  0  0  0  0  0
    3.6248    0.8927   -1.7405 C   0  0  0  0  0  0  0  0  0  0  0  0
    4.9750    0.6691   -1.6174 C   0  0  0  0  0  0  0  0  0  0  0  0
    5.4999   -0.3044   -0.7054 C   0  0  0  0  0  0  0  0  0  0  0  0
    6.8993   -0.5080   -0.5719 C   0  0  0  0  0  3  0  0  0  0  0  0
    7.4076   -1.4485    0.3164 C   0  0  0  0  0  0  0  0  0  0  0  0
    6.5122   -2.2065    1.1067 C   0  0  0  0  0  0  0  0  0  0  0  0
    5.1364   -2.0227    0.9978 C   0  0  0  0  0  0  0  0  0  0  0  0
    4.5822   -1.0810    0.0859 C   0  0  0  0  0  0  0  0  0  0  0  0
    3.1555   -0.8614   -0.0682 C   0  0  0  0  0  0  0  0  0  0  0  0
    2.2050   -1.7320    0.5454 C   0  0  0  0  0  0  0  0  0  0  0  0
    0.9046   -1.5532    0.6177 N   0  0  0  0  0  2  0  0  0  0  0  0
    0.0999   -2.6523    1.1451 C   0  0  0  0  0  0  0  0  0  0  0  0
   -0.9463   -3.1483    0.1644 C   0  0  0  0  0  0  0  0  0  0  0  0
   -0.8459   -2.8949   -1.2163 C   0  0  0  0  0  0  0  0  0  0  0  0
   -1.8349   -3.3570   -2.0988 C   0  0  0  0  0  0  0  0  0  0  0  0
   -2.9318   -4.0860   -1.6153 C   0  0  0  0  0  0  0  0  0  0  0  0
   -3.0332   -4.3522   -0.2405 C   0  0  0  0  0  0  0  0  0  0  0  0
   -2.0483   -3.8839    0.6404 C   0  0  0  0  0  0  0  0  0  0  0  0
   -2.1410   -4.0822    1.7206 H   0  0  0  0  0  0  0  0  0  0  0  0
   -3.8926   -4.9180    0.1507 H   0  0  0  0  0  0  0  0  0  0  0  0
   -3.7100   -4.4419   -2.3072 H   0  0  0  0  0  0  0  0  0  0  0  0
   -1.7468   -3.1412   -3.1746 H   0  0  0  0  0  0  0  0  0  0  0  0
    0.0060   -2.3141   -1.6007 H   0  0  0  0  0  0  0  0  0  0  0  0
    0.7739   -3.4911    1.4321 H   0  0  0  0  0  0  0  0  0  0  0  0
   -0.4178   -2.3070    2.0616 H   0  0  0  0  0  0  0  0  0  0  0  0
    2.5912   -2.6814    0.9623 H   0  0  0  0  0  0  0  0  0  0  0  0
    4.4744   -2.6089    1.6512 H   0  0  0  0  0  0  0  0  0  0  0  0
    6.9045   -2.9437    1.8240 H   0  0  0  0  0  0  0  0  0  0  0  0
    8.4933   -1.5975    0.4116 H   0  0  0  0  0  0  0  0  0  0  0  0
    7.5784    0.1003   -1.1901 H   0  0  0  0  0  0  0  0  0  0  0  0
    5.6860    1.2528   -2.2238 H   0  0  0  0  0  0  0  0  0  0  0  0
    3.2244    1.6437   -2.4354 H   0  0  0  0  0  0  0  0  0  0  0  0
  1  2  1  0  0  0  0
  2 11  1  0  0  0  0
  3  4  1  0  0  0  0
  3  2  2  0  0  0  0
  4  5  2  0  0  0  0
  5  6  1  0  0  0  0
  5 10  1  0  0  0  0
  6  7  1  0  0  0  0
  7 31  1  0  0  0  0
  7  8  2  0  0  0  0
  8 30  1  0  0  0  0
  9  8  1  0  0  0  0
  9 29  1  0  0  0  0
 10  9  2  0  0  0  0
 11 10  1  0  0  0  0
 11 12  2  0  0  0  0
 12 13  1  0  0  0  0
 12 28  1  0  0  0  0
 13 14  1  0  0  0  0
 14 26  1  0  0  0  0
 14 27  1  0  0  0  0
 15 20  1  0  0  0  0
 15 14  1  0  0  0  0
 16 15  2  0  0  0  0
 17 18  2  0  0  0  0
 17 16  1  0  0  0  0
 18 19  1  0  0  0  0
 19 22  1  0  0  0  0
 19 20  2  0  0  0  0
 20 21  1  0  0  0  0
 23 18  1  0  0  0  0
 24 17  1  0  0  0  0
 25 16  1  0  0  0  0
 32  6  1  0  0  0  0
 33  4  1  0  0  0  0
 34  3  1  0  0  0  0
M  CHG  1   1  -1
M  END
