2,8,10
q = -2, confidence = 1.0

 27 27  0  0  1  0  0  0  0  0999 V2000
   -0.9692   -1.5050   -0.0960 C   0  0  2  0  0  3  0  0  0  0  0  0
   -0.1951   -2.0016    1.0122 C   0  0  0  0  0  3  0  0  0  0  0  0
   -0.4922   -1.9538    2.0674 H   0  0  0  0  0  0  0  0  0  0  0  0
    1.0238   -2.5980    0.5159 C   0  0  0  0  0  0  0  0  0  0  0  0
    1.7989   -3.0842    1.1201 H   0  0  0  0  0  0  0  0  0  0  0  0
    1.0282   -2.4513   -0.9011 C   0  0  0  0  0  0  0  0  0  0  0  0
    1.8103   -2.8032   -1.5848 H   0  0  0  0  0  0  0  0  0  0  0  0
   -0.1864   -1.7681   -1.2815 C   0  0  0  0  0  3  0  0  0  0  0  0
   -0.4786   -1.5191   -2.3094 H   0  0  0  0  0  0  0  0  0  0  0  0
   -0.6330    1.4899   -0.0982 Si  0  0  0  0  0  3  0  0  0  0  0  0
   -0.6071    2.7348    1.3388 C   0  0  0  0  0  0  0  0  0  0  0  0
    0.3412    3.3106    1.3449 H   0  0  0  0  0  0  0  0  0  0  0  0
   -0.6963    2.2229    2.3175 H   0  0  0  0  0  0  0  0  0  0  0  0
   -1.4475    3.4533    1.2422 H   0  0  0  0  0  0  0  0  0  0  0  0
   -0.6292    2.4381   -1.7488 C   0  0  0  0  0  0  0  0  0  0  0  0
   -1.4771    3.1535   -1.7875 H   0  0  0  0  0  0  0  0  0  0  0  0
   -0.7226    1.7426   -2.6071 H   0  0  0  0  0  0  0  0  0  0  0  0
    0.3135    3.0083   -1.8792 H   0  0  0  0  0  0  0  0  0  0  0  0
   -2.3180   -0.1459    0.0346 Si  0  0  0  0  0  0  0  0  0  0  0  0
   -3.1746   -0.3149    1.7157 C   0  0  0  0  0  0  0  0  0  0  0  0
   -3.6678   -1.3043    1.8162 H   0  0  0  0  0  0  0  0  0  0  0  0
   -3.9480    0.4706    1.8375 H   0  0  0  0  0  0  0  0  0  0  0  0
   -2.4497   -0.2006    2.5468 H   0  0  0  0  0  0  0  0  0  0  0  0
   -3.5567   -0.3252   -1.3869 C   0  0  0  0  0  0  0  0  0  0  0  0
   -4.0831   -1.3011   -1.3330 H   0  0  0  0  0  0  0  0  0  0  0  0
   -3.0488   -0.2597   -2.3703 H   0  0  0  0  0  0  0  0  0  0  0  0
   -4.3167    0.4817   -1.3479 H   0  0  0  0  0  0  0  0  0  0  0  0
  1 19  1  1  0  0  0
  1  2  1  0  0  0  0
  2  3  1  0  0  0  0
  4  2  1  0  0  0  0
  4  5  1  0  0  0  0
  6  4  2  0  0  0  0
  7  6  1  0  0  0  0
  8  6  1  0  0  0  0
  8  1  1  0  0  0  0
  9  8  1  0  0  0  0
 10 19  1  0  0  0  0
 10 11  1  0  0  0  0
 11 12  1  0  0  0  0
 11 13  1  0  0  0  0
 14 11  1  0  0  0  0
 15 10  1  0  0  0  0
 16 15  1  0  0  0  0
 17 15  1  0  0  0  0
 18 15  1  0  0  0  0
 19 20  1  0  0  0  0
 20 21  1  0  0  0  0
 20 22  1  0  0  0  0
 20 23  1  0  0  0  0
 24 27  1  0  0  0  0
 24 25  1  0  0  0  0
 24 19  1  0  0  0  0
 26 24  1  0  0  0  0
M  END
