1,2
q = -2.0, confidence = 0.764

 72 72  0  0  0  0  0  0  0  0999 V2000
   -1.5516   -0.4986    0.2307 N   0  0  0  0  0  1  0  0  0  0  0  0
    1.5518   -0.4989    0.2312 N   0  0  0  0  0  1  0  0  0  0  0  0
   -2.8065    0.4111   -0.1126 P   0  0  0  0  0  4  0  0  0  0  0  0
    2.8065    0.4109   -0.1126 P   0  0  0  0  0  4  0  0  0  0  0  0
   -4.2222   -0.6888   -0.7637 C   0  0  0  0  0  0  0  0  0  0  0  0
   -4.3536   -1.9045    0.1721 C   0  0  0  0  0  0  0  0  0  0  0  0
   -5.1054   -2.6032   -0.2512 H   0  0  0  0  0  0  0  0  0  0  0  0
   -4.6835   -1.6325    1.1910 H   0  0  0  0  0  0  0  0  0  0  0  0
   -3.3875   -2.4397    0.2460 H   0  0  0  0  0  0  0  0  0  0  0  0
   -5.5566    0.0598   -0.8896 C   0  0  0  0  0  0  0  0  0  0  0  0
   -6.3083   -0.6071   -1.3633 H   0  0  0  0  0  0  0  0  0  0  0  0
   -5.4758    0.9638   -1.5270 H   0  0  0  0  0  0  0  0  0  0  0  0
   -5.9635    0.3634    0.0950 H   0  0  0  0  0  0  0  0  0  0  0  0
   -3.7678   -1.2167   -2.1418 C   0  0  0  0  0  0  0  0  0  0  0  0
   -4.4506   -2.0353   -2.4518 H   0  0  0  0  0  0  0  0  0  0  0  0
   -2.7405   -1.6351   -2.0968 H   0  0  0  0  0  0  0  0  0  0  0  0
   -3.8127   -0.4425   -2.9331 H   0  0  0  0  0  0  0  0  0  0  0  0
   -3.2783    1.4701    1.4000 C   0  0  0  0  0  0  0  0  0  0  0  0
   -4.1741    2.6653    1.0376 C   0  0  0  0  0  0  0  0  0  0  0  0
   -4.4367    3.2147    1.9667 H   0  0  0  0  0  0  0  0  0  0  0  0
   -5.1231    2.3626    0.5550 H   0  0  0  0  0  0  0  0  0  0  0  0
   -3.6573    3.3840    0.3735 H   0  0  0  0  0  0  0  0  0  0  0  0
   -1.9392    1.9699    1.9797 C   0  0  0  0  0  0  0  0  0  0  0  0
   -2.1445    2.5673    2.8936 H   0  0  0  0  0  0  0  0  0  0  0  0
   -1.3854    2.6097    1.2666 H   0  0  0  0  0  0  0  0  0  0  0  0
   -1.2865    1.1168    2.2449 H   0  0  0  0  0  0  0  0  0  0  0  0
   -3.9657    0.5885    2.4569 C   0  0  0  0  0  0  0  0  0  0  0  0
   -4.0645    1.1680    3.3993 H   0  0  0  0  0  0  0  0  0  0  0  0
   -3.3649   -0.3151    2.6799 H   0  0  0  0  0  0  0  0  0  0  0  0
   -4.9840    0.2749    2.1540 H   0  0  0  0  0  0  0  0  0  0  0  0
   -2.5083    1.6186   -1.5235 C   0  0  0  0  0  0  0  0  0  0  0  0
   -2.4662    0.9656   -2.4158 H   0  0  0  0  0  0  0  0  0  0  0  0
   -3.3926    2.2766   -1.6315 H   0  0  0  0  0  0  0  0  0  0  0  0
   -1.2284    2.3990   -1.4108 C   0  0  0  0  0  0  0  0  0  0  0  0
   -1.2161    3.7869   -1.1626 C   0  0  0  0  0  0  0  0  0  0  0  0
   -2.1670    4.3355   -1.0744 H   0  0  0  0  0  0  0  0  0  0  0  0
    0.0003    4.4760   -1.0488 C   0  0  0  0  0  0  0  0  0  0  0  0
    0.0004    5.5625   -0.8738 H   0  0  0  0  0  0  0  0  0  0  0  0
    1.2165    3.7866   -1.1628 C   0  0  0  0  0  0  0  0  0  0  0  0
    2.1675    4.3351   -1.0748 H   0  0  0  0  0  0  0  0  0  0  0  0
    1.2285    2.3987   -1.4110 C   0  0  0  0  0  0  0  0  0  0  0  0
   -0.0000    1.7249   -1.5512 C   0  0  0  0  0  0  0  0  0  0  0  0
   -0.0002    0.6471   -1.7678 H   0  0  0  0  0  0  0  0  0  0  0  0
    2.5082    1.6180   -1.5237 C   0  0  0  0  0  0  0  0  0  0  0  0
    3.3926    2.2758   -1.6321 H   0  0  0  0  0  0  0  0  0  0  0  0
    2.4657    0.9647   -2.4158 H   0  0  0  0  0  0  0  0  0  0  0  0
    3.2785    1.4702    1.3997 C   0  0  0  0  0  0  0  0  0  0  0  0
    3.9658    0.5889    2.4568 C   0  0  0  0  0  0  0  0  0  0  0  0
    4.0648    1.1686    3.3990 H   0  0  0  0  0  0  0  0  0  0  0  0
    4.9840    0.2751    2.1540 H   0  0  0  0  0  0  0  0  0  0  0  0
    3.3649   -0.3145    2.6801 H   0  0  0  0  0  0  0  0  0  0  0  0
    4.1744    2.6653    1.0369 C   0  0  0  0  0  0  0  0  0  0  0  0
    4.4370    3.2149    1.9659 H   0  0  0  0  0  0  0  0  0  0  0  0
    3.6577    3.3839    0.3727 H   0  0  0  0  0  0  0  0  0  0  0  0
    5.1234    2.3623    0.5545 H   0  0  0  0  0  0  0  0  0  0  0  0
    1.9395    1.9704    1.9794 C   0  0  0  0  0  0  0  0  0  0  0  0
    2.1448    2.5679    2.8931 H   0  0  0  0  0  0  0  0  0  0  0  0
    1.2866    1.1174    2.2448 H   0  0  0  0  0  0  0  0  0  0  0  0
    1.3857    2.6101    1.2662 H   0  0  0  0  0  0  0  0  0  0  0  0
    4.2222   -0.6892   -0.7634 C   0  0  0  0  0  0  0  0  0  0  0  0
    5.5567    0.0592   -0.8894 C   0  0  0  0  0  0  0  0  0  0  0  0
    6.3083   -0.6078   -1.3630 H   0  0  0  0  0  0  0  0  0  0  0  0
    5.9636    0.3629    0.0952 H   0  0  0  0  0  0  0  0  0  0  0  0
    5.4760    0.9632   -1.5269 H   0  0  0  0  0  0  0  0  0  0  0  0
    3.7678   -1.2172   -2.1416 C   0  0  0  0  0  0  0  0  0  0  0  0
    4.4505   -2.0359   -2.4513 H   0  0  0  0  0  0  0  0  0  0  0  0
    3.8128   -0.4431   -2.9329 H   0  0  0  0  0  0  0  0  0  0  0  0
    2.7404   -1.6355   -2.0966 H   0  0  0  0  0  0  0  0  0  0  0  0
    4.3534   -1.9047    0.1726 C   0  0  0  0  0  0  0  0  0  0  0  0
    5.1052   -2.6035   -0.2505 H   0  0  0  0  0  0  0  0  0  0  0  0
    3.3872   -2.4398    0.2464 H   0  0  0  0  0  0  0  0  0  0  0  0
    4.6831   -1.6326    1.1914 H   0  0  0  0  0  0  0  0  0  0  0  0
  3  1  1  0  0  0  0
  3 18  1  0  0  0  0
  4  2  1  0  0  0  0
  4 47  1  0  0  0  0
  5  3  1  0  0  0  0
  5  6  1  0  0  0  0
  6  9  1  0  0  0  0
  6  8  1  0  0  0  0
  7  6  1  0  0  0  0
 10  5  1  0  0  0  0
 10 13  1  0  0  0  0
 11 10  1  0  0  0  0
 12 10  1  0  0  0  0
 14 16  1  0  0  0  0
 14  5  1  0  0  0  0
 15 14  1  0  0  0  0
 17 14  1  0  0  0  0
 18 23  1  0  0  0  0
 18 27  1  0  0  0  0
 19 18  1  0  0  0  0
 19 20  1  0  0  0  0
 21 19  1  0  0  0  0
 22 19  1  0  0  0  0
 23 26  1  0  0  0  0
 23 24  1  0  0  0  0
 25 23  1  0  0  0  0
 27 29  1  0  0  0  0
 27 28  1  0  0  0  0
 30 27  1  0  0  0  0
 31 34  1  0  0  0  0
 31  3  1  0  0  0  0
 32 31  1  0  0  0  0
 33 31  1  0  0  0  0
 34 35  1  0  0  0  0
 35 36  1  0  0  0  0
 35 37  2  0  0  0  0
 37 38  1  0  0  0  0
 39 40  1  0  0  0  0
 39 37  1  0  0  0  0
 41 39  2  0  0  0  0
 42 41  1  0  0  0  0
 42 34  2  0  0  0  0
 43 42  1  0  0  0  0
 44 41  1  0  0  0  0
 44  4  1  0  0  0  0
 45 44  1  0  0  0  0
 46 44  1  0  0  0  0
 47 56  1  0  0  0  0
 47 48  1  0  0  0  0
 48 51  1  0  0  0  0
 48 49  1  0  0  0  0
 50 48  1  0  0  0  0
 52 47  1  0  0  0  0
 52 53  1  0  0  0  0
 54 52  1  0  0  0  0
 55 52  1  0  0  0  0
 56 58  1  0  0  0  0
 56 57  1  0  0  0  0
 59 56  1  0  0  0  0
 60  4  1  0  0  0  0
 60 69  1  0  0  0  0
 61 60  1  0  0  0  0
 61 63  1  0  0  0  0
 62 61  1  0  0  0  0
 64 61  1  0  0  0  0
 65 68  1  0  0  0  0
 65 60  1  0  0  0  0
 66 65  1  0  0  0  0
 67 65  1  0  0  0  0
 69 71  1  0  0  0  0
 69 72  1  0  0  0  0
 70 69  1  0  0  0  0
M  END
