1,2
q = 0.0, confidence = 0.532

 26 25  0  0  0  0  0  0  0  0999 V2000
   -0.8211    1.3195   -0.1271 N   0  0  0  0  0  1  0  0  0  0  0  0
   -0.8211   -1.3193    0.1284 N   0  0  0  0  0  1  0  0  0  0  0  0
   -2.1757    1.7745   -0.3069 C   0  0  0  0  0  0  0  0  0  0  0  0
   -3.1047    0.5446   -0.5460 C   0  0  0  0  0  0  0  0  0  0  0  0
   -4.1345    0.9361   -0.6848 H   0  0  0  0  0  0  0  0  0  0  0  0
   -2.8121    0.1064   -1.5226 H   0  0  0  0  0  0  0  0  0  0  0  0
   -3.1050   -0.5444    0.5455 C   0  0  0  0  0  0  0  0  0  0  0  0
   -4.1350   -0.9359    0.6836 H   0  0  0  0  0  0  0  0  0  0  0  0
   -2.8132   -0.1061    1.5223 H   0  0  0  0  0  0  0  0  0  0  0  0
   -2.1759   -1.7743    0.3070 C   0  0  0  0  0  0  0  0  0  0  0  0
   -2.2051    2.6781   -1.5568 C   0  0  0  0  0  0  0  0  0  0  0  0
   -1.5610    3.5669   -1.4075 H   0  0  0  0  0  0  0  0  0  0  0  0
   -3.2391    3.0213   -1.7629 H   0  0  0  0  0  0  0  0  0  0  0  0
   -1.8282    2.1228   -2.4380 H   0  0  0  0  0  0  0  0  0  0  0  0
   -2.5881    2.5765    0.9433 C   0  0  0  0  0  0  0  0  0  0  0  0
   -2.5254    1.9548    1.8572 H   0  0  0  0  0  0  0  0  0  0  0  0
   -3.6259    2.9508    0.8343 H   0  0  0  0  0  0  0  0  0  0  0  0
   -1.9123    3.4431    1.0807 H   0  0  0  0  0  0  0  0  0  0  0  0
   -2.5872   -2.5760   -0.9437 C   0  0  0  0  0  0  0  0  0  0  0  0
   -2.5234   -1.9544   -1.8575 H   0  0  0  0  0  0  0  0  0  0  0  0
   -3.6253   -2.9501   -0.8358 H   0  0  0  0  0  0  0  0  0  0  0  0
   -1.9115   -3.4428   -1.0804 H   0  0  0  0  0  0  0  0  0  0  0  0
   -2.2065   -2.6780    1.5568 C   0  0  0  0  0  0  0  0  0  0  0  0
   -1.5621   -3.5667    1.4080 H   0  0  0  0  0  0  0  0  0  0  0  0
   -3.2406   -3.0214    1.7618 H   0  0  0  0  0  0  0  0  0  0  0  0
   -1.8305   -2.1228    2.4384 H   0  0  0  0  0  0  0  0  0  0  0  0
  2 10  1  0  0  0  0
  3  1  1  0  0  0  0
  3 15  1  0  0  0  0
  4  3  1  0  0  0  0
  4  7  1  0  0  0  0
  5  4  1  0  0  0  0
  6  4  1  0  0  0  0
  7  8  1  0  0  0  0
  7  9  1  0  0  0  0
 10  7  1  0  0  0  0
 10 23  1  0  0  0  0
 11 12  1  0  0  0  0
 11  3  1  0  0  0  0
 13 11  1  0  0  0  0
 14 11  1  0  0  0  0
 15 18  1  0  0  0  0
 15 16  1  0  0  0  0
 17 15  1  0  0  0  0
 19 21  1  0  0  0  0
 19 10  1  0  0  0  0
 20 19  1  0  0  0  0
 22 19  1  0  0  0  0
 23 25  1  0  0  0  0
 23 26  1  0  0  0  0
 24 23  1  0  0  0  0
M  END
