1,3
q = -1.0

  9  8  0  0  1  0  0  0  0  0999 V2000
   -1.3625   -1.2410   -0.0829 N   0  0  0  0  0  2  0  0  0  0  0  0
   -1.2461   -2.2640   -0.0536 H   0  0  0  0  0  0  0  0  0  0  0  0
   -1.3700    1.2931   -0.2853 N   0  0  0  0  0  2  0  0  0  0  0  0
   -4.7351   -2.1148    0.4644 N   0  0  0  0  0  0  0  0  0  0  0  0
   -4.7239    2.1646    0.1933 N   0  0  0  0  0  0  0  0  0  0  0  0
   -2.5612   -0.7357    0.0712 C   0  0  2  0  0  3  0  0  0  0  0  0
   -3.7431   -1.5111    0.2832 C   0  0  0  0  0  0  0  0  0  0  0  0
   -2.5214    0.7650   -0.0337 C   0  0  0  0  0  0  0  0  0  0  0  0
   -3.7391    1.5351    0.0878 C   0  0  0  0  0  0  0  0  0  0  0  0
  1  2  1  0  0  0  0
  1  6  1  0  0  0  0
  3  8  2  0  0  0  0
  6  7  1  6  0  0  0
  7  4  3  0  0  0  0
  8  6  1  0  0  0  0
  8  9  1  0  0  0  0
  9  5  3  0  0  0  0
M  END
