1,7
q = -1.0, confidence = 0.028

  9  8  0  0  0  0  0  0  0  0999 V2000
    1.3626    1.2411   -0.0829 N   0  0  0  0  0  2  0  0  0  0  0  0
    1.2463    2.2642   -0.0536 H   0  0  0  0  0  0  0  0  0  0  0  0
    2.5612    0.7357    0.0712 C   0  0  0  0  0  0  0  0  0  0  0  0
    3.7432    1.5110    0.2833 C   0  0  0  0  0  0  0  0  0  0  0  0
    4.7354    2.1145    0.4645 N   0  0  0  0  0  0  0  0  0  0  0  0
    2.5214   -0.7649   -0.0338 C   0  0  0  0  0  0  0  0  0  0  0  0
    1.3699   -1.2930   -0.2854 N   0  0  0  0  0  1  0  0  0  0  0  0
    3.7390   -1.5352    0.0878 C   0  0  0  0  0  0  0  0  0  0  0  0
    4.7237   -2.1648    0.1933 N   0  0  0  0  0  0  0  0  0  0  0  0
  1  2  1  0  0  0  0
  1  3  1  0  0  0  0
  3  4  1  0  0  0  0
  4  5  3  0  0  0  0
  6  3  2  0  0  0  0
  6  8  1  0  0  0  0
  7  6  1  0  0  0  0
  8  9  3  0  0  0  0
M  END
