2,3
q = -2.0, confidence = 0.608

 33 33  0  0  0  0  0  0  0  0999 V2000
   -2.0971    0.9642   -0.1013 P   0  0  0  0  0  0  0  0  0  0  0  0
    0.0749   -0.1017   -1.4356 N   0  0  0  0  0  2  0  0  0  0  0  0
    0.0331    0.0332    1.3965 N   0  0  0  0  0  2  0  0  0  0  0  0
   -3.8130    0.2856   -0.0560 C   0  0  0  0  0  0  0  0  0  0  0  0
   -4.8840    1.2291   -0.0686 C   0  0  0  0  0  0  0  0  0  0  0  0
   -6.2086    0.7667    0.0002 C   0  0  0  0  0  0  0  0  0  0  0  0
   -6.5201   -0.6032    0.0865 C   0  0  0  0  0  0  0  0  0  0  0  0
   -5.4541   -1.5172    0.0976 C   0  0  0  0  0  0  0  0  0  0  0  0
   -4.1098   -1.1042    0.0236 C   0  0  0  0  0  0  0  0  0  0  0  0
   -4.6295    2.7162   -0.1482 C   0  0  0  0  0  0  0  0  0  0  0  0
   -7.9538   -1.0634    0.1628 C   0  0  0  0  0  0  0  0  0  0  0  0
   -3.0270   -2.1494    0.0009 C   0  0  0  0  0  0  0  0  0  0  0  0
   -1.2094    0.2924    1.4336 C   0  0  0  0  0  0  0  0  0  0  0  0
   -2.0636    0.2599    2.6844 C   0  0  0  0  0  0  0  0  0  0  0  0
   -1.1676    0.1496   -1.5310 C   0  0  0  0  0  0  0  0  0  0  0  0
   -1.9748    0.0271   -2.8076 C   0  0  0  0  0  0  0  0  0  0  0  0
   -7.0280    1.5045   -0.0092 H   0  0  0  0  0  0  0  0  0  0  0  0
   -5.6730   -2.5958    0.1653 H   0  0  0  0  0  0  0  0  0  0  0  0
   -5.5819    3.2810   -0.1626 H   0  0  0  0  0  0  0  0  0  0  0  0
   -4.0256    3.0744    0.7113 H   0  0  0  0  0  0  0  0  0  0  0  0
   -4.0505    2.9842   -1.0560 H   0  0  0  0  0  0  0  0  0  0  0  0
   -8.5208   -0.7664   -0.7446 H   0  0  0  0  0  0  0  0  0  0  0  0
   -8.0261   -2.1638    0.2614 H   0  0  0  0  0  0  0  0  0  0  0  0
   -8.4786   -0.6083    1.0287 H   0  0  0  0  0  0  0  0  0  0  0  0
   -3.4074   -3.1320    0.3412 H   0  0  0  0  0  0  0  0  0  0  0  0
   -2.6283   -2.2855   -1.0253 H   0  0  0  0  0  0  0  0  0  0  0  0
   -2.1564   -1.8680    0.6243 H   0  0  0  0  0  0  0  0  0  0  0  0
   -2.8704   -0.4973    2.5965 H   0  0  0  0  0  0  0  0  0  0  0  0
   -1.4309    0.0261    3.5624 H   0  0  0  0  0  0  0  0  0  0  0  0
   -2.5668    1.2376    2.8388 H   0  0  0  0  0  0  0  0  0  0  0  0
   -2.3214    1.0295   -3.1380 H   0  0  0  0  0  0  0  0  0  0  0  0
   -1.3471   -0.4175   -3.6044 H   0  0  0  0  0  0  0  0  0  0  0  0
   -2.8865   -0.5872   -2.6563 H   0  0  0  0  0  0  0  0  0  0  0  0
  1  4  1  0  0  0  0
  1 13  1  0  0  0  0
  3 13  2  0  0  0  0
  4  9  1  0  0  0  0
  5  4  2  0  0  0  0
  5  6  1  0  0  0  0
  6  7  2  0  0  0  0
  7  8  1  0  0  0  0
  7 11  1  0  0  0  0
  8 18  1  0  0  0  0
  9  8  2  0  0  0  0
 10  5  1  0  0  0  0
 10 20  1  0  0  0  0
 11 23  1  0  0  0  0
 11 24  1  0  0  0  0
 12  9  1  0  0  0  0
 12 25  1  0  0  0  0
 12 27  1  0  0  0  0
 13 14  1  0  0  0  0
 14 30  1  0  0  0  0
 14 29  1  0  0  0  0
 15  2  2  0  0  0  0
 15  1  1  0  0  0  0
 16 33  1  0  0  0  0
 16 15  1  0  0  0  0
 17  6  1  0  0  0  0
 19 10  1  0  0  0  0
 21 10  1  0  0  0  0
 22 11  1  0  0  0  0
 26 12  1  0  0  0  0
 28 14  1  0  0  0  0
 31 16  1  0  0  0  0
 32 16  1  0  0  0  0
M  END
