1,3
q = -1.0

 12 12  0  0  0  0  0  0  0  0999 V2000
   -0.0370    0.9060   -1.7082 N   0  0  0  0  0  1  0  0  0  0  0  0
    0.0901    2.1448   -1.9247 N   0  0  0  0  0  0  0  0  0  0  0  0
    0.2111    1.9937    0.3980 N   0  0  0  0  0  2  0  0  0  0  0  0
    0.2468    2.8063   -0.7109 C   0  0  0  0  0  0  0  0  0  0  0  0
    0.4288    4.1993   -0.6187 C   0  0  0  0  0  0  0  0  0  0  0  0
    0.4514    4.7816   -1.5492 H   0  0  0  0  0  0  0  0  0  0  0  0
    0.5754    4.7743    0.6426 C   0  0  0  0  0  0  0  0  0  0  0  0
    0.7244    5.8596    0.7473 H   0  0  0  0  0  0  0  0  0  0  0  0
    0.5333    3.9418    1.7801 C   0  0  0  0  0  0  0  0  0  0  0  0
    0.6429    4.3522    2.7938 H   0  0  0  0  0  0  0  0  0  0  0  0
    0.3495    2.5678    1.6136 C   0  0  0  0  0  0  0  0  0  0  0  0
    0.2976    1.8676    2.4649 H   0  0  0  0  0  0  0  0  0  0  0  0
  2  1  1  0  0  0  0
  2  4  2  0  0  0  0
  3 11  1  0  0  0  0
  4  5  1  0  0  0  0
  4  3  1  0  0  0  0
  5  7  2  0  0  0  0
  6  5  1  0  0  0  0
  7  8  1  0  0  0  0
  7  9  1  0  0  0  0
  9 10  1  0  0  0  0
 11  9  2  0  0  0  0
 11 12  1  0  0  0  0
M  END
