3,4
q = -2.0, confidence = 0.8

 65 64  0  0  0  0  0  0  0  0999 V2000
   -2.3020    0.0490   -0.2322 P   0  0  0  0  0  4  0  0  0  0  0  0
    2.2704    0.2186   -0.3868 P   0  0  0  0  0  4  0  0  0  0  0  0
   -1.6761   -0.8642    0.9200 N   0  0  0  0  0  1  0  0  0  0  0  0
    1.2864   -0.1042    0.8219 N   0  0  0  0  0  1  0  0  0  0  0  0
   -1.0119    0.8050   -1.3354 C   0  0  0  0  0  0  0  0  0  0  0  0
   -1.4750    1.4835   -2.0819 H   0  0  0  0  0  0  0  0  0  0  0  0
   -0.4522    1.4353   -0.6187 H   0  0  0  0  0  0  0  0  0  0  0  0
   -0.0291   -0.1859   -1.9798 C   0  0  0  0  0  0  0  0  0  0  0  0
   -0.0178   -1.1241   -1.3884 H   0  0  0  0  0  0  0  0  0  0  0  0
   -0.3677   -0.4552   -3.0019 H   0  0  0  0  0  0  0  0  0  0  0  0
    1.4019    0.3746   -2.0445 C   0  0  0  0  0  0  0  0  0  0  0  0
    1.3886    1.4415   -2.3460 H   0  0  0  0  0  0  0  0  0  0  0  0
    2.0117   -0.1552   -2.8037 H   0  0  0  0  0  0  0  0  0  0  0  0
   -3.1791    1.5577    0.5452 C   0  0  0  0  0  0  0  0  0  0  0  0
   -2.0653    2.4867    1.0728 C   0  0  0  0  0  0  0  0  0  0  0  0
   -2.5194    3.2507    1.7376 H   0  0  0  0  0  0  0  0  0  0  0  0
   -1.5397    3.0267    0.2610 H   0  0  0  0  0  0  0  0  0  0  0  0
   -1.3186    1.9217    1.6672 H   0  0  0  0  0  0  0  0  0  0  0  0
   -3.9846    1.0544    1.7574 C   0  0  0  0  0  0  0  0  0  0  0  0
   -4.3692    1.9272    2.3260 H   0  0  0  0  0  0  0  0  0  0  0  0
   -3.3382    0.4508    2.4240 H   0  0  0  0  0  0  0  0  0  0  0  0
   -4.8520    0.4350    1.4648 H   0  0  0  0  0  0  0  0  0  0  0  0
   -4.0739    2.3278   -0.4361 C   0  0  0  0  0  0  0  0  0  0  0  0
   -4.4686    3.2382    0.0638 H   0  0  0  0  0  0  0  0  0  0  0  0
   -4.9477    1.7335   -0.7669 H   0  0  0  0  0  0  0  0  0  0  0  0
   -3.5204    2.6644   -1.3365 H   0  0  0  0  0  0  0  0  0  0  0  0
   -3.4533   -0.9846   -1.3424 C   0  0  0  0  0  0  0  0  0  0  0  0
   -4.7597   -1.2852   -0.5874 C   0  0  0  0  0  0  0  0  0  0  0  0
   -5.3478   -2.0341   -1.1592 H   0  0  0  0  0  0  0  0  0  0  0  0
   -5.3967   -0.3877   -0.4657 H   0  0  0  0  0  0  0  0  0  0  0  0
   -4.5505   -1.7099    0.4143 H   0  0  0  0  0  0  0  0  0  0  0  0
   -3.7441   -0.3042   -2.6892 C   0  0  0  0  0  0  0  0  0  0  0  0
   -4.4027   -0.9617   -3.2965 H   0  0  0  0  0  0  0  0  0  0  0  0
   -2.8196   -0.1387   -3.2777 H   0  0  0  0  0  0  0  0  0  0  0  0
   -4.2614    0.6675   -2.5776 H   0  0  0  0  0  0  0  0  0  0  0  0
   -2.7191   -2.3206   -1.5784 C   0  0  0  0  0  0  0  0  0  0  0  0
   -3.4014   -3.0203   -2.1062 H   0  0  0  0  0  0  0  0  0  0  0  0
   -2.4088   -2.7726   -0.6163 H   0  0  0  0  0  0  0  0  0  0  0  0
   -1.8161   -2.1976   -2.2058 H   0  0  0  0  0  0  0  0  0  0  0  0
    3.5030   -1.2179   -0.6218 C   0  0  0  0  0  0  0  0  0  0  0  0
    2.6578   -2.4027   -1.1338 C   0  0  0  0  0  0  0  0  0  0  0  0
    3.2949   -3.3115   -1.1656 H   0  0  0  0  0  0  0  0  0  0  0  0
    2.2659   -2.2403   -2.1575 H   0  0  0  0  0  0  0  0  0  0  0  0
    1.8088   -2.6080   -0.4523 H   0  0  0  0  0  0  0  0  0  0  0  0
    4.6312   -0.9048   -1.6132 C   0  0  0  0  0  0  0  0  0  0  0  0
    5.2104   -1.8312   -1.8143 H   0  0  0  0  0  0  0  0  0  0  0  0
    5.3423   -0.1567   -1.2120 H   0  0  0  0  0  0  0  0  0  0  0  0
    4.2545   -0.5370   -2.5898 H   0  0  0  0  0  0  0  0  0  0  0  0
    4.0704   -1.5966    0.7571 C   0  0  0  0  0  0  0  0  0  0  0  0
    4.6284   -2.5527    0.6721 H   0  0  0  0  0  0  0  0  0  0  0  0
    3.2505   -1.7326    1.4886 H   0  0  0  0  0  0  0  0  0  0  0  0
    4.7673   -0.8341    1.1516 H   0  0  0  0  0  0  0  0  0  0  0  0
    3.1003    1.9083   -0.1109 C   0  0  0  0  0  0  0  0  0  0  0  0
    3.8865    2.4237   -1.3260 C   0  0  0  0  0  0  0  0  0  0  0  0
    4.2563    3.4489   -1.1103 H   0  0  0  0  0  0  0  0  0  0  0  0
    3.2609    2.4913   -2.2385 H   0  0  0  0  0  0  0  0  0  0  0  0
    4.7683    1.7993   -1.5603 H   0  0  0  0  0  0  0  0  0  0  0  0
    4.0072    1.8150    1.1276 C   0  0  0  0  0  0  0  0  0  0  0  0
    4.3118    2.8353    1.4426 H   0  0  0  0  0  0  0  0  0  0  0  0
    4.9325    1.2416    0.9231 H   0  0  0  0  0  0  0  0  0  0  0  0
    3.4727    1.3367    1.9723 H   0  0  0  0  0  0  0  0  0  0  0  0
    1.9360    2.8696    0.2018 C   0  0  0  0  0  0  0  0  0  0  0  0
    2.3462    3.8688    0.4591 H   0  0  0  0  0  0  0  0  0  0  0  0
    1.3356    2.4968    1.0539 H   0  0  0  0  0  0  0  0  0  0  0  0
    1.2596    3.0046   -0.6671 H   0  0  0  0  0  0  0  0  0  0  0  0
  1 14  1  0  0  0  0
  1  3  1  0  0  0  0
  2 53  1  0  0  0  0
  2  4  1  0  0  0  0
  5  7  1  0  0  0  0
  5  1  1  0  0  0  0
  6  5  1  0  0  0  0
  8  9  1  0  0  0  0
  8  5  1  0  0  0  0
 10  8  1  0  0  0  0
 11  8  1  0  0  0  0
 11  2  1  0  0  0  0
 12 11  1  0  0  0  0
 13 11  1  0  0  0  0
 14 15  1  0  0  0  0
 14 19  1  0  0  0  0
 15 18  1  0  0  0  0
 15 16  1  0  0  0  0
 17 15  1  0  0  0  0
 19 20  1  0  0  0  0
 19 21  1  0  0  0  0
 22 19  1  0  0  0  0
 23 24  1  0  0  0  0
 23 14  1  0  0  0  0
 25 23  1  0  0  0  0
 26 23  1  0  0  0  0
 27 28  1  0  0  0  0
 27  1  1  0  0  0  0
 28 30  1  0  0  0  0
 28 31  1  0  0  0  0
 29 28  1  0  0  0  0
 32 35  1  0  0  0  0
 32 27  1  0  0  0  0
 33 32  1  0  0  0  0
 34 32  1  0  0  0  0
 36 27  1  0  0  0  0
 36 38  1  0  0  0  0
 37 36  1  0  0  0  0
 39 36  1  0  0  0  0
 40  2  1  0  0  0  0
 40 49  1  0  0  0  0
 41 40  1  0  0  0  0
 41 44  1  0  0  0  0
 42 41  1  0  0  0  0
 43 41  1  0  0  0  0
 45 47  1  0  0  0  0
 45 40  1  0  0  0  0
 46 45  1  0  0  0  0
 48 45  1  0  0  0  0
 49 52  1  0  0  0  0
 49 51  1  0  0  0  0
 50 49  1  0  0  0  0
 53 62  1  0  0  0  0
 53 58  1  0  0  0  0
 54 55  1  0  0  0  0
 54 53  1  0  0  0  0
 56 54  1  0  0  0  0
 57 54  1  0  0  0  0
 58 59  1  0  0  0  0
 58 61  1  0  0  0  0
 60 58  1  0  0  0  0
 62 63  1  0  0  0  0
 62 64  1  0  0  0  0
 65 62  1  0  0  0  0
M  END
