1,2
q = -2.0, confidence = 0.628

 13 13  0  0  0  0  0  0  0  0999 V2000
    1.2702    0.5727    0.7520 N   0  0  0  0  0  0  0  0  0  0  0  0
    0.4125    0.7146   -1.7549 N   0  0  0  0  0  1  0  0  0  0  0  0
    3.1488    0.5739    2.0036 N   0  0  0  0  0  0  0  0  0  0  0  0
    2.0152    1.6745    0.3713 C   0  0  0  0  0  0  0  0  0  0  0  0
    1.5847    2.5716   -0.7171 C   0  0  0  0  0  0  0  0  0  0  0  0
    1.2607    1.6254   -1.9121 C   0  0  0  0  0  3  0  0  0  0  0  0
    1.9947   -0.0585    1.7253 C   0  0  0  0  0  3  0  0  0  0  0  0
    3.1917    1.6320    1.1630 C   0  0  0  0  0  0  0  0  0  0  0  0
    0.6434    3.1193   -0.4964 H   0  0  0  0  0  0  0  0  0  0  0  0
    2.3702    3.3019   -0.9818 H   0  0  0  0  0  0  0  0  0  0  0  0
    1.8502    1.7125   -2.8484 H   0  0  0  0  0  0  0  0  0  0  0  0
    1.6628   -0.9936    2.1927 H   0  0  0  0  0  0  0  0  0  0  0  0
    4.0191    2.3549    1.1645 H   0  0  0  0  0  0  0  0  0  0  0  0
  1  7  1  0  0  0  0
  4  1  2  0  0  0  0
  4  8  1  0  0  0  0
  5  9  1  0  0  0  0
  5  4  1  0  0  0  0
  6  2  1  0  0  0  0
  6  5  1  0  0  0  0
  7  3  1  0  0  0  0
  7 12  1  0  0  0  0
  8 13  1  0  0  0  0
  8  3  2  0  0  0  0
 10  5  1  0  0  0  0
 11  6  1  0  0  0  0
M  END
