1,2
q = 0.0, confidence = 0.884

 38 40  0  0  1  0  0  0  0  0999 V2000
   -1.3492    0.5730    0.0106 N   0  0  0  0  0  2  0  0  0  0  0  0
    1.2706    0.4988    0.6674 N   0  0  0  0  0  2  0  0  0  0  0  0
   -1.4795   -0.6765    0.2259 C   0  0  0  0  0  0  0  0  0  0  0  0
   -2.8257   -1.3159    0.0210 C   0  0  0  0  0  0  0  0  0  0  0  0
   -2.9884   -2.6661   -0.3614 C   0  0  0  0  0  0  0  0  0  0  0  0
   -2.1084   -3.3134   -0.4915 H   0  0  0  0  0  0  0  0  0  0  0  0
   -4.2650   -3.1939   -0.6072 C   0  0  0  0  0  0  0  0  0  0  0  0
   -4.3694   -4.2451   -0.9169 H   0  0  0  0  0  0  0  0  0  0  0  0
   -5.4039   -2.3873   -0.4620 C   0  0  0  0  0  0  0  0  0  0  0  0
   -6.4053   -2.8049   -0.6472 H   0  0  0  0  0  0  0  0  0  0  0  0
   -5.2560   -1.0418   -0.0820 C   0  0  0  0  0  0  0  0  0  0  0  0
   -6.1443   -0.4017    0.0340 H   0  0  0  0  0  0  0  0  0  0  0  0
   -3.9813   -0.5130    0.1479 C   0  0  0  0  0  0  0  0  0  0  0  0
   -3.8424    0.5422    0.4271 H   0  0  0  0  0  0  0  0  0  0  0  0
   -0.3130   -1.6027    0.6341 C   0  0  2  0  0  0  0  0  0  0  0  0
   -0.2538   -2.3540   -0.1847 H   0  0  0  0  0  0  0  0  0  0  0  0
   -0.6549   -2.3568    1.9381 C   0  0  0  0  0  0  0  0  0  0  0  0
   -1.5364   -3.0153    1.8185 H   0  0  0  0  0  0  0  0  0  0  0  0
   -0.8837   -1.6450    2.7559 H   0  0  0  0  0  0  0  0  0  0  0  0
    0.2001   -2.9774    2.2721 H   0  0  0  0  0  0  0  0  0  0  0  0
    1.0939   -0.9539    0.7154 C   0  0  1  0  0  0  0  0  0  0  0  0
    2.2051   -1.7788    0.1059 C   0  0  0  0  0  0  0  0  0  0  0  0
    2.1528   -3.1891    0.0422 C   0  0  0  0  0  0  0  0  0  0  0  0
    1.2851   -3.7302    0.4469 H   0  0  0  0  0  0  0  0  0  0  0  0
    3.2028   -3.9280   -0.5249 C   0  0  0  0  0  0  0  0  0  0  0  0
    3.1367   -5.0265   -0.5580 H   0  0  0  0  0  0  0  0  0  0  0  0
    4.3303   -3.2756   -1.0461 C   0  0  0  0  0  0  0  0  0  0  0  0
    5.1510   -3.8559   -1.4944 H   0  0  0  0  0  0  0  0  0  0  0  0
    4.3965   -1.8742   -0.9914 C   0  0  0  0  0  0  0  0  0  0  0  0
    5.2716   -1.3471   -1.4024 H   0  0  0  0  0  0  0  0  0  0  0  0
    3.3479   -1.1394   -0.4218 C   0  0  0  0  0  0  0  0  0  0  0  0
    3.3796   -0.0413   -0.3742 H   0  0  0  0  0  0  0  0  0  0  0  0
    1.3887   -0.1151    1.9546 C   0  0  1  0  0  0  0  0  0  0  0  0
    0.5217   -0.0033    2.6441 H   0  0  0  0  0  0  0  0  0  0  0  0
    2.7118   -0.1359    2.6915 C   0  0  0  0  0  0  0  0  0  0  0  0
    2.6895   -0.8847    3.5100 H   0  0  0  0  0  0  0  0  0  0  0  0
    2.9158    0.8535    3.1532 H   0  0  0  0  0  0  0  0  0  0  0  0
    3.5574   -0.3776    2.0210 H   0  0  0  0  0  0  0  0  0  0  0  0
  1  3  2  0  0  0  0
  2 21  1  0  0  0  0
  2 33  1  0  0  0  0
  3 15  1  0  0  0  0
  4 13  1  0  0  0  0
  4  3  1  0  0  0  0
  5  4  2  0  0  0  0
  6  5  1  0  0  0  0
  7  9  2  0  0  0  0
  7  5  1  0  0  0  0
  8  7  1  0  0  0  0
  9 11  1  0  0  0  0
 10  9  1  0  0  0  0
 11 12  1  0  0  0  0
 11 13  2  0  0  0  0
 13 14  1  0  0  0  0
 15 16  1  6  0  0  0
 15 17  1  0  0  0  0
 17 20  1  0  0  0  0
 17 19  1  0  0  0  0
 18 17  1  0  0  0  0
 21 15  1  6  0  0  0
 21 33  1  0  0  0  0
 22 21  1  0  0  0  0
 23 22  1  0  0  0  0
 23 24  1  0  0  0  0
 25 23  2  0  0  0  0
 26 25  1  0  0  0  0
 27 29  2  0  0  0  0
 27 25  1  0  0  0  0
 28 27  1  0  0  0  0
 29 31  1  0  0  0  0
 30 29  1  0  0  0  0
 31 32  1  0  0  0  0
 31 22  2  0  0  0  0
 33 34  1  1  0  0  0
 33 35  1  0  0  0  0
 35 37  1  0  0  0  0
 35 36  1  0  0  0  0
 38 35  1  0  0  0  0
M  END
