5,7
q = -1.0

 29 30  0  0  0  0  0  0  0  0999 V2000
    1.2036   -1.5309   -1.1577 S   0  0  1  0  0  0  0  0  0  0  0  0
   -0.9256   -1.4339    0.8023 S   0  0  2  0  0  0  0  0  0  0  0  0
    1.3869   -2.1468   -2.4783 O   0  0  0  0  0  1  0  0  0  0  0  0
   -0.6028   -1.8778    2.1788 O   0  0  0  0  0  1  0  0  0  0  0  0
    1.0053    0.0966   -1.2367 N   0  0  0  0  0  1  0  0  0  0  0  0
   -0.0270   -2.1782   -0.3495 N   0  0  0  0  0  2  0  0  0  0  0  0
   -0.8993    0.1515    0.5848 N   0  0  0  0  0  1  0  0  0  0  0  0
    2.7028   -1.6774   -0.1985 C   0  0  0  0  0  0  0  0  0  0  0  0
    3.9124   -1.6955   -0.9134 C   0  0  0  0  0  0  0  0  0  0  0  0
    5.1102   -1.7388   -0.1895 C   0  0  0  0  0  0  0  0  0  0  0  0
    5.0847   -1.7586    1.2161 C   0  0  0  0  0  0  0  0  0  0  0  0
    3.8633   -1.7411    1.9072 C   0  0  0  0  0  0  0  0  0  0  0  0
    2.6508   -1.6980    1.2035 C   0  0  0  0  0  0  0  0  0  0  0  0
   -2.5817   -1.9541    0.3834 C   0  0  0  0  0  0  0  0  0  0  0  0
   -3.2155   -1.3796   -0.7295 C   0  0  0  0  0  0  0  0  0  0  0  0
   -4.5141   -1.8073   -1.0363 C   0  0  0  0  0  0  0  0  0  0  0  0
   -5.1451   -2.7863   -0.2487 C   0  0  0  0  0  0  0  0  0  0  0  0
   -4.4884   -3.3398    0.8624 C   0  0  0  0  0  0  0  0  0  0  0  0
   -3.1911   -2.9207    1.1938 C   0  0  0  0  0  0  0  0  0  0  0  0
    3.8999   -1.6838   -2.0125 H   0  0  0  0  0  0  0  0  0  0  0  0
    6.0699   -1.7584   -0.7268 H   0  0  0  0  0  0  0  0  0  0  0  0
    6.0301   -1.7899    1.7783 H   0  0  0  0  0  0  0  0  0  0  0  0
    3.8467   -1.7598    3.0067 H   0  0  0  0  0  0  0  0  0  0  0  0
    1.6892   -1.7046    1.7378 H   0  0  0  0  0  0  0  0  0  0  0  0
   -2.7167   -0.5972   -1.3246 H   0  0  0  0  0  0  0  0  0  0  0  0
   -5.0371   -1.3686   -1.8990 H   0  0  0  0  0  0  0  0  0  0  0  0
   -6.1633   -3.1181   -0.5022 H   0  0  0  0  0  0  0  0  0  0  0  0
   -4.9886   -4.1013    1.4792 H   0  0  0  0  0  0  0  0  0  0  0  0
   -2.6509   -3.3229    2.0626 H   0  0  0  0  0  0  0  0  0  0  0  0
  1  3  1  6  0  0  0
  1  6  1  0  0  0  0
  1  8  1  0  0  0  0
  2  7  1  6  0  0  0
  2  4  1  0  0  0  0
  5  1  1  0  0  0  0
  6  2  1  0  0  0  0
  8 13  1  0  0  0  0
  9  8  2  0  0  0  0
  9 10  1  0  0  0  0
 10 11  2  0  0  0  0
 11 22  1  0  0  0  0
 11 12  1  0  0  0  0
 12 23  1  0  0  0  0
 13 24  1  0  0  0  0
 13 12  2  0  0  0  0
 14  2  1  0  0  0  0
 14 19  1  0  0  0  0
 15 14  2  0  0  0  0
 16 15  1  0  0  0  0
 16 17  2  0  0  0  0
 17 18  1  0  0  0  0
 18 19  2  0  0  0  0
 18 28  1  0  0  0  0
 19 29  1  0  0  0  0
 20  9  1  0  0  0  0
 21 10  1  0  0  0  0
 25 15  1  0  0  0  0
 26 16  1  0  0  0  0
 27 17  1  0  0  0  0
M  END
