1,5,6
q = -1.0, confidence = 0.064

 74 75  0  0  0  0  0  0  0  0999 V2000
   -0.0006   -0.4899   -2.0336 O   0  0  0  0  0  1  0  0  0  0  0  0
   -0.0001    0.8374   -1.8722 B   0  0  0  0  0  0  0  0  0  0  0  0
    1.1739    1.6996   -1.6540 N   0  0  0  0  0  0  0  0  0  0  0  0
   -1.1732    1.7006   -1.6532 N   0  0  0  0  0  0  0  0  0  0  0  0
    2.3103   -0.3107   -0.0426 P   0  0  0  0  0  0  0  0  0  0  0  0
   -2.3107   -0.3096   -0.0424 P   0  0  0  0  0  0  0  0  0  0  0  0
    0.7199    2.9155   -1.1396 C   0  0  0  0  0  0  0  0  0  0  0  0
    1.4260    4.0245   -0.6566 C   0  0  0  0  0  0  0  0  0  0  0  0
    2.5268    4.0331   -0.6570 H   0  0  0  0  0  0  0  0  0  0  0  0
    0.7043    5.1303   -0.1602 C   0  0  0  0  0  0  0  0  0  0  0  0
    1.2520    6.0020    0.2280 H   0  0  0  0  0  0  0  0  0  0  0  0
   -0.6997    5.1309   -0.1598 C   0  0  0  0  0  0  0  0  0  0  0  0
   -1.2464    6.0030    0.2288 H   0  0  0  0  0  0  0  0  0  0  0  0
   -1.4226    4.0257   -0.6557 C   0  0  0  0  0  0  0  0  0  0  0  0
   -2.5234    4.0353   -0.6554 H   0  0  0  0  0  0  0  0  0  0  0  0
   -0.7178    2.9162   -1.1392 C   0  0  0  0  0  0  0  0  0  0  0  0
    2.4348    1.0849   -1.3657 C   0  0  0  0  0  0  0  0  0  0  0  0
    3.1860    1.8237   -1.0323 H   0  0  0  0  0  0  0  0  0  0  0  0
    2.8388    0.5893   -2.2686 H   0  0  0  0  0  0  0  0  0  0  0  0
    3.4901   -1.6571   -0.7451 C   0  0  0  0  0  0  0  0  0  0  0  0
    3.4199   -2.9152    0.1393 C   0  0  0  0  0  0  0  0  0  0  0  0
    3.9970   -3.7289   -0.3486 H   0  0  0  0  0  0  0  0  0  0  0  0
    2.3812   -3.2712    0.2640 H   0  0  0  0  0  0  0  0  0  0  0  0
    3.8521   -2.7568    1.1433 H   0  0  0  0  0  0  0  0  0  0  0  0
    4.9520   -1.1987   -0.8744 C   0  0  0  0  0  0  0  0  0  0  0  0
    5.4453   -1.0782    0.1093 H   0  0  0  0  0  0  0  0  0  0  0  0
    5.0531   -0.2498   -1.4387 H   0  0  0  0  0  0  0  0  0  0  0  0
    5.5225   -1.9725   -1.4315 H   0  0  0  0  0  0  0  0  0  0  0  0
    2.9452   -2.0119   -2.1466 C   0  0  0  0  0  0  0  0  0  0  0  0
    3.2056   -1.2470   -2.9041 H   0  0  0  0  0  0  0  0  0  0  0  0
    1.8439   -2.1192   -2.1594 H   0  0  0  0  0  0  0  0  0  0  0  0
    3.4035   -2.9678   -2.4753 H   0  0  0  0  0  0  0  0  0  0  0  0
    3.0531    0.5043    1.5404 C   0  0  0  0  0  0  0  0  0  0  0  0
    3.4170   -0.5781    2.5722 C   0  0  0  0  0  0  0  0  0  0  0  0
    4.3211   -1.1460    2.2799 H   0  0  0  0  0  0  0  0  0  0  0  0
    2.5903   -1.2935    2.7445 H   0  0  0  0  0  0  0  0  0  0  0  0
    3.6381   -0.0876    3.5439 H   0  0  0  0  0  0  0  0  0  0  0  0
    4.2975    1.3673    1.2490 C   0  0  0  0  0  0  0  0  0  0  0  0
    4.7131    1.7174    2.2173 H   0  0  0  0  0  0  0  0  0  0  0  0
    4.0484    2.2769    0.6686 H   0  0  0  0  0  0  0  0  0  0  0  0
    5.1013    0.8236    0.7224 H   0  0  0  0  0  0  0  0  0  0  0  0
    1.9781    1.4314    2.1397 C   0  0  0  0  0  0  0  0  0  0  0  0
    1.1176    0.8661    2.5375 H   0  0  0  0  0  0  0  0  0  0  0  0
    1.5938    2.1692    1.4074 H   0  0  0  0  0  0  0  0  0  0  0  0
    2.4327    1.9961    2.9812 H   0  0  0  0  0  0  0  0  0  0  0  0
   -2.4346    1.0873   -1.3643 C   0  0  0  0  0  0  0  0  0  0  0  0
   -2.8404    0.5932   -2.2672 H   0  0  0  0  0  0  0  0  0  0  0  0
   -3.1843    1.8268   -1.0293 H   0  0  0  0  0  0  0  0  0  0  0  0
   -3.0532    0.5047    1.5410 C   0  0  0  0  0  0  0  0  0  0  0  0
   -3.4165   -0.5781    2.5725 C   0  0  0  0  0  0  0  0  0  0  0  0
   -2.5899   -1.2938    2.7439 H   0  0  0  0  0  0  0  0  0  0  0  0
   -4.3209   -1.1458    2.2805 H   0  0  0  0  0  0  0  0  0  0  0  0
   -3.6370   -0.0882    3.5447 H   0  0  0  0  0  0  0  0  0  0  0  0
   -1.9779    1.4316    2.1401 C   0  0  0  0  0  0  0  0  0  0  0  0
   -2.4320    1.9960    2.9821 H   0  0  0  0  0  0  0  0  0  0  0  0
   -1.5941    2.1698    1.4079 H   0  0  0  0  0  0  0  0  0  0  0  0
   -1.1172    0.8663    2.5372 H   0  0  0  0  0  0  0  0  0  0  0  0
   -4.2978    1.3677    1.2506 C   0  0  0  0  0  0  0  0  0  0  0  0
   -5.1021    0.8239    0.7248 H   0  0  0  0  0  0  0  0  0  0  0  0
   -4.0493    2.2772    0.6697 H   0  0  0  0  0  0  0  0  0  0  0  0
   -4.7125    1.7180    2.2192 H   0  0  0  0  0  0  0  0  0  0  0  0
   -3.4912   -1.6548   -0.7460 C   0  0  0  0  0  0  0  0  0  0  0  0
   -4.9528   -1.1954   -0.8753 C   0  0  0  0  0  0  0  0  0  0  0  0
   -5.5236   -1.9683   -1.4332 H   0  0  0  0  0  0  0  0  0  0  0  0
   -5.0531   -0.2459   -1.4388 H   0  0  0  0  0  0  0  0  0  0  0  0
   -5.4463   -1.0754    0.1084 H   0  0  0  0  0  0  0  0  0  0  0  0
   -3.4221   -2.9134    0.1377 C   0  0  0  0  0  0  0  0  0  0  0  0
   -3.8549   -2.7554    1.1415 H   0  0  0  0  0  0  0  0  0  0  0  0
   -2.3836   -3.2700    0.2630 H   0  0  0  0  0  0  0  0  0  0  0  0
   -3.9992   -3.7266   -0.3510 H   0  0  0  0  0  0  0  0  0  0  0  0
   -2.9463   -2.0092   -2.1475 C   0  0  0  0  0  0  0  0  0  0  0  0
   -3.4064   -2.9639   -2.4774 H   0  0  0  0  0  0  0  0  0  0  0  0
   -1.8452   -2.1188   -2.1599 H   0  0  0  0  0  0  0  0  0  0  0  0
   -3.2047   -1.2431   -2.9044 H   0  0  0  0  0  0  0  0  0  0  0  0
  1  2  1  0  0  0  0
  2  3  1  0  0  0  0
  2  4  1  0  0  0  0
  3 17  1  0  0  0  0
  3  7  1  0  0  0  0
  4 46  1  0  0  0  0
  4 16  1  0  0  0  0
  5 33  1  0  0  0  0
  6 49  1  0  0  0  0
  7 16  2  0  0  0  0
  7  8  1  0  0  0  0
  8 10  2  0  0  0  0
  9  8  1  0  0  0  0
 10 12  1  0  0  0  0
 10 11  1  0  0  0  0
 12 13  1  0  0  0  0
 14 15  1  0  0  0  0
 14 12  2  0  0  0  0
 16 14  1  0  0  0  0
 17 18  1  0  0  0  0
 17  5  1  0  0  0  0
 19 17  1  0  0  0  0
 20  5  1  0  0  0  0
 20 21  1  0  0  0  0
 21 23  1  0  0  0  0
 21 24  1  0  0  0  0
 22 21  1  0  0  0  0
 25 20  1  0  0  0  0
 25 26  1  0  0  0  0
 27 25  1  0  0  0  0
 28 25  1  0  0  0  0
 29 20  1  0  0  0  0
 30 29  1  0  0  0  0
 31 29  1  0  0  0  0
 32 29  1  0  0  0  0
 33 42  1  0  0  0  0
 33 34  1  0  0  0  0
 34 36  1  0  0  0  0
 34 37  1  0  0  0  0
 35 34  1  0  0  0  0
 38 33  1  0  0  0  0
 38 39  1  0  0  0  0
 40 38  1  0  0  0  0
 41 38  1  0  0  0  0
 42 43  1  0  0  0  0
 42 45  1  0  0  0  0
 44 42  1  0  0  0  0
 46 48  1  0  0  0  0
 46  6  1  0  0  0  0
 47 46  1  0  0  0  0
 49 54  1  0  0  0  0
 49 50  1  0  0  0  0
 50 51  1  0  0  0  0
 50 53  1  0  0  0  0
 52 50  1  0  0  0  0
 54 57  1  0  0  0  0
 54 55  1  0  0  0  0
 56 54  1  0  0  0  0
 58 49  1  0  0  0  0
 58 61  1  0  0  0  0
 59 58  1  0  0  0  0
 60 58  1  0  0  0  0
 62  6  1  0  0  0  0
 62 67  1  0  0  0  0
 63 62  1  0  0  0  0
 63 66  1  0  0  0  0
 64 63  1  0  0  0  0
 65 63  1  0  0  0  0
 67 69  1  0  0  0  0
 67 68  1  0  0  0  0
 70 67  1  0  0  0  0
 71 62  1  0  0  0  0
 72 71  1  0  0  0  0
 73 71  1  0  0  0  0
 74 71  1  0  0  0  0
M  END
