10,36,62
q = 0.0, confidence = 0.988

 79 81  0  0  0  0  0  0  0  0999 V2000
    0.0015   -0.0028    2.9348 N   0  0  0  0  0  0  0  0  0  0  0  0
    1.7931    1.9996    1.1583 N   0  0  0  0  0  0  0  0  0  0  0  0
    2.8834    1.1397   -0.4981 N   0  0  0  0  0  0  0  0  0  0  0  0
    0.7186    1.2243    3.2786 C   0  0  0  0  0  0  0  0  0  0  0  0
    1.7628    0.9714    3.5554 H   0  0  0  0  0  0  0  0  0  0  0  0
    0.2712    1.7056    4.1813 H   0  0  0  0  0  0  0  0  0  0  0  0
    0.7682    2.2732    2.1565 C   0  0  0  0  0  0  0  0  0  0  0  0
   -0.2115    2.3264    1.6414 H   0  0  0  0  0  0  0  0  0  0  0  0
    0.9858    3.2686    2.5917 H   0  0  0  0  0  0  0  0  0  0  0  0
    1.6581    1.0939    0.1303 C   0  0  0  0  0  2  0  0  0  0  0  0
    3.7436    2.0333    0.1311 C   0  0  0  0  0  0  0  0  0  0  0  0
    4.7594    2.2359   -0.2126 H   0  0  0  0  0  0  0  0  0  0  0  0
    3.0564    2.5740    1.1836 C   0  0  0  0  0  0  0  0  0  0  0  0
    3.3542    3.3260    1.9206 H   0  0  0  0  0  0  0  0  0  0  0  0
    3.2712    0.2772   -1.6639 C   0  0  0  0  0  0  0  0  0  0  0  0
    4.5782    0.7917   -2.2815 C   0  0  0  0  0  0  0  0  0  0  0  0
    4.4947    1.8488   -2.6029 H   0  0  0  0  0  0  0  0  0  0  0  0
    4.8074    0.1854   -3.1782 H   0  0  0  0  0  0  0  0  0  0  0  0
    5.4397    0.6899   -1.5925 H   0  0  0  0  0  0  0  0  0  0  0  0
    2.1517    0.3380   -2.7089 C   0  0  0  0  0  0  0  0  0  0  0  0
    1.2108   -0.0459   -2.2741 H   0  0  0  0  0  0  0  0  0  0  0  0
    2.4149   -0.2901   -3.5818 H   0  0  0  0  0  0  0  0  0  0  0  0
    1.9830    1.3761   -3.0559 H   0  0  0  0  0  0  0  0  0  0  0  0
    3.4576   -1.1621   -1.1555 C   0  0  0  0  0  0  0  0  0  0  0  0
    4.2369   -1.2044   -0.3684 H   0  0  0  0  0  0  0  0  0  0  0  0
    3.7715   -1.8229   -1.9872 H   0  0  0  0  0  0  0  0  0  0  0  0
    2.5046   -1.5461   -0.7442 H   0  0  0  0  0  0  0  0  0  0  0  0
    0.8371   -2.5538    1.1555 N   0  0  0  0  0  0  0  0  0  0  0  0
   -0.4557   -3.0659   -0.4992 N   0  0  0  0  0  0  0  0  0  0  0  0
    0.7062   -1.2375    3.2770 C   0  0  0  0  0  0  0  0  0  0  0  0
   -0.0345   -2.0156    3.5545 H   0  0  0  0  0  0  0  0  0  0  0  0
    1.3479   -1.0911    4.1789 H   0  0  0  0  0  0  0  0  0  0  0  0
    1.5883   -1.8043    2.1533 C   0  0  0  0  0  0  0  0  0  0  0  0
    2.1238   -0.9821    1.6382 H   0  0  0  0  0  0  0  0  0  0  0  0
    2.3418   -2.4911    2.5868 H   0  0  0  0  0  0  0  0  0  0  0  0
    0.1181   -1.9826    0.1298 C   0  0  0  0  0  2  0  0  0  0  0  0
   -0.1102   -4.2585    0.1273 C   0  0  0  0  0  0  0  0  0  0  0  0
   -0.4431   -5.2391   -0.2171 H   0  0  0  0  0  0  0  0  0  0  0  0
    0.7038   -3.9352    1.1786 C   0  0  0  0  0  0  0  0  0  0  0  0
    1.2078   -4.5700    1.9138 H   0  0  0  0  0  0  0  0  0  0  0  0
   -1.3981   -2.9690   -1.6637 C   0  0  0  0  0  0  0  0  0  0  0  0
   -0.7858   -2.0304   -2.7093 C   0  0  0  0  0  0  0  0  0  0  0  0
   -0.6441   -1.0243   -2.2740 H   0  0  0  0  0  0  0  0  0  0  0  0
   -1.4631   -1.9418   -3.5807 H   0  0  0  0  0  0  0  0  0  0  0  0
    0.1958   -2.4056   -3.0588 H   0  0  0  0  0  0  0  0  0  0  0  0
   -2.7367   -2.4098   -1.1536 C   0  0  0  0  0  0  0  0  0  0  0  0
   -3.1631   -3.0639   -0.3669 H   0  0  0  0  0  0  0  0  0  0  0  0
   -3.4664   -2.3499   -1.9847 H   0  0  0  0  0  0  0  0  0  0  0  0
   -2.5916   -1.3930   -0.7415 H   0  0  0  0  0  0  0  0  0  0  0  0
   -1.6085   -4.3578   -2.2815 C   0  0  0  0  0  0  0  0  0  0  0  0
   -0.6523   -4.8150   -2.6047 H   0  0  0  0  0  0  0  0  0  0  0  0
   -2.2494   -4.2519   -3.1772 H   0  0  0  0  0  0  0  0  0  0  0  0
   -2.1271   -5.0526   -1.5920 H   0  0  0  0  0  0  0  0  0  0  0  0
   -2.6286    0.5507    1.1584 N   0  0  0  0  0  0  0  0  0  0  0  0
   -2.4287    1.9275   -0.4957 N   0  0  0  0  0  0  0  0  0  0  0  0
   -1.4199    0.0041    3.2781 C   0  0  0  0  0  0  0  0  0  0  0  0
   -1.7229    1.0343    3.5572 H   0  0  0  0  0  0  0  0  0  0  0  0
   -1.6132   -0.6258    4.1794 H   0  0  0  0  0  0  0  0  0  0  0  0
   -2.3534   -0.4751    2.1551 C   0  0  0  0  0  0  0  0  0  0  0  0
   -1.9102   -1.3498    1.6385 H   0  0  0  0  0  0  0  0  0  0  0  0
   -3.3242   -0.7845    2.5901 H   0  0  0  0  0  0  0  0  0  0  0  0
   -1.7758    0.8891    0.1318 C   0  0  0  0  0  2  0  0  0  0  0  0
   -3.6339    2.2232    0.1323 C   0  0  0  0  0  0  0  0  0  0  0  0
   -4.3177    3.0013   -0.2110 H   0  0  0  0  0  0  0  0  0  0  0  0
   -3.7588    1.3560    1.1834 C   0  0  0  0  0  0  0  0  0  0  0  0
   -4.5596    1.2359    1.9195 H   0  0  0  0  0  0  0  0  0  0  0  0
   -1.8753    2.6970   -1.6598 C   0  0  0  0  0  0  0  0  0  0  0  0
   -0.7203    3.5748   -1.1497 C   0  0  0  0  0  0  0  0  0  0  0  0
   -1.0720    4.2690   -0.3603 H   0  0  0  0  0  0  0  0  0  0  0  0
   -0.3050    4.1790   -1.9799 H   0  0  0  0  0  0  0  0  0  0  0  0
    0.0883    2.9394   -0.7408 H   0  0  0  0  0  0  0  0  0  0  0  0
   -2.9733    3.5756   -2.2738 C   0  0  0  0  0  0  0  0  0  0  0  0
   -3.8483    2.9774   -2.5968 H   0  0  0  0  0  0  0  0  0  0  0  0
   -2.5624    4.0795   -3.1691 H   0  0  0  0  0  0  0  0  0  0  0  0
   -3.3141    4.3709   -1.5820 H   0  0  0  0  0  0  0  0  0  0  0  0
   -1.3714    1.6992   -2.7085 C   0  0  0  0  0  0  0  0  0  0  0  0
   -0.5707    1.0716   -2.2763 H   0  0  0  0  0  0  0  0  0  0  0  0
   -0.9574    2.2429   -3.5796 H   0  0  0  0  0  0  0  0  0  0  0  0
   -2.1886    1.0382   -3.0577 H   0  0  0  0  0  0  0  0  0  0  0  0
  1 30  1  0  0  0  0
  1 56  1  0  0  0  0
  1  4  1  0  0  0  0
  2 13  1  0  0  0  0
  2  7  1  0  0  0  0
  3 10  1  0  0  0  0
  3 11  1  0  0  0  0
  4  5  1  0  0  0  0
  4  6  1  0  0  0  0
  7  9  1  0  0  0  0
  7  4  1  0  0  0  0
  8  7  1  0  0  0  0
 10  2  1  0  0  0  0
 11 13  2  0  0  0  0
 12 11  1  0  0  0  0
 13 14  1  0  0  0  0
 15 24  1  0  0  0  0
 15  3  1  0  0  0  0
 16 15  1  0  0  0  0
 16 19  1  0  0  0  0
 17 16  1  0  0  0  0
 18 16  1  0  0  0  0
 20 21  1  0  0  0  0
 20 15  1  0  0  0  0
 22 20  1  0  0  0  0
 23 20  1  0  0  0  0
 24 27  1  0  0  0  0
 24 25  1  0  0  0  0
 26 24  1  0  0  0  0
 28 39  1  0  0  0  0
 28 33  1  0  0  0  0
 29 37  1  0  0  0  0
 29 36  1  0  0  0  0
 30 31  1  0  0  0  0
 30 32  1  0  0  0  0
 33 35  1  0  0  0  0
 33 30  1  0  0  0  0
 34 33  1  0  0  0  0
 36 28  1  0  0  0  0
 37 39  2  0  0  0  0
 38 37  1  0  0  0  0
 39 40  1  0  0  0  0
 41 46  1  0  0  0  0
 41 29  1  0  0  0  0
 42 43  1  0  0  0  0
 42 41  1  0  0  0  0
 44 42  1  0  0  0  0
 45 42  1  0  0  0  0
 46 49  1  0  0  0  0
 46 47  1  0  0  0  0
 48 46  1  0  0  0  0
 50 41  1  0  0  0  0
 50 53  1  0  0  0  0
 51 50  1  0  0  0  0
 52 50  1  0  0  0  0
 54 65  1  0  0  0  0
 54 59  1  0  0  0  0
 55 62  1  0  0  0  0
 55 63  1  0  0  0  0
 56 57  1  0  0  0  0
 56 58  1  0  0  0  0
 59 61  1  0  0  0  0
 59 56  1  0  0  0  0
 60 59  1  0  0  0  0
 62 54  1  0  0  0  0
 63 65  2  0  0  0  0
 64 63  1  0  0  0  0
 65 66  1  0  0  0  0
 67 68  1  0  0  0  0
 67 55  1  0  0  0  0
 68 71  1  0  0  0  0
 68 69  1  0  0  0  0
 70 68  1  0  0  0  0
 72 67  1  0  0  0  0
 72 75  1  0  0  0  0
 73 72  1  0  0  0  0
 74 72  1  0  0  0  0
 76 77  1  0  0  0  0
 76 67  1  0  0  0  0
 78 76  1  0  0  0  0
 79 76  1  0  0  0  0
M  END
