15,17,19
q = 0.0, confidence = 0.972

 34 36  0  0  0  0  0  0  0  0999 V2000
    1.1634   -0.0839    1.1802 As  0  0  0  0  0  0  0  0  0  0  0  0
    1.1334    1.6593    0.2596 C   0  0  0  0  0  0  0  0  0  0  0  0
    1.9901    1.9962   -0.8063 C   0  0  0  0  0  0  0  0  0  0  0  0
    1.8785    3.2513   -1.4277 C   0  0  0  0  0  0  0  0  0  0  0  0
    0.9109    4.1712   -0.9936 C   0  0  0  0  0  0  0  0  0  0  0  0
    0.0598    3.8406    0.0729 C   0  0  0  0  0  0  0  0  0  0  0  0
    0.1771    2.5939    0.7051 C   0  0  0  0  0  0  0  0  0  0  0  0
    2.8007   -0.8241    0.3639 C   0  0  0  0  0  0  0  0  0  0  0  0
    2.8038   -1.7527   -0.6944 C   0  0  0  0  0  0  0  0  0  0  0  0
    4.0177   -2.2495   -1.1984 C   0  0  0  0  0  0  0  0  0  0  0  0
    5.2380   -1.8206   -0.6545 C   0  0  0  0  0  0  0  0  0  0  0  0
    5.2424   -0.8966    0.4036 C   0  0  0  0  0  0  0  0  0  0  0  0
    4.0309   -0.4085    0.9152 C   0  0  0  0  0  0  0  0  0  0  0  0
   -0.1674   -0.9918    0.0298 C   0  0  0  0  0  3  0  0  0  0  0  0
   -0.9200   -2.0709    0.6046 C   0  0  0  0  0  3  0  0  0  0  0  0
   -1.9366   -2.7272   -0.1322 C   0  0  0  0  0  3  0  0  0  0  0  0
   -2.2406   -2.2883   -1.4589 C   0  0  0  0  0  3  0  0  0  0  0  0
   -1.5070   -1.2289   -2.0466 C   0  0  0  0  0  3  0  0  0  0  0  0
   -0.4878   -0.5686   -1.2901 C   0  0  0  0  0  3  0  0  0  0  0  0
    2.7465    1.2758   -1.1538 H   0  0  0  0  0  0  0  0  0  0  0  0
    2.5507    3.5090   -2.2608 H   0  0  0  0  0  0  0  0  0  0  0  0
    0.8204    5.1506   -1.4874 H   0  0  0  0  0  0  0  0  0  0  0  0
   -0.7038    4.5555    0.4144 H   0  0  0  0  0  0  0  0  0  0  0  0
   -0.4917    2.3421    1.5435 H   0  0  0  0  0  0  0  0  0  0  0  0
    1.8541   -2.0923   -1.1348 H   0  0  0  0  0  0  0  0  0  0  0  0
    4.0075   -2.9759   -2.0258 H   0  0  0  0  0  0  0  0  0  0  0  0
    6.1877   -2.2088   -1.0527 H   0  0  0  0  0  0  0  0  0  0  0  0
    6.1957   -0.5576    0.8375 H   0  0  0  0  0  0  0  0  0  0  0  0
    4.0445    0.3104    1.7509 H   0  0  0  0  0  0  0  0  0  0  0  0
   -0.7280   -2.3680    1.6466 H   0  0  0  0  0  0  0  0  0  0  0  0
   -2.5316   -3.5230    0.3362 H   0  0  0  0  0  0  0  0  0  0  0  0
   -3.0698   -2.7524   -2.0111 H   0  0  0  0  0  0  0  0  0  0  0  0
   -1.7678   -0.8656   -3.0501 H   0  0  0  0  0  0  0  0  0  0  0  0
    0.0342    0.2992   -1.7195 H   0  0  0  0  0  0  0  0  0  0  0  0
  2  7  1  0  0  0  0
  2  1  1  0  0  0  0
  3  2  2  0  0  0  0
  4  5  2  0  0  0  0
  4  3  1  0  0  0  0
  5  6  1  0  0  0  0
  6 23  1  0  0  0  0
  6  7  2  0  0  0  0
  7 24  1  0  0  0  0
  8 13  1  0  0  0  0
  8  1  1  0  0  0  0
  9  8  2  0  0  0  0
 10  9  1  0  0  0  0
 10 11  2  0  0  0  0
 11 12  1  0  0  0  0
 12 28  1  0  0  0  0
 12 13  2  0  0  0  0
 13 29  1  0  0  0  0
 14 15  1  0  0  0  0
 14  1  1  0  0  0  0
 15 30  1  0  0  0  0
 16 31  1  0  0  0  0
 16 15  1  0  0  0  0
 17 16  1  0  0  0  0
 18 17  1  0  0  0  0
 18 19  1  0  0  0  0
 19 14  1  0  0  0  0
 20  3  1  0  0  0  0
 21  4  1  0  0  0  0
 22  5  1  0  0  0  0
 25  9  1  0  0  0  0
 26 10  1  0  0  0  0
 27 11  1  0  0  0  0
 32 17  1  0  0  0  0
 33 18  1  0  0  0  0
 34 19  1  0  0  0  0
M  END
