2,4,6
q = 0.0, confidence = 0.97

 48 48  0  0  1  0  0  0  0  0999 V2000
    1.3986    0.3725   -0.9963 C   0  0  1  0  0  3  0  0  0  0  0  0
    1.0118   -1.0164   -0.9564 C   0  0  1  0  0  3  0  0  0  0  0  0
   -0.3788   -1.3968   -0.9963 C   0  0  2  0  0  3  0  0  0  0  0  0
   -1.3881   -0.3674   -0.9545 C   0  0  1  0  0  3  0  0  0  0  0  0
   -1.0223    1.0271   -0.9945 C   0  0  2  0  0  3  0  0  0  0  0  0
    0.3739    1.3865   -0.9543 C   0  0  2  0  0  3  0  0  0  0  0  0
    2.8691    0.7626   -1.0543 C   0  0  0  0  0  0  0  0  0  0  0  0
    2.0823   -2.0918   -0.9938 C   0  0  0  0  0  0  0  0  0  0  0  0
   -0.7761   -2.8654   -1.0538 C   0  0  0  0  0  0  0  0  0  0  0  0
   -2.8547   -0.7568   -0.9905 C   0  0  0  0  0  0  0  0  0  0  0  0
   -2.0960    2.1051   -1.0507 C   0  0  0  0  0  0  0  0  0  0  0  0
    0.7693    2.8516   -0.9893 C   0  0  0  0  0  0  0  0  0  0  0  0
    3.5644    0.9436    0.3027 C   0  0  0  0  0  0  0  0  0  0  0  0
    2.4771   -2.4830   -2.4259 C   0  0  0  0  0  0  0  0  0  0  0  0
   -0.9651   -3.5583    0.3033 C   0  0  0  0  0  0  0  0  0  0  0  0
   -3.3926   -0.9013   -2.4221 C   0  0  0  0  0  0  0  0  0  0  0  0
   -2.6042    2.6122    0.3066 C   0  0  0  0  0  0  0  0  0  0  0  0
    0.9133    3.3907   -2.4206 C   0  0  0  0  0  0  0  0  0  0  0  0
    3.4165    0.0021   -1.6446 H   0  0  0  0  0  0  0  0  0  0  0  0
    2.9671    1.6971   -1.6406 H   0  0  0  0  0  0  0  0  0  0  0  0
    1.7303   -2.9837   -0.4422 H   0  0  0  0  0  0  0  0  0  0  0  0
    2.9739   -1.7457   -0.4380 H   0  0  0  0  0  0  0  0  0  0  0  0
   -0.0166   -3.4174   -1.6411 H   0  0  0  0  0  0  0  0  0  0  0  0
   -1.7092   -2.9595   -1.6429 H   0  0  0  0  0  0  0  0  0  0  0  0
   -3.4504   -0.0066   -0.4373 H   0  0  0  0  0  0  0  0  0  0  0  0
   -3.0001   -1.7026   -0.4356 H   0  0  0  0  0  0  0  0  0  0  0  0
   -2.9527    1.7240   -1.6402 H   0  0  0  0  0  0  0  0  0  0  0  0
   -1.7107    2.9617   -1.6374 H   0  0  0  0  0  0  0  0  0  0  0  0
    1.7165    2.9926   -0.4359 H   0  0  0  0  0  0  0  0  0  0  0  0
    0.0223    3.4495   -0.4341 H   0  0  0  0  0  0  0  0  0  0  0  0
    4.6283    1.2256    0.1650 H   0  0  0  0  0  0  0  0  0  0  0  0
    3.5252    0.0139    0.9033 H   0  0  0  0  0  0  0  0  0  0  0  0
    3.0711    1.7294    0.9074 H   0  0  0  0  0  0  0  0  0  0  0  0
    3.2590   -3.2684   -2.4202 H   0  0  0  0  0  0  0  0  0  0  0  0
    2.8723   -1.6152   -2.9916 H   0  0  0  0  0  0  0  0  0  0  0  0
    1.6097   -2.8721   -2.9964 H   0  0  0  0  0  0  0  0  0  0  0  0
   -1.2523   -4.6208    0.1657 H   0  0  0  0  0  0  0  0  0  0  0  0
   -1.7504   -3.0603    0.9048 H   0  0  0  0  0  0  0  0  0  0  0  0
   -0.0373   -3.5236    0.9071 H   0  0  0  0  0  0  0  0  0  0  0  0
   -4.4636   -1.1862   -2.4154 H   0  0  0  0  0  0  0  0  0  0  0  0
   -2.8389   -1.6763   -2.9896 H   0  0  0  0  0  0  0  0  0  0  0  0
   -3.2971    0.0454   -2.9914 H   0  0  0  0  0  0  0  0  0  0  0  0
   -3.3810    3.3920    0.1693 H   0  0  0  0  0  0  0  0  0  0  0  0
   -1.7815    3.0424    0.9103 H   0  0  0  0  0  0  0  0  0  0  0  0
   -3.0387    1.7899    0.9080 H   0  0  0  0  0  0  0  0  0  0  0  0
    1.2015    4.4608   -2.4131 H   0  0  0  0  0  0  0  0  0  0  0  0
   -0.0344    3.2987   -2.9885 H   0  0  0  0  0  0  0  0  0  0  0  0
    1.6859    2.8354   -2.9898 H   0  0  0  0  0  0  0  0  0  0  0  0
  1  7  1  1  0  0  0
  1  2  1  0  0  0  0
  1  6  1  0  0  0  0
  2  8  1  6  0  0  0
  3  9  1  1  0  0  0
  3  2  1  0  0  0  0
  3  4  1  0  0  0  0
  4 10  1  6  0  0  0
  5 11  1  1  0  0  0
  5  4  1  0  0  0  0
  5  6  1  0  0  0  0
  6 12  1  6  0  0  0
  7 13  1  0  0  0  0
  8 21  1  0  0  0  0
  8 22  1  0  0  0  0
  9 15  1  0  0  0  0
 10 25  1  0  0  0  0
 10 26  1  0  0  0  0
 11 17  1  0  0  0  0
 12 29  1  0  0  0  0
 12 30  1  0  0  0  0
 13 32  1  0  0  0  0
 13 33  1  0  0  0  0
 14 34  1  0  0  0  0
 14  8  1  0  0  0  0
 15 38  1  0  0  0  0
 15 39  1  0  0  0  0
 16 40  1  0  0  0  0
 16 10  1  0  0  0  0
 17 45  1  0  0  0  0
 17 44  1  0  0  0  0
 18 46  1  0  0  0  0
 18 12  1  0  0  0  0
 19  7  1  0  0  0  0
 20  7  1  0  0  0  0
 23  9  1  0  0  0  0
 24  9  1  0  0  0  0
 27 11  1  0  0  0  0
 28 11  1  0  0  0  0
 31 13  1  0  0  0  0
 35 14  1  0  0  0  0
 36 14  1  0  0  0  0
 37 15  1  0  0  0  0
 41 16  1  0  0  0  0
 42 16  1  0  0  0  0
 43 17  1  0  0  0  0
 47 18  1  0  0  0  0
 48 18  1  0  0  0  0
M  END
