4,6,10
q = -1.0, confidence = 0.02

 52 54  0  0  1  0  0  0  0  0999 V2000
    1.7956    1.7528    0.3226 N   0  0  0  0  0  0  0  0  0  0  0  0
    2.2932    0.6851    0.9883 C   0  0  2  0  0  3  0  0  0  0  0  0
   -1.5552   -1.3850    1.8408 C   0  0  0  0  0  0  0  0  0  0  0  0
    0.3598    1.8216    0.1101 C   0  0  1  0  0  3  0  0  0  0  0  0
   -2.5499    0.1108    0.3266 C   0  0  0  0  0  0  0  0  0  0  0  0
    1.3706   -0.2702    1.6099 C   0  0  0  0  0  3  0  0  0  0  0  0
    1.0456    0.1009    2.6059 H   0  0  0  0  0  0  0  0  0  0  0  0
    1.8068   -1.2798    1.7092 H   0  0  0  0  0  0  0  0  0  0  0  0
   -1.6624   -2.0442    0.5651 C   0  0  0  0  0  0  0  0  0  0  0  0
   -2.0763   -0.0415    1.7064 C   0  0  1  0  0  3  0  0  0  0  0  0
   -2.2826   -1.1192   -0.3741 C   0  0  0  0  0  0  0  0  0  0  0  0
   -0.3675    2.8799    0.8201 C   0  0  0  0  0  0  0  0  0  0  0  0
    0.1186    3.3736    1.6750 H   0  0  0  0  0  0  0  0  0  0  0  0
    3.6437    0.7667    0.9191 N   0  0  0  0  0  0  0  0  0  0  0  0
   -1.2646    2.0441   -1.6826 N   0  0  0  0  0  0  0  0  0  0  0  0
   -0.1041    1.5161   -1.2168 C   0  0  0  0  0  3  0  0  0  0  0  0
    0.5989    1.1333   -1.9711 H   0  0  0  0  0  0  0  0  0  0  0  0
    2.8294    2.5343   -0.1718 C   0  0  0  0  0  0  0  0  0  0  0  0
    2.6564    3.4476   -0.7480 H   0  0  0  0  0  0  0  0  0  0  0  0
   -2.2706    2.5060   -0.7320 C   0  0  1  0  0  0  0  0  0  0  0  0
   -2.9394    3.2045   -1.2744 H   0  0  0  0  0  0  0  0  0  0  0  0
   -3.2153    1.3174   -0.2449 C   0  0  0  0  0  0  0  0  0  0  0  0
   -3.9087    1.7607    0.4970 H   0  0  0  0  0  0  0  0  0  0  0  0
   -3.8339    1.0172   -1.1136 H   0  0  0  0  0  0  0  0  0  0  0  0
   -1.6048    3.2350    0.4018 C   0  0  0  0  0  0  0  0  0  0  0  0
   -2.1750    4.0259    0.9109 H   0  0  0  0  0  0  0  0  0  0  0  0
    3.9944    1.9057    0.1978 C   0  0  0  0  0  0  0  0  0  0  0  0
    5.0387    2.1663    0.0009 H   0  0  0  0  0  0  0  0  0  0  0  0
   -2.3255    0.9021    2.8378 C   0  0  0  0  0  0  0  0  0  0  0  0
   -1.5488    0.8175    3.6223 H   0  0  0  0  0  0  0  0  0  0  0  0
   -3.3018    0.6722    3.3169 H   0  0  0  0  0  0  0  0  0  0  0  0
   -2.3576    1.9538    2.5019 H   0  0  0  0  0  0  0  0  0  0  0  0
    4.5619   -0.2493    1.4205 C   0  0  0  0  0  0  0  0  0  0  0  0
    4.2576   -0.5621    2.4362 H   0  0  0  0  0  0  0  0  0  0  0  0
    5.5810    0.1732    1.4634 H   0  0  0  0  0  0  0  0  0  0  0  0
    4.5518   -1.1287    0.7462 H   0  0  0  0  0  0  0  0  0  0  0  0
   -1.6768    1.8351   -3.0613 C   0  0  0  0  0  0  0  0  0  0  0  0
   -0.8093    1.5103   -3.6641 H   0  0  0  0  0  0  0  0  0  0  0  0
   -2.0711    2.7813   -3.4832 H   0  0  0  0  0  0  0  0  0  0  0  0
   -2.4659    1.0583   -3.1476 H   0  0  0  0  0  0  0  0  0  0  0  0
   -1.0747   -2.0144    3.1085 C   0  0  0  0  0  0  0  0  0  0  0  0
   -0.3064   -2.7871    2.9171 H   0  0  0  0  0  0  0  0  0  0  0  0
   -1.9206   -2.5120    3.6291 H   0  0  0  0  0  0  0  0  0  0  0  0
   -0.6525   -1.2703    3.8100 H   0  0  0  0  0  0  0  0  0  0  0  0
   -1.3460   -3.4751    0.2799 C   0  0  0  0  0  0  0  0  0  0  0  0
   -1.0216   -3.6209   -0.7670 H   0  0  0  0  0  0  0  0  0  0  0  0
   -2.2489   -4.1003    0.4525 H   0  0  0  0  0  0  0  0  0  0  0  0
   -0.5434   -3.8577    0.9376 H   0  0  0  0  0  0  0  0  0  0  0  0
   -2.6599   -1.4908   -1.7734 C   0  0  0  0  0  0  0  0  0  0  0  0
   -3.2409   -0.6933   -2.2729 H   0  0  0  0  0  0  0  0  0  0  0  0
   -3.2863   -2.4063   -1.7725 H   0  0  0  0  0  0  0  0  0  0  0  0
   -1.7628   -1.7061   -2.3900 H   0  0  0  0  0  0  0  0  0  0  0  0
  1  2  1  0  0  0  0
  2  6  1  1  0  0  0
  3 41  1  0  0  0  0
  4  1  1  6  0  0  0
  4 12  1  0  0  0  0
  5 10  1  0  0  0  0
  6  8  1  0  0  0  0
  6  7  1  0  0  0  0
  9  3  2  0  0  0  0
 10  3  1  0  0  0  0
 10 29  1  1  0  0  0
 11  5  2  0  0  0  0
 11  9  1  0  0  0  0
 12 13  1  0  0  0  0
 14  2  1  0  0  0  0
 14 33  1  0  0  0  0
 15 16  1  0  0  0  0
 15 20  1  0  0  0  0
 16  4  1  0  0  0  0
 17 16  1  0  0  0  0
 18 27  2  0  0  0  0
 18  1  1  0  0  0  0
 19 18  1  0  0  0  0
 20 21  1  6  0  0  0
 20 22  1  0  0  0  0
 20 25  1  0  0  0  0
 22  5  1  0  0  0  0
 22 23  1  0  0  0  0
 24 22  1  0  0  0  0
 25 12  2  0  0  0  0
 25 26  1  0  0  0  0
 27 14  1  0  0  0  0
 28 27  1  0  0  0  0
 29 31  1  0  0  0  0
 29 30  1  0  0  0  0
 32 29  1  0  0  0  0
 33 35  1  0  0  0  0
 33 34  1  0  0  0  0
 36 33  1  0  0  0  0
 37 15  1  0  0  0  0
 38 37  1  0  0  0  0
 39 37  1  0  0  0  0
 40 37  1  0  0  0  0
 41 43  1  0  0  0  0
 41 44  1  0  0  0  0
 42 41  1  0  0  0  0
 45 47  1  0  0  0  0
 45  9  1  0  0  0  0
 45 48  1  0  0  0  0
 46 45  1  0  0  0  0
 49 51  1  0  0  0  0
 49 11  1  0  0  0  0
 50 49  1  0  0  0  0
 52 49  1  0  0  0  0
M  END
