3,5,7
q = 0.0, confidence = 0.994

 24 24  0  0  0  0  0  0  0  0999 V2000
   -2.5767   -0.0710    0.0001 Si  0  0  0  0  0  0  0  0  0  0  0  0
   -0.9232    0.8751    0.0001 C   0  0  0  0  0  3  0  0  0  0  0  0
   -0.2478    1.2067   -1.2198 C   0  0  0  0  0  3  0  0  0  0  0  0
    1.0085    1.8751   -1.2340 C   0  0  0  0  0  3  0  0  0  0  0  0
    1.6485    2.1761    0.0001 C   0  0  0  0  0  3  0  0  0  0  0  0
    1.0086    1.8751    1.2342 C   0  0  0  0  0  3  0  0  0  0  0  0
   -0.2478    1.2066    1.2201 C   0  0  0  0  0  3  0  0  0  0  0  0
   -3.9711    1.2113   -0.0001 C   0  0  0  0  0  0  0  0  0  0  0  0
   -2.6848   -1.1335   -1.5568 C   0  0  0  0  0  0  0  0  0  0  0  0
   -2.6849   -1.1334    1.5570 C   0  0  0  0  0  0  0  0  0  0  0  0
   -0.6955    0.9125   -2.1809 H   0  0  0  0  0  0  0  0  0  0  0  0
    1.5149    2.0830   -2.1860 H   0  0  0  0  0  0  0  0  0  0  0  0
    2.6507    2.6280    0.0001 H   0  0  0  0  0  0  0  0  0  0  0  0
    1.5150    2.0829    2.1863 H   0  0  0  0  0  0  0  0  0  0  0  0
   -0.6954    0.9123    2.1812 H   0  0  0  0  0  0  0  0  0  0  0  0
   -3.9170    1.8623    0.8963 H   0  0  0  0  0  0  0  0  0  0  0  0
   -3.9161    1.8627   -0.8962 H   0  0  0  0  0  0  0  0  0  0  0  0
   -4.9637    0.7149   -0.0007 H   0  0  0  0  0  0  0  0  0  0  0  0
   -2.6804   -0.5171   -2.4791 H   0  0  0  0  0  0  0  0  0  0  0  0
   -1.8462   -1.8547   -1.6226 H   0  0  0  0  0  0  0  0  0  0  0  0
   -3.6340   -1.7080   -1.5519 H   0  0  0  0  0  0  0  0  0  0  0  0
   -3.6345   -1.7072    1.5526 H   0  0  0  0  0  0  0  0  0  0  0  0
   -2.6796   -0.5169    2.4794 H   0  0  0  0  0  0  0  0  0  0  0  0
   -1.8468   -1.8552    1.6225 H   0  0  0  0  0  0  0  0  0  0  0  0
  1  2  1  0  0  0  0
  1 10  1  0  0  0  0
  2  7  1  0  0  0  0
  3  2  1  0  0  0  0
  4  3  1  0  0  0  0
  4  5  1  0  0  0  0
  5 13  1  0  0  0  0
  5  6  1  0  0  0  0
  6 14  1  0  0  0  0
  7  6  1  0  0  0  0
  7 15  1  0  0  0  0
  8  1  1  0  0  0  0
  8 16  1  0  0  0  0
  9 21  1  0  0  0  0
  9  1  1  0  0  0  0
 10 24  1  0  0  0  0
 10 23  1  0  0  0  0
 11  3  1  0  0  0  0
 12  4  1  0  0  0  0
 17  8  1  0  0  0  0
 18  8  1  0  0  0  0
 19  9  1  0  0  0  0
 20  9  1  0  0  0  0
 22 10  1  0  0  0  0
M  END
