1,8,11
q = 0.0, confidence = 0.996

 47 49  0  0  1  0  0  0  0  0999 V2000
    0.4676    0.5495   -0.8285 C   0  0  1  0  0  3  0  0  0  0  0  0
   -0.6084    1.4775   -0.9052 C   0  0  2  0  0  3  0  0  0  0  0  0
   -0.0502    2.8745   -0.8823 C   0  0  0  0  0  0  0  0  0  0  0  0
   -0.3090    3.4274   -1.8159 H   0  0  0  0  0  0  0  0  0  0  0  0
   -0.4579    3.4820   -0.0443 H   0  0  0  0  0  0  0  0  0  0  0  0
    1.4397    2.6565   -0.7611 C   0  0  0  0  0  0  0  0  0  0  0  0
    1.7359    1.3068   -0.7256 C   0  0  0  0  0  0  0  0  0  0  0  0
   -1.9591    1.0391   -0.9390 C   0  0  0  0  0  3  0  0  0  0  0  0
   -2.7677    1.7828   -0.9329 H   0  0  0  0  0  0  0  0  0  0  0  0
   -2.2673   -0.3517   -0.9891 C   0  0  2  0  0  3  0  0  0  0  0  0
   -1.1676   -1.2659   -0.9234 C   0  0  0  0  0  3  0  0  0  0  0  0
   -1.3710   -2.3436   -0.8926 H   0  0  0  0  0  0  0  0  0  0  0  0
    0.2072   -0.8651   -0.8414 C   0  0  2  0  0  3  0  0  0  0  0  0
    3.0495    0.7346   -0.5552 C   0  0  0  0  0  0  0  0  0  0  0  0
    3.8591    1.4761   -0.4546 H   0  0  0  0  0  0  0  0  0  0  0  0
    3.4382   -0.5808   -0.4635 C   0  0  0  0  0  0  0  0  0  0  0  0
    2.5820   -1.7558   -0.5537 C   0  0  0  0  0  0  0  0  0  0  0  0
    3.1220   -2.7124   -0.4625 H   0  0  0  0  0  0  0  0  0  0  0  0
    1.2304   -1.8913   -0.7061 C   0  0  0  0  0  0  0  0  0  0  0  0
    0.8370   -2.9209   -0.7174 H   0  0  0  0  0  0  0  0  0  0  0  0
    2.3798    3.8107   -0.6704 C   0  0  0  0  0  0  0  0  0  0  0  0
    2.1793    4.4181    0.2400 H   0  0  0  0  0  0  0  0  0  0  0  0
    2.2555    4.4993   -1.5347 H   0  0  0  0  0  0  0  0  0  0  0  0
    3.4402    3.4985   -0.6381 H   0  0  0  0  0  0  0  0  0  0  0  0
   -3.7258   -0.8192   -1.1302 C   0  0  0  0  0  0  0  0  0  0  0  0
   -4.6349   -0.0954   -0.1158 C   0  0  0  0  0  0  0  0  0  0  0  0
   -4.3328   -0.3317    0.9227 H   0  0  0  0  0  0  0  0  0  0  0  0
   -5.6872   -0.4148   -0.2581 H   0  0  0  0  0  0  0  0  0  0  0  0
   -4.6076    1.0057   -0.2328 H   0  0  0  0  0  0  0  0  0  0  0  0
   -3.8686   -2.3362   -0.9114 C   0  0  0  0  0  0  0  0  0  0  0  0
   -3.3124   -2.9215   -1.6709 H   0  0  0  0  0  0  0  0  0  0  0  0
   -4.9357   -2.6225   -0.9972 H   0  0  0  0  0  0  0  0  0  0  0  0
   -3.5199   -2.6406    0.0951 H   0  0  0  0  0  0  0  0  0  0  0  0
   -4.1771   -0.4768   -2.5699 C   0  0  0  0  0  0  0  0  0  0  0  0
   -4.1334    0.6146   -2.7601 H   0  0  0  0  0  0  0  0  0  0  0  0
   -5.2219   -0.8101   -2.7368 H   0  0  0  0  0  0  0  0  0  0  0  0
   -3.5323   -0.9778   -3.3202 H   0  0  0  0  0  0  0  0  0  0  0  0
    4.9153   -0.8658   -0.1870 C   0  0  0  0  0  0  0  0  0  0  0  0
    5.4279    0.1200   -0.1690 H   0  0  0  0  0  0  0  0  0  0  0  0
    5.1025   -1.5049    1.2009 C   0  0  0  0  0  0  0  0  0  0  0  0
    4.6252   -0.8903    1.9900 H   0  0  0  0  0  0  0  0  0  0  0  0
    6.1801   -1.6134    1.4416 H   0  0  0  0  0  0  0  0  0  0  0  0
    4.6492   -2.5169    1.2479 H   0  0  0  0  0  0  0  0  0  0  0  0
    5.5765   -1.7051   -1.2925 C   0  0  0  0  0  0  0  0  0  0  0  0
    6.6594   -1.8336   -1.0889 H   0  0  0  0  0  0  0  0  0  0  0  0
    5.4669   -1.2235   -2.2847 H   0  0  0  0  0  0  0  0  0  0  0  0
    5.1341   -2.7208   -1.3602 H   0  0  0  0  0  0  0  0  0  0  0  0
  1  7  1  1  0  0  0
  2  8  1  1  0  0  0
  2  3  1  0  0  0  0
  2  1  1  0  0  0  0
  3  6  1  0  0  0  0
  3  5  1  0  0  0  0
  4  3  1  0  0  0  0
  6  7  2  0  0  0  0
  6 21  1  0  0  0  0
  7 14  1  0  0  0  0
  8  9  1  0  0  0  0
 10 25  1  6  0  0  0
 10  8  1  0  0  0  0
 10 11  1  0  0  0  0
 11 12  1  0  0  0  0
 13 11  1  1  0  0  0
 13  1  1  0  0  0  0
 13 19  1  0  0  0  0
 14 16  2  0  0  0  0
 14 15  1  0  0  0  0
 16 38  1  0  0  0  0
 17 16  1  0  0  0  0
 17 18  1  0  0  0  0
 19 17  2  0  0  0  0
 20 19  1  0  0  0  0
 21 24  1  0  0  0  0
 21 22  1  0  0  0  0
 23 21  1  0  0  0  0
 25 30  1  0  0  0  0
 25 26  1  0  0  0  0
 26 27  1  0  0  0  0
 28 26  1  0  0  0  0
 29 26  1  0  0  0  0
 30 33  1  0  0  0  0
 31 30  1  0  0  0  0
 32 30  1  0  0  0  0
 34 25  1  0  0  0  0
 35 34  1  0  0  0  0
 36 34  1  0  0  0  0
 37 34  1  0  0  0  0
 38 39  1  0  0  0  0
 38 40  1  0  0  0  0
 40 43  1  0  0  0  0
 40 42  1  0  0  0  0
 40 41  1  0  0  0  0
 44 45  1  0  0  0  0
 44 38  1  0  0  0  0
 46 44  1  0  0  0  0
 47 44  1  0  0  0  0
M  END
