1,3,5
q = 0.0, confidence = 0.996

 48 51  0  0  1  0  0  0  0  0999 V2000
   -1.0114    1.0017   -0.9444 C   0  0  0  0  0  3  0  0  0  0  0  0
   -1.3861   -0.3793   -1.0039 C   0  0  1  0  0  3  0  0  0  0  0  0
   -0.3607   -1.3775   -0.9685 C   0  0  0  0  0  3  0  0  0  0  0  0
    1.0236   -1.0121   -0.9823 C   0  0  1  0  0  3  0  0  0  0  0  0
    1.3744    0.3751   -0.9171 C   0  0  0  0  0  3  0  0  0  0  0  0
    0.3662    1.3920   -0.9623 C   0  0  2  0  0  3  0  0  0  0  0  0
   -2.7112   -0.7415   -1.0333 N   0  0  0  0  0  0  0  0  0  0  0  0
    1.9996   -1.9788   -0.9904 N   0  0  0  0  0  0  0  0  0  0  0  0
    0.7151    2.7206   -0.9496 N   0  0  0  0  0  0  0  0  0  0  0  0
   -3.7852    0.2410   -0.8757 C   0  0  0  0  0  0  0  0  0  0  0  0
   -5.0521   -0.6189   -0.8517 C   0  0  0  0  0  0  0  0  0  0  0  0
   -4.5762   -1.8813   -0.1212 C   0  0  0  0  0  0  0  0  0  0  0  0
   -3.1581   -2.0932   -0.6708 C   0  0  0  0  0  0  0  0  0  0  0  0
    1.7183   -3.3760   -0.6344 C   0  0  0  0  0  0  0  0  0  0  0  0
    3.0493   -3.8907   -0.0672 C   0  0  0  0  0  0  0  0  0  0  0  0
    4.0952   -3.0227   -0.7789 C   0  0  0  0  0  0  0  0  0  0  0  0
    3.4147   -1.6512   -0.8081 C   0  0  0  0  0  0  0  0  0  0  0  0
    2.1012    3.1560   -0.7708 C   0  0  0  0  0  0  0  0  0  0  0  0
    1.9890    4.6823   -0.7196 C   0  0  0  0  0  0  0  0  0  0  0  0
    0.6527    4.8871    0.0060 C   0  0  0  0  0  0  0  0  0  0  0  0
   -0.2356    3.7737   -0.5685 C   0  0  0  0  0  0  0  0  0  0  0  0
   -1.7868    1.7710   -0.9224 H   0  0  0  0  0  0  0  0  0  0  0  0
   -0.6380   -2.4343   -0.9930 H   0  0  0  0  0  0  0  0  0  0  0  0
    2.4257    0.6619   -0.8448 H   0  0  0  0  0  0  0  0  0  0  0  0
   -3.7787    0.9763   -1.7077 H   0  0  0  0  0  0  0  0  0  0  0  0
   -3.6678    0.8054    0.0803 H   0  0  0  0  0  0  0  0  0  0  0  0
   -5.3678   -0.8622   -1.8882 H   0  0  0  0  0  0  0  0  0  0  0  0
   -5.8972   -0.1098   -0.3497 H   0  0  0  0  0  0  0  0  0  0  0  0
   -5.2312   -2.7601   -0.2775 H   0  0  0  0  0  0  0  0  0  0  0  0
   -4.5141   -1.6830    0.9682 H   0  0  0  0  0  0  0  0  0  0  0  0
   -2.4858   -2.5348    0.0948 H   0  0  0  0  0  0  0  0  0  0  0  0
   -3.1500   -2.7649   -1.5601 H   0  0  0  0  0  0  0  0  0  0  0  0
    0.9053   -3.4316    0.1200 H   0  0  0  0  0  0  0  0  0  0  0  0
    1.3931   -3.9546   -1.5297 H   0  0  0  0  0  0  0  0  0  0  0  0
    3.1899   -4.9774   -0.2254 H   0  0  0  0  0  0  0  0  0  0  0  0
    3.0764   -3.6916    1.0235 H   0  0  0  0  0  0  0  0  0  0  0  0
    4.2658   -3.3859   -1.8144 H   0  0  0  0  0  0  0  0  0  0  0  0
    5.0738   -2.9967   -0.2622 H   0  0  0  0  0  0  0  0  0  0  0  0
    3.5741   -1.1063    0.1532 H   0  0  0  0  0  0  0  0  0  0  0  0
    3.7833   -1.0034   -1.6312 H   0  0  0  0  0  0  0  0  0  0  0  0
    2.7420    2.7975   -1.6038 H   0  0  0  0  0  0  0  0  0  0  0  0
    2.5229    2.7550    0.1819 H   0  0  0  0  0  0  0  0  0  0  0  0
    1.9427    5.0961   -1.7492 H   0  0  0  0  0  0  0  0  0  0  0  0
    2.8487    5.1510   -0.2032 H   0  0  0  0  0  0  0  0  0  0  0  0
    0.7868    4.7156    1.0934 H   0  0  0  0  0  0  0  0  0  0  0  0
    0.2190    5.8958   -0.1354 H   0  0  0  0  0  0  0  0  0  0  0  0
   -0.8197    4.1181   -1.4529 H   0  0  0  0  0  0  0  0  0  0  0  0
   -0.9553    3.3960    0.1882 H   0  0  0  0  0  0  0  0  0  0  0  0
  1 22  1  0  0  0  0
  2  7  1  1  0  0  0
  2  3  1  0  0  0  0
  2  1  1  0  0  0  0
  4  8  1  1  0  0  0
  4  3  1  0  0  0  0
  4  5  1  0  0  0  0
  5 24  1  0  0  0  0
  6  9  1  1  0  0  0
  6  1  1  0  0  0  0
  6  5  1  0  0  0  0
  7 10  1  0  0  0  0
  7 13  1  0  0  0  0
  8 17  1  0  0  0  0
  8 14  1  0  0  0  0
  9 18  1  0  0  0  0
  9 21  1  0  0  0  0
 10 11  1  0  0  0  0
 10 26  1  0  0  0  0
 11 28  1  0  0  0  0
 11 12  1  0  0  0  0
 12 30  1  0  0  0  0
 13 12  1  0  0  0  0
 13 31  1  0  0  0  0
 14 15  1  0  0  0  0
 14 33  1  0  0  0  0
 15 36  1  0  0  0  0
 16 38  1  0  0  0  0
 16 15  1  0  0  0  0
 17 16  1  0  0  0  0
 17 39  1  0  0  0  0
 18 19  1  0  0  0  0
 18 42  1  0  0  0  0
 19 44  1  0  0  0  0
 19 20  1  0  0  0  0
 20 45  1  0  0  0  0
 21 20  1  0  0  0  0
 21 48  1  0  0  0  0
 23  3  1  0  0  0  0
 25 10  1  0  0  0  0
 27 11  1  0  0  0  0
 29 12  1  0  0  0  0
 32 13  1  0  0  0  0
 34 14  1  0  0  0  0
 35 15  1  0  0  0  0
 37 16  1  0  0  0  0
 40 17  1  0  0  0  0
 41 18  1  0  0  0  0
 43 19  1  0  0  0  0
 46 20  1  0  0  0  0
 47 21  1  0  0  0  0
M  END
