1,3,5
q = 0.0, confidence = 0.986

 38 39  0  0  1  0  0  0  0  0999 V2000
    0.2724   -0.8451    0.2324 C   0  0  0  0  0  3  0  0  0  0  0  0
    0.9189   -1.7925   -0.6120 C   0  0  0  0  0  3  0  0  0  0  0  0
    2.1221   -2.4188   -0.1803 C   0  0  0  0  0  3  0  0  0  0  0  0
    2.6633   -2.1474    1.1051 C   0  0  0  0  0  3  0  0  0  0  0  0
    2.0103   -1.1941    1.9398 C   0  0  0  0  0  3  0  0  0  0  0  0
    0.8075   -0.5637    1.5240 C   0  0  0  0  0  3  0  0  0  0  0  0
   -0.9979   -0.1481   -0.2437 C   0  0  2  0  0  0  0  0  0  0  0  0
   -1.2039    1.0070    0.5316 O   0  0  0  0  0  0  0  0  0  0  0  0
   -3.8466   -2.5114   -1.2778 C   0  0  0  0  0  0  0  0  0  0  0  0
   -2.7477   -1.6391   -1.3468 C   0  0  0  0  0  0  0  0  0  0  0  0
    0.5218   -1.9921   -1.6168 H   0  0  0  0  0  0  0  0  0  0  0  0
    2.6525   -3.0997   -0.8613 H   0  0  0  0  0  0  0  0  0  0  0  0
    3.6094   -2.6072    1.4188 H   0  0  0  0  0  0  0  0  0  0  0  0
    2.4561   -0.9249    2.9081 H   0  0  0  0  0  0  0  0  0  0  0  0
    0.3243    0.2113    2.1317 H   0  0  0  0  0  0  0  0  0  0  0  0
   -0.8357    0.1102   -1.3160 H   0  0  0  0  0  0  0  0  0  0  0  0
   -1.1358    2.5813   -2.1723 H   0  0  0  0  0  0  0  0  0  0  0  0
   -2.6515    1.6130   -2.3116 H   0  0  0  0  0  0  0  0  0  0  0  0
   -2.7380    3.3890   -2.1210 H   0  0  0  0  0  0  0  0  0  0  0  0
   -1.3811    3.6399    2.0128 H   0  0  0  0  0  0  0  0  0  0  0  0
   -0.4154    3.9631    0.5331 H   0  0  0  0  0  0  0  0  0  0  0  0
   -2.0356    4.7195    0.7380 H   0  0  0  0  0  0  0  0  0  0  0  0
   -3.9717    1.8183    1.7777 H   0  0  0  0  0  0  0  0  0  0  0  0
   -2.2129    2.3151    0.0665 Si  0  0  0  0  0  0  0  0  0  0  0  0
   -2.1790    2.4823   -1.8099 C   0  0  0  0  0  0  0  0  0  0  0  0
   -1.4424    3.7995    0.9171 C   0  0  0  0  0  0  0  0  0  0  0  0
   -3.9637    1.9847    0.6812 C   0  0  0  0  0  0  0  0  0  0  0  0
   -2.1850   -1.1057   -0.1742 C   0  0  0  0  0  0  0  0  0  0  0  0
   -2.7382   -1.4528    1.0737 C   0  0  0  0  0  0  0  0  0  0  0  0
   -3.8349   -2.3215    1.1446 C   0  0  0  0  0  0  0  0  0  0  0  0
   -4.3916   -2.8541   -0.0315 C   0  0  0  0  0  0  0  0  0  0  0  0
   -4.6309    2.8439    0.4606 H   0  0  0  0  0  0  0  0  0  0  0  0
   -4.3908    1.0824    0.1985 H   0  0  0  0  0  0  0  0  0  0  0  0
   -2.3078   -1.0211    1.9899 H   0  0  0  0  0  0  0  0  0  0  0  0
   -4.2627   -2.5855    2.1239 H   0  0  0  0  0  0  0  0  0  0  0  0
   -5.2551   -3.5340    0.0254 H   0  0  0  0  0  0  0  0  0  0  0  0
   -4.2830   -2.9182   -2.2028 H   0  0  0  0  0  0  0  0  0  0  0  0
   -2.3268   -1.3586   -2.3261 H   0  0  0  0  0  0  0  0  0  0  0  0
  1  6  1  0  0  0  0
  2  3  1  0  0  0  0
  2  1  1  0  0  0  0
  3  4  1  0  0  0  0
  4 13  1  0  0  0  0
  4  5  1  0  0  0  0
  5 14  1  0  0  0  0
  6  5  1  0  0  0  0
  6 15  1  0  0  0  0
  7 16  1  6  0  0  0
  7 28  1  0  0  0  0
  7  1  1  0  0  0  0
  7  8  1  0  0  0  0
  9 31  1  0  0  0  0
 10  9  2  0  0  0  0
 10 28  1  0  0  0  0
 11  2  1  0  0  0  0
 12  3  1  0  0  0  0
 17 25  1  0  0  0  0
 18 25  1  0  0  0  0
 19 25  1  0  0  0  0
 21 26  1  0  0  0  0
 22 26  1  0  0  0  0
 24  8  1  0  0  0  0
 24 27  1  0  0  0  0
 24 26  1  0  0  0  0
 25 24  1  0  0  0  0
 26 20  1  0  0  0  0
 27 23  1  0  0  0  0
 28 29  2  0  0  0  0
 29 30  1  0  0  0  0
 29 34  1  0  0  0  0
 30 35  1  0  0  0  0
 31 36  1  0  0  0  0
 31 30  2  0  0  0  0
 32 27  1  0  0  0  0
 33 27  1  0  0  0  0
 37  9  1  0  0  0  0
 38 10  1  0  0  0  0
M  END
