3,6,10
q = 0.0, confidence = 0.986

 19 19  0  0  0  0  0  0  0  0999 V2000
   -5.1185   -2.4891   -1.4925 O   0  0  0  0  0  0  0  0  0  0  0  0
   -5.8037   -3.0802   -1.8499 H   0  0  0  0  0  0  0  0  0  0  0  0
   -1.4908   -2.8839   -0.6710 C   0  0  0  0  0  3  0  0  0  0  0  0
   -1.1891   -3.6018    0.5331 C   0  0  0  0  0  3  0  0  0  0  0  0
   -1.9564   -3.7041    1.3135 H   0  0  0  0  0  0  0  0  0  0  0  0
    0.1638   -3.9956    0.8081 C   0  0  0  0  0  3  0  0  0  0  0  0
    0.4137   -4.3841    1.8060 H   0  0  0  0  0  0  0  0  0  0  0  0
    1.2096   -3.7557   -0.1329 C   0  0  0  0  0  3  0  0  0  0  0  0
    2.2535   -3.9830    0.1226 H   0  0  0  0  0  0  0  0  0  0  0  0
    0.8888   -3.0613   -1.3483 C   0  0  0  0  0  3  0  0  0  0  0  0
    1.7045   -2.7384   -2.0136 H   0  0  0  0  0  0  0  0  0  0  0  0
   -0.4490   -2.6644   -1.6475 C   0  0  0  0  0  3  0  0  0  0  0  0
   -0.6610   -2.0682   -2.5469 H   0  0  0  0  0  0  0  0  0  0  0  0
   -2.8533   -2.2700   -0.8542 C   0  0  0  0  0  0  0  0  0  0  0  0
   -2.7791   -1.3865   -1.5182 H   0  0  0  0  0  0  0  0  0  0  0  0
   -3.2098   -1.8952    0.1260 H   0  0  0  0  0  0  0  0  0  0  0  0
   -3.9055   -3.2208   -1.4186 C   0  0  0  0  0  0  0  0  0  0  0  0
   -3.5777   -3.5950   -2.4204 H   0  0  0  0  0  0  0  0  0  0  0  0
   -3.9937   -4.1166   -0.7547 H   0  0  0  0  0  0  0  0  0  0  0  0
  1 17  1  0  0  0  0
  2  1  1  0  0  0  0
  3  4  1  0  0  0  0
  4  6  1  0  0  0  0
  4  5  1  0  0  0  0
  6  7  1  0  0  0  0
  8  9  1  0  0  0  0
  8  6  1  0  0  0  0
 10  8  1  0  0  0  0
 11 10  1  0  0  0  0
 12 10  1  0  0  0  0
 12  3  1  0  0  0  0
 13 12  1  0  0  0  0
 14  3  1  0  0  0  0
 14 16  1  0  0  0  0
 15 14  1  0  0  0  0
 17 14  1  0  0  0  0
 17 19  1  0  0  0  0
 18 17  1  0  0  0  0
M  END
