1,3,5
q = 0.0, confidence = 1.0

 33 34  0  0  1  0  0  0  0  0999 V2000
   -0.4186   -1.2489   -1.1966 C   0  0  0  0  0  3  0  0  0  0  0  0
   -1.6723   -1.9172   -1.2913 C   0  0  0  0  0  3  0  0  0  0  0  0
   -2.3403   -2.3254   -0.1101 C   0  0  0  0  0  3  0  0  0  0  0  0
   -1.7373   -2.1093    1.1634 C   0  0  0  0  0  3  0  0  0  0  0  0
   -0.4883   -1.4403    1.2412 C   0  0  0  0  0  3  0  0  0  0  0  0
    0.2068   -1.0182    0.0635 C   0  0  0  0  0  3  0  0  0  0  0  0
    1.5786   -0.3467    0.1125 C   0  0  2  0  0  0  0  0  0  0  0  0
    2.6127   -1.2286   -0.6754 C   0  0  0  0  0  0  0  0  0  0  0  0
    2.2896   -2.2535   -1.2436 O   0  0  0  0  0  0  0  0  0  0  0  0
    4.0410   -0.7186   -0.6282 C   0  0  0  0  0  0  0  0  0  0  0  0
    4.5158   -0.4758    0.8165 C   0  0  0  0  0  0  0  0  0  0  0  0
    3.5400    0.4256    1.5764 C   0  0  0  0  0  0  0  0  0  0  0  0
    2.1172   -0.1423    1.5509 C   0  0  0  0  0  0  0  0  0  0  0  0
    1.4638    0.9836   -0.6591 C   0  0  0  0  0  0  0  0  0  0  0  0
    1.5578    1.0659   -1.8719 O   0  0  0  0  0  0  0  0  0  0  0  0
    1.2307    2.0276    0.1534 O   0  0  0  0  0  0  0  0  0  0  0  0
    0.9960    3.2914   -0.4933 C   0  0  0  0  0  0  0  0  0  0  0  0
    0.0724   -0.8759   -2.1050 H   0  0  0  0  0  0  0  0  0  0  0  0
   -2.1468   -2.0516   -2.2722 H   0  0  0  0  0  0  0  0  0  0  0  0
   -3.3359   -2.7866   -0.1730 H   0  0  0  0  0  0  0  0  0  0  0  0
   -2.2644   -2.3942    2.0834 H   0  0  0  0  0  0  0  0  0  0  0  0
   -0.0690   -1.2281    2.2323 H   0  0  0  0  0  0  0  0  0  0  0  0
    4.6782   -1.4464   -1.1657 H   0  0  0  0  0  0  0  0  0  0  0  0
    4.0646    0.2382   -1.1948 H   0  0  0  0  0  0  0  0  0  0  0  0
    4.6004   -1.4541    1.3383 H   0  0  0  0  0  0  0  0  0  0  0  0
    5.5346   -0.0370    0.8063 H   0  0  0  0  0  0  0  0  0  0  0  0
    3.5395    1.4451    1.1352 H   0  0  0  0  0  0  0  0  0  0  0  0
    3.8672    0.5446    2.6297 H   0  0  0  0  0  0  0  0  0  0  0  0
    2.1177   -1.1291    2.0620 H   0  0  0  0  0  0  0  0  0  0  0  0
    1.4220    0.5196    2.1038 H   0  0  0  0  0  0  0  0  0  0  0  0
    0.1655    3.2034   -1.2194 H   0  0  0  0  0  0  0  0  0  0  0  0
    0.7340    3.9945    0.3160 H   0  0  0  0  0  0  0  0  0  0  0  0
    1.9077    3.6269   -1.0266 H   0  0  0  0  0  0  0  0  0  0  0  0
  1  6  1  0  0  0  0
  2  1  1  0  0  0  0
  2  3  1  0  0  0  0
  3  4  1  0  0  0  0
  4  5  1  0  0  0  0
  4 21  1  0  0  0  0
  5 22  1  0  0  0  0
  6  7  1  0  0  0  0
  6  5  1  0  0  0  0
  7 14  1  6  0  0  0
  7 13  1  0  0  0  0
  8 10  1  0  0  0  0
  8  7  1  0  0  0  0
  9  8  2  0  0  0  0
 10 11  1  0  0  0  0
 11 25  1  0  0  0  0
 11 12  1  0  0  0  0
 12 28  1  0  0  0  0
 13 12  1  0  0  0  0
 13 29  1  0  0  0  0
 13 30  1  0  0  0  0
 14 16  1  0  0  0  0
 15 14  2  0  0  0  0
 17 16  1  0  0  0  0
 17 32  1  0  0  0  0
 18  1  1  0  0  0  0
 19  2  1  0  0  0  0
 20  3  1  0  0  0  0
 23 10  1  0  0  0  0
 24 10  1  0  0  0  0
 26 11  1  0  0  0  0
 27 12  1  0  0  0  0
 31 17  1  0  0  0  0
 33 17  1  0  0  0  0
M  END
