10,17,19
q = 0.0, confidence = 1.0

 24 25  0  0  0  0  0  0  0  0999 V2000
   -2.5123   -0.1763    1.1544 O   0  0  0  0  0  0  0  0  0  0  0  0
   -2.4576   -0.1781   -1.1396 O   0  0  0  0  0  0  0  0  0  0  0  0
   -2.2262    0.6251    0.0195 C   0  0  0  0  0  0  0  0  0  0  0  0
   -2.8740   -1.4769   -0.7174 C   0  0  0  0  0  0  0  0  0  0  0  0
   -2.3881   -2.2356   -1.3626 H   0  0  0  0  0  0  0  0  0  0  0  0
   -3.9813   -1.5736   -0.8010 H   0  0  0  0  0  0  0  0  0  0  0  0
    1.2364    1.8373   -1.2428 C   0  0  0  0  0  3  0  0  0  0  0  0
    1.7612    1.9795   -2.1969 H   0  0  0  0  0  0  0  0  0  0  0  0
   -0.7664    1.0952    0.0116 C   0  0  0  0  0  3  0  0  0  0  0  0
   -0.0755    1.3307    1.2294 C   0  0  0  0  0  3  0  0  0  0  0  0
   -0.5802    1.0797    2.1730 H   0  0  0  0  0  0  0  0  0  0  0  0
   -2.4094   -1.5397    0.7382 C   0  0  0  0  0  0  0  0  0  0  0  0
   -3.0630   -2.1494    1.3916 H   0  0  0  0  0  0  0  0  0  0  0  0
   -1.3644   -1.9078    0.8197 H   0  0  0  0  0  0  0  0  0  0  0  0
    1.2587    1.8396    1.2282 C   0  0  0  0  0  3  0  0  0  0  0  0
    1.7960    1.9814    2.1754 H   0  0  0  0  0  0  0  0  0  0  0  0
   -0.0869    1.3295   -1.2253 C   0  0  0  0  0  3  0  0  0  0  0  0
   -0.6026    1.0720   -2.1606 H   0  0  0  0  0  0  0  0  0  0  0  0
    1.9149    2.0706   -0.0075 C   0  0  0  0  0  3  0  0  0  0  0  0
    2.9627    2.4024   -0.0153 H   0  0  0  0  0  0  0  0  0  0  0  0
   -3.1668    1.8296    0.0275 C   0  0  0  0  0  0  0  0  0  0  0  0
   -4.2130    1.4692    0.0117 H   0  0  0  0  0  0  0  0  0  0  0  0
   -2.9831    2.4626   -0.8613 H   0  0  0  0  0  0  0  0  0  0  0  0
   -3.0062    2.4386    0.9379 H   0  0  0  0  0  0  0  0  0  0  0  0
  2  4  1  0  0  0  0
  2  3  1  0  0  0  0
  3 21  1  0  0  0  0
  3  1  1  0  0  0  0
  4 12  1  0  0  0  0
  5  4  1  0  0  0  0
  6  4  1  0  0  0  0
  7 17  1  0  0  0  0
  7 19  1  0  0  0  0
  8  7  1  0  0  0  0
  9  3  1  0  0  0  0
  9 10  1  0  0  0  0
 10 11  1  0  0  0  0
 12 14  1  0  0  0  0
 12  1  1  0  0  0  0
 12 13  1  0  0  0  0
 15 10  1  0  0  0  0
 15 16  1  0  0  0  0
 17  9  1  0  0  0  0
 18 17  1  0  0  0  0
 19 15  1  0  0  0  0
 20 19  1  0  0  0  0
 21 24  1  0  0  0  0
 22 21  1  0  0  0  0
 23 21  1  0  0  0  0
M  END
