2,4,6
q = 0.0, confidence = 1.0

 55 60  0  0  1  0  0  0  0  0999 V2000
   -1.7539    0.9829   -1.0047 P   0  0  0  0  0  0  0  0  0  0  0  0
    0.4597   -0.4930    0.0288 C   0  0  2  0  0  3  0  0  0  0  0  0
   -0.9056   -0.0820    0.2611 C   0  0  2  0  0  3  0  0  0  0  0  0
   -1.5787   -0.5726    1.4217 C   0  0  0  0  0  3  0  0  0  0  0  0
   -0.9186   -1.3960    2.3761 C   0  0  0  0  0  3  0  0  0  0  0  0
    0.4276   -1.7766    2.1396 C   0  0  0  0  0  3  0  0  0  0  0  0
    1.1228   -1.3110    0.9906 C   0  0  0  0  0  3  0  0  0  0  0  0
    1.2042    0.0000   -1.2315 C   0  0  0  0  0  0  0  0  0  0  0  0
    2.9099    1.4832   -0.2942 C   0  0  0  0  0  0  0  0  0  0  0  0
    3.8308    0.3838   -0.2907 C   0  0  0  0  0  0  0  0  0  0  0  0
    3.5041   -0.8145   -1.0101 C   0  0  0  0  0  0  0  0  0  0  0  0
    4.4232   -1.8698   -1.0465 C   0  0  0  0  0  0  0  0  0  0  0  0
    5.6622   -1.7501   -0.3718 C   0  0  0  0  0  0  0  0  0  0  0  0
    5.9950   -0.6036    0.3392 C   0  0  0  0  0  0  0  0  0  0  0  0
    5.0900    0.4982    0.3905 C   0  0  0  0  0  0  0  0  0  0  0  0
    5.3864    1.7165    1.0707 C   0  0  0  0  0  0  0  0  0  0  0  0
    4.4783    2.7687    1.0534 C   0  0  0  0  0  0  0  0  0  0  0  0
    3.2388    2.6656    0.3783 C   0  0  0  0  0  0  0  0  0  0  0  0
   -3.5062    0.8835   -0.4382 C   0  0  0  0  0  0  0  0  0  0  0  0
   -4.2783   -0.1791   -0.9547 C   0  0  0  0  0  0  0  0  0  0  0  0
   -5.6098   -0.3496   -0.5514 C   0  0  0  0  0  0  0  0  0  0  0  0
   -6.1938    0.5590    0.3462 C   0  0  0  0  0  0  0  0  0  0  0  0
   -5.4399    1.6349    0.8426 C   0  0  0  0  0  0  0  0  0  0  0  0
   -4.0994    1.7963    0.4585 C   0  0  0  0  0  0  0  0  0  0  0  0
   -1.2324    2.6578   -0.3976 C   0  0  0  0  0  0  0  0  0  0  0  0
   -0.6842    2.8997    0.8815 C   0  0  0  0  0  0  0  0  0  0  0  0
   -0.2609    4.1888    1.2411 C   0  0  0  0  0  0  0  0  0  0  0  0
   -0.3876    5.2531    0.3337 C   0  0  0  0  0  0  0  0  0  0  0  0
   -0.9363    5.0242   -0.9391 C   0  0  0  0  0  0  0  0  0  0  0  0
   -1.3472    3.7342   -1.3057 C   0  0  0  0  0  0  0  0  0  0  0  0
    1.7401    1.3384   -1.0270 N   0  0  0  0  0  0  0  0  0  0  0  0
    2.2779   -0.8655   -1.6565 N   0  0  0  0  0  0  0  0  0  0  0  0
   -2.6387   -0.3196    1.5666 H   0  0  0  0  0  0  0  0  0  0  0  0
   -1.4675   -1.7866    3.2430 H   0  0  0  0  0  0  0  0  0  0  0  0
    0.9331   -2.4626    2.8340 H   0  0  0  0  0  0  0  0  0  0  0  0
    2.1485   -1.6515    0.8004 H   0  0  0  0  0  0  0  0  0  0  0  0
    0.4523    0.0556   -2.0469 H   0  0  0  0  0  0  0  0  0  0  0  0
    4.1740   -2.7907   -1.5958 H   0  0  0  0  0  0  0  0  0  0  0  0
    6.3691   -2.5931   -0.4114 H   0  0  0  0  0  0  0  0  0  0  0  0
    6.9601   -0.5266    0.8617 H   0  0  0  0  0  0  0  0  0  0  0  0
    6.3472    1.8120    1.5982 H   0  0  0  0  0  0  0  0  0  0  0  0
    4.7202    3.7066    1.5770 H   0  0  0  0  0  0  0  0  0  0  0  0
    2.5304    3.5080    0.3732 H   0  0  0  0  0  0  0  0  0  0  0  0
   -3.8263   -0.8844   -1.6689 H   0  0  0  0  0  0  0  0  0  0  0  0
   -6.1924   -1.1967   -0.9433 H   0  0  0  0  0  0  0  0  0  0  0  0
   -7.2420    0.4311    0.6562 H   0  0  0  0  0  0  0  0  0  0  0  0
   -5.8969    2.3532    1.5405 H   0  0  0  0  0  0  0  0  0  0  0  0
   -3.5090    2.6342    0.8592 H   0  0  0  0  0  0  0  0  0  0  0  0
   -0.5727    2.0713    1.5968 H   0  0  0  0  0  0  0  0  0  0  0  0
    0.1750    4.3602    2.2371 H   0  0  0  0  0  0  0  0  0  0  0  0
   -0.0517    6.2623    0.6162 H   0  0  0  0  0  0  0  0  0  0  0  0
   -1.0323    5.8534   -1.6564 H   0  0  0  0  0  0  0  0  0  0  0  0
   -1.7559    3.5516   -2.3125 H   0  0  0  0  0  0  0  0  0  0  0  0
    1.0436    2.0806   -0.9319 H   0  0  0  0  0  0  0  0  0  0  0  0
    1.9985   -1.7434   -2.0948 H   0  0  0  0  0  0  0  0  0  0  0  0
  1 19  1  0  0  0  0
  1 25  1  0  0  0  0
  2  8  1  1  0  0  0
  2  3  1  0  0  0  0
  2  7  1  0  0  0  0
  3  1  1  6  0  0  0
  3  4  1  0  0  0  0
  4 33  1  0  0  0  0
  4  5  1  0  0  0  0
  5 34  1  0  0  0  0
  6  5  1  0  0  0  0
  6 35  1  0  0  0  0
  7  6  1  0  0  0  0
  8 31  1  0  0  0  0
  9 10  2  0  0  0  0
  9 18  1  0  0  0  0
 10 15  1  0  0  0  0
 11 10  1  0  0  0  0
 12 11  2  0  0  0  0
 12 13  1  0  0  0  0
 13 14  2  0  0  0  0
 14 15  1  0  0  0  0
 14 40  1  0  0  0  0
 15 16  2  0  0  0  0
 16 41  1  0  0  0  0
 17 16  1  0  0  0  0
 17 42  1  0  0  0  0
 18 17  2  0  0  0  0
 19 24  1  0  0  0  0
 20 21  1  0  0  0  0
 20 19  2  0  0  0  0
 21 22  2  0  0  0  0
 22 46  1  0  0  0  0
 22 23  1  0  0  0  0
 23 47  1  0  0  0  0
 24 23  2  0  0  0  0
 24 48  1  0  0  0  0
 25 26  1  0  0  0  0
 26 27  2  0  0  0  0
 26 49  1  0  0  0  0
 27 50  1  0  0  0  0
 28 51  1  0  0  0  0
 28 27  1  0  0  0  0
 29 28  2  0  0  0  0
 30 29  1  0  0  0  0
 30 25  2  0  0  0  0
 31 54  1  0  0  0  0
 31  9  1  0  0  0  0
 32  8  1  0  0  0  0
 32 11  1  0  0  0  0
 36  7  1  0  0  0  0
 37  8  1  0  0  0  0
 38 12  1  0  0  0  0
 39 13  1  0  0  0  0
 43 18  1  0  0  0  0
 44 20  1  0  0  0  0
 45 21  1  0  0  0  0
 52 29  1  0  0  0  0
 53 30  1  0  0  0  0
 55 32  1  0  0  0  0
M  END
