3,24,43
q = -2.0, confidence = 0.822

 45 47  0  0  0  0  0  0  0  0999 V2000
   -1.0922   -1.9384   -0.5112 N   0  0  0  0  0  0  0  0  0  0  0  0
    1.0923   -1.9384   -0.5112 N   0  0  0  0  0  0  0  0  0  0  0  0
    0.0001   -1.1429   -0.2655 C   0  0  0  0  0  2  0  0  0  0  0  0
   -0.6833   -3.2089   -0.9196 C   0  0  0  0  0  0  0  0  0  0  0  0
   -1.3925   -3.9881   -1.2058 H   0  0  0  0  0  0  0  0  0  0  0  0
    0.6835   -3.2088   -0.9197 C   0  0  0  0  0  0  0  0  0  0  0  0
    1.3927   -3.9880   -1.2058 H   0  0  0  0  0  0  0  0  0  0  0  0
   -2.4376   -1.4402   -0.5002 C   0  0  0  0  0  0  0  0  0  0  0  0
   -3.4796   -2.1749    0.1066 C   0  0  0  0  0  0  0  0  0  0  0  0
   -4.7697   -1.6052    0.0926 C   0  0  0  0  0  0  0  0  0  0  0  0
   -5.5961   -2.1690    0.5545 H   0  0  0  0  0  0  0  0  0  0  0  0
   -5.0300   -0.3463   -0.4787 C   0  0  0  0  0  0  0  0  0  0  0  0
   -3.9489    0.3678   -1.0322 C   0  0  0  0  0  0  0  0  0  0  0  0
   -4.1227    1.3674   -1.4616 H   0  0  0  0  0  0  0  0  0  0  0  0
   -2.6439   -0.1520   -1.0606 C   0  0  0  0  0  0  0  0  0  0  0  0
   -3.2602   -3.5059    0.7832 C   0  0  0  0  0  0  0  0  0  0  0  0
   -3.3077   -4.3522    0.0655 H   0  0  0  0  0  0  0  0  0  0  0  0
   -4.0482   -3.6899    1.5381 H   0  0  0  0  0  0  0  0  0  0  0  0
   -2.2766   -3.5630    1.2898 H   0  0  0  0  0  0  0  0  0  0  0  0
   -6.4275    0.2173   -0.5147 C   0  0  0  0  0  0  0  0  0  0  0  0
   -6.4303    1.3177   -0.3841 H   0  0  0  0  0  0  0  0  0  0  0  0
   -7.0744   -0.2302    0.2647 H   0  0  0  0  0  0  0  0  0  0  0  0
   -6.9076    0.0102   -1.4949 H   0  0  0  0  0  0  0  0  0  0  0  0
   -1.4828    0.6476   -1.5745 C   0  0  0  0  0  3  0  0  0  0  0  0
   -1.8289    1.6459   -1.9092 H   0  0  0  0  0  0  0  0  0  0  0  0
   -1.0335    0.1435   -2.4586 H   0  0  0  0  0  0  0  0  0  0  0  0
    2.4378   -1.4400   -0.5003 C   0  0  0  0  0  0  0  0  0  0  0  0
    3.4797   -2.1747    0.1065 C   0  0  0  0  0  0  0  0  0  0  0  0
    4.7698   -1.6050    0.0926 C   0  0  0  0  0  0  0  0  0  0  0  0
    5.5963   -2.1688    0.5544 H   0  0  0  0  0  0  0  0  0  0  0  0
    5.0301   -0.3460   -0.4787 C   0  0  0  0  0  0  0  0  0  0  0  0
    3.9489    0.3680   -1.0322 C   0  0  0  0  0  0  0  0  0  0  0  0
    4.1227    1.3677   -1.4614 H   0  0  0  0  0  0  0  0  0  0  0  0
    2.6440   -0.1518   -1.0605 C   0  0  0  0  0  0  0  0  0  0  0  0
    3.2604   -3.5058    0.7830 C   0  0  0  0  0  0  0  0  0  0  0  0
    3.3079   -4.3521    0.0652 H   0  0  0  0  0  0  0  0  0  0  0  0
    2.2769   -3.5630    1.2897 H   0  0  0  0  0  0  0  0  0  0  0  0
    4.0485   -3.6899    1.5378 H   0  0  0  0  0  0  0  0  0  0  0  0
    6.4275    0.2178   -0.5145 C   0  0  0  0  0  0  0  0  0  0  0  0
    7.0750   -0.2314    0.2634 H   0  0  0  0  0  0  0  0  0  0  0  0
    6.4303    1.3179   -0.3815 H   0  0  0  0  0  0  0  0  0  0  0  0
    6.9068    0.0128   -1.4956 H   0  0  0  0  0  0  0  0  0  0  0  0
    1.4828    0.6477   -1.5744 C   0  0  0  0  0  3  0  0  0  0  0  0
    1.0336    0.1437   -2.4586 H   0  0  0  0  0  0  0  0  0  0  0  0
    1.8289    1.6461   -1.9090 H   0  0  0  0  0  0  0  0  0  0  0  0
  1  8  1  0  0  0  0
  1  3  1  0  0  0  0
  2 27  1  0  0  0  0
  2  3  1  0  0  0  0
  4  1  1  0  0  0  0
  5  4  1  0  0  0  0
  6  4  2  0  0  0  0
  6  2  1  0  0  0  0
  7  6  1  0  0  0  0
  8  9  1  0  0  0  0
  9 16  1  0  0  0  0
 10  9  2  0  0  0  0
 10 11  1  0  0  0  0
 12 10  1  0  0  0  0
 13 12  2  0  0  0  0
 14 13  1  0  0  0  0
 15 13  1  0  0  0  0
 15  8  2  0  0  0  0
 16 19  1  0  0  0  0
 16 18  1  0  0  0  0
 17 16  1  0  0  0  0
 20 12  1  0  0  0  0
 20 21  1  0  0  0  0
 20 22  1  0  0  0  0
 23 20  1  0  0  0  0
 24 15  1  0  0  0  0
 25 24  1  0  0  0  0
 26 24  1  0  0  0  0
 27 28  1  0  0  0  0
 28 35  1  0  0  0  0
 29 28  2  0  0  0  0
 29 30  1  0  0  0  0
 31 29  1  0  0  0  0
 32 31  2  0  0  0  0
 33 32  1  0  0  0  0
 34 32  1  0  0  0  0
 34 27  2  0  0  0  0
 35 37  1  0  0  0  0
 35 38  1  0  0  0  0
 36 35  1  0  0  0  0
 39 31  1  0  0  0  0
 39 41  1  0  0  0  0
 39 40  1  0  0  0  0
 42 39  1  0  0  0  0
 43 34  1  0  0  0  0
 44 43  1  0  0  0  0
 45 43  1  0  0  0  0
M  END
