12,14,16
q = 0.0, confidence = 0.994

 45 48  0  0  1  0  0  0  0  0999 V2000
   -2.6757   -1.0280   -0.5230 C   0  0  2  0  0  0  0  0  0  0  0  0
   -3.9678   -0.7455   -1.3053 C   0  0  0  0  0  0  0  0  0  0  0  0
   -1.9216   -1.0092    3.0827 C   0  0  0  0  0  0  0  0  0  0  0  0
   -1.8247   -1.5065    1.8378 C   0  0  0  0  0  0  0  0  0  0  0  0
   -2.9732   -1.6810    0.8824 C   0  0  2  0  0  0  0  0  0  0  0  0
   -3.1835   -3.1726    0.4903 C   0  0  0  0  0  0  0  0  0  0  0  0
   -2.2346   -3.4191   -0.7107 C   0  0  0  0  0  0  0  0  0  0  0  0
   -0.5017   -0.2227   -1.0007 C   0  0  0  0  0  0  0  0  0  0  0  0
   -1.7353    0.1728   -0.5422 C   0  0  0  0  0  0  0  0  0  0  0  0
   -0.5604   -1.6845   -1.3561 C   0  0  0  0  0  0  0  0  0  0  0  0
    0.7539    0.5316   -1.0413 C   0  0  0  0  0  3  0  0  0  0  0  0
    1.0163    1.5987   -0.1104 C   0  0  0  0  0  3  0  0  0  0  0  0
    2.2381    2.3174   -0.1336 C   0  0  0  0  0  3  0  0  0  0  0  0
    3.2708    1.9145   -1.0285 C   0  0  0  0  0  3  0  0  0  0  0  0
    3.0561    0.8438   -1.9363 C   0  0  0  0  0  3  0  0  0  0  0  0
    1.8194    0.1399   -1.9158 C   0  0  0  0  0  3  0  0  0  0  0  0
   -2.1971    1.5347   -0.2318 C   0  0  0  0  0  0  0  0  0  0  0  0
   -1.8469    2.6142   -1.0796 C   0  0  0  0  0  0  0  0  0  0  0  0
   -2.2929    3.9131   -0.8098 C   0  0  0  0  0  0  0  0  0  0  0  0
   -3.1013    4.1648    0.3117 C   0  0  0  0  0  0  0  0  0  0  0  0
   -3.4643    3.1040    1.1560 C   0  0  0  0  0  0  0  0  0  0  0  0
   -3.0239    1.8009    0.8852 C   0  0  0  0  0  0  0  0  0  0  0  0
    0.3515   -2.4283   -1.7109 O   0  0  0  0  0  0  0  0  0  0  0  0
   -1.8718   -2.0764   -1.1524 N   0  0  0  0  0  0  0  0  0  0  0  0
   -0.8302   -1.8219    1.4735 H   0  0  0  0  0  0  0  0  0  0  0  0
   -3.8962   -1.2567    1.3270 H   0  0  0  0  0  0  0  0  0  0  0  0
   -1.0301   -0.9049    3.7188 H   0  0  0  0  0  0  0  0  0  0  0  0
   -2.8908   -0.6862    3.5008 H   0  0  0  0  0  0  0  0  0  0  0  0
   -4.2387   -3.3395    0.1964 H   0  0  0  0  0  0  0  0  0  0  0  0
   -2.9729   -3.8475    1.3419 H   0  0  0  0  0  0  0  0  0  0  0  0
   -1.3030   -3.9608   -0.4452 H   0  0  0  0  0  0  0  0  0  0  0  0
   -2.7305   -3.9989   -1.5171 H   0  0  0  0  0  0  0  0  0  0  0  0
    0.2539    1.8545    0.6362 H   0  0  0  0  0  0  0  0  0  0  0  0
    2.4198    3.1152    0.5986 H   0  0  0  0  0  0  0  0  0  0  0  0
    4.2479    2.4172   -0.9962 H   0  0  0  0  0  0  0  0  0  0  0  0
    3.8652    0.5080   -2.5982 H   0  0  0  0  0  0  0  0  0  0  0  0
    1.6724   -0.7458   -2.5477 H   0  0  0  0  0  0  0  0  0  0  0  0
   -4.6131   -1.6444   -1.3501 H   0  0  0  0  0  0  0  0  0  0  0  0
   -3.7232   -0.4423   -2.3418 H   0  0  0  0  0  0  0  0  0  0  0  0
   -4.5390    0.0731   -0.8262 H   0  0  0  0  0  0  0  0  0  0  0  0
   -1.2262    2.4167   -1.9660 H   0  0  0  0  0  0  0  0  0  0  0  0
   -2.0141    4.7362   -1.4853 H   0  0  0  0  0  0  0  0  0  0  0  0
   -3.4514    5.1863    0.5238 H   0  0  0  0  0  0  0  0  0  0  0  0
   -4.0952    3.2921    2.0379 H   0  0  0  0  0  0  0  0  0  0  0  0
   -3.2913    0.9821    1.5665 H   0  0  0  0  0  0  0  0  0  0  0  0
  1  2  1  6  0  0  0
  1  5  1  0  0  0  0
  2 40  1  0  0  0  0
  3 28  1  0  0  0  0
  3 27  1  0  0  0  0
  4  3  2  0  0  0  0
  5 26  1  1  0  0  0
  5  4  1  0  0  0  0
  6  5  1  0  0  0  0
  6 30  1  0  0  0  0
  7 31  1  0  0  0  0
  7  6  1  0  0  0  0
  8  9  2  0  0  0  0
  9  1  1  0  0  0  0
  9 17  1  0  0  0  0
 10 24  1  0  0  0  0
 10  8  1  0  0  0  0
 11  8  1  0  0  0  0
 11 12  1  0  0  0  0
 12 33  1  0  0  0  0
 13 12  1  0  0  0  0
 13 34  1  0  0  0  0
 14 35  1  0  0  0  0
 14 13  1  0  0  0  0
 15 16  1  0  0  0  0
 15 14  1  0  0  0  0
 16 11  1  0  0  0  0
 17 22  1  0  0  0  0
 18 19  1  0  0  0  0
 18 17  2  0  0  0  0
 19 20  2  0  0  0  0
 20 43  1  0  0  0  0
 20 21  1  0  0  0  0
 21 44  1  0  0  0  0
 22 21  2  0  0  0  0
 22 45  1  0  0  0  0
 23 10  2  0  0  0  0
 24  7  1  0  0  0  0
 24  1  1  0  0  0  0
 25  4  1  0  0  0  0
 29  6  1  0  0  0  0
 32  7  1  0  0  0  0
 36 15  1  0  0  0  0
 37 16  1  0  0  0  0
 38  2  1  0  0  0  0
 39  2  1  0  0  0  0
 41 18  1  0  0  0  0
 42 19  1  0  0  0  0
M  END
