3,6,10
q = 0.0, confidence = 1.0

 27 28  0  0  0  0  0  0  0  0999 V2000
    2.4084    1.9968   -0.4343 C   0  0  0  0  0  3  0  0  0  0  0  0
    2.8287    2.8131    0.1678 H   0  0  0  0  0  0  0  0  0  0  0  0
    3.2474    1.2235   -1.2801 C   0  0  0  0  0  3  0  0  0  0  0  0
    4.3207    1.4526   -1.3420 H   0  0  0  0  0  0  0  0  0  0  0  0
    0.4737    0.5476   -1.0135 C   0  0  0  0  0  3  0  0  0  0  0  0
    1.3467   -0.2099   -1.8660 C   0  0  0  0  0  3  0  0  0  0  0  0
    0.9215   -1.0891   -2.3680 H   0  0  0  0  0  0  0  0  0  0  0  0
    2.7096    0.1401   -2.0316 C   0  0  0  0  0  3  0  0  0  0  0  0
    3.3626   -0.4730   -2.6667 H   0  0  0  0  0  0  0  0  0  0  0  0
    1.0423    1.6353   -0.2734 C   0  0  0  0  0  3  0  0  0  0  0  0
    0.4326    2.1950    0.4453 H   0  0  0  0  0  0  0  0  0  0  0  0
   -1.1216   -1.1701   -1.2554 O   0  0  0  0  0  0  0  0  0  0  0  0
   -0.9157    0.0157   -0.8447 C   0  0  0  0  0  0  0  0  0  0  0  0
   -3.2785    0.2084   -0.0464 C   0  0  0  0  0  0  0  0  0  0  0  0
   -1.8637    2.1717    0.0830 C   0  0  0  0  0  0  0  0  0  0  0  0
   -1.9840    0.8000   -0.2643 C   0  0  0  0  0  0  0  0  0  0  0  0
   -3.4609   -1.0969   -0.4309 N   0  0  0  0  0  0  0  0  0  0  0  0
   -1.8313    3.3107    0.3843 N   0  0  0  0  0  0  0  0  0  0  0  0
   -5.5900    0.1939    0.7177 C   0  0  0  0  0  0  0  0  0  0  0  0
   -6.4454    0.7109    1.1781 H   0  0  0  0  0  0  0  0  0  0  0  0
   -4.6194   -1.7721   -0.2668 C   0  0  0  0  0  0  0  0  0  0  0  0
   -4.6240   -2.8148   -0.6168 H   0  0  0  0  0  0  0  0  0  0  0  0
   -5.7207   -1.1588    0.3094 C   0  0  0  0  0  0  0  0  0  0  0  0
   -6.6594   -1.7128    0.4390 H   0  0  0  0  0  0  0  0  0  0  0  0
   -4.3924    0.8728    0.5455 C   0  0  0  0  0  0  0  0  0  0  0  0
   -4.2728    1.9187    0.8598 H   0  0  0  0  0  0  0  0  0  0  0  0
   -2.5362   -1.4695   -0.8813 H   0  0  0  0  0  0  0  0  0  0  0  0
  1 10  1  0  0  0  0
  1  2  1  0  0  0  0
  3  1  1  0  0  0  0
  4  3  1  0  0  0  0
  5 13  1  0  0  0  0
  5 10  1  0  0  0  0
  6  5  1  0  0  0  0
  7  6  1  0  0  0  0
  8  6  1  0  0  0  0
  8  3  1  0  0  0  0
  9  8  1  0  0  0  0
 10 11  1  0  0  0  0
 12 13  2  0  0  0  0
 13 16  1  0  0  0  0
 14 25  1  0  0  0  0
 15 18  3  0  0  0  0
 16 14  2  0  0  0  0
 16 15  1  0  0  0  0
 17 21  1  0  0  0  0
 17 14  1  0  0  0  0
 19 20  1  0  0  0  0
 21 23  2  0  0  0  0
 22 21  1  0  0  0  0
 23 24  1  0  0  0  0
 23 19  1  0  0  0  0
 25 19  2  0  0  0  0
 25 26  1  0  0  0  0
 27 17  1  0  0  0  0
M  END
