15,17,19
q = 0.0, confidence = 0.998

 44 46  0  0  1  0  0  0  0  0999 V2000
    1.6232    0.8118    0.1104 N   0  0  0  0  0  0  0  0  0  0  0  0
    1.6456   -0.7635   -1.6257 O   0  0  0  0  0  0  0  0  0  0  0  0
    0.7882    0.1078   -0.8757 C   0  0  1  0  0  0  0  0  0  0  0  0
    2.5585   -1.2041   -0.6268 C   0  0  1  0  0  0  0  0  0  0  0  0
    3.8009   -1.9279   -1.1018 C   0  0  0  0  0  0  0  0  0  0  0  0
    4.6228   -2.2759    0.1580 C   0  0  0  0  0  0  0  0  0  0  0  0
    4.8747   -1.0654    1.0789 C   0  0  0  0  0  0  0  0  0  0  0  0
    3.5944   -0.2806    1.4355 C   0  0  0  0  0  0  0  0  0  0  0  0
    2.9049    0.0885    0.1196 C   0  0  2  0  0  0  0  0  0  0  0  0
    1.6809    2.2985   -0.0421 C   0  0  0  0  0  0  0  0  0  0  0  0
    0.2690    2.8689    0.1725 C   0  0  0  0  0  0  0  0  0  0  0  0
    2.2110    2.7321   -1.4277 C   0  0  0  0  0  0  0  0  0  0  0  0
    2.5981    2.8682    1.0525 C   0  0  0  0  0  0  0  0  0  0  0  0
   -0.3138   -0.7367   -0.2225 C   0  0  0  0  0  3  0  0  0  0  0  0
   -1.1032   -1.5970   -1.0558 C   0  0  0  0  0  3  0  0  0  0  0  0
   -2.1216   -2.4065   -0.4999 C   0  0  0  0  0  3  0  0  0  0  0  0
   -2.3861   -2.3493    0.9054 C   0  0  0  0  0  3  0  0  0  0  0  0
   -1.6151   -1.5021    1.7373 C   0  0  0  0  0  3  0  0  0  0  0  0
   -0.5842   -0.6915    1.1661 C   0  0  0  0  0  3  0  0  0  0  0  0
    0.3213    0.8021   -1.6024 H   0  0  0  0  0  0  0  0  0  0  0  0
    2.0173   -1.8800    0.0852 H   0  0  0  0  0  0  0  0  0  0  0  0
    4.3776   -1.2709   -1.7877 H   0  0  0  0  0  0  0  0  0  0  0  0
    3.5360   -2.8461   -1.6649 H   0  0  0  0  0  0  0  0  0  0  0  0
    4.0733   -3.0551    0.7311 H   0  0  0  0  0  0  0  0  0  0  0  0
    5.5898   -2.7344   -0.1340 H   0  0  0  0  0  0  0  0  0  0  0  0
    5.5814   -0.3695    0.5736 H   0  0  0  0  0  0  0  0  0  0  0  0
    5.3865   -1.4019    2.0040 H   0  0  0  0  0  0  0  0  0  0  0  0
    2.9073   -0.9000    2.0523 H   0  0  0  0  0  0  0  0  0  0  0  0
    3.8496    0.6123    2.0378 H   0  0  0  0  0  0  0  0  0  0  0  0
    3.6530    0.6336   -0.5084 H   0  0  0  0  0  0  0  0  0  0  0  0
   -0.4494    2.5207   -0.5938 H   0  0  0  0  0  0  0  0  0  0  0  0
    0.2961    3.9752    0.1145 H   0  0  0  0  0  0  0  0  0  0  0  0
   -0.1282    2.5849    1.1661 H   0  0  0  0  0  0  0  0  0  0  0  0
    1.5511    2.3846   -2.2476 H   0  0  0  0  0  0  0  0  0  0  0  0
    3.2291    2.3376   -1.6193 H   0  0  0  0  0  0  0  0  0  0  0  0
    2.2646    3.8371   -1.4927 H   0  0  0  0  0  0  0  0  0  0  0  0
    3.6562    2.5747    0.9063 H   0  0  0  0  0  0  0  0  0  0  0  0
    2.2710    2.5236    2.0535 H   0  0  0  0  0  0  0  0  0  0  0  0
    2.5573    3.9750    1.0354 H   0  0  0  0  0  0  0  0  0  0  0  0
   -0.9154   -1.6092   -2.1385 H   0  0  0  0  0  0  0  0  0  0  0  0
   -2.7453   -3.0327   -1.1522 H   0  0  0  0  0  0  0  0  0  0  0  0
   -3.2136   -2.9337    1.3312 H   0  0  0  0  0  0  0  0  0  0  0  0
   -1.8433   -1.4255    2.8091 H   0  0  0  0  0  0  0  0  0  0  0  0
    0.0100    0.0055    1.7736 H   0  0  0  0  0  0  0  0  0  0  0  0
  1  9  1  0  0  0  0
  2  3  1  0  0  0  0
  2  4  1  0  0  0  0
  3 20  1  6  0  0  0
  3 14  1  0  0  0  0
  3  1  1  0  0  0  0
  4 21  1  1  0  0  0
  4  9  1  0  0  0  0
  5  4  1  0  0  0  0
  5  6  1  0  0  0  0
  6 24  1  0  0  0  0
  6  7  1  0  0  0  0
  7  8  1  0  0  0  0
  7 27  1  0  0  0  0
  8 29  1  0  0  0  0
  8 28  1  0  0  0  0
  9 30  1  6  0  0  0
  9  8  1  0  0  0  0
 10  1  1  0  0  0  0
 10 11  1  0  0  0  0
 10 13  1  0  0  0  0
 11 33  1  0  0  0  0
 12 10  1  0  0  0  0
 13 38  1  0  0  0  0
 14 19  1  0  0  0  0
 15 16  1  0  0  0  0
 15 14  1  0  0  0  0
 16 17  1  0  0  0  0
 17 42  1  0  0  0  0
 17 18  1  0  0  0  0
 18 43  1  0  0  0  0
 19 18  1  0  0  0  0
 19 44  1  0  0  0  0
 22  5  1  0  0  0  0
 23  5  1  0  0  0  0
 25  6  1  0  0  0  0
 26  7  1  0  0  0  0
 31 11  1  0  0  0  0
 32 11  1  0  0  0  0
 34 12  1  0  0  0  0
 35 12  1  0  0  0  0
 36 12  1  0  0  0  0
 37 13  1  0  0  0  0
 39 13  1  0  0  0  0
 40 15  1  0  0  0  0
 41 16  1  0  0  0  0
M  END
