6,8,10
q = -1.0, confidence = 0.004

 29 29  0  0  1  0  0  0  0  0999 V2000
   -1.4351    2.3875    0.3804 O   0  0  0  0  0  0  0  0  0  0  0  0
   -0.4991    0.8509    2.4033 O   0  0  0  0  0  0  0  0  0  0  0  0
    1.3313   -1.0970    1.9234 O   0  0  0  0  0  0  0  0  0  0  0  0
    4.7950    0.3207   -1.1725 N   0  0  0  0  0  0  0  0  0  0  0  0
   -0.5066    1.4664    0.0401 C   0  0  1  0  0  3  0  0  0  0  0  0
   -0.0519    0.6387    1.1359 C   0  0  1  0  0  3  0  0  0  0  0  0
    0.9465   -0.3692    0.8552 C   0  0  2  0  0  3  0  0  0  0  0  0
    1.3204   -0.6048   -0.4951 C   0  0  0  0  0  3  0  0  0  0  0  0
    1.3229    0.5741   -1.4488 C   0  0  1  0  0  0  0  0  0  0  0  0
   -0.0622    1.1695   -1.2772 C   0  0  0  0  0  3  0  0  0  0  0  0
   -2.0995    3.0917   -0.6603 C   0  0  0  0  0  0  0  0  0  0  0  0
    0.3144    1.7490    3.1563 C   0  0  0  0  0  0  0  0  0  0  0  0
    2.2088   -2.1980    1.7037 C   0  0  0  0  0  0  0  0  0  0  0  0
    2.4890    1.5861   -1.2199 C   0  0  0  0  0  0  0  0  0  0  0  0
    3.7885    0.9203   -1.2052 C   0  0  0  0  0  0  0  0  0  0  0  0
    1.9588   -1.4685   -0.7235 H   0  0  0  0  0  0  0  0  0  0  0  0
    1.4103    0.1800   -2.4802 H   0  0  0  0  0  0  0  0  0  0  0  0
   -0.5265    1.6953   -2.1231 H   0  0  0  0  0  0  0  0  0  0  0  0
   -2.7031    2.4036   -1.2898 H   0  0  0  0  0  0  0  0  0  0  0  0
   -2.7765    3.8082   -0.1613 H   0  0  0  0  0  0  0  0  0  0  0  0
   -1.3833    3.6488   -1.3031 H   0  0  0  0  0  0  0  0  0  0  0  0
   -0.1485    1.8359    4.1570 H   0  0  0  0  0  0  0  0  0  0  0  0
    0.3475    2.7566    2.6848 H   0  0  0  0  0  0  0  0  0  0  0  0
    1.3502    1.3595    3.2689 H   0  0  0  0  0  0  0  0  0  0  0  0
    3.1373   -1.8803    1.1824 H   0  0  0  0  0  0  0  0  0  0  0  0
    1.7066   -2.9979    1.1191 H   0  0  0  0  0  0  0  0  0  0  0  0
    2.4614   -2.5900    2.7052 H   0  0  0  0  0  0  0  0  0  0  0  0
    2.3439    2.0959   -0.2436 H   0  0  0  0  0  0  0  0  0  0  0  0
    2.4802    2.3726   -2.0040 H   0  0  0  0  0  0  0  0  0  0  0  0
  2 12  1  0  0  0  0
  5  1  1  6  0  0  0
  5  6  1  0  0  0  0
  6  2  1  1  0  0  0
  7  6  1  0  0  0  0
  7  3  1  6  0  0  0
  8  7  1  0  0  0  0
  9 17  1  6  0  0  0
  9 10  1  0  0  0  0
  9 14  1  0  0  0  0
  9  8  1  0  0  0  0
 10  5  1  0  0  0  0
 11 20  1  0  0  0  0
 11  1  1  0  0  0  0
 12 24  1  0  0  0  0
 12 22  1  0  0  0  0
 13  3  1  0  0  0  0
 13 27  1  0  0  0  0
 14 15  1  0  0  0  0
 14 28  1  0  0  0  0
 15  4  3  0  0  0  0
 16  8  1  0  0  0  0
 18 10  1  0  0  0  0
 19 11  1  0  0  0  0
 21 11  1  0  0  0  0
 23 12  1  0  0  0  0
 25 13  1  0  0  0  0
 26 13  1  0  0  0  0
 29 14  1  0  0  0  0
M  END
