4,6,8
q = 0.0, confidence = 0.99

 35 35  0  0  1  0  0  0  0  0999 V2000
   -3.2605   -0.9835    0.1632 Si  0  0  0  0  0  0  0  0  0  0  0  0
    3.6098   -1.7244   -0.9079 O   0  0  0  0  0  0  0  0  0  0  0  0
    3.5601   -0.2294    0.9044 O   0  0  0  0  0  0  0  0  0  0  0  0
   -0.5220   -0.8482    1.1917 C   0  0  0  0  0  3  0  0  0  0  0  0
    0.8925   -0.7620    1.1011 C   0  0  0  0  0  3  0  0  0  0  0  0
    1.5122   -0.7162   -0.1823 C   0  0  2  0  0  3  0  0  0  0  0  0
    0.7144   -0.8371   -1.3551 C   0  0  0  0  0  3  0  0  0  0  0  0
   -0.7011   -0.9161   -1.2377 C   0  0  0  0  0  3  0  0  0  0  0  0
   -1.3613   -0.9448    0.0318 C   0  0  2  0  0  3  0  0  0  0  0  0
   -3.7816   -0.2301    1.8140 C   0  0  0  0  0  0  0  0  0  0  0  0
   -4.0060   -0.0258   -1.2830 C   0  0  0  0  0  0  0  0  0  0  0  0
   -3.8054   -2.7961    0.0799 C   0  0  0  0  0  0  0  0  0  0  0  0
    3.0212   -0.5685   -0.3415 C   0  0  0  0  0  0  0  0  0  0  0  0
    3.4377   -2.9148   -0.1491 C   0  0  0  0  0  0  0  0  0  0  0  0
    4.8609    0.3362    0.8257 C   0  0  0  0  0  0  0  0  0  0  0  0
   -0.9847   -0.8027    2.1888 H   0  0  0  0  0  0  0  0  0  0  0  0
    1.5161   -0.6352    1.9944 H   0  0  0  0  0  0  0  0  0  0  0  0
    1.1912   -0.7945   -2.3440 H   0  0  0  0  0  0  0  0  0  0  0  0
   -1.3019   -0.9239   -2.1596 H   0  0  0  0  0  0  0  0  0  0  0  0
   -3.4184    0.8110    1.9243 H   0  0  0  0  0  0  0  0  0  0  0  0
   -3.4051   -0.8206    2.6744 H   0  0  0  0  0  0  0  0  0  0  0  0
   -4.8888   -0.2166    1.8857 H   0  0  0  0  0  0  0  0  0  0  0  0
   -5.1135   -0.0451   -1.2164 H   0  0  0  0  0  0  0  0  0  0  0  0
   -3.7281   -0.4683   -2.2615 H   0  0  0  0  0  0  0  0  0  0  0  0
   -3.6780    1.0324   -1.2831 H   0  0  0  0  0  0  0  0  0  0  0  0
   -4.9097   -2.8803    0.1517 H   0  0  0  0  0  0  0  0  0  0  0  0
   -3.3642   -3.3857    0.9094 H   0  0  0  0  0  0  0  0  0  0  0  0
   -3.4904   -3.2653   -0.8747 H   0  0  0  0  0  0  0  0  0  0  0  0
    3.2327    0.2252   -1.0943 H   0  0  0  0  0  0  0  0  0  0  0  0
    4.0394   -3.6988   -0.6463 H   0  0  0  0  0  0  0  0  0  0  0  0
    2.3737   -3.2440   -0.1230 H   0  0  0  0  0  0  0  0  0  0  0  0
    3.7941   -2.7914    0.8967 H   0  0  0  0  0  0  0  0  0  0  0  0
    5.2150    0.4865    1.8627 H   0  0  0  0  0  0  0  0  0  0  0  0
    4.8323    1.3214    0.3071 H   0  0  0  0  0  0  0  0  0  0  0  0
    5.5664   -0.3368    0.2916 H   0  0  0  0  0  0  0  0  0  0  0  0
  1 10  1  0  0  0  0
  2 13  1  0  0  0  0
  2 14  1  0  0  0  0
  4 16  1  0  0  0  0
  5  4  1  0  0  0  0
  5 17  1  0  0  0  0
  6 13  1  1  0  0  0
  6  5  1  0  0  0  0
  7  8  1  0  0  0  0
  7  6  1  0  0  0  0
  8  9  1  0  0  0  0
  9  1  1  6  0  0  0
  9  4  1  0  0  0  0
 10 22  1  0  0  0  0
 10 20  1  0  0  0  0
 10 21  1  0  0  0  0
 11 23  1  0  0  0  0
 11  1  1  0  0  0  0
 12 26  1  0  0  0  0
 12  1  1  0  0  0  0
 12 27  1  0  0  0  0
 13  3  1  0  0  0  0
 14 31  1  0  0  0  0
 14 32  1  0  0  0  0
 15  3  1  0  0  0  0
 15 33  1  0  0  0  0
 18  7  1  0  0  0  0
 19  8  1  0  0  0  0
 24 11  1  0  0  0  0
 25 11  1  0  0  0  0
 28 12  1  0  0  0  0
 29 13  1  0  0  0  0
 30 14  1  0  0  0  0
 34 15  1  0  0  0  0
 35 15  1  0  0  0  0
M  END
