29,31,33
q = 0.0, confidence = 0.992

 60 64  0  0  1  0  0  0  0  0999 V2000
   -0.9748    0.0529   -2.9431 O   0  0  0  0  0  0  0  0  0  0  0  0
    0.7802    1.0837   -1.8275 N   0  0  0  0  0  0  0  0  0  0  0  0
    1.3885    1.0908   -0.4973 C   0  0  2  0  0  0  0  0  0  0  0  0
    1.1982    1.9544   -2.8960 C   0  0  0  0  0  0  0  0  0  0  0  0
    2.8725    0.6699   -0.5545 C   0  0  0  0  0  0  0  0  0  0  0  0
    3.1073   -0.6841   -1.2416 C   0  0  0  0  0  0  0  0  0  0  0  0
    0.5543    0.0339    0.2378 C   0  0  0  0  0  0  0  0  0  0  0  0
   -0.4589   -0.4026   -0.5738 C   0  0  0  0  0  0  0  0  0  0  0  0
   -0.3019    0.2337   -1.9288 C   0  0  0  0  0  0  0  0  0  0  0  0
    1.1706    2.4718    0.1593 C   0  0  0  0  0  0  0  0  0  0  0  0
   -0.1518    2.9454    0.2846 C   0  0  0  0  0  0  0  0  0  0  0  0
   -0.4205    4.1774    0.8915 C   0  0  0  0  0  0  0  0  0  0  0  0
    0.6360    4.9676    1.3764 C   0  0  0  0  0  0  0  0  0  0  0  0
    1.9554    4.5122    1.2453 C   0  0  0  0  0  0  0  0  0  0  0  0
    2.2230    3.2705    0.6424 C   0  0  0  0  0  0  0  0  0  0  0  0
    4.5367   -1.1487   -1.0899 C   0  0  0  0  0  0  0  0  0  0  0  0
    4.9576   -1.7665    0.1067 C   0  0  0  0  0  0  0  0  0  0  0  0
    6.2917   -2.1617    0.2807 C   0  0  0  0  0  0  0  0  0  0  0  0
    7.2309   -1.9435   -0.7408 C   0  0  0  0  0  0  0  0  0  0  0  0
    6.8250   -1.3293   -1.9356 C   0  0  0  0  0  0  0  0  0  0  0  0
    5.4885   -0.9352   -2.1059 C   0  0  0  0  0  0  0  0  0  0  0  0
    0.9374   -0.4627    1.5705 C   0  0  0  0  0  0  0  0  0  0  0  0
    1.0224   -1.8613    1.7843 C   0  0  0  0  0  0  0  0  0  0  0  0
    1.4241   -2.3766    3.0225 C   0  0  0  0  0  0  0  0  0  0  0  0
    1.7495   -1.5068    4.0769 C   0  0  0  0  0  0  0  0  0  0  0  0
    1.6696   -0.1196    3.8794 C   0  0  0  0  0  0  0  0  0  0  0  0
    1.2723    0.4019    2.6398 C   0  0  0  0  0  0  0  0  0  0  0  0
   -1.5932   -1.2694   -0.2427 C   0  0  0  0  0  3  0  0  0  0  0  0
   -2.1124   -1.3287    1.0998 C   0  0  0  0  0  3  0  0  0  0  0  0
   -3.2393   -2.1249    1.4217 C   0  0  0  0  0  3  0  0  0  0  0  0
   -3.9295   -2.8165    0.3839 C   0  0  0  0  0  3  0  0  0  0  0  0
   -3.4549   -2.7604   -0.9522 C   0  0  0  0  0  3  0  0  0  0  0  0
   -2.3144   -1.9669   -1.2647 C   0  0  0  0  0  3  0  0  0  0  0  0
    0.4922    1.8031   -3.7351 H   0  0  0  0  0  0  0  0  0  0  0  0
    2.2266    1.7170   -3.2461 H   0  0  0  0  0  0  0  0  0  0  0  0
    1.1717    3.0181   -2.5763 H   0  0  0  0  0  0  0  0  0  0  0  0
    3.4632    1.4543   -1.0721 H   0  0  0  0  0  0  0  0  0  0  0  0
    3.2576    0.6256    0.4846 H   0  0  0  0  0  0  0  0  0  0  0  0
    2.8387   -0.6103   -2.3152 H   0  0  0  0  0  0  0  0  0  0  0  0
    2.4254   -1.4395   -0.7994 H   0  0  0  0  0  0  0  0  0  0  0  0
   -0.9878    2.3333   -0.0826 H   0  0  0  0  0  0  0  0  0  0  0  0
   -1.4646    4.5091    0.9930 H   0  0  0  0  0  0  0  0  0  0  0  0
    0.4295    5.9361    1.8565 H   0  0  0  0  0  0  0  0  0  0  0  0
    2.7909    5.1246    1.6176 H   0  0  0  0  0  0  0  0  0  0  0  0
    3.2645    2.9300    0.5643 H   0  0  0  0  0  0  0  0  0  0  0  0
    4.2225   -1.9414    0.9099 H   0  0  0  0  0  0  0  0  0  0  0  0
    6.6009   -2.6474    1.2191 H   0  0  0  0  0  0  0  0  0  0  0  0
    8.2777   -2.2558   -0.6066 H   0  0  0  0  0  0  0  0  0  0  0  0
    7.5533   -1.1584   -2.7432 H   0  0  0  0  0  0  0  0  0  0  0  0
    5.1730   -0.4576   -3.0476 H   0  0  0  0  0  0  0  0  0  0  0  0
    0.7779   -2.5433    0.9560 H   0  0  0  0  0  0  0  0  0  0  0  0
    1.4892   -3.4662    3.1639 H   0  0  0  0  0  0  0  0  0  0  0  0
    2.0657   -1.9107    5.0504 H   0  0  0  0  0  0  0  0  0  0  0  0
    1.9170    0.5692    4.7013 H   0  0  0  0  0  0  0  0  0  0  0  0
    1.2001    1.4890    2.5016 H   0  0  0  0  0  0  0  0  0  0  0  0
   -1.6310   -0.7328    1.8855 H   0  0  0  0  0  0  0  0  0  0  0  0
   -3.6297   -2.1338    2.4480 H   0  0  0  0  0  0  0  0  0  0  0  0
   -4.8488   -3.3726    0.6160 H   0  0  0  0  0  0  0  0  0  0  0  0
   -4.0074   -3.2622   -1.7576 H   0  0  0  0  0  0  0  0  0  0  0  0
   -1.9874   -1.8382   -2.3050 H   0  0  0  0  0  0  0  0  0  0  0  0
  1  9  2  0  0  0  0
  2  3  1  0  0  0  0
  3  5  1  6  0  0  0
  3 10  1  0  0  0  0
  3  7  1  0  0  0  0
  4 36  1  0  0  0  0
  4  2  1  0  0  0  0
  5 38  1  0  0  0  0
  6 16  1  0  0  0  0
  6 40  1  0  0  0  0
  6  5  1  0  0  0  0
  7 22  1  0  0  0  0
  8 28  1  0  0  0  0
  8  7  2  0  0  0  0
  9  2  1  0  0  0  0
  9  8  1  0  0  0  0
 10 11  2  0  0  0  0
 10 15  1  0  0  0  0
 11 12  1  0  0  0  0
 12 42  1  0  0  0  0
 12 13  2  0  0  0  0
 13 43  1  0  0  0  0
 14 13  1  0  0  0  0
 14 44  1  0  0  0  0
 15 14  2  0  0  0  0
 16 17  1  0  0  0  0
 17 18  2  0  0  0  0
 17 46  1  0  0  0  0
 18 47  1  0  0  0  0
 19 48  1  0  0  0  0
 19 18  1  0  0  0  0
 20 19  2  0  0  0  0
 21 20  1  0  0  0  0
 21 16  2  0  0  0  0
 22 23  2  0  0  0  0
 22 27  1  0  0  0  0
 23 24  1  0  0  0  0
 24 52  1  0  0  0  0
 24 25  2  0  0  0  0
 25 53  1  0  0  0  0
 26 25  1  0  0  0  0
 26 54  1  0  0  0  0
 27 26  2  0  0  0  0
 28 29  1  0  0  0  0
 29 30  1  0  0  0  0
 29 56  1  0  0  0  0
 30 57  1  0  0  0  0
 31 58  1  0  0  0  0
 31 30  1  0  0  0  0
 32 31  1  0  0  0  0
 33 32  1  0  0  0  0
 33 28  1  0  0  0  0
 34  4  1  0  0  0  0
 35  4  1  0  0  0  0
 37  5  1  0  0  0  0
 39  6  1  0  0  0  0
 41 11  1  0  0  0  0
 45 15  1  0  0  0  0
 49 20  1  0  0  0  0
 50 21  1  0  0  0  0
 51 23  1  0  0  0  0
 55 27  1  0  0  0  0
 59 32  1  0  0  0  0
 60 33  1  0  0  0  0
M  END
