4,6,10
q = 0.0, confidence = 0.996

 23 24  0  0  1  0  0  0  0  0999 V2000
   -0.4254    2.5854    0.8915 Cl  0  0  0  0  0  0  0  0  0  0  0  0
   -1.8200   -1.5118   -0.0161 O   0  0  0  0  0  0  0  0  0  0  0  0
   -5.2725    0.7493   -0.1050 O   0  0  0  0  0  0  0  0  0  0  0  0
    0.2736    1.5030   -0.2902 C   0  0  1  0  0  3  0  0  0  0  0  0
   -0.4167    0.3062   -0.6528 C   0  0  2  0  0  3  0  0  0  0  0  0
    0.1913   -0.5291   -1.6440 C   0  0  0  0  0  3  0  0  0  0  0  0
   -0.3026   -1.4791   -1.8892 H   0  0  0  0  0  0  0  0  0  0  0  0
    1.4165   -0.1784   -2.2675 C   0  0  0  0  0  3  0  0  0  0  0  0
    1.8791   -0.8579   -2.9948 H   0  0  0  0  0  0  0  0  0  0  0  0
    2.0936    1.0034   -1.8523 C   0  0  0  0  0  3  0  0  0  0  0  0
    3.0797    1.2485   -2.2716 H   0  0  0  0  0  0  0  0  0  0  0  0
    1.5156    1.8689   -0.8856 C   0  0  0  0  0  3  0  0  0  0  0  0
    2.0281    2.7790   -0.5506 H   0  0  0  0  0  0  0  0  0  0  0  0
   -1.7342   -0.0682   -0.0234 C   0  0  1  0  0  0  0  0  0  0  0  0
   -1.7326    0.2558    1.0415 H   0  0  0  0  0  0  0  0  0  0  0  0
   -2.9398    0.5603   -0.7234 C   0  0  0  0  0  0  0  0  0  0  0  0
   -2.8920    1.6635   -0.6519 H   0  0  0  0  0  0  0  0  0  0  0  0
   -2.9402    0.2916   -1.8030 H   0  0  0  0  0  0  0  0  0  0  0  0
   -4.2553    0.0653   -0.1027 C   0  0  0  0  0  0  0  0  0  0  0  0
   -4.1820   -1.3130    0.3933 C   0  0  0  0  0  0  0  0  0  0  0  0
   -5.1054   -1.8025    0.7312 H   0  0  0  0  0  0  0  0  0  0  0  0
   -3.0172   -2.0196    0.3287 C   0  0  0  0  0  0  0  0  0  0  0  0
   -2.9414   -3.0957    0.5555 H   0  0  0  0  0  0  0  0  0  0  0  0
  2 22  1  0  0  0  0
  3 19  2  0  0  0  0
  4  1  1  6  0  0  0
  5  6  1  6  0  0  0
  5  4  1  0  0  0  0
  5 14  1  0  0  0  0
  7  6  1  0  0  0  0
  8 10  1  0  0  0  0
  8  6  1  0  0  0  0
  9  8  1  0  0  0  0
 10 12  1  0  0  0  0
 11 10  1  0  0  0  0
 12 13  1  0  0  0  0
 12  4  1  0  0  0  0
 14  2  1  0  0  0  0
 14 15  1  1  0  0  0
 16 17  1  0  0  0  0
 16 19  1  0  0  0  0
 16 14  1  0  0  0  0
 18 16  1  0  0  0  0
 19 20  1  0  0  0  0
 20 21  1  0  0  0  0
 22 20  2  0  0  0  0
 22 23  1  0  0  0  0
M  END
