1,3,5
q = 0.0, confidence = 0.976

 15 15  0  0  0  0  0  0  0  0999 V2000
   -2.0592    0.2512   -0.0000 C   0  0  0  0  0  3  0  0  0  0  0  0
   -1.7156   -0.3915   -1.2345 C   0  0  0  0  0  3  0  0  0  0  0  0
   -0.9757   -1.6117   -1.2263 C   0  0  0  0  0  3  0  0  0  0  0  0
   -0.6372   -2.2564    0.0002 C   0  0  0  0  0  3  0  0  0  0  0  0
   -0.9756   -1.6114    1.2267 C   0  0  0  0  0  3  0  0  0  0  0  0
   -1.7156   -0.3912    1.2346 C   0  0  0  0  0  3  0  0  0  0  0  0
   -2.8352    1.5404   -0.0002 C   0  0  0  0  0  0  0  0  0  0  0  0
   -1.9796    0.0853   -2.1881 H   0  0  0  0  0  0  0  0  0  0  0  0
   -0.6787   -2.0691   -2.1809 H   0  0  0  0  0  0  0  0  0  0  0  0
   -0.0771   -3.2004    0.0003 H   0  0  0  0  0  0  0  0  0  0  0  0
   -0.6786   -2.0686    2.1813 H   0  0  0  0  0  0  0  0  0  0  0  0
   -1.9795    0.0858    2.1882 H   0  0  0  0  0  0  0  0  0  0  0  0
   -3.9254    1.3286   -0.0004 H   0  0  0  0  0  0  0  0  0  0  0  0
   -2.6059    2.1469    0.8964 H   0  0  0  0  0  0  0  0  0  0  0  0
   -2.6054    2.1470   -0.8965 H   0  0  0  0  0  0  0  0  0  0  0  0
  1  6  1  0  0  0  0
  2  3  1  0  0  0  0
  2  1  1  0  0  0  0
  3  4  1  0  0  0  0
  4 10  1  0  0  0  0
  4  5  1  0  0  0  0
  5  6  1  0  0  0  0
  5 11  1  0  0  0  0
  6 12  1  0  0  0  0
  7  1  1  0  0  0  0
  7 14  1  0  0  0  0
  8  2  1  0  0  0  0
  9  3  1  0  0  0  0
 13  7  1  0  0  0  0
 15  7  1  0  0  0  0
M  END
