14,16,19
q = -2.0, confidence = 0.934

 46 47  0  0  1  0  0  0  0  0999 V2000
    3.0719    1.5593   -0.0211 Si  0  0  0  0  0  0  0  0  0  0  0  0
    2.8883   -1.6035    0.0031 Si  0  0  0  0  0  0  0  0  0  0  0  0
    2.0944    0.0337   -0.1188 N   0  0  0  0  0  0  0  0  0  0  0  0
    4.0735    1.5025    1.5828 C   0  0  0  0  0  0  0  0  0  0  0  0
    4.1820    1.6955   -1.5437 C   0  0  0  0  0  0  0  0  0  0  0  0
    2.0151    3.1182    0.0292 C   0  0  0  0  0  0  0  0  0  0  0  0
    2.1392   -2.8282   -1.2214 C   0  0  0  0  0  0  0  0  0  0  0  0
    2.6898   -2.1981    1.7821 C   0  0  0  0  0  0  0  0  0  0  0  0
    4.7299   -1.5190   -0.4231 C   0  0  0  0  0  0  0  0  0  0  0  0
   -0.3238   -1.1801   -0.1091 C   0  0  1  0  0  3  0  0  0  0  0  0
   -1.0277   -1.6302    1.0555 C   0  0  0  0  0  3  0  0  0  0  0  0
   -2.1977   -2.3463    0.6491 C   0  0  0  0  0  0  0  0  0  0  0  0
   -2.2575   -2.3142   -0.7588 C   0  0  0  0  0  0  0  0  0  0  0  0
   -1.1328   -1.5694   -1.2299 C   0  0  0  0  0  3  0  0  0  0  0  0
   -0.3435    1.2480   -0.1042 C   0  0  1  0  0  3  0  0  0  0  0  0
   -1.1579    1.6427   -1.2171 C   0  0  0  0  0  3  0  0  0  0  0  0
   -2.2951    2.3609   -0.7322 C   0  0  0  0  0  0  0  0  0  0  0  0
   -2.2331    2.3725    0.6757 C   0  0  0  0  0  0  0  0  0  0  0  0
   -1.0529    1.6661    1.0689 C   0  0  0  0  0  3  0  0  0  0  0  0
    0.6845    0.0453   -0.1262 B   0  0  0  0  0  0  0  0  0  0  0  0
    4.6882    2.4215    1.6771 H   0  0  0  0  0  0  0  0  0  0  0  0
    3.3885    1.4649    2.4548 H   0  0  0  0  0  0  0  0  0  0  0  0
    4.7566    0.6338    1.6509 H   0  0  0  0  0  0  0  0  0  0  0  0
    4.6891    2.6827   -1.5387 H   0  0  0  0  0  0  0  0  0  0  0  0
    4.9629    0.9148   -1.5968 H   0  0  0  0  0  0  0  0  0  0  0  0
    3.5713    1.6371   -2.4681 H   0  0  0  0  0  0  0  0  0  0  0  0
    2.7154    3.9797    0.0702 H   0  0  0  0  0  0  0  0  0  0  0  0
    1.3800    3.2366   -0.8699 H   0  0  0  0  0  0  0  0  0  0  0  0
    1.3573    3.1682    0.9174 H   0  0  0  0  0  0  0  0  0  0  0  0
    1.1400   -3.1901   -0.9161 H   0  0  0  0  0  0  0  0  0  0  0  0
    2.8170   -3.7036   -1.3025 H   0  0  0  0  0  0  0  0  0  0  0  0
    2.0486   -2.3763   -2.2301 H   0  0  0  0  0  0  0  0  0  0  0  0
    1.6189   -2.3307    2.0340 H   0  0  0  0  0  0  0  0  0  0  0  0
    3.1265   -1.4701    2.4954 H   0  0  0  0  0  0  0  0  0  0  0  0
    3.1984   -3.1729    1.9309 H   0  0  0  0  0  0  0  0  0  0  0  0
    5.1534   -2.5257   -0.2236 H   0  0  0  0  0  0  0  0  0  0  0  0
    4.8899   -1.3024   -1.4981 H   0  0  0  0  0  0  0  0  0  0  0  0
    5.3145   -0.7916    0.1715 H   0  0  0  0  0  0  0  0  0  0  0  0
   -0.7474   -1.4225    2.0958 H   0  0  0  0  0  0  0  0  0  0  0  0
   -2.9520   -2.7699    1.3203 H   0  0  0  0  0  0  0  0  0  0  0  0
   -3.0661   -2.7117   -1.3810 H   0  0  0  0  0  0  0  0  0  0  0  0
   -0.9324   -1.3255   -2.2806 H   0  0  0  0  0  0  0  0  0  0  0  0
   -0.9591    1.4136   -2.2716 H   0  0  0  0  0  0  0  0  0  0  0  0
   -3.1114    2.7543   -1.3468 H   0  0  0  0  0  0  0  0  0  0  0  0
   -2.9928    2.7744    1.3542 H   0  0  0  0  0  0  0  0  0  0  0  0
   -0.7623    1.4516    2.1050 H   0  0  0  0  0  0  0  0  0  0  0  0
  1  6  1  0  0  0  0
  1  4  1  0  0  0  0
  2  8  1  0  0  0  0
  3  1  1  0  0  0  0
  3  2  1  0  0  0  0
  4 23  1  0  0  0  0
  4 21  1  0  0  0  0
  4 22  1  0  0  0  0
  5 24  1  0  0  0  0
  5  1  1  0  0  0  0
  6 27  1  0  0  0  0
  6 29  1  0  0  0  0
  7 30  1  0  0  0  0
  7  2  1  0  0  0  0
  8 35  1  0  0  0  0
  8 33  1  0  0  0  0
  8 34  1  0  0  0  0
  9 36  1  0  0  0  0
  9  2  1  0  0  0  0
  9 38  1  0  0  0  0
 10 20  1  1  0  0  0
 10 11  1  0  0  0  0
 11 39  1  0  0  0  0
 12 11  1  0  0  0  0
 12 40  1  0  0  0  0
 13 12  2  0  0  0  0
 14 13  1  0  0  0  0
 14 10  1  0  0  0  0
 15 20  1  1  0  0  0
 15 19  1  0  0  0  0
 16 17  1  0  0  0  0
 16 15  1  0  0  0  0
 17 18  2  0  0  0  0
 18 19  1  0  0  0  0
 18 45  1  0  0  0  0
 19 46  1  0  0  0  0
 20  3  1  0  0  0  0
 25  5  1  0  0  0  0
 26  5  1  0  0  0  0
 28  6  1  0  0  0  0
 31  7  1  0  0  0  0
 32  7  1  0  0  0  0
 37  9  1  0  0  0  0
 41 13  1  0  0  0  0
 42 14  1  0  0  0  0
 43 16  1  0  0  0  0
 44 17  1  0  0  0  0
M  END
