2,4,6
q = 0.0, confidence = 0.992

 24 24  0  0  0  0  0  0  0  0999 V2000
   -1.2105    0.6606   -0.0231 C   0  0  0  0  0  3  0  0  0  0  0  0
   -0.5714    1.0463    1.1947 C   0  0  0  0  0  3  0  0  0  0  0  0
    0.6273    1.8148    1.2162 C   0  0  0  0  0  3  0  0  0  0  0  0
    1.2426    2.1835   -0.0062 C   0  0  0  0  0  3  0  0  0  0  0  0
    0.6459    1.8049   -1.2411 C   0  0  0  0  0  3  0  0  0  0  0  0
   -0.5524    1.0443   -1.2365 C   0  0  0  0  0  3  0  0  0  0  0  0
   -2.5407   -0.1001   -0.0044 C   0  0  0  0  0  0  0  0  0  0  0  0
   -2.9498   -0.5740   -1.4098 C   0  0  0  0  0  0  0  0  0  0  0  0
   -3.5994    0.9020    0.5251 C   0  0  0  0  0  0  0  0  0  0  0  0
   -2.4614   -1.3236    0.9327 C   0  0  0  0  0  0  0  0  0  0  0  0
   -1.0068    0.7267    2.1524 H   0  0  0  0  0  0  0  0  0  0  0  0
    1.1010    2.0684    2.1751 H   0  0  0  0  0  0  0  0  0  0  0  0
    2.1959    2.7323    0.0003 H   0  0  0  0  0  0  0  0  0  0  0  0
    1.1364    2.0521   -2.1931 H   0  0  0  0  0  0  0  0  0  0  0  0
   -0.9695    0.7178   -2.1985 H   0  0  0  0  0  0  0  0  0  0  0  0
   -2.2053   -1.2661   -1.8529 H   0  0  0  0  0  0  0  0  0  0  0  0
   -3.1148    0.2703   -2.1087 H   0  0  0  0  0  0  0  0  0  0  0  0
   -3.9067   -1.1262   -1.3441 H   0  0  0  0  0  0  0  0  0  0  0  0
   -4.5945    0.4153    0.5331 H   0  0  0  0  0  0  0  0  0  0  0  0
   -3.6654    1.8016   -0.1187 H   0  0  0  0  0  0  0  0  0  0  0  0
   -3.3779    1.2317    1.5599 H   0  0  0  0  0  0  0  0  0  0  0  0
   -2.1824   -1.0581    1.9715 H   0  0  0  0  0  0  0  0  0  0  0  0
   -1.7365   -2.0731    0.5569 H   0  0  0  0  0  0  0  0  0  0  0  0
   -3.4533   -1.8132    0.9829 H   0  0  0  0  0  0  0  0  0  0  0  0
  1  7  1  0  0  0  0
  1  2  1  0  0  0  0
  2  3  1  0  0  0  0
  2 11  1  0  0  0  0
  3 12  1  0  0  0  0
  4 13  1  0  0  0  0
  4  3  1  0  0  0  0
  5  6  1  0  0  0  0
  5  4  1  0  0  0  0
  6  1  1  0  0  0  0
  7  9  1  0  0  0  0
  7 10  1  0  0  0  0
  8 18  1  0  0  0  0
  8  7  1  0  0  0  0
  9 19  1  0  0  0  0
  9 21  1  0  0  0  0
 10 24  1  0  0  0  0
 10 22  1  0  0  0  0
 14  5  1  0  0  0  0
 15  6  1  0  0  0  0
 16  8  1  0  0  0  0
 17  8  1  0  0  0  0
 20  9  1  0  0  0  0
 23 10  1  0  0  0  0
M  END
