13,17,21
q = 0.0, confidence = 0.986

 22 22  0  0  0  0  0  0  0  0999 V2000
    2.6696   -1.1522   -1.2215 O   0  0  0  0  0  0  0  0  0  0  0  0
    3.5768   -1.0146   -1.6268 H   0  0  0  0  0  0  0  0  0  0  0  0
    4.8907    0.0054   -0.8934 O   0  0  0  0  0  0  0  0  0  0  0  0
    1.7429   -0.2591    0.8114 C   0  0  0  0  0  0  0  0  0  0  0  0
    1.9594    0.3828    1.6767 H   0  0  0  0  0  0  0  0  0  0  0  0
    2.7544   -0.4086   -0.1024 C   0  0  0  0  0  0  0  0  0  0  0  0
    4.0901    0.2466    0.0208 C   0  0  0  0  0  0  0  0  0  0  0  0
    4.4340    1.1490    1.1774 C   0  0  0  0  0  0  0  0  0  0  0  0
    5.4759    1.4970    1.0633 H   0  0  0  0  0  0  0  0  0  0  0  0
    4.3267    0.6184    2.1447 H   0  0  0  0  0  0  0  0  0  0  0  0
    3.7561    2.0261    1.2065 H   0  0  0  0  0  0  0  0  0  0  0  0
    0.4127   -0.8381    0.7753 C   0  0  0  0  0  3  0  0  0  0  0  0
   -0.0929   -1.6061   -0.3335 C   0  0  0  0  0  3  0  0  0  0  0  0
    0.5676   -1.7815   -1.1911 H   0  0  0  0  0  0  0  0  0  0  0  0
   -1.4149   -2.1207   -0.3352 C   0  0  0  0  0  3  0  0  0  0  0  0
   -1.7801   -2.6801   -1.2067 H   0  0  0  0  0  0  0  0  0  0  0  0
   -2.2955   -1.8182    0.7409 C   0  0  0  0  0  3  0  0  0  0  0  0
   -3.3406   -2.1567    0.7061 H   0  0  0  0  0  0  0  0  0  0  0  0
   -1.8332   -1.0622    1.8516 C   0  0  0  0  0  3  0  0  0  0  0  0
   -2.5172   -0.8031    2.6706 H   0  0  0  0  0  0  0  0  0  0  0  0
   -0.5096   -0.5479    1.8402 C   0  0  0  0  0  3  0  0  0  0  0  0
   -0.1750    0.0956    2.6671 H   0  0  0  0  0  0  0  0  0  0  0  0
  1  6  1  0  0  0  0
  2  1  1  0  0  0  0
  3  7  2  0  0  0  0
  4  5  1  0  0  0  0
  6  7  1  0  0  0  0
  6  4  2  0  0  0  0
  7  8  1  0  0  0  0
  8 11  1  0  0  0  0
  8 10  1  0  0  0  0
  9  8  1  0  0  0  0
 12  4  1  0  0  0  0
 12 21  1  0  0  0  0
 13 12  1  0  0  0  0
 14 13  1  0  0  0  0
 15 13  1  0  0  0  0
 15 17  1  0  0  0  0
 16 15  1  0  0  0  0
 17 19  1  0  0  0  0
 18 17  1  0  0  0  0
 19 20  1  0  0  0  0
 21 19  1  0  0  0  0
 21 22  1  0  0  0  0
M  END
