4,6,8
q = 0.0, confidence = 1.0

 42 43  0  0  1  0  0  0  0  0999 V2000
   -1.3913   -1.5496   -0.2423 Si  0  0  0  0  0  0  0  0  0  0  0  0
   -0.9312    0.1832   -0.4968 N   0  0  1  0  0  0  0  0  0  0  0  0
    0.3617    0.6905   -0.7088 C   0  0  0  0  0  3  0  0  0  0  0  0
    1.2064    0.1940   -1.7506 C   0  0  0  0  0  3  0  0  0  0  0  0
    2.4789    0.7746   -2.0200 C   0  0  0  0  0  3  0  0  0  0  0  0
    2.9578    1.8269   -1.1964 C   0  0  0  0  0  3  0  0  0  0  0  0
    2.1542    2.3249   -0.1319 C   0  0  0  0  0  3  0  0  0  0  0  0
    0.8915    1.7273    0.1269 C   0  0  0  0  0  3  0  0  0  0  0  0
   -3.4475    0.1573   -0.2677 C   0  0  0  0  0  0  0  0  0  0  0  0
   -3.2354   -1.1954   -0.1666 C   0  0  2  0  0  3  0  0  0  0  0  0
   -2.1050    2.5734   -0.7186 C   0  0  0  0  0  0  0  0  0  0  0  0
   -2.4005    3.4066    0.5439 C   0  0  0  0  0  0  0  0  0  0  0  0
   -4.8247    0.7848   -0.1787 C   0  0  0  0  0  0  0  0  0  0  0  0
   -5.3278    0.9150    1.2686 C   0  0  0  0  0  0  0  0  0  0  0  0
   -4.2807   -2.2582    0.0179 C   0  0  0  0  0  0  0  0  0  0  0  0
   -0.9001   -2.6645   -1.6829 C   0  0  0  0  0  0  0  0  0  0  0  0
   -0.7424   -2.2502    1.3783 C   0  0  0  0  0  0  0  0  0  0  0  0
   -2.1225    1.0030   -0.4795 B   0  0  0  0  0  0  0  0  0  0  0  0
    0.8476   -0.6400   -2.3679 H   0  0  0  0  0  0  0  0  0  0  0  0
    3.1087    0.3644   -2.8204 H   0  0  0  0  0  0  0  0  0  0  0  0
    3.9629    2.2390   -1.3631 H   0  0  0  0  0  0  0  0  0  0  0  0
    2.5370    3.1105    0.5328 H   0  0  0  0  0  0  0  0  0  0  0  0
    0.2930    2.0568    0.9867 H   0  0  0  0  0  0  0  0  0  0  0  0
   -1.1450    2.9072   -1.1663 H   0  0  0  0  0  0  0  0  0  0  0  0
   -2.8860    2.8008   -1.4798 H   0  0  0  0  0  0  0  0  0  0  0  0
   -3.3799    3.1435    0.9917 H   0  0  0  0  0  0  0  0  0  0  0  0
   -1.6378    3.2434    1.3341 H   0  0  0  0  0  0  0  0  0  0  0  0
   -2.4192    4.4950    0.3286 H   0  0  0  0  0  0  0  0  0  0  0  0
   -5.5583    0.1834   -0.7598 H   0  0  0  0  0  0  0  0  0  0  0  0
   -4.8144    1.7885   -0.6529 H   0  0  0  0  0  0  0  0  0  0  0  0
   -5.4119   -0.0785    1.7537 H   0  0  0  0  0  0  0  0  0  0  0  0
   -4.6315    1.5195    1.8850 H   0  0  0  0  0  0  0  0  0  0  0  0
   -6.3247    1.3999    1.3090 H   0  0  0  0  0  0  0  0  0  0  0  0
   -4.1111   -3.1201   -0.6629 H   0  0  0  0  0  0  0  0  0  0  0  0
   -5.3128   -1.8888   -0.1484 H   0  0  0  0  0  0  0  0  0  0  0  0
   -4.2418   -2.6750    1.0491 H   0  0  0  0  0  0  0  0  0  0  0  0
    0.1852   -2.8894   -1.6750 H   0  0  0  0  0  0  0  0  0  0  0  0
   -1.4339   -3.6332   -1.5834 H   0  0  0  0  0  0  0  0  0  0  0  0
   -1.1816   -2.2222   -2.6592 H   0  0  0  0  0  0  0  0  0  0  0  0
    0.3189   -2.5545    1.3099 H   0  0  0  0  0  0  0  0  0  0  0  0
   -0.8478   -1.5203    2.2039 H   0  0  0  0  0  0  0  0  0  0  0  0
   -1.3370   -3.1524    1.6346 H   0  0  0  0  0  0  0  0  0  0  0  0
  1 10  1  0  0  0  0
  1 17  1  0  0  0  0
  2  3  1  6  0  0  0
  2 18  1  0  0  0  0
  2  1  1  0  0  0  0
  3  8  1  0  0  0  0
  4  3  1  0  0  0  0
  5  4  1  0  0  0  0
  5  6  1  0  0  0  0
  6  7  1  0  0  0  0
  7  8  1  0  0  0  0
  7 22  1  0  0  0  0
  8 23  1  0  0  0  0
  9 13  1  0  0  0  0
  9 10  1  0  0  0  0
 10 15  1  1  0  0  0
 11 18  1  0  0  0  0
 11 12  1  0  0  0  0
 12 26  1  0  0  0  0
 12 27  1  0  0  0  0
 13 14  1  0  0  0  0
 14 33  1  0  0  0  0
 14 31  1  0  0  0  0
 14 32  1  0  0  0  0
 15 36  1  0  0  0  0
 16 37  1  0  0  0  0
 16 38  1  0  0  0  0
 16  1  1  0  0  0  0
 17 42  1  0  0  0  0
 17 41  1  0  0  0  0
 18  9  2  0  0  0  0
 19  4  1  0  0  0  0
 20  5  1  0  0  0  0
 21  6  1  0  0  0  0
 24 11  1  0  0  0  0
 25 11  1  0  0  0  0
 28 12  1  0  0  0  0
 29 13  1  0  0  0  0
 30 13  1  0  0  0  0
 34 15  1  0  0  0  0
 35 15  1  0  0  0  0
 39 16  1  0  0  0  0
 40 17  1  0  0  0  0
M  END
