3,7,11
q = 0.0, confidence = 0.992

 22 23  0  0  0  0  0  0  0  0999 V2000
   -2.7581   -2.1630   -0.5363 F   0  0  0  0  0  0  0  0  0  0  0  0
   -0.5629   -0.7065    0.5311 C   0  0  0  0  0  3  0  0  0  0  0  0
    0.1944   -0.3771    1.7003 C   0  0  0  0  0  3  0  0  0  0  0  0
   -0.2302    0.3305    2.4263 H   0  0  0  0  0  0  0  0  0  0  0  0
    1.4717   -0.9526    1.9509 C   0  0  0  0  0  3  0  0  0  0  0  0
    2.0370   -0.6660    2.8474 H   0  0  0  0  0  0  0  0  0  0  0  0
    2.0441   -1.8238    0.9864 C   0  0  0  0  0  3  0  0  0  0  0  0
    3.0584   -2.2185    1.1397 H   0  0  0  0  0  0  0  0  0  0  0  0
    1.3205   -2.1676   -0.1905 C   0  0  0  0  0  3  0  0  0  0  0  0
    1.7754   -2.8141   -0.9523 H   0  0  0  0  0  0  0  0  0  0  0  0
    0.0460   -1.5864   -0.4232 C   0  0  0  0  0  3  0  0  0  0  0  0
   -0.4825   -1.8030   -1.3602 H   0  0  0  0  0  0  0  0  0  0  0  0
   -1.8974   -0.1026    0.2994 C   0  0  0  0  0  0  0  0  0  0  0  0
   -2.9645   -0.8644   -0.2230 C   0  0  0  0  0  0  0  0  0  0  0  0
   -4.2430   -0.3331   -0.4192 C   0  0  0  0  0  0  0  0  0  0  0  0
   -5.0284   -0.9849   -0.8277 H   0  0  0  0  0  0  0  0  0  0  0  0
   -4.4854    1.0063   -0.0866 C   0  0  0  0  0  0  0  0  0  0  0  0
   -5.4870    1.4339   -0.2422 H   0  0  0  0  0  0  0  0  0  0  0  0
   -3.4471    1.7958    0.4356 C   0  0  0  0  0  0  0  0  0  0  0  0
   -3.6257    2.8519    0.6849 H   0  0  0  0  0  0  0  0  0  0  0  0
   -2.1739    1.2455    0.6225 C   0  0  0  0  0  0  0  0  0  0  0  0
   -1.3554    1.8785    0.9956 H   0  0  0  0  0  0  0  0  0  0  0  0
  1 14  1  0  0  0  0
  2  3  1  0  0  0  0
  3  5  1  0  0  0  0
  3  4  1  0  0  0  0
  5  6  1  0  0  0  0
  7  8  1  0  0  0  0
  7  5  1  0  0  0  0
  9  7  1  0  0  0  0
 10  9  1  0  0  0  0
 11  9  1  0  0  0  0
 11  2  1  0  0  0  0
 12 11  1  0  0  0  0
 13  2  1  0  0  0  0
 13 21  1  0  0  0  0
 14 13  2  0  0  0  0
 15 14  1  0  0  0  0
 15 17  2  0  0  0  0
 16 15  1  0  0  0  0
 17 19  1  0  0  0  0
 18 17  1  0  0  0  0
 19 21  2  0  0  0  0
 19 20  1  0  0  0  0
 21 22  1  0  0  0  0
M  END
