2,4,6
q = 0.0, confidence = 0.96

 15 15  0  0  0  0  0  0  0  0999 V2000
    3.6885   -0.0596    0.0001 Br  0  0  0  0  0  0  0  0  0  0  0  0
    0.2937    0.7526   -1.2252 C   0  0  0  0  0  3  0  0  0  0  0  0
   -0.7127    1.7553   -1.2358 C   0  0  0  0  0  3  0  0  0  0  0  0
   -1.2402    2.2248   -0.0008 C   0  0  0  0  0  3  0  0  0  0  0  0
   -0.7139    1.7560    1.2351 C   0  0  0  0  0  3  0  0  0  0  0  0
    0.2922    0.7532    1.2263 C   0  0  0  0  0  3  0  0  0  0  0  0
    0.8242    0.2426    0.0009 C   0  0  0  0  0  3  0  0  0  0  0  0
    1.8539   -0.8337    0.0017 C   0  0  0  0  0  0  0  0  0  0  0  0
    0.6577    0.3379   -2.1766 H   0  0  0  0  0  0  0  0  0  0  0  0
   -1.1361    2.1017   -2.1876 H   0  0  0  0  0  0  0  0  0  0  0  0
   -2.0695    2.9462   -0.0014 H   0  0  0  0  0  0  0  0  0  0  0  0
   -1.1384    2.1030    2.1863 H   0  0  0  0  0  0  0  0  0  0  0  0
    0.6552    0.3389    2.1783 H   0  0  0  0  0  0  0  0  0  0  0  0
    1.7991   -1.4654    0.9054 H   0  0  0  0  0  0  0  0  0  0  0  0
    1.7984   -1.4675   -0.9005 H   0  0  0  0  0  0  0  0  0  0  0  0
  1  8  1  0  0  0  0
  2  7  1  0  0  0  0
  3  2  1  0  0  0  0
  3  4  1  0  0  0  0
  4  5  1  0  0  0  0
  5 12  1  0  0  0  0
  6  5  1  0  0  0  0
  6 13  1  0  0  0  0
  7  8  1  0  0  0  0
  7  6  1  0  0  0  0
  8 14  1  0  0  0  0
  9  2  1  0  0  0  0
 10  3  1  0  0  0  0
 11  4  1  0  0  0  0
 15  8  1  0  0  0  0
M  END
