6,9
q = -2.0, confidence = 0.75

 39 42  0  0  1  0  0  0  0  0999 V2000
   -0.9138    3.4490   -0.8239 Si  0  0  0  0  0  0  0  0  0  0  0  0
   -0.7557   -0.1875   -2.7163 C   0  0  0  0  0  0  0  0  0  0  0  0
   -1.1783   -1.1737   -2.9463 H   0  0  0  0  0  0  0  0  0  0  0  0
    0.6138    0.1765   -2.7955 C   0  0  0  0  0  0  0  0  0  0  0  0
    1.4344   -0.4816   -3.1030 H   0  0  0  0  0  0  0  0  0  0  0  0
    0.7369    1.5281   -2.3585 C   0  0  0  0  0  3  0  0  0  0  0  0
    1.6790    2.0871   -2.2852 H   0  0  0  0  0  0  0  0  0  0  0  0
   -0.5725    2.0373   -2.0338 C   0  0  1  0  0  3  0  0  0  0  0  0
   -1.4818    0.9506   -2.2499 C   0  0  0  0  0  3  0  0  0  0  0  0
   -2.5625    0.9726   -2.0578 H   0  0  0  0  0  0  0  0  0  0  0  0
   -0.3626    0.8142    2.3914 C   0  0  0  0  0  0  0  0  0  0  0  0
   -1.2156    1.6765    1.5921 C   0  0  0  0  0  0  0  0  0  0  0  0
   -0.3930    2.5029    0.7195 C   0  0  0  0  0  3  0  0  0  0  0  0
    0.9880    2.1959    1.0764 C   0  0  0  0  0  0  0  0  0  0  0  0
    1.0117    1.1505    2.0835 C   0  0  0  0  0  0  0  0  0  0  0  0
    2.2386    0.6577    2.5890 C   0  0  0  0  0  0  0  0  0  0  0  0
    2.2456   -0.1294    3.3565 H   0  0  0  0  0  0  0  0  0  0  0  0
    3.4302    1.1791    2.0939 C   0  0  0  0  0  0  0  0  0  0  0  0
    4.3909    0.7947    2.4642 H   0  0  0  0  0  0  0  0  0  0  0  0
    3.4205    2.1876    1.0953 C   0  0  0  0  0  0  0  0  0  0  0  0
    4.3781    2.5854    0.7260 H   0  0  0  0  0  0  0  0  0  0  0  0
    2.2293    2.6937    0.5819 C   0  0  0  0  0  0  0  0  0  0  0  0
    2.2475    3.4957   -0.1679 H   0  0  0  0  0  0  0  0  0  0  0  0
   -2.6265    1.5839    1.7628 C   0  0  0  0  0  0  0  0  0  0  0  0
   -3.2980    2.2521    1.2080 H   0  0  0  0  0  0  0  0  0  0  0  0
   -3.1446    0.6660    2.6702 C   0  0  0  0  0  0  0  0  0  0  0  0
   -4.2337    0.6116    2.8160 H   0  0  0  0  0  0  0  0  0  0  0  0
   -2.3025   -0.2002    3.4186 C   0  0  0  0  0  0  0  0  0  0  0  0
   -2.7524   -0.9249    4.1129 H   0  0  0  0  0  0  0  0  0  0  0  0
   -0.9202   -0.1243    3.2928 C   0  0  0  0  0  0  0  0  0  0  0  0
   -0.2634   -0.7785    3.8844 H   0  0  0  0  0  0  0  0  0  0  0  0
    0.1250    4.9803   -1.1933 C   0  0  0  0  0  0  0  0  0  0  0  0
    0.1619    5.6559   -0.3146 H   0  0  0  0  0  0  0  0  0  0  0  0
   -0.3264    5.5371   -2.0399 H   0  0  0  0  0  0  0  0  0  0  0  0
    1.1657    4.7312   -1.4777 H   0  0  0  0  0  0  0  0  0  0  0  0
   -2.7454    3.9019   -0.8567 C   0  0  0  0  0  0  0  0  0  0  0  0
   -3.0145    4.5458    0.0048 H   0  0  0  0  0  0  0  0  0  0  0  0
   -3.4011    3.0096   -0.8380 H   0  0  0  0  0  0  0  0  0  0  0  0
   -2.9676    4.4633   -1.7872 H   0  0  0  0  0  0  0  0  0  0  0  0
  1 13  1  0  0  0  0
  2  9  1  0  0  0  0
  3  2  1  0  0  0  0
  4  2  2  0  0  0  0
  4  6  1  0  0  0  0
  5  4  1  0  0  0  0
  6  7  1  0  0  0  0
  6  8  1  0  0  0  0
  8  1  1  1  0  0  0
  9 10  1  0  0  0  0
  9  8  1  0  0  0  0
 11 30  1  0  0  0  0
 12 24  1  0  0  0  0
 12 11  2  0  0  0  0
 13 14  1  0  0  0  0
 13 12  1  0  0  0  0
 14 15  1  0  0  0  0
 15 11  1  0  0  0  0
 15 16  2  0  0  0  0
 16 17  1  0  0  0  0
 18 19  1  0  0  0  0
 18 16  1  0  0  0  0
 20 18  2  0  0  0  0
 21 20  1  0  0  0  0
 22 14  2  0  0  0  0
 22 20  1  0  0  0  0
 23 22  1  0  0  0  0
 24 26  2  0  0  0  0
 25 24  1  0  0  0  0
 26 27  1  0  0  0  0
 26 28  1  0  0  0  0
 28 29  1  0  0  0  0
 30 28  2  0  0  0  0
 30 31  1  0  0  0  0
 32  1  1  0  0  0  0
 32 33  1  0  0  0  0
 34 32  1  0  0  0  0
 35 32  1  0  0  0  0
 36 38  1  0  0  0  0
 36  1  1  0  0  0  0
 36 37  1  0  0  0  0
 39 36  1  0  0  0  0
M  END
