12,14,16
q = 0.0, confidence = 0.982

 54 55  0  0  1  0  0  0  0  0999 V2000
    0.4125    0.8094   -1.2604 O   0  0  0  0  0  0  0  0  0  0  0  0
   -0.8312   -1.1038   -1.5329 O   0  0  0  0  0  0  0  0  0  0  0  0
    1.0401   -2.4719    0.1813 O   0  0  0  0  0  0  0  0  0  0  0  0
    3.6972   -1.3755   -0.3234 O   0  0  0  0  0  0  0  0  0  0  0  0
    3.5148    1.5545    0.4709 O   0  0  0  0  0  0  0  0  0  0  0  0
    0.5679    3.8620   -0.0643 O   0  0  0  0  0  0  0  0  0  0  0  0
    0.9641   -3.8534   -1.6330 O   0  0  0  0  0  0  0  0  0  0  0  0
    4.5791   -1.0595    1.7532 O   0  0  0  0  0  0  0  0  0  0  0  0
    5.3607    1.1730   -0.8089 O   0  0  0  0  0  0  0  0  0  0  0  0
   -1.2940    3.4896   -1.3172 O   0  0  0  0  0  0  0  0  0  0  0  0
   -2.1438   -0.7238   -1.4307 C   0  0  0  0  0  3  0  0  0  0  0  0
   -3.1102   -1.7641   -1.2785 C   0  0  0  0  0  3  0  0  0  0  0  0
   -4.4907   -1.4544   -1.1820 C   0  0  0  0  0  3  0  0  0  0  0  0
   -4.9049   -0.0886   -1.1781 C   0  0  0  0  0  3  0  0  0  0  0  0
   -3.9511    0.9485   -1.3327 C   0  0  0  0  0  3  0  0  0  0  0  0
   -2.5648    0.6332   -1.4421 C   0  0  0  0  0  3  0  0  0  0  0  0
    0.0995   -0.4546   -0.7094 C   0  0  1  0  0  0  0  0  0  0  0  0
    1.3467   -1.3393   -0.6363 C   0  0  1  0  0  0  0  0  0  0  0  0
    2.5265   -0.6144    0.0112 C   0  0  2  0  0  0  0  0  0  0  0  0
    2.6739    0.8447   -0.4508 C   0  0  1  0  0  0  0  0  0  0  0  0
    1.3031    1.5429   -0.4257 C   0  0  1  0  0  0  0  0  0  0  0  0
    1.3514    2.9960   -0.9011 C   0  0  0  0  0  0  0  0  0  0  0  0
    0.8254   -3.6770   -0.4424 C   0  0  0  0  0  0  0  0  0  0  0  0
    0.4002   -4.6989    0.5799 C   0  0  0  0  0  0  0  0  0  0  0  0
    4.6727   -1.5031    0.6247 C   0  0  0  0  0  0  0  0  0  0  0  0
    5.8700   -2.2028    0.0416 C   0  0  0  0  0  0  0  0  0  0  0  0
    4.8601    1.6009    0.2119 C   0  0  0  0  0  0  0  0  0  0  0  0
    5.5912    2.1916    1.3854 C   0  0  0  0  0  0  0  0  0  0  0  0
   -0.7510    4.0160   -0.3617 C   0  0  0  0  0  0  0  0  0  0  0  0
   -1.4313    4.8840    0.6626 C   0  0  0  0  0  0  0  0  0  0  0  0
   -2.7529   -2.8017   -1.2225 H   0  0  0  0  0  0  0  0  0  0  0  0
   -5.2243   -2.2578   -1.0340 H   0  0  0  0  0  0  0  0  0  0  0  0
   -5.9660    0.1582   -1.0341 H   0  0  0  0  0  0  0  0  0  0  0  0
   -4.2531    2.0039   -1.3075 H   0  0  0  0  0  0  0  0  0  0  0  0
   -1.8242    1.4412   -1.5245 H   0  0  0  0  0  0  0  0  0  0  0  0
   -0.3422   -0.3278    0.3115 H   0  0  0  0  0  0  0  0  0  0  0  0
    1.6060   -1.6751   -1.6617 H   0  0  0  0  0  0  0  0  0  0  0  0
    2.4050   -0.6094    1.1155 H   0  0  0  0  0  0  0  0  0  0  0  0
    3.1194    0.8752   -1.4674 H   0  0  0  0  0  0  0  0  0  0  0  0
    0.9357    1.5454    0.6296 H   0  0  0  0  0  0  0  0  0  0  0  0
    2.3820    3.3871   -0.8231 H   0  0  0  0  0  0  0  0  0  0  0  0
    0.9961    3.0442   -1.9501 H   0  0  0  0  0  0  0  0  0  0  0  0
    0.1884   -5.6603    0.0818 H   0  0  0  0  0  0  0  0  0  0  0  0
    1.2012   -4.8311    1.3344 H   0  0  0  0  0  0  0  0  0  0  0  0
   -0.4920   -4.3301    1.1246 H   0  0  0  0  0  0  0  0  0  0  0  0
    5.5667   -3.0273   -0.6300 H   0  0  0  0  0  0  0  0  0  0  0  0
    6.5249   -2.5665    0.8520 H   0  0  0  0  0  0  0  0  0  0  0  0
    6.4201   -1.4572   -0.5695 H   0  0  0  0  0  0  0  0  0  0  0  0
    6.5983    2.5205    1.0759 H   0  0  0  0  0  0  0  0  0  0  0  0
    5.0208    3.0206    1.8436 H   0  0  0  0  0  0  0  0  0  0  0  0
    5.6835    1.3870    2.1448 H   0  0  0  0  0  0  0  0  0  0  0  0
   -2.3404    5.3319    0.2245 H   0  0  0  0  0  0  0  0  0  0  0  0
   -1.7293    4.2302    1.5081 H   0  0  0  0  0  0  0  0  0  0  0  0
   -0.7503    5.6623    1.0527 H   0  0  0  0  0  0  0  0  0  0  0  0
  1 17  1  0  0  0  0
  1 21  1  0  0  0  0
  2 11  1  0  0  0  0
  2 17  1  0  0  0  0
  4 19  1  0  0  0  0
  4 25  1  0  0  0  0
  7 23  2  0  0  0  0
  9 27  2  0  0  0  0
 10 29  2  0  0  0  0
 11 12  1  0  0  0  0
 12 31  1  0  0  0  0
 12 13  1  0  0  0  0
 13 14  1  0  0  0  0
 13 32  1  0  0  0  0
 14 33  1  0  0  0  0
 15 34  1  0  0  0  0
 15 14  1  0  0  0  0
 16 11  1  0  0  0  0
 16 15  1  0  0  0  0
 17 18  1  0  0  0  0
 17 36  1  1  0  0  0
 18 37  1  6  0  0  0
 18 19  1  0  0  0  0
 18  3  1  0  0  0  0
 19 38  1  1  0  0  0
 20 39  1  6  0  0  0
 20 21  1  0  0  0  0
 20 19  1  0  0  0  0
 20  5  1  0  0  0  0
 21 40  1  1  0  0  0
 22 41  1  0  0  0  0
 22 21  1  0  0  0  0
 22  6  1  0  0  0  0
 23  3  1  0  0  0  0
 23 24  1  0  0  0  0
 24 45  1  0  0  0  0
 24 44  1  0  0  0  0
 25  8  2  0  0  0  0
 26 25  1  0  0  0  0
 26 47  1  0  0  0  0
 27  5  1  0  0  0  0
 27 28  1  0  0  0  0
 28 50  1  0  0  0  0
 28 51  1  0  0  0  0
 29  6  1  0  0  0  0
 29 30  1  0  0  0  0
 30 54  1  0  0  0  0
 30 53  1  0  0  0  0
 35 16  1  0  0  0  0
 42 22  1  0  0  0  0
 43 24  1  0  0  0  0
 46 26  1  0  0  0  0
 48 26  1  0  0  0  0
 49 28  1  0  0  0  0
 52 30  1  0  0  0  0
M  END
