13,35,45
q = -2.0, confidence = 0.774

 53 58  0  0  0  0  0  0  0  0999 V2000
    0.6631    1.1096   -0.0000 P   0  0  0  0  0  4  0  0  0  0  0  0
    2.3828    1.6896   -0.0001 C   0  0  0  0  0  0  0  0  0  0  0  0
    3.4351    0.7513   -0.0001 C   0  0  0  0  0  0  0  0  0  0  0  0
    3.2138   -0.3257   -0.0001 H   0  0  0  0  0  0  0  0  0  0  0  0
    4.7641    1.1996   -0.0001 C   0  0  0  0  0  0  0  0  0  0  0  0
    5.5840    0.4661   -0.0001 H   0  0  0  0  0  0  0  0  0  0  0  0
    5.0469    2.5747   -0.0002 C   0  0  0  0  0  0  0  0  0  0  0  0
    6.0915    2.9209   -0.0002 H   0  0  0  0  0  0  0  0  0  0  0  0
    3.9996    3.5107   -0.0002 C   0  0  0  0  0  0  0  0  0  0  0  0
    4.2211    4.5886   -0.0002 H   0  0  0  0  0  0  0  0  0  0  0  0
    2.6672    3.0734   -0.0001 C   0  0  0  0  0  0  0  0  0  0  0  0
    1.8481    3.8090   -0.0001 H   0  0  0  0  0  0  0  0  0  0  0  0
    0.4063   -0.6752   -0.0000 C   0  0  0  0  0  3  0  0  0  0  0  0
    0.9604   -1.4221    1.1882 C   0  0  0  0  0  0  0  0  0  0  0  0
    0.8769   -1.1663    2.5694 C   0  0  0  0  0  0  0  0  0  0  0  0
    0.3445   -0.2841    2.9490 H   0  0  0  0  0  0  0  0  0  0  0  0
    1.4686   -2.0650    3.4702 C   0  0  0  0  0  0  0  0  0  0  0  0
    1.3991   -1.8664    4.5504 H   0  0  0  0  0  0  0  0  0  0  0  0
    2.1394   -3.2176    3.0146 C   0  0  0  0  0  0  0  0  0  0  0  0
    2.5878   -3.9127    3.7405 H   0  0  0  0  0  0  0  0  0  0  0  0
    2.2375   -3.4803    1.6422 C   0  0  0  0  0  0  0  0  0  0  0  0
    2.7651   -4.3762    1.2803 H   0  0  0  0  0  0  0  0  0  0  0  0
    1.6597   -2.5787    0.7301 C   0  0  0  0  0  0  0  0  0  0  0  0
    0.9603   -1.4221   -1.1883 C   0  0  0  0  0  0  0  0  0  0  0  0
    0.8767   -1.1663   -2.5695 C   0  0  0  0  0  0  0  0  0  0  0  0
    0.3442   -0.2841   -2.9490 H   0  0  0  0  0  0  0  0  0  0  0  0
    1.4682   -2.0650   -3.4703 C   0  0  0  0  0  0  0  0  0  0  0  0
    1.3986   -1.8664   -4.5506 H   0  0  0  0  0  0  0  0  0  0  0  0
    2.1392   -3.2176   -3.0149 C   0  0  0  0  0  0  0  0  0  0  0  0
    2.5874   -3.9127   -3.7409 H   0  0  0  0  0  0  0  0  0  0  0  0
    2.2374   -3.4803   -1.6425 C   0  0  0  0  0  0  0  0  0  0  0  0
    2.7650   -4.3762   -1.2806 H   0  0  0  0  0  0  0  0  0  0  0  0
    1.6596   -2.5787   -0.7303 C   0  0  0  0  0  0  0  0  0  0  0  0
   -0.2589    1.6906    1.4352 C   0  0  0  0  0  0  0  0  0  0  0  0
   -1.5205    1.0453    1.4817 C   0  0  0  0  0  3  0  0  0  0  0  0
   -2.3628    1.4149    2.5530 C   0  0  0  0  0  0  0  0  0  0  0  0
   -3.3569    0.9517    2.6576 H   0  0  0  0  0  0  0  0  0  0  0  0
   -1.9564    2.3610    3.5101 C   0  0  0  0  0  0  0  0  0  0  0  0
   -2.6377    2.6240    4.3347 H   0  0  0  0  0  0  0  0  0  0  0  0
   -0.6901    2.9676    3.4359 C   0  0  0  0  0  0  0  0  0  0  0  0
   -0.3759    3.6955    4.1989 H   0  0  0  0  0  0  0  0  0  0  0  0
    0.1748    2.6317    2.3852 C   0  0  0  0  0  0  0  0  0  0  0  0
    1.1783    3.0793    2.3200 H   0  0  0  0  0  0  0  0  0  0  0  0
   -0.2590    1.6907   -1.4351 C   0  0  0  0  0  0  0  0  0  0  0  0
   -1.5207    1.0454   -1.4815 C   0  0  0  0  0  3  0  0  0  0  0  0
   -2.3631    1.4150   -2.5527 C   0  0  0  0  0  0  0  0  0  0  0  0
   -3.3572    0.9519   -2.6572 H   0  0  0  0  0  0  0  0  0  0  0  0
   -1.9568    2.3611   -3.5098 C   0  0  0  0  0  0  0  0  0  0  0  0
   -2.6381    2.6242   -4.3344 H   0  0  0  0  0  0  0  0  0  0  0  0
   -0.6905    2.9677   -3.4358 C   0  0  0  0  0  0  0  0  0  0  0  0
   -0.3764    3.6956   -4.1988 H   0  0  0  0  0  0  0  0  0  0  0  0
    0.1746    2.6318   -2.3851 C   0  0  0  0  0  0  0  0  0  0  0  0
    1.1781    3.0794   -2.3201 H   0  0  0  0  0  0  0  0  0  0  0  0
  1 34  1  0  0  0  0
  2  3  1  0  0  0  0
  2  1  1  0  0  0  0
  3  4  1  0  0  0  0
  5  3  2  0  0  0  0
  6  5  1  0  0  0  0
  7  5  1  0  0  0  0
  8  7  1  0  0  0  0
  9  7  2  0  0  0  0
  9 11  1  0  0  0  0
 10  9  1  0  0  0  0
 11 12  1  0  0  0  0
 11  2  2  0  0  0  0
 13  1  1  0  0  0  0
 13 14  1  0  0  0  0
 14 15  1  0  0  0  0
 15 16  1  0  0  0  0
 15 17  2  0  0  0  0
 17 18  1  0  0  0  0
 19 17  1  0  0  0  0
 19 20  1  0  0  0  0
 21 19  2  0  0  0  0
 22 21  1  0  0  0  0
 23 14  2  0  0  0  0
 23 21  1  0  0  0  0
 24 33  1  0  0  0  0
 24 13  1  0  0  0  0
 25 24  2  0  0  0  0
 26 25  1  0  0  0  0
 27 29  2  0  0  0  0
 27 25  1  0  0  0  0
 28 27  1  0  0  0  0
 29 31  1  0  0  0  0
 30 29  1  0  0  0  0
 31 32  1  0  0  0  0
 31 33  2  0  0  0  0
 33 23  1  0  0  0  0
 34 35  2  0  0  0  0
 34 42  1  0  0  0  0
 35 36  1  0  0  0  0
 36 37  1  0  0  0  0
 36 38  2  0  0  0  0
 38 39  1  0  0  0  0
 40 38  1  0  0  0  0
 40 41  1  0  0  0  0
 42 40  2  0  0  0  0
 43 42  1  0  0  0  0
 44  1  1  0  0  0  0
 45 44  1  0  0  0  0
 46 45  2  0  0  0  0
 47 46  1  0  0  0  0
 48 50  2  0  0  0  0
 48 46  1  0  0  0  0
 49 48  1  0  0  0  0
 50 52  1  0  0  0  0
 51 50  1  0  0  0  0
 52 53  1  0  0  0  0
 52 44  2  0  0  0  0
M  END
