1,6,10
q = -1.0, confidence = 0.112

 46 49  0  0  1  0  0  0  0  0999 V2000
   -1.7765    1.3698   -0.9447 C   0  0  2  0  0  3  0  0  0  0  0  0
   -2.0624    1.8171    0.4012 C   0  0  0  0  0  0  0  0  0  0  0  0
   -1.4207    2.6349    0.7628 H   0  0  0  0  0  0  0  0  0  0  0  0
   -2.9345    1.2477    1.3537 C   0  0  0  0  0  0  0  0  0  0  0  0
   -2.8643    1.6764    2.3661 H   0  0  0  0  0  0  0  0  0  0  0  0
   -3.7511    0.0764    1.2438 C   0  0  0  0  0  3  0  0  0  0  0  0
   -4.2233   -0.2640    2.1780 H   0  0  0  0  0  0  0  0  0  0  0  0
   -3.9945   -0.7265    0.0990 C   0  0  0  0  0  3  0  0  0  0  0  0
   -4.6329   -1.6097    0.2495 H   0  0  0  0  0  0  0  0  0  0  0  0
   -3.3974   -0.5973   -1.1883 C   0  0  0  0  0  3  0  0  0  0  0  0
   -3.6282   -1.4157   -1.8890 H   0  0  0  0  0  0  0  0  0  0  0  0
   -2.4459    0.3464   -1.6768 C   0  0  0  0  0  3  0  0  0  0  0  0
   -2.0467    0.1452   -2.6821 H   0  0  0  0  0  0  0  0  0  0  0  0
   -0.5679    1.9928   -1.5813 C   0  0  0  0  0  0  0  0  0  0  0  0
   -0.6670    3.0618   -2.4887 C   0  0  0  0  0  0  0  0  0  0  0  0
   -1.6562    3.4509   -2.7730 H   0  0  0  0  0  0  0  0  0  0  0  0
    0.5003    3.6317   -3.0204 C   0  0  0  0  0  0  0  0  0  0  0  0
    0.4221    4.4675   -3.7313 H   0  0  0  0  0  0  0  0  0  0  0  0
    1.7641    3.1456   -2.6450 C   0  0  0  0  0  0  0  0  0  0  0  0
    2.6748    3.6009   -3.0613 H   0  0  0  0  0  0  0  0  0  0  0  0
    1.8695    2.0793   -1.7403 C   0  0  0  0  0  0  0  0  0  0  0  0
    2.8595    1.6977   -1.4482 H   0  0  0  0  0  0  0  0  0  0  0  0
    0.7029    1.4948   -1.2144 C   0  0  0  0  0  0  0  0  0  0  0  0
    0.7185    0.0841   -0.0261 P   0  0  0  0  0  0  0  0  0  0  0  0
    1.7010   -1.2403   -0.8148 C   0  0  0  0  0  0  0  0  0  0  0  0
    1.8539   -1.3001   -2.2144 C   0  0  0  0  0  0  0  0  0  0  0  0
    1.4638   -0.4920   -2.8510 H   0  0  0  0  0  0  0  0  0  0  0  0
    2.5114   -2.3943   -2.7978 C   0  0  0  0  0  0  0  0  0  0  0  0
    2.6349   -2.4353   -3.8902 H   0  0  0  0  0  0  0  0  0  0  0  0
    3.0110   -3.4294   -1.9928 C   0  0  0  0  0  0  0  0  0  0  0  0
    3.5260   -4.2853   -2.4538 H   0  0  0  0  0  0  0  0  0  0  0  0
    2.8515   -3.3746   -0.5979 C   0  0  0  0  0  0  0  0  0  0  0  0
    3.2398   -4.1862    0.0352 H   0  0  0  0  0  0  0  0  0  0  0  0
    2.1952   -2.2874   -0.0064 C   0  0  0  0  0  0  0  0  0  0  0  0
    2.0681   -2.2538    1.0870 H   0  0  0  0  0  0  0  0  0  0  0  0
    1.7293    0.6769    1.3859 C   0  0  0  0  0  0  0  0  0  0  0  0
    3.1367    0.5779    1.3536 C   0  0  0  0  0  0  0  0  0  0  0  0
    3.6393    0.0703    0.5169 H   0  0  0  0  0  0  0  0  0  0  0  0
    3.8983    1.1150    2.4017 C   0  0  0  0  0  0  0  0  0  0  0  0
    4.9949    1.0314    2.3747 H   0  0  0  0  0  0  0  0  0  0  0  0
    3.2663    1.7508    3.4823 C   0  0  0  0  0  0  0  0  0  0  0  0
    3.8679    2.1660    4.3045 H   0  0  0  0  0  0  0  0  0  0  0  0
    1.8664    1.8501    3.5173 C   0  0  0  0  0  0  0  0  0  0  0  0
    1.3683    2.3412    4.3664 H   0  0  0  0  0  0  0  0  0  0  0  0
    1.0990    1.3146    2.4735 C   0  0  0  0  0  0  0  0  0  0  0  0
    0.0012    1.3867    2.5057 H   0  0  0  0  0  0  0  0  0  0  0  0
  1 14  1  1  0  0  0
  1  2  1  0  0  0  0
  2  3  1  0  0  0  0
  2  4  2  0  0  0  0
  4  5  1  0  0  0  0
  6  4  1  0  0  0  0
  6  7  1  0  0  0  0
  8  9  1  0  0  0  0
  8  6  1  0  0  0  0
 10  8  1  0  0  0  0
 11 10  1  0  0  0  0
 12 10  1  0  0  0  0
 12  1  1  0  0  0  0
 13 12  1  0  0  0  0
 14 23  1  0  0  0  0
 15 14  2  0  0  0  0
 16 15  1  0  0  0  0
 17 19  2  0  0  0  0
 17 15  1  0  0  0  0
 18 17  1  0  0  0  0
 19 21  1  0  0  0  0
 20 19  1  0  0  0  0
 21 22  1  0  0  0  0
 21 23  2  0  0  0  0
 23 24  1  0  0  0  0
 24 36  1  0  0  0  0
 25 24  1  0  0  0  0
 25 34  1  0  0  0  0
 26 25  2  0  0  0  0
 27 26  1  0  0  0  0
 28 26  1  0  0  0  0
 28 30  2  0  0  0  0
 29 28  1  0  0  0  0
 30 32  1  0  0  0  0
 31 30  1  0  0  0  0
 32 34  2  0  0  0  0
 32 33  1  0  0  0  0
 34 35  1  0  0  0  0
 36 45  1  0  0  0  0
 37 36  2  0  0  0  0
 37 39  1  0  0  0  0
 38 37  1  0  0  0  0
 39 41  2  0  0  0  0
 40 39  1  0  0  0  0
 41 43  1  0  0  0  0
 41 42  1  0  0  0  0
 43 44  1  0  0  0  0
 45 46  1  0  0  0  0
 45 43  2  0  0  0  0
M  END
