6,14,27
q = -2.0, confidence = 0.722

 36 37  0  0  1  0  0  0  0  0999 V2000
   -3.1394   -1.6983    1.5040 O   0  0  0  0  0  0  0  0  0  0  0  0
   -1.2177   -2.7629    0.9679 O   0  0  0  0  0  0  0  0  0  0  0  0
   -4.6864   -1.2006   -1.4123 O   0  0  0  0  0  0  0  0  0  0  0  0
   -5.0620    0.1510    0.3545 O   0  0  0  0  0  0  0  0  0  0  0  0
   -2.1639   -1.7979    0.7688 C   0  0  0  0  0  0  0  0  0  0  0  0
   -1.8458   -0.9422   -0.4088 C   0  0  2  0  0  3  0  0  0  0  0  0
   -2.8746    0.2284   -0.6903 C   0  0  2  0  0  0  0  0  0  0  0  0
   -4.2916   -0.3441   -0.6354 C   0  0  0  0  0  0  0  0  0  0  0  0
   -2.5449    0.7106   -2.1506 C   0  0  0  0  0  0  0  0  0  0  0  0
   -3.1306    0.1094   -2.8775 H   0  0  0  0  0  0  0  0  0  0  0  0
   -2.8473    1.7684   -2.2639 H   0  0  0  0  0  0  0  0  0  0  0  0
   -1.0693    0.5032   -2.4241 C   0  0  0  0  0  3  0  0  0  0  0  0
   -0.5471    1.2231   -3.0641 H   0  0  0  0  0  0  0  0  0  0  0  0
   -0.6117   -0.8295   -2.3545 C   0  0  0  0  0  3  0  0  0  0  0  0
    0.2569   -1.1721   -2.9384 H   0  0  0  0  0  0  0  0  0  0  0  0
   -1.6030   -1.7594   -1.6981 C   0  0  0  0  0  0  0  0  0  0  0  0
   -1.1692   -2.7306   -1.4452 H   0  0  0  0  0  0  0  0  0  0  0  0
   -2.5364   -1.9349   -2.2785 H   0  0  0  0  0  0  0  0  0  0  0  0
   -1.4161   -3.5871    2.1172 C   0  0  0  0  0  0  0  0  0  0  0  0
   -1.3307   -2.9887    3.0476 H   0  0  0  0  0  0  0  0  0  0  0  0
   -0.6188   -4.3516    2.0867 H   0  0  0  0  0  0  0  0  0  0  0  0
   -2.4168   -4.0642    2.1027 H   0  0  0  0  0  0  0  0  0  0  0  0
   -6.2995   -0.5338    0.5680 C   0  0  0  0  0  0  0  0  0  0  0  0
   -6.8860   -0.6051   -0.3694 H   0  0  0  0  0  0  0  0  0  0  0  0
   -6.8455    0.0498    1.3307 H   0  0  0  0  0  0  0  0  0  0  0  0
   -6.0967   -1.5577    0.9418 H   0  0  0  0  0  0  0  0  0  0  0  0
   -1.0935    1.6405    0.1420 C   0  0  0  0  0  3  0  0  0  0  0  0
   -2.4950    1.4411    0.1375 C   0  0  0  0  0  0  0  0  0  0  0  0
   -3.3421    2.4089    0.7044 C   0  0  0  0  0  0  0  0  0  0  0  0
   -4.4277    2.2542    0.6980 H   0  0  0  0  0  0  0  0  0  0  0  0
   -2.7975    3.5621    1.2950 C   0  0  0  0  0  0  0  0  0  0  0  0
   -3.4668    4.3090    1.7489 H   0  0  0  0  0  0  0  0  0  0  0  0
   -1.4083    3.7593    1.3068 C   0  0  0  0  0  0  0  0  0  0  0  0
   -0.9794    4.6620    1.7699 H   0  0  0  0  0  0  0  0  0  0  0  0
   -0.5558    2.7998    0.7334 C   0  0  0  0  0  0  0  0  0  0  0  0
    0.5328    2.9513    0.7666 H   0  0  0  0  0  0  0  0  0  0  0  0
  2 19  1  0  0  0  0
  3  8  2  0  0  0  0
  4 23  1  0  0  0  0
  5  2  1  0  0  0  0
  5  1  2  0  0  0  0
  6  5  1  1  0  0  0
  7  8  1  1  0  0  0
  7  6  1  0  0  0  0
  7 28  1  0  0  0  0
  8  4  1  0  0  0  0
  9  7  1  0  0  0  0
 10  9  1  0  0  0  0
 11  9  1  0  0  0  0
 12 14  1  0  0  0  0
 12  9  1  0  0  0  0
 13 12  1  0  0  0  0
 14 16  1  0  0  0  0
 15 14  1  0  0  0  0
 16 17  1  0  0  0  0
 16  6  1  0  0  0  0
 18 16  1  0  0  0  0
 19 20  1  0  0  0  0
 21 19  1  0  0  0  0
 22 19  1  0  0  0  0
 23 26  1  0  0  0  0
 23 25  1  0  0  0  0
 24 23  1  0  0  0  0
 27 35  1  0  0  0  0
 28 27  2  0  0  0  0
 28 29  1  0  0  0  0
 29 31  2  0  0  0  0
 30 29  1  0  0  0  0
 31 33  1  0  0  0  0
 31 32  1  0  0  0  0
 33 34  1  0  0  0  0
 35 36  1  0  0  0  0
 35 33  2  0  0  0  0
M  END
