10,12,14
q = 0.0, confidence = 0.998

 43 46  0  0  1  0  0  0  0  0999 V2000
   -5.2595   -2.5598   -0.9193 Cl  0  0  0  0  0  0  0  0  0  0  0  0
   -5.2116    2.8410   -0.2475 Cl  0  0  0  0  0  0  0  0  0  0  0  0
    0.4815   -0.6597    2.5794 O   0  0  0  0  0  0  0  0  0  0  0  0
   -0.8751   -0.7278    2.3496 N   0  0  0  0  0  0  0  0  0  0  0  0
    1.1164    0.2235    1.5771 C   0  0  2  0  0  0  0  0  0  0  0  0
    0.0209    0.4645    0.5160 C   0  0  1  0  0  0  0  0  0  0  0  0
    0.2415   -0.2372   -0.8422 C   0  0  0  0  0  0  0  0  0  0  0  0
    0.9826   -1.5697   -0.6948 C   0  0  0  0  0  0  0  0  0  0  0  0
    2.3005   -1.3771    0.0111 C   0  0  2  0  0  3  0  0  0  0  0  0
    2.3680   -0.4710    1.1120 C   0  0  2  0  0  3  0  0  0  0  0  0
    3.6044   -0.2620    1.8049 C   0  0  0  0  0  3  0  0  0  0  0  0
    4.7827   -0.9024    1.3564 C   0  0  0  0  0  3  0  0  0  0  0  0
    4.7376   -1.7968    0.2439 C   0  0  0  0  0  3  0  0  0  0  0  0
    3.5063   -2.0113   -0.4233 C   0  0  0  0  0  3  0  0  0  0  0  0
   -1.1860   -0.1000    1.2610 C   0  0  0  0  0  0  0  0  0  0  0  0
   -2.5690   -0.0494    0.7231 C   0  0  0  0  0  0  0  0  0  0  0  0
   -3.1863    1.2230    0.5891 C   0  0  0  0  0  0  0  0  0  0  0  0
   -4.4418    1.2777   -0.0453 C   0  0  0  0  0  0  0  0  0  0  0  0
   -5.1261    0.1420   -0.5322 C   0  0  0  0  0  0  0  0  0  0  0  0
   -4.4773   -1.0963   -0.3431 C   0  0  0  0  0  0  0  0  0  0  0  0
   -3.2150   -1.2335    0.2798 C   0  0  0  0  0  0  0  0  0  0  0  0
   -2.5445    2.4736    1.1298 C   0  0  0  0  0  0  0  0  0  0  0  0
   -6.4646    0.2810   -1.1995 C   0  0  0  0  0  0  0  0  0  0  0  0
   -2.6036   -2.6008    0.4337 C   0  0  0  0  0  0  0  0  0  0  0  0
    1.3818    1.1646    2.1033 H   0  0  0  0  0  0  0  0  0  0  0  0
   -0.0990    1.5492    0.3319 H   0  0  0  0  0  0  0  0  0  0  0  0
   -0.7419   -0.3898   -1.3320 H   0  0  0  0  0  0  0  0  0  0  0  0
    0.8359    0.4251   -1.5025 H   0  0  0  0  0  0  0  0  0  0  0  0
    0.3649   -2.2872   -0.1103 H   0  0  0  0  0  0  0  0  0  0  0  0
    1.1526   -2.0298   -1.6883 H   0  0  0  0  0  0  0  0  0  0  0  0
    3.6431    0.4521    2.6389 H   0  0  0  0  0  0  0  0  0  0  0  0
    5.7423   -0.6867    1.8467 H   0  0  0  0  0  0  0  0  0  0  0  0
    5.6580   -2.2642   -0.1299 H   0  0  0  0  0  0  0  0  0  0  0  0
    3.4773   -2.6525   -1.3165 H   0  0  0  0  0  0  0  0  0  0  0  0
   -3.3039    3.1236    1.6056 H   0  0  0  0  0  0  0  0  0  0  0  0
   -1.7708    2.2373    1.8832 H   0  0  0  0  0  0  0  0  0  0  0  0
   -2.0780    3.0791    0.3235 H   0  0  0  0  0  0  0  0  0  0  0  0
   -1.6950   -2.5744    1.0571 H   0  0  0  0  0  0  0  0  0  0  0  0
   -3.3251   -3.2925    0.9124 H   0  0  0  0  0  0  0  0  0  0  0  0
   -2.3648   -3.0437   -0.5562 H   0  0  0  0  0  0  0  0  0  0  0  0
   -6.3866    0.9272   -2.0979 H   0  0  0  0  0  0  0  0  0  0  0  0
   -6.8691   -0.7007   -1.4985 H   0  0  0  0  0  0  0  0  0  0  0  0
   -7.1870    0.7790   -0.5211 H   0  0  0  0  0  0  0  0  0  0  0  0
  1 20  1  0  0  0  0
  2 18  1  0  0  0  0
  4  3  1  0  0  0  0
  5 25  1  1  0  0  0
  5  3  1  0  0  0  0
  6 26  1  6  0  0  0
  6 15  1  0  0  0  0
  6  5  1  0  0  0  0
  7  8  1  0  0  0  0
  7  6  1  0  0  0  0
  8 29  1  0  0  0  0
  8  9  1  0  0  0  0
  9 14  1  6  0  0  0
  9 10  1  0  0  0  0
 10  5  1  0  0  0  0
 10 11  1  1  0  0  0
 11 31  1  0  0  0  0
 12 11  1  0  0  0  0
 12 32  1  0  0  0  0
 13 12  1  0  0  0  0
 14 13  1  0  0  0  0
 15  4  2  0  0  0  0
 16 15  1  0  0  0  0
 17 16  1  0  0  0  0
 17 22  1  0  0  0  0
 18 17  2  0  0  0  0
 19 20  2  0  0  0  0
 19 18  1  0  0  0  0
 20 21  1  0  0  0  0
 21 24  1  0  0  0  0
 21 16  2  0  0  0  0
 22 35  1  0  0  0  0
 22 36  1  0  0  0  0
 23 19  1  0  0  0  0
 23 43  1  0  0  0  0
 24 39  1  0  0  0  0
 24 38  1  0  0  0  0
 27  7  1  0  0  0  0
 28  7  1  0  0  0  0
 30  8  1  0  0  0  0
 33 13  1  0  0  0  0
 34 14  1  0  0  0  0
 37 22  1  0  0  0  0
 40 24  1  0  0  0  0
 41 23  1  0  0  0  0
 42 23  1  0  0  0  0
M  END
