1,3,6
q = 0.0, confidence = 0.994

 70 74  0  0  1  0  0  0  0  0999 V2000
    0.9488   -1.9543   -0.7555 C   0  0  1  0  0  3  0  0  0  0  0  0
    1.7391   -1.3922   -1.8372 C   0  0  2  0  0  3  0  0  0  0  0  0
    3.1116   -1.0830   -1.5493 C   0  0  0  0  0  3  0  0  0  0  0  0
    3.6667   -0.5003   -2.3009 H   0  0  0  0  0  0  0  0  0  0  0  0
    3.7405   -1.3313   -0.2920 C   0  0  2  0  0  3  0  0  0  0  0  0
    2.9228   -1.9459    0.7159 C   0  0  0  0  0  3  0  0  0  0  0  0
    3.3371   -2.0601    1.7301 H   0  0  0  0  0  0  0  0  0  0  0  0
    1.5703   -2.3518    0.5012 C   0  0  1  0  0  3  0  0  0  0  0  0
    1.1620   -1.0627   -3.1851 C   0  0  0  0  0  0  0  0  0  0  0  0
    1.6125   -0.1297   -3.5758 H   0  0  0  0  0  0  0  0  0  0  0  0
    0.0674   -0.9177   -3.1341 H   0  0  0  0  0  0  0  0  0  0  0  0
    1.3703   -1.8773   -3.9115 H   0  0  0  0  0  0  0  0  0  0  0  0
    5.1323   -0.8576    0.0147 C   0  0  0  0  0  0  0  0  0  0  0  0
    5.1731   -0.4415    1.0408 H   0  0  0  0  0  0  0  0  0  0  0  0
    5.4342   -0.0552   -0.6847 H   0  0  0  0  0  0  0  0  0  0  0  0
    5.8707   -1.6839   -0.0587 H   0  0  0  0  0  0  0  0  0  0  0  0
    0.8372   -3.1530    1.5397 C   0  0  0  0  0  0  0  0  0  0  0  0
    1.0161   -4.2359    1.3623 H   0  0  0  0  0  0  0  0  0  0  0  0
   -0.2536   -2.9810    1.5054 H   0  0  0  0  0  0  0  0  0  0  0  0
    1.1972   -2.9181    2.5591 H   0  0  0  0  0  0  0  0  0  0  0  0
   -0.5327   -1.9975   -0.8729 C   0  0  0  0  0  0  0  0  0  0  0  0
   -1.3795   -3.0975   -1.4580 C   0  0  0  0  0  0  0  0  0  0  0  0
   -1.0859   -3.3284   -2.5067 H   0  0  0  0  0  0  0  0  0  0  0  0
   -1.2603   -4.0515   -0.8961 H   0  0  0  0  0  0  0  0  0  0  0  0
   -2.7777   -2.5339   -1.3607 C   0  0  0  0  0  0  0  0  0  0  0  0
   -3.9957   -3.0843   -1.7653 C   0  0  0  0  0  0  0  0  0  0  0  0
   -4.0361   -4.0864   -2.2202 H   0  0  0  0  0  0  0  0  0  0  0  0
   -5.1739   -2.3339   -1.5906 C   0  0  0  0  0  0  0  0  0  0  0  0
   -6.1406   -2.7535   -1.9072 H   0  0  0  0  0  0  0  0  0  0  0  0
   -5.1228   -1.0491   -1.0224 C   0  0  0  0  0  0  0  0  0  0  0  0
   -6.0509   -0.4703   -0.9012 H   0  0  0  0  0  0  0  0  0  0  0  0
   -3.9019   -0.4911   -0.6080 C   0  0  0  0  0  0  0  0  0  0  0  0
   -3.8774    0.5159   -0.1699 H   0  0  0  0  0  0  0  0  0  0  0  0
   -2.7216   -1.2381   -0.7679 C   0  0  0  0  0  0  0  0  0  0  0  0
   -1.3090   -0.9434   -0.4598 C   0  0  0  0  0  0  0  0  0  0  0  0
   -0.9865    0.7772    2.0040 C   0  0  0  0  0  0  0  0  0  0  0  0
   -0.2725    1.5688    2.3300 H   0  0  0  0  0  0  0  0  0  0  0  0
   -0.7091   -0.4548    2.8770 C   0  0  0  0  0  0  0  0  0  0  0  0
   -1.3572   -1.2947    2.5393 H   0  0  0  0  0  0  0  0  0  0  0  0
    0.3474   -0.7538    2.7418 H   0  0  0  0  0  0  0  0  0  0  0  0
   -0.9837   -0.1525    4.3555 C   0  0  0  0  0  0  0  0  0  0  0  0
   -0.8048   -1.0620    4.9670 H   0  0  0  0  0  0  0  0  0  0  0  0
   -0.2457    0.6059    4.6989 H   0  0  0  0  0  0  0  0  0  0  0  0
   -2.4065    0.3737    4.5761 C   0  0  0  0  0  0  0  0  0  0  0  0
   -3.1364   -0.4330    4.3372 H   0  0  0  0  0  0  0  0  0  0  0  0
   -2.5666    0.6337    5.6436 H   0  0  0  0  0  0  0  0  0  0  0  0
   -2.6929    1.5855    3.6815 C   0  0  0  0  0  0  0  0  0  0  0  0
   -2.0423    2.4339    3.9907 H   0  0  0  0  0  0  0  0  0  0  0  0
   -3.7407    1.9292    3.8116 H   0  0  0  0  0  0  0  0  0  0  0  0
   -2.4285    1.2704    2.2002 C   0  0  0  0  0  0  0  0  0  0  0  0
   -2.6378    2.1687    1.5849 H   0  0  0  0  0  0  0  0  0  0  0  0
   -3.1347    0.4780    1.8702 H   0  0  0  0  0  0  0  0  0  0  0  0
   -1.1129    1.9628   -0.6892 C   0  0  0  0  0  0  0  0  0  0  0  0
   -2.2117    1.9212   -0.5091 H   0  0  0  0  0  0  0  0  0  0  0  0
   -0.8738    1.8134   -2.2015 C   0  0  0  0  0  0  0  0  0  0  0  0
   -1.3480    0.8777   -2.5660 H   0  0  0  0  0  0  0  0  0  0  0  0
    0.2200    1.7257   -2.3690 H   0  0  0  0  0  0  0  0  0  0  0  0
   -1.4222    3.0202   -2.9739 C   0  0  0  0  0  0  0  0  0  0  0  0
   -1.1977    2.9048   -4.0552 H   0  0  0  0  0  0  0  0  0  0  0  0
   -2.5328    3.0454   -2.8854 H   0  0  0  0  0  0  0  0  0  0  0  0
   -0.8428    4.3347   -2.4379 C   0  0  0  0  0  0  0  0  0  0  0  0
    0.2579    4.3381   -2.5980 H   0  0  0  0  0  0  0  0  0  0  0  0
   -1.2527    5.1992   -3.0015 H   0  0  0  0  0  0  0  0  0  0  0  0
   -1.1291    4.4851   -0.9391 C   0  0  0  0  0  0  0  0  0  0  0  0
   -2.2304    4.5601   -0.7837 H   0  0  0  0  0  0  0  0  0  0  0  0
   -0.6937    5.4295   -0.5507 H   0  0  0  0  0  0  0  0  0  0  0  0
   -0.5755    3.2981   -0.1389 C   0  0  0  0  0  0  0  0  0  0  0  0
   -0.8363    3.4094    0.9338 H   0  0  0  0  0  0  0  0  0  0  0  0
    0.5325    3.2808   -0.2012 H   0  0  0  0  0  0  0  0  0  0  0  0
   -0.4126    0.5079    0.2460 P   0  0  0  0  0  0  0  0  0  0  0  0
  1 21  1  1  0  0  0
  1  8  1  0  0  0  0
  2  9  1  1  0  0  0
  2  3  1  0  0  0  0
  2  1  1  0  0  0  0
  3  5  1  0  0  0  0
  4  3  1  0  0  0  0
  5 13  1  1  0  0  0
  5  6  1  0  0  0  0
  6  7  1  0  0  0  0
  8  6  1  0  0  0  0
  8 17  1  1  0  0  0
  9 11  1  0  0  0  0
 10  9  1  0  0  0  0
 12  9  1  0  0  0  0
 13 14  1  0  0  0  0
 15 13  1  0  0  0  0
 16 13  1  0  0  0  0
 17 20  1  0  0  0  0
 18 17  1  0  0  0  0
 19 17  1  0  0  0  0
 21 35  2  0  0  0  0
 22 25  1  0  0  0  0
 22 24  1  0  0  0  0
 22 21  1  0  0  0  0
 23 22  1  0  0  0  0
 25 34  1  0  0  0  0
 26 28  1  0  0  0  0
 26 25  2  0  0  0  0
 27 26  1  0  0  0  0
 28 30  2  0  0  0  0
 29 28  1  0  0  0  0
 30 31  1  0  0  0  0
 30 32  1  0  0  0  0
 32 33  1  0  0  0  0
 34 32  2  0  0  0  0
 34 35  1  0  0  0  0
 35 70  1  0  0  0  0
 36 50  1  0  0  0  0
 36 37  1  0  0  0  0
 36 38  1  0  0  0  0
 38 41  1  0  0  0  0
 39 38  1  0  0  0  0
 40 38  1  0  0  0  0
 41 44  1  0  0  0  0
 41 43  1  0  0  0  0
 41 42  1  0  0  0  0
 44 46  1  0  0  0  0
 45 44  1  0  0  0  0
 47 49  1  0  0  0  0
 47 48  1  0  0  0  0
 47 44  1  0  0  0  0
 50 47  1  0  0  0  0
 51 50  1  0  0  0  0
 52 50  1  0  0  0  0
 53 54  1  0  0  0  0
 53 67  1  0  0  0  0
 53 70  1  0  0  0  0
 55 53  1  0  0  0  0
 56 55  1  0  0  0  0
 57 55  1  0  0  0  0
 58 60  1  0  0  0  0
 58 61  1  0  0  0  0
 58 55  1  0  0  0  0
 59 58  1  0  0  0  0
 61 64  1  0  0  0  0
 62 61  1  0  0  0  0
 63 61  1  0  0  0  0
 64 65  1  0  0  0  0
 64 66  1  0  0  0  0
 64 67  1  0  0  0  0
 67 68  1  0  0  0  0
 69 67  1  0  0  0  0
 70 36  1  0  0  0  0
M  END
