1,5,9
q = 0.0, confidence = 0.966

 42 45  0  0  1  0  0  0  0  0999 V2000
   -2.0357    0.9139   -1.5130 C   0  0  0  0  0  3  0  0  0  0  0  0
   -1.5779    0.4972   -2.4187 H   0  0  0  0  0  0  0  0  0  0  0  0
   -3.4055    1.2821   -1.5573 C   0  0  0  0  0  3  0  0  0  0  0  0
   -3.9821    1.1387   -2.4807 H   0  0  0  0  0  0  0  0  0  0  0  0
   -4.0472    1.7487   -0.3733 C   0  0  0  0  0  3  0  0  0  0  0  0
   -5.1228    1.9741   -0.3833 H   0  0  0  0  0  0  0  0  0  0  0  0
   -3.3025    1.8951    0.8235 C   0  0  0  0  0  3  0  0  0  0  0  0
   -3.7950    2.2254    1.7477 H   0  0  0  0  0  0  0  0  0  0  0  0
   -1.9285    1.5129    0.8461 C   0  0  0  0  0  3  0  0  0  0  0  0
   -1.3825    1.5738    1.7978 H   0  0  0  0  0  0  0  0  0  0  0  0
   -1.2538    1.0337   -0.3169 C   0  0  0  0  0  3  0  0  0  0  0  0
    0.2288    0.6846   -0.2656 C   0  0  2  0  0  0  0  0  0  0  0  0
    0.5711   -0.2647    0.9103 C   0  0  0  0  0  0  0  0  0  0  0  0
    0.1433   -1.2621    0.6829 H   0  0  0  0  0  0  0  0  0  0  0  0
    0.0802    0.0678    1.8456 H   0  0  0  0  0  0  0  0  0  0  0  0
    2.1032   -0.3404    1.1094 C   0  0  0  0  0  0  0  0  0  0  0  0
    2.4216   -1.3836    1.3073 H   0  0  0  0  0  0  0  0  0  0  0  0
    2.4154    0.2525    1.9937 H   0  0  0  0  0  0  0  0  0  0  0  0
    1.0460    1.9948   -0.0866 C   0  0  0  0  0  0  0  0  0  0  0  0
    0.6984    2.7507   -0.8205 H   0  0  0  0  0  0  0  0  0  0  0  0
    0.8325    2.4149    0.9187 H   0  0  0  0  0  0  0  0  0  0  0  0
    2.5588    1.7147   -0.2572 C   0  0  0  0  0  0  0  0  0  0  0  0
    3.1392    2.2737    0.5025 H   0  0  0  0  0  0  0  0  0  0  0  0
    2.9216    2.0693   -1.2445 H   0  0  0  0  0  0  0  0  0  0  0  0
    0.7351    0.0012   -1.5550 C   0  0  0  0  0  0  0  0  0  0  0  0
    0.0840   -0.8589   -1.8088 H   0  0  0  0  0  0  0  0  0  0  0  0
    0.6680    0.7189   -2.3994 H   0  0  0  0  0  0  0  0  0  0  0  0
    2.1980   -0.4773   -1.3752 C   0  0  0  0  0  0  0  0  0  0  0  0
    2.2310   -1.5792   -1.2494 H   0  0  0  0  0  0  0  0  0  0  0  0
    2.7840   -0.2450   -2.2870 H   0  0  0  0  0  0  0  0  0  0  0  0
    2.8471    0.1940   -0.1455 C   0  0  2  0  0  0  0  0  0  0  0  0
    4.3449   -0.0816   -0.0204 C   0  0  0  0  0  0  0  0  0  0  0  0
    5.0361   -0.9443   -0.8952 C   0  0  0  0  0  0  0  0  0  0  0  0
    4.5028   -1.4373   -1.7195 H   0  0  0  0  0  0  0  0  0  0  0  0
    6.4089   -1.1965   -0.7361 C   0  0  0  0  0  0  0  0  0  0  0  0
    6.9202   -1.8743   -1.4370 H   0  0  0  0  0  0  0  0  0  0  0  0
    7.1251   -0.5928    0.3060 C   0  0  0  0  0  0  0  0  0  0  0  0
    8.2007   -0.7896    0.4305 H   0  0  0  0  0  0  0  0  0  0  0  0
    6.4525    0.2649    1.1912 C   0  0  0  0  0  0  0  0  0  0  0  0
    6.9987    0.7451    2.0176 H   0  0  0  0  0  0  0  0  0  0  0  0
    5.0834    0.5134    1.0275 C   0  0  0  0  0  0  0  0  0  0  0  0
    4.5779    1.1865    1.7372 H   0  0  0  0  0  0  0  0  0  0  0  0
  1 11  1  0  0  0  0
  2  1  1  0  0  0  0
  3  1  1  0  0  0  0
  3  5  1  0  0  0  0
  4  3  1  0  0  0  0
  5  7  1  0  0  0  0
  6  5  1  0  0  0  0
  7  9  1  0  0  0  0
  7  8  1  0  0  0  0
  9 10  1  0  0  0  0
 11  9  1  0  0  0  0
 12 11  1  6  0  0  0
 12 19  1  0  0  0  0
 12 13  1  0  0  0  0
 13 16  1  0  0  0  0
 13 15  1  0  0  0  0
 14 13  1  0  0  0  0
 16 17  1  0  0  0  0
 16 18  1  0  0  0  0
 19 21  1  0  0  0  0
 20 19  1  0  0  0  0
 22 31  1  0  0  0  0
 22 19  1  0  0  0  0
 22 23  1  0  0  0  0
 24 22  1  0  0  0  0
 25 28  1  0  0  0  0
 25 12  1  0  0  0  0
 26 25  1  0  0  0  0
 27 25  1  0  0  0  0
 28 29  1  0  0  0  0
 28 31  1  0  0  0  0
 30 28  1  0  0  0  0
 31 32  1  1  0  0  0
 31 16  1  0  0  0  0
 32 41  1  0  0  0  0
 33 35  1  0  0  0  0
 33 32  2  0  0  0  0
 34 33  1  0  0  0  0
 35 37  2  0  0  0  0
 36 35  1  0  0  0  0
 37 38  1  0  0  0  0
 37 39  1  0  0  0  0
 39 40  1  0  0  0  0
 41 39  2  0  0  0  0
 41 42  1  0  0  0  0
M  END
