5,8,11
q = 0.0, confidence = 0.996

 78 84  0  0  1  0  0  0  0  0999 V2000
   -0.1642   -0.7768    2.6642 P   0  0  0  0  0  0  0  0  0  0  0  0
    3.3461   -0.3274   -1.7485 P   0  0  0  0  0  0  0  0  0  0  0  0
   -2.0803    0.5916   -2.6288 P   0  0  0  0  0  0  0  0  0  0  0  0
    0.0173   -0.6014    0.8298 C   0  0  2  0  0  3  0  0  0  0  0  0
    1.3437   -0.7140    0.3094 C   0  0  0  0  0  3  0  0  0  0  0  0
    2.1632   -1.0123    0.9813 H   0  0  0  0  0  0  0  0  0  0  0  0
    1.6359   -0.4150   -1.0514 C   0  0  1  0  0  3  0  0  0  0  0  0
    0.5473   -0.1088   -1.9257 C   0  0  0  0  0  3  0  0  0  0  0  0
    0.7496    0.0584   -2.9955 H   0  0  0  0  0  0  0  0  0  0  0  0
   -0.7887    0.0012   -1.4446 C   0  0  1  0  0  3  0  0  0  0  0  0
   -1.0411   -0.2921   -0.0689 C   0  0  0  0  0  3  0  0  0  0  0  0
   -2.0741   -0.2667    0.3064 H   0  0  0  0  0  0  0  0  0  0  0  0
   -2.0041   -0.8364    2.8216 C   0  0  0  0  0  0  0  0  0  0  0  0
   -2.6377   -2.0377    2.4309 C   0  0  0  0  0  0  0  0  0  0  0  0
   -2.0371   -2.8683    2.0295 H   0  0  0  0  0  0  0  0  0  0  0  0
   -4.0273   -2.1764    2.5372 C   0  0  0  0  0  0  0  0  0  0  0  0
   -4.5063   -3.1070    2.1979 H   0  0  0  0  0  0  0  0  0  0  0  0
   -4.7996   -1.1327    3.0735 C   0  0  0  0  0  0  0  0  0  0  0  0
   -5.8905   -1.2455    3.1671 H   0  0  0  0  0  0  0  0  0  0  0  0
   -4.1758    0.0539    3.4868 C   0  0  0  0  0  0  0  0  0  0  0  0
   -4.7752    0.8743    3.9110 H   0  0  0  0  0  0  0  0  0  0  0  0
   -2.7859    0.2083    3.3544 C   0  0  0  0  0  0  0  0  0  0  0  0
   -2.3071    1.1477    3.6682 H   0  0  0  0  0  0  0  0  0  0  0  0
    0.2318    0.9939    3.0772 C   0  0  0  0  0  0  0  0  0  0  0  0
   -0.1350    2.0841    2.2566 C   0  0  0  0  0  0  0  0  0  0  0  0
   -0.7245    1.9164    1.3427 H   0  0  0  0  0  0  0  0  0  0  0  0
    0.2479    3.3904    2.5937 C   0  0  0  0  0  0  0  0  0  0  0  0
   -0.0499    4.2270    1.9424 H   0  0  0  0  0  0  0  0  0  0  0  0
    1.0029    3.6265    3.7557 C   0  0  0  0  0  0  0  0  0  0  0  0
    1.3068    4.6513    4.0183 H   0  0  0  0  0  0  0  0  0  0  0  0
    1.3685    2.5512    4.5801 C   0  0  0  0  0  0  0  0  0  0  0  0
    1.9610    2.7300    5.4903 H   0  0  0  0  0  0  0  0  0  0  0  0
    0.9886    1.2423    4.2404 C   0  0  0  0  0  0  0  0  0  0  0  0
    1.2899    0.3966    4.8786 H   0  0  0  0  0  0  0  0  0  0  0  0
    3.7712    1.3988   -1.2070 C   0  0  0  0  0  0  0  0  0  0  0  0
    3.0540    2.1333   -0.2374 C   0  0  0  0  0  0  0  0  0  0  0  0
    2.1852    1.6901    0.2710 H   0  0  0  0  0  0  0  0  0  0  0  0
    3.4450    3.4378    0.1028 C   0  0  0  0  0  0  0  0  0  0  0  0
    2.8740    3.9882    0.8670 H   0  0  0  0  0  0  0  0  0  0  0  0
    4.5586    4.0263   -0.5170 C   0  0  0  0  0  0  0  0  0  0  0  0
    4.8650    5.0491   -0.2497 H   0  0  0  0  0  0  0  0  0  0  0  0
    5.2789    3.3048   -1.4832 C   0  0  0  0  0  0  0  0  0  0  0  0
    6.1508    3.7609   -1.9767 H   0  0  0  0  0  0  0  0  0  0  0  0
    4.8827    2.0050   -1.8317 C   0  0  0  0  0  0  0  0  0  0  0  0
    5.4410    1.4486   -2.6018 H   0  0  0  0  0  0  0  0  0  0  0  0
    4.2481   -1.3534   -0.5019 C   0  0  0  0  0  0  0  0  0  0  0  0
    4.9656   -0.8270    0.5914 C   0  0  0  0  0  0  0  0  0  0  0  0
    5.0230    0.2624    0.7359 H   0  0  0  0  0  0  0  0  0  0  0  0
    5.5985   -1.6907    1.5000 C   0  0  0  0  0  0  0  0  0  0  0  0
    6.1568   -1.2711    2.3511 H   0  0  0  0  0  0  0  0  0  0  0  0
    5.5116   -3.0817    1.3328 C   0  0  0  0  0  0  0  0  0  0  0  0
    5.9995   -3.7557    2.0532 H   0  0  0  0  0  0  0  0  0  0  0  0
    4.8020   -3.6117    0.2426 C   0  0  0  0  0  0  0  0  0  0  0  0
    4.7234   -4.7008    0.1080 H   0  0  0  0  0  0  0  0  0  0  0  0
    4.1874   -2.7527   -0.6783 C   0  0  0  0  0  0  0  0  0  0  0  0
    3.6377   -3.1700   -1.5369 H   0  0  0  0  0  0  0  0  0  0  0  0
   -3.6168    0.0218   -1.7714 C   0  0  0  0  0  0  0  0  0  0  0  0
   -4.1487   -1.2146   -2.1920 C   0  0  0  0  0  0  0  0  0  0  0  0
   -3.6633   -1.7618   -3.0155 H   0  0  0  0  0  0  0  0  0  0  0  0
   -5.2762   -1.7570   -1.5581 C   0  0  0  0  0  0  0  0  0  0  0  0
   -5.6694   -2.7314   -1.8845 H   0  0  0  0  0  0  0  0  0  0  0  0
   -5.8966   -1.0580   -0.5119 C   0  0  0  0  0  0  0  0  0  0  0  0
   -6.7826   -1.4814   -0.0145 H   0  0  0  0  0  0  0  0  0  0  0  0
   -5.3836    0.1817   -0.0969 C   0  0  0  0  0  0  0  0  0  0  0  0
   -5.8608    0.7281    0.7300 H   0  0  0  0  0  0  0  0  0  0  0  0
   -4.2478    0.7195   -0.7187 C   0  0  0  0  0  0  0  0  0  0  0  0
   -3.8449    1.6866   -0.3819 H   0  0  0  0  0  0  0  0  0  0  0  0
   -2.0416    2.3953   -2.1876 C   0  0  0  0  0  0  0  0  0  0  0  0
   -3.1056    3.2131   -2.6312 C   0  0  0  0  0  0  0  0  0  0  0  0
   -3.9556    2.7605   -3.1665 H   0  0  0  0  0  0  0  0  0  0  0  0
   -3.0983    4.5930   -2.3849 C   0  0  0  0  0  0  0  0  0  0  0  0
   -3.9417    5.2113   -2.7288 H   0  0  0  0  0  0  0  0  0  0  0  0
   -2.0181    5.1872   -1.7104 C   0  0  0  0  0  0  0  0  0  0  0  0
   -2.0104    6.2718   -1.5245 H   0  0  0  0  0  0  0  0  0  0  0  0
   -0.9466    4.3881   -1.2850 C   0  0  0  0  0  0  0  0  0  0  0  0
   -0.0849    4.8403   -0.7693 H   0  0  0  0  0  0  0  0  0  0  0  0
   -0.9582    3.0029   -1.5176 C   0  0  0  0  0  0  0  0  0  0  0  0
   -0.1058    2.3983   -1.1754 H   0  0  0  0  0  0  0  0  0  0  0  0
  1 13  1  0  0  0  0
  1 24  1  0  0  0  0
  2 35  1  0  0  0  0
  2 46  1  0  0  0  0
  3 68  1  0  0  0  0
  3 57  1  0  0  0  0
  4  1  1  1  0  0  0
  5  4  1  0  0  0  0
  5  6  1  0  0  0  0
  7  2  1  1  0  0  0
  7  5  1  0  0  0  0
  8 10  1  0  0  0  0
  8  7  1  0  0  0  0
  9  8  1  0  0  0  0
 10  3  1  1  0  0  0
 10 11  1  0  0  0  0
 11 12  1  0  0  0  0
 11  4  1  0  0  0  0
 13 22  1  0  0  0  0
 14 16  1  0  0  0  0
 14 13  2  0  0  0  0
 15 14  1  0  0  0  0
 16 18  2  0  0  0  0
 17 16  1  0  0  0  0
 18 19  1  0  0  0  0
 18 20  1  0  0  0  0
 20 21  1  0  0  0  0
 22 20  2  0  0  0  0
 22 23  1  0  0  0  0
 24 33  1  0  0  0  0
 25 27  1  0  0  0  0
 25 24  2  0  0  0  0
 26 25  1  0  0  0  0
 27 29  2  0  0  0  0
 28 27  1  0  0  0  0
 29 30  1  0  0  0  0
 29 31  1  0  0  0  0
 31 32  1  0  0  0  0
 33 31  2  0  0  0  0
 33 34  1  0  0  0  0
 35 36  1  0  0  0  0
 36 38  2  0  0  0  0
 36 37  1  0  0  0  0
 38 39  1  0  0  0  0
 40 41  1  0  0  0  0
 40 38  1  0  0  0  0
 42 40  2  0  0  0  0
 43 42  1  0  0  0  0
 44 42  1  0  0  0  0
 44 35  2  0  0  0  0
 45 44  1  0  0  0  0
 46 47  1  0  0  0  0
 47 48  1  0  0  0  0
 47 49  2  0  0  0  0
 49 50  1  0  0  0  0
 51 49  1  0  0  0  0
 51 52  1  0  0  0  0
 53 51  2  0  0  0  0
 54 53  1  0  0  0  0
 55 46  2  0  0  0  0
 55 53  1  0  0  0  0
 56 55  1  0  0  0  0
 57 66  1  0  0  0  0
 58 57  2  0  0  0  0
 58 60  1  0  0  0  0
 59 58  1  0  0  0  0
 60 62  2  0  0  0  0
 61 60  1  0  0  0  0
 62 64  1  0  0  0  0
 62 63  1  0  0  0  0
 64 65  1  0  0  0  0
 66 67  1  0  0  0  0
 66 64  2  0  0  0  0
 68 77  1  0  0  0  0
 69 71  1  0  0  0  0
 69 68  2  0  0  0  0
 70 69  1  0  0  0  0
 71 73  2  0  0  0  0
 72 71  1  0  0  0  0
 73 74  1  0  0  0  0
 73 75  1  0  0  0  0
 75 76  1  0  0  0  0
 77 75  2  0  0  0  0
 77 78  1  0  0  0  0
M  END
