3,12,24
q = 0.0, confidence = 0.584

 26 27  0  0  1  0  0  0  0  0999 V2000
    3.6608   -0.5842   -1.0288 O   0  0  0  0  0  0  0  0  0  0  0  0
    2.8232    1.5412   -0.3979 N   0  0  0  0  0  0  0  0  0  0  0  0
    1.6343    1.4387    0.3197 C   0  0  0  0  0  2  0  0  0  0  0  0
    1.4685    2.4184    1.3456 C   0  0  0  0  0  0  0  0  0  0  0  0
    0.5316    2.3953    1.9190 H   0  0  0  0  0  0  0  0  0  0  0  0
    2.4478    3.3657    1.6140 C   0  0  0  0  0  0  0  0  0  0  0  0
    2.2940    4.1065    2.4143 H   0  0  0  0  0  0  0  0  0  0  0  0
    3.6508    3.3844    0.8621 C   0  0  0  0  0  0  0  0  0  0  0  0
    4.4462    4.1150    1.0595 H   0  0  0  0  0  0  0  0  0  0  0  0
    3.8031    2.4492   -0.1459 C   0  0  0  0  0  0  0  0  0  0  0  0
    4.6987    2.3858   -0.7812 H   0  0  0  0  0  0  0  0  0  0  0  0
    1.6717   -1.4513    0.1885 C   0  0  0  0  0  3  0  0  0  0  0  0
    1.2011   -2.5552    0.9455 C   0  0  0  0  0  0  0  0  0  0  0  0
    0.1591   -2.5364    1.2999 H   0  0  0  0  0  0  0  0  0  0  0  0
    1.9966   -3.6704    1.2487 C   0  0  0  0  0  0  0  0  0  0  0  0
    1.5762   -4.5004    1.8377 H   0  0  0  0  0  0  0  0  0  0  0  0
    3.3243   -3.7215    0.7950 C   0  0  0  0  0  0  0  0  0  0  0  0
    3.9664   -4.5858    1.0235 H   0  0  0  0  0  0  0  0  0  0  0  0
    3.8285   -2.6562    0.0395 C   0  0  0  0  0  0  0  0  0  0  0  0
    4.8601   -2.6578   -0.3436 H   0  0  0  0  0  0  0  0  0  0  0  0
    3.0139   -1.5468   -0.2576 C   0  0  0  0  0  0  0  0  0  0  0  0
    2.9546    0.5362   -1.5002 C   0  0  2  0  0  0  0  0  0  0  0  0
    3.6376    0.9861   -2.2532 H   0  0  0  0  0  0  0  0  0  0  0  0
    1.5495    0.2464   -2.0075 C   0  0  0  0  0  3  0  0  0  0  0  0
    1.6031   -0.6618   -2.6387 H   0  0  0  0  0  0  0  0  0  0  0  0
    1.2137    1.0779   -2.6603 H   0  0  0  0  0  0  0  0  0  0  0  0
  1 21  1  0  0  0  0
  2 10  1  0  0  0  0
  2  3  1  0  0  0  0
  3  4  1  0  0  0  0
  4  6  2  0  0  0  0
  4  5  1  0  0  0  0
  6  7  1  0  0  0  0
  8  9  1  0  0  0  0
  8  6  1  0  0  0  0
 10  8  2  0  0  0  0
 11 10  1  0  0  0  0
 12 13  1  0  0  0  0
 13 15  2  0  0  0  0
 13 14  1  0  0  0  0
 15 16  1  0  0  0  0
 17 18  1  0  0  0  0
 17 15  1  0  0  0  0
 19 17  2  0  0  0  0
 20 19  1  0  0  0  0
 21 19  1  0  0  0  0
 21 12  2  0  0  0  0
 22 23  1  6  0  0  0
 22  1  1  0  0  0  0
 22  2  1  0  0  0  0
 24 22  1  0  0  0  0
 25 24  1  0  0  0  0
 26 24  1  0  0  0  0
M  END
