7,9,11
q = 0.0, confidence = 0.988

 21 23  0  0  1  0  0  0  0  0999 V2000
   -2.1282   -1.4342    0.0181 O   0  0  0  0  0  0  0  0  0  0  0  0
   -2.1844   -0.4717    1.0839 C   0  0  2  0  0  0  0  0  0  0  0  0
   -3.5126    0.2835    0.7622 C   0  0  0  0  0  0  0  0  0  0  0  0
   -3.4902    0.2732   -0.7957 C   0  0  0  0  0  0  0  0  0  0  0  0
   -2.1620   -0.4993   -1.0707 C   0  0  1  0  0  0  0  0  0  0  0  0
   -0.1665    1.2951   -1.4524 C   0  0  0  0  0  3  0  0  0  0  0  0
    0.7441    2.1145   -0.7161 C   0  0  0  0  0  3  0  0  0  0  0  0
    0.7375    2.1462    0.7103 C   0  0  0  0  0  3  0  0  0  0  0  0
   -0.1513    1.2961    1.4369 C   0  0  0  0  0  3  0  0  0  0  0  0
   -1.0555    0.4783    0.7194 C   0  0  2  0  0  3  0  0  0  0  0  0
   -1.0363    0.4614   -0.7094 C   0  0  1  0  0  3  0  0  0  0  0  0
   -2.1233   -0.9728    2.0658 H   0  0  0  0  0  0  0  0  0  0  0  0
   -4.3733   -0.2864    1.1611 H   0  0  0  0  0  0  0  0  0  0  0  0
   -3.5370    1.3014    1.1967 H   0  0  0  0  0  0  0  0  0  0  0  0
   -4.3438   -0.2935   -1.2129 H   0  0  0  0  0  0  0  0  0  0  0  0
   -3.4920    1.2854   -1.2445 H   0  0  0  0  0  0  0  0  0  0  0  0
   -2.0812   -1.0264   -2.0375 H   0  0  0  0  0  0  0  0  0  0  0  0
   -0.1288    1.2615   -2.5495 H   0  0  0  0  0  0  0  0  0  0  0  0
    1.4843    2.7184   -1.2601 H   0  0  0  0  0  0  0  0  0  0  0  0
    1.4732    2.7600    1.2463 H   0  0  0  0  0  0  0  0  0  0  0  0
   -0.1110    1.2681    2.5356 H   0  0  0  0  0  0  0  0  0  0  0  0
  1  2  1  0  0  0  0
  2 12  1  1  0  0  0
  3  2  1  0  0  0  0
  3 13  1  0  0  0  0
  3 14  1  0  0  0  0
  4  3  1  0  0  0  0
  5 17  1  6  0  0  0
  5  4  1  0  0  0  0
  5 11  1  0  0  0  0
  5  1  1  0  0  0  0
  6  7  1  0  0  0  0
  7  8  1  0  0  0  0
  8 20  1  0  0  0  0
  8  9  1  0  0  0  0
  9 21  1  0  0  0  0
 10  2  1  0  0  0  0
 10  9  1  6  0  0  0
 11  6  1  6  0  0  0
 11 10  1  0  0  0  0
 15  4  1  0  0  0  0
 16  4  1  0  0  0  0
 18  6  1  0  0  0  0
 19  7  1  0  0  0  0
M  END
