6,9,14
q = -2.0, confidence = 0.828

 49 51  0  0  1  0  0  0  0  0999 V2000
    1.8223    0.6027   -2.7972 F   0  0  0  0  0  0  0  0  0  0  0  0
    0.0053   -1.3758   -2.4113 F   0  0  0  0  0  0  0  0  0  0  0  0
    4.1940   -1.1144    0.8828 F   0  0  0  0  0  0  0  0  0  0  0  0
    3.9845    0.7431   -1.0793 F   0  0  0  0  0  0  0  0  0  0  0  0
    2.1248   -2.7048    1.5767 F   0  0  0  0  0  0  0  0  0  0  0  0
   -1.8412   -1.0360   -0.2323 C   0  0  0  0  0  2  0  0  0  0  0  0
    2.4661    0.3627    1.5606 C   0  0  0  0  0  0  0  0  0  0  0  0
    1.9768   -1.8846    0.5030 C   0  0  0  0  0  0  0  0  0  0  0  0
   -0.1030    0.4310    2.0520 C   0  0  1  0  0  3  0  0  0  0  0  0
    1.8640   -0.1148   -1.6749 C   0  0  0  0  0  0  0  0  0  0  0  0
   -3.2057   -0.9856   -0.3501 N   0  0  0  0  0  0  0  0  0  0  0  0
   -1.5564   -2.3746   -0.1351 N   0  0  0  0  0  0  0  0  0  0  0  0
   -2.7134   -3.1408   -0.1874 C   0  0  0  0  0  0  0  0  0  0  0  0
    0.6515   -0.8671   -1.2918 C   0  0  2  0  0  3  0  0  0  0  0  0
   -0.1909   -0.7354    2.9895 C   0  0  0  0  0  0  0  0  0  0  0  0
   -1.1742    1.3992    1.8402 C   0  0  0  0  0  0  0  0  0  0  0  0
   -1.3875    3.6384    0.4974 C   0  0  0  0  0  0  0  0  0  0  0  0
   -0.6592    2.4386    1.0084 C   0  0  0  0  0  0  0  0  0  0  0  0
    1.6261    3.0344   -0.1084 C   0  0  0  0  0  0  0  0  0  0  0  0
   -3.9842    0.2331   -0.5242 C   0  0  0  0  0  0  0  0  0  0  0  0
    1.1021    0.9535    1.4304 C   0  0  0  0  0  0  0  0  0  0  0  0
   -2.5216    1.3332    2.4895 C   0  0  0  0  0  0  0  0  0  0  0  0
   -3.7550   -2.2620   -0.3165 C   0  0  0  0  0  0  0  0  0  0  0  0
    0.8649   -1.9184   -0.2689 C   0  0  0  0  0  0  0  0  0  0  0  0
    2.9141   -0.7234    0.4865 C   0  0  2  0  0  0  0  0  0  0  0  0
    2.9546   -0.1046   -0.8711 C   0  0  0  0  0  0  0  0  0  0  0  0
    0.7418    2.1477    0.7129 C   0  0  0  0  0  0  0  0  0  0  0  0
   -0.2091   -2.9551   -0.1080 C   0  0  0  0  0  0  0  0  0  0  0  0
    3.2367    1.1552    1.4941 H   0  0  0  0  0  0  0  0  0  0  0  0
    2.5792   -0.1392    2.5415 H   0  0  0  0  0  0  0  0  0  0  0  0
   -2.6962   -4.2336   -0.1396 H   0  0  0  0  0  0  0  0  0  0  0  0
    0.6061   -1.4788    2.8095 H   0  0  0  0  0  0  0  0  0  0  0  0
   -0.1032   -0.3982    4.0455 H   0  0  0  0  0  0  0  0  0  0  0  0
   -1.1644   -1.2555    2.8936 H   0  0  0  0  0  0  0  0  0  0  0  0
   -1.4356    3.6018   -0.6127 H   0  0  0  0  0  0  0  0  0  0  0  0
   -2.4238    3.6854    0.8820 H   0  0  0  0  0  0  0  0  0  0  0  0
   -0.8654    4.5717    0.7929 H   0  0  0  0  0  0  0  0  0  0  0  0
    2.5784    2.5428   -0.3777 H   0  0  0  0  0  0  0  0  0  0  0  0
    1.1183    3.3067   -1.0556 H   0  0  0  0  0  0  0  0  0  0  0  0
    1.8651    3.9772    0.4297 H   0  0  0  0  0  0  0  0  0  0  0  0
   -4.4620    0.5351    0.4286 H   0  0  0  0  0  0  0  0  0  0  0  0
   -3.3011    1.0237   -0.8929 H   0  0  0  0  0  0  0  0  0  0  0  0
   -4.7682    0.0574   -1.2849 H   0  0  0  0  0  0  0  0  0  0  0  0
   -3.2471    2.0070    1.9965 H   0  0  0  0  0  0  0  0  0  0  0  0
   -2.9376    0.3063    2.4673 H   0  0  0  0  0  0  0  0  0  0  0  0
   -2.4593    1.6342    3.5579 H   0  0  0  0  0  0  0  0  0  0  0  0
   -4.8320   -2.4355   -0.3981 H   0  0  0  0  0  0  0  0  0  0  0  0
   -0.0602   -3.5112    0.8390 H   0  0  0  0  0  0  0  0  0  0  0  0
   -0.1490   -3.6815   -0.9469 H   0  0  0  0  0  0  0  0  0  0  0  0
  1 10  1  0  0  0  0
  4 26  1  0  0  0  0
  6 12  1  0  0  0  0
  7 30  1  0  0  0  0
  8  5  1  0  0  0  0
  9 15  1  1  0  0  0
 10 14  1  0  0  0  0
 10 26  2  0  0  0  0
 11 23  1  0  0  0  0
 11  6  1  0  0  0  0
 12 28  1  0  0  0  0
 13 31  1  0  0  0  0
 13 12  1  0  0  0  0
 14  2  1  6  0  0  0
 14 24  1  0  0  0  0
 15 33  1  0  0  0  0
 16  9  1  0  0  0  0
 16 22  1  0  0  0  0
 17 37  1  0  0  0  0
 17 36  1  0  0  0  0
 17 18  1  0  0  0  0
 18 16  2  0  0  0  0
 19 40  1  0  0  0  0
 19 27  1  0  0  0  0
 20 11  1  0  0  0  0
 20 41  1  0  0  0  0
 21  7  1  0  0  0  0
 21  9  1  0  0  0  0
 22 46  1  0  0  0  0
 23 13  2  0  0  0  0
 24 28  1  0  0  0  0
 24  8  2  0  0  0  0
 25  8  1  0  0  0  0
 25  3  1  1  0  0  0
 25  7  1  0  0  0  0
 26 25  1  0  0  0  0
 27 18  1  0  0  0  0
 27 21  2  0  0  0  0
 28 48  1  0  0  0  0
 29  7  1  0  0  0  0
 32 15  1  0  0  0  0
 34 15  1  0  0  0  0
 35 17  1  0  0  0  0
 38 19  1  0  0  0  0
 39 19  1  0  0  0  0
 42 20  1  0  0  0  0
 43 20  1  0  0  0  0
 44 22  1  0  0  0  0
 45 22  1  0  0  0  0
 47 23  1  0  0  0  0
 49 28  1  0  0  0  0
M  END
