2,6,10
q = 0.0, confidence = 0.982

 17 17  0  0  0  0  0  0  0  0999 V2000
   -1.2327   -0.9931    0.3614 C   0  0  0  0  0  3  0  0  0  0  0  0
   -0.9579   -0.9604   -1.0526 C   0  0  0  0  0  3  0  0  0  0  0  0
   -1.7000   -0.5058   -1.7241 H   0  0  0  0  0  0  0  0  0  0  0  0
    0.2516   -1.4738   -1.5727 C   0  0  0  0  0  3  0  0  0  0  0  0
    0.4542   -1.4088   -2.6503 H   0  0  0  0  0  0  0  0  0  0  0  0
    1.2456   -1.9985   -0.6874 C   0  0  0  0  0  3  0  0  0  0  0  0
    2.2109   -2.3405   -1.0852 H   0  0  0  0  0  0  0  0  0  0  0  0
    1.0004   -2.0305    0.7057 C   0  0  0  0  0  3  0  0  0  0  0  0
    1.7750   -2.3927    1.3951 H   0  0  0  0  0  0  0  0  0  0  0  0
   -0.2280   -1.5171    1.2249 C   0  0  0  0  0  3  0  0  0  0  0  0
   -0.3926   -1.4956    2.3118 H   0  0  0  0  0  0  0  0  0  0  0  0
   -2.4707   -0.4295    0.9224 C   0  0  0  0  0  0  0  0  0  0  0  0
   -2.5638   -0.4500    2.0230 H   0  0  0  0  0  0  0  0  0  0  0  0
   -3.4462    0.1133    0.2074 C   0  0  0  0  0  0  0  0  0  0  0  0
   -4.3929    0.6733   -0.5114 C   0  0  0  0  0  0  0  0  0  0  0  0
   -5.2522    0.0954   -0.8956 H   0  0  0  0  0  0  0  0  0  0  0  0
   -4.3584    1.7510   -0.7525 H   0  0  0  0  0  0  0  0  0  0  0  0
  1 12  1  0  0  0  0
  1 10  1  0  0  0  0
  2  1  1  0  0  0  0
  3  2  1  0  0  0  0
  4  2  1  0  0  0  0
  4  6  1  0  0  0  0
  5  4  1  0  0  0  0
  6  8  1  0  0  0  0
  7  6  1  0  0  0  0
  8 10  1  0  0  0  0
  8  9  1  0  0  0  0
 10 11  1  0  0  0  0
 12 13  1  0  0  0  0
 14 12  2  0  0  0  0
 15 14  2  0  0  0  0
 16 15  1  0  0  0  0
 17 15  1  0  0  0  0
M  END
