2,4,6
q = 0.0, confidence = 0.966

 17 17  0  0  1  0  0  0  0  0999 V2000
   -1.7538   -0.0003   -0.5778 N   0  0  0  0  0  2  0  0  0  0  0  0
   -1.4791   -1.1865    0.0593 C   0  0  1  0  0  3  0  0  0  0  0  0
   -0.9373   -1.2276    1.3824 C   0  0  0  0  0  3  0  0  0  0  0  0
   -0.6341   -0.0002    2.0299 C   0  0  0  0  0  3  0  0  0  0  0  0
   -0.9378    1.2271    1.3825 C   0  0  0  0  0  3  0  0  0  0  0  0
   -1.4796    1.1859    0.0594 C   0  0  2  0  0  3  0  0  0  0  0  0
   -1.8400   -2.4423   -0.6818 C   0  0  0  0  0  0  0  0  0  0  0  0
   -1.8410    2.4415   -0.6816 C   0  0  0  0  0  0  0  0  0  0  0  0
   -0.7071   -2.1906    1.8564 H   0  0  0  0  0  0  0  0  0  0  0  0
   -0.1612   -0.0001    3.0223 H   0  0  0  0  0  0  0  0  0  0  0  0
   -0.7080    2.1902    1.8565 H   0  0  0  0  0  0  0  0  0  0  0  0
   -2.9034   -2.6958   -0.4869 H   0  0  0  0  0  0  0  0  0  0  0  0
   -1.2155   -3.2978   -0.3638 H   0  0  0  0  0  0  0  0  0  0  0  0
   -1.7236   -2.2836   -1.7694 H   0  0  0  0  0  0  0  0  0  0  0  0
   -1.7247    2.2829   -1.7693 H   0  0  0  0  0  0  0  0  0  0  0  0
   -1.2167    3.2973   -0.3638 H   0  0  0  0  0  0  0  0  0  0  0  0
   -2.9044    2.6948   -0.4866 H   0  0  0  0  0  0  0  0  0  0  0  0
  1  2  1  0  0  0  0
  1  6  1  0  0  0  0
  2  7  1  1  0  0  0
  2  3  1  0  0  0  0
  3  9  1  0  0  0  0
  3  4  1  0  0  0  0
  4 10  1  0  0  0  0
  5 11  1  0  0  0  0
  5  4  1  0  0  0  0
  6  8  1  1  0  0  0
  6  5  1  0  0  0  0
  7 12  1  0  0  0  0
  7 13  1  0  0  0  0
  8 17  1  0  0  0  0
  8 16  1  0  0  0  0
 14  7  1  0  0  0  0
 15  8  1  0  0  0  0
M  END
