2,6,9
 OpenBabel05122313063D

 31 33  0  0  1  0  0  0  0  0999 V2000
   -3.2384    2.7811    0.0001 F   0  0  0  0  0  0  0  0  0  0  0  0
   -0.4698    0.7244    1.2244 C   0  0  0  0  0  3  0  0  0  0  0  0
   -0.0475    0.3637    2.1731 H   0  0  0  0  0  0  0  0  0  0  0  0
   -1.6108    1.5784    1.2418 C   0  0  0  0  0  3  0  0  0  0  0  0
   -2.0996    1.8796    2.1770 H   0  0  0  0  0  0  0  0  0  0  0  0
   -2.1542    1.9942    0.0003 C   0  0  1  0  0  3  0  0  0  0  0  0
   -1.6098    1.5792   -1.2410 C   0  0  0  0  0  3  0  0  0  0  0  0
   -2.0977    1.8810   -2.1764 H   0  0  0  0  0  0  0  0  0  0  0  0
   -0.4688    0.7251   -1.2232 C   0  0  0  0  0  3  0  0  0  0  0  0
   -0.0457    0.3650   -2.1718 H   0  0  0  0  0  0  0  0  0  0  0  0
    0.1623    0.3426    0.0008 C   0  0  2  0  0  3  0  0  0  0  0  0
    1.4004   -0.4999    0.0009 C   0  0  0  0  0  0  0  0  0  0  0  0
    2.7332    0.0663    0.0003 C   0  0  0  0  0  0  0  0  0  0  0  0
    3.8431   -0.8723   -0.0003 C   0  0  0  0  0  0  0  0  0  0  0  0
    3.6050   -2.2772    0.0002 C   0  0  0  0  0  0  0  0  0  0  0  0
    4.4745   -2.9527   -0.0001 H   0  0  0  0  0  0  0  0  0  0  0  0
    2.3189   -2.7811    0.0012 C   0  0  0  0  0  0  0  0  0  0  0  0
    2.1352   -3.8655    0.0016 H   0  0  0  0  0  0  0  0  0  0  0  0
    1.2255   -1.8849    0.0014 C   0  0  0  0  0  0  0  0  0  0  0  0
    0.1987   -2.2756    0.0018 H   0  0  0  0  0  0  0  0  0  0  0  0
    5.1886   -0.4028   -0.0012 C   0  0  0  0  0  0  0  0  0  0  0  0
    6.0017   -1.1448   -0.0016 H   0  0  0  0  0  0  0  0  0  0  0  0
    5.4611    0.9511   -0.0014 C   0  0  0  0  0  0  0  0  0  0  0  0
    6.4986    1.3174   -0.0021 H   0  0  0  0  0  0  0  0  0  0  0  0
    4.3879    1.8722   -0.0006 C   0  0  0  0  0  0  0  0  0  0  0  0
    4.6128    2.9503   -0.0006 H   0  0  0  0  0  0  0  0  0  0  0  0
    3.0482    1.4802    0.0002 C   0  0  0  0  0  0  0  0  0  0  0  0
    2.0178    2.5853    0.0014 C   0  0  0  0  0  0  0  0  0  0  0  0
    1.3549    2.5511    0.8875 H   0  0  0  0  0  0  0  0  0  0  0  0
    1.3546    2.5526   -0.8846 H   0  0  0  0  0  0  0  0  0  0  0  0
    2.5247    3.5690    0.0021 H   0  0  0  0  0  0  0  0  0  0  0  0
  2  4  1  0  0  0  0
  2  3  1  0  0  0  0
  4  5  1  0  0  0  0
  6  1  1  6  0  0  0
  6  4  1  0  0  0  0
  7  9  1  0  0  0  0
  7  6  1  0  0  0  0
  8  7  1  0  0  0  0
  9 11  1  0  0  0  0
 10  9  1  0  0  0  0
 11 12  1  6  0  0  0
 11  2  1  0  0  0  0
 12 19  1  0  0  0  0
 13 12  2  0  0  0  0
 14 15  2  0  0  0  0
 14 13  1  0  0  0  0
 15 17  1  0  0  0  0
 16 15  1  0  0  0  0
 17 19  2  0  0  0  0
 17 18  1  0  0  0  0
 19 20  1  0  0  0  0
 21 14  1  0  0  0  0
 22 21  1  0  0  0  0
 23 21  2  0  0  0  0
 23 25  1  0  0  0  0
 24 23  1  0  0  0  0
 25 26  1  0  0  0  0
 25 27  2  0  0  0  0
 27 13  1  0  0  0  0
 27 28  1  0  0  0  0
 28 31  1  0  0  0  0
 28 29  1  0  0  0  0
 30 28  1  0  0  0  0
M  END
