2,4,6
 OpenBabel05122313063D

 30 30  0  0  1  0  0  0  0  0999 V2000
    0.7681    1.0362    1.4564 C   0  0  2  0  0  3  0  0  0  0  0  0
    1.0778    2.0272    0.4676 C   0  0  1  0  0  3  0  0  0  0  0  0
    2.4377    2.1580   -0.0459 C   0  0  1  0  0  3  0  0  0  0  0  0
    3.4612    1.2734    0.4213 C   0  0  1  0  0  3  0  0  0  0  0  0
    3.1511    0.2619    1.4293 C   0  0  1  0  0  3  0  0  0  0  0  0
    1.8056    0.1161    1.9103 C   0  0  2  0  0  3  0  0  0  0  0  0
   -0.6394    0.9531    2.0069 C   0  0  0  0  0  0  0  0  0  0  0  0
   -0.9280    1.9271    2.4516 H   0  0  0  0  0  0  0  0  0  0  0  0
   -0.7300    0.1921    2.8003 H   0  0  0  0  0  0  0  0  0  0  0  0
   -1.3926    0.7154    1.2296 H   0  0  0  0  0  0  0  0  0  0  0  0
    0.0053    2.9141   -0.1085 C   0  0  0  0  0  0  0  0  0  0  0  0
   -0.0481    2.7605   -1.2061 H   0  0  0  0  0  0  0  0  0  0  0  0
    0.2300    3.9836    0.0813 H   0  0  0  0  0  0  0  0  0  0  0  0
   -0.9923    2.6988    0.3094 H   0  0  0  0  0  0  0  0  0  0  0  0
    2.6750    3.1814   -1.1251 C   0  0  0  0  0  0  0  0  0  0  0  0
    2.3014    4.1739   -0.8045 H   0  0  0  0  0  0  0  0  0  0  0  0
    2.1255    2.8864   -2.0438 H   0  0  0  0  0  0  0  0  0  0  0  0
    3.7408    3.2899   -1.3837 H   0  0  0  0  0  0  0  0  0  0  0  0
    4.8547    1.2786   -0.1509 C   0  0  0  0  0  0  0  0  0  0  0  0
    5.1077    0.2664   -0.5243 H   0  0  0  0  0  0  0  0  0  0  0  0
    5.5969    1.5665    0.6223 H   0  0  0  0  0  0  0  0  0  0  0  0
    4.9586    1.9717   -1.0011 H   0  0  0  0  0  0  0  0  0  0  0  0
    4.2559   -0.6642    1.8700 C   0  0  0  0  0  0  0  0  0  0  0  0
    5.1846   -0.0966    2.0700 H   0  0  0  0  0  0  0  0  0  0  0  0
    4.4735   -1.3932    1.0588 H   0  0  0  0  0  0  0  0  0  0  0  0
    4.0031   -1.2194    2.7893 H   0  0  0  0  0  0  0  0  0  0  0  0
    1.4541   -1.0028    2.8620 C   0  0  0  0  0  0  0  0  0  0  0  0
    0.4364   -1.3922    2.6793 H   0  0  0  0  0  0  0  0  0  0  0  0
    1.4984   -0.6587    3.9177 H   0  0  0  0  0  0  0  0  0  0  0  0
    2.1428   -1.8583    2.7564 H   0  0  0  0  0  0  0  0  0  0  0  0
  1  6  1  0  0  0  0
  1  7  1  6  0  0  0
  2 11  1  6  0  0  0
  2  1  1  0  0  0  0
  3 15  1  6  0  0  0
  3  4  1  0  0  0  0
  3  2  1  0  0  0  0
  4 19  1  6  0  0  0
  4  5  1  0  0  0  0
  5 23  1  6  0  0  0
  5  6  1  0  0  0  0
  6 27  1  6  0  0  0
  7  8  1  0  0  0  0
  7  9  1  0  0  0  0
 10  7  1  0  0  0  0
 11 13  1  0  0  0  0
 11 14  1  0  0  0  0
 12 11  1  0  0  0  0
 15 16  1  0  0  0  0
 17 15  1  0  0  0  0
 18 15  1  0  0  0  0
 19 21  1  0  0  0  0
 20 19  1  0  0  0  0
 22 19  1  0  0  0  0
 23 24  1  0  0  0  0
 23 26  1  0  0  0  0
 25 23  1  0  0  0  0
 27 29  1  0  0  0  0
 28 27  1  0  0  0  0
 30 27  1  0  0  0  0
M  END
