1,4,12
 OpenBabel05122313063D

 82 87  0  0  0  0  0  0  0  0999 V2000
    1.8587    0.6033    0.4584 C   0  0  0  0  0  2  0  0  0  0  0  0
   -1.0529   -2.6597   -0.5136 N   0  0  0  0  0  0  0  0  0  0  0  0
    2.5213    1.2368    1.4774 N   0  0  0  0  0  0  0  0  0  0  0  0
   -1.4512    1.3027    0.4605 C   0  0  0  0  0  2  0  0  0  0  0  0
   -1.7799    2.2421   -0.4821 N   0  0  0  0  0  0  0  0  0  0  0  0
   -0.1856   -2.8167    1.4472 N   0  0  0  0  0  0  0  0  0  0  0  0
    2.8322    0.4299   -0.4908 N   0  0  0  0  0  0  0  0  0  0  0  0
    2.5874   -0.2361   -1.7600 C   0  0  0  0  0  0  0  0  0  0  0  0
    3.4265    0.0191   -2.4400 H   0  0  0  0  0  0  0  0  0  0  0  0
    1.6779    0.2149   -2.2052 H   0  0  0  0  0  0  0  0  0  0  0  0
   -0.0001   -0.0215    3.0571 N   0  0  0  0  0  0  0  0  0  0  0  0
   -0.4054   -1.9156    0.4382 C   0  0  0  0  0  2  0  0  0  0  0  0
   -2.3352    1.5538    1.4774 N   0  0  0  0  0  0  0  0  0  0  0  0
   -1.2397   -3.9768   -0.1082 C   0  0  0  0  0  0  0  0  0  0  0  0
   -1.7291   -4.7254   -0.7381 H   0  0  0  0  0  0  0  0  0  0  0  0
   -2.8255    3.0578   -0.0633 C   0  0  0  0  0  0  0  0  0  0  0  0
   -3.2346    3.8600   -0.6845 H   0  0  0  0  0  0  0  0  0  0  0  0
   -1.5123   -2.1009   -1.7748 C   0  0  0  0  0  0  0  0  0  0  0  0
   -1.7143   -2.9474   -2.4635 H   0  0  0  0  0  0  0  0  0  0  0  0
   -0.6680   -1.5348   -2.2171 H   0  0  0  0  0  0  0  0  0  0  0  0
   -2.7319   -1.2052   -1.6616 C   0  0  0  0  0  0  0  0  0  0  0  0
    0.3084    2.9767   -1.6457 C   0  0  0  0  0  0  0  0  0  0  0  0
    0.5124   -2.4669    2.6750 C   0  0  0  0  0  0  0  0  0  0  0  0
    1.5350   -2.1237    2.4121 H   0  0  0  0  0  0  0  0  0  0  0  0
    0.6170   -3.3901    3.2762 H   0  0  0  0  0  0  0  0  0  0  0  0
    3.8666    1.4426    1.1796 C   0  0  0  0  0  0  0  0  0  0  0  0
    4.5577    1.9441    1.8638 H   0  0  0  0  0  0  0  0  0  0  0  0
   -3.1802    2.6222    1.1854 C   0  0  0  0  0  0  0  0  0  0  0  0
   -3.9620    2.9669    1.8690 H   0  0  0  0  0  0  0  0  0  0  0  0
    1.8624    1.6506    2.7068 C   0  0  0  0  0  0  0  0  0  0  0  0
    1.0552    2.3681    2.4492 H   0  0  0  0  0  0  0  0  0  0  0  0
    2.6063    2.1952    3.3191 H   0  0  0  0  0  0  0  0  0  0  0  0
    1.8712   -2.4376   -2.7528 C   0  0  0  0  0  0  0  0  0  0  0  0
    1.5775   -1.8837   -3.6596 H   0  0  0  0  0  0  0  0  0  0  0  0
    2.4226   -1.7411   -1.6603 C   0  0  0  0  0  0  0  0  0  0  0  0
   -0.6890   -4.0791    1.1414 C   0  0  0  0  0  0  0  0  0  0  0  0
   -0.5997   -4.9353    1.8169 H   0  0  0  0  0  0  0  0  0  0  0  0
   -2.3755    0.7626    2.6977 C   0  0  0  0  0  0  0  0  0  0  0  0
   -2.5926   -0.2918    2.4258 H   0  0  0  0  0  0  0  0  0  0  0  0
   -3.2236    1.1288    3.3072 H   0  0  0  0  0  0  0  0  0  0  0  0
   -1.0778    2.3686   -1.7491 C   0  0  0  0  0  0  0  0  0  0  0  0
   -1.7167    2.9709   -2.4278 H   0  0  0  0  0  0  0  0  0  0  0  0
   -1.0141    1.3573   -2.1986 H   0  0  0  0  0  0  0  0  0  0  0  0
    1.3034    0.4786    3.5221 C   0  0  0  0  0  0  0  0  0  0  0  0
    2.0410   -0.3468    3.4724 H   0  0  0  0  0  0  0  0  0  0  0  0
    1.2434    0.7786    4.5984 H   0  0  0  0  0  0  0  0  0  0  0  0
    0.7483    3.6528   -0.4945 C   0  0  0  0  0  0  0  0  0  0  0  0
    0.0726    3.7498    0.3683 H   0  0  0  0  0  0  0  0  0  0  0  0
    4.0616    0.9290   -0.0746 C   0  0  0  0  0  0  0  0  0  0  0  0
    4.9577    0.8909   -0.7011 H   0  0  0  0  0  0  0  0  0  0  0  0
   -0.2161   -1.4055    3.5080 C   0  0  0  0  0  0  0  0  0  0  0  0
   -1.3002   -1.6303    3.4640 H   0  0  0  0  0  0  0  0  0  0  0  0
    0.0818   -1.5160    4.5809 H   0  0  0  0  0  0  0  0  0  0  0  0
   -1.0878    0.8525    3.5247 C   0  0  0  0  0  0  0  0  0  0  0  0
   -0.7404    1.9041    3.4914 H   0  0  0  0  0  0  0  0  0  0  0  0
   -1.3265    0.6371    4.5965 H   0  0  0  0  0  0  0  0  0  0  0  0
   -3.5384   -1.1767   -0.5107 C   0  0  0  0  0  0  0  0  0  0  0  0
   -3.2862   -1.8221    0.3438 H   0  0  0  0  0  0  0  0  0  0  0  0
    1.6927   -3.8279   -2.6993 C   0  0  0  0  0  0  0  0  0  0  0  0
    1.2622   -4.3581   -3.5624 H   0  0  0  0  0  0  0  0  0  0  0  0
    2.9121    4.0653   -1.5303 C   0  0  0  0  0  0  0  0  0  0  0  0
    3.9272    4.4866   -1.4824 H   0  0  0  0  0  0  0  0  0  0  0  0
   -4.6508   -0.3245   -0.4421 C   0  0  0  0  0  0  0  0  0  0  0  0
   -5.2725   -0.3106    0.4661 H   0  0  0  0  0  0  0  0  0  0  0  0
   -3.0696   -0.3782   -2.7501 C   0  0  0  0  0  0  0  0  0  0  0  0
   -2.4525   -0.4007   -3.6633 H   0  0  0  0  0  0  0  0  0  0  0  0
    2.0425    4.1914   -0.4362 C   0  0  0  0  0  0  0  0  0  0  0  0
    2.3747    4.7167    0.4722 H   0  0  0  0  0  0  0  0  0  0  0  0
    2.0643   -4.5405   -1.5483 C   0  0  0  0  0  0  0  0  0  0  0  0
    1.9216   -5.6302   -1.5016 H   0  0  0  0  0  0  0  0  0  0  0  0
    2.6270   -3.8544   -0.4612 C   0  0  0  0  0  0  0  0  0  0  0  0
    2.9306   -4.4079    0.4404 H   0  0  0  0  0  0  0  0  0  0  0  0
    2.8072   -2.4641   -0.5177 C   0  0  0  0  0  0  0  0  0  0  0  0
    3.2431   -1.9305    0.3400 H   0  0  0  0  0  0  0  0  0  0  0  0
   -4.1831    0.4724   -2.6846 C   0  0  0  0  0  0  0  0  0  0  0  0
   -4.4354    1.1110   -3.5448 H   0  0  0  0  0  0  0  0  0  0  0  0
    1.1817    2.8648   -2.7447 C   0  0  0  0  0  0  0  0  0  0  0  0
    0.8444    2.3478   -3.6581 H   0  0  0  0  0  0  0  0  0  0  0  0
    2.4750    3.4051   -2.6896 C   0  0  0  0  0  0  0  0  0  0  0  0
    3.1448    3.3116   -3.5579 H   0  0  0  0  0  0  0  0  0  0  0  0
   -4.9741    0.5068   -1.5253 C   0  0  0  0  0  0  0  0  0  0  0  0
   -5.8454    1.1759   -1.4692 H   0  0  0  0  0  0  0  0  0  0  0  0
  1  3  1  0  0  0  0
  2 14  1  0  0  0  0
  2 12  1  0  0  0  0
  3 30  1  0  0  0  0
  4 13  1  0  0  0  0
  5 16  1  0  0  0  0
  5  4  1  0  0  0  0
  6 23  1  0  0  0  0
  7 49  1  0  0  0  0
  7  1  1  0  0  0  0
  8 35  1  0  0  0  0
  8  7  1  0  0  0  0
  9  8  1  0  0  0  0
 10  8  1  0  0  0  0
 11 51  1  0  0  0  0
 11 44  1  0  0  0  0
 11 54  1  0  0  0  0
 12  6  1  0  0  0  0
 13 38  1  0  0  0  0
 14 36  2  0  0  0  0
 15 14  1  0  0  0  0
 16 28  2  0  0  0  0
 17 16  1  0  0  0  0
 18 21  1  0  0  0  0
 18  2  1  0  0  0  0
 19 18  1  0  0  0  0
 20 18  1  0  0  0  0
 21 57  1  0  0  0  0
 22 47  1  0  0  0  0
 23 25  1  0  0  0  0
 23 51  1  0  0  0  0
 24 23  1  0  0  0  0
 26  3  1  0  0  0  0
 26 27  1  0  0  0  0
 28 13  1  0  0  0  0
 28 29  1  0  0  0  0
 30 32  1  0  0  0  0
 30 44  1  0  0  0  0
 31 30  1  0  0  0  0
 33 59  2  0  0  0  0
 33 35  1  0  0  0  0
 34 33  1  0  0  0  0
 35 73  2  0  0  0  0
 36  6  1  0  0  0  0
 36 37  1  0  0  0  0
 38 40  1  0  0  0  0
 38 54  1  0  0  0  0
 39 38  1  0  0  0  0
 41 22  1  0  0  0  0
 41  5  1  0  0  0  0
 42 41  1  0  0  0  0
 43 41  1  0  0  0  0
 44 46  1  0  0  0  0
 45 44  1  0  0  0  0
 47 67  2  0  0  0  0
 47 48  1  0  0  0  0
 49 26  2  0  0  0  0
 50 49  1  0  0  0  0
 51 53  1  0  0  0  0
 52 51  1  0  0  0  0
 54 56  1  0  0  0  0
 55 54  1  0  0  0  0
 57 63  2  0  0  0  0
 57 58  1  0  0  0  0
 59 69  1  0  0  0  0
 60 59  1  0  0  0  0
 61 62  1  0  0  0  0
 61 67  1  0  0  0  0
 63 64  1  0  0  0  0
 65 75  1  0  0  0  0
 65 21  2  0  0  0  0
 66 65  1  0  0  0  0
 67 68  1  0  0  0  0
 69 70  1  0  0  0  0
 69 71  2  0  0  0  0
 71 72  1  0  0  0  0
 73 71  1  0  0  0  0
 73 74  1  0  0  0  0
 75 81  2  0  0  0  0
 76 75  1  0  0  0  0
 77 79  1  0  0  0  0
 77 22  2  0  0  0  0
 78 77  1  0  0  0  0
 79 61  2  0  0  0  0
 80 79  1  0  0  0  0
 81 82  1  0  0  0  0
 81 63  1  0  0  0  0
M  END
