2,5,8
 OpenBabel05122313063D

 21 21  0  0  1  0  0  0  0  0999 V2000
    1.6764   -2.6403    0.2699 C   0  0  2  0  0  3  0  0  0  0  0  0
    1.4203   -2.0021    1.5441 C   0  0  0  0  0  3  0  0  0  0  0  0
    0.7701   -2.5106    2.2724 H   0  0  0  0  0  0  0  0  0  0  0  0
    1.8969   -0.6912    1.8353 C   0  0  1  0  0  3  0  0  0  0  0  0
    2.6359    0.0096    0.8066 C   0  0  0  0  0  3  0  0  0  0  0  0
    2.9539    1.0486    0.9826 H   0  0  0  0  0  0  0  0  0  0  0  0
    2.8905   -0.5745   -0.4676 C   0  0  1  0  0  3  0  0  0  0  0  0
    2.3982   -1.9134   -0.7129 C   0  0  0  0  0  3  0  0  0  0  0  0
    2.4841   -2.3304   -1.7270 H   0  0  0  0  0  0  0  0  0  0  0  0
    1.0309   -3.9599   -0.0393 C   0  0  0  0  0  0  0  0  0  0  0  0
    1.3628   -4.7397    0.6761 H   0  0  0  0  0  0  0  0  0  0  0  0
    1.2682   -4.2940   -1.0663 H   0  0  0  0  0  0  0  0  0  0  0  0
   -0.0708   -3.8495    0.0423 H   0  0  0  0  0  0  0  0  0  0  0  0
    1.6080   -0.0498    3.1644 C   0  0  0  0  0  0  0  0  0  0  0  0
    0.6587   -0.4267    3.5914 H   0  0  0  0  0  0  0  0  0  0  0  0
    1.5375    1.0519    3.0821 H   0  0  0  0  0  0  0  0  0  0  0  0
    2.4218   -0.2749    3.8860 H   0  0  0  0  0  0  0  0  0  0  0  0
    3.5643    0.1894   -1.5712 C   0  0  0  0  0  0  0  0  0  0  0  0
    2.8868    0.2304   -2.4502 H   0  0  0  0  0  0  0  0  0  0  0  0
    4.5103   -0.3060   -1.8722 H   0  0  0  0  0  0  0  0  0  0  0  0
    3.7966    1.2260   -1.2613 H   0  0  0  0  0  0  0  0  0  0  0  0
  1 10  1  6  0  0  0
  1  2  1  0  0  0  0
  2  4  1  0  0  0  0
  2  3  1  0  0  0  0
  4 14  1  6  0  0  0
  5  6  1  0  0  0  0
  5  4  1  0  0  0  0
  7 18  1  6  0  0  0
  7  5  1  0  0  0  0
  8  7  1  0  0  0  0
  8  1  1  0  0  0  0
  9  8  1  0  0  0  0
 10 13  1  0  0  0  0
 10 11  1  0  0  0  0
 12 10  1  0  0  0  0
 14 15  1  0  0  0  0
 14 17  1  0  0  0  0
 16 14  1  0  0  0  0
 18 21  1  0  0  0  0
 19 18  1  0  0  0  0
 20 18  1  0  0  0  0
M  END
