36,40,43
 OpenBabel05122313063D

 56 58  0  0  1  0  0  0  0  0999 V2000
   -4.0865    1.9715   -0.2655 Si  0  0  0  0  0  0  0  0  0  0  0  0
    4.7549   -0.6369    1.2054 O   0  0  0  0  0  0  0  0  0  0  0  0
    4.8207    2.0749    0.7248 O   0  0  0  0  0  0  0  0  0  0  0  0
    2.2927    2.4962   -0.5551 O   0  0  0  0  0  0  0  0  0  0  0  0
    0.8248    0.0933   -0.9599 O   0  0  0  0  0  0  0  0  0  0  0  0
    4.2607   -1.1419   -1.0416 O   0  0  0  0  0  0  0  0  0  0  0  0
    0.7951   -2.1816   -1.5588 O   0  0  0  0  0  0  0  0  0  0  0  0
    4.8965   -0.2479   -0.1289 C   0  0  1  0  0  0  0  0  0  0  0  0
    5.9686   -0.2848   -0.4378 H   0  0  0  0  0  0  0  0  0  0  0  0
    4.3328    1.1945   -0.2617 C   0  0  1  0  0  0  0  0  0  0  0  0
    4.6208    1.5544   -1.2816 H   0  0  0  0  0  0  0  0  0  0  0  0
    2.7957    1.2304   -0.1807 C   0  0  2  0  0  0  0  0  0  0  0  0
    2.4918    0.9689    0.8583 H   0  0  0  0  0  0  0  0  0  0  0  0
    2.2326    0.1795   -1.1237 C   0  0  1  0  0  0  0  0  0  0  0  0
    2.4769    0.4701   -2.1768 H   0  0  0  0  0  0  0  0  0  0  0  0
    2.8541   -1.1890   -0.8335 C   0  0  1  0  0  0  0  0  0  0  0  0
    2.6184   -1.4579    0.2207 H   0  0  0  0  0  0  0  0  0  0  0  0
    2.2074   -2.2239   -1.7503 C   0  0  0  0  0  0  0  0  0  0  0  0
    2.4772   -2.0040   -2.8125 H   0  0  0  0  0  0  0  0  0  0  0  0
    2.5381   -3.2517   -1.5070 H   0  0  0  0  0  0  0  0  0  0  0  0
    0.2608   -0.8959   -1.7893 C   0  0  1  0  0  0  0  0  0  0  0  0
    0.4636   -0.6159   -2.8618 H   0  0  0  0  0  0  0  0  0  0  0  0
    5.4190   -1.8494    1.5218 C   0  0  0  0  0  0  0  0  0  0  0  0
    5.2555   -2.0414    2.5987 H   0  0  0  0  0  0  0  0  0  0  0  0
    6.5151   -1.7719    1.3285 H   0  0  0  0  0  0  0  0  0  0  0  0
    5.0230   -2.7054    0.9326 H   0  0  0  0  0  0  0  0  0  0  0  0
    6.2015    2.3442    0.6524 C   0  0  0  0  0  0  0  0  0  0  0  0
    6.4111    3.1785    1.3498 H   0  0  0  0  0  0  0  0  0  0  0  0
    6.5147    2.6534   -0.3746 H   0  0  0  0  0  0  0  0  0  0  0  0
    6.8263    1.4732    0.9612 H   0  0  0  0  0  0  0  0  0  0  0  0
    1.9030    3.3179    0.5321 C   0  0  0  0  0  0  0  0  0  0  0  0
    1.4867    4.2489    0.0987 H   0  0  0  0  0  0  0  0  0  0  0  0
    2.7651    3.5774    1.1852 H   0  0  0  0  0  0  0  0  0  0  0  0
    1.1156    2.8292    1.1518 H   0  0  0  0  0  0  0  0  0  0  0  0
   -1.2236   -0.9171   -1.5105 C   0  0  1  0  0  3  0  0  0  0  0  0
   -1.9520   -2.1389   -1.4613 C   0  0  0  0  0  3  0  0  0  0  0  0
   -1.4193   -3.0795   -1.6534 H   0  0  0  0  0  0  0  0  0  0  0  0
   -3.3330   -2.1371   -1.1232 C   0  0  0  0  0  3  0  0  0  0  0  0
   -3.8825   -3.0851   -1.0495 H   0  0  0  0  0  0  0  0  0  0  0  0
   -3.9649   -0.9126   -0.7694 C   0  0  0  0  0  3  0  0  0  0  0  0
   -5.0104   -0.9405   -0.4283 H   0  0  0  0  0  0  0  0  0  0  0  0
   -3.2702    0.3403   -0.8086 C   0  0  2  0  0  3  0  0  0  0  0  0
   -1.8853    0.2991   -1.1652 C   0  0  0  0  0  3  0  0  0  0  0  0
   -1.2749    1.2128   -1.1306 H   0  0  0  0  0  0  0  0  0  0  0  0
   -4.7221    2.8445   -1.8224 C   0  0  0  0  0  0  0  0  0  0  0  0
   -3.8913    3.0619   -2.5245 H   0  0  0  0  0  0  0  0  0  0  0  0
   -5.2106    3.8072   -1.5653 H   0  0  0  0  0  0  0  0  0  0  0  0
   -5.4641    2.2182   -2.3586 H   0  0  0  0  0  0  0  0  0  0  0  0
   -2.8019    3.0565    0.5939 C   0  0  0  0  0  0  0  0  0  0  0  0
   -1.9351    3.2747   -0.0632 H   0  0  0  0  0  0  0  0  0  0  0  0
   -2.4157    2.5755    1.5139 H   0  0  0  0  0  0  0  0  0  0  0  0
   -3.2577    4.0283    0.8751 H   0  0  0  0  0  0  0  0  0  0  0  0
   -5.5283    1.5855    0.8916 C   0  0  0  0  0  0  0  0  0  0  0  0
   -5.1978    1.0082    1.7781 H   0  0  0  0  0  0  0  0  0  0  0  0
   -6.3247    1.0067    0.3800 H   0  0  0  0  0  0  0  0  0  0  0  0
   -5.9875    2.5304    1.2484 H   0  0  0  0  0  0  0  0  0  0  0  0
  1 49  1  0  0  0  0
  1 53  1  0  0  0  0
  2 23  1  0  0  0  0
  4 12  1  0  0  0  0
  4 31  1  0  0  0  0
  6 16  1  0  0  0  0
  6  8  1  0  0  0  0
  8  9  1  6  0  0  0
  8  2  1  0  0  0  0
 10 11  1  6  0  0  0
 10 12  1  0  0  0  0
 10  8  1  0  0  0  0
 10  3  1  0  0  0  0
 12 13  1  1  0  0  0
 14 15  1  6  0  0  0
 14  5  1  0  0  0  0
 14 16  1  0  0  0  0
 14 12  1  0  0  0  0
 16 17  1  1  0  0  0
 18  7  1  0  0  0  0
 18 20  1  0  0  0  0
 18 16  1  0  0  0  0
 19 18  1  0  0  0  0
 21 22  1  6  0  0  0
 21  7  1  0  0  0  0
 21 35  1  0  0  0  0
 21  5  1  0  0  0  0
 23 24  1  0  0  0  0
 25 23  1  0  0  0  0
 26 23  1  0  0  0  0
 27  3  1  0  0  0  0
 27 30  1  0  0  0  0
 27 28  1  0  0  0  0
 29 27  1  0  0  0  0
 31 34  1  0  0  0  0
 31 33  1  0  0  0  0
 32 31  1  0  0  0  0
 35 36  1  1  0  0  0
 35 43  1  0  0  0  0
 36 38  1  0  0  0  0
 37 36  1  0  0  0  0
 38 39  1  0  0  0  0
 38 40  1  0  0  0  0
 40 41  1  0  0  0  0
 42 40  1  0  0  0  0
 42  1  1  1  0  0  0
 43 44  1  0  0  0  0
 43 42  1  0  0  0  0
 45 47  1  0  0  0  0
 45  1  1  0  0  0  0
 46 45  1  0  0  0  0
 48 45  1  0  0  0  0
 49 52  1  0  0  0  0
 49 51  1  0  0  0  0
 50 49  1  0  0  0  0
 53 56  1  0  0  0  0
 53 54  1  0  0  0  0
 55 53  1  0  0  0  0
M  END
