4,9,14
 OpenBabel05122313063D

 30 31  0  0  1  0  0  0  0  0999 V2000
    1.9310    1.1578    0.2643 P   0  0  0  0  0  4  0  0  0  0  0  0
    0.7308   -1.4659   -0.0307 C   0  0  0  0  0  0  0  0  0  0  0  0
    2.1694   -0.7668   -0.1763 B   0  0  0  0  0  0  0  0  0  0  0  0
   -0.1258   -1.9164   -1.0982 C   0  0  0  0  0  3  0  0  0  0  0  0
    0.1218   -1.8451   -2.1644 H   0  0  0  0  0  0  0  0  0  0  0  0
    3.4399   -1.4081    1.0195 Cl  0  0  0  0  0  0  0  0  0  0  0  0
   -1.2783   -2.5406   -0.5413 C   0  0  0  0  0  3  0  0  0  0  0  0
   -2.1107   -2.9812   -1.1017 H   0  0  0  0  0  0  0  0  0  0  0  0
   -1.1838   -2.4422    0.8749 C   0  0  0  0  0  3  0  0  0  0  0  0
   -1.9299   -2.7893    1.6003 H   0  0  0  0  0  0  0  0  0  0  0  0
    2.7746   -0.7715   -1.9518 Cl  0  0  0  0  0  0  0  0  0  0  0  0
    0.0503   -1.7921    1.1829 C   0  0  0  0  0  0  0  0  0  0  0  0
    0.4229   -1.5869    2.1936 H   0  0  0  0  0  0  0  0  0  0  0  0
    0.3466    1.6347   -0.4560 C   0  0  1  0  0  3  0  0  0  0  0  0
   -0.1215    1.1803   -1.7436 C   0  0  0  0  0  0  0  0  0  0  0  0
    0.4756    0.6047   -2.4601 H   0  0  0  0  0  0  0  0  0  0  0  0
   -1.4531    1.6348   -1.8999 C   0  0  0  0  0  0  0  0  0  0  0  0
   -2.1032    1.4353   -2.7598 H   0  0  0  0  0  0  0  0  0  0  0  0
   -1.8227    2.3659   -0.7288 C   0  0  0  0  0  0  0  0  0  0  0  0
   -2.8070    2.8057   -0.5293 H   0  0  0  0  0  0  0  0  0  0  0  0
   -0.7110    2.3895    0.1482 C   0  0  0  0  0  0  0  0  0  0  0  0
   -0.6918    2.8444    1.1443 H   0  0  0  0  0  0  0  0  0  0  0  0
    3.2614    2.2300   -0.3761 C   0  0  0  0  0  0  0  0  0  0  0  0
    3.0475    3.2962   -0.1715 H   0  0  0  0  0  0  0  0  0  0  0  0
    3.3515    2.0503   -1.4638 H   0  0  0  0  0  0  0  0  0  0  0  0
    4.2075    1.9247    0.1133 H   0  0  0  0  0  0  0  0  0  0  0  0
    1.8110    1.4823    2.0556 C   0  0  0  0  0  0  0  0  0  0  0  0
    1.7926    2.5702    2.2599 H   0  0  0  0  0  0  0  0  0  0  0  0
    2.6951    1.0171    2.5328 H   0  0  0  0  0  0  0  0  0  0  0  0
    0.8883    1.0172    2.4559 H   0  0  0  0  0  0  0  0  0  0  0  0
  1 27  1  0  0  0  0
  2 12  2  0  0  0  0
  3  2  1  0  0  0  0
  3  1  1  0  0  0  0
  3  6  1  0  0  0  0
  4  7  1  0  0  0  0
  4  2  1  0  0  0  0
  5  4  1  0  0  0  0
  7  9  1  0  0  0  0
  8  7  1  0  0  0  0
  9 12  1  0  0  0  0
  9 10  1  0  0  0  0
 11  3  1  0  0  0  0
 12 13  1  0  0  0  0
 14 21  1  0  0  0  0
 14  1  1  1  0  0  0
 15 14  1  0  0  0  0
 16 15  1  0  0  0  0
 17 15  2  0  0  0  0
 17 19  1  0  0  0  0
 18 17  1  0  0  0  0
 19 20  1  0  0  0  0
 19 21  2  0  0  0  0
 21 22  1  0  0  0  0
 23 24  1  0  0  0  0
 23 26  1  0  0  0  0
 23  1  1  0  0  0  0
 25 23  1  0  0  0  0
 27 28  1  0  0  0  0
 27 30  1  0  0  0  0
 27 29  1  0  0  0  0
M  END
