1,5,16
 OpenBabel05122313063D

 26 25  0  0  1  0  0  0  0  0999 V2000
   -0.1468    0.0239   -2.0589 C   0  0  0  0  0  3  0  0  0  0  0  0
    0.7465    0.6617   -2.0501 H   0  0  0  0  0  0  0  0  0  0  0  0
    0.0139   -1.0320   -2.3223 H   0  0  0  0  0  0  0  0  0  0  0  0
   -1.3921    0.6410   -2.3575 C   0  0  1  0  0  3  0  0  0  0  0  0
   -2.5095   -0.2392   -2.2612 C   0  0  0  0  0  3  0  0  0  0  0  0
   -2.3269   -1.3097   -2.4619 H   0  0  0  0  0  0  0  0  0  0  0  0
   -3.9605    0.1828   -2.3466 C   0  0  0  0  0  0  0  0  0  0  0  0
   -4.4012   -0.0907   -3.3305 H   0  0  0  0  0  0  0  0  0  0  0  0
   -4.0580    1.2806   -2.2324 H   0  0  0  0  0  0  0  0  0  0  0  0
   -4.6290   -0.5272   -1.1677 C   0  0  0  0  0  0  0  0  0  0  0  0
   -5.6719   -0.1866   -0.9892 H   0  0  0  0  0  0  0  0  0  0  0  0
   -4.6617   -1.6199   -1.3484 H   0  0  0  0  0  0  0  0  0  0  0  0
   -3.7401   -0.1952    0.0092 C   0  0  0  0  0  3  0  0  0  0  0  0
   -3.7692    0.8606    0.3268 H   0  0  0  0  0  0  0  0  0  0  0  0
   -3.1632   -1.1323    0.9085 C   0  0  2  0  0  3  0  0  0  0  0  0
   -2.1898   -0.5915    1.7959 C   0  0  0  0  0  3  0  0  0  0  0  0
   -1.6257   -1.3134    2.3938 H   0  0  0  0  0  0  0  0  0  0  0  0
   -2.2941    0.4242    2.2030 H   0  0  0  0  0  0  0  0  0  0  0  0
   -1.5112    2.1150   -2.6294 C   0  0  0  0  0  0  0  0  0  0  0  0
   -1.7453    2.2621   -3.7049 H   0  0  0  0  0  0  0  0  0  0  0  0
   -0.5615    2.6365   -2.4077 H   0  0  0  0  0  0  0  0  0  0  0  0
   -2.3049    2.5918   -2.0260 H   0  0  0  0  0  0  0  0  0  0  0  0
   -3.4600   -2.6061    0.8623 C   0  0  0  0  0  0  0  0  0  0  0  0
   -4.4362   -2.7742    1.3655 H   0  0  0  0  0  0  0  0  0  0  0  0
   -2.6857   -3.1820    1.3994 H   0  0  0  0  0  0  0  0  0  0  0  0
   -3.5282   -3.0002   -0.1678 H   0  0  0  0  0  0  0  0  0  0  0  0
  1  2  1  0  0  0  0
  3  1  1  0  0  0  0
  4  5  1  1  0  0  0
  4  1  1  0  0  0  0
  6  5  1  0  0  0  0
  7  5  1  0  0  0  0
  7  9  1  0  0  0  0
  7 10  1  0  0  0  0
  8  7  1  0  0  0  0
 10 11  1  0  0  0  0
 10 13  1  0  0  0  0
 12 10  1  0  0  0  0
 13 14  1  0  0  0  0
 15 13  1  6  0  0  0
 15 16  1  0  0  0  0
 16 18  1  0  0  0  0
 16 17  1  0  0  0  0
 19 21  1  0  0  0  0
 19  4  1  0  0  0  0
 19 22  1  0  0  0  0
 20 19  1  0  0  0  0
 23 15  1  0  0  0  0
 23 24  1  0  0  0  0
 23 25  1  0  0  0  0
 26 23  1  0  0  0  0
M  END
