1,25,32
 OpenBabel05122313063D

 52 58  0  0  0  0  0  0  0  0999 V2000
    1.1855    0.4387   -0.0001 C   0  0  0  0  0  3  0  0  0  0  0  0
    0.8253    1.2250   -1.1631 C   0  0  0  0  0  0  0  0  0  0  0  0
    0.9919    0.9678   -2.5515 C   0  0  0  0  0  0  0  0  0  0  0  0
    0.5025    1.8960   -3.4633 C   0  0  0  0  0  0  0  0  0  0  0  0
   -0.1677    3.0753   -3.0331 C   0  0  0  0  0  0  0  0  0  0  0  0
   -0.3501    3.3474   -1.6813 C   0  0  0  0  0  0  0  0  0  0  0  0
    0.1407    2.4249   -0.7269 C   0  0  0  0  0  0  0  0  0  0  0  0
    0.1408    2.4252    0.7262 C   0  0  0  0  0  0  0  0  0  0  0  0
   -0.3500    3.3480    1.6803 C   0  0  0  0  0  0  0  0  0  0  0  0
   -0.1676    3.0762    3.0322 C   0  0  0  0  0  0  0  0  0  0  0  0
    0.5026    1.8971    3.4627 C   0  0  0  0  0  0  0  0  0  0  0  0
    0.9920    0.9686    2.5513 C   0  0  0  0  0  0  0  0  0  0  0  0
    0.8254    1.2254    1.1627 C   0  0  0  0  0  0  0  0  0  0  0  0
    2.0533   -0.7657    0.0000 C   0  0  0  0  0  0  0  0  0  0  0  0
    3.4839   -0.6701    0.0001 C   0  0  0  0  0  0  0  0  0  0  0  0
    4.1638    0.5825    0.0002 C   0  0  0  0  0  0  0  0  0  0  0  0
    5.5501    0.6345    0.0003 C   0  0  0  0  0  0  0  0  0  0  0  0
    6.3151   -0.5629    0.0003 C   0  0  0  0  0  0  0  0  0  0  0  0
    5.6814   -1.7967    0.0002 C   0  0  0  0  0  0  0  0  0  0  0  0
    4.2585   -1.8883    0.0001 C   0  0  0  0  0  0  0  0  0  0  0  0
    3.5808   -3.1441    0.0000 C   0  0  0  0  0  0  0  0  0  0  0  0
    2.1968   -3.2106   -0.0001 C   0  0  0  0  0  0  0  0  0  0  0  0
    1.4295   -2.0113   -0.0000 C   0  0  0  0  0  0  0  0  0  0  0  0
   -0.0565   -2.0251    0.0000 C   0  0  0  0  0  3  0  0  0  0  0  0
   -0.8944   -2.0034   -1.1589 C   0  0  0  0  0  3  0  0  0  0  0  0
   -2.2639   -2.1264   -0.7237 C   0  0  0  0  0  0  0  0  0  0  0  0
   -3.4926   -2.2370   -1.4355 C   0  0  0  0  0  0  0  0  0  0  0  0
   -4.6678   -2.3675   -0.7135 C   0  0  0  0  0  0  0  0  0  0  0  0
   -4.6677   -2.3674    0.7144 C   0  0  0  0  0  0  0  0  0  0  0  0
   -3.4923   -2.2366    1.4362 C   0  0  0  0  0  0  0  0  0  0  0  0
   -2.2637   -2.1262    0.7242 C   0  0  0  0  0  0  0  0  0  0  0  0
   -0.8942   -2.0031    1.1591 C   0  0  0  0  0  3  0  0  0  0  0  0
    1.5186    0.0599   -2.8815 H   0  0  0  0  0  0  0  0  0  0  0  0
    0.6314    1.7174   -4.5414 H   0  0  0  0  0  0  0  0  0  0  0  0
   -0.5490    3.7802   -3.7864 H   0  0  0  0  0  0  0  0  0  0  0  0
   -0.8777    4.2555   -1.3551 H   0  0  0  0  0  0  0  0  0  0  0  0
   -0.8777    4.2559    1.3538 H   0  0  0  0  0  0  0  0  0  0  0  0
   -0.5489    3.7814    3.7853 H   0  0  0  0  0  0  0  0  0  0  0  0
    0.6316    1.7188    4.5409 H   0  0  0  0  0  0  0  0  0  0  0  0
    1.5187    0.0609    2.8815 H   0  0  0  0  0  0  0  0  0  0  0  0
    3.5688    1.5077    0.0002 H   0  0  0  0  0  0  0  0  0  0  0  0
    6.0626    1.6084    0.0003 H   0  0  0  0  0  0  0  0  0  0  0  0
    7.4142   -0.5080    0.0003 H   0  0  0  0  0  0  0  0  0  0  0  0
    6.2704   -2.7273    0.0002 H   0  0  0  0  0  0  0  0  0  0  0  0
    4.1807   -4.0675   -0.0000 H   0  0  0  0  0  0  0  0  0  0  0  0
    1.6793   -4.1814   -0.0001 H   0  0  0  0  0  0  0  0  0  0  0  0
   -0.5428   -1.9939   -2.1977 H   0  0  0  0  0  0  0  0  0  0  0  0
   -3.4967   -2.2216   -2.5344 H   0  0  0  0  0  0  0  0  0  0  0  0
   -5.6251   -2.4651   -1.2472 H   0  0  0  0  0  0  0  0  0  0  0  0
   -5.6249   -2.4648    1.2482 H   0  0  0  0  0  0  0  0  0  0  0  0
   -3.4963   -2.2210    2.5350 H   0  0  0  0  0  0  0  0  0  0  0  0
   -0.5424   -1.9935    2.1979 H   0  0  0  0  0  0  0  0  0  0  0  0
  1 14  1  0  0  0  0
  1 13  1  0  0  0  0
  2  7  1  0  0  0  0
  2  1  1  0  0  0  0
  3  2  2  0  0  0  0
  4  5  2  0  0  0  0
  4  3  1  0  0  0  0
  5  6  1  0  0  0  0
  6 36  1  0  0  0  0
  6  7  2  0  0  0  0
  7  8  1  0  0  0  0
  8 13  2  0  0  0  0
  8  9  1  0  0  0  0
  9 10  2  0  0  0  0
 10 11  1  0  0  0  0
 10 38  1  0  0  0  0
 11 39  1  0  0  0  0
 12 40  1  0  0  0  0
 12 11  2  0  0  0  0
 13 12  1  0  0  0  0
 14 15  1  0  0  0  0
 15 16  1  0  0  0  0
 16 41  1  0  0  0  0
 16 17  2  0  0  0  0
 17 42  1  0  0  0  0
 18 17  1  0  0  0  0
 18 43  1  0  0  0  0
 19 18  2  0  0  0  0
 20 15  2  0  0  0  0
 20 19  1  0  0  0  0
 21 20  1  0  0  0  0
 22 23  1  0  0  0  0
 22 21  2  0  0  0  0
 23 24  1  0  0  0  0
 23 14  2  0  0  0  0
 24 32  1  0  0  0  0
 25 26  1  0  0  0  0
 25 24  1  0  0  0  0
 26 31  1  0  0  0  0
 27 26  2  0  0  0  0
 27 28  1  0  0  0  0
 28 29  2  0  0  0  0
 29 50  1  0  0  0  0
 29 30  1  0  0  0  0
 30 51  1  0  0  0  0
 31 32  1  0  0  0  0
 31 30  2  0  0  0  0
 32 52  1  0  0  0  0
 33  3  1  0  0  0  0
 34  4  1  0  0  0  0
 35  5  1  0  0  0  0
 37  9  1  0  0  0  0
 44 19  1  0  0  0  0
 45 21  1  0  0  0  0
 46 22  1  0  0  0  0
 47 25  1  0  0  0  0
 48 27  1  0  0  0  0
 49 28  1  0  0  0  0
M  END
