3,5,7
 OpenBabel05122313063D

 27 27  0  0  0  0  0  0  0  0999 V2000
   -3.3384    0.1585    0.0028 N   0  3  0  0  0  0  0  0  0  0  0  0
   -0.8480   -0.3543    0.0475 C   0  0  0  0  0  3  0  0  0  0  0  0
   -0.3196   -0.8399   -1.1902 C   0  0  0  0  0  3  0  0  0  0  0  0
    0.7457   -1.7751   -1.2174 C   0  0  0  0  0  3  0  0  0  0  0  0
    1.3308   -2.2083    0.0073 C   0  0  0  0  0  3  0  0  0  0  0  0
    0.8128   -1.7622    1.2523 C   0  0  0  0  0  3  0  0  0  0  0  0
   -0.2514   -0.8158    1.2606 C   0  0  0  0  0  3  0  0  0  0  0  0
   -1.9274    0.6927    0.0659 C   0  0  0  0  0  0  0  0  0  0  0  0
   -3.6194   -0.7200    1.1660 C   0  0  0  0  0  0  0  0  0  0  0  0
   -4.2567    1.3271    0.0334 C   0  0  0  0  0  0  0  0  0  0  0  0
   -3.6051   -0.6814   -1.3910 B   0  0  0  0  0  0  0  0  0  0  0  0
   -0.7446   -0.4618   -2.1294 H   0  0  0  0  0  0  0  0  0  0  0  0
    1.1635   -2.1043   -2.1778 H   0  0  0  0  0  0  0  0  0  0  0  0
    2.2011   -2.8795   -0.0114 H   0  0  0  0  0  0  0  0  0  0  0  0
    1.2815   -2.0747    2.1945 H   0  0  0  0  0  0  0  0  0  0  0  0
   -0.6030   -0.4089    2.2203 H   0  0  0  0  0  0  0  0  0  0  0  0
   -1.8165    1.3621   -0.8071 H   0  0  0  0  0  0  0  0  0  0  0  0
   -1.8325    1.3070    0.9870 H   0  0  0  0  0  0  0  0  0  0  0  0
   -4.6598   -1.0811    1.0831 H   0  0  0  0  0  0  0  0  0  0  0  0
   -3.4837   -0.1676    2.1198 H   0  0  0  0  0  0  0  0  0  0  0  0
   -2.9437   -1.5921    1.1305 H   0  0  0  0  0  0  0  0  0  0  0  0
   -5.2966    0.9591   -0.0079 H   0  0  0  0  0  0  0  0  0  0  0  0
   -4.0968    1.9265    0.9543 H   0  0  0  0  0  0  0  0  0  0  0  0
   -4.0678    1.9492   -0.8596 H   0  0  0  0  0  0  0  0  0  0  0  0
   -4.8131   -0.9236   -1.3961 H   0  0  0  0  0  0  0  0  0  0  0  0
   -2.9276   -1.7059   -1.3287 H   0  0  0  0  0  0  0  0  0  0  0  0
   -3.2607    0.0717   -2.3067 H   0  0  0  0  0  0  0  0  0  0  0  0
  1 10  1  0  0  0  0
  1  8  1  0  0  0  0
  1  9  1  0  0  0  0
  2  8  1  0  0  0  0
  2  7  1  0  0  0  0
  3  2  1  0  0  0  0
  4  3  1  0  0  0  0
  4  5  1  0  0  0  0
  5  6  1  0  0  0  0
  6  7  1  0  0  0  0
  6 15  1  0  0  0  0
  7 16  1  0  0  0  0
  8 18  1  0  0  0  0
  9 20  1  0  0  0  0
 10 23  1  0  0  0  0
 11 26  1  0  0  0  0
 11  1  1  0  0  0  0
 12  3  1  0  0  0  0
 13  4  1  0  0  0  0
 14  5  1  0  0  0  0
 17  8  1  0  0  0  0
 19  9  1  0  0  0  0
 21  9  1  0  0  0  0
 22 10  1  0  0  0  0
 24 10  1  0  0  0  0
 25 11  1  0  0  0  0
 27 11  1  0  0  0  0
M  CHG  1   1   1
M  END
