4,6,9
q = -1.0, confidence = 0.0

 26 26  0  0  1  0  0  0  0  0999 V2000
    2.8936    2.2344    0.0003 N   0  0  0  0  0  0  0  0  0  0  0  0
    1.4482    2.2836    0.0003 B   0  0  0  0  0  0  0  0  0  0  0  0
   -0.8149    2.2420    1.2481 C   0  0  1  0  0  3  0  0  0  0  0  0
    0.5928    2.2232    1.2872 C   0  0  0  0  0  3  0  0  0  0  0  0
    1.0311    2.1850    2.3002 H   0  0  0  0  0  0  0  0  0  0  0  0
   -1.5077    2.2001    0.0001 C   0  0  0  0  0  3  0  0  0  0  0  0
   -2.6062    2.1786    0.0000 H   0  0  0  0  0  0  0  0  0  0  0  0
   -0.8148    2.2425   -1.2478 C   0  0  1  0  0  3  0  0  0  0  0  0
    0.5929    2.2235   -1.2867 C   0  0  0  0  0  3  0  0  0  0  0  0
    1.0314    2.1858   -2.2997 H   0  0  0  0  0  0  0  0  0  0  0  0
   -1.6271    2.2879    2.5242 C   0  0  0  0  0  0  0  0  0  0  0  0
   -1.1080    1.7741    3.3575 H   0  0  0  0  0  0  0  0  0  0  0  0
   -2.6274    1.8327    2.3966 H   0  0  0  0  0  0  0  0  0  0  0  0
   -1.7814    3.3436    2.8344 H   0  0  0  0  0  0  0  0  0  0  0  0
   -1.6267    2.2891   -2.5241 C   0  0  0  0  0  0  0  0  0  0  0  0
   -1.7775    3.3447   -2.8360 H   0  0  0  0  0  0  0  0  0  0  0  0
   -2.6285    1.8373   -2.3958 H   0  0  0  0  0  0  0  0  0  0  0  0
   -1.1092    1.7723   -3.3565 H   0  0  0  0  0  0  0  0  0  0  0  0
    3.6967    2.1992    1.2009 C   0  0  0  0  0  0  0  0  0  0  0  0
    3.0630    2.2126    2.1054 H   0  0  0  0  0  0  0  0  0  0  0  0
    4.3934    3.0702    1.2593 H   0  0  0  0  0  0  0  0  0  0  0  0
    4.3295    1.2793    1.2407 H   0  0  0  0  0  0  0  0  0  0  0  0
    3.6968    2.1989   -1.2001 C   0  0  0  0  0  0  0  0  0  0  0  0
    3.0632    2.2111   -2.1047 H   0  0  0  0  0  0  0  0  0  0  0  0
    4.3302    1.2792   -1.2392 H   0  0  0  0  0  0  0  0  0  0  0  0
    4.3930    3.0702   -1.2592 H   0  0  0  0  0  0  0  0  0  0  0  0
  1 19  1  0  0  0  0
  2  1  1  0  0  0  0
  2  4  1  0  0  0  0
  3  4  1  0  0  0  0
  3 11  1  1  0  0  0
  4  5  1  0  0  0  0
  6  3  1  0  0  0  0
  7  6  1  0  0  0  0
  8 15  1  6  0  0  0
  8  6  1  0  0  0  0
  9  8  1  0  0  0  0
  9  2  1  0  0  0  0
 10  9  1  0  0  0  0
 11 14  1  0  0  0  0
 11 12  1  0  0  0  0
 13 11  1  0  0  0  0
 15 17  1  0  0  0  0
 16 15  1  0  0  0  0
 18 15  1  0  0  0  0
 19 22  1  0  0  0  0
 19 21  1  0  0  0  0
 19 20  1  0  0  0  0
 23  1  1  0  0  0  0
 24 23  1  0  0  0  0
 25 23  1  0  0  0  0
 26 23  1  0  0  0  0
M  END
