1,5,9
 OpenBabel05122313063D

 22 23  0  0  0  0  0  0  0  0999 V2000
    1.3984   -1.8957    0.1520 C   0  0  0  0  0  3  0  0  0  0  0  0
    1.7458   -2.1946    1.1518 H   0  0  0  0  0  0  0  0  0  0  0  0
    0.1487   -2.3925   -0.3286 C   0  0  0  0  0  3  0  0  0  0  0  0
   -0.4383   -3.0926    0.2788 H   0  0  0  0  0  0  0  0  0  0  0  0
   -0.3898   -1.8372   -1.5371 C   0  0  0  0  0  3  0  0  0  0  0  0
   -1.4069   -2.1153   -1.8496 H   0  0  0  0  0  0  0  0  0  0  0  0
    0.3594   -0.8978   -2.3252 C   0  0  0  0  0  3  0  0  0  0  0  0
   -0.0731   -0.4543   -3.2330 H   0  0  0  0  0  0  0  0  0  0  0  0
    1.5992   -0.4171   -1.8076 C   0  0  0  0  0  3  0  0  0  0  0  0
    2.0912    0.4379   -2.2950 H   0  0  0  0  0  0  0  0  0  0  0  0
    2.1664   -0.9182   -0.5733 C   0  0  0  0  0  3  0  0  0  0  0  0
    3.4407   -0.3738   -0.0387 C   0  0  0  0  0  0  0  0  0  0  0  0
    4.5526   -0.2273   -0.8943 C   0  0  0  0  0  0  0  0  0  0  0  0
    4.4661   -0.5147   -1.9537 H   0  0  0  0  0  0  0  0  0  0  0  0
    5.7703    0.2611   -0.3991 C   0  0  0  0  0  0  0  0  0  0  0  0
    6.6322    0.3663   -1.0755 H   0  0  0  0  0  0  0  0  0  0  0  0
    5.8889    0.6121    0.9545 C   0  0  0  0  0  0  0  0  0  0  0  0
    6.8433    0.9991    1.3427 H   0  0  0  0  0  0  0  0  0  0  0  0
    4.7814    0.4790    1.8083 C   0  0  0  0  0  0  0  0  0  0  0  0
    4.8613    0.7757    2.8651 H   0  0  0  0  0  0  0  0  0  0  0  0
    3.5624   -0.0087    1.3196 C   0  0  0  0  0  0  0  0  0  0  0  0
    2.6762   -0.0583    1.9726 H   0  0  0  0  0  0  0  0  0  0  0  0
  1  2  1  0  0  0  0
  3  1  1  0  0  0  0
  3  4  1  0  0  0  0
  5  3  1  0  0  0  0
  6  5  1  0  0  0  0
  7  9  1  0  0  0  0
  7  5  1  0  0  0  0
  8  7  1  0  0  0  0
  9 11  1  0  0  0  0
 10  9  1  0  0  0  0
 11 12  1  0  0  0  0
 11  1  1  0  0  0  0
 12 21  1  0  0  0  0
 13 15  1  0  0  0  0
 13 12  2  0  0  0  0
 14 13  1  0  0  0  0
 15 17  2  0  0  0  0
 16 15  1  0  0  0  0
 17 18  1  0  0  0  0
 17 19  1  0  0  0  0
 19 20  1  0  0  0  0
 21 19  2  0  0  0  0
 21 22  1  0  0  0  0
M  END
