3,19,21
 OpenBabel05122313063D

 37 38  0  0  1  0  0  0  0  0999 V2000
   -1.3352    1.7833    0.3325 N   0  0  0  0  0  0  0  0  0  0  0  0
    0.7455    2.3170    0.0454 N   0  0  0  0  0  0  0  0  0  0  0  0
   -0.0874    1.2337    0.2149 C   0  0  0  0  0  2  0  0  0  0  0  0
   -1.2795    3.1685    0.2408 C   0  0  0  0  0  0  0  0  0  0  0  0
   -2.1769    3.7879    0.3243 H   0  0  0  0  0  0  0  0  0  0  0  0
   -2.6033    1.0539    0.4216 C   0  0  0  0  0  0  0  0  0  0  0  0
   -3.3484    1.7551    0.8496 H   0  0  0  0  0  0  0  0  0  0  0  0
   -2.4484    0.2108    1.1220 H   0  0  0  0  0  0  0  0  0  0  0  0
   -3.0605    0.5352   -0.9441 C   0  0  0  0  0  0  0  0  0  0  0  0
   -2.3148   -0.2171   -1.2799 H   0  0  0  0  0  0  0  0  0  0  0  0
   -3.0356    1.3716   -1.6773 H   0  0  0  0  0  0  0  0  0  0  0  0
    0.0343    3.5073    0.0629 C   0  0  0  0  0  0  0  0  0  0  0  0
    0.5207    4.4826   -0.0284 H   0  0  0  0  0  0  0  0  0  0  0  0
    2.2217   -2.2551   -0.3306 C   0  0  0  0  0  0  0  0  0  0  0  0
    2.6995   -2.9325    0.3899 H   0  0  0  0  0  0  0  0  0  0  0  0
    2.1939    2.2226   -0.1297 C   0  0  0  0  0  0  0  0  0  0  0  0
    2.5924    1.6946    0.7643 H   0  0  0  0  0  0  0  0  0  0  0  0
    2.5934    3.2550   -0.1439 H   0  0  0  0  0  0  0  0  0  0  0  0
    2.7163   -0.9059   -0.4868 C   0  0  0  0  0  3  0  0  0  0  0  0
    3.5720   -0.5821    0.1254 H   0  0  0  0  0  0  0  0  0  0  0  0
    0.8713   -0.3754   -2.0195 C   0  0  0  0  0  3  0  0  0  0  0  0
    0.3094    0.3547   -2.6232 H   0  0  0  0  0  0  0  0  0  0  0  0
    1.0143   -2.6138   -0.9592 C   0  0  0  0  0  0  0  0  0  0  0  0
    0.5350   -3.5732   -0.7179 H   0  0  0  0  0  0  0  0  0  0  0  0
    0.3194   -1.6736   -1.8030 C   0  0  0  0  0  3  0  0  0  0  0  0
   -0.6559   -1.9370   -2.2349 H   0  0  0  0  0  0  0  0  0  0  0  0
    2.0989    0.0348   -1.3734 C   0  0  1  0  0  3  0  0  0  0  0  0
    2.5741    1.4730   -1.4178 C   0  0  0  0  0  0  0  0  0  0  0  0
    3.6771    1.5088   -1.5321 H   0  0  0  0  0  0  0  0  0  0  0  0
    2.1389    1.9921   -2.2961 H   0  0  0  0  0  0  0  0  0  0  0  0
   -4.4604   -0.0926   -0.9259 C   0  0  0  0  0  0  0  0  0  0  0  0
   -5.2046    0.6831   -0.6340 H   0  0  0  0  0  0  0  0  0  0  0  0
   -4.7223   -0.3751   -1.9684 H   0  0  0  0  0  0  0  0  0  0  0  0
   -4.6025   -1.3155   -0.0156 C   0  0  0  0  0  0  0  0  0  0  0  0
   -3.8290   -2.0771   -0.2407 H   0  0  0  0  0  0  0  0  0  0  0  0
   -5.6016   -1.7825   -0.1295 H   0  0  0  0  0  0  0  0  0  0  0  0
   -4.4769   -1.0553    1.0546 H   0  0  0  0  0  0  0  0  0  0  0  0
  1  6  1  0  0  0  0
  2 12  1  0  0  0  0
  2  3  1  0  0  0  0
  3  1  1  0  0  0  0
  4  5  1  0  0  0  0
  4  1  1  0  0  0  0
  6  7  1  0  0  0  0
  6  8  1  0  0  0  0
  9 31  1  0  0  0  0
  9  6  1  0  0  0  0
 10  9  1  0  0  0  0
 11  9  1  0  0  0  0
 12  4  2  0  0  0  0
 13 12  1  0  0  0  0
 14 15  1  0  0  0  0
 16  2  1  0  0  0  0
 16 17  1  0  0  0  0
 18 16  1  0  0  0  0
 19 14  1  0  0  0  0
 19 20  1  0  0  0  0
 21 25  1  0  0  0  0
 21 27  1  0  0  0  0
 22 21  1  0  0  0  0
 23 24  1  0  0  0  0
 23 14  2  0  0  0  0
 25 23  1  0  0  0  0
 26 25  1  0  0  0  0
 27 28  1  1  0  0  0
 27 19  1  0  0  0  0
 28 16  1  0  0  0  0
 29 28  1  0  0  0  0
 30 28  1  0  0  0  0
 31 32  1  0  0  0  0
 31 34  1  0  0  0  0
 33 31  1  0  0  0  0
 34 37  1  0  0  0  0
 35 34  1  0  0  0  0
 36 34  1  0  0  0  0
M  END
