2,4,6
 OpenBabel05122313063D

 35 36  0  0  1  0  0  0  0  0999 V2000
   -3.1160   -1.2014   -0.2417 N   0  0  0  0  0  0  0  0  0  0  0  0
    0.6606   -0.0198   -1.7347 C   0  0  0  0  0  3  0  0  0  0  0  0
    1.4070   -1.2238   -1.8277 C   0  0  0  0  0  3  0  0  0  0  0  0
    1.3980   -2.1339   -0.7284 C   0  0  0  0  0  3  0  0  0  0  0  0
    0.6094   -1.8607    0.4189 C   0  0  0  0  0  3  0  0  0  0  0  0
   -0.1273   -0.6413    0.4947 C   0  0  0  0  0  3  0  0  0  0  0  0
   -0.1391    0.2890   -0.5860 C   0  0  0  0  0  3  0  0  0  0  0  0
   -0.9897    1.5429   -0.5504 C   0  0  2  0  0  0  0  0  0  0  0  0
   -0.8454    2.3278    0.7570 C   0  0  0  0  0  0  0  0  0  0  0  0
   -2.4776    1.1688   -0.9111 C   0  0  2  0  0  0  0  0  0  0  0  0
   -3.3619    2.4178   -1.0420 C   0  0  0  0  0  0  0  0  0  0  0  0
   -3.0652    0.1594    0.0400 C   0  0  0  0  0  0  0  0  0  0  0  0
   -3.5546    0.3276    1.3392 C   0  0  0  0  0  0  0  0  0  0  0  0
   -3.8985   -0.9578    1.8515 C   0  0  0  0  0  0  0  0  0  0  0  0
   -3.6173   -1.8807    0.8518 C   0  0  0  0  0  0  0  0  0  0  0  0
   -2.7467   -1.8329   -1.4941 C   0  0  0  0  0  0  0  0  0  0  0  0
    0.7136    0.7126   -2.5542 H   0  0  0  0  0  0  0  0  0  0  0  0
    2.0419   -1.4154   -2.7028 H   0  0  0  0  0  0  0  0  0  0  0  0
    2.0222   -3.0380   -0.7619 H   0  0  0  0  0  0  0  0  0  0  0  0
    0.6241   -2.5445    1.2778 H   0  0  0  0  0  0  0  0  0  0  0  0
   -0.6995   -0.4157    1.4049 H   0  0  0  0  0  0  0  0  0  0  0  0
   -0.6311    2.1957   -1.3761 H   0  0  0  0  0  0  0  0  0  0  0  0
   -1.2149    1.7519    1.6279 H   0  0  0  0  0  0  0  0  0  0  0  0
   -1.4140    3.2768    0.7163 H   0  0  0  0  0  0  0  0  0  0  0  0
    0.2189    2.5721    0.9373 H   0  0  0  0  0  0  0  0  0  0  0  0
   -2.4259    0.6982   -1.9161 H   0  0  0  0  0  0  0  0  0  0  0  0
   -4.3570    2.1478   -1.4460 H   0  0  0  0  0  0  0  0  0  0  0  0
   -2.9003    3.1648   -1.7201 H   0  0  0  0  0  0  0  0  0  0  0  0
   -3.5272    2.9073   -0.0626 H   0  0  0  0  0  0  0  0  0  0  0  0
   -3.6579    1.2865    1.8592 H   0  0  0  0  0  0  0  0  0  0  0  0
   -4.3167   -1.1858    2.8381 H   0  0  0  0  0  0  0  0  0  0  0  0
   -3.7505   -2.9677    0.8174 H   0  0  0  0  0  0  0  0  0  0  0  0
   -1.6692   -1.6985   -1.7178 H   0  0  0  0  0  0  0  0  0  0  0  0
   -3.3389   -1.4280   -2.3406 H   0  0  0  0  0  0  0  0  0  0  0  0
   -2.9524   -2.9162   -1.4194 H   0  0  0  0  0  0  0  0  0  0  0  0
  1 12  1  0  0  0  0
  1 15  1  0  0  0  0
  2  7  1  0  0  0  0
  3  2  1  0  0  0  0
  3  4  1  0  0  0  0
  4  5  1  0  0  0  0
  5  6  1  0  0  0  0
  5 20  1  0  0  0  0
  6 21  1  0  0  0  0
  7  8  1  0  0  0  0
  7  6  1  0  0  0  0
  8 22  1  6  0  0  0
  8  9  1  0  0  0  0
  9 25  1  0  0  0  0
  9 23  1  0  0  0  0
 10 26  1  6  0  0  0
 10  8  1  0  0  0  0
 10 12  1  0  0  0  0
 11 10  1  0  0  0  0
 11 29  1  0  0  0  0
 12 13  2  0  0  0  0
 13 14  1  0  0  0  0
 13 30  1  0  0  0  0
 14 31  1  0  0  0  0
 15 14  2  0  0  0  0
 16 35  1  0  0  0  0
 16  1  1  0  0  0  0
 17  2  1  0  0  0  0
 18  3  1  0  0  0  0
 19  4  1  0  0  0  0
 24  9  1  0  0  0  0
 27 11  1  0  0  0  0
 28 11  1  0  0  0  0
 32 15  1  0  0  0  0
 33 16  1  0  0  0  0
 34 16  1  0  0  0  0
M  END
