2,5,9
 OpenBabel05122313063D

 12 12  0  0  0  0  0  0  0  0999 V2000
   -3.0448    0.5791   -0.0000 Cl  0  0  0  0  0  0  0  0  0  0  0  0
   -1.6598   -0.4760    0.0000 C   0  0  0  0  0  3  0  0  0  0  0  0
   -1.1128   -0.9036    1.2427 C   0  0  0  0  0  3  0  0  0  0  0  0
   -1.5342   -0.5295    2.1838 H   0  0  0  0  0  0  0  0  0  0  0  0
    0.0191   -1.7684    1.2263 C   0  0  0  0  0  3  0  0  0  0  0  0
    0.4800   -2.0643    2.1796 H   0  0  0  0  0  0  0  0  0  0  0  0
    0.5667   -2.2388    0.0001 C   0  0  0  0  0  3  0  0  0  0  0  0
    1.4554   -2.8829    0.0001 H   0  0  0  0  0  0  0  0  0  0  0  0
    0.0191   -1.7685   -1.2262 C   0  0  0  0  0  3  0  0  0  0  0  0
    0.4800   -2.0645   -2.1794 H   0  0  0  0  0  0  0  0  0  0  0  0
   -1.1128   -0.9037   -1.2427 C   0  0  0  0  0  3  0  0  0  0  0  0
   -1.5343   -0.5297   -2.1838 H   0  0  0  0  0  0  0  0  0  0  0  0
  1  2  1  0  0  0  0
  2  3  1  0  0  0  0
  3  4  1  0  0  0  0
  5  3  1  0  0  0  0
  5  6  1  0  0  0  0
  7  8  1  0  0  0  0
  7  5  1  0  0  0  0
  9  7  1  0  0  0  0
 10  9  1  0  0  0  0
 11  9  1  0  0  0  0
 11  2  1  0  0  0  0
 12 11  1  0  0  0  0
M  END
