6,8,10
 OpenBabel05122313063D

 22 23  0  0  1  0  0  0  0  0999 V2000
   -2.4240    0.8311   -0.6127 O   0  0  0  0  0  0  0  0  0  0  0  0
   -3.1685   -1.1629    0.3955 O   0  0  0  0  0  0  0  0  0  0  0  0
   -2.1417   -0.5556   -0.3178 C   0  0  2  0  0  0  0  0  0  0  0  0
   -1.6116    1.6750    0.1126 C   0  0  0  0  0  0  0  0  0  0  0  0
   -0.6296    0.8570    0.8367 C   0  0  2  0  0  3  0  0  0  0  0  0
    0.5098    1.2003    1.6250 C   0  0  0  0  0  3  0  0  0  0  0  0
    1.2887    0.1578    2.1902 C   0  0  0  0  0  3  0  0  0  0  0  0
    0.9765   -1.2134    1.9131 C   0  0  0  0  0  3  0  0  0  0  0  0
   -0.1363   -1.5638    1.1049 C   0  0  0  0  0  3  0  0  0  0  0  0
   -0.9122   -0.5057    0.5571 C   0  0  1  0  0  3  0  0  0  0  0  0
   -4.3640   -1.3287   -0.3566 C   0  0  0  0  0  0  0  0  0  0  0  0
   -1.7550    3.0163    0.1045 C   0  0  0  0  0  0  0  0  0  0  0  0
   -1.9890   -1.0592   -1.3026 H   0  0  0  0  0  0  0  0  0  0  0  0
    0.7855    2.2512    1.7878 H   0  0  0  0  0  0  0  0  0  0  0  0
    2.1812    0.4025    2.7811 H   0  0  0  0  0  0  0  0  0  0  0  0
    1.6315   -2.0036    2.3055 H   0  0  0  0  0  0  0  0  0  0  0  0
   -0.3605   -2.6127    0.8714 H   0  0  0  0  0  0  0  0  0  0  0  0
   -4.8073   -0.3486   -0.6350 H   0  0  0  0  0  0  0  0  0  0  0  0
   -4.1782   -1.9116   -1.2889 H   0  0  0  0  0  0  0  0  0  0  0  0
   -5.0754   -1.8840    0.2824 H   0  0  0  0  0  0  0  0  0  0  0  0
   -2.5508    3.4943   -0.4814 H   0  0  0  0  0  0  0  0  0  0  0  0
   -1.0607    3.6456    0.6750 H   0  0  0  0  0  0  0  0  0  0  0  0
  1  3  1  0  0  0  0
  1  4  1  0  0  0  0
  3 13  1  6  0  0  0
  3  2  1  0  0  0  0
  3 10  1  0  0  0  0
  5  4  1  6  0  0  0
  5  6  1  0  0  0  0
  6 14  1  0  0  0  0
  6  7  1  0  0  0  0
  7 15  1  0  0  0  0
  8  7  1  0  0  0  0
  8 16  1  0  0  0  0
  9  8  1  0  0  0  0
 10  5  1  0  0  0  0
 10  9  1  1  0  0  0
 11 20  1  0  0  0  0
 11  2  1  0  0  0  0
 12  4  2  0  0  0  0
 12 22  1  0  0  0  0
 17  9  1  0  0  0  0
 18 11  1  0  0  0  0
 19 11  1  0  0  0  0
 21 12  1  0  0  0  0
M  END
