4,10,16
 OpenBabel05122313063D

 29 29  0  0  1  0  0  0  0  0999 V2000
   -2.8596   -0.1858   -0.0000 P   0  0  0  0  0  4  0  0  0  0  0  0
   -1.0838   -0.8546   -0.0001 C   0  0  1  0  0  0  0  0  0  0  0  0
   -1.3532   -2.2263   -0.0002 F   0  0  0  0  0  0  0  0  0  0  0  0
   -0.1778   -0.5236   -1.2021 C   0  0  1  0  0  3  0  0  0  0  0  0
   -0.4229   -1.4426   -2.2248 F   0  0  0  0  0  0  0  0  0  0  0  0
   -0.2303    0.8472   -1.7349 C   0  0  0  0  0  0  0  0  0  0  0  0
   -1.2233    1.1628   -2.6272 F   0  0  0  0  0  0  0  0  0  0  0  0
    0.5594    1.8040   -1.1998 C   0  0  0  0  0  0  0  0  0  0  0  0
    0.4206    3.1007   -1.5299 F   0  0  0  0  0  0  0  0  0  0  0  0
    1.3597    1.4184    0.0001 C   0  0  1  0  0  3  0  0  0  0  0  0
    2.6097    2.0448    0.0002 F   0  0  0  0  0  0  0  0  0  0  0  0
    0.5593    1.8038    1.1999 C   0  0  0  0  0  0  0  0  0  0  0  0
    0.4204    3.1005    1.5302 F   0  0  0  0  0  0  0  0  0  0  0  0
   -0.2304    0.8470    1.7350 C   0  0  0  0  0  0  0  0  0  0  0  0
   -1.2235    1.1626    2.6273 F   0  0  0  0  0  0  0  0  0  0  0  0
   -0.1779   -0.5238    1.2020 C   0  0  1  0  0  3  0  0  0  0  0  0
   -0.4230   -1.4429    2.2246 F   0  0  0  0  0  0  0  0  0  0  0  0
   -3.6536   -0.8336    1.4965 C   0  0  0  0  0  0  0  0  0  0  0  0
   -3.6539   -0.8335   -1.4964 C   0  0  0  0  0  0  0  0  0  0  0  0
   -2.9535    1.6260   -0.0001 C   0  0  0  0  0  0  0  0  0  0  0  0
   -4.7229   -0.5496    1.5422 H   0  0  0  0  0  0  0  0  0  0  0  0
   -3.1066   -0.4207    2.3664 H   0  0  0  0  0  0  0  0  0  0  0  0
   -3.5438   -1.9344    1.4943 H   0  0  0  0  0  0  0  0  0  0  0  0
   -4.7227   -0.5479   -1.5428 H   0  0  0  0  0  0  0  0  0  0  0  0
   -3.5458   -1.9346   -1.4934 H   0  0  0  0  0  0  0  0  0  0  0  0
   -3.1058   -0.4221   -2.3663 H   0  0  0  0  0  0  0  0  0  0  0  0
   -2.4543    2.0144   -0.9075 H   0  0  0  0  0  0  0  0  0  0  0  0
   -2.4543    2.0145    0.9073 H   0  0  0  0  0  0  0  0  0  0  0  0
   -4.0186    1.9317   -0.0001 H   0  0  0  0  0  0  0  0  0  0  0  0
  1 18  1  0  0  0  0
  2  3  1  6  0  0  0
  2  1  1  0  0  0  0
  2 16  1  0  0  0  0
  4  5  1  6  0  0  0
  4  2  1  0  0  0  0
  6  4  1  0  0  0  0
  6  8  2  0  0  0  0
  7  6  1  0  0  0  0
  8 10  1  0  0  0  0
  9  8  1  0  0  0  0
 10 11  1  1  0  0  0
 10 12  1  0  0  0  0
 12 13  1  0  0  0  0
 12 14  2  0  0  0  0
 14 15  1  0  0  0  0
 16 14  1  0  0  0  0
 16 17  1  1  0  0  0
 18 21  1  0  0  0  0
 18 22  1  0  0  0  0
 19 25  1  0  0  0  0
 19  1  1  0  0  0  0
 20 29  1  0  0  0  0
 20  1  1  0  0  0  0
 20 28  1  0  0  0  0
 23 18  1  0  0  0  0
 24 19  1  0  0  0  0
 26 19  1  0  0  0  0
 27 20  1  0  0  0  0
M  END
