2,6,10
 OpenBabel05122313063D

 30 30  0  0  0  0  0  0  0  0999 V2000
   -0.9451    1.4123    1.6060 C   0  0  0  0  0  3  0  0  0  0  0  0
   -1.3106    0.2392    2.2744 C   0  0  0  0  0  3  0  0  0  0  0  0
   -0.3211   -0.8258    2.6948 C   0  0  0  0  0  0  0  0  0  0  0  0
   -0.7670   -2.2081    2.1846 C   0  0  0  0  0  0  0  0  0  0  0  0
   -1.2807   -2.1307    0.7499 C   0  0  0  0  0  3  0  0  0  0  0  0
   -2.6284   -1.8754    0.4687 C   0  0  0  0  0  3  0  0  0  0  0  0
   -3.2754   -2.1319   -0.8753 C   0  0  0  0  0  0  0  0  0  0  0  0
   -4.0086   -0.8662   -1.3496 C   0  0  0  0  0  0  0  0  0  0  0  0
   -3.1467    0.3745   -1.1371 C   0  0  0  0  0  3  0  0  0  0  0  0
   -3.2529    1.1472    0.0248 C   0  0  0  0  0  3  0  0  0  0  0  0
   -2.6936    2.5428    0.1857 C   0  0  0  0  0  0  0  0  0  0  0  0
   -1.8760    2.6128    1.4872 C   0  0  0  0  0  0  0  0  0  0  0  0
    0.1274    1.5993    1.4480 H   0  0  0  0  0  0  0  0  0  0  0  0
   -2.3058    0.1987    2.7566 H   0  0  0  0  0  0  0  0  0  0  0  0
   -0.1922   -0.8423    3.8028 H   0  0  0  0  0  0  0  0  0  0  0  0
    0.6728   -0.5751    2.2681 H   0  0  0  0  0  0  0  0  0  0  0  0
   -1.5851   -2.5871    2.8365 H   0  0  0  0  0  0  0  0  0  0  0  0
    0.0623   -2.9421    2.2719 H   0  0  0  0  0  0  0  0  0  0  0  0
   -0.6740   -2.6248   -0.0284 H   0  0  0  0  0  0  0  0  0  0  0  0
   -3.3240   -1.7501    1.3204 H   0  0  0  0  0  0  0  0  0  0  0  0
   -3.9809   -2.9947   -0.8229 H   0  0  0  0  0  0  0  0  0  0  0  0
   -2.4921   -2.4119   -1.6091 H   0  0  0  0  0  0  0  0  0  0  0  0
   -4.9457   -0.7527   -0.7609 H   0  0  0  0  0  0  0  0  0  0  0  0
   -4.3182   -0.9625   -2.4121 H   0  0  0  0  0  0  0  0  0  0  0  0
   -2.7201    0.8476   -2.0389 H   0  0  0  0  0  0  0  0  0  0  0  0
   -3.9992    0.8407    0.7825 H   0  0  0  0  0  0  0  0  0  0  0  0
   -3.5068    3.3073    0.1918 H   0  0  0  0  0  0  0  0  0  0  0  0
   -2.0427    2.7788   -0.6820 H   0  0  0  0  0  0  0  0  0  0  0  0
   -1.3068    3.5649    1.5474 H   0  0  0  0  0  0  0  0  0  0  0  0
   -2.5774    2.6115    2.3509 H   0  0  0  0  0  0  0  0  0  0  0  0
  1  2  1  0  0  0  0
  2  3  1  0  0  0  0
  2 14  1  0  0  0  0
  3 15  1  0  0  0  0
  4 18  1  0  0  0  0
  4  3  1  0  0  0  0
  4 17  1  0  0  0  0
  5  4  1  0  0  0  0
  6  5  1  0  0  0  0
  6 20  1  0  0  0  0
  7 21  1  0  0  0  0
  7  6  1  0  0  0  0
  8  9  1  0  0  0  0
  8  7  1  0  0  0  0
  8 23  1  0  0  0  0
  9 10  1  0  0  0  0
 10 11  1  0  0  0  0
 10 26  1  0  0  0  0
 11 27  1  0  0  0  0
 11 12  1  0  0  0  0
 12 29  1  0  0  0  0
 12  1  1  0  0  0  0
 12 30  1  0  0  0  0
 13  1  1  0  0  0  0
 16  3  1  0  0  0  0
 19  5  1  0  0  0  0
 22  7  1  0  0  0  0
 24  8  1  0  0  0  0
 25  9  1  0  0  0  0
 28 11  1  0  0  0  0
M  END
