8,12,16
 OpenBabel05122313063D

 51 51  0  0  1  0  0  0  0  0999 V2000
    2.4779   -0.7189   -1.1259 P   0  0  0  0  0  0  0  0  0  0  0  0
   -1.1517    0.6998    3.0978 O   0  0  0  0  0  0  0  0  0  0  0  0
    1.0692    0.4395    2.3897 O   0  0  0  0  0  0  0  0  0  0  0  0
    3.6687    0.3860   -1.0416 O   0  0  0  0  0  0  0  0  0  0  0  0
    2.6814   -1.6865    0.1940 O   0  0  0  0  0  0  0  0  0  0  0  0
    2.4452   -1.4523   -2.4345 O   0  0  0  0  0  0  0  0  0  0  0  0
   -0.1670   -0.7019   -0.1926 C   0  0  2  0  0  3  0  0  0  0  0  0
   -0.6728   -1.7294   -1.0502 C   0  0  0  0  0  3  0  0  0  0  0  0
   -0.2153   -1.8429   -2.0441 H   0  0  0  0  0  0  0  0  0  0  0  0
   -1.7425   -2.5694   -0.6453 C   0  0  0  0  0  3  0  0  0  0  0  0
   -2.1443   -3.3229   -1.3351 H   0  0  0  0  0  0  0  0  0  0  0  0
   -2.3438   -2.3561    0.6278 C   0  0  0  0  0  3  0  0  0  0  0  0
   -3.2153   -2.9555    0.9274 H   0  0  0  0  0  0  0  0  0  0  0  0
   -1.8487   -1.3573    1.5043 C   0  0  0  0  0  3  0  0  0  0  0  0
   -2.3254   -1.1602    2.4717 H   0  0  0  0  0  0  0  0  0  0  0  0
   -0.7822   -0.5043    1.0877 C   0  0  1  0  0  3  0  0  0  0  0  0
    0.9495    0.1594   -0.6828 C   0  0  0  0  0  0  0  0  0  0  0  0
    0.8151    1.4581   -0.8953 C   0  0  0  0  0  0  0  0  0  0  0  0
    0.5917    2.7467   -1.0831 C   0  0  0  0  0  0  0  0  0  0  0  0
    0.7991    3.7499    0.0296 C   0  0  0  0  0  0  0  0  0  0  0  0
   -0.1803    4.1845    0.3241 H   0  0  0  0  0  0  0  0  0  0  0  0
    1.4417    4.5875   -0.3150 H   0  0  0  0  0  0  0  0  0  0  0  0
    1.2649    3.2950    0.9241 H   0  0  0  0  0  0  0  0  0  0  0  0
    0.0556    3.2650   -2.3972 C   0  0  0  0  0  0  0  0  0  0  0  0
    0.7451    4.0214   -2.8285 H   0  0  0  0  0  0  0  0  0  0  0  0
   -0.9205    3.7666   -2.2249 H   0  0  0  0  0  0  0  0  0  0  0  0
   -0.0990    2.4553   -3.1330 H   0  0  0  0  0  0  0  0  0  0  0  0
   -0.2816    0.6133    2.0028 C   0  0  0  0  0  0  0  0  0  0  0  0
   -0.2706    1.5704    1.4414 H   0  0  0  0  0  0  0  0  0  0  0  0
   -1.0605    1.9354    3.7909 C   0  0  0  0  0  0  0  0  0  0  0  0
   -1.7368    1.8719    4.6639 H   0  0  0  0  0  0  0  0  0  0  0  0
   -1.3863    2.7799    3.1413 H   0  0  0  0  0  0  0  0  0  0  0  0
   -0.0242    2.1288    4.1444 H   0  0  0  0  0  0  0  0  0  0  0  0
    1.3426   -0.7738    3.0831 C   0  0  0  0  0  0  0  0  0  0  0  0
    0.7058   -0.8753    3.9882 H   0  0  0  0  0  0  0  0  0  0  0  0
    2.4060   -0.7324    3.3838 H   0  0  0  0  0  0  0  0  0  0  0  0
    1.1990   -1.6593    2.4278 H   0  0  0  0  0  0  0  0  0  0  0  0
    3.9801    1.0335    0.2154 C   0  0  0  0  0  0  0  0  0  0  0  0
    3.0855    1.0408    0.8763 H   0  0  0  0  0  0  0  0  0  0  0  0
    4.7659    0.4341    0.7244 H   0  0  0  0  0  0  0  0  0  0  0  0
    4.4604    2.4409   -0.0765 C   0  0  0  0  0  0  0  0  0  0  0  0
    4.7453    2.9515    0.8654 H   0  0  0  0  0  0  0  0  0  0  0  0
    3.6608    3.0293   -0.5681 H   0  0  0  0  0  0  0  0  0  0  0  0
    5.3418    2.4263   -0.7476 H   0  0  0  0  0  0  0  0  0  0  0  0
    3.1466   -3.0439    0.0145 C   0  0  0  0  0  0  0  0  0  0  0  0
    3.3442   -3.2179   -1.0639 H   0  0  0  0  0  0  0  0  0  0  0  0
    4.1062   -3.1365    0.5663 H   0  0  0  0  0  0  0  0  0  0  0  0
    2.1109   -4.0210    0.5402 C   0  0  0  0  0  0  0  0  0  0  0  0
    2.4746   -5.0623    0.4259 H   0  0  0  0  0  0  0  0  0  0  0  0
    1.1590   -3.9218   -0.0188 H   0  0  0  0  0  0  0  0  0  0  0  0
    1.9004   -3.8460    1.6145 H   0  0  0  0  0  0  0  0  0  0  0  0
  1  4  1  0  0  0  0
  1 17  1  0  0  0  0
  1  5  1  0  0  0  0
  2 30  1  0  0  0  0
  3 34  1  0  0  0  0
  4 38  1  0  0  0  0
  6  1  2  0  0  0  0
  7 17  1  6  0  0  0
  7 16  1  0  0  0  0
  8 10  1  0  0  0  0
  8  7  1  0  0  0  0
  9  8  1  0  0  0  0
 10 12  1  0  0  0  0
 11 10  1  0  0  0  0
 12 13  1  0  0  0  0
 12 14  1  0  0  0  0
 14 15  1  0  0  0  0
 16 14  1  0  0  0  0
 16 28  1  1  0  0  0
 18 17  2  0  0  0  0
 19 18  2  0  0  0  0
 19 20  1  0  0  0  0
 20 21  1  0  0  0  0
 20 23  1  0  0  0  0
 22 20  1  0  0  0  0
 24 26  1  0  0  0  0
 24 19  1  0  0  0  0
 25 24  1  0  0  0  0
 27 24  1  0  0  0  0
 28  3  1  0  0  0  0
 28  2  1  0  0  0  0
 29 28  1  0  0  0  0
 30 33  1  0  0  0  0
 30 31  1  0  0  0  0
 32 30  1  0  0  0  0
 34 36  1  0  0  0  0
 34 35  1  0  0  0  0
 37 34  1  0  0  0  0
 38 40  1  0  0  0  0
 38 39  1  0  0  0  0
 41 38  1  0  0  0  0
 41 42  1  0  0  0  0
 43 41  1  0  0  0  0
 44 41  1  0  0  0  0
 45  5  1  0  0  0  0
 45 48  1  0  0  0  0
 45 47  1  0  0  0  0
 46 45  1  0  0  0  0
 48 51  1  0  0  0  0
 49 48  1  0  0  0  0
 50 48  1  0  0  0  0
M  END
