7,9,11
 OpenBabel05122313063D

 59 59  0  0  1  0  0  0  0  0999 V2000
    3.1122    0.0234    0.0680 Si  0  0  0  0  0  0  0  0  0  0  0  0
   -1.3139   -1.7425   -1.9714 O   0  0  0  0  0  0  0  0  0  0  0  0
   -2.6713    0.5013   -2.4086 O   0  0  0  0  0  0  0  0  0  0  0  0
   -2.6163    2.5541   -0.5491 O   0  0  0  0  0  0  0  0  0  0  0  0
    1.0174    2.0384   -2.3437 N   0  0  0  0  0  0  0  0  0  0  0  0
   -1.1320   -0.7627   -1.0620 C   0  0  1  0  0  3  0  0  0  0  0  0
   -1.9591    0.4059   -1.2619 C   0  0  1  0  0  3  0  0  0  0  0  0
   -1.8236    1.4857   -0.3120 C   0  0  2  0  0  3  0  0  0  0  0  0
   -1.0047    1.3011    0.8354 C   0  0  0  0  0  3  0  0  0  0  0  0
    0.2241    0.4185    0.7270 C   0  0  1  0  0  0  0  0  0  0  0  0
   -0.3247   -0.8498    0.1030 C   0  0  0  0  0  3  0  0  0  0  0  0
   -0.7402   -3.0178   -1.7181 C   0  0  0  0  0  0  0  0  0  0  0  0
   -4.0874    0.6391   -2.3096 C   0  0  0  0  0  0  0  0  0  0  0  0
   -2.6639    3.5947    0.4184 C   0  0  0  0  0  0  0  0  0  0  0  0
    1.4735    1.0824    0.0603 C   0  0  2  0  0  0  0  0  0  0  0  0
    1.2104    1.6175   -1.2642 C   0  0  0  0  0  0  0  0  0  0  0  0
    2.9659   -1.5234   -1.0554 C   0  0  0  0  0  0  0  0  0  0  0  0
    2.4846   -1.2155   -2.4817 C   0  0  0  0  0  0  0  0  0  0  0  0
    4.2805   -2.3234   -1.0742 C   0  0  0  0  0  0  0  0  0  0  0  0
    4.5232    1.1720   -0.5656 C   0  0  0  0  0  0  0  0  0  0  0  0
    5.9003    0.7592   -0.0146 C   0  0  0  0  0  0  0  0  0  0  0  0
    4.2804    2.6745   -0.3426 C   0  0  0  0  0  0  0  0  0  0  0  0
    3.4519   -0.5253    1.8779 C   0  0  0  0  0  0  0  0  0  0  0  0
    2.6447   -1.7436    2.3571 C   0  0  0  0  0  0  0  0  0  0  0  0
    3.3557    0.6444    2.8715 C   0  0  0  0  0  0  0  0  0  0  0  0
   -1.0320    2.0663    1.6238 H   0  0  0  0  0  0  0  0  0  0  0  0
    0.5388    0.1691    1.7582 H   0  0  0  0  0  0  0  0  0  0  0  0
    0.1738   -1.8039    0.3200 H   0  0  0  0  0  0  0  0  0  0  0  0
   -0.9973   -3.6457   -2.5901 H   0  0  0  0  0  0  0  0  0  0  0  0
    0.3648   -2.9603   -1.6236 H   0  0  0  0  0  0  0  0  0  0  0  0
   -1.1697   -3.4773   -0.8021 H   0  0  0  0  0  0  0  0  0  0  0  0
   -4.4718    0.6189   -3.3464 H   0  0  0  0  0  0  0  0  0  0  0  0
   -4.3787    1.5912   -1.8215 H   0  0  0  0  0  0  0  0  0  0  0  0
   -4.5186   -0.2106   -1.7362 H   0  0  0  0  0  0  0  0  0  0  0  0
   -3.3133    4.3796   -0.0095 H   0  0  0  0  0  0  0  0  0  0  0  0
   -1.6547    4.0181    0.6094 H   0  0  0  0  0  0  0  0  0  0  0  0
   -3.1066    3.2385    1.3732 H   0  0  0  0  0  0  0  0  0  0  0  0
    1.7459    1.9531    0.7004 H   0  0  0  0  0  0  0  0  0  0  0  0
    2.1963   -2.1590   -0.5615 H   0  0  0  0  0  0  0  0  0  0  0  0
    4.5303    0.9984   -1.6664 H   0  0  0  0  0  0  0  0  0  0  0  0
    4.5208   -0.8379    1.8389 H   0  0  0  0  0  0  0  0  0  0  0  0
    2.4554   -2.1431   -3.0942 H   0  0  0  0  0  0  0  0  0  0  0  0
    3.1630   -0.5072   -3.0013 H   0  0  0  0  0  0  0  0  0  0  0  0
    1.4743   -0.7641   -2.5068 H   0  0  0  0  0  0  0  0  0  0  0  0
    4.1522   -3.2796   -1.6256 H   0  0  0  0  0  0  0  0  0  0  0  0
    5.0866   -1.7623   -1.5909 H   0  0  0  0  0  0  0  0  0  0  0  0
    4.6468   -2.5746   -0.0575 H   0  0  0  0  0  0  0  0  0  0  0  0
    6.7094    1.3461   -0.5000 H   0  0  0  0  0  0  0  0  0  0  0  0
    5.9750    0.9513    1.0765 H   0  0  0  0  0  0  0  0  0  0  0  0
    6.1284   -0.3130   -0.1768 H   0  0  0  0  0  0  0  0  0  0  0  0
    5.1326    3.2688   -0.7371 H   0  0  0  0  0  0  0  0  0  0  0  0
    4.1899    2.9250    0.7360 H   0  0  0  0  0  0  0  0  0  0  0  0
    3.3684    3.0361   -0.8566 H   0  0  0  0  0  0  0  0  0  0  0  0
    2.9911   -2.0745    3.3598 H   0  0  0  0  0  0  0  0  0  0  0  0
    2.7449   -2.6115    1.6745 H   0  0  0  0  0  0  0  0  0  0  0  0
    1.5618   -1.5228    2.4573 H   0  0  0  0  0  0  0  0  0  0  0  0
    3.6837    0.3364    3.8875 H   0  0  0  0  0  0  0  0  0  0  0  0
    3.9828    1.5078    2.5694 H   0  0  0  0  0  0  0  0  0  0  0  0
    2.3127    1.0129    2.9734 H   0  0  0  0  0  0  0  0  0  0  0  0
  1 23  1  0  0  0  0
  2 12  1  0  0  0  0
  3 13  1  0  0  0  0
  4 14  1  0  0  0  0
  5 16  3  0  0  0  0
  6  2  1  1  0  0  0
  6 11  1  0  0  0  0
  7  3  1  6  0  0  0
  7  6  1  0  0  0  0
  7  8  1  0  0  0  0
  8  4  1  1  0  0  0
  8  9  1  0  0  0  0
  9 26  1  0  0  0  0
 10  9  1  0  0  0  0
 10 27  1  1  0  0  0
 11 28  1  0  0  0  0
 11 10  1  0  0  0  0
 12 30  1  0  0  0  0
 12 31  1  0  0  0  0
 13 33  1  0  0  0  0
 13 34  1  0  0  0  0
 14 36  1  0  0  0  0
 14 37  1  0  0  0  0
 15  1  1  0  0  0  0
 15 38  1  1  0  0  0
 15 10  1  0  0  0  0
 16 15  1  0  0  0  0
 17 39  1  0  0  0  0
 17  1  1  0  0  0  0
 18 17  1  0  0  0  0
 19 17  1  0  0  0  0
 19 47  1  0  0  0  0
 20 22  1  0  0  0  0
 20 21  1  0  0  0  0
 20  1  1  0  0  0  0
 21 49  1  0  0  0  0
 22 52  1  0  0  0  0
 23 24  1  0  0  0  0
 23 25  1  0  0  0  0
 24 56  1  0  0  0  0
 24 54  1  0  0  0  0
 25 59  1  0  0  0  0
 25 57  1  0  0  0  0
 29 12  1  0  0  0  0
 32 13  1  0  0  0  0
 35 14  1  0  0  0  0
 40 20  1  0  0  0  0
 41 23  1  0  0  0  0
 42 18  1  0  0  0  0
 43 18  1  0  0  0  0
 44 18  1  0  0  0  0
 45 19  1  0  0  0  0
 46 19  1  0  0  0  0
 48 21  1  0  0  0  0
 50 21  1  0  0  0  0
 51 22  1  0  0  0  0
 53 22  1  0  0  0  0
 55 24  1  0  0  0  0
 58 25  1  0  0  0  0
M  END
