3,7,11
 OpenBabel05122313063D

 38 40  0  0  0  0  0  0  0  0999 V2000
   -0.0295    0.8292   -2.2309 O   0  0  0  0  0  0  0  0  0  0  0  0
    1.4202   -0.8370   -1.3756 C   0  0  0  0  0  3  0  0  0  0  0  0
    2.5438   -0.1413   -1.9261 C   0  0  0  0  0  3  0  0  0  0  0  0
    2.3259    0.7643   -2.5107 H   0  0  0  0  0  0  0  0  0  0  0  0
    3.8705   -0.5761   -1.6872 C   0  0  0  0  0  3  0  0  0  0  0  0
    4.7212   -0.0041   -2.0811 H   0  0  0  0  0  0  0  0  0  0  0  0
    4.0929   -1.7008   -0.8404 C   0  0  0  0  0  3  0  0  0  0  0  0
    5.1204   -2.0009   -0.5903 H   0  0  0  0  0  0  0  0  0  0  0  0
    2.9973   -2.4271   -0.2998 C   0  0  0  0  0  3  0  0  0  0  0  0
    3.1746   -3.2772    0.3722 H   0  0  0  0  0  0  0  0  0  0  0  0
    1.6710   -1.9687   -0.5361 C   0  0  0  0  0  3  0  0  0  0  0  0
    0.8335   -2.4771   -0.0396 H   0  0  0  0  0  0  0  0  0  0  0  0
    0.0647   -0.1995   -1.5595 C   0  0  0  0  0  0  0  0  0  0  0  0
   -1.0965   -0.8618   -0.9215 C   0  0  0  0  0  0  0  0  0  0  0  0
   -1.0683   -1.9606   -0.8529 H   0  0  0  0  0  0  0  0  0  0  0  0
   -2.2106   -0.2203   -0.4425 C   0  0  0  0  0  0  0  0  0  0  0  0
   -2.2598    1.2549   -0.2704 C   0  0  0  0  0  0  0  0  0  0  0  0
   -3.3746    1.9971   -0.7185 C   0  0  0  0  0  0  0  0  0  0  0  0
   -4.2095    1.4743   -1.2089 H   0  0  0  0  0  0  0  0  0  0  0  0
   -3.4083    3.3898   -0.5651 C   0  0  0  0  0  0  0  0  0  0  0  0
   -4.2752    3.9585   -0.9344 H   0  0  0  0  0  0  0  0  0  0  0  0
   -2.3398    4.0580    0.0545 C   0  0  0  0  0  0  0  0  0  0  0  0
   -2.3687    5.1517    0.1752 H   0  0  0  0  0  0  0  0  0  0  0  0
   -1.2376    3.3258    0.5260 C   0  0  0  0  0  0  0  0  0  0  0  0
   -0.3949    3.8364    1.0154 H   0  0  0  0  0  0  0  0  0  0  0  0
   -1.2009    1.9362    0.3677 C   0  0  0  0  0  0  0  0  0  0  0  0
   -0.3473    1.3597    0.7514 H   0  0  0  0  0  0  0  0  0  0  0  0
   -3.3930   -1.0031   -0.0083 C   0  0  0  0  0  0  0  0  0  0  0  0
   -3.7538   -2.2068   -0.6598 C   0  0  0  0  0  0  0  0  0  0  0  0
   -3.1754   -2.5381   -1.5355 H   0  0  0  0  0  0  0  0  0  0  0  0
   -4.8580   -2.9525   -0.2303 C   0  0  0  0  0  0  0  0  0  0  0  0
   -5.1309   -3.8783   -0.7592 H   0  0  0  0  0  0  0  0  0  0  0  0
   -5.6256   -2.5129    0.8615 C   0  0  0  0  0  0  0  0  0  0  0  0
   -6.4946   -3.0986    1.1978 H   0  0  0  0  0  0  0  0  0  0  0  0
   -5.2845   -1.3172    1.5138 C   0  0  0  0  0  0  0  0  0  0  0  0
   -5.8802   -0.9668    2.3703 H   0  0  0  0  0  0  0  0  0  0  0  0
   -4.1852   -0.5652    1.0797 C   0  0  0  0  0  0  0  0  0  0  0  0
   -3.9169    0.3682    1.5957 H   0  0  0  0  0  0  0  0  0  0  0  0
  1 13  2  0  0  0  0
  2 11  1  0  0  0  0
  3  5  1  0  0  0  0
  3  2  1  0  0  0  0
  4  3  1  0  0  0  0
  5  7  1  0  0  0  0
  6  5  1  0  0  0  0
  7  8  1  0  0  0  0
  7  9  1  0  0  0  0
  9 10  1  0  0  0  0
 11  9  1  0  0  0  0
 11 12  1  0  0  0  0
 13  2  1  0  0  0  0
 13 14  1  0  0  0  0
 14 15  1  0  0  0  0
 14 16  2  0  0  0  0
 16 17  1  0  0  0  0
 16 28  1  0  0  0  0
 17 26  1  0  0  0  0
 18 20  1  0  0  0  0
 18 17  2  0  0  0  0
 19 18  1  0  0  0  0
 20 22  2  0  0  0  0
 21 20  1  0  0  0  0
 22 23  1  0  0  0  0
 22 24  1  0  0  0  0
 24 25  1  0  0  0  0
 26 24  2  0  0  0  0
 26 27  1  0  0  0  0
 28 37  1  0  0  0  0
 29 31  1  0  0  0  0
 29 28  2  0  0  0  0
 30 29  1  0  0  0  0
 31 33  2  0  0  0  0
 32 31  1  0  0  0  0
 33 34  1  0  0  0  0
 33 35  1  0  0  0  0
 35 36  1  0  0  0  0
 37 35  2  0  0  0  0
 37 38  1  0  0  0  0
M  END
