4,6,8
 OpenBabel05122313063D

 28 29  0  0  0  0  0  0  0  0999 V2000
   -6.5304   -0.3872    1.1598 O   0  0  0  0  0  0  0  0  0  0  0  0
   -5.8398   -1.9768   -0.1747 O   0  0  0  0  0  0  0  0  0  0  0  0
   -5.7185   -0.8824    0.3775 N   0  0  0  0  0  0  0  0  0  0  0  0
    0.4836   -0.5652   -0.1156 C   0  0  0  0  0  3  0  0  0  0  0  0
    1.1115   -1.8376   -0.0887 C   0  0  0  0  0  3  0  0  0  0  0  0
    2.2095   -2.0959   -0.9583 C   0  0  0  0  0  3  0  0  0  0  0  0
    2.6335   -1.1138   -1.8929 C   0  0  0  0  0  3  0  0  0  0  0  0
    1.9932    0.1564   -1.9071 C   0  0  0  0  0  3  0  0  0  0  0  0
    0.8713    0.4467   -1.0610 C   0  0  0  0  0  3  0  0  0  0  0  0
    0.2851    1.7913   -1.0767 C   0  0  0  0  0  0  0  0  0  0  0  0
   -0.9821    2.1833   -0.7631 C   0  0  0  0  0  0  0  0  0  0  0  0
   -2.1703    1.3689   -0.4787 C   0  0  0  0  0  0  0  0  0  0  0  0
   -2.4069    0.1161   -1.1031 C   0  0  0  0  0  0  0  0  0  0  0  0
   -3.5601   -0.6201   -0.8276 C   0  0  0  0  0  0  0  0  0  0  0  0
   -4.4972   -0.1009    0.0779 C   0  0  0  0  0  0  0  0  0  0  0  0
   -4.3140    1.1438    0.6947 C   0  0  0  0  0  0  0  0  0  0  0  0
   -3.1588    1.8738    0.4041 C   0  0  0  0  0  0  0  0  0  0  0  0
   -0.3058   -0.3383    0.6126 H   0  0  0  0  0  0  0  0  0  0  0  0
    0.8126   -2.5813    0.6617 H   0  0  0  0  0  0  0  0  0  0  0  0
    2.7474   -3.0520   -0.8891 H   0  0  0  0  0  0  0  0  0  0  0  0
    3.5003   -1.3007   -2.5403 H   0  0  0  0  0  0  0  0  0  0  0  0
    2.3629    0.9408   -2.5835 H   0  0  0  0  0  0  0  0  0  0  0  0
    0.9944    2.5889   -1.3550 H   0  0  0  0  0  0  0  0  0  0  0  0
   -1.1523    3.2726   -0.7176 H   0  0  0  0  0  0  0  0  0  0  0  0
   -1.6810   -0.2710   -1.8319 H   0  0  0  0  0  0  0  0  0  0  0  0
   -3.7640   -1.5879   -1.3045 H   0  0  0  0  0  0  0  0  0  0  0  0
   -5.0826    1.5127    1.3867 H   0  0  0  0  0  0  0  0  0  0  0  0
   -3.0028    2.8544    0.8790 H   0  0  0  0  0  0  0  0  0  0  0  0
  2  3  2  0  0  0  0
  3  1  2  0  0  0  0
  4  5  1  0  0  0  0
  4 18  1  0  0  0  0
  5 19  1  0  0  0  0
  6 20  1  0  0  0  0
  6  5  1  0  0  0  0
  7  6  1  0  0  0  0
  8  7  1  0  0  0  0
  8  9  1  0  0  0  0
  9  4  1  0  0  0  0
 10  9  1  0  0  0  0
 10 11  2  0  0  0  0
 11 24  1  0  0  0  0
 11 12  1  0  0  0  0
 12 17  1  0  0  0  0
 13 14  1  0  0  0  0
 13 12  2  0  0  0  0
 14 15  2  0  0  0  0
 15  3  1  0  0  0  0
 15 16  1  0  0  0  0
 16 27  1  0  0  0  0
 17 16  2  0  0  0  0
 17 28  1  0  0  0  0
 21  7  1  0  0  0  0
 22  8  1  0  0  0  0
 23 10  1  0  0  0  0
 25 13  1  0  0  0  0
 26 14  1  0  0  0  0
M  END
