5,17,25
 OpenBabel05122313063D

 36 36  0  0  1  0  0  0  0  0999 V2000
   -3.8784    0.4971    0.9604 O   0  0  0  0  0  0  0  0  0  0  0  0
   -4.0491   -1.7585    0.7416 O   0  0  0  0  0  0  0  0  0  0  0  0
   -1.3866    2.6355    0.3854 O   0  0  0  0  0  0  0  0  0  0  0  0
   -2.5385    1.6632   -1.3122 O   0  0  0  0  0  0  0  0  0  0  0  0
    0.2320   -1.9487    0.5916 C   0  0  0  0  0  3  0  0  0  0  0  0
    0.3165   -1.9435    1.6997 H   0  0  0  0  0  0  0  0  0  0  0  0
   -1.2754   -2.1401    0.2633 C   0  0  2  0  0  0  0  0  0  0  0  0
   -1.7200   -2.8614    0.9810 H   0  0  0  0  0  0  0  0  0  0  0  0
   -1.5562   -2.6841   -1.1583 C   0  0  0  0  0  0  0  0  0  0  0  0
   -1.0004   -3.6292   -1.3136 H   0  0  0  0  0  0  0  0  0  0  0  0
   -2.6293   -2.9551   -1.2134 H   0  0  0  0  0  0  0  0  0  0  0  0
   -1.2747   -1.6663   -2.2782 C   0  0  0  0  0  0  0  0  0  0  0  0
   -1.3465   -2.1786   -3.2654 H   0  0  0  0  0  0  0  0  0  0  0  0
   -2.0742   -0.8996   -2.2896 H   0  0  0  0  0  0  0  0  0  0  0  0
    0.0494   -0.9428   -2.2852 C   0  0  0  0  0  3  0  0  0  0  0  0
    0.0515   -0.0157   -2.8836 H   0  0  0  0  0  0  0  0  0  0  0  0
    1.2999   -1.4800   -1.9772 C   0  0  0  0  0  3  0  0  0  0  0  0
    2.1684   -0.9679   -2.4224 H   0  0  0  0  0  0  0  0  0  0  0  0
    1.5300   -2.8845   -1.4412 C   0  0  0  0  0  0  0  0  0  0  0  0
    2.5918   -3.1545   -1.6024 H   0  0  0  0  0  0  0  0  0  0  0  0
    0.9443   -3.5947   -2.0602 H   0  0  0  0  0  0  0  0  0  0  0  0
    1.1749   -3.0391    0.0631 C   0  0  0  0  0  0  0  0  0  0  0  0
    2.1131   -2.9886    0.6520 H   0  0  0  0  0  0  0  0  0  0  0  0
    0.7551   -4.0509    0.2587 H   0  0  0  0  0  0  0  0  0  0  0  0
   -1.1623    0.2647   -0.0317 C   0  0  0  0  0  2  0  0  0  0  0  0
   -1.9415   -0.7860    0.3538 C   0  0  1  0  0  3  0  0  0  0  0  0
   -3.3669   -0.5865    0.7034 C   0  0  0  0  0  0  0  0  0  0  0  0
   -5.4352   -1.6551    1.0999 C   0  0  0  0  0  0  0  0  0  0  0  0
   -5.5474   -1.1891    2.0991 H   0  0  0  0  0  0  0  0  0  0  0  0
   -5.8279   -2.6867    1.1055 H   0  0  0  0  0  0  0  0  0  0  0  0
   -5.9844   -1.0343    0.3642 H   0  0  0  0  0  0  0  0  0  0  0  0
   -1.7079    1.6357   -0.2484 C   0  0  0  0  0  0  0  0  0  0  0  0
   -3.2699    2.8823   -1.5082 C   0  0  0  0  0  0  0  0  0  0  0  0
   -3.9756    3.0268   -0.6660 H   0  0  0  0  0  0  0  0  0  0  0  0
   -3.8219    2.7605   -2.4564 H   0  0  0  0  0  0  0  0  0  0  0  0
   -2.5901    3.7561   -1.5612 H   0  0  0  0  0  0  0  0  0  0  0  0
  2 28  1  0  0  0  0
  4 32  1  0  0  0  0
  5  6  1  0  0  0  0
  7 26  1  0  0  0  0
  7  5  1  0  0  0  0
  7  8  1  1  0  0  0
  9  7  1  0  0  0  0
 10  9  1  0  0  0  0
 11  9  1  0  0  0  0
 12  9  1  0  0  0  0
 13 12  1  0  0  0  0
 14 12  1  0  0  0  0
 15 12  1  0  0  0  0
 15 17  1  0  0  0  0
 16 15  1  0  0  0  0
 17 19  1  0  0  0  0
 18 17  1  0  0  0  0
 19 22  1  0  0  0  0
 20 19  1  0  0  0  0
 21 19  1  0  0  0  0
 22 24  1  0  0  0  0
 22  5  1  0  0  0  0
 22 23  1  0  0  0  0
 26 25  1  6  0  0  0
 26 27  1  0  0  0  0
 27  2  1  0  0  0  0
 27  1  2  0  0  0  0
 28 30  1  0  0  0  0
 28 29  1  0  0  0  0
 31 28  1  0  0  0  0
 32 25  1  0  0  0  0
 32  3  2  0  0  0  0
 33  4  1  0  0  0  0
 33 34  1  0  0  0  0
 35 33  1  0  0  0  0
 36 33  1  0  0  0  0
M  END
