2,4,6
 OpenBabel05122313063D

 18 18  0  0  1  0  0  0  0  0999 V2000
    2.4991   -0.0003    1.0646 F   0  0  0  0  0  0  0  0  0  0  0  0
    1.6703   -0.0000    0.0024 C   0  0  2  0  0  3  0  0  0  0  0  0
    1.2550    1.2621   -0.5145 C   0  0  1  0  0  3  0  0  0  0  0  0
    0.3678    1.2274   -1.6342 C   0  0  0  0  0  3  0  0  0  0  0  0
   -0.0450    0.0006   -2.2222 C   0  0  0  0  0  3  0  0  0  0  0  0
    0.3678   -1.2266   -1.6348 C   0  0  0  0  0  3  0  0  0  0  0  0
    1.2551   -1.2619   -0.5151 C   0  0  2  0  0  3  0  0  0  0  0  0
    1.7349    2.5444    0.1041 C   0  0  0  0  0  0  0  0  0  0  0  0
    1.7350   -2.5443    0.1030 C   0  0  0  0  0  0  0  0  0  0  0  0
   -0.0115    2.1787   -2.0352 H   0  0  0  0  0  0  0  0  0  0  0  0
   -0.7526    0.0008   -3.0613 H   0  0  0  0  0  0  0  0  0  0  0  0
   -0.0115   -2.1777   -2.0363 H   0  0  0  0  0  0  0  0  0  0  0  0
    2.7245    2.8344   -0.3092 H   0  0  0  0  0  0  0  0  0  0  0  0
    1.8473    2.4426    1.1993 H   0  0  0  0  0  0  0  0  0  0  0  0
    1.0231    3.3660   -0.1011 H   0  0  0  0  0  0  0  0  0  0  0  0
    2.7260   -2.8326   -0.3082 H   0  0  0  0  0  0  0  0  0  0  0  0
    1.8446   -2.4438    1.1986 H   0  0  0  0  0  0  0  0  0  0  0  0
    1.0247   -3.3665   -0.1050 H   0  0  0  0  0  0  0  0  0  0  0  0
  2  1  1  1  0  0  0
  3  2  1  0  0  0  0
  3  8  1  1  0  0  0
  4  3  1  0  0  0  0
  5  6  1  0  0  0  0
  5  4  1  0  0  0  0
  6  7  1  0  0  0  0
  7  2  1  0  0  0  0
  7  9  1  1  0  0  0
  8 14  1  0  0  0  0
  9 17  1  0  0  0  0
 10  4  1  0  0  0  0
 11  5  1  0  0  0  0
 12  6  1  0  0  0  0
 13  8  1  0  0  0  0
 15  8  1  0  0  0  0
 16  9  1  0  0  0  0
 18  9  1  0  0  0  0
M  END
