18,20,22
 OpenBabel05122313063D

 41 43  0  0  1  0  0  0  0  0999 V2000
   -1.7040   -2.3950   -1.0049 O   0  0  0  0  0  0  0  0  0  0  0  0
   -2.6180   -1.3861   -0.4208 C   0  0  2  0  0  0  0  0  0  0  0  0
   -1.7890   -0.0962   -0.4615 C   0  0  0  0  0  0  0  0  0  0  0  0
   -0.5288   -0.3920   -0.9086 C   0  0  0  0  0  0  0  0  0  0  0  0
   -0.4949   -1.8419   -1.2922 C   0  0  0  0  0  0  0  0  0  0  0  0
    0.4078   -2.4752   -1.8027 O   0  0  0  0  0  0  0  0  0  0  0  0
   -2.9824   -1.7567    0.9242 N   0  0  0  0  0  0  0  0  0  0  0  0
   -3.8117   -1.2959   -1.3750 C   0  0  0  0  0  0  0  0  0  0  0  0
   -3.8382   -2.9338    1.0400 C   0  0  0  0  0  0  0  0  0  0  0  0
   -1.8643   -1.7988    1.8644 C   0  0  0  0  0  0  0  0  0  0  0  0
   -2.3890    1.2083   -0.1495 C   0  0  0  0  0  0  0  0  0  0  0  0
   -2.0401    2.3552   -0.9068 C   0  0  0  0  0  0  0  0  0  0  0  0
   -2.6198    3.5980   -0.6310 C   0  0  0  0  0  0  0  0  0  0  0  0
   -3.5615    3.7258    0.4049 C   0  0  0  0  0  0  0  0  0  0  0  0
   -3.9300    2.5951    1.1505 C   0  0  0  0  0  0  0  0  0  0  0  0
   -3.3593    1.3453    0.8737 C   0  0  0  0  0  0  0  0  0  0  0  0
    0.6684    0.4540   -0.9692 C   0  0  0  0  0  3  0  0  0  0  0  0
    0.8638    1.5267   -0.0267 C   0  0  0  0  0  3  0  0  0  0  0  0
    2.0373    2.3204   -0.0406 C   0  0  0  0  0  3  0  0  0  0  0  0
    3.0904    1.9994   -0.9460 C   0  0  0  0  0  3  0  0  0  0  0  0
    2.9375    0.9358   -1.8726 C   0  0  0  0  0  3  0  0  0  0  0  0
    1.7487    0.1518   -1.8599 C   0  0  0  0  0  3  0  0  0  0  0  0
   -1.3190    2.2574   -1.7314 H   0  0  0  0  0  0  0  0  0  0  0  0
   -2.3416    4.4747   -1.2354 H   0  0  0  0  0  0  0  0  0  0  0  0
   -4.0143    4.7049    0.6223 H   0  0  0  0  0  0  0  0  0  0  0  0
   -4.6737    2.6855    1.9568 H   0  0  0  0  0  0  0  0  0  0  0  0
   -3.6501    0.4483    1.4401 H   0  0  0  0  0  0  0  0  0  0  0  0
    0.0892    1.7265    0.7245 H   0  0  0  0  0  0  0  0  0  0  0  0
    2.1701    3.1161    0.7045 H   0  0  0  0  0  0  0  0  0  0  0  0
    4.0343    2.5613   -0.9075 H   0  0  0  0  0  0  0  0  0  0  0  0
    3.7616    0.6644   -2.5455 H   0  0  0  0  0  0  0  0  0  0  0  0
    1.6555   -0.7275   -2.5101 H   0  0  0  0  0  0  0  0  0  0  0  0
   -4.5846   -0.6216   -0.9602 H   0  0  0  0  0  0  0  0  0  0  0  0
   -4.2474   -2.2945   -1.5595 H   0  0  0  0  0  0  0  0  0  0  0  0
   -3.4711   -0.8894   -2.3455 H   0  0  0  0  0  0  0  0  0  0  0  0
   -4.7794   -2.7992    0.4755 H   0  0  0  0  0  0  0  0  0  0  0  0
   -4.1098   -3.0703    2.1052 H   0  0  0  0  0  0  0  0  0  0  0  0
   -3.3436   -3.8703    0.6865 H   0  0  0  0  0  0  0  0  0  0  0  0
   -1.3361   -0.8276    1.8953 H   0  0  0  0  0  0  0  0  0  0  0  0
   -2.2573   -1.9979    2.8804 H   0  0  0  0  0  0  0  0  0  0  0  0
   -1.1138   -2.5895    1.6257 H   0  0  0  0  0  0  0  0  0  0  0  0
  1  2  1  0  0  0  0
  2  8  1  6  0  0  0
  2  7  1  0  0  0  0
  3  2  1  0  0  0  0
  3 11  1  0  0  0  0
  4  3  2  0  0  0  0
  5  1  1  0  0  0  0
  5  4  1  0  0  0  0
  6  5  2  0  0  0  0
  7  9  1  0  0  0  0
  7 10  1  0  0  0  0
  8 33  1  0  0  0  0
  9 37  1  0  0  0  0
 10 39  1  0  0  0  0
 10 40  1  0  0  0  0
 11 16  1  0  0  0  0
 12 13  1  0  0  0  0
 12 11  2  0  0  0  0
 13 14  2  0  0  0  0
 14 25  1  0  0  0  0
 14 15  1  0  0  0  0
 15 26  1  0  0  0  0
 16 15  2  0  0  0  0
 16 27  1  0  0  0  0
 17  4  1  0  0  0  0
 17 18  1  0  0  0  0
 18 28  1  0  0  0  0
 19 18  1  0  0  0  0
 19 29  1  0  0  0  0
 20 30  1  0  0  0  0
 20 19  1  0  0  0  0
 21 22  1  0  0  0  0
 21 20  1  0  0  0  0
 22 17  1  0  0  0  0
 23 12  1  0  0  0  0
 24 13  1  0  0  0  0
 31 21  1  0  0  0  0
 32 22  1  0  0  0  0
 34  8  1  0  0  0  0
 35  8  1  0  0  0  0
 36  9  1  0  0  0  0
 38  9  1  0  0  0  0
 41 10  1  0  0  0  0
M  END
