3,8,12
 OpenBabel05122313063D

 35 36  0  0  1  0  0  0  0  0999 V2000
   -2.0941   -0.3132    0.2816 N   0  0  0  0  0  0  0  0  0  0  0  0
   -1.9260    3.6529    1.0671 N   0  0  0  0  0  0  0  0  0  0  0  0
    0.9438    1.2652   -1.3981 C   0  0  0  0  0  3  0  0  0  0  0  0
    0.7431    1.0725   -2.4628 H   0  0  0  0  0  0  0  0  0  0  0  0
   -3.2846    0.5594    0.4361 O   0  0  0  0  0  0  0  0  0  0  0  0
    2.1563    1.8943   -1.0217 C   0  0  0  0  0  3  0  0  0  0  0  0
    2.8910    2.1780   -1.7869 H   0  0  0  0  0  0  0  0  0  0  0  0
    2.4510    2.0783    0.3641 C   0  0  0  0  0  3  0  0  0  0  0  0
    3.4154    2.5111    0.6643 H   0  0  0  0  0  0  0  0  0  0  0  0
    1.5243    1.6630    1.3500 C   0  0  0  0  0  3  0  0  0  0  0  0
    1.7652    1.7703    2.4159 H   0  0  0  0  0  0  0  0  0  0  0  0
    0.3055    1.0323    0.9567 C   0  0  0  0  0  3  0  0  0  0  0  0
   -0.4097    0.6517    1.6984 H   0  0  0  0  0  0  0  0  0  0  0  0
   -0.0114    0.8497   -0.4124 C   0  0  0  0  0  3  0  0  0  0  0  0
   -1.3260    0.2173   -0.8610 C   0  0  2  0  0  0  0  0  0  0  0  0
   -1.0921   -0.5970   -1.5764 H   0  0  0  0  0  0  0  0  0  0  0  0
   -2.2542    1.2504   -1.5403 C   0  0  0  0  0  0  0  0  0  0  0  0
   -1.7076    2.0640   -2.0513 H   0  0  0  0  0  0  0  0  0  0  0  0
   -2.9255    0.7511   -2.2636 H   0  0  0  0  0  0  0  0  0  0  0  0
   -3.0851    1.7204   -0.3394 C   0  0  2  0  0  0  0  0  0  0  0  0
   -4.0918    2.0859   -0.6349 H   0  0  0  0  0  0  0  0  0  0  0  0
   -2.4248    2.8020    0.4357 C   0  0  0  0  0  0  0  0  0  0  0  0
   -2.6136   -1.7092    0.1665 C   0  0  0  0  0  0  0  0  0  0  0  0
   -1.3940   -2.6429    0.1364 C   0  0  0  0  0  0  0  0  0  0  0  0
   -0.7428   -2.4757    1.0147 H   0  0  0  0  0  0  0  0  0  0  0  0
   -0.7819   -2.5241   -0.7781 H   0  0  0  0  0  0  0  0  0  0  0  0
   -1.7451   -3.6931    0.1607 H   0  0  0  0  0  0  0  0  0  0  0  0
   -3.4233   -1.9899    1.4438 C   0  0  0  0  0  0  0  0  0  0  0  0
   -4.3152   -1.3395    1.5053 H   0  0  0  0  0  0  0  0  0  0  0  0
   -2.7973   -1.8089    2.3394 H   0  0  0  0  0  0  0  0  0  0  0  0
   -3.7553   -3.0467    1.4532 H   0  0  0  0  0  0  0  0  0  0  0  0
   -3.4945   -1.9216   -1.0791 C   0  0  0  0  0  0  0  0  0  0  0  0
   -4.3513   -1.2199   -1.0765 H   0  0  0  0  0  0  0  0  0  0  0  0
   -3.8982   -2.9531   -1.0927 H   0  0  0  0  0  0  0  0  0  0  0  0
   -2.9206   -1.7865   -2.0194 H   0  0  0  0  0  0  0  0  0  0  0  0
  1  5  1  0  0  0  0
  3  6  1  0  0  0  0
  3 14  1  0  0  0  0
  4  3  1  0  0  0  0
  6  8  1  0  0  0  0
  7  6  1  0  0  0  0
  8  9  1  0  0  0  0
  8 10  1  0  0  0  0
 10 11  1  0  0  0  0
 12 10  1  0  0  0  0
 12 13  1  0  0  0  0
 14 12  1  0  0  0  0
 15 16  1  6  0  0  0
 15 14  1  0  0  0  0
 15  1  1  0  0  0  0
 17 15  1  0  0  0  0
 17 20  1  0  0  0  0
 18 17  1  0  0  0  0
 19 17  1  0  0  0  0
 20 21  1  6  0  0  0
 20 22  1  0  0  0  0
 20  5  1  0  0  0  0
 22  2  3  0  0  0  0
 23  1  1  0  0  0  0
 23 28  1  0  0  0  0
 24 27  1  0  0  0  0
 24 23  1  0  0  0  0
 24 25  1  0  0  0  0
 26 24  1  0  0  0  0
 28 31  1  0  0  0  0
 28 29  1  0  0  0  0
 28 30  1  0  0  0  0
 32 33  1  0  0  0  0
 32 23  1  0  0  0  0
 34 32  1  0  0  0  0
 35 32  1  0  0  0  0
M  END
