1,4,8
 OpenBabel05122313063D

 29 30  0  0  1  0  0  0  0  0999 V2000
   -0.3046   -0.3098   -0.4497 C   0  0  0  0  0  3  0  0  0  0  0  0
    0.4829   -0.5441   -1.6189 C   0  0  0  0  0  3  0  0  0  0  0  0
    0.2812    0.0323   -2.5324 H   0  0  0  0  0  0  0  0  0  0  0  0
    1.5853   -1.4425   -1.5736 C   0  0  0  0  0  3  0  0  0  0  0  0
    2.2246   -1.5601   -2.4603 H   0  0  0  0  0  0  0  0  0  0  0  0
    1.8867   -2.1673   -0.3872 C   0  0  0  0  0  3  0  0  0  0  0  0
    2.7566   -2.8356   -0.3477 H   0  0  0  0  0  0  0  0  0  0  0  0
    1.1005   -1.9338    0.7757 C   0  0  0  0  0  3  0  0  0  0  0  0
    1.3622   -2.4352    1.7185 H   0  0  0  0  0  0  0  0  0  0  0  0
   -0.0030   -1.0373    0.7432 C   0  0  0  0  0  3  0  0  0  0  0  0
   -0.5895   -0.8480    1.6520 H   0  0  0  0  0  0  0  0  0  0  0  0
   -1.4661    0.6487   -0.4924 C   0  0  0  0  0  0  0  0  0  0  0  0
   -1.2220    1.4885   -1.1749 H   0  0  0  0  0  0  0  0  0  0  0  0
   -1.6139    1.0872    0.5152 H   0  0  0  0  0  0  0  0  0  0  0  0
   -2.7914   -0.0113   -0.9668 C   0  0  1  0  0  0  0  0  0  0  0  0
   -2.6076   -0.3696   -2.0054 H   0  0  0  0  0  0  0  0  0  0  0  0
   -3.1668   -1.2142   -0.1301 C   0  0  0  0  0  0  0  0  0  0  0  0
   -2.5438   -2.1175   -0.2407 H   0  0  0  0  0  0  0  0  0  0  0  0
   -4.2129   -1.2358    0.7223 C   0  0  0  0  0  0  0  0  0  0  0  0
   -4.4365   -2.1657    1.2732 H   0  0  0  0  0  0  0  0  0  0  0  0
   -5.1221   -0.0591    0.9572 C   0  0  0  0  0  0  0  0  0  0  0  0
   -6.1152   -0.2751    0.4969 H   0  0  0  0  0  0  0  0  0  0  0  0
   -5.3300    0.0461    2.0443 H   0  0  0  0  0  0  0  0  0  0  0  0
   -4.5452    1.2437    0.3889 C   0  0  0  0  0  0  0  0  0  0  0  0
   -5.3268    2.0295    0.3495 H   0  0  0  0  0  0  0  0  0  0  0  0
   -3.7587    1.6260    1.0756 H   0  0  0  0  0  0  0  0  0  0  0  0
   -3.9420    1.0151   -1.0024 C   0  0  0  0  0  0  0  0  0  0  0  0
   -3.5834    1.9711   -1.4378 H   0  0  0  0  0  0  0  0  0  0  0  0
   -4.7351    0.6352   -1.6822 H   0  0  0  0  0  0  0  0  0  0  0  0
  1 10  1  0  0  0  0
  2  4  1  0  0  0  0
  2  1  1  0  0  0  0
  3  2  1  0  0  0  0
  4  6  1  0  0  0  0
  5  4  1  0  0  0  0
  6  7  1  0  0  0  0
  6  8  1  0  0  0  0
  8  9  1  0  0  0  0
 10  8  1  0  0  0  0
 10 11  1  0  0  0  0
 12  1  1  0  0  0  0
 12 14  1  0  0  0  0
 13 12  1  0  0  0  0
 15 16  1  6  0  0  0
 15 12  1  0  0  0  0
 15 17  1  0  0  0  0
 17 19  2  0  0  0  0
 18 17  1  0  0  0  0
 19 21  1  0  0  0  0
 19 20  1  0  0  0  0
 21 23  1  0  0  0  0
 22 21  1  0  0  0  0
 24 21  1  0  0  0  0
 24 26  1  0  0  0  0
 25 24  1  0  0  0  0
 27 15  1  0  0  0  0
 27 24  1  0  0  0  0
 28 27  1  0  0  0  0
 29 27  1  0  0  0  0
M  END
