2,5,7
 OpenBabel05122313063D

 14 14  0  0  0  0  0  0  0  0999 V2000
    2.6713    1.3071    0.6007 C   0  0  0  0  0  3  0  0  0  0  0  0
    2.1374    1.6708   -0.6685 C   0  0  0  0  0  3  0  0  0  0  0  0
    1.8174    0.8201   -1.7832 C   0  0  0  0  0  0  0  0  0  0  0  0
    1.8217   -0.5932   -1.8439 C   0  0  0  0  0  0  0  0  0  0  0  0
    2.1516   -1.5352   -0.8078 C   0  0  0  0  0  3  0  0  0  0  0  0
    2.6859   -1.2770    0.4876 C   0  0  0  0  0  3  0  0  0  0  0  0
    2.8845   -0.0087    1.1095 C   0  0  0  0  0  3  0  0  0  0  0  0
    2.8196    2.1293    1.3167 H   0  0  0  0  0  0  0  0  0  0  0  0
    1.9606    2.7462   -0.8246 H   0  0  0  0  0  0  0  0  0  0  0  0
    1.3952    1.3313   -2.6627 H   0  0  0  0  0  0  0  0  0  0  0  0
    1.3964   -1.0297   -2.7613 H   0  0  0  0  0  0  0  0  0  0  0  0
    1.9875   -2.5956   -1.0564 H   0  0  0  0  0  0  0  0  0  0  0  0
    2.8434   -2.1567    1.1296 H   0  0  0  0  0  0  0  0  0  0  0  0
    3.1455   -0.0543    2.1784 H   0  0  0  0  0  0  0  0  0  0  0  0
  1  7  1  0  0  0  0
  1  8  1  0  0  0  0
  2  1  1  0  0  0  0
  3  2  1  0  0  0  0
  4  3  2  0  0  0  0
  4  5  1  0  0  0  0
  5  6  1  0  0  0  0
  6  7  1  0  0  0  0
  6 13  1  0  0  0  0
  7 14  1  0  0  0  0
  9  2  1  0  0  0  0
 10  3  1  0  0  0  0
 11  4  1  0  0  0  0
 12  5  1  0  0  0  0
M  END
