8,12,16
 OpenBabel05122313063D

 35 34  0  0  0  0  0  0  0  0999 V2000
   -0.6676   -2.3398    0.7575 N   0  0  0  0  0  2  0  0  0  0  0  0
   -0.6672    0.5144   -2.4053 N   0  0  0  0  0  2  0  0  0  0  0  0
   -0.6667    1.8265    1.6481 N   0  0  0  0  0  2  0  0  0  0  0  0
   -3.1205    0.0001    0.0002 C   0  0  0  0  0  0  0  0  0  0  0  0
   -3.6317   -1.4382    0.2491 C   0  0  0  0  0  0  0  0  0  0  0  0
   -3.0400   -2.2112    1.4429 C   0  0  0  0  0  0  0  0  0  0  0  0
   -1.8091   -3.0818    1.1305 C   0  0  0  0  0  0  0  0  0  0  0  0
    0.1880   -1.5514    0.4967 C   0  0  0  0  0  1  0  0  0  0  0  0
   -3.6316    0.5035   -1.3699 C   0  0  0  0  0  0  0  0  0  0  0  0
   -3.0396   -0.1442   -2.6359 C   0  0  0  0  0  0  0  0  0  0  0  0
   -1.8090    0.5619   -3.2341 C   0  0  0  0  0  0  0  0  0  0  0  0
    0.1885    0.3462   -1.5923 C   0  0  0  0  0  1  0  0  0  0  0  0
   -3.6312    0.9350    1.1212 C   0  0  0  0  0  0  0  0  0  0  0  0
   -3.0391    2.3552    1.1928 C   0  0  0  0  0  0  0  0  0  0  0  0
   -1.8086    2.5205    2.1035 C   0  0  0  0  0  0  0  0  0  0  0  0
    0.1887    1.2062    1.0958 C   0  0  0  0  0  1  0  0  0  0  0  0
   -2.0118   -0.0001    0.0001 H   0  0  0  0  0  0  0  0  0  0  0  0
   -3.4863   -2.0486   -0.6686 H   0  0  0  0  0  0  0  0  0  0  0  0
   -4.7349   -1.3720    0.3803 H   0  0  0  0  0  0  0  0  0  0  0  0
   -3.8071   -2.9046    1.8463 H   0  0  0  0  0  0  0  0  0  0  0  0
   -2.7846   -1.5227    2.2762 H   0  0  0  0  0  0  0  0  0  0  0  0
   -1.5569   -3.7000    2.0206 H   0  0  0  0  0  0  0  0  0  0  0  0
   -2.0550   -3.7977    0.3134 H   0  0  0  0  0  0  0  0  0  0  0  0
   -3.4863    1.6035   -1.4399 H   0  0  0  0  0  0  0  0  0  0  0  0
   -4.7348    0.3566   -1.3781 H   0  0  0  0  0  0  0  0  0  0  0  0
   -3.8068   -0.1474   -3.4381 H   0  0  0  0  0  0  0  0  0  0  0  0
   -2.7840   -1.2099   -2.4559 H   0  0  0  0  0  0  0  0  0  0  0  0
   -1.5569    0.1001   -4.2144 H   0  0  0  0  0  0  0  0  0  0  0  0
   -2.0552    1.6274   -3.4456 H   0  0  0  0  0  0  0  0  0  0  0  0
   -3.4856    0.4458    2.1089 H   0  0  0  0  0  0  0  0  0  0  0  0
   -4.7344    1.0157    0.9986 H   0  0  0  0  0  0  0  0  0  0  0  0
   -3.8062    3.0518    1.5907 H   0  0  0  0  0  0  0  0  0  0  0  0
   -2.7831    2.7316    0.1798 H   0  0  0  0  0  0  0  0  0  0  0  0
   -1.5566    3.6004    2.1936 H   0  0  0  0  0  0  0  0  0  0  0  0
   -2.0549    2.1710    3.1320 H   0  0  0  0  0  0  0  0  0  0  0  0
  1  7  1  0  0  0  0
  2 12  1  0  0  0  0
  3 15  1  0  0  0  0
  4  5  1  0  0  0  0
  4 13  1  0  0  0  0
  5 19  1  0  0  0  0
  5  6  1  0  0  0  0
  6 20  1  0  0  0  0
  6 21  1  0  0  0  0
  7  6  1  0  0  0  0
  7 22  1  0  0  0  0
  8  1  1  0  0  0  0
  9  4  1  0  0  0  0
 10 27  1  0  0  0  0
 10  9  1  0  0  0  0
 11 10  1  0  0  0  0
 11  2  1  0  0  0  0
 13 14  1  0  0  0  0
 13 30  1  0  0  0  0
 14 32  1  0  0  0  0
 14 15  1  0  0  0  0
 15 34  1  0  0  0  0
 15 35  1  0  0  0  0
 16  3  1  0  0  0  0
 17  4  1  0  0  0  0
 18  5  1  0  0  0  0
 23  7  1  0  0  0  0
 24  9  1  0  0  0  0
 25  9  1  0  0  0  0
 26 10  1  0  0  0  0
 28 11  1  0  0  0  0
 29 11  1  0  0  0  0
 31 13  1  0  0  0  0
 33 14  1  0  0  0  0
M  END
