8,12,16
 OpenBabel05122313063D

 34 33  0  0  0  0  0  0  0  0999 V2000
    0.6892   -2.0992   -1.2025 N   0  0  0  0  0  2  0  0  0  0  0  0
    0.6892    0.0096    2.4184 N   0  0  0  0  0  2  0  0  0  0  0  0
    0.6764    2.0966   -1.2264 N   0  0  0  0  0  2  0  0  0  0  0  0
    3.1785    0.0015   -0.0019 N   0  0  0  0  0  0  0  0  0  0  0  0
    3.6729   -1.2230   -0.6448 C   0  0  0  0  0  0  0  0  0  0  0  0
    2.9892   -1.6201   -1.9647 C   0  0  0  0  0  0  0  0  0  0  0  0
    1.8314   -2.6266   -1.8406 C   0  0  0  0  0  0  0  0  0  0  0  0
   -0.1827   -1.4001   -0.7857 C   0  0  0  0  0  1  0  0  0  0  0  0
    3.6697    0.0617    1.3809 C   0  0  0  0  0  0  0  0  0  0  0  0
    2.9898   -0.8886    2.3820 C   0  0  0  0  0  0  0  0  0  0  0  0
    1.8308   -0.2832    3.1941 C   0  0  0  0  0  0  0  0  0  0  0  0
   -0.1823    0.0213    1.6041 C   0  0  0  0  0  1  0  0  0  0  0  0
    3.6571    1.1740   -0.7455 C   0  0  0  0  0  0  0  0  0  0  0  0
    2.9709    2.5115   -0.4148 C   0  0  0  0  0  0  0  0  0  0  0  0
    1.8175    2.9176   -1.3496 C   0  0  0  0  0  0  0  0  0  0  0  0
   -0.1908    1.3822   -0.8251 C   0  0  0  0  0  1  0  0  0  0  0  0
    3.5590   -2.0611    0.0730 H   0  0  0  0  0  0  0  0  0  0  0  0
    4.7805   -1.1342   -0.8187 H   0  0  0  0  0  0  0  0  0  0  0  0
    3.7457   -2.0933   -2.6245 H   0  0  0  0  0  0  0  0  0  0  0  0
    2.6233   -0.7228   -2.5047 H   0  0  0  0  0  0  0  0  0  0  0  0
    1.5416   -2.9794   -2.8556 H   0  0  0  0  0  0  0  0  0  0  0  0
    2.1763   -3.5295   -1.2872 H   0  0  0  0  0  0  0  0  0  0  0  0
    3.5462    1.1014    1.7475 H   0  0  0  0  0  0  0  0  0  0  0  0
    4.7788   -0.1241    1.3939 H   0  0  0  0  0  0  0  0  0  0  0  0
    3.7471   -1.2249    3.1203 H   0  0  0  0  0  0  0  0  0  0  0  0
    2.6253   -1.8034    1.8712 H   0  0  0  0  0  0  0  0  0  0  0  0
    1.5403   -0.9907    4.0027 H   0  0  0  0  0  0  0  0  0  0  0  0
    2.1745    0.6447    3.7050 H   0  0  0  0  0  0  0  0  0  0  0  0
    3.5278    0.9730   -1.8287 H   0  0  0  0  0  0  0  0  0  0  0  0
    4.7666    1.2847   -0.5980 H   0  0  0  0  0  0  0  0  0  0  0  0
    3.7261    3.3222   -0.4780 H   0  0  0  0  0  0  0  0  0  0  0  0
    2.5973    2.5142    0.6297 H   0  0  0  0  0  0  0  0  0  0  0  0
    1.5243    3.9697   -1.1357 H   0  0  0  0  0  0  0  0  0  0  0  0
    2.1672    2.9038   -2.4068 H   0  0  0  0  0  0  0  0  0  0  0  0
  1  8  1  0  0  0  0
  2 11  1  0  0  0  0
  3 16  1  0  0  0  0
  4  9  1  0  0  0  0
  5  4  1  0  0  0  0
  5 17  1  0  0  0  0
  6  7  1  0  0  0  0
  6  5  1  0  0  0  0
  7 22  1  0  0  0  0
  7  1  1  0  0  0  0
  9 24  1  0  0  0  0
  9 23  1  0  0  0  0
  9 10  1  0  0  0  0
 10 25  1  0  0  0  0
 10 11  1  0  0  0  0
 11 28  1  0  0  0  0
 11 27  1  0  0  0  0
 12  2  1  0  0  0  0
 13 30  1  0  0  0  0
 13 14  1  0  0  0  0
 13  4  1  0  0  0  0
 14 32  1  0  0  0  0
 15  3  1  0  0  0  0
 15 33  1  0  0  0  0
 15 14  1  0  0  0  0
 18  5  1  0  0  0  0
 19  6  1  0  0  0  0
 20  6  1  0  0  0  0
 21  7  1  0  0  0  0
 26 10  1  0  0  0  0
 29 13  1  0  0  0  0
 31 14  1  0  0  0  0
 34 15  1  0  0  0  0
M  END
