30,32,34
 OpenBabel05122313063D

 57 58  0  0  1  0  0  0  0  0999 V2000
    0.1892   -0.0135   -0.5120 O   0  0  0  0  0  0  0  0  0  0  0  0
   -0.3500    2.1578   -0.0663 O   0  0  0  0  0  0  0  0  0  0  0  0
    2.3696    2.8973   -0.5049 O   0  0  0  0  0  0  0  0  0  0  0  0
    4.1039    0.5922    0.4347 O   0  0  0  0  0  0  0  0  0  0  0  0
    3.3391   -1.7923   -0.9488 O   0  0  0  0  0  0  0  0  0  0  0  0
    0.3454   -2.8223    0.2292 O   0  0  0  0  0  0  0  0  0  0  0  0
    3.2769    3.3799    1.5278 O   0  0  0  0  0  0  0  0  0  0  0  0
    5.2780    1.9314   -0.9863 O   0  0  0  0  0  0  0  0  0  0  0  0
    3.7620   -2.6768    1.1118 O   0  0  0  0  0  0  0  0  0  0  0  0
    1.5782   -4.6494   -0.3503 O   0  0  0  0  0  0  0  0  0  0  0  0
    0.5801    1.3439   -0.6906 C   0  0  1  0  0  0  0  0  0  0  0  0
    1.9479    1.6055   -0.0515 C   0  0  1  0  0  0  0  0  0  0  0  0
    2.9844    0.5449   -0.4606 C   0  0  2  0  0  0  0  0  0  0  0  0
    2.4092   -0.8667   -0.3770 C   0  0  1  0  0  0  0  0  0  0  0  0
    1.0731   -0.9448   -1.1293 C   0  0  1  0  0  0  0  0  0  0  0  0
    0.4315   -2.3224   -1.1149 C   0  0  0  0  0  0  0  0  0  0  0  0
    3.0629    3.6855    0.3715 C   0  0  0  0  0  0  0  0  0  0  0  0
    3.5601    4.9207   -0.3289 C   0  0  0  0  0  0  0  0  0  0  0  0
    5.1832    1.3505    0.0777 C   0  0  0  0  0  0  0  0  0  0  0  0
    6.1738    1.3940    1.2090 C   0  0  0  0  0  0  0  0  0  0  0  0
    3.9379   -2.6829   -0.0900 C   0  0  0  0  0  0  0  0  0  0  0  0
    4.7625   -3.6794   -0.8543 C   0  0  0  0  0  0  0  0  0  0  0  0
    1.0019   -3.9927    0.4971 C   0  0  0  0  0  0  0  0  0  0  0  0
    0.9597   -4.3093    1.9662 C   0  0  0  0  0  0  0  0  0  0  0  0
    0.0861   -3.8511    2.4633 H   0  0  0  0  0  0  0  0  0  0  0  0
    1.8863   -3.8870    2.4085 H   0  0  0  0  0  0  0  0  0  0  0  0
    0.9751   -5.4042    2.1118 H   0  0  0  0  0  0  0  0  0  0  0  0
   -1.6657    2.1086   -0.6259 C   0  0  0  0  0  0  0  0  0  0  0  0
   -2.6681    1.5915    0.3875 C   0  0  0  0  0  3  0  0  0  0  0  0
   -3.9033    2.2637    0.6015 C   0  0  0  0  0  3  0  0  0  0  0  0
   -4.8721    1.7634    1.5226 C   0  0  0  0  0  3  0  0  0  0  0  0
   -4.6120    0.5522    2.2126 C   0  0  0  0  0  3  0  0  0  0  0  0
   -3.3759   -0.1338    2.0230 C   0  0  0  0  0  3  0  0  0  0  0  0
   -2.4276    0.3704    1.0970 C   0  0  0  0  0  3  0  0  0  0  0  0
    0.6410    1.5542   -1.7934 H   0  0  0  0  0  0  0  0  0  0  0  0
    1.8401    1.6090    1.0527 H   0  0  0  0  0  0  0  0  0  0  0  0
    3.3379    0.7615   -1.4915 H   0  0  0  0  0  0  0  0  0  0  0  0
    2.2413   -1.1344    0.6858 H   0  0  0  0  0  0  0  0  0  0  0  0
    1.2320   -0.6669   -2.2012 H   0  0  0  0  0  0  0  0  0  0  0  0
    1.0270   -3.0275   -1.7267 H   0  0  0  0  0  0  0  0  0  0  0  0
   -0.5978   -2.2450   -1.5170 H   0  0  0  0  0  0  0  0  0  0  0  0
    2.8047    5.3176   -1.0322 H   0  0  0  0  0  0  0  0  0  0  0  0
    4.4501    4.6242   -0.9222 H   0  0  0  0  0  0  0  0  0  0  0  0
    3.8528    5.6824    0.4142 H   0  0  0  0  0  0  0  0  0  0  0  0
    7.1557    1.7356    0.8385 H   0  0  0  0  0  0  0  0  0  0  0  0
    6.2512    0.4115    1.7108 H   0  0  0  0  0  0  0  0  0  0  0  0
    5.7877    2.1210    1.9537 H   0  0  0  0  0  0  0  0  0  0  0  0
    5.1569   -3.2545   -1.7948 H   0  0  0  0  0  0  0  0  0  0  0  0
    5.5765   -4.0604   -0.2127 H   0  0  0  0  0  0  0  0  0  0  0  0
    4.0861   -4.5241   -1.1023 H   0  0  0  0  0  0  0  0  0  0  0  0
   -1.9529    3.1356   -0.9373 H   0  0  0  0  0  0  0  0  0  0  0  0
   -1.6732    1.4606   -1.5265 H   0  0  0  0  0  0  0  0  0  0  0  0
   -4.1244    3.1760    0.0276 H   0  0  0  0  0  0  0  0  0  0  0  0
   -5.8336    2.2790    1.6454 H   0  0  0  0  0  0  0  0  0  0  0  0
   -5.3767    0.1282    2.8787 H   0  0  0  0  0  0  0  0  0  0  0  0
   -3.1876   -1.0866    2.5354 H   0  0  0  0  0  0  0  0  0  0  0  0
   -1.4951   -0.1775    0.9004 H   0  0  0  0  0  0  0  0  0  0  0  0
  3 12  1  0  0  0  0
  3 17  1  0  0  0  0
  5 14  1  0  0  0  0
  5 21  1  0  0  0  0
  6 23  1  0  0  0  0
  8 19  2  0  0  0  0
 10 23  2  0  0  0  0
 11 35  1  6  0  0  0
 11  1  1  0  0  0  0
 11  2  1  0  0  0  0
 11 12  1  0  0  0  0
 12 36  1  1  0  0  0
 13 37  1  6  0  0  0
 13 14  1  0  0  0  0
 13 12  1  0  0  0  0
 13  4  1  0  0  0  0
 14 38  1  1  0  0  0
 15 39  1  6  0  0  0
 15 16  1  0  0  0  0
 15  1  1  0  0  0  0
 15 14  1  0  0  0  0
 16  6  1  0  0  0  0
 17  7  2  0  0  0  0
 18 17  1  0  0  0  0
 18 44  1  0  0  0  0
 19  4  1  0  0  0  0
 19 20  1  0  0  0  0
 20 46  1  0  0  0  0
 20 47  1  0  0  0  0
 21  9  2  0  0  0  0
 22 49  1  0  0  0  0
 22 21  1  0  0  0  0
 23 24  1  0  0  0  0
 24 27  1  0  0  0  0
 24 26  1  0  0  0  0
 24 25  1  0  0  0  0
 28  2  1  0  0  0  0
 28 29  1  0  0  0  0
 29 30  1  0  0  0  0
 29 34  1  0  0  0  0
 30 31  1  0  0  0  0
 31 54  1  0  0  0  0
 31 32  1  0  0  0  0
 32 55  1  0  0  0  0
 33 32  1  0  0  0  0
 33 56  1  0  0  0  0
 34 33  1  0  0  0  0
 40 16  1  0  0  0  0
 41 16  1  0  0  0  0
 42 18  1  0  0  0  0
 43 18  1  0  0  0  0
 45 20  1  0  0  0  0
 48 22  1  0  0  0  0
 50 22  1  0  0  0  0
 51 28  1  0  0  0  0
 52 28  1  0  0  0  0
 53 30  1  0  0  0  0
 57 34  1  0  0  0  0
M  END
