1,9,11
q = 0.0, confidence = 0.998

 24 24  0  0  1  0  0  0  0  0999 V2000
   -0.9041    1.1084   -1.1458 C   0  0  0  0  0  3  0  0  0  0  0  0
   -1.4031   -0.2228   -1.1652 C   0  0  2  0  0  3  0  0  0  0  0  0
   -3.6656    0.4892   -0.9328 C   0  0  0  0  0  0  0  0  0  0  0  0
   -3.6558    1.2633   -1.7306 H   0  0  0  0  0  0  0  0  0  0  0  0
   -3.4805    0.9657    0.0533 H   0  0  0  0  0  0  0  0  0  0  0  0
   -4.6554   -0.0017   -0.9194 H   0  0  0  0  0  0  0  0  0  0  0  0
   -2.7173   -0.5403   -1.1880 O   0  0  0  0  0  0  0  0  0  0  0  0
   -1.5581    1.9858   -1.1120 H   0  0  0  0  0  0  0  0  0  0  0  0
    1.4127    0.2295   -1.1447 C   0  0  0  0  0  3  0  0  0  0  0  0
    0.5094    1.3273   -1.1640 C   0  0  2  0  0  3  0  0  0  0  0  0
   -0.5068   -1.3375   -1.1460 C   0  0  0  0  0  3  0  0  0  0  0  0
    0.8956   -1.1041   -1.1642 C   0  0  2  0  0  3  0  0  0  0  0  0
    2.4995    0.3572   -1.1101 H   0  0  0  0  0  0  0  0  0  0  0  0
    1.8278   -2.0833   -1.1855 O   0  0  0  0  0  0  0  0  0  0  0  0
    1.4099   -3.4194   -0.9315 C   0  0  0  0  0  0  0  0  0  0  0  0
    0.7362   -3.7978   -1.7307 H   0  0  0  0  0  0  0  0  0  0  0  0
    0.9026   -3.4975    0.0535 H   0  0  0  0  0  0  0  0  0  0  0  0
    2.3299   -4.0311   -0.9162 H   0  0  0  0  0  0  0  0  0  0  0  0
   -0.9396   -2.3426   -1.1124 H   0  0  0  0  0  0  0  0  0  0  0  0
    0.8917    2.6241   -1.1859 O   0  0  0  0  0  0  0  0  0  0  0  0
    2.2576    2.9301   -0.9309 C   0  0  0  0  0  0  0  0  0  0  0  0
    2.9226    2.5361   -1.7299 H   0  0  0  0  0  0  0  0  0  0  0  0
    2.5784    2.5294    0.0541 H   0  0  0  0  0  0  0  0  0  0  0  0
    2.3274    4.0326   -0.9152 H   0  0  0  0  0  0  0  0  0  0  0  0
  1  8  1  0  0  0  0
  2  7  1  1  0  0  0
  2 11  1  0  0  0  0
  2  1  1  0  0  0  0
  3  6  1  0  0  0  0
  3  5  1  0  0  0  0
  4  3  1  0  0  0  0
  7  3  1  0  0  0  0
  9 13  1  0  0  0  0
 10 20  1  1  0  0  0
 10  1  1  0  0  0  0
 10  9  1  0  0  0  0
 11 19  1  0  0  0  0
 12 14  1  1  0  0  0
 12 11  1  0  0  0  0
 12  9  1  0  0  0  0
 14 15  1  0  0  0  0
 15 18  1  0  0  0  0
 15 17  1  0  0  0  0
 16 15  1  0  0  0  0
 20 21  1  0  0  0  0
 21 24  1  0  0  0  0
 21 23  1  0  0  0  0
 22 21  1  0  0  0  0
M  END
