2,18,25
 OpenBabel05122313063D

 78 80  0  0  1  0  0  0  0  0999 V2000
    2.2043   -0.0745    0.0411 P   0  0  0  0  0  4  0  0  0  0  0  0
   -1.1796   -1.1583    0.8213 C   0  0  0  0  0  3  0  0  0  0  0  0
   -1.5403   -2.1515    1.1356 H   0  0  0  0  0  0  0  0  0  0  0  0
   -0.9774   -0.4553    1.6398 H   0  0  0  0  0  0  0  0  0  0  0  0
   -0.4773   -1.0938   -0.4241 C   0  0  2  0  0  3  0  0  0  0  0  0
   -0.2480   -2.4011   -1.1641 C   0  0  0  0  0  0  0  0  0  0  0  0
    0.7634   -2.8042   -0.9259 H   0  0  0  0  0  0  0  0  0  0  0  0
   -0.3257   -2.3085   -2.2643 H   0  0  0  0  0  0  0  0  0  0  0  0
   -1.0009   -3.1512   -0.8700 H   0  0  0  0  0  0  0  0  0  0  0  0
    0.5198    0.0193   -0.7484 C   0  0  2  0  0  0  0  0  0  0  0  0
    0.1339    0.9452   -0.2498 H   0  0  0  0  0  0  0  0  0  0  0  0
    0.6359    0.2985   -2.2715 C   0  0  0  0  0  0  0  0  0  0  0  0
    1.5806    0.8245   -2.5219 H   0  0  0  0  0  0  0  0  0  0  0  0
    0.6770   -0.6655   -2.8154 H   0  0  0  0  0  0  0  0  0  0  0  0
   -0.5452    1.1258   -2.7998 C   0  0  0  0  0  0  0  0  0  0  0  0
   -0.3863    1.2878   -3.8907 H   0  0  0  0  0  0  0  0  0  0  0  0
   -0.5070    2.1304   -2.3330 H   0  0  0  0  0  0  0  0  0  0  0  0
   -1.8976    0.4979   -2.5591 C   0  0  0  0  0  3  0  0  0  0  0  0
   -2.1064   -0.4396   -3.1071 H   0  0  0  0  0  0  0  0  0  0  0  0
   -3.0246    1.3009   -2.1527 C   0  0  2  0  0  3  0  0  0  0  0  0
   -2.9660    2.8050   -2.0412 C   0  0  0  0  0  0  0  0  0  0  0  0
   -3.0939    3.2343   -3.0589 H   0  0  0  0  0  0  0  0  0  0  0  0
   -2.0186    3.1778   -1.6132 H   0  0  0  0  0  0  0  0  0  0  0  0
   -3.7849    3.1827   -1.4011 H   0  0  0  0  0  0  0  0  0  0  0  0
   -4.2115    0.6141   -1.7643 C   0  0  0  0  0  3  0  0  0  0  0  0
   -4.5313   -0.3135   -2.2645 H   0  0  0  0  0  0  0  0  0  0  0  0
   -5.0106    1.2229   -1.3110 H   0  0  0  0  0  0  0  0  0  0  0  0
    3.0920    1.5236   -0.3558 C   0  0  0  0  0  0  0  0  0  0  0  0
    3.5356    1.3241   -1.3588 H   0  0  0  0  0  0  0  0  0  0  0  0
    4.2495    1.8446    0.6161 C   0  0  0  0  0  0  0  0  0  0  0  0
    3.8321    2.0344    1.6280 H   0  0  0  0  0  0  0  0  0  0  0  0
    4.9418    0.9864    0.7156 H   0  0  0  0  0  0  0  0  0  0  0  0
    5.0225    3.0907    0.1593 C   0  0  0  0  0  0  0  0  0  0  0  0
    5.5142    2.8776   -0.8165 H   0  0  0  0  0  0  0  0  0  0  0  0
    5.8388    3.3033    0.8805 H   0  0  0  0  0  0  0  0  0  0  0  0
    4.0969    4.3025    0.0117 C   0  0  0  0  0  0  0  0  0  0  0  0
    3.6946    4.5786    1.0120 H   0  0  0  0  0  0  0  0  0  0  0  0
    4.6659    5.1835   -0.3506 H   0  0  0  0  0  0  0  0  0  0  0  0
    2.9313    3.9888   -0.9313 C   0  0  0  0  0  0  0  0  0  0  0  0
    3.3246    3.8253   -1.9603 H   0  0  0  0  0  0  0  0  0  0  0  0
    2.2361    4.8506   -0.9976 H   0  0  0  0  0  0  0  0  0  0  0  0
    2.1503    2.7430   -0.4910 C   0  0  0  0  0  0  0  0  0  0  0  0
    1.3377    2.5437   -1.2122 H   0  0  0  0  0  0  0  0  0  0  0  0
    1.6437    2.9379    0.4770 H   0  0  0  0  0  0  0  0  0  0  0  0
    2.1283   -0.2346    1.8879 C   0  0  0  0  0  0  0  0  0  0  0  0
    3.1914   -0.0906    2.1898 H   0  0  0  0  0  0  0  0  0  0  0  0
    1.7093   -1.6498    2.3484 C   0  0  0  0  0  0  0  0  0  0  0  0
    0.7254   -1.9072    1.9122 H   0  0  0  0  0  0  0  0  0  0  0  0
    2.4322   -2.4029    1.9731 H   0  0  0  0  0  0  0  0  0  0  0  0
    1.6243   -1.7382    3.8786 C   0  0  0  0  0  0  0  0  0  0  0  0
    1.2674   -2.7494    4.1637 H   0  0  0  0  0  0  0  0  0  0  0  0
    2.6442   -1.6305    4.3140 H   0  0  0  0  0  0  0  0  0  0  0  0
    0.7132   -0.6518    4.4589 C   0  0  0  0  0  0  0  0  0  0  0  0
   -0.3235   -0.7896    4.0799 H   0  0  0  0  0  0  0  0  0  0  0  0
    0.6595   -0.7431    5.5633 H   0  0  0  0  0  0  0  0  0  0  0  0
    1.2221    0.7370    4.0619 C   0  0  0  0  0  0  0  0  0  0  0  0
    2.2288    0.8974    4.5117 H   0  0  0  0  0  0  0  0  0  0  0  0
    0.5634    1.5303    4.4705 H   0  0  0  0  0  0  0  0  0  0  0  0
    1.3057    0.8998    2.5385 C   0  0  0  0  0  0  0  0  0  0  0  0
    1.7681    1.8784    2.2976 H   0  0  0  0  0  0  0  0  0  0  0  0
    0.2825    0.9495    2.1107 H   0  0  0  0  0  0  0  0  0  0  0  0
    3.2366   -1.5084   -0.5466 C   0  0  0  0  0  0  0  0  0  0  0  0
    2.5976   -2.3743   -0.2602 H   0  0  0  0  0  0  0  0  0  0  0  0
    3.4286   -1.5643   -2.0745 C   0  0  0  0  0  0  0  0  0  0  0  0
    2.4550   -1.4963   -2.5918 H   0  0  0  0  0  0  0  0  0  0  0  0
    4.0304   -0.6881   -2.4044 H   0  0  0  0  0  0  0  0  0  0  0  0
    4.1388   -2.8618   -2.4892 C   0  0  0  0  0  0  0  0  0  0  0  0
    3.4658   -3.7201   -2.2686 H   0  0  0  0  0  0  0  0  0  0  0  0
    4.2932   -2.8635   -3.5879 H   0  0  0  0  0  0  0  0  0  0  0  0
    5.4688   -3.0560   -1.7542 C   0  0  0  0  0  0  0  0  0  0  0  0
    6.1838   -2.2638   -2.0717 H   0  0  0  0  0  0  0  0  0  0  0  0
    5.9307   -4.0242   -2.0375 H   0  0  0  0  0  0  0  0  0  0  0  0
    5.2759   -2.9775   -0.2360 C   0  0  0  0  0  0  0  0  0  0  0  0
    6.2488   -3.0702    0.2895 H   0  0  0  0  0  0  0  0  0  0  0  0
    4.6521   -3.8335    0.1057 H   0  0  0  0  0  0  0  0  0  0  0  0
    4.5925   -1.6647    0.1739 C   0  0  0  0  0  0  0  0  0  0  0  0
    5.2545   -0.8170   -0.1050 H   0  0  0  0  0  0  0  0  0  0  0  0
    4.4708   -1.6274    1.2750 H   0  0  0  0  0  0  0  0  0  0  0  0
  1 45  1  0  0  0  0
  2  3  1  0  0  0  0
  2  4  1  0  0  0  0
  5  2  1  1  0  0  0
  6  7  1  0  0  0  0
  6  9  1  0  0  0  0
  6  5  1  0  0  0  0
  8  6  1  0  0  0  0
 10  5  1  0  0  0  0
 10 11  1  1  0  0  0
 10  1  1  0  0  0  0
 12 10  1  0  0  0  0
 13 12  1  0  0  0  0
 14 12  1  0  0  0  0
 15 18  1  0  0  0  0
 15 17  1  0  0  0  0
 15 12  1  0  0  0  0
 16 15  1  0  0  0  0
 19 18  1  0  0  0  0
 20 18  1  1  0  0  0
 20 21  1  0  0  0  0
 20 25  1  0  0  0  0
 21 23  1  0  0  0  0
 21 24  1  0  0  0  0
 22 21  1  0  0  0  0
 25 27  1  0  0  0  0
 26 25  1  0  0  0  0
 28  1  1  0  0  0  0
 28 30  1  0  0  0  0
 29 28  1  0  0  0  0
 30 32  1  0  0  0  0
 30 31  1  0  0  0  0
 33 30  1  0  0  0  0
 33 35  1  0  0  0  0
 34 33  1  0  0  0  0
 36 33  1  0  0  0  0
 36 37  1  0  0  0  0
 38 36  1  0  0  0  0
 39 42  1  0  0  0  0
 39 36  1  0  0  0  0
 40 39  1  0  0  0  0
 41 39  1  0  0  0  0
 42 28  1  0  0  0  0
 42 44  1  0  0  0  0
 43 42  1  0  0  0  0
 45 46  1  0  0  0  0
 45 47  1  0  0  0  0
 45 59  1  0  0  0  0
 47 50  1  0  0  0  0
 48 47  1  0  0  0  0
 49 47  1  0  0  0  0
 50 51  1  0  0  0  0
 50 52  1  0  0  0  0
 50 53  1  0  0  0  0
 53 55  1  0  0  0  0
 54 53  1  0  0  0  0
 56 53  1  0  0  0  0
 56 58  1  0  0  0  0
 56 57  1  0  0  0  0
 59 56  1  0  0  0  0
 60 59  1  0  0  0  0
 61 59  1  0  0  0  0
 62 63  1  0  0  0  0
 62  1  1  0  0  0  0
 62 76  1  0  0  0  0
 64 62  1  0  0  0  0
 65 64  1  0  0  0  0
 66 64  1  0  0  0  0
 67 68  1  0  0  0  0
 67 64  1  0  0  0  0
 67 70  1  0  0  0  0
 69 67  1  0  0  0  0
 70 73  1  0  0  0  0
 71 70  1  0  0  0  0
 72 70  1  0  0  0  0
 73 75  1  0  0  0  0
 73 76  1  0  0  0  0
 73 74  1  0  0  0  0
 76 78  1  0  0  0  0
 77 76  1  0  0  0  0
M  END
