24,28,32
 OpenBabel05122313063D

 33 35  0  0  1  0  0  0  0  0999 V2000
    1.6740   -3.1207    0.7524 F   0  0  0  0  0  0  0  0  0  0  0  0
    3.4139   -1.8639    0.3686 F   0  0  0  0  0  0  0  0  0  0  0  0
    2.1070   -2.4574   -1.2845 F   0  0  0  0  0  0  0  0  0  0  0  0
    1.3559   -0.4927    1.6252 O   0  0  0  0  0  0  0  0  0  0  0  0
    1.2691   -0.8086    0.2416 C   0  0  1  0  0  0  0  0  0  0  0  0
    1.9636    0.8003    1.8575 C   0  0  1  0  0  0  0  0  0  0  0  0
    2.9293    0.6206    2.3871 H   0  0  0  0  0  0  0  0  0  0  0  0
    2.2335    1.3377    0.4772 C   0  0  0  0  0  0  0  0  0  0  0  0
    2.7748    2.5692    0.0918 C   0  0  0  0  0  0  0  0  0  0  0  0
    3.0435    3.3261    0.8443 H   0  0  0  0  0  0  0  0  0  0  0  0
    2.9733    2.8211   -1.2752 C   0  0  0  0  0  0  0  0  0  0  0  0
    3.3901    3.7870   -1.5975 H   0  0  0  0  0  0  0  0  0  0  0  0
    2.6598    1.8427   -2.2340 C   0  0  0  0  0  0  0  0  0  0  0  0
    2.8457    2.0415   -3.2998 H   0  0  0  0  0  0  0  0  0  0  0  0
    2.1148    0.6083   -1.8445 C   0  0  0  0  0  0  0  0  0  0  0  0
    1.9099   -0.1646   -2.5982 H   0  0  0  0  0  0  0  0  0  0  0  0
    1.8743    0.3810   -0.4826 C   0  0  0  0  0  0  0  0  0  0  0  0
    1.0614    1.6664    2.7269 C   0  0  0  0  0  0  0  0  0  0  0  0
    0.8045    1.1361    3.6643 H   0  0  0  0  0  0  0  0  0  0  0  0
    0.1261    1.9236    2.1966 H   0  0  0  0  0  0  0  0  0  0  0  0
    1.5847    2.6060    2.9964 H   0  0  0  0  0  0  0  0  0  0  0  0
    2.1325   -2.0843    0.0227 C   0  0  0  0  0  0  0  0  0  0  0  0
   -0.1829   -1.1471   -0.1155 C   0  0  0  0  0  3  0  0  0  0  0  0
   -0.6960   -1.0607   -1.4505 C   0  0  0  0  0  3  0  0  0  0  0  0
   -0.0679   -0.6592   -2.2540 H   0  0  0  0  0  0  0  0  0  0  0  0
   -2.0318   -1.4281   -1.7382 C   0  0  0  0  0  3  0  0  0  0  0  0
   -2.4238   -1.3103   -2.7572 H   0  0  0  0  0  0  0  0  0  0  0  0
   -2.8903   -1.8729   -0.6851 C   0  0  0  0  0  3  0  0  0  0  0  0
   -3.9436   -2.1032   -0.8968 H   0  0  0  0  0  0  0  0  0  0  0  0
   -2.3941   -1.9741    0.6361 C   0  0  0  0  0  3  0  0  0  0  0  0
   -3.0598   -2.2769    1.4555 H   0  0  0  0  0  0  0  0  0  0  0  0
   -1.0455   -1.5993    0.9181 C   0  0  0  0  0  3  0  0  0  0  0  0
   -0.6604   -1.6121    1.9455 H   0  0  0  0  0  0  0  0  0  0  0  0
  3 22  1  0  0  0  0
  4  6  1  0  0  0  0
  5 22  1  6  0  0  0
  5  4  1  0  0  0  0
  6  7  1  1  0  0  0
  6 18  1  0  0  0  0
  8  6  1  0  0  0  0
  9  8  1  0  0  0  0
  9 10  1  0  0  0  0
 11  9  2  0  0  0  0
 12 11  1  0  0  0  0
 13 15  2  0  0  0  0
 13 11  1  0  0  0  0
 14 13  1  0  0  0  0
 15 17  1  0  0  0  0
 16 15  1  0  0  0  0
 17  5  1  0  0  0  0
 17  8  2  0  0  0  0
 18 21  1  0  0  0  0
 18 19  1  0  0  0  0
 20 18  1  0  0  0  0
 22  2  1  0  0  0  0
 22  1  1  0  0  0  0
 23  5  1  0  0  0  0
 23 32  1  0  0  0  0
 24 23  1  0  0  0  0
 25 24  1  0  0  0  0
 26 24  1  0  0  0  0
 26 28  1  0  0  0  0
 27 26  1  0  0  0  0
 28 30  1  0  0  0  0
 29 28  1  0  0  0  0
 30 32  1  0  0  0  0
 30 31  1  0  0  0  0
 32 33  1  0  0  0  0
M  END
