14,16,18
 OpenBabel05122313063D

 64 68  0  0  0  0  0  0  0  0999 V2000
   -1.8722    0.8724   -0.3563 C   0  0  0  0  0  0  0  0  0  0  0  0
   -0.7886    0.9139    0.5226 C   0  0  0  0  0  0  0  0  0  0  0  0
   -0.1235    2.1475    0.8578 C   0  0  0  0  0  0  0  0  0  0  0  0
   -0.6603    3.3299    0.3365 C   0  0  0  0  0  0  0  0  0  0  0  0
   -1.7605    3.3396   -0.5587 C   0  0  0  0  0  0  0  0  0  0  0  0
   -2.2736    4.5522   -1.1094 C   0  0  0  0  0  0  0  0  0  0  0  0
   -3.3412    4.5349   -1.9933 C   0  0  0  0  0  0  0  0  0  0  0  0
   -3.9373    3.2994   -2.3651 C   0  0  0  0  0  0  0  0  0  0  0  0
   -3.4625    2.1031   -1.8464 C   0  0  0  0  0  0  0  0  0  0  0  0
   -2.3705    2.0877   -0.9315 C   0  0  0  0  0  0  0  0  0  0  0  0
    1.0407    2.2546    1.7505 C   0  0  0  0  0  0  0  0  0  0  0  0
    2.1241    1.4526    1.9704 C   0  0  0  0  0  0  0  0  0  0  0  0
    2.5567    0.2160    1.3211 C   0  0  0  0  0  3  0  0  0  0  0  0
    3.5014   -0.6299    1.9945 C   0  0  0  0  0  3  0  0  0  0  0  0
    3.9770   -1.8370    1.4134 C   0  0  0  0  0  3  0  0  0  0  0  0
    3.5723   -2.1778    0.0947 C   0  0  0  0  0  3  0  0  0  0  0  0
    2.6526   -1.3528   -0.6108 C   0  0  0  0  0  3  0  0  0  0  0  0
    2.1898   -0.1528   -0.0156 C   0  0  0  0  0  3  0  0  0  0  0  0
   -0.5609   -0.5499    2.4187 C   0  0  0  0  0  0  0  0  0  0  0  0
   -1.6578   -2.6102    2.1027 C   0  0  0  0  0  0  0  0  0  0  0  0
   -2.5067   -0.4388   -0.6694 C   0  0  0  0  0  0  0  0  0  0  0  0
   -3.7058   -0.7904   -0.0353 C   0  0  0  0  0  0  0  0  0  0  0  0
   -4.3069   -2.0628   -0.2649 C   0  0  0  0  0  0  0  0  0  0  0  0
   -3.7145   -2.9577   -1.1411 C   0  0  0  0  0  0  0  0  0  0  0  0
   -2.5110   -2.6361   -1.8299 C   0  0  0  0  0  0  0  0  0  0  0  0
   -1.8930   -3.5417   -2.7419 C   0  0  0  0  0  0  0  0  0  0  0  0
   -0.7305   -3.1970   -3.4140 C   0  0  0  0  0  0  0  0  0  0  0  0
   -0.1434   -1.9196   -3.2016 C   0  0  0  0  0  0  0  0  0  0  0  0
   -0.7116   -1.0206   -2.3113 C   0  0  0  0  0  0  0  0  0  0  0  0
   -1.9012   -1.3490   -1.5926 C   0  0  0  0  0  0  0  0  0  0  0  0
   -5.5575   -0.0206    1.2998 C   0  0  0  0  0  0  0  0  0  0  0  0
   -4.9935   -0.8234    3.4439 C   0  0  0  0  0  0  0  0  0  0  0  0
   -0.3176   -0.2688    1.0411 O   0  0  0  0  0  0  0  0  0  0  0  0
   -1.7220   -1.2870    2.6201 O   0  0  0  0  0  0  0  0  0  0  0  0
   -4.2291    0.1437    0.8144 O   0  0  0  0  0  0  0  0  0  0  0  0
   -5.7078   -1.0406    2.2296 O   0  0  0  0  0  0  0  0  0  0  0  0
   -0.1897    4.2898    0.6026 H   0  0  0  0  0  0  0  0  0  0  0  0
   -1.8007    5.5039   -0.8208 H   0  0  0  0  0  0  0  0  0  0  0  0
   -3.7265    5.4764   -2.4128 H   0  0  0  0  0  0  0  0  0  0  0  0
   -4.7799    3.2929   -3.0732 H   0  0  0  0  0  0  0  0  0  0  0  0
   -3.9196    1.1460   -2.1373 H   0  0  0  0  0  0  0  0  0  0  0  0
    1.0489    3.1964    2.3264 H   0  0  0  0  0  0  0  0  0  0  0  0
    2.8184    1.8005    2.7542 H   0  0  0  0  0  0  0  0  0  0  0  0
    3.8619   -0.3306    2.9896 H   0  0  0  0  0  0  0  0  0  0  0  0
    4.7118   -2.4541    1.9471 H   0  0  0  0  0  0  0  0  0  0  0  0
    3.9877   -3.0721   -0.3908 H   0  0  0  0  0  0  0  0  0  0  0  0
    2.3548   -1.6030   -1.6369 H   0  0  0  0  0  0  0  0  0  0  0  0
    1.5503    0.5227   -0.5966 H   0  0  0  0  0  0  0  0  0  0  0  0
    0.3408   -1.1128    2.7578 H   0  0  0  0  0  0  0  0  0  0  0  0
   -0.6725    0.3919    2.9932 H   0  0  0  0  0  0  0  0  0  0  0  0
   -2.6352   -3.0860    2.3050 H   0  0  0  0  0  0  0  0  0  0  0  0
   -0.8508   -3.1962    2.6023 H   0  0  0  0  0  0  0  0  0  0  0  0
   -1.4790   -2.6103    1.0069 H   0  0  0  0  0  0  0  0  0  0  0  0
   -5.2072   -2.3457    0.2956 H   0  0  0  0  0  0  0  0  0  0  0  0
   -4.1734   -3.9450   -1.3062 H   0  0  0  0  0  0  0  0  0  0  0  0
   -2.3648   -4.5230   -2.9081 H   0  0  0  0  0  0  0  0  0  0  0  0
   -0.2677   -3.9029   -4.1198 H   0  0  0  0  0  0  0  0  0  0  0  0
    0.7636   -1.6378   -3.7592 H   0  0  0  0  0  0  0  0  0  0  0  0
   -0.2627   -0.0280   -2.1607 H   0  0  0  0  0  0  0  0  0  0  0  0
   -6.2480   -0.2541    0.4603 H   0  0  0  0  0  0  0  0  0  0  0  0
   -5.7983    0.9769    1.7354 H   0  0  0  0  0  0  0  0  0  0  0  0
   -5.2519   -1.6590    4.1215 H   0  0  0  0  0  0  0  0  0  0  0  0
   -5.3038    0.1351    3.9234 H   0  0  0  0  0  0  0  0  0  0  0  0
   -3.8953   -0.8052    3.2775 H   0  0  0  0  0  0  0  0  0  0  0  0
  1  2  1  0  0  0  0
  2  3  2  0  0  0  0
  2 33  1  0  0  0  0
  3 11  1  0  0  0  0
  4 37  1  0  0  0  0
  4  3  1  0  0  0  0
  5  4  2  0  0  0  0
  6 38  1  0  0  0  0
  6  5  1  0  0  0  0
  7  6  2  0  0  0  0
  8  7  1  0  0  0  0
  8  9  2  0  0  0  0
  9 10  1  0  0  0  0
 10  5  1  0  0  0  0
 10  1  2  0  0  0  0
 11 12  2  0  0  0  0
 11 42  1  0  0  0  0
 12 43  1  0  0  0  0
 13 12  1  0  0  0  0
 13 14  1  0  0  0  0
 14 44  1  0  0  0  0
 15 45  1  0  0  0  0
 15 14  1  0  0  0  0
 16 15  1  0  0  0  0
 17 18  1  0  0  0  0
 17 16  1  0  0  0  0
 18 13  1  0  0  0  0
 19 34  1  0  0  0  0
 19 49  1  0  0  0  0
 19 50  1  0  0  0  0
 20 51  1  0  0  0  0
 20 52  1  0  0  0  0
 20 34  1  0  0  0  0
 21  1  1  0  0  0  0
 21 22  1  0  0  0  0
 22 35  1  0  0  0  0
 23 22  2  0  0  0  0
 23 54  1  0  0  0  0
 24 23  1  0  0  0  0
 25 30  1  0  0  0  0
 25 24  2  0  0  0  0
 26 25  1  0  0  0  0
 27 28  1  0  0  0  0
 27 26  2  0  0  0  0
 28 29  2  0  0  0  0
 29 59  1  0  0  0  0
 29 30  1  0  0  0  0
 30 21  2  0  0  0  0
 31 61  1  0  0  0  0
 31 36  1  0  0  0  0
 32 63  1  0  0  0  0
 32 62  1  0  0  0  0
 33 19  1  0  0  0  0
 35 31  1  0  0  0  0
 36 32  1  0  0  0  0
 39  7  1  0  0  0  0
 40  8  1  0  0  0  0
 41  9  1  0  0  0  0
 46 16  1  0  0  0  0
 47 17  1  0  0  0  0
 48 18  1  0  0  0  0
 53 20  1  0  0  0  0
 55 24  1  0  0  0  0
 56 26  1  0  0  0  0
 57 27  1  0  0  0  0
 58 28  1  0  0  0  0
 60 31  1  0  0  0  0
 64 32  1  0  0  0  0
M  END
