3,15,21
 OpenBabel05122313063D

 31 31  0  0  1  0  0  0  0  0999 V2000
    5.1843   -0.1680   -0.2491 O   0  0  0  0  0  0  0  0  0  0  0  0
    2.8919   -0.2364   -0.2297 N   0  0  0  0  0  0  0  0  0  0  0  0
    1.6518   -0.8515    0.0341 C   0  0  0  0  0  2  0  0  0  0  0  0
    1.6695   -2.2554    0.2673 C   0  0  0  0  0  0  0  0  0  0  0  0
    0.7022   -2.7489    0.4324 H   0  0  0  0  0  0  0  0  0  0  0  0
    2.8600   -2.9654    0.2983 C   0  0  0  0  0  0  0  0  0  0  0  0
    2.8602   -4.0510    0.4834 H   0  0  0  0  0  0  0  0  0  0  0  0
    4.0897   -2.2960    0.1201 C   0  0  0  0  0  0  0  0  0  0  0  0
    5.0408   -2.8347    0.1896 H   0  0  0  0  0  0  0  0  0  0  0  0
    4.0759   -0.9199   -0.1219 C   0  0  0  0  0  0  0  0  0  0  0  0
    6.4536   -0.7932   -0.1558 C   0  0  0  0  0  0  0  0  0  0  0  0
    6.6019   -1.2655    0.8394 H   0  0  0  0  0  0  0  0  0  0  0  0
    7.1993    0.0108   -0.2933 H   0  0  0  0  0  0  0  0  0  0  0  0
    6.5909   -1.5607   -0.9481 H   0  0  0  0  0  0  0  0  0  0  0  0
    1.3720    1.2822   -1.3143 C   0  0  0  0  0  3  0  0  0  0  0  0
    1.4621    0.7959   -2.3088 H   0  0  0  0  0  0  0  0  0  0  0  0
    1.1207    2.3460   -1.4975 H   0  0  0  0  0  0  0  0  0  0  0  0
    2.7337    1.2375   -0.5822 C   0  0  1  0  0  0  0  0  0  0  0  0
    2.5055    2.0117    0.7478 C   0  0  1  0  0  0  0  0  0  0  0  0
    2.3509    3.0630    0.4119 H   0  0  0  0  0  0  0  0  0  0  0  0
    1.1980    1.4763    1.3884 C   0  0  0  0  0  3  0  0  0  0  0  0
    0.5809    2.3031    1.8019 H   0  0  0  0  0  0  0  0  0  0  0  0
    1.4685    0.8485    2.2618 H   0  0  0  0  0  0  0  0  0  0  0  0
    3.8417    1.8167   -1.4650 C   0  0  0  0  0  0  0  0  0  0  0  0
    3.4538    2.7715   -1.8729 H   0  0  0  0  0  0  0  0  0  0  0  0
    4.0603    1.1545   -2.3260 H   0  0  0  0  0  0  0  0  0  0  0  0
    4.7877    2.0262   -0.9359 H   0  0  0  0  0  0  0  0  0  0  0  0
    3.6900    1.9995    1.7162 C   0  0  0  0  0  0  0  0  0  0  0  0
    3.8996    0.9696    2.0751 H   0  0  0  0  0  0  0  0  0  0  0  0
    3.4556    2.6103    2.6119 H   0  0  0  0  0  0  0  0  0  0  0  0
    4.6227    2.4006    1.2682 H   0  0  0  0  0  0  0  0  0  0  0  0
  1 11  1  0  0  0  0
  1 10  1  0  0  0  0
  2 10  1  0  0  0  0
  2  3  1  0  0  0  0
  3  4  1  0  0  0  0
  4  6  2  0  0  0  0
  4  5  1  0  0  0  0
  6  7  1  0  0  0  0
  8  9  1  0  0  0  0
  8  6  1  0  0  0  0
 10  8  2  0  0  0  0
 11 12  1  0  0  0  0
 13 11  1  0  0  0  0
 14 11  1  0  0  0  0
 16 15  1  0  0  0  0
 17 15  1  0  0  0  0
 18 15  1  6  0  0  0
 18  2  1  0  0  0  0
 18 19  1  0  0  0  0
 19 20  1  6  0  0  0
 19 21  1  0  0  0  0
 19 28  1  0  0  0  0
 21 22  1  0  0  0  0
 21 23  1  0  0  0  0
 24 27  1  0  0  0  0
 24 18  1  0  0  0  0
 25 24  1  0  0  0  0
 26 24  1  0  0  0  0
 28 29  1  0  0  0  0
 28 30  1  0  0  0  0
 31 28  1  0  0  0  0
M  END
