2,11,17
 OpenBabel05122313063D

 27 27  0  0  1  0  0  0  0  0999 V2000
   -3.1420   -0.4204   -0.2987 N   0  0  0  0  0  0  0  0  0  0  0  0
   -1.8962   -0.9746    0.0230 C   0  0  0  0  0  2  0  0  0  0  0  0
   -1.9031   -2.3761    0.2941 C   0  0  0  0  0  0  0  0  0  0  0  0
   -0.9350   -2.8453    0.5208 H   0  0  0  0  0  0  0  0  0  0  0  0
   -3.0748   -3.1216    0.2799 C   0  0  0  0  0  0  0  0  0  0  0  0
   -3.0500   -4.2003    0.5008 H   0  0  0  0  0  0  0  0  0  0  0  0
   -4.3065   -2.4894   -0.0190 C   0  0  0  0  0  0  0  0  0  0  0  0
   -5.2547   -3.0427   -0.0341 H   0  0  0  0  0  0  0  0  0  0  0  0
   -4.2989   -1.1343   -0.3087 C   0  0  0  0  0  0  0  0  0  0  0  0
   -5.2143   -0.5838   -0.5605 H   0  0  0  0  0  0  0  0  0  0  0  0
   -1.7032    1.1830   -1.3491 C   0  0  0  0  0  3  0  0  0  0  0  0
   -1.5052    2.2594   -1.5223 H   0  0  0  0  0  0  0  0  0  0  0  0
   -1.7478    0.6946   -2.3457 H   0  0  0  0  0  0  0  0  0  0  0  0
   -3.0627    1.0443   -0.6305 C   0  0  2  0  0  0  0  0  0  0  0  0
   -2.9020    1.8270    0.7099 C   0  0  2  0  0  0  0  0  0  0  0  0
   -2.8191    2.8888    0.3834 H   0  0  0  0  0  0  0  0  0  0  0  0
   -1.5688    1.3805    1.3636 C   0  0  0  0  0  3  0  0  0  0  0  0
   -1.8038    0.7515    2.2461 H   0  0  0  0  0  0  0  0  0  0  0  0
   -1.0036    2.2488    1.7649 H   0  0  0  0  0  0  0  0  0  0  0  0
   -4.2483    1.5036   -1.4741 C   0  0  0  0  0  0  0  0  0  0  0  0
   -4.0687    2.5552   -1.7706 H   0  0  0  0  0  0  0  0  0  0  0  0
   -5.2215    1.4788   -0.9415 H   0  0  0  0  0  0  0  0  0  0  0  0
   -4.3364    0.9034   -2.4025 H   0  0  0  0  0  0  0  0  0  0  0  0
   -4.0975    1.7163    1.6582 C   0  0  0  0  0  0  0  0  0  0  0  0
   -4.2540    0.6653    1.9824 H   0  0  0  0  0  0  0  0  0  0  0  0
   -5.0463    2.0833    1.2129 H   0  0  0  0  0  0  0  0  0  0  0  0
   -3.9124    2.3102    2.5762 H   0  0  0  0  0  0  0  0  0  0  0  0
  1  2  1  0  0  0  0
  2  3  1  0  0  0  0
  3  4  1  0  0  0  0
  5  3  2  0  0  0  0
  5  6  1  0  0  0  0
  7  5  1  0  0  0  0
  8  7  1  0  0  0  0
  9  1  1  0  0  0  0
  9  7  2  0  0  0  0
 10  9  1  0  0  0  0
 12 11  1  0  0  0  0
 13 11  1  0  0  0  0
 14 11  1  6  0  0  0
 14  1  1  0  0  0  0
 14 15  1  0  0  0  0
 15 16  1  6  0  0  0
 15 17  1  0  0  0  0
 15 24  1  0  0  0  0
 17 19  1  0  0  0  0
 17 18  1  0  0  0  0
 20 22  1  0  0  0  0
 20 14  1  0  0  0  0
 21 20  1  0  0  0  0
 23 20  1  0  0  0  0
 24 25  1  0  0  0  0
 24 27  1  0  0  0  0
 26 24  1  0  0  0  0
M  END
