1,3,5
 OpenBabel05122313063D

 36 37  0  0  1  0  0  0  0  0999 V2000
    0.4932   -1.4548    0.7881 C   0  0  0  0  0  3  0  0  0  0  0  0
    1.7357   -2.1459    0.7239 C   0  0  0  0  0  3  0  0  0  0  0  0
    2.4489   -2.1926   -0.5017 C   0  0  0  0  0  3  0  0  0  0  0  0
    1.8962   -1.5966   -1.6708 C   0  0  0  0  0  3  0  0  0  0  0  0
    0.6562   -0.9105   -1.5873 C   0  0  0  0  0  3  0  0  0  0  0  0
   -0.0897   -0.8497   -0.3662 C   0  0  0  0  0  3  0  0  0  0  0  0
   -1.4835   -0.2136   -0.3053 C   0  0  2  0  0  0  0  0  0  0  0  0
   -1.7640    0.7491   -1.4868 C   0  0  0  0  0  0  0  0  0  0  0  0
   -2.9619    1.7103   -1.3291 C   0  0  0  0  0  0  0  0  0  0  0  0
   -2.6397    3.0420   -0.6369 C   0  0  0  0  0  0  0  0  0  0  0  0
   -2.3153    2.9380    0.8545 C   0  0  0  0  0  0  0  0  0  0  0  0
   -1.1629    1.9585    1.1660 C   0  0  0  0  0  0  0  0  0  0  0  0
   -1.6370    0.5229    1.0703 C   0  0  0  0  0  0  0  0  0  0  0  0
   -2.5516   -1.3358   -0.3129 C   0  0  0  0  0  0  0  0  0  0  0  0
   -3.1355   -3.4548    0.5238 C   0  0  0  0  0  0  0  0  0  0  0  0
   -2.1489   -2.4269    0.3651 O   0  0  0  0  0  0  0  0  0  0  0  0
   -3.6383   -1.2420   -0.8500 O   0  0  0  0  0  0  0  0  0  0  0  0
   -2.1566   -0.0422    2.0192 O   0  0  0  0  0  0  0  0  0  0  0  0
   -0.0373   -1.3874    1.7470 H   0  0  0  0  0  0  0  0  0  0  0  0
    2.1705   -2.5744    1.6365 H   0  0  0  0  0  0  0  0  0  0  0  0
    3.4377   -2.6705   -0.5445 H   0  0  0  0  0  0  0  0  0  0  0  0
    2.4555   -1.6027   -2.6156 H   0  0  0  0  0  0  0  0  0  0  0  0
    0.2727   -0.4096   -2.4850 H   0  0  0  0  0  0  0  0  0  0  0  0
   -0.8519    1.3462   -1.6885 H   0  0  0  0  0  0  0  0  0  0  0  0
   -1.9349    0.1199   -2.3826 H   0  0  0  0  0  0  0  0  0  0  0  0
   -3.7942    1.1869   -0.8155 H   0  0  0  0  0  0  0  0  0  0  0  0
   -3.3414    1.9338   -2.3472 H   0  0  0  0  0  0  0  0  0  0  0  0
   -3.4996    3.7326   -0.7673 H   0  0  0  0  0  0  0  0  0  0  0  0
   -1.7808    3.5196   -1.1603 H   0  0  0  0  0  0  0  0  0  0  0  0
   -2.0320    3.9385    1.2418 H   0  0  0  0  0  0  0  0  0  0  0  0
   -3.2150    2.6248    1.4273 H   0  0  0  0  0  0  0  0  0  0  0  0
   -0.3122    2.1479    0.4844 H   0  0  0  0  0  0  0  0  0  0  0  0
   -0.8125    2.0989    2.2064 H   0  0  0  0  0  0  0  0  0  0  0  0
   -3.5321   -3.7756   -0.4597 H   0  0  0  0  0  0  0  0  0  0  0  0
   -3.9777   -3.0838    1.1414 H   0  0  0  0  0  0  0  0  0  0  0  0
   -2.6252   -4.2915    1.0324 H   0  0  0  0  0  0  0  0  0  0  0  0
  1 19  1  0  0  0  0
  2  1  1  0  0  0  0
  2 20  1  0  0  0  0
  3  2  1  0  0  0  0
  4  5  1  0  0  0  0
  4  3  1  0  0  0  0
  5  6  1  0  0  0  0
  6  7  1  0  0  0  0
  6  1  1  0  0  0  0
  7 14  1  6  0  0  0
  7 13  1  0  0  0  0
  8  9  1  0  0  0  0
  8  7  1  0  0  0  0
  9 26  1  0  0  0  0
  9 10  1  0  0  0  0
 10 11  1  0  0  0  0
 11 12  1  0  0  0  0
 11 30  1  0  0  0  0
 11 31  1  0  0  0  0
 12 33  1  0  0  0  0
 13 12  1  0  0  0  0
 13 18  2  0  0  0  0
 14 16  1  0  0  0  0
 15 36  1  0  0  0  0
 15 35  1  0  0  0  0
 16 15  1  0  0  0  0
 17 14  2  0  0  0  0
 21  3  1  0  0  0  0
 22  4  1  0  0  0  0
 23  5  1  0  0  0  0
 24  8  1  0  0  0  0
 25  8  1  0  0  0  0
 27  9  1  0  0  0  0
 28 10  1  0  0  0  0
 29 10  1  0  0  0  0
 32 12  1  0  0  0  0
 34 15  1  0  0  0  0
M  END
