13,15,20
 OpenBabel05122313063D

 33 34  0  0  0  0  0  0  0  0999 V2000
   -0.0301    2.3586    0.2002 Si  0  0  0  0  0  0  0  0  0  0  0  0
   -1.3520    1.2920   -0.6512 C   0  0  0  0  0  3  0  0  0  0  0  0
    3.7872   -0.0119   -0.0118 C   0  0  0  0  0  0  0  0  0  0  0  0
    2.5831    0.7513    0.0555 C   0  0  0  0  0  0  0  0  0  0  0  0
   -0.5166    2.7097    1.9858 C   0  0  0  0  0  0  0  0  0  0  0  0
   -0.6669    1.7745    2.5589 H   0  0  0  0  0  0  0  0  0  0  0  0
   -1.4512    3.3056    2.0367 H   0  0  0  0  0  0  0  0  0  0  0  0
    0.2832    3.2976    2.4796 H   0  0  0  0  0  0  0  0  0  0  0  0
    0.1631    3.9723   -0.7637 C   0  0  0  0  0  0  0  0  0  0  0  0
    0.9505    4.6067   -0.3083 H   0  0  0  0  0  0  0  0  0  0  0  0
   -0.7876    4.5441   -0.7613 H   0  0  0  0  0  0  0  0  0  0  0  0
    0.4460    3.7740   -1.8166 H   0  0  0  0  0  0  0  0  0  0  0  0
   -2.7338    1.3625   -0.2764 C   0  0  0  0  0  3  0  0  0  0  0  0
   -3.0440    2.0500    0.5250 H   0  0  0  0  0  0  0  0  0  0  0  0
   -0.9918    0.3167   -1.6358 C   0  0  0  0  0  3  0  0  0  0  0  0
    0.0717    0.1865   -1.8888 H   0  0  0  0  0  0  0  0  0  0  0  0
    3.7552   -1.4181    0.1738 C   0  0  0  0  0  0  0  0  0  0  0  0
    2.7910   -1.9082    0.3685 H   0  0  0  0  0  0  0  0  0  0  0  0
    1.5379    1.4083    0.1152 C   0  0  0  0  0  0  0  0  0  0  0  0
   -3.3225   -0.4216   -1.8558 C   0  0  0  0  0  3  0  0  0  0  0  0
   -4.0677   -1.1091   -2.2807 H   0  0  0  0  0  0  0  0  0  0  0  0
   -1.9628   -0.5153   -2.2611 C   0  0  0  0  0  3  0  0  0  0  0  0
   -1.6530   -1.2777   -2.9883 H   0  0  0  0  0  0  0  0  0  0  0  0
    4.9403   -2.1600    0.1055 C   0  0  0  0  0  0  0  0  0  0  0  0
    4.9057   -3.2503    0.2510 H   0  0  0  0  0  0  0  0  0  0  0  0
    5.0294    0.6239   -0.2646 C   0  0  0  0  0  0  0  0  0  0  0  0
    5.0533    1.7139   -0.4077 H   0  0  0  0  0  0  0  0  0  0  0  0
    6.2068   -0.1299   -0.3288 C   0  0  0  0  0  0  0  0  0  0  0  0
    7.1658    0.3733   -0.5245 H   0  0  0  0  0  0  0  0  0  0  0  0
    6.1669   -1.5223   -0.1446 C   0  0  0  0  0  0  0  0  0  0  0  0
    7.0951   -2.1115   -0.1956 H   0  0  0  0  0  0  0  0  0  0  0  0
   -3.7218    0.5403   -0.8854 C   0  0  0  0  0  3  0  0  0  0  0  0
   -4.7673    0.5917   -0.5533 H   0  0  0  0  0  0  0  0  0  0  0  0
  1  5  1  0  0  0  0
  2 13  1  0  0  0  0
  2  1  1  0  0  0  0
  3  4  1  0  0  0  0
  3 17  1  0  0  0  0
  4 19  3  0  0  0  0
  5  7  1  0  0  0  0
  5  8  1  0  0  0  0
  5  6  1  0  0  0  0
  9 11  1  0  0  0  0
  9 10  1  0  0  0  0
  9  1  1  0  0  0  0
 12  9  1  0  0  0  0
 13 14  1  0  0  0  0
 15  2  1  0  0  0  0
 16 15  1  0  0  0  0
 17 18  1  0  0  0  0
 19  1  1  0  0  0  0
 20 32  1  0  0  0  0
 21 20  1  0  0  0  0
 22 20  1  0  0  0  0
 22 15  1  0  0  0  0
 23 22  1  0  0  0  0
 24 17  2  0  0  0  0
 24 25  1  0  0  0  0
 26  3  2  0  0  0  0
 27 26  1  0  0  0  0
 28 26  1  0  0  0  0
 28 30  2  0  0  0  0
 29 28  1  0  0  0  0
 30 24  1  0  0  0  0
 31 30  1  0  0  0  0
 32 33  1  0  0  0  0
 32 13  1  0  0  0  0
M  END
