5,7,9
 OpenBabel05122313063D

 32 33  0  0  1  0  0  0  0  0999 V2000
    1.5785   -0.1569    0.3325 C   0  0  1  0  0  0  0  0  0  0  0  0
    1.5620    1.2767    0.3678 O   0  0  0  0  0  0  0  0  0  0  0  0
    0.7606    1.8084   -0.6972 C   0  0  1  0  0  0  0  0  0  0  0  0
   -0.1361    0.6563   -1.0923 C   0  0  2  0  0  3  0  0  0  0  0  0
   -1.2991    0.6065   -1.9018 C   0  0  0  0  0  3  0  0  0  0  0  0
   -1.9381   -0.6497   -2.1321 C   0  0  0  0  0  3  0  0  0  0  0  0
   -1.4527   -1.8180   -1.4778 C   0  0  0  0  0  3  0  0  0  0  0  0
   -0.2923   -1.7773   -0.6463 C   0  0  0  0  0  3  0  0  0  0  0  0
    0.3427   -0.5238   -0.4576 C   0  0  1  0  0  3  0  0  0  0  0  0
    2.8589   -0.7025   -0.3194 C   0  0  0  0  0  0  0  0  0  0  0  0
    4.1268   -0.2604    0.4119 C   0  0  0  0  0  0  0  0  0  0  0  0
    5.4200   -0.7353   -0.2558 C   0  0  0  0  0  0  0  0  0  0  0  0
    6.6814   -0.2839    0.4810 C   0  0  0  0  0  0  0  0  0  0  0  0
    0.0635    3.0725   -0.2227 C   0  0  0  0  0  0  0  0  0  0  0  0
    1.5198   -0.5088    1.3857 H   0  0  0  0  0  0  0  0  0  0  0  0
    1.4123    2.0550   -1.5758 H   0  0  0  0  0  0  0  0  0  0  0  0
   -1.7144    1.5233   -2.3447 H   0  0  0  0  0  0  0  0  0  0  0  0
   -2.8528   -0.6996   -2.7369 H   0  0  0  0  0  0  0  0  0  0  0  0
   -1.9973   -2.7654   -1.5968 H   0  0  0  0  0  0  0  0  0  0  0  0
    0.0554   -2.6791   -0.1250 H   0  0  0  0  0  0  0  0  0  0  0  0
    2.8920   -0.3679   -1.3802 H   0  0  0  0  0  0  0  0  0  0  0  0
    2.7934   -1.8131   -0.3476 H   0  0  0  0  0  0  0  0  0  0  0  0
    4.0916   -0.6299    1.4618 H   0  0  0  0  0  0  0  0  0  0  0  0
    4.1208    0.8485    0.4833 H   0  0  0  0  0  0  0  0  0  0  0  0
    5.4453   -0.3637   -1.3047 H   0  0  0  0  0  0  0  0  0  0  0  0
    5.4076   -1.8457   -0.3340 H   0  0  0  0  0  0  0  0  0  0  0  0
    7.6024   -0.6352   -0.0262 H   0  0  0  0  0  0  0  0  0  0  0  0
    6.7343    0.8230    0.5449 H   0  0  0  0  0  0  0  0  0  0  0  0
    6.7021   -0.6735    1.5203 H   0  0  0  0  0  0  0  0  0  0  0  0
    0.8131    3.8242    0.0914 H   0  0  0  0  0  0  0  0  0  0  0  0
   -0.5951    2.8388    0.6357 H   0  0  0  0  0  0  0  0  0  0  0  0
   -0.5486    3.5129   -1.0353 H   0  0  0  0  0  0  0  0  0  0  0  0
  1  2  1  0  0  0  0
  1 15  1  1  0  0  0
  3 16  1  6  0  0  0
  3 14  1  0  0  0  0
  3  2  1  0  0  0  0
  4  5  1  1  0  0  0
  4  3  1  0  0  0  0
  4  9  1  0  0  0  0
  6  5  1  0  0  0  0
  6  7  1  0  0  0  0
  7  8  1  0  0  0  0
  8 20  1  0  0  0  0
  9  8  1  6  0  0  0
  9  1  1  0  0  0  0
 10  1  1  0  0  0  0
 10 11  1  0  0  0  0
 11 24  1  0  0  0  0
 11 23  1  0  0  0  0
 12 11  1  0  0  0  0
 12 13  1  0  0  0  0
 13 28  1  0  0  0  0
 13 29  1  0  0  0  0
 14 30  1  0  0  0  0
 14 31  1  0  0  0  0
 17  5  1  0  0  0  0
 18  6  1  0  0  0  0
 19  7  1  0  0  0  0
 21 10  1  0  0  0  0
 22 10  1  0  0  0  0
 25 12  1  0  0  0  0
 26 12  1  0  0  0  0
 27 13  1  0  0  0  0
 32 14  1  0  0  0  0
M  END
