15,25,38
 OpenBabel05122313063D

 46 50  0  0  1  0  0  0  0  0999 V2000
   -3.1318    0.7099    0.6094 C   0  0  0  0  0  0  0  0  0  0  0  0
   -3.1318   -0.7100    0.6095 C   0  0  0  0  0  0  0  0  0  0  0  0
   -4.3057   -1.3900    0.2260 C   0  0  0  0  0  0  0  0  0  0  0  0
   -4.3245   -2.4909    0.2669 H   0  0  0  0  0  0  0  0  0  0  0  0
   -5.4584   -0.7007   -0.1736 C   0  0  0  0  0  0  0  0  0  0  0  0
   -6.3616   -1.2579   -0.4628 H   0  0  0  0  0  0  0  0  0  0  0  0
   -5.4583    0.7008   -0.1736 C   0  0  0  0  0  0  0  0  0  0  0  0
   -6.3615    1.2581   -0.4629 H   0  0  0  0  0  0  0  0  0  0  0  0
   -4.3056    1.3900    0.2259 C   0  0  0  0  0  0  0  0  0  0  0  0
   -4.3243    2.4910    0.2667 H   0  0  0  0  0  0  0  0  0  0  0  0
   -1.9275    1.5306    1.0291 C   0  0  0  0  0  0  0  0  0  0  0  0
   -2.2661    2.4938    1.4580 H   0  0  0  0  0  0  0  0  0  0  0  0
   -1.3015    1.0305    1.7930 H   0  0  0  0  0  0  0  0  0  0  0  0
   -1.0272    1.8551   -0.0936 N   0  0  0  0  0  0  0  0  0  0  0  0
    0.2151    1.3367   -0.2982 C   0  0  0  0  0  2  0  0  0  0  0  0
    0.6429    1.9114   -1.4784 N   0  0  0  0  0  0  0  0  0  0  0  0
   -0.3071    2.7860   -1.9846 C   0  0  0  0  0  0  0  0  0  0  0  0
   -0.1610    3.3582   -2.9057 H   0  0  0  0  0  0  0  0  0  0  0  0
   -1.3617    2.7448   -1.1114 C   0  0  0  0  0  0  0  0  0  0  0  0
   -2.3202    3.2710   -1.1295 H   0  0  0  0  0  0  0  0  0  0  0  0
    1.9445    1.5587   -2.0532 C   0  0  0  0  0  0  0  0  0  0  0  0
    2.5068    2.4838   -2.2925 H   0  0  0  0  0  0  0  0  0  0  0  0
    1.7960    1.0065   -3.0028 H   0  0  0  0  0  0  0  0  0  0  0  0
    2.6812   -0.7284   -1.0144 C   0  0  1  0  0  3  0  0  0  0  0  0
    2.6814    0.7285   -1.0140 C   0  0  2  0  0  3  0  0  0  0  0  0
    3.2324    1.4313    0.1376 C   0  0  0  0  0  0  0  0  0  0  0  0
    3.2282    2.5318    0.1489 H   0  0  0  0  0  0  0  0  0  0  0  0
    3.5915    0.7222    1.2912 C   0  0  0  0  0  0  0  0  0  0  0  0
    3.8539    1.2651    2.2098 H   0  0  0  0  0  0  0  0  0  0  0  0
    3.5912   -0.7237    1.2908 C   0  0  0  0  0  0  0  0  0  0  0  0
    3.8533   -1.2671    2.2092 H   0  0  0  0  0  0  0  0  0  0  0  0
    3.2318   -1.4320    0.1369 C   0  0  0  0  0  0  0  0  0  0  0  0
    3.2271   -2.5325    0.1476 H   0  0  0  0  0  0  0  0  0  0  0  0
    1.9438   -1.5578   -2.0540 C   0  0  0  0  0  0  0  0  0  0  0  0
    1.7950   -1.0049   -3.0031 H   0  0  0  0  0  0  0  0  0  0  0  0
    2.5060   -2.4828   -2.2942 H   0  0  0  0  0  0  0  0  0  0  0  0
    0.6425   -1.9109   -1.4789 N   0  0  0  0  0  0  0  0  0  0  0  0
    0.2148   -1.3365   -0.2984 C   0  0  0  0  0  2  0  0  0  0  0  0
   -1.0274   -1.8550   -0.0938 N   0  0  0  0  0  0  0  0  0  0  0  0
   -1.3621   -2.7445   -1.1118 C   0  0  0  0  0  0  0  0  0  0  0  0
   -2.3205   -3.2707   -1.1298 H   0  0  0  0  0  0  0  0  0  0  0  0
   -0.3076   -2.7854   -1.9852 C   0  0  0  0  0  0  0  0  0  0  0  0
   -0.1616   -3.3573   -2.9064 H   0  0  0  0  0  0  0  0  0  0  0  0
   -1.9276   -1.5307    1.0291 C   0  0  0  0  0  0  0  0  0  0  0  0
   -1.3016   -1.0307    1.7930 H   0  0  0  0  0  0  0  0  0  0  0  0
   -2.2661   -2.4939    1.4578 H   0  0  0  0  0  0  0  0  0  0  0  0
  1  2  1  0  0  0  0
  1 11  1  0  0  0  0
  2 44  1  0  0  0  0
  3  4  1  0  0  0  0
  3  2  2  0  0  0  0
  5  3  1  0  0  0  0
  6  5  1  0  0  0  0
  7  5  2  0  0  0  0
  7  9  1  0  0  0  0
  8  7  1  0  0  0  0
  9 10  1  0  0  0  0
  9  1  2  0  0  0  0
 11 12  1  0  0  0  0
 11 13  1  0  0  0  0
 14 11  1  0  0  0  0
 15 14  1  0  0  0  0
 16 15  1  0  0  0  0
 17 16  1  0  0  0  0
 17 19  2  0  0  0  0
 18 17  1  0  0  0  0
 19 14  1  0  0  0  0
 20 19  1  0  0  0  0
 21 16  1  0  0  0  0
 21 25  1  0  0  0  0
 22 21  1  0  0  0  0
 23 21  1  0  0  0  0
 24 25  1  0  0  0  0
 24 32  1  1  0  0  0
 25 26  1  1  0  0  0
 26 27  1  0  0  0  0
 26 28  2  0  0  0  0
 28 29  1  0  0  0  0
 30 28  1  0  0  0  0
 30 31  1  0  0  0  0
 32 33  1  0  0  0  0
 32 30  2  0  0  0  0
 34 37  1  0  0  0  0
 34 24  1  0  0  0  0
 35 34  1  0  0  0  0
 36 34  1  0  0  0  0
 37 38  1  0  0  0  0
 38 39  1  0  0  0  0
 39 44  1  0  0  0  0
 40 39  1  0  0  0  0
 41 40  1  0  0  0  0
 42 37  1  0  0  0  0
 42 40  2  0  0  0  0
 43 42  1  0  0  0  0
 44 46  1  0  0  0  0
 44 45  1  0  0  0  0
M  END
