3,5,7
 OpenBabel05122313063D

 25 26  0  0  0  0  0  0  0  0999 V2000
   -8.3649    0.6575   -0.0005 N   0  0  0  0  0  0  0  0  0  0  0  0
    0.9549   -1.2388    0.0010 C   0  0  0  0  0  3  0  0  0  0  0  0
    1.6924   -1.3519    1.2332 C   0  0  0  0  0  3  0  0  0  0  0  0
    3.0773   -1.6625    1.2368 C   0  0  0  0  0  3  0  0  0  0  0  0
    3.7730   -1.7808    0.0015 C   0  0  0  0  0  3  0  0  0  0  0  0
    3.0773   -1.6645   -1.2340 C   0  0  0  0  0  3  0  0  0  0  0  0
    1.6924   -1.3540   -1.2309 C   0  0  0  0  0  3  0  0  0  0  0  0
   -0.4318   -0.9369    0.0008 C   0  0  0  0  0  0  0  0  0  0  0  0
   -1.6415   -0.7010    0.0006 C   0  0  0  0  0  0  0  0  0  0  0  0
   -3.0331   -0.4180    0.0004 C   0  0  0  0  0  0  0  0  0  0  0  0
   -3.7429   -0.2745   -1.2221 C   0  0  0  0  0  0  0  0  0  0  0  0
   -5.1089    0.0025   -1.2231 C   0  0  0  0  0  0  0  0  0  0  0  0
   -5.8087    0.1449   -0.0001 C   0  0  0  0  0  0  0  0  0  0  0  0
   -5.1087    0.0054    1.2231 C   0  0  0  0  0  0  0  0  0  0  0  0
   -3.7427   -0.2717    1.2226 C   0  0  0  0  0  0  0  0  0  0  0  0
   -7.2129    0.4275   -0.0003 C   0  0  0  0  0  0  0  0  0  0  0  0
    1.1599   -1.1946    2.1810 H   0  0  0  0  0  0  0  0  0  0  0  0
    3.6223   -1.7250    2.1879 H   0  0  0  0  0  0  0  0  0  0  0  0
    4.8593   -1.9477    0.0017 H   0  0  0  0  0  0  0  0  0  0  0  0
    3.6222   -1.7285   -2.1850 H   0  0  0  0  0  0  0  0  0  0  0  0
    1.1600   -1.1984   -2.1790 H   0  0  0  0  0  0  0  0  0  0  0  0
   -3.2008   -0.3831   -2.1720 H   0  0  0  0  0  0  0  0  0  0  0  0
   -5.6519    0.1129   -2.1724 H   0  0  0  0  0  0  0  0  0  0  0  0
   -5.6516    0.1180    2.1722 H   0  0  0  0  0  0  0  0  0  0  0  0
   -3.2005   -0.3780    2.1727 H   0  0  0  0  0  0  0  0  0  0  0  0
  1 16  3  0  0  0  0
  2  3  1  0  0  0  0
  3  4  1  0  0  0  0
  3 17  1  0  0  0  0
  4 18  1  0  0  0  0
  5 19  1  0  0  0  0
  5  4  1  0  0  0  0
  6  7  1  0  0  0  0
  6  5  1  0  0  0  0
  7  2  1  0  0  0  0
  8  2  1  0  0  0  0
  9  8  3  0  0  0  0
 10  9  1  0  0  0  0
 10 15  1  0  0  0  0
 11 10  2  0  0  0  0
 12 11  1  0  0  0  0
 12 13  2  0  0  0  0
 13 14  1  0  0  0  0
 14 24  1  0  0  0  0
 15 14  2  0  0  0  0
 15 25  1  0  0  0  0
 16 13  1  0  0  0  0
 20  6  1  0  0  0  0
 21  7  1  0  0  0  0
 22 11  1  0  0  0  0
 23 12  1  0  0  0  0
M  END
