6,17,18
 OpenBabel05122313063D

 62 66  0  0  1  0  0  0  0  0999 V2000
   -0.9695    1.4628    0.4720 P   0  0  0  0  0  0  0  0  0  0  0  0
    2.2735    0.4376    0.0980 P   0  0  0  0  0  0  0  0  0  0  0  0
   -0.9620   -0.1465   -0.4685 C   0  0  2  0  0  3  0  0  0  0  0  0
    0.2262    3.2974   -3.0966 C   0  0  0  0  0  0  0  0  0  0  0  0
    0.4768    3.0069   -4.1286 H   0  0  0  0  0  0  0  0  0  0  0  0
   -1.9629   -0.4462   -1.4369 C   0  0  0  0  0  3  0  0  0  0  0  0
   -2.7736    0.2785   -1.6009 H   0  0  0  0  0  0  0  0  0  0  0  0
    1.1141   -0.8739    0.8695 C   0  0  1  0  0  0  0  0  0  0  0  0
    0.6179   -0.2946    1.6775 H   0  0  0  0  0  0  0  0  0  0  0  0
   -0.1730    2.3147   -2.1766 C   0  0  0  0  0  0  0  0  0  0  0  0
   -0.2347    1.2644   -2.4969 H   0  0  0  0  0  0  0  0  0  0  0  0
    0.0553   -2.3559   -0.9164 C   0  0  0  0  0  3  0  0  0  0  0  0
    0.8046   -3.1246   -0.6934 H   0  0  0  0  0  0  0  0  0  0  0  0
    3.4537    0.7641    1.4730 C   0  0  0  0  0  0  0  0  0  0  0  0
   -2.7929    1.7688    0.5922 C   0  0  0  0  0  0  0  0  0  0  0  0
   -0.4933    2.6651   -0.8500 C   0  0  0  0  0  0  0  0  0  0  0  0
    0.0546   -1.1406   -0.1771 C   0  0  2  0  0  3  0  0  0  0  0  0
   -0.9554   -2.6291   -1.8848 C   0  0  0  0  0  3  0  0  0  0  0  0
   -0.9691   -3.6053   -2.3897 H   0  0  0  0  0  0  0  0  0  0  0  0
   -3.5386    2.4945   -0.3603 C   0  0  0  0  0  0  0  0  0  0  0  0
   -3.0314    2.9345   -1.2325 H   0  0  0  0  0  0  0  0  0  0  0  0
    3.2254   -0.6374   -1.0681 C   0  0  0  0  0  0  0  0  0  0  0  0
   -5.5760    2.1031    0.9134 C   0  0  0  0  0  0  0  0  0  0  0  0
   -6.6626    2.2280    1.0352 H   0  0  0  0  0  0  0  0  0  0  0  0
    2.7916   -0.6310   -2.4119 C   0  0  0  0  0  0  0  0  0  0  0  0
    1.9774    0.0491   -2.7086 H   0  0  0  0  0  0  0  0  0  0  0  0
    4.7920    1.1210    1.1891 C   0  0  0  0  0  0  0  0  0  0  0  0
    5.1569    1.0935    0.1508 H   0  0  0  0  0  0  0  0  0  0  0  0
   -3.4535    1.2333    1.7188 C   0  0  0  0  0  0  0  0  0  0  0  0
   -2.8765    0.6809    2.4767 H   0  0  0  0  0  0  0  0  0  0  0  0
   -0.0112    5.0014   -1.3851 C   0  0  0  0  0  0  0  0  0  0  0  0
    0.0527    6.0535   -1.0677 H   0  0  0  0  0  0  0  0  0  0  0  0
    4.2881   -1.4920   -0.7010 C   0  0  0  0  0  0  0  0  0  0  0  0
    4.6468   -1.5019    0.3392 H   0  0  0  0  0  0  0  0  0  0  0  0
   -0.3985    4.0196   -0.4627 C   0  0  0  0  0  0  0  0  0  0  0  0
   -0.6312    4.3059    0.5757 H   0  0  0  0  0  0  0  0  0  0  0  0
    5.2142    1.5617    3.5459 C   0  0  0  0  0  0  0  0  0  0  0  0
    5.8994    1.8649    4.3519 H   0  0  0  0  0  0  0  0  0  0  0  0
    0.3059    4.6426   -2.7058 C   0  0  0  0  0  0  0  0  0  0  0  0
    0.6193    5.4116   -3.4281 H   0  0  0  0  0  0  0  0  0  0  0  0
    4.8939   -2.3231   -1.6553 C   0  0  0  0  0  0  0  0  0  0  0  0
    5.7228   -2.9830   -1.3561 H   0  0  0  0  0  0  0  0  0  0  0  0
    3.8817    1.2308    3.8372 C   0  0  0  0  0  0  0  0  0  0  0  0
    3.5148    1.2763    4.8740 H   0  0  0  0  0  0  0  0  0  0  0  0
    5.6634    1.5098    2.2167 C   0  0  0  0  0  0  0  0  0  0  0  0
    6.7037    1.7764    1.9743 H   0  0  0  0  0  0  0  0  0  0  0  0
    1.7815   -2.1108    1.4597 C   0  0  0  0  0  0  0  0  0  0  0  0
    1.0193   -2.7965    1.8831 H   0  0  0  0  0  0  0  0  0  0  0  0
    2.4740   -1.8228    2.2735 H   0  0  0  0  0  0  0  0  0  0  0  0
    2.3720   -2.6702    0.7081 H   0  0  0  0  0  0  0  0  0  0  0  0
   -4.9234    2.6604   -0.1971 C   0  0  0  0  0  0  0  0  0  0  0  0
   -5.4965    3.2269   -0.9473 H   0  0  0  0  0  0  0  0  0  0  0  0
   -4.8377    1.3898    1.8715 C   0  0  0  0  0  0  0  0  0  0  0  0
   -5.3431    0.9517    2.7452 H   0  0  0  0  0  0  0  0  0  0  0  0
    3.0076    0.8405    2.8118 C   0  0  0  0  0  0  0  0  0  0  0  0
    1.9632    0.6016    3.0635 H   0  0  0  0  0  0  0  0  0  0  0  0
    4.4432   -2.3195   -2.9860 C   0  0  0  0  0  0  0  0  0  0  0  0
    4.9199   -2.9741   -3.7316 H   0  0  0  0  0  0  0  0  0  0  0  0
    3.3897   -1.4722   -3.3629 C   0  0  0  0  0  0  0  0  0  0  0  0
    3.0380   -1.4573   -4.4058 H   0  0  0  0  0  0  0  0  0  0  0  0
   -1.9585   -1.6727   -2.1656 C   0  0  0  0  0  3  0  0  0  0  0  0
   -2.7627   -1.8962   -2.8793 H   0  0  0  0  0  0  0  0  0  0  0  0
  1 15  1  0  0  0  0
  2  8  1  0  0  0  0
  2 14  1  0  0  0  0
  3 17  1  0  0  0  0
  3  1  1  1  0  0  0
  4 39  2  0  0  0  0
  4 10  1  0  0  0  0
  5  4  1  0  0  0  0
  6  3  1  0  0  0  0
  7  6  1  0  0  0  0
  8 47  1  0  0  0  0
  8  9  1  1  0  0  0
 10 16  2  0  0  0  0
 11 10  1  0  0  0  0
 12 13  1  0  0  0  0
 12 17  1  0  0  0  0
 14 55  1  0  0  0  0
 15 29  1  0  0  0  0
 16 35  1  0  0  0  0
 16  1  1  0  0  0  0
 17  8  1  6  0  0  0
 18 12  1  0  0  0  0
 19 18  1  0  0  0  0
 20 51  1  0  0  0  0
 20 15  2  0  0  0  0
 21 20  1  0  0  0  0
 22 33  1  0  0  0  0
 22  2  1  0  0  0  0
 23 24  1  0  0  0  0
 23 53  1  0  0  0  0
 25 22  2  0  0  0  0
 26 25  1  0  0  0  0
 27 14  2  0  0  0  0
 27 45  1  0  0  0  0
 28 27  1  0  0  0  0
 29 53  2  0  0  0  0
 29 30  1  0  0  0  0
 31 32  1  0  0  0  0
 31 35  2  0  0  0  0
 33 34  1  0  0  0  0
 35 36  1  0  0  0  0
 37 43  1  0  0  0  0
 37 38  1  0  0  0  0
 39 31  1  0  0  0  0
 40 39  1  0  0  0  0
 41 42  1  0  0  0  0
 41 33  2  0  0  0  0
 43 44  1  0  0  0  0
 45 37  2  0  0  0  0
 46 45  1  0  0  0  0
 47 48  1  0  0  0  0
 47 49  1  0  0  0  0
 50 47  1  0  0  0  0
 51 23  2  0  0  0  0
 52 51  1  0  0  0  0
 53 54  1  0  0  0  0
 55 56  1  0  0  0  0
 55 43  2  0  0  0  0
 57 41  1  0  0  0  0
 58 57  1  0  0  0  0
 59 57  2  0  0  0  0
 59 25  1  0  0  0  0
 60 59  1  0  0  0  0
 61 18  1  0  0  0  0
 61  6  1  0  0  0  0
 62 61  1  0  0  0  0
M  END
