10,12,14
 OpenBabel05122313063D

 61 62  0  0  0  0  0  0  0  0999 V2000
   -0.1506    1.2338    1.1153 P   0  0  0  0  0  2  0  0  0  0  0  0
   -1.7850    0.4628    0.6565 C   0  0  0  0  0  0  0  0  0  0  0  0
   -1.9433   -0.9613    0.6653 C   0  0  0  0  0  0  0  0  0  0  0  0
   -3.1188   -1.4971    0.0966 C   0  0  0  0  0  0  0  0  0  0  0  0
   -4.1474   -0.7078   -0.4277 C   0  0  0  0  0  0  0  0  0  0  0  0
   -4.0116    0.6844   -0.3051 C   0  0  0  0  0  0  0  0  0  0  0  0
   -2.8728    1.3030    0.2376 C   0  0  0  0  0  0  0  0  0  0  0  0
    0.7332    0.9375   -0.3126 C   0  0  0  0  0  0  0  0  0  0  0  0
    2.1401    1.2571   -0.4999 C   0  0  0  0  0  0  0  0  0  0  0  0
    3.0030    1.6435    0.5862 C   0  0  0  0  0  3  0  0  0  0  0  0
    4.3747    1.9371    0.3821 C   0  0  0  0  0  3  0  0  0  0  0  0
    4.9475    1.7573   -0.9093 C   0  0  0  0  0  3  0  0  0  0  0  0
    4.1341    1.3578   -2.0034 C   0  0  0  0  0  3  0  0  0  0  0  0
    2.7584    1.0763   -1.7838 C   0  0  0  0  0  3  0  0  0  0  0  0
   -0.9328   -1.9766    1.2803 C   0  0  0  0  0  0  0  0  0  0  0  0
   -0.3526   -1.4646    2.6141 C   0  0  0  0  0  0  0  0  0  0  0  0
    0.2102   -2.2955    0.2881 C   0  0  0  0  0  0  0  0  0  0  0  0
   -1.6251   -3.3199    1.6158 C   0  0  0  0  0  0  0  0  0  0  0  0
   -5.4081   -1.3010   -1.0798 C   0  0  0  0  0  0  0  0  0  0  0  0
   -5.3731   -2.8385   -1.1204 C   0  0  0  0  0  0  0  0  0  0  0  0
   -6.6536   -0.8619   -0.2767 C   0  0  0  0  0  0  0  0  0  0  0  0
   -5.5174   -0.7765   -2.5297 C   0  0  0  0  0  0  0  0  0  0  0  0
   -2.8813    2.8533    0.3760 C   0  0  0  0  0  0  0  0  0  0  0  0
   -4.2676    3.4520    0.0515 C   0  0  0  0  0  0  0  0  0  0  0  0
   -1.8781    3.5136   -0.5981 C   0  0  0  0  0  0  0  0  0  0  0  0
   -2.5662    3.2572    1.8348 C   0  0  0  0  0  0  0  0  0  0  0  0
   -3.2302   -2.5848    0.0681 H   0  0  0  0  0  0  0  0  0  0  0  0
   -4.8369    1.3148   -0.6552 H   0  0  0  0  0  0  0  0  0  0  0  0
    0.2350    0.4728   -1.1812 H   0  0  0  0  0  0  0  0  0  0  0  0
    2.5775    1.7076    1.5986 H   0  0  0  0  0  0  0  0  0  0  0  0
    5.0104    2.2105    1.2348 H   0  0  0  0  0  0  0  0  0  0  0  0
    6.0262    1.9088   -1.0555 H   0  0  0  0  0  0  0  0  0  0  0  0
    4.5793    1.1886   -2.9928 H   0  0  0  0  0  0  0  0  0  0  0  0
    2.1416    0.7054   -2.6154 H   0  0  0  0  0  0  0  0  0  0  0  0
    0.2396   -0.5304    2.4997 H   0  0  0  0  0  0  0  0  0  0  0  0
   -1.1557   -1.2642    3.3520 H   0  0  0  0  0  0  0  0  0  0  0  0
    0.3474   -2.2126    3.0378 H   0  0  0  0  0  0  0  0  0  0  0  0
   -0.1952   -2.6393   -0.6847 H   0  0  0  0  0  0  0  0  0  0  0  0
    0.8569   -1.4211    0.1004 H   0  0  0  0  0  0  0  0  0  0  0  0
    0.8550   -3.1014    0.6947 H   0  0  0  0  0  0  0  0  0  0  0  0
   -2.5223   -3.1778    2.2513 H   0  0  0  0  0  0  0  0  0  0  0  0
   -1.9235   -3.8858    0.7113 H   0  0  0  0  0  0  0  0  0  0  0  0
   -0.9117   -3.9609    2.1707 H   0  0  0  0  0  0  0  0  0  0  0  0
   -4.5041   -3.2157   -1.6965 H   0  0  0  0  0  0  0  0  0  0  0  0
   -5.3296   -3.2780   -0.1036 H   0  0  0  0  0  0  0  0  0  0  0  0
   -6.2907   -3.2225   -1.6099 H   0  0  0  0  0  0  0  0  0  0  0  0
   -6.5963   -1.2228    0.7701 H   0  0  0  0  0  0  0  0  0  0  0  0
   -6.7578    0.2410   -0.2481 H   0  0  0  0  0  0  0  0  0  0  0  0
   -7.5761   -1.2753   -0.7347 H   0  0  0  0  0  0  0  0  0  0  0  0
   -5.5814    0.3293   -2.5628 H   0  0  0  0  0  0  0  0  0  0  0  0
   -4.6351   -1.0814   -3.1281 H   0  0  0  0  0  0  0  0  0  0  0  0
   -6.4254   -1.1822   -3.0221 H   0  0  0  0  0  0  0  0  0  0  0  0
   -4.5545    3.3050   -1.0088 H   0  0  0  0  0  0  0  0  0  0  0  0
   -5.0666    3.0283    0.6922 H   0  0  0  0  0  0  0  0  0  0  0  0
   -4.2381    4.5450    0.2322 H   0  0  0  0  0  0  0  0  0  0  0  0
   -0.8294    3.2466   -0.3703 H   0  0  0  0  0  0  0  0  0  0  0  0
   -2.0854    3.2048   -1.6429 H   0  0  0  0  0  0  0  0  0  0  0  0
   -1.9653    4.6185   -0.5408 H   0  0  0  0  0  0  0  0  0  0  0  0
   -3.3002    2.8083    2.5339 H   0  0  0  0  0  0  0  0  0  0  0  0
   -1.5532    2.9418    2.1570 H   0  0  0  0  0  0  0  0  0  0  0  0
   -2.6124    4.3605    1.9428 H   0  0  0  0  0  0  0  0  0  0  0  0
  2  3  1  0  0  0  0
  2  1  1  0  0  0  0
  3 15  1  0  0  0  0
  4  3  2  0  0  0  0
  5  6  2  0  0  0  0
  5  4  1  0  0  0  0
  6  7  1  0  0  0  0
  7 23  1  0  0  0  0
  7  2  2  0  0  0  0
  8  1  1  0  0  0  0
  9  8  2  0  0  0  0
  9 10  1  0  0  0  0
 10 30  1  0  0  0  0
 11 10  1  0  0  0  0
 11 31  1  0  0  0  0
 12 11  1  0  0  0  0
 13 14  1  0  0  0  0
 13 12  1  0  0  0  0
 14  9  1  0  0  0  0
 15 18  1  0  0  0  0
 15 16  1  0  0  0  0
 16 37  1  0  0  0  0
 16 36  1  0  0  0  0
 17 40  1  0  0  0  0
 17 15  1  0  0  0  0
 18 43  1  0  0  0  0
 18 41  1  0  0  0  0
 19  5  1  0  0  0  0
 19 21  1  0  0  0  0
 20 19  1  0  0  0  0
 20 45  1  0  0  0  0
 21 48  1  0  0  0  0
 21 47  1  0  0  0  0
 22 19  1  0  0  0  0
 23 26  1  0  0  0  0
 24 55  1  0  0  0  0
 24 23  1  0  0  0  0
 24 54  1  0  0  0  0
 25 58  1  0  0  0  0
 25 56  1  0  0  0  0
 25 23  1  0  0  0  0
 26 61  1  0  0  0  0
 26 60  1  0  0  0  0
 26 59  1  0  0  0  0
 27  4  1  0  0  0  0
 28  6  1  0  0  0  0
 29  8  1  0  0  0  0
 32 12  1  0  0  0  0
 33 13  1  0  0  0  0
 34 14  1  0  0  0  0
 35 16  1  0  0  0  0
 38 17  1  0  0  0  0
 39 17  1  0  0  0  0
 42 18  1  0  0  0  0
 44 20  1  0  0  0  0
 46 20  1  0  0  0  0
 49 21  1  0  0  0  0
 50 22  1  0  0  0  0
 51 22  1  0  0  0  0
 52 22  1  0  0  0  0
 53 24  1  0  0  0  0
 57 25  1  0  0  0  0
M  END
