4,7,17
 OpenBabel05122313063D

 37 39  0  0  1  0  0  0  0  0999 V2000
   -0.8092   -2.0161   -1.8314 O   0  0  0  0  0  0  0  0  0  0  0  0
    2.7796   -0.8027    1.1651 O   0  0  0  0  0  0  0  0  0  0  0  0
   -1.2111    2.5935   -0.9346 O   0  0  0  0  0  0  0  0  0  0  0  0
   -0.4636    1.1121    0.8821 C   0  0  0  0  0  3  0  0  0  0  0  0
   -0.4873    1.9323    1.6116 H   0  0  0  0  0  0  0  0  0  0  0  0
   -0.8472    1.3758   -0.4602 C   0  0  1  0  0  3  0  0  0  0  0  0
   -1.0011    0.2918   -1.3986 C   0  0  1  0  0  3  0  0  0  0  0  0
   -1.4148    0.5323   -2.8208 C   0  0  0  0  0  0  0  0  0  0  0  0
   -0.5263    0.7277   -3.4590 H   0  0  0  0  0  0  0  0  0  0  0  0
   -2.0796    1.4118   -2.8878 H   0  0  0  0  0  0  0  0  0  0  0  0
   -1.9328   -0.3543   -3.2279 H   0  0  0  0  0  0  0  0  0  0  0  0
   -0.6362   -1.0213   -0.9280 C   0  0  1  0  0  3  0  0  0  0  0  0
   -0.6487   -3.3613   -1.4021 C   0  0  0  0  0  0  0  0  0  0  0  0
    0.3630   -3.5374   -0.9773 H   0  0  0  0  0  0  0  0  0  0  0  0
   -0.7813   -3.9875   -2.3029 H   0  0  0  0  0  0  0  0  0  0  0  0
   -1.4194   -3.6404   -0.6520 H   0  0  0  0  0  0  0  0  0  0  0  0
   -0.2664   -1.2109    0.4299 C   0  0  0  0  0  3  0  0  0  0  0  0
   -0.1249   -2.2321    0.8068 H   0  0  0  0  0  0  0  0  0  0  0  0
    0.4518   -0.0666    1.1417 C   0  0  1  0  0  0  0  0  0  0  0  0
    0.4459   -0.2938    2.2275 H   0  0  0  0  0  0  0  0  0  0  0  0
    1.8764    0.1424    0.7198 C   0  0  0  0  0  0  0  0  0  0  0  0
    2.4858    1.0776   -0.0828 C   0  0  0  0  0  0  0  0  0  0  0  0
    1.9904    1.9249   -0.5678 H   0  0  0  0  0  0  0  0  0  0  0  0
    3.8805    0.7088   -0.1541 C   0  0  0  0  0  0  0  0  0  0  0  0
    5.0345    1.2200   -0.7852 C   0  0  0  0  0  0  0  0  0  0  0  0
    4.9808    2.1273   -1.4053 H   0  0  0  0  0  0  0  0  0  0  0  0
    6.2485    0.5450   -0.6048 C   0  0  0  0  0  0  0  0  0  0  0  0
    7.1586    0.9286   -1.0898 H   0  0  0  0  0  0  0  0  0  0  0  0
    6.3320   -0.6224    0.1897 C   0  0  0  0  0  0  0  0  0  0  0  0
    7.3028   -1.1260    0.3105 H   0  0  0  0  0  0  0  0  0  0  0  0
    5.2000   -1.1515    0.8289 C   0  0  0  0  0  0  0  0  0  0  0  0
    5.2469   -2.0564    1.4507 H   0  0  0  0  0  0  0  0  0  0  0  0
    3.9988   -0.4658    0.6360 C   0  0  0  0  0  0  0  0  0  0  0  0
   -1.2946    3.6829   -0.0260 C   0  0  0  0  0  0  0  0  0  0  0  0
   -2.0831    3.5123    0.7378 H   0  0  0  0  0  0  0  0  0  0  0  0
   -1.5667    4.5662   -0.6318 H   0  0  0  0  0  0  0  0  0  0  0  0
   -0.3234    3.8704    0.4811 H   0  0  0  0  0  0  0  0  0  0  0  0
  1 13  1  0  0  0  0
  3 34  1  0  0  0  0
  4 19  1  0  0  0  0
  4  5  1  0  0  0  0
  6  3  1  1  0  0  0
  6  4  1  0  0  0  0
  7  8  1  6  0  0  0
  7 12  1  0  0  0  0
  7  6  1  0  0  0  0
  9  8  1  0  0  0  0
 10  8  1  0  0  0  0
 11  8  1  0  0  0  0
 12  1  1  1  0  0  0
 12 17  1  0  0  0  0
 13 14  1  0  0  0  0
 13 16  1  0  0  0  0
 15 13  1  0  0  0  0
 17 18  1  0  0  0  0
 17 19  1  0  0  0  0
 19 20  1  1  0  0  0
 21 19  1  0  0  0  0
 21  2  1  0  0  0  0
 22 21  2  0  0  0  0
 23 22  1  0  0  0  0
 24 22  1  0  0  0  0
 24 33  1  0  0  0  0
 25 27  1  0  0  0  0
 25 24  2  0  0  0  0
 26 25  1  0  0  0  0
 27 29  2  0  0  0  0
 28 27  1  0  0  0  0
 29 30  1  0  0  0  0
 29 31  1  0  0  0  0
 31 32  1  0  0  0  0
 33 31  2  0  0  0  0
 33  2  1  0  0  0  0
 34 37  1  0  0  0  0
 34 35  1  0  0  0  0
 36 34  1  0  0  0  0
M  END
