4,6,8
 OpenBabel05122313063D

 28 29  0  0  0  0  0  0  0  0999 V2000
   -7.3882   -0.2693   -0.8015 O   0  0  0  0  0  0  0  0  0  0  0  0
   -7.0277    1.3986    0.5675 O   0  0  0  0  0  0  0  0  0  0  0  0
   -6.6584    0.4271   -0.0942 N   0  0  0  0  0  0  0  0  0  0  0  0
    1.8783   -1.7172   -0.0995 C   0  0  0  0  0  3  0  0  0  0  0  0
    3.2519   -2.0669   -0.0638 C   0  0  0  0  0  3  0  0  0  0  0  0
    4.0983   -1.4941    0.9287 C   0  0  0  0  0  3  0  0  0  0  0  0
    3.5573   -0.6359    1.9221 C   0  0  0  0  0  3  0  0  0  0  0  0
    2.1776   -0.2964    1.8727 C   0  0  0  0  0  3  0  0  0  0  0  0
    1.2910   -0.8575    0.8934 C   0  0  0  0  0  3  0  0  0  0  0  0
   -0.1107   -0.4568    0.8764 C   0  0  0  0  0  0  0  0  0  0  0  0
   -1.0983   -1.0155    0.1221 C   0  0  0  0  0  0  0  0  0  0  0  0
   -2.5010   -0.6137    0.0906 C   0  0  0  0  0  0  0  0  0  0  0  0
   -3.4093   -1.3618   -0.7034 C   0  0  0  0  0  0  0  0  0  0  0  0
   -4.7640   -1.0313   -0.7701 C   0  0  0  0  0  0  0  0  0  0  0  0
   -5.2252    0.0675   -0.0331 C   0  0  0  0  0  0  0  0  0  0  0  0
   -4.3598    0.8376    0.7602 C   0  0  0  0  0  0  0  0  0  0  0  0
   -3.0096    0.4964    0.8168 C   0  0  0  0  0  0  0  0  0  0  0  0
    1.2540   -2.0984   -0.9190 H   0  0  0  0  0  0  0  0  0  0  0  0
    3.6765   -2.7031   -0.8516 H   0  0  0  0  0  0  0  0  0  0  0  0
    5.1772   -1.7030    0.9140 H   0  0  0  0  0  0  0  0  0  0  0  0
    4.2119   -0.1710    2.6710 H   0  0  0  0  0  0  0  0  0  0  0  0
    1.7716    0.4202    2.6017 H   0  0  0  0  0  0  0  0  0  0  0  0
   -0.3586    0.3704    1.5619 H   0  0  0  0  0  0  0  0  0  0  0  0
   -0.8472   -1.8654   -0.5342 H   0  0  0  0  0  0  0  0  0  0  0  0
   -3.0328   -2.2224   -1.2776 H   0  0  0  0  0  0  0  0  0  0  0  0
   -5.4785   -1.6009   -1.3787 H   0  0  0  0  0  0  0  0  0  0  0  0
   -4.7701    1.6928    1.3134 H   0  0  0  0  0  0  0  0  0  0  0  0
   -2.3338    1.1084    1.4312 H   0  0  0  0  0  0  0  0  0  0  0  0
  1  3  2  0  0  0  0
  3 15  1  0  0  0  0
  3  2  2  0  0  0  0
  4  5  1  0  0  0  0
  4  9  1  0  0  0  0
  5  6  1  0  0  0  0
  6  7  1  0  0  0  0
  7 21  1  0  0  0  0
  8  7  1  0  0  0  0
  8 22  1  0  0  0  0
  9  8  1  0  0  0  0
 10  9  1  0  0  0  0
 10 23  1  0  0  0  0
 11 10  2  0  0  0  0
 12 11  1  0  0  0  0
 12 17  1  0  0  0  0
 13 12  2  0  0  0  0
 14 13  1  0  0  0  0
 14 15  2  0  0  0  0
 15 16  1  0  0  0  0
 16 17  2  0  0  0  0
 16 27  1  0  0  0  0
 17 28  1  0  0  0  0
 18  4  1  0  0  0  0
 19  5  1  0  0  0  0
 20  6  1  0  0  0  0
 24 11  1  0  0  0  0
 25 13  1  0  0  0  0
 26 14  1  0  0  0  0
M  END
