8,10,12
 OpenBabel05122313063D

 29 30  0  0  1  0  0  0  0  0999 V2000
   -1.9356   -1.1138   -1.0820 C   0  0  0  0  0  0  0  0  0  0  0  0
   -1.4124   -1.2486    0.3716 C   0  0  1  0  0  0  0  0  0  0  0  0
   -2.0951   -0.0604    1.0717 C   0  0  0  0  0  0  0  0  0  0  0  0
   -3.3389    0.2320    0.2061 C   0  0  1  0  0  0  0  0  0  0  0  0
   -3.6629    1.6895    0.0822 C   0  0  0  0  0  0  0  0  0  0  0  0
   -4.7818    2.2526    0.5651 C   0  0  0  0  0  0  0  0  0  0  0  0
   -1.9346   -2.6109    0.8947 C   0  0  0  0  0  0  0  0  0  0  0  0
    0.1090   -1.2464    0.4906 C   0  0  0  0  0  3  0  0  0  0  0  0
    0.7085   -0.8057    1.7069 C   0  0  0  0  0  3  0  0  0  0  0  0
    2.1269   -0.8246    1.8630 C   0  0  0  0  0  3  0  0  0  0  0  0
    2.9611   -1.3196    0.8315 C   0  0  0  0  0  3  0  0  0  0  0  0
    2.3585   -1.7734   -0.3811 C   0  0  0  0  0  3  0  0  0  0  0  0
    0.9522   -1.7672   -0.5465 C   0  0  0  0  0  3  0  0  0  0  0  0
   -3.0165   -0.2988   -1.1085 O   0  0  0  0  0  0  0  0  0  0  0  0
   -1.5397   -1.6889   -2.0710 O   0  0  0  0  0  0  0  0  0  0  0  0
   -1.4219    0.8191    1.0650 H   0  0  0  0  0  0  0  0  0  0  0  0
   -2.3795   -0.2657    2.1212 H   0  0  0  0  0  0  0  0  0  0  0  0
   -4.2266   -0.3281    0.5744 H   0  0  0  0  0  0  0  0  0  0  0  0
   -2.8845    2.2923   -0.4179 H   0  0  0  0  0  0  0  0  0  0  0  0
   -4.9597    3.3359    0.4879 H   0  0  0  0  0  0  0  0  0  0  0  0
   -5.5622    1.6492    1.0588 H   0  0  0  0  0  0  0  0  0  0  0  0
   -1.6188   -2.7594    1.9465 H   0  0  0  0  0  0  0  0  0  0  0  0
   -3.0414   -2.6579    0.8499 H   0  0  0  0  0  0  0  0  0  0  0  0
   -1.5294   -3.4400    0.2831 H   0  0  0  0  0  0  0  0  0  0  0  0
    0.0866   -0.3919    2.5113 H   0  0  0  0  0  0  0  0  0  0  0  0
    2.5737   -0.4190    2.7819 H   0  0  0  0  0  0  0  0  0  0  0  0
    4.0535   -1.2971    0.9384 H   0  0  0  0  0  0  0  0  0  0  0  0
    2.9948   -2.1076   -1.2129 H   0  0  0  0  0  0  0  0  0  0  0  0
    0.4918   -2.0787   -1.4928 H   0  0  0  0  0  0  0  0  0  0  0  0
  1  2  1  0  0  0  0
  2  8  1  0  0  0  0
  2  7  1  1  0  0  0
  2  3  1  0  0  0  0
  3 17  1  0  0  0  0
  4 18  1  1  0  0  0
  4  3  1  0  0  0  0
  5  4  1  0  0  0  0
  5  6  2  0  0  0  0
  6 21  1  0  0  0  0
  7 22  1  0  0  0  0
  8  9  1  0  0  0  0
  9 10  1  0  0  0  0
  9 25  1  0  0  0  0
 10 26  1  0  0  0  0
 11 27  1  0  0  0  0
 11 10  1  0  0  0  0
 12 11  1  0  0  0  0
 13 12  1  0  0  0  0
 13  8  1  0  0  0  0
 14  1  1  0  0  0  0
 14  4  1  0  0  0  0
 15  1  2  0  0  0  0
 16  3  1  0  0  0  0
 19  5  1  0  0  0  0
 20  6  1  0  0  0  0
 23  7  1  0  0  0  0
 24  7  1  0  0  0  0
 28 12  1  0  0  0  0
 29 13  1  0  0  0  0
M  END
