6,14
 OpenBabel05122313063D

 20 22  0  0  1  0  0  0  0  0999 V2000
    0.7503   -2.9394    0.5936 C   0  0  1  0  0  3  0  0  0  0  0  0
    2.0656   -2.3580    0.9692 C   0  0  2  0  0  3  0  0  0  0  0  0
    1.8351   -1.6378    2.2943 C   0  0  2  0  0  0  0  0  0  0  0  0
    0.6165   -2.3325    2.8377 C   0  0  0  0  0  0  0  0  0  0  0  0
   -0.0112   -3.0415    1.8590 C   0  0  0  0  0  0  0  0  0  0  0  0
    0.3728   -2.7827   -0.7409 C   0  0  0  0  0  1  0  0  0  0  0  0
    3.1204   -2.0813    0.0623 C   0  0  0  0  0  2  0  0  0  0  0  0
    3.7812    0.2639    0.2696 C   0  0  0  0  0  0  0  0  0  0  0  0
    2.3882    0.5290    0.8645 C   0  0  1  0  0  3  0  0  0  0  0  0
    2.2145    1.9473    0.7296 C   0  0  0  0  0  0  0  0  0  0  0  0
    3.3862    2.5155    0.1868 C   0  0  0  0  0  0  0  0  0  0  0  0
    4.3334    1.5002   -0.1102 C   0  0  0  0  0  0  0  0  0  0  0  0
    3.9453   -1.0988    0.0033 C   0  0  0  0  0  2  0  0  0  0  0  0
    1.4780   -0.4518    1.3693 C   0  0  0  0  0  2  0  0  0  0  0  0
    2.6875   -1.4723    2.9792 H   0  0  0  0  0  0  0  0  0  0  0  0
    0.2524   -2.1775    3.8637 H   0  0  0  0  0  0  0  0  0  0  0  0
   -0.9838   -3.5457    1.9417 H   0  0  0  0  0  0  0  0  0  0  0  0
    1.3528    2.4968    1.1286 H   0  0  0  0  0  0  0  0  0  0  0  0
    3.5442    3.5914    0.0293 H   0  0  0  0  0  0  0  0  0  0  0  0
    5.2887    1.6287   -0.6340 H   0  0  0  0  0  0  0  0  0  0  0  0
  1  6  1  6  0  0  0
  1  2  1  0  0  0  0
  1  5  1  0  0  0  0
  2  7  1  6  0  0  0
  2  3  1  0  0  0  0
  3  4  1  0  0  0  0
  3 15  1  1  0  0  0
  4 16  1  0  0  0  0
  5 17  1  0  0  0  0
  5  4  2  0  0  0  0
  8  9  1  0  0  0  0
  9 14  1  6  0  0  0
 10  9  1  0  0  0  0
 10 18  1  0  0  0  0
 11 10  2  0  0  0  0
 12 11  1  0  0  0  0
 12  8  2  0  0  0  0
 13  7  1  0  0  0  0
 13  8  1  0  0  0  0
 14  3  1  0  0  0  0
 19 11  1  0  0  0  0
 20 12  1  0  0  0  0
M  END
