5,9,13
 OpenBabel05122313063D

 27 29  0  0  0  0  0  0  0  0999 V2000
    2.0453   -1.3283   -0.3318 C   0  0  0  0  0  0  0  0  0  0  0  0
    1.8102   -2.2299   -0.9146 H   0  0  0  0  0  0  0  0  0  0  0  0
    1.1733   -0.6449    0.4813 C   0  0  0  0  0  0  0  0  0  0  0  0
   -0.2344   -0.9474    0.7215 C   0  0  0  0  0  3  0  0  0  0  0  0
   -0.9807   -1.8197   -0.1404 C   0  0  0  0  0  3  0  0  0  0  0  0
   -0.4793   -2.2662   -1.0098 H   0  0  0  0  0  0  0  0  0  0  0  0
   -2.3546   -2.1052    0.0859 C   0  0  0  0  0  3  0  0  0  0  0  0
   -2.9003   -2.7582   -0.6079 H   0  0  0  0  0  0  0  0  0  0  0  0
   -3.0419   -1.4491    1.1426 C   0  0  0  0  0  3  0  0  0  0  0  0
   -4.1212   -1.6080    1.2763 H   0  0  0  0  0  0  0  0  0  0  0  0
   -2.3418   -0.5664    2.0112 C   0  0  0  0  0  3  0  0  0  0  0  0
   -2.8746   -0.0359    2.8112 H   0  0  0  0  0  0  0  0  0  0  0  0
   -0.9686   -0.2953    1.7718 C   0  0  0  0  0  3  0  0  0  0  0  0
   -0.4540    0.4356    2.4101 H   0  0  0  0  0  0  0  0  0  0  0  0
    1.8945    0.5291    1.1176 C   0  0  0  0  0  0  0  0  0  0  0  0
    1.9006    0.4637    2.2287 H   0  0  0  0  0  0  0  0  0  0  0  0
    1.4007    1.4946    0.8675 H   0  0  0  0  0  0  0  0  0  0  0  0
    3.2893    0.4355    0.5523 C   0  0  0  0  0  0  0  0  0  0  0  0
    4.4111    1.2397    0.7589 C   0  0  0  0  0  0  0  0  0  0  0  0
    4.3650    2.1139    1.4268 H   0  0  0  0  0  0  0  0  0  0  0  0
    5.6098    0.9153    0.0931 C   0  0  0  0  0  0  0  0  0  0  0  0
    6.5024    1.5412    0.2434 H   0  0  0  0  0  0  0  0  0  0  0  0
    5.6780   -0.1995   -0.7635 C   0  0  0  0  0  0  0  0  0  0  0  0
    6.6246   -0.4340   -1.2739 H   0  0  0  0  0  0  0  0  0  0  0  0
    4.5541   -1.0137   -0.9754 C   0  0  0  0  0  0  0  0  0  0  0  0
    4.6098   -1.8841   -1.6469 H   0  0  0  0  0  0  0  0  0  0  0  0
    3.3548   -0.6916   -0.3143 C   0  0  0  0  0  0  0  0  0  0  0  0
  1 27  1  0  0  0  0
  1  3  2  0  0  0  0
  2  1  1  0  0  0  0
  3  4  1  0  0  0  0
  3 15  1  0  0  0  0
  4 13  1  0  0  0  0
  5  7  1  0  0  0  0
  5  4  1  0  0  0  0
  6  5  1  0  0  0  0
  7  9  1  0  0  0  0
  8  7  1  0  0  0  0
  9 10  1  0  0  0  0
  9 11  1  0  0  0  0
 11 12  1  0  0  0  0
 13 11  1  0  0  0  0
 13 14  1  0  0  0  0
 15 16  1  0  0  0  0
 17 15  1  0  0  0  0
 18 19  1  0  0  0  0
 18 15  1  0  0  0  0
 19 20  1  0  0  0  0
 21 22  1  0  0  0  0
 21 19  2  0  0  0  0
 23 21  1  0  0  0  0
 24 23  1  0  0  0  0
 25 23  2  0  0  0  0
 25 27  1  0  0  0  0
 26 25  1  0  0  0  0
 27 18  2  0  0  0  0
M  END
