1,12,23
 OpenBabel05122313063D

 31 33  0  0  0  0  0  0  0  0999 V2000
    0.4145   -1.4927   -0.0001 C   0  0  0  0  0  3  0  0  0  0  0  0
    1.7656   -1.8552   -0.0000 C   0  0  0  0  0  0  0  0  0  0  0  0
   -0.5723   -2.4850   -0.0000 C   0  0  0  0  0  0  0  0  0  0  0  0
    1.1378   -4.1815    0.0000 C   0  0  0  0  0  0  0  0  0  0  0  0
    1.4237   -5.2430    0.0001 H   0  0  0  0  0  0  0  0  0  0  0  0
    2.1522   -3.2030    0.0000 C   0  0  0  0  0  0  0  0  0  0  0  0
    3.2093   -3.5043    0.0000 H   0  0  0  0  0  0  0  0  0  0  0  0
   -0.2307   -3.8448    0.0000 C   0  0  0  0  0  0  0  0  0  0  0  0
   -0.9942   -4.6356    0.0000 H   0  0  0  0  0  0  0  0  0  0  0  0
   -3.1347   -2.4635    0.0000 C   0  0  0  0  0  0  0  0  0  0  0  0
   -3.3116   -3.5426    0.0000 H   0  0  0  0  0  0  0  0  0  0  0  0
   -1.9327   -0.5204    0.0000 C   0  0  0  0  0  2  0  0  0  0  0  0
   -4.0181   -1.4122    0.0000 C   0  0  0  0  0  0  0  0  0  0  0  0
   -5.1122   -1.4029    0.0000 H   0  0  0  0  0  0  0  0  0  0  0  0
   -3.8227    1.1047   -0.0000 C   0  0  0  0  0  0  0  0  0  0  0  0
   -3.4936    1.6535    0.9029 H   0  0  0  0  0  0  0  0  0  0  0  0
   -4.9250    1.0393    0.0001 H   0  0  0  0  0  0  0  0  0  0  0  0
   -3.4938    1.6534   -0.9030 H   0  0  0  0  0  0  0  0  0  0  0  0
   -3.2649   -0.2407    0.0000 N   0  0  0  0  0  0  0  0  0  0  0  0
   -1.8708   -1.9036   -0.0000 N   0  0  0  0  0  0  0  0  0  0  0  0
    2.5971   -0.7014   -0.0000 N   0  0  0  0  0  0  0  0  0  0  0  0
    2.9800    1.4337    0.0000 N   0  0  0  0  0  0  0  0  0  0  0  0
    1.9612    0.5307   -0.0000 C   0  0  0  0  0  2  0  0  0  0  0  0
    3.9717   -0.5584   -0.0000 C   0  0  0  0  0  0  0  0  0  0  0  0
    4.6612   -1.4073   -0.0001 H   0  0  0  0  0  0  0  0  0  0  0  0
    4.2161    0.7922    0.0000 C   0  0  0  0  0  0  0  0  0  0  0  0
    5.1601    1.3453   -0.0000 H   0  0  0  0  0  0  0  0  0  0  0  0
    2.8188    2.8795    0.0001 C   0  0  0  0  0  0  0  0  0  0  0  0
    1.7412    3.1095    0.0003 H   0  0  0  0  0  0  0  0  0  0  0  0
    3.2876    3.3175   -0.9026 H   0  0  0  0  0  0  0  0  0  0  0  0
    3.2879    3.3174    0.9027 H   0  0  0  0  0  0  0  0  0  0  0  0
  1  2  2  0  0  0  0
  1  3  1  0  0  0  0
  2 21  1  0  0  0  0
  2  6  1  0  0  0  0
  3 20  1  0  0  0  0
  3  8  2  0  0  0  0
  4  5  1  0  0  0  0
  6  7  1  0  0  0  0
  6  4  2  0  0  0  0
  8  4  1  0  0  0  0
  8  9  1  0  0  0  0
 10 11  1  0  0  0  0
 10 13  2  0  0  0  0
 12 19  1  0  0  0  0
 14 13  1  0  0  0  0
 15 19  1  0  0  0  0
 15 17  1  0  0  0  0
 15 16  1  0  0  0  0
 18 15  1  0  0  0  0
 19 13  1  0  0  0  0
 20 12  1  0  0  0  0
 20 10  1  0  0  0  0
 21 24  1  0  0  0  0
 21 23  1  0  0  0  0
 22 28  1  0  0  0  0
 23 22  1  0  0  0  0
 24 26  2  0  0  0  0
 25 24  1  0  0  0  0
 26 22  1  0  0  0  0
 27 26  1  0  0  0  0
 28 29  1  0  0  0  0
 28 31  1  0  0  0  0
 30 28  1  0  0  0  0
M  END
