14,17,23
 OpenBabel05122313063D

 37 37  0  0  1  0  0  0  0  0999 V2000
    2.2839    2.9032   -1.1200 F   0  0  0  0  0  0  0  0  0  0  0  0
    3.9889    1.5586   -1.1800 F   0  0  0  0  0  0  0  0  0  0  0  0
    3.2352    2.2825    0.7460 F   0  0  0  0  0  0  0  0  0  0  0  0
    4.0116   -1.5516   -1.5348 F   0  0  0  0  0  0  0  0  0  0  0  0
    4.5288   -0.6061    0.3612 F   0  0  0  0  0  0  0  0  0  0  0  0
    3.4960   -2.5260    0.3525 F   0  0  0  0  0  0  0  0  0  0  0  0
    1.3886   -2.9123   -1.6500 F   0  0  0  0  0  0  0  0  0  0  0  0
    0.9613   -3.6460    0.3691 F   0  0  0  0  0  0  0  0  0  0  0  0
   -0.6521   -2.9382   -0.8933 F   0  0  0  0  0  0  0  0  0  0  0  0
    1.0905   -1.8391    3.2974 F   0  0  0  0  0  0  0  0  0  0  0  0
    0.7208    0.3127    3.3380 F   0  0  0  0  0  0  0  0  0  0  0  0
    2.4736   -0.4758    2.3270 F   0  0  0  0  0  0  0  0  0  0  0  0
    2.8606    1.8452   -0.4758 C   0  0  0  0  0  0  0  0  0  0  0  0
    1.9265    0.6782   -0.3822 C   0  0  0  0  0  3  0  0  0  0  0  0
    2.2308   -0.6297   -0.2664 C   0  0  0  0  0  0  0  0  0  0  0  0
    3.5775   -1.3251   -0.2693 C   0  0  0  0  0  0  0  0  0  0  0  0
    0.8979   -1.2923   -0.0045 C   0  0  1  0  0  3  0  0  0  0  0  0
    0.6405   -2.6927   -0.5337 C   0  0  0  0  0  0  0  0  0  0  0  0
    0.3165   -0.8732    1.2999 C   0  0  2  0  0  3  0  0  0  0  0  0
    1.1663   -0.6951    2.5515 C   0  0  0  0  0  0  0  0  0  0  0  0
   -1.1131   -0.9614    1.4723 C   0  0  1  0  0  3  0  0  0  0  0  0
   -1.7988   -1.0319    2.8068 C   0  0  0  0  0  0  0  0  0  0  0  0
   -1.8051   -0.7099    0.2785 C   0  0  0  0  0  2  0  0  0  0  0  0
   -3.2093   -1.0442    0.0244 C   0  0  0  0  0  0  0  0  0  0  0  0
   -3.6129   -2.4039    0.0031 C   0  0  0  0  0  0  0  0  0  0  0  0
   -4.9466   -2.7517   -0.2483 C   0  0  0  0  0  0  0  0  0  0  0  0
   -5.9115   -1.7557   -0.4721 C   0  0  0  0  0  0  0  0  0  0  0  0
   -5.5313   -0.4047   -0.4357 C   0  0  0  0  0  0  0  0  0  0  0  0
   -4.1967   -0.0528   -0.1929 C   0  0  0  0  0  0  0  0  0  0  0  0
   -1.6990   -0.0586    3.3294 H   0  0  0  0  0  0  0  0  0  0  0  0
   -1.3287   -1.7924    3.4583 H   0  0  0  0  0  0  0  0  0  0  0  0
   -2.8737   -1.2540    2.6766 H   0  0  0  0  0  0  0  0  0  0  0  0
   -2.8573   -3.1846    0.1702 H   0  0  0  0  0  0  0  0  0  0  0  0
   -5.2359   -3.8135   -0.2673 H   0  0  0  0  0  0  0  0  0  0  0  0
   -6.9588   -2.0318   -0.6660 H   0  0  0  0  0  0  0  0  0  0  0  0
   -6.2829    0.3847   -0.5888 H   0  0  0  0  0  0  0  0  0  0  0  0
   -3.9095    1.0062   -0.1305 H   0  0  0  0  0  0  0  0  0  0  0  0
  1 13  1  0  0  0  0
  2 13  1  0  0  0  0
  4 16  1  0  0  0  0
  7 18  1  0  0  0  0
  9 18  1  0  0  0  0
 12 20  1  0  0  0  0
 13 14  1  0  0  0  0
 13  3  1  0  0  0  0
 14 15  2  0  0  0  0
 16 15  1  0  0  0  0
 16  6  1  0  0  0  0
 16  5  1  0  0  0  0
 17 15  1  1  0  0  0
 17 19  1  0  0  0  0
 18 17  1  0  0  0  0
 18  8  1  0  0  0  0
 19 21  1  0  0  0  0
 19 20  1  1  0  0  0
 20 10  1  0  0  0  0
 20 11  1  0  0  0  0
 21 23  1  1  0  0  0
 21 22  1  0  0  0  0
 22 30  1  0  0  0  0
 22 31  1  0  0  0  0
 24 23  1  0  0  0  0
 25 24  1  0  0  0  0
 25 33  1  0  0  0  0
 26 25  2  0  0  0  0
 27 28  2  0  0  0  0
 27 26  1  0  0  0  0
 28 29  1  0  0  0  0
 29 37  1  0  0  0  0
 29 24  2  0  0  0  0
 32 22  1  0  0  0  0
 34 26  1  0  0  0  0
 35 27  1  0  0  0  0
 36 28  1  0  0  0  0
M  END
