18,23,30
 OpenBabel05122313063D

 36 35  0  0  1  0  0  0  0  0999 V2000
    1.8522   -3.1805    1.6228 F   0  0  0  0  0  0  0  0  0  0  0  0
    2.9556   -3.5855   -0.2247 F   0  0  0  0  0  0  0  0  0  0  0  0
    0.7984   -3.8648   -0.1667 F   0  0  0  0  0  0  0  0  0  0  0  0
    4.5660   -1.4944    0.5789 F   0  0  0  0  0  0  0  0  0  0  0  0
    4.4443   -1.2617   -1.5856 F   0  0  0  0  0  0  0  0  0  0  0  0
    4.5618    0.5033   -0.3038 F   0  0  0  0  0  0  0  0  0  0  0  0
   -0.2796    4.1998    1.1433 F   0  0  0  0  0  0  0  0  0  0  0  0
   -1.2585    2.8715    2.5843 F   0  0  0  0  0  0  0  0  0  0  0  0
    0.9141    3.1115    2.5912 F   0  0  0  0  0  0  0  0  0  0  0  0
   -2.5289    3.2661    0.1096 F   0  0  0  0  0  0  0  0  0  0  0  0
   -2.9157    1.8426   -1.4714 F   0  0  0  0  0  0  0  0  0  0  0  0
   -1.3726    3.3602   -1.7531 F   0  0  0  0  0  0  0  0  0  0  0  0
    2.5183    1.4452   -2.5228 O   0  0  0  0  0  0  0  0  0  0  0  0
    1.8763    2.9098   -0.9141 O   0  0  0  0  0  0  0  0  0  0  0  0
    0.7896    0.3473    3.1832 O   0  0  0  0  0  0  0  0  0  0  0  0
    2.8319    0.1420    2.2067 O   0  0  0  0  0  0  0  0  0  0  0  0
    1.8090   -3.0563    0.2699 C   0  0  0  0  0  0  0  0  0  0  0  0
    1.5945   -1.6314   -0.1252 C   0  0  0  0  0  3  0  0  0  0  0  0
    4.0304   -0.7362   -0.4081 C   0  0  0  0  0  0  0  0  0  0  0  0
    2.5189   -0.6751   -0.3412 C   0  0  0  0  0  0  0  0  0  0  0  0
    2.0529    3.9876   -1.8400 C   0  0  0  0  0  0  0  0  0  0  0  0
    2.0862    1.6672   -1.4001 C   0  0  0  0  0  0  0  0  0  0  0  0
    1.7346    0.6014   -0.4099 C   0  0  2  0  0  3  0  0  0  0  0  0
    3.3332   -0.4795    3.3969 C   0  0  0  0  0  0  0  0  0  0  0  0
    1.5133    0.4384    2.2066 C   0  0  0  0  0  0  0  0  0  0  0  0
    1.0441    0.8991    0.8632 C   0  0  1  0  0  3  0  0  0  0  0  0
   -0.1719    3.0173    1.8004 C   0  0  0  0  0  0  0  0  0  0  0  0
   -0.0360    1.8789    0.7885 C   0  0  2  0  0  3  0  0  0  0  0  0
   -1.9149    2.5113   -0.8315 C   0  0  0  0  0  0  0  0  0  0  0  0
   -0.8626    1.6018   -0.2775 C   0  0  0  0  0  2  0  0  0  0  0  0
    1.7875    4.9039   -1.2843 H   0  0  0  0  0  0  0  0  0  0  0  0
    1.3836    3.8613   -2.7143 H   0  0  0  0  0  0  0  0  0  0  0  0
    3.1010    4.0319   -2.1966 H   0  0  0  0  0  0  0  0  0  0  0  0
    4.4236   -0.5688    3.2523 H   0  0  0  0  0  0  0  0  0  0  0  0
    2.8803   -1.4840    3.5165 H   0  0  0  0  0  0  0  0  0  0  0  0
    3.0955    0.1327    4.2885 H   0  0  0  0  0  0  0  0  0  0  0  0
  2 17  1  0  0  0  0
  3 17  1  0  0  0  0
  5 19  1  0  0  0  0
  7 27  1  0  0  0  0
 11 29  1  0  0  0  0
 12 29  1  0  0  0  0
 13 22  2  0  0  0  0
 16 24  1  0  0  0  0
 17  1  1  0  0  0  0
 18 17  1  0  0  0  0
 19 20  1  0  0  0  0
 19  6  1  0  0  0  0
 19  4  1  0  0  0  0
 20 18  2  0  0  0  0
 21 31  1  0  0  0  0
 21 14  1  0  0  0  0
 22 14  1  0  0  0  0
 23 22  1  1  0  0  0
 23 20  1  0  0  0  0
 23 26  1  0  0  0  0
 24 35  1  0  0  0  0
 24 36  1  0  0  0  0
 25 16  1  0  0  0  0
 25 15  2  0  0  0  0
 26 25  1  1  0  0  0
 27  8  1  0  0  0  0
 27  9  1  0  0  0  0
 28 30  1  1  0  0  0
 28 26  1  0  0  0  0
 28 27  1  0  0  0  0
 29 30  1  0  0  0  0
 29 10  1  0  0  0  0
 32 21  1  0  0  0  0
 33 21  1  0  0  0  0
 34 24  1  0  0  0  0
M  END
