6,8,10
 OpenBabel05122313063D

 23 24  0  0  1  0  0  0  0  0999 V2000
    3.9487    1.3449   -0.2138 C   0  0  0  0  0  0  0  0  0  0  0  0
    2.6009    1.0111   -0.4622 O   0  0  0  0  0  0  0  0  0  0  0  0
    2.3307   -0.3701   -0.4164 C   0  0  1  0  0  0  0  0  0  0  0  0
    2.3629   -1.0248    0.9914 C   0  0  0  0  0  0  0  0  0  0  0  0
    1.3098   -2.1548    0.9401 C   0  0  0  0  0  0  0  0  0  0  0  0
    0.3248   -1.6666   -0.0963 C   0  0  1  0  0  3  0  0  0  0  0  0
   -1.0162   -2.0807   -0.3470 C   0  0  0  0  0  3  0  0  0  0  0  0
   -1.7462   -1.4235   -1.3754 C   0  0  0  0  0  3  0  0  0  0  0  0
   -1.1499   -0.3921   -2.1688 C   0  0  0  0  0  3  0  0  0  0  0  0
    0.1810    0.0229   -1.8988 C   0  0  0  0  0  3  0  0  0  0  0  0
    0.9212   -0.6418   -0.8815 C   0  0  1  0  0  3  0  0  0  0  0  0
    4.0434    2.4406   -0.3372 H   0  0  0  0  0  0  0  0  0  0  0  0
    4.2706    1.0789    0.8203 H   0  0  0  0  0  0  0  0  0  0  0  0
    4.6415    0.8406   -0.9312 H   0  0  0  0  0  0  0  0  0  0  0  0
    3.0422   -0.9088   -1.0998 H   0  0  0  0  0  0  0  0  0  0  0  0
    3.3666   -1.3859    1.2859 H   0  0  0  0  0  0  0  0  0  0  0  0
    2.0431   -0.2488    1.7168 H   0  0  0  0  0  0  0  0  0  0  0  0
    1.7614   -3.1087    0.5884 H   0  0  0  0  0  0  0  0  0  0  0  0
    0.8387   -2.3576    1.9218 H   0  0  0  0  0  0  0  0  0  0  0  0
   -1.5002   -2.8412    0.2807 H   0  0  0  0  0  0  0  0  0  0  0  0
   -2.7997   -1.6889   -1.5431 H   0  0  0  0  0  0  0  0  0  0  0  0
   -1.7496    0.1306   -2.9257 H   0  0  0  0  0  0  0  0  0  0  0  0
    0.6337    0.8653   -2.4401 H   0  0  0  0  0  0  0  0  0  0  0  0
  1 13  1  0  0  0  0
  2  3  1  0  0  0  0
  2  1  1  0  0  0  0
  3 15  1  6  0  0  0
  3  4  1  0  0  0  0
  4 16  1  0  0  0  0
  4 17  1  0  0  0  0
  5  4  1  0  0  0  0
  5 19  1  0  0  0  0
  6  7  1  1  0  0  0
  6  5  1  0  0  0  0
  7 20  1  0  0  0  0
  8  7  1  0  0  0  0
  9 10  1  0  0  0  0
  9  8  1  0  0  0  0
 11 10  1  1  0  0  0
 11  3  1  0  0  0  0
 11  6  1  0  0  0  0
 12  1  1  0  0  0  0
 14  1  1  0  0  0  0
 18  5  1  0  0  0  0
 21  8  1  0  0  0  0
 22  9  1  0  0  0  0
 23 10  1  0  0  0  0
M  END
