15,16,27
 OpenBabel05122313063D

 67 71  0  0  0  0  0  0  0  0999 V2000
    3.7302   -2.4935   -1.1998 Si  0  0  0  0  0  0  0  0  0  0  0  0
   -2.2828    1.6970   -0.4022 N   0  0  0  0  0  0  0  0  0  0  0  0
   -1.2014    2.5983   -0.2109 C   0  0  0  0  0  0  0  0  0  0  0  0
   -3.1337   -0.3316   -0.5719 N   0  0  0  0  0  0  0  0  0  0  0  0
   -1.2159    4.0032   -0.2136 C   0  0  0  0  0  0  0  0  0  0  0  0
   -2.1360    4.5778   -0.3758 H   0  0  0  0  0  0  0  0  0  0  0  0
   -3.7302   -2.4935    1.1998 Si  0  0  0  0  0  0  0  0  0  0  0  0
    2.2828    1.6971    0.4023 N   0  0  0  0  0  0  0  0  0  0  0  0
   -0.0001    4.6823    0.0001 C   0  0  0  0  0  0  0  0  0  0  0  0
   -0.0001    5.7820    0.0001 H   0  0  0  0  0  0  0  0  0  0  0  0
    3.1337   -0.3315    0.5718 N   0  0  0  0  0  0  0  0  0  0  0  0
    1.2158    4.0033    0.2137 C   0  0  0  0  0  0  0  0  0  0  0  0
    2.1359    4.5778    0.3759 H   0  0  0  0  0  0  0  0  0  0  0  0
    1.2014    2.5983    0.2110 C   0  0  0  0  0  0  0  0  0  0  0  0
   -0.0000    1.9005    0.0000 C   0  0  0  0  0  3  0  0  0  0  0  0
   -1.9669    0.3328   -0.3556 C   0  0  0  0  0  2  0  0  0  0  0  0
   -3.6416    1.8766   -0.6431 C   0  0  0  0  0  0  0  0  0  0  0  0
   -4.1881    0.5674   -0.7457 C   0  0  0  0  0  0  0  0  0  0  0  0
   -5.5510    0.3537   -0.9919 C   0  0  0  0  0  0  0  0  0  0  0  0
   -5.9637   -0.6613   -1.0645 H   0  0  0  0  0  0  0  0  0  0  0  0
   -6.3648    1.4871   -1.1325 C   0  0  0  0  0  0  0  0  0  0  0  0
   -7.4401    1.3585   -1.3245 H   0  0  0  0  0  0  0  0  0  0  0  0
   -5.8280    2.7888   -1.0305 C   0  0  0  0  0  0  0  0  0  0  0  0
   -6.4936    3.6569   -1.1452 H   0  0  0  0  0  0  0  0  0  0  0  0
   -4.4636    3.0064   -0.7861 C   0  0  0  0  0  0  0  0  0  0  0  0
   -4.0665    4.0256   -0.7119 H   0  0  0  0  0  0  0  0  0  0  0  0
    1.9668    0.3328    0.3556 C   0  0  0  0  0  2  0  0  0  0  0  0
    4.1881    0.5675    0.7455 C   0  0  0  0  0  0  0  0  0  0  0  0
    3.6416    1.8767    0.6431 C   0  0  0  0  0  0  0  0  0  0  0  0
    4.4636    3.0065    0.7861 C   0  0  0  0  0  0  0  0  0  0  0  0
    4.0664    4.0256    0.7120 H   0  0  0  0  0  0  0  0  0  0  0  0
    5.8279    2.7889    1.0303 C   0  0  0  0  0  0  0  0  0  0  0  0
    6.4935    3.6570    1.1451 H   0  0  0  0  0  0  0  0  0  0  0  0
    6.3649    1.4872    1.1323 C   0  0  0  0  0  0  0  0  0  0  0  0
    7.4401    1.3586    1.3242 H   0  0  0  0  0  0  0  0  0  0  0  0
    5.5510    0.3538    0.9916 C   0  0  0  0  0  0  0  0  0  0  0  0
    5.9638   -0.6612    1.0641 H   0  0  0  0  0  0  0  0  0  0  0  0
    3.2716   -1.7839    0.5368 C   0  0  0  0  0  0  0  0  0  0  0  0
    2.2790   -2.2123    0.7900 H   0  0  0  0  0  0  0  0  0  0  0  0
    3.9968   -2.0919    1.3179 H   0  0  0  0  0  0  0  0  0  0  0  0
    3.3049   -4.3306   -1.1267 C   0  0  0  0  0  0  0  0  0  0  0  0
    3.5243   -4.8318   -2.0917 H   0  0  0  0  0  0  0  0  0  0  0  0
    2.2224   -4.4409   -0.9110 H   0  0  0  0  0  0  0  0  0  0  0  0
    3.8760   -4.8553   -0.3333 H   0  0  0  0  0  0  0  0  0  0  0  0
    5.5793   -2.2410   -1.5356 C   0  0  0  0  0  0  0  0  0  0  0  0
    5.8423   -1.1641   -1.5733 H   0  0  0  0  0  0  0  0  0  0  0  0
    5.8584   -2.6891   -2.5120 H   0  0  0  0  0  0  0  0  0  0  0  0
    6.2067   -2.7220   -0.7564 H   0  0  0  0  0  0  0  0  0  0  0  0
    2.6993   -1.5971   -2.4968 C   0  0  0  0  0  0  0  0  0  0  0  0
    2.9113   -0.5085   -2.5082 H   0  0  0  0  0  0  0  0  0  0  0  0
    1.6223   -1.7346   -2.2714 H   0  0  0  0  0  0  0  0  0  0  0  0
    2.9094   -1.9968   -3.5102 H   0  0  0  0  0  0  0  0  0  0  0  0
   -3.2716   -1.7840   -0.5368 C   0  0  0  0  0  0  0  0  0  0  0  0
   -2.2790   -2.2124   -0.7900 H   0  0  0  0  0  0  0  0  0  0  0  0
   -3.9969   -2.0920   -1.3178 H   0  0  0  0  0  0  0  0  0  0  0  0
   -2.6993   -1.5970    2.4967 C   0  0  0  0  0  0  0  0  0  0  0  0
   -2.9092   -1.9969    3.5101 H   0  0  0  0  0  0  0  0  0  0  0  0
   -2.9115   -0.5084    2.5084 H   0  0  0  0  0  0  0  0  0  0  0  0
   -1.6222   -1.7343    2.2713 H   0  0  0  0  0  0  0  0  0  0  0  0
   -3.3049   -4.3306    1.1269 C   0  0  0  0  0  0  0  0  0  0  0  0
   -3.5244   -4.8317    2.0920 H   0  0  0  0  0  0  0  0  0  0  0  0
   -2.2224   -4.4409    0.9112 H   0  0  0  0  0  0  0  0  0  0  0  0
   -3.8761   -4.8553    0.3335 H   0  0  0  0  0  0  0  0  0  0  0  0
   -5.5793   -2.2409    1.5356 C   0  0  0  0  0  0  0  0  0  0  0  0
   -5.8583   -2.6888    2.5122 H   0  0  0  0  0  0  0  0  0  0  0  0
   -6.2067   -2.7222    0.7566 H   0  0  0  0  0  0  0  0  0  0  0  0
   -5.8423   -1.1641    1.5731 H   0  0  0  0  0  0  0  0  0  0  0  0
  1 41  1  0  0  0  0
  1 38  1  0  0  0  0
  2 16  1  0  0  0  0
  2  3  1  0  0  0  0
  3 15  1  0  0  0  0
  4 53  1  0  0  0  0
  4 16  1  0  0  0  0
  5  3  2  0  0  0  0
  5  9  1  0  0  0  0
  6  5  1  0  0  0  0
  7 64  1  0  0  0  0
  7 56  1  0  0  0  0
  8 29  1  0  0  0  0
  9 10  1  0  0  0  0
  9 12  2  0  0  0  0
 11 28  1  0  0  0  0
 12 13  1  0  0  0  0
 14 12  1  0  0  0  0
 14  8  1  0  0  0  0
 15 14  2  0  0  0  0
 17  2  1  0  0  0  0
 18 17  1  0  0  0  0
 18  4  1  0  0  0  0
 19 18  2  0  0  0  0
 20 19  1  0  0  0  0
 21 23  2  0  0  0  0
 21 19  1  0  0  0  0
 22 21  1  0  0  0  0
 23 25  1  0  0  0  0
 24 23  1  0  0  0  0
 25 26  1  0  0  0  0
 25 17  2  0  0  0  0
 27  8  1  0  0  0  0
 27 11  1  0  0  0  0
 28 36  1  0  0  0  0
 29 28  2  0  0  0  0
 29 30  1  0  0  0  0
 30 32  2  0  0  0  0
 31 30  1  0  0  0  0
 32 34  1  0  0  0  0
 32 33  1  0  0  0  0
 34 35  1  0  0  0  0
 36 37  1  0  0  0  0
 36 34  2  0  0  0  0
 38 11  1  0  0  0  0
 38 39  1  0  0  0  0
 38 40  1  0  0  0  0
 41 43  1  0  0  0  0
 41 44  1  0  0  0  0
 42 41  1  0  0  0  0
 45  1  1  0  0  0  0
 45 48  1  0  0  0  0
 46 45  1  0  0  0  0
 47 45  1  0  0  0  0
 49 51  1  0  0  0  0
 49  1  1  0  0  0  0
 50 49  1  0  0  0  0
 52 49  1  0  0  0  0
 53  7  1  0  0  0  0
 54 53  1  0  0  0  0
 55 53  1  0  0  0  0
 56 58  1  0  0  0  0
 56 57  1  0  0  0  0
 59 56  1  0  0  0  0
 60  7  1  0  0  0  0
 60 61  1  0  0  0  0
 62 60  1  0  0  0  0
 63 60  1  0  0  0  0
 64 67  1  0  0  0  0
 64 65  1  0  0  0  0
 66 64  1  0  0  0  0
M  END
