17,21,23
 OpenBabel05122313063D

 26 27  0  0  0  0  0  0  0  0999 V2000
   -4.4573   -0.8787   -0.9234 C   0  0  0  0  0  0  0  0  0  0  0  0
   -4.1272   -1.6679   -1.6175 H   0  0  0  0  0  0  0  0  0  0  0  0
   -5.7919   -0.4548   -0.9344 C   0  0  0  0  0  0  0  0  0  0  0  0
   -6.5053   -0.9117   -1.6370 H   0  0  0  0  0  0  0  0  0  0  0  0
   -6.2172    0.5514   -0.0532 C   0  0  0  0  0  0  0  0  0  0  0  0
   -7.2645    0.8891   -0.0599 H   0  0  0  0  0  0  0  0  0  0  0  0
   -5.2930    1.1295    0.8358 C   0  0  0  0  0  0  0  0  0  0  0  0
   -5.6170    1.9239    1.5253 H   0  0  0  0  0  0  0  0  0  0  0  0
   -3.9605    0.7066    0.8466 C   0  0  0  0  0  0  0  0  0  0  0  0
   -3.2521    1.1807    1.5421 H   0  0  0  0  0  0  0  0  0  0  0  0
   -3.5130   -0.3122   -0.0320 C   0  0  0  0  0  0  0  0  0  0  0  0
   -2.1337   -0.7976   -0.0610 C   0  0  0  0  0  0  0  0  0  0  0  0
   -1.9279   -1.5469   -0.8446 H   0  0  0  0  0  0  0  0  0  0  0  0
   -1.1204   -0.4323    0.7709 C   0  0  0  0  0  0  0  0  0  0  0  0
   -1.3205    0.2864    1.5827 H   0  0  0  0  0  0  0  0  0  0  0  0
    0.2529   -0.9234    0.7181 C   0  0  0  0  0  3  0  0  0  0  0  0
    1.1603   -0.6194    1.7866 C   0  0  0  0  0  3  0  0  0  0  0  0
    0.7960   -0.0143    2.6296 H   0  0  0  0  0  0  0  0  0  0  0  0
    2.5083   -1.0738    1.7851 C   0  0  0  0  0  3  0  0  0  0  0  0
    3.1804   -0.8054    2.6107 H   0  0  0  0  0  0  0  0  0  0  0  0
    3.0015   -1.7851    0.6597 C   0  0  0  0  0  3  0  0  0  0  0  0
    4.0600   -2.0781    0.6171 H   0  0  0  0  0  0  0  0  0  0  0  0
    0.7948   -1.6322   -0.4100 C   0  0  0  0  0  3  0  0  0  0  0  0
    0.1606   -1.8053   -1.2901 H   0  0  0  0  0  0  0  0  0  0  0  0
    2.1349   -2.0965   -0.4275 C   0  0  0  0  0  3  0  0  0  0  0  0
    2.5248   -2.6138   -1.3140 H   0  0  0  0  0  0  0  0  0  0  0  0
  1 11  1  0  0  0  0
  2  1  1  0  0  0  0
  3  1  2  0  0  0  0
  3  5  1  0  0  0  0
  4  3  1  0  0  0  0
  5  7  2  0  0  0  0
  6  5  1  0  0  0  0
  7  9  1  0  0  0  0
  7  8  1  0  0  0  0
  9 10  1  0  0  0  0
 11  9  2  0  0  0  0
 12 11  1  0  0  0  0
 12 14  2  0  0  0  0
 13 12  1  0  0  0  0
 14 15  1  0  0  0  0
 16 14  1  0  0  0  0
 16 17  1  0  0  0  0
 17 18  1  0  0  0  0
 19 17  1  0  0  0  0
 19 20  1  0  0  0  0
 21 19  1  0  0  0  0
 22 21  1  0  0  0  0
 23 16  1  0  0  0  0
 24 23  1  0  0  0  0
 25 23  1  0  0  0  0
 25 21  1  0  0  0  0
 26 25  1  0  0  0  0
M  END
