4,11,13
 OpenBabel05122313063D

 46 48  0  0  0  0  0  0  0  0999 V2000
    1.8515   -0.1114   -0.0376 P   0  0  0  0  0  4  0  0  0  0  0  0
   -1.2887   -3.7321   -1.4391 O   0  0  0  0  0  0  0  0  0  0  0  0
   -0.1503   -4.1548    0.4751 O   0  0  0  0  0  0  0  0  0  0  0  0
   -1.9495    2.1751    0.4162 C   0  0  0  0  0  3  0  0  0  0  0  0
   -3.1593    2.8930    0.5256 C   0  0  0  0  0  0  0  0  0  0  0  0
   -3.1952    4.2730    0.7972 C   0  0  0  0  0  0  0  0  0  0  0  0
   -1.9987    4.9952    0.9684 C   0  0  0  0  0  0  0  0  0  0  0  0
   -0.7760    4.3242    0.8617 C   0  0  0  0  0  0  0  0  0  0  0  0
   -0.7540    2.9347    0.5889 C   0  0  0  0  0  0  0  0  0  0  0  0
    0.4835    2.1835    0.4472 C   0  0  0  0  0  0  0  0  0  0  0  0
    0.3885    0.8380    0.1994 C   0  0  0  0  0  3  0  0  0  0  0  0
    1.2693   -1.7742   -0.3206 C   0  0  0  0  0  0  0  0  0  0  0  0
   -0.0814   -1.9357   -0.3432 C   0  0  0  0  0  3  0  0  0  0  0  0
   -0.5680   -3.3279   -0.5365 C   0  0  0  0  0  0  0  0  0  0  0  0
   -0.6549   -5.4941    0.4131 C   0  0  0  0  0  0  0  0  0  0  0  0
    3.0069   -0.1086    1.3847 C   0  0  0  0  0  0  0  0  0  0  0  0
    2.5805    0.4150    2.6209 C   0  0  0  0  0  0  0  0  0  0  0  0
    3.4334    0.3618    3.7341 C   0  0  0  0  0  0  0  0  0  0  0  0
    4.7071   -0.2166    3.6191 C   0  0  0  0  0  0  0  0  0  0  0  0
    5.1328   -0.7428    2.3877 C   0  0  0  0  0  0  0  0  0  0  0  0
    4.2872   -0.6904    1.2708 C   0  0  0  0  0  0  0  0  0  0  0  0
    2.8452    0.4349   -1.4729 C   0  0  0  0  0  0  0  0  0  0  0  0
    2.5227   -0.0682   -2.7503 C   0  0  0  0  0  0  0  0  0  0  0  0
    3.1816    0.4269   -3.8850 C   0  0  0  0  0  0  0  0  0  0  0  0
    4.1597    1.4259   -3.7518 C   0  0  0  0  0  0  0  0  0  0  0  0
    4.4815    1.9296   -2.4806 C   0  0  0  0  0  0  0  0  0  0  0  0
    3.8274    1.4385   -1.3415 C   0  0  0  0  0  0  0  0  0  0  0  0
   -4.1229    2.3668    0.3929 H   0  0  0  0  0  0  0  0  0  0  0  0
   -4.1638    4.7933    0.8755 H   0  0  0  0  0  0  0  0  0  0  0  0
   -2.0268    6.0751    1.1803 H   0  0  0  0  0  0  0  0  0  0  0  0
    0.1728    4.8726    0.9861 H   0  0  0  0  0  0  0  0  0  0  0  0
    1.4408    2.7407    0.5349 H   0  0  0  0  0  0  0  0  0  0  0  0
    2.0156   -2.5848   -0.4277 H   0  0  0  0  0  0  0  0  0  0  0  0
   -0.2363   -6.0197    1.2901 H   0  0  0  0  0  0  0  0  0  0  0  0
   -1.7636   -5.5035    0.4531 H   0  0  0  0  0  0  0  0  0  0  0  0
   -0.3412   -5.9947   -0.5249 H   0  0  0  0  0  0  0  0  0  0  0  0
    1.5802    0.8676    2.6988 H   0  0  0  0  0  0  0  0  0  0  0  0
    3.0993    0.7760    4.6974 H   0  0  0  0  0  0  0  0  0  0  0  0
    5.3742   -0.2573    4.4936 H   0  0  0  0  0  0  0  0  0  0  0  0
    6.1319   -1.1954    2.2964 H   0  0  0  0  0  0  0  0  0  0  0  0
    4.6266   -1.0945    0.3042 H   0  0  0  0  0  0  0  0  0  0  0  0
    1.7529   -0.8497   -2.8475 H   0  0  0  0  0  0  0  0  0  0  0  0
    2.9292    0.0293   -4.8796 H   0  0  0  0  0  0  0  0  0  0  0  0
    4.6754    1.8134   -4.6434 H   0  0  0  0  0  0  0  0  0  0  0  0
    5.2491    2.7112   -2.3749 H   0  0  0  0  0  0  0  0  0  0  0  0
    4.0852    1.8305   -0.3456 H   0  0  0  0  0  0  0  0  0  0  0  0
  1 11  1  0  0  0  0
  1 16  1  0  0  0  0
  2 14  2  0  0  0  0
  4  5  2  0  0  0  0
  4  9  1  0  0  0  0
  5  6  1  0  0  0  0
  6 29  1  0  0  0  0
  6  7  2  0  0  0  0
  7 30  1  0  0  0  0
  8  7  1  0  0  0  0
  8 31  1  0  0  0  0
  9  8  2  0  0  0  0
 10 32  1  0  0  0  0
 10  9  1  0  0  0  0
 11 10  2  0  0  0  0
 12  1  1  0  0  0  0
 13 12  2  0  0  0  0
 14 13  1  0  0  0  0
 14  3  1  0  0  0  0
 15 35  1  0  0  0  0
 15  3  1  0  0  0  0
 15 34  1  0  0  0  0
 16 17  1  0  0  0  0
 17 37  1  0  0  0  0
 17 18  2  0  0  0  0
 18 38  1  0  0  0  0
 19 18  1  0  0  0  0
 19 39  1  0  0  0  0
 20 19  2  0  0  0  0
 21 16  2  0  0  0  0
 21 20  1  0  0  0  0
 22 27  1  0  0  0  0
 22  1  1  0  0  0  0
 23 22  2  0  0  0  0
 24 25  2  0  0  0  0
 24 23  1  0  0  0  0
 25 26  1  0  0  0  0
 26 45  1  0  0  0  0
 26 27  2  0  0  0  0
 27 46  1  0  0  0  0
 28  5  1  0  0  0  0
 33 12  1  0  0  0  0
 36 15  1  0  0  0  0
 40 20  1  0  0  0  0
 41 21  1  0  0  0  0
 42 23  1  0  0  0  0
 43 24  1  0  0  0  0
 44 25  1  0  0  0  0
M  END
