7,9,11
 OpenBabel05122313063D

 29 30  0  0  1  0  0  0  0  0999 V2000
   -2.2296   -0.8963    1.7561 O   0  0  0  0  0  0  0  0  0  0  0  0
   -3.9118   -1.2724   -0.6322 O   0  0  0  0  0  0  0  0  0  0  0  0
   -4.0658    0.9815   -0.4435 O   0  0  0  0  0  0  0  0  0  0  0  0
   -1.3922   -0.0453    0.9694 C   0  0  2  0  0  0  0  0  0  0  0  0
   -1.8865    0.0505   -0.5369 C   0  0  1  0  0  0  0  0  0  0  0  0
   -1.1006   -1.0174   -1.3261 C   0  0  0  0  0  0  0  0  0  0  0  0
    0.1304   -1.2660   -0.4951 C   0  0  2  0  0  3  0  0  0  0  0  0
    1.3161   -1.9611   -0.8515 C   0  0  0  0  0  3  0  0  0  0  0  0
    2.3562   -2.0669    0.1193 C   0  0  0  0  0  3  0  0  0  0  0  0
    2.2054   -1.5263    1.4282 C   0  0  0  0  0  3  0  0  0  0  0  0
    1.0202   -0.8057    1.7589 C   0  0  0  0  0  3  0  0  0  0  0  0
   -0.0254   -0.6995    0.8053 C   0  0  2  0  0  3  0  0  0  0  0  0
   -1.3859    1.3064    1.6684 C   0  0  0  0  0  0  0  0  0  0  0  0
   -3.3820   -0.1738   -0.5694 C   0  0  0  0  0  0  0  0  0  0  0  0
   -5.4912    0.8445   -0.3357 C   0  0  0  0  0  0  0  0  0  0  0  0
   -2.4697   -1.6747    1.2140 H   0  0  0  0  0  0  0  0  0  0  0  0
   -1.6525    1.0646   -0.9112 H   0  0  0  0  0  0  0  0  0  0  0  0
   -1.6996   -1.9509   -1.3996 H   0  0  0  0  0  0  0  0  0  0  0  0
   -0.8640   -0.6908   -2.3571 H   0  0  0  0  0  0  0  0  0  0  0  0
    1.4558   -2.3589   -1.8655 H   0  0  0  0  0  0  0  0  0  0  0  0
    3.3026   -2.5540   -0.1557 H   0  0  0  0  0  0  0  0  0  0  0  0
    3.0327   -1.5893    2.1472 H   0  0  0  0  0  0  0  0  0  0  0  0
    0.9223   -0.3273    2.7438 H   0  0  0  0  0  0  0  0  0  0  0  0
   -0.6852    2.0045    1.1752 H   0  0  0  0  0  0  0  0  0  0  0  0
   -1.0873    1.1843    2.7281 H   0  0  0  0  0  0  0  0  0  0  0  0
   -2.4065    1.7344    1.6458 H   0  0  0  0  0  0  0  0  0  0  0  0
   -5.9047    0.3378   -1.2301 H   0  0  0  0  0  0  0  0  0  0  0  0
   -5.8906    1.8702   -0.2508 H   0  0  0  0  0  0  0  0  0  0  0  0
   -5.7562    0.2475    0.5596 H   0  0  0  0  0  0  0  0  0  0  0  0
  2 14  2  0  0  0  0
  3 15  1  0  0  0  0
  4 13  1  0  0  0  0
  4  1  1  1  0  0  0
  5 17  1  6  0  0  0
  5  4  1  0  0  0  0
  6  5  1  0  0  0  0
  6  7  1  0  0  0  0
  7  8  1  1  0  0  0
  7 12  1  0  0  0  0
  8  9  1  0  0  0  0
  9 10  1  0  0  0  0
 10 11  1  0  0  0  0
 10 22  1  0  0  0  0
 11 23  1  0  0  0  0
 12  4  1  0  0  0  0
 12 11  1  1  0  0  0
 13 25  1  0  0  0  0
 14  5  1  0  0  0  0
 14  3  1  0  0  0  0
 15 28  1  0  0  0  0
 15 29  1  0  0  0  0
 16  1  1  0  0  0  0
 18  6  1  0  0  0  0
 19  6  1  0  0  0  0
 20  8  1  0  0  0  0
 21  9  1  0  0  0  0
 24 13  1  0  0  0  0
 26 13  1  0  0  0  0
 27 15  1  0  0  0  0
M  END
