4,6,8
 OpenBabel05122313063D

 35 35  0  0  1  0  0  0  0  0999 V2000
    2.7570   -1.3563    0.0946 Si  0  0  0  0  0  0  0  0  0  0  0  0
   -2.7570   -1.3561    0.0946 Si  0  0  0  0  0  0  0  0  0  0  0  0
   -0.0000   -1.0154   -0.1680 N   0  0  0  0  0  2  0  0  0  0  0  0
    1.1971   -0.5529   -0.6801 C   0  0  2  0  0  3  0  0  0  0  0  0
    1.2275    0.3780   -1.7677 C   0  0  0  0  0  3  0  0  0  0  0  0
   -0.0000    0.8641   -2.2936 C   0  0  0  0  0  3  0  0  0  0  0  0
   -1.2275    0.3779   -1.7677 C   0  0  0  0  0  3  0  0  0  0  0  0
   -1.1971   -0.5529   -0.6802 C   0  0  1  0  0  3  0  0  0  0  0  0
    4.2437   -0.2280   -0.1964 C   0  0  0  0  0  0  0  0  0  0  0  0
    2.9688   -3.0016   -0.8164 C   0  0  0  0  0  0  0  0  0  0  0  0
    2.4330   -1.6496    1.9253 C   0  0  0  0  0  0  0  0  0  0  0  0
   -2.9693   -3.0014   -0.8166 C   0  0  0  0  0  0  0  0  0  0  0  0
   -2.4329   -1.6497    1.9252 C   0  0  0  0  0  0  0  0  0  0  0  0
   -4.2437   -0.2276   -0.1962 C   0  0  0  0  0  0  0  0  0  0  0  0
    2.1872    0.7520   -2.1495 H   0  0  0  0  0  0  0  0  0  0  0  0
    0.0000    1.6208   -3.0920 H   0  0  0  0  0  0  0  0  0  0  0  0
   -2.1873    0.7519   -2.1496 H   0  0  0  0  0  0  0  0  0  0  0  0
    4.4275   -0.0486   -1.2756 H   0  0  0  0  0  0  0  0  0  0  0  0
    5.1610   -0.6911    0.2222 H   0  0  0  0  0  0  0  0  0  0  0  0
    4.1011    0.7505    0.3047 H   0  0  0  0  0  0  0  0  0  0  0  0
    3.1385   -2.8469   -1.9014 H   0  0  0  0  0  0  0  0  0  0  0  0
    2.0610   -3.6273   -0.6962 H   0  0  0  0  0  0  0  0  0  0  0  0
    3.8325   -3.5686   -0.4119 H   0  0  0  0  0  0  0  0  0  0  0  0
    2.4651   -0.7014    2.4962 H   0  0  0  0  0  0  0  0  0  0  0  0
    3.1885   -2.3405    2.3519 H   0  0  0  0  0  0  0  0  0  0  0  0
    1.4281   -2.0989    2.0543 H   0  0  0  0  0  0  0  0  0  0  0  0
   -3.1391   -2.8465   -1.9015 H   0  0  0  0  0  0  0  0  0  0  0  0
   -3.8331   -3.5682   -0.4120 H   0  0  0  0  0  0  0  0  0  0  0  0
   -2.0616   -3.6273   -0.6965 H   0  0  0  0  0  0  0  0  0  0  0  0
   -1.4277   -2.0984    2.0541 H   0  0  0  0  0  0  0  0  0  0  0  0
   -3.1879   -2.3411    2.3517 H   0  0  0  0  0  0  0  0  0  0  0  0
   -2.4655   -0.7016    2.4963 H   0  0  0  0  0  0  0  0  0  0  0  0
   -4.4276   -0.0482   -1.2754 H   0  0  0  0  0  0  0  0  0  0  0  0
   -4.1009    0.7508    0.3049 H   0  0  0  0  0  0  0  0  0  0  0  0
   -5.1610   -0.6906    0.2225 H   0  0  0  0  0  0  0  0  0  0  0  0
  1 11  1  0  0  0  0
  2 13  1  0  0  0  0
  4  3  1  0  0  0  0
  4  1  1  6  0  0  0
  5  4  1  0  0  0  0
  6  7  1  0  0  0  0
  6  5  1  0  0  0  0
  7  8  1  0  0  0  0
  8  3  1  0  0  0  0
  8  2  1  6  0  0  0
  9  1  1  0  0  0  0
  9 19  1  0  0  0  0
  9 20  1  0  0  0  0
 10 22  1  0  0  0  0
 10 23  1  0  0  0  0
 10  1  1  0  0  0  0
 11 26  1  0  0  0  0
 11 25  1  0  0  0  0
 11 24  1  0  0  0  0
 12 29  1  0  0  0  0
 12 28  1  0  0  0  0
 12  2  1  0  0  0  0
 13 30  1  0  0  0  0
 13 31  1  0  0  0  0
 13 32  1  0  0  0  0
 14  2  1  0  0  0  0
 14 35  1  0  0  0  0
 14 34  1  0  0  0  0
 15  5  1  0  0  0  0
 16  6  1  0  0  0  0
 17  7  1  0  0  0  0
 18  9  1  0  0  0  0
 21 10  1  0  0  0  0
 27 12  1  0  0  0  0
 33 14  1  0  0  0  0
M  END
