5,7,9
 OpenBabel05122313063D

 30 30  0  0  1  0  0  0  0  0999 V2000
   -2.2146    2.6234   -0.1666 O   0  0  0  0  0  0  0  0  0  0  0  0
   -2.0541   -1.9960   -0.1954 O   0  0  0  0  0  0  0  0  0  0  0  0
   -3.1907    0.0425    0.0079 O   0  0  0  0  0  0  0  0  0  0  0  0
   -0.3045    1.2299    0.3381 C   0  0  1  0  0  3  0  0  0  0  0  0
    0.8096    1.6290    1.1406 C   0  0  0  0  0  3  0  0  0  0  0  0
    1.4015    0.7696    2.1014 C   0  0  0  0  0  3  0  0  0  0  0  0
    0.8913   -0.5504    2.2553 C   0  0  0  0  0  3  0  0  0  0  0  0
   -0.2225   -0.9794    1.4934 C   0  0  0  0  0  3  0  0  0  0  0  0
   -0.7954   -0.1107    0.5120 C   0  0  1  0  0  3  0  0  0  0  0  0
   -0.9589    2.1866   -0.6663 C   0  0  2  0  0  0  0  0  0  0  0  0
   -1.9590   -0.6161   -0.3347 C   0  0  0  0  0  0  0  0  0  0  0  0
   -2.7867   -2.6306   -1.2377 C   0  0  0  0  0  0  0  0  0  0  0  0
   -3.5917   -0.1163    1.3713 C   0  0  0  0  0  0  0  0  0  0  0  0
   -0.1354    3.4263   -0.9864 C   0  0  0  0  0  0  0  0  0  0  0  0
    1.2473    2.6233    0.9832 H   0  0  0  0  0  0  0  0  0  0  0  0
    2.2843    1.0967    2.6662 H   0  0  0  0  0  0  0  0  0  0  0  0
    1.3778   -1.2500    2.9497 H   0  0  0  0  0  0  0  0  0  0  0  0
   -0.5969   -2.0073    1.5651 H   0  0  0  0  0  0  0  0  0  0  0  0
   -1.0854    1.6176   -1.6200 H   0  0  0  0  0  0  0  0  0  0  0  0
   -1.8113   -0.3320   -1.3995 H   0  0  0  0  0  0  0  0  0  0  0  0
   -3.8083   -2.2040   -1.3333 H   0  0  0  0  0  0  0  0  0  0  0  0
   -2.2510   -2.5325   -2.2082 H   0  0  0  0  0  0  0  0  0  0  0  0
   -2.8613   -3.7019   -0.9745 H   0  0  0  0  0  0  0  0  0  0  0  0
   -3.5665   -1.1848    1.6696 H   0  0  0  0  0  0  0  0  0  0  0  0
   -4.6302    0.2576    1.4401 H   0  0  0  0  0  0  0  0  0  0  0  0
   -2.9461    0.4744    2.0577 H   0  0  0  0  0  0  0  0  0  0  0  0
   -0.6715    4.0184   -1.7519 H   0  0  0  0  0  0  0  0  0  0  0  0
    0.8685    3.1696   -1.3750 H   0  0  0  0  0  0  0  0  0  0  0  0
   -0.0311    4.0679   -0.0886 H   0  0  0  0  0  0  0  0  0  0  0  0
   -2.7940    1.8257   -0.1635 H   0  0  0  0  0  0  0  0  0  0  0  0
  1 30  1  0  0  0  0
  3 13  1  0  0  0  0
  4 10  1  1  0  0  0
  4  9  1  0  0  0  0
  4  5  1  0  0  0  0
  5  6  1  0  0  0  0
  6  7  1  0  0  0  0
  6 16  1  0  0  0  0
  7 17  1  0  0  0  0
  8 18  1  0  0  0  0
  8  7  1  0  0  0  0
  9 11  1  1  0  0  0
  9  8  1  0  0  0  0
 10 19  1  6  0  0  0
 10  1  1  0  0  0  0
 11  2  1  0  0  0  0
 11  3  1  0  0  0  0
 12 23  1  0  0  0  0
 12  2  1  0  0  0  0
 13 25  1  0  0  0  0
 13 24  1  0  0  0  0
 13 26  1  0  0  0  0
 14 10  1  0  0  0  0
 14 29  1  0  0  0  0
 15  5  1  0  0  0  0
 20 11  1  0  0  0  0
 21 12  1  0  0  0  0
 22 12  1  0  0  0  0
 27 14  1  0  0  0  0
 28 14  1  0  0  0  0
M  END
