2,18,19
 OpenBabel05122313063D

 45 45  0  0  1  0  0  0  0  0999 V2000
    1.8807    0.0625   -0.9218 P   0  0  0  0  0  2  0  0  0  0  0  0
    0.7731    1.4659   -0.8905 C   0  0  1  0  0  3  0  0  0  0  0  0
    1.4821    2.8603   -0.8610 C   0  0  0  0  0  0  0  0  0  0  0  0
    0.8277    3.7990    0.1760 C   0  0  0  0  0  0  0  0  0  0  0  0
    0.9135    3.3770    1.1967 H   0  0  0  0  0  0  0  0  0  0  0  0
   -0.2473    3.9687   -0.0318 H   0  0  0  0  0  0  0  0  0  0  0  0
    1.3343    4.7852    0.1596 H   0  0  0  0  0  0  0  0  0  0  0  0
    1.3408    3.4696   -2.2757 C   0  0  0  0  0  0  0  0  0  0  0  0
    1.8562    4.4506   -2.3262 H   0  0  0  0  0  0  0  0  0  0  0  0
    0.2749    3.6244   -2.5403 H   0  0  0  0  0  0  0  0  0  0  0  0
    1.7890    2.8034   -3.0407 H   0  0  0  0  0  0  0  0  0  0  0  0
    2.9829    2.7577   -0.5204 C   0  0  0  0  0  0  0  0  0  0  0  0
    3.5504    2.1839   -1.2795 H   0  0  0  0  0  0  0  0  0  0  0  0
    3.1525    2.2841    0.4668 H   0  0  0  0  0  0  0  0  0  0  0  0
    3.4138    3.7788   -0.4838 H   0  0  0  0  0  0  0  0  0  0  0  0
   -0.9944    1.5975   -0.9216 P   0  0  0  0  0  2  0  0  0  0  0  0
   -0.8863   -1.6600   -0.9215 P   0  0  0  0  0  2  0  0  0  0  0  0
   -1.6559   -0.0634   -0.8906 C   0  0  2  0  0  3  0  0  0  0  0  0
    0.8829   -1.4024   -0.8907 C   0  0  1  0  0  3  0  0  0  0  0  0
   -3.2180   -0.1466   -0.8612 C   0  0  0  0  0  0  0  0  0  0  0  0
    1.7361   -2.7135   -0.8615 C   0  0  0  0  0  0  0  0  0  0  0  0
   -3.7039   -1.1817    0.1766 C   0  0  0  0  0  0  0  0  0  0  0  0
    2.8759   -2.6163    0.1758 C   0  0  0  0  0  0  0  0  0  0  0  0
   -3.3821   -0.8949    1.1972 H   0  0  0  0  0  0  0  0  0  0  0  0
    2.4672   -2.4793    1.1963 H   0  0  0  0  0  0  0  0  0  0  0  0
   -3.3126   -2.1976   -0.0298 H   0  0  0  0  0  0  0  0  0  0  0  0
    3.5607   -1.7704   -0.0320 H   0  0  0  0  0  0  0  0  0  0  0  0
   -4.8113   -1.2367    0.1596 H   0  0  0  0  0  0  0  0  0  0  0  0
    3.4765   -3.5483    0.1597 H   0  0  0  0  0  0  0  0  0  0  0  0
   -3.6749   -0.5748   -2.2757 C   0  0  0  0  0  0  0  0  0  0  0  0
    2.3347   -2.8954   -2.2762 C   0  0  0  0  0  0  0  0  0  0  0  0
   -4.7822   -0.6188   -2.3263 H   0  0  0  0  0  0  0  0  0  0  0  0
    2.9266   -3.8322   -2.3268 H   0  0  0  0  0  0  0  0  0  0  0  0
   -3.2761   -1.5756   -2.5393 H   0  0  0  0  0  0  0  0  0  0  0  0
    3.0016   -2.0496   -2.5405 H   0  0  0  0  0  0  0  0  0  0  0  0
   -3.3218    0.1457   -3.0412 H   0  0  0  0  0  0  0  0  0  0  0  0
    1.5338   -2.9504   -3.0414 H   0  0  0  0  0  0  0  0  0  0  0  0
   -3.8796    1.2048   -0.5220 C   0  0  0  0  0  0  0  0  0  0  0  0
    0.8968   -3.9621   -0.5215 C   0  0  0  0  0  0  0  0  0  0  0  0
   -3.6665    1.9823   -1.2819 H   0  0  0  0  0  0  0  0  0  0  0  0
    0.1163   -4.1665   -1.2808 H   0  0  0  0  0  0  0  0  0  0  0  0
   -3.5542    1.5895    0.4648 H   0  0  0  0  0  0  0  0  0  0  0  0
    0.4016   -3.8725    0.4657 H   0  0  0  0  0  0  0  0  0  0  0  0
   -4.9794    1.0673   -0.4852 H   0  0  0  0  0  0  0  0  0  0  0  0
    1.5658   -4.8458   -0.4850 H   0  0  0  0  0  0  0  0  0  0  0  0
  1 19  1  0  0  0  0
  1  2  1  0  0  0  0
  2  3  1  6  0  0  0
  3 12  1  0  0  0  0
  3  4  1  0  0  0  0
  4  5  1  0  0  0  0
  6  4  1  0  0  0  0
  7  4  1  0  0  0  0
  8  3  1  0  0  0  0
  9  8  1  0  0  0  0
 10  8  1  0  0  0  0
 11  8  1  0  0  0  0
 12 15  1  0  0  0  0
 12 14  1  0  0  0  0
 13 12  1  0  0  0  0
 16 18  1  0  0  0  0
 16  2  1  0  0  0  0
 17 19  1  0  0  0  0
 17 18  1  0  0  0  0
 18 20  1  6  0  0  0
 19 21  1  6  0  0  0
 20 38  1  0  0  0  0
 20 22  1  0  0  0  0
 21 39  1  0  0  0  0
 21 23  1  0  0  0  0
 22 24  1  0  0  0  0
 23 25  1  0  0  0  0
 26 22  1  0  0  0  0
 27 23  1  0  0  0  0
 28 22  1  0  0  0  0
 29 23  1  0  0  0  0
 30 20  1  0  0  0  0
 31 21  1  0  0  0  0
 32 30  1  0  0  0  0
 33 31  1  0  0  0  0
 34 30  1  0  0  0  0
 35 31  1  0  0  0  0
 36 30  1  0  0  0  0
 37 31  1  0  0  0  0
 38 44  1  0  0  0  0
 38 42  1  0  0  0  0
 39 45  1  0  0  0  0
 39 43  1  0  0  0  0
 40 38  1  0  0  0  0
 41 39  1  0  0  0  0
M  END
