20,24,28
 OpenBabel05122313063D

 71 72  0  0  1  0  0  0  0  0999 V2000
    1.9209   -2.1293    0.0494 Si  0  0  0  0  0  0  0  0  0  0  0  0
    2.7708    3.5205   -0.1339 Si  0  0  0  0  0  0  0  0  0  0  0  0
   -0.8391    2.4953    0.6304 O   0  0  0  0  0  0  0  0  0  0  0  0
    3.4557    0.5075    0.7245 O   0  0  0  0  0  0  0  0  0  0  0  0
    0.1885    1.8540   -0.1153 C   0  0  2  0  0  0  0  0  0  0  0  0
    0.0680    0.2983   -0.1134 C   0  0  0  0  0  0  0  0  0  0  0  0
    1.2717   -0.3229    0.0984 C   0  0  0  0  0  0  0  0  0  0  0  0
    2.2766    0.7303    0.4476 C   0  0  0  0  0  0  0  0  0  0  0  0
    1.6131    2.0909    0.4554 C   0  0  1  0  0  0  0  0  0  0  0  0
    1.5077    2.3421    1.5349 H   0  0  0  0  0  0  0  0  0  0  0  0
   -0.8804    2.2378    2.0166 C   0  0  0  0  0  0  0  0  0  0  0  0
   -1.8587    2.5976    2.3837 H   0  0  0  0  0  0  0  0  0  0  0  0
   -0.0808    2.7770    2.5776 H   0  0  0  0  0  0  0  0  0  0  0  0
   -0.7990    1.1521    2.2551 H   0  0  0  0  0  0  0  0  0  0  0  0
    0.0130    2.3865   -1.5454 C   0  0  0  0  0  0  0  0  0  0  0  0
    0.1906    3.4768   -1.5546 H   0  0  0  0  0  0  0  0  0  0  0  0
   -1.0248    2.2313   -1.8900 H   0  0  0  0  0  0  0  0  0  0  0  0
    0.7184    1.8949   -2.2413 H   0  0  0  0  0  0  0  0  0  0  0  0
   -1.2058   -0.4209   -0.3589 C   0  0  0  0  0  3  0  0  0  0  0  0
   -1.9110   -0.3522   -1.6105 C   0  0  0  0  0  3  0  0  0  0  0  0
   -1.5570    0.3320   -2.3910 H   0  0  0  0  0  0  0  0  0  0  0  0
   -3.0152   -1.1978   -1.8861 C   0  0  0  0  0  3  0  0  0  0  0  0
   -3.5272   -1.1296   -2.8549 H   0  0  0  0  0  0  0  0  0  0  0  0
   -3.5099   -2.0665   -0.8695 C   0  0  0  0  0  3  0  0  0  0  0  0
   -4.4043   -2.6766   -1.0584 H   0  0  0  0  0  0  0  0  0  0  0  0
   -2.8695   -2.1214    0.3945 C   0  0  0  0  0  3  0  0  0  0  0  0
   -3.2689   -2.7587    1.1943 H   0  0  0  0  0  0  0  0  0  0  0  0
   -1.7490   -1.2775    0.6473 C   0  0  0  0  0  3  0  0  0  0  0  0
   -1.2707   -1.2931    1.6361 H   0  0  0  0  0  0  0  0  0  0  0  0
    0.5912   -3.3423   -0.6333 C   0  0  0  0  0  0  0  0  0  0  0  0
   -0.3315   -3.1653   -0.0426 H   0  0  0  0  0  0  0  0  0  0  0  0
    0.2677   -3.0665   -2.1113 C   0  0  0  0  0  0  0  0  0  0  0  0
   -0.6027   -3.6708   -2.4471 H   0  0  0  0  0  0  0  0  0  0  0  0
    1.1227   -3.3386   -2.7646 H   0  0  0  0  0  0  0  0  0  0  0  0
    0.0260   -2.0039   -2.3086 H   0  0  0  0  0  0  0  0  0  0  0  0
    0.9830   -4.8183   -0.4466 C   0  0  0  0  0  0  0  0  0  0  0  0
    0.2431   -5.4848   -0.9408 H   0  0  0  0  0  0  0  0  0  0  0  0
    1.0305   -5.1122    0.6191 H   0  0  0  0  0  0  0  0  0  0  0  0
    1.9722   -5.0479   -0.8976 H   0  0  0  0  0  0  0  0  0  0  0  0
    3.4178   -2.2060   -1.1694 C   0  0  0  0  0  0  0  0  0  0  0  0
    3.3188   -3.2265   -1.6098 H   0  0  0  0  0  0  0  0  0  0  0  0
    3.2780   -1.1914   -2.3193 C   0  0  0  0  0  0  0  0  0  0  0  0
    4.0534   -1.3670   -3.0963 H   0  0  0  0  0  0  0  0  0  0  0  0
    3.4183   -0.1552   -1.9504 H   0  0  0  0  0  0  0  0  0  0  0  0
    2.2905   -1.2357   -2.8198 H   0  0  0  0  0  0  0  0  0  0  0  0
    4.8112   -2.1039   -0.5305 C   0  0  0  0  0  0  0  0  0  0  0  0
    5.6014   -2.2193   -1.3041 H   0  0  0  0  0  0  0  0  0  0  0  0
    4.9863   -2.8845    0.2357 H   0  0  0  0  0  0  0  0  0  0  0  0
    4.9469   -1.1188   -0.0443 H   0  0  0  0  0  0  0  0  0  0  0  0
    2.4266   -2.4786    1.8716 C   0  0  0  0  0  0  0  0  0  0  0  0
    3.2117   -1.7045    2.0271 H   0  0  0  0  0  0  0  0  0  0  0  0
    3.0519   -3.8539    2.1535 C   0  0  0  0  0  0  0  0  0  0  0  0
    3.5414   -3.8640    3.1512 H   0  0  0  0  0  0  0  0  0  0  0  0
    3.8188   -4.1427    1.4073 H   0  0  0  0  0  0  0  0  0  0  0  0
    2.2877   -4.6569    2.1649 H   0  0  0  0  0  0  0  0  0  0  0  0
    1.2802   -2.1899    2.8537 C   0  0  0  0  0  0  0  0  0  0  0  0
    1.6142   -2.3075    3.9073 H   0  0  0  0  0  0  0  0  0  0  0  0
    0.4303   -2.8916    2.7069 H   0  0  0  0  0  0  0  0  0  0  0  0
    0.8873   -1.1577    2.7464 H   0  0  0  0  0  0  0  0  0  0  0  0
    3.5824    3.1101   -1.7913 C   0  0  0  0  0  0  0  0  0  0  0  0
    4.2968    3.9107   -2.0740 H   0  0  0  0  0  0  0  0  0  0  0  0
    2.8433    3.0130   -2.6112 H   0  0  0  0  0  0  0  0  0  0  0  0
    4.1509    2.1608   -1.7181 H   0  0  0  0  0  0  0  0  0  0  0  0
    4.0927    3.6835    1.2045 C   0  0  0  0  0  0  0  0  0  0  0  0
    4.8567    4.4358    0.9194 H   0  0  0  0  0  0  0  0  0  0  0  0
    4.5872    2.7039    1.3563 H   0  0  0  0  0  0  0  0  0  0  0  0
    3.6467    4.0014    2.1698 H   0  0  0  0  0  0  0  0  0  0  0  0
    1.7812    5.1367   -0.2269 C   0  0  0  0  0  0  0  0  0  0  0  0
    2.4605    6.0016   -0.0793 H   0  0  0  0  0  0  0  0  0  0  0  0
    1.0054    5.1714    0.5650 H   0  0  0  0  0  0  0  0  0  0  0  0
    1.2715    5.2769   -1.2008 H   0  0  0  0  0  0  0  0  0  0  0  0
  1  7  1  0  0  0  0
  1 50  1  0  0  0  0
  2  9  1  0  0  0  0
  2 64  1  0  0  0  0
  3 11  1  0  0  0  0
  5  6  1  0  0  0  0
  5  9  1  0  0  0  0
  5  3  1  1  0  0  0
  6  7  2  0  0  0  0
  7  8  1  0  0  0  0
  8  9  1  0  0  0  0
  8  4  2  0  0  0  0
  9 10  1  1  0  0  0
 11 14  1  0  0  0  0
 11 12  1  0  0  0  0
 11 13  1  0  0  0  0
 15  5  1  0  0  0  0
 16 15  1  0  0  0  0
 17 15  1  0  0  0  0
 18 15  1  0  0  0  0
 19  6  1  0  0  0  0
 19 28  1  0  0  0  0
 20 19  1  0  0  0  0
 21 20  1  0  0  0  0
 22 20  1  0  0  0  0
 22 24  1  0  0  0  0
 23 22  1  0  0  0  0
 24 26  1  0  0  0  0
 25 24  1  0  0  0  0
 26 28  1  0  0  0  0
 26 27  1  0  0  0  0
 28 29  1  0  0  0  0
 30 36  1  0  0  0  0
 30 31  1  0  0  0  0
 30  1  1  0  0  0  0
 32 30  1  0  0  0  0
 33 32  1  0  0  0  0
 34 32  1  0  0  0  0
 35 32  1  0  0  0  0
 36 38  1  0  0  0  0
 37 36  1  0  0  0  0
 39 36  1  0  0  0  0
 40 46  1  0  0  0  0
 40  1  1  0  0  0  0
 41 40  1  0  0  0  0
 42 44  1  0  0  0  0
 42 40  1  0  0  0  0
 43 42  1  0  0  0  0
 45 42  1  0  0  0  0
 46 49  1  0  0  0  0
 46 48  1  0  0  0  0
 47 46  1  0  0  0  0
 50 51  1  0  0  0  0
 50 52  1  0  0  0  0
 50 56  1  0  0  0  0
 52 55  1  0  0  0  0
 52 53  1  0  0  0  0
 54 52  1  0  0  0  0
 56 57  1  0  0  0  0
 58 56  1  0  0  0  0
 59 56  1  0  0  0  0
 60 63  1  0  0  0  0
 60  2  1  0  0  0  0
 61 60  1  0  0  0  0
 62 60  1  0  0  0  0
 64 66  1  0  0  0  0
 64 67  1  0  0  0  0
 65 64  1  0  0  0  0
 68  2  1  0  0  0  0
 68 69  1  0  0  0  0
 68 70  1  0  0  0  0
 71 68  1  0  0  0  0
M  END
