9,11,13
 OpenBabel05122313063D

 62 66  0  0  1  0  0  0  0  0999 V2000
   -3.3915   -0.0000    2.3805 Si  0  0  0  0  0  0  0  0  0  0  0  0
    2.2976    4.0604   -0.8198 S   0  0  0  0  0  0  0  0  0  0  0  0
    1.1439    2.5323    1.5367 S   0  0  0  0  0  0  0  0  0  0  0  0
    2.2976   -4.0604   -0.8198 S   0  0  0  0  0  0  0  0  0  0  0  0
    1.1439   -2.5323    1.5367 S   0  0  0  0  0  0  0  0  0  0  0  0
    1.4996    2.4796   -0.2826 C   0  0  0  0  0  0  0  0  0  0  0  0
    0.0969    2.4800   -1.0102 C   0  0  0  0  0  0  0  0  0  0  0  0
   -0.6857    1.2443   -0.6587 C   0  0  2  0  0  3  0  0  0  0  0  0
   -1.6331    1.2177    0.4020 C   0  0  0  0  0  3  0  0  0  0  0  0
   -2.1403   -0.0000    0.9526 C   0  0  1  0  0  3  0  0  0  0  0  0
   -1.6332   -1.2177    0.4019 C   0  0  0  0  0  3  0  0  0  0  0  0
   -0.6857   -1.2443   -0.6587 C   0  0  1  0  0  3  0  0  0  0  0  0
   -0.3311   -0.0000   -1.2588 C   0  0  0  0  0  3  0  0  0  0  0  0
    0.0969   -2.4800   -1.0102 C   0  0  0  0  0  0  0  0  0  0  0  0
    1.4996   -2.4797   -0.2826 C   0  0  0  0  0  0  0  0  0  0  0  0
    2.2931   -1.2316   -0.6933 C   0  0  0  0  0  0  0  0  0  0  0  0
    3.0776   -1.2191   -1.8641 C   0  0  0  0  0  0  0  0  0  0  0  0
    3.5035    0.0000   -2.4132 C   0  0  0  0  0  0  0  0  0  0  0  0
    3.0776    1.2191   -1.8640 C   0  0  0  0  0  0  0  0  0  0  0  0
    2.2932    1.2316   -0.6932 C   0  0  0  0  0  0  0  0  0  0  0  0
    2.0011   -0.0000   -0.0697 C   0  0  0  0  0  0  0  0  0  0  0  0
    3.8257    3.9846    0.1845 C   0  0  0  0  0  0  0  0  0  0  0  0
    3.5823    3.9478    1.6928 C   0  0  0  0  0  0  0  0  0  0  0  0
    2.8552    2.6885    2.1635 C   0  0  0  0  0  0  0  0  0  0  0  0
    3.8257   -3.9845    0.1845 C   0  0  0  0  0  0  0  0  0  0  0  0
    3.5823   -3.9478    1.6928 C   0  0  0  0  0  0  0  0  0  0  0  0
    2.8552   -2.6885    2.1634 C   0  0  0  0  0  0  0  0  0  0  0  0
   -4.4537   -1.5575    2.2784 C   0  0  0  0  0  0  0  0  0  0  0  0
   -2.3710    0.0002    3.9765 C   0  0  0  0  0  0  0  0  0  0  0  0
   -4.4540    1.5572    2.2782 C   0  0  0  0  0  0  0  0  0  0  0  0
    0.2970    2.5295   -2.1000 H   0  0  0  0  0  0  0  0  0  0  0  0
   -0.4419    3.4027   -0.7143 H   0  0  0  0  0  0  0  0  0  0  0  0
   -1.9801    2.1809    0.8064 H   0  0  0  0  0  0  0  0  0  0  0  0
   -1.9801   -2.1809    0.8064 H   0  0  0  0  0  0  0  0  0  0  0  0
    0.3291    0.0000   -2.1365 H   0  0  0  0  0  0  0  0  0  0  0  0
    0.2970   -2.5295   -2.1000 H   0  0  0  0  0  0  0  0  0  0  0  0
   -0.4419   -3.4027   -0.7143 H   0  0  0  0  0  0  0  0  0  0  0  0
    3.3138   -2.1743   -2.3573 H   0  0  0  0  0  0  0  0  0  0  0  0
    4.1281    0.0000   -3.3196 H   0  0  0  0  0  0  0  0  0  0  0  0
    3.3138    2.1743   -2.3573 H   0  0  0  0  0  0  0  0  0  0  0  0
    1.4118   -0.0000    0.8595 H   0  0  0  0  0  0  0  0  0  0  0  0
    4.3856    4.8962   -0.1055 H   0  0  0  0  0  0  0  0  0  0  0  0
    4.4252    3.1078   -0.1438 H   0  0  0  0  0  0  0  0  0  0  0  0
    3.0083    4.8464    2.0013 H   0  0  0  0  0  0  0  0  0  0  0  0
    4.5694    3.9930    2.2051 H   0  0  0  0  0  0  0  0  0  0  0  0
    3.4191    1.7718    1.8841 H   0  0  0  0  0  0  0  0  0  0  0  0
    2.7409    2.6837    3.2659 H   0  0  0  0  0  0  0  0  0  0  0  0
    4.4252   -3.1078   -0.1438 H   0  0  0  0  0  0  0  0  0  0  0  0
    4.3856   -4.8962   -0.1056 H   0  0  0  0  0  0  0  0  0  0  0  0
    4.5694   -3.9930    2.2051 H   0  0  0  0  0  0  0  0  0  0  0  0
    3.0083   -4.8465    2.0012 H   0  0  0  0  0  0  0  0  0  0  0  0
    2.7409   -2.6837    3.2659 H   0  0  0  0  0  0  0  0  0  0  0  0
    3.4191   -1.7718    1.8841 H   0  0  0  0  0  0  0  0  0  0  0  0
   -3.8452   -2.4781    2.3921 H   0  0  0  0  0  0  0  0  0  0  0  0
   -5.2069   -1.5583    3.0930 H   0  0  0  0  0  0  0  0  0  0  0  0
   -4.9907   -1.6199    1.3110 H   0  0  0  0  0  0  0  0  0  0  0  0
   -1.7162   -0.8944    4.0186 H   0  0  0  0  0  0  0  0  0  0  0  0
   -1.7163    0.8949    4.0184 H   0  0  0  0  0  0  0  0  0  0  0  0
   -3.0172    0.0002    4.8785 H   0  0  0  0  0  0  0  0  0  0  0  0
   -3.8456    2.4779    2.3918 H   0  0  0  0  0  0  0  0  0  0  0  0
   -4.9910    1.6194    1.3108 H   0  0  0  0  0  0  0  0  0  0  0  0
   -5.2072    1.5580    3.0928 H   0  0  0  0  0  0  0  0  0  0  0  0
  1 29  1  0  0  0  0
  2  6  1  0  0  0  0
  2 22  1  0  0  0  0
  3 24  1  0  0  0  0
  4 15  1  0  0  0  0
  4 25  1  0  0  0  0
  5 27  1  0  0  0  0
  6  3  1  0  0  0  0
  7 32  1  0  0  0  0
  7  8  1  0  0  0  0
  7  6  1  0  0  0  0
  8 13  1  1  0  0  0
  8  9  1  0  0  0  0
  9 33  1  0  0  0  0
  9 10  1  0  0  0  0
 10  1  1  1  0  0  0
 11 34  1  0  0  0  0
 11 10  1  0  0  0  0
 12 13  1  1  0  0  0
 12 11  1  0  0  0  0
 14 37  1  0  0  0  0
 14 12  1  0  0  0  0
 14 15  1  0  0  0  0
 15  5  1  0  0  0  0
 16 15  1  0  0  0  0
 16 21  1  0  0  0  0
 17 16  2  0  0  0  0
 18 17  1  0  0  0  0
 18 19  2  0  0  0  0
 19 20  1  0  0  0  0
 20  6  1  0  0  0  0
 20 21  2  0  0  0  0
 21 41  1  0  0  0  0
 22 23  1  0  0  0  0
 23 44  1  0  0  0  0
 23 24  1  0  0  0  0
 23 45  1  0  0  0  0
 24 47  1  0  0  0  0
 25 26  1  0  0  0  0
 26 51  1  0  0  0  0
 26 27  1  0  0  0  0
 26 50  1  0  0  0  0
 27 52  1  0  0  0  0
 28  1  1  0  0  0  0
 28 54  1  0  0  0  0
 28 55  1  0  0  0  0
 29 58  1  0  0  0  0
 29 57  1  0  0  0  0
 29 59  1  0  0  0  0
 30  1  1  0  0  0  0
 30 60  1  0  0  0  0
 30 62  1  0  0  0  0
 31  7  1  0  0  0  0
 35 13  1  0  0  0  0
 36 14  1  0  0  0  0
 38 17  1  0  0  0  0
 39 18  1  0  0  0  0
 40 19  1  0  0  0  0
 42 22  1  0  0  0  0
 43 22  1  0  0  0  0
 46 24  1  0  0  0  0
 48 25  1  0  0  0  0
 49 25  1  0  0  0  0
 53 27  1  0  0  0  0
 56 28  1  0  0  0  0
 61 30  1  0  0  0  0
M  END
