4,6,8
 OpenBabel05122313063D

 36 38  0  0  0  0  0  0  0  0999 V2000
   -1.2855   -0.0606    0.7717 Si  0  0  0  0  0  0  0  0  0  0  0  0
   -1.0526   -0.2239    2.4405 O   0  0  0  0  0  0  0  0  0  0  0  0
    0.0616   -1.1893    0.0888 C   0  0  0  0  0  3  0  0  0  0  0  0
    0.8634   -1.9887    0.9701 C   0  0  0  0  0  3  0  0  0  0  0  0
    1.9493   -2.7663    0.4873 C   0  0  0  0  0  3  0  0  0  0  0  0
    2.2860   -2.7098   -0.8966 C   0  0  0  0  0  3  0  0  0  0  0  0
    1.5064   -1.9377   -1.7999 C   0  0  0  0  0  3  0  0  0  0  0  0
    0.4247   -1.1599   -1.2944 C   0  0  0  0  0  3  0  0  0  0  0  0
   -2.9775   -0.6759    0.2155 C   0  0  0  0  0  0  0  0  0  0  0  0
   -4.0865    0.1984    0.1360 C   0  0  0  0  0  0  0  0  0  0  0  0
   -5.3537   -0.2749   -0.2380 C   0  0  0  0  0  0  0  0  0  0  0  0
   -5.5328   -1.6336   -0.5439 C   0  0  0  0  0  0  0  0  0  0  0  0
   -4.4428   -2.5167   -0.4745 C   0  0  0  0  0  0  0  0  0  0  0  0
   -3.1780   -2.0401   -0.0986 C   0  0  0  0  0  0  0  0  0  0  0  0
   -1.0198    1.7166    0.2291 C   0  0  0  0  0  0  0  0  0  0  0  0
   -0.2556    2.5836    1.0434 C   0  0  0  0  0  0  0  0  0  0  0  0
    0.0479    3.8844    0.6177 C   0  0  0  0  0  0  0  0  0  0  0  0
   -0.4039    4.3386   -0.6318 C   0  0  0  0  0  0  0  0  0  0  0  0
   -1.1665    3.4923   -1.4514 C   0  0  0  0  0  0  0  0  0  0  0  0
   -1.4758    2.1927   -1.0211 C   0  0  0  0  0  0  0  0  0  0  0  0
   -1.7507    0.1704    2.9910 H   0  0  0  0  0  0  0  0  0  0  0  0
    0.6419   -1.9636    2.0469 H   0  0  0  0  0  0  0  0  0  0  0  0
    2.5725   -3.3413    1.1852 H   0  0  0  0  0  0  0  0  0  0  0  0
    3.1679   -3.2527   -1.2656 H   0  0  0  0  0  0  0  0  0  0  0  0
    1.7867   -1.8742   -2.8598 H   0  0  0  0  0  0  0  0  0  0  0  0
   -0.1252   -0.5021   -1.9852 H   0  0  0  0  0  0  0  0  0  0  0  0
   -3.9552    1.2690    0.3629 H   0  0  0  0  0  0  0  0  0  0  0  0
   -6.2058    0.4199   -0.2953 H   0  0  0  0  0  0  0  0  0  0  0  0
   -6.5255   -2.0056   -0.8410 H   0  0  0  0  0  0  0  0  0  0  0  0
   -4.5802   -3.5816   -0.7176 H   0  0  0  0  0  0  0  0  0  0  0  0
   -2.3280   -2.7405   -0.0519 H   0  0  0  0  0  0  0  0  0  0  0  0
    0.1198    2.2241    2.0144 H   0  0  0  0  0  0  0  0  0  0  0  0
    0.6507    4.5449    1.2596 H   0  0  0  0  0  0  0  0  0  0  0  0
   -0.1561    5.3561   -0.9707 H   0  0  0  0  0  0  0  0  0  0  0  0
   -1.5207    3.8462   -2.4318 H   0  0  0  0  0  0  0  0  0  0  0  0
   -2.0832    1.5402   -1.6700 H   0  0  0  0  0  0  0  0  0  0  0  0
  1  2  1  0  0  0  0
  2 21  1  0  0  0  0
  3  1  1  0  0  0  0
  3  4  1  0  0  0  0
  4 22  1  0  0  0  0
  5  4  1  0  0  0  0
  5 23  1  0  0  0  0
  6  5  1  0  0  0  0
  7  8  1  0  0  0  0
  7  6  1  0  0  0  0
  8  3  1  0  0  0  0
  9  1  1  0  0  0  0
 10  9  1  0  0  0  0
 10 27  1  0  0  0  0
 11 10  2  0  0  0  0
 12 13  2  0  0  0  0
 12 11  1  0  0  0  0
 13 14  1  0  0  0  0
 14 31  1  0  0  0  0
 14  9  2  0  0  0  0
 15  1  1  0  0  0  0
 15 16  1  0  0  0  0
 16 32  1  0  0  0  0
 17 16  2  0  0  0  0
 17 33  1  0  0  0  0
 18 17  1  0  0  0  0
 19 20  1  0  0  0  0
 19 18  2  0  0  0  0
 20 15  2  0  0  0  0
 24  6  1  0  0  0  0
 25  7  1  0  0  0  0
 26  8  1  0  0  0  0
 28 11  1  0  0  0  0
 29 12  1  0  0  0  0
 30 13  1  0  0  0  0
 34 18  1  0  0  0  0
 35 19  1  0  0  0  0
 36 20  1  0  0  0  0
M  END
