1,5,14
 OpenBabel05122313063D

 18 18  0  0  1  0  0  0  0  0999 V2000
    0.9744    0.0004    2.0062 C   0  0  0  0  0  3  0  0  0  0  0  0
    0.6021    0.0004    3.0406 H   0  0  0  0  0  0  0  0  0  0  0  0
    1.2210   -1.2410    1.3496 C   0  0  0  0  0  3  0  0  0  0  0  0
    1.0352   -2.1897    1.8710 H   0  0  0  0  0  0  0  0  0  0  0  0
    1.6471   -1.2490   -0.0175 C   0  0  1  0  0  3  0  0  0  0  0  0
    1.8899    0.0001   -0.6763 C   0  0  0  0  0  3  0  0  0  0  0  0
    2.2240   -0.0001   -1.7235 H   0  0  0  0  0  0  0  0  0  0  0  0
    1.9087   -2.5486   -0.7303 C   0  0  0  0  0  0  0  0  0  0  0  0
    2.9631   -2.8617   -0.5772 H   0  0  0  0  0  0  0  0  0  0  0  0
    1.7364   -2.4510   -1.8189 H   0  0  0  0  0  0  0  0  0  0  0  0
    1.2545   -3.3546   -0.3475 H   0  0  0  0  0  0  0  0  0  0  0  0
    1.2209    1.2413    1.3495 C   0  0  0  0  0  3  0  0  0  0  0  0
    1.0351    2.1901    1.8705 H   0  0  0  0  0  0  0  0  0  0  0  0
    1.6472    1.2490   -0.0179 C   0  0  1  0  0  3  0  0  0  0  0  0
    1.9086    2.5486   -0.7307 C   0  0  0  0  0  0  0  0  0  0  0  0
    2.9622    2.8634   -0.5750 H   0  0  0  0  0  0  0  0  0  0  0  0
    1.7392    2.4502   -1.8197 H   0  0  0  0  0  0  0  0  0  0  0  0
    1.2523    3.3539   -0.3499 H   0  0  0  0  0  0  0  0  0  0  0  0
  1  2  1  0  0  0  0
  3  4  1  0  0  0  0
  3  1  1  0  0  0  0
  5  8  1  1  0  0  0
  5  3  1  0  0  0  0
  6 14  1  0  0  0  0
  6  5  1  0  0  0  0
  7  6  1  0  0  0  0
  8  9  1  0  0  0  0
  8 11  1  0  0  0  0
 10  8  1  0  0  0  0
 12 13  1  0  0  0  0
 12  1  1  0  0  0  0
 14 15  1  1  0  0  0
 14 12  1  0  0  0  0
 15 16  1  0  0  0  0
 15 18  1  0  0  0  0
 17 15  1  0  0  0  0
M  END
