5,27,47
 OpenBabel05122313063D

 79 88  0  0  0  0  0  0  0  0999 V2000
   -2.5751    1.2122   -0.0289 N   0  0  0  0  0  0  0  0  0  0  0  0
   -1.5924   -0.2860   -1.2727 N   0  0  0  0  0  0  0  0  0  0  0  0
    1.4866   -0.5944    1.2971 N   0  0  0  0  0  0  0  0  0  0  0  0
    2.9831    0.8669    0.6149 N   0  0  0  0  0  0  0  0  0  0  0  0
   -1.3432    0.7751   -0.4385 C   0  0  0  0  0  2  0  0  0  0  0  0
   -2.9641   -0.4918   -1.4473 C   0  0  0  0  0  0  0  0  0  0  0  0
   -3.6954   -1.4129   -2.2067 C   0  0  0  0  0  0  0  0  0  0  0  0
   -3.1902   -2.1508   -2.8450 H   0  0  0  0  0  0  0  0  0  0  0  0
   -5.0937   -1.3481   -2.1135 C   0  0  0  0  0  0  0  0  0  0  0  0
   -5.7050   -2.0515   -2.6980 H   0  0  0  0  0  0  0  0  0  0  0  0
   -5.7323   -0.3995   -1.2840 C   0  0  0  0  0  0  0  0  0  0  0  0
   -6.8309   -0.3828   -1.2322 H   0  0  0  0  0  0  0  0  0  0  0  0
   -4.9984    0.5277   -0.5280 C   0  0  0  0  0  0  0  0  0  0  0  0
   -5.4916    1.2685    0.1161 H   0  0  0  0  0  0  0  0  0  0  0  0
   -3.6019    0.4744   -0.6327 C   0  0  0  0  0  0  0  0  0  0  0  0
   -2.7532    2.3193    0.8545 C   0  0  0  0  0  0  0  0  0  0  0  0
   -3.5396    3.4126    0.4590 C   0  0  0  0  0  0  0  0  0  0  0  0
   -3.9844    3.4245   -0.5453 H   0  0  0  0  0  0  0  0  0  0  0  0
   -3.6963    4.4949    1.3358 C   0  0  0  0  0  0  0  0  0  0  0  0
   -4.3029    5.3595    1.0274 H   0  0  0  0  0  0  0  0  0  0  0  0
   -3.0569    4.4925    2.5860 C   0  0  0  0  0  0  0  0  0  0  0  0
   -3.1732    5.3506    3.2649 H   0  0  0  0  0  0  0  0  0  0  0  0
   -2.2583    3.4011    2.9634 C   0  0  0  0  0  0  0  0  0  0  0  0
   -1.7478    3.4002    3.9381 H   0  0  0  0  0  0  0  0  0  0  0  0
   -2.1076    2.3066    2.1009 C   0  0  0  0  0  0  0  0  0  0  0  0
   -1.4892    1.4401    2.3747 H   0  0  0  0  0  0  0  0  0  0  0  0
    1.6348    0.5630    0.5682 C   0  0  0  0  0  2  0  0  0  0  0  0
    2.7199   -1.0165    1.8103 C   0  0  0  0  0  0  0  0  0  0  0  0
    3.0557   -2.1207    2.6015 C   0  0  0  0  0  0  0  0  0  0  0  0
    2.2856   -2.8257    2.9447 H   0  0  0  0  0  0  0  0  0  0  0  0
    4.4086   -2.2812    2.9367 C   0  0  0  0  0  0  0  0  0  0  0  0
    4.7145   -3.1360    3.5576 H   0  0  0  0  0  0  0  0  0  0  0  0
    5.3803   -1.3619    2.4885 C   0  0  0  0  0  0  0  0  0  0  0  0
    6.4342   -1.5139    2.7644 H   0  0  0  0  0  0  0  0  0  0  0  0
    5.0408   -0.2525    1.6988 C   0  0  0  0  0  0  0  0  0  0  0  0
    5.8163    0.4448    1.3636 H   0  0  0  0  0  0  0  0  0  0  0  0
    3.6874   -0.0793    1.3601 C   0  0  0  0  0  0  0  0  0  0  0  0
    3.3585    2.0722   -0.0519 C   0  0  0  0  0  0  0  0  0  0  0  0
    4.6658    2.5759   -0.1152 C   0  0  0  0  0  0  0  0  0  0  0  0
    5.5130    2.0577    0.3505 H   0  0  0  0  0  0  0  0  0  0  0  0
    4.8826    3.7849   -0.7988 C   0  0  0  0  0  0  0  0  0  0  0  0
    5.9017    4.1961   -0.8586 H   0  0  0  0  0  0  0  0  0  0  0  0
    3.8075    4.4581   -1.3977 C   0  0  0  0  0  0  0  0  0  0  0  0
    3.9846    5.4052   -1.9316 H   0  0  0  0  0  0  0  0  0  0  0  0
    2.5038    3.9308   -1.3222 C   0  0  0  0  0  0  0  0  0  0  0  0
    1.6577    4.4514   -1.7973 H   0  0  0  0  0  0  0  0  0  0  0  0
    2.2508    2.7266   -0.6468 C   0  0  0  0  0  3  0  0  0  0  0  0
   -0.5311   -1.1112   -1.7600 C   0  0  0  0  0  0  0  0  0  0  0  0
   -0.1073   -0.9948   -3.1074 C   0  0  0  0  0  0  0  0  0  0  0  0
   -0.6204   -0.2762   -3.7615 H   0  0  0  0  0  0  0  0  0  0  0  0
    0.9730   -1.7398   -3.5474 C   0  0  0  0  0  0  0  0  0  0  0  0
    1.3275   -1.6415   -4.5846 H   0  0  0  0  0  0  0  0  0  0  0  0
    1.6642   -2.6201   -2.6646 C   0  0  0  0  0  0  0  0  0  0  0  0
    2.7920   -3.3801   -3.0928 C   0  0  0  0  0  0  0  0  0  0  0  0
    3.1302   -3.2768   -4.1354 H   0  0  0  0  0  0  0  0  0  0  0  0
    3.4549   -4.2273   -2.2181 C   0  0  0  0  0  0  0  0  0  0  0  0
    4.3279   -4.8019   -2.5623 H   0  0  0  0  0  0  0  0  0  0  0  0
    3.0088   -4.3591   -0.8760 C   0  0  0  0  0  0  0  0  0  0  0  0
    3.5371   -5.0359   -0.1880 H   0  0  0  0  0  0  0  0  0  0  0  0
    1.9137   -3.6373   -0.4269 C   0  0  0  0  0  0  0  0  0  0  0  0
    1.5650   -3.7452    0.6097 H   0  0  0  0  0  0  0  0  0  0  0  0
    1.2213   -2.7430   -1.2952 C   0  0  0  0  0  0  0  0  0  0  0  0
    0.1050   -1.9629   -0.8516 C   0  0  0  0  0  0  0  0  0  0  0  0
   -0.3855   -2.0012    0.5588 C   0  0  0  0  0  0  0  0  0  0  0  0
   -1.5855   -2.7204    0.8906 C   0  0  0  0  0  0  0  0  0  0  0  0
   -2.2615   -3.5350   -0.0646 C   0  0  0  0  0  0  0  0  0  0  0  0
   -1.8377   -3.6260   -1.0745 H   0  0  0  0  0  0  0  0  0  0  0  0
   -3.4273   -4.2072    0.2692 C   0  0  0  0  0  0  0  0  0  0  0  0
   -3.9350   -4.8282   -0.4838 H   0  0  0  0  0  0  0  0  0  0  0  0
   -3.9741   -4.0954    1.5745 C   0  0  0  0  0  0  0  0  0  0  0  0
   -4.9059   -4.6244    1.8243 H   0  0  0  0  0  0  0  0  0  0  0  0
   -3.3305   -3.3291    2.5338 C   0  0  0  0  0  0  0  0  0  0  0  0
   -3.7403   -3.2469    3.5524 H   0  0  0  0  0  0  0  0  0  0  0  0
   -2.1237   -2.6352    2.2272 C   0  0  0  0  0  0  0  0  0  0  0  0
   -1.4325   -1.8648    3.2060 C   0  0  0  0  0  0  0  0  0  0  0  0
   -1.8486   -1.7952    4.2225 H   0  0  0  0  0  0  0  0  0  0  0  0
   -0.2552   -1.2135    2.8867 C   0  0  0  0  0  0  0  0  0  0  0  0
    0.2908   -0.6198    3.6339 H   0  0  0  0  0  0  0  0  0  0  0  0
    0.2617   -1.2789    1.5637 C   0  0  0  0  0  0  0  0  0  0  0  0
  1 16  1  0  0  0  0
  2  5  1  0  0  0  0
  3 79  1  0  0  0  0
  3 28  1  0  0  0  0
  4 37  1  0  0  0  0
  5  1  1  0  0  0  0
  6  2  1  0  0  0  0
  6 15  1  0  0  0  0
  7  9  1  0  0  0  0
  7  6  2  0  0  0  0
  8  7  1  0  0  0  0
  9 11  2  0  0  0  0
 10  9  1  0  0  0  0
 11 12  1  0  0  0  0
 11 13  1  0  0  0  0
 13 14  1  0  0  0  0
 15 13  2  0  0  0  0
 15  1  1  0  0  0  0
 16 25  1  0  0  0  0
 17 16  2  0  0  0  0
 17 19  1  0  0  0  0
 18 17  1  0  0  0  0
 19 21  2  0  0  0  0
 20 19  1  0  0  0  0
 21 23  1  0  0  0  0
 21 22  1  0  0  0  0
 23 24  1  0  0  0  0
 25 26  1  0  0  0  0
 25 23  2  0  0  0  0
 27  4  1  0  0  0  0
 27  3  1  0  0  0  0
 28 29  1  0  0  0  0
 29 31  2  0  0  0  0
 29 30  1  0  0  0  0
 31 32  1  0  0  0  0
 33 34  1  0  0  0  0
 33 31  1  0  0  0  0
 35 33  2  0  0  0  0
 36 35  1  0  0  0  0
 37 35  1  0  0  0  0
 37 28  2  0  0  0  0
 38  4  1  0  0  0  0
 39 38  1  0  0  0  0
 39 40  1  0  0  0  0
 41 39  2  0  0  0  0
 42 41  1  0  0  0  0
 43 45  2  0  0  0  0
 43 41  1  0  0  0  0
 44 43  1  0  0  0  0
 45 47  1  0  0  0  0
 46 45  1  0  0  0  0
 47 38  2  0  0  0  0
 48  2  1  0  0  0  0
 48 63  1  0  0  0  0
 49 48  2  0  0  0  0
 50 49  1  0  0  0  0
 51 49  1  0  0  0  0
 51 53  2  0  0  0  0
 52 51  1  0  0  0  0
 53 62  1  0  0  0  0
 54 53  1  0  0  0  0
 54 56  2  0  0  0  0
 55 54  1  0  0  0  0
 56 58  1  0  0  0  0
 57 56  1  0  0  0  0
 58 60  2  0  0  0  0
 58 59  1  0  0  0  0
 60 61  1  0  0  0  0
 62 63  2  0  0  0  0
 62 60  1  0  0  0  0
 63 64  1  0  0  0  0
 64 65  2  0  0  0  0
 64 79  1  0  0  0  0
 65 74  1  0  0  0  0
 66 68  2  0  0  0  0
 66 65  1  0  0  0  0
 67 66  1  0  0  0  0
 68 70  1  0  0  0  0
 69 68  1  0  0  0  0
 70 71  1  0  0  0  0
 70 72  2  0  0  0  0
 72 73  1  0  0  0  0
 74 72  1  0  0  0  0
 74 75  2  0  0  0  0
 75 76  1  0  0  0  0
 77 75  1  0  0  0  0
 77 78  1  0  0  0  0
 79 77  2  0  0  0  0
M  END
