4,8,12
 OpenBabel05122313063D

 33 35  0  0  0  0  0  0  0  0999 V2000
   -1.8934   -0.3719   -0.4689 O   0  0  0  0  0  0  0  0  0  0  0  0
   -0.8814   -0.2610   -0.4240 H   0  0  0  0  0  0  0  0  0  0  0  0
   -0.1482    1.8631   -0.8865 C   0  0  0  0  0  3  0  0  0  0  0  0
    0.2896    1.1459   -2.0589 C   0  0  0  0  0  3  0  0  0  0  0  0
   -0.4672    0.6485   -2.6801 H   0  0  0  0  0  0  0  0  0  0  0  0
    1.6581    1.1634   -2.4829 C   0  0  0  0  0  3  0  0  0  0  0  0
    1.9610    0.6593   -3.4118 H   0  0  0  0  0  0  0  0  0  0  0  0
    2.6258    1.8109   -1.6618 C   0  0  0  0  0  3  0  0  0  0  0  0
    3.6840    1.8061   -1.9655 H   0  0  0  0  0  0  0  0  0  0  0  0
    2.2266    2.5224   -0.4767 C   0  0  0  0  0  3  0  0  0  0  0  0
    2.9696    3.0467    0.1400 H   0  0  0  0  0  0  0  0  0  0  0  0
    0.8592    2.5148   -0.0867 C   0  0  0  0  0  3  0  0  0  0  0  0
    0.5512    3.0460    0.8267 H   0  0  0  0  0  0  0  0  0  0  0  0
   -2.4247    0.8702   -0.3939 C   0  0  0  0  0  0  0  0  0  0  0  0
   -1.5898    2.0109   -0.5610 C   0  0  0  0  0  0  0  0  0  0  0  0
   -2.1506    3.2931   -0.4029 C   0  0  0  0  0  0  0  0  0  0  0  0
   -1.4980    4.1713   -0.5254 H   0  0  0  0  0  0  0  0  0  0  0  0
   -3.5143    3.4542   -0.1237 C   0  0  0  0  0  0  0  0  0  0  0  0
   -3.9426    4.4609   -0.0096 H   0  0  0  0  0  0  0  0  0  0  0  0
   -4.3306    2.3227    0.0027 C   0  0  0  0  0  0  0  0  0  0  0  0
   -5.4005    2.4419    0.2313 H   0  0  0  0  0  0  0  0  0  0  0  0
   -3.8104    1.0155   -0.1117 C   0  0  0  0  0  0  0  0  0  0  0  0
   -4.7078   -0.1592    0.0514 C   0  0  0  0  0  0  0  0  0  0  0  0
   -6.0000   -0.1445   -0.5227 C   0  0  0  0  0  0  0  0  0  0  0  0
   -6.3050    0.7212   -1.1302 H   0  0  0  0  0  0  0  0  0  0  0  0
   -6.8832   -1.2199   -0.3528 C   0  0  0  0  0  0  0  0  0  0  0  0
   -7.8804   -1.1849   -0.8182 H   0  0  0  0  0  0  0  0  0  0  0  0
   -6.4953   -2.3400    0.3984 C   0  0  0  0  0  0  0  0  0  0  0  0
   -7.1860   -3.1867    0.5314 H   0  0  0  0  0  0  0  0  0  0  0  0
   -5.2155   -2.3709    0.9755 C   0  0  0  0  0  0  0  0  0  0  0  0
   -4.9010   -3.2420    1.5710 H   0  0  0  0  0  0  0  0  0  0  0  0
   -4.3314   -1.2979    0.8017 C   0  0  0  0  0  0  0  0  0  0  0  0
   -3.3341   -1.3342    1.2594 H   0  0  0  0  0  0  0  0  0  0  0  0
  1  2  1  0  0  0  0
  1 14  1  0  0  0  0
  3 15  1  0  0  0  0
  3 12  1  0  0  0  0
  4  3  1  0  0  0  0
  5  4  1  0  0  0  0
  6  4  1  0  0  0  0
  6  8  1  0  0  0  0
  7  6  1  0  0  0  0
  8 10  1  0  0  0  0
  9  8  1  0  0  0  0
 10 12  1  0  0  0  0
 10 11  1  0  0  0  0
 12 13  1  0  0  0  0
 14 22  1  0  0  0  0
 15 16  1  0  0  0  0
 15 14  2  0  0  0  0
 16 18  2  0  0  0  0
 17 16  1  0  0  0  0
 18 19  1  0  0  0  0
 18 20  1  0  0  0  0
 20 21  1  0  0  0  0
 22 20  2  0  0  0  0
 22 23  1  0  0  0  0
 23 32  1  0  0  0  0
 24 26  1  0  0  0  0
 24 23  2  0  0  0  0
 25 24  1  0  0  0  0
 26 28  2  0  0  0  0
 27 26  1  0  0  0  0
 28 29  1  0  0  0  0
 28 30  1  0  0  0  0
 30 31  1  0  0  0  0
 32 30  2  0  0  0  0
 32 33  1  0  0  0  0
M  END
