1,2,12
 OpenBabel05122313063D

 50 54  0  0  0  0  0  0  0  0999 V2000
   -0.2875    0.5497   -0.0541 C   0  0  0  0  0  2  0  0  0  0  0  0
    0.7792   -1.7119   -0.2554 C   0  0  0  0  0  3  0  0  0  0  0  0
   -0.8117    1.8072   -0.2413 N   0  0  0  0  0  0  0  0  0  0  0  0
    0.2738    2.8020   -0.3308 C   0  0  0  0  0  0  0  0  0  0  0  0
    0.3330    3.3851    0.6140 H   0  0  0  0  0  0  0  0  0  0  0  0
    0.0913    3.5093   -1.1632 H   0  0  0  0  0  0  0  0  0  0  0  0
    1.0657    0.6176   -0.1362 N   0  0  0  0  0  0  0  0  0  0  0  0
   -2.4763    3.5672   -0.1161 C   0  0  0  0  0  0  0  0  0  0  0  0
   -1.6689    4.3080   -0.0579 H   0  0  0  0  0  0  0  0  0  0  0  0
   -3.8014    4.0125   -0.0581 C   0  0  0  0  0  0  0  0  0  0  0  0
   -4.0016    5.0912    0.0256 H   0  0  0  0  0  0  0  0  0  0  0  0
   -2.3797   -0.7652   -1.6009 C   0  0  0  0  0  3  0  0  0  0  0  0
   -2.0882   -0.0977   -2.4249 H   0  0  0  0  0  0  0  0  0  0  0  0
   -3.2437    1.2526   -0.2866 C   0  0  0  0  0  0  0  0  0  0  0  0
   -2.1654    2.1893   -0.2197 C   0  0  0  0  0  0  0  0  0  0  0  0
   -4.5650    1.7295   -0.2020 C   0  0  0  0  0  0  0  0  0  0  0  0
   -5.3798    0.9909   -0.2459 H   0  0  0  0  0  0  0  0  0  0  0  0
    3.5599   -2.1456   -0.5922 C   0  0  0  0  0  0  0  0  0  0  0  0
    4.6429   -2.3195   -0.6814 H   0  0  0  0  0  0  0  0  0  0  0  0
    2.6620   -3.2179   -0.6556 C   0  0  0  0  0  0  0  0  0  0  0  0
    3.0412   -4.2365   -0.8319 H   0  0  0  0  0  0  0  0  0  0  0  0
    5.0555    1.9553    1.3731 C   0  0  0  0  0  0  0  0  0  0  0  0
    5.0422    2.4920    2.3344 H   0  0  0  0  0  0  0  0  0  0  0  0
    4.1041    0.2495   -0.1038 C   0  0  0  0  0  0  0  0  0  0  0  0
    4.1013    0.9592    1.1199 C   0  0  0  0  0  0  0  0  0  0  0  0
    3.3438    0.7059    1.8786 H   0  0  0  0  0  0  0  0  0  0  0  0
    1.7115   -0.6370   -0.2398 C   0  0  0  0  0  0  0  0  0  0  0  0
    3.1084   -0.8287   -0.3416 C   0  0  0  0  0  0  0  0  0  0  0  0
    1.5305    1.9431   -0.5498 C   0  0  0  0  0  0  0  0  0  0  0  0
    1.8535    1.9125   -1.6137 H   0  0  0  0  0  0  0  0  0  0  0  0
    2.3888    2.2920    0.0516 H   0  0  0  0  0  0  0  0  0  0  0  0
    1.2848   -3.0063   -0.4525 C   0  0  0  0  0  0  0  0  0  0  0  0
    0.5991   -3.8677   -0.4448 H   0  0  0  0  0  0  0  0  0  0  0  0
   -4.8594    3.0945   -0.0911 C   0  0  0  0  0  0  0  0  0  0  0  0
   -5.9033    3.4355   -0.0374 H   0  0  0  0  0  0  0  0  0  0  0  0
    6.0339    2.2582    0.4112 C   0  0  0  0  0  0  0  0  0  0  0  0
    6.7831    3.0395    0.6102 H   0  0  0  0  0  0  0  0  0  0  0  0
    6.0553    1.5510   -0.8015 C   0  0  0  0  0  0  0  0  0  0  0  0
    6.8208    1.7798   -1.5591 H   0  0  0  0  0  0  0  0  0  0  0  0
    5.1015    0.5537   -1.0552 C   0  0  0  0  0  0  0  0  0  0  0  0
    5.1136    0.0045   -2.0093 H   0  0  0  0  0  0  0  0  0  0  0  0
   -1.9800   -2.1381   -1.6179 C   0  0  0  0  0  3  0  0  0  0  0  0
   -1.3972   -2.5189   -2.4694 H   0  0  0  0  0  0  0  0  0  0  0  0
   -3.3843   -1.0971    0.6344 C   0  0  0  0  0  0  0  0  0  0  0  0
   -3.8152   -0.6846    1.5562 H   0  0  0  0  0  0  0  0  0  0  0  0
   -2.3779   -3.0343   -0.5559 C   0  0  0  0  0  0  0  0  0  0  0  0
   -2.0930   -4.0947   -0.5825 H   0  0  0  0  0  0  0  0  0  0  0  0
   -3.0296   -0.2118   -0.4282 C   0  0  0  0  0  0  0  0  0  0  0  0
   -3.0529   -2.4959    0.5549 C   0  0  0  0  0  0  0  0  0  0  0  0
   -3.2518   -3.1333    1.4289 H   0  0  0  0  0  0  0  0  0  0  0  0
  2 27  1  0  0  0  0
  3 15  1  0  0  0  0
  3  1  1  0  0  0  0
  4  3  1  0  0  0  0
  4  5  1  0  0  0  0
  6  4  1  0  0  0  0
  7  1  1  0  0  0  0
  8 10  1  0  0  0  0
  8  9  1  0  0  0  0
 10 11  1  0  0  0  0
 12 48  1  0  0  0  0
 13 12  1  0  0  0  0
 14 15  1  0  0  0  0
 14 16  2  0  0  0  0
 15  8  2  0  0  0  0
 16 34  1  0  0  0  0
 17 16  1  0  0  0  0
 18 28  1  0  0  0  0
 19 18  1  0  0  0  0
 20 18  2  0  0  0  0
 20 32  1  0  0  0  0
 21 20  1  0  0  0  0
 22 23  1  0  0  0  0
 24 25  2  0  0  0  0
 25 22  1  0  0  0  0
 25 26  1  0  0  0  0
 27  7  1  0  0  0  0
 28 27  2  0  0  0  0
 28 24  1  0  0  0  0
 29  4  1  0  0  0  0
 29  7  1  0  0  0  0
 29 31  1  0  0  0  0
 30 29  1  0  0  0  0
 32 33  1  0  0  0  0
 32  2  2  0  0  0  0
 34 10  2  0  0  0  0
 34 35  1  0  0  0  0
 36 37  1  0  0  0  0
 36 22  2  0  0  0  0
 38 36  1  0  0  0  0
 39 38  1  0  0  0  0
 40 38  2  0  0  0  0
 40 24  1  0  0  0  0
 41 40  1  0  0  0  0
 42 12  1  0  0  0  0
 42 46  1  0  0  0  0
 43 42  1  0  0  0  0
 44 45  1  0  0  0  0
 46 49  2  0  0  0  0
 47 46  1  0  0  0  0
 48 14  1  0  0  0  0
 48 44  2  0  0  0  0
 49 44  1  0  0  0  0
 49 50  1  0  0  0  0
M  END
