8,10,12
 OpenBabel05122313063D

 30 32  0  0  0  0  0  0  0  0999 V2000
   -1.6037    3.2101   -0.4031 O   0  0  0  0  0  0  0  0  0  0  0  0
   -0.4396    2.5051   -0.8121 C   0  0  0  0  0  0  0  0  0  0  0  0
   -0.7663    1.0378   -0.6720 C   0  0  0  0  0  0  0  0  0  0  0  0
   -2.0646    0.9305   -0.2488 C   0  0  0  0  0  0  0  0  0  0  0  0
   -2.5890    2.3182   -0.0340 C   0  0  0  0  0  0  0  0  0  0  0  0
   -3.6643    2.6798    0.3858 O   0  0  0  0  0  0  0  0  0  0  0  0
    0.2297   -0.0093   -0.9085 C   0  0  0  0  0  3  0  0  0  0  0  0
    0.2370   -1.2239   -0.1387 C   0  0  0  0  0  3  0  0  0  0  0  0
    1.2232   -2.2225   -0.3386 C   0  0  0  0  0  3  0  0  0  0  0  0
    2.2786   -1.9916   -1.2670 C   0  0  0  0  0  3  0  0  0  0  0  0
    2.3091   -0.7997   -2.0382 C   0  0  0  0  0  3  0  0  0  0  0  0
    1.3152    0.1959   -1.8247 C   0  0  0  0  0  3  0  0  0  0  0  0
   -2.9166   -0.2509   -0.0541 C   0  0  0  0  0  0  0  0  0  0  0  0
   -2.8405   -1.3561   -0.9356 C   0  0  0  0  0  0  0  0  0  0  0  0
   -3.6570   -2.4771   -0.7475 C   0  0  0  0  0  0  0  0  0  0  0  0
   -4.5699   -2.5140    0.3204 C   0  0  0  0  0  0  0  0  0  0  0  0
   -4.6683   -1.4158    1.1887 C   0  0  0  0  0  0  0  0  0  0  0  0
   -3.8564   -0.2885    1.0025 C   0  0  0  0  0  0  0  0  0  0  0  0
    0.4199    2.8028   -0.1728 H   0  0  0  0  0  0  0  0  0  0  0  0
   -0.1937    2.7927   -1.8597 H   0  0  0  0  0  0  0  0  0  0  0  0
   -0.5340   -1.3686    0.6290 H   0  0  0  0  0  0  0  0  0  0  0  0
    1.2211   -3.1267    0.2842 H   0  0  0  0  0  0  0  0  0  0  0  0
    3.0850   -2.7310   -1.3729 H   0  0  0  0  0  0  0  0  0  0  0  0
    3.1366   -0.6083   -2.7339 H   0  0  0  0  0  0  0  0  0  0  0  0
    1.3801    1.1400   -2.3831 H   0  0  0  0  0  0  0  0  0  0  0  0
   -2.1440   -1.3215   -1.7866 H   0  0  0  0  0  0  0  0  0  0  0  0
   -3.5895   -3.3249   -1.4461 H   0  0  0  0  0  0  0  0  0  0  0  0
   -5.2121   -3.3955    0.4677 H   0  0  0  0  0  0  0  0  0  0  0  0
   -5.3893   -1.4333    2.0199 H   0  0  0  0  0  0  0  0  0  0  0  0
   -3.9466    0.5786    1.6702 H   0  0  0  0  0  0  0  0  0  0  0  0
  1  5  1  0  0  0  0
  2  3  1  0  0  0  0
  2  1  1  0  0  0  0
  2 19  1  0  0  0  0
  3  4  2  0  0  0  0
  4 13  1  0  0  0  0
  4  5  1  0  0  0  0
  5  6  2  0  0  0  0
  7  3  1  0  0  0  0
  7  8  1  0  0  0  0
  8 21  1  0  0  0  0
  9  8  1  0  0  0  0
  9 22  1  0  0  0  0
 10  9  1  0  0  0  0
 11 12  1  0  0  0  0
 11 10  1  0  0  0  0
 12  7  1  0  0  0  0
 13 18  1  0  0  0  0
 14 15  1  0  0  0  0
 14 13  2  0  0  0  0
 15 16  2  0  0  0  0
 16 28  1  0  0  0  0
 16 17  1  0  0  0  0
 17 29  1  0  0  0  0
 18 17  2  0  0  0  0
 18 30  1  0  0  0  0
 20  2  1  0  0  0  0
 23 10  1  0  0  0  0
 24 11  1  0  0  0  0
 25 12  1  0  0  0  0
 26 14  1  0  0  0  0
 27 15  1  0  0  0  0
M  END
