5,7,9
 OpenBabel05122313063D

 26 27  0  0  1  0  0  0  0  0999 V2000
   -6.4731   -0.4829    0.4199 Cl  0  0  0  0  0  0  0  0  0  0  0  0
   -0.3428    2.0858   -0.2900 O   0  0  0  0  0  0  0  0  0  0  0  0
   -0.6685    0.8214   -0.8236 C   0  0  1  0  0  0  0  0  0  0  0  0
    0.2336   -0.2653   -0.2464 C   0  0  0  0  0  3  0  0  0  0  0  0
    0.5031   -0.2896    1.1519 C   0  0  0  0  0  3  0  0  0  0  0  0
    1.3764   -1.2632    1.7152 C   0  0  0  0  0  3  0  0  0  0  0  0
    2.0288   -2.1898    0.8609 C   0  0  0  0  0  3  0  0  0  0  0  0
    1.7678   -2.1916   -0.5414 C   0  0  0  0  0  3  0  0  0  0  0  0
    0.8894   -1.2179   -1.0844 C   0  0  0  0  0  3  0  0  0  0  0  0
   -2.1290    0.5132   -0.5213 C   0  0  0  0  0  0  0  0  0  0  0  0
   -2.7364   -0.6324   -1.0703 C   0  0  0  0  0  0  0  0  0  0  0  0
   -4.0705   -0.9465   -0.7858 C   0  0  0  0  0  0  0  0  0  0  0  0
   -4.8086   -0.1003    0.0597 C   0  0  0  0  0  0  0  0  0  0  0  0
   -4.2224    1.0485    0.6122 C   0  0  0  0  0  0  0  0  0  0  0  0
   -2.8842    1.3496    0.3183 C   0  0  0  0  0  0  0  0  0  0  0  0
    0.6330    2.1557   -0.3361 H   0  0  0  0  0  0  0  0  0  0  0  0
   -0.5341    0.8016   -1.9343 H   0  0  0  0  0  0  0  0  0  0  0  0
    0.0436    0.4820    1.7861 H   0  0  0  0  0  0  0  0  0  0  0  0
    1.6040   -1.2456    2.7893 H   0  0  0  0  0  0  0  0  0  0  0  0
    2.7595   -2.8965    1.2792 H   0  0  0  0  0  0  0  0  0  0  0  0
    2.2986   -2.8890   -1.2028 H   0  0  0  0  0  0  0  0  0  0  0  0
    0.7402   -1.1656   -2.1734 H   0  0  0  0  0  0  0  0  0  0  0  0
   -2.1597   -1.2975   -1.7327 H   0  0  0  0  0  0  0  0  0  0  0  0
   -4.5462   -1.8398   -1.2138 H   0  0  0  0  0  0  0  0  0  0  0  0
   -4.8169    1.7026    1.2655 H   0  0  0  0  0  0  0  0  0  0  0  0
   -2.4111    2.2497    0.7340 H   0  0  0  0  0  0  0  0  0  0  0  0
  3 17  1  6  0  0  0
  3 10  1  0  0  0  0
  3  2  1  0  0  0  0
  3  4  1  0  0  0  0
  4  5  1  0  0  0  0
  5  6  1  0  0  0  0
  5 18  1  0  0  0  0
  6 19  1  0  0  0  0
  7 20  1  0  0  0  0
  7  6  1  0  0  0  0
  8  7  1  0  0  0  0
  9  8  1  0  0  0  0
  9  4  1  0  0  0  0
 10 15  1  0  0  0  0
 11 12  1  0  0  0  0
 11 10  2  0  0  0  0
 12 13  2  0  0  0  0
 13  1  1  0  0  0  0
 13 14  1  0  0  0  0
 14 25  1  0  0  0  0
 15 14  2  0  0  0  0
 15 26  1  0  0  0  0
 16  2  1  0  0  0  0
 21  8  1  0  0  0  0
 22  9  1  0  0  0  0
 23 11  1  0  0  0  0
 24 12  1  0  0  0  0
M  END
