4,5,6
q = 0.0, confidence = 0.95

 62 62  0  0  1  0  0  0  0  0999 V2000
   -1.3693   -1.1187   -0.1179 P   0  0  2  0  0  4  0  0  0  0  0  0
   -0.2124    1.3547    1.3691 P   0  0  0  0  0  2  0  0  0  0  0  0
    0.3951    0.8431   -1.7642 P   0  0  0  0  0  2  0  0  0  0  0  0
   -0.6900   -0.3743    1.3606 C   0  0  1  0  0  3  0  0  0  0  0  0
    0.2037    1.8188   -0.2907 C   0  0  2  0  0  3  0  0  0  0  0  0
   -0.1660   -0.8213   -1.4081 C   0  0  2  0  0  3  0  0  0  0  0  0
   -3.0874   -0.5431   -0.5273 C   0  0  0  0  0  0  0  0  0  0  0  0
   -3.4271   -1.1483   -1.3954 H   0  0  0  0  0  0  0  0  0  0  0  0
   -3.7138   -0.8385    0.3406 H   0  0  0  0  0  0  0  0  0  0  0  0
   -3.2209    0.9517   -0.8231 C   0  0  0  0  0  0  0  0  0  0  0  0
   -2.5717    1.2108   -1.6858 H   0  0  0  0  0  0  0  0  0  0  0  0
   -2.8190    1.5339    0.0346 H   0  0  0  0  0  0  0  0  0  0  0  0
   -4.6623    1.3978   -1.1102 C   0  0  0  0  0  0  0  0  0  0  0  0
   -4.6354    2.4593   -1.4371 H   0  0  0  0  0  0  0  0  0  0  0  0
   -5.0589    0.8252   -1.9781 H   0  0  0  0  0  0  0  0  0  0  0  0
   -5.6139    1.2608    0.0803 C   0  0  0  0  0  0  0  0  0  0  0  0
   -5.7443    0.2043    0.3936 H   0  0  0  0  0  0  0  0  0  0  0  0
   -6.6218    1.6542   -0.1600 H   0  0  0  0  0  0  0  0  0  0  0  0
   -5.2367    1.8226    0.9608 H   0  0  0  0  0  0  0  0  0  0  0  0
   -1.6386   -2.9173    0.1213 C   0  0  0  0  0  0  0  0  0  0  0  0
   -0.6902   -3.4158    0.3825 H   0  0  0  0  0  0  0  0  0  0  0  0
   -2.0442   -3.3508   -0.8104 H   0  0  0  0  0  0  0  0  0  0  0  0
   -2.3748   -3.0681    0.9311 H   0  0  0  0  0  0  0  0  0  0  0  0
   -1.0401   -0.9101    2.7952 C   0  0  0  0  0  0  0  0  0  0  0  0
   -2.5736   -1.0134    2.9702 C   0  0  0  0  0  0  0  0  0  0  0  0
   -2.8238   -1.2935    4.0140 H   0  0  0  0  0  0  0  0  0  0  0  0
   -3.0335   -1.7801    2.3158 H   0  0  0  0  0  0  0  0  0  0  0  0
   -3.0608   -0.0410    2.7526 H   0  0  0  0  0  0  0  0  0  0  0  0
   -0.3702   -2.2678    3.0934 C   0  0  0  0  0  0  0  0  0  0  0  0
   -0.6676   -2.6154    4.1043 H   0  0  0  0  0  0  0  0  0  0  0  0
    0.7304   -2.1582    3.0774 H   0  0  0  0  0  0  0  0  0  0  0  0
   -0.6379   -3.0653    2.3812 H   0  0  0  0  0  0  0  0  0  0  0  0
   -0.5312    0.0488    3.8980 C   0  0  0  0  0  0  0  0  0  0  0  0
   -1.0525    1.0255    3.8911 H   0  0  0  0  0  0  0  0  0  0  0  0
    0.5566    0.2394    3.8074 H   0  0  0  0  0  0  0  0  0  0  0  0
   -0.7117   -0.4225    4.8853 H   0  0  0  0  0  0  0  0  0  0  0  0
    0.6462    3.3055   -0.4802 C   0  0  0  0  0  0  0  0  0  0  0  0
    0.7870    4.0554    0.8587 C   0  0  0  0  0  0  0  0  0  0  0  0
    1.5397    3.5755    1.5166 H   0  0  0  0  0  0  0  0  0  0  0  0
   -0.1701    4.1070    1.4152 H   0  0  0  0  0  0  0  0  0  0  0  0
    1.1195    5.0949    0.6615 H   0  0  0  0  0  0  0  0  0  0  0  0
   -0.4477    4.0003   -1.3231 C   0  0  0  0  0  0  0  0  0  0  0  0
   -0.2028    5.0716   -1.4766 H   0  0  0  0  0  0  0  0  0  0  0  0
   -1.4339    3.9395   -0.8186 H   0  0  0  0  0  0  0  0  0  0  0  0
   -0.5451    3.5227   -2.3198 H   0  0  0  0  0  0  0  0  0  0  0  0
    2.0047    3.3967   -1.2080 C   0  0  0  0  0  0  0  0  0  0  0  0
    2.2855    4.4595   -1.3569 H   0  0  0  0  0  0  0  0  0  0  0  0
    1.9785    2.9112   -2.2040 H   0  0  0  0  0  0  0  0  0  0  0  0
    2.7953    2.9007   -0.6107 H   0  0  0  0  0  0  0  0  0  0  0  0
   -0.0118   -1.7878   -2.6365 C   0  0  0  0  0  0  0  0  0  0  0  0
    0.6392   -3.1320   -2.2487 C   0  0  0  0  0  0  0  0  0  0  0  0
    0.7027   -3.7859   -3.1429 H   0  0  0  0  0  0  0  0  0  0  0  0
    0.0880   -3.6897   -1.4741 H   0  0  0  0  0  0  0  0  0  0  0  0
    1.6658   -2.9618   -1.8739 H   0  0  0  0  0  0  0  0  0  0  0  0
   -1.3866   -2.0245   -3.3047 C   0  0  0  0  0  0  0  0  0  0  0  0
   -1.2672   -2.6259   -4.2292 H   0  0  0  0  0  0  0  0  0  0  0  0
   -1.8579   -1.0603   -3.5843 H   0  0  0  0  0  0  0  0  0  0  0  0
   -2.0948   -2.5753   -2.6548 H   0  0  0  0  0  0  0  0  0  0  0  0
    0.9107   -1.1827   -3.7216 C   0  0  0  0  0  0  0  0  0  0  0  0
    1.9054   -0.9139   -3.3138 H   0  0  0  0  0  0  0  0  0  0  0  0
    0.4791   -0.2804   -4.1963 H   0  0  0  0  0  0  0  0  0  0  0  0
    1.0642   -1.9407   -4.5163 H   0  0  0  0  0  0  0  0  0  0  0  0
  1  7  1  6  0  0  0
  1 20  1  0  0  0  0
  1  4  1  0  0  0  0
  3  6  1  0  0  0  0
  3  5  1  0  0  0  0
  4  2  1  0  0  0  0
  4 24  1  1  0  0  0
  5 37  1  1  0  0  0
  5  2  1  0  0  0  0
  6 50  1  6  0  0  0
  6  1  1  0  0  0  0
  7  9  1  0  0  0  0
  8  7  1  0  0  0  0
 10  7  1  0  0  0  0
 10 12  1  0  0  0  0
 11 10  1  0  0  0  0
 13 10  1  0  0  0  0
 13 16  1  0  0  0  0
 14 13  1  0  0  0  0
 15 13  1  0  0  0  0
 16 17  1  0  0  0  0
 16 19  1  0  0  0  0
 18 16  1  0  0  0  0
 20 21  1  0  0  0  0
 20 23  1  0  0  0  0
 22 20  1  0  0  0  0
 24 25  1  0  0  0  0
 24 29  1  0  0  0  0
 24 33  1  0  0  0  0
 25 26  1  0  0  0  0
 27 25  1  0  0  0  0
 28 25  1  0  0  0  0
 29 30  1  0  0  0  0
 31 29  1  0  0  0  0
 32 29  1  0  0  0  0
 33 36  1  0  0  0  0
 34 33  1  0  0  0  0
 35 33  1  0  0  0  0
 37 38  1  0  0  0  0
 38 40  1  0  0  0  0
 38 39  1  0  0  0  0
 41 38  1  0  0  0  0
 42 44  1  0  0  0  0
 42 37  1  0  0  0  0
 43 42  1  0  0  0  0
 45 42  1  0  0  0  0
 46 49  1  0  0  0  0
 46 37  1  0  0  0  0
 47 46  1  0  0  0  0
 48 46  1  0  0  0  0
 50 51  1  0  0  0  0
 51 54  1  0  0  0  0
 51 53  1  0  0  0  0
 52 51  1  0  0  0  0
 55 58  1  0  0  0  0
 55 50  1  0  0  0  0
 56 55  1  0  0  0  0
 57 55  1  0  0  0  0
 59 60  1  0  0  0  0
 59 50  1  0  0  0  0
 61 59  1  0  0  0  0
 62 59  1  0  0  0  0
M  END
