11,13,15
q = 0.0, confidence = 0.99

 32 33  0  0  0  0  0  0  0  0999 V2000
    0.8291   -1.0323    0.2314 N   0  0  0  0  0  2  0  0  0  0  0  0
    0.0743   -0.3679    1.0182 N   0  0  0  0  0  2  0  0  0  0  0  0
    6.2669    0.3531   -0.1324 N   0  0  0  0  0  0  0  0  0  0  0  0
    2.1647   -0.6377    0.1958 C   0  0  0  0  0  0  0  0  0  0  0  0
    2.7129    0.4432    0.9347 C   0  0  0  0  0  0  0  0  0  0  0  0
    4.0573    0.7689    0.8288 C   0  0  0  0  0  0  0  0  0  0  0  0
    4.9335    0.0268   -0.0267 C   0  0  0  0  0  0  0  0  0  0  0  0
    4.3751   -1.0586   -0.7665 C   0  0  0  0  0  0  0  0  0  0  0  0
    3.0251   -1.3739   -0.6525 C   0  0  0  0  0  0  0  0  0  0  0  0
   -1.2679   -0.7747    1.0019 C   0  0  0  0  0  3  0  0  0  0  0  0
   -1.8182   -1.7204    0.0694 C   0  0  0  0  0  3  0  0  0  0  0  0
   -3.1934   -2.0544    0.1020 C   0  0  0  0  0  3  0  0  0  0  0  0
   -4.0588   -1.3887    1.0211 C   0  0  0  0  0  3  0  0  0  0  0  0
   -3.5389   -0.4454    1.9477 C   0  0  0  0  0  3  0  0  0  0  0  0
   -2.1559   -0.1170    1.9083 C   0  0  0  0  0  3  0  0  0  0  0  0
    6.8100    1.4670    0.6227 C   0  0  0  0  0  0  0  0  0  0  0  0
    7.1334   -0.4075   -1.0128 C   0  0  0  0  0  0  0  0  0  0  0  0
    2.0395    1.0156    1.5882 H   0  0  0  0  0  0  0  0  0  0  0  0
    4.4442    1.6145    1.4122 H   0  0  0  0  0  0  0  0  0  0  0  0
    5.0050   -1.6553   -1.4377 H   0  0  0  0  0  0  0  0  0  0  0  0
    2.5900   -2.2070   -1.2243 H   0  0  0  0  0  0  0  0  0  0  0  0
   -1.1287   -2.1630   -0.6619 H   0  0  0  0  0  0  0  0  0  0  0  0
   -3.6091   -2.7566   -0.6337 H   0  0  0  0  0  0  0  0  0  0  0  0
   -5.1388   -1.5914    0.9975 H   0  0  0  0  0  0  0  0  0  0  0  0
   -4.2129    0.0873    2.6316 H   0  0  0  0  0  0  0  0  0  0  0  0
   -1.7309    0.6545    2.5653 H   0  0  0  0  0  0  0  0  0  0  0  0
    6.3188    2.4300    0.3584 H   0  0  0  0  0  0  0  0  0  0  0  0
    6.6970    1.3213    1.7200 H   0  0  0  0  0  0  0  0  0  0  0  0
    7.8881    1.5654    0.4038 H   0  0  0  0  0  0  0  0  0  0  0  0
    8.1583    0.0009   -0.9605 H   0  0  0  0  0  0  0  0  0  0  0  0
    7.1786   -1.4816   -0.7255 H   0  0  0  0  0  0  0  0  0  0  0  0
    6.7986   -0.3570   -2.0730 H   0  0  0  0  0  0  0  0  0  0  0  0
  1  2  1  0  0  0  0
  3  7  1  0  0  0  0
  3 16  1  0  0  0  0
  4  1  1  0  0  0  0
  4  5  1  0  0  0  0
  5 18  1  0  0  0  0
  6  5  2  0  0  0  0
  6 19  1  0  0  0  0
  7  6  1  0  0  0  0
  8  9  1  0  0  0  0
  8  7  2  0  0  0  0
  9  4  2  0  0  0  0
 10  2  1  0  0  0  0
 10 15  1  0  0  0  0
 11 12  1  0  0  0  0
 11 10  1  0  0  0  0
 12 13  1  0  0  0  0
 13 14  1  0  0  0  0
 14 25  1  0  0  0  0
 15 14  1  0  0  0  0
 15 26  1  0  0  0  0
 16 28  1  0  0  0  0
 17 30  1  0  0  0  0
 17 31  1  0  0  0  0
 17  3  1  0  0  0  0
 20  8  1  0  0  0  0
 21  9  1  0  0  0  0
 22 11  1  0  0  0  0
 23 12  1  0  0  0  0
 24 13  1  0  0  0  0
 27 16  1  0  0  0  0
 29 16  1  0  0  0  0
 32 17  1  0  0  0  0
M  END
