2,4,6
q = 0.0, confidence = 0.998

 40 40  0  0  1  0  0  0  0  0999 V2000
    0.2645    0.3136    0.9291 C   0  0  2  0  0  3  0  0  0  0  0  0
   -0.4650    1.4195    0.3600 C   0  0  1  0  0  3  0  0  0  0  0  0
   -1.7993    1.6871    0.7821 C   0  0  0  0  0  3  0  0  0  0  0  0
   -2.4484    0.8245    1.7085 C   0  0  0  0  0  3  0  0  0  0  0  0
   -1.7557   -0.2811    2.2644 C   0  0  0  0  0  3  0  0  0  0  0  0
   -0.4177   -0.5336    1.8503 C   0  0  0  0  0  3  0  0  0  0  0  0
    1.7268    0.0118    0.6037 C   0  0  2  0  0  0  0  0  0  0  0  0
    2.6906    0.7523    2.6408 C   0  0  0  0  0  0  0  0  0  0  0  0
    1.9711   -1.1156   -0.4589 C   0  0  2  0  0  0  0  0  0  0  0  0
    1.9738   -2.5151    0.1614 C   0  0  0  0  0  0  0  0  0  0  0  0
    4.4265   -0.7887   -0.5577 C   0  0  0  0  0  0  0  0  0  0  0  0
    3.0195    0.1350   -2.2801 C   0  0  0  0  0  0  0  0  0  0  0  0
    0.1711    2.3718   -0.6419 C   0  0  2  0  0  0  0  0  0  0  0  0
    0.9745    3.4635    0.0810 C   0  0  0  0  0  0  0  0  0  0  0  0
    2.4376   -0.3401    1.7855 O   0  0  0  0  0  0  0  0  0  0  0  0
   -0.8743    2.9423   -1.4165 O   0  0  0  0  0  0  0  0  0  0  0  0
    3.1676   -0.8859   -1.2684 N   0  0  0  0  0  0  0  0  0  0  0  0
   -2.3395    2.5135    0.3044 H   0  0  0  0  0  0  0  0  0  0  0  0
   -3.5006    1.0029    1.9721 H   0  0  0  0  0  0  0  0  0  0  0  0
   -2.2612   -0.9703    2.9535 H   0  0  0  0  0  0  0  0  0  0  0  0
    0.1277   -1.3968    2.2558 H   0  0  0  0  0  0  0  0  0  0  0  0
    2.1791    0.9390    0.1822 H   0  0  0  0  0  0  0  0  0  0  0  0
    3.2425    0.3666    3.5197 H   0  0  0  0  0  0  0  0  0  0  0  0
    3.3195    1.5286    2.1401 H   0  0  0  0  0  0  0  0  0  0  0  0
    1.7529    1.2417    2.9959 H   0  0  0  0  0  0  0  0  0  0  0  0
    1.1159   -1.0579   -1.1606 H   0  0  0  0  0  0  0  0  0  0  0  0
    2.1733   -3.2576   -0.6342 H   0  0  0  0  0  0  0  0  0  0  0  0
    2.7428   -2.6115    0.9501 H   0  0  0  0  0  0  0  0  0  0  0  0
    0.9947   -2.7553    0.6138 H   0  0  0  0  0  0  0  0  0  0  0  0
    5.2676   -0.8708   -1.2783 H   0  0  0  0  0  0  0  0  0  0  0  0
    4.5253   -1.6085    0.1782 H   0  0  0  0  0  0  0  0  0  0  0  0
    4.5618    0.1790   -0.0027 H   0  0  0  0  0  0  0  0  0  0  0  0
    3.8601    0.0784   -3.0035 H   0  0  0  0  0  0  0  0  0  0  0  0
    2.0727   -0.0122   -2.8384 H   0  0  0  0  0  0  0  0  0  0  0  0
    3.0195    1.1889   -1.8781 H   0  0  0  0  0  0  0  0  0  0  0  0
    0.8550    1.7840   -1.2949 H   0  0  0  0  0  0  0  0  0  0  0  0
    1.4507    4.1420   -0.6565 H   0  0  0  0  0  0  0  0  0  0  0  0
    1.7769    3.0398    0.7168 H   0  0  0  0  0  0  0  0  0  0  0  0
    0.2988    4.0619    0.7236 H   0  0  0  0  0  0  0  0  0  0  0  0
   -0.4605    3.4423   -2.1418 H   0  0  0  0  0  0  0  0  0  0  0  0
  1  7  1  1  0  0  0
  1  6  1  0  0  0  0
  2 13  1  1  0  0  0
  2  3  1  0  0  0  0
  2  1  1  0  0  0  0
  3  4  1  0  0  0  0
  4 19  1  0  0  0  0
  4  5  1  0  0  0  0
  5 20  1  0  0  0  0
  6 21  1  0  0  0  0
  6  5  1  0  0  0  0
  7 22  1  6  0  0  0
  7 15  1  0  0  0  0
  8 25  1  0  0  0  0
  8 23  1  0  0  0  0
  9 26  1  6  0  0  0
  9 10  1  0  0  0  0
  9  7  1  0  0  0  0
 10 29  1  0  0  0  0
 10 28  1  0  0  0  0
 11 32  1  0  0  0  0
 11 31  1  0  0  0  0
 12 35  1  0  0  0  0
 12 17  1  0  0  0  0
 13 36  1  6  0  0  0
 13 14  1  0  0  0  0
 14 38  1  0  0  0  0
 14 39  1  0  0  0  0
 15  8  1  0  0  0  0
 16 13  1  0  0  0  0
 17 11  1  0  0  0  0
 17  9  1  0  0  0  0
 18  3  1  0  0  0  0
 24  8  1  0  0  0  0
 27 10  1  0  0  0  0
 30 11  1  0  0  0  0
 33 12  1  0  0  0  0
 34 12  1  0  0  0  0
 37 14  1  0  0  0  0
 40 16  1  0  0  0  0
M  END
