4,6,8
q = 0.0, confidence = 0.986

 31 32  0  0  1  0  0  0  0  0999 V2000
    0.9083   -1.5021    0.7040 N   0  0  0  0  0  2  0  0  0  0  0  0
   -1.6967   -1.3555    1.5741 O   0  0  0  0  0  0  0  0  0  0  0  0
   -0.7444   -1.5884    1.6859 H   0  0  0  0  0  0  0  0  0  0  0  0
    0.4834   -1.1187   -0.5438 C   0  0  1  0  0  3  0  0  0  0  0  0
    1.3977   -1.0318   -1.6466 C   0  0  0  0  0  3  0  0  0  0  0  0
    2.7699   -1.3083   -1.4291 C   0  0  0  0  0  3  0  0  0  0  0  0
    3.2056   -1.7183   -0.1342 C   0  0  0  0  0  3  0  0  0  0  0  0
    2.2425   -1.7641    0.9046 C   0  0  0  0  0  3  0  0  0  0  0  0
   -0.9994   -0.8791   -0.7319 C   0  0  2  0  0  0  0  0  0  0  0  0
   -1.6773   -0.3576    0.5780 C   0  0  1  0  0  0  0  0  0  0  0  0
   -1.6656   -2.1709   -1.2339 C   0  0  0  0  0  0  0  0  0  0  0  0
   -3.0857    0.1256    0.2923 C   0  0  0  0  0  0  0  0  0  0  0  0
   -4.2022   -0.6118    0.7251 C   0  0  0  0  0  0  0  0  0  0  0  0
   -5.5012   -0.1704    0.4265 C   0  0  0  0  0  0  0  0  0  0  0  0
   -5.6970    1.0110   -0.3051 C   0  0  0  0  0  0  0  0  0  0  0  0
   -4.5850    1.7573   -0.7301 C   0  0  0  0  0  0  0  0  0  0  0  0
   -3.2875    1.3188   -0.4301 C   0  0  0  0  0  0  0  0  0  0  0  0
    1.0342   -0.7011   -2.6286 H   0  0  0  0  0  0  0  0  0  0  0  0
    3.4941   -1.1964   -2.2484 H   0  0  0  0  0  0  0  0  0  0  0  0
    4.2618   -1.9299    0.0767 H   0  0  0  0  0  0  0  0  0  0  0  0
    2.5315   -2.0374    1.9313 H   0  0  0  0  0  0  0  0  0  0  0  0
   -1.1069   -0.0925   -1.5080 H   0  0  0  0  0  0  0  0  0  0  0  0
   -1.0816    0.5247    0.9166 H   0  0  0  0  0  0  0  0  0  0  0  0
   -2.7352   -1.9848   -1.4525 H   0  0  0  0  0  0  0  0  0  0  0  0
   -1.1785   -2.5494   -2.1543 H   0  0  0  0  0  0  0  0  0  0  0  0
   -1.6088   -2.9512   -0.4508 H   0  0  0  0  0  0  0  0  0  0  0  0
   -4.0300   -1.5272    1.3084 H   0  0  0  0  0  0  0  0  0  0  0  0
   -6.3689   -0.7538    0.7720 H   0  0  0  0  0  0  0  0  0  0  0  0
   -6.7160    1.3567   -0.5373 H   0  0  0  0  0  0  0  0  0  0  0  0
   -4.7300    2.6936   -1.2907 H   0  0  0  0  0  0  0  0  0  0  0  0
   -2.4176    1.9186   -0.7441 H   0  0  0  0  0  0  0  0  0  0  0  0
  1  8  1  0  0  0  0
  2  3  1  0  0  0  0
  4  9  1  6  0  0  0
  4  1  1  0  0  0  0
  5  6  1  0  0  0  0
  5  4  1  0  0  0  0
  6  7  1  0  0  0  0
  7 20  1  0  0  0  0
  7  8  1  0  0  0  0
  8 21  1  0  0  0  0
  9 22  1  6  0  0  0
  9 10  1  0  0  0  0
 10 23  1  1  0  0  0
 10  2  1  0  0  0  0
 11  9  1  0  0  0  0
 11 26  1  0  0  0  0
 12 10  1  0  0  0  0
 12 13  1  0  0  0  0
 13 27  1  0  0  0  0
 14 13  2  0  0  0  0
 14 28  1  0  0  0  0
 15 14  1  0  0  0  0
 16 17  1  0  0  0  0
 16 15  2  0  0  0  0
 17 12  2  0  0  0  0
 18  5  1  0  0  0  0
 19  6  1  0  0  0  0
 24 11  1  0  0  0  0
 25 11  1  0  0  0  0
 29 15  1  0  0  0  0
 30 16  1  0  0  0  0
 31 17  1  0  0  0  0
M  END
