1,12,13
q = -1.0, confidence = 0.0

 40 42  0  0  0  0  0  0  0  0999 V2000
    0.0022    0.9981    0.0016 C   0  0  0  0  0  3  0  0  0  0  0  0
    1.2222    1.6990    0.0001 C   0  0  0  0  0  0  0  0  0  0  0  0
    1.2377    3.1022   -0.0031 C   0  0  0  0  0  0  0  0  0  0  0  0
    2.1748    3.6732   -0.0056 H   0  0  0  0  0  0  0  0  0  0  0  0
    0.0110    3.8091   -0.0037 C   0  0  0  0  0  0  0  0  0  0  0  0
   -1.2177    3.1112   -0.0029 C   0  0  0  0  0  0  0  0  0  0  0  0
   -2.1505    3.6886   -0.0051 H   0  0  0  0  0  0  0  0  0  0  0  0
   -1.2116    1.7055    0.0002 C   0  0  0  0  0  0  0  0  0  0  0  0
   -3.6999    0.9985   -0.0010 C   0  0  0  0  0  0  0  0  0  0  0  0
   -4.2451   -0.2658   -0.0009 C   0  0  0  0  0  0  0  0  0  0  0  0
   -5.2949   -0.5747   -0.0012 H   0  0  0  0  0  0  0  0  0  0  0  0
   -1.9989   -0.5551    0.0003 C   0  0  0  0  0  2  0  0  0  0  0  0
    1.9938   -0.5675   -0.0000 C   0  0  0  0  0  2  0  0  0  0  0  0
    4.2420   -0.2928   -0.0006 C   0  0  0  0  0  0  0  0  0  0  0  0
    5.2897   -0.6086   -0.0008 H   0  0  0  0  0  0  0  0  0  0  0  0
    3.7053    0.9750   -0.0008 C   0  0  0  0  0  0  0  0  0  0  0  0
    0.0273    5.3198    0.0055 C   0  0  0  0  0  0  0  0  0  0  0  0
   -0.9930    5.7393   -0.0904 H   0  0  0  0  0  0  0  0  0  0  0  0
    0.6376    5.7271   -0.8275 H   0  0  0  0  0  0  0  0  0  0  0  0
    0.4635    5.7173    0.9468 H   0  0  0  0  0  0  0  0  0  0  0  0
   -3.3750   -2.6317    0.0008 C   0  0  0  0  0  0  0  0  0  0  0  0
   -3.9371   -2.9459   -0.9012 H   0  0  0  0  0  0  0  0  0  0  0  0
   -3.9343   -2.9453    0.9047 H   0  0  0  0  0  0  0  0  0  0  0  0
   -2.3710   -3.1048   -0.0005 H   0  0  0  0  0  0  0  0  0  0  0  0
   -4.3908    2.3191   -0.0017 C   0  0  0  0  0  0  0  0  0  0  0  0
   -4.1324    2.9225    0.8928 H   0  0  0  0  0  0  0  0  0  0  0  0
   -5.4857    2.1637   -0.0011 H   0  0  0  0  0  0  0  0  0  0  0  0
   -4.1331    2.9213   -0.8972 H   0  0  0  0  0  0  0  0  0  0  0  0
    3.3565   -2.6530   -0.0001 C   0  0  0  0  0  0  0  0  0  0  0  0
    2.3495   -3.1196    0.0007 H   0  0  0  0  0  0  0  0  0  0  0  0
    3.9160   -2.9703    0.9024 H   0  0  0  0  0  0  0  0  0  0  0  0
    3.9144   -2.9705   -0.9035 H   0  0  0  0  0  0  0  0  0  0  0  0
    4.4050    2.2909   -0.0011 C   0  0  0  0  0  0  0  0  0  0  0  0
    4.1519    2.8949   -0.8967 H   0  0  0  0  0  0  0  0  0  0  0  0
    5.4988    2.1283    0.0001 H   0  0  0  0  0  0  0  0  0  0  0  0
    4.1501    2.8961    0.8933 H   0  0  0  0  0  0  0  0  0  0  0  0
   -2.3176    0.8059   -0.0004 N   0  0  0  0  0  0  0  0  0  0  0  0
   -3.2020   -1.1861   -0.0001 N   0  0  0  0  0  0  0  0  0  0  0  0
    2.3216    0.7916   -0.0005 N   0  0  0  0  0  0  0  0  0  0  0  0
    3.1928   -1.2062   -0.0002 N   0  0  0  0  0  0  0  0  0  0  0  0
  2  1  2  0  0  0  0
  3  2  1  0  0  0  0
  4  3  1  0  0  0  0
  5  3  2  0  0  0  0
  5  6  1  0  0  0  0
  5 17  1  0  0  0  0
  6  8  2  0  0  0  0
  7  6  1  0  0  0  0
  8  1  1  0  0  0  0
  9 10  2  0  0  0  0
  9 37  1  0  0  0  0
 10 38  1  0  0  0  0
 11 10  1  0  0  0  0
 14 40  1  0  0  0  0
 15 14  1  0  0  0  0
 16 14  2  0  0  0  0
 16 39  1  0  0  0  0
 17 20  1  0  0  0  0
 18 17  1  0  0  0  0
 19 17  1  0  0  0  0
 21 23  1  0  0  0  0
 22 21  1  0  0  0  0
 24 21  1  0  0  0  0
 25 27  1  0  0  0  0
 25  9  1  0  0  0  0
 25 26  1  0  0  0  0
 28 25  1  0  0  0  0
 29 30  1  0  0  0  0
 29 31  1  0  0  0  0
 32 29  1  0  0  0  0
 33 16  1  0  0  0  0
 33 35  1  0  0  0  0
 33 36  1  0  0  0  0
 34 33  1  0  0  0  0
 37  8  1  0  0  0  0
 37 12  1  0  0  0  0
 38 12  1  0  0  0  0
 38 21  1  0  0  0  0
 39 13  1  0  0  0  0
 39  2  1  0  0  0  0
 40 29  1  0  0  0  0
 40 13  1  0  0  0  0
M  END
