4,7,10
q = 0.0, confidence = 1.0

 78 81  0  0  1  0  0  0  0  0999 V2000
   -0.2297    0.8838   -0.4439 B   0  0  0  0  0  0  0  0  0  0  0  0
   -0.3140    1.1089   -1.6482 H   0  0  0  0  0  0  0  0  0  0  0  0
    1.0008   -0.0691   -0.0142 C   0  0  2  0  0  3  0  0  0  0  0  0
    1.5626    0.0115    1.3141 C   0  0  2  0  0  3  0  0  0  0  0  0
   -0.2537    1.9619    0.1429 H   0  0  0  0  0  0  0  0  0  0  0  0
    2.6672   -0.8464    1.7079 C   0  0  2  0  0  3  0  0  0  0  0  0
    3.2040   -1.7521    0.7618 C   0  0  0  0  0  3  0  0  0  0  0  0
    4.0478   -2.3939    1.0548 H   0  0  0  0  0  0  0  0  0  0  0  0
    2.6958   -1.8448   -0.5776 C   0  0  2  0  0  3  0  0  0  0  0  0
    1.6023   -1.0064   -0.9668 C   0  0  1  0  0  3  0  0  0  0  0  0
    1.0119    0.9442    2.3664 C   0  0  0  0  0  0  0  0  0  0  0  0
    0.4798    0.3764    3.1600 H   0  0  0  0  0  0  0  0  0  0  0  0
    0.3095    1.6682    1.9227 H   0  0  0  0  0  0  0  0  0  0  0  0
    1.8197    1.5119    2.8659 H   0  0  0  0  0  0  0  0  0  0  0  0
    3.2161   -0.8135    3.1116 C   0  0  0  0  0  0  0  0  0  0  0  0
    3.4961    0.2106    3.4245 H   0  0  0  0  0  0  0  0  0  0  0  0
    4.1161   -1.4511    3.1962 H   0  0  0  0  0  0  0  0  0  0  0  0
    2.4614   -1.1831    3.8384 H   0  0  0  0  0  0  0  0  0  0  0  0
    3.2932   -2.8550   -1.5238 C   0  0  0  0  0  0  0  0  0  0  0  0
    4.2326   -3.2717   -1.1142 H   0  0  0  0  0  0  0  0  0  0  0  0
    3.5226   -2.4133   -2.5117 H   0  0  0  0  0  0  0  0  0  0  0  0
    2.5899   -3.6984   -1.6965 H   0  0  0  0  0  0  0  0  0  0  0  0
    1.0905   -1.1491   -2.3821 C   0  0  0  0  0  0  0  0  0  0  0  0
    0.6511   -2.1552   -2.5506 H   0  0  0  0  0  0  0  0  0  0  0  0
    1.9104   -1.0309   -3.1164 H   0  0  0  0  0  0  0  0  0  0  0  0
    0.3256   -0.3873   -2.6047 H   0  0  0  0  0  0  0  0  0  0  0  0
   -2.0389    0.2167   -0.0943 P   0  0  0  0  0  4  0  0  0  0  0  0
   -3.0467    2.2985   -1.7078 C   0  0  0  0  0  0  0  0  0  0  0  0
   -2.0097    2.6822   -1.8030 H   0  0  0  0  0  0  0  0  0  0  0  0
   -3.1714    1.5412   -2.5096 H   0  0  0  0  0  0  0  0  0  0  0  0
   -4.0459    3.4463   -1.9075 C   0  0  0  0  0  0  0  0  0  0  0  0
   -3.8936    3.9045   -2.9068 H   0  0  0  0  0  0  0  0  0  0  0  0
   -5.0823    3.0381   -1.9044 H   0  0  0  0  0  0  0  0  0  0  0  0
   -3.9125    4.5017   -0.8040 C   0  0  0  0  0  0  0  0  0  0  0  0
   -4.6609    5.3093   -0.9443 H   0  0  0  0  0  0  0  0  0  0  0  0
   -2.9120    4.9827   -0.8801 H   0  0  0  0  0  0  0  0  0  0  0  0
   -4.0617    3.8690    0.5841 C   0  0  0  0  0  0  0  0  0  0  0  0
   -5.1001    3.4840    0.7025 H   0  0  0  0  0  0  0  0  0  0  0  0
   -3.9194    4.6308    1.3786 H   0  0  0  0  0  0  0  0  0  0  0  0
   -3.0705    2.7145    0.7940 C   0  0  0  0  0  0  0  0  0  0  0  0
   -3.2342    2.2631    1.7942 H   0  0  0  0  0  0  0  0  0  0  0  0
   -2.0311    3.1060    0.7872 H   0  0  0  0  0  0  0  0  0  0  0  0
   -3.2103    1.6543   -0.3162 C   0  0  0  0  0  0  0  0  0  0  0  0
   -4.2345    1.2230   -0.2496 H   0  0  0  0  0  0  0  0  0  0  0  0
   -2.5953   -1.0435   -1.3598 C   0  0  0  0  0  0  0  0  0  0  0  0
   -2.1327   -0.6219   -2.2824 H   0  0  0  0  0  0  0  0  0  0  0  0
   -1.9744   -2.4363   -1.1399 C   0  0  0  0  0  0  0  0  0  0  0  0
   -0.8943   -2.3578   -0.9064 H   0  0  0  0  0  0  0  0  0  0  0  0
   -2.4545   -2.9080   -0.2562 H   0  0  0  0  0  0  0  0  0  0  0  0
   -2.2137   -3.3352   -2.3598 C   0  0  0  0  0  0  0  0  0  0  0  0
   -1.6895   -2.9012   -3.2406 H   0  0  0  0  0  0  0  0  0  0  0  0
   -1.7633   -4.3352   -2.1882 H   0  0  0  0  0  0  0  0  0  0  0  0
   -3.7118   -3.4634   -2.6638 C   0  0  0  0  0  0  0  0  0  0  0  0
   -3.8744   -4.0784   -3.5733 H   0  0  0  0  0  0  0  0  0  0  0  0
   -4.2052   -4.0075   -1.8270 H   0  0  0  0  0  0  0  0  0  0  0  0
   -4.3704   -2.0878   -2.8255 C   0  0  0  0  0  0  0  0  0  0  0  0
   -5.4635   -2.1956   -2.9860 H   0  0  0  0  0  0  0  0  0  0  0  0
   -3.9684   -1.5944   -3.7388 H   0  0  0  0  0  0  0  0  0  0  0  0
   -4.1081   -1.1737   -1.6174 C   0  0  0  0  0  0  0  0  0  0  0  0
   -4.6038   -1.5962   -0.7166 H   0  0  0  0  0  0  0  0  0  0  0  0
   -4.5719   -0.1832   -1.7972 H   0  0  0  0  0  0  0  0  0  0  0  0
   -2.3674   -0.3833    1.6437 C   0  0  0  0  0  0  0  0  0  0  0  0
   -2.0234    0.4995    2.2315 H   0  0  0  0  0  0  0  0  0  0  0  0
   -3.8435   -0.6398    1.9992 C   0  0  0  0  0  0  0  0  0  0  0  0
   -4.4868    0.2085    1.6885 H   0  0  0  0  0  0  0  0  0  0  0  0
   -4.2030   -1.5302    1.4382 H   0  0  0  0  0  0  0  0  0  0  0  0
   -4.0029   -0.8906    3.5070 C   0  0  0  0  0  0  0  0  0  0  0  0
   -3.7382    0.0422    4.0541 H   0  0  0  0  0  0  0  0  0  0  0  0
   -5.0668   -1.0998    3.7455 H   0  0  0  0  0  0  0  0  0  0  0  0
   -3.1059   -2.0354    3.9944 C   0  0  0  0  0  0  0  0  0  0  0  0
   -3.4551   -2.9899    3.5395 H   0  0  0  0  0  0  0  0  0  0  0  0
   -3.2026   -2.1609    5.0930 H   0  0  0  0  0  0  0  0  0  0  0  0
   -1.6408   -1.8044    3.6034 C   0  0  0  0  0  0  0  0  0  0  0  0
   -1.2477   -0.9167    4.1488 H   0  0  0  0  0  0  0  0  0  0  0  0
   -1.0131   -2.6649    3.9159 H   0  0  0  0  0  0  0  0  0  0  0  0
   -1.4954   -1.5746    2.0925 C   0  0  0  0  0  0  0  0  0  0  0  0
   -1.8246   -2.4929    1.5650 H   0  0  0  0  0  0  0  0  0  0  0  0
   -0.4360   -1.4185    1.8134 H   0  0  0  0  0  0  0  0  0  0  0  0
  1 27  1  0  0  0  0
  1  5  1  0  0  0  0
  2  1  1  0  0  0  0
  3  1  1  6  0  0  0
  3  4  1  0  0  0  0
  4  6  1  0  0  0  0
  4 11  1  1  0  0  0
  6 15  1  1  0  0  0
  7  8  1  0  0  0  0
  7  6  1  0  0  0  0
  9 19  1  1  0  0  0
  9  7  1  0  0  0  0
 10 23  1  1  0  0  0
 10  9  1  0  0  0  0
 10  3  1  0  0  0  0
 11 14  1  0  0  0  0
 11 12  1  0  0  0  0
 13 11  1  0  0  0  0
 15 17  1  0  0  0  0
 15 16  1  0  0  0  0
 15 18  1  0  0  0  0
 19 20  1  0  0  0  0
 21 19  1  0  0  0  0
 22 19  1  0  0  0  0
 24 23  1  0  0  0  0
 25 23  1  0  0  0  0
 26 23  1  0  0  0  0
 27 62  1  0  0  0  0
 28 43  1  0  0  0  0
 29 28  1  0  0  0  0
 30 28  1  0  0  0  0
 31 33  1  0  0  0  0
 31 28  1  0  0  0  0
 31 34  1  0  0  0  0
 32 31  1  0  0  0  0
 34 37  1  0  0  0  0
 35 34  1  0  0  0  0
 36 34  1  0  0  0  0
 37 38  1  0  0  0  0
 37 40  1  0  0  0  0
 37 39  1  0  0  0  0
 40 41  1  0  0  0  0
 42 40  1  0  0  0  0
 43 44  1  0  0  0  0
 43 27  1  0  0  0  0
 43 40  1  0  0  0  0
 45 47  1  0  0  0  0
 45 27  1  0  0  0  0
 46 45  1  0  0  0  0
 47 48  1  0  0  0  0
 47 49  1  0  0  0  0
 50 52  1  0  0  0  0
 50 47  1  0  0  0  0
 51 50  1  0  0  0  0
 53 50  1  0  0  0  0
 53 55  1  0  0  0  0
 54 53  1  0  0  0  0
 56 53  1  0  0  0  0
 56 59  1  0  0  0  0
 57 56  1  0  0  0  0
 58 56  1  0  0  0  0
 59 45  1  0  0  0  0
 59 60  1  0  0  0  0
 61 59  1  0  0  0  0
 62 64  1  0  0  0  0
 62 76  1  0  0  0  0
 62 63  1  0  0  0  0
 64 67  1  0  0  0  0
 65 64  1  0  0  0  0
 66 64  1  0  0  0  0
 67 69  1  0  0  0  0
 67 70  1  0  0  0  0
 67 68  1  0  0  0  0
 70 72  1  0  0  0  0
 71 70  1  0  0  0  0
 73 75  1  0  0  0  0
 73 70  1  0  0  0  0
 73 74  1  0  0  0  0
 76 73  1  0  0  0  0
 77 76  1  0  0  0  0
 78 76  1  0  0  0  0
M  END
