5,13,18
q = -1.0, confidence = 0.0

 48 49  0  0  0  0  0  0  0  0999 V2000
    2.2104   -0.5962    2.1269 N   0  0  0  0  0  0  0  0  0  0  0  0
    1.6980   -2.4499    1.1255 N   0  0  0  0  0  0  0  0  0  0  0  0
   -1.9200   -2.1254    1.1675 N   0  0  0  0  0  0  0  0  0  0  0  0
   -2.1156   -0.1963    2.1392 N   0  0  0  0  0  0  0  0  0  0  0  0
    1.4082   -1.1160    1.1491 C   0  0  0  0  0  2  0  0  0  0  0  0
    3.0173   -1.5938    2.6719 C   0  0  0  0  0  0  0  0  0  0  0  0
    3.7367   -1.3855    3.4692 H   0  0  0  0  0  0  0  0  0  0  0  0
    2.6927   -2.7659    2.0354 C   0  0  0  0  0  0  0  0  0  0  0  0
    3.0798   -3.7809    2.1630 H   0  0  0  0  0  0  0  0  0  0  0  0
    1.1023   -3.2490    0.0572 C   0  0  0  0  0  0  0  0  0  0  0  0
    0.8951   -4.2711    0.4433 H   0  0  0  0  0  0  0  0  0  0  0  0
    1.8527   -3.3201   -0.7583 H   0  0  0  0  0  0  0  0  0  0  0  0
   -0.1492   -2.5291   -0.4727 C   0  0  0  0  0  3  0  0  0  0  0  0
   -0.1779   -2.6363   -1.5724 H   0  0  0  0  0  0  0  0  0  0  0  0
   -1.4841   -3.0291    0.1055 C   0  0  0  0  0  0  0  0  0  0  0  0
   -2.2591   -3.0001   -0.6891 H   0  0  0  0  0  0  0  0  0  0  0  0
   -1.4296   -4.0630    0.5117 H   0  0  0  0  0  0  0  0  0  0  0  0
   -1.4177   -0.8557    1.1652 C   0  0  0  0  0  2  0  0  0  0  0  0
   -2.9385   -2.2639    2.0952 C   0  0  0  0  0  0  0  0  0  0  0  0
   -3.4826   -3.2007    2.2444 H   0  0  0  0  0  0  0  0  0  0  0  0
   -3.0614   -1.0448    2.7137 C   0  0  0  0  0  0  0  0  0  0  0  0
   -3.7287   -0.7093    3.5126 H   0  0  0  0  0  0  0  0  0  0  0  0
    2.3304    0.8259    2.4263 C   0  0  0  0  0  0  0  0  0  0  0  0
    2.6228    0.9272    3.4923 H   0  0  0  0  0  0  0  0  0  0  0  0
    1.3217    1.2686    2.3131 H   0  0  0  0  0  0  0  0  0  0  0  0
    3.3203    1.5335    1.4996 C   0  0  0  0  0  0  0  0  0  0  0  0
    3.0358    1.2998    0.4493 H   0  0  0  0  0  0  0  0  0  0  0  0
    4.3345    1.1008    1.6447 H   0  0  0  0  0  0  0  0  0  0  0  0
    3.3581    3.0469    1.7178 C   0  0  0  0  0  0  0  0  0  0  0  0
    2.3216    3.4478    1.6468 H   0  0  0  0  0  0  0  0  0  0  0  0
    3.6915    3.2757    2.7553 H   0  0  0  0  0  0  0  0  0  0  0  0
    4.2564    3.7668    0.7112 C   0  0  0  0  0  0  0  0  0  0  0  0
    5.3075    3.4205    0.7906 H   0  0  0  0  0  0  0  0  0  0  0  0
    4.2537    4.8648    0.8652 H   0  0  0  0  0  0  0  0  0  0  0  0
    3.9303    3.5620   -0.3301 H   0  0  0  0  0  0  0  0  0  0  0  0
   -2.0097    1.2350    2.4162 C   0  0  0  0  0  0  0  0  0  0  0  0
   -0.9346    1.4975    2.3866 H   0  0  0  0  0  0  0  0  0  0  0  0
   -2.3686    1.3946    3.4542 H   0  0  0  0  0  0  0  0  0  0  0  0
   -2.7908    2.0935    1.4180 C   0  0  0  0  0  0  0  0  0  0  0  0
   -2.5868    3.1604    1.6616 H   0  0  0  0  0  0  0  0  0  0  0  0
   -2.3810    1.9054    0.4024 H   0  0  0  0  0  0  0  0  0  0  0  0
   -4.2993    1.8404    1.3886 C   0  0  0  0  0  0  0  0  0  0  0  0
   -4.7368    2.0178    2.3980 H   0  0  0  0  0  0  0  0  0  0  0  0
   -4.4774    0.7690    1.1530 H   0  0  0  0  0  0  0  0  0  0  0  0
   -5.0080    2.7001    0.3415 C   0  0  0  0  0  0  0  0  0  0  0  0
   -4.8640    3.7836    0.5388 H   0  0  0  0  0  0  0  0  0  0  0  0
   -6.0990    2.5052    0.3214 H   0  0  0  0  0  0  0  0  0  0  0  0
   -4.6059    2.4835   -0.6697 H   0  0  0  0  0  0  0  0  0  0  0  0
  1 23  1  0  0  0  0
  1  6  1  0  0  0  0
  2  5  1  0  0  0  0
  2  8  1  0  0  0  0
  3 19  1  0  0  0  0
  4 36  1  0  0  0  0
  4 21  1  0  0  0  0
  5  1  1  0  0  0  0
  6  7  1  0  0  0  0
  8  9  1  0  0  0  0
  8  6  2  0  0  0  0
 10 11  1  0  0  0  0
 10  2  1  0  0  0  0
 12 10  1  0  0  0  0
 13 10  1  0  0  0  0
 13 15  1  0  0  0  0
 14 13  1  0  0  0  0
 15 17  1  0  0  0  0
 15  3  1  0  0  0  0
 16 15  1  0  0  0  0
 18  3  1  0  0  0  0
 18  4  1  0  0  0  0
 19 20  1  0  0  0  0
 19 21  2  0  0  0  0
 21 22  1  0  0  0  0
 23 24  1  0  0  0  0
 25 23  1  0  0  0  0
 26 28  1  0  0  0  0
 26 29  1  0  0  0  0
 26 23  1  0  0  0  0
 27 26  1  0  0  0  0
 29 31  1  0  0  0  0
 30 29  1  0  0  0  0
 32 33  1  0  0  0  0
 32 34  1  0  0  0  0
 32 29  1  0  0  0  0
 35 32  1  0  0  0  0
 36 38  1  0  0  0  0
 37 36  1  0  0  0  0
 39 40  1  0  0  0  0
 39 36  1  0  0  0  0
 41 39  1  0  0  0  0
 42 39  1  0  0  0  0
 42 43  1  0  0  0  0
 44 42  1  0  0  0  0
 45 46  1  0  0  0  0
 45 42  1  0  0  0  0
 47 45  1  0  0  0  0
 48 45  1  0  0  0  0
M  END
