31,35,39
q = 0.0, confidence = 1.0

 40 43  0  0  1  0  0  0  0  0999 V2000
   -1.3149    1.8656   -0.9426 N   0  0  0  0  0  0  0  0  0  0  0  0
   -2.3962    1.0443   -1.0051 N   0  0  0  0  0  0  0  0  0  0  0  0
   -3.1397    1.3155   -1.6612 H   0  0  0  0  0  0  0  0  0  0  0  0
   -4.9874    0.4303   -0.9376 N   0  0  0  0  0  0  0  0  0  0  0  0
   -2.0485    0.0978    1.1231 N   0  0  0  0  0  2  0  0  0  0  0  0
   -2.8234    0.3626    0.1188 C   0  0  1  0  0  3  0  0  0  0  0  0
   -0.6246    0.3713    0.8706 C   0  0  2  0  0  0  0  0  0  0  0  0
   -0.1399    0.5206    1.8553 H   0  0  0  0  0  0  0  0  0  0  0  0
   -0.4450    1.6084   -0.0016 C   0  0  0  0  0  0  0  0  0  0  0  0
    0.7154    2.5068    0.1503 C   0  0  0  0  0  0  0  0  0  0  0  0
    1.6550    2.3350    1.1913 C   0  0  0  0  0  0  0  0  0  0  0  0
    1.5266    1.5405    1.9372 H   0  0  0  0  0  0  0  0  0  0  0  0
    2.7815    3.1631    1.2852 C   0  0  0  0  0  0  0  0  0  0  0  0
    3.5060    2.9962    2.0961 H   0  0  0  0  0  0  0  0  0  0  0  0
    2.9898    4.1812    0.3442 C   0  0  0  0  0  0  0  0  0  0  0  0
    3.8801    4.8246    0.4116 H   0  0  0  0  0  0  0  0  0  0  0  0
    2.0566    4.3696   -0.6913 C   0  0  0  0  0  0  0  0  0  0  0  0
    2.2142    5.1646   -1.4360 H   0  0  0  0  0  0  0  0  0  0  0  0
    0.9326    3.5458   -0.7874 C   0  0  0  0  0  0  0  0  0  0  0  0
    0.2028    3.6769   -1.5986 H   0  0  0  0  0  0  0  0  0  0  0  0
   -4.2696    0.0117    0.1240 C   0  0  0  0  0  0  0  0  0  0  0  0
   -6.2933    0.1302   -0.9734 C   0  0  0  0  0  0  0  0  0  0  0  0
   -6.8544    0.4826   -1.8564 H   0  0  0  0  0  0  0  0  0  0  0  0
   -6.9437   -0.5882    0.0434 C   0  0  0  0  0  0  0  0  0  0  0  0
   -8.0198   -0.8029   -0.0318 H   0  0  0  0  0  0  0  0  0  0  0  0
   -6.1891   -1.0208    1.1461 C   0  0  0  0  0  0  0  0  0  0  0  0
   -6.6634   -1.5876    1.9617 H   0  0  0  0  0  0  0  0  0  0  0  0
   -4.8230   -0.7230    1.1898 C   0  0  0  0  0  0  0  0  0  0  0  0
   -4.1657   -1.0324    2.0144 H   0  0  0  0  0  0  0  0  0  0  0  0
    0.0018   -0.8734    0.2459 C   0  0  0  0  0  3  0  0  0  0  0  0
    0.3540   -1.9711    1.0916 C   0  0  0  0  0  3  0  0  0  0  0  0
    0.2310   -1.8616    2.1791 H   0  0  0  0  0  0  0  0  0  0  0  0
    0.8703   -3.1820    0.5603 C   0  0  0  0  0  3  0  0  0  0  0  0
    1.1675   -3.9989    1.2311 H   0  0  0  0  0  0  0  0  0  0  0  0
    1.0937   -3.2851   -0.8428 C   0  0  0  0  0  3  0  0  0  0  0  0
    1.5569   -4.1921   -1.2562 H   0  0  0  0  0  0  0  0  0  0  0  0
    0.7475   -2.2126   -1.7081 C   0  0  0  0  0  3  0  0  0  0  0  0
    0.9497   -2.2813   -2.7850 H   0  0  0  0  0  0  0  0  0  0  0  0
    0.2298   -1.0062   -1.1548 C   0  0  0  0  0  3  0  0  0  0  0  0
    0.0311   -0.1487   -1.8127 H   0  0  0  0  0  0  0  0  0  0  0  0
  1  9  2  0  0  0  0
  2  1  1  0  0  0  0
  2  6  1  0  0  0  0
  3  2  1  0  0  0  0
  4 21  1  0  0  0  0
  6 21  1  1  0  0  0
  6  5  1  0  0  0  0
  7  5  1  0  0  0  0
  7  8  1  1  0  0  0
  9 10  1  0  0  0  0
  9  7  1  0  0  0  0
 10 11  1  0  0  0  0
 11 13  2  0  0  0  0
 11 12  1  0  0  0  0
 13 14  1  0  0  0  0
 15 16  1  0  0  0  0
 15 13  1  0  0  0  0
 17 15  2  0  0  0  0
 18 17  1  0  0  0  0
 19 17  1  0  0  0  0
 19 10  2  0  0  0  0
 20 19  1  0  0  0  0
 21 28  2  0  0  0  0
 22  4  2  0  0  0  0
 22 24  1  0  0  0  0
 23 22  1  0  0  0  0
 24 26  2  0  0  0  0
 25 24  1  0  0  0  0
 26 28  1  0  0  0  0
 26 27  1  0  0  0  0
 28 29  1  0  0  0  0
 30  7  1  0  0  0  0
 30 31  1  0  0  0  0
 31 32  1  0  0  0  0
 33 31  1  0  0  0  0
 33 34  1  0  0  0  0
 35 33  1  0  0  0  0
 36 35  1  0  0  0  0
 37 39  1  0  0  0  0
 37 35  1  0  0  0  0
 38 37  1  0  0  0  0
 39 30  1  0  0  0  0
 40 39  1  0  0  0  0
M  END
