1,2
q = -1.0, confidence = 0.0

 23 23  0  0  1  0  0  0  0  0999 V2000
   -1.6985   -0.4055   -1.4347 S   0  0  0  0  0  1  0  0  0  0  0  0
   -1.2914   -0.7057    1.7255 S   0  0  0  0  0  1  0  0  0  0  0  0
   -2.6622   -0.2574    0.3412 P   0  0  0  0  0  4  0  0  0  0  0  0
   -3.2470    1.2572    0.6052 O   0  0  0  0  0  0  0  0  0  0  0  0
   -4.0050   -1.1860    0.4828 O   0  0  0  0  0  0  0  0  0  0  0  0
   -4.4108    1.6340   -0.1807 C   0  0  2  0  0  0  0  0  0  0  0  0
   -4.1425    1.5308   -1.2584 H   0  0  0  0  0  0  0  0  0  0  0  0
   -4.6936    3.0931    0.1283 C   0  0  0  0  0  0  0  0  0  0  0  0
   -5.5425    3.4604   -0.4818 H   0  0  0  0  0  0  0  0  0  0  0  0
   -3.8021    3.7092   -0.0968 H   0  0  0  0  0  0  0  0  0  0  0  0
   -4.9447    3.2207    1.2003 H   0  0  0  0  0  0  0  0  0  0  0  0
   -5.5662    0.6961    0.1765 C   0  0  0  0  0  0  0  0  0  0  0  0
   -6.4774    1.0022   -0.3777 H   0  0  0  0  0  0  0  0  0  0  0  0
   -5.7803    0.8195    1.2591 H   0  0  0  0  0  0  0  0  0  0  0  0
   -5.2950   -0.7947   -0.1150 C   0  0  0  0  0  0  0  0  0  0  0  0
   -5.2513   -1.1029   -1.6156 C   0  0  0  0  0  0  0  0  0  0  0  0
   -4.5164   -0.4705   -2.1511 H   0  0  0  0  0  0  0  0  0  0  0  0
   -6.2490   -0.9391   -2.0695 H   0  0  0  0  0  0  0  0  0  0  0  0
   -4.9599   -2.1590   -1.7728 H   0  0  0  0  0  0  0  0  0  0  0  0
   -6.3189   -1.6770    0.5944 C   0  0  0  0  0  0  0  0  0  0  0  0
   -6.0968   -2.7457    0.4085 H   0  0  0  0  0  0  0  0  0  0  0  0
   -7.3398   -1.4570    0.2238 H   0  0  0  0  0  0  0  0  0  0  0  0
   -6.2898   -1.4985    1.6868 H   0  0  0  0  0  0  0  0  0  0  0  0
  1  3  1  0  0  0  0
  3  5  1  0  0  0  0
  3  4  1  0  0  0  0
  3  2  1  0  0  0  0
  6  7  1  6  0  0  0
  6  8  1  0  0  0  0
  6 12  1  0  0  0  0
  6  4  1  0  0  0  0
  8 11  1  0  0  0  0
  9  8  1  0  0  0  0
 10  8  1  0  0  0  0
 12 14  1  0  0  0  0
 13 12  1  0  0  0  0
 15 12  1  0  0  0  0
 15  5  1  0  0  0  0
 15 20  1  0  0  0  0
 16 15  1  0  0  0  0
 17 16  1  0  0  0  0
 18 16  1  0  0  0  0
 19 16  1  0  0  0  0
 20 23  1  0  0  0  0
 21 20  1  0  0  0  0
 22 20  1  0  0  0  0
M  END
