1,2,3
q = -1.0

 23 23  0  0  1  0  0  0  0  0999 V2000
    1.6983    0.4052    1.4347 S   0  0  0  0  0  1  0  0  0  0  0  0
    1.2913    0.7053   -1.7255 S   0  0  0  0  0  1  0  0  0  0  0  0
    2.6622    0.2573   -0.3412 P   0  0  0  0  0  4  0  0  0  0  0  0
    3.2472   -1.2572   -0.6051 O   0  0  0  0  0  0  0  0  0  0  0  0
    4.0048    1.1862   -0.4826 O   0  0  0  0  0  0  0  0  0  0  0  0
    4.4112   -1.6339    0.1806 C   0  0  1  0  0  0  0  0  0  0  0  0
    4.1429   -1.5308    1.2584 H   0  0  0  0  0  0  0  0  0  0  0  0
    4.6943   -3.0929   -0.1285 C   0  0  0  0  0  0  0  0  0  0  0  0
    5.5432   -3.4600    0.4815 H   0  0  0  0  0  0  0  0  0  0  0  0
    3.8029   -3.7091    0.0966 H   0  0  0  0  0  0  0  0  0  0  0  0
    4.9453   -3.2203   -1.2006 H   0  0  0  0  0  0  0  0  0  0  0  0
    5.5664   -0.6957   -0.1766 C   0  0  0  0  0  0  0  0  0  0  0  0
    6.4776   -1.0016    0.3775 H   0  0  0  0  0  0  0  0  0  0  0  0
    5.7805   -0.8190   -1.2592 H   0  0  0  0  0  0  0  0  0  0  0  0
    5.2948    0.7950    0.1150 C   0  0  0  0  0  0  0  0  0  0  0  0
    5.2511    1.1031    1.6157 C   0  0  0  0  0  0  0  0  0  0  0  0
    4.5164    0.4705    2.1512 H   0  0  0  0  0  0  0  0  0  0  0  0
    6.2489    0.9394    2.0696 H   0  0  0  0  0  0  0  0  0  0  0  0
    4.9596    2.1592    1.7730 H   0  0  0  0  0  0  0  0  0  0  0  0
    6.3187    1.6776   -0.5943 C   0  0  0  0  0  0  0  0  0  0  0  0
    6.0963    2.7462   -0.4083 H   0  0  0  0  0  0  0  0  0  0  0  0
    7.3395    1.4578   -0.2237 H   0  0  0  0  0  0  0  0  0  0  0  0
    6.2895    1.4992   -1.6867 H   0  0  0  0  0  0  0  0  0  0  0  0
  2  3  1  0  0  0  0
  3  1  1  0  0  0  0
  4  3  1  0  0  0  0
  4  6  1  0  0  0  0
  5  3  1  0  0  0  0
  5 15  1  0  0  0  0
  6  7  1  1  0  0  0
  8 10  1  0  0  0  0
  8  6  1  0  0  0  0
  8  9  1  0  0  0  0
 11  8  1  0  0  0  0
 12 15  1  0  0  0  0
 12  6  1  0  0  0  0
 12 13  1  0  0  0  0
 14 12  1  0  0  0  0
 15 16  1  0  0  0  0
 16 19  1  0  0  0  0
 16 18  1  0  0  0  0
 16 17  1  0  0  0  0
 20 21  1  0  0  0  0
 20 22  1  0  0  0  0
 20 15  1  0  0  0  0
 23 20  1  0  0  0  0
M  END
