1,2,3
q = -1.0, confidence = 0.0

 20 20  0  0  0  0  0  0  0  0999 V2000
   -1.6498   -1.2966   -0.8596 S   0  0  0  0  0  1  0  0  0  0  0  0
   -1.2685    1.8589   -0.3158 S   0  0  0  0  0  1  0  0  0  0  0  0
   -2.6243    0.3977   -0.3392 P   0  0  0  0  0  4  0  0  0  0  0  0
   -3.9042    0.7468   -1.3148 O   0  0  0  0  0  0  0  0  0  0  0  0
   -3.3555    0.2684    1.1318 O   0  0  0  0  0  0  0  0  0  0  0  0
   -5.0400   -0.1408   -1.2057 C   0  0  0  0  0  0  0  0  0  0  0  0
   -5.7940    0.2482   -1.9189 H   0  0  0  0  0  0  0  0  0  0  0  0
   -4.7424   -1.1611   -1.5410 H   0  0  0  0  0  0  0  0  0  0  0  0
   -5.6112   -0.1898    0.2265 C   0  0  0  0  0  0  0  0  0  0  0  0
   -4.4815   -0.6326    1.1799 C   0  0  0  0  0  0  0  0  0  0  0  0
   -4.1371   -1.6632    0.9309 H   0  0  0  0  0  0  0  0  0  0  0  0
   -4.8278   -0.6271    2.2328 H   0  0  0  0  0  0  0  0  0  0  0  0
   -6.7331   -1.2349    0.2714 C   0  0  0  0  0  0  0  0  0  0  0  0
   -7.1627   -1.3068    1.2913 H   0  0  0  0  0  0  0  0  0  0  0  0
   -7.5568   -0.9599   -0.4186 H   0  0  0  0  0  0  0  0  0  0  0  0
   -6.3688   -2.2427   -0.0166 H   0  0  0  0  0  0  0  0  0  0  0  0
   -6.1316    1.1972    0.6345 C   0  0  0  0  0  0  0  0  0  0  0  0
   -5.3214    1.9500    0.6020 H   0  0  0  0  0  0  0  0  0  0  0  0
   -6.9403    1.5297   -0.0475 H   0  0  0  0  0  0  0  0  0  0  0  0
   -6.5395    1.1754    1.6654 H   0  0  0  0  0  0  0  0  0  0  0  0
  1  3  1  0  0  0  0
  3  2  1  0  0  0  0
  3  5  1  0  0  0  0
  4  6  1  0  0  0  0
  4  3  1  0  0  0  0
  5 10  1  0  0  0  0
  6  9  1  0  0  0  0
  7  6  1  0  0  0  0
  8  6  1  0  0  0  0
  9 13  1  0  0  0  0
  9 17  1  0  0  0  0
  9 10  1  0  0  0  0
 10 12  1  0  0  0  0
 11 10  1  0  0  0  0
 13 14  1  0  0  0  0
 15 13  1  0  0  0  0
 16 13  1  0  0  0  0
 17 20  1  0  0  0  0
 18 17  1  0  0  0  0
 19 17  1  0  0  0  0
M  END
