1,2,3
q = -1.0, confidence = 0.0

 40 44  0  0  1  0  0  0  0  0999 V2000
   -2.0841    1.1407   -1.3367 S   0  0  0  0  0  1  0  0  0  0  0  0
   -2.0605    0.7328    1.5235 S   0  0  0  0  0  1  0  0  0  0  0  0
    0.6622   -0.2597   -0.0550 P   0  0  0  0  0  0  0  0  0  0  0  0
   -3.5844   -0.7603   -0.1468 N   0  0  0  0  0  0  0  0  0  0  0  0
   -2.7247    0.3291    0.0060 C   0  0  0  0  0  3  0  0  0  0  0  0
   -4.6358   -1.4747    0.2419 C   0  0  0  0  0  2  0  0  0  0  0  0
   -3.4641   -2.1714   -0.4163 C   0  0  1  0  0  0  0  0  0  0  0  0
   -0.4852   -1.5568   -0.6647 C   0  0  2  0  0  3  0  0  0  0  0  0
   -0.9323   -1.5409   -2.0557 C   0  0  0  0  0  0  0  0  0  0  0  0
   -1.9938   -2.2838   -2.4841 C   0  0  0  0  0  0  0  0  0  0  0  0
   -2.9079   -2.9507   -1.5373 C   0  0  1  0  0  0  0  0  0  0  0  0
   -2.3426   -3.0818   -0.0364 C   0  0  1  0  0  0  0  0  0  0  0  0
   -1.0746   -2.4050    0.2437 C   0  0  0  0  0  3  0  0  0  0  0  0
    2.1293   -0.3102   -1.1680 C   0  0  0  0  0  0  0  0  0  0  0  0
    2.3514   -1.3637   -2.0788 C   0  0  0  0  0  0  0  0  0  0  0  0
    3.5187   -1.3894   -2.8584 C   0  0  0  0  0  0  0  0  0  0  0  0
    4.4789   -0.3753   -2.7254 C   0  0  0  0  0  0  0  0  0  0  0  0
    4.2725    0.6646   -1.8045 C   0  0  0  0  0  0  0  0  0  0  0  0
    3.1044    0.7000   -1.0317 C   0  0  0  0  0  0  0  0  0  0  0  0
    1.3631   -1.0084    1.4876 C   0  0  0  0  0  0  0  0  0  0  0  0
    2.3786   -1.9845    1.3952 C   0  0  0  0  0  0  0  0  0  0  0  0
    2.8910   -2.5853    2.5532 C   0  0  0  0  0  0  0  0  0  0  0  0
    2.4007   -2.2175    3.8167 C   0  0  0  0  0  0  0  0  0  0  0  0
    1.3943   -1.2459    3.9161 C   0  0  0  0  0  0  0  0  0  0  0  0
    0.8794   -0.6425    2.7587 C   0  0  0  0  0  0  0  0  0  0  0  0
   -0.3365   -0.9794   -2.7907 H   0  0  0  0  0  0  0  0  0  0  0  0
   -2.2062   -2.3777   -3.5599 H   0  0  0  0  0  0  0  0  0  0  0  0
   -3.5149   -3.7939   -1.9092 H   0  0  0  0  0  0  0  0  0  0  0  0
   -2.5997   -3.9893    0.5357 H   0  0  0  0  0  0  0  0  0  0  0  0
   -0.6378   -2.5361    1.2459 H   0  0  0  0  0  0  0  0  0  0  0  0
    1.6161   -2.1762   -2.1725 H   0  0  0  0  0  0  0  0  0  0  0  0
    3.6787   -2.2131   -3.5705 H   0  0  0  0  0  0  0  0  0  0  0  0
    5.3929   -0.3966   -3.3379 H   0  0  0  0  0  0  0  0  0  0  0  0
    5.0249    1.4590   -1.6885 H   0  0  0  0  0  0  0  0  0  0  0  0
    2.9565    1.5156   -0.3083 H   0  0  0  0  0  0  0  0  0  0  0  0
    2.7759   -2.2732    0.4111 H   0  0  0  0  0  0  0  0  0  0  0  0
    3.6839   -3.3436    2.4666 H   0  0  0  0  0  0  0  0  0  0  0  0
    2.8078   -2.6865    4.7254 H   0  0  0  0  0  0  0  0  0  0  0  0
    1.0062   -0.9473    4.9014 H   0  0  0  0  0  0  0  0  0  0  0  0
    0.0866    0.1120    2.8470 H   0  0  0  0  0  0  0  0  0  0  0  0
  1  5  1  0  0  0  0
  3 20  1  0  0  0  0
  4  5  1  0  0  0  0
  4  6  1  0  0  0  0
  5  2  1  0  0  0  0
  7  4  1  0  0  0  0
  7 12  1  0  0  0  0
  7  6  1  1  0  0  0
  8  3  1  1  0  0  0
  8 13  1  0  0  0  0
  9  8  1  0  0  0  0
 10  9  2  0  0  0  0
 10 11  1  0  0  0  0
 11 28  1  6  0  0  0
 11  7  1  0  0  0  0
 11 12  1  0  0  0  0
 12 13  1  0  0  0  0
 12 29  1  1  0  0  0
 13 30  1  0  0  0  0
 14 19  1  0  0  0  0
 14  3  1  0  0  0  0
 15 14  2  0  0  0  0
 16 17  2  0  0  0  0
 16 15  1  0  0  0  0
 17 18  1  0  0  0  0
 18 34  1  0  0  0  0
 18 19  2  0  0  0  0
 19 35  1  0  0  0  0
 20 25  1  0  0  0  0
 21 20  2  0  0  0  0
 21 22  1  0  0  0  0
 22 23  2  0  0  0  0
 23 24  1  0  0  0  0
 23 38  1  0  0  0  0
 24 39  1  0  0  0  0
 25 40  1  0  0  0  0
 25 24  2  0  0  0  0
 26  9  1  0  0  0  0
 27 10  1  0  0  0  0
 31 15  1  0  0  0  0
 32 16  1  0  0  0  0
 33 17  1  0  0  0  0
 36 21  1  0  0  0  0
 37 22  1  0  0  0  0
M  END
