1,2,3
q = -1.0, confidence = 0.002

 29 28  0  0  0  0  0  0  0  0999 V2000
   -1.7061   -0.0743   -1.4701 S   0  0  0  0  0  1  0  0  0  0  0  0
   -1.7728   -0.8351    1.6551 S   0  0  0  0  0  1  0  0  0  0  0  0
   -2.5615   -1.3809   -0.1500 P   0  0  0  0  0  4  0  0  0  0  0  0
   -2.1460   -3.1393   -0.5246 C   0  0  0  0  0  0  0  0  0  0  0  0
   -2.5358   -3.6941    0.3559 H   0  0  0  0  0  0  0  0  0  0  0  0
   -2.7530   -3.4454   -1.4050 H   0  0  0  0  0  0  0  0  0  0  0  0
   -0.6403   -3.4012   -0.7385 C   0  0  0  0  0  0  0  0  0  0  0  0
   -0.0918   -2.5638   -0.2353 H   0  0  0  0  0  0  0  0  0  0  0  0
   -0.2764   -3.3666   -2.2256 C   0  0  0  0  0  0  0  0  0  0  0  0
   -0.5958   -2.4093   -2.6832 H   0  0  0  0  0  0  0  0  0  0  0  0
   -0.7638   -4.2017   -2.7741 H   0  0  0  0  0  0  0  0  0  0  0  0
    0.8193   -3.4582   -2.3660 H   0  0  0  0  0  0  0  0  0  0  0  0
   -0.2053   -4.7049   -0.0623 C   0  0  0  0  0  0  0  0  0  0  0  0
   -0.3932   -4.6686    1.0303 H   0  0  0  0  0  0  0  0  0  0  0  0
    0.8796   -4.8793   -0.2110 H   0  0  0  0  0  0  0  0  0  0  0  0
   -0.7476   -5.5812   -0.4785 H   0  0  0  0  0  0  0  0  0  0  0  0
   -4.4103   -1.3538   -0.1540 C   0  0  0  0  0  0  0  0  0  0  0  0
   -4.7110   -1.3329   -1.2257 H   0  0  0  0  0  0  0  0  0  0  0  0
   -4.7238   -2.3387    0.2567 H   0  0  0  0  0  0  0  0  0  0  0  0
   -5.0652   -0.2100    0.6401 C   0  0  0  0  0  0  0  0  0  0  0  0
   -4.6213   -0.2364    1.6611 H   0  0  0  0  0  0  0  0  0  0  0  0
   -4.7698    1.1687    0.0399 C   0  0  0  0  0  0  0  0  0  0  0  0
   -5.2478    1.9659    0.6452 H   0  0  0  0  0  0  0  0  0  0  0  0
   -5.1680    1.2452   -0.9947 H   0  0  0  0  0  0  0  0  0  0  0  0
   -3.6830    1.3758   -0.0063 H   0  0  0  0  0  0  0  0  0  0  0  0
   -6.5739   -0.4601    0.7649 C   0  0  0  0  0  0  0  0  0  0  0  0
   -6.7926   -1.4363    1.2447 H   0  0  0  0  0  0  0  0  0  0  0  0
   -7.0618   -0.4573   -0.2332 H   0  0  0  0  0  0  0  0  0  0  0  0
   -7.0556    0.3323    1.3733 H   0  0  0  0  0  0  0  0  0  0  0  0
  1  3  1  0  0  0  0
  3  2  1  0  0  0  0
  4  3  1  0  0  0  0
  4  5  1  0  0  0  0
  6  4  1  0  0  0  0
  7  4  1  0  0  0  0
  7  8  1  0  0  0  0
  7 13  1  0  0  0  0
  9  7  1  0  0  0  0
 10  9  1  0  0  0  0
 11  9  1  0  0  0  0
 12  9  1  0  0  0  0
 13 14  1  0  0  0  0
 15 13  1  0  0  0  0
 16 13  1  0  0  0  0
 17  3  1  0  0  0  0
 17 19  1  0  0  0  0
 17 20  1  0  0  0  0
 18 17  1  0  0  0  0
 20 26  1  0  0  0  0
 20 21  1  0  0  0  0
 22 20  1  0  0  0  0
 22 23  1  0  0  0  0
 24 22  1  0  0  0  0
 25 22  1  0  0  0  0
 26 27  1  0  0  0  0
 26 29  1  0  0  0  0
 28 26  1  0  0  0  0
M  END
