1,2,3
q = 0.0, confidence = 0.994

 67 70  0  0  0  0  0  0  0  0999 V2000
    2.0448   -1.0924    0.3438 S   0  0  0  0  0  0  0  0  0  0  0  0
    0.2505    1.7248    1.0780 S   0  0  0  0  0  0  0  0  0  0  0  0
   -1.2131   -0.9678   -0.4923 P   0  0  0  0  0  0  0  0  0  0  0  0
   -0.6079    0.2638   -1.7753 C   0  0  0  0  0  0  0  0  0  0  0  0
   -0.7490   -0.1962   -2.7750 H   0  0  0  0  0  0  0  0  0  0  0  0
   -1.2685    1.1526   -1.7371 H   0  0  0  0  0  0  0  0  0  0  0  0
    1.8587   -0.3956   -1.3535 C   0  0  0  0  0  0  0  0  0  0  0  0
    2.8816   -0.0871   -1.6519 H   0  0  0  0  0  0  0  0  0  0  0  0
    1.5953   -1.2765   -1.9733 H   0  0  0  0  0  0  0  0  0  0  0  0
    0.9660    1.9074   -0.6116 C   0  0  0  0  0  0  0  0  0  0  0  0
    0.4981    2.8225   -1.0297 H   0  0  0  0  0  0  0  0  0  0  0  0
    2.0332    2.1522   -0.4427 H   0  0  0  0  0  0  0  0  0  0  0  0
    0.8556    0.7523   -1.6308 C   0  0  0  0  0  0  0  0  0  0  0  0
    1.2722    1.3531   -2.9948 C   0  0  0  0  0  0  0  0  0  0  0  0
    0.5458    2.1251   -3.3213 H   0  0  0  0  0  0  0  0  0  0  0  0
    1.3111    0.5662   -3.7755 H   0  0  0  0  0  0  0  0  0  0  0  0
    2.2746    1.8246   -2.9343 H   0  0  0  0  0  0  0  0  0  0  0  0
    3.3733   -0.0025    1.0735 C   0  0  0  0  0  0  0  0  0  0  0  0
    2.9328    0.9728    1.3558 H   0  0  0  0  0  0  0  0  0  0  0  0
    3.6044   -0.5416    2.0142 H   0  0  0  0  0  0  0  0  0  0  0  0
    4.5718    0.1474    0.1838 C   0  0  0  0  0  0  0  0  0  0  0  0
    5.3293   -0.9793   -0.2036 C   0  0  0  0  0  0  0  0  0  0  0  0
    5.0407   -1.9744    0.1693 H   0  0  0  0  0  0  0  0  0  0  0  0
    6.4264   -0.8394   -1.0634 C   0  0  0  0  0  0  0  0  0  0  0  0
    7.0092   -1.7268   -1.3540 H   0  0  0  0  0  0  0  0  0  0  0  0
    6.7854    0.4284   -1.5531 C   0  0  0  0  0  0  0  0  0  0  0  0
    7.6476    0.5360   -2.2285 H   0  0  0  0  0  0  0  0  0  0  0  0
    6.0414    1.5557   -1.1744 C   0  0  0  0  0  0  0  0  0  0  0  0
    6.3186    2.5529   -1.5486 H   0  0  0  0  0  0  0  0  0  0  0  0
    4.9410    1.4138   -0.3140 C   0  0  0  0  0  0  0  0  0  0  0  0
    4.3651    2.3025   -0.0089 H   0  0  0  0  0  0  0  0  0  0  0  0
   -1.4621    2.4373    0.8827 C   0  0  0  0  0  0  0  0  0  0  0  0
   -2.1229    1.6775    0.4245 H   0  0  0  0  0  0  0  0  0  0  0  0
   -1.7749    2.5436    1.9409 H   0  0  0  0  0  0  0  0  0  0  0  0
   -1.4947    3.7391    0.1385 C   0  0  0  0  0  0  0  0  0  0  0  0
   -0.7630    4.8577    0.5931 C   0  0  0  0  0  0  0  0  0  0  0  0
   -0.1695    4.7716    1.5166 H   0  0  0  0  0  0  0  0  0  0  0  0
   -2.2399    3.8561   -1.0528 C   0  0  0  0  0  0  0  0  0  0  0  0
   -2.8296    2.9940   -1.4034 H   0  0  0  0  0  0  0  0  0  0  0  0
   -1.0261   -2.5611   -1.4343 C   0  0  0  0  0  0  0  0  0  0  0  0
   -1.8140   -2.8261   -2.5747 C   0  0  0  0  0  0  0  0  0  0  0  0
   -2.5836   -2.1048   -2.8916 H   0  0  0  0  0  0  0  0  0  0  0  0
   -1.6382   -4.0142   -3.2974 C   0  0  0  0  0  0  0  0  0  0  0  0
   -2.2623   -4.2130   -4.1822 H   0  0  0  0  0  0  0  0  0  0  0  0
   -0.6759   -4.9531   -2.8878 C   0  0  0  0  0  0  0  0  0  0  0  0
   -0.5419   -5.8879   -3.4532 H   0  0  0  0  0  0  0  0  0  0  0  0
    0.1038   -4.6998   -1.7498 C   0  0  0  0  0  0  0  0  0  0  0  0
    0.8508   -5.4351   -1.4144 H   0  0  0  0  0  0  0  0  0  0  0  0
   -0.0728   -3.5114   -1.0223 C   0  0  0  0  0  0  0  0  0  0  0  0
    0.5275   -3.3205   -0.1206 H   0  0  0  0  0  0  0  0  0  0  0  0
   -3.0478   -0.7424   -0.5498 C   0  0  0  0  0  0  0  0  0  0  0  0
   -3.7302    0.0449   -1.5006 C   0  0  0  0  0  0  0  0  0  0  0  0
   -3.1797    0.5641   -2.2991 H   0  0  0  0  0  0  0  0  0  0  0  0
   -5.1287    0.1702   -1.4474 C   0  0  0  0  0  0  0  0  0  0  0  0
   -5.6487    0.7928   -2.1917 H   0  0  0  0  0  0  0  0  0  0  0  0
   -5.8590   -0.4976   -0.4534 C   0  0  0  0  0  0  0  0  0  0  0  0
   -6.9539   -0.3950   -0.4101 H   0  0  0  0  0  0  0  0  0  0  0  0
   -5.1869   -1.2956    0.4874 C   0  0  0  0  0  0  0  0  0  0  0  0
   -5.7518   -1.8206    1.2723 H   0  0  0  0  0  0  0  0  0  0  0  0
   -3.7918   -1.4141    0.4435 C   0  0  0  0  0  0  0  0  0  0  0  0
   -3.2621   -2.0226    1.1926 H   0  0  0  0  0  0  0  0  0  0  0  0
   -2.2574    5.0609   -1.7737 C   0  0  0  0  0  0  0  0  0  0  0  0
   -2.8499    5.1370   -2.6982 H   0  0  0  0  0  0  0  0  0  0  0  0
   -1.5236    6.1646   -1.3141 C   0  0  0  0  0  0  0  0  0  0  0  0
   -1.5339    7.1095   -1.8782 H   0  0  0  0  0  0  0  0  0  0  0  0
   -0.7779    6.0593   -0.1270 C   0  0  0  0  0  0  0  0  0  0  0  0
   -0.2050    6.9241    0.2411 H   0  0  0  0  0  0  0  0  0  0  0  0
  1 18  1  0  0  0  0
  4  6  1  0  0  0  0
  4 13  1  0  0  0  0
  4  3  1  0  0  0  0
  5  4  1  0  0  0  0
  7  1  1  0  0  0  0
  8  7  1  0  0  0  0
  9  7  1  0  0  0  0
 10 12  1  0  0  0  0
 10  2  1  0  0  0  0
 11 10  1  0  0  0  0
 13  7  1  0  0  0  0
 13 10  1  0  0  0  0
 14 17  1  0  0  0  0
 14 13  1  0  0  0  0
 15 14  1  0  0  0  0
 16 14  1  0  0  0  0
 18 19  1  0  0  0  0
 18 20  1  0  0  0  0
 21 18  1  0  0  0  0
 22 23  1  0  0  0  0
 22 21  1  0  0  0  0
 24 22  2  0  0  0  0
 25 24  1  0  0  0  0
 26 28  2  0  0  0  0
 26 24  1  0  0  0  0
 27 26  1  0  0  0  0
 28 30  1  0  0  0  0
 29 28  1  0  0  0  0
 30 31  1  0  0  0  0
 30 21  2  0  0  0  0
 32  2  1  0  0  0  0
 32 34  1  0  0  0  0
 33 32  1  0  0  0  0
 35 36  1  0  0  0  0
 35 32  1  0  0  0  0
 36 37  1  0  0  0  0
 38 35  2  0  0  0  0
 39 38  1  0  0  0  0
 40 49  1  0  0  0  0
 40  3  1  0  0  0  0
 41 40  2  0  0  0  0
 42 41  1  0  0  0  0
 43 45  2  0  0  0  0
 43 41  1  0  0  0  0
 44 43  1  0  0  0  0
 45 47  1  0  0  0  0
 46 45  1  0  0  0  0
 47 48  1  0  0  0  0
 47 49  2  0  0  0  0
 49 50  1  0  0  0  0
 51  3  1  0  0  0  0
 51 60  1  0  0  0  0
 52 54  1  0  0  0  0
 52 51  2  0  0  0  0
 53 52  1  0  0  0  0
 54 56  2  0  0  0  0
 55 54  1  0  0  0  0
 56 57  1  0  0  0  0
 56 58  1  0  0  0  0
 58 59  1  0  0  0  0
 60 58  2  0  0  0  0
 60 61  1  0  0  0  0
 62 64  2  0  0  0  0
 62 38  1  0  0  0  0
 63 62  1  0  0  0  0
 64 66  1  0  0  0  0
 65 64  1  0  0  0  0
 66 67  1  0  0  0  0
 66 36  2  0  0  0  0
M  END
