1,2,3
q = 0.0, confidence = 0.998

 62 65  0  0  1  0  0  0  0  0999 V2000
   -1.2154    1.0503    0.5572 S   0  0  0  0  0  0  0  0  0  0  0  0
   -0.5027   -1.8779   -0.8970 S   0  0  0  0  0  0  0  0  0  0  0  0
    1.9356    0.3397   -0.4333 P   0  0  0  0  0  0  0  0  0  0  0  0
    1.1831    0.4505   -2.1477 C   0  0  0  0  0  0  0  0  0  0  0  0
    1.7316    1.2169   -2.7316 H   0  0  0  0  0  0  0  0  0  0  0  0
    1.4247   -0.5169   -2.6337 H   0  0  0  0  0  0  0  0  0  0  0  0
   -0.8475    1.7260   -1.1700 C   0  0  0  0  0  0  0  0  0  0  0  0
   -1.8022    2.1844   -1.4953 H   0  0  0  0  0  0  0  0  0  0  0  0
   -0.1066    2.5345   -1.0148 H   0  0  0  0  0  0  0  0  0  0  0  0
   -1.1327   -0.6341   -2.1331 C   0  0  0  0  0  0  0  0  0  0  0  0
   -1.0975   -1.1563   -3.1101 H   0  0  0  0  0  0  0  0  0  0  0  0
   -2.1960   -0.4412   -1.8903 H   0  0  0  0  0  0  0  0  0  0  0  0
   -0.3489    0.6979   -2.2184 C   0  0  2  0  0  0  0  0  0  0  0  0
   -0.6680    1.3015   -3.6066 C   0  0  0  0  0  0  0  0  0  0  0  0
   -0.2255    2.3140   -3.7011 H   0  0  0  0  0  0  0  0  0  0  0  0
   -1.7628    1.3938   -3.7596 H   0  0  0  0  0  0  0  0  0  0  0  0
   -0.2550    0.6687   -4.4186 H   0  0  0  0  0  0  0  0  0  0  0  0
    2.5374    2.0519   -0.0737 C   0  0  0  0  0  0  0  0  0  0  0  0
    3.0738    2.2792    1.2126 C   0  0  0  0  0  0  0  0  0  0  0  0
    3.1059    1.4588    1.9430 H   0  0  0  0  0  0  0  0  0  0  0  0
    3.5621    3.5436    1.5686 C   0  0  0  0  0  0  0  0  0  0  0  0
    3.9757    3.6997    2.5763 H   0  0  0  0  0  0  0  0  0  0  0  0
    3.5094    4.6062    0.6519 C   0  0  0  0  0  0  0  0  0  0  0  0
    3.8808    5.6023    0.9362 H   0  0  0  0  0  0  0  0  0  0  0  0
    2.9779    4.3914   -0.6280 C   0  0  0  0  0  0  0  0  0  0  0  0
    2.9341    5.2167   -1.3550 H   0  0  0  0  0  0  0  0  0  0  0  0
    2.5019    3.1209   -0.9918 C   0  0  0  0  0  0  0  0  0  0  0  0
    2.1049    2.9779   -2.0074 H   0  0  0  0  0  0  0  0  0  0  0  0
    3.4988   -0.5580   -0.8476 C   0  0  0  0  0  0  0  0  0  0  0  0
    3.4007   -1.9325   -1.1532 C   0  0  0  0  0  0  0  0  0  0  0  0
    2.4193   -2.4317   -1.1258 H   0  0  0  0  0  0  0  0  0  0  0  0
    4.5482   -2.6665   -1.4809 C   0  0  0  0  0  0  0  0  0  0  0  0
    4.4602   -3.7386   -1.7130 H   0  0  0  0  0  0  0  0  0  0  0  0
    5.8061   -2.0413   -1.4937 C   0  0  0  0  0  0  0  0  0  0  0  0
    6.7084   -2.6214   -1.7397 H   0  0  0  0  0  0  0  0  0  0  0  0
    5.9087   -0.6768   -1.1848 C   0  0  0  0  0  0  0  0  0  0  0  0
    6.8916   -0.1813   -1.1913 H   0  0  0  0  0  0  0  0  0  0  0  0
    4.7606    0.0663   -0.8658 C   0  0  0  0  0  0  0  0  0  0  0  0
    4.8496    1.1363   -0.6277 H   0  0  0  0  0  0  0  0  0  0  0  0
   -2.6831    1.4341    1.1532 C   0  0  0  0  0  2  0  0  0  0  0  0
   -3.6863    2.1739    0.4249 C   0  0  0  0  0  0  0  0  0  0  0  0
   -4.2203    3.3718    0.9780 C   0  0  0  0  0  0  0  0  0  0  0  0
   -3.8244    3.7287    1.9399 H   0  0  0  0  0  0  0  0  0  0  0  0
   -5.2172    4.0867    0.3071 C   0  0  0  0  0  0  0  0  0  0  0  0
   -5.5963    5.0234    0.7440 H   0  0  0  0  0  0  0  0  0  0  0  0
   -5.7563    3.6069   -0.9003 C   0  0  0  0  0  0  0  0  0  0  0  0
   -6.5582    4.1613   -1.4102 H   0  0  0  0  0  0  0  0  0  0  0  0
   -5.2747    2.4017   -1.4375 C   0  0  0  0  0  0  0  0  0  0  0  0
   -5.7040    2.0023   -2.3696 H   0  0  0  0  0  0  0  0  0  0  0  0
   -4.2435    1.7018   -0.8001 C   0  0  0  0  0  0  0  0  0  0  0  0
   -3.8882    0.7480   -1.2197 H   0  0  0  0  0  0  0  0  0  0  0  0
   -2.0384   -2.7886   -0.6344 C   0  0  0  0  0  0  0  0  0  0  0  0
   -3.1060   -2.2295    0.0916 C   0  0  0  0  0  0  0  0  0  0  0  0
   -3.0172   -1.2233    0.5278 H   0  0  0  0  0  0  0  0  0  0  0  0
   -4.2742   -2.9806    0.2793 C   0  0  0  0  0  0  0  0  0  0  0  0
   -5.1072   -2.5463    0.8521 H   0  0  0  0  0  0  0  0  0  0  0  0
   -4.3718   -4.2831   -0.2390 C   0  0  0  0  0  0  0  0  0  0  0  0
   -5.2878   -4.8713   -0.0782 H   0  0  0  0  0  0  0  0  0  0  0  0
   -3.2984   -4.8377   -0.9523 C   0  0  0  0  0  0  0  0  0  0  0  0
   -3.3686   -5.8601   -1.3535 H   0  0  0  0  0  0  0  0  0  0  0  0
   -2.1273   -4.0901   -1.1566 C   0  0  0  0  0  0  0  0  0  0  0  0
   -1.2782   -4.5110   -1.7154 H   0  0  0  0  0  0  0  0  0  0  0  0
  1 40  1  0  0  0  0
  2 52  1  0  0  0  0
  3 18  1  0  0  0  0
  4  3  1  0  0  0  0
  5  4  1  0  0  0  0
  6  4  1  0  0  0  0
  7  9  1  0  0  0  0
  7  1  1  0  0  0  0
  8  7  1  0  0  0  0
 10 12  1  0  0  0  0
 10  2  1  0  0  0  0
 11 10  1  0  0  0  0
 13 14  1  6  0  0  0
 13  4  1  0  0  0  0
 13 10  1  0  0  0  0
 13  7  1  0  0  0  0
 15 14  1  0  0  0  0
 16 14  1  0  0  0  0
 17 14  1  0  0  0  0
 18 19  1  0  0  0  0
 19 21  2  0  0  0  0
 19 20  1  0  0  0  0
 21 22  1  0  0  0  0
 23 24  1  0  0  0  0
 23 21  1  0  0  0  0
 25 23  2  0  0  0  0
 26 25  1  0  0  0  0
 27 25  1  0  0  0  0
 27 18  2  0  0  0  0
 28 27  1  0  0  0  0
 29  3  1  0  0  0  0
 30 31  1  0  0  0  0
 30 29  2  0  0  0  0
 32 30  1  0  0  0  0
 33 32  1  0  0  0  0
 34 32  2  0  0  0  0
 34 36  1  0  0  0  0
 35 34  1  0  0  0  0
 36 38  2  0  0  0  0
 37 36  1  0  0  0  0
 38 29  1  0  0  0  0
 38 39  1  0  0  0  0
 41 42  1  0  0  0  0
 41 40  1  0  0  0  0
 42 43  1  0  0  0  0
 44 45  1  0  0  0  0
 44 42  2  0  0  0  0
 46 44  1  0  0  0  0
 47 46  1  0  0  0  0
 48 46  2  0  0  0  0
 48 50  1  0  0  0  0
 49 48  1  0  0  0  0
 50 41  2  0  0  0  0
 51 50  1  0  0  0  0
 52 53  1  0  0  0  0
 53 55  2  0  0  0  0
 53 54  1  0  0  0  0
 55 56  1  0  0  0  0
 57 58  1  0  0  0  0
 57 55  1  0  0  0  0
 59 57  2  0  0  0  0
 60 59  1  0  0  0  0
 61 59  1  0  0  0  0
 61 52  2  0  0  0  0
 62 61  1  0  0  0  0
M  END
