1,3,4
q = -1.0

 34 36  0  0  0  0  0  0  0  0999 V2000
   -2.1241    0.2763   -0.0041 P   0  0  0  0  0  0  0  0  0  0  0  0
   -0.1685    0.7944    1.9519 S   0  0  0  0  0  1  0  0  0  0  0  0
   -1.0922   -1.8546   -2.0920 S   0  0  0  0  0  1  0  0  0  0  0  0
   -1.5253   -2.5393    1.0236 S   0  0  0  0  0  1  0  0  0  0  0  0
   -0.9405    2.2477    1.2865 C   0  0  0  0  0  0  0  0  0  0  0  0
   -0.6683    3.5550    1.7358 C   0  0  0  0  0  0  0  0  0  0  0  0
    0.0950    3.7127    2.5122 H   0  0  0  0  0  0  0  0  0  0  0  0
   -1.3385    4.6425    1.1547 C   0  0  0  0  0  0  0  0  0  0  0  0
   -1.1009    5.6638    1.4923 H   0  0  0  0  0  0  0  0  0  0  0  0
   -2.2728    4.4501    0.1213 C   0  0  0  0  0  0  0  0  0  0  0  0
   -2.7669    5.3149   -0.3472 H   0  0  0  0  0  0  0  0  0  0  0  0
   -2.5670    3.1474   -0.3219 C   0  0  0  0  0  0  0  0  0  0  0  0
   -3.2850    2.9802   -1.1387 H   0  0  0  0  0  0  0  0  0  0  0  0
   -1.9193    2.0609    0.2774 C   0  0  0  0  0  0  0  0  0  0  0  0
   -3.1440   -0.0626   -1.4656 C   0  0  0  0  0  0  0  0  0  0  0  0
   -4.4091    0.5171   -1.6809 C   0  0  0  0  0  0  0  0  0  0  0  0
   -4.8101    1.2362   -0.9496 H   0  0  0  0  0  0  0  0  0  0  0  0
   -5.1695    0.1626   -2.8029 C   0  0  0  0  0  0  0  0  0  0  0  0
   -6.1571    0.6174   -2.9717 H   0  0  0  0  0  0  0  0  0  0  0  0
   -4.6555   -0.7942   -3.7026 C   0  0  0  0  0  0  0  0  0  0  0  0
   -5.2428   -1.0829   -4.5892 H   0  0  0  0  0  0  0  0  0  0  0  0
   -3.4144   -1.3952   -3.4807 C   0  0  0  0  0  0  0  0  0  0  0  0
   -3.0278   -2.1520   -4.1806 H   0  0  0  0  0  0  0  0  0  0  0  0
   -2.6306   -1.0513   -2.3463 C   0  0  0  0  0  0  0  0  0  0  0  0
   -3.1190   -0.3068    1.4210 C   0  0  0  0  0  0  0  0  0  0  0  0
   -4.1459    0.4232    2.0335 C   0  0  0  0  0  0  0  0  0  0  0  0
   -4.3532    1.4536    1.7023 H   0  0  0  0  0  0  0  0  0  0  0  0
   -4.8874   -0.1543    3.0789 C   0  0  0  0  0  0  0  0  0  0  0  0
   -5.6900    0.4167    3.5702 H   0  0  0  0  0  0  0  0  0  0  0  0
   -4.5842   -1.4627    3.4965 C   0  0  0  0  0  0  0  0  0  0  0  0
   -5.1556   -1.9211    4.3198 H   0  0  0  0  0  0  0  0  0  0  0  0
   -3.5472   -2.1892    2.8937 C   0  0  0  0  0  0  0  0  0  0  0  0
   -3.2970   -3.2033    3.2410 H   0  0  0  0  0  0  0  0  0  0  0  0
   -2.7943   -1.6217    1.8401 C   0  0  0  0  0  0  0  0  0  0  0  0
  1 14  1  0  0  0  0
  1 25  1  0  0  0  0
  4 34  1  0  0  0  0
  5  6  1  0  0  0  0
  5  2  1  0  0  0  0
  6  7  1  0  0  0  0
  8  9  1  0  0  0  0
  8  6  2  0  0  0  0
 10  8  1  0  0  0  0
 11 10  1  0  0  0  0
 12 10  2  0  0  0  0
 12 14  1  0  0  0  0
 13 12  1  0  0  0  0
 14  5  2  0  0  0  0
 15  1  1  0  0  0  0
 16 15  1  0  0  0  0
 16 17  1  0  0  0  0
 18 16  2  0  0  0  0
 19 18  1  0  0  0  0
 20 22  2  0  0  0  0
 20 18  1  0  0  0  0
 21 20  1  0  0  0  0
 22 24  1  0  0  0  0
 23 22  1  0  0  0  0
 24  3  1  0  0  0  0
 24 15  2  0  0  0  0
 25 34  2  0  0  0  0
 25 26  1  0  0  0  0
 26 28  2  0  0  0  0
 27 26  1  0  0  0  0
 28 30  1  0  0  0  0
 28 29  1  0  0  0  0
 30 31  1  0  0  0  0
 32 33  1  0  0  0  0
 32 30  2  0  0  0  0
 34 32  1  0  0  0  0
M  END
