1,2,3
q = -1.0

 17 17  0  0  1  0  0  0  0  0999 V2000
    2.6791    0.0210   -0.3374 P   0  0  0  0  0  4  0  0  0  0  0  0
    1.4793    1.6097   -0.6161 S   0  0  0  0  0  1  0  0  0  0  0  0
    1.4831   -1.5725   -0.6105 S   0  0  0  0  0  1  0  0  0  0  0  0
    4.0708   -0.0654   -1.2354 O   0  0  0  0  0  0  0  0  0  0  0  0
    3.4492    0.1073    1.1311 O   0  0  0  0  0  0  0  0  0  0  0  0
    5.2401    0.1982   -0.4189 C   0  0  2  0  0  0  0  0  0  0  0  0
    6.0486   -0.4430   -0.8273 H   0  0  0  0  0  0  0  0  0  0  0  0
    4.8393   -0.2744    1.0025 C   0  0  2  0  0  0  0  0  0  0  0  0
    5.3861    0.3116    1.7699 H   0  0  0  0  0  0  0  0  0  0  0  0
    5.6143    1.6707   -0.4930 C   0  0  0  0  0  0  0  0  0  0  0  0
    5.7243    1.9869   -1.5478 H   0  0  0  0  0  0  0  0  0  0  0  0
    6.5722    1.8568    0.0331 H   0  0  0  0  0  0  0  0  0  0  0  0
    4.8271    2.2929   -0.0207 H   0  0  0  0  0  0  0  0  0  0  0  0
    5.0123   -1.7690    1.2305 C   0  0  0  0  0  0  0  0  0  0  0  0
    4.5650   -2.0617    2.1995 H   0  0  0  0  0  0  0  0  0  0  0  0
    6.0873   -2.0400    1.2402 H   0  0  0  0  0  0  0  0  0  0  0  0
    4.5095   -2.3476    0.4296 H   0  0  0  0  0  0  0  0  0  0  0  0
  1  5  1  0  0  0  0
  2  1  1  0  0  0  0
  3  1  1  0  0  0  0
  4  6  1  0  0  0  0
  4  1  1  0  0  0  0
  6  7  1  6  0  0  0
  6  8  1  0  0  0  0
  8  5  1  0  0  0  0
  8 14  1  0  0  0  0
  8  9  1  1  0  0  0
 10  6  1  0  0  0  0
 10 13  1  0  0  0  0
 10 12  1  0  0  0  0
 11 10  1  0  0  0  0
 14 16  1  0  0  0  0
 14 15  1  0  0  0  0
 17 14  1  0  0  0  0
M  END
