1,2,3
q = -1.0, confidence = 0.002

 32 33  0  0  0  0  0  0  0  0999 V2000
    2.5009    0.6669   -0.8359 P   0  0  0  0  0  4  0  0  0  0  0  0
    1.0054   -0.0271   -2.0338 S   0  0  0  0  0  1  0  0  0  0  0  0
    1.5332    1.4957    0.7558 S   0  0  0  0  0  1  0  0  0  0  0  0
    6.4311   -3.5253    0.8507 O   0  0  0  0  0  0  0  0  0  0  0  0
    3.6501   -0.6457   -0.3236 C   0  0  0  0  0  0  0  0  0  0  0  0
    4.8138   -3.6945   -1.3698 H   0  0  0  0  0  0  0  0  0  0  0  0
    4.4264   -0.4913    0.8470 C   0  0  0  0  0  0  0  0  0  0  0  0
    4.2893    0.3989    1.4791 H   0  0  0  0  0  0  0  0  0  0  0  0
    5.3489   -1.4708    1.2092 C   0  0  0  0  0  0  0  0  0  0  0  0
    5.9619   -1.3717    2.1165 H   0  0  0  0  0  0  0  0  0  0  0  0
    5.5094   -2.6291    0.4138 C   0  0  0  0  0  0  0  0  0  0  0  0
    4.7237   -2.7946   -0.7472 C   0  0  0  0  0  0  0  0  0  0  0  0
    3.7991   -1.8030   -1.1059 C   0  0  0  0  0  0  0  0  0  0  0  0
    3.1622   -1.9360   -1.9948 H   0  0  0  0  0  0  0  0  0  0  0  0
    6.6240   -4.7149    0.1070 C   0  0  0  0  0  0  0  0  0  0  0  0
    7.4065   -5.2901    0.6353 H   0  0  0  0  0  0  0  0  0  0  0  0
    6.9681   -4.5039   -0.9304 H   0  0  0  0  0  0  0  0  0  0  0  0
    5.6960   -5.3272    0.0572 H   0  0  0  0  0  0  0  0  0  0  0  0
    3.5559    1.9167   -1.7328 C   0  0  0  0  0  0  0  0  0  0  0  0
    3.9382    1.3919   -2.6325 H   0  0  0  0  0  0  0  0  0  0  0  0
    2.8436    2.7020   -2.0551 H   0  0  0  0  0  0  0  0  0  0  0  0
    4.6565    2.4406   -0.8566 C   0  0  0  0  0  0  0  0  0  0  0  0
    4.3925    3.4546    0.0893 C   0  0  0  0  0  0  0  0  0  0  0  0
    3.3858    3.8973    0.1377 H   0  0  0  0  0  0  0  0  0  0  0  0
    5.3953    3.8859    0.9698 C   0  0  0  0  0  0  0  0  0  0  0  0
    5.1737    4.6769    1.7023 H   0  0  0  0  0  0  0  0  0  0  0  0
    6.6760    3.3125    0.9183 C   0  0  0  0  0  0  0  0  0  0  0  0
    7.4626    3.6531    1.6085 H   0  0  0  0  0  0  0  0  0  0  0  0
    6.9488    2.3038   -0.0199 C   0  0  0  0  0  0  0  0  0  0  0  0
    7.9496    1.8483   -0.0666 H   0  0  0  0  0  0  0  0  0  0  0  0
    5.9453    1.8684   -0.8963 C   0  0  0  0  0  0  0  0  0  0  0  0
    6.1568    1.0644   -1.6183 H   0  0  0  0  0  0  0  0  0  0  0  0
  1  5  1  0  0  0  0
  1  3  1  0  0  0  0
  2  1  1  0  0  0  0
  5  7  1  0  0  0  0
  6 12  1  0  0  0  0
  7  9  2  0  0  0  0
  7  8  1  0  0  0  0
  9 10  1  0  0  0  0
 11  4  1  0  0  0  0
 11  9  1  0  0  0  0
 12 11  2  0  0  0  0
 13 12  1  0  0  0  0
 13  5  2  0  0  0  0
 14 13  1  0  0  0  0
 15 16  1  0  0  0  0
 15  4  1  0  0  0  0
 17 15  1  0  0  0  0
 18 15  1  0  0  0  0
 19 22  1  0  0  0  0
 19  1  1  0  0  0  0
 20 19  1  0  0  0  0
 21 19  1  0  0  0  0
 22 23  1  0  0  0  0
 23 24  1  0  0  0  0
 23 25  2  0  0  0  0
 25 26  1  0  0  0  0
 27 25  1  0  0  0  0
 27 28  1  0  0  0  0
 29 27  2  0  0  0  0
 30 29  1  0  0  0  0
 31 22  2  0  0  0  0
 31 29  1  0  0  0  0
 32 31  1  0  0  0  0
M  END
