1,2,3
q = -1.0

 31 32  0  0  0  0  0  0  0  0999 V2000
   -1.5628    0.4422   -1.7127 S   0  0  0  0  0  1  0  0  0  0  0  0
   -1.5590    1.0917    1.3737 S   0  0  0  0  0  1  0  0  0  0  0  0
   -2.8010    0.3745   -0.0830 P   0  0  0  0  0  4  0  0  0  0  0  0
   -3.3301   -1.3691    0.2318 C   0  0  0  0  0  0  0  0  0  0  0  0
   -2.6664   -2.0200    1.2891 C   0  0  0  0  0  0  0  0  0  0  0  0
   -1.9322   -1.4459    1.8757 H   0  0  0  0  0  0  0  0  0  0  0  0
   -2.9308   -3.3605    1.5952 C   0  0  0  0  0  0  0  0  0  0  0  0
   -2.3988   -3.8424    2.4290 H   0  0  0  0  0  0  0  0  0  0  0  0
   -3.8681   -4.0759    0.8397 C   0  0  0  0  0  0  0  0  0  0  0  0
   -4.0871   -5.1291    1.0698 H   0  0  0  0  0  0  0  0  0  0  0  0
   -4.5280   -3.4442   -0.2220 C   0  0  0  0  0  0  0  0  0  0  0  0
   -5.2551   -4.0016   -0.8280 H   0  0  0  0  0  0  0  0  0  0  0  0
   -4.2697   -2.0997   -0.5427 C   0  0  0  0  0  0  0  0  0  0  0  0
   -5.0668   -1.5082   -1.6911 C   0  0  0  0  0  0  0  0  0  0  0  0
   -4.3347   -0.6471   -2.4382 F   0  0  0  0  0  0  0  0  0  0  0  0
   -6.1570   -0.8279   -1.2537 F   0  0  0  0  0  0  0  0  0  0  0  0
   -5.5199   -2.4704   -2.5280 F   0  0  0  0  0  0  0  0  0  0  0  0
   -4.3098    1.4270   -0.2696 C   0  0  0  0  0  0  0  0  0  0  0  0
   -4.3023    2.2756   -1.3923 C   0  0  0  0  0  0  0  0  0  0  0  0
   -3.4436    2.2241   -2.0807 H   0  0  0  0  0  0  0  0  0  0  0  0
   -5.3555    3.1665   -1.6345 C   0  0  0  0  0  0  0  0  0  0  0  0
   -5.3290    3.8135   -2.5240 H   0  0  0  0  0  0  0  0  0  0  0  0
   -6.4312    3.2303   -0.7401 C   0  0  0  0  0  0  0  0  0  0  0  0
   -7.2636    3.9278   -0.9156 H   0  0  0  0  0  0  0  0  0  0  0  0
   -6.4434    2.4039    0.3914 C   0  0  0  0  0  0  0  0  0  0  0  0
   -7.2778    2.4571    1.1041 H   0  0  0  0  0  0  0  0  0  0  0  0
   -5.3951    1.5021    0.6417 C   0  0  0  0  0  0  0  0  0  0  0  0
   -5.5260    0.6168    1.8677 C   0  0  0  0  0  0  0  0  0  0  0  0
   -4.3332    0.4073    2.4749 F   0  0  0  0  0  0  0  0  0  0  0  0
   -6.0371   -0.6007    1.5600 F   0  0  0  0  0  0  0  0  0  0  0  0
   -6.3512    1.1654    2.7895 F   0  0  0  0  0  0  0  0  0  0  0  0
  1  3  1  0  0  0  0
  3  4  1  0  0  0  0
  3  2  1  0  0  0  0
  4  5  1  0  0  0  0
  5  7  2  0  0  0  0
  5  6  1  0  0  0  0
  7  8  1  0  0  0  0
  9 10  1  0  0  0  0
  9  7  1  0  0  0  0
 11  9  2  0  0  0  0
 12 11  1  0  0  0  0
 13 11  1  0  0  0  0
 13  4  2  0  0  0  0
 14 16  1  0  0  0  0
 14 13  1  0  0  0  0
 15 14  1  0  0  0  0
 17 14  1  0  0  0  0
 18  3  1  0  0  0  0
 18 27  1  0  0  0  0
 19 18  2  0  0  0  0
 20 19  1  0  0  0  0
 21 19  1  0  0  0  0
 21 23  2  0  0  0  0
 22 21  1  0  0  0  0
 23 25  1  0  0  0  0
 24 23  1  0  0  0  0
 25 27  2  0  0  0  0
 25 26  1  0  0  0  0
 27 28  1  0  0  0  0
 28 29  1  0  0  0  0
 28 31  1  0  0  0  0
 30 28  1  0  0  0  0
M  END
