1,2,3
q = -1.0

 31 32  0  0  0  0  0  0  0  0999 V2000
    1.7550   -0.6509    1.2772 S   0  0  0  0  0  1  0  0  0  0  0  0
    1.2337   -0.3666   -1.8623 S   0  0  0  0  0  1  0  0  0  0  0  0
    2.6724   -0.0585   -0.4482 P   0  0  0  0  0  4  0  0  0  0  0  0
    4.2251   -0.9582   -0.7922 C   0  0  0  0  0  0  0  0  0  0  0  0
    4.5799   -2.0537    0.0102 C   0  0  0  0  0  0  0  0  0  0  0  0
    3.9387   -2.3404    0.8585 H   0  0  0  0  0  0  0  0  0  0  0  0
    5.7426   -2.7822   -0.2881 C   0  0  0  0  0  0  0  0  0  0  0  0
    6.5339   -2.4301   -1.3947 C   0  0  0  0  0  0  0  0  0  0  0  0
    7.4340   -3.0171   -1.6272 H   0  0  0  0  0  0  0  0  0  0  0  0
    6.1660   -1.3431   -2.2023 C   0  0  0  0  0  0  0  0  0  0  0  0
    6.7831   -1.0725   -3.0717 H   0  0  0  0  0  0  0  0  0  0  0  0
    5.0139   -0.6030   -1.9058 C   0  0  0  0  0  0  0  0  0  0  0  0
    4.7253    0.2496   -2.5400 H   0  0  0  0  0  0  0  0  0  0  0  0
    6.1660   -3.9208    0.6139 C   0  0  0  0  0  0  0  0  0  0  0  0
    5.1023   -4.5195    1.1960 F   0  0  0  0  0  0  0  0  0  0  0  0
    6.9737   -3.4801    1.6096 F   0  0  0  0  0  0  0  0  0  0  0  0
    6.8529   -4.8676   -0.0679 F   0  0  0  0  0  0  0  0  0  0  0  0
    3.1343    1.7109   -0.3640 C   0  0  0  0  0  0  0  0  0  0  0  0
    2.1304    2.6759   -0.5794 C   0  0  0  0  0  0  0  0  0  0  0  0
    1.1148    2.3422   -0.8503 H   0  0  0  0  0  0  0  0  0  0  0  0
    2.4364    4.0364   -0.4572 C   0  0  0  0  0  0  0  0  0  0  0  0
    1.6544    4.7896   -0.6336 H   0  0  0  0  0  0  0  0  0  0  0  0
    3.7366    4.4421   -0.1189 C   0  0  0  0  0  0  0  0  0  0  0  0
    3.9848    5.5099   -0.0347 H   0  0  0  0  0  0  0  0  0  0  0  0
    4.7336    3.4772    0.1034 C   0  0  0  0  0  0  0  0  0  0  0  0
    4.4367    2.1094   -0.0160 C   0  0  0  0  0  0  0  0  0  0  0  0
    5.2286    1.3663    0.1551 H   0  0  0  0  0  0  0  0  0  0  0  0
    6.1214    3.9077    0.5214 C   0  0  0  0  0  0  0  0  0  0  0  0
    6.4631    5.0961   -0.0305 F   0  0  0  0  0  0  0  0  0  0  0  0
    6.2089    4.0529    1.8660 F   0  0  0  0  0  0  0  0  0  0  0  0
    7.0586    2.9999    0.1563 F   0  0  0  0  0  0  0  0  0  0  0  0
  2  3  1  0  0  0  0
  3 18  1  0  0  0  0
  3  1  1  0  0  0  0
  4  3  1  0  0  0  0
  4  5  1  0  0  0  0
  5  6  1  0  0  0  0
  7  5  2  0  0  0  0
  7 14  1  0  0  0  0
  8  7  1  0  0  0  0
  9  8  1  0  0  0  0
 10 12  1  0  0  0  0
 10  8  2  0  0  0  0
 11 10  1  0  0  0  0
 12  4  2  0  0  0  0
 13 12  1  0  0  0  0
 14 15  1  0  0  0  0
 14 16  1  0  0  0  0
 17 14  1  0  0  0  0
 18 26  1  0  0  0  0
 19 21  1  0  0  0  0
 19 18  2  0  0  0  0
 20 19  1  0  0  0  0
 21 23  2  0  0  0  0
 22 21  1  0  0  0  0
 23 24  1  0  0  0  0
 23 25  1  0  0  0  0
 25 28  1  0  0  0  0
 26 25  2  0  0  0  0
 26 27  1  0  0  0  0
 28 30  1  0  0  0  0
 29 28  1  0  0  0  0
 31 28  1  0  0  0  0
M  END
