1,3,4,5
 OpenBabel05122313063D

 70 71  0  0  0  0  0  0  0  0999 V2000
   -1.2491   -1.8730   -0.0639 S   0  0  0  0  0  1  0  0  0  0  0  0
   -2.4531   -0.3195    0.2831 P   0  0  2  0  0  4  0  0  0  0  0  0
   -0.1754    1.1815   -1.0750 P   0  0  1  0  0  0  0  0  0  0  0  0
    0.4884    0.3581    2.0240 P   0  0  0  0  0  0  0  0  0  0  0  0
    1.6845   -0.9848   -1.9741 P   0  0  0  0  0  0  0  0  0  0  0  0
   -2.0253    1.1057   -0.8202 C   0  0  0  0  0  0  0  0  0  0  0  0
   -2.4190    2.0542   -0.4032 H   0  0  0  0  0  0  0  0  0  0  0  0
   -2.5288    0.9161   -1.7884 H   0  0  0  0  0  0  0  0  0  0  0  0
   -2.3700    0.3761    1.9946 C   0  0  0  0  0  0  0  0  0  0  0  0
   -3.2949    0.9733    2.1396 H   0  0  0  0  0  0  0  0  0  0  0  0
   -2.4532   -0.5044    2.6649 H   0  0  0  0  0  0  0  0  0  0  0  0
   -1.1318    1.2204    2.3119 C   0  0  0  0  0  0  0  0  0  0  0  0
   -1.1720    1.5430    3.3737 H   0  0  0  0  0  0  0  0  0  0  0  0
   -1.1123    2.1533    1.7088 H   0  0  0  0  0  0  0  0  0  0  0  0
    0.0126    0.9563   -2.9317 C   0  0  0  0  0  0  0  0  0  0  0  0
   -0.9155    1.2733   -3.4490 H   0  0  0  0  0  0  0  0  0  0  0  0
    0.8113    1.6595   -3.2443 H   0  0  0  0  0  0  0  0  0  0  0  0
    0.4003   -0.4928   -3.2243 C   0  0  0  0  0  0  0  0  0  0  0  0
    0.7749   -0.6258   -4.2603 H   0  0  0  0  0  0  0  0  0  0  0  0
   -0.4596   -1.1780   -3.0713 H   0  0  0  0  0  0  0  0  0  0  0  0
   -4.2122   -0.6772   -0.0227 C   0  0  0  0  0  0  0  0  0  0  0  0
   -5.1784    0.3471    0.0859 C   0  0  0  0  0  0  0  0  0  0  0  0
   -4.8887    1.3751    0.3568 H   0  0  0  0  0  0  0  0  0  0  0  0
   -6.5276    0.0570   -0.1572 C   0  0  0  0  0  0  0  0  0  0  0  0
   -7.2817    0.8536   -0.0739 H   0  0  0  0  0  0  0  0  0  0  0  0
   -6.9148   -1.2483   -0.5053 C   0  0  0  0  0  0  0  0  0  0  0  0
   -7.9755   -1.4727   -0.6925 H   0  0  0  0  0  0  0  0  0  0  0  0
   -5.9533   -2.2650   -0.6138 C   0  0  0  0  0  0  0  0  0  0  0  0
   -6.2574   -3.2867   -0.8853 H   0  0  0  0  0  0  0  0  0  0  0  0
   -4.5999   -1.9837   -0.3747 C   0  0  0  0  0  0  0  0  0  0  0  0
   -3.8323   -2.7692   -0.4570 H   0  0  0  0  0  0  0  0  0  0  0  0
    0.2989    2.9253   -0.7831 C   0  0  0  0  0  0  0  0  0  0  0  0
   -0.5694    4.0204   -0.9728 C   0  0  0  0  0  0  0  0  0  0  0  0
   -1.6121    3.8658   -1.2904 H   0  0  0  0  0  0  0  0  0  0  0  0
   -0.1023    5.3285   -0.7720 C   0  0  0  0  0  0  0  0  0  0  0  0
   -0.7845    6.1791   -0.9188 H   0  0  0  0  0  0  0  0  0  0  0  0
    1.2311    5.5527   -0.3928 C   0  0  0  0  0  0  0  0  0  0  0  0
    1.5921    6.5802   -0.2367 H   0  0  0  0  0  0  0  0  0  0  0  0
    2.1034    4.4666   -0.2153 C   0  0  0  0  0  0  0  0  0  0  0  0
    3.1494    4.6387    0.0795 H   0  0  0  0  0  0  0  0  0  0  0  0
    1.6394    3.1571   -0.4048 C   0  0  0  0  0  0  0  0  0  0  0  0
    2.3131    2.2978   -0.2533 H   0  0  0  0  0  0  0  0  0  0  0  0
    1.6860    1.5687    2.7456 C   0  0  0  0  0  0  0  0  0  0  0  0
    1.5082    2.5275    2.2146 H   0  0  0  0  0  0  0  0  0  0  0  0
    1.3880    1.7329    3.8038 H   0  0  0  0  0  0  0  0  0  0  0  0
    3.1498    1.1419    2.6377 C   0  0  0  0  0  0  0  0  0  0  0  0
    3.3494    0.1956    3.1773 H   0  0  0  0  0  0  0  0  0  0  0  0
    3.8089    1.9206    3.0692 H   0  0  0  0  0  0  0  0  0  0  0  0
    3.4466    0.9767    1.5837 H   0  0  0  0  0  0  0  0  0  0  0  0
    0.4555   -1.0900    3.1717 C   0  0  0  0  0  0  0  0  0  0  0  0
   -0.1939   -1.8389    2.6708 H   0  0  0  0  0  0  0  0  0  0  0  0
    1.4780   -1.5143    3.1172 H   0  0  0  0  0  0  0  0  0  0  0  0
    0.0266   -0.8120    4.6107 C   0  0  0  0  0  0  0  0  0  0  0  0
    0.6754   -0.0627    5.1075 H   0  0  0  0  0  0  0  0  0  0  0  0
    0.0932   -1.7429    5.2085 H   0  0  0  0  0  0  0  0  0  0  0  0
   -1.0210   -0.4557    4.6855 H   0  0  0  0  0  0  0  0  0  0  0  0
    3.2101   -0.0935   -2.5285 C   0  0  0  0  0  0  0  0  0  0  0  0
    3.5026   -0.5545   -3.4975 H   0  0  0  0  0  0  0  0  0  0  0  0
    2.8999    0.9492   -2.7515 H   0  0  0  0  0  0  0  0  0  0  0  0
    4.3688   -0.1047   -1.5311 C   0  0  0  0  0  0  0  0  0  0  0  0
    4.0804    0.3839   -0.5799 H   0  0  0  0  0  0  0  0  0  0  0  0
    5.2362    0.4402   -1.9525 H   0  0  0  0  0  0  0  0  0  0  0  0
    4.7041   -1.1295   -1.2771 H   0  0  0  0  0  0  0  0  0  0  0  0
    2.0725   -2.7648   -2.2354 C   0  0  0  0  0  0  0  0  0  0  0  0
    2.2248   -2.8788   -3.3311 H   0  0  0  0  0  0  0  0  0  0  0  0
    3.0588   -2.9338   -1.7516 H   0  0  0  0  0  0  0  0  0  0  0  0
    1.0466   -3.7568   -1.6927 C   0  0  0  0  0  0  0  0  0  0  0  0
    0.9469   -3.6542   -0.5947 H   0  0  0  0  0  0  0  0  0  0  0  0
    1.3793   -4.7917   -1.9045 H   0  0  0  0  0  0  0  0  0  0  0  0
    0.0442   -3.6229   -2.1456 H   0  0  0  0  0  0  0  0  0  0  0  0
  2  1  1  6  0  0  0
  2  9  1  0  0  0  0
  3 15  1  6  0  0  0
  3  6  1  0  0  0  0
  3 32  1  0  0  0  0
  4 12  1  0  0  0  0
  4 43  1  0  0  0  0
  4 50  1  0  0  0  0
  6  7  1  0  0  0  0
  6  2  1  0  0  0  0
  8  6  1  0  0  0  0
  9 10  1  0  0  0  0
  9 12  1  0  0  0  0
  9 11  1  0  0  0  0
 12 13  1  0  0  0  0
 14 12  1  0  0  0  0
 16 15  1  0  0  0  0
 17 15  1  0  0  0  0
 18 20  1  0  0  0  0
 18 15  1  0  0  0  0
 18  5  1  0  0  0  0
 19 18  1  0  0  0  0
 21 22  1  0  0  0  0
 21  2  1  0  0  0  0
 22 23  1  0  0  0  0
 24 25  1  0  0  0  0
 24 22  2  0  0  0  0
 26 24  1  0  0  0  0
 27 26  1  0  0  0  0
 28 26  2  0  0  0  0
 28 30  1  0  0  0  0
 29 28  1  0  0  0  0
 30 21  2  0  0  0  0
 31 30  1  0  0  0  0
 32 41  1  0  0  0  0
 33 32  2  0  0  0  0
 33 35  1  0  0  0  0
 34 33  1  0  0  0  0
 35 37  2  0  0  0  0
 36 35  1  0  0  0  0
 37 38  1  0  0  0  0
 37 39  1  0  0  0  0
 39 40  1  0  0  0  0
 41 42  1  0  0  0  0
 41 39  2  0  0  0  0
 43 45  1  0  0  0  0
 44 43  1  0  0  0  0
 46 43  1  0  0  0  0
 46 48  1  0  0  0  0
 46 47  1  0  0  0  0
 49 46  1  0  0  0  0
 50 53  1  0  0  0  0
 51 50  1  0  0  0  0
 52 50  1  0  0  0  0
 53 56  1  0  0  0  0
 53 54  1  0  0  0  0
 53 55  1  0  0  0  0
 57  5  1  0  0  0  0
 57 60  1  0  0  0  0
 58 57  1  0  0  0  0
 59 57  1  0  0  0  0
 60 63  1  0  0  0  0
 60 61  1  0  0  0  0
 62 60  1  0  0  0  0
 64  5  1  0  0  0  0
 64 66  1  0  0  0  0
 64 67  1  0  0  0  0
 65 64  1  0  0  0  0
 67 68  1  0  0  0  0
 69 67  1  0  0  0  0
 70 67  1  0  0  0  0
M  END
