1,2
 OpenBabel05122313063D

 41 42  0  0  0  0  0  0  0  0999 V2000
    0.7823    0.1289   -1.8795 S   0  0  0  0  0  1  0  0  0  0  0  0
    2.0282    0.0142   -0.0740 Si  0  0  0  0  0  0  0  0  0  0  0  0
    2.0804    2.1001    1.0181 Si  0  0  0  0  0  0  0  0  0  0  0  0
    1.3312   -1.6745    1.4223 Si  0  0  0  0  0  0  0  0  0  0  0  0
    4.1547   -0.5206   -0.9418 Si  0  0  0  0  0  0  0  0  0  0  0  0
    2.9334    1.9251    2.7116 C   0  0  0  0  0  0  0  0  0  0  0  0
    2.3635    1.2466    3.3792 H   0  0  0  0  0  0  0  0  0  0  0  0
    3.0170    2.9095    3.2186 H   0  0  0  0  0  0  0  0  0  0  0  0
    3.9559    1.5097    2.6009 H   0  0  0  0  0  0  0  0  0  0  0  0
    3.0241    3.3614   -0.0433 C   0  0  0  0  0  0  0  0  0  0  0  0
    4.0953    3.0873   -0.1311 H   0  0  0  0  0  0  0  0  0  0  0  0
    2.9650    4.3813    0.3917 H   0  0  0  0  0  0  0  0  0  0  0  0
    2.5958    3.3924   -1.0661 H   0  0  0  0  0  0  0  0  0  0  0  0
    0.3037    2.7300    1.2664 C   0  0  0  0  0  0  0  0  0  0  0  0
   -0.1778    2.8548    0.2745 H   0  0  0  0  0  0  0  0  0  0  0  0
    0.2902    3.7091    1.7899 H   0  0  0  0  0  0  0  0  0  0  0  0
   -0.3012    2.0088    1.8530 H   0  0  0  0  0  0  0  0  0  0  0  0
   -0.0556   -1.0791    2.5845 C   0  0  0  0  0  0  0  0  0  0  0  0
    0.2897   -0.2266    3.2045 H   0  0  0  0  0  0  0  0  0  0  0  0
   -0.3610   -1.8959    3.2727 H   0  0  0  0  0  0  0  0  0  0  0  0
   -0.9587   -0.7472    2.0339 H   0  0  0  0  0  0  0  0  0  0  0  0
    0.7249   -3.1753    0.4277 C   0  0  0  0  0  0  0  0  0  0  0  0
   -0.0299   -2.8613   -0.3227 H   0  0  0  0  0  0  0  0  0  0  0  0
    0.2771   -3.9482    1.0873 H   0  0  0  0  0  0  0  0  0  0  0  0
    1.5643   -3.6372   -0.1302 H   0  0  0  0  0  0  0  0  0  0  0  0
    2.8047   -2.1896    2.5127 C   0  0  0  0  0  0  0  0  0  0  0  0
    3.6242   -2.6198    1.9018 H   0  0  0  0  0  0  0  0  0  0  0  0
    2.4964   -2.9537    3.2572 H   0  0  0  0  0  0  0  0  0  0  0  0
    3.2144   -1.3199    3.0662 H   0  0  0  0  0  0  0  0  0  0  0  0
    4.1732   -2.3467   -1.4681 C   0  0  0  0  0  0  0  0  0  0  0  0
    4.0685   -3.0216   -0.5942 H   0  0  0  0  0  0  0  0  0  0  0  0
    5.1191   -2.6043   -1.9895 H   0  0  0  0  0  0  0  0  0  0  0  0
    3.3291   -2.5480   -2.1589 H   0  0  0  0  0  0  0  0  0  0  0  0
    5.5102   -0.2073    0.3564 C   0  0  0  0  0  0  0  0  0  0  0  0
    5.5511    0.8666    0.6323 H   0  0  0  0  0  0  0  0  0  0  0  0
    6.5075   -0.4941   -0.0390 H   0  0  0  0  0  0  0  0  0  0  0  0
    5.3287   -0.7895    1.2825 H   0  0  0  0  0  0  0  0  0  0  0  0
    4.4684    0.5643   -2.4668 C   0  0  0  0  0  0  0  0  0  0  0  0
    3.6419    0.4448   -3.1966 H   0  0  0  0  0  0  0  0  0  0  0  0
    5.4206    0.2850   -2.9653 H   0  0  0  0  0  0  0  0  0  0  0  0
    4.5209    1.6365   -2.1904 H   0  0  0  0  0  0  0  0  0  0  0  0
  1  2  1  0  0  0  0
  2  3  1  0  0  0  0
  2  4  1  0  0  0  0
  2 38  1  0  0  0  0
  2 30  1  0  0  0  0
  3 14  1  0  0  0  0
  3  6  1  0  0  0  0
  4 26  1  0  0  0  0
  4 18  1  0  0  0  0
  5  2  1  0  0  0  0
  5 34  1  0  0  0  0
  6  8  1  0  0  0  0
  6  7  1  0  0  0  0
  9  6  1  0  0  0  0
 10 12  1  0  0  0  0
 10  3  1  0  0  0  0
 11 10  1  0  0  0  0
 13 10  1  0  0  0  0
 14 16  1  0  0  0  0
 14 17  1  0  0  0  0
 15 14  1  0  0  0  0
 18 19  1  0  0  0  0
 18 20  1  0  0  0  0
 21 18  1  0  0  0  0
 22 24  1  0  0  0  0
 22  4  1  0  0  0  0
 23 22  1  0  0  0  0
 25 22  1  0  0  0  0
 26 29  1  0  0  0  0
 26 28  1  0  0  0  0
 27 26  1  0  0  0  0
 30  5  1  0  0  0  0
 30 31  1  0  0  0  0
 32 30  1  0  0  0  0
 33 30  1  0  0  0  0
 34 35  1  0  0  0  0
 34 37  1  0  0  0  0
 36 34  1  0  0  0  0
 38 41  1  0  0  0  0
 38  5  1  0  0  0  0
 39 38  1  0  0  0  0
 40 38  1  0  0  0  0
M  HYD  1   1   0
M  ZBO  2   4   0   5   0
M  END
