1,2,7,8
q = -1.0, confidence = 0.442

 51 52  0  0  1  0  0  0  0  0999 V2000
   -0.5911    2.0541   -0.2315 S   0  0  0  0  0  1  0  0  0  0  0  0
    1.7151   -0.1401   -0.3859 P   0  0  0  0  0  0  0  0  0  0  0  0
   -0.4623   -3.6948   -2.4093 O   0  0  0  0  0  0  0  0  0  0  0  0
   -4.3840   -0.7748   -1.7193 O   0  0  0  0  0  0  0  0  0  0  0  0
   -3.8814    0.1104    1.7326 O   0  0  0  0  0  0  0  0  0  0  0  0
   -3.7885    2.3696    1.8958 O   0  0  0  0  0  0  0  0  0  0  0  0
   -0.9138   -1.7373   -1.3187 N   0  0  0  0  0  2  0  0  0  0  0  0
   -2.5559    0.0667   -0.5795 N   0  0  0  0  0  2  0  0  0  0  0  0
    2.0553   -1.1421   -1.8924 C   0  0  0  0  0  0  0  0  0  0  0  0
    1.5702   -0.6489   -2.7600 H   0  0  0  0  0  0  0  0  0  0  0  0
    3.1481   -1.1764   -2.0810 H   0  0  0  0  0  0  0  0  0  0  0  0
    1.4764   -2.5407   -1.6590 C   0  0  0  0  0  0  0  0  0  0  0  0
    1.9048   -3.2564   -2.3855 H   0  0  0  0  0  0  0  0  0  0  0  0
    1.7694   -2.9155   -0.6531 H   0  0  0  0  0  0  0  0  0  0  0  0
   -0.0363   -2.7008   -1.8217 C   0  0  0  0  0  0  0  0  0  0  0  0
   -2.3074   -2.0311   -1.7008 C   0  0  0  0  0  0  0  0  0  0  0  0
   -2.6753   -2.9499   -1.1932 H   0  0  0  0  0  0  0  0  0  0  0  0
   -2.3875   -2.2492   -2.7851 H   0  0  0  0  0  0  0  0  0  0  0  0
   -3.2175   -0.8741   -1.3546 C   0  0  0  0  0  0  0  0  0  0  0  0
   -3.2487    1.3059   -0.2323 C   0  0  2  0  0  0  0  0  0  0  0  0
   -4.1994    1.3189   -0.8154 H   0  0  0  0  0  0  0  0  0  0  0  0
   -2.3657    2.4932   -0.5844 C   0  0  0  0  0  0  0  0  0  0  0  0
   -2.6355    3.3747    0.0278 H   0  0  0  0  0  0  0  0  0  0  0  0
   -2.4352    2.7486   -1.6594 H   0  0  0  0  0  0  0  0  0  0  0  0
   -3.6554    1.3475    1.2496 C   0  0  0  0  0  0  0  0  0  0  0  0
   -4.2614    0.0466    3.1122 C   0  0  0  0  0  0  0  0  0  0  0  0
   -4.4601   -1.0184    3.3248 H   0  0  0  0  0  0  0  0  0  0  0  0
   -5.1652    0.6598    3.3011 H   0  0  0  0  0  0  0  0  0  0  0  0
   -3.4402    0.4205    3.7561 H   0  0  0  0  0  0  0  0  0  0  0  0
    2.7914   -0.9283    0.8878 C   0  0  0  0  0  0  0  0  0  0  0  0
    2.2736   -1.6542    1.9761 C   0  0  0  0  0  0  0  0  0  0  0  0
    1.1858   -1.7220    2.1233 H   0  0  0  0  0  0  0  0  0  0  0  0
    3.1503   -2.2740    2.8820 C   0  0  0  0  0  0  0  0  0  0  0  0
    2.7386   -2.8376    3.7326 H   0  0  0  0  0  0  0  0  0  0  0  0
    4.5381   -2.1725    2.7084 C   0  0  0  0  0  0  0  0  0  0  0  0
    5.2207   -2.6589    3.4216 H   0  0  0  0  0  0  0  0  0  0  0  0
    5.0571   -1.4424    1.6258 C   0  0  0  0  0  0  0  0  0  0  0  0
    6.1453   -1.3526    1.4888 H   0  0  0  0  0  0  0  0  0  0  0  0
    4.1901   -0.8198    0.7187 C   0  0  0  0  0  0  0  0  0  0  0  0
    4.6023   -0.2349   -0.1183 H   0  0  0  0  0  0  0  0  0  0  0  0
    2.5045    1.4929   -0.6401 C   0  0  0  0  0  0  0  0  0  0  0  0
    2.6840    2.3249    0.4852 C   0  0  0  0  0  0  0  0  0  0  0  0
    2.3801    1.9712    1.4826 H   0  0  0  0  0  0  0  0  0  0  0  0
    3.2405    3.6006    0.3327 C   0  0  0  0  0  0  0  0  0  0  0  0
    3.3766    4.2450    1.2141 H   0  0  0  0  0  0  0  0  0  0  0  0
    3.6166    4.0581   -0.9413 C   0  0  0  0  0  0  0  0  0  0  0  0
    4.0510    5.0622   -1.0598 H   0  0  0  0  0  0  0  0  0  0  0  0
    3.4343    3.2356   -2.0630 C   0  0  0  0  0  0  0  0  0  0  0  0
    3.7244    3.5916   -3.0630 H   0  0  0  0  0  0  0  0  0  0  0  0
    2.8771    1.9555   -1.9162 C   0  0  0  0  0  0  0  0  0  0  0  0
    2.7319    1.3251   -2.8054 H   0  0  0  0  0  0  0  0  0  0  0  0
  2 30  1  0  0  0  0
  3 15  2  0  0  0  0
  4 19  2  0  0  0  0
  5 26  1  0  0  0  0
  8 20  1  0  0  0  0
  9 12  1  0  0  0  0
  9  2  1  0  0  0  0
 10  9  1  0  0  0  0
 11  9  1  0  0  0  0
 12 14  1  0  0  0  0
 13 12  1  0  0  0  0
 15 12  1  0  0  0  0
 15  7  1  0  0  0  0
 16 19  1  0  0  0  0
 16  7  1  0  0  0  0
 16 17  1  0  0  0  0
 18 16  1  0  0  0  0
 19  8  1  0  0  0  0
 20 21  1  6  0  0  0
 20 25  1  0  0  0  0
 22 20  1  0  0  0  0
 22  1  1  0  0  0  0
 22 23  1  0  0  0  0
 24 22  1  0  0  0  0
 25  5  1  0  0  0  0
 25  6  2  0  0  0  0
 26 28  1  0  0  0  0
 26 27  1  0  0  0  0
 26 29  1  0  0  0  0
 30 31  1  0  0  0  0
 31 32  1  0  0  0  0
 31 33  2  0  0  0  0
 33 34  1  0  0  0  0
 35 33  1  0  0  0  0
 35 36  1  0  0  0  0
 37 35  2  0  0  0  0
 38 37  1  0  0  0  0
 39 30  2  0  0  0  0
 39 37  1  0  0  0  0
 40 39  1  0  0  0  0
 41  2  1  0  0  0  0
 41 42  1  0  0  0  0
 42 43  1  0  0  0  0
 44 42  2  0  0  0  0
 44 45  1  0  0  0  0
 46 44  1  0  0  0  0
 47 46  1  0  0  0  0
 48 50  1  0  0  0  0
 48 46  2  0  0  0  0
 49 48  1  0  0  0  0
 50 41  2  0  0  0  0
 51 50  1  0  0  0  0
M  END
