1,2,3,6,7,8
 OpenBabel05122313063D

 75 78  0  0  1  0  0  0  0  0999 V2000
    1.5294    1.2077    1.7818 S   0  0  0  0  0  0  0  0  0  0  0  0
   -1.4919   -1.1049    1.3864 S   0  0  0  0  0  0  0  0  0  0  0  0
    1.2615    0.7702   -1.2318 O   0  5  0  0  0  0  0  0  0  0  0  0
   -0.3277   -5.1897   -0.3196 C   0  0  0  0  0  0  0  0  0  0  0  0
   -0.0559   -6.1565   -0.7683 H   0  0  0  0  0  0  0  0  0  0  0  0
   -1.3353   -0.6203   -1.5523 O   0  5  0  0  0  0  0  0  0  0  0  0
   -0.8805    1.6685    0.0392 N   0  0  0  0  0  2  0  0  0  0  0  0
    0.9753   -1.6790   -0.0792 N   0  0  0  0  0  2  0  0  0  0  0  0
   -4.6102    3.5068   -0.5694 O   0  0  0  0  0  0  0  0  0  0  0  0
   -4.8068    3.5224   -1.5251 H   0  0  0  0  0  0  0  0  0  0  0  0
   -4.8503   -1.0509   -1.7587 N   0  0  0  0  0  0  0  0  0  0  0  0
   -5.5123   -1.7175   -2.1695 H   0  0  0  0  0  0  0  0  0  0  0  0
    4.7124    1.2487   -1.9769 N   0  0  0  0  0  0  0  0  0  0  0  0
   -2.5694   -0.3903   -1.3542 C   0  0  0  0  0  0  0  0  0  0  0  0
   -1.0315   -2.7216    0.7743 C   0  0  0  0  0  0  0  0  0  0  0  0
    1.1165    2.7312    0.9639 C   0  0  0  0  0  0  0  0  0  0  0  0
   -1.5139   -5.0718    0.4266 C   0  0  0  0  0  0  0  0  0  0  0  0
   -2.1716   -5.9418    0.5665 H   0  0  0  0  0  0  0  0  0  0  0  0
   -3.0785    0.8204   -0.7044 C   0  0  0  0  0  0  0  0  0  0  0  0
   -3.5352   -1.3586   -1.8148 C   0  0  2  0  0  3  0  0  0  0  0  0
   -0.1012    2.8170    0.2335 C   0  0  0  0  0  0  0  0  0  0  0  0
   -4.4976    1.0459   -0.6697 C   0  0  0  0  0  0  0  0  0  0  0  0
    0.5089   -4.0845   -0.5169 C   0  0  0  0  0  0  0  0  0  0  0  0
    1.4152   -4.1850   -1.1304 H   0  0  0  0  0  0  0  0  0  0  0  0
    2.5199    0.4868   -1.2805 C   0  0  0  0  0  0  0  0  0  0  0  0
    3.4062    1.4421   -1.9375 C   0  0  0  0  0  0  0  0  0  0  0  0
    2.2679   -1.7822   -0.3286 C   0  0  0  0  0  3  0  0  0  0  0  0
    2.7441   -2.7789   -0.2619 H   0  0  0  0  0  0  0  0  0  0  0  0
    1.9851    3.8289    1.0528 C   0  0  0  0  0  0  0  0  0  0  0  0
    2.9269    3.7195    1.6104 H   0  0  0  0  0  0  0  0  0  0  0  0
    3.1111   -0.7164   -0.7628 C   0  0  0  0  0  0  0  0  0  0  0  0
    0.4088    1.3154    3.2404 C   0  0  0  0  0  0  0  0  0  0  0  0
    0.6297    2.2809    3.7356 H   0  0  0  0  0  0  0  0  0  0  0  0
   -0.6412    1.3516    2.8809 H   0  0  0  0  0  0  0  0  0  0  0  0
   -1.8710   -3.8280    0.9676 C   0  0  0  0  0  0  0  0  0  0  0  0
   -2.8124   -3.7074    1.5252 H   0  0  0  0  0  0  0  0  0  0  0  0
   -5.1066    2.2879   -0.0426 C   0  0  0  0  0  0  0  0  0  0  0  0
   -6.2177    2.2238   -0.1134 H   0  0  0  0  0  0  0  0  0  0  0  0
   -4.8601    2.3094    1.0405 H   0  0  0  0  0  0  0  0  0  0  0  0
   -0.4394    4.0615   -0.3555 C   0  0  0  0  0  0  0  0  0  0  0  0
   -1.3613    4.1471   -0.9480 H   0  0  0  0  0  0  0  0  0  0  0  0
    0.1777   -2.8339    0.0514 C   0  0  0  0  0  0  0  0  0  0  0  0
   -2.1930    1.7936   -0.1506 C   0  0  0  0  0  3  0  0  0  0  0  0
   -2.6444    2.7661    0.1168 H   0  0  0  0  0  0  0  0  0  0  0  0
   -5.3531    0.1046   -1.2148 C   0  0  0  0  0  0  0  0  0  0  0  0
   -6.4443    0.2209   -1.2375 H   0  0  0  0  0  0  0  0  0  0  0  0
    5.2687    0.1337   -1.4420 C   0  0  0  0  0  0  0  0  0  0  0  0
    6.3690    0.0624   -1.5003 H   0  0  0  0  0  0  0  0  0  0  0  0
    1.6408    5.0479    0.4509 C   0  0  0  0  0  0  0  0  0  0  0  0
    2.3214    5.9084    0.5210 H   0  0  0  0  0  0  0  0  0  0  0  0
   -1.1582   -1.3530    3.1920 C   0  0  0  0  0  0  0  0  0  0  0  0
   -1.8174   -0.6201    3.7021 H   0  0  0  0  0  0  0  0  0  0  0  0
   -1.5766   -2.3590    3.3906 H   0  0  0  0  0  0  0  0  0  0  0  0
    2.8064    2.6688   -2.5544 C   0  0  0  0  0  0  0  0  0  0  0  0
    3.5955    3.2498   -3.0633 H   0  0  0  0  0  0  0  0  0  0  0  0
    2.3222    3.3006   -1.7807 H   0  0  0  0  0  0  0  0  0  0  0  0
    2.0078    2.3967   -3.2745 H   0  0  0  0  0  0  0  0  0  0  0  0
   -3.0882   -2.6293   -2.4493 C   0  0  0  0  0  0  0  0  0  0  0  0
   -3.9143   -3.3585   -2.5577 H   0  0  0  0  0  0  0  0  0  0  0  0
   -2.2744   -3.0785   -1.8466 H   0  0  0  0  0  0  0  0  0  0  0  0
   -2.6511   -2.4337   -3.4516 H   0  0  0  0  0  0  0  0  0  0  0  0
    4.5354   -0.8817   -0.8400 C   0  0  0  0  0  0  0  0  0  0  0  0
    0.4195    5.1586   -0.2386 C   0  0  0  0  0  0  0  0  0  0  0  0
    0.1442    6.1099   -0.7177 H   0  0  0  0  0  0  0  0  0  0  0  0
    0.2983   -1.2361    3.6478 C   0  0  0  0  0  0  0  0  0  0  0  0
    0.4720   -1.9826    4.4501 H   0  0  0  0  0  0  0  0  0  0  0  0
    0.9768   -1.5275    2.8176 H   0  0  0  0  0  0  0  0  0  0  0  0
    0.6584    0.1516    4.1934 C   0  0  0  0  0  0  0  0  0  0  0  0
    1.7214    0.1584    4.5135 H   0  0  0  0  0  0  0  0  0  0  0  0
    0.0628    0.3449    5.1123 H   0  0  0  0  0  0  0  0  0  0  0  0
    5.2289   -2.0972   -0.2649 C   0  0  0  0  0  0  0  0  0  0  0  0
    6.3292   -1.9840   -0.3969 H   0  0  0  0  0  0  0  0  0  0  0  0
    5.0421   -2.1634    0.8280 H   0  0  0  0  0  0  0  0  0  0  0  0
    4.7591   -3.3335   -0.8028 O   0  0  0  0  0  0  0  0  0  0  0  0
    4.9282   -3.3105   -1.7641 H   0  0  0  0  0  0  0  0  0  0  0  0
  1 32  1  0  0  0  0
  2 51  1  0  0  0  0
  4 17  1  0  0  0  0
  5  4  1  0  0  0  0
  6 14  1  0  0  0  0
  7 21  1  0  0  0  0
  8 42  1  0  0  0  0
  9 37  1  0  0  0  0
 10  9  1  0  0  0  0
 11 45  1  0  0  0  0
 12 11  1  0  0  0  0
 13 26  2  0  0  0  0
 13 47  1  0  0  0  0
 14 19  2  0  0  0  0
 15 35  1  0  0  0  0
 15  2  1  0  0  0  0
 16 29  1  0  0  0  0
 16  1  1  0  0  0  0
 17 18  1  0  0  0  0
 17 35  2  0  0  0  0
 19 22  1  0  0  0  0
 19 43  1  0  0  0  0
 20 58  1  6  0  0  0
 20 11  1  0  0  0  0
 20 14  1  0  0  0  0
 21 16  2  0  0  0  0
 22 37  1  0  0  0  0
 23  4  2  0  0  0  0
 23 42  1  0  0  0  0
 24 23  1  0  0  0  0
 25  3  1  0  0  0  0
 25 31  2  0  0  0  0
 26 25  1  0  0  0  0
 27 28  1  0  0  0  0
 27  8  1  0  0  0  0
 29 30  1  0  0  0  0
 31 27  1  0  0  0  0
 32 33  1  0  0  0  0
 32 68  1  0  0  0  0
 34 32  1  0  0  0  0
 35 36  1  0  0  0  0
 37 39  1  0  0  0  0
 38 37  1  0  0  0  0
 40 63  2  0  0  0  0
 40 21  1  0  0  0  0
 41 40  1  0  0  0  0
 42 15  2  0  0  0  0
 43  7  1  0  0  0  0
 43 44  1  0  0  0  0
 45 22  2  0  0  0  0
 46 45  1  0  0  0  0
 47 62  2  0  0  0  0
 48 47  1  0  0  0  0
 49 50  1  0  0  0  0
 49 29  2  0  0  0  0
 51 53  1  0  0  0  0
 51 65  1  0  0  0  0
 51 52  1  0  0  0  0
 54 26  1  0  0  0  0
 54 56  1  0  0  0  0
 55 54  1  0  0  0  0
 57 54  1  0  0  0  0
 58 60  1  0  0  0  0
 59 58  1  0  0  0  0
 61 58  1  0  0  0  0
 62 31  1  0  0  0  0
 62 71  1  0  0  0  0
 63 49  1  0  0  0  0
 64 63  1  0  0  0  0
 65 68  1  0  0  0  0
 65 66  1  0  0  0  0
 67 65  1  0  0  0  0
 68 69  1  0  0  0  0
 68 70  1  0  0  0  0
 71 73  1  0  0  0  0
 72 71  1  0  0  0  0
 74 71  1  0  0  0  0
 75 74  1  0  0  0  0
M  CHG  2   3  -1   6  -1
M  END
