1,14,25,32,43,56
 OpenBabel05122313063D

 56 59  0  0  0  0  0  0  0  0999 V2000
    0.6151   -1.5346   -1.5844 O   0  5  0  0  0  0  0  0  0  0  0  0
    1.7263   -2.1832   -1.5751 C   0  0  0  0  0  0  0  0  0  0  0  0
    1.8472   -3.3870   -2.3533 C   0  0  0  0  0  0  0  0  0  0  0  0
    0.9587   -3.6877   -2.9276 H   0  0  0  0  0  0  0  0  0  0  0  0
    3.0083   -4.1425   -2.3631 C   0  0  0  0  0  0  0  0  0  0  0  0
    3.0478   -5.0656   -2.9637 H   0  0  0  0  0  0  0  0  0  0  0  0
    4.1492   -3.7508   -1.6094 C   0  0  0  0  0  0  0  0  0  0  0  0
    5.0638   -4.3606   -1.6248 H   0  0  0  0  0  0  0  0  0  0  0  0
    4.0885   -2.5840   -0.8677 C   0  0  0  0  0  0  0  0  0  0  0  0
    4.9668   -2.2505   -0.2901 H   0  0  0  0  0  0  0  0  0  0  0  0
    2.9133   -1.7685   -0.8262 C   0  0  0  0  0  0  0  0  0  0  0  0
    3.0125   -0.5417   -0.1067 C   0  0  0  0  0  3  0  0  0  0  0  0
    4.0219   -0.3315    0.3105 H   0  0  0  0  0  0  0  0  0  0  0  0
    2.0635    0.3550    0.1029 N   0  0  0  0  0  2  0  0  0  0  0  0
    2.3859    1.6182    0.5972 C   0  0  0  0  0  0  0  0  0  0  0  0
    3.6477    2.2271    0.3576 C   0  0  0  0  0  0  0  0  0  0  0  0
    4.3906    1.6878   -0.2474 H   0  0  0  0  0  0  0  0  0  0  0  0
    3.9435    3.5088    0.8280 C   0  0  0  0  0  0  0  0  0  0  0  0
    4.9307    3.9473    0.6164 H   0  0  0  0  0  0  0  0  0  0  0  0
    2.9859    4.2430    1.5494 C   0  0  0  0  0  0  0  0  0  0  0  0
    3.2166    5.2508    1.9244 H   0  0  0  0  0  0  0  0  0  0  0  0
    1.7288    3.6736    1.7860 C   0  0  0  0  0  0  0  0  0  0  0  0
    0.9683    4.2247    2.3600 H   0  0  0  0  0  0  0  0  0  0  0  0
    1.4144    2.3886    1.3065 C   0  0  0  0  0  0  0  0  0  0  0  0
   -0.2047    1.7052    1.6231 S   0  0  0  0  0  0  0  0  0  0  0  0
   -1.2688    2.8144    0.6093 C   0  0  0  0  0  0  0  0  0  0  0  0
   -2.2475    2.2929    0.5905 H   0  0  0  0  0  0  0  0  0  0  0  0
   -1.4115    3.7722    1.1523 H   0  0  0  0  0  0  0  0  0  0  0  0
   -0.7605    3.1046   -0.7968 C   0  0  0  0  0  0  0  0  0  0  0  0
    0.2017    3.6554   -0.7544 H   0  0  0  0  0  0  0  0  0  0  0  0
   -1.4904    3.7428   -1.3361 H   0  0  0  0  0  0  0  0  0  0  0  0
   -0.3803    1.6583   -1.8643 S   0  0  0  0  0  0  0  0  0  0  0  0
   -2.0060    1.0231   -2.2547 C   0  0  0  0  0  0  0  0  0  0  0  0
   -2.6155    1.4326   -3.4535 C   0  0  0  0  0  0  0  0  0  0  0  0
   -2.0868    2.1585   -4.0893 H   0  0  0  0  0  0  0  0  0  0  0  0
   -3.8654    0.9254   -3.8334 C   0  0  0  0  0  0  0  0  0  0  0  0
   -4.3317    1.2521   -4.7744 H   0  0  0  0  0  0  0  0  0  0  0  0
   -4.4980   -0.0229   -3.0127 C   0  0  0  0  0  0  0  0  0  0  0  0
   -5.4655   -0.4540   -3.3122 H   0  0  0  0  0  0  0  0  0  0  0  0
   -3.8945   -0.4510   -1.8259 C   0  0  0  0  0  0  0  0  0  0  0  0
   -4.3742   -1.2351   -1.2224 H   0  0  0  0  0  0  0  0  0  0  0  0
   -2.6441    0.0698   -1.4070 C   0  0  0  0  0  0  0  0  0  0  0  0
   -2.0144   -0.3486   -0.2314 N   0  0  0  0  0  2  0  0  0  0  0  0
   -2.7383   -0.7148    0.8132 C   0  0  0  0  0  3  0  0  0  0  0  0
   -3.8356   -0.5391    0.7581 H   0  0  0  0  0  0  0  0  0  0  0  0
   -2.2958   -1.2960    2.0371 C   0  0  0  0  0  0  0  0  0  0  0  0
   -3.3010   -1.5245    3.0319 C   0  0  0  0  0  0  0  0  0  0  0  0
   -4.3317   -1.2040    2.8050 H   0  0  0  0  0  0  0  0  0  0  0  0
   -3.0162   -2.1330    4.2408 C   0  0  0  0  0  0  0  0  0  0  0  0
   -3.8061   -2.2976    4.9875 H   0  0  0  0  0  0  0  0  0  0  0  0
   -1.6811   -2.5549    4.4977 C   0  0  0  0  0  0  0  0  0  0  0  0
   -1.4448   -3.0480    5.4544 H   0  0  0  0  0  0  0  0  0  0  0  0
   -0.6752   -2.3581    3.5677 C   0  0  0  0  0  0  0  0  0  0  0  0
    0.3592   -2.6793    3.7587 H   0  0  0  0  0  0  0  0  0  0  0  0
   -0.9164   -1.7109    2.3033 C   0  0  0  0  0  0  0  0  0  0  0  0
    0.0599   -1.5378    1.4907 O   0  5  0  0  0  0  0  0  0  0  0  0
  1  2  1  0  0  0  0
  2 11  1  0  0  0  0
  3  2  2  0  0  0  0
  4  3  1  0  0  0  0
  5  3  1  0  0  0  0
  5  7  2  0  0  0  0
  6  5  1  0  0  0  0
  7  9  1  0  0  0  0
  8  7  1  0  0  0  0
  9 11  2  0  0  0  0
  9 10  1  0  0  0  0
 11 12  1  0  0  0  0
 12 14  1  0  0  0  0
 12 13  1  0  0  0  0
 14 15  1  0  0  0  0
 15 24  1  0  0  0  0
 16 15  2  0  0  0  0
 16 18  1  0  0  0  0
 17 16  1  0  0  0  0
 18 20  2  0  0  0  0
 19 18  1  0  0  0  0
 20 22  1  0  0  0  0
 20 21  1  0  0  0  0
 22 23  1  0  0  0  0
 24 25  1  0  0  0  0
 24 22  2  0  0  0  0
 26 28  1  0  0  0  0
 26 25  1  0  0  0  0
 27 26  1  0  0  0  0
 29 30  1  0  0  0  0
 29 26  1  0  0  0  0
 31 29  1  0  0  0  0
 32 29  1  0  0  0  0
 33 32  1  0  0  0  0
 33 42  1  0  0  0  0
 34 33  2  0  0  0  0
 35 34  1  0  0  0  0
 36 34  1  0  0  0  0
 36 38  2  0  0  0  0
 37 36  1  0  0  0  0
 38 40  1  0  0  0  0
 39 38  1  0  0  0  0
 40 42  2  0  0  0  0
 40 41  1  0  0  0  0
 42 43  1  0  0  0  0
 43 44  1  0  0  0  0
 44 46  1  0  0  0  0
 45 44  1  0  0  0  0
 46 55  2  0  0  0  0
 46 47  1  0  0  0  0
 47 49  2  0  0  0  0
 48 47  1  0  0  0  0
 49 51  1  0  0  0  0
 49 50  1  0  0  0  0
 51 52  1  0  0  0  0
 53 54  1  0  0  0  0
 53 51  2  0  0  0  0
 55 53  1  0  0  0  0
 56 55  1  0  0  0  0
M  CHG  2   1  -1  56  -1
M  END
