1,2,3,5,8,9
 OpenBabel05122313063D

 58 59  0  0  0  0  0  0  0  0999 V2000
    0.1285   -1.6635   -1.6166 S   0  0  0  0  0  0  0  0  0  0  0  0
   -0.1284   -1.6635    1.6166 S   0  0  0  0  0  0  0  0  0  0  0  0
   -0.0039    1.4521    1.3968 O   0  5  0  0  0  0  0  0  0  0  0  0
    3.4094    3.4353    2.8252 O   0  0  0  0  0  0  0  0  0  0  0  0
    0.0038    1.4520   -1.3969 O   0  5  0  0  0  0  0  0  0  0  0  0
   -3.4094    3.4356   -2.8248 O   0  0  0  0  0  0  0  0  0  0  0  0
    2.8044    0.7921    0.5784 N   0  0  0  0  0  2  0  0  0  0  0  0
    2.0244    0.0010   -0.0753 N   0  0  0  0  0  2  0  0  0  0  0  0
   -2.0244    0.0009    0.0753 N   0  0  0  0  0  2  0  0  0  0  0  0
   -2.8045    0.7920   -0.5784 N   0  0  0  0  0  2  0  0  0  0  0  0
    0.7154    3.1551    2.8224 C   0  0  0  0  0  0  0  0  0  0  0  0
   -0.3806    3.1872    2.9648 H   0  0  0  0  0  0  0  0  0  0  0  0
    1.0939    4.1324    2.4659 H   0  0  0  0  0  0  0  0  0  0  0  0
    1.2364    2.9865    3.7841 H   0  0  0  0  0  0  0  0  0  0  0  0
    1.0276    2.0641    1.8331 C   0  0  0  0  0  0  0  0  0  0  0  0
    2.3934    1.7503    1.4427 C   0  0  0  0  0  0  0  0  0  0  0  0
    3.5447    2.5149    2.0180 C   0  0  0  0  0  0  0  0  0  0  0  0
    4.9421    2.1117    1.5592 C   0  0  0  0  0  0  0  0  0  0  0  0
    5.6688    2.7696    2.0689 H   0  0  0  0  0  0  0  0  0  0  0  0
    5.0457    2.2084    0.4605 H   0  0  0  0  0  0  0  0  0  0  0  0
    5.1529    1.0516    1.8028 H   0  0  0  0  0  0  0  0  0  0  0  0
    2.6997   -0.9185   -0.9275 C   0  0  0  0  0  0  0  0  0  0  0  0
    4.1081   -0.9879   -1.0307 C   0  0  0  0  0  0  0  0  0  0  0  0
    4.7026   -0.2895   -0.4279 H   0  0  0  0  0  0  0  0  0  0  0  0
    4.7077   -1.9228   -1.8787 C   0  0  0  0  0  0  0  0  0  0  0  0
    5.8056   -1.9629   -1.9452 H   0  0  0  0  0  0  0  0  0  0  0  0
    3.9278   -2.8037   -2.6536 C   0  0  0  0  0  0  0  0  0  0  0  0
    4.4071   -3.5298   -3.3264 H   0  0  0  0  0  0  0  0  0  0  0  0
    2.5310   -2.7352   -2.5738 C   0  0  0  0  0  0  0  0  0  0  0  0
    1.9003   -3.3938   -3.1911 H   0  0  0  0  0  0  0  0  0  0  0  0
    1.9258   -1.8128   -1.7057 C   0  0  0  0  0  0  0  0  0  0  0  0
   -0.2761   -3.2376   -0.7029 C   0  0  0  0  0  0  0  0  0  0  0  0
   -1.3847   -3.2789   -0.7103 H   0  0  0  0  0  0  0  0  0  0  0  0
    0.1163   -4.0832   -1.3023 H   0  0  0  0  0  0  0  0  0  0  0  0
    0.2762   -3.2375    0.7030 C   0  0  0  0  0  0  0  0  0  0  0  0
    1.3848   -3.2788    0.7104 H   0  0  0  0  0  0  0  0  0  0  0  0
   -0.1161   -4.0831    1.3024 H   0  0  0  0  0  0  0  0  0  0  0  0
   -1.9258   -1.8129    1.7056 C   0  0  0  0  0  0  0  0  0  0  0  0
   -2.5309   -2.7353    2.5737 C   0  0  0  0  0  0  0  0  0  0  0  0
   -1.9002   -3.3938    3.1911 H   0  0  0  0  0  0  0  0  0  0  0  0
   -3.9278   -2.8038    2.6536 C   0  0  0  0  0  0  0  0  0  0  0  0
   -4.4071   -3.5299    3.3264 H   0  0  0  0  0  0  0  0  0  0  0  0
   -4.7076   -1.9230    1.8787 C   0  0  0  0  0  0  0  0  0  0  0  0
   -5.8055   -1.9631    1.9451 H   0  0  0  0  0  0  0  0  0  0  0  0
   -4.1081   -0.9880    1.0306 C   0  0  0  0  0  0  0  0  0  0  0  0
   -4.7026   -0.2896    0.4278 H   0  0  0  0  0  0  0  0  0  0  0  0
   -2.6996   -0.9186    0.9274 C   0  0  0  0  0  0  0  0  0  0  0  0
   -2.3934    1.7503   -1.4426 C   0  0  0  0  0  0  0  0  0  0  0  0
   -1.0276    2.0640   -1.8331 C   0  0  0  0  0  0  0  0  0  0  0  0
   -0.7154    3.1550   -2.8226 C   0  0  0  0  0  0  0  0  0  0  0  0
    0.3805    3.1867   -2.9654 H   0  0  0  0  0  0  0  0  0  0  0  0
   -1.0935    4.1324   -2.4658 H   0  0  0  0  0  0  0  0  0  0  0  0
   -1.2370    2.9866   -3.7840 H   0  0  0  0  0  0  0  0  0  0  0  0
   -3.5448    2.5151   -2.0178 C   0  0  0  0  0  0  0  0  0  0  0  0
   -4.9422    2.1115   -1.5593 C   0  0  0  0  0  0  0  0  0  0  0  0
   -5.6689    2.7693   -2.0692 H   0  0  0  0  0  0  0  0  0  0  0  0
   -5.0460    2.2083   -0.4606 H   0  0  0  0  0  0  0  0  0  0  0  0
   -5.1527    1.0514   -1.8028 H   0  0  0  0  0  0  0  0  0  0  0  0
  1 32  1  0  0  0  0
  2 38  1  0  0  0  0
  3 15  1  0  0  0  0
  6 54  2  0  0  0  0
  7 16  1  0  0  0  0
  8  7  1  0  0  0  0
  9 47  1  0  0  0  0
 10  9  1  0  0  0  0
 11 12  1  0  0  0  0
 11 14  1  0  0  0  0
 13 11  1  0  0  0  0
 15 11  1  0  0  0  0
 16 15  2  0  0  0  0
 16 17  1  0  0  0  0
 17  4  2  0  0  0  0
 18 21  1  0  0  0  0
 18 17  1  0  0  0  0
 18 19  1  0  0  0  0
 20 18  1  0  0  0  0
 22  8  1  0  0  0  0
 23 22  1  0  0  0  0
 23 24  1  0  0  0  0
 25 23  2  0  0  0  0
 26 25  1  0  0  0  0
 27 29  2  0  0  0  0
 27 25  1  0  0  0  0
 28 27  1  0  0  0  0
 29 31  1  0  0  0  0
 30 29  1  0  0  0  0
 31  1  1  0  0  0  0
 31 22  2  0  0  0  0
 32 35  1  0  0  0  0
 33 32  1  0  0  0  0
 34 32  1  0  0  0  0
 35 36  1  0  0  0  0
 35 37  1  0  0  0  0
 35  2  1  0  0  0  0
 38 39  1  0  0  0  0
 39 41  2  0  0  0  0
 39 40  1  0  0  0  0
 41 42  1  0  0  0  0
 43 44  1  0  0  0  0
 43 41  1  0  0  0  0
 45 43  2  0  0  0  0
 46 45  1  0  0  0  0
 47 45  1  0  0  0  0
 47 38  2  0  0  0  0
 48 10  1  0  0  0  0
 49 48  2  0  0  0  0
 49  5  1  0  0  0  0
 50 52  1  0  0  0  0
 50 49  1  0  0  0  0
 51 50  1  0  0  0  0
 53 50  1  0  0  0  0
 54 55  1  0  0  0  0
 54 48  1  0  0  0  0
 55 57  1  0  0  0  0
 56 55  1  0  0  0  0
 58 55  1  0  0  0  0
M  CHG  2   3  -1   5  -1
M  END
