1,2,3,5,7
 OpenBabel05122313063D

 43 43  0  0  0  0  0  0  0  0999 V2000
    1.0788   -1.7433    0.9904 S   0  0  0  0  0  0  0  0  0  0  0  0
   -1.2063   -1.4858   -1.3619 S   0  0  0  0  0  0  0  0  0  0  0  0
   -1.4556   -0.3233    1.2262 O   0  5  0  0  0  0  0  0  0  0  0  0
   -3.3102   -1.3823    1.9567 O   0  0  0  0  0  0  0  0  0  0  0  0
    1.4921   -0.1281   -1.3877 O   0  5  0  0  0  0  0  0  0  0  0  0
    3.6524   -0.6288   -1.7956 O   0  0  0  0  0  0  0  0  0  0  0  0
   -0.7766    1.4969   -0.9708 N   0  0  0  0  0  0  0  0  0  0  0  0
    1.8205   -0.6236    2.2661 C   0  0  0  0  0  0  0  0  0  0  0  0
    1.0355   -0.5543    3.0456 H   0  0  0  0  0  0  0  0  0  0  0  0
    2.7171   -1.0970    2.7153 H   0  0  0  0  0  0  0  0  0  0  0  0
    2.1500    0.7256    1.6489 C   0  0  0  0  0  0  0  0  0  0  0  0
    2.5144    1.4316    2.4318 H   0  0  0  0  0  0  0  0  0  0  0  0
    2.9719    0.6046    0.9162 H   0  0  0  0  0  0  0  0  0  0  0  0
    0.9853    1.3094    0.9305 N   0  0  0  0  0  0  0  0  0  0  0  0
    0.0248    1.9461    1.8782 C   0  0  0  0  0  0  0  0  0  0  0  0
    0.5924    2.5897    2.5913 H   0  0  0  0  0  0  0  0  0  0  0  0
   -0.4837    1.1372    2.4329 H   0  0  0  0  0  0  0  0  0  0  0  0
   -1.0163    2.8130    1.1630 C   0  0  0  0  0  0  0  0  0  0  0  0
   -1.7944    3.0855    1.9041 H   0  0  0  0  0  0  0  0  0  0  0  0
   -0.5528    3.7729    0.8531 H   0  0  0  0  0  0  0  0  0  0  0  0
   -1.7209    2.1737   -0.0375 C   0  0  0  0  0  0  0  0  0  0  0  0
   -2.2690    2.9691   -0.5959 H   0  0  0  0  0  0  0  0  0  0  0  0
   -2.4453    1.4207    0.3161 H   0  0  0  0  0  0  0  0  0  0  0  0
   -1.4617    1.0824   -2.2234 C   0  0  0  0  0  0  0  0  0  0  0  0
   -0.6708    0.8440   -2.9625 H   0  0  0  0  0  0  0  0  0  0  0  0
   -2.0694    1.9237   -2.6336 H   0  0  0  0  0  0  0  0  0  0  0  0
   -2.3329   -0.1453   -2.0059 C   0  0  0  0  0  0  0  0  0  0  0  0
   -2.8038   -0.4723   -2.9544 H   0  0  0  0  0  0  0  0  0  0  0  0
   -3.1318    0.0274   -1.2570 H   0  0  0  0  0  0  0  0  0  0  0  0
   -2.2736   -2.1985   -0.0469 C   0  0  0  0  0  0  0  0  0  0  0  0
   -3.2698   -2.4896   -0.4332 H   0  0  0  0  0  0  0  0  0  0  0  0
   -1.7480   -3.1219    0.2726 H   0  0  0  0  0  0  0  0  0  0  0  0
   -2.3898   -1.2350    1.1570 C   0  0  0  0  0  0  0  0  0  0  0  0
    0.3920    2.3765   -1.2507 C   0  0  0  0  0  0  0  0  0  0  0  0
    0.0538    3.4211   -1.4364 H   0  0  0  0  0  0  0  0  0  0  0  0
    0.8728    1.9871   -2.1634 H   0  0  0  0  0  0  0  0  0  0  0  0
    1.4248    2.2932   -0.1021 C   0  0  0  0  0  0  0  0  0  0  0  0
    1.6128    3.2834    0.3698 H   0  0  0  0  0  0  0  0  0  0  0  0
    2.3758    1.9282   -0.5259 H   0  0  0  0  0  0  0  0  0  0  0  0
    2.4851   -1.9613   -0.1752 C   0  0  0  0  0  0  0  0  0  0  0  0
    3.4395   -2.1058    0.3676 H   0  0  0  0  0  0  0  0  0  0  0  0
    2.2632   -2.9045   -0.7159 H   0  0  0  0  0  0  0  0  0  0  0  0
    2.5869   -0.8118   -1.2093 C   0  0  0  0  0  0  0  0  0  0  0  0
  1  8  1  0  0  0  0
  2 30  1  0  0  0  0
  5 43  1  0  0  0  0
  6 43  2  0  0  0  0
  7 21  1  0  0  0  0
  8 10  1  0  0  0  0
  8  9  1  0  0  0  0
 11  8  1  0  0  0  0
 11 12  1  0  0  0  0
 13 11  1  0  0  0  0
 14 11  1  0  0  0  0
 14 15  1  0  0  0  0
 15 17  1  0  0  0  0
 15 16  1  0  0  0  0
 18 15  1  0  0  0  0
 18 19  1  0  0  0  0
 20 18  1  0  0  0  0
 21 23  1  0  0  0  0
 21 18  1  0  0  0  0
 22 21  1  0  0  0  0
 24 27  1  0  0  0  0
 24  7  1  0  0  0  0
 25 24  1  0  0  0  0
 26 24  1  0  0  0  0
 27  2  1  0  0  0  0
 27 29  1  0  0  0  0
 28 27  1  0  0  0  0
 30 32  1  0  0  0  0
 30 33  1  0  0  0  0
 31 30  1  0  0  0  0
 33  3  1  0  0  0  0
 33  4  2  0  0  0  0
 34  7  1  0  0  0  0
 34 37  1  0  0  0  0
 35 34  1  0  0  0  0
 36 34  1  0  0  0  0
 37 38  1  0  0  0  0
 37 14  1  0  0  0  0
 39 37  1  0  0  0  0
 40 41  1  0  0  0  0
 40  1  1  0  0  0  0
 42 40  1  0  0  0  0
 43 40  1  0  0  0  0
M  CHG  2   3  -1   5  -1
M  END
