1,2,3,4,7,8
 OpenBabel05122313063D

 47 48  0  0  0  0  0  0  0  0999 V2000
   -0.8500   -0.7742   -1.5156 S   0  0  0  0  0  0  0  0  0  0  0  0
    1.0285   -0.9800    1.3968 S   0  0  0  0  0  0  0  0  0  0  0  0
    0.4124    1.7617    1.4926 O   0  0  0  0  0  1  0  0  0  0  0  0
   -0.4637    1.9806   -1.0839 O   0  0  0  0  0  1  0  0  0  0  0  0
   -0.6789    1.8606    2.2610 N   0  0  0  0  0  0  0  0  0  0  0  0
   -1.7817    1.2681    1.9761 N   0  0  0  0  0  2  0  0  0  0  0  0
   -1.6626    0.5242    0.8991 N   0  0  0  0  0  2  0  0  0  0  0  0
    1.6793    0.7623   -0.7753 N   0  0  0  0  0  2  0  0  0  0  0  0
    1.7287    1.6796   -1.7122 N   0  0  0  0  0  2  0  0  0  0  0  0
    0.5943    2.2618   -1.8601 N   0  0  0  0  0  0  0  0  0  0  0  0
   -0.5549    2.6911    3.4469 C   0  0  0  0  0  0  0  0  0  0  0  0
   -2.7763   -0.0694    0.3174 C   0  0  0  0  0  0  0  0  0  0  0  0
   -4.0919   -0.0181    0.8302 C   0  0  0  0  0  0  0  0  0  0  0  0
   -5.1234   -0.6639    0.1415 C   0  0  0  0  0  0  0  0  0  0  0  0
   -4.8804   -1.3556   -1.0616 C   0  0  0  0  0  0  0  0  0  0  0  0
   -3.5816   -1.4010   -1.5877 C   0  0  0  0  0  0  0  0  0  0  0  0
   -2.5408   -0.7695   -0.8926 C   0  0  0  0  0  0  0  0  0  0  0  0
   -0.3927   -2.5383   -1.2325 C   0  0  0  0  0  0  0  0  0  0  0  0
   -0.5897   -3.0348    0.1950 C   0  0  0  0  0  0  0  0  0  0  0  0
    0.5660   -2.7623    1.1504 C   0  0  0  0  0  0  0  0  0  0  0  0
    2.6497   -0.9075    0.6111 C   0  0  0  0  0  0  0  0  0  0  0  0
    3.7243   -1.6886    1.0613 C   0  0  0  0  0  0  0  0  0  0  0  0
    4.9800   -1.5402    0.4558 C   0  0  0  0  0  0  0  0  0  0  0  0
    5.1538   -0.5950   -0.5740 C   0  0  0  0  0  0  0  0  0  0  0  0
    4.0916    0.2011   -1.0123 C   0  0  0  0  0  0  0  0  0  0  0  0
    2.8171    0.0470   -0.4221 C   0  0  0  0  0  0  0  0  0  0  0  0
    0.3894    3.2765   -2.8787 C   0  0  0  0  0  0  0  0  0  0  0  0
   -1.5310    2.7126    3.9598 H   0  0  0  0  0  0  0  0  0  0  0  0
    0.2259    2.2638    4.1060 H   0  0  0  0  0  0  0  0  0  0  0  0
   -0.2510    3.7099    3.1383 H   0  0  0  0  0  0  0  0  0  0  0  0
   -4.2804    0.5325    1.7617 H   0  0  0  0  0  0  0  0  0  0  0  0
   -6.1456   -0.6207    0.5463 H   0  0  0  0  0  0  0  0  0  0  0  0
   -5.7056   -1.8453   -1.5976 H   0  0  0  0  0  0  0  0  0  0  0  0
   -3.3812   -1.9163   -2.5393 H   0  0  0  0  0  0  0  0  0  0  0  0
    0.6575   -2.6194   -1.5827 H   0  0  0  0  0  0  0  0  0  0  0  0
   -1.0260   -3.1022   -1.9462 H   0  0  0  0  0  0  0  0  0  0  0  0
   -0.7169   -4.1385    0.1630 H   0  0  0  0  0  0  0  0  0  0  0  0
   -1.5463   -2.6427    0.6012 H   0  0  0  0  0  0  0  0  0  0  0  0
    0.3208   -3.1295    2.1661 H   0  0  0  0  0  0  0  0  0  0  0  0
    1.4969   -3.2611    0.8159 H   0  0  0  0  0  0  0  0  0  0  0  0
    3.5872   -2.3995    1.8902 H   0  0  0  0  0  0  0  0  0  0  0  0
    5.8278   -2.1488    0.8007 H   0  0  0  0  0  0  0  0  0  0  0  0
    6.1429   -0.4729   -1.0398 H   0  0  0  0  0  0  0  0  0  0  0  0
    4.2222    0.9446   -1.8101 H   0  0  0  0  0  0  0  0  0  0  0  0
    1.3401    3.4228   -3.4181 H   0  0  0  0  0  0  0  0  0  0  0  0
   -0.4058    2.9366   -3.5708 H   0  0  0  0  0  0  0  0  0  0  0  0
    0.0678    4.2165   -2.3899 H   0  0  0  0  0  0  0  0  0  0  0  0
  1 18  1  0  0  0  0
  1 17  1  0  0  0  0
  3  5  1  0  0  0  0
  5 11  1  0  0  0  0
  6  5  1  0  0  0  0
  7  6  1  0  0  0  0
  8 26  1  0  0  0  0
  9  8  1  0  0  0  0
 10  9  1  0  0  0  0
 10  4  1  0  0  0  0
 11 28  1  0  0  0  0
 11 29  1  0  0  0  0
 12 13  1  0  0  0  0
 12  7  1  0  0  0  0
 13 31  1  0  0  0  0
 14 32  1  0  0  0  0
 14 13  2  0  0  0  0
 15 14  1  0  0  0  0
 16 15  2  0  0  0  0
 16 17  1  0  0  0  0
 17 12  2  0  0  0  0
 18 19  1  0  0  0  0
 19 38  1  0  0  0  0
 19 20  1  0  0  0  0
 20  2  1  0  0  0  0
 20 39  1  0  0  0  0
 21 22  1  0  0  0  0
 21  2  1  0  0  0  0
 22 41  1  0  0  0  0
 23 42  1  0  0  0  0
 23 22  2  0  0  0  0
 24 23  1  0  0  0  0
 25 24  2  0  0  0  0
 25 26  1  0  0  0  0
 26 21  2  0  0  0  0
 27 47  1  0  0  0  0
 27 10  1  0  0  0  0
 30 11  1  0  0  0  0
 33 15  1  0  0  0  0
 34 16  1  0  0  0  0
 35 18  1  0  0  0  0
 36 18  1  0  0  0  0
 37 19  1  0  0  0  0
 40 20  1  0  0  0  0
 43 24  1  0  0  0  0
 44 25  1  0  0  0  0
 45 27  1  0  0  0  0
 46 27  1  0  0  0  0
M  END
