1,2,3,6,8,9
q = -2.0, confidence = 0.864

 58 59  0  0  1  0  0  0  0  0999 V2000
   -0.1077   -1.8280   -1.4379 S   0  0  0  0  0  0  0  0  0  0  0  0
    0.2466   -1.7280    1.9645 S   0  0  0  0  0  0  0  0  0  0  0  0
    0.0927    1.4667    1.0407 O   0  5  0  0  0  0  0  0  0  0  0  0
   -3.1209    3.4418    2.8746 O   0  0  0  0  0  0  0  0  0  0  0  0
    3.1050    3.8816   -2.3339 O   0  0  0  0  0  0  0  0  0  0  0  0
    0.0194    1.1410   -1.9516 O   0  0  0  0  0  1  0  0  0  0  0  0
   -2.6740    0.7712    0.6175 N   0  0  0  0  0  2  0  0  0  0  0  0
   -1.9266   -0.0424   -0.0407 N   0  0  0  0  0  2  0  0  0  0  0  0
    1.8692   -0.0856   -0.1045 N   0  0  0  0  0  2  0  0  0  0  0  0
    2.5867    0.8477   -0.6454 N   0  0  0  0  0  0  0  0  0  0  0  0
   -0.8435    2.1254    1.5819 C   0  0  0  0  0  0  0  0  0  0  0  0
   -0.4158    3.3247    2.3824 C   0  0  0  0  0  0  0  0  0  0  0  0
    0.6815    3.4269    2.2970 H   0  0  0  0  0  0  0  0  0  0  0  0
   -0.7218    3.2152    3.4409 H   0  0  0  0  0  0  0  0  0  0  0  0
   -0.9301    4.2405    2.0329 H   0  0  0  0  0  0  0  0  0  0  0  0
   -2.2415    1.7619    1.4159 C   0  0  0  0  0  0  0  0  0  0  0  0
   -3.3377    2.5128    2.0967 C   0  0  0  0  0  0  0  0  0  0  0  0
   -4.7647    2.0771    1.7930 C   0  0  0  0  0  0  0  0  0  0  0  0
   -5.4513    2.7145    2.3783 H   0  0  0  0  0  0  0  0  0  0  0  0
   -4.9215    1.0110    2.0506 H   0  0  0  0  0  0  0  0  0  0  0  0
   -4.9852    2.1762    0.7113 H   0  0  0  0  0  0  0  0  0  0  0  0
   -2.6383   -0.9464   -0.8750 C   0  0  0  0  0  0  0  0  0  0  0  0
   -4.0450   -0.9474   -1.0067 C   0  0  0  0  0  0  0  0  0  0  0  0
   -4.6224   -0.2102   -0.4343 H   0  0  0  0  0  0  0  0  0  0  0  0
   -3.9081   -2.8043   -2.5880 C   0  0  0  0  0  0  0  0  0  0  0  0
   -4.4046   -3.5187   -3.2608 H   0  0  0  0  0  0  0  0  0  0  0  0
   -4.6648   -1.8723   -1.8520 C   0  0  0  0  0  0  0  0  0  0  0  0
   -5.7611   -1.8625   -1.9473 H   0  0  0  0  0  0  0  0  0  0  0  0
   -2.5116   -2.8037   -2.4721 C   0  0  0  0  0  0  0  0  0  0  0  0
   -1.8969   -3.5077   -3.0535 H   0  0  0  0  0  0  0  0  0  0  0  0
   -1.8883   -1.8860   -1.6132 C   0  0  0  0  0  0  0  0  0  0  0  0
    0.1459   -3.3172   -0.3746 C   0  0  0  0  0  0  0  0  0  0  0  0
   -0.3131   -4.1777   -0.9022 H   0  0  0  0  0  0  0  0  0  0  0  0
    1.2453   -3.4629   -0.3656 H   0  0  0  0  0  0  0  0  0  0  0  0
   -0.4017   -3.1828    1.0363 C   0  0  0  0  0  0  0  0  0  0  0  0
   -0.1676   -4.1050    1.6076 H   0  0  0  0  0  0  0  0  0  0  0  0
   -1.5040   -3.0533    1.0348 H   0  0  0  0  0  0  0  0  0  0  0  0
    1.9901   -1.8825    1.5909 C   0  0  0  0  0  0  0  0  0  0  0  0
    2.7453   -2.8384    2.2975 C   0  0  0  0  0  0  0  0  0  0  0  0
    2.2314   -3.4593    3.0472 H   0  0  0  0  0  0  0  0  0  0  0  0
    4.1187   -2.9824    2.0718 C   0  0  0  0  0  0  0  0  0  0  0  0
    4.6976   -3.7325    2.6301 H   0  0  0  0  0  0  0  0  0  0  0  0
    4.7448   -2.1400    1.1337 C   0  0  0  0  0  0  0  0  0  0  0  0
    5.8258   -2.2322    0.9465 H   0  0  0  0  0  0  0  0  0  0  0  0
    4.0111   -1.1852    0.4294 C   0  0  0  0  0  0  0  0  0  0  0  0
    4.4903   -0.5233   -0.3031 H   0  0  0  0  0  0  0  0  0  0  0  0
    2.6140   -1.0347    0.6327 C   0  0  0  0  0  0  0  0  0  0  0  0
    2.1903    1.8858   -1.3786 C   0  0  0  0  0  0  0  0  0  0  0  0
    3.2934    2.8362   -1.7094 C   0  0  0  0  0  0  0  0  0  0  0  0
    4.6974    2.4645   -1.2469 C   0  0  0  0  0  0  0  0  0  0  0  0
    5.3852    3.2735   -1.5523 H   0  0  0  0  0  0  0  0  0  0  0  0
    5.0214    1.5070   -1.7026 H   0  0  0  0  0  0  0  0  0  0  0  0
    4.7343    2.3194   -0.1499 H   0  0  0  0  0  0  0  0  0  0  0  0
    0.8088    2.1034   -1.8705 C   0  0  2  0  0  3  0  0  0  0  0  0
    0.3378    3.4853   -2.2520 C   0  0  0  0  0  0  0  0  0  0  0  0
   -0.7477    3.4361   -2.4588 H   0  0  0  0  0  0  0  0  0  0  0  0
    0.8948    3.8547   -3.1349 H   0  0  0  0  0  0  0  0  0  0  0  0
    0.5536    4.2201   -1.4501 H   0  0  0  0  0  0  0  0  0  0  0  0
  1 32  1  0  0  0  0
  3 11  1  0  0  0  0
  5 49  2  0  0  0  0
  7 16  1  0  0  0  0
  8  7  1  0  0  0  0
  9 47  1  0  0  0  0
 10  9  1  0  0  0  0
 11 12  1  0  0  0  0
 12 14  1  0  0  0  0
 13 12  1  0  0  0  0
 15 12  1  0  0  0  0
 16 11  2  0  0  0  0
 16 17  1  0  0  0  0
 17  4  2  0  0  0  0
 18 20  1  0  0  0  0
 18 17  1  0  0  0  0
 18 19  1  0  0  0  0
 21 18  1  0  0  0  0
 22  8  1  0  0  0  0
 23 22  1  0  0  0  0
 23 24  1  0  0  0  0
 25 29  2  0  0  0  0
 25 27  1  0  0  0  0
 26 25  1  0  0  0  0
 27 23  2  0  0  0  0
 28 27  1  0  0  0  0
 29 31  1  0  0  0  0
 30 29  1  0  0  0  0
 31  1  1  0  0  0  0
 31 22  2  0  0  0  0
 32 34  1  0  0  0  0
 32 35  1  0  0  0  0
 33 32  1  0  0  0  0
 35 36  1  0  0  0  0
 35  2  1  0  0  0  0
 37 35  1  0  0  0  0
 38  2  1  0  0  0  0
 38 39  1  0  0  0  0
 39 40  1  0  0  0  0
 41 39  2  0  0  0  0
 41 42  1  0  0  0  0
 43 41  1  0  0  0  0
 44 43  1  0  0  0  0
 45 47  1  0  0  0  0
 45 43  2  0  0  0  0
 46 45  1  0  0  0  0
 47 38  2  0  0  0  0
 48 10  2  0  0  0  0
 49 48  1  0  0  0  0
 49 50  1  0  0  0  0
 50 53  1  0  0  0  0
 51 50  1  0  0  0  0
 52 50  1  0  0  0  0
 54  6  1  1  0  0  0
 54 48  1  0  0  0  0
 55 54  1  0  0  0  0
 55 58  1  0  0  0  0
 56 55  1  0  0  0  0
 57 55  1  0  0  0  0
M  CHG  1   3  -1
M  END
