1,2,13,23
 OpenBabel05122313063D

 31 32  0  0  1  0  0  0  0  0999 V2000
    0.0003    2.4594    0.0006 Si  0  0  0  0  0  0  0  0  0  0  0  0
    0.6851    0.3585   -2.2987 S   0  0  0  0  0  1  0  0  0  0  0  0
   -0.6861    0.3581    2.2989 S   0  0  0  0  0  1  0  0  0  0  0  0
    2.0109    1.1514   -1.4971 C   0  0  2  0  0  3  0  0  0  0  0  0
    3.2851    1.4792   -2.0050 C   0  0  0  0  0  0  0  0  0  0  0  0
    3.5323    1.2591   -3.0551 H   0  0  0  0  0  0  0  0  0  0  0  0
    4.2186    2.0931   -1.1572 C   0  0  0  0  0  0  0  0  0  0  0  0
    5.2045    2.3818   -1.5556 H   0  0  0  0  0  0  0  0  0  0  0  0
    3.9123    2.3529    0.1973 C   0  0  0  0  0  0  0  0  0  0  0  0
    4.6604    2.8341    0.8459 H   0  0  0  0  0  0  0  0  0  0  0  0
    2.6576    2.0002    0.7117 C   0  0  0  0  0  0  0  0  0  0  0  0
    2.4204    2.2128    1.7667 H   0  0  0  0  0  0  0  0  0  0  0  0
    1.6666    1.4184   -0.1254 C   0  0  1  0  0  3  0  0  0  0  0  0
   -2.0113    1.1514    1.4967 C   0  0  0  0  0  0  0  0  0  0  0  0
   -3.2857    1.4793    2.0041 C   0  0  0  0  0  0  0  0  0  0  0  0
   -3.5335    1.2590    3.0540 H   0  0  0  0  0  0  0  0  0  0  0  0
   -4.2187    2.0936    1.1560 C   0  0  0  0  0  3  0  0  0  0  0  0
   -5.2047    2.3824    1.5540 H   0  0  0  0  0  0  0  0  0  0  0  0
   -3.9116    2.3536   -0.1983 C   0  0  0  0  0  0  0  0  0  0  0  0
   -4.6594    2.8351   -0.8471 H   0  0  0  0  0  0  0  0  0  0  0  0
   -2.6568    2.0007   -0.7122 C   0  0  0  0  0  0  0  0  0  0  0  0
   -2.4191    2.2134   -1.7670 H   0  0  0  0  0  0  0  0  0  0  0  0
   -1.6663    1.4186    0.1253 C   0  0  1  0  0  3  0  0  0  0  0  0
   -0.0381    3.5943   -1.5095 C   0  0  0  0  0  0  0  0  0  0  0  0
   -0.1266    3.0240   -2.4528 H   0  0  0  0  0  0  0  0  0  0  0  0
   -0.8766    4.3143   -1.4240 H   0  0  0  0  0  0  0  0  0  0  0  0
    0.9121    4.1660   -1.5344 H   0  0  0  0  0  0  0  0  0  0  0  0
    0.0391    3.5934    1.5114 C   0  0  0  0  0  0  0  0  0  0  0  0
    0.1277    3.0226    2.4543 H   0  0  0  0  0  0  0  0  0  0  0  0
    0.8777    4.3133    1.4260 H   0  0  0  0  0  0  0  0  0  0  0  0
   -0.9110    4.1653    1.5367 H   0  0  0  0  0  0  0  0  0  0  0  0
  1 28  1  0  0  0  0
  4  2  1  1  0  0  0
  4 13  1  0  0  0  0
  5  4  1  0  0  0  0
  5  7  2  0  0  0  0
  6  5  1  0  0  0  0
  7  9  1  0  0  0  0
  8  7  1  0  0  0  0
  9 11  2  0  0  0  0
  9 10  1  0  0  0  0
 11 12  1  0  0  0  0
 13  1  1  6  0  0  0
 13 11  1  0  0  0  0
 14 15  2  0  0  0  0
 14  3  1  0  0  0  0
 15 16  1  0  0  0  0
 17 18  1  0  0  0  0
 17 15  1  0  0  0  0
 19 17  1  0  0  0  0
 20 19  1  0  0  0  0
 21 19  2  0  0  0  0
 21 23  1  0  0  0  0
 22 21  1  0  0  0  0
 23  1  1  1  0  0  0
 23 14  1  0  0  0  0
 24 26  1  0  0  0  0
 24  1  1  0  0  0  0
 25 24  1  0  0  0  0
 27 24  1  0  0  0  0
 28 31  1  0  0  0  0
 28 29  1  0  0  0  0
 30 28  1  0  0  0  0
M  END
