1,2,3
q = -1.0, confidence = 0.002

 69 72  0  0  0  0  0  0  0  0999 V2000
    2.3598   -0.1030   -0.2733 P   0  0  0  0  0  0  0  0  0  0  0  0
   -2.2712    0.1977   -0.2917 P   0  0  0  0  0  0  0  0  0  0  0  0
   -0.1263   -2.1086   -1.4782 Si  0  0  0  0  0  3  0  0  0  0  0  0
    3.1629   -0.6997   -1.8248 C   0  0  0  0  0  0  0  0  0  0  0  0
    2.7702   -0.0398   -2.6269 H   0  0  0  0  0  0  0  0  0  0  0  0
    4.2563   -0.5424   -1.7211 H   0  0  0  0  0  0  0  0  0  0  0  0
    2.8351   -2.1692   -2.1381 C   0  0  0  0  0  0  0  0  0  0  0  0
    3.5429   -2.4971   -2.9308 H   0  0  0  0  0  0  0  0  0  0  0  0
    3.0750   -2.8067   -1.2591 H   0  0  0  0  0  0  0  0  0  0  0  0
    1.3959   -2.4034   -2.6170 C   0  0  0  0  0  0  0  0  0  0  0  0
    1.2936   -3.4555   -2.9673 H   0  0  0  0  0  0  0  0  0  0  0  0
    1.2074   -1.7589   -3.5025 H   0  0  0  0  0  0  0  0  0  0  0  0
   -0.4029   -3.6595   -0.4014 C   0  0  0  0  0  0  0  0  0  0  0  0
   -0.2860   -4.5708   -1.0256 H   0  0  0  0  0  0  0  0  0  0  0  0
   -1.4291   -3.6643    0.0168 H   0  0  0  0  0  0  0  0  0  0  0  0
    0.3021   -3.7360    0.4503 H   0  0  0  0  0  0  0  0  0  0  0  0
   -1.5542   -2.0478   -2.7617 C   0  0  0  0  0  0  0  0  0  0  0  0
   -1.1698   -1.4129   -3.5880 H   0  0  0  0  0  0  0  0  0  0  0  0
   -1.6277   -3.0841   -3.1634 H   0  0  0  0  0  0  0  0  0  0  0  0
   -2.9553   -1.5592   -2.3681 C   0  0  0  0  0  0  0  0  0  0  0  0
   -3.3794   -2.1870   -1.5528 H   0  0  0  0  0  0  0  0  0  0  0  0
   -3.6458   -1.6947   -3.2294 H   0  0  0  0  0  0  0  0  0  0  0  0
   -3.0196   -0.0763   -1.9627 C   0  0  0  0  0  0  0  0  0  0  0  0
   -4.0641    0.2953   -1.9403 H   0  0  0  0  0  0  0  0  0  0  0  0
   -2.4311    0.5498   -2.6651 H   0  0  0  0  0  0  0  0  0  0  0  0
    3.3126   -0.9730    1.0404 C   0  0  0  0  0  0  0  0  0  0  0  0
    4.4188   -0.3775    1.6794 C   0  0  0  0  0  0  0  0  0  0  0  0
    4.7036    0.6557    1.4305 H   0  0  0  0  0  0  0  0  0  0  0  0
    5.1532   -1.0949    2.6361 C   0  0  0  0  0  0  0  0  0  0  0  0
    6.0126   -0.6182    3.1319 H   0  0  0  0  0  0  0  0  0  0  0  0
    4.7957   -2.4131    2.9605 C   0  0  0  0  0  0  0  0  0  0  0  0
    5.3724   -2.9724    3.7129 H   0  0  0  0  0  0  0  0  0  0  0  0
    3.6970   -3.0137    2.3260 C   0  0  0  0  0  0  0  0  0  0  0  0
    3.4071   -4.0450    2.5784 H   0  0  0  0  0  0  0  0  0  0  0  0
    2.9562   -2.2962    1.3755 C   0  0  0  0  0  0  0  0  0  0  0  0
    2.0850   -2.7616    0.8924 H   0  0  0  0  0  0  0  0  0  0  0  0
    2.8233    1.6588   -0.0683 C   0  0  0  0  0  0  0  0  0  0  0  0
    3.4991    2.3994   -1.0558 C   0  0  0  0  0  0  0  0  0  0  0  0
    3.8333    1.9158   -1.9842 H   0  0  0  0  0  0  0  0  0  0  0  0
    3.7380    3.7694   -0.8637 C   0  0  0  0  0  0  0  0  0  0  0  0
    4.2656    4.3434   -1.6407 H   0  0  0  0  0  0  0  0  0  0  0  0
    3.3015    4.4070    0.3076 C   0  0  0  0  0  0  0  0  0  0  0  0
    3.4871    5.4824    0.4513 H   0  0  0  0  0  0  0  0  0  0  0  0
    2.6200    3.6720    1.2922 C   0  0  0  0  0  0  0  0  0  0  0  0
    2.2665    4.1687    2.2086 H   0  0  0  0  0  0  0  0  0  0  0  0
    2.3761    2.3049    1.1063 C   0  0  0  0  0  0  0  0  0  0  0  0
    1.8250    1.7292    1.8686 H   0  0  0  0  0  0  0  0  0  0  0  0
   -3.4400   -0.7492    0.7768 C   0  0  0  0  0  0  0  0  0  0  0  0
   -3.0053   -1.8387    1.5531 C   0  0  0  0  0  0  0  0  0  0  0  0
   -1.9337   -2.0709    1.5912 H   0  0  0  0  0  0  0  0  0  0  0  0
   -3.9293   -2.6017    2.2850 C   0  0  0  0  0  0  0  0  0  0  0  0
   -3.5752   -3.4523    2.8872 H   0  0  0  0  0  0  0  0  0  0  0  0
   -5.2941   -2.2800    2.2529 C   0  0  0  0  0  0  0  0  0  0  0  0
   -6.0172   -2.8775    2.8290 H   0  0  0  0  0  0  0  0  0  0  0  0
   -5.7364   -1.1910    1.4832 C   0  0  0  0  0  0  0  0  0  0  0  0
   -6.8058   -0.9320    1.4540 H   0  0  0  0  0  0  0  0  0  0  0  0
   -4.8162   -0.4317    0.7472 C   0  0  0  0  0  0  0  0  0  0  0  0
   -5.1732    0.4215    0.1494 H   0  0  0  0  0  0  0  0  0  0  0  0
   -2.5790    1.9610    0.1383 C   0  0  0  0  0  0  0  0  0  0  0  0
   -2.0921    2.9603   -0.7341 C   0  0  0  0  0  0  0  0  0  0  0  0
   -1.5620    2.6697   -1.6560 H   0  0  0  0  0  0  0  0  0  0  0  0
   -2.2336    4.3135   -0.3965 C   0  0  0  0  0  0  0  0  0  0  0  0
   -1.8520    5.0848   -1.0828 H   0  0  0  0  0  0  0  0  0  0  0  0
   -2.8411    4.6846    0.8144 C   0  0  0  0  0  0  0  0  0  0  0  0
   -2.9455    5.7484    1.0775 H   0  0  0  0  0  0  0  0  0  0  0  0
   -3.3030    3.6937    1.6943 C   0  0  0  0  0  0  0  0  0  0  0  0
   -3.7682    3.9765    2.6511 H   0  0  0  0  0  0  0  0  0  0  0  0
   -3.1728    2.3362    1.3620 C   0  0  0  0  0  0  0  0  0  0  0  0
   -3.5310    1.5653    2.0596 H   0  0  0  0  0  0  0  0  0  0  0  0
  1 37  1  0  0  0  0
  1 26  1  0  0  0  0
  2 59  1  0  0  0  0
  2 48  1  0  0  0  0
  3 13  1  0  0  0  0
  4  6  1  0  0  0  0
  4  1  1  0  0  0  0
  5  4  1  0  0  0  0
  7  4  1  0  0  0  0
  7  9  1  0  0  0  0
  8  7  1  0  0  0  0
 10  7  1  0  0  0  0
 10  3  1  0  0  0  0
 11 10  1  0  0  0  0
 12 10  1  0  0  0  0
 13 15  1  0  0  0  0
 13 16  1  0  0  0  0
 14 13  1  0  0  0  0
 17 20  1  0  0  0  0
 17  3  1  0  0  0  0
 18 17  1  0  0  0  0
 19 17  1  0  0  0  0
 20 23  1  0  0  0  0
 20 21  1  0  0  0  0
 22 20  1  0  0  0  0
 23 24  1  0  0  0  0
 23  2  1  0  0  0  0
 25 23  1  0  0  0  0
 26 35  2  0  0  0  0
 26 27  1  0  0  0  0
 27 29  2  0  0  0  0
 28 27  1  0  0  0  0
 29 31  1  0  0  0  0
 29 30  1  0  0  0  0
 31 32  1  0  0  0  0
 33 34  1  0  0  0  0
 33 31  2  0  0  0  0
 35 33  1  0  0  0  0
 36 35  1  0  0  0  0
 37 46  1  0  0  0  0
 38 40  1  0  0  0  0
 38 37  2  0  0  0  0
 39 38  1  0  0  0  0
 40 42  2  0  0  0  0
 41 40  1  0  0  0  0
 42 43  1  0  0  0  0
 42 44  1  0  0  0  0
 44 45  1  0  0  0  0
 46 44  2  0  0  0  0
 46 47  1  0  0  0  0
 48 49  1  0  0  0  0
 49 50  1  0  0  0  0
 49 51  2  0  0  0  0
 51 52  1  0  0  0  0
 53 51  1  0  0  0  0
 53 54  1  0  0  0  0
 55 53  2  0  0  0  0
 56 55  1  0  0  0  0
 57 48  2  0  0  0  0
 57 55  1  0  0  0  0
 58 57  1  0  0  0  0
 59 68  1  0  0  0  0
 60 62  1  0  0  0  0
 60 59  2  0  0  0  0
 61 60  1  0  0  0  0
 62 64  2  0  0  0  0
 63 62  1  0  0  0  0
 64 65  1  0  0  0  0
 64 66  1  0  0  0  0
 66 67  1  0  0  0  0
 68 66  2  0  0  0  0
 68 69  1  0  0  0  0
M  END
