1,2,3
q = -1.0, confidence = 0.02

 65 66  0  0  0  0  0  0  0  0999 V2000
   -2.2989   -0.5258   -0.0165 P   0  0  0  0  0  0  0  0  0  0  0  0
    2.2876   -0.4780   -0.0289 P   0  0  0  0  0  0  0  0  0  0  0  0
   -0.0464    1.4828    0.6349 Si  0  0  0  0  0  3  0  0  0  0  0  0
   -0.2142    1.9535    2.2716 O   0  0  0  0  0  0  0  0  0  0  0  0
    0.4429    1.5171    2.8435 H   0  0  0  0  0  0  0  0  0  0  0  0
    1.6151    2.2389    0.0668 C   0  0  0  0  0  0  0  0  0  0  0  0
    1.8958    3.6208    0.0037 C   0  0  0  0  0  0  0  0  0  0  0  0
    1.0924    4.3515    0.1877 H   0  0  0  0  0  0  0  0  0  0  0  0
    3.1896    4.0878   -0.2707 C   0  0  0  0  0  0  0  0  0  0  0  0
    3.3854    5.1698   -0.3273 H   0  0  0  0  0  0  0  0  0  0  0  0
    4.2411    3.1740   -0.4513 C   0  0  0  0  0  0  0  0  0  0  0  0
    5.2620    3.5363   -0.6469 H   0  0  0  0  0  0  0  0  0  0  0  0
    3.9922    1.7961   -0.3719 C   0  0  0  0  0  0  0  0  0  0  0  0
    4.8276    1.0902   -0.4895 H   0  0  0  0  0  0  0  0  0  0  0  0
    2.6834    1.3255   -0.1340 C   0  0  0  0  0  0  0  0  0  0  0  0
   -1.6350    2.2019   -0.1195 C   0  0  0  0  0  0  0  0  0  0  0  0
   -1.8850    3.5628   -0.3886 C   0  0  0  0  0  0  0  0  0  0  0  0
   -1.1023    4.3123   -0.1943 H   0  0  0  0  0  0  0  0  0  0  0  0
   -3.1176    3.9851   -0.9091 C   0  0  0  0  0  0  0  0  0  0  0  0
   -3.2902    5.0510   -1.1240 H   0  0  0  0  0  0  0  0  0  0  0  0
   -4.1302    3.0454   -1.1576 C   0  0  0  0  0  0  0  0  0  0  0  0
   -5.0986    3.3700   -1.5681 H   0  0  0  0  0  0  0  0  0  0  0  0
   -3.9082    1.6870   -0.8864 C   0  0  0  0  0  0  0  0  0  0  0  0
   -4.7107    0.9625   -1.0901 H   0  0  0  0  0  0  0  0  0  0  0  0
   -2.6667    1.2586   -0.3729 C   0  0  0  0  0  0  0  0  0  0  0  0
    2.8543   -1.2843   -1.6163 C   0  0  0  0  0  0  0  0  0  0  0  0
    2.4503   -2.3121   -1.4669 H   0  0  0  0  0  0  0  0  0  0  0  0
    4.3646   -1.3405   -1.8562 C   0  0  0  0  0  0  0  0  0  0  0  0
    4.5765   -1.9998   -2.7239 H   0  0  0  0  0  0  0  0  0  0  0  0
    4.9262   -1.7457   -0.9913 H   0  0  0  0  0  0  0  0  0  0  0  0
    4.7772   -0.3417   -2.1031 H   0  0  0  0  0  0  0  0  0  0  0  0
    2.1020   -0.6412   -2.7881 C   0  0  0  0  0  0  0  0  0  0  0  0
    2.4264    0.4082   -2.9476 H   0  0  0  0  0  0  0  0  0  0  0  0
    1.0084   -0.6369   -2.6064 H   0  0  0  0  0  0  0  0  0  0  0  0
    2.2983   -1.2063   -3.7224 H   0  0  0  0  0  0  0  0  0  0  0  0
    3.3630   -1.1130    1.3616 C   0  0  0  0  0  0  0  0  0  0  0  0
    4.3939   -0.7447    1.1598 H   0  0  0  0  0  0  0  0  0  0  0  0
    2.8586   -0.4925    2.6713 C   0  0  0  0  0  0  0  0  0  0  0  0
    1.8228   -0.8337    2.8810 H   0  0  0  0  0  0  0  0  0  0  0  0
    2.8622    0.6165    2.6315 H   0  0  0  0  0  0  0  0  0  0  0  0
    3.5024   -0.8040    3.5194 H   0  0  0  0  0  0  0  0  0  0  0  0
    3.3492   -2.6453    1.4067 C   0  0  0  0  0  0  0  0  0  0  0  0
    3.8852   -3.0006    2.3114 H   0  0  0  0  0  0  0  0  0  0  0  0
    3.8462   -3.0934    0.5242 H   0  0  0  0  0  0  0  0  0  0  0  0
    2.3107   -3.0356    1.4269 H   0  0  0  0  0  0  0  0  0  0  0  0
   -3.0762   -1.4408   -1.4535 C   0  0  0  0  0  0  0  0  0  0  0  0
   -4.0627   -0.9556   -1.6224 H   0  0  0  0  0  0  0  0  0  0  0  0
   -2.1961   -1.2317   -2.6932 C   0  0  0  0  0  0  0  0  0  0  0  0
   -1.2226   -1.7436   -2.5524 H   0  0  0  0  0  0  0  0  0  0  0  0
   -2.0006   -0.1579   -2.8890 H   0  0  0  0  0  0  0  0  0  0  0  0
   -2.6912   -1.6610   -3.5887 H   0  0  0  0  0  0  0  0  0  0  0  0
   -3.2871   -2.9271   -1.1440 C   0  0  0  0  0  0  0  0  0  0  0  0
   -3.6831   -3.4378   -2.0466 H   0  0  0  0  0  0  0  0  0  0  0  0
   -4.0167   -3.0901   -0.3262 H   0  0  0  0  0  0  0  0  0  0  0  0
   -2.3250   -3.4070   -0.8683 H   0  0  0  0  0  0  0  0  0  0  0  0
   -3.2842   -0.9917    1.5056 C   0  0  0  0  0  0  0  0  0  0  0  0
   -3.1593   -2.0970    1.5235 H   0  0  0  0  0  0  0  0  0  0  0  0
   -4.7731   -0.6475    1.4257 C   0  0  0  0  0  0  0  0  0  0  0  0
   -5.3020   -1.0491    2.3152 H   0  0  0  0  0  0  0  0  0  0  0  0
   -5.2628   -1.0765    0.5281 H   0  0  0  0  0  0  0  0  0  0  0  0
   -4.9299    0.4499    1.4138 H   0  0  0  0  0  0  0  0  0  0  0  0
   -2.6069   -0.4128    2.7524 C   0  0  0  0  0  0  0  0  0  0  0  0
   -2.5882    0.6956    2.7398 H   0  0  0  0  0  0  0  0  0  0  0  0
   -1.5548   -0.7548    2.8192 H   0  0  0  0  0  0  0  0  0  0  0  0
   -3.1461   -0.7418    3.6650 H   0  0  0  0  0  0  0  0  0  0  0  0
  1 56  1  0  0  0  0
  2 36  1  0  0  0  0
  3  4  1  0  0  0  0
  4  5  1  0  0  0  0
  6  3  1  0  0  0  0
  7  6  1  0  0  0  0
  7  8  1  0  0  0  0
  9  7  2  0  0  0  0
 10  9  1  0  0  0  0
 11 13  2  0  0  0  0
 11  9  1  0  0  0  0
 12 11  1  0  0  0  0
 13 15  1  0  0  0  0
 14 13  1  0  0  0  0
 15  2  1  0  0  0  0
 15  6  2  0  0  0  0
 16  3  1  0  0  0  0
 17 18  1  0  0  0  0
 17 16  2  0  0  0  0
 19 17  1  0  0  0  0
 20 19  1  0  0  0  0
 21 19  2  0  0  0  0
 21 23  1  0  0  0  0
 22 21  1  0  0  0  0
 23 25  2  0  0  0  0
 24 23  1  0  0  0  0
 25 16  1  0  0  0  0
 25  1  1  0  0  0  0
 26 27  1  0  0  0  0
 26  2  1  0  0  0  0
 28 26  1  0  0  0  0
 28 30  1  0  0  0  0
 29 28  1  0  0  0  0
 31 28  1  0  0  0  0
 32 34  1  0  0  0  0
 32 26  1  0  0  0  0
 33 32  1  0  0  0  0
 35 32  1  0  0  0  0
 36 42  1  0  0  0  0
 36 38  1  0  0  0  0
 37 36  1  0  0  0  0
 38 39  1  0  0  0  0
 38 41  1  0  0  0  0
 40 38  1  0  0  0  0
 42 45  1  0  0  0  0
 42 43  1  0  0  0  0
 44 42  1  0  0  0  0
 46 52  1  0  0  0  0
 46  1  1  0  0  0  0
 47 46  1  0  0  0  0
 48 49  1  0  0  0  0
 48 46  1  0  0  0  0
 50 48  1  0  0  0  0
 51 48  1  0  0  0  0
 52 55  1  0  0  0  0
 52 54  1  0  0  0  0
 53 52  1  0  0  0  0
 56 57  1  0  0  0  0
 56 62  1  0  0  0  0
 58 56  1  0  0  0  0
 58 59  1  0  0  0  0
 60 58  1  0  0  0  0
 61 58  1  0  0  0  0
 62 64  1  0  0  0  0
 62 65  1  0  0  0  0
 63 62  1  0  0  0  0
M  END
