1,3,6
q = -1.0, confidence = 0.006

 64 65  0  0  0  0  0  0  0  0999 V2000
    2.3033   -0.4737   -0.0259 P   0  0  0  0  0  0  0  0  0  0  0  0
    1.6230    2.2512   -0.0560 C   0  0  0  0  0  0  0  0  0  0  0  0
    0.0288    1.4933   -0.7922 Si  0  0  0  0  0  3  0  0  0  0  0  0
    0.0926    1.8063   -2.2775 H   0  0  0  0  0  0  0  0  0  0  0  0
    2.6538    1.3258    0.2625 C   0  0  0  0  0  0  0  0  0  0  0  0
   -2.2850   -0.4454   -0.0170 P   0  0  0  0  0  0  0  0  0  0  0  0
    3.8858    1.7834    0.7745 C   0  0  0  0  0  0  0  0  0  0  0  0
    4.6852    1.0712    1.0286 H   0  0  0  0  0  0  0  0  0  0  0  0
    4.1007    3.1537    0.9840 C   0  0  0  0  0  0  0  0  0  0  0  0
    5.0604    3.5010    1.3962 H   0  0  0  0  0  0  0  0  0  0  0  0
    3.0900    4.0761    0.6712 C   0  0  0  0  0  0  0  0  0  0  0  0
    3.2551    5.1520    0.8369 H   0  0  0  0  0  0  0  0  0  0  0  0
   -1.6313    2.2720   -0.2452 C   0  0  0  0  0  0  0  0  0  0  0  0
    1.8685    3.6248    0.1486 C   0  0  0  0  0  0  0  0  0  0  0  0
    1.0894    4.3635   -0.0971 H   0  0  0  0  0  0  0  0  0  0  0  0
   -4.0027    1.8293    0.2217 C   0  0  0  0  0  0  0  0  0  0  0  0
   -4.8319    1.1214    0.3671 H   0  0  0  0  0  0  0  0  0  0  0  0
   -2.6918    1.3587   -0.0043 C   0  0  0  0  0  0  0  0  0  0  0  0
   -4.2608    3.2071    0.2595 C   0  0  0  0  0  0  0  0  0  0  0  0
   -5.2832    3.5689    0.4471 H   0  0  0  0  0  0  0  0  0  0  0  0
    3.1031   -1.3422    1.4261 C   0  0  0  0  0  0  0  0  0  0  0  0
    4.0898   -0.8484    1.5669 H   0  0  0  0  0  0  0  0  0  0  0  0
   -1.9190    3.6530   -0.2146 C   0  0  0  0  0  0  0  0  0  0  0  0
   -1.1208    4.3846   -0.4175 H   0  0  0  0  0  0  0  0  0  0  0  0
   -3.2144    4.1207    0.0525 C   0  0  0  0  0  0  0  0  0  0  0  0
   -3.4146    5.2029    0.0815 H   0  0  0  0  0  0  0  0  0  0  0  0
    3.3164   -2.8354    1.1524 C   0  0  0  0  0  0  0  0  0  0  0  0
    3.7376   -3.3184    2.0588 H   0  0  0  0  0  0  0  0  0  0  0  0
    4.0261   -3.0175    0.3212 H   0  0  0  0  0  0  0  0  0  0  0  0
    2.3507   -3.3275    0.9145 H   0  0  0  0  0  0  0  0  0  0  0  0
    2.2396   -1.1037    2.6721 C   0  0  0  0  0  0  0  0  0  0  0  0
    1.2668   -1.6236    2.5593 H   0  0  0  0  0  0  0  0  0  0  0  0
    2.0430   -0.0258    2.8424 H   0  0  0  0  0  0  0  0  0  0  0  0
    2.7501   -1.5070    3.5711 H   0  0  0  0  0  0  0  0  0  0  0  0
    2.6460   -0.3240   -2.7844 C   0  0  0  0  0  0  0  0  0  0  0  0
    3.1637   -0.6692   -3.7032 H   0  0  0  0  0  0  0  0  0  0  0  0
    2.7135    0.7835   -2.7546 H   0  0  0  0  0  0  0  0  0  0  0  0
    1.5739   -0.5952   -2.8588 H   0  0  0  0  0  0  0  0  0  0  0  0
    4.7878   -0.6609   -1.4481 C   0  0  0  0  0  0  0  0  0  0  0  0
    5.2571   -1.1220   -0.5561 H   0  0  0  0  0  0  0  0  0  0  0  0
    4.9798    0.4306   -1.4140 H   0  0  0  0  0  0  0  0  0  0  0  0
    5.3102   -1.0615   -2.3419 H   0  0  0  0  0  0  0  0  0  0  0  0
    3.2889   -0.9549   -1.5445 C   0  0  0  0  0  0  0  0  0  0  0  0
    3.1257   -2.0546   -1.5851 H   0  0  0  0  0  0  0  0  0  0  0  0
   -3.3648   -1.1686   -1.3575 C   0  0  0  0  0  0  0  0  0  0  0  0
   -4.3984   -0.8050   -1.1598 H   0  0  0  0  0  0  0  0  0  0  0  0
   -3.3307   -2.7007   -1.3194 C   0  0  0  0  0  0  0  0  0  0  0  0
   -2.2879   -3.0783   -1.3429 H   0  0  0  0  0  0  0  0  0  0  0  0
   -3.8803   -3.1100   -2.1924 H   0  0  0  0  0  0  0  0  0  0  0  0
   -3.8021   -3.1084   -0.4037 H   0  0  0  0  0  0  0  0  0  0  0  0
   -2.8291   -1.1589    1.6228 C   0  0  0  0  0  0  0  0  0  0  0  0
   -2.4176   -2.1905    1.5318 H   0  0  0  0  0  0  0  0  0  0  0  0
   -2.8847   -0.6094   -2.7031 C   0  0  0  0  0  0  0  0  0  0  0  0
   -1.8407   -0.9280   -2.9034 H   0  0  0  0  0  0  0  0  0  0  0  0
   -2.9104    0.4987   -2.7267 H   0  0  0  0  0  0  0  0  0  0  0  0
   -3.5271   -0.9856   -3.5258 H   0  0  0  0  0  0  0  0  0  0  0  0
   -4.3369   -1.2135    1.8788 C   0  0  0  0  0  0  0  0  0  0  0  0
   -4.5351   -1.8207    2.7868 H   0  0  0  0  0  0  0  0  0  0  0  0
   -4.9014   -1.6759    1.0450 H   0  0  0  0  0  0  0  0  0  0  0  0
   -4.7570   -0.2054    2.0679 H   0  0  0  0  0  0  0  0  0  0  0  0
   -2.0724   -0.4413    2.7474 C   0  0  0  0  0  0  0  0  0  0  0  0
   -2.2571   -0.9505    3.7156 H   0  0  0  0  0  0  0  0  0  0  0  0
   -2.4029    0.6136    2.8464 H   0  0  0  0  0  0  0  0  0  0  0  0
   -0.9804   -0.4411    2.5563 H   0  0  0  0  0  0  0  0  0  0  0  0
  1  5  1  0  0  0  0
  1 21  1  0  0  0  0
  2 14  2  0  0  0  0
  2  5  1  0  0  0  0
  3 13  1  0  0  0  0
  3  2  1  0  0  0  0
  4  3  1  0  0  0  0
  5  7  2  0  0  0  0
  6 18  1  0  0  0  0
  6 51  1  0  0  0  0
  7  9  1  0  0  0  0
  7  8  1  0  0  0  0
  9 10  1  0  0  0  0
 11 12  1  0  0  0  0
 11  9  2  0  0  0  0
 13 23  2  0  0  0  0
 13 18  1  0  0  0  0
 14 11  1  0  0  0  0
 15 14  1  0  0  0  0
 16 19  1  0  0  0  0
 16 17  1  0  0  0  0
 18 16  2  0  0  0  0
 19 20  1  0  0  0  0
 21 22  1  0  0  0  0
 21 31  1  0  0  0  0
 23 25  1  0  0  0  0
 24 23  1  0  0  0  0
 25 26  1  0  0  0  0
 25 19  2  0  0  0  0
 27 21  1  0  0  0  0
 27 28  1  0  0  0  0
 29 27  1  0  0  0  0
 30 27  1  0  0  0  0
 31 33  1  0  0  0  0
 31 34  1  0  0  0  0
 32 31  1  0  0  0  0
 35 37  1  0  0  0  0
 35 43  1  0  0  0  0
 36 35  1  0  0  0  0
 38 35  1  0  0  0  0
 39 41  1  0  0  0  0
 39 40  1  0  0  0  0
 42 39  1  0  0  0  0
 43 39  1  0  0  0  0
 43  1  1  0  0  0  0
 44 43  1  0  0  0  0
 45 47  1  0  0  0  0
 45 46  1  0  0  0  0
 45  6  1  0  0  0  0
 47 50  1  0  0  0  0
 48 47  1  0  0  0  0
 49 47  1  0  0  0  0
 51 57  1  0  0  0  0
 51 61  1  0  0  0  0
 52 51  1  0  0  0  0
 53 45  1  0  0  0  0
 54 53  1  0  0  0  0
 55 53  1  0  0  0  0
 56 53  1  0  0  0  0
 57 60  1  0  0  0  0
 57 58  1  0  0  0  0
 59 57  1  0  0  0  0
 61 63  1  0  0  0  0
 61 62  1  0  0  0  0
 64 61  1  0  0  0  0
M  END
