1,2,3
 OpenBabel05122313063D

 74 76  0  0  0  0  0  0  0  0999 V2000
   -2.4271   -0.5097    0.0820 P   0  0  0  0  0  0  0  0  0  0  0  0
    1.9909   -1.0785   -0.1685 P   0  0  0  0  0  0  0  0  0  0  0  0
    0.1168    1.1515    0.4780 Si  0  0  0  0  0  3  0  0  0  0  0  0
    1.0277    2.6077   -0.3682 C   0  0  0  0  0  0  0  0  0  0  0  0
    0.3467    3.4177   -1.3084 C   0  0  0  0  0  0  0  0  0  0  0  0
   -0.6907    3.1722   -1.5825 H   0  0  0  0  0  0  0  0  0  0  0  0
    0.9718    4.5206   -1.9056 C   0  0  0  0  0  0  0  0  0  0  0  0
    0.4209    5.1325   -2.6368 H   0  0  0  0  0  0  0  0  0  0  0  0
    2.2998    4.8430   -1.5768 C   0  0  0  0  0  0  0  0  0  0  0  0
    2.7933    5.7064   -2.0493 H   0  0  0  0  0  0  0  0  0  0  0  0
    2.9890    4.0621   -0.6379 C   0  0  0  0  0  0  0  0  0  0  0  0
    4.0261    4.3119   -0.3645 H   0  0  0  0  0  0  0  0  0  0  0  0
    2.3553    2.9605   -0.0378 C   0  0  0  0  0  0  0  0  0  0  0  0
    2.9089    2.3712    0.7088 H   0  0  0  0  0  0  0  0  0  0  0  0
   -1.5384    1.9374    0.9835 C   0  0  0  0  0  0  0  0  0  0  0  0
   -2.7095    1.2254    0.6389 C   0  0  0  0  0  0  0  0  0  0  0  0
   -3.9793    1.8099    0.8263 C   0  0  0  0  0  0  0  0  0  0  0  0
   -4.8944    1.2714    0.5380 H   0  0  0  0  0  0  0  0  0  0  0  0
   -4.0814    3.0954    1.3787 C   0  0  0  0  0  0  0  0  0  0  0  0
   -5.0731    3.5520    1.5199 H   0  0  0  0  0  0  0  0  0  0  0  0
   -2.9226    3.8024    1.7437 C   0  0  0  0  0  0  0  0  0  0  0  0
   -3.0075    4.8123    2.1738 H   0  0  0  0  0  0  0  0  0  0  0  0
   -1.6589    3.2318    1.5329 C   0  0  0  0  0  0  0  0  0  0  0  0
   -0.7517    3.8104    1.7707 H   0  0  0  0  0  0  0  0  0  0  0  0
    1.3322    0.6979    1.8633 C   0  0  0  0  0  0  0  0  0  0  0  0
    2.3512   -0.1861    1.4199 C   0  0  0  0  0  0  0  0  0  0  0  0
    3.5023   -0.3788    2.2109 C   0  0  0  0  0  0  0  0  0  0  0  0
    4.3175   -1.0287    1.8632 H   0  0  0  0  0  0  0  0  0  0  0  0
    3.6136    0.2577    3.4573 C   0  0  0  0  0  0  0  0  0  0  0  0
    4.5116    0.0964    4.0731 H   0  0  0  0  0  0  0  0  0  0  0  0
    2.5816    1.0905    3.9220 C   0  0  0  0  0  0  0  0  0  0  0  0
    2.6674    1.5740    4.9075 H   0  0  0  0  0  0  0  0  0  0  0  0
    1.4543    1.3232    3.1185 C   0  0  0  0  0  0  0  0  0  0  0  0
    0.6654    2.0101    3.4656 H   0  0  0  0  0  0  0  0  0  0  0  0
   -3.9458    0.1257   -2.2381 C   0  0  0  0  0  0  0  0  0  0  0  0
   -4.8760   -0.0621   -2.8143 H   0  0  0  0  0  0  0  0  0  0  0  0
   -3.0824    0.0194   -2.9218 H   0  0  0  0  0  0  0  0  0  0  0  0
   -3.9667    1.1759   -1.8876 H   0  0  0  0  0  0  0  0  0  0  0  0
   -3.8547   -0.8777   -1.0826 C   0  0  0  0  0  0  0  0  0  0  0  0
   -4.7554   -0.7590   -0.4403 H   0  0  0  0  0  0  0  0  0  0  0  0
   -3.8028   -2.3222   -1.5901 C   0  0  0  0  0  0  0  0  0  0  0  0
   -4.6959   -2.5285   -2.2160 H   0  0  0  0  0  0  0  0  0  0  0  0
   -3.7776   -3.0646   -0.7691 H   0  0  0  0  0  0  0  0  0  0  0  0
   -2.8990   -2.4874   -2.2089 H   0  0  0  0  0  0  0  0  0  0  0  0
   -4.2614   -1.2425    2.2036 C   0  0  0  0  0  0  0  0  0  0  0  0
   -4.4175   -1.8911    3.0912 H   0  0  0  0  0  0  0  0  0  0  0  0
   -5.0471   -1.5060    1.4681 H   0  0  0  0  0  0  0  0  0  0  0  0
   -4.4250   -0.1956    2.5308 H   0  0  0  0  0  0  0  0  0  0  0  0
   -2.8457   -1.4567    1.6683 C   0  0  0  0  0  0  0  0  0  0  0  0
   -2.7195   -2.5128    1.3472 H   0  0  0  0  0  0  0  0  0  0  0  0
   -1.7851   -1.1519    2.7314 C   0  0  0  0  0  0  0  0  0  0  0  0
   -1.9556   -1.7807    3.6296 H   0  0  0  0  0  0  0  0  0  0  0  0
   -1.8174   -0.0893    3.0486 H   0  0  0  0  0  0  0  0  0  0  0  0
   -0.7644   -1.3621    2.3558 H   0  0  0  0  0  0  0  0  0  0  0  0
    2.9154   -1.0708   -2.8169 C   0  0  0  0  0  0  0  0  0  0  0  0
    3.3021   -0.4656   -3.6627 H   0  0  0  0  0  0  0  0  0  0  0  0
    1.8695   -1.3453   -3.0573 H   0  0  0  0  0  0  0  0  0  0  0  0
    3.5214   -1.9971   -2.7676 H   0  0  0  0  0  0  0  0  0  0  0  0
    2.9915   -0.2481   -1.5234 C   0  0  0  0  0  0  0  0  0  0  0  0
    2.3789    0.6656   -1.6870 H   0  0  0  0  0  0  0  0  0  0  0  0
    4.4104    0.1937   -1.1590 C   0  0  0  0  0  0  0  0  0  0  0  0
    4.8111    0.8376   -1.9700 H   0  0  0  0  0  0  0  0  0  0  0  0
    5.1061   -0.6585   -1.0382 H   0  0  0  0  0  0  0  0  0  0  0  0
    4.4314    0.7901   -0.2267 H   0  0  0  0  0  0  0  0  0  0  0  0
    2.3103   -3.3384    1.5148 C   0  0  0  0  0  0  0  0  0  0  0  0
    2.4055   -4.4438    1.5315 H   0  0  0  0  0  0  0  0  0  0  0  0
    1.2688   -3.0938    1.7938 H   0  0  0  0  0  0  0  0  0  0  0  0
    2.9845   -2.9275    2.2911 H   0  0  0  0  0  0  0  0  0  0  0  0
    2.6761   -2.8206    0.1147 C   0  0  0  0  0  0  0  0  0  0  0  0
    2.0736   -3.3989   -0.6191 H   0  0  0  0  0  0  0  0  0  0  0  0
    4.1627   -3.0603   -0.1768 C   0  0  0  0  0  0  0  0  0  0  0  0
    4.3832   -4.1390   -0.0308 H   0  0  0  0  0  0  0  0  0  0  0  0
    4.8293   -2.5018    0.5103 H   0  0  0  0  0  0  0  0  0  0  0  0
    4.4508   -2.8044   -1.2123 H   0  0  0  0  0  0  0  0  0  0  0  0
  1 16  1  0  0  0  0
  1 49  1  0  0  0  0
  2 69  1  0  0  0  0
  2 26  1  0  0  0  0
  3 15  1  0  0  0  0
  3 25  1  0  0  0  0
  4 13  1  0  0  0  0
  4  3  1  0  0  0  0
  5  4  2  0  0  0  0
  6  5  1  0  0  0  0
  7  9  2  0  0  0  0
  7  5  1  0  0  0  0
  8  7  1  0  0  0  0
  9 11  1  0  0  0  0
 10  9  1  0  0  0  0
 11 12  1  0  0  0  0
 11 13  2  0  0  0  0
 13 14  1  0  0  0  0
 15 23  1  0  0  0  0
 16 17  1  0  0  0  0
 16 15  2  0  0  0  0
 17 19  2  0  0  0  0
 18 17  1  0  0  0  0
 19 20  1  0  0  0  0
 19 21  1  0  0  0  0
 21 22  1  0  0  0  0
 23 21  2  0  0  0  0
 23 24  1  0  0  0  0
 25 33  1  0  0  0  0
 26 25  2  0  0  0  0
 26 27  1  0  0  0  0
 27 29  2  0  0  0  0
 28 27  1  0  0  0  0
 29 31  1  0  0  0  0
 29 30  1  0  0  0  0
 31 32  1  0  0  0  0
 33 34  1  0  0  0  0
 33 31  2  0  0  0  0
 35 38  1  0  0  0  0
 35 39  1  0  0  0  0
 36 35  1  0  0  0  0
 37 35  1  0  0  0  0
 39 40  1  0  0  0  0
 39  1  1  0  0  0  0
 41 39  1  0  0  0  0
 41 43  1  0  0  0  0
 42 41  1  0  0  0  0
 44 41  1  0  0  0  0
 45 48  1  0  0  0  0
 45 46  1  0  0  0  0
 47 45  1  0  0  0  0
 49 45  1  0  0  0  0
 49 51  1  0  0  0  0
 50 49  1  0  0  0  0
 51 53  1  0  0  0  0
 51 52  1  0  0  0  0
 54 51  1  0  0  0  0
 55 58  1  0  0  0  0
 55 59  1  0  0  0  0
 56 55  1  0  0  0  0
 57 55  1  0  0  0  0
 59 61  1  0  0  0  0
 59  2  1  0  0  0  0
 60 59  1  0  0  0  0
 61 63  1  0  0  0  0
 61 64  1  0  0  0  0
 62 61  1  0  0  0  0
 65 66  1  0  0  0  0
 65 67  1  0  0  0  0
 65 68  1  0  0  0  0
 69 65  1  0  0  0  0
 70 69  1  0  0  0  0
 71 72  1  0  0  0  0
 71 69  1  0  0  0  0
 71 73  1  0  0  0  0
 74 71  1  0  0  0  0
M  END
