1,2,3
 OpenBabel05122313063D

 69 74  0  0  0  0  0  0  0  0999 V2000
    2.1299    0.0008    0.1637 P   0  0  0  0  0  0  0  0  0  0  0  0
   -2.1634   -0.0010    0.0710 P   0  0  0  0  0  0  0  0  0  0  0  0
   -0.0607    1.2490    1.4447 Si  0  0  0  0  0  3  0  0  0  0  0  0
    3.3021   -0.3814   -1.2165 C   0  0  0  0  0  0  0  0  0  0  0  0
    2.9908   -0.7843    1.6019 C   0  0  0  0  0  0  0  0  0  0  0  0
    0.6986    3.6122    0.5756 C   0  0  0  0  0  0  0  0  0  0  0  0
    4.0872    0.0677   -3.4850 C   0  0  0  0  0  0  0  0  0  0  0  0
    4.0533    0.6888   -4.3930 H   0  0  0  0  0  0  0  0  0  0  0  0
   -0.7349    3.6153    0.5164 C   0  0  0  0  0  0  0  0  0  0  0  0
    3.2754    0.4032   -2.3915 C   0  0  0  0  0  0  0  0  0  0  0  0
    2.5809    1.2529   -2.4606 H   0  0  0  0  0  0  0  0  0  0  0  0
    4.1565   -1.5044   -1.1663 C   0  0  0  0  0  0  0  0  0  0  0  0
    4.2048   -2.1185   -0.2548 H   0  0  0  0  0  0  0  0  0  0  0  0
   -3.0206   -0.7207    1.5466 C   0  0  0  0  0  0  0  0  0  0  0  0
   -3.3336   -0.4477   -1.2936 C   0  0  0  0  0  0  0  0  0  0  0  0
    4.9618   -1.8389   -2.2656 C   0  0  0  0  0  0  0  0  0  0  0  0
    5.6226   -2.7174   -2.2080 H   0  0  0  0  0  0  0  0  0  0  0  0
    4.2764   -1.9444    3.8342 C   0  0  0  0  0  0  0  0  0  0  0  0
    4.7768   -2.3936    4.7056 H   0  0  0  0  0  0  0  0  0  0  0  0
    4.9610   -1.0184    3.0290 C   0  0  0  0  0  0  0  0  0  0  0  0
    5.9995   -0.7417    3.2664 H   0  0  0  0  0  0  0  0  0  0  0  0
   -0.6718    5.8370   -0.4777 C   0  0  0  0  0  0  0  0  0  0  0  0
   -1.2063    6.7079   -0.8865 H   0  0  0  0  0  0  0  0  0  0  0  0
    2.3163   -1.7142    2.4143 C   0  0  0  0  0  0  0  0  0  0  0  0
    1.2729   -1.9660    2.1679 H   0  0  0  0  0  0  0  0  0  0  0  0
    4.3252   -0.4447    1.9193 C   0  0  0  0  0  0  0  0  0  0  0  0
    4.8792    0.2641    1.2845 H   0  0  0  0  0  0  0  0  0  0  0  0
   -1.4061    4.7273   -0.0123 C   0  0  0  0  0  0  0  0  0  0  0  0
   -2.5053    4.7224   -0.0673 H   0  0  0  0  0  0  0  0  0  0  0  0
    2.9538   -2.2933    3.5226 C   0  0  0  0  0  0  0  0  0  0  0  0
    2.4104   -3.0174    4.1487 H   0  0  0  0  0  0  0  0  0  0  0  0
    1.4164    4.7240    0.1112 C   0  0  0  0  0  0  0  0  0  0  0  0
    2.5162    4.7185    0.1556 H   0  0  0  0  0  0  0  0  0  0  0  0
   -5.2257   -1.7087   -2.1826 C   0  0  0  0  0  0  0  0  0  0  0  0
   -6.0633   -2.4038   -2.0175 H   0  0  0  0  0  0  0  0  0  0  0  0
   -4.4116   -1.3368   -1.1015 C   0  0  0  0  0  0  0  0  0  0  0  0
   -4.6139   -1.7517   -0.1037 H   0  0  0  0  0  0  0  0  0  0  0  0
    4.9298   -1.0540   -3.4288 C   0  0  0  0  0  0  0  0  0  0  0  0
    5.5635   -1.3152   -4.2900 H   0  0  0  0  0  0  0  0  0  0  0  0
   -3.0818    0.0593   -2.5888 C   0  0  0  0  0  0  0  0  0  0  0  0
   -2.2188    0.7255   -2.7481 H   0  0  0  0  0  0  0  0  0  0  0  0
   -2.4651   -1.8457    2.1873 C   0  0  0  0  0  0  0  0  0  0  0  0
   -1.5102   -2.2457    1.8121 H   0  0  0  0  0  0  0  0  0  0  0  0
   -4.2312   -0.1902    2.0420 C   0  0  0  0  0  0  0  0  0  0  0  0
   -4.6994    0.6747    1.5490 H   0  0  0  0  0  0  0  0  0  0  0  0
   -3.9002   -0.3161   -3.6637 C   0  0  0  0  0  0  0  0  0  0  0  0
   -3.6929    0.0859   -4.6674 H   0  0  0  0  0  0  0  0  0  0  0  0
    0.7280    5.8357   -0.4157 C   0  0  0  0  0  0  0  0  0  0  0  0
    1.2981    6.7060   -0.7744 H   0  0  0  0  0  0  0  0  0  0  0  0
   -4.8576   -0.7624    3.1589 C   0  0  0  0  0  0  0  0  0  0  0  0
   -5.7960   -0.3299    3.5378 H   0  0  0  0  0  0  0  0  0  0  0  0
   -4.9731   -1.2013   -3.4663 C   0  0  0  0  0  0  0  0  0  0  0  0
   -5.6121   -1.4954   -4.3129 H   0  0  0  0  0  0  0  0  0  0  0  0
   -3.0962   -2.4265    3.2973 C   0  0  0  0  0  0  0  0  0  0  0  0
   -2.6452   -3.3040    3.7854 H   0  0  0  0  0  0  0  0  0  0  0  0
   -4.2924   -1.8824    3.7900 C   0  0  0  0  0  0  0  0  0  0  0  0
   -4.7849   -2.3297    4.6667 H   0  0  0  0  0  0  0  0  0  0  0  0
    1.2538    2.4161    1.0610 N   0  0  0  0  0  0  0  0  0  0  0  0
   -1.3361    2.4230    0.9562 N   0  0  0  0  0  0  0  0  0  0  0  0
   -2.4584    1.8701    0.2350 C   0  0  0  0  0  0  0  0  0  0  0  0
   -2.5082    2.2678   -0.8026 H   0  0  0  0  0  0  0  0  0  0  0  0
   -3.4477    2.0375    0.7160 H   0  0  0  0  0  0  0  0  0  0  0  0
    2.4442    1.8647    0.4650 C   0  0  0  0  0  0  0  0  0  0  0  0
    3.3571    1.9466    1.0966 H   0  0  0  0  0  0  0  0  0  0  0  0
    2.6584    2.3365   -0.5180 H   0  0  0  0  0  0  0  0  0  0  0  0
   -0.1283    0.8778    3.2903 C   0  0  0  0  0  0  0  0  0  0  0  0
    0.7836    0.3350    3.6102 H   0  0  0  0  0  0  0  0  0  0  0  0
   -1.0096    0.2518    3.5342 H   0  0  0  0  0  0  0  0  0  0  0  0
   -0.1946    1.8285    3.8568 H   0  0  0  0  0  0  0  0  0  0  0  0
  1 63  1  0  0  0  0
  1  5  1  0  0  0  0
  2 60  1  0  0  0  0
  2 14  1  0  0  0  0
  3 66  1  0  0  0  0
  4 12  1  0  0  0  0
  4  1  1  0  0  0  0
  5 26  2  0  0  0  0
  5 24  1  0  0  0  0
  6 58  1  0  0  0  0
  7 38  2  0  0  0  0
  7 10  1  0  0  0  0
  8  7  1  0  0  0  0
  9  6  1  0  0  0  0
  9 59  1  0  0  0  0
 10  4  2  0  0  0  0
 11 10  1  0  0  0  0
 12 13  1  0  0  0  0
 14 44  2  0  0  0  0
 14 42  1  0  0  0  0
 15 36  1  0  0  0  0
 15  2  1  0  0  0  0
 16 17  1  0  0  0  0
 16 12  2  0  0  0  0
 18 19  1  0  0  0  0
 20 21  1  0  0  0  0
 20 18  2  0  0  0  0
 22 48  2  0  0  0  0
 22 28  1  0  0  0  0
 23 22  1  0  0  0  0
 24 30  2  0  0  0  0
 25 24  1  0  0  0  0
 26 20  1  0  0  0  0
 27 26  1  0  0  0  0
 28  9  2  0  0  0  0
 29 28  1  0  0  0  0
 30 18  1  0  0  0  0
 30 31  1  0  0  0  0
 32 33  1  0  0  0  0
 32  6  2  0  0  0  0
 34 35  1  0  0  0  0
 34 36  2  0  0  0  0
 36 37  1  0  0  0  0
 38 16  1  0  0  0  0
 39 38  1  0  0  0  0
 40 15  2  0  0  0  0
 41 40  1  0  0  0  0
 42 54  2  0  0  0  0
 43 42  1  0  0  0  0
 44 50  1  0  0  0  0
 45 44  1  0  0  0  0
 46 52  2  0  0  0  0
 46 40  1  0  0  0  0
 47 46  1  0  0  0  0
 48 32  1  0  0  0  0
 49 48  1  0  0  0  0
 50 51  1  0  0  0  0
 50 56  2  0  0  0  0
 52 34  1  0  0  0  0
 53 52  1  0  0  0  0
 54 55  1  0  0  0  0
 54 56  1  0  0  0  0
 56 57  1  0  0  0  0
 58  3  1  0  0  0  0
 59  3  1  0  0  0  0
 60 62  1  0  0  0  0
 60 59  1  0  0  0  0
 61 60  1  0  0  0  0
 63 58  1  0  0  0  0
 63 64  1  0  0  0  0
 65 63  1  0  0  0  0
 66 68  1  0  0  0  0
 66 67  1  0  0  0  0
 66 69  1  0  0  0  0
M  END
