2,3,4
q = -1.0, confidence = 0.0

 68 73  0  0  0  0  0  0  0  0999 V2000
   -0.3934   -4.2337   -0.0224 Cl  0  0  0  0  0  0  0  0  0  0  0  0
    1.9167    0.1641   -0.0974 P   0  0  0  0  0  0  0  0  0  0  0  0
   -1.9102    0.2306   -0.1103 P   0  0  0  0  0  0  0  0  0  0  0  0
   -0.0135   -2.1953    0.4387 Si  0  0  0  0  0  3  0  0  0  0  0  0
    1.6827   -2.2321    1.3036 C   0  0  0  0  0  0  0  0  0  0  0  0
    2.1312   -3.2686    2.1490 C   0  0  0  0  0  0  0  0  0  0  0  0
    1.4964   -4.1562    2.3004 H   0  0  0  0  0  0  0  0  0  0  0  0
    3.3892   -3.1940    2.7639 C   0  0  0  0  0  0  0  0  0  0  0  0
    3.7322   -4.0123    3.4158 H   0  0  0  0  0  0  0  0  0  0  0  0
    4.2225   -2.0845    2.5349 C   0  0  0  0  0  0  0  0  0  0  0  0
    5.2156   -2.0329    3.0068 H   0  0  0  0  0  0  0  0  0  0  0  0
    3.7999   -1.0524    1.6855 C   0  0  0  0  0  0  0  0  0  0  0  0
    4.4638   -0.1978    1.4841 H   0  0  0  0  0  0  0  0  0  0  0  0
    2.5324   -1.1277    1.0744 C   0  0  0  0  0  0  0  0  0  0  0  0
   -1.3587   -1.7874    1.7273 C   0  0  0  0  0  0  0  0  0  0  0  0
   -1.5714   -2.5445    2.8995 C   0  0  0  0  0  0  0  0  0  0  0  0
   -0.9285   -3.4131    3.1123 H   0  0  0  0  0  0  0  0  0  0  0  0
   -2.5994   -2.2093    3.7906 C   0  0  0  0  0  0  0  0  0  0  0  0
   -2.7529   -2.8048    4.7038 H   0  0  0  0  0  0  0  0  0  0  0  0
   -3.4440   -1.1187    3.5142 C   0  0  0  0  0  0  0  0  0  0  0  0
   -4.2601   -0.8625    4.2070 H   0  0  0  0  0  0  0  0  0  0  0  0
   -3.2543   -0.3619    2.3508 C   0  0  0  0  0  0  0  0  0  0  0  0
   -3.9238    0.4834    2.1311 H   0  0  0  0  0  0  0  0  0  0  0  0
   -2.2062   -0.6899    1.4663 C   0  0  0  0  0  0  0  0  0  0  0  0
    3.3986    0.4962   -1.1522 C   0  0  0  0  0  0  0  0  0  0  0  0
    3.5541   -0.2658   -2.3273 C   0  0  0  0  0  0  0  0  0  0  0  0
    2.7670   -0.9845   -2.6053 H   0  0  0  0  0  0  0  0  0  0  0  0
    4.6894   -0.0985   -3.1330 C   0  0  0  0  0  0  0  0  0  0  0  0
    4.8012   -0.6990   -4.0485 H   0  0  0  0  0  0  0  0  0  0  0  0
    5.6730    0.8395   -2.7792 C   0  0  0  0  0  0  0  0  0  0  0  0
    6.5593    0.9774   -3.4172 H   0  0  0  0  0  0  0  0  0  0  0  0
    5.5188    1.6073   -1.6142 C   0  0  0  0  0  0  0  0  0  0  0  0
    6.2836    2.3485   -1.3359 H   0  0  0  0  0  0  0  0  0  0  0  0
    4.3882    1.4373   -0.8001 C   0  0  0  0  0  0  0  0  0  0  0  0
    4.2695    2.0490    0.1069 H   0  0  0  0  0  0  0  0  0  0  0  0
    1.8115    1.6915    0.9277 C   0  0  0  0  0  0  0  0  0  0  0  0
    1.6011    2.9238    0.2695 C   0  0  0  0  0  0  0  0  0  0  0  0
    1.5049    2.9522   -0.8269 H   0  0  0  0  0  0  0  0  0  0  0  0
    1.5256    4.1127    1.0039 C   0  0  0  0  0  0  0  0  0  0  0  0
    1.3657    5.0664    0.4792 H   0  0  0  0  0  0  0  0  0  0  0  0
    1.6367    4.0872    2.4049 C   0  0  0  0  0  0  0  0  0  0  0  0
    1.5762    5.0235    2.9802 H   0  0  0  0  0  0  0  0  0  0  0  0
    1.8064    2.8628    3.0666 C   0  0  0  0  0  0  0  0  0  0  0  0
    1.8801    2.8328    4.1646 H   0  0  0  0  0  0  0  0  0  0  0  0
    1.8940    1.6674    2.3336 C   0  0  0  0  0  0  0  0  0  0  0  0
    2.0394    0.7116    2.8582 H   0  0  0  0  0  0  0  0  0  0  0  0
   -3.5210    0.0292   -0.9991 C   0  0  0  0  0  0  0  0  0  0  0  0
   -3.6242   -0.9975   -1.9572 C   0  0  0  0  0  0  0  0  0  0  0  0
   -2.7303   -1.5966   -2.1927 H   0  0  0  0  0  0  0  0  0  0  0  0
   -4.8444   -1.2395   -2.6056 C   0  0  0  0  0  0  0  0  0  0  0  0
   -4.9140   -2.0452   -3.3521 H   0  0  0  0  0  0  0  0  0  0  0  0
   -5.9673   -0.4505   -2.3107 C   0  0  0  0  0  0  0  0  0  0  0  0
   -6.9227   -0.6350   -2.8254 H   0  0  0  0  0  0  0  0  0  0  0  0
   -5.8673    0.5814   -1.3632 C   0  0  0  0  0  0  0  0  0  0  0  0
   -6.7432    1.2078   -1.1341 H   0  0  0  0  0  0  0  0  0  0  0  0
   -4.6511    0.8213   -0.7067 C   0  0  0  0  0  0  0  0  0  0  0  0
   -4.5779    1.6399    0.0252 H   0  0  0  0  0  0  0  0  0  0  0  0
   -1.9386    2.0052    0.3806 C   0  0  0  0  0  0  0  0  0  0  0  0
   -2.1658    2.9810   -0.6152 C   0  0  0  0  0  0  0  0  0  0  0  0
   -2.3672    2.6720   -1.6522 H   0  0  0  0  0  0  0  0  0  0  0  0
   -2.1544    4.3436   -0.2878 C   0  0  0  0  0  0  0  0  0  0  0  0
   -2.3425    5.0927   -1.0720 H   0  0  0  0  0  0  0  0  0  0  0  0
   -1.9098    4.7503    1.0343 C   0  0  0  0  0  0  0  0  0  0  0  0
   -1.9065    5.8203    1.2919 H   0  0  0  0  0  0  0  0  0  0  0  0
   -1.6588    3.7861    2.0216 C   0  0  0  0  0  0  0  0  0  0  0  0
   -1.4466    4.0958    3.0557 H   0  0  0  0  0  0  0  0  0  0  0  0
   -1.6656    2.4208    1.6991 C   0  0  0  0  0  0  0  0  0  0  0  0
   -1.4576    1.6752    2.4797 H   0  0  0  0  0  0  0  0  0  0  0  0
  1  4  1  0  0  0  0
  2 36  1  0  0  0  0
  2 14  1  0  0  0  0
  3 58  1  0  0  0  0
  3 24  1  0  0  0  0
  4  5  1  0  0  0  0
  4 15  1  0  0  0  0
  5  6  1  0  0  0  0
  6  7  1  0  0  0  0
  6  8  2  0  0  0  0
  8  9  1  0  0  0  0
 10  8  1  0  0  0  0
 10 11  1  0  0  0  0
 12 10  2  0  0  0  0
 13 12  1  0  0  0  0
 14  5  2  0  0  0  0
 14 12  1  0  0  0  0
 15 16  1  0  0  0  0
 16 17  1  0  0  0  0
 16 18  2  0  0  0  0
 18 19  1  0  0  0  0
 20 18  1  0  0  0  0
 20 21  1  0  0  0  0
 22 20  2  0  0  0  0
 23 22  1  0  0  0  0
 24 15  2  0  0  0  0
 24 22  1  0  0  0  0
 25 34  1  0  0  0  0
 25  2  1  0  0  0  0
 26 25  2  0  0  0  0
 27 26  1  0  0  0  0
 28 30  2  0  0  0  0
 28 26  1  0  0  0  0
 29 28  1  0  0  0  0
 30 32  1  0  0  0  0
 31 30  1  0  0  0  0
 32 33  1  0  0  0  0
 32 34  2  0  0  0  0
 34 35  1  0  0  0  0
 36 45  1  0  0  0  0
 37 36  2  0  0  0  0
 37 39  1  0  0  0  0
 38 37  1  0  0  0  0
 39 41  2  0  0  0  0
 40 39  1  0  0  0  0
 41 42  1  0  0  0  0
 41 43  1  0  0  0  0
 43 44  1  0  0  0  0
 45 46  1  0  0  0  0
 45 43  2  0  0  0  0
 47 56  1  0  0  0  0
 47  3  1  0  0  0  0
 48 47  2  0  0  0  0
 49 48  1  0  0  0  0
 50 52  2  0  0  0  0
 50 48  1  0  0  0  0
 51 50  1  0  0  0  0
 52 54  1  0  0  0  0
 53 52  1  0  0  0  0
 54 55  1  0  0  0  0
 54 56  2  0  0  0  0
 56 57  1  0  0  0  0
 58 67  1  0  0  0  0
 59 61  1  0  0  0  0
 59 58  2  0  0  0  0
 60 59  1  0  0  0  0
 61 63  2  0  0  0  0
 62 61  1  0  0  0  0
 63 64  1  0  0  0  0
 63 65  1  0  0  0  0
 65 66  1  0  0  0  0
 67 65  2  0  0  0  0
 67 68  1  0  0  0  0
M  END
