1,5,9
q = 0.0, confidence = 0.998

 31 33  0  0  0  0  0  0  0  0999 V2000
    0.5278   -0.9165   -1.1945 C   0  0  0  0  0  3  0  0  0  0  0  0
    0.1146   -0.5421   -2.1420 H   0  0  0  0  0  0  0  0  0  0  0  0
    1.6095   -1.8415   -1.2075 C   0  0  0  0  0  3  0  0  0  0  0  0
    2.0500   -2.1646   -2.1599 H   0  0  0  0  0  0  0  0  0  0  0  0
    2.1765   -2.2640    0.0275 C   0  0  0  0  0  3  0  0  0  0  0  0
    3.0526   -2.9281    0.0255 H   0  0  0  0  0  0  0  0  0  0  0  0
    1.6440   -1.8043    1.2635 C   0  0  0  0  0  3  0  0  0  0  0  0
    2.1103   -2.0989    2.2128 H   0  0  0  0  0  0  0  0  0  0  0  0
    0.5613   -0.8789    1.2525 C   0  0  0  0  0  3  0  0  0  0  0  0
    0.1737   -0.4767    2.1994 H   0  0  0  0  0  0  0  0  0  0  0  0
   -0.0544   -0.4655    0.0311 C   0  0  0  0  0  3  0  0  0  0  0  0
   -1.2301    0.4619    0.0316 C   0  0  0  0  0  0  0  0  0  0  0  0
   -2.6002   -0.0063    0.0098 C   0  0  0  0  0  0  0  0  0  0  0  0
   -3.6397    1.0097   -0.0060 C   0  0  0  0  0  0  0  0  0  0  0  0
   -5.0152    0.6381   -0.0352 C   0  0  0  0  0  0  0  0  0  0  0  0
   -5.7727    1.4368   -0.0481 H   0  0  0  0  0  0  0  0  0  0  0  0
   -5.3843   -0.6926   -0.0456 C   0  0  0  0  0  0  0  0  0  0  0  0
   -6.4453   -0.9832   -0.0682 H   0  0  0  0  0  0  0  0  0  0  0  0
   -4.3805   -1.6886   -0.0226 C   0  0  0  0  0  0  0  0  0  0  0  0
   -4.6823   -2.7477   -0.0249 H   0  0  0  0  0  0  0  0  0  0  0  0
   -3.0163   -1.3938    0.0058 C   0  0  0  0  0  0  0  0  0  0  0  0
   -2.0683   -2.5699    0.0371 C   0  0  0  0  0  0  0  0  0  0  0  0
   -2.6450   -3.5143    0.0529 H   0  0  0  0  0  0  0  0  0  0  0  0
   -1.4105   -2.5643    0.9274 H   0  0  0  0  0  0  0  0  0  0  0  0
   -1.3980   -2.6028   -0.8435 H   0  0  0  0  0  0  0  0  0  0  0  0
   -3.3013    2.3938    0.0093 C   0  0  0  0  0  0  0  0  0  0  0  0
   -4.1198    3.1301   -0.0027 H   0  0  0  0  0  0  0  0  0  0  0  0
   -1.9824    2.8033    0.0389 C   0  0  0  0  0  0  0  0  0  0  0  0
   -1.7212    3.8717    0.0517 H   0  0  0  0  0  0  0  0  0  0  0  0
   -0.9564    1.8308    0.0477 C   0  0  0  0  0  0  0  0  0  0  0  0
    0.0959    2.1462    0.0634 H   0  0  0  0  0  0  0  0  0  0  0  0
  1 11  1  0  0  0  0
  2  1  1  0  0  0  0
  3  1  1  0  0  0  0
  3  5  1  0  0  0  0
  4  3  1  0  0  0  0
  5  7  1  0  0  0  0
  6  5  1  0  0  0  0
  7  8  1  0  0  0  0
  9  7  1  0  0  0  0
  9 10  1  0  0  0  0
 11 12  1  0  0  0  0
 11  9  1  0  0  0  0
 12 30  1  0  0  0  0
 13 12  2  0  0  0  0
 14 26  2  0  0  0  0
 14 13  1  0  0  0  0
 15 14  1  0  0  0  0
 16 15  1  0  0  0  0
 17 15  2  0  0  0  0
 17 19  1  0  0  0  0
 18 17  1  0  0  0  0
 19 21  2  0  0  0  0
 20 19  1  0  0  0  0
 21 13  1  0  0  0  0
 21 22  1  0  0  0  0
 22 23  1  0  0  0  0
 22 24  1  0  0  0  0
 25 22  1  0  0  0  0
 26 28  1  0  0  0  0
 27 26  1  0  0  0  0
 28 30  2  0  0  0  0
 28 29  1  0  0  0  0
 30 31  1  0  0  0  0
M  END
