1,5,9
q = 0.0, confidence = 0.946

 12 12  0  0  0  0  0  0  0  0999 V2000
   -1.1060    1.7715   -1.2876 C   0  0  0  0  0  3  0  0  0  0  0  0
   -2.0460    1.3164   -1.6350 H   0  0  0  0  0  0  0  0  0  0  0  0
   -1.0820    2.4433   -0.0251 C   0  0  0  0  0  3  0  0  0  0  0  0
   -1.9952    2.5186    0.5792 H   0  0  0  0  0  0  0  0  0  0  0  0
    0.1653    2.9260    0.4767 C   0  0  0  0  0  3  0  0  0  0  0  0
    0.2121    3.3345    1.4966 H   0  0  0  0  0  0  0  0  0  0  0  0
    1.3711    2.7590   -0.2616 C   0  0  0  0  0  3  0  0  0  0  0  0
    2.3297    3.0883    0.1618 H   0  0  0  0  0  0  0  0  0  0  0  0
    1.3203    2.0727   -1.5212 C   0  0  0  0  0  3  0  0  0  0  0  0
    2.2554    1.8625   -2.0630 H   0  0  0  0  0  0  0  0  0  0  0  0
    0.0808    1.6274   -2.0709 C   0  0  0  0  0  3  0  0  0  0  0  0
    0.0572    1.0868   -3.0275 H   0  0  0  0  0  0  0  0  0  0  0  0
  1  3  1  0  0  0  0
  2  1  1  0  0  0  0
  3  5  1  0  0  0  0
  3  4  1  0  0  0  0
  5  6  1  0  0  0  0
  7  8  1  0  0  0  0
  7  5  1  0  0  0  0
  9  7  1  0  0  0  0
 10  9  1  0  0  0  0
 11  9  1  0  0  0  0
 11  1  1  0  0  0  0
 12 11  1  0  0  0  0
M  END
