9,12,16
q = 0.0, confidence = 0.998

 29 31  0  0  1  0  0  0  0  0999 V2000
   -0.0251    3.1840    1.0372 O   0  0  0  0  0  0  0  0  0  0  0  0
   -1.4913    1.5950    0.4689 O   0  0  0  0  0  0  0  0  0  0  0  0
   -0.2472    2.1476    0.4453 C   0  0  0  0  0  0  0  0  0  0  0  0
   -1.6637    0.2248    0.0427 C   0  0  2  0  0  0  0  0  0  0  0  0
   -1.1328   -0.4198    0.7763 H   0  0  0  0  0  0  0  0  0  0  0  0
   -1.0245    0.0092   -1.3349 C   0  0  0  0  0  0  0  0  0  0  0  0
   -1.5686    0.6234   -2.0858 H   0  0  0  0  0  0  0  0  0  0  0  0
   -1.1378   -1.0512   -1.6332 H   0  0  0  0  0  0  0  0  0  0  0  0
    0.4232    0.4108   -1.2981 C   0  0  1  0  0  3  0  0  0  0  0  0
    1.4313   -0.1872   -2.1158 C   0  0  0  0  0  3  0  0  0  0  0  0
    1.1658   -1.0141   -2.7888 H   0  0  0  0  0  0  0  0  0  0  0  0
    2.7830    0.2179   -1.9820 C   0  0  0  0  0  3  0  0  0  0  0  0
    3.5624   -0.2938   -2.5639 H   0  0  0  0  0  0  0  0  0  0  0  0
    3.1460    1.2658   -1.0779 C   0  0  0  0  0  3  0  0  0  0  0  0
    4.1997    1.5511   -0.9586 H   0  0  0  0  0  0  0  0  0  0  0  0
    2.1507    1.8668   -0.2784 C   0  0  0  0  0  3  0  0  0  0  0  0
    2.3930    2.6439    0.4597 H   0  0  0  0  0  0  0  0  0  0  0  0
    0.7828    1.4560   -0.3921 C   0  0  1  0  0  3  0  0  0  0  0  0
   -3.1343   -0.1175    0.0580 C   0  0  0  0  0  0  0  0  0  0  0  0
   -4.1226    0.8667   -0.1206 C   0  0  0  0  0  0  0  0  0  0  0  0
   -3.8217    1.9203   -0.2107 H   0  0  0  0  0  0  0  0  0  0  0  0
   -5.4776    0.5027   -0.1563 C   0  0  0  0  0  0  0  0  0  0  0  0
   -6.2468    1.2788   -0.2881 H   0  0  0  0  0  0  0  0  0  0  0  0
   -5.8532   -0.8427   -0.0192 C   0  0  0  0  0  0  0  0  0  0  0  0
   -6.9167   -1.1248   -0.0460 H   0  0  0  0  0  0  0  0  0  0  0  0
   -4.8683   -1.8271    0.1634 C   0  0  0  0  0  0  0  0  0  0  0  0
   -5.1566   -2.8823    0.2840 H   0  0  0  0  0  0  0  0  0  0  0  0
   -3.5143   -1.4657    0.2066 C   0  0  0  0  0  0  0  0  0  0  0  0
   -2.7398   -2.2339    0.3650 H   0  0  0  0  0  0  0  0  0  0  0  0
  3  2  1  0  0  0  0
  3  1  2  0  0  0  0
  4 19  1  0  0  0  0
  4  2  1  0  0  0  0
  4  5  1  1  0  0  0
  6  9  1  0  0  0  0
  6  4  1  0  0  0  0
  7  6  1  0  0  0  0
  8  6  1  0  0  0  0
  9 10  1  6  0  0  0
  9 18  1  0  0  0  0
 10 12  1  0  0  0  0
 11 10  1  0  0  0  0
 12 14  1  0  0  0  0
 13 12  1  0  0  0  0
 14 15  1  0  0  0  0
 14 16  1  0  0  0  0
 16 17  1  0  0  0  0
 18 16  1  6  0  0  0
 18  3  1  0  0  0  0
 19 28  1  0  0  0  0
 20 19  2  0  0  0  0
 21 20  1  0  0  0  0
 22 20  1  0  0  0  0
 22 24  2  0  0  0  0
 23 22  1  0  0  0  0
 24 26  1  0  0  0  0
 25 24  1  0  0  0  0
 26 28  2  0  0  0  0
 26 27  1  0  0  0  0
 28 29  1  0  0  0  0
M  END
