1,4,6
q = 0.0, confidence = 1.0

 26 26  0  0  1  0  0  0  0  0999 V2000
    1.1189   -0.5875    0.5632 C   0  0  2  0  0  3  0  0  0  0  0  0
    1.3723    3.3066    0.2261 C   0  0  0  0  0  0  0  0  0  0  0  0
    0.8979    0.8242    0.7254 C   0  0  2  0  0  3  0  0  0  0  0  0
   -0.1790    1.2393    1.5743 C   0  0  0  0  0  3  0  0  0  0  0  0
   -1.0113    0.3115    2.2492 C   0  0  0  0  0  3  0  0  0  0  0  0
   -0.7915   -1.0817    2.0542 C   0  0  0  0  0  3  0  0  0  0  0  0
    0.2818   -1.5230    1.2458 C   0  0  0  0  0  3  0  0  0  0  0  0
    2.2681   -1.1546   -0.2808 C   0  0  1  0  0  0  0  0  0  0  0  0
    3.5287   -1.2569    0.5801 C   0  0  0  0  0  0  0  0  0  0  0  0
    1.7201    1.8467   -0.0659 C   0  0  1  0  0  0  0  0  0  0  0  0
    0.3235    3.5331   -0.0541 H   0  0  0  0  0  0  0  0  0  0  0  0
    1.5252    3.5721    1.2917 H   0  0  0  0  0  0  0  0  0  0  0  0
    2.0273    3.9519   -0.3891 H   0  0  0  0  0  0  0  0  0  0  0  0
    1.3756   -2.3636   -1.5203 H   0  0  0  0  0  0  0  0  0  0  0  0
    0.7106    1.3780   -1.6507 H   0  0  0  0  0  0  0  0  0  0  0  0
   -0.3980    2.3098    1.6768 H   0  0  0  0  0  0  0  0  0  0  0  0
   -1.8566    0.6660    2.8536 H   0  0  0  0  0  0  0  0  0  0  0  0
   -1.4678   -1.8152    2.5158 H   0  0  0  0  0  0  0  0  0  0  0  0
    0.4485   -2.5897    1.0443 H   0  0  0  0  0  0  0  0  0  0  0  0
    2.4453   -0.4523   -1.1225 H   0  0  0  0  0  0  0  0  0  0  0  0
    3.3617   -1.9607    1.4202 H   0  0  0  0  0  0  0  0  0  0  0  0
    4.3647   -1.6414   -0.0353 H   0  0  0  0  0  0  0  0  0  0  0  0
    3.8171   -0.2736    1.0000 H   0  0  0  0  0  0  0  0  0  0  0  0
    2.7887    1.6884    0.2034 H   0  0  0  0  0  0  0  0  0  0  0  0
    1.9774   -2.4595   -0.7568 O   0  0  0  0  0  0  0  0  0  0  0  0
    1.6520    1.5869   -1.4658 O   0  0  0  0  0  0  0  0  0  0  0  0
  1  8  1  1  0  0  0
  1  3  1  0  0  0  0
  1  7  1  0  0  0  0
  2 12  1  0  0  0  0
  3 10  1  6  0  0  0
  3  4  1  0  0  0  0
  4 16  1  0  0  0  0
  4  5  1  0  0  0  0
  5 17  1  0  0  0  0
  6  5  1  0  0  0  0
  6 18  1  0  0  0  0
  7  6  1  0  0  0  0
  8 20  1  6  0  0  0
  8  9  1  0  0  0  0
  9 23  1  0  0  0  0
  9 21  1  0  0  0  0
 10 24  1  1  0  0  0
 10  2  1  0  0  0  0
 11  2  1  0  0  0  0
 13  2  1  0  0  0  0
 14 25  1  0  0  0  0
 15 26  1  0  0  0  0
 19  7  1  0  0  0  0
 22  9  1  0  0  0  0
 25  8  1  0  0  0  0
 26 10  1  0  0  0  0
M  END
