5,14,19
q = -1.0, confidence = 0.0

 49 51  0  0  0  0  0  0  0  0999 V2000
    0.6926    3.0160   -0.5526 N   0  0  0  0  0  0  0  0  0  0  0  0
    2.5741    2.0351   -0.1026 N   0  0  0  0  0  0  0  0  0  0  0  0
   -3.0851    0.4254    0.0709 N   0  0  0  0  0  0  0  0  0  0  0  0
   -2.7197   -1.6048    0.7429 N   0  0  0  0  0  0  0  0  0  0  0  0
   -1.3107    1.8897   -0.2322 C   0  0  0  0  0  3  0  0  0  0  0  0
   -2.7000    1.7300   -0.3240 C   0  0  0  0  0  0  0  0  0  0  0  0
   -3.5167    2.7699   -0.7961 C   0  0  0  0  0  0  0  0  0  0  0  0
   -4.6081    2.6573   -0.8746 H   0  0  0  0  0  0  0  0  0  0  0  0
   -2.8988    3.9751   -1.1880 C   0  0  0  0  0  0  0  0  0  0  0  0
   -3.5252    4.7985   -1.5609 H   0  0  0  0  0  0  0  0  0  0  0  0
   -1.5009    4.1509   -1.1324 C   0  0  0  0  0  0  0  0  0  0  0  0
   -1.0489    5.0959   -1.4680 H   0  0  0  0  0  0  0  0  0  0  0  0
   -0.7182    3.0880   -0.6542 C   0  0  0  0  0  0  0  0  0  0  0  0
    1.2269    1.8370   -0.0383 C   0  0  0  0  0  2  0  0  0  0  0  0
    1.6865    3.9032   -0.9326 C   0  0  0  0  0  0  0  0  0  0  0  0
    1.4765    4.8838   -1.3680 H   0  0  0  0  0  0  0  0  0  0  0  0
    2.8758    3.2792   -0.6522 C   0  0  0  0  0  0  0  0  0  0  0  0
    3.9079    3.6129   -0.7945 H   0  0  0  0  0  0  0  0  0  0  0  0
   -2.0708   -0.4320    0.4918 C   0  0  0  0  0  2  0  0  0  0  0  0
   -4.3169   -0.2080    0.0581 C   0  0  0  0  0  0  0  0  0  0  0  0
   -5.2406    0.2887   -0.2501 H   0  0  0  0  0  0  0  0  0  0  0  0
   -4.0833   -1.4924    0.4793 C   0  0  0  0  0  0  0  0  0  0  0  0
   -4.7670   -2.3360    0.6100 H   0  0  0  0  0  0  0  0  0  0  0  0
   -2.0691   -2.8621    1.1332 C   0  0  0  0  0  0  0  0  0  0  0  0
   -2.8492   -3.4850    1.6173 H   0  0  0  0  0  0  0  0  0  0  0  0
   -1.2912   -2.6165    1.8839 H   0  0  0  0  0  0  0  0  0  0  0  0
   -1.4201   -3.5909   -0.0435 C   0  0  0  0  0  0  0  0  0  0  0  0
   -0.5716   -2.9724   -0.4060 H   0  0  0  0  0  0  0  0  0  0  0  0
   -0.9701   -4.5237    0.3607 H   0  0  0  0  0  0  0  0  0  0  0  0
   -2.3567   -3.9114   -1.2091 C   0  0  0  0  0  0  0  0  0  0  0  0
   -2.7832   -2.9625   -1.6021 H   0  0  0  0  0  0  0  0  0  0  0  0
   -3.2206   -4.5176   -0.8500 H   0  0  0  0  0  0  0  0  0  0  0  0
   -1.6397   -4.6390   -2.3469 C   0  0  0  0  0  0  0  0  0  0  0  0
   -0.8075   -4.0182   -2.7382 H   0  0  0  0  0  0  0  0  0  0  0  0
   -2.3245   -4.8588   -3.1906 H   0  0  0  0  0  0  0  0  0  0  0  0
   -1.2063   -5.6019   -2.0038 H   0  0  0  0  0  0  0  0  0  0  0  0
    3.5806    1.0353    0.2612 C   0  0  0  0  0  0  0  0  0  0  0  0
    3.1757    0.4599    1.1186 H   0  0  0  0  0  0  0  0  0  0  0  0
    4.4853    1.5819    0.6001 H   0  0  0  0  0  0  0  0  0  0  0  0
    3.8997    0.0777   -0.8858 C   0  0  0  0  0  0  0  0  0  0  0  0
    4.2822    0.6511   -1.7599 H   0  0  0  0  0  0  0  0  0  0  0  0
    2.9479   -0.3969   -1.2092 H   0  0  0  0  0  0  0  0  0  0  0  0
    4.9020   -1.0020   -0.4730 C   0  0  0  0  0  0  0  0  0  0  0  0
    5.8517   -0.5273   -0.1357 H   0  0  0  0  0  0  0  0  0  0  0  0
    4.4929   -1.5409    0.4095 H   0  0  0  0  0  0  0  0  0  0  0  0
    5.1879   -1.9993   -1.5958 C   0  0  0  0  0  0  0  0  0  0  0  0
    4.2565   -2.5113   -1.9139 H   0  0  0  0  0  0  0  0  0  0  0  0
    5.9092   -2.7786   -1.2773 H   0  0  0  0  0  0  0  0  0  0  0  0
    5.6106   -1.4951   -2.4903 H   0  0  0  0  0  0  0  0  0  0  0  0
  1 14  1  0  0  0  0
  2 14  1  0  0  0  0
  2 37  1  0  0  0  0
  3 19  1  0  0  0  0
  4 24  1  0  0  0  0
  6  5  1  0  0  0  0
  6  3  1  0  0  0  0
  7  6  2  0  0  0  0
  8  7  1  0  0  0  0
  9 11  2  0  0  0  0
  9  7  1  0  0  0  0
 10  9  1  0  0  0  0
 11 13  1  0  0  0  0
 12 11  1  0  0  0  0
 13  1  1  0  0  0  0
 13  5  2  0  0  0  0
 15 17  2  0  0  0  0
 15  1  1  0  0  0  0
 16 15  1  0  0  0  0
 17  2  1  0  0  0  0
 18 17  1  0  0  0  0
 19  4  1  0  0  0  0
 20  3  1  0  0  0  0
 20 22  2  0  0  0  0
 21 20  1  0  0  0  0
 22 23  1  0  0  0  0
 22  4  1  0  0  0  0
 24 25  1  0  0  0  0
 24 26  1  0  0  0  0
 27 29  1  0  0  0  0
 27 24  1  0  0  0  0
 28 27  1  0  0  0  0
 30 32  1  0  0  0  0
 30 27  1  0  0  0  0
 31 30  1  0  0  0  0
 33 36  1  0  0  0  0
 33 30  1  0  0  0  0
 34 33  1  0  0  0  0
 35 33  1  0  0  0  0
 37 39  1  0  0  0  0
 37 38  1  0  0  0  0
 40 43  1  0  0  0  0
 40 37  1  0  0  0  0
 41 40  1  0  0  0  0
 42 40  1  0  0  0  0
 43 44  1  0  0  0  0
 43 45  1  0  0  0  0
 46 48  1  0  0  0  0
 46 43  1  0  0  0  0
 47 46  1  0  0  0  0
 49 46  1  0  0  0  0
M  END
