25,28,32
q = 0.0, confidence = 0.996

 56 58  0  0  1  0  0  0  0  0999 V2000
    3.8605   -0.6504   -0.3625 Si  0  0  0  0  0  0  0  0  0  0  0  0
    1.6353    1.4999   -1.2184 O   0  0  0  0  0  0  0  0  0  0  0  0
    2.1865   -0.4554   -0.0143 O   0  0  0  0  0  0  0  0  0  0  0  0
   -0.4334    1.6711   -0.3253 O   0  0  0  0  0  0  0  0  0  0  0  0
    1.2878    0.1678   -0.8797 C   0  0  1  0  0  0  0  0  0  0  0  0
    1.2100   -0.3983   -1.8363 H   0  0  0  0  0  0  0  0  0  0  0  0
   -0.0893    0.3141   -0.1513 C   0  0  2  0  0  0  0  0  0  0  0  0
    0.0896    0.0640    0.9193 H   0  0  0  0  0  0  0  0  0  0  0  0
    0.7987    2.3874   -0.4601 C   0  0  0  0  0  0  0  0  0  0  0  0
    0.5301    3.6570   -1.2577 C   0  0  0  0  0  0  0  0  0  0  0  0
    0.0835    3.3640   -2.2291 H   0  0  0  0  0  0  0  0  0  0  0  0
    1.5109    4.1315   -1.4711 H   0  0  0  0  0  0  0  0  0  0  0  0
   -0.3770    4.6156   -0.4738 C   0  0  0  0  0  0  0  0  0  0  0  0
   -0.5328    5.5471   -1.0561 H   0  0  0  0  0  0  0  0  0  0  0  0
   -1.3747    4.1412   -0.3558 H   0  0  0  0  0  0  0  0  0  0  0  0
    0.2010    4.9320    0.9126 C   0  0  0  0  0  0  0  0  0  0  0  0
    1.1472    5.5075    0.7929 H   0  0  0  0  0  0  0  0  0  0  0  0
   -0.4949    5.5881    1.4754 H   0  0  0  0  0  0  0  0  0  0  0  0
    0.4857    3.6505    1.7076 C   0  0  0  0  0  0  0  0  0  0  0  0
   -0.4694    3.1246    1.9220 H   0  0  0  0  0  0  0  0  0  0  0  0
    0.9448    3.8928    2.6882 H   0  0  0  0  0  0  0  0  0  0  0  0
    1.3999    2.7026    0.9202 C   0  0  0  0  0  0  0  0  0  0  0  0
    2.3954    3.1658    0.7516 H   0  0  0  0  0  0  0  0  0  0  0  0
    1.5837    1.7578    1.4699 H   0  0  0  0  0  0  0  0  0  0  0  0
   -1.1662   -0.5898   -0.6906 C   0  0  0  0  0  3  0  0  0  0  0  0
   -2.0867   -0.1209   -1.6739 C   0  0  0  0  0  3  0  0  0  0  0  0
   -2.0367    0.9301   -1.9842 H   0  0  0  0  0  0  0  0  0  0  0  0
   -3.1183   -0.9834   -2.1342 C   0  0  0  0  0  3  0  0  0  0  0  0
   -3.8724   -0.5981   -2.8354 H   0  0  0  0  0  0  0  0  0  0  0  0
   -3.2054   -2.3300   -1.6782 C   0  0  0  0  0  3  0  0  0  0  0  0
   -4.0234   -2.9801   -2.0147 H   0  0  0  0  0  0  0  0  0  0  0  0
   -2.2754   -2.7878   -0.7041 C   0  0  0  0  0  3  0  0  0  0  0  0
   -2.3733   -3.8030   -0.2939 H   0  0  0  0  0  0  0  0  0  0  0  0
   -1.2401   -1.9370   -0.2260 C   0  0  0  0  0  3  0  0  0  0  0  0
   -0.5458   -2.2855    0.5509 H   0  0  0  0  0  0  0  0  0  0  0  0
    4.7735    0.9221    0.1262 C   0  0  0  0  0  0  0  0  0  0  0  0
    4.4123    1.7623   -0.4997 H   0  0  0  0  0  0  0  0  0  0  0  0
    5.8683    0.8213   -0.0200 H   0  0  0  0  0  0  0  0  0  0  0  0
    4.5872    1.1820    1.1874 H   0  0  0  0  0  0  0  0  0  0  0  0
    4.0647   -0.9768   -2.2091 C   0  0  0  0  0  0  0  0  0  0  0  0
    3.7288   -0.0967   -2.7946 H   0  0  0  0  0  0  0  0  0  0  0  0
    3.4813   -1.8586   -2.5428 H   0  0  0  0  0  0  0  0  0  0  0  0
    5.1299   -1.1589   -2.4592 H   0  0  0  0  0  0  0  0  0  0  0  0
    4.0426   -1.8233    2.1925 C   0  0  0  0  0  0  0  0  0  0  0  0
    4.2866   -2.6932    2.8420 H   0  0  0  0  0  0  0  0  0  0  0  0
    2.9707   -1.5804    2.3402 H   0  0  0  0  0  0  0  0  0  0  0  0
    4.6384   -0.9618    2.5590 H   0  0  0  0  0  0  0  0  0  0  0  0
    5.8518   -2.4401    0.5451 C   0  0  0  0  0  0  0  0  0  0  0  0
    6.1541   -3.3115    1.1674 H   0  0  0  0  0  0  0  0  0  0  0  0
    6.4803   -1.5807    0.8588 H   0  0  0  0  0  0  0  0  0  0  0  0
    6.1114   -2.6833   -0.5065 H   0  0  0  0  0  0  0  0  0  0  0  0
    3.5229   -3.3741    0.2794 C   0  0  0  0  0  0  0  0  0  0  0  0
    3.7543   -4.2518    0.9229 H   0  0  0  0  0  0  0  0  0  0  0  0
    3.7400   -3.6679   -0.7686 H   0  0  0  0  0  0  0  0  0  0  0  0
    2.4342   -3.1755    0.3566 H   0  0  0  0  0  0  0  0  0  0  0  0
    4.3491   -2.1505    0.7183 C   0  0  0  0  0  0  0  0  0  0  0  0
  1  3  1  0  0  0  0
  1 36  1  0  0  0  0
  1 56  1  0  0  0  0
  2  5  1  0  0  0  0
  2  9  1  0  0  0  0
  4  7  1  0  0  0  0
  5  6  1  6  0  0  0
  5  7  1  0  0  0  0
  5  3  1  0  0  0  0
  7  8  1  1  0  0  0
  9  4  1  0  0  0  0
  9 22  1  0  0  0  0
 10 13  1  0  0  0  0
 10  9  1  0  0  0  0
 11 10  1  0  0  0  0
 12 10  1  0  0  0  0
 13 15  1  0  0  0  0
 13 16  1  0  0  0  0
 14 13  1  0  0  0  0
 16 18  1  0  0  0  0
 16 19  1  0  0  0  0
 17 16  1  0  0  0  0
 19 20  1  0  0  0  0
 19 21  1  0  0  0  0
 22 24  1  0  0  0  0
 22 19  1  0  0  0  0
 23 22  1  0  0  0  0
 25 34  1  0  0  0  0
 25  7  1  0  0  0  0
 26 25  1  0  0  0  0
 27 26  1  0  0  0  0
 28 30  1  0  0  0  0
 28 26  1  0  0  0  0
 29 28  1  0  0  0  0
 30 32  1  0  0  0  0
 31 30  1  0  0  0  0
 32 33  1  0  0  0  0
 32 34  1  0  0  0  0
 34 35  1  0  0  0  0
 36 39  1  0  0  0  0
 37 36  1  0  0  0  0
 38 36  1  0  0  0  0
 40  1  1  0  0  0  0
 41 40  1  0  0  0  0
 42 40  1  0  0  0  0
 43 40  1  0  0  0  0
 44 46  1  0  0  0  0
 44 47  1  0  0  0  0
 44 45  1  0  0  0  0
 48 56  1  0  0  0  0
 48 50  1  0  0  0  0
 48 49  1  0  0  0  0
 51 48  1  0  0  0  0
 52 55  1  0  0  0  0
 52 56  1  0  0  0  0
 52 53  1  0  0  0  0
 54 52  1  0  0  0  0
 56 44  1  0  0  0  0
M  END
