2,4,6
q = 0.0, confidence = 0.982

 35 35  0  0  1  0  0  0  0  0999 V2000
   -0.0001   -1.1845   -0.0717 N   0  0  0  0  0  2  0  0  0  0  0  0
   -1.1926   -0.7894    0.4746 C   0  0  2  0  0  3  0  0  0  0  0  0
   -1.2300    0.0277    1.6473 C   0  0  0  0  0  3  0  0  0  0  0  0
    0.0000    0.4552    2.2137 C   0  0  0  0  0  3  0  0  0  0  0  0
    1.2299    0.0276    1.6474 C   0  0  0  0  0  3  0  0  0  0  0  0
    1.1925   -0.7895    0.4747 C   0  0  1  0  0  3  0  0  0  0  0  0
   -2.4525   -1.4266   -0.1253 C   0  0  0  0  0  0  0  0  0  0  0  0
   -2.3214   -1.5913   -1.6505 C   0  0  0  0  0  0  0  0  0  0  0  0
   -2.5406   -2.8281    0.5293 C   0  0  0  0  0  0  0  0  0  0  0  0
   -3.7227   -0.6235    0.2022 C   0  0  0  0  0  0  0  0  0  0  0  0
    2.4523   -1.4268   -0.1253 C   0  0  0  0  0  0  0  0  0  0  0  0
    2.3211   -1.5916   -1.6505 C   0  0  0  0  0  0  0  0  0  0  0  0
    3.7226   -0.6239    0.2021 C   0  0  0  0  0  0  0  0  0  0  0  0
    2.5403   -2.8283    0.5293 C   0  0  0  0  0  0  0  0  0  0  0  0
   -2.1834    0.3600    2.0725 H   0  0  0  0  0  0  0  0  0  0  0  0
    0.0000    1.1249    3.0856 H   0  0  0  0  0  0  0  0  0  0  0  0
    2.1834    0.3598    2.0726 H   0  0  0  0  0  0  0  0  0  0  0  0
   -1.3838   -2.1155   -1.9115 H   0  0  0  0  0  0  0  0  0  0  0  0
   -2.3251   -0.6126   -2.1659 H   0  0  0  0  0  0  0  0  0  0  0  0
   -3.1778   -2.1818   -2.0333 H   0  0  0  0  0  0  0  0  0  0  0  0
   -3.4300   -3.3703    0.1490 H   0  0  0  0  0  0  0  0  0  0  0  0
   -2.6266   -2.7550    1.6327 H   0  0  0  0  0  0  0  0  0  0  0  0
   -1.6392   -3.4273    0.2911 H   0  0  0  0  0  0  0  0  0  0  0  0
   -3.9358   -0.5930    1.2897 H   0  0  0  0  0  0  0  0  0  0  0  0
   -4.5963   -1.1023   -0.2831 H   0  0  0  0  0  0  0  0  0  0  0  0
   -3.6567    0.4160   -0.1744 H   0  0  0  0  0  0  0  0  0  0  0  0
    2.3248   -0.6129   -2.1659 H   0  0  0  0  0  0  0  0  0  0  0  0
    1.3835   -2.1158   -1.9114 H   0  0  0  0  0  0  0  0  0  0  0  0
    3.1775   -2.1821   -2.0333 H   0  0  0  0  0  0  0  0  0  0  0  0
    3.6567    0.4156   -0.1746 H   0  0  0  0  0  0  0  0  0  0  0  0
    4.5962   -1.1028   -0.2832 H   0  0  0  0  0  0  0  0  0  0  0  0
    3.9357   -0.5933    1.2896 H   0  0  0  0  0  0  0  0  0  0  0  0
    3.4297   -3.3706    0.1490 H   0  0  0  0  0  0  0  0  0  0  0  0
    1.6388   -3.4274    0.2912 H   0  0  0  0  0  0  0  0  0  0  0  0
    2.6264   -2.7552    1.6328 H   0  0  0  0  0  0  0  0  0  0  0  0
  1  2  1  0  0  0  0
  1  6  1  0  0  0  0
  2  7  1  1  0  0  0
  2  3  1  0  0  0  0
  3 15  1  0  0  0  0
  3  4  1  0  0  0  0
  4 16  1  0  0  0  0
  5 17  1  0  0  0  0
  5  4  1  0  0  0  0
  6 11  1  1  0  0  0
  6  5  1  0  0  0  0
  7 10  1  0  0  0  0
  7  9  1  0  0  0  0
  8  7  1  0  0  0  0
  9 22  1  0  0  0  0
 10 24  1  0  0  0  0
 11 13  1  0  0  0  0
 11 14  1  0  0  0  0
 12 11  1  0  0  0  0
 13 32  1  0  0  0  0
 14 35  1  0  0  0  0
 18  8  1  0  0  0  0
 19  8  1  0  0  0  0
 20  8  1  0  0  0  0
 21  9  1  0  0  0  0
 23  9  1  0  0  0  0
 25 10  1  0  0  0  0
 26 10  1  0  0  0  0
 27 12  1  0  0  0  0
 28 12  1  0  0  0  0
 29 12  1  0  0  0  0
 30 13  1  0  0  0  0
 31 13  1  0  0  0  0
 33 14  1  0  0  0  0
 34 14  1  0  0  0  0
M  END
