2,4,6
q = 0.0, confidence = 0.992

 26 26  0  0  0  0  0  0  0  0999 V2000
    1.0228    0.8846   -2.0346 C   0  0  0  0  0  3  0  0  0  0  0  0
    1.6356    1.8826   -1.2193 C   0  0  0  0  0  3  0  0  0  0  0  0
    1.0235    2.2754   -0.0054 C   0  0  0  0  0  3  0  0  0  0  0  0
   -0.1816    1.6333    0.4146 C   0  0  0  0  0  3  0  0  0  0  0  0
   -0.8284    0.6431   -0.3845 C   0  0  0  0  0  3  0  0  0  0  0  0
   -0.1805    0.2670   -1.6106 C   0  0  0  0  0  3  0  0  0  0  0  0
   -2.1597    0.0350    0.0697 C   0  0  0  0  0  0  0  0  0  0  0  0
   -2.0210   -0.6610    1.4371 C   0  0  0  0  0  0  0  0  0  0  0  0
   -2.7495   -0.9580   -0.9632 C   0  0  0  0  0  0  0  0  0  0  0  0
   -1.9356   -2.0632   -1.3005 O   0  0  0  0  0  0  0  0  0  0  0  0
   -3.1810    1.2133    0.1879 C   0  0  0  0  0  0  0  0  0  0  0  0
   -4.4908    0.8115    0.5280 O   0  0  0  0  0  0  0  0  0  0  0  0
    1.5146    0.5448   -2.9558 H   0  0  0  0  0  0  0  0  0  0  0  0
    2.5984    2.3216   -1.5165 H   0  0  0  0  0  0  0  0  0  0  0  0
    1.5068    3.0139    0.6480 H   0  0  0  0  0  0  0  0  0  0  0  0
   -0.6052    1.9071    1.3910 H   0  0  0  0  0  0  0  0  0  0  0  0
   -0.5942   -0.5682   -2.1900 H   0  0  0  0  0  0  0  0  0  0  0  0
   -3.0133   -1.0004    1.8022 H   0  0  0  0  0  0  0  0  0  0  0  0
   -1.3634   -1.5501    1.3776 H   0  0  0  0  0  0  0  0  0  0  0  0
   -1.5769    0.0045    2.2033 H   0  0  0  0  0  0  0  0  0  0  0  0
   -3.7493   -1.2684   -0.5826 H   0  0  0  0  0  0  0  0  0  0  0  0
   -2.9343   -0.4160   -1.9155 H   0  0  0  0  0  0  0  0  0  0  0  0
   -1.6362   -2.5125   -0.4881 H   0  0  0  0  0  0  0  0  0  0  0  0
   -2.7820    1.9686    0.9062 H   0  0  0  0  0  0  0  0  0  0  0  0
   -3.2548    1.7173   -0.7990 H   0  0  0  0  0  0  0  0  0  0  0  0
   -4.4769    0.5066    1.4534 H   0  0  0  0  0  0  0  0  0  0  0  0
  1  6  1  0  0  0  0
  1  2  1  0  0  0  0
  2  3  1  0  0  0  0
  3  4  1  0  0  0  0
  3 15  1  0  0  0  0
  4 16  1  0  0  0  0
  5  7  1  0  0  0  0
  5  4  1  0  0  0  0
  6  5  1  0  0  0  0
  7 11  1  0  0  0  0
  7  8  1  0  0  0  0
  8 18  1  0  0  0  0
  8 20  1  0  0  0  0
  9 21  1  0  0  0  0
  9  7  1  0  0  0  0
 10  9  1  0  0  0  0
 10 23  1  0  0  0  0
 11 12  1  0  0  0  0
 11 24  1  0  0  0  0
 12 26  1  0  0  0  0
 13  1  1  0  0  0  0
 14  2  1  0  0  0  0
 17  6  1  0  0  0  0
 19  8  1  0  0  0  0
 22  9  1  0  0  0  0
 25 11  1  0  0  0  0
M  END
