18,22,25
q = 0.0, confidence = 0.992

 26 28  0  0  0  0  0  0  0  0999 V2000
   -1.8493    0.8684   -0.4747 N   0  0  0  0  0  0  0  0  0  0  0  0
   -1.0369   -0.1363   -0.7926 C   0  0  0  0  0  0  0  0  0  0  0  0
   -1.5061   -1.4969   -0.7657 C   0  0  0  0  0  0  0  0  0  0  0  0
   -0.8188   -2.3316   -0.9887 H   0  0  0  0  0  0  0  0  0  0  0  0
   -2.7442   -1.8209   -0.4520 N   0  0  0  0  0  0  0  0  0  0  0  0
   -3.5950   -0.7989   -0.1335 C   0  0  0  0  0  0  0  0  0  0  0  0
   -4.9450   -1.0813    0.2124 C   0  0  0  0  0  0  0  0  0  0  0  0
   -5.2661   -2.1330    0.2046 H   0  0  0  0  0  0  0  0  0  0  0  0
   -5.8053   -0.0453    0.5492 C   0  0  0  0  0  0  0  0  0  0  0  0
   -6.8497   -0.2634    0.8186 H   0  0  0  0  0  0  0  0  0  0  0  0
   -5.3488    1.3026    0.5530 C   0  0  0  0  0  0  0  0  0  0  0  0
   -6.0470    2.1084    0.8258 H   0  0  0  0  0  0  0  0  0  0  0  0
   -3.1322    0.5676   -0.1353 C   0  0  0  0  0  0  0  0  0  0  0  0
   -4.0379    1.6090    0.2179 C   0  0  0  0  0  0  0  0  0  0  0  0
   -3.6608    2.6420    0.2122 H   0  0  0  0  0  0  0  0  0  0  0  0
    2.1971    1.8843   -1.1099 C   0  0  0  0  0  3  0  0  0  0  0  0
    2.5631    2.8790   -0.8231 H   0  0  0  0  0  0  0  0  0  0  0  0
    3.0908    0.9202   -1.6549 C   0  0  0  0  0  3  0  0  0  0  0  0
    4.1498    1.1756   -1.8011 H   0  0  0  0  0  0  0  0  0  0  0  0
    2.6241   -0.3783   -1.9975 C   0  0  0  0  0  3  0  0  0  0  0  0
    3.3164   -1.1286   -2.4011 H   0  0  0  0  0  0  0  0  0  0  0  0
    1.2790   -0.7375   -1.7113 C   0  0  0  0  0  3  0  0  0  0  0  0
    0.9512   -1.7629   -1.9267 H   0  0  0  0  0  0  0  0  0  0  0  0
    0.3584    0.2086   -1.1531 C   0  0  0  0  0  3  0  0  0  0  0  0
    0.8546    1.5155   -0.8400 C   0  0  0  0  0  3  0  0  0  0  0  0
    0.1545    2.2160   -0.3644 H   0  0  0  0  0  0  0  0  0  0  0  0
  1 13  1  0  0  0  0
  2  3  1  0  0  0  0
  2  1  2  0  0  0  0
  3  5  2  0  0  0  0
  4  3  1  0  0  0  0
  5  6  1  0  0  0  0
  6  7  1  0  0  0  0
  7  9  2  0  0  0  0
  8  7  1  0  0  0  0
  9 11  1  0  0  0  0
  9 10  1  0  0  0  0
 11 12  1  0  0  0  0
 13  6  2  0  0  0  0
 13 14  1  0  0  0  0
 14 11  2  0  0  0  0
 15 14  1  0  0  0  0
 16 25  1  0  0  0  0
 16 17  1  0  0  0  0
 18 16  1  0  0  0  0
 19 18  1  0  0  0  0
 20 22  1  0  0  0  0
 20 18  1  0  0  0  0
 21 20  1  0  0  0  0
 22 24  1  0  0  0  0
 23 22  1  0  0  0  0
 24 25  1  0  0  0  0
 24  2  1  0  0  0  0
 25 26  1  0  0  0  0
M  END
