12,15,58
q = 0.0, confidence = 0.994

 69 70  0  0  1  0  0  0  0  0999 V2000
    3.7750    2.9430   -0.6801 O   0  0  0  0  0  0  0  0  0  0  0  0
    6.4799   -1.8942    0.5813 C   0  0  0  0  0  0  0  0  0  0  0  0
    5.7090   -3.0084    0.6951 O   0  0  0  0  0  0  0  0  0  0  0  0
    1.4978   -2.2856   -0.8201 O   0  0  0  0  0  0  0  0  0  0  0  0
   -0.9330    0.2297   -0.0039 C   0  0  0  0  0  0  0  0  0  0  0  0
   -0.5932   -0.7900    0.2556 H   0  0  0  0  0  0  0  0  0  0  0  0
   -0.8177    0.8210    0.9229 H   0  0  0  0  0  0  0  0  0  0  0  0
    7.6798   -1.9025    0.8097 O   0  0  0  0  0  0  0  0  0  0  0  0
    1.4403    1.8924    0.5288 O   0  0  0  0  0  0  0  0  0  0  0  0
   -2.9378   -0.9327   -1.0829 C   0  0  1  0  0  3  0  0  0  0  0  0
    3.3323    5.1802   -0.4634 O   0  0  0  0  0  0  0  0  0  0  0  0
   -4.5838    1.3596   -0.5588 C   0  0  2  0  0  3  0  0  0  0  0  0
    2.4356    0.5660   -1.0699 N   0  0  0  0  0  0  0  0  0  0  0  0
    2.2153   -0.2463   -1.6559 H   0  0  0  0  0  0  0  0  0  0  0  0
   -2.3810    0.2131   -0.4335 C   0  0  2  0  0  3  0  0  0  0  0  0
    1.3500    1.1642   -0.4572 C   0  0  0  0  0  0  0  0  0  0  0  0
    4.4012   -0.6343   -0.3083 C   0  0  0  0  0  0  0  0  0  0  0  0
    6.4210   -4.1902    1.0747 C   0  0  0  0  0  0  0  0  0  0  0  0
    5.6695   -4.9989    1.1185 H   0  0  0  0  0  0  0  0  0  0  0  0
    6.9089   -4.0615    2.0623 H   0  0  0  0  0  0  0  0  0  0  0  0
    7.2092   -4.4350    0.3341 H   0  0  0  0  0  0  0  0  0  0  0  0
    3.7677   -1.7989   -0.6636 O   0  0  0  0  0  0  0  0  0  0  0  0
   -4.9019   -2.1963   -2.0911 C   0  0  0  0  0  0  0  0  0  0  0  0
   -4.7085   -2.2016   -3.1857 H   0  0  0  0  0  0  0  0  0  0  0  0
   -5.9908   -2.2858   -1.9381 H   0  0  0  0  0  0  0  0  0  0  0  0
   -4.4460   -3.1100   -1.6702 H   0  0  0  0  0  0  0  0  0  0  0  0
    1.5799   -3.3884   -1.7186 C   0  0  0  0  0  0  0  0  0  0  0  0
    0.6610   -3.3775   -2.3341 H   0  0  0  0  0  0  0  0  0  0  0  0
    1.6328   -4.3531   -1.1644 H   0  0  0  0  0  0  0  0  0  0  0  0
    2.4691   -3.3071   -2.3799 H   0  0  0  0  0  0  0  0  0  0  0  0
   -3.2029    1.3816   -0.1970 C   0  0  1  0  0  3  0  0  0  0  0  0
    2.5919   -2.1935    0.0456 C   0  0  0  0  0  0  0  0  0  0  0  0
    2.8165   -3.1838    0.5054 H   0  0  0  0  0  0  0  0  0  0  0  0
    2.3372   -1.4511    0.8293 H   0  0  0  0  0  0  0  0  0  0  0  0
    5.7474    1.7877    0.1793 C   0  0  0  0  0  0  0  0  0  0  0  0
    6.3031    2.7189    0.3478 H   0  0  0  0  0  0  0  0  0  0  0  0
   -6.6016    0.2573   -1.6279 C   0  0  0  0  0  0  0  0  0  0  0  0
   -6.7715    1.1352   -2.2840 H   0  0  0  0  0  0  0  0  0  0  0  0
   -7.2806    0.3635   -0.7586 H   0  0  0  0  0  0  0  0  0  0  0  0
   -6.9162   -0.6379   -2.1891 H   0  0  0  0  0  0  0  0  0  0  0  0
   -5.1526    0.1969   -1.2051 C   0  0  1  0  0  3  0  0  0  0  0  0
    0.0001    0.8228   -1.0760 C   0  0  0  0  0  0  0  0  0  0  0  0
    0.0952    0.1377   -1.9424 H   0  0  0  0  0  0  0  0  0  0  0  0
   -0.4280    1.7727   -1.4609 H   0  0  0  0  0  0  0  0  0  0  0  0
    4.4294    1.8216   -0.3301 C   0  0  0  0  0  0  0  0  0  0  0  0
    3.7482    0.5935   -0.5554 C   0  0  0  0  0  0  0  0  0  0  0  0
   -2.6180    2.6341    0.4211 C   0  0  0  0  0  0  0  0  0  0  0  0
   -2.8064    3.5092   -0.2334 H   0  0  0  0  0  0  0  0  0  0  0  0
   -1.5275    2.5659    0.5737 H   0  0  0  0  0  0  0  0  0  0  0  0
   -3.0732    2.8536    1.4070 H   0  0  0  0  0  0  0  0  0  0  0  0
   -5.4642    2.5562   -0.2965 C   0  0  0  0  0  0  0  0  0  0  0  0
   -5.5923    3.1605   -1.2210 H   0  0  0  0  0  0  0  0  0  0  0  0
   -5.0422    3.2174    0.4789 H   0  0  0  0  0  0  0  0  0  0  0  0
   -6.4723    2.2551    0.0421 H   0  0  0  0  0  0  0  0  0  0  0  0
    5.7170   -0.6657    0.2162 C   0  0  0  0  0  0  0  0  0  0  0  0
    6.3679    0.5648    0.4374 C   0  0  0  0  0  0  0  0  0  0  0  0
    7.3958    0.5276    0.8257 H   0  0  0  0  0  0  0  0  0  0  0  0
   -4.3389   -0.9523   -1.4479 C   0  0  2  0  0  3  0  0  0  0  0  0
    4.2973    4.2282   -0.2787 C   0  0  0  0  0  0  0  0  0  0  0  0
    4.6274    4.1465    0.7887 H   0  0  0  0  0  0  0  0  0  0  0  0
    5.1615    4.4914   -0.9281 H   0  0  0  0  0  0  0  0  0  0  0  0
   -2.0892   -2.1396   -1.4135 C   0  0  0  0  0  0  0  0  0  0  0  0
   -2.1348   -2.3507   -2.5019 H   0  0  0  0  0  0  0  0  0  0  0  0
   -2.4451   -3.0490   -0.8897 H   0  0  0  0  0  0  0  0  0  0  0  0
   -1.0303   -1.9962   -1.1406 H   0  0  0  0  0  0  0  0  0  0  0  0
    2.2750    5.1239    0.4963 C   0  0  0  0  0  0  0  0  0  0  0  0
    1.5464    5.9068    0.2148 H   0  0  0  0  0  0  0  0  0  0  0  0
    2.6603    5.3426    1.5199 H   0  0  0  0  0  0  0  0  0  0  0  0
    1.7828    4.1290    0.5063 H   0  0  0  0  0  0  0  0  0  0  0  0
  1 45  1  0  0  0  0
  1 59  1  0  0  0  0
  2  3  1  0  0  0  0
  2  8  2  0  0  0  0
  3 18  1  0  0  0  0
  4 32  1  0  0  0  0
  5  6  1  0  0  0  0
  5  7  1  0  0  0  0
 10 62  1  6  0  0  0
 10 15  1  0  0  0  0
 11 59  1  0  0  0  0
 11 66  1  0  0  0  0
 12 51  1  6  0  0  0
 12 31  1  0  0  0  0
 13 46  1  0  0  0  0
 13 16  1  0  0  0  0
 14 13  1  0  0  0  0
 15 31  1  0  0  0  0
 15  5  1  6  0  0  0
 16  9  2  0  0  0  0
 17 55  1  0  0  0  0
 18 19  1  0  0  0  0
 18 20  1  0  0  0  0
 21 18  1  0  0  0  0
 22 17  1  0  0  0  0
 22 32  1  0  0  0  0
 23 25  1  0  0  0  0
 23 26  1  0  0  0  0
 24 23  1  0  0  0  0
 27 29  1  0  0  0  0
 27  4  1  0  0  0  0
 28 27  1  0  0  0  0
 30 27  1  0  0  0  0
 31 47  1  6  0  0  0
 32 33  1  0  0  0  0
 32 34  1  0  0  0  0
 35 36  1  0  0  0  0
 35 56  1  0  0  0  0
 37 39  1  0  0  0  0
 38 37  1  0  0  0  0
 40 37  1  0  0  0  0
 41 37  1  6  0  0  0
 41 12  1  0  0  0  0
 42 16  1  0  0  0  0
 42  5  1  0  0  0  0
 43 42  1  0  0  0  0
 44 42  1  0  0  0  0
 45 35  2  0  0  0  0
 46 45  1  0  0  0  0
 46 17  2  0  0  0  0
 47 49  1  0  0  0  0
 47 50  1  0  0  0  0
 48 47  1  0  0  0  0
 51 54  1  0  0  0  0
 51 53  1  0  0  0  0
 52 51  1  0  0  0  0
 55 56  2  0  0  0  0
 55  2  1  0  0  0  0
 56 57  1  0  0  0  0
 58 23  1  6  0  0  0
 58 41  1  0  0  0  0
 58 10  1  0  0  0  0
 59 60  1  0  0  0  0
 61 59  1  0  0  0  0
 62 65  1  0  0  0  0
 62 64  1  0  0  0  0
 63 62  1  0  0  0  0
 66 69  1  0  0  0  0
 66 68  1  0  0  0  0
 67 66  1  0  0  0  0
M  END
