2,4,7
q = -1.0

 44 45  0  0  1  0  0  0  0  0999 V2000
    0.8062   -0.8797   -0.0050 P   0  0  0  0  0  0  0  0  0  0  0  0
   -0.5113    1.7732   -0.0377 C   0  0  2  0  0  3  0  0  0  0  0  0
   -1.1214    1.6629    1.2485 C   0  0  0  0  0  3  0  0  0  0  0  0
   -2.4339    1.1956    1.5576 C   0  0  0  0  0  3  0  0  0  0  0  0
   -3.5180    0.8523    0.6907 C   0  0  0  0  0  0  0  0  0  0  0  0
   -3.5016    0.7703   -0.7180 C   0  0  0  0  0  0  0  0  0  0  0  0
   -2.4088    1.0335   -1.6039 C   0  0  0  0  0  3  0  0  0  0  0  0
   -1.1059    1.5341   -1.3182 C   0  0  0  0  0  3  0  0  0  0  0  0
    0.9903    1.8965   -0.0460 C   0  0  0  0  0  0  0  0  0  0  0  0
    1.7675    0.7104   -0.0570 C   0  0  0  0  0  0  0  0  0  0  0  0
    3.1718    0.8070   -0.1336 C   0  0  0  0  0  0  0  0  0  0  0  0
    3.7979    2.0628   -0.1663 C   0  0  0  0  0  0  0  0  0  0  0  0
    3.0253    3.2342   -0.1309 C   0  0  0  0  0  0  0  0  0  0  0  0
    1.6254    3.1500   -0.0783 C   0  0  0  0  0  0  0  0  0  0  0  0
    1.5020   -1.8077   -1.4875 C   0  0  0  0  0  0  0  0  0  0  0  0
    1.1324   -1.0642   -2.7751 C   0  0  0  0  0  0  0  0  0  0  0  0
    1.0382   -3.2663   -1.5199 C   0  0  0  0  0  0  0  0  0  0  0  0
    1.4203   -1.8229    1.5039 C   0  0  0  0  0  0  0  0  0  0  0  0
    2.8930   -2.2401    1.4968 C   0  0  0  0  0  0  0  0  0  0  0  0
    1.0578   -1.0442    2.7733 C   0  0  0  0  0  0  0  0  0  0  0  0
   -0.4359    1.7639    2.1056 H   0  0  0  0  0  0  0  0  0  0  0  0
   -2.6124    1.0037    2.6297 H   0  0  0  0  0  0  0  0  0  0  0  0
   -4.4062    0.4267    1.1856 H   0  0  0  0  0  0  0  0  0  0  0  0
   -4.3808    0.2907   -1.1789 H   0  0  0  0  0  0  0  0  0  0  0  0
   -2.5707    0.7387   -2.6549 H   0  0  0  0  0  0  0  0  0  0  0  0
   -0.4098    1.5614   -2.1718 H   0  0  0  0  0  0  0  0  0  0  0  0
    3.7883   -0.1027   -0.1785 H   0  0  0  0  0  0  0  0  0  0  0  0
    4.8953    2.1261   -0.2229 H   0  0  0  0  0  0  0  0  0  0  0  0
    3.5153    4.2195   -0.1555 H   0  0  0  0  0  0  0  0  0  0  0  0
    1.0106    4.0631   -0.0701 H   0  0  0  0  0  0  0  0  0  0  0  0
    2.6074   -1.7759   -1.3645 H   0  0  0  0  0  0  0  0  0  0  0  0
    0.7784   -2.7311    1.4587 H   0  0  0  0  0  0  0  0  0  0  0  0
    1.4959   -0.0172   -2.7680 H   0  0  0  0  0  0  0  0  0  0  0  0
    1.3467   -3.8325   -0.6193 H   0  0  0  0  0  0  0  0  0  0  0  0
    3.5623   -1.3646    1.6158 H   0  0  0  0  0  0  0  0  0  0  0  0
    1.6095   -0.0819    2.8247 H   0  0  0  0  0  0  0  0  0  0  0  0
    0.0318   -1.0455   -2.9157 H   0  0  0  0  0  0  0  0  0  0  0  0
    1.4724   -3.7781   -2.4040 H   0  0  0  0  0  0  0  0  0  0  0  0
    3.0929   -2.9186    2.3526 H   0  0  0  0  0  0  0  0  0  0  0  0
    1.3243   -1.6346    3.6742 H   0  0  0  0  0  0  0  0  0  0  0  0
    1.5812   -1.5742   -3.6525 H   0  0  0  0  0  0  0  0  0  0  0  0
   -0.0651   -3.3324   -1.5887 H   0  0  0  0  0  0  0  0  0  0  0  0
    3.1865   -2.7803    0.5752 H   0  0  0  0  0  0  0  0  0  0  0  0
   -0.0264   -0.8206    2.8154 H   0  0  0  0  0  0  0  0  0  0  0  0
  1 18  1  0  0  0  0
  2  9  1  1  0  0  0
  2  3  1  0  0  0  0
  3  4  1  0  0  0  0
  3 21  1  0  0  0  0
  4 22  1  0  0  0  0
  5 23  1  0  0  0  0
  5  4  1  0  0  0  0
  6  5  2  0  0  0  0
  7  8  1  0  0  0  0
  7  6  1  0  0  0  0
  8  2  1  0  0  0  0
 10  9  1  0  0  0  0
 10  1  1  0  0  0  0
 11 10  2  0  0  0  0
 12 11  1  0  0  0  0
 12 13  2  0  0  0  0
 13 14  1  0  0  0  0
 14 30  1  0  0  0  0
 14  9  2  0  0  0  0
 15 31  1  0  0  0  0
 15  1  1  0  0  0  0
 16 33  1  0  0  0  0
 16 15  1  0  0  0  0
 17 15  1  0  0  0  0
 17 34  1  0  0  0  0
 18 20  1  0  0  0  0
 19 18  1  0  0  0  0
 19 35  1  0  0  0  0
 19 39  1  0  0  0  0
 20 44  1  0  0  0  0
 20 36  1  0  0  0  0
 20 40  1  0  0  0  0
 24  6  1  0  0  0  0
 25  7  1  0  0  0  0
 26  8  1  0  0  0  0
 27 11  1  0  0  0  0
 28 12  1  0  0  0  0
 29 13  1  0  0  0  0
 32 18  1  0  0  0  0
 37 16  1  0  0  0  0
 38 17  1  0  0  0  0
 41 16  1  0  0  0  0
 42 17  1  0  0  0  0
 43 19  1  0  0  0  0
M  END
