10,13,17
q = -1.0, confidence = 0.432

 18 18  0  0  0  0  0  0  0  0999 V2000
   -2.1145    2.2300    0.3907 C   0  0  0  0  0  0  0  0  0  0  0  0
   -3.0021    2.4507   -0.2325 H   0  0  0  0  0  0  0  0  0  0  0  0
   -2.2429    2.7490    1.3601 H   0  0  0  0  0  0  0  0  0  0  0  0
   -0.9072    2.7973   -0.2875 N   0  3  0  0  0  0  0  0  0  0  0  0
   -0.7011    2.2502   -1.1826 H   0  0  0  0  0  0  0  0  0  0  0  0
   -0.0018    2.6358    0.2975 H   0  0  0  0  0  0  0  0  0  0  0  0
   -1.0078    3.8019   -0.5041 H   0  0  0  0  0  0  0  0  0  0  0  0
   -1.0210   -1.2097    1.8686 C   0  0  0  0  0  3  0  0  0  0  0  0
   -0.4373   -1.5929    2.7173 H   0  0  0  0  0  0  0  0  0  0  0  0
   -2.4348   -0.1981   -0.3968 C   0  0  0  0  0  3  0  0  0  0  0  0
   -2.8898    0.1848   -1.3233 H   0  0  0  0  0  0  0  0  0  0  0  0
   -1.9718    0.7338    0.5945 C   0  0  0  0  0  3  0  0  0  0  0  0
   -1.2343    0.2035    1.7091 C   0  0  0  0  0  3  0  0  0  0  0  0
   -0.7885    0.9034    2.4344 H   0  0  0  0  0  0  0  0  0  0  0  0
   -2.2005   -1.6004   -0.2791 C   0  0  0  0  0  3  0  0  0  0  0  0
   -2.4875   -2.2759   -1.0963 H   0  0  0  0  0  0  0  0  0  0  0  0
   -1.4733   -2.0962    0.8519 C   0  0  0  0  0  3  0  0  0  0  0  0
   -1.1905   -3.1582    0.8914 H   0  0  0  0  0  0  0  0  0  0  0  0
  1 12  1  0  0  0  0
  1  3  1  0  0  0  0
  2  1  1  0  0  0  0
  4  6  1  0  0  0  0
  4  1  1  0  0  0  0
  5  4  1  0  0  0  0
  7  4  1  0  0  0  0
  8  9  1  0  0  0  0
 10 15  1  0  0  0  0
 10 12  1  0  0  0  0
 11 10  1  0  0  0  0
 12 13  1  0  0  0  0
 13  8  1  0  0  0  0
 13 14  1  0  0  0  0
 15 17  1  0  0  0  0
 16 15  1  0  0  0  0
 17 18  1  0  0  0  0
 17  8  1  0  0  0  0
M  CHG  1   4   1
M  END
