5,8,13
q = -1.0

 50 50  0  0  1  0  0  0  0  0999 V2000
    3.5377   -1.0165   -0.9422 Si  0  0  0  0  0  0  0  0  0  0  0  0
   -0.0750    3.3471   -0.3096 Si  0  0  0  0  0  0  0  0  0  0  0  0
   -3.5073   -1.1029   -0.9265 Si  0  0  0  0  0  0  0  0  0  0  0  0
    1.6525   -0.5600   -1.0158 C   0  0  2  0  0  3  0  0  0  0  0  0
    1.2619    0.8063   -0.7867 C   0  0  0  0  0  3  0  0  0  0  0  0
    2.1088    1.4757   -0.5671 H   0  0  0  0  0  0  0  0  0  0  0  0
   -0.0155    1.4514   -0.7154 C   0  0  1  0  0  3  0  0  0  0  0  0
   -1.2747    0.7768   -0.7726 C   0  0  0  0  0  3  0  0  0  0  0  0
   -2.1392    1.4235   -0.5464 H   0  0  0  0  0  0  0  0  0  0  0  0
   -1.6323   -0.6015   -1.0008 C   0  0  0  0  0  0  0  0  0  0  0  0
   -0.6982   -1.6558   -1.1787 C   0  0  0  0  0  0  0  0  0  0  0  0
   -1.1270   -2.6706   -1.2361 H   0  0  0  0  0  0  0  0  0  0  0  0
    0.7386   -1.6372   -1.1755 C   0  0  0  0  0  3  0  0  0  0  0  0
    1.1916   -2.6421   -1.2288 H   0  0  0  0  0  0  0  0  0  0  0  0
    3.7285   -2.4372    0.2824 C   0  0  0  0  0  0  0  0  0  0  0  0
    3.1350   -3.3310    0.0021 H   0  0  0  0  0  0  0  0  0  0  0  0
    3.4285   -2.1276    1.3041 H   0  0  0  0  0  0  0  0  0  0  0  0
    4.7910   -2.7535    0.3247 H   0  0  0  0  0  0  0  0  0  0  0  0
    4.0210   -1.5285   -2.6887 C   0  0  0  0  0  0  0  0  0  0  0  0
    3.4326   -2.4007   -3.0389 H   0  0  0  0  0  0  0  0  0  0  0  0
    5.0926   -1.8148   -2.7171 H   0  0  0  0  0  0  0  0  0  0  0  0
    3.8722   -0.7005   -3.4107 H   0  0  0  0  0  0  0  0  0  0  0  0
    4.4912    0.5019   -0.3652 C   0  0  0  0  0  0  0  0  0  0  0  0
    4.1784    0.8406    0.6434 H   0  0  0  0  0  0  0  0  0  0  0  0
    4.4029    1.3540   -1.0697 H   0  0  0  0  0  0  0  0  0  0  0  0
    5.5689    0.2454   -0.3026 H   0  0  0  0  0  0  0  0  0  0  0  0
    1.6684    3.9164    0.1199 C   0  0  0  0  0  0  0  0  0  0  0  0
    2.0808    3.3799    0.9990 H   0  0  0  0  0  0  0  0  0  0  0  0
    1.6422    4.9948    0.3791 H   0  0  0  0  0  0  0  0  0  0  0  0
    2.3752    3.8049   -0.7275 H   0  0  0  0  0  0  0  0  0  0  0  0
   -1.2377    3.5919    1.1546 C   0  0  0  0  0  0  0  0  0  0  0  0
   -0.8424    3.1028    2.0677 H   0  0  0  0  0  0  0  0  0  0  0  0
   -2.2597    3.2042    0.9674 H   0  0  0  0  0  0  0  0  0  0  0  0
   -1.3370    4.6756    1.3704 H   0  0  0  0  0  0  0  0  0  0  0  0
   -0.7324    4.1876   -1.8618 C   0  0  0  0  0  0  0  0  0  0  0  0
   -1.7445    3.8200   -2.1272 H   0  0  0  0  0  0  0  0  0  0  0  0
   -0.0656    4.0166   -2.7309 H   0  0  0  0  0  0  0  0  0  0  0  0
   -0.8058    5.2828   -1.7003 H   0  0  0  0  0  0  0  0  0  0  0  0
   -3.6598   -2.5653    0.2532 C   0  0  0  0  0  0  0  0  0  0  0  0
   -3.0565   -3.4395   -0.0650 H   0  0  0  0  0  0  0  0  0  0  0  0
   -4.7171   -2.8989    0.2954 H   0  0  0  0  0  0  0  0  0  0  0  0
   -3.3539   -2.2879    1.2822 H   0  0  0  0  0  0  0  0  0  0  0  0
   -3.9881   -1.5703   -2.6862 C   0  0  0  0  0  0  0  0  0  0  0  0
   -3.8592   -0.7176   -3.3830 H   0  0  0  0  0  0  0  0  0  0  0  0
   -5.0541   -1.8765   -2.7187 H   0  0  0  0  0  0  0  0  0  0  0  0
   -3.3840   -2.4194   -3.0650 H   0  0  0  0  0  0  0  0  0  0  0  0
   -4.4925    0.3758   -0.3008 C   0  0  0  0  0  0  0  0  0  0  0  0
   -4.4351    1.2463   -0.9858 H   0  0  0  0  0  0  0  0  0  0  0  0
   -4.1783    0.6972    0.7130 H   0  0  0  0  0  0  0  0  0  0  0  0
   -5.5625    0.0895   -0.2338 H   0  0  0  0  0  0  0  0  0  0  0  0
  1 23  1  0  0  0  0
  1 15  1  0  0  0  0
  2 27  1  0  0  0  0
  2 31  1  0  0  0  0
  3 47  1  0  0  0  0
  3 39  1  0  0  0  0
  4  1  1  1  0  0  0
  4  5  1  0  0  0  0
  5  7  1  0  0  0  0
  5  6  1  0  0  0  0
  7  2  1  1  0  0  0
  8  7  1  0  0  0  0
  8  9  1  0  0  0  0
 10  3  1  0  0  0  0
 10  8  1  0  0  0  0
 11 13  1  0  0  0  0
 11 10  2  0  0  0  0
 12 11  1  0  0  0  0
 13  4  1  0  0  0  0
 14 13  1  0  0  0  0
 15 18  1  0  0  0  0
 15 17  1  0  0  0  0
 16 15  1  0  0  0  0
 19  1  1  0  0  0  0
 20 19  1  0  0  0  0
 21 19  1  0  0  0  0
 22 19  1  0  0  0  0
 23 26  1  0  0  0  0
 23 24  1  0  0  0  0
 25 23  1  0  0  0  0
 27 29  1  0  0  0  0
 27 28  1  0  0  0  0
 30 27  1  0  0  0  0
 31 34  1  0  0  0  0
 31 32  1  0  0  0  0
 33 31  1  0  0  0  0
 35 38  1  0  0  0  0
 35  2  1  0  0  0  0
 36 35  1  0  0  0  0
 37 35  1  0  0  0  0
 39 41  1  0  0  0  0
 39 42  1  0  0  0  0
 40 39  1  0  0  0  0
 43  3  1  0  0  0  0
 44 43  1  0  0  0  0
 45 43  1  0  0  0  0
 46 43  1  0  0  0  0
 47 50  1  0  0  0  0
 47 49  1  0  0  0  0
 48 47  1  0  0  0  0
M  END
