3,5,7
q = 0.0, confidence = 0.996

 40 42  0  0  1  0  0  0  0  0999 V2000
    1.8850   -0.1461   -1.0132 P   0  0  0  0  0  0  0  0  0  0  0  0
   -0.7234    0.0872   -0.2012 C   0  0  0  0  0  3  0  0  0  0  0  0
   -1.2403    1.0049    0.7682 C   0  0  0  0  0  3  0  0  0  0  0  0
   -2.3249    1.8712    0.4755 C   0  0  0  0  0  3  0  0  0  0  0  0
   -2.9546    1.7937   -0.8006 C   0  0  0  0  0  3  0  0  0  0  0  0
   -2.4639    0.8992   -1.7865 C   0  0  0  0  0  3  0  0  0  0  0  0
   -1.3735    0.0377   -1.4706 C   0  0  0  0  0  3  0  0  0  0  0  0
    0.4680   -0.7899    0.1050 C   0  0  1  0  0  0  0  0  0  0  0  0
    0.2290   -2.2851   -0.1241 C   0  0  0  0  0  0  0  0  0  0  0  0
    3.3442   -1.0420   -0.3029 C   0  0  0  0  0  0  0  0  0  0  0  0
    3.6007   -2.3327   -0.8214 C   0  0  0  0  0  0  0  0  0  0  0  0
    4.6839   -3.0922   -0.3568 C   0  0  0  0  0  0  0  0  0  0  0  0
    5.5484   -2.5628    0.6148 C   0  0  0  0  0  0  0  0  0  0  0  0
    5.3224   -1.2706    1.1136 C   0  0  0  0  0  0  0  0  0  0  0  0
    4.2296   -0.5150    0.6607 C   0  0  0  0  0  0  0  0  0  0  0  0
    2.0794    1.5714   -0.3475 C   0  0  0  0  0  0  0  0  0  0  0  0
    1.9770    1.9212    1.0172 C   0  0  0  0  0  0  0  0  0  0  0  0
    2.1072    3.2565    1.4267 C   0  0  0  0  0  0  0  0  0  0  0  0
    2.3452    4.2646    0.4779 C   0  0  0  0  0  0  0  0  0  0  0  0
    2.4518    3.9311   -0.8807 C   0  0  0  0  0  0  0  0  0  0  0  0
    2.3158    2.5948   -1.2888 C   0  0  0  0  0  0  0  0  0  0  0  0
   -0.7954    1.0204    1.7729 H   0  0  0  0  0  0  0  0  0  0  0  0
   -2.7206    2.5404    1.2506 H   0  0  0  0  0  0  0  0  0  0  0  0
   -3.8366    2.4139   -1.0142 H   0  0  0  0  0  0  0  0  0  0  0  0
   -2.9655    0.8162   -2.7597 H   0  0  0  0  0  0  0  0  0  0  0  0
   -1.0277   -0.6883   -2.2199 H   0  0  0  0  0  0  0  0  0  0  0  0
    0.7541   -0.6371    1.1660 H   0  0  0  0  0  0  0  0  0  0  0  0
   -0.6181   -2.6275    0.5029 H   0  0  0  0  0  0  0  0  0  0  0  0
    1.1260   -2.8746    0.1473 H   0  0  0  0  0  0  0  0  0  0  0  0
   -0.0213   -2.5132   -1.1798 H   0  0  0  0  0  0  0  0  0  0  0  0
    2.9472   -2.7402   -1.6093 H   0  0  0  0  0  0  0  0  0  0  0  0
    4.8621   -4.0980   -0.7672 H   0  0  0  0  0  0  0  0  0  0  0  0
    6.4052   -3.1530    0.9737 H   0  0  0  0  0  0  0  0  0  0  0  0
    6.0048   -0.8424    1.8640 H   0  0  0  0  0  0  0  0  0  0  0  0
    4.0730    0.4993    1.0554 H   0  0  0  0  0  0  0  0  0  0  0  0
    1.7983    1.1433    1.7753 H   0  0  0  0  0  0  0  0  0  0  0  0
    2.0238    3.5122    2.4943 H   0  0  0  0  0  0  0  0  0  0  0  0
    2.4458    5.3123    0.7999 H   0  0  0  0  0  0  0  0  0  0  0  0
    2.6359    4.7165   -1.6296 H   0  0  0  0  0  0  0  0  0  0  0  0
    2.3862    2.3338   -2.3567 H   0  0  0  0  0  0  0  0  0  0  0  0
  1 16  1  0  0  0  0
  1 10  1  0  0  0  0
  1  8  1  0  0  0  0
  2  8  1  0  0  0  0
  2  3  1  0  0  0  0
  3 22  1  0  0  0  0
  4  3  1  0  0  0  0
  4 23  1  0  0  0  0
  5  4  1  0  0  0  0
  6  7  1  0  0  0  0
  6  5  1  0  0  0  0
  7  2  1  0  0  0  0
  8 27  1  1  0  0  0
  9  8  1  0  0  0  0
  9 29  1  0  0  0  0
  9 28  1  0  0  0  0
 10 15  1  0  0  0  0
 11 12  1  0  0  0  0
 11 10  2  0  0  0  0
 12 13  2  0  0  0  0
 13 33  1  0  0  0  0
 13 14  1  0  0  0  0
 14 34  1  0  0  0  0
 15 35  1  0  0  0  0
 15 14  2  0  0  0  0
 16 17  1  0  0  0  0
 17 18  2  0  0  0  0
 17 36  1  0  0  0  0
 18 37  1  0  0  0  0
 19 38  1  0  0  0  0
 19 18  1  0  0  0  0
 20 19  2  0  0  0  0
 21 20  1  0  0  0  0
 21 16  2  0  0  0  0
 24  5  1  0  0  0  0
 25  6  1  0  0  0  0
 26  7  1  0  0  0  0
 30  9  1  0  0  0  0
 31 11  1  0  0  0  0
 32 12  1  0  0  0  0
 39 20  1  0  0  0  0
 40 21  1  0  0  0  0
M  END
