6,10,12
q = 0.0, confidence = 0.996

 15 15  0  0  0  0  0  0  0  0999 V2000
    3.1032   -0.4262    1.0947 O   0  0  0  0  0  0  0  0  0  0  0  0
    3.8962   -0.9719    0.9045 H   0  0  0  0  0  0  0  0  0  0  0  0
    3.1706   -0.3250   -1.1701 O   0  0  0  0  0  0  0  0  0  0  0  0
    2.6311   -0.0361   -0.1164 C   0  0  0  0  0  0  0  0  0  0  0  0
    1.3944    0.7864   -0.0030 C   0  0  0  0  0  3  0  0  0  0  0  0
    0.7341    1.1757   -1.2101 C   0  0  0  0  0  3  0  0  0  0  0  0
    1.2000    0.8879   -2.1631 H   0  0  0  0  0  0  0  0  0  0  0  0
   -0.4555    1.7892    1.3038 C   0  0  0  0  0  3  0  0  0  0  0  0
   -0.9432    1.9786    2.2690 H   0  0  0  0  0  0  0  0  0  0  0  0
    0.7716    1.0768    1.2534 C   0  0  0  0  0  3  0  0  0  0  0  0
    1.2499    0.7238    2.1764 H   0  0  0  0  0  0  0  0  0  0  0  0
   -1.1040    2.1506    0.0886 C   0  0  0  0  0  3  0  0  0  0  0  0
   -2.0925    2.6301    0.1229 H   0  0  0  0  0  0  0  0  0  0  0  0
   -0.4943    1.8842   -1.1702 C   0  0  0  0  0  3  0  0  0  0  0  0
   -1.0118    2.1458   -2.1026 H   0  0  0  0  0  0  0  0  0  0  0  0
  2  1  1  0  0  0  0
  3  4  2  0  0  0  0
  4  5  1  0  0  0  0
  4  1  1  0  0  0  0
  5 10  1  0  0  0  0
  6 14  1  0  0  0  0
  6  5  1  0  0  0  0
  7  6  1  0  0  0  0
  8  9  1  0  0  0  0
 10  8  1  0  0  0  0
 10 11  1  0  0  0  0
 12 13  1  0  0  0  0
 12  8  1  0  0  0  0
 14 12  1  0  0  0  0
 15 14  1  0  0  0  0
M  END
