8,26,44
q = -1.0

 72 75  0  0  0  0  0  0  0  0999 V2000
   -1.6518   -0.4472    0.0007 B   0  0  0  0  0  0  0  0  0  0  0  0
   -0.8734   -1.0372   -1.2385 N   0  0  0  0  0  0  0  0  0  0  0  0
    0.8756   -1.4742   -2.5036 N   0  0  0  0  0  0  0  0  0  0  0  0
   -0.8731   -1.0341    1.2412 N   0  0  0  0  0  0  0  0  0  0  0  0
    0.8762   -1.4680    2.5070 N   0  0  0  0  0  0  0  0  0  0  0  0
   -1.4082    1.1093   -0.0013 N   0  0  0  0  0  0  0  0  0  0  0  0
   -0.3152    3.0180   -0.0034 N   0  0  0  0  0  0  0  0  0  0  0  0
    0.4616   -0.7517   -1.4115 C   0  0  0  0  0  2  0  0  0  0  0  0
   -1.2653   -1.9832   -2.1747 C   0  0  0  0  0  0  0  0  0  0  0  0
   -2.2730   -2.4046   -2.1991 H   0  0  0  0  0  0  0  0  0  0  0  0
   -0.1876   -2.2501   -2.9754 C   0  0  0  0  0  0  0  0  0  0  0  0
   -0.1025   -2.9166   -3.8345 H   0  0  0  0  0  0  0  0  0  0  0  0
    2.2550   -1.4552   -3.0794 C   0  0  0  0  0  0  0  0  0  0  0  0
    2.6218   -0.0011   -3.4209 C   0  0  0  0  0  0  0  0  0  0  0  0
    1.9187    0.4090   -4.1734 H   0  0  0  0  0  0  0  0  0  0  0  0
    3.6478    0.0417   -3.8371 H   0  0  0  0  0  0  0  0  0  0  0  0
    2.5828    0.6329   -2.5162 H   0  0  0  0  0  0  0  0  0  0  0  0
    3.2277   -2.0499   -2.0472 C   0  0  0  0  0  0  0  0  0  0  0  0
    3.2120   -1.4531   -1.1169 H   0  0  0  0  0  0  0  0  0  0  0  0
    4.2598   -2.0465   -2.4504 H   0  0  0  0  0  0  0  0  0  0  0  0
    2.9468   -3.0949   -1.8063 H   0  0  0  0  0  0  0  0  0  0  0  0
    2.2922   -2.2991   -4.3616 C   0  0  0  0  0  0  0  0  0  0  0  0
    2.0707   -3.3670   -4.1652 H   0  0  0  0  0  0  0  0  0  0  0  0
    3.3123   -2.2453   -4.7879 H   0  0  0  0  0  0  0  0  0  0  0  0
    1.5869   -1.9195   -5.1275 H   0  0  0  0  0  0  0  0  0  0  0  0
    0.4620   -0.7481    1.4132 C   0  0  0  0  0  2  0  0  0  0  0  0
   -1.2648   -1.9779    2.1798 C   0  0  0  0  0  0  0  0  0  0  0  0
   -2.2724   -2.3993    2.2054 H   0  0  0  0  0  0  0  0  0  0  0  0
   -0.1868   -2.2428    2.9809 C   0  0  0  0  0  0  0  0  0  0  0  0
   -0.1015   -2.9072    3.8416 H   0  0  0  0  0  0  0  0  0  0  0  0
    2.2558   -1.4475    3.0823 C   0  0  0  0  0  0  0  0  0  0  0  0
    3.2282   -2.0448    2.0513 C   0  0  0  0  0  0  0  0  0  0  0  0
    2.9472   -3.0905    1.8131 H   0  0  0  0  0  0  0  0  0  0  0  0
    4.2605   -2.0403    2.4541 H   0  0  0  0  0  0  0  0  0  0  0  0
    3.2121   -1.4504    1.1195 H   0  0  0  0  0  0  0  0  0  0  0  0
    2.6228    0.0073    3.4202 C   0  0  0  0  0  0  0  0  0  0  0  0
    2.5836    0.6392    2.5139 H   0  0  0  0  0  0  0  0  0  0  0  0
    3.6489    0.0511    3.8361 H   0  0  0  0  0  0  0  0  0  0  0  0
    1.9198    0.4194    4.1718 H   0  0  0  0  0  0  0  0  0  0  0  0
    2.2934   -2.2883    4.3665 C   0  0  0  0  0  0  0  0  0  0  0  0
    1.5882   -1.9069    5.1317 H   0  0  0  0  0  0  0  0  0  0  0  0
    3.3136   -2.2334    4.7925 H   0  0  0  0  0  0  0  0  0  0  0  0
    2.0719   -3.3567    4.1729 H   0  0  0  0  0  0  0  0  0  0  0  0
   -0.1516    1.6573   -0.0023 C   0  0  0  0  0  2  0  0  0  0  0  0
   -2.3553    2.1246   -0.0017 C   0  0  0  0  0  0  0  0  0  0  0  0
   -3.4289    1.9185   -0.0011 H   0  0  0  0  0  0  0  0  0  0  0  0
   -1.6836    3.3170   -0.0030 C   0  0  0  0  0  0  0  0  0  0  0  0
   -2.0681    4.3376   -0.0038 H   0  0  0  0  0  0  0  0  0  0  0  0
    0.7979    4.0151   -0.0047 C   0  0  0  0  0  0  0  0  0  0  0  0
    0.2185    5.4365   -0.0064 C   0  0  0  0  0  0  0  0  0  0  0  0
   -0.3942    5.6340   -0.9085 H   0  0  0  0  0  0  0  0  0  0  0  0
    1.0573    6.1587   -0.0075 H   0  0  0  0  0  0  0  0  0  0  0  0
   -0.3939    5.6364    0.8955 H   0  0  0  0  0  0  0  0  0  0  0  0
    1.6408    3.8087    1.2654 C   0  0  0  0  0  0  0  0  0  0  0  0
    1.0212    3.9657    2.1712 H   0  0  0  0  0  0  0  0  0  0  0  0
    2.4816    4.5302    1.2845 H   0  0  0  0  0  0  0  0  0  0  0  0
    2.0559    2.7840    1.2919 H   0  0  0  0  0  0  0  0  0  0  0  0
    1.6407    3.8057   -1.2744 C   0  0  0  0  0  0  0  0  0  0  0  0
    2.0558    2.7810   -1.2985 H   0  0  0  0  0  0  0  0  0  0  0  0
    2.4814    4.5272   -1.2952 H   0  0  0  0  0  0  0  0  0  0  0  0
    1.0209    3.9605   -2.1804 H   0  0  0  0  0  0  0  0  0  0  0  0
   -3.2486   -0.6898    0.0011 C   0  0  0  0  0  0  0  0  0  0  0  0
   -3.9951   -0.6949   -1.2015 C   0  0  0  0  0  0  0  0  0  0  0  0
   -3.4717   -0.6121   -2.1659 H   0  0  0  0  0  0  0  0  0  0  0  0
   -5.3978   -0.7635   -1.2086 C   0  0  0  0  0  0  0  0  0  0  0  0
   -5.9405   -0.7689   -2.1669 H   0  0  0  0  0  0  0  0  0  0  0  0
   -6.1070   -0.8112    0.0011 C   0  0  0  0  0  0  0  0  0  0  0  0
   -7.2065   -0.8677    0.0011 H   0  0  0  0  0  0  0  0  0  0  0  0
   -5.3979   -0.7614    1.2108 C   0  0  0  0  0  0  0  0  0  0  0  0
   -5.9406   -0.7652    2.1690 H   0  0  0  0  0  0  0  0  0  0  0  0
   -3.9952   -0.6928    1.2036 C   0  0  0  0  0  0  0  0  0  0  0  0
   -3.4718   -0.6083    2.1679 H   0  0  0  0  0  0  0  0  0  0  0  0
  1 62  1  0  0  0  0
  1  4  1  0  0  0  0
  2  1  1  0  0  0  0
  3  8  1  0  0  0  0
  4 26  1  0  0  0  0
  4 27  1  0  0  0  0
  5 29  1  0  0  0  0
  5 31  1  0  0  0  0
  6  1  1  0  0  0  0
  7 47  1  0  0  0  0
  7 44  1  0  0  0  0
  8  2  1  0  0  0  0
  9  2  1  0  0  0  0
 10  9  1  0  0  0  0
 11  3  1  0  0  0  0
 11  9  2  0  0  0  0
 12 11  1  0  0  0  0
 13  3  1  0  0  0  0
 13 18  1  0  0  0  0
 14 13  1  0  0  0  0
 14 17  1  0  0  0  0
 15 14  1  0  0  0  0
 16 14  1  0  0  0  0
 18 21  1  0  0  0  0
 18 19  1  0  0  0  0
 20 18  1  0  0  0  0
 22 23  1  0  0  0  0
 22 13  1  0  0  0  0
 24 22  1  0  0  0  0
 25 22  1  0  0  0  0
 26  5  1  0  0  0  0
 27 28  1  0  0  0  0
 27 29  2  0  0  0  0
 29 30  1  0  0  0  0
 31 36  1  0  0  0  0
 31 40  1  0  0  0  0
 32 34  1  0  0  0  0
 32 31  1  0  0  0  0
 33 32  1  0  0  0  0
 35 32  1  0  0  0  0
 36 38  1  0  0  0  0
 36 39  1  0  0  0  0
 37 36  1  0  0  0  0
 40 42  1  0  0  0  0
 40 41  1  0  0  0  0
 43 40  1  0  0  0  0
 44  6  1  0  0  0  0
 45  6  1  0  0  0  0
 45 46  1  0  0  0  0
 47 45  2  0  0  0  0
 48 47  1  0  0  0  0
 49  7  1  0  0  0  0
 49 54  1  0  0  0  0
 50 49  1  0  0  0  0
 50 53  1  0  0  0  0
 51 50  1  0  0  0  0
 52 50  1  0  0  0  0
 54 56  1  0  0  0  0
 54 57  1  0  0  0  0
 54 55  1  0  0  0  0
 58 49  1  0  0  0  0
 59 58  1  0  0  0  0
 60 58  1  0  0  0  0
 61 58  1  0  0  0  0
 62 71  1  0  0  0  0
 63 62  2  0  0  0  0
 64 63  1  0  0  0  0
 65 63  1  0  0  0  0
 65 67  2  0  0  0  0
 66 65  1  0  0  0  0
 67 68  1  0  0  0  0
 67 69  1  0  0  0  0
 69 70  1  0  0  0  0
 71 69  2  0  0  0  0
 71 72  1  0  0  0  0
M  END
