3,5,7
q = 0.0, confidence = 0.996

 30 31  0  0  1  0  0  0  0  0999 V2000
   -5.4463    1.4429   -0.1974 O   0  0  0  0  0  0  0  0  0  0  0  0
   -5.9324   -0.7836   -0.2071 O   0  0  0  0  0  0  0  0  0  0  0  0
    1.3317   -0.8527   -1.5712 C   0  0  0  0  0  3  0  0  0  0  0  0
    2.6825   -0.7371   -1.9729 C   0  0  0  0  0  3  0  0  0  0  0  0
    3.7272   -1.1976   -1.1123 C   0  0  0  0  0  3  0  0  0  0  0  0
    3.4018   -1.7973    0.1264 C   0  0  0  0  0  3  0  0  0  0  0  0
    2.0341   -1.9152    0.5209 C   0  0  0  0  0  3  0  0  0  0  0  0
    0.9700   -1.4714   -0.3201 C   0  0  0  0  0  3  0  0  0  0  0  0
   -0.4166   -1.5799    0.1483 C   0  0  0  0  0  0  0  0  0  0  0  0
   -1.5248   -1.2552   -0.5549 C   0  0  0  0  0  0  0  0  0  0  0  0
   -2.9445   -1.3399   -0.0620 C   0  0  1  0  0  0  0  0  0  0  0  0
   -3.1202   -1.9574    1.3351 C   0  0  0  0  0  0  0  0  0  0  0  0
   -3.6192    0.0071   -0.1281 C   0  0  0  0  0  0  0  0  0  0  0  0
   -3.1164    1.2619   -0.1156 C   0  0  0  0  0  0  0  0  0  0  0  0
   -4.2574    2.2320   -0.1589 C   0  0  0  0  0  0  0  0  0  0  0  0
   -5.1091    0.1051   -0.1812 C   0  0  0  0  0  0  0  0  0  0  0  0
    0.5465   -0.4377   -2.2169 H   0  0  0  0  0  0  0  0  0  0  0  0
    2.9301   -0.2331   -2.9170 H   0  0  0  0  0  0  0  0  0  0  0  0
    4.7784   -1.0517   -1.3963 H   0  0  0  0  0  0  0  0  0  0  0  0
    4.1977   -2.1163    0.8128 H   0  0  0  0  0  0  0  0  0  0  0  0
    1.7897   -2.3346    1.5074 H   0  0  0  0  0  0  0  0  0  0  0  0
   -0.5252   -1.9600    1.1769 H   0  0  0  0  0  0  0  0  0  0  0  0
   -1.4214   -0.8660   -1.5830 H   0  0  0  0  0  0  0  0  0  0  0  0
   -3.5141   -1.9824   -0.7754 H   0  0  0  0  0  0  0  0  0  0  0  0
   -2.6149   -1.3446    2.1084 H   0  0  0  0  0  0  0  0  0  0  0  0
   -2.7050   -2.9842    1.3699 H   0  0  0  0  0  0  0  0  0  0  0  0
   -4.1966   -2.0134    1.5848 H   0  0  0  0  0  0  0  0  0  0  0  0
   -2.0608    1.5674   -0.0739 H   0  0  0  0  0  0  0  0  0  0  0  0
   -4.2856    2.8953    0.7353 H   0  0  0  0  0  0  0  0  0  0  0  0
   -4.2266    2.8920   -1.0555 H   0  0  0  0  0  0  0  0  0  0  0  0
  1 16  1  0  0  0  0
  1 15  1  0  0  0  0
  2 16  2  0  0  0  0
  3  8  1  0  0  0  0
  4  3  1  0  0  0  0
  4  5  1  0  0  0  0
  5  6  1  0  0  0  0
  6  7  1  0  0  0  0
  6 20  1  0  0  0  0
  7 21  1  0  0  0  0
  8  9  1  0  0  0  0
  8  7  1  0  0  0  0
  9 22  1  0  0  0  0
 10 11  1  0  0  0  0
 10  9  2  0  0  0  0
 11 24  1  6  0  0  0
 11 12  1  0  0  0  0
 12 26  1  0  0  0  0
 12 27  1  0  0  0  0
 12 25  1  0  0  0  0
 13 14  2  0  0  0  0
 13 11  1  0  0  0  0
 14 28  1  0  0  0  0
 15 14  1  0  0  0  0
 15 29  1  0  0  0  0
 16 13  1  0  0  0  0
 17  3  1  0  0  0  0
 18  4  1  0  0  0  0
 19  5  1  0  0  0  0
 23 10  1  0  0  0  0
 30 15  1  0  0  0  0
M  END
