7,9,11
q = 0.0, confidence = 0.998

 31 32  0  0  1  0  0  0  0  0999 V2000
   -4.1959    2.2699   -0.5367 F   0  0  0  0  0  0  0  0  0  0  0  0
   -2.8860    2.8401    1.1195 F   0  0  0  0  0  0  0  0  0  0  0  0
   -2.4951    3.5894   -0.8916 F   0  0  0  0  0  0  0  0  0  0  0  0
    6.9452    0.7907    1.2074 O   0  0  0  0  0  0  0  0  0  0  0  0
    5.9530    2.4615    0.2030 O   0  0  0  0  0  0  0  0  0  0  0  0
    6.0370    1.2787    0.5347 N   0  0  0  0  0  0  0  0  0  0  0  0
   -0.0211   -0.0067    0.0111 C   0  0  0  0  0  3  0  0  0  0  0  0
   -0.8488    1.1047    0.2999 C   0  0  0  0  0  3  0  0  0  0  0  0
   -2.0199    1.3237   -0.4875 C   0  0  2  0  0  3  0  0  0  0  0  0
   -2.3110    0.4881   -1.6008 C   0  0  0  0  0  3  0  0  0  0  0  0
   -1.4647   -0.6210   -1.8714 C   0  0  0  0  0  3  0  0  0  0  0  0
   -0.2768   -0.8720   -1.1100 C   0  0  2  0  0  3  0  0  0  0  0  0
    0.5262   -2.0651   -1.3988 C   0  0  0  0  0  0  0  0  0  0  0  0
    1.8529   -2.2843   -1.1777 C   0  0  0  0  0  0  0  0  0  0  0  0
    2.8957   -1.3467   -0.7416 C   0  0  0  0  0  0  0  0  0  0  0  0
    2.8950    0.0233   -1.1125 C   0  0  0  0  0  0  0  0  0  0  0  0
    3.9150    0.8819   -0.6992 C   0  0  0  0  0  0  0  0  0  0  0  0
    4.9554    0.3691    0.0893 C   0  0  0  0  0  0  0  0  0  0  0  0
    5.0068   -0.9825    0.4544 C   0  0  0  0  0  0  0  0  0  0  0  0
    3.9834   -1.8326    0.0276 C   0  0  0  0  0  0  0  0  0  0  0  0
   -2.9145    2.5093   -0.1884 C   0  0  0  0  0  0  0  0  0  0  0  0
    0.8259   -0.2285    0.6730 H   0  0  0  0  0  0  0  0  0  0  0  0
   -0.6542    1.7329    1.1783 H   0  0  0  0  0  0  0  0  0  0  0  0
   -3.2272    0.6485   -2.1831 H   0  0  0  0  0  0  0  0  0  0  0  0
   -1.7289   -1.3116   -2.6851 H   0  0  0  0  0  0  0  0  0  0  0  0
   -0.0493   -2.9028   -1.8273 H   0  0  0  0  0  0  0  0  0  0  0  0
    2.2069   -3.3143   -1.3545 H   0  0  0  0  0  0  0  0  0  0  0  0
    2.0913    0.4102   -1.7547 H   0  0  0  0  0  0  0  0  0  0  0  0
    3.9362    1.9432   -0.9802 H   0  0  0  0  0  0  0  0  0  0  0  0
    5.8494   -1.3376    1.0623 H   0  0  0  0  0  0  0  0  0  0  0  0
    4.0118   -2.8976    0.3038 H   0  0  0  0  0  0  0  0  0  0  0  0
  1 21  1  0  0  0  0
  3 21  1  0  0  0  0
  5  6  2  0  0  0  0
  6  4  2  0  0  0  0
  7  8  1  0  0  0  0
  7 22  1  0  0  0  0
  8 23  1  0  0  0  0
  9 21  1  6  0  0  0
  9  8  1  0  0  0  0
 10  9  1  0  0  0  0
 11 10  1  0  0  0  0
 11 12  1  0  0  0  0
 12 13  1  1  0  0  0
 12  7  1  0  0  0  0
 13 14  2  0  0  0  0
 14 15  1  0  0  0  0
 15 20  1  0  0  0  0
 16 15  2  0  0  0  0
 16 17  1  0  0  0  0
 17 18  2  0  0  0  0
 18 19  1  0  0  0  0
 18  6  1  0  0  0  0
 19 30  1  0  0  0  0
 20 31  1  0  0  0  0
 20 19  2  0  0  0  0
 21  2  1  0  0  0  0
 24 10  1  0  0  0  0
 25 11  1  0  0  0  0
 26 13  1  0  0  0  0
 27 14  1  0  0  0  0
 28 16  1  0  0  0  0
 29 17  1  0  0  0  0
M  END
