2,4,6
q = 0.0, confidence = 0.902

 11 11  0  0  0  0  0  0  0  0999 V2000
    1.5702   -0.1082    1.4790 N   0  0  0  0  0  2  0  0  0  0  0  0
    1.5765    1.1088    0.8501 C   0  0  0  0  0  3  0  0  0  0  0  0
    1.6389    1.2721   -0.5647 C   0  0  0  0  0  3  0  0  0  0  0  0
    1.6282    0.1011   -1.3718 C   0  0  0  0  0  3  0  0  0  0  0  0
    1.6400   -1.1753   -0.7443 C   0  0  0  0  0  3  0  0  0  0  0  0
    1.5776   -1.2205    0.6791 C   0  0  0  0  0  3  0  0  0  0  0  0
    1.6283   -2.1031   -1.3311 H   0  0  0  0  0  0  0  0  0  0  0  0
    1.6262    2.2756   -1.0098 H   0  0  0  0  0  0  0  0  0  0  0  0
    1.5399   -2.1897    1.2021 H   0  0  0  0  0  0  0  0  0  0  0  0
    1.6087    0.1816   -2.4681 H   0  0  0  0  0  0  0  0  0  0  0  0
    1.5376    1.9913    1.5090 H   0  0  0  0  0  0  0  0  0  0  0  0
  2  1  1  0  0  0  0
  2 11  1  0  0  0  0
  3  2  1  0  0  0  0
  4  5  1  0  0  0  0
  4  3  1  0  0  0  0
  5  6  1  0  0  0  0
  6  9  1  0  0  0  0
  6  1  1  0  0  0  0
  7  5  1  0  0  0  0
  8  3  1  0  0  0  0
 10  4  1  0  0  0  0
M  END
