10
q = -1.0, confidence = 0.0

 38 41  0  0  1  0  0  0  0  0999 V2000
   -2.5044   -0.3198   -2.1664 N   0  0  0  0  0  0  0  0  0  0  0  0
   -3.1922   -0.3748   -0.1258 N   0  0  0  0  0  0  0  0  0  0  0  0
   -0.4794   -2.5770    0.3698 C   0  0  0  0  0  0  0  0  0  0  0  0
    1.2855   -1.7078    1.6307 C   0  0  1  0  0  3  0  0  0  0  0  0
    0.0294   -1.4072    2.3015 C   0  0  2  0  0  3  0  0  0  0  0  0
   -4.3073   -0.6006   -0.9177 C   0  0  0  0  0  0  0  0  0  0  0  0
   -5.3079   -0.7508   -0.5010 H   0  0  0  0  0  0  0  0  0  0  0  0
    2.5140   -1.2698    2.1929 C   0  0  0  0  0  0  0  0  0  0  0  0
    3.4637   -1.4936    1.6849 H   0  0  0  0  0  0  0  0  0  0  0  0
   -2.0629   -0.2038   -0.8785 C   0  0  0  0  0  2  0  0  0  0  0  0
    0.9679   -2.4609    0.4332 C   0  0  0  0  0  0  0  0  0  0  0  0
    2.5032   -0.5727    3.3971 C   0  0  0  0  0  0  0  0  0  0  0  0
    3.4506   -0.2315    3.8399 H   0  0  0  0  0  0  0  0  0  0  0  0
   -1.0595   -1.8871    1.4941 C   0  0  2  0  0  3  0  0  0  0  0  0
    0.0569   -0.6961    3.5361 C   0  0  0  0  0  0  0  0  0  0  0  0
   -0.8817   -0.4651    4.0632 H   0  0  0  0  0  0  0  0  0  0  0  0
   -1.6493   -0.2693   -3.3439 C   0  0  0  0  0  0  0  0  0  0  0  0
   -0.6317    0.0224   -3.0320 H   0  0  0  0  0  0  0  0  0  0  0  0
   -2.0394    0.4713   -4.0687 H   0  0  0  0  0  0  0  0  0  0  0  0
   -1.6005   -1.2674   -3.8226 H   0  0  0  0  0  0  0  0  0  0  0  0
    1.1713   -3.7007   -1.6412 C   0  0  0  0  0  0  0  0  0  0  0  0
    1.7908   -4.1536   -2.4293 H   0  0  0  0  0  0  0  0  0  0  0  0
   -3.8702   -0.5618   -2.2179 C   0  0  0  0  0  0  0  0  0  0  0  0
   -4.4137   -0.6743   -3.1609 H   0  0  0  0  0  0  0  0  0  0  0  0
   -3.1706   -0.4518    1.3340 C   0  0  0  0  0  0  0  0  0  0  0  0
   -4.2166   -0.3633    1.6890 H   0  0  0  0  0  0  0  0  0  0  0  0
   -2.6059    0.4249    1.7089 H   0  0  0  0  0  0  0  0  0  0  0  0
   -2.5184   -1.7604    1.8293 C   0  0  0  0  0  0  0  0  0  0  0  0
   -2.6568   -1.7958    2.9311 H   0  0  0  0  0  0  0  0  0  0  0  0
   -3.0893   -2.6200    1.4179 H   0  0  0  0  0  0  0  0  0  0  0  0
   -1.0693   -3.2465   -0.7426 C   0  0  0  0  0  0  0  0  0  0  0  0
   -2.1646   -3.3344   -0.8185 H   0  0  0  0  0  0  0  0  0  0  0  0
   -0.2477   -3.7988   -1.7200 C   0  0  0  0  0  0  0  0  0  0  0  0
   -0.7018   -4.3313   -2.5706 H   0  0  0  0  0  0  0  0  0  0  0  0
    1.7764   -3.0358   -0.5792 C   0  0  0  0  0  0  0  0  0  0  0  0
    2.8710   -2.9496   -0.5253 H   0  0  0  0  0  0  0  0  0  0  0  0
    1.2769   -0.2976    4.0682 C   0  0  0  0  0  0  0  0  0  0  0  0
    1.2994    0.2502    5.0226 H   0  0  0  0  0  0  0  0  0  0  0  0
  1 10  1  0  0  0  0
  2 25  1  0  0  0  0
  3 11  1  0  0  0  0
  3 14  1  0  0  0  0
  4 11  1  1  0  0  0
  4  8  1  0  0  0  0
  4  5  1  0  0  0  0
  5 15  1  6  0  0  0
  6  7  1  0  0  0  0
  6  2  1  0  0  0  0
  8 12  2  0  0  0  0
  9  8  1  0  0  0  0
 10  2  1  0  0  0  0
 12 13  1  0  0  0  0
 12 37  1  0  0  0  0
 14 28  1  1  0  0  0
 14  5  1  0  0  0  0
 15 16  1  0  0  0  0
 15 37  2  0  0  0  0
 17 18  1  0  0  0  0
 17  1  1  0  0  0  0
 19 17  1  0  0  0  0
 20 17  1  0  0  0  0
 21 35  1  0  0  0  0
 22 21  1  0  0  0  0
 23  1  1  0  0  0  0
 23  6  2  0  0  0  0
 24 23  1  0  0  0  0
 25 26  1  0  0  0  0
 25 27  1  0  0  0  0
 25 28  1  0  0  0  0
 28 29  1  0  0  0  0
 30 28  1  0  0  0  0
 31  3  2  0  0  0  0
 32 31  1  0  0  0  0
 33 21  2  0  0  0  0
 33 31  1  0  0  0  0
 34 33  1  0  0  0  0
 35 36  1  0  0  0  0
 35 11  2  0  0  0  0
 37 38  1  0  0  0  0
M  END
