6,8,10
q = 0.0, confidence = 1.0

 40 41  0  0  1  0  0  0  0  0999 V2000
   -1.2173   -0.7803   -1.8029 O   0  0  0  0  0  0  0  0  0  0  0  0
    0.5920    3.0631   -0.5178 O   0  0  0  0  0  0  0  0  0  0  0  0
   -1.4974    2.6431    0.2855 O   0  0  0  0  0  0  0  0  0  0  0  0
   -2.7416   -0.8755   -0.1017 N   0  0  0  0  0  0  0  0  0  0  0  0
   -0.3894   -0.3875    0.4206 C   0  0  2  0  0  3  0  0  0  0  0  0
    0.1877    0.9232    0.4972 C   0  0  2  0  0  3  0  0  0  0  0  0
    1.2325    1.2018    1.4251 C   0  0  0  0  0  3  0  0  0  0  0  0
    1.7683    0.1432    2.2024 C   0  0  0  0  0  3  0  0  0  0  0  0
    1.2333   -1.1710    2.1142 C   0  0  0  0  0  3  0  0  0  0  0  0
    0.1707   -1.4568    1.2025 C   0  0  1  0  0  3  0  0  0  0  0  0
   -1.4759   -0.6883   -0.5992 C   0  0  0  0  0  0  0  0  0  0  0  0
   -3.7798   -1.2805   -1.0534 C   0  0  0  0  0  0  0  0  0  0  0  0
   -3.8145   -2.7947   -1.2640 C   0  0  0  0  0  0  0  0  0  0  0  0
   -3.1314   -0.6755    1.2931 C   0  0  0  0  0  0  0  0  0  0  0  0
   -3.9143    0.6178    1.5288 C   0  0  0  0  0  0  0  0  0  0  0  0
   -0.3601    2.0421   -0.3648 C   0  0  0  0  0  0  0  0  0  0  0  0
   -0.1795    4.2231   -0.8002 C   0  0  0  0  0  0  0  0  0  0  0  0
   -1.3768    4.0598    0.1483 C   0  0  0  0  0  0  0  0  0  0  0  0
   -0.3768   -2.8567    1.0952 C   0  0  0  0  0  0  0  0  0  0  0  0
    1.6697    2.2073    1.4436 H   0  0  0  0  0  0  0  0  0  0  0  0
    2.6321    0.3323    2.8558 H   0  0  0  0  0  0  0  0  0  0  0  0
    1.6853   -1.9897    2.6902 H   0  0  0  0  0  0  0  0  0  0  0  0
   -3.5689   -0.7723   -2.0147 H   0  0  0  0  0  0  0  0  0  0  0  0
   -4.7538   -0.9083   -0.6771 H   0  0  0  0  0  0  0  0  0  0  0  0
   -2.8572   -3.1410   -1.7009 H   0  0  0  0  0  0  0  0  0  0  0  0
   -4.6292   -3.0738   -1.9620 H   0  0  0  0  0  0  0  0  0  0  0  0
   -3.9834   -3.3359   -0.3103 H   0  0  0  0  0  0  0  0  0  0  0  0
   -3.7228   -1.5600    1.6196 H   0  0  0  0  0  0  0  0  0  0  0  0
   -2.2132   -0.6639    1.9104 H   0  0  0  0  0  0  0  0  0  0  0  0
   -3.2982    1.4900    1.2359 H   0  0  0  0  0  0  0  0  0  0  0  0
   -4.1838    0.7102    2.6003 H   0  0  0  0  0  0  0  0  0  0  0  0
   -4.8571    0.6400    0.9453 H   0  0  0  0  0  0  0  0  0  0  0  0
   -0.6795    1.6441   -1.3581 H   0  0  0  0  0  0  0  0  0  0  0  0
   -0.5070    4.2289   -1.8667 H   0  0  0  0  0  0  0  0  0  0  0  0
    0.4415    5.1180   -0.6057 H   0  0  0  0  0  0  0  0  0  0  0  0
   -2.3163    4.4856   -0.2646 H   0  0  0  0  0  0  0  0  0  0  0  0
   -1.1831    4.5222    1.1425 H   0  0  0  0  0  0  0  0  0  0  0  0
    0.3781   -3.5979    1.4182 H   0  0  0  0  0  0  0  0  0  0  0  0
   -0.6726   -3.0996    0.0576 H   0  0  0  0  0  0  0  0  0  0  0  0
   -1.2717   -2.9760    1.7412 H   0  0  0  0  0  0  0  0  0  0  0  0
  1 11  2  0  0  0  0
  2 16  1  0  0  0  0
  4 14  1  0  0  0  0
  5 11  1  6  0  0  0
  5  6  1  0  0  0  0
  5 10  1  0  0  0  0
  6 16  1  1  0  0  0
  6  7  1  0  0  0  0
  7 20  1  0  0  0  0
  7  8  1  0  0  0  0
  8 21  1  0  0  0  0
  9  8  1  0  0  0  0
  9 22  1  0  0  0  0
 10 19  1  1  0  0  0
 10  9  1  0  0  0  0
 11  4  1  0  0  0  0
 12 24  1  0  0  0  0
 12  4  1  0  0  0  0
 13 12  1  0  0  0  0
 13 27  1  0  0  0  0
 14 15  1  0  0  0  0
 14 28  1  0  0  0  0
 14 29  1  0  0  0  0
 15 31  1  0  0  0  0
 16  3  1  0  0  0  0
 17 35  1  0  0  0  0
 17  2  1  0  0  0  0
 17 18  1  0  0  0  0
 18  3  1  0  0  0  0
 18 37  1  0  0  0  0
 19 38  1  0  0  0  0
 19 40  1  0  0  0  0
 23 12  1  0  0  0  0
 25 13  1  0  0  0  0
 26 13  1  0  0  0  0
 30 15  1  0  0  0  0
 32 15  1  0  0  0  0
 33 16  1  0  0  0  0
 34 17  1  0  0  0  0
 36 18  1  0  0  0  0
 39 19  1  0  0  0  0
M  END
