1,5,30
q = -1.0

 48 51  0  0  0  0  0  0  0  0999 V2000
   -1.3028   -0.4191    1.1532 C   0  0  0  0  0  3  0  0  0  0  0  0
   -2.5461   -1.0588    1.2457 C   0  0  0  0  0  0  0  0  0  0  0  0
   -0.5477   -1.1091    2.0905 N   0  0  0  0  0  0  0  0  0  0  0  0
    0.8250   -0.7907    2.2002 C   0  0  0  0  0  0  0  0  0  0  0  0
    1.2098    0.1846    1.2480 C   0  0  0  0  0  3  0  0  0  0  0  0
    2.5583    0.5854    1.3095 C   0  0  0  0  0  0  0  0  0  0  0  0
    2.9461    1.3236    0.5945 H   0  0  0  0  0  0  0  0  0  0  0  0
    3.4437    0.0340    2.2501 C   0  0  0  0  0  0  0  0  0  0  0  0
    4.4916    0.3704    2.2643 H   0  0  0  0  0  0  0  0  0  0  0  0
    3.0154   -0.9489    3.1623 C   0  0  0  0  0  0  0  0  0  0  0  0
    3.7193   -1.3770    3.8905 H   0  0  0  0  0  0  0  0  0  0  0  0
    1.6820   -1.3746    3.1442 C   0  0  0  0  0  0  0  0  0  0  0  0
    1.3030   -2.1313    3.8459 H   0  0  0  0  0  0  0  0  0  0  0  0
   -1.1873   -2.0627    2.7504 N   0  0  0  0  0  2  0  0  0  0  0  0
   -2.4083   -2.0238    2.2258 N   0  0  0  0  0  0  0  0  0  0  0  0
   -3.4165   -2.9383    2.7392 C   0  0  0  0  0  0  0  0  0  0  0  0
   -2.9297   -3.5815    3.4923 H   0  0  0  0  0  0  0  0  0  0  0  0
   -3.8200   -3.5653    1.9212 H   0  0  0  0  0  0  0  0  0  0  0  0
   -4.2436   -2.3755    3.2140 H   0  0  0  0  0  0  0  0  0  0  0  0
   -3.7759   -0.9066    0.4138 C   0  0  0  0  0  0  0  0  0  0  0  0
   -3.9573    0.1743    0.2548 H   0  0  0  0  0  0  0  0  0  0  0  0
   -4.6585   -1.2897    0.9639 H   0  0  0  0  0  0  0  0  0  0  0  0
   -3.7007   -1.6036   -0.9616 C   0  0  0  0  0  0  0  0  0  0  0  0
   -4.7089   -1.5454   -1.4209 H   0  0  0  0  0  0  0  0  0  0  0  0
   -3.4871   -2.6859   -0.8255 H   0  0  0  0  0  0  0  0  0  0  0  0
   -2.6952   -0.9747   -1.9561 C   0  0  0  0  0  0  0  0  0  0  0  0
   -3.0295   -1.2171   -2.9865 H   0  0  0  0  0  0  0  0  0  0  0  0
   -2.7491    0.1260   -1.8660 H   0  0  0  0  0  0  0  0  0  0  0  0
   -1.2513   -1.3485   -1.8345 C   0  0  0  0  0  0  0  0  0  0  0  0
   -0.1668   -0.6917   -1.2100 C   0  0  0  0  0  3  0  0  0  0  0  0
   -0.7344   -2.4755   -2.4300 N   0  0  0  0  0  0  0  0  0  0  0  0
   -1.4316   -3.4789   -3.2228 C   0  0  0  0  0  0  0  0  0  0  0  0
   -2.2588   -3.9211   -2.6368 H   0  0  0  0  0  0  0  0  0  0  0  0
   -0.7009   -4.2611   -3.4909 H   0  0  0  0  0  0  0  0  0  0  0  0
   -1.8389   -3.0201   -4.1444 H   0  0  0  0  0  0  0  0  0  0  0  0
    0.5683   -2.5981   -2.2609 N   0  0  0  0  0  2  0  0  0  0  0  0
    0.8956   -1.5259   -1.5341 N   0  0  0  0  0  0  0  0  0  0  0  0
    2.2954   -1.3558   -1.2517 C   0  0  0  0  0  0  0  0  0  0  0  0
    2.9723   -0.2730   -1.8279 C   0  0  0  0  0  0  0  0  0  0  0  0
    2.4206    0.4406   -2.4534 H   0  0  0  0  0  0  0  0  0  0  0  0
    4.3464   -0.1299   -1.5933 C   0  0  0  0  0  0  0  0  0  0  0  0
    4.8909    0.7132   -2.0438 H   0  0  0  0  0  0  0  0  0  0  0  0
    5.0256   -1.0653   -0.7959 C   0  0  0  0  0  0  0  0  0  0  0  0
    6.1046   -0.9510   -0.6149 H   0  0  0  0  0  0  0  0  0  0  0  0
    4.3327   -2.1495   -0.2333 C   0  0  0  0  0  0  0  0  0  0  0  0
    4.8639   -2.8802    0.3935 H   0  0  0  0  0  0  0  0  0  0  0  0
    2.9592   -2.3045   -0.4630 C   0  0  0  0  0  0  0  0  0  0  0  0
    2.3986   -3.1424   -0.0263 H   0  0  0  0  0  0  0  0  0  0  0  0
  1  2  2  0  0  0  0
  1  3  1  0  0  0  0
  2 15  1  0  0  0  0
  3  4  1  0  0  0  0
  3 14  1  0  0  0  0
  4 12  1  0  0  0  0
  5  6  1  0  0  0  0
  5  4  2  0  0  0  0
  6  8  2  0  0  0  0
  7  6  1  0  0  0  0
  8  9  1  0  0  0  0
  8 10  1  0  0  0  0
 10 11  1  0  0  0  0
 12 10  2  0  0  0  0
 12 13  1  0  0  0  0
 15 16  1  0  0  0  0
 15 14  1  0  0  0  0
 16 19  1  0  0  0  0
 16 17  1  0  0  0  0
 18 16  1  0  0  0  0
 20 22  1  0  0  0  0
 20  2  1  0  0  0  0
 21 20  1  0  0  0  0
 23 25  1  0  0  0  0
 23 20  1  0  0  0  0
 24 23  1  0  0  0  0
 26 28  1  0  0  0  0
 26 29  1  0  0  0  0
 26 23  1  0  0  0  0
 27 26  1  0  0  0  0
 29 30  2  0  0  0  0
 31 36  1  0  0  0  0
 31 29  1  0  0  0  0
 32 33  1  0  0  0  0
 32 31  1  0  0  0  0
 34 32  1  0  0  0  0
 35 32  1  0  0  0  0
 36 37  1  0  0  0  0
 37 38  1  0  0  0  0
 37 30  1  0  0  0  0
 38 47  1  0  0  0  0
 39 41  1  0  0  0  0
 39 38  2  0  0  0  0
 40 39  1  0  0  0  0
 41 43  2  0  0  0  0
 42 41  1  0  0  0  0
 43 44  1  0  0  0  0
 43 45  1  0  0  0  0
 45 46  1  0  0  0  0
 47 45  2  0  0  0  0
 47 48  1  0  0  0  0
M  END
