2,4,6
q = 0.0, confidence = 0.986

 12 12  0  0  0  0  0  0  0  0999 V2000
   -2.6664    1.2931    0.0002 F   0  0  0  0  0  0  0  0  0  0  0  0
   -1.9259    0.1766    0.0001 C   0  0  0  0  0  3  0  0  0  0  0  0
   -1.5402   -0.3869    1.2435 C   0  0  0  0  0  3  0  0  0  0  0  0
   -0.7308   -1.5599    1.2276 C   0  0  0  0  0  3  0  0  0  0  0  0
   -0.3588   -2.1764   -0.0004 C   0  0  0  0  0  3  0  0  0  0  0  0
   -0.7308   -1.5595   -1.2282 C   0  0  0  0  0  3  0  0  0  0  0  0
   -1.5403   -0.3865   -1.2436 C   0  0  0  0  0  3  0  0  0  0  0  0
   -1.8287    0.1112    2.1776 H   0  0  0  0  0  0  0  0  0  0  0  0
    0.2879   -3.0632   -0.0006 H   0  0  0  0  0  0  0  0  0  0  0  0
   -0.3825   -1.9842   -2.1803 H   0  0  0  0  0  0  0  0  0  0  0  0
   -0.3824   -1.9850    2.1796 H   0  0  0  0  0  0  0  0  0  0  0  0
   -1.8289    0.1119   -2.1776 H   0  0  0  0  0  0  0  0  0  0  0  0
  2  1  1  0  0  0  0
  2  3  1  0  0  0  0
  3  8  1  0  0  0  0
  4  3  1  0  0  0  0
  4 11  1  0  0  0  0
  5  4  1  0  0  0  0
  6  5  1  0  0  0  0
  7  6  1  0  0  0  0
  7  2  1  0  0  0  0
  9  5  1  0  0  0  0
 10  6  1  0  0  0  0
 12  7  1  0  0  0  0
M  END
