1,39,45
q = -2.0, confidence = 0.596

 46 51  0  0  1  0  0  0  0  0999 V2000
   -0.6531   -0.4318   -0.0003 C   0  0  0  0  0  3  0  0  0  0  0  0
   -0.0607   -1.0617   -1.1644 C   0  0  0  0  0  0  0  0  0  0  0  0
   -0.2968   -0.8650   -2.5525 C   0  0  0  0  0  0  0  0  0  0  0  0
   -1.0854   -0.1722   -2.8820 H   0  0  0  0  0  0  0  0  0  0  0  0
    0.4672   -1.5831   -3.4660 C   0  0  0  0  0  0  0  0  0  0  0  0
    0.2916   -1.4488   -4.5440 H   0  0  0  0  0  0  0  0  0  0  0  0
    1.4774   -2.4881   -3.0375 C   0  0  0  0  0  0  0  0  0  0  0  0
    2.0674   -3.0296   -3.7915 H   0  0  0  0  0  0  0  0  0  0  0  0
    1.7303   -2.6969   -1.6852 C   0  0  0  0  0  0  0  0  0  0  0  0
    2.5182   -3.3919   -1.3601 H   0  0  0  0  0  0  0  0  0  0  0  0
    0.9672   -1.9860   -0.7295 C   0  0  0  0  0  0  0  0  0  0  0  0
    0.9674   -1.9887    0.7230 C   0  0  0  0  0  0  0  0  0  0  0  0
    1.7307   -2.7029    1.6759 C   0  0  0  0  0  0  0  0  0  0  0  0
    2.5185   -3.3968    1.3481 H   0  0  0  0  0  0  0  0  0  0  0  0
    1.4782   -2.4990    3.0290 C   0  0  0  0  0  0  0  0  0  0  0  0
    2.0685   -3.0432    3.7808 H   0  0  0  0  0  0  0  0  0  0  0  0
    0.4682   -1.5955    3.4610 C   0  0  0  0  0  0  0  0  0  0  0  0
    0.2929   -1.4650    4.5395 H   0  0  0  0  0  0  0  0  0  0  0  0
   -0.2960   -0.8742    2.5504 C   0  0  0  0  0  0  0  0  0  0  0  0
   -1.0846   -0.1825    2.8825 H   0  0  0  0  0  0  0  0  0  0  0  0
   -0.0604   -1.0658    1.1614 C   0  0  0  0  0  0  0  0  0  0  0  0
   -1.8677    0.4244    0.0010 C   0  0  0  0  0  0  0  0  0  0  0  0
   -3.1864   -0.1390    0.0003 C   0  0  0  0  0  0  0  0  0  0  0  0
   -3.4131   -1.5463   -0.0009 C   0  0  0  0  0  0  0  0  0  0  0  0
   -2.5454   -2.2223   -0.0014 H   0  0  0  0  0  0  0  0  0  0  0  0
   -4.7038   -2.0548   -0.0016 C   0  0  0  0  0  0  0  0  0  0  0  0
   -4.8643   -3.1436   -0.0025 H   0  0  0  0  0  0  0  0  0  0  0  0
   -5.8225   -1.1788   -0.0010 C   0  0  0  0  0  0  0  0  0  0  0  0
   -6.8413   -1.5951   -0.0015 H   0  0  0  0  0  0  0  0  0  0  0  0
   -5.6336    0.1951    0.0002 C   0  0  0  0  0  0  0  0  0  0  0  0
   -6.4976    0.8780    0.0006 H   0  0  0  0  0  0  0  0  0  0  0  0
   -4.3214    0.7531    0.0008 C   0  0  0  0  0  0  0  0  0  0  0  0
   -4.0987    2.1624    0.0019 C   0  0  0  0  0  0  0  0  0  0  0  0
   -4.9707    2.8348    0.0022 H   0  0  0  0  0  0  0  0  0  0  0  0
   -2.8149    2.6836    0.0026 C   0  0  0  0  0  0  0  0  0  0  0  0
   -2.6491    3.7712    0.0035 H   0  0  0  0  0  0  0  0  0  0  0  0
   -1.6925    1.8078    0.0022 C   0  0  0  0  0  0  0  0  0  0  0  0
   -0.2934    2.3084    0.0034 C   0  0  2  0  0  3  0  0  0  0  0  0
    0.5170    2.5661   -1.1483 C   0  0  0  0  0  3  0  0  0  0  0  0
    0.2007    2.4349   -2.1906 H   0  0  0  0  0  0  0  0  0  0  0  0
    1.7994    3.0130   -0.7033 C   0  0  0  0  0  0  0  0  0  0  0  0
    2.6471    3.2697   -1.3479 H   0  0  0  0  0  0  0  0  0  0  0  0
    1.7987    3.0102    0.7149 C   0  0  0  0  0  0  0  0  0  0  0  0
    2.6458    3.2642    1.3612 H   0  0  0  0  0  0  0  0  0  0  0  0
    0.5161    2.5614    1.1569 C   0  0  0  0  0  3  0  0  0  0  0  0
    0.1987    2.4259    2.1983 H   0  0  0  0  0  0  0  0  0  0  0  0
  1 22  1  0  0  0  0
  1 21  1  0  0  0  0
  2 11  1  0  0  0  0
  2  1  1  0  0  0  0
  3  2  2  0  0  0  0
  4  3  1  0  0  0  0
  5  7  2  0  0  0  0
  5  3  1  0  0  0  0
  6  5  1  0  0  0  0
  7  9  1  0  0  0  0
  8  7  1  0  0  0  0
  9 10  1  0  0  0  0
  9 11  2  0  0  0  0
 11 12  1  0  0  0  0
 12 21  2  0  0  0  0
 12 13  1  0  0  0  0
 13 15  2  0  0  0  0
 14 13  1  0  0  0  0
 15 17  1  0  0  0  0
 15 16  1  0  0  0  0
 17 18  1  0  0  0  0
 19 20  1  0  0  0  0
 19 17  2  0  0  0  0
 21 19  1  0  0  0  0
 22 37  1  0  0  0  0
 23 32  1  0  0  0  0
 23 22  2  0  0  0  0
 24 23  1  0  0  0  0
 25 24  1  0  0  0  0
 26 28  1  0  0  0  0
 26 24  2  0  0  0  0
 27 26  1  0  0  0  0
 28 30  2  0  0  0  0
 29 28  1  0  0  0  0
 30 31  1  0  0  0  0
 30 32  1  0  0  0  0
 32 33  2  0  0  0  0
 33 34  1  0  0  0  0
 33 35  1  0  0  0  0
 35 36  1  0  0  0  0
 37 35  2  0  0  0  0
 38 37  1  6  0  0  0
 38 45  1  0  0  0  0
 39 41  1  0  0  0  0
 39 38  1  0  0  0  0
 40 39  1  0  0  0  0
 41 43  2  0  0  0  0
 42 41  1  0  0  0  0
 43 45  1  0  0  0  0
 43 44  1  0  0  0  0
 45 46  1  0  0  0  0
M  END
