3,5,7
q = 0.0, confidence = 0.998

 34 36  0  0  1  0  0  0  0  0999 V2000
    1.3321   -0.5393   -0.0099 Si  0  0  2  0  0  0  0  0  0  0  0  0
   -0.4154   -1.2547   -0.0186 C   0  0  0  0  0  3  0  0  0  0  0  0
   -1.1438   -1.4112   -1.2399 C   0  0  0  0  0  3  0  0  0  0  0  0
   -2.5190   -1.7813   -1.2547 C   0  0  0  0  0  3  0  0  0  0  0  0
   -3.2077   -1.9448   -0.0222 C   0  0  0  0  0  3  0  0  0  0  0  0
   -2.5124   -1.8153    1.2137 C   0  0  0  0  0  3  0  0  0  0  0  0
   -1.1402   -1.4462    1.2038 C   0  0  0  0  0  3  0  0  0  0  0  0
    1.1836    0.4348   -1.3955 O   0  0  0  0  0  0  0  0  0  0  0  0
    2.2913   -1.9330   -0.1907 O   0  0  0  0  0  0  0  0  0  0  0  0
    1.3137    0.1264    1.5564 O   0  0  0  0  0  0  0  0  0  0  0  0
    3.4361    0.4865    0.0074 N   0  0  1  0  0  0  0  0  0  0  0  0
    2.2571    1.0836   -2.0248 C   0  0  0  0  0  0  0  0  0  0  0  0
    3.2564    1.5681   -0.9664 C   0  0  0  0  0  0  0  0  0  0  0  0
    3.6704   -1.9282    0.0839 C   0  0  0  0  0  0  0  0  0  0  0  0
    4.3017   -0.6202   -0.4144 C   0  0  0  0  0  0  0  0  0  0  0  0
    2.1628    1.1739    1.9512 C   0  0  0  0  0  0  0  0  0  0  0  0
    3.5729    0.9103    1.4058 C   0  0  0  0  0  0  0  0  0  0  0  0
   -0.6362   -1.1912   -2.1897 H   0  0  0  0  0  0  0  0  0  0  0  0
   -3.0628   -1.8537   -2.2062 H   0  0  0  0  0  0  0  0  0  0  0  0
   -4.2869   -2.1549   -0.0228 H   0  0  0  0  0  0  0  0  0  0  0  0
   -3.0526   -1.9144    2.1649 H   0  0  0  0  0  0  0  0  0  0  0  0
   -0.6251   -1.2535    2.1553 H   0  0  0  0  0  0  0  0  0  0  0  0
    2.7605    0.3976   -2.7487 H   0  0  0  0  0  0  0  0  0  0  0  0
    1.8700    1.9451   -2.6095 H   0  0  0  0  0  0  0  0  0  0  0  0
    2.8192    2.4339   -0.4299 H   0  0  0  0  0  0  0  0  0  0  0  0
    4.2192    1.9002   -1.4185 H   0  0  0  0  0  0  0  0  0  0  0  0
    3.8532   -2.0490    1.1795 H   0  0  0  0  0  0  0  0  0  0  0  0
    4.1516   -2.7953   -0.4179 H   0  0  0  0  0  0  0  0  0  0  0  0
    4.3234   -0.6306   -1.5225 H   0  0  0  0  0  0  0  0  0  0  0  0
    5.3505   -0.4996   -0.0575 H   0  0  0  0  0  0  0  0  0  0  0  0
    1.7700    2.1519    1.5849 H   0  0  0  0  0  0  0  0  0  0  0  0
    2.1845    1.2343    3.0600 H   0  0  0  0  0  0  0  0  0  0  0  0
    4.0268    0.0728    1.9724 H   0  0  0  0  0  0  0  0  0  0  0  0
    4.2412    1.7947    1.5164 H   0  0  0  0  0  0  0  0  0  0  0  0
  1  2  1  6  0  0  0
  1 10  1  0  0  0  0
  2  7  1  0  0  0  0
  3  2  1  0  0  0  0
  4  3  1  0  0  0  0
  4  5  1  0  0  0  0
  5  6  1  0  0  0  0
  6 21  1  0  0  0  0
  7  6  1  0  0  0  0
  7 22  1  0  0  0  0
  8  1  1  0  0  0  0
  9  1  1  0  0  0  0
  9 14  1  0  0  0  0
 10 16  1  0  0  0  0
 11 13  1  6  0  0  0
 11 17  1  0  0  0  0
 12  8  1  0  0  0  0
 12 13  1  0  0  0  0
 13 25  1  0  0  0  0
 14 27  1  0  0  0  0
 15 30  1  0  0  0  0
 15 11  1  0  0  0  0
 15 14  1  0  0  0  0
 16 32  1  0  0  0  0
 17 34  1  0  0  0  0
 17 16  1  0  0  0  0
 17 33  1  0  0  0  0
 18  3  1  0  0  0  0
 19  4  1  0  0  0  0
 20  5  1  0  0  0  0
 23 12  1  0  0  0  0
 24 12  1  0  0  0  0
 26 13  1  0  0  0  0
 28 14  1  0  0  0  0
 29 15  1  0  0  0  0
 31 16  1  0  0  0  0
M  END
