8,18,28
q = 0.0, confidence = 0.966

 67 69  0  0  0  0  0  0  0  0999 V2000
    3.1828   -0.0226    2.9065 O   0  0  0  0  0  0  0  0  0  0  0  0
    3.1831   -2.5078   -1.4726 O   0  0  0  0  0  0  0  0  0  0  0  0
    3.1845    2.5314   -1.4323 O   0  0  0  0  0  0  0  0  0  0  0  0
    5.1228   -0.0011   -0.0004 N   0  0  0  0  0  0  0  0  0  0  0  0
   -1.4100    1.2484    2.0647 N   0  0  0  0  0  2  0  0  0  0  0  0
   -1.4097   -2.4121    0.0493 N   0  0  0  0  0  2  0  0  0  0  0  0
   -1.4075    1.1635   -2.1118 N   0  0  0  0  0  2  0  0  0  0  0  0
   -2.2936    0.8226    1.3762 C   0  0  0  0  0  1  0  0  0  0  0  0
   -0.1997    1.4781    2.6693 C   0  0  0  0  0  0  0  0  0  0  0  0
   -0.0131    2.6173    3.4784 C   0  0  0  0  0  0  0  0  0  0  0  0
    1.2400    2.8233    4.0746 C   0  0  0  0  0  0  0  0  0  0  0  0
    2.2920    1.9248    3.8739 C   0  0  0  0  0  0  0  0  0  0  0  0
    2.1029    0.7839    3.0584 C   0  0  0  0  0  0  0  0  0  0  0  0
    0.8542    0.5533    2.4535 C   0  0  0  0  0  0  0  0  0  0  0  0
    3.1200   -1.1193    1.9888 C   0  0  0  0  0  0  0  0  0  0  0  0
    4.5326   -1.6467    1.7943 C   0  0  0  0  0  0  0  0  0  0  0  0
    5.5030   -0.5696    1.2909 C   0  0  0  0  0  0  0  0  0  0  0  0
   -2.2933   -1.6030    0.0246 C   0  0  0  0  0  1  0  0  0  0  0  0
   -0.1997   -3.0512   -0.0544 C   0  0  0  0  0  0  0  0  0  0  0  0
   -0.0138   -4.3218    0.5272 C   0  0  0  0  0  0  0  0  0  0  0  0
    1.2390   -4.9418    0.4072 C   0  0  0  0  0  0  0  0  0  0  0  0
    2.2912   -4.3192   -0.2705 C   0  0  0  0  0  0  0  0  0  0  0  0
    2.1028   -3.0422   -0.8504 C   0  0  0  0  0  0  0  0  0  0  0  0
    0.8545   -2.4023   -0.7474 C   0  0  0  0  0  0  0  0  0  0  0  0
    3.1207   -1.1650   -1.9647 C   0  0  0  0  0  0  0  0  0  0  0  0
    4.5337   -0.7333   -2.3233 C   0  0  0  0  0  0  0  0  0  0  0  0
    5.5033   -0.8358   -1.1380 C   0  0  0  0  0  0  0  0  0  0  0  0
   -2.2918    0.7800   -1.3999 C   0  0  0  0  0  1  0  0  0  0  0  0
   -0.1975    1.5735   -2.6129 C   0  0  0  0  0  0  0  0  0  0  0  0
   -0.0115    1.7056   -4.0041 C   0  0  0  0  0  0  0  0  0  0  0  0
    1.2411    2.1204   -4.4806 C   0  0  0  0  0  0  0  0  0  0  0  0
    2.2931    2.3962   -3.6023 C   0  0  0  0  0  0  0  0  0  0  0  0
    2.1046    2.2594   -2.2065 C   0  0  0  0  0  0  0  0  0  0  0  0
    0.8564    1.8494   -1.7043 C   0  0  0  0  0  0  0  0  0  0  0  0
    3.1230    2.2833   -0.0239 C   0  0  0  0  0  0  0  0  0  0  0  0
    4.5363    2.3768    0.5285 C   0  0  0  0  0  0  0  0  0  0  0  0
    5.5048    1.4010   -0.1539 C   0  0  0  0  0  0  0  0  0  0  0  0
   -0.8464    3.3164    3.6280 H   0  0  0  0  0  0  0  0  0  0  0  0
    1.3980    3.7072    4.7104 H   0  0  0  0  0  0  0  0  0  0  0  0
    3.2764    2.0760    4.3389 H   0  0  0  0  0  0  0  0  0  0  0  0
    0.6638   -0.3284    1.8284 H   0  0  0  0  0  0  0  0  0  0  0  0
   -0.8472   -4.8005    1.0579 H   0  0  0  0  0  0  0  0  0  0  0  0
    1.3965   -5.9345    0.8546 H   0  0  0  0  0  0  0  0  0  0  0  0
    3.2754   -4.7979   -0.3722 H   0  0  0  0  0  0  0  0  0  0  0  0
    0.6646   -1.4199   -1.1981 H   0  0  0  0  0  0  0  0  0  0  0  0
   -0.8447    1.4852   -4.6842 H   0  0  0  0  0  0  0  0  0  0  0  0
    1.3987    2.2298   -5.5640 H   0  0  0  0  0  0  0  0  0  0  0  0
    3.2772    2.7243   -3.9658 H   0  0  0  0  0  0  0  0  0  0  0  0
    0.6664    1.7479   -0.6281 H   0  0  0  0  0  0  0  0  0  0  0  0
    2.4375   -1.9089    2.3755 H   0  0  0  0  0  0  0  0  0  0  0  0
    2.7156   -0.7675    1.0153 H   0  0  0  0  0  0  0  0  0  0  0  0
    4.9154   -2.0563    2.7527 H   0  0  0  0  0  0  0  0  0  0  0  0
    4.4772   -2.4977    1.0837 H   0  0  0  0  0  0  0  0  0  0  0  0
    6.5445   -0.9829    1.2707 H   0  0  0  0  0  0  0  0  0  0  0  0
    5.5109    0.2476    2.0390 H   0  0  0  0  0  0  0  0  0  0  0  0
    2.4389   -1.1061   -2.8425 H   0  0  0  0  0  0  0  0  0  0  0  0
    2.7155   -0.4971   -1.1744 H   0  0  0  0  0  0  0  0  0  0  0  0
    4.9170   -1.3592   -3.1565 H   0  0  0  0  0  0  0  0  0  0  0  0
    4.4791    0.3073   -2.7059 H   0  0  0  0  0  0  0  0  0  0  0  0
    6.5450   -0.6122   -1.4853 H   0  0  0  0  0  0  0  0  0  0  0  0
    5.5104   -1.8921   -0.8041 H   0  0  0  0  0  0  0  0  0  0  0  0
    2.4416    3.0130    0.4680 H   0  0  0  0  0  0  0  0  0  0  0  0
    2.7180    1.2645    0.1576 H   0  0  0  0  0  0  0  0  0  0  0  0
    4.9203    3.4111    0.4034 H   0  0  0  0  0  0  0  0  0  0  0  0
    4.4822    2.1873    1.6209 H   0  0  0  0  0  0  0  0  0  0  0  0
    6.5468    1.5887    0.2134 H   0  0  0  0  0  0  0  0  0  0  0  0
    5.5121    1.6406   -1.2355 H   0  0  0  0  0  0  0  0  0  0  0  0
  1 13  1  0  0  0  0
  2 23  1  0  0  0  0
  3 35  1  0  0  0  0
  4 17  1  0  0  0  0
  5  9  1  0  0  0  0
  7 28  1  0  0  0  0
  8  5  1  0  0  0  0
  9 10  1  0  0  0  0
 10 38  1  0  0  0  0
 10 11  2  0  0  0  0
 11 39  1  0  0  0  0
 12 11  1  0  0  0  0
 12 40  1  0  0  0  0
 13 12  2  0  0  0  0
 14  9  2  0  0  0  0
 14 13  1  0  0  0  0
 15 50  1  0  0  0  0
 15  1  1  0  0  0  0
 16 15  1  0  0  0  0
 16 52  1  0  0  0  0
 17 16  1  0  0  0  0
 17 55  1  0  0  0  0
 18  6  1  0  0  0  0
 19  6  1  0  0  0  0
 19 20  1  0  0  0  0
 20 42  1  0  0  0  0
 21 20  2  0  0  0  0
 21 43  1  0  0  0  0
 22 21  1  0  0  0  0
 23 24  1  0  0  0  0
 23 22  2  0  0  0  0
 24 19  2  0  0  0  0
 25  2  1  0  0  0  0
 25 57  1  0  0  0  0
 26 25  1  0  0  0  0
 26 27  1  0  0  0  0
 27 61  1  0  0  0  0
 27  4  1  0  0  0  0
 29  7  1  0  0  0  0
 29 34  1  0  0  0  0
 30 29  2  0  0  0  0
 31 30  1  0  0  0  0
 31 32  2  0  0  0  0
 32 33  1  0  0  0  0
 33 34  2  0  0  0  0
 33  3  1  0  0  0  0
 34 49  1  0  0  0  0
 35 63  1  0  0  0  0
 35 62  1  0  0  0  0
 35 36  1  0  0  0  0
 36 65  1  0  0  0  0
 37  4  1  0  0  0  0
 37 66  1  0  0  0  0
 37 36  1  0  0  0  0
 41 14  1  0  0  0  0
 44 22  1  0  0  0  0
 45 24  1  0  0  0  0
 46 30  1  0  0  0  0
 47 31  1  0  0  0  0
 48 32  1  0  0  0  0
 51 15  1  0  0  0  0
 53 16  1  0  0  0  0
 54 17  1  0  0  0  0
 56 25  1  0  0  0  0
 58 26  1  0  0  0  0
 59 26  1  0  0  0  0
 60 27  1  0  0  0  0
 64 36  1  0  0  0  0
 67 37  1  0  0  0  0
M  END
