3,21,27
q = -1.0

 47 51  0  0  1  0  0  0  0  0999 V2000
    1.4533    0.7976   -0.0639 N   0  0  0  0  0  0  0  0  0  0  0  0
   -0.5395    1.7427   -0.1336 N   0  0  0  0  0  0  0  0  0  0  0  0
    0.1030    0.5252   -0.0545 C   0  0  0  0  0  2  0  0  0  0  0  0
    1.6634    2.1846   -0.1574 C   0  0  0  0  0  0  0  0  0  0  0  0
    0.3793    2.7914   -0.2021 C   0  0  0  0  0  0  0  0  0  0  0  0
    0.2573    4.1855   -0.3170 C   0  0  0  0  0  0  0  0  0  0  0  0
    1.4387    4.9402   -0.3878 C   0  0  0  0  0  0  0  0  0  0  0  0
    2.7089    4.3295   -0.3554 C   0  0  0  0  0  0  0  0  0  0  0  0
    2.8408    2.9366   -0.2427 C   0  0  0  0  0  0  0  0  0  0  0  0
    2.5054   -0.1544    0.1033 C   0  0  0  0  0  0  0  0  0  0  0  0
    3.4102    0.0416    1.1622 C   0  0  0  0  0  0  0  0  0  0  0  0
    4.4901   -0.8315    1.3395 C   0  0  0  0  0  0  0  0  0  0  0  0
    4.6649   -1.9088    0.4580 C   0  0  0  0  0  0  0  0  0  0  0  0
    3.7498   -2.1085   -0.5847 C   0  0  0  0  0  0  0  0  0  0  0  0
    2.6576   -1.2427   -0.7881 C   0  0  0  0  0  0  0  0  0  0  0  0
   -1.9538    1.6641   -0.0636 C   0  0  0  0  0  0  0  0  0  0  0  0
   -2.8274    2.7607   -0.0851 C   0  0  0  0  0  0  0  0  0  0  0  0
   -4.2069    2.5223    0.0249 C   0  0  0  0  0  0  0  0  0  0  0  0
   -4.6831    1.2099    0.1670 C   0  0  0  0  0  0  0  0  0  0  0  0
   -3.7867    0.1258    0.1911 C   0  0  0  0  0  0  0  0  0  0  0  0
   -2.3998    0.3226    0.0602 C   0  0  0  0  0  3  0  0  0  0  0  0
    0.3918   -2.9798   -0.1768 C   0  0  0  0  0  0  0  0  0  0  0  0
   -0.8448   -3.3885    0.3999 C   0  0  0  0  0  0  0  0  0  0  0  0
   -2.1004   -3.0975   -0.2056 C   0  0  0  0  0  0  0  0  0  0  0  0
   -2.1072   -2.2971   -1.3928 C   0  0  0  0  0  0  0  0  0  0  0  0
   -0.8883   -1.8655   -1.9980 C   0  0  0  0  0  3  0  0  0  0  0  0
    0.3658   -2.1289   -1.3330 C   0  0  2  0  0  3  0  0  0  0  0  0
    1.6508   -1.5237   -1.8763 C   0  0  0  0  0  0  0  0  0  0  0  0
   -0.7197    4.6803   -0.3554 H   0  0  0  0  0  0  0  0  0  0  0  0
    1.3668    6.0342   -0.4754 H   0  0  0  0  0  0  0  0  0  0  0  0
    3.6131    4.9523   -0.4216 H   0  0  0  0  0  0  0  0  0  0  0  0
    3.8260    2.4511   -0.2226 H   0  0  0  0  0  0  0  0  0  0  0  0
    3.2429    0.8777    1.8558 H   0  0  0  0  0  0  0  0  0  0  0  0
    5.1874   -0.6752    2.1757 H   0  0  0  0  0  0  0  0  0  0  0  0
    5.5101   -2.6009    0.5872 H   0  0  0  0  0  0  0  0  0  0  0  0
    3.8779   -2.9612   -1.2700 H   0  0  0  0  0  0  0  0  0  0  0  0
   -2.4581    3.7897   -0.1749 H   0  0  0  0  0  0  0  0  0  0  0  0
   -4.9070    3.3707    0.0095 H   0  0  0  0  0  0  0  0  0  0  0  0
   -5.7643    1.0267    0.2677 H   0  0  0  0  0  0  0  0  0  0  0  0
   -4.1798   -0.8932    0.3308 H   0  0  0  0  0  0  0  0  0  0  0  0
    1.3386   -3.1885    0.3371 H   0  0  0  0  0  0  0  0  0  0  0  0
   -0.8292   -3.8947    1.3764 H   0  0  0  0  0  0  0  0  0  0  0  0
   -3.0397   -3.3988    0.2756 H   0  0  0  0  0  0  0  0  0  0  0  0
   -3.0641   -1.9868   -1.8381 H   0  0  0  0  0  0  0  0  0  0  0  0
   -0.9139   -1.2322   -2.8967 H   0  0  0  0  0  0  0  0  0  0  0  0
    1.3925   -0.5915   -2.4195 H   0  0  0  0  0  0  0  0  0  0  0  0
    2.0963   -2.2187   -2.6188 H   0  0  0  0  0  0  0  0  0  0  0  0
  1  3  1  0  0  0  0
  1 10  1  0  0  0  0
  2 16  1  0  0  0  0
  2  3  1  0  0  0  0
  4  1  1  0  0  0  0
  5  4  1  0  0  0  0
  5  2  1  0  0  0  0
  6  5  2  0  0  0  0
  7  8  2  0  0  0  0
  7  6  1  0  0  0  0
  8  9  1  0  0  0  0
  9 32  1  0  0  0  0
  9  4  2  0  0  0  0
 10 11  1  0  0  0  0
 11 12  2  0  0  0  0
 11 33  1  0  0  0  0
 12 34  1  0  0  0  0
 13 35  1  0  0  0  0
 13 12  1  0  0  0  0
 14 13  2  0  0  0  0
 15 14  1  0  0  0  0
 15 10  2  0  0  0  0
 16 21  1  0  0  0  0
 17 16  2  0  0  0  0
 17 18  1  0  0  0  0
 18 19  2  0  0  0  0
 19 20  1  0  0  0  0
 19 39  1  0  0  0  0
 20 40  1  0  0  0  0
 21 20  2  0  0  0  0
 22 41  1  0  0  0  0
 22 23  2  0  0  0  0
 23 42  1  0  0  0  0
 24 43  1  0  0  0  0
 24 23  1  0  0  0  0
 25 24  2  0  0  0  0
 26 25  1  0  0  0  0
 26 27  1  0  0  0  0
 27 28  1  6  0  0  0
 27 22  1  0  0  0  0
 28 15  1  0  0  0  0
 29  6  1  0  0  0  0
 30  7  1  0  0  0  0
 31  8  1  0  0  0  0
 36 14  1  0  0  0  0
 37 17  1  0  0  0  0
 38 18  1  0  0  0  0
 44 25  1  0  0  0  0
 45 26  1  0  0  0  0
 46 28  1  0  0  0  0
 47 28  1  0  0  0  0
M  END
