6,8,10
q = 0.0, confidence = 0.976

 59 60  0  0  1  0  0  0  0  0999 V2000
   -1.7069    1.7743   -1.8400 Si  0  0  0  0  0  0  0  0  0  0  0  0
    1.1039   -0.4715    1.0145 O   0  0  0  0  0  0  0  0  0  0  0  0
    1.5050   -0.1667   -1.1894 O   0  0  0  0  0  0  0  0  0  0  0  0
    2.1956    2.2438    0.8029 O   0  0  0  0  0  0  0  0  0  0  0  0
    4.8741   -1.0784   -0.2901 O   0  0  0  0  0  0  0  0  0  0  0  0
   -0.7362   -0.7216   -0.5321 C   0  0  1  0  0  3  0  0  0  0  0  0
   -1.7447   -0.0772   -1.3291 C   0  0  1  0  0  3  0  0  0  0  0  0
   -2.9063   -0.8625   -1.6397 C   0  0  0  0  0  3  0  0  0  0  0  0
   -3.0653   -2.2053   -1.2055 C   0  0  0  0  0  3  0  0  0  0  0  0
   -2.0518   -2.7963   -0.3995 C   0  0  0  0  0  3  0  0  0  0  0  0
   -0.8707   -2.0746   -0.0987 C   0  0  0  0  0  3  0  0  0  0  0  0
    0.5261    0.0276   -0.1682 C   0  0  1  0  0  0  0  0  0  0  0  0
    2.4859   -0.1024    0.9585 C   0  0  1  0  0  0  0  0  0  0  0  0
    2.7890   -0.0961   -0.5641 C   0  0  1  0  0  0  0  0  0  0  0  0
    2.7749    1.2424    1.6713 C   0  0  0  0  0  0  0  0  0  0  0  0
    3.6696   -1.2724   -1.0544 C   0  0  0  0  0  0  0  0  0  0  0  0
    2.1133    1.2386    3.0546 C   0  0  0  0  0  0  0  0  0  0  0  0
    4.2946    1.4396    1.7801 C   0  0  0  0  0  0  0  0  0  0  0  0
    2.1062    3.5652    1.2877 C   0  0  0  0  0  0  0  0  0  0  0  0
    3.0142   -2.6267   -0.7573 C   0  0  0  0  0  0  0  0  0  0  0  0
    3.9145   -1.1030   -2.5595 C   0  0  0  0  0  0  0  0  0  0  0  0
    5.9516   -1.9518   -0.5377 C   0  0  0  0  0  0  0  0  0  0  0  0
   -3.3187    2.1251   -2.7681 C   0  0  0  0  0  0  0  0  0  0  0  0
   -0.2250    2.0699   -2.9745 C   0  0  0  0  0  0  0  0  0  0  0  0
   -1.6538    2.9331   -0.3438 C   0  0  0  0  0  0  0  0  0  0  0  0
   -3.7305   -0.4001   -2.2008 H   0  0  0  0  0  0  0  0  0  0  0  0
   -3.9919   -2.7516   -1.4264 H   0  0  0  0  0  0  0  0  0  0  0  0
   -2.1918   -3.8097    0.0031 H   0  0  0  0  0  0  0  0  0  0  0  0
   -0.0912   -2.4964    0.5480 H   0  0  0  0  0  0  0  0  0  0  0  0
    0.3259    1.1156   -0.0624 H   0  0  0  0  0  0  0  0  0  0  0  0
    3.0593   -0.8908    1.4834 H   0  0  0  0  0  0  0  0  0  0  0  0
    3.2903    0.8532   -0.8489 H   0  0  0  0  0  0  0  0  0  0  0  0
    1.0125    1.1765    2.9653 H   0  0  0  0  0  0  0  0  0  0  0  0
    2.4583    0.3603    3.6352 H   0  0  0  0  0  0  0  0  0  0  0  0
    2.3850    2.1437    3.6327 H   0  0  0  0  0  0  0  0  0  0  0  0
    4.7350    0.6825    2.4582 H   0  0  0  0  0  0  0  0  0  0  0  0
    4.7877    1.3323    0.7954 H   0  0  0  0  0  0  0  0  0  0  0  0
    4.5318    2.4382    2.1971 H   0  0  0  0  0  0  0  0  0  0  0  0
    1.3835    3.6690    2.1289 H   0  0  0  0  0  0  0  0  0  0  0  0
    3.0893    3.9738    1.6188 H   0  0  0  0  0  0  0  0  0  0  0  0
    1.7438    4.1862    0.4449 H   0  0  0  0  0  0  0  0  0  0  0  0
    2.0162   -2.6639   -1.2333 H   0  0  0  0  0  0  0  0  0  0  0  0
    3.6155   -3.4645   -1.1614 H   0  0  0  0  0  0  0  0  0  0  0  0
    2.8882   -2.7840    0.3320 H   0  0  0  0  0  0  0  0  0  0  0  0
    4.4722   -0.1646   -2.7518 H   0  0  0  0  0  0  0  0  0  0  0  0
    4.4855   -1.9508   -2.9869 H   0  0  0  0  0  0  0  0  0  0  0  0
    2.9421   -1.0457   -3.0854 H   0  0  0  0  0  0  0  0  0  0  0  0
    5.7041   -3.0186   -0.3285 H   0  0  0  0  0  0  0  0  0  0  0  0
    6.3346   -1.8850   -1.5826 H   0  0  0  0  0  0  0  0  0  0  0  0
    6.7688   -1.6496    0.1462 H   0  0  0  0  0  0  0  0  0  0  0  0
   -4.2028    1.9783   -2.1144 H   0  0  0  0  0  0  0  0  0  0  0  0
   -3.3231    3.1842   -3.0988 H   0  0  0  0  0  0  0  0  0  0  0  0
   -3.4363    1.4947   -3.6730 H   0  0  0  0  0  0  0  0  0  0  0  0
   -0.1683    3.1384   -3.2680 H   0  0  0  0  0  0  0  0  0  0  0  0
    0.7229    1.7829   -2.4778 H   0  0  0  0  0  0  0  0  0  0  0  0
   -0.3132    1.4632   -3.8990 H   0  0  0  0  0  0  0  0  0  0  0  0
   -2.5583    2.7970    0.2818 H   0  0  0  0  0  0  0  0  0  0  0  0
   -0.7680    2.7816    0.3032 H   0  0  0  0  0  0  0  0  0  0  0  0
   -1.6372    3.9838   -0.7025 H   0  0  0  0  0  0  0  0  0  0  0  0
  1 25  1  0  0  0  0
  3 14  1  0  0  0  0
  3 12  1  0  0  0  0
  4 19  1  0  0  0  0
  4 15  1  0  0  0  0
  6 12  1  0  0  0  0
  6 11  1  6  0  0  0
  7  1  1  1  0  0  0
  7  6  1  0  0  0  0
  8  7  1  0  0  0  0
  8  9  1  0  0  0  0
  9 10  1  0  0  0  0
 10 11  1  0  0  0  0
 10 28  1  0  0  0  0
 11 29  1  0  0  0  0
 12 30  1  1  0  0  0
 12  2  1  0  0  0  0
 13  2  1  0  0  0  0
 13 31  1  1  0  0  0
 13 15  1  0  0  0  0
 14 32  1  6  0  0  0
 14 13  1  0  0  0  0
 15 18  1  0  0  0  0
 15 17  1  0  0  0  0
 16 20  1  0  0  0  0
 16 14  1  0  0  0  0
 16  5  1  0  0  0  0
 17 35  1  0  0  0  0
 17 34  1  0  0  0  0
 18 38  1  0  0  0  0
 18 36  1  0  0  0  0
 19 40  1  0  0  0  0
 19 39  1  0  0  0  0
 20 44  1  0  0  0  0
 21 16  1  0  0  0  0
 22 48  1  0  0  0  0
 22  5  1  0  0  0  0
 22 50  1  0  0  0  0
 23 51  1  0  0  0  0
 23  1  1  0  0  0  0
 24 55  1  0  0  0  0
 24  1  1  0  0  0  0
 25 57  1  0  0  0  0
 25 58  1  0  0  0  0
 26  8  1  0  0  0  0
 27  9  1  0  0  0  0
 33 17  1  0  0  0  0
 37 18  1  0  0  0  0
 41 19  1  0  0  0  0
 42 20  1  0  0  0  0
 43 20  1  0  0  0  0
 45 21  1  0  0  0  0
 46 21  1  0  0  0  0
 47 21  1  0  0  0  0
 49 22  1  0  0  0  0
 52 23  1  0  0  0  0
 53 23  1  0  0  0  0
 54 24  1  0  0  0  0
 56 24  1  0  0  0  0
 59 25  1  0  0  0  0
M  END
