2,4,6
q = 0.0, confidence = 0.974

 24 24  0  0  1  0  0  0  0  0999 V2000
   -1.4250   -1.1066   -0.2186 C   0  0  2  0  0  3  0  0  0  0  0  0
   -0.8524   -1.1620    1.0914 C   0  0  0  0  0  3  0  0  0  0  0  0
    0.5524   -1.2132    1.2656 C   0  0  0  0  0  3  0  0  0  0  0  0
    1.4055   -1.1318    0.1241 C   0  0  1  0  0  3  0  0  0  0  0  0
    0.8526   -1.1011   -1.1955 C   0  0  0  0  0  3  0  0  0  0  0  0
   -0.5535   -1.0644   -1.3525 C   0  0  0  0  0  3  0  0  0  0  0  0
   -2.8892   -0.9509   -0.4566 C   0  0  0  0  0  0  0  0  0  0  0  0
   -4.9953   -0.7094    0.5668 C   0  0  0  0  0  0  0  0  0  0  0  0
    2.8836   -1.0406    0.3761 C   0  0  0  0  0  0  0  0  0  0  0  0
    4.9779   -0.5970   -0.5989 C   0  0  0  0  0  0  0  0  0  0  0  0
   -3.4000   -0.8754   -1.5606 O   0  0  0  0  0  0  0  0  0  0  0  0
   -3.5826   -0.9049    0.7059 O   0  0  0  0  0  0  0  0  0  0  0  0
    3.3942   -1.1510    1.4751 O   0  0  0  0  0  0  0  0  0  0  0  0
    3.5675   -0.8029   -0.7629 O   0  0  0  0  0  0  0  0  0  0  0  0
   -1.5214   -1.1391    1.9613 H   0  0  0  0  0  0  0  0  0  0  0  0
    1.0125   -1.2222    2.2623 H   0  0  0  0  0  0  0  0  0  0  0  0
    1.5220   -1.0222   -2.0603 H   0  0  0  0  0  0  0  0  0  0  0  0
   -1.0139   -0.9679   -2.3459 H   0  0  0  0  0  0  0  0  0  0  0  0
   -5.2081    0.2548    0.0627 H   0  0  0  0  0  0  0  0  0  0  0  0
   -5.4060   -0.7074    1.5916 H   0  0  0  0  0  0  0  0  0  0  0  0
   -5.4481   -1.5235   -0.0338 H   0  0  0  0  0  0  0  0  0  0  0  0
    5.1617    0.3129    0.0069 H   0  0  0  0  0  0  0  0  0  0  0  0
    5.4456   -1.4626   -0.0895 H   0  0  0  0  0  0  0  0  0  0  0  0
    5.3883   -0.4720   -1.6160 H   0  0  0  0  0  0  0  0  0  0  0  0
  1  7  1  1  0  0  0
  1  2  1  0  0  0  0
  2  3  1  0  0  0  0
  2 15  1  0  0  0  0
  3 16  1  0  0  0  0
  4  9  1  1  0  0  0
  4  3  1  0  0  0  0
  5  4  1  0  0  0  0
  6  5  1  0  0  0  0
  6  1  1  0  0  0  0
  7 12  1  0  0  0  0
  8 12  1  0  0  0  0
  8 20  1  0  0  0  0
  9 13  2  0  0  0  0
 10 23  1  0  0  0  0
 10 22  1  0  0  0  0
 11  7  2  0  0  0  0
 14 10  1  0  0  0  0
 14  9  1  0  0  0  0
 17  5  1  0  0  0  0
 18  6  1  0  0  0  0
 19  8  1  0  0  0  0
 21  8  1  0  0  0  0
 24 10  1  0  0  0  0
M  END
