10,14,18
q = 0.0, confidence = 1.0

 34 35  0  0  1  0  0  0  0  0999 V2000
   -3.2376    0.9534   -1.1783 O   0  0  0  0  0  0  0  0  0  0  0  0
   -3.7585    0.6486   -0.4044 H   0  0  0  0  0  0  0  0  0  0  0  0
   -2.8954   -0.6349    0.8477 O   0  0  0  0  0  0  0  0  0  0  0  0
   -1.6183   -1.8256   -0.7071 O   0  0  0  0  0  0  0  0  0  0  0  0
   -1.7391   -0.6266   -0.0055 C   0  0  0  0  0  0  0  0  0  0  0  0
   -1.9055    0.6890   -0.8327 C   0  0  2  0  0  0  0  0  0  0  0  0
   -1.3310    0.5620   -1.7733 H   0  0  0  0  0  0  0  0  0  0  0  0
   -1.1923    1.8162    0.0115 C   0  0  0  0  0  0  0  0  0  0  0  0
   -0.1637    1.0123    0.7855 C   0  0  2  0  0  3  0  0  0  0  0  0
    1.0105    1.4569    1.4498 C   0  0  0  0  0  3  0  0  0  0  0  0
    1.3039    2.5157    1.4090 H   0  0  0  0  0  0  0  0  0  0  0  0
    1.8203    0.5249    2.1660 C   0  0  0  0  0  3  0  0  0  0  0  0
    2.7380    0.8634    2.6647 H   0  0  0  0  0  0  0  0  0  0  0  0
    1.5004   -0.8630    2.1326 C   0  0  0  0  0  3  0  0  0  0  0  0
    2.1762   -1.5822    2.6169 H   0  0  0  0  0  0  0  0  0  0  0  0
    0.3414   -1.3368    1.4498 C   0  0  0  0  0  3  0  0  0  0  0  0
    0.1200   -2.4089    1.3746 H   0  0  0  0  0  0  0  0  0  0  0  0
   -0.4688   -0.3816    0.7831 C   0  0  1  0  0  3  0  0  0  0  0  0
   -2.9791   -1.6984    1.7869 C   0  0  0  0  0  0  0  0  0  0  0  0
   -3.9999   -1.6693    2.2125 H   0  0  0  0  0  0  0  0  0  0  0  0
   -2.2428   -1.5761    2.6123 H   0  0  0  0  0  0  0  0  0  0  0  0
   -2.8128   -2.6819    1.2989 H   0  0  0  0  0  0  0  0  0  0  0  0
   -2.5666   -2.0478   -1.7466 C   0  0  0  0  0  0  0  0  0  0  0  0
   -2.4326   -3.0964   -2.0719 H   0  0  0  0  0  0  0  0  0  0  0  0
   -2.3862   -1.3765   -2.6126 H   0  0  0  0  0  0  0  0  0  0  0  0
   -3.6084   -1.8978   -1.3923 H   0  0  0  0  0  0  0  0  0  0  0  0
   -2.1804    2.4650    1.0019 C   0  0  0  0  0  0  0  0  0  0  0  0
   -3.0112    2.9365    0.4411 H   0  0  0  0  0  0  0  0  0  0  0  0
   -1.6711    3.2468    1.6000 H   0  0  0  0  0  0  0  0  0  0  0  0
   -2.6088    1.7160    1.6952 H   0  0  0  0  0  0  0  0  0  0  0  0
   -0.5897    2.8827   -0.9088 C   0  0  0  0  0  0  0  0  0  0  0  0
   -1.3937    3.3566   -1.5072 H   0  0  0  0  0  0  0  0  0  0  0  0
    0.1508    2.4388   -1.6026 H   0  0  0  0  0  0  0  0  0  0  0  0
   -0.0841    3.6847   -0.3329 H   0  0  0  0  0  0  0  0  0  0  0  0
  1  6  1  0  0  0  0
  1  2  1  0  0  0  0
  3 19  1  0  0  0  0
  4  5  1  0  0  0  0
  5 18  1  0  0  0  0
  5  3  1  0  0  0  0
  6  7  1  6  0  0  0
  6  5  1  0  0  0  0
  6  8  1  0  0  0  0
  8  9  1  0  0  0  0
  8 27  1  0  0  0  0
  9 10  1  6  0  0  0
 10 12  1  0  0  0  0
 11 10  1  0  0  0  0
 12 13  1  0  0  0  0
 14 12  1  0  0  0  0
 14 15  1  0  0  0  0
 16 14  1  0  0  0  0
 17 16  1  0  0  0  0
 18  9  1  0  0  0  0
 18 16  1  1  0  0  0
 19 20  1  0  0  0  0
 19 21  1  0  0  0  0
 22 19  1  0  0  0  0
 23 26  1  0  0  0  0
 23  4  1  0  0  0  0
 24 23  1  0  0  0  0
 25 23  1  0  0  0  0
 27 29  1  0  0  0  0
 27 30  1  0  0  0  0
 28 27  1  0  0  0  0
 31 34  1  0  0  0  0
 31  8  1  0  0  0  0
 32 31  1  0  0  0  0
 33 31  1  0  0  0  0
M  END
