3,10,12
q = -1.0

 67 72  0  0  1  0  0  0  0  0999 V2000
   -1.7873    0.3485   -1.4993 C   0  0  1  0  0  0  0  0  0  0  0  0
   -0.3671    0.1713   -2.1324 C   0  0  2  0  0  0  0  0  0  0  0  0
    0.1081   -1.2266   -2.5467 C   0  0  0  0  0  3  0  0  0  0  0  0
   -0.5963   -2.4325   -2.3644 C   0  0  0  0  0  3  0  0  0  0  0  0
   -1.5672   -2.7052   -1.3715 C   0  0  0  0  0  3  0  0  0  0  0  0
   -2.7173   -1.7987   -0.9336 C   0  0  2  0  0  0  0  0  0  0  0  0
   -3.5793   -1.2828   -2.1038 C   0  0  0  0  0  0  0  0  0  0  0  0
   -2.8925    0.0288   -2.5519 C   0  0  0  0  0  0  0  0  0  0  0  0
   -2.2342   -0.4900   -0.2363 C   0  0  1  0  0  0  0  0  0  0  0  0
   -1.2156   -0.9394    0.8385 C   0  0  0  0  0  3  0  0  0  0  0  0
    0.7683    0.8967   -1.3988 C   0  0  2  0  0  3  0  0  0  0  0  0
    1.6772    0.0894   -0.7541 C   0  0  0  0  0  2  0  0  0  0  0  0
   -3.4285    0.2022    0.4685 C   0  0  0  0  0  0  0  0  0  0  0  0
   -4.1366   -0.5207    1.4558 C   0  0  0  0  0  0  0  0  0  0  0  0
   -5.2085    0.0427    2.1578 C   0  0  0  0  0  0  0  0  0  0  0  0
   -5.6049    1.3654    1.9006 C   0  0  0  0  0  0  0  0  0  0  0  0
   -4.9118    2.1042    0.9342 C   0  0  0  0  0  0  0  0  0  0  0  0
   -3.8419    1.5280    0.2280 C   0  0  0  0  0  0  0  0  0  0  0  0
   -0.6263   -0.0215    1.8364 C   0  0  0  0  0  0  0  0  0  0  0  0
   -0.5444    1.3863    1.6700 C   0  0  0  0  0  0  0  0  0  0  0  0
    0.0685    2.2004    2.6300 C   0  0  0  0  0  0  0  0  0  0  0  0
    0.6356    1.6452    3.7900 C   0  0  0  0  0  0  0  0  0  0  0  0
    0.5677    0.2548    3.9805 C   0  0  0  0  0  0  0  0  0  0  0  0
   -0.0520   -0.5598    3.0236 C   0  0  0  0  0  0  0  0  0  0  0  0
    0.7717    2.3851   -1.4344 C   0  0  0  0  0  0  0  0  0  0  0  0
    0.0754    3.1067   -2.4383 C   0  0  0  0  0  0  0  0  0  0  0  0
    0.0689    4.5079   -2.4656 C   0  0  0  0  0  0  0  0  0  0  0  0
    0.7496    5.2381   -1.4801 C   0  0  0  0  0  0  0  0  0  0  0  0
    1.4353    4.5456   -0.4689 C   0  0  0  0  0  0  0  0  0  0  0  0
    1.4462    3.1464   -0.4452 C   0  0  0  0  0  0  0  0  0  0  0  0
    2.9535    0.5049   -0.1576 C   0  0  0  0  0  0  0  0  0  0  0  0
    4.0540    0.8308   -0.9892 C   0  0  0  0  0  0  0  0  0  0  0  0
    5.3014    1.1592   -0.4401 C   0  0  0  0  0  0  0  0  0  0  0  0
    5.4839    1.1791    0.9526 C   0  0  0  0  0  0  0  0  0  0  0  0
    4.4010    0.8638    1.7904 C   0  0  0  0  0  0  0  0  0  0  0  0
    3.1553    0.5230    1.2464 C   0  0  0  0  0  0  0  0  0  0  0  0
   -1.8070    1.4246   -1.2455 H   0  0  0  0  0  0  0  0  0  0  0  0
   -0.4866    0.7012   -3.1041 H   0  0  0  0  0  0  0  0  0  0  0  0
    0.9164   -1.2171   -3.2932 H   0  0  0  0  0  0  0  0  0  0  0  0
   -0.1427   -3.3128   -2.8540 H   0  0  0  0  0  0  0  0  0  0  0  0
   -1.7961   -3.7777   -1.2587 H   0  0  0  0  0  0  0  0  0  0  0  0
   -3.3297   -2.3905   -0.2256 H   0  0  0  0  0  0  0  0  0  0  0  0
   -3.6642   -2.0281   -2.9188 H   0  0  0  0  0  0  0  0  0  0  0  0
   -4.6032   -1.0767   -1.7331 H   0  0  0  0  0  0  0  0  0  0  0  0
   -2.4421   -0.0678   -3.5602 H   0  0  0  0  0  0  0  0  0  0  0  0
   -3.6281    0.8552   -2.6141 H   0  0  0  0  0  0  0  0  0  0  0  0
   -1.6324   -1.8296    1.3558 H   0  0  0  0  0  0  0  0  0  0  0  0
   -3.8322   -1.5513    1.6934 H   0  0  0  0  0  0  0  0  0  0  0  0
   -5.7348   -0.5546    2.9182 H   0  0  0  0  0  0  0  0  0  0  0  0
   -6.4433    1.8152    2.4536 H   0  0  0  0  0  0  0  0  0  0  0  0
   -5.2004    3.1450    0.7212 H   0  0  0  0  0  0  0  0  0  0  0  0
   -3.3274    2.1463   -0.5206 H   0  0  0  0  0  0  0  0  0  0  0  0
   -0.9744    1.8509    0.7736 H   0  0  0  0  0  0  0  0  0  0  0  0
    0.1072    3.2877    2.4626 H   0  0  0  0  0  0  0  0  0  0  0  0
    1.1213    2.2890    4.5381 H   0  0  0  0  0  0  0  0  0  0  0  0
    0.9948   -0.2006    4.8875 H   0  0  0  0  0  0  0  0  0  0  0  0
   -0.1194   -1.6461    3.1986 H   0  0  0  0  0  0  0  0  0  0  0  0
   -0.4661    2.5686   -3.2298 H   0  0  0  0  0  0  0  0  0  0  0  0
   -0.4750    5.0323   -3.2663 H   0  0  0  0  0  0  0  0  0  0  0  0
    0.7415    6.3386   -1.4969 H   0  0  0  0  0  0  0  0  0  0  0  0
    1.9667    5.1016    0.3188 H   0  0  0  0  0  0  0  0  0  0  0  0
    1.9691    2.6290    0.3668 H   0  0  0  0  0  0  0  0  0  0  0  0
    3.9129    0.8244   -2.0810 H   0  0  0  0  0  0  0  0  0  0  0  0
    6.1399    1.4095   -1.1088 H   0  0  0  0  0  0  0  0  0  0  0  0
    6.4627    1.4412    1.3818 H   0  0  0  0  0  0  0  0  0  0  0  0
    4.5226    0.8880    2.8846 H   0  0  0  0  0  0  0  0  0  0  0  0
    2.3098    0.3022    1.9148 H   0  0  0  0  0  0  0  0  0  0  0  0
  1 37  1  1  0  0  0
  1  9  1  0  0  0  0
  2 38  1  6  0  0  0
  2  1  1  0  0  0  0
  2 11  1  0  0  0  0
  3  4  1  0  0  0  0
  3  2  1  0  0  0  0
  4  5  1  0  0  0  0
  5 41  1  0  0  0  0
  5  6  1  0  0  0  0
  6  9  1  0  0  0  0
  6 42  1  1  0  0  0
  7 44  1  0  0  0  0
  7  6  1  0  0  0  0
  8  7  1  0  0  0  0
  8  1  1  0  0  0  0
  9 13  1  0  0  0  0
  9 10  1  1  0  0  0
 10 47  1  0  0  0  0
 10 19  1  0  0  0  0
 11 12  1  1  0  0  0
 12 31  1  0  0  0  0
 13 14  1  0  0  0  0
 14 48  1  0  0  0  0
 14 15  2  0  0  0  0
 15 49  1  0  0  0  0
 16 15  1  0  0  0  0
 16 50  1  0  0  0  0
 17 16  2  0  0  0  0
 18 13  2  0  0  0  0
 18 17  1  0  0  0  0
 19 24  1  0  0  0  0
 20 19  2  0  0  0  0
 20 21  1  0  0  0  0
 21 22  2  0  0  0  0
 22 23  1  0  0  0  0
 22 55  1  0  0  0  0
 23 56  1  0  0  0  0
 24 57  1  0  0  0  0
 24 23  2  0  0  0  0
 25 11  1  0  0  0  0
 25 30  1  0  0  0  0
 26 25  2  0  0  0  0
 27 26  1  0  0  0  0
 27 28  2  0  0  0  0
 28 29  1  0  0  0  0
 29 30  2  0  0  0  0
 29 61  1  0  0  0  0
 30 62  1  0  0  0  0
 31 36  1  0  0  0  0
 32 33  1  0  0  0  0
 32 31  2  0  0  0  0
 33 34  2  0  0  0  0
 34 65  1  0  0  0  0
 34 35  1  0  0  0  0
 35 66  1  0  0  0  0
 36 35  2  0  0  0  0
 36 67  1  0  0  0  0
 39  3  1  0  0  0  0
 40  4  1  0  0  0  0
 43  7  1  0  0  0  0
 45  8  1  0  0  0  0
 46  8  1  0  0  0  0
 51 17  1  0  0  0  0
 52 18  1  0  0  0  0
 53 20  1  0  0  0  0
 54 21  1  0  0  0  0
 58 26  1  0  0  0  0
 59 27  1  0  0  0  0
 60 28  1  0  0  0  0
 63 32  1  0  0  0  0
 64 33  1  0  0  0  0
M  END
