8,12,16
q = 0.0, confidence = 0.998

 27 28  0  0  1  0  0  0  0  0999 V2000
    2.1184   -1.0785    0.2208 N   0  0  0  0  0  0  0  0  0  0  0  0
    1.1418   -2.8145    1.4493 O   0  0  0  0  0  0  0  0  0  0  0  0
    2.5498   -0.3225   -2.0222 O   0  0  0  0  0  0  0  0  0  0  0  0
    2.4502   -1.2618   -2.2770 H   0  0  0  0  0  0  0  0  0  0  0  0
    1.0806   -1.9458    0.5949 C   0  0  0  0  0  0  0  0  0  0  0  0
    1.7586   -0.1266   -0.8631 C   0  0  1  0  0  0  0  0  0  0  0  0
    0.2955   -0.5083   -1.1151 C   0  0  2  0  0  3  0  0  0  0  0  0
   -0.6434    0.0748   -2.0015 C   0  0  0  0  0  3  0  0  0  0  0  0
   -0.3728    0.9563   -2.5998 H   0  0  0  0  0  0  0  0  0  0  0  0
   -1.9423   -0.5091   -2.0961 C   0  0  0  0  0  3  0  0  0  0  0  0
   -2.6947   -0.0670   -2.7621 H   0  0  0  0  0  0  0  0  0  0  0  0
   -2.3016   -1.6003   -1.2456 C   0  0  0  0  0  3  0  0  0  0  0  0
   -3.3317   -1.9831   -1.2782 H   0  0  0  0  0  0  0  0  0  0  0  0
   -1.3730   -2.1723   -0.3287 C   0  0  0  0  0  3  0  0  0  0  0  0
   -1.6446   -2.9896    0.3517 H   0  0  0  0  0  0  0  0  0  0  0  0
   -0.0789   -1.5916   -0.2814 C   0  0  2  0  0  3  0  0  0  0  0  0
    3.3601   -1.1149    0.8619 C   0  0  0  0  0  0  0  0  0  0  0  0
    3.3517   -1.8306    1.7000 H   0  0  0  0  0  0  0  0  0  0  0  0
    4.4484   -0.3935    0.5281 C   0  0  0  0  0  0  0  0  0  0  0  0
    4.4604    0.2991   -0.3243 H   0  0  0  0  0  0  0  0  0  0  0  0
    5.3629   -0.5030    1.1267 H   0  0  0  0  0  0  0  0  0  0  0  0
    1.8961    1.2733   -0.4483 C   0  0  0  0  0  0  0  0  0  0  0  0
    1.9425    2.4421   -0.0916 C   0  0  0  0  0  0  0  0  0  0  0  0
    1.9668    3.8297    0.3390 C   0  0  0  0  0  0  0  0  0  0  0  0
    2.3650    3.9187    1.3709 H   0  0  0  0  0  0  0  0  0  0  0  0
    0.9412    4.2531    0.3296 H   0  0  0  0  0  0  0  0  0  0  0  0
    2.6048    4.4480   -0.3257 H   0  0  0  0  0  0  0  0  0  0  0  0
  1  5  1  0  0  0  0
  1 17  1  0  0  0  0
  3  6  1  0  0  0  0
  4  3  1  0  0  0  0
  5  2  2  0  0  0  0
  6 22  1  1  0  0  0
  6  1  1  0  0  0  0
  7  8  1  1  0  0  0
  7  6  1  0  0  0  0
  7 16  1  0  0  0  0
  9  8  1  0  0  0  0
 10  8  1  0  0  0  0
 10 12  1  0  0  0  0
 11 10  1  0  0  0  0
 12 14  1  0  0  0  0
 13 12  1  0  0  0  0
 14 15  1  0  0  0  0
 16 14  1  1  0  0  0
 16  5  1  0  0  0  0
 17 18  1  0  0  0  0
 19 17  2  0  0  0  0
 19 21  1  0  0  0  0
 20 19  1  0  0  0  0
 22 23  3  0  0  0  0
 23 24  1  0  0  0  0
 24 25  1  0  0  0  0
 26 24  1  0  0  0  0
 27 24  1  0  0  0  0
M  END
