17,19,21
q = 0.0, confidence = 0.978

 37 39  0  0  0  0  0  0  0  0999 V2000
   -1.3023   -0.1640   -0.5784 S   0  0  0  0  0  0  0  0  0  0  0  0
   -6.4332    0.0002   -0.0001 C   0  0  0  0  0  0  0  0  0  0  0  0
   -7.4724   -0.8318    0.4870 C   0  0  0  0  0  0  0  0  0  0  0  0
   -8.8066   -0.4116    0.4745 C   0  0  0  0  0  0  0  0  0  0  0  0
   -9.1377    0.8647   -0.0309 C   0  0  0  0  0  0  0  0  0  0  0  0
   -8.1112    1.7058   -0.5204 C   0  0  0  0  0  0  0  0  0  0  0  0
   -6.7861    1.2836   -0.5058 C   0  0  0  0  0  0  0  0  0  0  0  0
   -5.0817   -0.4306    0.0155 C   0  0  0  0  0  0  0  0  0  0  0  0
   -3.9043   -0.8064    0.0302 C   0  0  0  0  0  0  0  0  0  0  0  0
   -2.5641   -1.2184    0.0406 C   0  0  0  0  0  0  0  0  0  0  0  0
   -2.0153   -2.4266    0.4995 C   0  0  0  0  0  0  0  0  0  0  0  0
   -0.6153   -2.4988    0.3544 C   0  0  0  0  0  0  0  0  0  0  0  0
   -0.0534   -1.3479   -0.2195 C   0  0  0  0  0  0  0  0  0  0  0  0
    1.2909   -1.0765   -0.5075 C   0  0  0  0  0  0  0  0  0  0  0  0
    2.4729   -0.8212   -0.7608 C   0  0  0  0  0  0  0  0  0  0  0  0
    3.8239   -0.5450   -1.0822 C   0  0  0  0  0  3  0  0  0  0  0  0
    4.8701   -1.4945   -0.7992 C   0  0  0  0  0  3  0  0  0  0  0  0
    6.2196   -1.2335   -1.1536 C   0  0  0  0  0  3  0  0  0  0  0  0
    6.5673    0.0259   -1.7164 C   0  0  0  0  0  3  0  0  0  0  0  0
    5.5626    0.9958   -1.9887 C   0  0  0  0  0  3  0  0  0  0  0  0
    4.2151    0.7283   -1.6318 C   0  0  0  0  0  3  0  0  0  0  0  0
  -11.4673    0.5725    0.3891 C   0  0  0  0  0  0  0  0  0  0  0  0
  -10.3970    1.3679   -0.0882 O   0  0  0  0  0  0  0  0  0  0  0  0
   -7.2193   -1.8263    0.8819 H   0  0  0  0  0  0  0  0  0  0  0  0
   -9.5829   -1.0850    0.8610 H   0  0  0  0  0  0  0  0  0  0  0  0
   -8.3914    2.6954   -0.9089 H   0  0  0  0  0  0  0  0  0  0  0  0
   -5.9944    1.9440   -0.8877 H   0  0  0  0  0  0  0  0  0  0  0  0
   -2.6399   -3.2213    0.9272 H   0  0  0  0  0  0  0  0  0  0  0  0
   -0.0005   -3.3571    0.6547 H   0  0  0  0  0  0  0  0  0  0  0  0
    4.6025   -2.4396   -0.3075 H   0  0  0  0  0  0  0  0  0  0  0  0
    6.9999   -1.9684   -0.9155 H   0  0  0  0  0  0  0  0  0  0  0  0
    7.6210    0.2582   -1.9253 H   0  0  0  0  0  0  0  0  0  0  0  0
    5.8366    1.9788   -2.3939 H   0  0  0  0  0  0  0  0  0  0  0  0
    3.4430    1.4952   -1.7812 H   0  0  0  0  0  0  0  0  0  0  0  0
  -12.3869    1.1699    0.2491 H   0  0  0  0  0  0  0  0  0  0  0  0
  -11.5630   -0.3782   -0.1818 H   0  0  0  0  0  0  0  0  0  0  0  0
  -11.3535    0.3309    1.4695 H   0  0  0  0  0  0  0  0  0  0  0  0
  1 13  1  0  0  0  0
  1 10  1  0  0  0  0
  2  8  1  0  0  0  0
  2  3  1  0  0  0  0
  3 24  1  0  0  0  0
  4  3  2  0  0  0  0
  4 25  1  0  0  0  0
  5  4  1  0  0  0  0
  6  7  1  0  0  0  0
  6  5  2  0  0  0  0
  7  2  2  0  0  0  0
  8  9  3  0  0  0  0
  9 10  1  0  0  0  0
 10 11  2  0  0  0  0
 11 28  1  0  0  0  0
 12 11  1  0  0  0  0
 12 29  1  0  0  0  0
 13 12  2  0  0  0  0
 14 13  1  0  0  0  0
 15 14  3  0  0  0  0
 16 17  1  0  0  0  0
 16 15  1  0  0  0  0
 17 30  1  0  0  0  0
 18 31  1  0  0  0  0
 18 17  1  0  0  0  0
 19 18  1  0  0  0  0
 20 19  1  0  0  0  0
 20 21  1  0  0  0  0
 21 16  1  0  0  0  0
 22 37  1  0  0  0  0
 23  5  1  0  0  0  0
 23 22  1  0  0  0  0
 26  6  1  0  0  0  0
 27  7  1  0  0  0  0
 32 19  1  0  0  0  0
 33 20  1  0  0  0  0
 34 21  1  0  0  0  0
 35 22  1  0  0  0  0
 36 22  1  0  0  0  0
M  END
