1,4,8
q = 0.0, confidence = 0.974

 19 20  0  0  1  0  0  0  0  0999 V2000
   -2.2040    0.7150    0.7770 C   0  0  1  0  0  3  0  0  0  0  0  0
   -2.6560    0.7583   -0.5875 C   0  0  0  0  0  3  0  0  0  0  0  0
   -2.8756    1.7138   -1.0851 H   0  0  0  0  0  0  0  0  0  0  0  0
   -2.7394   -0.4558   -1.3188 C   0  0  0  0  0  3  0  0  0  0  0  0
   -2.9660   -0.4248   -2.3940 H   0  0  0  0  0  0  0  0  0  0  0  0
   -2.4055   -1.7160   -0.7095 C   0  0  0  0  0  3  0  0  0  0  0  0
   -2.4103   -2.6344   -1.3118 H   0  0  0  0  0  0  0  0  0  0  0  0
   -1.9663   -1.7411    0.6451 C   0  0  0  0  0  3  0  0  0  0  0  0
   -1.6373   -2.6918    1.0925 H   0  0  0  0  0  0  0  0  0  0  0  0
   -1.8853   -0.5317    1.4054 C   0  0  1  0  0  3  0  0  0  0  0  0
   -1.4168   -0.2993    2.8190 C   0  0  0  0  0  0  0  0  0  0  0  0
   -0.5758   -0.9574    3.1131 H   0  0  0  0  0  0  0  0  0  0  0  0
   -2.2575   -0.5158    3.5149 H   0  0  0  0  0  0  0  0  0  0  0  0
   -1.0588    1.2063    2.8230 C   0  0  0  0  0  0  0  0  0  0  0  0
   -1.1750    1.6749    3.8178 H   0  0  0  0  0  0  0  0  0  0  0  0
    0.0016    1.3299    2.5196 H   0  0  0  0  0  0  0  0  0  0  0  0
   -1.9699    1.8435    1.7481 C   0  0  0  0  0  0  0  0  0  0  0  0
   -2.9549    2.1404    2.1729 H   0  0  0  0  0  0  0  0  0  0  0  0
   -1.5407    2.7508    1.2794 H   0  0  0  0  0  0  0  0  0  0  0  0
  1  2  1  6  0  0  0
  1 10  1  0  0  0  0
  1 17  1  0  0  0  0
  3  2  1  0  0  0  0
  4  6  1  0  0  0  0
  4  2  1  0  0  0  0
  5  4  1  0  0  0  0
  6  8  1  0  0  0  0
  7  6  1  0  0  0  0
  8  9  1  0  0  0  0
 10  8  1  6  0  0  0
 10 11  1  0  0  0  0
 11 14  1  0  0  0  0
 11 12  1  0  0  0  0
 11 13  1  0  0  0  0
 14 15  1  0  0  0  0
 16 14  1  0  0  0  0
 17 18  1  0  0  0  0
 17 14  1  0  0  0  0
 19 17  1  0  0  0  0
M  END
