2,42
q = -2.0, confidence = 0.8

 75 77  0  0  1  0  0  0  0  0999 V2000
    0.9513    2.4518    0.4027 C   0  0  0  0  0  0  0  0  0  0  0  0
   -0.2672    2.2943   -0.3505 C   0  0  1  0  0  3  0  0  0  0  0  0
   -0.9801    1.1406    0.1729 C   0  0  1  0  0  3  0  0  0  0  0  0
   -0.1364    0.5334    1.1866 C   0  0  2  0  0  3  0  0  0  0  0  0
    0.9642    1.4379    1.4153 C   0  0  0  0  0  0  0  0  0  0  0  0
    1.6302    4.6698    1.4013 C   0  0  0  0  0  0  0  0  0  0  0  0
    0.6280    5.1168    1.2446 H   0  0  0  0  0  0  0  0  0  0  0  0
    2.3775    5.4866    1.3534 H   0  0  0  0  0  0  0  0  0  0  0  0
    1.6555    4.2445    2.4240 H   0  0  0  0  0  0  0  0  0  0  0  0
   -0.8170    3.2771   -1.3477 C   0  0  0  0  0  0  0  0  0  0  0  0
   -1.3349    2.7326   -2.1636 H   0  0  0  0  0  0  0  0  0  0  0  0
    0.0259    3.8098   -1.8341 H   0  0  0  0  0  0  0  0  0  0  0  0
   -1.7849    4.2830   -0.7070 C   0  0  0  0  0  0  0  0  0  0  0  0
   -2.6444    3.7629   -0.2380 H   0  0  0  0  0  0  0  0  0  0  0  0
   -2.1827    4.9886   -1.4634 H   0  0  0  0  0  0  0  0  0  0  0  0
   -1.2849    4.8781    0.0832 H   0  0  0  0  0  0  0  0  0  0  0  0
   -2.3456    0.7890   -0.1875 C   0  0  0  0  0  0  0  0  0  0  0  0
   -2.6668    1.0940   -1.1971 H   0  0  0  0  0  0  0  0  0  0  0  0
   -3.2306    0.1883    0.6533 C   0  0  0  0  0  0  0  0  0  0  0  0
   -2.8886   -0.0640    1.6707 H   0  0  0  0  0  0  0  0  0  0  0  0
   -4.6073   -0.1918    0.3357 C   0  0  0  0  0  0  0  0  0  0  0  0
   -5.4263   -0.7120    1.3675 C   0  0  0  0  0  0  0  0  0  0  0  0
   -5.0036   -0.8129    2.3795 H   0  0  0  0  0  0  0  0  0  0  0  0
   -6.7500   -1.0962    1.1188 C   0  0  0  0  0  0  0  0  0  0  0  0
   -7.3665   -1.4971    1.9378 H   0  0  0  0  0  0  0  0  0  0  0  0
   -7.2877   -0.9735   -0.1721 C   0  0  0  0  0  0  0  0  0  0  0  0
   -8.3264   -1.2769   -0.3720 H   0  0  0  0  0  0  0  0  0  0  0  0
   -6.4864   -0.4669   -1.2113 C   0  0  0  0  0  0  0  0  0  0  0  0
   -6.8979   -0.3766   -2.2283 H   0  0  0  0  0  0  0  0  0  0  0  0
   -5.1645   -0.0838   -0.9632 C   0  0  0  0  0  0  0  0  0  0  0  0
   -4.5492    0.2951   -1.7932 H   0  0  0  0  0  0  0  0  0  0  0  0
   -0.2350   -0.8859    1.7064 C   0  0  0  0  0  0  0  0  0  0  0  0
    1.9341    3.5880    0.3546 C   0  0  0  0  0  0  0  0  0  0  0  0
    1.9438    4.0271   -0.6632 H   0  0  0  0  0  0  0  0  0  0  0  0
    2.9521    3.1828    0.5253 H   0  0  0  0  0  0  0  0  0  0  0  0
    1.4488    0.9653    3.6899 C   0  0  0  0  0  0  0  0  0  0  0  0
    0.4088    1.2873    3.9054 H   0  0  0  0  0  0  0  0  0  0  0  0
    2.1434    1.4110    4.4253 H   0  0  0  0  0  0  0  0  0  0  0  0
    1.5325   -0.1362    3.7362 H   0  0  0  0  0  0  0  0  0  0  0  0
    0.7972   -1.7966    1.0312 C   0  0  1  0  0  0  0  0  0  0  0  0
    0.6775   -1.6745   -0.5119 C   0  0  1  0  0  3  0  0  0  0  0  0
    1.9518   -1.3050   -1.0849 C   0  0  1  0  0  3  0  0  0  0  0  0
    2.7196   -0.6614   -0.0469 C   0  0  1  0  0  3  0  0  0  0  0  0
    2.2193   -1.1712    1.2424 C   0  0  0  0  0  0  0  0  0  0  0  0
    0.7431   -3.2206    1.6124 C   0  0  0  0  0  0  0  0  0  0  0  0
    0.8087   -3.1146    2.7147 H   0  0  0  0  0  0  0  0  0  0  0  0
   -0.2643   -3.6416    1.4148 H   0  0  0  0  0  0  0  0  0  0  0  0
    1.8376   -4.1652    1.1171 C   0  0  0  0  0  0  0  0  0  0  0  0
    1.8161   -4.2947    0.0168 H   0  0  0  0  0  0  0  0  0  0  0  0
    1.7209   -5.1694    1.5708 H   0  0  0  0  0  0  0  0  0  0  0  0
    2.8453   -3.7927    1.3893 H   0  0  0  0  0  0  0  0  0  0  0  0
   -0.2801   -2.5806   -1.2572 C   0  0  0  0  0  0  0  0  0  0  0  0
   -0.1186   -2.4553   -2.3469 H   0  0  0  0  0  0  0  0  0  0  0  0
    0.0316   -3.6272   -1.0355 H   0  0  0  0  0  0  0  0  0  0  0  0
   -1.7722   -2.4459   -0.9589 C   0  0  0  0  0  0  0  0  0  0  0  0
   -1.9915   -2.4848    0.1264 H   0  0  0  0  0  0  0  0  0  0  0  0
   -2.3388   -3.2655   -1.4441 H   0  0  0  0  0  0  0  0  0  0  0  0
   -2.1730   -1.4890   -1.3383 H   0  0  0  0  0  0  0  0  0  0  0  0
    2.4857   -1.7072   -2.4379 C   0  0  0  0  0  0  0  0  0  0  0  0
    3.3001   -1.0101   -2.7229 H   0  0  0  0  0  0  0  0  0  0  0  0
    1.6994   -1.5838   -3.2100 H   0  0  0  0  0  0  0  0  0  0  0  0
    3.0019   -3.1539   -2.4693 C   0  0  0  0  0  0  0  0  0  0  0  0
    3.7731   -3.3291   -1.6935 H   0  0  0  0  0  0  0  0  0  0  0  0
    3.4508   -3.3874   -3.4554 H   0  0  0  0  0  0  0  0  0  0  0  0
    2.1828   -3.8792   -2.2939 H   0  0  0  0  0  0  0  0  0  0  0  0
    4.1337   -0.1442   -0.1184 C   0  0  0  0  0  0  0  0  0  0  0  0
    4.3164    0.3412   -1.0973 H   0  0  0  0  0  0  0  0  0  0  0  0
    4.2313    0.6506    0.6515 H   0  0  0  0  0  0  0  0  0  0  0  0
    5.1978   -1.2216    0.1430 C   0  0  0  0  0  0  0  0  0  0  0  0
    5.0474   -1.6836    1.1376 H   0  0  0  0  0  0  0  0  0  0  0  0
    6.2152   -0.7819    0.1184 H   0  0  0  0  0  0  0  0  0  0  0  0
    5.1610   -2.0235   -0.6217 H   0  0  0  0  0  0  0  0  0  0  0  0
    1.8675    1.4611    2.4058 O   0  0  0  0  0  0  0  0  0  0  0  0
   -1.0542   -1.2519    2.5349 O   0  0  0  0  0  0  0  0  0  0  0  0
    2.8273   -1.2016    2.3074 O   0  0  0  0  0  0  0  0  0  0  0  0
  1  5  2  0  0  0  0
  2 10  1  1  0  0  0
  2  3  1  0  0  0  0
  2  1  1  0  0  0  0
  3 17  1  1  0  0  0
  3  4  1  0  0  0  0
  4  5  1  0  0  0  0
  4 32  1  6  0  0  0
  5 73  1  0  0  0  0
  6  9  1  0  0  0  0
  7  6  1  0  0  0  0
  8  6  1  0  0  0  0
 10 13  1  0  0  0  0
 11 10  1  0  0  0  0
 12 10  1  0  0  0  0
 13 14  1  0  0  0  0
 13 16  1  0  0  0  0
 15 13  1  0  0  0  0
 17 19  2  0  0  0  0
 18 17  1  0  0  0  0
 19 20  1  0  0  0  0
 21 19  1  0  0  0  0
 21 22  1  0  0  0  0
 22 23  1  0  0  0  0
 24 22  2  0  0  0  0
 24 25  1  0  0  0  0
 26 24  1  0  0  0  0
 27 26  1  0  0  0  0
 28 30  1  0  0  0  0
 28 26  2  0  0  0  0
 29 28  1  0  0  0  0
 30 21  2  0  0  0  0
 31 30  1  0  0  0  0
 32 74  2  0  0  0  0
 33  1  1  0  0  0  0
 33 35  1  0  0  0  0
 33  6  1  0  0  0  0
 34 33  1  0  0  0  0
 36 39  1  0  0  0  0
 36 37  1  0  0  0  0
 36 38  1  0  0  0  0
 40 44  1  0  0  0  0
 40 45  1  0  0  0  0
 40 32  1  1  0  0  0
 41 52  1  6  0  0  0
 41 40  1  0  0  0  0
 42 59  1  1  0  0  0
 42 41  1  0  0  0  0
 42 43  1  0  0  0  0
 43 66  1  6  0  0  0
 43 44  1  0  0  0  0
 44 75  2  0  0  0  0
 45 46  1  0  0  0  0
 47 45  1  0  0  0  0
 48 51  1  0  0  0  0
 48 50  1  0  0  0  0
 48 45  1  0  0  0  0
 49 48  1  0  0  0  0
 52 54  1  0  0  0  0
 52 55  1  0  0  0  0
 53 52  1  0  0  0  0
 55 56  1  0  0  0  0
 57 55  1  0  0  0  0
 58 55  1  0  0  0  0
 60 59  1  0  0  0  0
 61 59  1  0  0  0  0
 62 59  1  0  0  0  0
 62 65  1  0  0  0  0
 62 63  1  0  0  0  0
 64 62  1  0  0  0  0
 66 69  1  0  0  0  0
 66 68  1  0  0  0  0
 67 66  1  0  0  0  0
 69 70  1  0  0  0  0
 71 69  1  0  0  0  0
 72 69  1  0  0  0  0
 73 36  1  0  0  0  0
M  END
