7,9,32
q = -1.0, confidence = 0.0

 47 49  0  0  0  0  0  0  0  0999 V2000
    2.3183   -1.3759    1.2085 N   0  0  0  0  0  0  0  0  0  0  0  0
    3.3893   -0.3089   -0.2923 N   0  0  0  0  0  0  0  0  0  0  0  0
    3.6205   -1.6794    1.4486 N   0  0  0  0  0  0  0  0  0  0  0  0
   -2.3181   -1.3759    1.2087 N   0  0  0  0  0  0  0  0  0  0  0  0
   -3.3892   -0.3088   -0.2919 N   0  0  0  0  0  0  0  0  0  0  0  0
   -3.6203   -1.6794    1.4490 N   0  0  0  0  0  0  0  0  0  0  0  0
    0.0001   -1.4112    1.3397 C   0  0  0  0  0  3  0  0  0  0  0  0
    1.1858   -1.8887    1.9051 C   0  0  0  0  0  0  0  0  0  0  0  0
    2.1164   -0.5403    0.1478 C   0  0  0  0  0  2  0  0  0  0  0  0
    3.7225    0.5789   -1.4076 C   0  0  0  0  0  0  0  0  0  0  0  0
    4.7651    0.3515   -1.7090 H   0  0  0  0  0  0  0  0  0  0  0  0
    3.0538    0.3088   -2.2489 H   0  0  0  0  0  0  0  0  0  0  0  0
    3.5568    2.0559   -1.0431 C   0  0  0  0  0  0  0  0  0  0  0  0
    3.7299    2.6512   -1.9655 H   0  0  0  0  0  0  0  0  0  0  0  0
    2.4952    2.2249   -0.7596 H   0  0  0  0  0  0  0  0  0  0  0  0
    4.4810    2.5398    0.0766 C   0  0  0  0  0  0  0  0  0  0  0  0
    4.3067    1.9248    0.9872 H   0  0  0  0  0  0  0  0  0  0  0  0
    5.5408    2.3597   -0.2131 H   0  0  0  0  0  0  0  0  0  0  0  0
    4.2794    4.0164    0.4177 C   0  0  0  0  0  0  0  0  0  0  0  0
    4.4664    4.6646   -0.4636 H   0  0  0  0  0  0  0  0  0  0  0  0
    3.2398    4.2086    0.7552 H   0  0  0  0  0  0  0  0  0  0  0  0
    4.9595    4.3459    1.2281 H   0  0  0  0  0  0  0  0  0  0  0  0
    4.2637   -1.0089    0.5158 C   0  0  0  0  0  0  0  0  0  0  0  0
    5.3516   -1.0059    0.3824 H   0  0  0  0  0  0  0  0  0  0  0  0
    1.2299   -2.7821    2.9848 C   0  0  0  0  0  0  0  0  0  0  0  0
    2.1893   -3.1350    3.3886 H   0  0  0  0  0  0  0  0  0  0  0  0
    0.0002   -3.2156    3.5198 C   0  0  0  0  0  0  0  0  0  0  0  0
    0.0003   -3.9178    4.3665 H   0  0  0  0  0  0  0  0  0  0  0  0
   -1.2295   -2.7821    2.9849 C   0  0  0  0  0  0  0  0  0  0  0  0
   -2.1889   -3.1350    3.3889 H   0  0  0  0  0  0  0  0  0  0  0  0
   -1.1856   -1.8887    1.9053 C   0  0  0  0  0  0  0  0  0  0  0  0
   -2.1163   -0.5402    0.1480 C   0  0  0  0  0  2  0  0  0  0  0  0
   -4.2635   -1.0088    0.5163 C   0  0  0  0  0  0  0  0  0  0  0  0
   -5.3515   -1.0056    0.3831 H   0  0  0  0  0  0  0  0  0  0  0  0
   -3.7225    0.5788   -1.4073 C   0  0  0  0  0  0  0  0  0  0  0  0
   -3.0538    0.3086   -2.2486 H   0  0  0  0  0  0  0  0  0  0  0  0
   -4.7651    0.3513   -1.7087 H   0  0  0  0  0  0  0  0  0  0  0  0
   -3.5569    2.0559   -1.0430 C   0  0  0  0  0  0  0  0  0  0  0  0
   -2.4952    2.2249   -0.7596 H   0  0  0  0  0  0  0  0  0  0  0  0
   -3.7300    2.6511   -1.9655 H   0  0  0  0  0  0  0  0  0  0  0  0
   -4.4811    2.5398    0.0766 C   0  0  0  0  0  0  0  0  0  0  0  0
   -5.5409    2.3598   -0.2132 H   0  0  0  0  0  0  0  0  0  0  0  0
   -4.3069    1.9249    0.9873 H   0  0  0  0  0  0  0  0  0  0  0  0
   -4.2795    4.0164    0.4177 C   0  0  0  0  0  0  0  0  0  0  0  0
   -3.2399    4.2086    0.7554 H   0  0  0  0  0  0  0  0  0  0  0  0
   -4.4663    4.6646   -0.4635 H   0  0  0  0  0  0  0  0  0  0  0  0
   -4.9596    4.3460    1.2281 H   0  0  0  0  0  0  0  0  0  0  0  0
  1  3  1  0  0  0  0
  1  8  1  0  0  0  0
  2  9  1  0  0  0  0
  2 23  1  0  0  0  0
  4  6  1  0  0  0  0
  4 31  1  0  0  0  0
  5 32  1  0  0  0  0
  5 33  1  0  0  0  0
  7  8  2  0  0  0  0
  7 31  1  0  0  0  0
  8 25  1  0  0  0  0
  9  1  1  0  0  0  0
 10 13  1  0  0  0  0
 10  2  1  0  0  0  0
 11 10  1  0  0  0  0
 12 10  1  0  0  0  0
 13 15  1  0  0  0  0
 13 16  1  0  0  0  0
 14 13  1  0  0  0  0
 16 19  1  0  0  0  0
 16 17  1  0  0  0  0
 18 16  1  0  0  0  0
 19 21  1  0  0  0  0
 19 22  1  0  0  0  0
 20 19  1  0  0  0  0
 23  3  2  0  0  0  0
 24 23  1  0  0  0  0
 25 26  1  0  0  0  0
 25 27  2  0  0  0  0
 27 28  1  0  0  0  0
 29 30  1  0  0  0  0
 29 27  1  0  0  0  0
 31 29  2  0  0  0  0
 32  4  1  0  0  0  0
 33  6  2  0  0  0  0
 34 33  1  0  0  0  0
 35 38  1  0  0  0  0
 35  5  1  0  0  0  0
 36 35  1  0  0  0  0
 37 35  1  0  0  0  0
 38 39  1  0  0  0  0
 38 41  1  0  0  0  0
 40 38  1  0  0  0  0
 41 44  1  0  0  0  0
 41 43  1  0  0  0  0
 42 41  1  0  0  0  0
 44 45  1  0  0  0  0
 44 47  1  0  0  0  0
 46 44  1  0  0  0  0
M  END
