1,2,4
q = 0.0, confidence = 0.988

 24 25  0  0  0  0  0  0  0  0999 V2000
    0.4484    0.1221   -0.1991 C   0  0  0  0  0  3  0  0  0  0  0  0
   -1.0738   -0.1635   -2.1228 C   0  0  0  0  0  3  0  0  0  0  0  0
   -1.5680    0.2601   -3.0089 H   0  0  0  0  0  0  0  0  0  0  0  0
   -0.8128   -1.9765   -0.4970 C   0  0  0  0  0  3  0  0  0  0  0  0
   -1.1054   -2.9665   -0.1189 H   0  0  0  0  0  0  0  0  0  0  0  0
    2.8641    0.4821    0.3376 C   0  0  0  0  0  0  0  0  0  0  0  0
    0.1268   -1.2015    0.2337 C   0  0  0  0  0  3  0  0  0  0  0  0
    0.5798   -1.5864    1.1558 H   0  0  0  0  0  0  0  0  0  0  0  0
   -0.1322    0.6241   -1.4020 C   0  0  0  0  0  3  0  0  0  0  0  0
    0.0904    1.6493   -1.7284 H   0  0  0  0  0  0  0  0  0  0  0  0
    1.4424    0.9520    0.5856 C   0  0  0  0  0  0  0  0  0  0  0  0
    1.3322    2.0199    0.3176 H   0  0  0  0  0  0  0  0  0  0  0  0
    1.2256    0.8531    1.6675 H   0  0  0  0  0  0  0  0  0  0  0  0
   -1.4019   -1.4787   -1.6941 C   0  0  0  0  0  3  0  0  0  0  0  0
   -2.1513   -2.0706   -2.2354 H   0  0  0  0  0  0  0  0  0  0  0  0
    3.1963   -0.7074    0.8764 N   0  0  0  0  0  0  0  0  0  0  0  0
    3.7683    1.2379   -0.4336 C   0  0  0  0  0  0  0  0  0  0  0  0
    3.4601    2.2055   -0.8577 H   0  0  0  0  0  0  0  0  0  0  0  0
    5.0614    0.7390   -0.6441 C   0  0  0  0  0  0  0  0  0  0  0  0
    5.7900    1.3102   -1.2397 H   0  0  0  0  0  0  0  0  0  0  0  0
    5.4068   -0.4978   -0.0827 C   0  0  0  0  0  0  0  0  0  0  0  0
    6.4093   -0.9295   -0.2194 H   0  0  0  0  0  0  0  0  0  0  0  0
    4.4336   -1.1785    0.6676 C   0  0  0  0  0  0  0  0  0  0  0  0
    4.6688   -2.1556    1.1266 H   0  0  0  0  0  0  0  0  0  0  0  0
  1  7  1  0  0  0  0
  1 11  1  0  0  0  0
  2 14  1  0  0  0  0
  2  9  1  0  0  0  0
  3  2  1  0  0  0  0
  4  5  1  0  0  0  0
  4  7  1  0  0  0  0
  6 11  1  0  0  0  0
  6 16  1  0  0  0  0
  7  8  1  0  0  0  0
  9  1  1  0  0  0  0
 10  9  1  0  0  0  0
 11 13  1  0  0  0  0
 12 11  1  0  0  0  0
 14  4  1  0  0  0  0
 15 14  1  0  0  0  0
 17  6  2  0  0  0  0
 18 17  1  0  0  0  0
 19 17  1  0  0  0  0
 19 21  2  0  0  0  0
 20 19  1  0  0  0  0
 21 23  1  0  0  0  0
 22 21  1  0  0  0  0
 23 16  2  0  0  0  0
 23 24  1  0  0  0  0
M  END
