3,4,9
q = 0.0, confidence = 0.986

 54 54  0  0  1  0  0  0  0  0999 V2000
    3.2976   -0.2478    0.2087 P   0  0  1  0  0  4  0  0  0  0  0  0
   -3.2375   -0.2946   -0.2734 P   0  0  2  0  0  4  0  0  0  0  0  0
    1.4622   -0.1924    0.0261 C   0  0  2  0  0  3  0  0  0  0  0  0
   -0.7259   -0.2415    1.1593 C   0  0  0  0  0  3  0  0  0  0  0  0
   -1.2974   -0.2080    2.0970 H   0  0  0  0  0  0  0  0  0  0  0  0
   -1.4110   -0.2550   -0.0987 C   0  0  2  0  0  3  0  0  0  0  0  0
    0.6929   -0.2498    1.2286 C   0  0  0  0  0  3  0  0  0  0  0  0
    1.2102   -0.2096    2.1973 H   0  0  0  0  0  0  0  0  0  0  0  0
   -0.6227   -0.1916   -1.2913 C   0  0  0  0  0  3  0  0  0  0  0  0
   -1.1432   -0.1207   -2.2580 H   0  0  0  0  0  0  0  0  0  0  0  0
    0.7967   -0.1829   -1.2397 C   0  0  0  0  0  3  0  0  0  0  0  0
    1.3663   -0.0946   -2.1735 H   0  0  0  0  0  0  0  0  0  0  0  0
    3.7181   -2.0583   -0.1754 C   0  0  0  0  0  0  0  0  0  0  0  0
    2.9418   -2.9381    0.8205 C   0  0  0  0  0  0  0  0  0  0  0  0
    1.8469   -2.8806    0.6560 H   0  0  0  0  0  0  0  0  0  0  0  0
    3.1539   -2.6497    1.8685 H   0  0  0  0  0  0  0  0  0  0  0  0
    3.2461   -3.9973    0.6868 H   0  0  0  0  0  0  0  0  0  0  0  0
    5.2324   -2.2207    0.0551 C   0  0  0  0  0  0  0  0  0  0  0  0
    5.5144   -3.2802   -0.1196 H   0  0  0  0  0  0  0  0  0  0  0  0
    5.5194   -1.9488    1.0888 H   0  0  0  0  0  0  0  0  0  0  0  0
    5.8306   -1.6006   -0.6430 H   0  0  0  0  0  0  0  0  0  0  0  0
    3.3532   -2.4437   -1.6161 C   0  0  0  0  0  0  0  0  0  0  0  0
    3.6328   -3.5041   -1.7913 H   0  0  0  0  0  0  0  0  0  0  0  0
    3.8961   -1.8352   -2.3666 H   0  0  0  0  0  0  0  0  0  0  0  0
    2.2657   -2.3563   -1.8094 H   0  0  0  0  0  0  0  0  0  0  0  0
    3.9748    0.7476   -1.1717 C   0  0  0  0  0  0  0  0  0  0  0  0
    3.5442    0.4880   -2.1566 H   0  0  0  0  0  0  0  0  0  0  0  0
    5.0694    0.5865   -1.1977 H   0  0  0  0  0  0  0  0  0  0  0  0
    3.7886    1.8146   -0.9489 H   0  0  0  0  0  0  0  0  0  0  0  0
   -3.7200   -2.0598    0.2213 C   0  0  0  0  0  0  0  0  0  0  0  0
   -3.3212   -2.3879    1.6674 C   0  0  0  0  0  0  0  0  0  0  0  0
   -3.7873   -1.7011    2.4021 H   0  0  0  0  0  0  0  0  0  0  0  0
   -2.2231   -2.3700    1.8122 H   0  0  0  0  0  0  0  0  0  0  0  0
   -3.6649   -3.4142    1.9162 H   0  0  0  0  0  0  0  0  0  0  0  0
   -5.2457   -2.1786    0.0496 C   0  0  0  0  0  0  0  0  0  0  0  0
   -5.5607   -1.9355   -0.9831 H   0  0  0  0  0  0  0  0  0  0  0  0
   -5.7963   -1.5124    0.7443 H   0  0  0  0  0  0  0  0  0  0  0  0
   -5.5574   -3.2203    0.2741 H   0  0  0  0  0  0  0  0  0  0  0  0
   -3.0053   -3.0131   -0.7530 C   0  0  0  0  0  0  0  0  0  0  0  0
   -3.3142   -4.0578   -0.5390 H   0  0  0  0  0  0  0  0  0  0  0  0
   -1.9027   -2.9602   -0.6446 H   0  0  0  0  0  0  0  0  0  0  0  0
   -3.2627   -2.7859   -1.8058 H   0  0  0  0  0  0  0  0  0  0  0  0
    3.8867    0.3517    1.9319 B   0  0  0  0  0  0  0  0  0  0  0  0
   -3.8152    0.2226   -2.0268 B   0  0  0  0  0  0  0  0  0  0  0  0
   -3.8818    0.8196    1.0301 C   0  0  0  0  0  0  0  0  0  0  0  0
   -3.4615    0.6229    2.0339 H   0  0  0  0  0  0  0  0  0  0  0  0
   -4.9830    0.7140    1.0638 H   0  0  0  0  0  0  0  0  0  0  0  0
   -3.6395    1.8563    0.7299 H   0  0  0  0  0  0  0  0  0  0  0  0
    3.4111    1.4778    2.0511 H   0  0  0  0  0  0  0  0  0  0  0  0
    5.1142    0.3564    1.8470 H   0  0  0  0  0  0  0  0  0  0  0  0
    3.4614   -0.4552    2.7594 H   0  0  0  0  0  0  0  0  0  0  0  0
   -3.3720   -0.6077   -2.8209 H   0  0  0  0  0  0  0  0  0  0  0  0
   -3.3522    1.3504   -2.1834 H   0  0  0  0  0  0  0  0  0  0  0  0
   -5.0436    0.2202   -1.9577 H   0  0  0  0  0  0  0  0  0  0  0  0
  1 26  1  6  0  0  0
  1 43  1  0  0  0  0
  2 30  1  1  0  0  0
  2 45  1  0  0  0  0
  3  1  1  6  0  0  0
  3  7  1  0  0  0  0
  4  7  1  0  0  0  0
  4  5  1  0  0  0  0
  6  2  1  1  0  0  0
  6  4  1  0  0  0  0
  7  8  1  0  0  0  0
  9 11  1  0  0  0  0
  9  6  1  0  0  0  0
 10  9  1  0  0  0  0
 11  3  1  0  0  0  0
 12 11  1  0  0  0  0
 13 18  1  0  0  0  0
 13  1  1  0  0  0  0
 13 14  1  0  0  0  0
 14 16  1  0  0  0  0
 15 14  1  0  0  0  0
 17 14  1  0  0  0  0
 18 20  1  0  0  0  0
 19 18  1  0  0  0  0
 21 18  1  0  0  0  0
 22 13  1  0  0  0  0
 23 22  1  0  0  0  0
 24 22  1  0  0  0  0
 25 22  1  0  0  0  0
 26 29  1  0  0  0  0
 27 26  1  0  0  0  0
 28 26  1  0  0  0  0
 30 31  1  0  0  0  0
 31 33  1  0  0  0  0
 31 34  1  0  0  0  0
 31 32  1  0  0  0  0
 35 30  1  0  0  0  0
 35 38  1  0  0  0  0
 35 37  1  0  0  0  0
 36 35  1  0  0  0  0
 39 41  1  0  0  0  0
 39 40  1  0  0  0  0
 39 30  1  0  0  0  0
 42 39  1  0  0  0  0
 43 49  1  0  0  0  0
 43 51  1  0  0  0  0
 44 54  1  0  0  0  0
 44  2  1  0  0  0  0
 45 47  1  0  0  0  0
 45 46  1  0  0  0  0
 48 45  1  0  0  0  0
 50 43  1  0  0  0  0
 52 44  1  0  0  0  0
 53 44  1  0  0  0  0
M  END
