15,26,28
q = 0.0, confidence = 0.994

 33 33  0  0  1  0  0  0  0  0999 V2000
   -1.8541    0.7561    0.0198 P   0  0  2  0  0  4  0  0  0  0  0  0
   -0.4444   -1.6553    1.5882 F   0  0  0  0  0  0  0  0  0  0  0  0
   -3.3482   -0.9706   -1.5515 C   0  0  0  0  0  0  0  0  0  0  0  0
   -4.2924   -1.5250   -1.7347 H   0  0  0  0  0  0  0  0  0  0  0  0
   -2.5113   -1.6915   -1.6462 H   0  0  0  0  0  0  0  0  0  0  0  0
   -3.2421   -0.2047   -2.3451 H   0  0  0  0  0  0  0  0  0  0  0  0
   -4.6116    0.6107   -0.0494 C   0  0  0  0  0  0  0  0  0  0  0  0
   -4.6643    1.1166    0.9361 H   0  0  0  0  0  0  0  0  0  0  0  0
   -5.5411    0.0148   -0.1665 H   0  0  0  0  0  0  0  0  0  0  0  0
   -4.5928    1.3907   -0.8336 H   0  0  0  0  0  0  0  0  0  0  0  0
   -3.4849   -1.4185    0.9287 C   0  0  0  0  0  0  0  0  0  0  0  0
   -2.6438   -2.1349    0.8815 H   0  0  0  0  0  0  0  0  0  0  0  0
   -4.4237   -1.9940    0.7845 H   0  0  0  0  0  0  0  0  0  0  0  0
   -3.5149   -0.9904    1.9503 H   0  0  0  0  0  0  0  0  0  0  0  0
    1.8397   -1.8876   -1.2549 C   0  0  0  0  0  3  0  0  0  0  0  0
    2.7355   -2.4514   -1.5511 H   0  0  0  0  0  0  0  0  0  0  0  0
    1.3246   -0.8699   -2.1054 C   0  0  0  0  0  3  0  0  0  0  0  0
    1.8288   -0.6292   -3.0502 H   0  0  0  0  0  0  0  0  0  0  0  0
   -1.6698    1.1830    1.7899 C   0  0  0  0  0  0  0  0  0  0  0  0
   -0.8079    1.8713    1.8751 H   0  0  0  0  0  0  0  0  0  0  0  0
   -1.5051    0.3012    2.4329 H   0  0  0  0  0  0  0  0  0  0  0  0
   -2.5818    1.7259    2.1045 H   0  0  0  0  0  0  0  0  0  0  0  0
   -3.3968   -0.3316   -0.1523 C   0  0  0  0  0  0  0  0  0  0  0  0
    1.2110   -2.1788   -0.0114 C   0  0  0  0  0  3  0  0  0  0  0  0
    1.5923   -2.9490    0.6710 H   0  0  0  0  0  0  0  0  0  0  0  0
    0.2297   -0.0804   -1.6642 C   0  0  0  0  0  3  0  0  0  0  0  0
   -0.1284    0.7662   -2.2688 H   0  0  0  0  0  0  0  0  0  0  0  0
    0.1065   -1.3850    0.3869 C   0  0  2  0  0  3  0  0  0  0  0  0
   -0.4302   -0.3302   -0.4139 C   0  0  1  0  0  3  0  0  0  0  0  0
   -1.8943    2.3185   -1.0939 B   0  0  0  0  0  0  0  0  0  0  0  0
   -0.7860    2.8333   -0.9670 H   0  0  0  0  0  0  0  0  0  0  0  0
   -2.7888    3.0011   -0.5954 H   0  0  0  0  0  0  0  0  0  0  0  0
   -2.1472    1.9550   -2.2432 H   0  0  0  0  0  0  0  0  0  0  0  0
  1 23  1  6  0  0  0
  1 19  1  0  0  0  0
  3 23  1  0  0  0  0
  4  3  1  0  0  0  0
  5  3  1  0  0  0  0
  6  3  1  0  0  0  0
  7  8  1  0  0  0  0
  9  7  1  0  0  0  0
 10  7  1  0  0  0  0
 11 14  1  0  0  0  0
 12 11  1  0  0  0  0
 13 11  1  0  0  0  0
 15 24  1  0  0  0  0
 16 15  1  0  0  0  0
 17 26  1  0  0  0  0
 17 15  1  0  0  0  0
 18 17  1  0  0  0  0
 19 20  1  0  0  0  0
 19 22  1  0  0  0  0
 19 21  1  0  0  0  0
 23  7  1  0  0  0  0
 23 11  1  0  0  0  0
 24 28  1  0  0  0  0
 24 25  1  0  0  0  0
 26 29  1  0  0  0  0
 27 26  1  0  0  0  0
 28  2  1  1  0  0  0
 29  1  1  1  0  0  0
 29 28  1  0  0  0  0
 30 31  1  0  0  0  0
 30 32  1  0  0  0  0
 30  1  1  0  0  0  0
 33 30  1  0  0  0  0
M  END
