7,11,15
q = 0.0, confidence = 0.998

 29 30  0  0  1  0  0  0  0  0999 V2000
   -1.4284    0.7481   -0.8416 C   0  0  1  0  0  0  0  0  0  0  0  0
   -1.3193    0.4509   -1.9054 H   0  0  0  0  0  0  0  0  0  0  0  0
   -0.9977    2.0799   -0.6759 O   0  0  0  0  0  0  0  0  0  0  0  0
   -0.3502    2.2473    0.6006 C   0  0  1  0  0  0  0  0  0  0  0  0
   -1.1083    2.5859    1.3492 H   0  0  0  0  0  0  0  0  0  0  0  0
    0.0808    0.8448    0.9719 C   0  0  2  0  0  3  0  0  0  0  0  0
    0.9782    0.3615    1.9568 C   0  0  0  0  0  3  0  0  0  0  0  0
    1.5350    1.0595    2.5985 H   0  0  0  0  0  0  0  0  0  0  0  0
    1.1648   -1.0467    2.1042 C   0  0  0  0  0  3  0  0  0  0  0  0
    1.8756   -1.4323    2.8466 H   0  0  0  0  0  0  0  0  0  0  0  0
    0.5115   -1.9447    1.2114 C   0  0  0  0  0  3  0  0  0  0  0  0
    0.7203   -3.0215    1.2851 H   0  0  0  0  0  0  0  0  0  0  0  0
   -0.3841   -1.4738    0.2045 C   0  0  0  0  0  3  0  0  0  0  0  0
   -0.8737   -2.1645   -0.4936 H   0  0  0  0  0  0  0  0  0  0  0  0
   -0.5597   -0.0723    0.0928 C   0  0  1  0  0  3  0  0  0  0  0  0
   -2.8960    0.5598   -0.4132 C   0  0  0  0  0  0  0  0  0  0  0  0
   -3.3656   -0.6057   -0.9167 O   0  0  0  0  0  0  0  0  0  0  0  0
   -4.7000   -0.9945   -0.5043 C   0  0  0  0  0  0  0  0  0  0  0  0
   -5.3306   -0.0842   -0.4518 H   0  0  0  0  0  0  0  0  0  0  0  0
   -5.0658   -1.6464   -1.3208 H   0  0  0  0  0  0  0  0  0  0  0  0
   -4.6725   -1.7194    0.8305 C   0  0  0  0  0  0  0  0  0  0  0  0
   -5.6912   -2.0696    1.0924 H   0  0  0  0  0  0  0  0  0  0  0  0
   -4.3263   -1.0428    1.6360 H   0  0  0  0  0  0  0  0  0  0  0  0
   -4.0033   -2.6021    0.7924 H   0  0  0  0  0  0  0  0  0  0  0  0
    0.7534    3.2810    0.4718 C   0  0  0  0  0  0  0  0  0  0  0  0
    0.3306    4.2469    0.1347 H   0  0  0  0  0  0  0  0  0  0  0  0
    1.2507    3.4447    1.4487 H   0  0  0  0  0  0  0  0  0  0  0  0
    1.5086    2.9403   -0.2625 H   0  0  0  0  0  0  0  0  0  0  0  0
   -3.5149    1.3210    0.2995 O   0  0  0  0  0  0  0  0  0  0  0  0
  1  2  1  6  0  0  0
  1  3  1  0  0  0  0
  1 16  1  0  0  0  0
  1 15  1  0  0  0  0
  3  4  1  0  0  0  0
  4  6  1  0  0  0  0
  4  5  1  1  0  0  0
  6  7  1  6  0  0  0
  7  9  1  0  0  0  0
  7  8  1  0  0  0  0
  9 10  1  0  0  0  0
 11 12  1  0  0  0  0
 11  9  1  0  0  0  0
 13 11  1  0  0  0  0
 14 13  1  0  0  0  0
 15 13  1  1  0  0  0
 15  6  1  0  0  0  0
 16 29  2  0  0  0  0
 17 18  1  0  0  0  0
 17 16  1  0  0  0  0
 18 19  1  0  0  0  0
 18 21  1  0  0  0  0
 20 18  1  0  0  0  0
 21 22  1  0  0  0  0
 21 23  1  0  0  0  0
 24 21  1  0  0  0  0
 25  4  1  0  0  0  0
 25 27  1  0  0  0  0
 26 25  1  0  0  0  0
 28 25  1  0  0  0  0
M  END
