1,5,38
q = -1.0, confidence = 0.052

 68 73  0  0  0  0  0  0  0  0999 V2000
    0.0380   -0.0591   -0.7788 C   0  0  0  0  0  3  0  0  0  0  0  0
   -0.0805   -0.0157   -1.8843 H   0  0  0  0  0  0  0  0  0  0  0  0
   -0.9480   -1.4514   -0.1458 P   0  0  0  0  0  4  0  0  0  0  0  0
    0.2395   -2.6889    0.3631 C   0  0  0  0  0  0  0  0  0  0  0  0
    1.5995   -2.2601    0.3015 C   0  0  0  0  0  3  0  0  0  0  0  0
    2.5381   -3.2424    0.7243 C   0  0  0  0  0  0  0  0  0  0  0  0
    3.6045   -2.9636    0.7016 H   0  0  0  0  0  0  0  0  0  0  0  0
    2.1462   -4.5153    1.1544 C   0  0  0  0  0  0  0  0  0  0  0  0
    2.9135   -5.2417    1.4693 H   0  0  0  0  0  0  0  0  0  0  0  0
    0.7856   -4.8930    1.1878 C   0  0  0  0  0  0  0  0  0  0  0  0
    0.4907   -5.8999    1.5201 H   0  0  0  0  0  0  0  0  0  0  0  0
   -0.1829   -3.9715    0.7848 C   0  0  0  0  0  0  0  0  0  0  0  0
   -1.2517   -4.2428    0.7939 H   0  0  0  0  0  0  0  0  0  0  0  0
   -1.9939   -2.1161   -1.4881 C   0  0  0  0  0  0  0  0  0  0  0  0
   -1.4318   -2.1918   -2.7827 C   0  0  0  0  0  0  0  0  0  0  0  0
   -0.4078   -1.8307   -2.9660 H   0  0  0  0  0  0  0  0  0  0  0  0
   -2.1674   -2.7563   -3.8332 C   0  0  0  0  0  0  0  0  0  0  0  0
   -1.7238   -2.8103   -4.8385 H   0  0  0  0  0  0  0  0  0  0  0  0
   -3.4580   -3.2608   -3.6014 C   0  0  0  0  0  0  0  0  0  0  0  0
   -4.0324   -3.7042   -4.4287 H   0  0  0  0  0  0  0  0  0  0  0  0
   -4.0077   -3.2115   -2.3113 C   0  0  0  0  0  0  0  0  0  0  0  0
   -5.0117   -3.6203   -2.1220 H   0  0  0  0  0  0  0  0  0  0  0  0
   -3.2796   -2.6453   -1.2535 C   0  0  0  0  0  0  0  0  0  0  0  0
   -3.7142   -2.6176   -0.2438 H   0  0  0  0  0  0  0  0  0  0  0  0
   -2.0374   -1.0175    1.2496 C   0  0  0  0  0  0  0  0  0  0  0  0
   -3.2689   -0.3555    1.0543 C   0  0  0  0  0  0  0  0  0  0  0  0
   -3.6078   -0.0934    0.0420 H   0  0  0  0  0  0  0  0  0  0  0  0
   -4.0669   -0.0286    2.1593 C   0  0  0  0  0  0  0  0  0  0  0  0
   -5.0305    0.4794    2.0027 H   0  0  0  0  0  0  0  0  0  0  0  0
   -3.6357   -0.3437    3.4582 C   0  0  0  0  0  0  0  0  0  0  0  0
   -4.2639   -0.0838    4.3237 H   0  0  0  0  0  0  0  0  0  0  0  0
   -2.4003   -0.9802    3.6541 C   0  0  0  0  0  0  0  0  0  0  0  0
   -2.0517   -1.2120    4.6712 H   0  0  0  0  0  0  0  0  0  0  0  0
   -1.6005   -1.3232    2.5551 C   0  0  0  0  0  0  0  0  0  0  0  0
   -0.6326   -1.8259    2.6999 H   0  0  0  0  0  0  0  0  0  0  0  0
   -0.2251    1.6268   -0.1792 P   0  0  0  0  0  4  0  0  0  0  0  0
    1.1800    2.4817   -0.9124 C   0  0  0  0  0  0  0  0  0  0  0  0
    2.3095    1.6154   -0.9911 C   0  0  0  0  0  3  0  0  0  0  0  0
    3.4854    2.2068   -1.5204 C   0  0  0  0  0  0  0  0  0  0  0  0
    4.3943    1.5867   -1.5739 H   0  0  0  0  0  0  0  0  0  0  0  0
    3.5079    3.5422   -1.9440 C   0  0  0  0  0  0  0  0  0  0  0  0
    4.4387    3.9665   -2.3551 H   0  0  0  0  0  0  0  0  0  0  0  0
    2.3600    4.3583   -1.8577 C   0  0  0  0  0  0  0  0  0  0  0  0
    2.3910    5.4031   -2.2023 H   0  0  0  0  0  0  0  0  0  0  0  0
    1.1769    3.8287   -1.3319 C   0  0  0  0  0  0  0  0  0  0  0  0
    0.2708    4.4504   -1.2650 H   0  0  0  0  0  0  0  0  0  0  0  0
   -0.2185    1.7261    1.6493 C   0  0  0  0  0  0  0  0  0  0  0  0
    0.9600    1.3601    2.3355 C   0  0  0  0  0  0  0  0  0  0  0  0
    1.8280    0.9877    1.7585 H   0  0  0  0  0  0  0  0  0  0  0  0
    1.0003    1.4306    3.7344 C   0  0  0  0  0  0  0  0  0  0  0  0
    1.9217    1.1375    4.2597 H   0  0  0  0  0  0  0  0  0  0  0  0
   -0.1203    1.8726    4.4561 C   0  0  0  0  0  0  0  0  0  0  0  0
   -0.0829    1.9291    5.5549 H   0  0  0  0  0  0  0  0  0  0  0  0
   -1.2903    2.2387    3.7736 C   0  0  0  0  0  0  0  0  0  0  0  0
   -2.1774    2.5732    4.3322 H   0  0  0  0  0  0  0  0  0  0  0  0
   -1.3448    2.1658    2.3741 C   0  0  0  0  0  0  0  0  0  0  0  0
   -2.2764    2.4291    1.8559 H   0  0  0  0  0  0  0  0  0  0  0  0
   -1.7811    2.3927   -0.7676 C   0  0  0  0  0  0  0  0  0  0  0  0
   -2.1564    3.6933   -0.3640 C   0  0  0  0  0  0  0  0  0  0  0  0
   -1.5409    4.2470    0.3608 H   0  0  0  0  0  0  0  0  0  0  0  0
   -3.3200    4.2826   -0.8799 C   0  0  0  0  0  0  0  0  0  0  0  0
   -3.6060    5.2955   -0.5585 H   0  0  0  0  0  0  0  0  0  0  0  0
   -4.1157    3.5851   -1.8033 C   0  0  0  0  0  0  0  0  0  0  0  0
   -5.0284    4.0502   -2.2054 H   0  0  0  0  0  0  0  0  0  0  0  0
   -3.7411    2.2974   -2.2176 C   0  0  0  0  0  0  0  0  0  0  0  0
   -4.3555    1.7485   -2.9471 H   0  0  0  0  0  0  0  0  0  0  0  0
   -2.5770    1.7046   -1.7062 C   0  0  0  0  0  0  0  0  0  0  0  0
   -2.2880    0.6971   -2.0429 H   0  0  0  0  0  0  0  0  0  0  0  0
  1 36  1  0  0  0  0
  1  3  1  0  0  0  0
  2  1  1  0  0  0  0
  3  4  1  0  0  0  0
  3 25  1  0  0  0  0
  4 12  1  0  0  0  0
  5  4  2  0  0  0  0
  5  6  1  0  0  0  0
  6  8  2  0  0  0  0
  7  6  1  0  0  0  0
  8 10  1  0  0  0  0
  8  9  1  0  0  0  0
 10 11  1  0  0  0  0
 12 13  1  0  0  0  0
 12 10  2  0  0  0  0
 14 23  1  0  0  0  0
 14  3  1  0  0  0  0
 15 14  2  0  0  0  0
 16 15  1  0  0  0  0
 17 19  2  0  0  0  0
 17 15  1  0  0  0  0
 18 17  1  0  0  0  0
 19 21  1  0  0  0  0
 20 19  1  0  0  0  0
 21 22  1  0  0  0  0
 21 23  2  0  0  0  0
 23 24  1  0  0  0  0
 25 34  1  0  0  0  0
 26 25  2  0  0  0  0
 26 28  1  0  0  0  0
 27 26  1  0  0  0  0
 28 30  2  0  0  0  0
 29 28  1  0  0  0  0
 30 32  1  0  0  0  0
 30 31  1  0  0  0  0
 32 33  1  0  0  0  0
 34 35  1  0  0  0  0
 34 32  2  0  0  0  0
 36 47  1  0  0  0  0
 37 36  1  0  0  0  0
 38 37  1  0  0  0  0
 39 38  2  0  0  0  0
 40 39  1  0  0  0  0
 41 43  2  0  0  0  0
 41 39  1  0  0  0  0
 42 41  1  0  0  0  0
 43 45  1  0  0  0  0
 44 43  1  0  0  0  0
 45 46  1  0  0  0  0
 45 37  2  0  0  0  0
 47 48  2  0  0  0  0
 47 56  1  0  0  0  0
 48 50  1  0  0  0  0
 49 48  1  0  0  0  0
 50 51  1  0  0  0  0
 50 52  2  0  0  0  0
 52 53  1  0  0  0  0
 54 55  1  0  0  0  0
 54 52  1  0  0  0  0
 56 54  2  0  0  0  0
 57 56  1  0  0  0  0
 58 59  1  0  0  0  0
 58 36  1  0  0  0  0
 59 60  1  0  0  0  0
 61 62  1  0  0  0  0
 61 59  2  0  0  0  0
 63 61  1  0  0  0  0
 64 63  1  0  0  0  0
 65 63  2  0  0  0  0
 65 67  1  0  0  0  0
 66 65  1  0  0  0  0
 67 58  2  0  0  0  0
 68 67  1  0  0  0  0
M  END
