28,39
q = -2.0, confidence = 0.788

 45 49  0  0  1  0  0  0  0  0999 V2000
    0.2816    1.7126    1.2730 C   0  0  0  0  0  0  0  0  0  0  0  0
   -0.8521    2.5276    1.5521 C   0  0  0  0  0  0  0  0  0  0  0  0
   -1.5843    2.2214    2.3120 H   0  0  0  0  0  0  0  0  0  0  0  0
   -1.0136    3.7202    0.8581 C   0  0  0  0  0  0  0  0  0  0  0  0
   -1.8856    4.3558    1.0736 H   0  0  0  0  0  0  0  0  0  0  0  0
   -0.0798    4.1383   -0.1308 C   0  0  0  0  0  0  0  0  0  0  0  0
   -0.2489    5.0845   -0.6653 H   0  0  0  0  0  0  0  0  0  0  0  0
    1.0379    3.3672   -0.4262 C   0  0  0  0  0  0  0  0  0  0  0  0
    1.7582    3.6879   -1.1931 H   0  0  0  0  0  0  0  0  0  0  0  0
    1.2327    2.1488    0.2676 C   0  0  0  0  0  0  0  0  0  0  0  0
    2.2919    1.1620    0.2132 C   0  0  0  0  0  0  0  0  0  0  0  0
    3.4868    1.0968   -0.5418 C   0  0  0  0  0  0  0  0  0  0  0  0
    3.7165    1.8784   -1.2807 H   0  0  0  0  0  0  0  0  0  0  0  0
    4.3535    0.0282   -0.3427 C   0  0  0  0  0  0  0  0  0  0  0  0
    5.2824   -0.0391   -0.9277 H   0  0  0  0  0  0  0  0  0  0  0  0
    4.0617   -0.9792    0.6184 C   0  0  0  0  0  0  0  0  0  0  0  0
    4.7786   -1.8008    0.7676 H   0  0  0  0  0  0  0  0  0  0  0  0
    2.8960   -0.9441    1.3748 C   0  0  0  0  0  0  0  0  0  0  0  0
    2.7007   -1.7143    2.1350 H   0  0  0  0  0  0  0  0  0  0  0  0
    1.9779    0.1292    1.1840 C   0  0  0  0  0  0  0  0  0  0  0  0
    0.6978    0.4240    1.7955 C   0  0  0  0  0  3  0  0  0  0  0  0
    0.0977   -0.3014    2.9756 C   0  0  0  0  0  0  0  0  0  0  0  0
   -0.7900    0.2641    3.3208 H   0  0  0  0  0  0  0  0  0  0  0  0
    0.8047   -0.2999    3.8346 H   0  0  0  0  0  0  0  0  0  0  0  0
   -0.3086   -1.7483    2.6182 C   0  0  0  0  0  0  0  0  0  0  0  0
    0.5744   -2.4160    2.6592 H   0  0  0  0  0  0  0  0  0  0  0  0
   -1.0251   -2.1481    3.3691 H   0  0  0  0  0  0  0  0  0  0  0  0
   -0.9014   -1.8073    1.2356 C   0  0  2  0  0  3  0  0  0  0  0  0
   -2.0763   -1.0811    0.7989 C   0  0  0  0  0  0  0  0  0  0  0  0
   -2.9843   -0.2140    1.4790 C   0  0  0  0  0  0  0  0  0  0  0  0
   -2.8393    0.0204    2.5432 H   0  0  0  0  0  0  0  0  0  0  0  0
   -4.0817    0.2826    0.7923 C   0  0  0  0  0  0  0  0  0  0  0  0
   -4.7970    0.9367    1.3132 H   0  0  0  0  0  0  0  0  0  0  0  0
   -4.3133   -0.0485   -0.5769 C   0  0  0  0  0  0  0  0  0  0  0  0
   -5.1962    0.3669   -1.0851 H   0  0  0  0  0  0  0  0  0  0  0  0
   -3.4510   -0.8806   -1.2705 C   0  0  0  0  0  0  0  0  0  0  0  0
   -3.6272   -1.1315   -2.3263 H   0  0  0  0  0  0  0  0  0  0  0  0
   -2.3189   -1.4166   -0.5930 C   0  0  0  0  0  0  0  0  0  0  0  0
   -1.2714   -2.3029   -1.0087 C   0  0  0  0  0  3  0  0  0  0  0  0
   -1.1556   -2.7424   -2.0061 H   0  0  0  0  0  0  0  0  0  0  0  0
   -0.4566   -2.6065    0.1294 C   0  0  2  0  0  3  0  0  0  0  0  0
    0.6485   -3.6213    0.1423 C   0  0  0  0  0  0  0  0  0  0  0  0
    0.2460   -4.6120    0.4432 H   0  0  0  0  0  0  0  0  0  0  0  0
    1.4569   -3.3597    0.8506 H   0  0  0  0  0  0  0  0  0  0  0  0
    1.1029   -3.7221   -0.8609 H   0  0  0  0  0  0  0  0  0  0  0  0
  1  2  1  0  0  0  0
  1 21  1  0  0  0  0
  2  3  1  0  0  0  0
  4  5  1  0  0  0  0
  4  2  2  0  0  0  0
  6  4  1  0  0  0  0
  7  6  1  0  0  0  0
  8  6  2  0  0  0  0
  8 10  1  0  0  0  0
  9  8  1  0  0  0  0
 10  1  2  0  0  0  0
 11 10  1  0  0  0  0
 11 20  1  0  0  0  0
 12 14  1  0  0  0  0
 12 11  2  0  0  0  0
 13 12  1  0  0  0  0
 14 16  2  0  0  0  0
 15 14  1  0  0  0  0
 16 17  1  0  0  0  0
 16 18  1  0  0  0  0
 18 19  1  0  0  0  0
 20 18  2  0  0  0  0
 20 21  1  0  0  0  0
 21 22  1  0  0  0  0
 22 23  1  0  0  0  0
 22 24  1  0  0  0  0
 25 26  1  0  0  0  0
 25 22  1  0  0  0  0
 25 27  1  0  0  0  0
 28 25  1  1  0  0  0
 29 28  1  0  0  0  0
 29 30  1  0  0  0  0
 30 31  1  0  0  0  0
 32 33  1  0  0  0  0
 32 30  2  0  0  0  0
 34 32  1  0  0  0  0
 35 34  1  0  0  0  0
 36 38  1  0  0  0  0
 36 34  2  0  0  0  0
 37 36  1  0  0  0  0
 38 29  2  0  0  0  0
 39 38  1  0  0  0  0
 39 41  1  0  0  0  0
 40 39  1  0  0  0  0
 41 42  1  1  0  0  0
 41 28  1  0  0  0  0
 42 43  1  0  0  0  0
 42 44  1  0  0  0  0
 45 42  1  0  0  0  0
M  END
