4,6,8
q = 0.0, confidence = 0.998

 16 16  0  0  0  0  0  0  0  0999 V2000
    3.3990    0.2958   -1.0327 O   0  0  0  0  0  0  0  0  0  0  0  0
    2.9804   -0.9530    0.8419 N   0  0  0  0  0  0  0  0  0  0  0  0
    1.3841    0.7646    0.1533 C   0  0  0  0  0  3  0  0  0  0  0  0
    0.7343    0.8520    1.4275 C   0  0  0  0  0  3  0  0  0  0  0  0
   -0.4946    1.5465    1.5743 C   0  0  0  0  0  3  0  0  0  0  0  0
   -1.1209    2.1099    0.4245 C   0  0  0  0  0  3  0  0  0  0  0  0
   -0.4857    2.0506   -0.8448 C   0  0  0  0  0  3  0  0  0  0  0  0
    0.7536    1.3647   -0.9738 C   0  0  0  0  0  3  0  0  0  0  0  0
    2.6724    0.0145   -0.0837 C   0  0  0  0  0  0  0  0  0  0  0  0
    1.1945    0.3789    2.3065 H   0  0  0  0  0  0  0  0  0  0  0  0
   -0.9933    1.5828    2.5519 H   0  0  0  0  0  0  0  0  0  0  0  0
   -2.1088    2.5821    0.5197 H   0  0  0  0  0  0  0  0  0  0  0  0
   -0.9818    2.4654   -1.7321 H   0  0  0  0  0  0  0  0  0  0  0  0
    1.2495    1.2574   -1.9490 H   0  0  0  0  0  0  0  0  0  0  0  0
    3.8023   -1.5191    0.6224 H   0  0  0  0  0  0  0  0  0  0  0  0
    2.2427   -1.4164    1.3755 H   0  0  0  0  0  0  0  0  0  0  0  0
  1  9  2  0  0  0  0
  2 16  1  0  0  0  0
  3  4  1  0  0  0  0
  4  5  1  0  0  0  0
  4 10  1  0  0  0  0
  5 11  1  0  0  0  0
  6 12  1  0  0  0  0
  6  5  1  0  0  0  0
  7  6  1  0  0  0  0
  8  7  1  0  0  0  0
  8  3  1  0  0  0  0
  9  3  1  0  0  0  0
  9  2  1  0  0  0  0
 13  7  1  0  0  0  0
 14  8  1  0  0  0  0
 15  2  1  0  0  0  0
M  END
