35,39,43
q = 0.0, confidence = 0.994

 44 46  0  0  1  0  0  0  0  0999 V2000
    3.7892   -0.8807    1.5099 O   0  0  0  0  0  0  0  0  0  0  0  0
    4.5406    1.5184    0.3811 O   0  0  0  0  0  0  0  0  0  0  0  0
    2.2220    2.1798   -1.1688 O   0  0  0  0  0  0  0  0  0  0  0  0
    0.1974    0.1702   -1.0660 O   0  0  0  0  0  0  0  0  0  0  0  0
    3.2259   -1.8159   -0.5772 O   0  0  0  0  0  0  0  0  0  0  0  0
   -0.3761   -2.1128   -1.0988 O   0  0  0  0  0  0  0  0  0  0  0  0
    4.0480   -0.8944    0.1370 C   0  0  1  0  0  0  0  0  0  0  0  0
    5.0825   -1.2622   -0.0648 H   0  0  0  0  0  0  0  0  0  0  0  0
    3.8635    0.5543   -0.3928 C   0  0  1  0  0  0  0  0  0  0  0  0
    4.2487    0.5582   -1.4436 H   0  0  0  0  0  0  0  0  0  0  0  0
    2.3827    0.9760   -0.4486 C   0  0  2  0  0  0  0  0  0  0  0  0
    2.0068    1.0781    0.5951 H   0  0  0  0  0  0  0  0  0  0  0  0
    1.5875   -0.1199   -1.1406 C   0  0  1  0  0  0  0  0  0  0  0  0
    1.9079   -0.1757   -2.2116 H   0  0  0  0  0  0  0  0  0  0  0  0
    1.8488   -1.4746   -0.4763 C   0  0  1  0  0  0  0  0  0  0  0  0
    1.5347   -1.4026    0.5893 H   0  0  0  0  0  0  0  0  0  0  0  0
    0.9854   -2.5289   -1.1622 C   0  0  0  0  0  0  0  0  0  0  0  0
    1.3195   -2.6559   -2.2212 H   0  0  0  0  0  0  0  0  0  0  0  0
    1.0504   -3.5085   -0.6511 H   0  0  0  0  0  0  0  0  0  0  0  0
   -0.5787   -0.8389   -1.6709 C   0  0  1  0  0  0  0  0  0  0  0  0
   -0.3019   -0.8920   -2.7617 H   0  0  0  0  0  0  0  0  0  0  0  0
    4.1216   -2.0926    2.1672 C   0  0  0  0  0  0  0  0  0  0  0  0
    3.8972   -1.9552    3.2415 H   0  0  0  0  0  0  0  0  0  0  0  0
    5.2051   -2.3319    2.0496 H   0  0  0  0  0  0  0  0  0  0  0  0
    3.5328   -2.9515    1.7769 H   0  0  0  0  0  0  0  0  0  0  0  0
    5.9458    1.4213    0.3579 C   0  0  0  0  0  0  0  0  0  0  0  0
    6.3467    2.3333    0.8413 H   0  0  0  0  0  0  0  0  0  0  0  0
    6.3449    1.3678   -0.6844 H   0  0  0  0  0  0  0  0  0  0  0  0
    6.3250    0.5377    0.9235 H   0  0  0  0  0  0  0  0  0  0  0  0
    2.0705    3.3340   -0.3586 C   0  0  0  0  0  0  0  0  0  0  0  0
    1.9161    4.1897   -1.0452 H   0  0  0  0  0  0  0  0  0  0  0  0
    2.9734    3.5259    0.2613 H   0  0  0  0  0  0  0  0  0  0  0  0
    1.1833    3.2483    0.3104 H   0  0  0  0  0  0  0  0  0  0  0  0
   -2.0297   -0.4527   -1.5004 C   0  0  0  0  0  3  0  0  0  0  0  0
   -2.4042    0.9201   -1.5843 C   0  0  0  0  0  3  0  0  0  0  0  0
   -1.6247    1.6656   -1.7933 H   0  0  0  0  0  0  0  0  0  0  0  0
   -3.7499    1.3234   -1.3495 C   0  0  0  0  0  3  0  0  0  0  0  0
   -4.0194    2.3873   -1.3801 H   0  0  0  0  0  0  0  0  0  0  0  0
   -4.7105    0.3497   -0.9638 C   0  0  0  0  0  3  0  0  0  0  0  0
   -5.7310    0.6651   -0.7039 H   0  0  0  0  0  0  0  0  0  0  0  0
   -4.3569   -1.0288   -0.8854 C   0  0  0  0  0  3  0  0  0  0  0  0
   -5.0958   -1.7728   -0.5601 H   0  0  0  0  0  0  0  0  0  0  0  0
   -3.0130   -1.4182   -1.1294 C   0  0  0  0  0  3  0  0  0  0  0  0
   -2.6980   -2.4614   -0.9976 H   0  0  0  0  0  0  0  0  0  0  0  0
  1 22  1  0  0  0  0
  3 11  1  0  0  0  0
  3 30  1  0  0  0  0
  5 15  1  0  0  0  0
  5  7  1  0  0  0  0
  7  8  1  6  0  0  0
  7  1  1  0  0  0  0
  9 10  1  6  0  0  0
  9  7  1  0  0  0  0
  9  2  1  0  0  0  0
 11  9  1  0  0  0  0
 11 12  1  1  0  0  0
 13 14  1  6  0  0  0
 13  4  1  0  0  0  0
 13 15  1  0  0  0  0
 13 11  1  0  0  0  0
 15 16  1  1  0  0  0
 17  6  1  0  0  0  0
 17 19  1  0  0  0  0
 17 15  1  0  0  0  0
 18 17  1  0  0  0  0
 20 21  1  6  0  0  0
 20 34  1  0  0  0  0
 20  6  1  0  0  0  0
 20  4  1  0  0  0  0
 22 23  1  0  0  0  0
 24 22  1  0  0  0  0
 25 22  1  0  0  0  0
 26  2  1  0  0  0  0
 26 27  1  0  0  0  0
 26 29  1  0  0  0  0
 28 26  1  0  0  0  0
 30 32  1  0  0  0  0
 30 33  1  0  0  0  0
 31 30  1  0  0  0  0
 34 43  1  0  0  0  0
 35 34  1  0  0  0  0
 35 37  1  0  0  0  0
 36 35  1  0  0  0  0
 37 39  1  0  0  0  0
 38 37  1  0  0  0  0
 39 41  1  0  0  0  0
 39 40  1  0  0  0  0
 41 42  1  0  0  0  0
 43 44  1  0  0  0  0
 43 41  1  0  0  0  0
M  END
