2,4,6
q = 0.0, confidence = 1.0

 24 25  0  0  1  0  0  0  0  0999 V2000
    0.8578   -1.6556    1.4267 Cl  0  0  0  0  0  0  0  0  0  0  0  0
   -0.0664   -1.1819    0.0227 C   0  0  2  0  0  3  0  0  0  0  0  0
    0.2480    0.0247   -0.6788 C   0  0  1  0  0  3  0  0  0  0  0  0
   -0.5961    0.3893   -1.7817 C   0  0  0  0  0  3  0  0  0  0  0  0
   -1.6403   -0.4581   -2.2341 C   0  0  0  0  0  3  0  0  0  0  0  0
   -1.9300   -1.6455   -1.5033 C   0  0  0  0  0  3  0  0  0  0  0  0
   -1.1367   -2.0302   -0.3876 C   0  0  0  0  0  3  0  0  0  0  0  0
    1.3376    1.0065   -0.2940 C   0  0  0  0  0  0  0  0  0  0  0  0
    2.7459    0.5168   -0.2073 C   0  0  0  0  0  0  0  0  0  0  0  0
    3.1548   -0.7176   -0.7559 C   0  0  0  0  0  0  0  0  0  0  0  0
    4.5018   -1.0984   -0.7047 C   0  0  0  0  0  0  0  0  0  0  0  0
    5.4466   -0.2572   -0.0941 C   0  0  0  0  0  0  0  0  0  0  0  0
    5.0461    0.9750    0.4527 C   0  0  0  0  0  0  0  0  0  0  0  0
    3.7048    1.3651    0.3875 C   0  0  0  0  0  0  0  0  0  0  0  0
    1.0565    2.1915   -0.1476 O   0  0  0  0  0  0  0  0  0  0  0  0
   -0.4025    1.3517   -2.2766 H   0  0  0  0  0  0  0  0  0  0  0  0
   -2.2770   -0.1524   -3.0743 H   0  0  0  0  0  0  0  0  0  0  0  0
   -2.7911   -2.2670   -1.7875 H   0  0  0  0  0  0  0  0  0  0  0  0
   -1.3702   -2.9282    0.1976 H   0  0  0  0  0  0  0  0  0  0  0  0
    2.4170   -1.3756   -1.2385 H   0  0  0  0  0  0  0  0  0  0  0  0
    4.8180   -2.0573   -1.1420 H   0  0  0  0  0  0  0  0  0  0  0  0
    6.5031   -0.5624   -0.0468 H   0  0  0  0  0  0  0  0  0  0  0  0
    5.7883    1.6337    0.9284 H   0  0  0  0  0  0  0  0  0  0  0  0
    3.3633    2.3296    0.7912 H   0  0  0  0  0  0  0  0  0  0  0  0
  2  1  1  1  0  0  0
  3  8  1  1  0  0  0
  3  2  1  0  0  0  0
  4  3  1  0  0  0  0
  5  4  1  0  0  0  0
  5  6  1  0  0  0  0
  6  7  1  0  0  0  0
  7  2  1  0  0  0  0
  7 19  1  0  0  0  0
  8  9  1  0  0  0  0
  8 15  2  0  0  0  0
  9 14  1  0  0  0  0
 10 11  1  0  0  0  0
 10  9  2  0  0  0  0
 11 12  2  0  0  0  0
 12 22  1  0  0  0  0
 12 13  1  0  0  0  0
 13 23  1  0  0  0  0
 14 13  2  0  0  0  0
 14 24  1  0  0  0  0
 16  4  1  0  0  0  0
 17  5  1  0  0  0  0
 18  6  1  0  0  0  0
 20 10  1  0  0  0  0
 21 11  1  0  0  0  0
M  END
