2,4,6
q = 0.0, confidence = 0.956

 30 33  0  0  1  0  0  0  0  0999 V2000
   -0.6582    1.4569   -1.2874 C   0  0  0  0  0  0  0  0  0  0  0  0
    0.1721    0.2035   -1.1854 C   0  0  1  0  0  3  0  0  0  0  0  0
    1.1948   -0.2781   -2.0580 C   0  0  0  0  0  3  0  0  0  0  0  0
    1.8563   -1.4912   -1.7369 C   0  0  0  0  0  3  0  0  0  0  0  0
    1.5008   -2.2318   -0.5637 C   0  0  0  0  0  3  0  0  0  0  0  0
    0.4919   -1.7433    0.3058 C   0  0  0  0  0  3  0  0  0  0  0  0
   -0.1824   -0.5279   -0.0171 C   0  0  1  0  0  3  0  0  0  0  0  0
   -1.2594    0.2010    0.7480 C   0  0  1  0  0  0  0  0  0  0  0  0
   -1.2541    1.6429    0.1354 C   0  0  2  0  0  0  0  0  0  0  0  0
   -2.6744   -0.2807    0.4601 C   0  0  0  0  0  0  0  0  0  0  0  0
   -3.1846   -1.5848    0.5072 C   0  0  0  0  0  0  0  0  0  0  0  0
   -4.5380   -1.7998    0.1945 C   0  0  0  0  0  0  0  0  0  0  0  0
   -5.3654   -0.7201   -0.1613 C   0  0  0  0  0  0  0  0  0  0  0  0
   -4.8523    0.5878   -0.2085 C   0  0  0  0  0  0  0  0  0  0  0  0
   -3.5028    0.8053    0.1042 C   0  0  0  0  0  0  0  0  0  0  0  0
   -2.7274    2.1043    0.1465 C   0  0  0  0  0  0  0  0  0  0  0  0
   -0.5944    2.3141    0.7184 H   0  0  0  0  0  0  0  0  0  0  0  0
   -2.9722    2.7892   -0.6918 H   0  0  0  0  0  0  0  0  0  0  0  0
   -2.9600    2.6572    1.0831 H   0  0  0  0  0  0  0  0  0  0  0  0
   -5.5032    1.4298   -0.4918 H   0  0  0  0  0  0  0  0  0  0  0  0
   -6.4224   -0.9014   -0.4092 H   0  0  0  0  0  0  0  0  0  0  0  0
   -4.9512   -2.8195    0.2231 H   0  0  0  0  0  0  0  0  0  0  0  0
   -2.5355   -2.4329    0.7758 H   0  0  0  0  0  0  0  0  0  0  0  0
   -1.0554    0.1956    1.8409 H   0  0  0  0  0  0  0  0  0  0  0  0
   -0.0742    2.3349   -1.6264 H   0  0  0  0  0  0  0  0  0  0  0  0
   -1.4685    1.2892   -2.0319 H   0  0  0  0  0  0  0  0  0  0  0  0
    1.5055    0.3076   -2.9342 H   0  0  0  0  0  0  0  0  0  0  0  0
    2.6815   -1.8452   -2.3704 H   0  0  0  0  0  0  0  0  0  0  0  0
    2.0561   -3.1434   -0.3047 H   0  0  0  0  0  0  0  0  0  0  0  0
    0.2639   -2.2759    1.2401 H   0  0  0  0  0  0  0  0  0  0  0  0
  1  2  1  0  0  0  0
  1  9  1  0  0  0  0
  2  3  1  1  0  0  0
  2  7  1  0  0  0  0
  3  4  1  0  0  0  0
  4  5  1  0  0  0  0
  5 29  1  0  0  0  0
  5  6  1  0  0  0  0
  6 30  1  0  0  0  0
  7  6  1  1  0  0  0
  7  8  1  0  0  0  0
  8 24  1  1  0  0  0
  9 16  1  0  0  0  0
  9 17  1  1  0  0  0
  9  8  1  0  0  0  0
 10 11  1  0  0  0  0
 10  8  1  0  0  0  0
 11 23  1  0  0  0  0
 12 22  1  0  0  0  0
 12 11  2  0  0  0  0
 13 12  1  0  0  0  0
 14 13  2  0  0  0  0
 14 15  1  0  0  0  0
 15 16  1  0  0  0  0
 15 10  2  0  0  0  0
 16 19  1  0  0  0  0
 18 16  1  0  0  0  0
 20 14  1  0  0  0  0
 21 13  1  0  0  0  0
 25  1  1  0  0  0  0
 26  1  1  0  0  0  0
 27  3  1  0  0  0  0
 28  4  1  0  0  0  0
M  END
