17,48,69
q = -1.0, confidence = 0.032

 69 73  0  0  0  0  0  0  0  0999 V2000
   -2.4743    2.2288   -1.6291 N   0  0  0  0  0  0  0  0  0  0  0  0
   -3.4006    0.4840   -0.7840 N   0  0  0  0  0  0  0  0  0  0  0  0
    2.4793    2.2252    1.6281 N   0  0  0  0  0  0  0  0  0  0  0  0
    3.4018    0.4782    0.7833 N   0  0  0  0  0  0  0  0  0  0  0  0
    0.0056    5.9951   -0.0014 C   0  0  0  0  0  0  0  0  0  0  0  0
    0.0065    7.0959   -0.0016 H   0  0  0  0  0  0  0  0  0  0  0  0
   -0.7109    5.2801   -0.9674 C   0  0  0  0  0  0  0  0  0  0  0  0
   -1.2834    5.8246   -1.7376 H   0  0  0  0  0  0  0  0  0  0  0  0
   -0.7034    3.8700   -0.9677 C   0  0  0  0  0  0  0  0  0  0  0  0
   -1.4625    3.1886   -2.0852 C   0  0  0  0  0  0  0  0  0  0  0  0
   -1.9851    3.9315   -2.7170 H   0  0  0  0  0  0  0  0  0  0  0  0
   -0.7503    2.6202   -2.7235 H   0  0  0  0  0  0  0  0  0  0  0  0
   -3.8126    2.2920   -1.9811 C   0  0  0  0  0  0  0  0  0  0  0  0
   -4.2260    3.1136   -2.5738 H   0  0  0  0  0  0  0  0  0  0  0  0
   -4.4078    1.1781   -1.4492 C   0  0  0  0  0  0  0  0  0  0  0  0
   -5.4392    0.8158   -1.4844 H   0  0  0  0  0  0  0  0  0  0  0  0
   -2.1884    1.1242   -0.8811 C   0  0  0  0  0  2  0  0  0  0  0  0
   -3.6131   -0.8289   -0.2396 C   0  0  0  0  0  0  0  0  0  0  0  0
   -3.3488   -1.9373   -1.0762 C   0  0  0  0  0  0  0  0  0  0  0  0
   -3.6228   -3.2193   -0.5678 C   0  0  0  0  0  0  0  0  0  0  0  0
   -3.4346   -4.0955   -1.2092 H   0  0  0  0  0  0  0  0  0  0  0  0
   -4.1330   -3.4111    0.7309 C   0  0  0  0  0  0  0  0  0  0  0  0
   -4.3914   -2.2769    1.5221 C   0  0  0  0  0  0  0  0  0  0  0  0
   -4.7999   -2.4073    2.5368 H   0  0  0  0  0  0  0  0  0  0  0  0
   -4.1513   -0.9695    1.0573 C   0  0  0  0  0  0  0  0  0  0  0  0
   -4.4476    0.2348    1.9074 C   0  0  0  0  0  0  0  0  0  0  0  0
   -3.5030    0.7637    2.1584 H   0  0  0  0  0  0  0  0  0  0  0  0
   -4.9432   -0.0578    2.8519 H   0  0  0  0  0  0  0  0  0  0  0  0
   -5.0994    0.9603    1.3794 H   0  0  0  0  0  0  0  0  0  0  0  0
   -2.8086   -1.7376   -2.4681 C   0  0  0  0  0  0  0  0  0  0  0  0
   -3.5327   -1.1857   -3.1039 H   0  0  0  0  0  0  0  0  0  0  0  0
   -2.5968   -2.7072   -2.9570 H   0  0  0  0  0  0  0  0  0  0  0  0
   -1.8787   -1.1314   -2.4640 H   0  0  0  0  0  0  0  0  0  0  0  0
   -4.3613   -4.8014    1.2690 C   0  0  0  0  0  0  0  0  0  0  0  0
   -4.6998   -5.4970    0.4756 H   0  0  0  0  0  0  0  0  0  0  0  0
   -5.1132   -4.8084    2.0819 H   0  0  0  0  0  0  0  0  0  0  0  0
   -3.4216   -5.2214    1.6892 H   0  0  0  0  0  0  0  0  0  0  0  0
    0.7211    5.2795    0.9650 C   0  0  0  0  0  0  0  0  0  0  0  0
    1.2946    5.8235    1.7348 H   0  0  0  0  0  0  0  0  0  0  0  0
    0.7115    3.8694    0.9660 C   0  0  0  0  0  0  0  0  0  0  0  0
    1.4697    3.1875    2.0838 C   0  0  0  0  0  0  0  0  0  0  0  0
    1.9943    3.9299    2.7146 H   0  0  0  0  0  0  0  0  0  0  0  0
    0.7566    2.6213    2.7231 H   0  0  0  0  0  0  0  0  0  0  0  0
    3.8178    2.2857    1.9798 C   0  0  0  0  0  0  0  0  0  0  0  0
    4.2330    3.1066    2.5721 H   0  0  0  0  0  0  0  0  0  0  0  0
    4.4106    1.1705    1.4480 C   0  0  0  0  0  0  0  0  0  0  0  0
    5.4413    0.8061    1.4830 H   0  0  0  0  0  0  0  0  0  0  0  0
    2.1909    1.1209    0.8806 C   0  0  0  0  0  2  0  0  0  0  0  0
    3.6117   -0.8349    0.2385 C   0  0  0  0  0  0  0  0  0  0  0  0
    3.3459   -1.9431    1.0749 C   0  0  0  0  0  0  0  0  0  0  0  0
    3.6173   -3.2254    0.5661 C   0  0  0  0  0  0  0  0  0  0  0  0
    3.4282   -4.1015    1.2073 H   0  0  0  0  0  0  0  0  0  0  0  0
    4.1264   -3.4177   -0.7330 C   0  0  0  0  0  0  0  0  0  0  0  0
    4.3864   -2.2838   -1.5241 C   0  0  0  0  0  0  0  0  0  0  0  0
    4.7942   -2.4146   -2.5390 H   0  0  0  0  0  0  0  0  0  0  0  0
    4.1491   -0.9760   -1.0586 C   0  0  0  0  0  0  0  0  0  0  0  0
    4.4471    0.2279   -1.9086 C   0  0  0  0  0  0  0  0  0  0  0  0
    3.5031    0.7577   -2.1600 H   0  0  0  0  0  0  0  0  0  0  0  0
    4.9427   -0.0652   -2.8530 H   0  0  0  0  0  0  0  0  0  0  0  0
    5.0994    0.9527   -1.3803 H   0  0  0  0  0  0  0  0  0  0  0  0
    2.8065   -1.7426    2.4670 C   0  0  0  0  0  0  0  0  0  0  0  0
    2.5956   -2.7119    2.9570 H   0  0  0  0  0  0  0  0  0  0  0  0
    1.8762   -1.1370    2.4628 H   0  0  0  0  0  0  0  0  0  0  0  0
    3.5305   -1.1896    3.1019 H   0  0  0  0  0  0  0  0  0  0  0  0
    4.3518   -4.8083   -1.2717 C   0  0  0  0  0  0  0  0  0  0  0  0
    3.4118   -5.2252   -1.6943 H   0  0  0  0  0  0  0  0  0  0  0  0
    4.6867   -5.5055   -0.4781 H   0  0  0  0  0  0  0  0  0  0  0  0
    5.1054   -4.8169   -2.0830 H   0  0  0  0  0  0  0  0  0  0  0  0
    0.0034    3.1019   -0.0006 C   0  0  0  0  0  3  0  0  0  0  0  0
  1 17  1  0  0  0  0
  2 18  1  0  0  0  0
  3 44  1  0  0  0  0
  3 41  1  0  0  0  0
  4 48  1  0  0  0  0
  4 46  1  0  0  0  0
  5 38  1  0  0  0  0
  6  5  1  0  0  0  0
  7  5  2  0  0  0  0
  8  7  1  0  0  0  0
  9  7  1  0  0  0  0
  9 69  2  0  0  0  0
 10  1  1  0  0  0  0
 10  9  1  0  0  0  0
 11 10  1  0  0  0  0
 12 10  1  0  0  0  0
 13  1  1  0  0  0  0
 13 15  2  0  0  0  0
 14 13  1  0  0  0  0
 15  2  1  0  0  0  0
 16 15  1  0  0  0  0
 17  2  1  0  0  0  0
 18 25  1  0  0  0  0
 19 20  1  0  0  0  0
 19 18  2  0  0  0  0
 20 22  2  0  0  0  0
 21 20  1  0  0  0  0
 22 34  1  0  0  0  0
 22 23  1  0  0  0  0
 23 24  1  0  0  0  0
 25 23  2  0  0  0  0
 25 26  1  0  0  0  0
 26 27  1  0  0  0  0
 26 28  1  0  0  0  0
 29 26  1  0  0  0  0
 30 33  1  0  0  0  0
 30 19  1  0  0  0  0
 31 30  1  0  0  0  0
 32 30  1  0  0  0  0
 34 37  1  0  0  0  0
 34 36  1  0  0  0  0
 35 34  1  0  0  0  0
 38 40  2  0  0  0  0
 38 39  1  0  0  0  0
 40 41  1  0  0  0  0
 41 42  1  0  0  0  0
 41 43  1  0  0  0  0
 44 45  1  0  0  0  0
 46 47  1  0  0  0  0
 46 44  2  0  0  0  0
 48  3  1  0  0  0  0
 49  4  1  0  0  0  0
 49 50  1  0  0  0  0
 50 61  1  0  0  0  0
 51 50  2  0  0  0  0
 51 52  1  0  0  0  0
 53 51  1  0  0  0  0
 54 56  1  0  0  0  0
 54 53  2  0  0  0  0
 55 54  1  0  0  0  0
 56 49  2  0  0  0  0
 57 60  1  0  0  0  0
 57 56  1  0  0  0  0
 58 57  1  0  0  0  0
 59 57  1  0  0  0  0
 61 62  1  0  0  0  0
 61 64  1  0  0  0  0
 63 61  1  0  0  0  0
 65 53  1  0  0  0  0
 65 67  1  0  0  0  0
 66 65  1  0  0  0  0
 68 65  1  0  0  0  0
 69 40  1  0  0  0  0
M  END
