5,25,45
q = -1.0, confidence = 0.012

 62 64  0  0  0  0  0  0  0  0999 V2000
    0.0460    0.3068    2.6024 B   0  0  0  0  0  0  0  0  0  0  0  0
    0.0562    0.3559    3.8251 H   0  0  0  0  0  0  0  0  0  0  0  0
    1.3741   -0.3194    2.0522 N   0  0  0  0  0  0  0  0  0  0  0  0
    2.9720   -0.7698    0.6290 N   0  0  0  0  0  0  0  0  0  0  0  0
    1.6969   -0.2800    0.7148 C   0  0  0  0  0  2  0  0  0  0  0  0
    2.4138   -0.8667    2.7778 C   0  0  0  0  0  0  0  0  0  0  0  0
    2.3625   -0.9979    3.8630 H   0  0  0  0  0  0  0  0  0  0  0  0
    3.4213   -1.1571    1.8937 C   0  0  0  0  0  0  0  0  0  0  0  0
    4.4096   -1.5905    2.0640 H   0  0  0  0  0  0  0  0  0  0  0  0
    3.8071   -0.9075   -0.6018 C   0  0  0  0  0  0  0  0  0  0  0  0
    3.2267   -0.0354   -1.7209 C   0  0  0  0  0  0  0  0  0  0  0  0
    3.2029    1.0296   -1.4156 H   0  0  0  0  0  0  0  0  0  0  0  0
    2.2023   -0.3579   -1.9853 H   0  0  0  0  0  0  0  0  0  0  0  0
    3.8717   -0.1300   -2.6167 H   0  0  0  0  0  0  0  0  0  0  0  0
    5.2341   -0.4227   -0.2830 C   0  0  0  0  0  0  0  0  0  0  0  0
    5.7484   -1.0693    0.4547 H   0  0  0  0  0  0  0  0  0  0  0  0
    5.2235    0.6148    0.1069 H   0  0  0  0  0  0  0  0  0  0  0  0
    5.8395   -0.4394   -1.2103 H   0  0  0  0  0  0  0  0  0  0  0  0
    3.8179   -2.3884   -1.0198 C   0  0  0  0  0  0  0  0  0  0  0  0
    4.2357   -3.0242   -0.2132 H   0  0  0  0  0  0  0  0  0  0  0  0
    4.4433   -2.5239   -1.9248 H   0  0  0  0  0  0  0  0  0  0  0  0
    2.7854   -2.7234   -1.2424 H   0  0  0  0  0  0  0  0  0  0  0  0
   -1.2255   -0.4510    2.0806 N   0  0  0  0  0  0  0  0  0  0  0  0
   -2.7939   -1.0786    0.6902 N   0  0  0  0  0  0  0  0  0  0  0  0
   -1.5776   -0.4538    0.7493 C   0  0  0  0  0  2  0  0  0  0  0  0
   -2.1861   -1.1031    2.8281 C   0  0  0  0  0  0  0  0  0  0  0  0
   -2.0993   -1.2230    3.9124 H   0  0  0  0  0  0  0  0  0  0  0  0
   -3.1735   -1.5050    1.9654 C   0  0  0  0  0  0  0  0  0  0  0  0
   -4.1053   -2.0422    2.1571 H   0  0  0  0  0  0  0  0  0  0  0  0
   -3.6332   -1.3227   -0.5217 C   0  0  0  0  0  0  0  0  0  0  0  0
   -3.5046   -2.8066   -0.9092 C   0  0  0  0  0  0  0  0  0  0  0  0
   -2.4482   -3.0421   -1.1465 H   0  0  0  0  0  0  0  0  0  0  0  0
   -4.1293   -3.0229   -1.7988 H   0  0  0  0  0  0  0  0  0  0  0  0
   -3.8424   -3.4635   -0.0823 H   0  0  0  0  0  0  0  0  0  0  0  0
   -5.0948   -0.9733   -0.1822 C   0  0  0  0  0  0  0  0  0  0  0  0
   -5.5269   -1.6468    0.5835 H   0  0  0  0  0  0  0  0  0  0  0  0
   -5.7149   -1.0742   -1.0942 H   0  0  0  0  0  0  0  0  0  0  0  0
   -5.1786    0.0704    0.1817 H   0  0  0  0  0  0  0  0  0  0  0  0
   -3.1656   -0.4262   -1.6735 C   0  0  0  0  0  0  0  0  0  0  0  0
   -2.1228   -0.6580   -1.9604 H   0  0  0  0  0  0  0  0  0  0  0  0
   -3.2340    0.6435   -1.3949 H   0  0  0  0  0  0  0  0  0  0  0  0
   -3.8221   -0.6020   -2.5484 H   0  0  0  0  0  0  0  0  0  0  0  0
   -0.0333    1.6978    1.9193 N   0  0  0  0  0  0  0  0  0  0  0  0
   -0.1408    2.9160    0.1049 N   0  0  0  0  0  0  0  0  0  0  0  0
   -0.0543    1.6308    0.5658 C   0  0  0  0  0  2  0  0  0  0  0  0
   -0.1188    3.0130    2.3328 C   0  0  0  0  0  0  0  0  0  0  0  0
   -0.1121    3.2995    3.3889 H   0  0  0  0  0  0  0  0  0  0  0  0
   -0.1925    3.7885    1.2005 C   0  0  0  0  0  0  0  0  0  0  0  0
   -0.2665    4.8723    1.0856 H   0  0  0  0  0  0  0  0  0  0  0  0
   -0.3517    3.3145   -1.3122 C   0  0  0  0  0  0  0  0  0  0  0  0
    0.1588    2.1966   -2.2294 C   0  0  0  0  0  0  0  0  0  0  0  0
    1.2506    2.0575   -2.1232 H   0  0  0  0  0  0  0  0  0  0  0  0
   -0.0652    2.4497   -3.2840 H   0  0  0  0  0  0  0  0  0  0  0  0
   -0.3341    1.2242   -1.9959 H   0  0  0  0  0  0  0  0  0  0  0  0
   -1.8611    3.5342   -1.5241 C   0  0  0  0  0  0  0  0  0  0  0  0
   -2.2466    4.3233   -0.8481 H   0  0  0  0  0  0  0  0  0  0  0  0
   -2.4142    2.5977   -1.3158 H   0  0  0  0  0  0  0  0  0  0  0  0
   -2.0670    3.8386   -2.5694 H   0  0  0  0  0  0  0  0  0  0  0  0
    0.4301    4.6072   -1.5971 C   0  0  0  0  0  0  0  0  0  0  0  0
    0.0411    5.4698   -1.0207 H   0  0  0  0  0  0  0  0  0  0  0  0
    0.3414    4.8626   -2.6710 H   0  0  0  0  0  0  0  0  0  0  0  0
    1.5042    4.4789   -1.3576 H   0  0  0  0  0  0  0  0  0  0  0  0
  1  2  1  0  0  0  0
  3  1  1  0  0  0  0
  3  6  1  0  0  0  0
  4  5  1  0  0  0  0
  4  8  1  0  0  0  0
  5  3  1  0  0  0  0
  6  7  1  0  0  0  0
  8  9  1  0  0  0  0
  8  6  2  0  0  0  0
 10 15  1  0  0  0  0
 10  4  1  0  0  0  0
 11 12  1  0  0  0  0
 11 10  1  0  0  0  0
 13 11  1  0  0  0  0
 14 11  1  0  0  0  0
 15 17  1  0  0  0  0
 15 16  1  0  0  0  0
 18 15  1  0  0  0  0
 19 10  1  0  0  0  0
 19 20  1  0  0  0  0
 21 19  1  0  0  0  0
 22 19  1  0  0  0  0
 23  1  1  0  0  0  0
 23 26  1  0  0  0  0
 24 25  1  0  0  0  0
 24 28  1  0  0  0  0
 25 23  1  0  0  0  0
 26 27  1  0  0  0  0
 28 29  1  0  0  0  0
 28 26  2  0  0  0  0
 30 35  1  0  0  0  0
 30 24  1  0  0  0  0
 31 30  1  0  0  0  0
 31 34  1  0  0  0  0
 32 31  1  0  0  0  0
 33 31  1  0  0  0  0
 35 38  1  0  0  0  0
 35 36  1  0  0  0  0
 37 35  1  0  0  0  0
 39 41  1  0  0  0  0
 39 30  1  0  0  0  0
 40 39  1  0  0  0  0
 42 39  1  0  0  0  0
 43 46  1  0  0  0  0
 43  1  1  0  0  0  0
 44 45  1  0  0  0  0
 44 48  1  0  0  0  0
 45 43  1  0  0  0  0
 46 47  1  0  0  0  0
 48 46  2  0  0  0  0
 49 48  1  0  0  0  0
 50 44  1  0  0  0  0
 51 52  1  0  0  0  0
 51 54  1  0  0  0  0
 51 50  1  0  0  0  0
 53 51  1  0  0  0  0
 55 57  1  0  0  0  0
 55 50  1  0  0  0  0
 55 56  1  0  0  0  0
 58 55  1  0  0  0  0
 59 62  1  0  0  0  0
 59 50  1  0  0  0  0
 59 60  1  0  0  0  0
 61 59  1  0  0  0  0
M  END
