5,6,7
q = 0.0, confidence = 0.958

 59 59  0  0  1  0  0  0  0  0999 V2000
   -1.0135   -1.5504    0.0446 P   0  0  1  0  0  4  0  0  0  0  0  0
   -0.6441   -2.9191    0.0952 H   0  0  0  0  0  0  0  0  0  0  0  0
   -0.2384    1.0201    1.5859 P   0  0  0  0  0  2  0  0  0  0  0  0
   -0.2501    0.9097   -1.6671 P   0  0  0  0  0  2  0  0  0  0  0  0
   -0.2464   -0.8607   -1.3921 C   0  0  2  0  0  3  0  0  0  0  0  0
   -0.2537   -0.7634    1.4349 C   0  0  1  0  0  3  0  0  0  0  0  0
   -0.3801    1.6866   -0.0679 C   0  0  2  0  0  3  0  0  0  0  0  0
   -0.1164   -1.7181   -2.6900 C   0  0  0  0  0  0  0  0  0  0  0  0
   -1.4170   -1.5948   -3.5182 C   0  0  0  0  0  0  0  0  0  0  0  0
   -1.3549   -2.2033   -4.4441 H   0  0  0  0  0  0  0  0  0  0  0  0
   -1.6007   -0.5409   -3.8103 H   0  0  0  0  0  0  0  0  0  0  0  0
   -2.2994   -1.9453   -2.9439 H   0  0  0  0  0  0  0  0  0  0  0  0
    1.0692   -1.2130   -3.5368 C   0  0  0  0  0  0  0  0  0  0  0  0
    2.0234   -1.3473   -2.9914 H   0  0  0  0  0  0  0  0  0  0  0  0
    0.9736   -0.1373   -3.7864 H   0  0  0  0  0  0  0  0  0  0  0  0
    1.1207   -1.7780   -4.4896 H   0  0  0  0  0  0  0  0  0  0  0  0
    0.1362   -3.2057   -2.3763 C   0  0  0  0  0  0  0  0  0  0  0  0
    0.3472   -3.7506   -3.3184 H   0  0  0  0  0  0  0  0  0  0  0  0
   -0.7434   -3.7008   -1.9149 H   0  0  0  0  0  0  0  0  0  0  0  0
    1.0085   -3.3380   -1.7060 H   0  0  0  0  0  0  0  0  0  0  0  0
   -0.1275   -1.5311    2.7883 C   0  0  0  0  0  0  0  0  0  0  0  0
    1.0609   -0.9767    3.5999 C   0  0  0  0  0  0  0  0  0  0  0  0
    1.1065   -1.4744    4.5898 H   0  0  0  0  0  0  0  0  0  0  0  0
    0.9726    0.1144    3.7742 H   0  0  0  0  0  0  0  0  0  0  0  0
    2.0154   -1.1555    3.0680 H   0  0  0  0  0  0  0  0  0  0  0  0
   -1.4276   -1.3425    3.6049 C   0  0  0  0  0  0  0  0  0  0  0  0
   -2.3120   -1.7252    3.0549 H   0  0  0  0  0  0  0  0  0  0  0  0
   -1.6040   -0.2698    3.8240 H   0  0  0  0  0  0  0  0  0  0  0  0
   -1.3700   -1.8867    4.5702 H   0  0  0  0  0  0  0  0  0  0  0  0
    0.1151   -3.0386    2.5782 C   0  0  0  0  0  0  0  0  0  0  0  0
    0.9862   -3.2236    1.9189 H   0  0  0  0  0  0  0  0  0  0  0  0
   -0.7686   -3.5580    2.1528 H   0  0  0  0  0  0  0  0  0  0  0  0
    0.3228   -3.5179    3.5560 H   0  0  0  0  0  0  0  0  0  0  0  0
   -0.4312    3.2480   -0.0879 C   0  0  0  0  0  0  0  0  0  0  0  0
   -0.2387    3.8272   -1.5027 C   0  0  0  0  0  0  0  0  0  0  0  0
   -1.0317    3.4970   -2.2034 H   0  0  0  0  0  0  0  0  0  0  0  0
    0.7412    3.5362   -1.9325 H   0  0  0  0  0  0  0  0  0  0  0  0
   -0.2729    4.9346   -1.4521 H   0  0  0  0  0  0  0  0  0  0  0  0
   -1.8293    3.6607    0.4280 C   0  0  0  0  0  0  0  0  0  0  0  0
   -1.9415    4.7645    0.4137 H   0  0  0  0  0  0  0  0  0  0  0  0
   -1.9879    3.3120    1.4693 H   0  0  0  0  0  0  0  0  0  0  0  0
   -2.6299    3.2224   -0.2027 H   0  0  0  0  0  0  0  0  0  0  0  0
    0.6622    3.8569    0.8163 C   0  0  0  0  0  0  0  0  0  0  0  0
    0.5880    4.9637    0.8104 H   0  0  0  0  0  0  0  0  0  0  0  0
    1.6682    3.5667    0.4534 H   0  0  0  0  0  0  0  0  0  0  0  0
    0.5714    3.5184    1.8678 H   0  0  0  0  0  0  0  0  0  0  0  0
   -2.8629   -1.6355    0.0453 C   0  0  0  0  0  0  0  0  0  0  0  0
   -3.1561   -2.2641   -0.8244 H   0  0  0  0  0  0  0  0  0  0  0  0
   -3.1558   -2.1940    0.9617 H   0  0  0  0  0  0  0  0  0  0  0  0
   -3.5248   -0.2575   -0.0079 C   0  0  0  0  0  0  0  0  0  0  0  0
   -3.1796    0.2782   -0.9194 H   0  0  0  0  0  0  0  0  0  0  0  0
   -3.1627    0.3555    0.8463 H   0  0  0  0  0  0  0  0  0  0  0  0
   -5.0556   -0.3071    0.0094 C   0  0  0  0  0  0  0  0  0  0  0  0
   -5.4129   -0.9205   -0.8474 H   0  0  0  0  0  0  0  0  0  0  0  0
   -5.3945   -0.8415    0.9246 H   0  0  0  0  0  0  0  0  0  0  0  0
   -5.6885    1.0837   -0.0457 C   0  0  0  0  0  0  0  0  0  0  0  0
   -5.3677    1.7053    0.8161 H   0  0  0  0  0  0  0  0  0  0  0  0
   -6.7954    1.0322   -0.0293 H   0  0  0  0  0  0  0  0  0  0  0  0
   -5.3911    1.6239   -0.9687 H   0  0  0  0  0  0  0  0  0  0  0  0
  1 47  1  0  0  0  0
  1  2  1  1  0  0  0
  1  6  1  0  0  0  0
  4  5  1  0  0  0  0
  4  7  1  0  0  0  0
  5  8  1  6  0  0  0
  5  1  1  0  0  0  0
  6  3  1  0  0  0  0
  6 21  1  1  0  0  0
  7 34  1  6  0  0  0
  7  3  1  0  0  0  0
  8 17  1  0  0  0  0
  9 12  1  0  0  0  0
  9  8  1  0  0  0  0
 10  9  1  0  0  0  0
 11  9  1  0  0  0  0
 13 14  1  0  0  0  0
 13  8  1  0  0  0  0
 15 13  1  0  0  0  0
 16 13  1  0  0  0  0
 17 19  1  0  0  0  0
 17 20  1  0  0  0  0
 18 17  1  0  0  0  0
 21 22  1  0  0  0  0
 21 26  1  0  0  0  0
 22 24  1  0  0  0  0
 22 23  1  0  0  0  0
 25 22  1  0  0  0  0
 26 28  1  0  0  0  0
 26 29  1  0  0  0  0
 27 26  1  0  0  0  0
 30 21  1  0  0  0  0
 30 33  1  0  0  0  0
 31 30  1  0  0  0  0
 32 30  1  0  0  0  0
 34 39  1  0  0  0  0
 34 43  1  0  0  0  0
 35 38  1  0  0  0  0
 35 34  1  0  0  0  0
 36 35  1  0  0  0  0
 37 35  1  0  0  0  0
 39 41  1  0  0  0  0
 40 39  1  0  0  0  0
 42 39  1  0  0  0  0
 43 46  1  0  0  0  0
 44 43  1  0  0  0  0
 45 43  1  0  0  0  0
 47 49  1  0  0  0  0
 48 47  1  0  0  0  0
 50 53  1  0  0  0  0
 50 47  1  0  0  0  0
 50 52  1  0  0  0  0
 51 50  1  0  0  0  0
 53 55  1  0  0  0  0
 54 53  1  0  0  0  0
 56 58  1  0  0  0  0
 56 53  1  0  0  0  0
 56 57  1  0  0  0  0
 59 56  1  0  0  0  0
M  END
