2,6,10
q = 0.0, confidence = 0.994

 60 61  0  0  0  0  0  0  0  0999 V2000
   -2.4093   -0.8690   -0.1157 Si  0  0  0  0  0  0  0  0  0  0  0  0
    2.3851    1.5738   -0.7160 C   0  0  0  0  0  3  0  0  0  0  0  0
    2.3211    2.5077   -0.1437 H   0  0  0  0  0  0  0  0  0  0  0  0
    3.5814    1.2475   -1.3982 C   0  0  0  0  0  3  0  0  0  0  0  0
    4.4483    1.9188   -1.3325 H   0  0  0  0  0  0  0  0  0  0  0  0
    3.6938   -0.0036   -2.0790 C   0  0  0  0  0  3  0  0  0  0  0  0
    4.6443   -0.2896   -2.5505 H   0  0  0  0  0  0  0  0  0  0  0  0
    2.5920   -0.8926   -2.1062 C   0  0  0  0  0  3  0  0  0  0  0  0
    2.6830   -1.8738   -2.5912 H   0  0  0  0  0  0  0  0  0  0  0  0
    1.3902   -0.5513   -1.4165 C   0  0  0  0  0  3  0  0  0  0  0  0
    0.5647   -1.2731   -1.3728 H   0  0  0  0  0  0  0  0  0  0  0  0
    1.2362    0.6995   -0.7435 C   0  0  0  0  0  3  0  0  0  0  0  0
   -0.0048    1.0217   -0.0016 C   0  0  0  0  0  0  0  0  0  0  0  0
   -0.4361    2.3139    0.1860 C   0  0  0  0  0  0  0  0  0  0  0  0
    0.1393    3.3966   -0.4519 O   0  0  0  0  0  0  0  0  0  0  0  0
   -1.5125    2.7069    1.1208 C   0  0  0  0  0  0  0  0  0  0  0  0
   -1.9036    1.8777    1.7234 H   0  0  0  0  0  0  0  0  0  0  0  0
   -2.5002    3.8081    0.7479 C   0  0  0  0  0  0  0  0  0  0  0  0
   -2.3701    4.2895   -0.2336 H   0  0  0  0  0  0  0  0  0  0  0  0
   -3.5473    3.6643    1.0568 H   0  0  0  0  0  0  0  0  0  0  0  0
   -1.4581    4.0730    1.7919 C   0  0  0  0  0  0  0  0  0  0  0  0
   -1.7591    4.1168    2.8495 H   0  0  0  0  0  0  0  0  0  0  0  0
   -0.6162    4.7230    1.5124 H   0  0  0  0  0  0  0  0  0  0  0  0
    0.0459    3.4420   -1.8737 C   0  0  0  0  0  0  0  0  0  0  0  0
    0.4370    4.4300   -2.1827 H   0  0  0  0  0  0  0  0  0  0  0  0
   -1.0099    3.3463   -2.2064 H   0  0  0  0  0  0  0  0  0  0  0  0
    0.6482    2.6485   -2.3663 H   0  0  0  0  0  0  0  0  0  0  0  0
   -0.7836   -0.1227    0.5834 C   0  0  0  0  0  0  0  0  0  0  0  0
   -0.0309   -1.2992    2.6621 O   0  0  0  0  0  0  0  0  0  0  0  0
   -0.3405   -0.7309    1.6798 C   0  0  0  0  0  0  0  0  0  0  0  0
   -3.4669   -1.3540    1.4157 C   0  0  0  0  0  0  0  0  0  0  0  0
   -2.7741   -1.9833    2.0220 H   0  0  0  0  0  0  0  0  0  0  0  0
   -3.8391   -0.1345    2.2749 C   0  0  0  0  0  0  0  0  0  0  0  0
   -4.4271   -0.4423    3.1662 H   0  0  0  0  0  0  0  0  0  0  0  0
   -4.4567    0.5987    1.7143 H   0  0  0  0  0  0  0  0  0  0  0  0
   -2.9405    0.3975    2.6458 H   0  0  0  0  0  0  0  0  0  0  0  0
   -1.9620   -2.4207   -1.1629 C   0  0  0  0  0  0  0  0  0  0  0  0
   -1.1903   -2.0392   -1.8717 H   0  0  0  0  0  0  0  0  0  0  0  0
   -4.6992   -2.2196    1.1037 C   0  0  0  0  0  0  0  0  0  0  0  0
   -5.2480   -2.4670    2.0381 H   0  0  0  0  0  0  0  0  0  0  0  0
   -4.4256   -3.1794    0.6236 H   0  0  0  0  0  0  0  0  0  0  0  0
   -5.4166   -1.7051    0.4328 H   0  0  0  0  0  0  0  0  0  0  0  0
   -3.1083   -2.9813   -2.0223 C   0  0  0  0  0  0  0  0  0  0  0  0
   -2.7485   -3.8212   -2.6555 H   0  0  0  0  0  0  0  0  0  0  0  0
   -3.5407   -2.2199   -2.7015 H   0  0  0  0  0  0  0  0  0  0  0  0
   -3.9378   -3.3780   -1.4036 H   0  0  0  0  0  0  0  0  0  0  0  0
   -1.3116   -3.5161   -0.3031 C   0  0  0  0  0  0  0  0  0  0  0  0
   -0.9736   -4.3690   -0.9305 H   0  0  0  0  0  0  0  0  0  0  0  0
   -2.0269   -3.9278    0.4396 H   0  0  0  0  0  0  0  0  0  0  0  0
   -0.4256   -3.1554    0.2575 H   0  0  0  0  0  0  0  0  0  0  0  0
   -3.1686    0.5059   -1.2194 C   0  0  0  0  0  0  0  0  0  0  0  0
   -2.9853    1.4415   -0.6479 H   0  0  0  0  0  0  0  0  0  0  0  0
   -2.4153    0.6211   -2.5557 C   0  0  0  0  0  0  0  0  0  0  0  0
   -2.7553    1.5126   -3.1273 H   0  0  0  0  0  0  0  0  0  0  0  0
   -2.5925   -0.2620   -3.2038 H   0  0  0  0  0  0  0  0  0  0  0  0
   -1.3199    0.7159   -2.4156 H   0  0  0  0  0  0  0  0  0  0  0  0
   -4.6852    0.3841   -1.4392 C   0  0  0  0  0  0  0  0  0  0  0  0
   -5.0565    1.2194   -2.0724 H   0  0  0  0  0  0  0  0  0  0  0  0
   -5.2513    0.4181   -0.4873 H   0  0  0  0  0  0  0  0  0  0  0  0
   -4.9610   -0.5588   -1.9552 H   0  0  0  0  0  0  0  0  0  0  0  0
  1 28  1  0  0  0  0
  1 31  1  0  0  0  0
  2  3  1  0  0  0  0
  4  5  1  0  0  0  0
  4  2  1  0  0  0  0
  6  4  1  0  0  0  0
  7  6  1  0  0  0  0
  8  6  1  0  0  0  0
  8 10  1  0  0  0  0
  9  8  1  0  0  0  0
 10 11  1  0  0  0  0
 10 12  1  0  0  0  0
 12  2  1  0  0  0  0
 12 13  1  0  0  0  0
 13 14  2  0  0  0  0
 13 28  1  0  0  0  0
 14 16  1  0  0  0  0
 15 14  1  0  0  0  0
 16 17  1  0  0  0  0
 16 21  1  0  0  0  0
 18 20  1  0  0  0  0
 18 16  1  0  0  0  0
 18 21  1  0  0  0  0
 19 18  1  0  0  0  0
 21 22  1  0  0  0  0
 23 21  1  0  0  0  0
 24 15  1  0  0  0  0
 25 24  1  0  0  0  0
 26 24  1  0  0  0  0
 27 24  1  0  0  0  0
 28 30  2  0  0  0  0
 30 29  2  0  0  0  0
 31 32  1  0  0  0  0
 31 33  1  0  0  0  0
 33 36  1  0  0  0  0
 33 34  1  0  0  0  0
 35 33  1  0  0  0  0
 37 47  1  0  0  0  0
 37  1  1  0  0  0  0
 38 37  1  0  0  0  0
 39 31  1  0  0  0  0
 39 40  1  0  0  0  0
 41 39  1  0  0  0  0
 42 39  1  0  0  0  0
 43 46  1  0  0  0  0
 43 37  1  0  0  0  0
 44 43  1  0  0  0  0
 45 43  1  0  0  0  0
 47 50  1  0  0  0  0
 47 49  1  0  0  0  0
 48 47  1  0  0  0  0
 51 52  1  0  0  0  0
 51  1  1  0  0  0  0
 53 56  1  0  0  0  0
 53 51  1  0  0  0  0
 54 53  1  0  0  0  0
 55 53  1  0  0  0  0
 57 51  1  0  0  0  0
 57 59  1  0  0  0  0
 58 57  1  0  0  0  0
 60 57  1  0  0  0  0
M  END
