2,12,18
q = -2.0, confidence = 0.874

 27 28  0  0  1  0  0  0  0  0999 V2000
    3.6438   -0.0000   -0.6787 Si  0  0  0  0  0  0  0  0  0  0  0  0
    2.0587   -0.0001   -1.6865 C   0  0  2  0  0  3  0  0  0  0  0  0
    1.2268    1.1506   -1.9062 C   0  0  0  0  0  0  0  0  0  0  0  0
    1.5451    2.1974   -1.8131 H   0  0  0  0  0  0  0  0  0  0  0  0
   -0.0685    0.7089   -2.3076 C   0  0  0  0  0  0  0  0  0  0  0  0
   -0.9283    1.3422   -2.5555 H   0  0  0  0  0  0  0  0  0  0  0  0
   -0.0685   -0.7093   -2.3075 C   0  0  0  0  0  0  0  0  0  0  0  0
   -0.9283   -1.3426   -2.5553 H   0  0  0  0  0  0  0  0  0  0  0  0
    1.2268   -1.1509   -1.9060 C   0  0  0  0  0  0  0  0  0  0  0  0
    1.5452   -2.1977   -1.8128 H   0  0  0  0  0  0  0  0  0  0  0  0
    2.7709   -0.0001    0.9880 C   0  0  1  0  0  3  0  0  0  0  0  0
    2.1430    1.1479    1.5760 C   0  0  0  0  0  3  0  0  0  0  0  0
    2.3868    2.1922    1.3435 H   0  0  0  0  0  0  0  0  0  0  0  0
    1.1878    0.7073    2.5419 C   0  0  0  0  0  0  0  0  0  0  0  0
    0.5519    1.3419    3.1661 H   0  0  0  0  0  0  0  0  0  0  0  0
    1.1878   -0.7076    2.5419 C   0  0  0  0  0  0  0  0  0  0  0  0
    0.5519   -1.3421    3.1661 H   0  0  0  0  0  0  0  0  0  0  0  0
    2.1430   -1.1480    1.5759 C   0  0  0  0  0  3  0  0  0  0  0  0
    2.3868   -2.1923    1.3433 H   0  0  0  0  0  0  0  0  0  0  0  0
    4.6524   -1.5683   -0.9452 C   0  0  0  0  0  0  0  0  0  0  0  0
    5.5101   -1.6108   -0.2436 H   0  0  0  0  0  0  0  0  0  0  0  0
    5.0479   -1.6092   -1.9803 H   0  0  0  0  0  0  0  0  0  0  0  0
    4.0351   -2.4747   -0.7827 H   0  0  0  0  0  0  0  0  0  0  0  0
    4.6523    1.5683   -0.9452 C   0  0  0  0  0  0  0  0  0  0  0  0
    5.5100    1.6109   -0.2436 H   0  0  0  0  0  0  0  0  0  0  0  0
    4.0349    2.4747   -0.7827 H   0  0  0  0  0  0  0  0  0  0  0  0
    5.0478    1.6093   -1.9804 H   0  0  0  0  0  0  0  0  0  0  0  0
  2  1  1  1  0  0  0
  3  4  1  0  0  0  0
  3  2  1  0  0  0  0
  5  7  1  0  0  0  0
  5  3  2  0  0  0  0
  6  5  1  0  0  0  0
  7  9  2  0  0  0  0
  8  7  1  0  0  0  0
  9 10  1  0  0  0  0
  9  2  1  0  0  0  0
 11  1  1  6  0  0  0
 11 18  1  0  0  0  0
 11 12  1  0  0  0  0
 12 14  1  0  0  0  0
 13 12  1  0  0  0  0
 14 15  1  0  0  0  0
 16 14  2  0  0  0  0
 16 17  1  0  0  0  0
 18 16  1  0  0  0  0
 19 18  1  0  0  0  0
 20 23  1  0  0  0  0
 20  1  1  0  0  0  0
 20 21  1  0  0  0  0
 22 20  1  0  0  0  0
 24 26  1  0  0  0  0
 24  1  1  0  0  0  0
 24 25  1  0  0  0  0
 27 24  1  0  0  0  0
M  END
