9,12,16
q = 0.0, confidence = 0.998

 18 19  0  0  1  0  0  0  0  0999 V2000
   -3.4534   -0.4731    0.8190 F   0  0  0  0  0  0  0  0  0  0  0  0
   -2.3490   -2.1126   -0.1075 F   0  0  0  0  0  0  0  0  0  0  0  0
   -2.5866   -0.2124   -1.1666 F   0  0  0  0  0  0  0  0  0  0  0  0
   -1.6229    2.8546   -1.0447 O   0  0  0  0  0  0  0  0  0  0  0  0
   -0.8373    2.3936   -0.2579 C   0  0  0  0  0  0  0  0  0  0  0  0
    0.4518    2.9475    0.4633 C   0  0  0  0  0  0  0  0  0  0  0  0
    1.2924    3.2418   -0.1954 H   0  0  0  0  0  0  0  0  0  0  0  0
    0.2230    3.7780    1.1636 H   0  0  0  0  0  0  0  0  0  0  0  0
    0.5185    1.5740    1.1188 C   0  0  2  0  0  3  0  0  0  0  0  0
    1.3016    0.7722    1.9788 C   0  0  0  0  0  3  0  0  0  0  0  0
    2.2480    1.1112    2.4195 H   0  0  0  0  0  0  0  0  0  0  0  0
    0.8232   -0.5587    2.1980 C   0  0  0  0  0  3  0  0  0  0  0  0
    1.4173   -1.2432    2.8203 H   0  0  0  0  0  0  0  0  0  0  0  0
   -0.3821   -1.0529    1.6087 C   0  0  0  0  0  3  0  0  0  0  0  0
   -0.6811   -2.0968    1.7712 H   0  0  0  0  0  0  0  0  0  0  0  0
   -1.1211   -0.2485    0.6885 C   0  0  2  0  0  3  0  0  0  0  0  0
   -0.6845    1.0968    0.5058 C   0  0  2  0  0  3  0  0  0  0  0  0
   -2.3863   -0.7693    0.0397 C   0  0  0  0  0  0  0  0  0  0  0  0
  2 18  1  0  0  0  0
  3 18  1  0  0  0  0
  4  5  2  0  0  0  0
  5  6  1  0  0  0  0
  6  9  1  0  0  0  0
  6  8  1  0  0  0  0
  7  6  1  0  0  0  0
  9 10  1  6  0  0  0
 10 12  1  0  0  0  0
 10 11  1  0  0  0  0
 12 13  1  0  0  0  0
 14 15  1  0  0  0  0
 14 12  1  0  0  0  0
 16 18  1  1  0  0  0
 16 14  1  0  0  0  0
 17  5  1  6  0  0  0
 17 16  1  0  0  0  0
 17  9  1  0  0  0  0
 18  1  1  0  0  0  0
M  END
