2,42
q = -2.0, confidence = 0.726

 50 52  0  0  1  0  0  0  0  0999 V2000
    0.4667    2.4387   -1.5908 N   0  0  0  0  0  0  0  0  0  0  0  0
    0.7357    1.3468   -0.8079 C   0  0  0  0  0  2  0  0  0  0  0  0
    2.0890    1.4170   -0.5506 N   0  0  0  0  0  0  0  0  0  0  0  0
   -0.8528    2.8329   -2.0571 C   0  0  0  0  0  0  0  0  0  0  0  0
   -1.5538    1.9942   -1.8759 H   0  0  0  0  0  0  0  0  0  0  0  0
   -0.8199    3.0498   -3.1422 H   0  0  0  0  0  0  0  0  0  0  0  0
   -1.1997    3.7354   -1.5134 H   0  0  0  0  0  0  0  0  0  0  0  0
    1.6262    3.1716   -1.8189 C   0  0  0  0  0  0  0  0  0  0  0  0
    1.6295    4.0772   -2.4325 H   0  0  0  0  0  0  0  0  0  0  0  0
    2.6471    2.5298   -1.1679 C   0  0  0  0  0  0  0  0  0  0  0  0
    3.7095    2.7756   -1.1197 H   0  0  0  0  0  0  0  0  0  0  0  0
    2.7771    0.3824    0.2841 C   0  0  2  0  0  0  0  0  0  0  0  0
    2.2753    0.4932    1.7809 C   0  0  0  0  0  0  0  0  0  0  0  0
    2.8439   -0.2661    2.3546 H   0  0  0  0  0  0  0  0  0  0  0  0
    2.5934    1.4841    2.1677 H   0  0  0  0  0  0  0  0  0  0  0  0
    4.2793    0.6701    0.2872 C   0  0  0  0  0  0  0  0  0  0  0  0
    4.4904    1.6697    0.7149 H   0  0  0  0  0  0  0  0  0  0  0  0
    4.7156    0.6110   -0.7280 H   0  0  0  0  0  0  0  0  0  0  0  0
    4.7958   -0.0709    0.9241 H   0  0  0  0  0  0  0  0  0  0  0  0
   -1.3129   -0.7010    2.1891 C   0  0  0  0  0  0  0  0  0  0  0  0
   -1.5145    0.7532    2.0780 C   0  0  0  0  0  0  0  0  0  0  0  0
   -0.2304    1.3711    2.0073 C   0  0  0  0  0  0  0  0  0  0  0  0
    0.7926    0.3056    1.9916 C   0  0  1  0  0  3  0  0  0  0  0  0
    0.0905   -0.9667    2.2138 C   0  0  0  0  0  0  0  0  0  0  0  0
    0.7442   -2.2971    2.4194 C   0  0  0  0  0  0  0  0  0  0  0  0
    0.0959   -3.1228    2.0708 H   0  0  0  0  0  0  0  0  0  0  0  0
    0.9549   -2.4587    3.4985 H   0  0  0  0  0  0  0  0  0  0  0  0
    1.6985   -2.3764    1.8653 H   0  0  0  0  0  0  0  0  0  0  0  0
   -2.4273   -1.6881    2.3369 C   0  0  0  0  0  0  0  0  0  0  0  0
   -3.1817   -1.5480    1.5355 H   0  0  0  0  0  0  0  0  0  0  0  0
   -2.9415   -1.5688    3.3149 H   0  0  0  0  0  0  0  0  0  0  0  0
   -2.0596   -2.7291    2.2696 H   0  0  0  0  0  0  0  0  0  0  0  0
   -2.8549    1.4170    2.1021 C   0  0  0  0  0  0  0  0  0  0  0  0
   -3.5377    0.9440    1.3668 H   0  0  0  0  0  0  0  0  0  0  0  0
   -2.7824    2.4915    1.8473 H   0  0  0  0  0  0  0  0  0  0  0  0
   -3.3302    1.3375    3.1041 H   0  0  0  0  0  0  0  0  0  0  0  0
    0.0543    2.8425    1.9805 C   0  0  0  0  0  0  0  0  0  0  0  0
    0.2208    3.2239    3.0110 H   0  0  0  0  0  0  0  0  0  0  0  0
   -0.7901    3.4111    1.5462 H   0  0  0  0  0  0  0  0  0  0  0  0
    0.9601    3.0814    1.3904 H   0  0  0  0  0  0  0  0  0  0  0  0
    2.4207   -0.9821   -0.3413 C   0  0  0  0  0  0  0  0  0  0  0  0
    1.0505   -1.2822   -0.5908 C   0  0  0  0  0  3  0  0  0  0  0  0
    0.7296   -2.5274   -1.1699 C   0  0  0  0  0  0  0  0  0  0  0  0
   -0.3257   -2.7580   -1.3815 H   0  0  0  0  0  0  0  0  0  0  0  0
    1.7288   -3.4655   -1.4739 C   0  0  0  0  0  0  0  0  0  0  0  0
    1.4509   -4.4342   -1.9190 H   0  0  0  0  0  0  0  0  0  0  0  0
    3.0751   -3.1713   -1.2133 C   0  0  0  0  0  0  0  0  0  0  0  0
    3.8643   -3.9018   -1.4474 H   0  0  0  0  0  0  0  0  0  0  0  0
    3.4161   -1.9294   -0.6552 C   0  0  0  0  0  0  0  0  0  0  0  0
    4.4774   -1.7130   -0.4657 H   0  0  0  0  0  0  0  0  0  0  0  0
  1  2  1  0  0  0  0
  2  3  1  0  0  0  0
  3 12  1  0  0  0  0
  4  5  1  0  0  0  0
  4  1  1  0  0  0  0
  4  7  1  0  0  0  0
  6  4  1  0  0  0  0
  8  1  1  0  0  0  0
  8 10  2  0  0  0  0
  9  8  1  0  0  0  0
 10 11  1  0  0  0  0
 10  3  1  0  0  0  0
 12 16  1  6  0  0  0
 12 13  1  0  0  0  0
 13 15  1  0  0  0  0
 13 14  1  0  0  0  0
 16 17  1  0  0  0  0
 16 19  1  0  0  0  0
 18 16  1  0  0  0  0
 20 24  2  0  0  0  0
 20 29  1  0  0  0  0
 21 33  1  0  0  0  0
 21 20  1  0  0  0  0
 22 21  2  0  0  0  0
 23 13  1  6  0  0  0
 23 22  1  0  0  0  0
 23 24  1  0  0  0  0
 24 25  1  0  0  0  0
 25 27  1  0  0  0  0
 26 25  1  0  0  0  0
 28 25  1  0  0  0  0
 29 31  1  0  0  0  0
 30 29  1  0  0  0  0
 32 29  1  0  0  0  0
 33 36  1  0  0  0  0
 34 33  1  0  0  0  0
 35 33  1  0  0  0  0
 37 22  1  0  0  0  0
 37 38  1  0  0  0  0
 39 37  1  0  0  0  0
 40 37  1  0  0  0  0
 41 12  1  0  0  0  0
 42 41  1  0  0  0  0
 43 42  2  0  0  0  0
 44 43  1  0  0  0  0
 45 47  2  0  0  0  0
 45 43  1  0  0  0  0
 46 45  1  0  0  0  0
 47 49  1  0  0  0  0
 48 47  1  0  0  0  0
 49 50  1  0  0  0  0
 49 41  2  0  0  0  0
M  END
