1,38,42
q = -1.0, confidence = 0.0

 67 71  0  0  0  0  0  0  0  0999 V2000
   -1.9919   -0.1890   -0.0797 C   0  0  0  0  0  2  0  0  0  0  0  0
   -4.2612   -0.2382    0.0500 C   0  0  0  0  0  0  0  0  0  0  0  0
   -3.9095    0.2309   -1.2404 C   0  0  0  0  0  0  0  0  0  0  0  0
   -4.8890    0.5642   -2.1872 C   0  0  0  0  0  0  0  0  0  0  0  0
   -4.6230    0.9244   -3.1909 H   0  0  0  0  0  0  0  0  0  0  0  0
   -6.2301    0.4174   -1.8019 C   0  0  0  0  0  0  0  0  0  0  0  0
   -7.0251    0.6715   -2.5184 H   0  0  0  0  0  0  0  0  0  0  0  0
   -6.5808   -0.0511   -0.5161 C   0  0  0  0  0  0  0  0  0  0  0  0
   -7.6435   -0.1559   -0.2522 H   0  0  0  0  0  0  0  0  0  0  0  0
   -5.6026   -0.3867    0.4319 C   0  0  0  0  0  0  0  0  0  0  0  0
   -5.8778   -0.7510    1.4313 H   0  0  0  0  0  0  0  0  0  0  0  0
   -2.9937   -0.8669    2.1312 C   0  0  0  0  0  0  0  0  0  0  0  0
   -1.9984   -1.3297    2.2849 H   0  0  0  0  0  0  0  0  0  0  0  0
   -3.7469   -1.6649    2.2923 H   0  0  0  0  0  0  0  0  0  0  0  0
   -3.2495    0.3126    3.0793 C   0  0  0  0  0  0  0  0  0  0  0  0
   -3.3429   -0.1070    4.1051 H   0  0  0  0  0  0  0  0  0  0  0  0
   -4.2373    0.7638    2.8415 H   0  0  0  0  0  0  0  0  0  0  0  0
   -2.1695    1.4033    3.0718 C   0  0  0  0  0  0  0  0  0  0  0  0
   -2.5495    2.2677    3.6574 H   0  0  0  0  0  0  0  0  0  0  0  0
   -2.0278    1.7798    2.0343 H   0  0  0  0  0  0  0  0  0  0  0  0
   -3.0623   -0.4807    0.7226 N   0  0  0  0  0  0  0  0  0  0  0  0
   -2.5185    0.2419   -1.2682 N   0  0  0  0  0  0  0  0  0  0  0  0
   -0.8222    0.9496    3.6378 C   0  0  0  0  0  0  0  0  0  0  0  0
   -0.9337    0.5256    4.6580 H   0  0  0  0  0  0  0  0  0  0  0  0
   -0.1152    1.8013    3.7124 H   0  0  0  0  0  0  0  0  0  0  0  0
   -0.3455    0.1747    3.0002 H   0  0  0  0  0  0  0  0  0  0  0  0
   -1.6733    0.7826   -2.3356 C   0  0  0  0  0  0  0  0  0  0  0  0
   -2.3339    1.1548   -3.1404 H   0  0  0  0  0  0  0  0  0  0  0  0
   -1.0645   -0.0493   -2.7495 H   0  0  0  0  0  0  0  0  0  0  0  0
   -0.7804    1.8840   -1.8007 C   0  0  0  0  0  0  0  0  0  0  0  0
   -0.7830    3.1597   -2.3949 C   0  0  0  0  0  0  0  0  0  0  0  0
   -1.4287    3.3554   -3.2669 H   0  0  0  0  0  0  0  0  0  0  0  0
    0.0280    4.1825   -1.8821 C   0  0  0  0  0  0  0  0  0  0  0  0
    0.0244    5.1797   -2.3470 H   0  0  0  0  0  0  0  0  0  0  0  0
    0.8481    3.9210   -0.7748 C   0  0  0  0  0  0  0  0  0  0  0  0
    1.4971    4.7162   -0.3723 H   0  0  0  0  0  0  0  0  0  0  0  0
    0.8554    2.6466   -0.1777 C   0  0  0  0  0  0  0  0  0  0  0  0
    0.0339    1.6083   -0.6776 C   0  0  0  0  0  3  0  0  0  0  0  0
    1.7811    2.3472    0.9860 C   0  0  0  0  0  0  0  0  0  0  0  0
    2.4602    3.1955    1.1904 H   0  0  0  0  0  0  0  0  0  0  0  0
    1.2014    2.1410    1.9093 H   0  0  0  0  0  0  0  0  0  0  0  0
    2.0270   -0.0095    0.2924 C   0  0  0  0  0  2  0  0  0  0  0  0
    4.2802   -0.1718    0.0606 C   0  0  0  0  0  0  0  0  0  0  0  0
    3.9845    1.1214    0.5645 C   0  0  0  0  0  0  0  0  0  0  0  0
    5.0015    2.0490    0.8319 C   0  0  0  0  0  0  0  0  0  0  0  0
    4.7795    3.0509    1.2257 H   0  0  0  0  0  0  0  0  0  0  0  0
    6.3208    1.6472    0.5741 C   0  0  0  0  0  0  0  0  0  0  0  0
    7.1438    2.3503    0.7698 H   0  0  0  0  0  0  0  0  0  0  0  0
    6.6148    0.3611    0.0684 C   0  0  0  0  0  0  0  0  0  0  0  0
    7.6620    0.0835   -0.1216 H   0  0  0  0  0  0  0  0  0  0  0  0
    5.5996   -0.5700   -0.1974 C   0  0  0  0  0  0  0  0  0  0  0  0
    5.8293   -1.5687   -0.5941 H   0  0  0  0  0  0  0  0  0  0  0  0
    2.8671   -2.1266   -0.7191 C   0  0  0  0  0  0  0  0  0  0  0  0
    1.9864   -2.5851   -0.2259 H   0  0  0  0  0  0  0  0  0  0  0  0
    3.7485   -2.7572   -0.4842 H   0  0  0  0  0  0  0  0  0  0  0  0
    2.6580   -2.0007   -2.2326 C   0  0  0  0  0  0  0  0  0  0  0  0
    3.5970   -1.6455   -2.7097 H   0  0  0  0  0  0  0  0  0  0  0  0
    1.8958   -1.2086   -2.4048 H   0  0  0  0  0  0  0  0  0  0  0  0
    2.1871   -3.3099   -2.8806 C   0  0  0  0  0  0  0  0  0  0  0  0
    2.2991   -3.2194   -3.9824 H   0  0  0  0  0  0  0  0  0  0  0  0
    2.8701   -4.1365   -2.5803 H   0  0  0  0  0  0  0  0  0  0  0  0
    0.7395   -3.6792   -2.5426 C   0  0  0  0  0  0  0  0  0  0  0  0
    0.5706   -3.7874   -1.4516 H   0  0  0  0  0  0  0  0  0  0  0  0
    0.4423   -4.6306   -3.0280 H   0  0  0  0  0  0  0  0  0  0  0  0
    0.0402   -2.8903   -2.8923 H   0  0  0  0  0  0  0  0  0  0  0  0
    2.5987    1.1678    0.6899 N   0  0  0  0  0  0  0  0  0  0  0  0
    3.0572   -0.8266   -0.0812 N   0  0  0  0  0  0  0  0  0  0  0  0
  1 21  1  0  0  0  0
  2 10  1  0  0  0  0
  2 21  1  0  0  0  0
  3  2  2  0  0  0  0
  4  6  2  0  0  0  0
  4  3  1  0  0  0  0
  5  4  1  0  0  0  0
  6  8  1  0  0  0  0
  7  6  1  0  0  0  0
  8  9  1  0  0  0  0
  8 10  2  0  0  0  0
 10 11  1  0  0  0  0
 12 13  1  0  0  0  0
 12 14  1  0  0  0  0
 12 15  1  0  0  0  0
 15 16  1  0  0  0  0
 17 15  1  0  0  0  0
 18 15  1  0  0  0  0
 18 23  1  0  0  0  0
 18 19  1  0  0  0  0
 20 18  1  0  0  0  0
 21 12  1  0  0  0  0
 22  3  1  0  0  0  0
 22  1  1  0  0  0  0
 23 25  1  0  0  0  0
 23 24  1  0  0  0  0
 26 23  1  0  0  0  0
 27 30  1  0  0  0  0
 27 22  1  0  0  0  0
 28 27  1  0  0  0  0
 29 27  1  0  0  0  0
 30 38  1  0  0  0  0
 31 33  1  0  0  0  0
 31 30  2  0  0  0  0
 32 31  1  0  0  0  0
 33 35  2  0  0  0  0
 34 33  1  0  0  0  0
 35 36  1  0  0  0  0
 35 37  1  0  0  0  0
 37 39  1  0  0  0  0
 38 37  2  0  0  0  0
 39 40  1  0  0  0  0
 39 41  1  0  0  0  0
 42 66  1  0  0  0  0
 43 44  1  0  0  0  0
 44 66  1  0  0  0  0
 44 45  2  0  0  0  0
 45 46  1  0  0  0  0
 47 48  1  0  0  0  0
 47 45  1  0  0  0  0
 49 47  2  0  0  0  0
 50 49  1  0  0  0  0
 51 43  2  0  0  0  0
 51 49  1  0  0  0  0
 52 51  1  0  0  0  0
 53 55  1  0  0  0  0
 53 54  1  0  0  0  0
 53 67  1  0  0  0  0
 56 53  1  0  0  0  0
 57 56  1  0  0  0  0
 58 56  1  0  0  0  0
 59 61  1  0  0  0  0
 59 62  1  0  0  0  0
 59 56  1  0  0  0  0
 60 59  1  0  0  0  0
 62 63  1  0  0  0  0
 64 62  1  0  0  0  0
 65 62  1  0  0  0  0
 66 39  1  0  0  0  0
 67 43  1  0  0  0  0
 67 42  1  0  0  0  0
M  END
