32,34,36
q = 0.0, confidence = 0.996

 59 63  0  0  1  0  0  0  0  0999 V2000
   -0.0119   -1.6475   -2.4901 O   0  0  0  0  0  0  0  0  0  0  0  0
   -0.4155    0.4145   -1.5011 N   0  0  0  0  0  0  0  0  0  0  0  0
   -0.6124    0.8789   -0.1786 C   0  0  0  0  0  0  0  0  0  0  0  0
   -0.7892    1.1182   -2.7312 C   0  0  0  0  0  0  0  0  0  0  0  0
   -2.2395    1.2527   -2.8489 C   0  0  0  0  0  0  0  0  0  0  0  0
   -3.4661    1.1210   -2.7302 C   0  0  0  0  0  0  0  0  0  0  0  0
   -4.7289    0.7293   -2.4358 C   0  0  0  0  0  0  0  0  0  0  0  0
   -5.6341    0.0278   -1.9267 C   0  0  0  0  0  0  0  0  0  0  0  0
   -6.1373   -1.0000   -1.2123 C   0  0  0  0  0  3  0  0  0  0  0  0
   -6.0007   -2.0254   -0.5029 C   0  0  0  0  0  3  0  0  0  0  0  0
   -5.2568   -2.9606    0.1387 C   0  0  0  0  0  0  0  0  0  0  0  0
   -4.2549   -3.5615    0.5594 C   0  0  0  0  0  0  0  0  0  0  0  0
   -2.8299   -3.8080    0.7684 C   0  0  0  0  0  0  0  0  0  0  0  0
   -2.0618   -2.5823    0.2016 C   0  0  0  0  0  0  0  0  0  0  0  0
   -0.5382   -2.6751    0.2960 C   0  0  0  0  0  0  0  0  0  0  0  0
   -0.3018   -0.0927    0.7388 C   0  0  0  0  0  0  0  0  0  0  0  0
    0.1832   -1.3345   -0.0212 C   0  0  2  0  0  0  0  0  0  0  0  0
   -0.0803   -0.9291   -1.5013 C   0  0  0  0  0  0  0  0  0  0  0  0
   -1.1516    2.2354    0.0537 C   0  0  0  0  0  0  0  0  0  0  0  0
   -2.3857    2.3849    0.7222 C   0  0  0  0  0  0  0  0  0  0  0  0
   -2.9192    3.6604    0.9440 C   0  0  0  0  0  0  0  0  0  0  0  0
   -2.2285    4.8005    0.5018 C   0  0  0  0  0  0  0  0  0  0  0  0
   -0.9983    4.6600   -0.1594 C   0  0  0  0  0  0  0  0  0  0  0  0
   -0.4597    3.3853   -0.3845 C   0  0  0  0  0  0  0  0  0  0  0  0
   -0.3396    0.1000    2.2018 C   0  0  0  0  0  0  0  0  0  0  0  0
   -0.8336   -0.8882    3.0890 C   0  0  0  0  0  0  0  0  0  0  0  0
   -0.8563   -0.6728    4.4745 C   0  0  0  0  0  0  0  0  0  0  0  0
   -0.3883    0.5342    5.0146 C   0  0  0  0  0  0  0  0  0  0  0  0
    0.1096    1.5241    4.1513 C   0  0  0  0  0  0  0  0  0  0  0  0
    0.1390    1.3107    2.7683 C   0  0  0  0  0  0  0  0  0  0  0  0
    1.7005   -1.5641    0.1258 C   0  0  0  0  0  3  0  0  0  0  0  0
    2.4356   -2.2210   -0.9127 C   0  0  0  0  0  3  0  0  0  0  0  0
    3.8296   -2.4669   -0.7970 C   0  0  0  0  0  3  0  0  0  0  0  0
    4.5279   -2.0160    0.3572 C   0  0  0  0  0  3  0  0  0  0  0  0
    3.8221   -1.3805    1.4125 C   0  0  0  0  0  3  0  0  0  0  0  0
    2.4259   -1.1360    1.2791 C   0  0  0  0  0  3  0  0  0  0  0  0
   -0.2724    2.0984   -2.7751 H   0  0  0  0  0  0  0  0  0  0  0  0
   -0.3851    0.4979   -3.5600 H   0  0  0  0  0  0  0  0  0  0  0  0
   -2.9264    1.4871    1.0555 H   0  0  0  0  0  0  0  0  0  0  0  0
   -3.8855    3.7648    1.4600 H   0  0  0  0  0  0  0  0  0  0  0  0
   -2.6500    5.8023    0.6746 H   0  0  0  0  0  0  0  0  0  0  0  0
   -0.4468    5.5507   -0.4962 H   0  0  0  0  0  0  0  0  0  0  0  0
    0.5244    3.2805   -0.8641 H   0  0  0  0  0  0  0  0  0  0  0  0
   -2.5952   -3.9531    1.8473 H   0  0  0  0  0  0  0  0  0  0  0  0
   -2.5108   -4.7449    0.2592 H   0  0  0  0  0  0  0  0  0  0  0  0
   -2.4183   -1.6781    0.7378 H   0  0  0  0  0  0  0  0  0  0  0  0
   -2.3584   -2.4414   -0.8580 H   0  0  0  0  0  0  0  0  0  0  0  0
   -0.2162   -3.0124    1.3030 H   0  0  0  0  0  0  0  0  0  0  0  0
   -0.1576   -3.4295   -0.4244 H   0  0  0  0  0  0  0  0  0  0  0  0
   -1.2298   -1.8323    2.6951 H   0  0  0  0  0  0  0  0  0  0  0  0
   -1.2532   -1.4571    5.1370 H   0  0  0  0  0  0  0  0  0  0  0  0
   -0.4072    0.7012    6.1021 H   0  0  0  0  0  0  0  0  0  0  0  0
    0.4920    2.4722    4.5594 H   0  0  0  0  0  0  0  0  0  0  0  0
    0.5675    2.0769    2.1081 H   0  0  0  0  0  0  0  0  0  0  0  0
    1.9049   -2.5031   -1.8334 H   0  0  0  0  0  0  0  0  0  0  0  0
    4.3732   -2.9344   -1.6286 H   0  0  0  0  0  0  0  0  0  0  0  0
    5.6178   -2.1427    0.4243 H   0  0  0  0  0  0  0  0  0  0  0  0
    4.3578   -1.0065    2.2949 H   0  0  0  0  0  0  0  0  0  0  0  0
    1.9057   -0.5852    2.0722 H   0  0  0  0  0  0  0  0  0  0  0  0
  1 18  2  0  0  0  0
  2  3  1  0  0  0  0
  3 19  1  0  0  0  0
  3 16  2  0  0  0  0
  4  2  1  0  0  0  0
  5  4  1  0  0  0  0
  5  6  3  0  0  0  0
  6  7  1  0  0  0  0
  7  8  3  0  0  0  0
  8  9  1  0  0  0  0
  9 10  2  0  0  0  0
 10 11  1  0  0  0  0
 11 12  3  0  0  0  0
 12 13  1  0  0  0  0
 13 44  1  0  0  0  0
 14 15  1  0  0  0  0
 14 46  1  0  0  0  0
 14 13  1  0  0  0  0
 15 48  1  0  0  0  0
 16 25  1  0  0  0  0
 17 31  1  1  0  0  0
 17 15  1  0  0  0  0
 17 16  1  0  0  0  0
 18  2  1  0  0  0  0
 18 17  1  0  0  0  0
 19 20  1  0  0  0  0
 20 21  2  0  0  0  0
 20 39  1  0  0  0  0
 21 40  1  0  0  0  0
 22 41  1  0  0  0  0
 22 21  1  0  0  0  0
 23 22  2  0  0  0  0
 24 23  1  0  0  0  0
 24 19  2  0  0  0  0
 25 30  2  0  0  0  0
 25 26  1  0  0  0  0
 26 27  2  0  0  0  0
 27 28  1  0  0  0  0
 27 51  1  0  0  0  0
 28 52  1  0  0  0  0
 29 53  1  0  0  0  0
 29 28  2  0  0  0  0
 30 29  1  0  0  0  0
 31 36  1  0  0  0  0
 32 33  1  0  0  0  0
 32 31  1  0  0  0  0
 33 34  1  0  0  0  0
 34 57  1  0  0  0  0
 34 35  1  0  0  0  0
 35 58  1  0  0  0  0
 36 35  1  0  0  0  0
 36 59  1  0  0  0  0
 37  4  1  0  0  0  0
 38  4  1  0  0  0  0
 42 23  1  0  0  0  0
 43 24  1  0  0  0  0
 45 13  1  0  0  0  0
 47 14  1  0  0  0  0
 49 15  1  0  0  0  0
 50 26  1  0  0  0  0
 54 30  1  0  0  0  0
 55 32  1  0  0  0  0
 56 33  1  0  0  0  0
M  END
