3,7,11
q = 0.0, confidence = 0.992

 42 44  0  0  1  0  0  0  0  0999 V2000
   -2.8845    0.8020    1.7479 O   0  0  0  0  0  0  0  0  0  0  0  0
    0.4171   -0.7479   -0.2932 C   0  0  0  0  0  3  0  0  0  0  0  0
    0.8372   -1.9033    0.4481 C   0  0  0  0  0  3  0  0  0  0  0  0
    0.3430   -2.1286    1.4044 H   0  0  0  0  0  0  0  0  0  0  0  0
    1.8892   -2.7324   -0.0106 C   0  0  0  0  0  3  0  0  0  0  0  0
    2.2210   -3.5868    0.5944 H   0  0  0  0  0  0  0  0  0  0  0  0
    2.5748   -2.3974   -1.2192 C   0  0  0  0  0  3  0  0  0  0  0  0
    3.4337   -2.9997   -1.5468 H   0  0  0  0  0  0  0  0  0  0  0  0
    2.1749   -1.2661   -1.9704 C   0  0  0  0  0  3  0  0  0  0  0  0
    2.7236   -0.9822   -2.8784 H   0  0  0  0  0  0  0  0  0  0  0  0
    1.1083   -0.4401   -1.4955 C   0  0  0  0  0  3  0  0  0  0  0  0
    0.8401    0.4745   -2.0424 H   0  0  0  0  0  0  0  0  0  0  0  0
   -0.7261    0.1033    0.2432 C   0  0  2  0  0  0  0  0  0  0  0  0
   -0.5874    0.1669    1.3428 H   0  0  0  0  0  0  0  0  0  0  0  0
   -2.0772   -0.5575    0.0085 C   0  0  0  0  0  0  0  0  0  0  0  0
   -3.1760   -0.1411    0.8094 C   0  0  0  0  0  0  0  0  0  0  0  0
   -4.4539   -0.6885    0.6095 C   0  0  0  0  0  0  0  0  0  0  0  0
   -5.2992   -0.3627    1.2317 H   0  0  0  0  0  0  0  0  0  0  0  0
   -4.6759   -1.6630   -0.3887 C   0  0  0  0  0  0  0  0  0  0  0  0
   -3.5901   -2.0756   -1.1774 C   0  0  0  0  0  0  0  0  0  0  0  0
   -3.7416   -2.8346   -1.9599 H   0  0  0  0  0  0  0  0  0  0  0  0
   -2.3114   -1.5269   -0.9746 C   0  0  0  0  0  0  0  0  0  0  0  0
   -1.4721   -1.8638   -1.6014 H   0  0  0  0  0  0  0  0  0  0  0  0
   -3.9283    1.3104    2.5548 C   0  0  0  0  0  0  0  0  0  0  0  0
   -3.4701    2.0689    3.2159 H   0  0  0  0  0  0  0  0  0  0  0  0
   -4.3937    0.5163    3.1810 H   0  0  0  0  0  0  0  0  0  0  0  0
   -4.7221    1.7941    1.9431 H   0  0  0  0  0  0  0  0  0  0  0  0
   -6.0563   -2.2395   -0.5827 C   0  0  0  0  0  0  0  0  0  0  0  0
   -6.4030   -2.7716    0.3281 H   0  0  0  0  0  0  0  0  0  0  0  0
   -6.0827   -2.9584   -1.4241 H   0  0  0  0  0  0  0  0  0  0  0  0
   -6.8013   -1.4436   -0.7914 H   0  0  0  0  0  0  0  0  0  0  0  0
   -0.6740    1.5365   -0.2805 C   0  0  0  0  0  0  0  0  0  0  0  0
    0.1345    2.4856    0.3743 C   0  0  0  0  0  0  0  0  0  0  0  0
    0.6706    2.1977    1.2910 H   0  0  0  0  0  0  0  0  0  0  0  0
    0.2655    3.7853   -0.1341 C   0  0  0  0  0  0  0  0  0  0  0  0
    0.9084    4.5115    0.3857 H   0  0  0  0  0  0  0  0  0  0  0  0
   -0.4185    4.1576   -1.3029 C   0  0  0  0  0  0  0  0  0  0  0  0
   -0.3157    5.1778   -1.7029 H   0  0  0  0  0  0  0  0  0  0  0  0
   -1.2376    3.2229   -1.9544 C   0  0  0  0  0  0  0  0  0  0  0  0
   -1.7840    3.5086   -2.8665 H   0  0  0  0  0  0  0  0  0  0  0  0
   -1.3643    1.9200   -1.4459 C   0  0  0  0  0  0  0  0  0  0  0  0
   -2.0120    1.1894   -1.9548 H   0  0  0  0  0  0  0  0  0  0  0  0
  1 24  1  0  0  0  0
  2 13  1  0  0  0  0
  2  3  1  0  0  0  0
  3  4  1  0  0  0  0
  5  3  1  0  0  0  0
  5  6  1  0  0  0  0
  7  5  1  0  0  0  0
  8  7  1  0  0  0  0
  9 11  1  0  0  0  0
  9  7  1  0  0  0  0
 10  9  1  0  0  0  0
 11  2  1  0  0  0  0
 12 11  1  0  0  0  0
 13 14  1  1  0  0  0
 15 13  1  0  0  0  0
 15 16  1  0  0  0  0
 16  1  1  0  0  0  0
 17 16  2  0  0  0  0
 17 18  1  0  0  0  0
 19 17  1  0  0  0  0
 20 22  1  0  0  0  0
 20 19  2  0  0  0  0
 21 20  1  0  0  0  0
 22 15  2  0  0  0  0
 23 22  1  0  0  0  0
 24 26  1  0  0  0  0
 24 25  1  0  0  0  0
 27 24  1  0  0  0  0
 28 19  1  0  0  0  0
 28 29  1  0  0  0  0
 30 28  1  0  0  0  0
 31 28  1  0  0  0  0
 32 13  1  0  0  0  0
 32 33  1  0  0  0  0
 33 34  1  0  0  0  0
 35 33  2  0  0  0  0
 35 36  1  0  0  0  0
 37 35  1  0  0  0  0
 38 37  1  0  0  0  0
 39 41  1  0  0  0  0
 39 37  2  0  0  0  0
 40 39  1  0  0  0  0
 41 32  2  0  0  0  0
 42 41  1  0  0  0  0
M  END
