4,8,12
q = 0.0, confidence = 1.0

 33 34  0  0  1  0  0  0  0  0999 V2000
    3.4803   -1.4845   -0.4838 O   0  0  0  0  0  0  0  0  0  0  0  0
    5.1802   -1.7411    1.0117 O   0  0  0  0  0  0  0  0  0  0  0  0
   -1.2622   -1.5379    0.2602 C   0  0  0  0  0  3  0  0  0  0  0  0
   -2.1292   -1.5257    1.4024 C   0  0  0  0  0  3  0  0  0  0  0  0
   -1.6911   -1.3569    2.3954 H   0  0  0  0  0  0  0  0  0  0  0  0
   -3.5337   -1.7141    1.2626 C   0  0  0  0  0  3  0  0  0  0  0  0
   -4.1813   -1.6748    2.1484 H   0  0  0  0  0  0  0  0  0  0  0  0
   -4.0986   -1.8483   -0.0321 C   0  0  0  0  0  3  0  0  0  0  0  0
   -5.1892   -1.9227   -0.1465 H   0  0  0  0  0  0  0  0  0  0  0  0
   -3.2632   -1.8602   -1.1879 C   0  0  0  0  0  3  0  0  0  0  0  0
   -3.7052   -1.9357   -2.1902 H   0  0  0  0  0  0  0  0  0  0  0  0
   -1.8671   -1.6701   -1.0427 C   0  0  0  0  0  3  0  0  0  0  0  0
   -1.2215   -1.6140   -1.9296 H   0  0  0  0  0  0  0  0  0  0  0  0
    0.1377   -1.3045    0.3804 C   0  0  0  0  0  0  0  0  0  0  0  0
    1.3417   -1.0752    0.4352 C   0  0  0  0  0  0  0  0  0  0  0  0
    2.7448   -0.6860    0.5037 C   0  0  2  0  0  0  0  0  0  0  0  0
    3.1683   -0.9457    1.4983 H   0  0  0  0  0  0  0  0  0  0  0  0
    4.7015   -1.9392   -0.0899 C   0  0  0  0  0  0  0  0  0  0  0  0
    5.3690   -2.6906   -1.2153 C   0  0  0  0  0  0  0  0  0  0  0  0
    5.6780   -1.9691   -1.9988 H   0  0  0  0  0  0  0  0  0  0  0  0
    4.6629   -3.4011   -1.6856 H   0  0  0  0  0  0  0  0  0  0  0  0
    6.2594   -3.2177   -0.8317 H   0  0  0  0  0  0  0  0  0  0  0  0
    2.9804    0.7959    0.2412 C   0  0  0  0  0  0  0  0  0  0  0  0
    4.1209    1.4151    0.7912 C   0  0  0  0  0  0  0  0  0  0  0  0
    4.8088    0.8218    1.4127 H   0  0  0  0  0  0  0  0  0  0  0  0
    4.3776    2.7698    0.5356 C   0  0  0  0  0  0  0  0  0  0  0  0
    5.2686    3.2477    0.9709 H   0  0  0  0  0  0  0  0  0  0  0  0
    3.4977    3.5170   -0.2646 C   0  0  0  0  0  0  0  0  0  0  0  0
    3.6967    4.5824   -0.4566 H   0  0  0  0  0  0  0  0  0  0  0  0
    2.3598    2.9032   -0.8120 C   0  0  0  0  0  0  0  0  0  0  0  0
    1.6573    3.4798   -1.4326 H   0  0  0  0  0  0  0  0  0  0  0  0
    2.1031    1.5479   -0.5617 C   0  0  0  0  0  0  0  0  0  0  0  0
    1.2038    1.0761   -0.9831 H   0  0  0  0  0  0  0  0  0  0  0  0
  1 18  1  0  0  0  0
  1 16  1  0  0  0  0
  3 14  1  0  0  0  0
  3  4  1  0  0  0  0
  4  5  1  0  0  0  0
  6  4  1  0  0  0  0
  6  7  1  0  0  0  0
  8  6  1  0  0  0  0
  9  8  1  0  0  0  0
 10 12  1  0  0  0  0
 10  8  1  0  0  0  0
 11 10  1  0  0  0  0
 12  3  1  0  0  0  0
 13 12  1  0  0  0  0
 14 15  3  0  0  0  0
 15 16  1  0  0  0  0
 16 17  1  1  0  0  0
 18  2  2  0  0  0  0
 19 22  1  0  0  0  0
 19 18  1  0  0  0  0
 20 19  1  0  0  0  0
 21 19  1  0  0  0  0
 23 16  1  0  0  0  0
 23 24  1  0  0  0  0
 24 25  1  0  0  0  0
 26 24  2  0  0  0  0
 26 27  1  0  0  0  0
 28 26  1  0  0  0  0
 29 28  1  0  0  0  0
 30 32  1  0  0  0  0
 30 28  2  0  0  0  0
 31 30  1  0  0  0  0
 32 23  2  0  0  0  0
 33 32  1  0  0  0  0
M  END
