4,6,8
q = 0.0, confidence = 0.998

 29 30  0  0  1  0  0  0  0  0999 V2000
    1.5847   -1.3675    0.9146 O   0  0  0  0  0  0  0  0  0  0  0  0
    2.1164    0.6162   -0.0797 N   0  0  0  0  0  0  0  0  0  0  0  0
   -0.0720    0.3730    0.9915 C   0  0  0  0  0  3  0  0  0  0  0  0
   -0.9344   -0.4586    1.7731 C   0  0  0  0  0  3  0  0  0  0  0  0
   -2.2446   -0.0274    2.1142 C   0  0  0  0  0  3  0  0  0  0  0  0
   -2.7237    1.2146    1.6114 C   0  0  0  0  0  3  0  0  0  0  0  0
   -1.8783    2.0609    0.8380 C   0  0  0  0  0  3  0  0  0  0  0  0
   -0.5718    1.6215    0.5026 C   0  0  0  0  0  3  0  0  0  0  0  0
    1.2611   -0.0838    0.5770 C   0  0  0  0  0  0  0  0  0  0  0  0
    3.2721   -0.2541   -0.3292 C   0  0  2  0  0  0  0  0  0  0  0  0
    2.9531   -1.5474    0.4780 C   0  0  0  0  0  0  0  0  0  0  0  0
    4.6111    0.4120    0.0441 C   0  0  0  0  0  0  0  0  0  0  0  0
    5.7854   -0.5334   -0.2357 C   0  0  0  0  0  0  0  0  0  0  0  0
    4.7797    1.7487   -0.6830 C   0  0  0  0  0  0  0  0  0  0  0  0
   -0.5688   -1.4443    2.0904 H   0  0  0  0  0  0  0  0  0  0  0  0
   -2.9089   -0.6862    2.6886 H   0  0  0  0  0  0  0  0  0  0  0  0
   -3.7619    1.5169    1.8089 H   0  0  0  0  0  0  0  0  0  0  0  0
   -2.2636    3.0049    0.4309 H   0  0  0  0  0  0  0  0  0  0  0  0
    0.0838    2.2154   -0.1491 H   0  0  0  0  0  0  0  0  0  0  0  0
    3.3020   -0.4707   -1.4242 H   0  0  0  0  0  0  0  0  0  0  0  0
    3.0109   -2.4821   -0.1119 H   0  0  0  0  0  0  0  0  0  0  0  0
    3.5931   -1.6512    1.3819 H   0  0  0  0  0  0  0  0  0  0  0  0
    4.5680    0.6117    1.1400 H   0  0  0  0  0  0  0  0  0  0  0  0
    5.8420   -0.7808   -1.3173 H   0  0  0  0  0  0  0  0  0  0  0  0
    6.7482   -0.0635    0.0488 H   0  0  0  0  0  0  0  0  0  0  0  0
    5.7057   -1.4880    0.3243 H   0  0  0  0  0  0  0  0  0  0  0  0
    5.7089    2.2616   -0.3622 H   0  0  0  0  0  0  0  0  0  0  0  0
    4.8429    1.5934   -1.7812 H   0  0  0  0  0  0  0  0  0  0  0  0
    3.9174    2.4135   -0.4867 H   0  0  0  0  0  0  0  0  0  0  0  0
  2  9  2  0  0  0  0
  3  4  1  0  0  0  0
  4 15  1  0  0  0  0
  4  5  1  0  0  0  0
  5 16  1  0  0  0  0
  6 17  1  0  0  0  0
  6  5  1  0  0  0  0
  7  6  1  0  0  0  0
  8  7  1  0  0  0  0
  8  3  1  0  0  0  0
  9  1  1  0  0  0  0
  9  3  1  0  0  0  0
 10 20  1  6  0  0  0
 10  2  1  0  0  0  0
 10 12  1  0  0  0  0
 10 11  1  0  0  0  0
 11  1  1  0  0  0  0
 11 22  1  0  0  0  0
 12 23  1  0  0  0  0
 13 12  1  0  0  0  0
 13 25  1  0  0  0  0
 13 26  1  0  0  0  0
 14 29  1  0  0  0  0
 14 27  1  0  0  0  0
 14 12  1  0  0  0  0
 18  7  1  0  0  0  0
 19  8  1  0  0  0  0
 21 11  1  0  0  0  0
 24 13  1  0  0  0  0
 28 14  1  0  0  0  0
M  END
