2,5,8
q = 0.0, confidence = 0.998

 42 42  0  0  1  0  0  0  0  0999 V2000
   -0.2545   -1.4087   -0.9139 C   0  0  1  0  0  3  0  0  0  0  0  0
    1.0742   -0.9232   -0.9098 C   0  0  0  0  0  3  0  0  0  0  0  0
    1.8951   -1.6543   -0.8777 H   0  0  0  0  0  0  0  0  0  0  0  0
    1.3473    0.4839   -0.9136 C   0  0  2  0  0  3  0  0  0  0  0  0
    0.2625    1.3919   -0.9098 C   0  0  0  0  0  3  0  0  0  0  0  0
    0.4852    2.4683   -0.8778 H   0  0  0  0  0  0  0  0  0  0  0  0
   -1.0926    0.9248   -0.9137 C   0  0  2  0  0  3  0  0  0  0  0  0
   -1.3365   -0.4686   -0.9100 C   0  0  0  0  0  3  0  0  0  0  0  0
   -2.3801   -0.8140   -0.8781 H   0  0  0  0  0  0  0  0  0  0  0  0
   -0.5401   -2.9062   -0.9870 C   0  0  2  0  0  0  0  0  0  0  0  0
   -1.4018   -3.1205   -0.3078 H   0  0  0  0  0  0  0  0  0  0  0  0
    0.5705   -3.7021   -0.6228 O   0  0  0  0  0  0  0  0  0  0  0  0
    0.7584   -3.8781    0.7721 C   0  0  0  0  0  0  0  0  0  0  0  0
    1.5304   -4.6617    0.8973 H   0  0  0  0  0  0  0  0  0  0  0  0
   -0.1798   -4.2126    1.2720 H   0  0  0  0  0  0  0  0  0  0  0  0
    1.1026   -2.9496    1.2774 H   0  0  0  0  0  0  0  0  0  0  0  0
   -0.9173   -3.2914   -2.4194 C   0  0  0  0  0  0  0  0  0  0  0  0
   -1.1589   -4.3706   -2.4651 H   0  0  0  0  0  0  0  0  0  0  0  0
   -0.0650   -3.0927   -3.0990 H   0  0  0  0  0  0  0  0  0  0  0  0
   -1.7909   -2.7102   -2.7731 H   0  0  0  0  0  0  0  0  0  0  0  0
    2.7870    0.9853   -0.9865 C   0  0  2  0  0  0  0  0  0  0  0  0
    3.4034    0.3464   -0.3071 H   0  0  0  0  0  0  0  0  0  0  0  0
    2.9210    2.3452   -0.6228 O   0  0  0  0  0  0  0  0  0  0  0  0
    2.9800    2.5966    0.7719 C   0  0  0  0  0  0  0  0  0  0  0  0
    3.2739    3.6567    0.8965 H   0  0  0  0  0  0  0  0  0  0  0  0
    3.7380    1.9507    1.2721 H   0  0  0  0  0  0  0  0  0  0  0  0
    2.0036    2.4321    1.2776 H   0  0  0  0  0  0  0  0  0  0  0  0
    3.3093    0.8507   -2.4188 C   0  0  0  0  0  0  0  0  0  0  0  0
    4.3647    1.1813   -2.4646 H   0  0  0  0  0  0  0  0  0  0  0  0
    2.7110    1.4891   -3.0987 H   0  0  0  0  0  0  0  0  0  0  0  0
    3.2430   -0.1966   -2.7721 H   0  0  0  0  0  0  0  0  0  0  0  0
   -2.2468    1.9209   -0.9867 C   0  0  2  0  0  0  0  0  0  0  0  0
   -2.0017    2.7742   -0.3074 H   0  0  0  0  0  0  0  0  0  0  0  0
   -3.4915    1.3569   -0.6230 O   0  0  0  0  0  0  0  0  0  0  0  0
   -3.7386    1.2825    0.7718 C   0  0  0  0  0  0  0  0  0  0  0  0
   -4.8037    1.0072    0.8963 H   0  0  0  0  0  0  0  0  0  0  0  0
   -3.5580    2.2619    1.2718 H   0  0  0  0  0  0  0  0  0  0  0  0
   -3.1081    0.5190    1.2774 H   0  0  0  0  0  0  0  0  0  0  0  0
   -2.3913    2.4406   -2.4191 C   0  0  0  0  0  0  0  0  0  0  0  0
   -3.2054    3.1891   -2.4648 H   0  0  0  0  0  0  0  0  0  0  0  0
   -2.6449    1.6032   -3.0991 H   0  0  0  0  0  0  0  0  0  0  0  0
   -1.4513    2.9070   -2.7723 H   0  0  0  0  0  0  0  0  0  0  0  0
  1 10  1  6  0  0  0
  1  8  1  0  0  0  0
  1  2  1  0  0  0  0
  2  3  1  0  0  0  0
  4 21  1  6  0  0  0
  4  2  1  0  0  0  0
  4  5  1  0  0  0  0
  5  6  1  0  0  0  0
  7 32  1  6  0  0  0
  7  8  1  0  0  0  0
  7  5  1  0  0  0  0
  8  9  1  0  0  0  0
 10 12  1  0  0  0  0
 10 11  1  1  0  0  0
 12 13  1  0  0  0  0
 13 14  1  0  0  0  0
 13 15  1  0  0  0  0
 13 16  1  0  0  0  0
 17 10  1  0  0  0  0
 18 17  1  0  0  0  0
 19 17  1  0  0  0  0
 20 17  1  0  0  0  0
 21 23  1  0  0  0  0
 21 22  1  1  0  0  0
 23 24  1  0  0  0  0
 24 25  1  0  0  0  0
 24 26  1  0  0  0  0
 24 27  1  0  0  0  0
 28 21  1  0  0  0  0
 29 28  1  0  0  0  0
 30 28  1  0  0  0  0
 31 28  1  0  0  0  0
 32 34  1  0  0  0  0
 32 33  1  1  0  0  0
 34 35  1  0  0  0  0
 35 36  1  0  0  0  0
 35 37  1  0  0  0  0
 35 38  1  0  0  0  0
 39 32  1  0  0  0  0
 40 39  1  0  0  0  0
 41 39  1  0  0  0  0
 42 39  1  0  0  0  0
M  END
