10,13,17
q = -1.0

 37 39  0  0  0  0  0  0  0  0999 V2000
    2.6682    0.6852   -0.7951 N   0  0  0  0  0  0  0  0  0  0  0  0
    3.0335   -0.8362    0.6926 N   0  0  0  0  0  0  0  0  0  0  0  0
   -2.6683    0.6852    0.7950 N   0  0  0  0  0  0  0  0  0  0  0  0
   -3.0334   -0.8361   -0.6929 N   0  0  0  0  0  0  0  0  0  0  0  0
    0.9166    2.3996   -0.7927 C   0  0  0  0  0  0  0  0  0  0  0  0
    0.9151    3.8069   -0.7912 C   0  0  0  0  0  0  0  0  0  0  0  0
    0.0002    4.5160    0.0003 C   0  0  0  0  0  0  0  0  0  0  0  0
   -0.9149    3.8069    0.7916 C   0  0  0  0  0  0  0  0  0  0  0  0
   -0.9167    2.3995    0.7927 C   0  0  0  0  0  0  0  0  0  0  0  0
   -0.0001    1.6671   -0.0000 C   0  0  0  0  0  3  0  0  0  0  0  0
    1.9274    1.6387   -1.6266 C   0  0  0  0  0  0  0  0  0  0  0  0
   -1.9276    1.6387    1.6266 C   0  0  0  0  0  0  0  0  0  0  0  0
    2.0268   -0.2235   -0.0017 C   0  0  0  0  0  2  0  0  0  0  0  0
    4.0403    0.6497   -0.6090 C   0  0  0  0  0  0  0  0  0  0  0  0
    4.2722   -0.3177    0.3353 C   0  0  0  0  0  0  0  0  0  0  0  0
    2.8413   -1.8273    1.7424 C   0  0  0  0  0  0  0  0  0  0  0  0
   -2.0268   -0.2234    0.0017 C   0  0  0  0  0  2  0  0  0  0  0  0
   -4.0404    0.6498    0.6085 C   0  0  0  0  0  0  0  0  0  0  0  0
   -4.2721   -0.3176   -0.3358 C   0  0  0  0  0  0  0  0  0  0  0  0
   -2.8409   -1.8273   -1.7425 C   0  0  0  0  0  0  0  0  0  0  0  0
   -1.6407    4.3544    1.4156 H   0  0  0  0  0  0  0  0  0  0  0  0
    1.8874   -2.3575    1.5505 H   0  0  0  0  0  0  0  0  0  0  0  0
    3.6750   -2.5542    1.7176 H   0  0  0  0  0  0  0  0  0  0  0  0
    2.8122   -1.3363    2.7364 H   0  0  0  0  0  0  0  0  0  0  0  0
    5.2054   -0.6793    0.7771 H   0  0  0  0  0  0  0  0  0  0  0  0
   -2.8110   -1.3365   -2.7365 H   0  0  0  0  0  0  0  0  0  0  0  0
   -1.8873   -2.3580   -1.5501 H   0  0  0  0  0  0  0  0  0  0  0  0
   -3.6750   -2.5539   -1.7181 H   0  0  0  0  0  0  0  0  0  0  0  0
   -5.2052   -0.6791   -0.7778 H   0  0  0  0  0  0  0  0  0  0  0  0
   -4.7296    1.2941    1.1621 H   0  0  0  0  0  0  0  0  0  0  0  0
    0.0003    5.6163    0.0005 H   0  0  0  0  0  0  0  0  0  0  0  0
    1.6410    4.3545   -1.4151 H   0  0  0  0  0  0  0  0  0  0  0  0
    2.6604    2.3206   -2.0980 H   0  0  0  0  0  0  0  0  0  0  0  0
    1.4184    1.0676   -2.4314 H   0  0  0  0  0  0  0  0  0  0  0  0
   -2.6607    2.3207    2.0978 H   0  0  0  0  0  0  0  0  0  0  0  0
   -1.4188    1.0677    2.4315 H   0  0  0  0  0  0  0  0  0  0  0  0
    4.7295    1.2941   -1.1626 H   0  0  0  0  0  0  0  0  0  0  0  0
  1 14  1  0  0  0  0
  1 13  1  0  0  0  0
  2 16  1  0  0  0  0
  3 12  1  0  0  0  0
  4 19  1  0  0  0  0
  4 17  1  0  0  0  0
  5  6  2  0  0  0  0
  5 10  1  0  0  0  0
  6  7  1  0  0  0  0
  7 31  1  0  0  0  0
  7  8  2  0  0  0  0
  8  9  1  0  0  0  0
  8 21  1  0  0  0  0
  9 12  1  0  0  0  0
 10  9  2  0  0  0  0
 11  1  1  0  0  0  0
 11  5  1  0  0  0  0
 12 35  1  0  0  0  0
 12 36  1  0  0  0  0
 13  2  1  0  0  0  0
 14 15  2  0  0  0  0
 15  2  1  0  0  0  0
 15 25  1  0  0  0  0
 16 24  1  0  0  0  0
 17  3  1  0  0  0  0
 18  3  1  0  0  0  0
 18 30  1  0  0  0  0
 19 18  2  0  0  0  0
 20 28  1  0  0  0  0
 20 27  1  0  0  0  0
 20  4  1  0  0  0  0
 22 16  1  0  0  0  0
 23 16  1  0  0  0  0
 26 20  1  0  0  0  0
 29 19  1  0  0  0  0
 32  6  1  0  0  0  0
 33 11  1  0  0  0  0
 34 11  1  0  0  0  0
 37 14  1  0  0  0  0
M  END
