4,11,16
q = -1.0

 45 47  0  0  1  0  0  0  0  0999 V2000
    1.2489   -1.0659    0.2256 C   0  0  1  0  0  0  0  0  0  0  0  0
    2.1675   -1.8954    1.1518 C   0  0  0  0  0  0  0  0  0  0  0  0
    3.6441   -1.9596    0.7522 C   0  0  0  0  0  0  0  0  0  0  0  0
    1.1529    0.4552    0.4884 C   0  0  1  0  0  3  0  0  0  0  0  0
    1.5764    1.1439    1.7697 C   0  0  0  0  0  0  0  0  0  0  0  0
    3.0873    1.3700    1.9406 C   0  0  0  0  0  0  0  0  0  0  0  0
    0.9459    1.0956   -0.7380 C   0  0  1  0  0  3  0  0  0  0  0  0
    1.2175    2.5423   -1.0613 C   0  0  0  0  0  0  0  0  0  0  0  0
    2.6228    2.7212   -1.6604 C   0  0  0  0  0  0  0  0  0  0  0  0
    0.7822    0.0581   -1.8586 C   0  0  2  0  0  0  0  0  0  0  0  0
   -0.7442   -0.1316   -1.8874 C   0  0  0  0  0  3  0  0  0  0  0  0
   -1.2461   -1.5571   -2.0719 C   0  0  0  0  0  0  0  0  0  0  0  0
   -0.4177   -2.4158   -1.1018 C   0  0  1  0  0  0  0  0  0  0  0  0
    1.0081   -2.5143   -1.6890 C   0  0  0  0  0  0  0  0  0  0  0  0
    1.5692   -1.1527   -1.2888 C   0  0  2  0  0  0  0  0  0  0  0  0
   -0.1887   -1.6158    0.1973 C   0  0  1  0  0  3  0  0  0  0  0  0
   -0.9953   -1.5807    1.3270 C   0  0  0  0  0  3  0  0  0  0  0  0
   -2.2508   -2.3902    1.5096 C   0  0  0  0  0  0  0  0  0  0  0  0
    1.7663   -2.9302    1.2003 H   0  0  0  0  0  0  0  0  0  0  0  0
    2.0651   -1.5057    2.1868 H   0  0  0  0  0  0  0  0  0  0  0  0
    4.0772   -0.9559    0.5725 H   0  0  0  0  0  0  0  0  0  0  0  0
    3.7897   -2.5488   -0.1755 H   0  0  0  0  0  0  0  0  0  0  0  0
    4.2461   -2.4456    1.5461 H   0  0  0  0  0  0  0  0  0  0  0  0
    1.0661    2.1261    1.8234 H   0  0  0  0  0  0  0  0  0  0  0  0
    1.1978    0.5748    2.6440 H   0  0  0  0  0  0  0  0  0  0  0  0
    3.5154    1.9231    1.0814 H   0  0  0  0  0  0  0  0  0  0  0  0
    3.2807    1.9683    2.8537 H   0  0  0  0  0  0  0  0  0  0  0  0
    3.6482    0.4225    2.0419 H   0  0  0  0  0  0  0  0  0  0  0  0
    0.4736    2.9175   -1.7922 H   0  0  0  0  0  0  0  0  0  0  0  0
    1.1043    3.1712   -0.1548 H   0  0  0  0  0  0  0  0  0  0  0  0
    3.4149    2.4086   -0.9516 H   0  0  0  0  0  0  0  0  0  0  0  0
    2.8010    3.7824   -1.9255 H   0  0  0  0  0  0  0  0  0  0  0  0
    2.7485    2.1211   -2.5844 H   0  0  0  0  0  0  0  0  0  0  0  0
    1.2030    0.3893   -2.8339 H   0  0  0  0  0  0  0  0  0  0  0  0
   -1.2106    0.5784   -2.5963 H   0  0  0  0  0  0  0  0  0  0  0  0
   -1.1263   -1.9306   -3.1182 H   0  0  0  0  0  0  0  0  0  0  0  0
   -2.3284   -1.6252   -1.8443 H   0  0  0  0  0  0  0  0  0  0  0  0
   -0.8812   -3.4047   -0.9116 H   0  0  0  0  0  0  0  0  0  0  0  0
    0.9979   -2.6949   -2.7821 H   0  0  0  0  0  0  0  0  0  0  0  0
    1.5987   -3.3281   -1.2197 H   0  0  0  0  0  0  0  0  0  0  0  0
    2.6484   -1.0140   -1.4966 H   0  0  0  0  0  0  0  0  0  0  0  0
   -0.5214   -1.2546    2.2677 H   0  0  0  0  0  0  0  0  0  0  0  0
   -2.7303   -2.6603    0.5507 H   0  0  0  0  0  0  0  0  0  0  0  0
   -2.9999   -1.8579    2.1277 H   0  0  0  0  0  0  0  0  0  0  0  0
   -2.0012   -3.3329    2.0446 H   0  0  0  0  0  0  0  0  0  0  0  0
  1  4  1  0  0  0  0
  1  2  1  1  0  0  0
  2 19  1  0  0  0  0
  2 20  1  0  0  0  0
  3  2  1  0  0  0  0
  3 23  1  0  0  0  0
  4  5  1  6  0  0  0
  5 24  1  0  0  0  0
  5  6  1  0  0  0  0
  5 25  1  0  0  0  0
  6 28  1  0  0  0  0
  6 27  1  0  0  0  0
  7  8  1  6  0  0  0
  7  4  1  0  0  0  0
  8 30  1  0  0  0  0
  9  8  1  0  0  0  0
  9 31  1  0  0  0  0
 10 34  1  6  0  0  0
 10 15  1  0  0  0  0
 10  7  1  0  0  0  0
 11 10  1  0  0  0  0
 12 11  1  0  0  0  0
 12 37  1  0  0  0  0
 12 13  1  0  0  0  0
 13 38  1  1  0  0  0
 13 16  1  0  0  0  0
 14 15  1  0  0  0  0
 14 40  1  0  0  0  0
 14 13  1  0  0  0  0
 15 41  1  6  0  0  0
 15  1  1  0  0  0  0
 16  1  1  0  0  0  0
 16 17  1  1  0  0  0
 17 18  1  0  0  0  0
 17 42  1  0  0  0  0
 18 45  1  0  0  0  0
 18 44  1  0  0  0  0
 21  3  1  0  0  0  0
 22  3  1  0  0  0  0
 26  6  1  0  0  0  0
 29  8  1  0  0  0  0
 32  9  1  0  0  0  0
 33  9  1  0  0  0  0
 35 11  1  0  0  0  0
 36 12  1  0  0  0  0
 39 14  1  0  0  0  0
 43 18  1  0  0  0  0
M  END
