1,11,13
q = -1.0

 35 35  0  0  1  0  0  0  0  0999 V2000
    2.1296    0.9810   -0.1614 C   0  0  1  0  0  3  0  0  0  0  0  0
    1.3420    1.4269   -1.2767 C   0  0  0  0  0  0  0  0  0  0  0  0
    0.2509    2.1966   -0.7591 C   0  0  0  0  0  0  0  0  0  0  0  0
    0.3679    2.2319    0.6690 C   0  0  0  0  0  0  0  0  0  0  0  0
    1.5303    1.4890    1.0389 C   0  0  0  0  0  0  0  0  0  0  0  0
    3.1161   -0.1501   -0.1867 C   0  0  0  0  0  0  0  0  0  0  0  0
    1.6642    1.2981   -2.7375 C   0  0  0  0  0  0  0  0  0  0  0  0
   -0.6528    3.0593   -1.5873 C   0  0  0  0  0  0  0  0  0  0  0  0
   -0.3697    3.1296    1.6170 C   0  0  0  0  0  0  0  0  0  0  0  0
    2.0932    1.4734    2.4297 C   0  0  0  0  0  0  0  0  0  0  0  0
    1.2428   -1.4804   -1.2005 C   0  0  0  0  0  3  0  0  0  0  0  0
    3.1929   -2.6862   -0.0307 C   0  0  0  0  0  0  0  0  0  0  0  0
    1.3844   -1.3444    1.2203 C   0  0  0  0  0  3  0  0  0  0  0  0
    2.2747   -1.4507   -0.0480 C   0  0  0  0  0  0  0  0  0  0  0  0
    3.8467   -0.0715    0.6450 H   0  0  0  0  0  0  0  0  0  0  0  0
    3.6972   -0.1707   -1.1319 H   0  0  0  0  0  0  0  0  0  0  0  0
    1.9195    2.2922   -3.1648 H   0  0  0  0  0  0  0  0  0  0  0  0
    2.5299    0.6328   -2.9104 H   0  0  0  0  0  0  0  0  0  0  0  0
    0.8139    0.8972   -3.3262 H   0  0  0  0  0  0  0  0  0  0  0  0
   -0.1781    4.0509   -1.7600 H   0  0  0  0  0  0  0  0  0  0  0  0
   -0.8556    2.6234   -2.5832 H   0  0  0  0  0  0  0  0  0  0  0  0
   -1.6266    3.2517   -1.0980 H   0  0  0  0  0  0  0  0  0  0  0  0
    0.2930    3.9659    1.9322 H   0  0  0  0  0  0  0  0  0  0  0  0
   -1.2702    3.5822    1.1656 H   0  0  0  0  0  0  0  0  0  0  0  0
   -0.6783    2.6086    2.5455 H   0  0  0  0  0  0  0  0  0  0  0  0
    2.3851    2.5033    2.7314 H   0  0  0  0  0  0  0  0  0  0  0  0
    1.3614    1.1093    3.1787 H   0  0  0  0  0  0  0  0  0  0  0  0
    2.9957    0.8399    2.5073 H   0  0  0  0  0  0  0  0  0  0  0  0
    1.6543   -1.2143   -2.1922 H   0  0  0  0  0  0  0  0  0  0  0  0
    0.7925   -2.4885   -1.2685 H   0  0  0  0  0  0  0  0  0  0  0  0
    3.8940   -2.6465    0.8311 H   0  0  0  0  0  0  0  0  0  0  0  0
    2.5998   -3.6190    0.0567 H   0  0  0  0  0  0  0  0  0  0  0  0
    3.7902   -2.7481   -0.9664 H   0  0  0  0  0  0  0  0  0  0  0  0
    0.9619   -2.3353    1.4639 H   0  0  0  0  0  0  0  0  0  0  0  0
    1.9152   -0.9672    2.1128 H   0  0  0  0  0  0  0  0  0  0  0  0
  1  6  1  1  0  0  0
  1  5  1  0  0  0  0
  2  3  2  0  0  0  0
  2  1  1  0  0  0  0
  3  4  1  0  0  0  0
  4  5  2  0  0  0  0
  4  9  1  0  0  0  0
  5 10  1  0  0  0  0
  6 14  1  0  0  0  0
  6 15  1  0  0  0  0
  7  2  1  0  0  0  0
  8 22  1  0  0  0  0
  8  3  1  0  0  0  0
  9 23  1  0  0  0  0
  9 25  1  0  0  0  0
 10 28  1  0  0  0  0
 10 26  1  0  0  0  0
 10 27  1  0  0  0  0
 11 14  1  0  0  0  0
 12 32  1  0  0  0  0
 12 31  1  0  0  0  0
 13 34  1  0  0  0  0
 13 35  1  0  0  0  0
 14 12  1  0  0  0  0
 14 13  1  0  0  0  0
 16  6  1  0  0  0  0
 17  7  1  0  0  0  0
 18  7  1  0  0  0  0
 19  7  1  0  0  0  0
 20  8  1  0  0  0  0
 21  8  1  0  0  0  0
 24  9  1  0  0  0  0
 29 11  1  0  0  0  0
 30 11  1  0  0  0  0
 33 12  1  0  0  0  0
M  END
