1,4,59
q = 0.0, confidence = 0.954

 68 98  0  0  1  0  0  0  0  0999 V2000
   -2.7354   -0.3583   -1.2096 C   0  0  0  0  0  3  0  0  0  0  0  0
   -2.3432    0.7688   -1.9361 C   0  0  0  0  0  0  0  0  0  0  0  0
   -2.9209    2.0881   -1.4860 C   0  0  1  0  0  0  0  0  0  0  0  0
   -4.1817    1.8142   -0.6999 C   0  0  0  0  0  3  0  0  0  0  0  0
   -4.1817    1.8142    0.6998 C   0  0  0  0  0  3  0  0  0  0  0  0
   -2.9209    2.0881    1.4860 C   0  0  2  0  0  0  0  0  0  0  0  0
   -1.7636    2.6860    0.6965 C   0  0  0  0  0  0  0  0  0  0  0  0
   -1.7636    2.6860   -0.6966 C   0  0  0  0  0  0  0  0  0  0  0  0
   -0.5188    2.8363   -1.4297 C   0  0  0  0  0  0  0  0  0  0  0  0
   -0.2381    1.9510   -2.5742 C   0  0  0  0  0  0  0  0  0  0  0  0
   -1.1357    0.7972   -2.7101 C   0  0  0  0  0  0  0  0  0  0  0  0
   -0.6068   -0.4550   -3.0860 C   0  0  0  0  0  0  0  0  0  0  0  0
    0.7668   -0.6058   -3.5032 C   0  0  0  0  0  0  0  0  0  0  0  0
    1.6134    0.5108   -3.4817 C   0  0  0  0  0  0  0  0  0  0  0  0
    1.1084    1.7930   -2.9989 C   0  0  0  0  0  0  0  0  0  0  0  0
    2.2089    2.4445   -2.3017 C   0  0  0  0  0  0  0  0  0  0  0  0
    1.9430    3.2245   -1.1702 C   0  0  0  0  0  0  0  0  0  0  0  0
    0.5745    3.3879   -0.7259 C   0  0  0  0  0  0  0  0  0  0  0  0
    0.5745    3.3879    0.7259 C   0  0  0  0  0  0  0  0  0  0  0  0
   -0.5188    2.8363    1.4296 C   0  0  0  0  0  0  0  0  0  0  0  0
   -0.2382    1.9511    2.5742 C   0  0  0  0  0  0  0  0  0  0  0  0
    1.1084    1.7930    2.9989 C   0  0  0  0  0  0  0  0  0  0  0  0
    2.2089    2.4445    2.3017 C   0  0  0  0  0  0  0  0  0  0  0  0
    1.9429    3.2245    1.1702 C   0  0  0  0  0  0  0  0  0  0  0  0
    2.8033    3.1369    0.0000 C   0  0  0  0  0  0  0  0  0  0  0  0
    3.9103    2.2733    0.0000 C   0  0  0  0  0  0  0  0  0  0  0  0
    4.1979    1.4675    1.1811 C   0  0  0  0  0  0  0  0  0  0  0  0
    3.3656    1.5585    2.3142 C   0  0  0  0  0  0  0  0  0  0  0  0
    2.9935    0.3559    3.0442 C   0  0  0  0  0  0  0  0  0  0  0  0
    3.4649   -0.9027    2.6167 C   0  0  0  0  0  0  0  0  0  0  0  0
    4.3107   -0.9975    1.4345 C   0  0  0  0  0  0  0  0  0  0  0  0
    4.6726    0.1661    0.7304 C   0  0  0  0  0  0  0  0  0  0  0  0
    4.6726    0.1661   -0.7303 C   0  0  0  0  0  0  0  0  0  0  0  0
    4.3107   -0.9975   -1.4344 C   0  0  0  0  0  0  0  0  0  0  0  0
    3.9343   -2.2052   -0.7035 C   0  0  0  0  0  0  0  0  0  0  0  0
    3.9343   -2.2052    0.7035 C   0  0  0  0  0  0  0  0  0  0  0  0
    2.8533   -2.8541    1.4329 C   0  0  0  0  0  0  0  0  0  0  0  0
    1.7950   -3.4616    0.7271 C   0  0  0  0  0  0  0  0  0  0  0  0
    1.7950   -3.4616   -0.7270 C   0  0  0  0  0  0  0  0  0  0  0  0
    2.8533   -2.8541   -1.4328 C   0  0  0  0  0  0  0  0  0  0  0  0
    2.5707   -2.0550   -2.6192 C   0  0  0  0  0  0  0  0  0  0  0  0
    3.4650   -0.9027   -2.6166 C   0  0  0  0  0  0  0  0  0  0  0  0
    2.9936    0.3559   -3.0442 C   0  0  0  0  0  0  0  0  0  0  0  0
    3.3657    1.5584   -2.3142 C   0  0  0  0  0  0  0  0  0  0  0  0
    4.1979    1.4675   -1.1811 C   0  0  0  0  0  0  0  0  0  0  0  0
    2.5706   -2.0550    2.6192 C   0  0  0  0  0  0  0  0  0  0  0  0
    1.2451   -1.9043    3.0550 C   0  0  0  0  0  0  0  0  0  0  0  0
    0.1534   -2.5276    2.3196 C   0  0  0  0  0  0  0  0  0  0  0  0
    0.4187   -3.2766    1.1692 C   0  0  0  0  0  0  0  0  0  0  0  0
   -0.4376   -3.1235   -0.0000 C   0  0  0  0  0  0  0  0  0  0  0  0
   -1.5530   -2.2415   -0.0000 C   0  0  0  0  0  0  0  0  0  0  0  0
   -1.8931   -1.5350    1.2457 C   0  0  0  0  0  0  0  0  0  0  0  0
   -0.9912   -1.6394    2.3385 C   0  0  0  0  0  0  0  0  0  0  0  0
   -0.6068   -0.4550    3.0859 C   0  0  0  0  0  0  0  0  0  0  0  0
    0.7667   -0.6058    3.5032 C   0  0  0  0  0  0  0  0  0  0  0  0
    1.6134    0.5108    3.4817 C   0  0  0  0  0  0  0  0  0  0  0  0
   -1.1357    0.7972    2.7101 C   0  0  0  0  0  0  0  0  0  0  0  0
   -2.3433    0.7689    1.9360 C   0  0  0  0  0  0  0  0  0  0  0  0
   -2.7354   -0.3583    1.2094 C   0  0  0  0  0  3  0  0  0  0  0  0
   -1.8930   -1.5350   -1.2457 C   0  0  0  0  0  0  0  0  0  0  0  0
   -0.9912   -1.6394   -2.3385 C   0  0  0  0  0  0  0  0  0  0  0  0
    0.1535   -2.5276   -2.3197 C   0  0  0  0  0  0  0  0  0  0  0  0
    1.2452   -1.9043   -3.0550 C   0  0  0  0  0  0  0  0  0  0  0  0
    0.4187   -3.2766   -1.1692 C   0  0  0  0  0  0  0  0  0  0  0  0
   -3.1497    2.7393   -2.3576 H   0  0  0  0  0  0  0  0  0  0  0  0
   -5.1255    1.9648   -1.2433 H   0  0  0  0  0  0  0  0  0  0  0  0
   -5.1256    1.9648    1.2432 H   0  0  0  0  0  0  0  0  0  0  0  0
   -3.1497    2.7394    2.3575 H   0  0  0  0  0  0  0  0  0  0  0  0
  2  3  1  0  0  0  0
  2  1  2  0  0  0  0
  3 65  1  6  0  0  0
  3  4  1  0  0  0  0
  3  8  1  0  0  0  0
  4  5  1  0  0  0  0
  5 67  1  0  0  0  0
  5  6  1  0  0  0  0
  6 58  1  0  0  0  0
  6 68  1  1  0  0  0
  7 20  1  0  0  0  0
  7  6  1  0  0  0  0
  8  7  2  0  0  0  0
  9 18  1  0  0  0  0
  9  8  1  0  0  0  0
 10  9  2  0  0  0  0
 11 10  1  0  0  0  0
 11  2  1  0  0  0  0
 12 11  2  0  0  0  0
 12 61  1  0  0  0  0
 13 14  2  0  0  0  0
 13 12  1  0  0  0  0
 13 63  1  0  0  0  0
 14 43  1  0  0  0  0
 14 15  1  0  0  0  0
 15 10  1  0  0  0  0
 15 16  2  0  0  0  0
 16 17  1  0  0  0  0
 17 18  2  0  0  0  0
 17 25  1  0  0  0  0
 18 19  1  0  0  0  0
 19 24  2  0  0  0  0
 19 20  1  0  0  0  0
 20 21  2  0  0  0  0
 21 57  1  0  0  0  0
 21 22  1  0  0  0  0
 22 56  1  0  0  0  0
 23 28  1  0  0  0  0
 23 22  2  0  0  0  0
 24 23  1  0  0  0  0
 25 26  2  0  0  0  0
 25 24  1  0  0  0  0
 26 27  1  0  0  0  0
 27 28  1  0  0  0  0
 28 29  2  0  0  0  0
 29 56  1  0  0  0  0
 30 46  1  0  0  0  0
 30 29  1  0  0  0  0
 31 30  2  0  0  0  0
 32 27  2  0  0  0  0
 32 31  1  0  0  0  0
 33 32  1  0  0  0  0
 34 33  2  0  0  0  0
 34 35  1  0  0  0  0
 35 36  1  0  0  0  0
 36 37  2  0  0  0  0
 36 31  1  0  0  0  0
 37 46  1  0  0  0  0
 38 49  1  0  0  0  0
 38 37  1  0  0  0  0
 39 38  2  0  0  0  0
 40 39  1  0  0  0  0
 40 35  2  0  0  0  0
 41 42  1  0  0  0  0
 41 40  1  0  0  0  0
 42 34  1  0  0  0  0
 43 42  2  0  0  0  0
 43 44  1  0  0  0  0
 44 16  1  0  0  0  0
 44 45  2  0  0  0  0
 45 33  1  0  0  0  0
 45 26  1  0  0  0  0
 46 47  2  0  0  0  0
 47 55  1  0  0  0  0
 48 53  1  0  0  0  0
 48 47  1  0  0  0  0
 49 48  2  0  0  0  0
 50 49  1  0  0  0  0
 51 50  1  0  0  0  0
 51 52  1  0  0  0  0
 52 53  1  0  0  0  0
 53 54  2  0  0  0  0
 54 55  1  0  0  0  0
 56 55  2  0  0  0  0
 57 54  1  0  0  0  0
 58 57  2  0  0  0  0
 59 52  2  0  0  0  0
 59 58  1  0  0  0  0
 60  1  1  0  0  0  0
 60 51  2  0  0  0  0
 61 62  2  0  0  0  0
 61 60  1  0  0  0  0
 62 64  1  0  0  0  0
 63 41  2  0  0  0  0
 63 62  1  0  0  0  0
 64 39  1  0  0  0  0
 64 50  2  0  0  0  0
 66  4  1  0  0  0  0
M  END
