1,2,3
q = -1.0

 61 64  0  0  0  0  0  0  0  0999 V2000
   -1.6724   -0.0009    0.4124 P   0  0  0  0  0  0  0  0  0  0  0  0
    1.5608    0.0022    0.2237 P   0  0  0  0  0  0  0  0  0  0  0  0
   -0.2159   -2.7182    0.4261 S   0  0  0  0  0  1  0  0  0  0  0  0
   -1.3723   -0.4361    2.2107 C   0  0  0  0  0  0  0  0  0  0  0  0
    1.0759    0.2359    2.0072 C   0  0  0  0  0  0  0  0  0  0  0  0
    0.3945   -2.2424    2.0918 C   0  0  0  0  0  0  0  0  0  0  0  0
    0.0781   -0.8087    2.5752 C   0  0  0  0  0  0  0  0  0  0  0  0
    0.2075   -0.7783    4.1118 C   0  0  0  0  0  0  0  0  0  0  0  0
   -1.9719    1.8271    0.5706 C   0  0  0  0  0  0  0  0  0  0  0  0
   -1.1043    2.7603   -0.0238 C   0  0  0  0  0  0  0  0  0  0  0  0
   -1.2885    4.1387    0.1791 C   0  0  0  0  0  0  0  0  0  0  0  0
   -2.3469    4.5989    0.9738 C   0  0  0  0  0  0  0  0  0  0  0  0
   -3.2239    3.6746    1.5689 C   0  0  0  0  0  0  0  0  0  0  0  0
   -3.0368    2.3004    1.3720 C   0  0  0  0  0  0  0  0  0  0  0  0
   -3.3723   -0.6352    0.0940 C   0  0  0  0  0  0  0  0  0  0  0  0
   -4.2632    0.1132   -0.7031 C   0  0  0  0  0  0  0  0  0  0  0  0
   -5.5121   -0.4176   -1.0562 C   0  0  0  0  0  0  0  0  0  0  0  0
   -5.8806   -1.7024   -0.6273 C   0  0  0  0  0  0  0  0  0  0  0  0
   -4.9878   -2.4599    0.1462 C   0  0  0  0  0  0  0  0  0  0  0  0
   -3.7368   -1.9351    0.5024 C   0  0  0  0  0  0  0  0  0  0  0  0
    2.2290    1.6522   -0.2733 C   0  0  0  0  0  0  0  0  0  0  0  0
    2.2607    2.7851    0.5633 C   0  0  0  0  0  0  0  0  0  0  0  0
    2.7593    4.0083    0.0850 C   0  0  0  0  0  0  0  0  0  0  0  0
    3.2389    4.1109   -1.2288 C   0  0  0  0  0  0  0  0  0  0  0  0
    3.2226    2.9820   -2.0652 C   0  0  0  0  0  0  0  0  0  0  0  0
    2.7199    1.7635   -1.5924 C   0  0  0  0  0  0  0  0  0  0  0  0
    3.1480   -0.9554    0.3640 C   0  0  0  0  0  0  0  0  0  0  0  0
    4.3424   -0.2847    0.7066 C   0  0  0  0  0  0  0  0  0  0  0  0
    5.5406   -0.9987    0.8519 C   0  0  0  0  0  0  0  0  0  0  0  0
    5.5618   -2.3886    0.6544 C   0  0  0  0  0  0  0  0  0  0  0  0
    4.3772   -3.0596    0.3163 C   0  0  0  0  0  0  0  0  0  0  0  0
    3.1746   -2.3511    0.1697 C   0  0  0  0  0  0  0  0  0  0  0  0
   -2.0472   -1.2740    2.4726 H   0  0  0  0  0  0  0  0  0  0  0  0
   -1.6944    0.4453    2.8012 H   0  0  0  0  0  0  0  0  0  0  0  0
    0.6241    1.2455    2.0984 H   0  0  0  0  0  0  0  0  0  0  0  0
    2.0138    0.2358    2.5997 H   0  0  0  0  0  0  0  0  0  0  0  0
    1.4882   -2.4261    2.1780 H   0  0  0  0  0  0  0  0  0  0  0  0
   -0.1043   -2.9581    2.7791 H   0  0  0  0  0  0  0  0  0  0  0  0
   -0.5664   -1.4159    4.5859 H   0  0  0  0  0  0  0  0  0  0  0  0
    1.2022   -1.1548    4.4278 H   0  0  0  0  0  0  0  0  0  0  0  0
    0.0905    0.2527    4.5052 H   0  0  0  0  0  0  0  0  0  0  0  0
   -0.2745    2.4202   -0.6538 H   0  0  0  0  0  0  0  0  0  0  0  0
   -0.5934    4.8495   -0.2930 H   0  0  0  0  0  0  0  0  0  0  0  0
   -2.4945    5.6785    1.1298 H   0  0  0  0  0  0  0  0  0  0  0  0
   -4.0610    4.0280    2.1903 H   0  0  0  0  0  0  0  0  0  0  0  0
   -3.7339    1.5852    1.8363 H   0  0  0  0  0  0  0  0  0  0  0  0
   -3.9791    1.1175   -1.0517 H   0  0  0  0  0  0  0  0  0  0  0  0
   -6.2000    0.1777   -1.6757 H   0  0  0  0  0  0  0  0  0  0  0  0
   -6.8609   -2.1178   -0.9062 H   0  0  0  0  0  0  0  0  0  0  0  0
   -5.2604   -3.4764    0.4682 H   0  0  0  0  0  0  0  0  0  0  0  0
   -3.0126   -2.5555    1.0526 H   0  0  0  0  0  0  0  0  0  0  0  0
    1.8902    2.7302    1.5964 H   0  0  0  0  0  0  0  0  0  0  0  0
    2.7718    4.8859    0.7493 H   0  0  0  0  0  0  0  0  0  0  0  0
    3.6264    5.0705   -1.6029 H   0  0  0  0  0  0  0  0  0  0  0  0
    3.5968    3.0521   -3.0975 H   0  0  0  0  0  0  0  0  0  0  0  0
    2.7063    0.8850   -2.2558 H   0  0  0  0  0  0  0  0  0  0  0  0
    4.3414    0.8063    0.8504 H   0  0  0  0  0  0  0  0  0  0  0  0
    6.4650   -0.4620    1.1149 H   0  0  0  0  0  0  0  0  0  0  0  0
    6.5040   -2.9475    0.7624 H   0  0  0  0  0  0  0  0  0  0  0  0
    4.3831   -4.1491    0.1603 H   0  0  0  0  0  0  0  0  0  0  0  0
    2.2394   -2.8847   -0.0730 H   0  0  0  0  0  0  0  0  0  0  0  0
  1  9  1  0  0  0  0
  1  4  1  0  0  0  0
  2 27  1  0  0  0  0
  2  5  1  0  0  0  0
  3  6  1  0  0  0  0
  4 33  1  0  0  0  0
  4  7  1  0  0  0  0
  4 34  1  0  0  0  0
  5 35  1  0  0  0  0
  5  7  1  0  0  0  0
  5 36  1  0  0  0  0
  6 37  1  0  0  0  0
  6  7  1  0  0  0  0
  6 38  1  0  0  0  0
  7  8  1  0  0  0  0
  8 40  1  0  0  0  0
  8 41  1  0  0  0  0
  8 39  1  0  0  0  0
  9 14  1  0  0  0  0
 10 11  1  0  0  0  0
 10  9  2  0  0  0  0
 11 12  2  0  0  0  0
 12 44  1  0  0  0  0
 12 13  1  0  0  0  0
 13 45  1  0  0  0  0
 14 13  2  0  0  0  0
 14 46  1  0  0  0  0
 15  1  1  0  0  0  0
 15 20  1  0  0  0  0
 16 15  2  0  0  0  0
 17 16  1  0  0  0  0
 17 18  2  0  0  0  0
 18 19  1  0  0  0  0
 19 50  1  0  0  0  0
 19 20  2  0  0  0  0
 20 51  1  0  0  0  0
 21  2  1  0  0  0  0
 21 22  1  0  0  0  0
 22 52  1  0  0  0  0
 23 22  2  0  0  0  0
 23 53  1  0  0  0  0
 24 23  1  0  0  0  0
 25 26  1  0  0  0  0
 25 24  2  0  0  0  0
 26 21  2  0  0  0  0
 27 28  1  0  0  0  0
 28 57  1  0  0  0  0
 28 29  2  0  0  0  0
 29 58  1  0  0  0  0
 30 59  1  0  0  0  0
 30 29  1  0  0  0  0
 31 30  2  0  0  0  0
 32 31  1  0  0  0  0
 32 27  2  0  0  0  0
 42 10  1  0  0  0  0
 43 11  1  0  0  0  0
 47 16  1  0  0  0  0
 48 17  1  0  0  0  0
 49 18  1  0  0  0  0
 54 24  1  0  0  0  0
 55 25  1  0  0  0  0
 56 26  1  0  0  0  0
 60 31  1  0  0  0  0
 61 32  1  0  0  0  0
M  END
