1,2,3,7,8
q = -2.0, confidence = 0.818

 52 55  0  0  1  0  0  0  0  0999 V2000
    0.8795   -1.3710    0.2036 O   0  5  0  0  0  0  0  0  0  0  0  0
   -1.3104   -0.9037    1.7028 O   0  5  0  0  0  0  0  0  0  0  0  0
   -0.4740    2.2650    1.9837 O   0  0  0  0  0  1  0  0  0  0  0  0
   -2.2040    3.4229   -0.9866 O   0  0  0  0  0  0  0  0  0  0  0  0
   -0.0912    4.3485    1.1900 O   0  0  0  0  0  0  0  0  0  0  0  0
   -0.6523    3.7440   -2.6085 O   0  0  0  0  0  0  0  0  0  0  0  0
    1.4709    1.2669    0.3832 N   0  0  0  0  0  2  0  0  0  0  0  0
   -0.8891    0.8375   -0.4188 N   0  0  0  0  0  2  0  0  0  0  0  0
   -2.1012    0.4300   -0.7698 C   0  0  0  0  0  3  0  0  0  0  0  0
    4.4591   -0.7068   -0.6475 C   0  0  0  0  0  0  0  0  0  0  0  0
    4.8390   -2.0577   -0.9640 C   0  0  0  0  0  0  0  0  0  0  0  0
    5.4727    0.2897   -0.7090 C   0  0  0  0  0  0  0  0  0  0  0  0
    2.5632   -2.8262   -0.4732 C   0  0  0  0  0  0  0  0  0  0  0  0
    6.1743   -2.3454   -1.3508 C   0  0  0  0  0  0  0  0  0  0  0  0
    7.1360   -1.3429   -1.4254 C   0  0  0  0  0  0  0  0  0  0  0  0
    3.8513   -3.0940   -0.8686 C   0  0  0  0  0  0  0  0  0  0  0  0
    6.7761   -0.0165   -1.0948 C   0  0  0  0  0  0  0  0  0  0  0  0
   -4.1412   -1.0016   -0.7124 C   0  0  0  0  0  0  0  0  0  0  0  0
   -4.9844   -1.9271   -0.0011 C   0  0  0  0  0  0  0  0  0  0  0  0
   -4.6115   -0.5406   -1.9749 C   0  0  0  0  0  0  0  0  0  0  0  0
   -5.8413   -0.9397   -2.4922 C   0  0  0  0  0  0  0  0  0  0  0  0
   -6.6692   -1.8349   -1.7771 C   0  0  0  0  0  0  0  0  0  0  0  0
   -6.2339   -2.3209   -0.5499 C   0  0  0  0  0  0  0  0  0  0  0  0
   -3.3245   -2.0937    1.7903 C   0  0  0  0  0  0  0  0  0  0  0  0
   -4.5396   -2.4485    1.2580 C   0  0  0  0  0  0  0  0  0  0  0  0
   -0.2471    1.9661   -1.0986 C   0  0  2  0  0  0  0  0  0  0  0  0
    0.8049    2.4882   -0.0433 C   0  0  1  0  0  0  0  0  0  0  0  0
    0.0257    3.0185    1.1520 C   0  0  2  0  0  3  0  0  0  0  0  0
   -1.1730    3.0935   -1.5398 C   0  0  0  0  0  0  0  0  0  0  0  0
    2.6362    0.9349   -0.1605 C   0  0  0  0  0  3  0  0  0  0  0  0
    3.0836   -0.4128   -0.2743 C   0  0  0  0  0  0  0  0  0  0  0  0
    2.1300   -1.4908   -0.1466 C   0  0  0  0  0  0  0  0  0  0  0  0
   -2.4415   -1.1773    1.1188 C   0  0  0  0  0  0  0  0  0  0  0  0
   -2.8652   -0.5936   -0.1320 C   0  0  0  0  0  0  0  0  0  0  0  0
   -7.6387   -2.1484   -2.1919 H   0  0  0  0  0  0  0  0  0  0  0  0
   -3.9916    0.1354   -2.5803 H   0  0  0  0  0  0  0  0  0  0  0  0
    1.8050   -3.6185   -0.3910 H   0  0  0  0  0  0  0  0  0  0  0  0
   -2.5823    0.9618   -1.6064 H   0  0  0  0  0  0  0  0  0  0  0  0
    1.4683    3.2602   -0.4891 H   0  0  0  0  0  0  0  0  0  0  0  0
    8.1676   -1.5799   -1.7258 H   0  0  0  0  0  0  0  0  0  0  0  0
    0.3493    1.6244   -1.9741 H   0  0  0  0  0  0  0  0  0  0  0  0
   -1.2604    4.4949   -2.7888 H   0  0  0  0  0  0  0  0  0  0  0  0
    3.2504    1.7468   -0.5951 H   0  0  0  0  0  0  0  0  0  0  0  0
   -2.9737   -2.5001    2.7504 H   0  0  0  0  0  0  0  0  0  0  0  0
   -0.6917    4.5622    1.9395 H   0  0  0  0  0  0  0  0  0  0  0  0
    5.2375    1.3252   -0.4229 H   0  0  0  0  0  0  0  0  0  0  0  0
   -6.1639   -0.5585   -3.4733 H   0  0  0  0  0  0  0  0  0  0  0  0
    7.5334    0.7819   -1.1285 H   0  0  0  0  0  0  0  0  0  0  0  0
   -6.8545   -3.0291    0.0219 H   0  0  0  0  0  0  0  0  0  0  0  0
   -5.1935   -3.1561    1.7924 H   0  0  0  0  0  0  0  0  0  0  0  0
    6.4364   -3.3885   -1.5895 H   0  0  0  0  0  0  0  0  0  0  0  0
    4.1497   -4.1262   -1.1122 H   0  0  0  0  0  0  0  0  0  0  0  0
  5 45  1  0  0  0  0
  6 29  1  0  0  0  0
  9  8  1  0  0  0  0
  9 34  1  0  0  0  0
 10 31  1  0  0  0  0
 11 16  1  0  0  0  0
 11 10  2  0  0  0  0
 12 10  1  0  0  0  0
 12 46  1  0  0  0  0
 13 37  1  0  0  0  0
 13 32  1  0  0  0  0
 14 11  1  0  0  0  0
 15 14  2  0  0  0  0
 15 17  1  0  0  0  0
 16 13  2  0  0  0  0
 17 12  2  0  0  0  0
 18 34  2  0  0  0  0
 18 19  1  0  0  0  0
 19 25  2  0  0  0  0
 20 18  1  0  0  0  0
 21 20  2  0  0  0  0
 21 22  1  0  0  0  0
 22 23  2  0  0  0  0
 23 19  1  0  0  0  0
 23 49  1  0  0  0  0
 24 44  1  0  0  0  0
 25 24  1  0  0  0  0
 25 50  1  0  0  0  0
 26 41  1  6  0  0  0
 26  8  1  0  0  0  0
 26 27  1  0  0  0  0
 27 39  1  6  0  0  0
 27  7  1  0  0  0  0
 27 28  1  0  0  0  0
 28  5  1  0  0  0  0
 28  3  1  6  0  0  0
 29 26  1  0  0  0  0
 29  4  2  0  0  0  0
 30  7  1  0  0  0  0
 31 30  1  0  0  0  0
 31 32  2  0  0  0  0
 32  1  1  0  0  0  0
 33  2  1  0  0  0  0
 33 24  2  0  0  0  0
 34 33  1  0  0  0  0
 35 22  1  0  0  0  0
 36 20  1  0  0  0  0
 38  9  1  0  0  0  0
 40 15  1  0  0  0  0
 42  6  1  0  0  0  0
 43 30  1  0  0  0  0
 47 21  1  0  0  0  0
 48 17  1  0  0  0  0
 51 14  1  0  0  0  0
 52 16  1  0  0  0  0
M  CHG  2   1  -1   2  -1
M  END
