1,2,5,6,7
 OpenBabel05122313063D

 57 59  0  0  0  0  0  0  0  0999 V2000
   -2.7926    0.8939   -0.1845 O   0  5  0  0  0  0  0  0  0  0  0  0
   -2.5343   -1.3841   -1.4399 O   0  5  0  0  0  0  0  0  0  0  0  0
    4.8896    1.5388    0.2269 O   0  0  0  0  0  0  0  0  0  0  0  0
    4.1738    0.9840    0.7258 H   0  0  0  0  0  0  0  0  0  0  0  0
    0.2671   -0.9146   -1.2262 O   0  0  0  0  0  1  0  0  0  0  0  0
   -0.1712    1.3367    0.1219 N   0  0  0  0  0  2  0  0  0  0  0  0
   -1.2796   -1.1022    1.0355 N   0  0  0  0  0  2  0  0  0  0  0  0
    3.5863   -0.3967    1.2470 N   0  0  0  0  0  0  0  0  0  0  0  0
    1.1240   -0.5780    1.0202 C   0  0  0  0  0  0  0  0  0  0  0  0
    1.1523    0.8962    0.5444 C   0  0  0  0  0  0  0  0  0  0  0  0
    1.5221    1.5484    1.3668 H   0  0  0  0  0  0  0  0  0  0  0  0
    1.8665    0.9896   -0.3011 H   0  0  0  0  0  0  0  0  0  0  0  0
   -0.1347   -0.8403    1.8852 C   0  0  0  0  0  0  0  0  0  0  0  0
    0.0524   -1.6900    2.5838 H   0  0  0  0  0  0  0  0  0  0  0  0
   -0.3350    0.0572    2.5151 H   0  0  0  0  0  0  0  0  0  0  0  0
    2.3811   -0.8881    1.8649 C   0  0  0  0  0  0  0  0  0  0  0  0
    2.2626   -0.3900    2.8544 H   0  0  0  0  0  0  0  0  0  0  0  0
    2.4281   -1.9891    2.0542 H   0  0  0  0  0  0  0  0  0  0  0  0
    1.0755   -1.4758   -0.2423 C   0  0  0  0  0  0  0  0  0  0  0  0
    2.1080   -1.5853   -0.6499 H   0  0  0  0  0  0  0  0  0  0  0  0
    0.7155   -2.4961    0.0433 H   0  0  0  0  0  0  0  0  0  0  0  0
   -0.5652    2.5378    0.4440 C   0  0  0  0  0  3  0  0  0  0  0  0
    0.1679    3.2029    0.9502 H   0  0  0  0  0  0  0  0  0  0  0  0
   -1.8849    3.0696    0.2580 C   0  0  0  0  0  0  0  0  0  0  0  0
   -2.1390    4.4471    0.4940 C   0  0  0  0  0  0  0  0  0  0  0  0
   -1.2860    5.1116    0.7075 H   0  0  0  0  0  0  0  0  0  0  0  0
   -3.4328    4.9545    0.4506 C   0  0  0  0  0  0  0  0  0  0  0  0
   -3.6196    6.0253    0.6150 H   0  0  0  0  0  0  0  0  0  0  0  0
   -4.5110    4.0694    0.2051 C   0  0  0  0  0  0  0  0  0  0  0  0
   -5.5394    4.4629    0.1780 H   0  0  0  0  0  0  0  0  0  0  0  0
   -4.2992    2.7089   -0.0014 C   0  0  0  0  0  0  0  0  0  0  0  0
   -5.1304    2.0139   -0.1872 H   0  0  0  0  0  0  0  0  0  0  0  0
   -2.9797    2.1722   -0.0044 C   0  0  0  0  0  0  0  0  0  0  0  0
   -2.2085   -1.9068    1.4363 C   0  0  0  0  0  3  0  0  0  0  0  0
   -2.1455   -2.3571    2.4560 H   0  0  0  0  0  0  0  0  0  0  0  0
   -3.3507   -2.3180    0.6456 C   0  0  0  0  0  0  0  0  0  0  0  0
   -4.3661   -3.0820    1.2735 C   0  0  0  0  0  0  0  0  0  0  0  0
   -4.2731   -3.2864    2.3527 H   0  0  0  0  0  0  0  0  0  0  0  0
   -5.4635   -3.5659    0.5631 C   0  0  0  0  0  0  0  0  0  0  0  0
   -6.2459   -4.1464    1.0728 H   0  0  0  0  0  0  0  0  0  0  0  0
   -5.5509   -3.3070   -0.8218 C   0  0  0  0  0  0  0  0  0  0  0  0
   -6.4097   -3.6869   -1.3968 H   0  0  0  0  0  0  0  0  0  0  0  0
   -4.5598   -2.5749   -1.4746 C   0  0  0  0  0  0  0  0  0  0  0  0
   -4.6106   -2.3681   -2.5531 H   0  0  0  0  0  0  0  0  0  0  0  0
   -3.4421   -2.0536   -0.7666 C   0  0  0  0  0  0  0  0  0  0  0  0
    4.5337   -1.2071    0.8838 C   0  0  0  0  0  0  0  0  0  0  0  0
    4.4551   -2.3030    1.0803 H   0  0  0  0  0  0  0  0  0  0  0  0
    5.7200   -0.7292    0.2051 C   0  0  0  0  0  0  0  0  0  0  0  0
    6.7533   -1.6210   -0.1726 C   0  0  0  0  0  0  0  0  0  0  0  0
    6.6427   -2.6891    0.0755 H   0  0  0  0  0  0  0  0  0  0  0  0
    7.8854   -1.1654   -0.8454 C   0  0  0  0  0  0  0  0  0  0  0  0
    8.6825   -1.8649   -1.1349 H   0  0  0  0  0  0  0  0  0  0  0  0
    7.9944    0.2089   -1.1550 C   0  0  0  0  0  0  0  0  0  0  0  0
    8.8846    0.5766   -1.6886 H   0  0  0  0  0  0  0  0  0  0  0  0
    6.9935    1.1141   -0.7983 C   0  0  0  0  0  0  0  0  0  0  0  0
    7.0712    2.1844   -1.0373 H   0  0  0  0  0  0  0  0  0  0  0  0
    5.8397    0.6683   -0.1121 C   0  0  0  0  0  0  0  0  0  0  0  0
  1 33  1  0  0  0  0
  2 45  1  0  0  0  0
  3  4  1  0  0  0  0
  5 19  1  0  0  0  0
  6 22  1  0  0  0  0
  6 10  1  0  0  0  0
  7 34  1  0  0  0  0
  7 13  1  0  0  0  0
  8 16  1  0  0  0  0
  9 16  1  0  0  0  0
  9 13  1  0  0  0  0
 10  9  1  0  0  0  0
 10 11  1  0  0  0  0
 12 10  1  0  0  0  0
 13 15  1  0  0  0  0
 13 14  1  0  0  0  0
 16 18  1  0  0  0  0
 16 17  1  0  0  0  0
 19 21  1  0  0  0  0
 19  9  1  0  0  0  0
 20 19  1  0  0  0  0
 22 23  1  0  0  0  0
 24 22  1  0  0  0  0
 24 25  1  0  0  0  0
 25 26  1  0  0  0  0
 27 25  2  0  0  0  0
 27 28  1  0  0  0  0
 29 27  1  0  0  0  0
 30 29  1  0  0  0  0
 31 29  2  0  0  0  0
 32 31  1  0  0  0  0
 33 31  1  0  0  0  0
 33 24  2  0  0  0  0
 34 35  1  0  0  0  0
 36 37  1  0  0  0  0
 36 34  1  0  0  0  0
 37 38  1  0  0  0  0
 39 40  1  0  0  0  0
 39 37  2  0  0  0  0
 41 39  1  0  0  0  0
 42 41  1  0  0  0  0
 43 41  2  0  0  0  0
 43 45  1  0  0  0  0
 44 43  1  0  0  0  0
 45 36  2  0  0  0  0
 46 47  1  0  0  0  0
 46  8  2  0  0  0  0
 48 46  1  0  0  0  0
 49 50  1  0  0  0  0
 49 48  2  0  0  0  0
 51 49  1  0  0  0  0
 52 51  1  0  0  0  0
 53 51  2  0  0  0  0
 53 55  1  0  0  0  0
 54 53  1  0  0  0  0
 55 57  2  0  0  0  0
 56 55  1  0  0  0  0
 57 48  1  0  0  0  0
 57  3  1  0  0  0  0
M  CHG  2   1  -1   2  -1
M  END
