1,5,7,29,33
 OpenBabel05122313063D

 56 57  0  0  1  0  0  0  0  0999 V2000
   -1.2427    0.6999    0.6943 O   0  5  0  0  0  0  0  0  0  0  0  0
   -1.3632    1.4763   -0.3363 C   0  0  0  0  0  0  0  0  0  0  0  0
   -2.0554    2.4929   -0.4159 O   0  0  0  0  0  0  0  0  0  0  0  0
   -0.5231    1.0823   -1.5830 C   0  0  0  0  0  0  0  0  0  0  0  0
   -0.0259   -0.3072   -1.5632 N   0  0  0  0  0  0  0  0  0  0  0  0
   -0.9312   -1.2554   -2.2302 C   0  0  0  0  0  0  0  0  0  0  0  0
    1.8139    0.3953    0.3149 O   0  0  0  0  0  1  0  0  0  0  0  0
    2.2508    0.1873   -0.8305 C   0  0  1  0  0  3  0  0  0  0  0  0
    3.5248    0.4697   -1.1913 N   0  0  0  0  0  0  0  0  0  0  0  0
    1.3792   -0.4395   -1.9246 C   0  0  0  0  0  0  0  0  0  0  0  0
    4.5588    0.9248   -0.3700 C   0  0  0  0  0  0  0  0  0  0  0  0
    4.4983    1.1765    0.9759 C   0  0  0  0  0  0  0  0  0  0  0  0
    5.6202    1.6117    1.6441 N   0  0  0  0  0  0  0  0  0  0  0  0
    6.8712    1.8316    1.0626 C   0  0  0  0  0  0  0  0  0  0  0  0
    7.8464    2.2182    1.6829 O   0  0  0  0  0  0  0  0  0  0  0  0
    6.8769    1.5605   -0.3113 N   0  0  0  0  0  0  0  0  0  0  0  0
    5.9328    0.9040   -2.3122 O   0  0  0  0  0  0  0  0  0  0  0  0
    5.8188    1.1172   -1.1045 C   0  0  0  0  0  0  0  0  0  0  0  0
   -1.1256    1.2930   -2.4919 H   0  0  0  0  0  0  0  0  0  0  0  0
    0.3370    1.7813   -1.6056 H   0  0  0  0  0  0  0  0  0  0  0  0
   -0.7501   -1.2905   -3.3311 H   0  0  0  0  0  0  0  0  0  0  0  0
   -1.9599   -0.8625   -2.1002 H   0  0  0  0  0  0  0  0  0  0  0  0
    3.8466    0.3264   -2.1599 H   0  0  0  0  0  0  0  0  0  0  0  0
    1.6199   -0.0005   -2.9237 H   0  0  0  0  0  0  0  0  0  0  0  0
    1.6519   -1.5156   -1.9497 H   0  0  0  0  0  0  0  0  0  0  0  0
    3.5755    1.0395    1.5523 H   0  0  0  0  0  0  0  0  0  0  0  0
    5.5787    1.7957    2.6482 H   0  0  0  0  0  0  0  0  0  0  0  0
    7.7752    1.7039   -0.7830 H   0  0  0  0  0  0  0  0  0  0  0  0
    1.3816   -2.3295    0.5191 O   0  5  0  0  0  0  0  0  0  0  0  0
    1.0345   -3.5866    0.5109 C   0  0  0  0  0  0  0  0  0  0  0  0
    1.7847   -4.5551    0.5468 O   0  0  0  0  0  0  0  0  0  0  0  0
   -0.4983   -3.8369    0.4608 C   0  0  0  0  0  0  0  0  0  0  0  0
   -1.2304   -2.7569   -0.2377 N   0  0  0  0  0  0  0  0  0  0  0  0
   -0.8328   -2.6712   -1.6595 C   0  0  0  0  0  0  0  0  0  0  0  0
   -1.4463   -3.3591   -2.2871 H   0  0  0  0  0  0  0  0  0  0  0  0
    0.2114   -3.0328   -1.7398 H   0  0  0  0  0  0  0  0  0  0  0  0
   -2.7014   -2.8712   -0.0665 C   0  0  0  0  0  0  0  0  0  0  0  0
   -3.2878   -1.6674    0.6660 C   0  0  0  0  0  0  0  0  0  0  0  0
   -3.1306   -1.5056    1.8890 O   0  0  0  0  0  0  0  0  0  0  0  0
   -3.9596   -0.7929   -0.1232 N   0  0  0  0  0  0  0  0  0  0  0  0
   -4.3708    0.5065    0.1738 C   0  0  0  0  0  0  0  0  0  0  0  0
   -4.3785    1.1156    1.3984 C   0  0  0  0  0  0  0  0  0  0  0  0
   -4.7137    2.4416    1.4923 N   0  0  0  0  0  0  0  0  0  0  0  0
   -5.0041    3.2764    0.4086 C   0  0  0  0  0  0  0  0  0  0  0  0
   -5.2322    4.4678    0.5236 O   0  0  0  0  0  0  0  0  0  0  0  0
   -5.0468    2.5880   -0.8082 N   0  0  0  0  0  0  0  0  0  0  0  0
   -4.6659    1.2748   -1.0411 C   0  0  0  0  0  0  0  0  0  0  0  0
   -4.5819    0.7842   -2.1737 O   0  0  0  0  0  0  0  0  0  0  0  0
   -5.1877    3.1776   -1.6335 H   0  0  0  0  0  0  0  0  0  0  0  0
   -4.6536    2.9251    2.3896 H   0  0  0  0  0  0  0  0  0  0  0  0
   -4.0950    0.5840    2.3139 H   0  0  0  0  0  0  0  0  0  0  0  0
   -4.0584   -0.9708   -1.1342 H   0  0  0  0  0  0  0  0  0  0  0  0
   -2.9337   -3.7682    0.5411 H   0  0  0  0  0  0  0  0  0  0  0  0
   -3.1940   -3.0111   -1.0526 H   0  0  0  0  0  0  0  0  0  0  0  0
   -0.6784   -4.8329   -0.0032 H   0  0  0  0  0  0  0  0  0  0  0  0
   -0.8674   -3.8791    1.5065 H   0  0  0  0  0  0  0  0  0  0  0  0
  2  1  1  0  0  0  0
  3  2  2  0  0  0  0
  4  5  1  0  0  0  0
  4  2  1  0  0  0  0
  6 22  1  0  0  0  0
  6 34  1  0  0  0  0
  6  5  1  0  0  0  0
  8  7  1  1  0  0  0
  9  8  1  0  0  0  0
  9 11  1  0  0  0  0
 10  5  1  0  0  0  0
 10  8  1  0  0  0  0
 11 12  2  0  0  0  0
 12 26  1  0  0  0  0
 12 13  1  0  0  0  0
 13 27  1  0  0  0  0
 14 13  1  0  0  0  0
 14 15  2  0  0  0  0
 16 14  1  0  0  0  0
 17 18  2  0  0  0  0
 18 11  1  0  0  0  0
 18 16  1  0  0  0  0
 19  4  1  0  0  0  0
 20  4  1  0  0  0  0
 21  6  1  0  0  0  0
 23  9  1  0  0  0  0
 24 10  1  0  0  0  0
 25 10  1  0  0  0  0
 28 16  1  0  0  0  0
 30 29  1  0  0  0  0
 30 31  2  0  0  0  0
 32 30  1  0  0  0  0
 32 56  1  0  0  0  0
 33 37  1  0  0  0  0
 33 32  1  0  0  0  0
 34 33  1  0  0  0  0
 35 34  1  0  0  0  0
 36 34  1  0  0  0  0
 37 53  1  0  0  0  0
 37 38  1  0  0  0  0
 38 39  2  0  0  0  0
 40 41  1  0  0  0  0
 40 38  1  0  0  0  0
 41 42  2  0  0  0  0
 42 43  1  0  0  0  0
 42 51  1  0  0  0  0
 43 50  1  0  0  0  0
 44 45  2  0  0  0  0
 44 43  1  0  0  0  0
 46 44  1  0  0  0  0
 47 46  1  0  0  0  0
 47 41  1  0  0  0  0
 48 47  2  0  0  0  0
 49 46  1  0  0  0  0
 52 40  1  0  0  0  0
 54 37  1  0  0  0  0
 55 32  1  0  0  0  0
M  CHG  2   1  -1  29  -1
M  END
