1,3,4,5,6
 OpenBabel05122313063D

 42 43  0  0  1  0  0  0  0  0999 V2000
   -1.4644   -1.3190    0.0196 O   0  5  0  0  0  0  0  0  0  0  0  0
   -1.0029    2.4805    3.1616 O   0  5  0  0  0  0  0  0  0  0  0  0
   -1.0430    0.7416    1.7306 O   0  0  0  0  0  0  0  0  0  0  0  0
    0.6659   -0.6261   -1.4046 O   0  5  0  0  0  0  0  0  0  0  0  0
   -1.1496    1.3332   -0.9105 N   0  0  0  0  0  2  0  0  0  0  0  0
    1.1717    1.3198    0.5474 N   0  0  0  0  0  2  0  0  0  0  0  0
   -2.6818   -1.2102   -0.4058 C   0  0  0  0  0  0  0  0  0  0  0  0
   -3.5681   -2.3254   -0.2585 C   0  0  0  0  0  0  0  0  0  0  0  0
   -4.8786   -2.2688   -0.7146 C   0  0  0  0  0  0  0  0  0  0  0  0
   -5.3881   -1.1076   -1.3501 C   0  0  0  0  0  0  0  0  0  0  0  0
   -4.5486   -0.0150   -1.5169 C   0  0  0  0  0  0  0  0  0  0  0  0
   -3.2018   -0.0326   -1.0542 C   0  0  0  0  0  0  0  0  0  0  0  0
   -2.3807    1.1111   -1.2952 C   0  0  0  0  0  3  0  0  0  0  0  0
   -0.5612    2.6156   -1.3117 C   0  0  0  0  0  0  0  0  0  0  0  0
   -0.6222    3.6938   -0.2100 C   0  0  0  0  0  0  0  0  0  0  0  0
    0.5022    3.6890    0.8295 C   0  0  0  0  0  0  0  0  0  0  0  0
    0.7526    2.3336    1.5113 C   0  0  1  0  0  0  0  0  0  0  0  0
   -0.5347    1.8427    2.2255 C   0  0  0  0  0  0  0  0  0  0  0  0
    2.3762    1.3024    0.0438 C   0  0  0  0  0  3  0  0  0  0  0  0
    2.8251    0.4435   -1.0124 C   0  0  0  0  0  0  0  0  0  0  0  0
    1.9175   -0.4461   -1.7109 C   0  0  0  0  0  0  0  0  0  0  0  0
    2.4518   -1.1778   -2.8203 C   0  0  0  0  0  0  0  0  0  0  0  0
    3.7857   -1.0666   -3.1918 C   0  0  0  0  0  0  0  0  0  0  0  0
    4.6741   -0.2097   -2.4940 C   0  0  0  0  0  0  0  0  0  0  0  0
    4.1851    0.5323   -1.4280 C   0  0  0  0  0  0  0  0  0  0  0  0
   -3.1683   -3.2222    0.2363 H   0  0  0  0  0  0  0  0  0  0  0  0
   -5.5336   -3.1438   -0.5766 H   0  0  0  0  0  0  0  0  0  0  0  0
   -6.4280   -1.0764   -1.7050 H   0  0  0  0  0  0  0  0  0  0  0  0
   -4.9174    0.8972   -2.0138 H   0  0  0  0  0  0  0  0  0  0  0  0
   -2.8576    1.9109   -1.8991 H   0  0  0  0  0  0  0  0  0  0  0  0
    0.4809    2.4466   -1.6505 H   0  0  0  0  0  0  0  0  0  0  0  0
   -1.1235    2.9857   -2.1952 H   0  0  0  0  0  0  0  0  0  0  0  0
   -0.6176    4.6855   -0.7092 H   0  0  0  0  0  0  0  0  0  0  0  0
   -1.6062    3.6118    0.2985 H   0  0  0  0  0  0  0  0  0  0  0  0
    0.2602    4.4131    1.6339 H   0  0  0  0  0  0  0  0  0  0  0  0
    1.4542    4.0233    0.3616 H   0  0  0  0  0  0  0  0  0  0  0  0
    1.5405    2.4761    2.2848 H   0  0  0  0  0  0  0  0  0  0  0  0
    3.1087    2.0376    0.4382 H   0  0  0  0  0  0  0  0  0  0  0  0
    1.7581   -1.8401   -3.3583 H   0  0  0  0  0  0  0  0  0  0  0  0
    4.1565   -1.6566   -4.0450 H   0  0  0  0  0  0  0  0  0  0  0  0
    5.7274   -0.1294   -2.7980 H   0  0  0  0  0  0  0  0  0  0  0  0
    4.8508    1.2188   -0.8798 H   0  0  0  0  0  0  0  0  0  0  0  0
  3 18  2  0  0  0  0
  6 17  1  0  0  0  0
  7  8  1  0  0  0  0
  7  1  1  0  0  0  0
  8 26  1  0  0  0  0
  9 27  1  0  0  0  0
  9  8  2  0  0  0  0
 10  9  1  0  0  0  0
 11 10  2  0  0  0  0
 11 12  1  0  0  0  0
 12  7  2  0  0  0  0
 13 12  1  0  0  0  0
 13  5  1  0  0  0  0
 14  5  1  0  0  0  0
 14 15  1  0  0  0  0
 15 34  1  0  0  0  0
 15 16  1  0  0  0  0
 16 17  1  0  0  0  0
 16 35  1  0  0  0  0
 17 18  1  0  0  0  0
 17 37  1  1  0  0  0
 18  2  1  0  0  0  0
 19 38  1  0  0  0  0
 19  6  1  0  0  0  0
 20 19  1  0  0  0  0
 21  4  1  0  0  0  0
 21 20  2  0  0  0  0
 22 21  1  0  0  0  0
 23 22  2  0  0  0  0
 23 24  1  0  0  0  0
 24 25  2  0  0  0  0
 25 20  1  0  0  0  0
 25 42  1  0  0  0  0
 28 10  1  0  0  0  0
 29 11  1  0  0  0  0
 30 13  1  0  0  0  0
 31 14  1  0  0  0  0
 32 14  1  0  0  0  0
 33 15  1  0  0  0  0
 36 16  1  0  0  0  0
 39 22  1  0  0  0  0
 40 23  1  0  0  0  0
 41 24  1  0  0  0  0
M  CHG  3   1  -1   2  -1   4  -1
M  END
