2,5,10,23,30
q = -2.0, confidence = 0.828

 54 56  0  0  1  0  0  0  0  0999 V2000
    2.8368   -0.8959    1.4397 C   0  0  0  0  0  3  0  0  0  0  0  0
    1.5642   -1.1189    1.6005 N   0  0  0  0  0  2  0  0  0  0  0  0
    0.9259   -1.0617    2.9127 C   0  0  0  0  0  0  0  0  0  0  0  0
   -0.4271   -0.3754    2.7500 C   0  0  0  0  0  0  0  0  0  0  0  0
   -1.2056   -1.0366    1.6571 N   0  0  0  0  0  0  0  0  0  0  0  0
   -1.8018   -2.3043    2.1678 C   0  0  0  0  0  0  0  0  0  0  0  0
   -2.3489   -0.1966    1.1281 C   0  0  1  0  0  0  0  0  0  0  0  0
   -2.0276    1.2773    0.8183 C   0  0  0  0  0  0  0  0  0  0  0  0
   -0.7395    1.4747   -0.4929 S   0  0  2  0  0  3  0  0  0  0  0  0
    0.4810    0.7690    0.1931 O   0  0  0  0  0  1  0  0  0  0  0  0
   -0.4187    3.2349   -0.2628 C   0  0  0  0  0  0  0  0  0  0  0  0
    0.6399    3.6456    0.5591 C   0  0  0  0  0  0  0  0  0  0  0  0
    0.8794    5.0207    0.7009 C   0  0  0  0  0  0  0  0  0  0  0  0
    0.0715    5.9526    0.0281 C   0  0  0  0  0  0  0  0  0  0  0  0
   -0.9746    5.5188   -0.8035 C   0  0  0  0  0  0  0  0  0  0  0  0
   -1.2208    4.1475   -0.9670 C   0  0  0  0  0  0  0  0  0  0  0  0
    3.5304   -0.9081    0.1850 C   0  0  0  0  0  0  0  0  0  0  0  0
    4.9294   -0.6630    0.1801 C   0  0  0  0  0  0  0  0  0  0  0  0
    5.6545   -0.6396   -1.0084 C   0  0  0  0  0  0  0  0  0  0  0  0
    4.9805   -0.8491   -2.2332 C   0  0  0  0  0  0  0  0  0  0  0  0
    3.6062   -1.0780   -2.2664 C   0  0  0  0  0  0  0  0  0  0  0  0
    2.8454   -1.1262   -1.0650 C   0  0  0  0  0  0  0  0  0  0  0  0
    1.5583   -1.3613   -1.1886 O   0  5  0  0  0  0  0  0  0  0  0  0
   -3.0164   -0.8820   -0.0454 C   0  0  0  0  0  0  0  0  0  0  0  0
   -4.4171   -1.0094   -0.0811 C   0  0  0  0  0  0  0  0  0  0  0  0
   -5.0697   -1.5544   -1.1947 C   0  0  0  0  0  0  0  0  0  0  0  0
   -4.3093   -1.9756   -2.2994 C   0  0  0  0  0  0  0  0  0  0  0  0
   -2.9167   -1.8571   -2.2878 C   0  0  0  0  0  0  0  0  0  0  0  0
   -2.2493   -1.3165   -1.1614 C   0  0  0  0  0  0  0  0  0  0  0  0
   -0.9097   -1.2244   -1.2361 O   0  5  0  0  0  0  0  0  0  0  0  0
    3.4413   -0.6670    2.3420 H   0  0  0  0  0  0  0  0  0  0  0  0
    1.5487   -0.5088    3.6475 H   0  0  0  0  0  0  0  0  0  0  0  0
    0.8092   -2.0994    3.2959 H   0  0  0  0  0  0  0  0  0  0  0  0
   -0.2366    0.6689    2.4548 H   0  0  0  0  0  0  0  0  0  0  0  0
   -1.0078   -0.3896    3.6979 H   0  0  0  0  0  0  0  0  0  0  0  0
   -2.3043   -2.8378    1.3432 H   0  0  0  0  0  0  0  0  0  0  0  0
   -2.5464   -2.0736    2.9598 H   0  0  0  0  0  0  0  0  0  0  0  0
   -1.0129   -2.9557    2.5784 H   0  0  0  0  0  0  0  0  0  0  0  0
   -3.0983   -0.1429    1.9528 H   0  0  0  0  0  0  0  0  0  0  0  0
   -1.6735    1.8538    1.6953 H   0  0  0  0  0  0  0  0  0  0  0  0
   -2.9539    1.7535    0.4402 H   0  0  0  0  0  0  0  0  0  0  0  0
    1.2684    2.8886    1.0507 H   0  0  0  0  0  0  0  0  0  0  0  0
    1.7083    5.3670    1.3360 H   0  0  0  0  0  0  0  0  0  0  0  0
    0.2668    7.0291    0.1427 H   0  0  0  0  0  0  0  0  0  0  0  0
   -1.5948    6.2513   -1.3408 H   0  0  0  0  0  0  0  0  0  0  0  0
   -2.0217    3.7980   -1.6376 H   0  0  0  0  0  0  0  0  0  0  0  0
    5.4384   -0.4920    1.1417 H   0  0  0  0  0  0  0  0  0  0  0  0
    6.7380   -0.4563   -0.9950 H   0  0  0  0  0  0  0  0  0  0  0  0
    5.5450   -0.8267   -3.1776 H   0  0  0  0  0  0  0  0  0  0  0  0
    3.0683   -1.2379   -3.2112 H   0  0  0  0  0  0  0  0  0  0  0  0
   -5.0060   -0.6724    0.7875 H   0  0  0  0  0  0  0  0  0  0  0  0
   -6.1646   -1.6514   -1.2001 H   0  0  0  0  0  0  0  0  0  0  0  0
   -4.8074   -2.4060   -3.1811 H   0  0  0  0  0  0  0  0  0  0  0  0
   -2.3007   -2.1811   -3.1384 H   0  0  0  0  0  0  0  0  0  0  0  0
  1  2  1  0  0  0  0
  1 31  1  0  0  0  0
  2  3  1  0  0  0  0
  3 33  1  0  0  0  0
  3 32  1  0  0  0  0
  4  3  1  0  0  0  0
  4 35  1  0  0  0  0
  5  6  1  0  0  0  0
  5  4  1  0  0  0  0
  6 38  1  0  0  0  0
  6 37  1  0  0  0  0
  7  5  1  0  0  0  0
  7 39  1  1  0  0  0
  8  7  1  0  0  0  0
  8 40  1  0  0  0  0
  9 11  1  0  0  0  0
  9 10  1  1  0  0  0
  9  8  1  0  0  0  0
 11 12  1  0  0  0  0
 12 13  2  0  0  0  0
 12 42  1  0  0  0  0
 13 43  1  0  0  0  0
 14 44  1  0  0  0  0
 14 13  1  0  0  0  0
 15 14  2  0  0  0  0
 16 15  1  0  0  0  0
 16 11  2  0  0  0  0
 17  1  1  0  0  0  0
 18 17  1  0  0  0  0
 18 47  1  0  0  0  0
 19 48  1  0  0  0  0
 19 18  2  0  0  0  0
 20 19  1  0  0  0  0
 21 20  2  0  0  0  0
 21 22  1  0  0  0  0
 22 17  2  0  0  0  0
 23 22  1  0  0  0  0
 24  7  1  0  0  0  0
 25 24  1  0  0  0  0
 25 51  1  0  0  0  0
 26 25  2  0  0  0  0
 27 28  2  0  0  0  0
 27 26  1  0  0  0  0
 28 29  1  0  0  0  0
 29 24  2  0  0  0  0
 30 29  1  0  0  0  0
 34  4  1  0  0  0  0
 36  6  1  0  0  0  0
 41  8  1  0  0  0  0
 45 15  1  0  0  0  0
 46 16  1  0  0  0  0
 49 20  1  0  0  0  0
 50 21  1  0  0  0  0
 52 26  1  0  0  0  0
 53 27  1  0  0  0  0
 54 28  1  0  0  0  0
M  CHG  2  23  -1  30  -1
M  END
