1,2,3,4,6
q = -1.0, confidence = 0.472

 37 37  0  0  0  0  0  0  0  0999 V2000
   -0.6399    0.7221   -0.8542 O   0  5  0  0  0  0  0  0  0  0  0  0
    1.9456    1.2386   -1.3001 O   0  0  0  0  0  1  0  0  0  0  0  0
    2.4159   -1.2996   -0.3416 O   0  0  0  0  0  1  0  0  0  0  0  0
   -0.1275   -1.6930    0.2271 N   0  0  0  0  0  0  0  0  0  0  0  0
    0.4755   -2.4945    0.0005 H   0  0  0  0  0  0  0  0  0  0  0  0
    1.3400    0.5688    1.2498 N   0  0  0  0  0  0  0  0  0  0  0  0
   -1.8950    0.5358   -0.4704 C   0  0  0  0  0  0  0  0  0  0  0  0
   -2.7644    1.6526   -0.3604 C   0  0  0  0  0  0  0  0  0  0  0  0
   -2.3664    2.6404   -0.6366 H   0  0  0  0  0  0  0  0  0  0  0  0
   -4.0859    1.4932    0.0713 C   0  0  0  0  0  0  0  0  0  0  0  0
   -4.7418    2.3750    0.1413 H   0  0  0  0  0  0  0  0  0  0  0  0
   -4.5763    0.2229    0.4202 C   0  0  0  0  0  0  0  0  0  0  0  0
   -5.6120    0.0977    0.7678 H   0  0  0  0  0  0  0  0  0  0  0  0
   -3.7224   -0.8860    0.3225 C   0  0  0  0  0  0  0  0  0  0  0  0
   -4.0913   -1.8891    0.5945 H   0  0  0  0  0  0  0  0  0  0  0  0
   -2.3980   -0.7535   -0.1261 C   0  0  0  0  0  0  0  0  0  0  0  0
   -1.4965   -1.9478   -0.2820 C   0  0  0  0  0  0  0  0  0  0  0  0
   -1.9424   -2.8254    0.2383 H   0  0  0  0  0  0  0  0  0  0  0  0
   -1.3736   -2.2124   -1.3534 H   0  0  0  0  0  0  0  0  0  0  0  0
   -0.0290   -1.4280    1.6854 C   0  0  0  0  0  0  0  0  0  0  0  0
    0.8180   -2.0270    2.0744 H   0  0  0  0  0  0  0  0  0  0  0  0
   -0.9459   -1.7817    2.2031 H   0  0  0  0  0  0  0  0  0  0  0  0
    0.1991    0.0530    2.0095 C   0  0  0  0  0  0  0  0  0  0  0  0
   -0.6962    0.6402    1.7328 H   0  0  0  0  0  0  0  0  0  0  0  0
    0.3343    0.1608    3.1140 H   0  0  0  0  0  0  0  0  0  0  0  0
    1.3274    2.0023    0.9395 C   0  0  0  0  0  0  0  0  0  0  0  0
    1.7218    2.6277    1.7780 H   0  0  0  0  0  0  0  0  0  0  0  0
    0.2734    2.2844    0.7608 H   0  0  0  0  0  0  0  0  0  0  0  0
    2.1384    2.2530   -0.3480 C   0  0  0  0  0  0  0  0  0  0  0  0
    1.8415    3.2376   -0.7793 H   0  0  0  0  0  0  0  0  0  0  0  0
    3.2273    2.3316   -0.1165 H   0  0  0  0  0  0  0  0  0  0  0  0
    2.6440    0.0273    1.6660 C   0  0  0  0  0  0  0  0  0  0  0  0
    2.4740   -0.7268    2.4609 H   0  0  0  0  0  0  0  0  0  0  0  0
    3.2822    0.8204    2.1180 H   0  0  0  0  0  0  0  0  0  0  0  0
    3.3469   -0.6464    0.4652 C   0  0  0  0  0  0  0  0  0  0  0  0
    3.8965    0.1206   -0.1320 H   0  0  0  0  0  0  0  0  0  0  0  0
    4.1063   -1.3722    0.8421 H   0  0  0  0  0  0  0  0  0  0  0  0
  1  7  1  0  0  0  0
  2 29  1  0  0  0  0
  3 35  1  0  0  0  0
  4 20  1  0  0  0  0
  5  4  1  0  0  0  0
  6 32  1  0  0  0  0
  6 23  1  0  0  0  0
  7  8  2  0  0  0  0
  7 16  1  0  0  0  0
  8 10  1  0  0  0  0
  9  8  1  0  0  0  0
 10 11  1  0  0  0  0
 10 12  2  0  0  0  0
 12 13  1  0  0  0  0
 14 12  1  0  0  0  0
 14 15  1  0  0  0  0
 16 14  2  0  0  0  0
 17 16  1  0  0  0  0
 17  4  1  0  0  0  0
 17 18  1  0  0  0  0
 19 17  1  0  0  0  0
 20 23  1  0  0  0  0
 20 21  1  0  0  0  0
 20 22  1  0  0  0  0
 23 25  1  0  0  0  0
 24 23  1  0  0  0  0
 26  6  1  0  0  0  0
 26 27  1  0  0  0  0
 28 26  1  0  0  0  0
 29 31  1  0  0  0  0
 29 26  1  0  0  0  0
 30 29  1  0  0  0  0
 32 34  1  0  0  0  0
 32 33  1  0  0  0  0
 35 37  1  0  0  0  0
 35 32  1  0  0  0  0
 36 35  1  0  0  0  0
M  CHG  1   1  -1
M  END
