1,2,3
q = 0.0, confidence = 0.998

 68 73  0  0  0  0  0  0  0  0999 V2000
    2.1160    0.0345    0.2963 P   0  0  0  0  0  0  0  0  0  0  0  0
   -2.1565    0.0704    0.2034 P   0  0  0  0  0  0  0  0  0  0  0  0
   -0.0602    0.3075   -1.3766 O   0  0  0  0  0  1  0  0  0  0  0  0
    2.3815   -1.1311   -1.1306 C   0  0  0  0  0  0  0  0  0  0  0  0
    3.6586   -1.6955   -1.2972 C   0  0  0  0  0  0  0  0  0  0  0  0
    4.4324   -1.5113   -0.5377 H   0  0  0  0  0  0  0  0  0  0  0  0
    3.9698   -2.4790   -2.4183 C   0  0  0  0  0  0  0  0  0  0  0  0
    4.9798   -2.9019   -2.5265 H   0  0  0  0  0  0  0  0  0  0  0  0
    2.9973   -2.6956   -3.4038 C   0  0  0  0  0  0  0  0  0  0  0  0
    3.2402   -3.2695   -4.3107 H   0  0  0  0  0  0  0  0  0  0  0  0
    1.7086   -2.1746   -3.2350 C   0  0  0  0  0  0  0  0  0  0  0  0
    0.9696   -2.3179   -4.0345 H   0  0  0  0  0  0  0  0  0  0  0  0
    1.3622   -1.4140   -2.0958 C   0  0  0  0  0  0  0  0  0  0  0  0
    0.0012   -0.8529   -1.8689 C   0  0  0  0  0  3  0  0  0  0  0  0
   -1.2540   -1.6406   -1.9371 C   0  0  0  0  0  0  0  0  0  0  0  0
   -1.4230   -2.7855   -2.7489 C   0  0  0  0  0  0  0  0  0  0  0  0
   -0.5862   -3.1512   -3.3540 H   0  0  0  0  0  0  0  0  0  0  0  0
   -2.6394   -3.4748   -2.8014 C   0  0  0  0  0  0  0  0  0  0  0  0
   -2.7407   -4.3513   -3.4588 H   0  0  0  0  0  0  0  0  0  0  0  0
   -3.7154   -3.0543   -2.0080 C   0  0  0  0  0  0  0  0  0  0  0  0
   -4.6760   -3.5900   -2.0376 H   0  0  0  0  0  0  0  0  0  0  0  0
   -3.5515   -1.9627   -1.1422 C   0  0  0  0  0  0  0  0  0  0  0  0
   -4.3780   -1.6744   -0.4765 H   0  0  0  0  0  0  0  0  0  0  0  0
   -2.3436   -1.2468   -1.0900 C   0  0  0  0  0  0  0  0  0  0  0  0
    2.7030    1.6355   -0.3711 C   0  0  0  0  0  0  0  0  0  0  0  0
    2.9583    2.6918    0.5310 C   0  0  0  0  0  0  0  0  0  0  0  0
    2.8296    2.5335    1.6108 H   0  0  0  0  0  0  0  0  0  0  0  0
    3.3617    3.9437    0.0490 C   0  0  0  0  0  0  0  0  0  0  0  0
    3.5612    4.7603    0.7593 H   0  0  0  0  0  0  0  0  0  0  0  0
    3.4950    4.1610   -1.3323 C   0  0  0  0  0  0  0  0  0  0  0  0
    3.8066    5.1476   -1.7081 H   0  0  0  0  0  0  0  0  0  0  0  0
    3.2238    3.1188   -2.2317 C   0  0  0  0  0  0  0  0  0  0  0  0
    3.3202    3.2839   -3.3156 H   0  0  0  0  0  0  0  0  0  0  0  0
    2.8278    1.8600   -1.7555 C   0  0  0  0  0  0  0  0  0  0  0  0
    2.6144    1.0487   -2.4654 H   0  0  0  0  0  0  0  0  0  0  0  0
    3.3890   -0.4390    1.5341 C   0  0  0  0  0  0  0  0  0  0  0  0
    4.6941    0.0992    1.5181 C   0  0  0  0  0  0  0  0  0  0  0  0
    4.9763    0.8332    0.7487 H   0  0  0  0  0  0  0  0  0  0  0  0
    5.6291   -0.2942    2.4873 C   0  0  0  0  0  0  0  0  0  0  0  0
    6.6444    0.1307    2.4687 H   0  0  0  0  0  0  0  0  0  0  0  0
    5.2704   -1.2225    3.4777 C   0  0  0  0  0  0  0  0  0  0  0  0
    6.0050   -1.5272    4.2388 H   0  0  0  0  0  0  0  0  0  0  0  0
    3.9717   -1.7560    3.4983 C   0  0  0  0  0  0  0  0  0  0  0  0
    3.6843   -2.4798    4.2761 H   0  0  0  0  0  0  0  0  0  0  0  0
    3.0300   -1.3666    2.5350 C   0  0  0  0  0  0  0  0  0  0  0  0
    2.0101   -1.7827    2.5399 H   0  0  0  0  0  0  0  0  0  0  0  0
   -2.7187    1.6149   -0.5972 C   0  0  0  0  0  0  0  0  0  0  0  0
   -2.8816    1.6962   -1.9933 C   0  0  0  0  0  0  0  0  0  0  0  0
   -2.6906    0.8122   -2.6188 H   0  0  0  0  0  0  0  0  0  0  0  0
   -3.2883    2.9009   -2.5857 C   0  0  0  0  0  0  0  0  0  0  0  0
   -3.4143    2.9551   -3.6778 H   0  0  0  0  0  0  0  0  0  0  0  0
   -3.5326    4.0308   -1.7899 C   0  0  0  0  0  0  0  0  0  0  0  0
   -3.8518    4.9755   -2.2562 H   0  0  0  0  0  0  0  0  0  0  0  0
   -3.3643    3.9547   -0.3976 C   0  0  0  0  0  0  0  0  0  0  0  0
   -3.5446    4.8403    0.2304 H   0  0  0  0  0  0  0  0  0  0  0  0
   -2.9526    2.7560    0.2002 C   0  0  0  0  0  0  0  0  0  0  0  0
   -2.7945    2.7055    1.2865 H   0  0  0  0  0  0  0  0  0  0  0  0
   -3.4626   -0.3106    1.4379 C   0  0  0  0  0  0  0  0  0  0  0  0
   -3.1312   -1.1985    2.4838 C   0  0  0  0  0  0  0  0  0  0  0  0
   -2.1198   -1.6344    2.5182 H   0  0  0  0  0  0  0  0  0  0  0  0
   -4.0896   -1.5269    3.4528 C   0  0  0  0  0  0  0  0  0  0  0  0
   -3.8250   -2.2202    4.2657 H   0  0  0  0  0  0  0  0  0  0  0  0
   -5.3774   -0.9695    3.3931 C   0  0  0  0  0  0  0  0  0  0  0  0
   -6.1255   -1.2250    4.1592 H   0  0  0  0  0  0  0  0  0  0  0  0
   -5.7083   -0.0810    2.3576 C   0  0  0  0  0  0  0  0  0  0  0  0
   -6.7153    0.3608    2.3085 H   0  0  0  0  0  0  0  0  0  0  0  0
   -4.7561    0.2501    1.3813 C   0  0  0  0  0  0  0  0  0  0  0  0
   -5.0168    0.9499    0.5735 H   0  0  0  0  0  0  0  0  0  0  0  0
  1 36  1  0  0  0  0
  2 58  1  0  0  0  0
  4  1  1  0  0  0  0
  5  4  1  0  0  0  0
  5  6  1  0  0  0  0
  7  5  2  0  0  0  0
  8  7  1  0  0  0  0
  9 11  2  0  0  0  0
  9  7  1  0  0  0  0
 10  9  1  0  0  0  0
 11 13  1  0  0  0  0
 12 11  1  0  0  0  0
 13 14  1  0  0  0  0
 13  4  2  0  0  0  0
 14  3  1  0  0  0  0
 15 14  1  0  0  0  0
 15 24  1  0  0  0  0
 16 15  2  0  0  0  0
 17 16  1  0  0  0  0
 18 16  1  0  0  0  0
 18 20  2  0  0  0  0
 19 18  1  0  0  0  0
 20 22  1  0  0  0  0
 21 20  1  0  0  0  0
 22 24  2  0  0  0  0
 22 23  1  0  0  0  0
 24  2  1  0  0  0  0
 25  1  1  0  0  0  0
 25 26  1  0  0  0  0
 26 27  1  0  0  0  0
 28 26  2  0  0  0  0
 28 29  1  0  0  0  0
 30 28  1  0  0  0  0
 31 30  1  0  0  0  0
 32 34  1  0  0  0  0
 32 30  2  0  0  0  0
 33 32  1  0  0  0  0
 34 25  2  0  0  0  0
 35 34  1  0  0  0  0
 36 45  1  0  0  0  0
 37 36  2  0  0  0  0
 37 39  1  0  0  0  0
 38 37  1  0  0  0  0
 39 41  2  0  0  0  0
 40 39  1  0  0  0  0
 41 43  1  0  0  0  0
 41 42  1  0  0  0  0
 43 44  1  0  0  0  0
 45 46  1  0  0  0  0
 45 43  2  0  0  0  0
 47 56  1  0  0  0  0
 47  2  1  0  0  0  0
 48 47  2  0  0  0  0
 49 48  1  0  0  0  0
 50 48  1  0  0  0  0
 50 52  2  0  0  0  0
 51 50  1  0  0  0  0
 52 54  1  0  0  0  0
 53 52  1  0  0  0  0
 54 56  2  0  0  0  0
 54 55  1  0  0  0  0
 56 57  1  0  0  0  0
 58 59  1  0  0  0  0
 59 60  1  0  0  0  0
 59 61  2  0  0  0  0
 61 62  1  0  0  0  0
 63 61  1  0  0  0  0
 63 64  1  0  0  0  0
 65 63  2  0  0  0  0
 66 65  1  0  0  0  0
 67 58  2  0  0  0  0
 67 65  1  0  0  0  0
 68 67  1  0  0  0  0
M  END
