1,2,3
q = -1.0, confidence = 0.028

 70 70  0  0  0  0  0  0  0  0999 V2000
   -2.3207   -0.5050    0.2198 P   0  0  0  0  0  0  0  0  0  0  0  0
    2.3208   -0.5048    0.2198 P   0  0  0  0  0  0  0  0  0  0  0  0
    0.0001   -1.7298    1.4365 O   0  5  0  0  0  0  0  0  0  0  0  0
   -2.4531   -2.3894    0.4486 C   0  0  0  0  0  0  0  0  0  0  0  0
    2.4533   -2.3892    0.4486 C   0  0  0  0  0  0  0  0  0  0  0  0
    0.0001   -2.6834    0.4970 C   0  0  0  0  0  0  0  0  0  0  0  0
   -1.2378   -3.1376   -0.0279 C   0  0  0  0  0  0  0  0  0  0  0  0
   -1.2224   -4.1618   -0.9886 C   0  0  0  0  0  0  0  0  0  0  0  0
    0.0002   -4.6885   -1.4468 C   0  0  0  0  0  0  0  0  0  0  0  0
    1.2228   -4.1617   -0.9885 C   0  0  0  0  0  0  0  0  0  0  0  0
    1.2381   -3.1375   -0.0279 C   0  0  0  0  0  0  0  0  0  0  0  0
   -3.1338   -0.1783   -1.4725 C   0  0  0  0  0  0  0  0  0  0  0  0
   -3.3054    0.1992    1.6896 C   0  0  0  0  0  0  0  0  0  0  0  0
   -2.9759    1.3026   -1.8622 C   0  0  0  0  0  0  0  0  0  0  0  0
   -2.3189   -1.0314   -2.4671 C   0  0  0  0  0  0  0  0  0  0  0  0
   -4.6149   -0.5817   -1.5218 C   0  0  0  0  0  0  0  0  0  0  0  0
   -2.3441    0.0811    2.8915 C   0  0  0  0  0  0  0  0  0  0  0  0
   -4.6075   -0.5668    1.9761 C   0  0  0  0  0  0  0  0  0  0  0  0
   -3.6039    1.6886    1.4488 C   0  0  0  0  0  0  0  0  0  0  0  0
    3.1339   -0.1781   -1.4724 C   0  0  0  0  0  0  0  0  0  0  0  0
    3.3053    0.1995    1.6897 C   0  0  0  0  0  0  0  0  0  0  0  0
    4.6150   -0.5818   -1.5218 C   0  0  0  0  0  0  0  0  0  0  0  0
    2.3188   -1.0308   -2.4671 C   0  0  0  0  0  0  0  0  0  0  0  0
    2.9765    1.3030   -1.8619 C   0  0  0  0  0  0  0  0  0  0  0  0
    3.6036    1.6890    1.4488 C   0  0  0  0  0  0  0  0  0  0  0  0
    4.6074   -0.5663    1.9764 C   0  0  0  0  0  0  0  0  0  0  0  0
    2.3439    0.0814    2.8916 C   0  0  0  0  0  0  0  0  0  0  0  0
   -2.5644   -2.5103    1.5450 H   0  0  0  0  0  0  0  0  0  0  0  0
   -3.3847   -2.7523   -0.0288 H   0  0  0  0  0  0  0  0  0  0  0  0
    3.3849   -2.7521   -0.0287 H   0  0  0  0  0  0  0  0  0  0  0  0
    2.5646   -2.5101    1.5451 H   0  0  0  0  0  0  0  0  0  0  0  0
   -2.1718   -4.5431   -1.3989 H   0  0  0  0  0  0  0  0  0  0  0  0
    0.0003   -5.4960   -2.1938 H   0  0  0  0  0  0  0  0  0  0  0  0
    2.1722   -4.5429   -1.3988 H   0  0  0  0  0  0  0  0  0  0  0  0
   -3.5732    1.9780   -1.2233 H   0  0  0  0  0  0  0  0  0  0  0  0
   -3.3342    1.4325   -2.9055 H   0  0  0  0  0  0  0  0  0  0  0  0
   -1.9214    1.6306   -1.8162 H   0  0  0  0  0  0  0  0  0  0  0  0
   -2.4640   -2.1182   -2.3210 H   0  0  0  0  0  0  0  0  0  0  0  0
   -1.2325   -0.8223   -2.3836 H   0  0  0  0  0  0  0  0  0  0  0  0
   -2.6371   -0.7810   -3.5010 H   0  0  0  0  0  0  0  0  0  0  0  0
   -5.2461    0.0827   -0.9000 H   0  0  0  0  0  0  0  0  0  0  0  0
   -4.7882   -1.6290   -1.2022 H   0  0  0  0  0  0  0  0  0  0  0  0
   -4.9782   -0.4941   -2.5681 H   0  0  0  0  0  0  0  0  0  0  0  0
   -2.0065   -0.9588    3.0695 H   0  0  0  0  0  0  0  0  0  0  0  0
   -2.8623    0.4418    3.8051 H   0  0  0  0  0  0  0  0  0  0  0  0
   -1.4402    0.7027    2.7309 H   0  0  0  0  0  0  0  0  0  0  0  0
   -4.4259   -1.6324    2.2172 H   0  0  0  0  0  0  0  0  0  0  0  0
   -5.3235   -0.5193    1.1344 H   0  0  0  0  0  0  0  0  0  0  0  0
   -5.1033   -0.1129    2.8606 H   0  0  0  0  0  0  0  0  0  0  0  0
   -2.6894    2.2514    1.1753 H   0  0  0  0  0  0  0  0  0  0  0  0
   -3.9935    2.1306    2.3902 H   0  0  0  0  0  0  0  0  0  0  0  0
   -4.3733    1.8440    0.6681 H   0  0  0  0  0  0  0  0  0  0  0  0
    4.7880   -1.6293   -1.2024 H   0  0  0  0  0  0  0  0  0  0  0  0
    5.2463    0.0823   -0.9000 H   0  0  0  0  0  0  0  0  0  0  0  0
    4.9783   -0.4942   -2.5681 H   0  0  0  0  0  0  0  0  0  0  0  0
    2.4633   -2.1178   -2.3209 H   0  0  0  0  0  0  0  0  0  0  0  0
    2.6373   -0.7807   -3.5010 H   0  0  0  0  0  0  0  0  0  0  0  0
    1.2325   -0.8212   -2.3837 H   0  0  0  0  0  0  0  0  0  0  0  0
    3.3344    1.4328   -2.9054 H   0  0  0  0  0  0  0  0  0  0  0  0
    3.5743    1.9781   -1.2232 H   0  0  0  0  0  0  0  0  0  0  0  0
    1.9221    1.6313   -1.8156 H   0  0  0  0  0  0  0  0  0  0  0  0
    4.3732    1.8444    0.6683 H   0  0  0  0  0  0  0  0  0  0  0  0
    3.9930    2.1311    2.3902 H   0  0  0  0  0  0  0  0  0  0  0  0
    2.6891    2.2517    1.1750 H   0  0  0  0  0  0  0  0  0  0  0  0
    5.1032   -0.1123    2.8608 H   0  0  0  0  0  0  0  0  0  0  0  0
    5.3235   -0.5188    1.1347 H   0  0  0  0  0  0  0  0  0  0  0  0
    4.4259   -1.6318    2.2176 H   0  0  0  0  0  0  0  0  0  0  0  0
    2.0064   -0.9584    3.0696 H   0  0  0  0  0  0  0  0  0  0  0  0
    1.4400    0.7029    2.7308 H   0  0  0  0  0  0  0  0  0  0  0  0
    2.8621    0.4423    3.8052 H   0  0  0  0  0  0  0  0  0  0  0  0
  1  4  1  0  0  0  0
  1 13  1  0  0  0  0
  2  5  1  0  0  0  0
  2 21  1  0  0  0  0
  4 28  1  0  0  0  0
  5 31  1  0  0  0  0
  6  3  1  0  0  0  0
  7  4  1  0  0  0  0
  7  6  2  0  0  0  0
  8  7  1  0  0  0  0
  9  8  2  0  0  0  0
  9 10  1  0  0  0  0
 10 11  2  0  0  0  0
 11  5  1  0  0  0  0
 11  6  1  0  0  0  0
 12  1  1  0  0  0  0
 13 18  1  0  0  0  0
 13 17  1  0  0  0  0
 14 37  1  0  0  0  0
 14 12  1  0  0  0  0
 14 35  1  0  0  0  0
 15 39  1  0  0  0  0
 15 38  1  0  0  0  0
 15 12  1  0  0  0  0
 16 12  1  0  0  0  0
 16 42  1  0  0  0  0
 16 41  1  0  0  0  0
 17 44  1  0  0  0  0
 17 45  1  0  0  0  0
 18 47  1  0  0  0  0
 18 49  1  0  0  0  0
 19 13  1  0  0  0  0
 19 51  1  0  0  0  0
 20  2  1  0  0  0  0
 21 26  1  0  0  0  0
 21 27  1  0  0  0  0
 22 20  1  0  0  0  0
 22 53  1  0  0  0  0
 22 54  1  0  0  0  0
 23 58  1  0  0  0  0
 23 56  1  0  0  0  0
 23 20  1  0  0  0  0
 24 61  1  0  0  0  0
 24 20  1  0  0  0  0
 24 60  1  0  0  0  0
 25 21  1  0  0  0  0
 25 63  1  0  0  0  0
 26 67  1  0  0  0  0
 26 65  1  0  0  0  0
 27 68  1  0  0  0  0
 27 70  1  0  0  0  0
 29  4  1  0  0  0  0
 30  5  1  0  0  0  0
 32  8  1  0  0  0  0
 33  9  1  0  0  0  0
 34 10  1  0  0  0  0
 36 14  1  0  0  0  0
 40 15  1  0  0  0  0
 43 16  1  0  0  0  0
 46 17  1  0  0  0  0
 48 18  1  0  0  0  0
 50 19  1  0  0  0  0
 52 19  1  0  0  0  0
 55 22  1  0  0  0  0
 57 23  1  0  0  0  0
 59 24  1  0  0  0  0
 62 25  1  0  0  0  0
 64 25  1  0  0  0  0
 66 26  1  0  0  0  0
 69 27  1  0  0  0  0
M  CHG  1   3  -1
M  END
