1,2,3
q = -1.0, confidence = 0.066

 80 82  0  0  0  0  0  0  0  0999 V2000
    2.2071   -1.2186   -0.1581 P   0  0  0  0  0  0  0  0  0  0  0  0
   -2.1684   -1.2299   -0.2157 P   0  0  0  0  0  0  0  0  0  0  0  0
    0.0387   -0.1513    1.3632 O   0  5  0  0  0  0  0  0  0  0  0  0
   -2.9834   -0.1111    0.9979 C   0  0  0  0  0  0  0  0  0  0  0  0
   -2.8596    0.4701   -2.3131 C   0  0  0  0  0  0  0  0  0  0  0  0
   -3.3338    0.6075   -3.3072 H   0  0  0  0  0  0  0  0  0  0  0  0
   -1.7719    0.6473   -2.4217 H   0  0  0  0  0  0  0  0  0  0  0  0
   -3.2715    1.2417   -1.6312 H   0  0  0  0  0  0  0  0  0  0  0  0
   -2.6241   -2.9574    0.3453 C   0  0  0  0  0  0  0  0  0  0  0  0
   -3.7235   -2.9649    0.5098 H   0  0  0  0  0  0  0  0  0  0  0  0
    1.1325    3.0264   -0.1824 C   0  0  0  0  0  0  0  0  0  0  0  0
    2.0790    3.5272   -0.4237 H   0  0  0  0  0  0  0  0  0  0  0  0
    1.2002    1.7923    0.4887 C   0  0  0  0  0  0  0  0  0  0  0  0
   -4.1642   -0.5082    1.6599 C   0  0  0  0  0  0  0  0  0  0  0  0
   -4.5522   -1.5279    1.5232 H   0  0  0  0  0  0  0  0  0  0  0  0
   -2.4924    1.2120    1.1862 C   0  0  0  0  0  0  0  0  0  0  0  0
    2.9849    0.2264   -2.3891 C   0  0  0  0  0  0  0  0  0  0  0  0
    3.4452    1.0252   -1.7713 H   0  0  0  0  0  0  0  0  0  0  0  0
    1.9081    0.4542   -2.5120 H   0  0  0  0  0  0  0  0  0  0  0  0
    3.4593    0.2562   -3.3920 H   0  0  0  0  0  0  0  0  0  0  0  0
   -1.2805    2.9820   -0.0808 C   0  0  0  0  0  0  0  0  0  0  0  0
   -2.2624    3.4466   -0.2388 H   0  0  0  0  0  0  0  0  0  0  0  0
   -1.4264    5.4454   -1.5068 C   0  0  0  0  0  0  0  0  0  0  0  0
   -2.1622    4.7602   -1.9819 H   0  0  0  0  0  0  0  0  0  0  0  0
   -1.2874    6.3066   -2.1863 H   0  0  0  0  0  0  0  0  0  0  0  0
   -1.8887    5.8242   -0.5623 H   0  0  0  0  0  0  0  0  0  0  0  0
   -1.2426    1.7421    0.5776 C   0  0  0  0  0  0  0  0  0  0  0  0
   -3.2288    2.0858    2.0199 C   0  0  0  0  0  0  0  0  0  0  0  0
   -2.8381    3.1020    2.1793 H   0  0  0  0  0  0  0  0  0  0  0  0
    3.2759    2.3015    1.7427 C   0  0  0  0  0  0  0  0  0  0  0  0
    2.8575    3.3112    1.8685 H   0  0  0  0  0  0  0  0  0  0  0  0
   -4.4034    1.6803    2.6643 C   0  0  0  0  0  0  0  0  0  0  0  0
   -4.9447    2.3850    3.3140 H   0  0  0  0  0  0  0  0  0  0  0  0
   -3.1370   -0.9453   -1.7956 C   0  0  0  0  0  0  0  0  0  0  0  0
   -2.6477   -1.6606   -2.4914 H   0  0  0  0  0  0  0  0  0  0  0  0
    4.5118    1.9850    2.3169 C   0  0  0  0  0  0  0  0  0  0  0  0
    5.0707    2.7529    2.8734 H   0  0  0  0  0  0  0  0  0  0  0  0
    4.2857   -0.2757    1.4890 C   0  0  0  0  0  0  0  0  0  0  0  0
    4.6972   -1.2913    1.3955 H   0  0  0  0  0  0  0  0  0  0  0  0
    3.0418    0.0328    0.8968 C   0  0  0  0  0  0  0  0  0  0  0  0
    5.0205    0.6838    2.1976 C   0  0  0  0  0  0  0  0  0  0  0  0
    5.9843    0.4127    2.6543 H   0  0  0  0  0  0  0  0  0  0  0  0
   -2.2933   -3.9912   -0.7378 C   0  0  0  0  0  0  0  0  0  0  0  0
   -1.2354   -3.9134   -1.0586 H   0  0  0  0  0  0  0  0  0  0  0  0
   -2.9173   -3.8632   -1.6441 H   0  0  0  0  0  0  0  0  0  0  0  0
   -2.4729   -5.0141   -0.3465 H   0  0  0  0  0  0  0  0  0  0  0  0
    2.1015   -2.8698    2.0979 C   0  0  0  0  0  0  0  0  0  0  0  0
    1.0134   -2.6677    2.1381 H   0  0  0  0  0  0  0  0  0  0  0  0
    2.5937   -2.0975    2.7191 H   0  0  0  0  0  0  0  0  0  0  0  0
    2.2906   -3.8616    2.5587 H   0  0  0  0  0  0  0  0  0  0  0  0
    2.6114   -2.8572    0.6517 C   0  0  0  0  0  0  0  0  0  0  0  0
    3.7198   -2.9520    0.6576 H   0  0  0  0  0  0  0  0  0  0  0  0
   -1.9171   -3.2594    1.6710 C   0  0  0  0  0  0  0  0  0  0  0  0
   -2.2399   -4.2452    2.0653 H   0  0  0  0  0  0  0  0  0  0  0  0
   -2.1195   -2.4886    2.4402 H   0  0  0  0  0  0  0  0  0  0  0  0
   -0.8203   -3.2912    1.5200 H   0  0  0  0  0  0  0  0  0  0  0  0
   -4.8717    0.3706    2.4917 C   0  0  0  0  0  0  0  0  0  0  0  0
   -5.7862    0.0295    3.0001 H   0  0  0  0  0  0  0  0  0  0  0  0
    2.0315   -4.0062   -0.1818 C   0  0  0  0  0  0  0  0  0  0  0  0
    2.2890   -4.9801    0.2835 H   0  0  0  0  0  0  0  0  0  0  0  0
    2.4130   -4.0110   -1.2218 H   0  0  0  0  0  0  0  0  0  0  0  0
    0.9282   -3.9276   -0.2419 H   0  0  0  0  0  0  0  0  0  0  0  0
    3.1832   -1.1575   -1.7579 C   0  0  0  0  0  0  0  0  0  0  0  0
    2.6385   -1.8943   -2.3870 H   0  0  0  0  0  0  0  0  0  0  0  0
    1.0662    5.4970   -1.6046 C   0  0  0  0  0  0  0  0  0  0  0  0
    1.5867    5.8924   -0.6979 H   0  0  0  0  0  0  0  0  0  0  0  0
    0.8384    6.3531   -2.2663 H   0  0  0  0  0  0  0  0  0  0  0  0
    1.7889    4.8436   -2.1405 H   0  0  0  0  0  0  0  0  0  0  0  0
    4.6577   -1.5432   -1.6438 C   0  0  0  0  0  0  0  0  0  0  0  0
    5.1242   -1.5332   -2.6515 H   0  0  0  0  0  0  0  0  0  0  0  0
    4.8037   -2.5598   -1.2264 H   0  0  0  0  0  0  0  0  0  0  0  0
    5.2211   -0.8252   -1.0135 H   0  0  0  0  0  0  0  0  0  0  0  0
    2.5123    1.3469    1.0276 C   0  0  0  0  0  0  0  0  0  0  0  0
   -0.1023    3.6192   -0.5476 C   0  0  0  0  0  0  0  0  0  0  0  0
   -0.1559    4.7891   -1.2982 N   0  0  0  0  0  0  0  0  0  0  0  0
   -4.6320   -1.2453   -1.6813 C   0  0  0  0  0  0  0  0  0  0  0  0
   -5.1303   -0.5615   -0.9637 H   0  0  0  0  0  0  0  0  0  0  0  0
   -4.8372   -2.2868   -1.3616 H   0  0  0  0  0  0  0  0  0  0  0  0
   -5.1197   -1.1030   -2.6687 H   0  0  0  0  0  0  0  0  0  0  0  0
    0.0020    1.0609    0.7913 C   0  0  0  0  0  0  0  0  0  0  0  0
  1 51  1  0  0  0  0
  1 40  1  0  0  0  0
  2  9  1  0  0  0  0
  2  4  1  0  0  0  0
  4 16  2  0  0  0  0
  4 14  1  0  0  0  0
  5 34  1  0  0  0  0
  5  8  1  0  0  0  0
  6  5  1  0  0  0  0
  7  5  1  0  0  0  0
  9 10  1  0  0  0  0
  9 53  1  0  0  0  0
 11 13  1  0  0  0  0
 12 11  1  0  0  0  0
 13 80  2  0  0  0  0
 13 73  1  0  0  0  0
 14 57  2  0  0  0  0
 15 14  1  0  0  0  0
 16 28  1  0  0  0  0
 17 18  1  0  0  0  0
 17 63  1  0  0  0  0
 19 17  1  0  0  0  0
 20 17  1  0  0  0  0
 21 27  2  0  0  0  0
 22 21  1  0  0  0  0
 23 75  1  0  0  0  0
 23 26  1  0  0  0  0
 24 23  1  0  0  0  0
 25 23  1  0  0  0  0
 27 80  1  0  0  0  0
 27 16  1  0  0  0  0
 28 29  1  0  0  0  0
 28 32  2  0  0  0  0
 30 31  1  0  0  0  0
 30 36  1  0  0  0  0
 32 33  1  0  0  0  0
 34 76  1  0  0  0  0
 34  2  1  0  0  0  0
 35 34  1  0  0  0  0
 36 37  1  0  0  0  0
 38 41  1  0  0  0  0
 39 38  1  0  0  0  0
 40 73  1  0  0  0  0
 40 38  2  0  0  0  0
 41 36  2  0  0  0  0
 41 42  1  0  0  0  0
 43 46  1  0  0  0  0
 43  9  1  0  0  0  0
 44 43  1  0  0  0  0
 45 43  1  0  0  0  0
 47 48  1  0  0  0  0
 47 50  1  0  0  0  0
 47 49  1  0  0  0  0
 51 52  1  0  0  0  0
 51 47  1  0  0  0  0
 53 54  1  0  0  0  0
 53 55  1  0  0  0  0
 56 53  1  0  0  0  0
 57 32  1  0  0  0  0
 57 58  1  0  0  0  0
 59 60  1  0  0  0  0
 59 51  1  0  0  0  0
 61 59  1  0  0  0  0
 62 59  1  0  0  0  0
 63 69  1  0  0  0  0
 63  1  1  0  0  0  0
 64 63  1  0  0  0  0
 65 75  1  0  0  0  0
 65 66  1  0  0  0  0
 67 65  1  0  0  0  0
 68 65  1  0  0  0  0
 69 71  1  0  0  0  0
 69 72  1  0  0  0  0
 70 69  1  0  0  0  0
 73 30  2  0  0  0  0
 74 11  2  0  0  0  0
 74 21  1  0  0  0  0
 75 74  1  0  0  0  0
 76 78  1  0  0  0  0
 76 77  1  0  0  0  0
 79 76  1  0  0  0  0
 80  3  1  0  0  0  0
M  CHG  1   3  -1
M  END
