1,2,16
 OpenBabel05122313063D

 71 75  0  0  0  0  0  0  0  0999 V2000
   -1.0667   -0.1911   -0.0249 O   0  0  0  0  0  1  0  0  0  0  0  0
    1.1005    1.4355    1.3565 P   0  0  2  0  0  0  0  0  0  0  0  0
   -0.4757    1.7793    2.3260 C   0  0  0  0  0  0  0  0  0  0  0  0
   -0.6777    0.9015    2.9762 H   0  0  0  0  0  0  0  0  0  0  0  0
   -0.2559    2.6339    2.9968 H   0  0  0  0  0  0  0  0  0  0  0  0
   -1.6891    2.0975    1.4420 C   0  0  0  0  0  0  0  0  0  0  0  0
   -1.4312    2.8039    0.6216 H   0  0  0  0  0  0  0  0  0  0  0  0
   -2.5269    2.5296    2.0273 H   0  0  0  0  0  0  0  0  0  0  0  0
   -2.2598    0.5714    0.6087 P   0  0  0  0  0  4  0  0  0  0  0  0
    1.9455    0.1707    2.4551 C   0  0  0  0  0  0  0  0  0  0  0  0
    3.0223    0.2137    2.1863 H   0  0  0  0  0  0  0  0  0  0  0  0
    1.8552    0.4389    3.5288 H   0  0  0  0  0  0  0  0  0  0  0  0
    1.3652   -1.2172    2.1755 C   0  0  0  0  0  0  0  0  0  0  0  0
    0.2934   -1.2705    2.4635 H   0  0  0  0  0  0  0  0  0  0  0  0
    1.8901   -1.9980    2.7620 H   0  0  0  0  0  0  0  0  0  0  0  0
    1.3811   -1.6015    0.3322 P   0  0  0  0  0  0  0  0  0  0  0  0
    2.0983    2.9597    1.6013 C   0  0  0  0  0  0  0  0  0  0  0  0
    2.5438    3.3503    2.8827 C   0  0  0  0  0  0  0  0  0  0  0  0
    2.3013    2.7416    3.7685 H   0  0  0  0  0  0  0  0  0  0  0  0
    3.3057    4.5167    3.0395 C   0  0  0  0  0  0  0  0  0  0  0  0
    3.6538    4.8135    4.0408 H   0  0  0  0  0  0  0  0  0  0  0  0
    3.6259    5.3014    1.9187 C   0  0  0  0  0  0  0  0  0  0  0  0
    4.2252    6.2165    2.0422 H   0  0  0  0  0  0  0  0  0  0  0  0
    3.1817    4.9175    0.6444 C   0  0  0  0  0  0  0  0  0  0  0  0
    3.4284    5.5307   -0.2355 H   0  0  0  0  0  0  0  0  0  0  0  0
    2.4205    3.7495    0.4800 C   0  0  0  0  0  0  0  0  0  0  0  0
    2.0558    3.4502   -0.5148 H   0  0  0  0  0  0  0  0  0  0  0  0
    3.0626   -2.2526   -0.0229 C   0  0  0  0  0  0  0  0  0  0  0  0
    4.0035   -2.5972    0.9658 C   0  0  0  0  0  0  0  0  0  0  0  0
    3.7656   -2.4796    2.0337 H   0  0  0  0  0  0  0  0  0  0  0  0
    5.2644   -3.0923    0.5959 C   0  0  0  0  0  0  0  0  0  0  0  0
    5.9981   -3.3526    1.3742 H   0  0  0  0  0  0  0  0  0  0  0  0
    5.5881   -3.2517   -0.7599 C   0  0  0  0  0  0  0  0  0  0  0  0
    6.5775   -3.6389   -1.0476 H   0  0  0  0  0  0  0  0  0  0  0  0
    4.6510   -2.9081   -1.7485 C   0  0  0  0  0  0  0  0  0  0  0  0
    4.9032   -3.0225   -2.8136 H   0  0  0  0  0  0  0  0  0  0  0  0
    3.3952   -2.4027   -1.3868 C   0  0  0  0  0  0  0  0  0  0  0  0
    2.6649   -2.1082   -2.1592 H   0  0  0  0  0  0  0  0  0  0  0  0
    0.3018   -3.0991    0.2626 C   0  0  0  0  0  0  0  0  0  0  0  0
   -0.5575   -3.2730   -0.8404 C   0  0  0  0  0  0  0  0  0  0  0  0
   -0.5507   -2.5272   -1.6538 H   0  0  0  0  0  0  0  0  0  0  0  0
   -1.4170   -4.3821   -0.8889 C   0  0  0  0  0  0  0  0  0  0  0  0
   -2.0886   -4.5071   -1.7520 H   0  0  0  0  0  0  0  0  0  0  0  0
   -1.4263   -5.3215    0.1545 C   0  0  0  0  0  0  0  0  0  0  0  0
   -2.1051   -6.1873    0.1141 H   0  0  0  0  0  0  0  0  0  0  0  0
   -0.5586   -5.1585    1.2476 C   0  0  0  0  0  0  0  0  0  0  0  0
   -0.5498   -5.8985    2.0628 H   0  0  0  0  0  0  0  0  0  0  0  0
    0.3052   -4.0542    1.3006 C   0  0  0  0  0  0  0  0  0  0  0  0
    0.9859   -3.9456    2.1581 H   0  0  0  0  0  0  0  0  0  0  0  0
   -2.9895   -0.4947    1.8977 C   0  0  0  0  0  0  0  0  0  0  0  0
   -3.7454    0.0158    2.9734 C   0  0  0  0  0  0  0  0  0  0  0  0
   -3.9099    1.0990    3.0815 H   0  0  0  0  0  0  0  0  0  0  0  0
   -4.2878   -0.8598    3.9259 C   0  0  0  0  0  0  0  0  0  0  0  0
   -4.8749   -0.4579    4.7654 H   0  0  0  0  0  0  0  0  0  0  0  0
   -4.0764   -2.2436    3.8110 C   0  0  0  0  0  0  0  0  0  0  0  0
   -4.5012   -2.9272    4.5618 H   0  0  0  0  0  0  0  0  0  0  0  0
   -3.3213   -2.7532    2.7428 C   0  0  0  0  0  0  0  0  0  0  0  0
   -3.1444   -3.8350    2.6471 H   0  0  0  0  0  0  0  0  0  0  0  0
   -2.7773   -1.8844    1.7856 C   0  0  0  0  0  0  0  0  0  0  0  0
   -2.1783   -2.2780    0.9518 H   0  0  0  0  0  0  0  0  0  0  0  0
   -3.5366    0.9458   -0.6170 C   0  0  0  0  0  0  0  0  0  0  0  0
   -3.2545    0.6649   -1.9688 C   0  0  0  0  0  0  0  0  0  0  0  0
   -2.2812    0.2349   -2.2578 H   0  0  0  0  0  0  0  0  0  0  0  0
   -4.2252    0.9525   -2.9400 C   0  0  0  0  0  0  0  0  0  0  0  0
   -4.0041    0.7410   -3.9967 H   0  0  0  0  0  0  0  0  0  0  0  0
   -5.4563    1.5149   -2.5697 C   0  0  0  0  0  0  0  0  0  0  0  0
   -6.2103    1.7424   -3.3387 H   0  0  0  0  0  0  0  0  0  0  0  0
   -5.7332    1.7889   -1.2190 C   0  0  0  0  0  0  0  0  0  0  0  0
   -6.7009    2.2254   -0.9293 H   0  0  0  0  0  0  0  0  0  0  0  0
   -4.7754    1.5016   -0.2375 C   0  0  0  0  0  0  0  0  0  0  0  0
   -5.0018    1.7036    0.8213 H   0  0  0  0  0  0  0  0  0  0  0  0
  1  9  1  0  0  0  0
  2 17  1  0  0  0  0
  2  3  1  1  0  0  0
  2 10  1  0  0  0  0
  3  4  1  0  0  0  0
  3  5  1  0  0  0  0
  6  8  1  0  0  0  0
  6  3  1  0  0  0  0
  7  6  1  0  0  0  0
  9  6  1  0  0  0  0
  9 50  1  0  0  0  0
 10 12  1  0  0  0  0
 11 10  1  0  0  0  0
 13 10  1  0  0  0  0
 13 14  1  0  0  0  0
 13 15  1  0  0  0  0
 16 13  1  0  0  0  0
 17 18  1  0  0  0  0
 18 20  2  0  0  0  0
 18 19  1  0  0  0  0
 20 21  1  0  0  0  0
 22 23  1  0  0  0  0
 22 20  1  0  0  0  0
 24 22  2  0  0  0  0
 25 24  1  0  0  0  0
 26 24  1  0  0  0  0
 26 17  2  0  0  0  0
 27 26  1  0  0  0  0
 28 16  1  0  0  0  0
 28 29  1  0  0  0  0
 29 30  1  0  0  0  0
 31 29  2  0  0  0  0
 31 32  1  0  0  0  0
 33 31  1  0  0  0  0
 34 33  1  0  0  0  0
 35 37  1  0  0  0  0
 35 33  2  0  0  0  0
 36 35  1  0  0  0  0
 37 28  2  0  0  0  0
 38 37  1  0  0  0  0
 39 16  1  0  0  0  0
 39 48  1  0  0  0  0
 40 39  2  0  0  0  0
 41 40  1  0  0  0  0
 42 40  1  0  0  0  0
 42 44  2  0  0  0  0
 43 42  1  0  0  0  0
 44 46  1  0  0  0  0
 45 44  1  0  0  0  0
 46 48  2  0  0  0  0
 46 47  1  0  0  0  0
 48 49  1  0  0  0  0
 50 51  1  0  0  0  0
 51 52  1  0  0  0  0
 51 53  2  0  0  0  0
 53 54  1  0  0  0  0
 55 53  1  0  0  0  0
 55 56  1  0  0  0  0
 57 55  2  0  0  0  0
 58 57  1  0  0  0  0
 59 50  2  0  0  0  0
 59 57  1  0  0  0  0
 60 59  1  0  0  0  0
 61 70  1  0  0  0  0
 61  9  1  0  0  0  0
 62 61  2  0  0  0  0
 63 62  1  0  0  0  0
 64 66  2  0  0  0  0
 64 62  1  0  0  0  0
 65 64  1  0  0  0  0
 66 68  1  0  0  0  0
 67 66  1  0  0  0  0
 68 69  1  0  0  0  0
 68 70  2  0  0  0  0
 70 71  1  0  0  0  0
M  END
