1,4,7
q = 0.0, confidence = 0.978

 71 75  0  0  0  0  0  0  0  0999 V2000
   -1.4802   -1.6058    0.3674 P   0  0  0  0  0  0  0  0  0  0  0  0
   -1.3827   -1.3751    2.2319 C   0  0  0  0  0  0  0  0  0  0  0  0
   -1.8827    0.0125    2.6362 C   0  0  0  0  0  0  0  0  0  0  0  0
   -0.9905    1.3239    1.6289 P   0  0  2  0  0  0  0  0  0  0  0  0
    0.5824    1.5408    2.6463 C   0  0  0  0  0  0  0  0  0  0  0  0
    1.8524    1.7738    1.8204 C   0  0  0  0  0  0  0  0  0  0  0  0
    1.0867   -0.3287    0.1592 O   0  0  0  0  0  1  0  0  0  0  0  0
    2.3081    0.2478    0.9244 P   0  0  0  0  0  4  0  0  0  0  0  0
   -0.6141   -3.2268    0.1733 C   0  0  0  0  0  0  0  0  0  0  0  0
   -0.9958   -4.3316    0.9634 C   0  0  0  0  0  0  0  0  0  0  0  0
   -0.3063   -5.5481    0.8569 C   0  0  0  0  0  0  0  0  0  0  0  0
    0.7612   -5.6745   -0.0489 C   0  0  0  0  0  0  0  0  0  0  0  0
    1.1272   -4.5839   -0.8528 C   0  0  0  0  0  0  0  0  0  0  0  0
    0.4446   -3.3611   -0.7450 C   0  0  0  0  0  0  0  0  0  0  0  0
   -3.2375   -2.0206    0.0275 C   0  0  0  0  0  0  0  0  0  0  0  0
   -3.6217   -2.0633   -1.3303 C   0  0  0  0  0  0  0  0  0  0  0  0
   -4.9399   -2.3893   -1.6748 C   0  0  0  0  0  0  0  0  0  0  0  0
   -5.8877   -2.6610   -0.6739 C   0  0  0  0  0  0  0  0  0  0  0  0
   -5.5120   -2.6093    0.6766 C   0  0  0  0  0  0  0  0  0  0  0  0
   -4.1898   -2.2927    1.0286 C   0  0  0  0  0  0  0  0  0  0  0  0
   -1.9540    2.8478    1.9900 C   0  0  0  0  0  0  0  0  0  0  0  0
   -2.3759    3.6697    0.9270 C   0  0  0  0  0  0  0  0  0  0  0  0
   -3.1169    4.8319    1.1936 C   0  0  0  0  0  0  0  0  0  0  0  0
   -3.4407    5.1798    2.5135 C   0  0  0  0  0  0  0  0  0  0  0  0
   -3.0229    4.3622    3.5771 C   0  0  0  0  0  0  0  0  0  0  0  0
   -2.2824    3.2005    3.3173 C   0  0  0  0  0  0  0  0  0  0  0  0
    2.8336   -0.9647    2.1832 C   0  0  0  0  0  0  0  0  0  0  0  0
    3.5462   -0.5975    3.3438 C   0  0  0  0  0  0  0  0  0  0  0  0
    3.9261   -1.5788    4.2718 C   0  0  0  0  0  0  0  0  0  0  0  0
    3.5942   -2.9254    4.0496 C   0  0  0  0  0  0  0  0  0  0  0  0
    2.8814   -3.2923    2.8969 C   0  0  0  0  0  0  0  0  0  0  0  0
    2.5012   -2.3171    1.9638 C   0  0  0  0  0  0  0  0  0  0  0  0
    3.6956    0.5575   -0.1940 C   0  0  0  0  0  0  0  0  0  0  0  0
    4.9713    0.8996    0.2997 C   0  0  0  0  0  0  0  0  0  0  0  0
    6.0145    1.1541   -0.6003 C   0  0  0  0  0  0  0  0  0  0  0  0
    5.7854    1.0596   -1.9843 C   0  0  0  0  0  0  0  0  0  0  0  0
    4.5166    0.7088   -2.4697 C   0  0  0  0  0  0  0  0  0  0  0  0
    3.4617    0.4569   -1.5799 C   0  0  0  0  0  0  0  0  0  0  0  0
   -1.9274   -2.1806    2.7651 H   0  0  0  0  0  0  0  0  0  0  0  0
   -0.3073   -1.5064    2.4776 H   0  0  0  0  0  0  0  0  0  0  0  0
   -1.7591    0.1916    3.7251 H   0  0  0  0  0  0  0  0  0  0  0  0
   -2.9603    0.1330    2.3966 H   0  0  0  0  0  0  0  0  0  0  0  0
    0.4047    2.4051    3.3167 H   0  0  0  0  0  0  0  0  0  0  0  0
    0.6911    0.6457    3.2948 H   0  0  0  0  0  0  0  0  0  0  0  0
    2.7059    2.0919    2.4545 H   0  0  0  0  0  0  0  0  0  0  0  0
    1.6982    2.5467    1.0333 H   0  0  0  0  0  0  0  0  0  0  0  0
   -1.8462   -4.2495    1.6583 H   0  0  0  0  0  0  0  0  0  0  0  0
   -0.6102   -6.4052    1.4774 H   0  0  0  0  0  0  0  0  0  0  0  0
    1.2989   -6.6312   -0.1358 H   0  0  0  0  0  0  0  0  0  0  0  0
    1.9514   -4.6804   -1.5760 H   0  0  0  0  0  0  0  0  0  0  0  0
    0.7210   -2.5052   -1.3805 H   0  0  0  0  0  0  0  0  0  0  0  0
   -2.8807   -1.8277   -2.1124 H   0  0  0  0  0  0  0  0  0  0  0  0
   -5.2309   -2.4202   -2.7356 H   0  0  0  0  0  0  0  0  0  0  0  0
   -6.9249   -2.9075   -0.9478 H   0  0  0  0  0  0  0  0  0  0  0  0
   -6.2523   -2.8136    1.4653 H   0  0  0  0  0  0  0  0  0  0  0  0
   -3.9132   -2.2559    2.0930 H   0  0  0  0  0  0  0  0  0  0  0  0
   -2.1104    3.4000   -0.1057 H   0  0  0  0  0  0  0  0  0  0  0  0
   -3.4399    5.4701    0.3575 H   0  0  0  0  0  0  0  0  0  0  0  0
   -4.0215    6.0924    2.7174 H   0  0  0  0  0  0  0  0  0  0  0  0
   -3.2767    4.6298    4.6142 H   0  0  0  0  0  0  0  0  0  0  0  0
   -1.9638    2.5657    4.1599 H   0  0  0  0  0  0  0  0  0  0  0  0
    3.8026    0.4555    3.5374 H   0  0  0  0  0  0  0  0  0  0  0  0
    4.4802   -1.2884    5.1771 H   0  0  0  0  0  0  0  0  0  0  0  0
    3.8909   -3.6913    4.7821 H   0  0  0  0  0  0  0  0  0  0  0  0
    2.6114   -4.3438    2.7162 H   0  0  0  0  0  0  0  0  0  0  0  0
    1.9355   -2.6013    1.0651 H   0  0  0  0  0  0  0  0  0  0  0  0
    5.1587    0.9581    1.3835 H   0  0  0  0  0  0  0  0  0  0  0  0
    7.0118    1.4232   -0.2212 H   0  0  0  0  0  0  0  0  0  0  0  0
    6.6072    1.2604   -2.6887 H   0  0  0  0  0  0  0  0  0  0  0  0
    4.3328    0.6362   -3.5519 H   0  0  0  0  0  0  0  0  0  0  0  0
    2.4620    0.1881   -1.9586 H   0  0  0  0  0  0  0  0  0  0  0  0
  1  2  1  0  0  0  0
  2 40  1  0  0  0  0
  2  3  1  0  0  0  0
  2 39  1  0  0  0  0
  3 41  1  0  0  0  0
  4 21  1  0  0  0  0
  4  3  1  1  0  0  0
  4  5  1  0  0  0  0
  5 44  1  0  0  0  0
  5 43  1  0  0  0  0
  6 45  1  0  0  0  0
  6  5  1  0  0  0  0
  7  8  1  0  0  0  0
  8  6  1  0  0  0  0
  8 27  1  0  0  0  0
  9  1  1  0  0  0  0
  9 10  1  0  0  0  0
 10 47  1  0  0  0  0
 11 10  2  0  0  0  0
 11 48  1  0  0  0  0
 12 11  1  0  0  0  0
 13 14  1  0  0  0  0
 13 12  2  0  0  0  0
 14  9  2  0  0  0  0
 15  1  1  0  0  0  0
 15 20  1  0  0  0  0
 16 15  2  0  0  0  0
 17 16  1  0  0  0  0
 17 18  2  0  0  0  0
 18 19  1  0  0  0  0
 19 20  2  0  0  0  0
 19 55  1  0  0  0  0
 20 56  1  0  0  0  0
 21 26  1  0  0  0  0
 22 23  1  0  0  0  0
 22 21  2  0  0  0  0
 23 24  2  0  0  0  0
 24 59  1  0  0  0  0
 24 25  1  0  0  0  0
 25 60  1  0  0  0  0
 26 25  2  0  0  0  0
 26 61  1  0  0  0  0
 27 28  1  0  0  0  0
 28 62  1  0  0  0  0
 28 29  2  0  0  0  0
 29 63  1  0  0  0  0
 30 29  1  0  0  0  0
 30 64  1  0  0  0  0
 31 30  2  0  0  0  0
 32 27  2  0  0  0  0
 32 31  1  0  0  0  0
 33 34  1  0  0  0  0
 33  8  1  0  0  0  0
 34 67  1  0  0  0  0
 35 68  1  0  0  0  0
 35 34  2  0  0  0  0
 36 35  1  0  0  0  0
 37 36  2  0  0  0  0
 37 38  1  0  0  0  0
 38 33  2  0  0  0  0
 42  3  1  0  0  0  0
 46  6  1  0  0  0  0
 49 12  1  0  0  0  0
 50 13  1  0  0  0  0
 51 14  1  0  0  0  0
 52 16  1  0  0  0  0
 53 17  1  0  0  0  0
 54 18  1  0  0  0  0
 57 22  1  0  0  0  0
 58 23  1  0  0  0  0
 65 31  1  0  0  0  0
 66 32  1  0  0  0  0
 69 36  1  0  0  0  0
 70 37  1  0  0  0  0
 71 38  1  0  0  0  0
M  END
