1,2,3
q = -1.0, confidence = 0.006

 65 69  0  0  0  0  0  0  0  0999 V2000
   -2.2139   -0.0708   -0.1082 P   0  0  0  0  0  0  0  0  0  0  0  0
    2.2141   -0.0694   -0.1083 P   0  0  0  0  0  0  0  0  0  0  0  0
    0.0008   -0.4374   -1.6061 O   0  5  0  0  0  0  0  0  0  0  0  0
   -3.4465    0.8217    0.9332 C   0  0  0  0  0  0  0  0  0  0  0  0
   -3.0639    1.4243    2.1464 C   0  0  0  0  0  0  0  0  0  0  0  0
   -2.0288    1.3374    2.5018 H   0  0  0  0  0  0  0  0  0  0  0  0
   -4.0031    2.1314    2.9150 C   0  0  0  0  0  0  0  0  0  0  0  0
   -3.6889    2.5974    3.8611 H   0  0  0  0  0  0  0  0  0  0  0  0
   -5.3315    2.2425    2.4809 C   0  0  0  0  0  0  0  0  0  0  0  0
   -6.0659    2.7977    3.0841 H   0  0  0  0  0  0  0  0  0  0  0  0
   -5.7240    1.6401    1.2732 C   0  0  0  0  0  0  0  0  0  0  0  0
   -6.7663    1.7193    0.9286 H   0  0  0  0  0  0  0  0  0  0  0  0
   -4.7888    0.9350    0.5045 C   0  0  0  0  0  0  0  0  0  0  0  0
   -5.1091    0.4558   -0.4339 H   0  0  0  0  0  0  0  0  0  0  0  0
   -2.9756   -1.7316   -0.3387 C   0  0  0  0  0  0  0  0  0  0  0  0
   -3.9300   -2.2532    0.5567 C   0  0  0  0  0  0  0  0  0  0  0  0
   -4.3055   -1.6340    1.3847 H   0  0  0  0  0  0  0  0  0  0  0  0
   -4.4042   -3.5647    0.3954 C   0  0  0  0  0  0  0  0  0  0  0  0
   -5.1516   -3.9621    1.0990 H   0  0  0  0  0  0  0  0  0  0  0  0
   -3.9286   -4.3655   -0.6537 C   0  0  0  0  0  0  0  0  0  0  0  0
   -4.3037   -5.3927   -0.7781 H   0  0  0  0  0  0  0  0  0  0  0  0
   -2.9634   -3.8549   -1.5376 C   0  0  0  0  0  0  0  0  0  0  0  0
   -2.5739   -4.4834   -2.3529 H   0  0  0  0  0  0  0  0  0  0  0  0
   -2.4818   -2.5486   -1.3802 C   0  0  0  0  0  0  0  0  0  0  0  0
   -1.6933   -2.1575   -2.0424 H   0  0  0  0  0  0  0  0  0  0  0  0
   -2.4485    0.7401   -1.8246 C   0  0  0  0  0  0  0  0  0  0  0  0
   -2.6831   -0.1130   -2.4936 H   0  0  0  0  0  0  0  0  0  0  0  0
   -3.3401    1.3938   -1.7767 H   0  0  0  0  0  0  0  0  0  0  0  0
   -1.2303    1.4843   -2.2809 C   0  0  0  0  0  0  0  0  0  0  0  0
   -1.2139    2.8188   -2.7152 C   0  0  0  0  0  0  0  0  0  0  0  0
   -2.1679    3.3591   -2.8354 H   0  0  0  0  0  0  0  0  0  0  0  0
   -0.0017    3.4968   -2.9679 C   0  0  0  0  0  0  0  0  0  0  0  0
    1.2115    2.8204   -2.7148 C   0  0  0  0  0  0  0  0  0  0  0  0
    2.1648    3.3620   -2.8347 H   0  0  0  0  0  0  0  0  0  0  0  0
    1.2295    1.4860   -2.2806 C   0  0  0  0  0  0  0  0  0  0  0  0
    0.0000    0.7986   -2.1140 C   0  0  0  0  0  0  0  0  0  0  0  0
    2.4486    0.7435   -1.8237 C   0  0  0  0  0  0  0  0  0  0  0  0
    3.3390    1.3989   -1.7744 H   0  0  0  0  0  0  0  0  0  0  0  0
    2.6856   -0.1084   -2.4934 H   0  0  0  0  0  0  0  0  0  0  0  0
    2.9760   -1.7299   -0.3405 C   0  0  0  0  0  0  0  0  0  0  0  0
    2.4835   -2.5457   -1.3835 C   0  0  0  0  0  0  0  0  0  0  0  0
    1.6958   -2.1538   -2.0461 H   0  0  0  0  0  0  0  0  0  0  0  0
    2.9652   -3.8518   -1.5418 C   0  0  0  0  0  0  0  0  0  0  0  0
    2.5767   -4.4794   -2.3584 H   0  0  0  0  0  0  0  0  0  0  0  0
    3.9293   -4.3635   -0.6574 C   0  0  0  0  0  0  0  0  0  0  0  0
    4.3045   -5.3906   -0.7826 H   0  0  0  0  0  0  0  0  0  0  0  0
    4.4037   -3.5639    0.3932 C   0  0  0  0  0  0  0  0  0  0  0  0
    5.1502   -3.9622    1.0973 H   0  0  0  0  0  0  0  0  0  0  0  0
    3.9292   -2.2526    0.5556 C   0  0  0  0  0  0  0  0  0  0  0  0
    4.3038   -1.6344    1.3847 H   0  0  0  0  0  0  0  0  0  0  0  0
    3.4467    0.8221    0.9339 C   0  0  0  0  0  0  0  0  0  0  0  0
    3.0638    1.4245    2.1471 C   0  0  0  0  0  0  0  0  0  0  0  0
    2.0285    1.3378    2.5021 H   0  0  0  0  0  0  0  0  0  0  0  0
    4.0030    2.1311    2.9162 C   0  0  0  0  0  0  0  0  0  0  0  0
    3.6886    2.5969    3.8623 H   0  0  0  0  0  0  0  0  0  0  0  0
    5.3316    2.2419    2.4826 C   0  0  0  0  0  0  0  0  0  0  0  0
    6.0659    2.7968    3.0863 H   0  0  0  0  0  0  0  0  0  0  0  0
    5.7243    1.6399    1.2749 C   0  0  0  0  0  0  0  0  0  0  0  0
    6.7668    1.7188    0.9307 H   0  0  0  0  0  0  0  0  0  0  0  0
    4.7892    0.9352    0.5057 C   0  0  0  0  0  0  0  0  0  0  0  0
    5.1097    0.4562   -0.4329 H   0  0  0  0  0  0  0  0  0  0  0  0
   -0.0025    4.9166   -3.4791 C   0  0  0  0  0  0  0  0  0  0  0  0
   -0.9005    5.4714   -3.1407 H   0  0  0  0  0  0  0  0  0  0  0  0
    0.0006    4.9511   -4.5908 H   0  0  0  0  0  0  0  0  0  0  0  0
    0.8919    5.4742   -3.1357 H   0  0  0  0  0  0  0  0  0  0  0  0
  1  4  1  0  0  0  0
  2 51  1  0  0  0  0
  4  5  1  0  0  0  0
  5  6  1  0  0  0  0
  5  7  2  0  0  0  0
  7  8  1  0  0  0  0
  9  7  1  0  0  0  0
  9 10  1  0  0  0  0
 11  9  2  0  0  0  0
 12 11  1  0  0  0  0
 13  4  2  0  0  0  0
 13 11  1  0  0  0  0
 14 13  1  0  0  0  0
 15  1  1  0  0  0  0
 15 16  1  0  0  0  0
 16 17  1  0  0  0  0
 18 16  2  0  0  0  0
 18 19  1  0  0  0  0
 20 18  1  0  0  0  0
 21 20  1  0  0  0  0
 22 24  1  0  0  0  0
 22 20  2  0  0  0  0
 23 22  1  0  0  0  0
 24 15  2  0  0  0  0
 25 24  1  0  0  0  0
 26 28  1  0  0  0  0
 26  1  1  0  0  0  0
 27 26  1  0  0  0  0
 29 36  1  0  0  0  0
 29 26  1  0  0  0  0
 30 29  2  0  0  0  0
 31 30  1  0  0  0  0
 32 30  1  0  0  0  0
 32 33  2  0  0  0  0
 33 35  1  0  0  0  0
 34 33  1  0  0  0  0
 35 36  2  0  0  0  0
 35 37  1  0  0  0  0
 36  3  1  0  0  0  0
 37 38  1  0  0  0  0
 37  2  1  0  0  0  0
 39 37  1  0  0  0  0
 40  2  1  0  0  0  0
 40 49  1  0  0  0  0
 41 40  2  0  0  0  0
 42 41  1  0  0  0  0
 43 41  1  0  0  0  0
 43 45  2  0  0  0  0
 44 43  1  0  0  0  0
 45 47  1  0  0  0  0
 46 45  1  0  0  0  0
 47 49  2  0  0  0  0
 47 48  1  0  0  0  0
 49 50  1  0  0  0  0
 51 52  1  0  0  0  0
 52 53  1  0  0  0  0
 52 54  2  0  0  0  0
 54 55  1  0  0  0  0
 56 54  1  0  0  0  0
 56 57  1  0  0  0  0
 58 56  2  0  0  0  0
 59 58  1  0  0  0  0
 60 51  2  0  0  0  0
 60 58  1  0  0  0  0
 61 60  1  0  0  0  0
 62 63  1  0  0  0  0
 62 65  1  0  0  0  0
 62 32  1  0  0  0  0
 64 62  1  0  0  0  0
M  CHG  1   3  -1
M  END
