1
q = -1.0, confidence = 0.064

  3  2  0  0  0  0  0  0  0  0999 V2000
   -0.0078   -0.4549   -2.1199 N   0  0  0  0  0  0  0  0  0  0  0  0
   -0.9562   -1.1981   -2.1633 N   0  0  0  0  0  4  0  0  0  0  0  0
   -1.8745   -1.9308   -2.1942 N   0  0  0  0  0  0  0  0  0  0  0  0
  2  1  2  0  0  0  0
  3  2  2  0  0  0  0
M  END
