1
q = 0.0, confidence = 0.508

 26 28  0  0  1  0  0  0  0  0999 V2000
    0.5148   -0.7107    0.4560 N   0  0  0  0  0  1  0  0  0  0  0  0
    4.2337   -1.2476    0.8117 C   0  0  1  0  0  0  0  0  0  0  0  0
    5.0020   -0.7181    1.4150 H   0  0  0  0  0  0  0  0  0  0  0  0
    1.7372   -2.8262    0.6366 C   0  0  0  0  0  0  0  0  0  0  0  0
    1.4545   -2.9039    1.7073 H   0  0  0  0  0  0  0  0  0  0  0  0
    0.9432   -3.3364    0.0518 H   0  0  0  0  0  0  0  0  0  0  0  0
    1.7664   -1.3260    0.2366 C   0  0  1  0  0  0  0  0  0  0  0  0
    3.1154   -3.4655    0.3834 C   0  0  1  0  0  0  0  0  0  0  0  0
    3.0799   -4.5364    0.6775 H   0  0  0  0  0  0  0  0  0  0  0  0
    4.5828   -1.1330   -0.6848 C   0  0  0  0  0  0  0  0  0  0  0  0
    4.6301   -0.0630   -0.9811 H   0  0  0  0  0  0  0  0  0  0  0  0
    5.5851   -1.5718   -0.8796 H   0  0  0  0  0  0  0  0  0  0  0  0
    2.1401   -1.2183   -1.2724 C   0  0  0  0  0  0  0  0  0  0  0  0
    1.3503   -1.7170   -1.8730 H   0  0  0  0  0  0  0  0  0  0  0  0
    2.1521   -0.1477   -1.5560 H   0  0  0  0  0  0  0  0  0  0  0  0
    2.8630   -0.5948    1.0656 C   0  0  0  0  0  0  0  0  0  0  0  0
    2.5901   -0.6503    2.1402 H   0  0  0  0  0  0  0  0  0  0  0  0
    2.8712    0.4772    0.7827 H   0  0  0  0  0  0  0  0  0  0  0  0
    3.4676   -3.3513   -1.1128 C   0  0  0  0  0  0  0  0  0  0  0  0
    4.4497   -3.8317   -1.3119 H   0  0  0  0  0  0  0  0  0  0  0  0
    2.7128   -3.8907   -1.7247 H   0  0  0  0  0  0  0  0  0  0  0  0
    4.1844   -2.7333    1.2190 C   0  0  0  0  0  0  0  0  0  0  0  0
    5.1784   -3.2052    1.0627 H   0  0  0  0  0  0  0  0  0  0  0  0
    3.9498   -2.8239    2.3014 H   0  0  0  0  0  0  0  0  0  0  0  0
    3.5143   -1.8659   -1.5193 C   0  0  2  0  0  0  0  0  0  0  0  0
    3.7600   -1.7804   -2.5999 H   0  0  0  0  0  0  0  0  0  0  0  0
  2 16  1  0  0  0  0
  2 22  1  0  0  0  0
  2  3  1  1  0  0  0
  4  5  1  0  0  0  0
  6  4  1  0  0  0  0
  7  1  1  1  0  0  0
  7  4  1  0  0  0  0
  7 16  1  0  0  0  0
  8  4  1  0  0  0  0
  8  9  1  1  0  0  0
  8 22  1  0  0  0  0
 10  2  1  0  0  0  0
 11 10  1  0  0  0  0
 12 10  1  0  0  0  0
 13  7  1  0  0  0  0
 14 13  1  0  0  0  0
 15 13  1  0  0  0  0
 16 17  1  0  0  0  0
 18 16  1  0  0  0  0
 19  8  1  0  0  0  0
 20 19  1  0  0  0  0
 21 19  1  0  0  0  0
 22 24  1  0  0  0  0
 23 22  1  0  0  0  0
 25 26  1  6  0  0  0
 25 13  1  0  0  0  0
 25 19  1  0  0  0  0
 25 10  1  0  0  0  0
M  END
