1
q = 0.0, confidence = 0.992

  9  8  0  0  0  0  0  0  0  0999 V2000
   -3.1234   -1.0956   -0.4473 N   0  0  0  0  0  1  0  0  0  0  0  0
   -3.9935   -1.7988   -0.7598 C   0  0  0  0  0  2  0  0  0  0  0  0
   -5.1245   -2.6411   -1.1167 C   0  0  0  0  0  0  0  0  0  0  0  0
   -4.9218   -3.6561   -0.7126 H   0  0  0  0  0  0  0  0  0  0  0  0
   -5.1311   -2.7385   -2.2236 H   0  0  0  0  0  0  0  0  0  0  0  0
   -6.4602   -2.0842   -0.5927 C   0  0  0  0  0  0  0  0  0  0  0  0
   -6.4500   -1.9995    0.5106 H   0  0  0  0  0  0  0  0  0  0  0  0
   -7.2816   -2.7649   -0.8862 H   0  0  0  0  0  0  0  0  0  0  0  0
   -6.6661   -1.0822   -1.0150 H   0  0  0  0  0  0  0  0  0  0  0  0
  2  1  1  0  0  0  0
  3  2  1  0  0  0  0
  3  4  1  0  0  0  0
  3  6  1  0  0  0  0
  5  3  1  0  0  0  0
  6  7  1  0  0  0  0
  8  6  1  0  0  0  0
  9  6  1  0  0  0  0
M  END
