5
q = -1.0

  5  4  0  0  0  0  0  0  0  0999 V2000
   -3.4774    1.7139   -0.9587 Cl  0  0  0  0  0  0  0  0  0  0  0  0
   -3.4705   -1.4782   -1.2982 Cl  0  0  0  0  0  0  0  0  0  0  0  0
   -4.2270   -0.1663    1.5289 Cl  0  0  0  0  0  0  0  0  0  0  0  0
   -2.9112    0.0004   -0.0127 P   0  0  0  0  0  0  0  0  0  0  0  0
   -1.4263   -0.0432    0.4273 N   0  0  0  0  0  0  0  0  0  0  0  0
  1  4  1  0  0  0  0
  2  4  1  0  0  0  0
  4  5  1  0  0  0  0
  4  3  1  0  0  0  0
M  END
