2
q = -1.0, confidence = 0.102

 41 40  0  0  0  0  0  0  0  0999 V2000
   -2.3590   -0.0007    0.0443 P   0  0  0  0  0  4  0  0  0  0  0  0
   -0.7428   -0.0039    0.1663 N   0  0  0  0  0  1  0  0  0  0  0  0
   -2.9844    1.7772    0.4442 C   0  0  0  0  0  0  0  0  0  0  0  0
   -4.4724    1.8142    0.8363 C   0  0  0  0  0  0  0  0  0  0  0  0
   -2.7575    2.7118   -0.7619 C   0  0  0  0  0  0  0  0  0  0  0  0
   -2.1046    2.3267    1.5867 C   0  0  0  0  0  0  0  0  0  0  0  0
   -2.8575   -0.5105   -1.7411 C   0  0  0  0  0  0  0  0  0  0  0  0
   -1.8930    0.1858   -2.7234 C   0  0  0  0  0  0  0  0  0  0  0  0
   -4.3180   -0.1424   -2.0660 C   0  0  0  0  0  0  0  0  0  0  0  0
   -2.6600   -2.0270   -1.9355 C   0  0  0  0  0  0  0  0  0  0  0  0
   -3.0422   -1.2664    1.3254 C   0  0  0  0  0  0  0  0  0  0  0  0
   -2.1375   -2.5147    1.2658 C   0  0  0  0  0  0  0  0  0  0  0  0
   -2.9101   -0.6871    2.7470 C   0  0  0  0  0  0  0  0  0  0  0  0
   -4.5086   -1.6597    1.0759 C   0  0  0  0  0  0  0  0  0  0  0  0
   -4.6879    1.2735    1.7764 H   0  0  0  0  0  0  0  0  0  0  0  0
   -5.1326    1.4133    0.0445 H   0  0  0  0  0  0  0  0  0  0  0  0
   -4.7622    2.8739    0.9981 H   0  0  0  0  0  0  0  0  0  0  0  0
   -1.6961    2.7205   -1.0772 H   0  0  0  0  0  0  0  0  0  0  0  0
   -3.0169    3.7420   -0.4383 H   0  0  0  0  0  0  0  0  0  0  0  0
   -3.4007    2.4739   -1.6283 H   0  0  0  0  0  0  0  0  0  0  0  0
   -1.0436    2.3580    1.2731 H   0  0  0  0  0  0  0  0  0  0  0  0
   -2.1885    1.7513    2.5245 H   0  0  0  0  0  0  0  0  0  0  0  0
   -2.4306    3.3661    1.8005 H   0  0  0  0  0  0  0  0  0  0  0  0
   -1.8646    1.2834   -2.6316 H   0  0  0  0  0  0  0  0  0  0  0  0
   -2.2221   -0.0637   -3.7537 H   0  0  0  0  0  0  0  0  0  0  0  0
   -0.8576   -0.1895   -2.6147 H   0  0  0  0  0  0  0  0  0  0  0  0
   -4.4949    0.9486   -2.0842 H   0  0  0  0  0  0  0  0  0  0  0  0
   -5.0435   -0.6023   -1.3691 H   0  0  0  0  0  0  0  0  0  0  0  0
   -4.5524   -0.5254   -3.0812 H   0  0  0  0  0  0  0  0  0  0  0  0
   -3.3967   -2.6369   -1.3802 H   0  0  0  0  0  0  0  0  0  0  0  0
   -1.6336   -2.3455   -1.6665 H   0  0  0  0  0  0  0  0  0  0  0  0
   -2.8036   -2.2471   -3.0143 H   0  0  0  0  0  0  0  0  0  0  0  0
   -2.2464   -3.0884    0.3311 H   0  0  0  0  0  0  0  0  0  0  0  0
   -2.4121   -3.1828    2.1088 H   0  0  0  0  0  0  0  0  0  0  0  0
   -1.0685   -2.2461    1.3574 H   0  0  0  0  0  0  0  0  0  0  0  0
   -1.8758   -0.3624    2.9584 H   0  0  0  0  0  0  0  0  0  0  0  0
   -3.1627   -1.4905    3.4703 H   0  0  0  0  0  0  0  0  0  0  0  0
   -3.5968    0.1564    2.9436 H   0  0  0  0  0  0  0  0  0  0  0  0
   -4.6494   -2.1871    0.1145 H   0  0  0  0  0  0  0  0  0  0  0  0
   -5.1982   -0.7955    1.1055 H   0  0  0  0  0  0  0  0  0  0  0  0
   -4.8239   -2.3600    1.8781 H   0  0  0  0  0  0  0  0  0  0  0  0
  1  2  1  0  0  0  0
  1  3  1  0  0  0  0
  1 11  1  0  0  0  0
  3  4  1  0  0  0  0
  3  6  1  0  0  0  0
  4 17  1  0  0  0  0
  4 15  1  0  0  0  0
  5 19  1  0  0  0  0
  5  3  1  0  0  0  0
  6 23  1  0  0  0  0
  6 22  1  0  0  0  0
  7  1  1  0  0  0  0
  8 24  1  0  0  0  0
  8 26  1  0  0  0  0
  8  7  1  0  0  0  0
  9  7  1  0  0  0  0
  9 28  1  0  0  0  0
 10  7  1  0  0  0  0
 10 31  1  0  0  0  0
 10 30  1  0  0  0  0
 11 13  1  0  0  0  0
 12 11  1  0  0  0  0
 12 35  1  0  0  0  0
 12 34  1  0  0  0  0
 13 38  1  0  0  0  0
 13 36  1  0  0  0  0
 13 37  1  0  0  0  0
 14 40  1  0  0  0  0
 14 11  1  0  0  0  0
 14 41  1  0  0  0  0
 16  4  1  0  0  0  0
 18  5  1  0  0  0  0
 20  5  1  0  0  0  0
 21  6  1  0  0  0  0
 25  8  1  0  0  0  0
 27  9  1  0  0  0  0
 29  9  1  0  0  0  0
 32 10  1  0  0  0  0
 33 12  1  0  0  0  0
 39 14  1  0  0  0  0
M  END
