1
q = -1.0, confidence = 0.016

 66 68  0  0  1  0  0  0  0  0999 V2000
    0.0353   -0.0554    0.5337 N   0  0  0  0  0  1  0  0  0  0  0  0
    1.5360    1.0619   -1.0000 N   0  0  0  0  0  0  0  0  0  0  0  0
   -0.6333    1.3431   -1.3131 N   0  0  0  0  0  0  0  0  0  0  0  0
    0.2915    0.6968   -0.4885 C   0  0  2  0  0  3  0  0  0  0  0  0
    1.3739    1.9241   -2.0806 C   0  0  0  0  0  0  0  0  0  0  0  0
    2.2328    2.3430   -2.6105 H   0  0  0  0  0  0  0  0  0  0  0  0
    0.0293    2.0997   -2.2742 C   0  0  0  0  0  0  0  0  0  0  0  0
   -0.5147    2.7047   -3.0040 H   0  0  0  0  0  0  0  0  0  0  0  0
    2.7913    0.6446   -0.4418 C   0  0  0  0  0  0  0  0  0  0  0  0
    3.5189   -0.3886   -1.0844 C   0  0  0  0  0  0  0  0  0  0  0  0
    4.7629   -0.7439   -0.5303 C   0  0  0  0  0  0  0  0  0  0  0  0
    5.3535   -1.5401   -1.0061 H   0  0  0  0  0  0  0  0  0  0  0  0
    5.2514   -0.1148    0.6212 C   0  0  0  0  0  0  0  0  0  0  0  0
    6.2251   -0.4138    1.0387 H   0  0  0  0  0  0  0  0  0  0  0  0
    4.5003    0.8855    1.2481 C   0  0  0  0  0  0  0  0  0  0  0  0
    4.8861    1.3667    2.1597 H   0  0  0  0  0  0  0  0  0  0  0  0
    3.2547    1.2885    0.7312 C   0  0  0  0  0  0  0  0  0  0  0  0
    3.0010   -1.0811   -2.3382 C   0  0  0  0  0  0  0  0  0  0  0  0
    1.9033   -0.9255   -2.3688 H   0  0  0  0  0  0  0  0  0  0  0  0
    3.6229   -0.4584   -3.6024 C   0  0  0  0  0  0  0  0  0  0  0  0
    3.4226    0.6290   -3.6759 H   0  0  0  0  0  0  0  0  0  0  0  0
    3.2156   -0.9402   -4.5147 H   0  0  0  0  0  0  0  0  0  0  0  0
    4.7246   -0.5949   -3.6085 H   0  0  0  0  0  0  0  0  0  0  0  0
    3.2249   -2.5996   -2.3085 C   0  0  0  0  0  0  0  0  0  0  0  0
    4.3016   -2.8650   -2.3549 H   0  0  0  0  0  0  0  0  0  0  0  0
    2.7319   -3.0680   -3.1839 H   0  0  0  0  0  0  0  0  0  0  0  0
    2.7752   -3.0429   -1.3999 H   0  0  0  0  0  0  0  0  0  0  0  0
    2.4534    2.3709    1.4427 C   0  0  0  0  0  0  0  0  0  0  0  0
    1.5280    2.5490    0.8593 H   0  0  0  0  0  0  0  0  0  0  0  0
    2.0240    1.8950    2.8405 C   0  0  0  0  0  0  0  0  0  0  0  0
    1.4297    0.9644    2.7597 H   0  0  0  0  0  0  0  0  0  0  0  0
    1.4037    2.6641    3.3437 H   0  0  0  0  0  0  0  0  0  0  0  0
    2.9037    1.6958    3.4869 H   0  0  0  0  0  0  0  0  0  0  0  0
    3.2195    3.7029    1.4984 C   0  0  0  0  0  0  0  0  0  0  0  0
    4.1512    3.6139    2.0945 H   0  0  0  0  0  0  0  0  0  0  0  0
    2.5966    4.4900    1.9708 H   0  0  0  0  0  0  0  0  0  0  0  0
    3.5021    4.0503    0.4842 H   0  0  0  0  0  0  0  0  0  0  0  0
   -2.0474    1.3063   -1.0697 C   0  0  0  0  0  0  0  0  0  0  0  0
   -2.8286    0.3034   -1.6963 C   0  0  0  0  0  0  0  0  0  0  0  0
   -4.2016    0.2698   -1.3874 C   0  0  0  0  0  0  0  0  0  0  0  0
   -4.8378   -0.4963   -1.8529 H   0  0  0  0  0  0  0  0  0  0  0  0
   -4.7658    1.1843   -0.4883 C   0  0  0  0  0  0  0  0  0  0  0  0
   -5.8401    1.1308   -0.2544 H   0  0  0  0  0  0  0  0  0  0  0  0
   -3.9700    2.1676    0.1119 C   0  0  0  0  0  0  0  0  0  0  0  0
   -4.4243    2.8828    0.8139 H   0  0  0  0  0  0  0  0  0  0  0  0
   -2.5936    2.2541   -0.1704 C   0  0  0  0  0  0  0  0  0  0  0  0
   -2.2176   -0.6687   -2.6953 C   0  0  0  0  0  0  0  0  0  0  0  0
   -1.1587   -0.8214   -2.4017 H   0  0  0  0  0  0  0  0  0  0  0  0
   -2.2487   -0.0683   -4.1140 C   0  0  0  0  0  0  0  0  0  0  0  0
   -3.2931    0.1043   -4.4483 H   0  0  0  0  0  0  0  0  0  0  0  0
   -1.7675   -0.7582   -4.8369 H   0  0  0  0  0  0  0  0  0  0  0  0
   -1.7150    0.9012   -4.1669 H   0  0  0  0  0  0  0  0  0  0  0  0
   -2.8703   -2.0556   -2.6730 C   0  0  0  0  0  0  0  0  0  0  0  0
   -2.8518   -2.4831   -1.6523 H   0  0  0  0  0  0  0  0  0  0  0  0
   -2.2980   -2.7461   -3.3230 H   0  0  0  0  0  0  0  0  0  0  0  0
   -3.9165   -2.0372   -3.0443 H   0  0  0  0  0  0  0  0  0  0  0  0
   -1.7293    3.3119    0.5051 C   0  0  0  0  0  0  0  0  0  0  0  0
   -0.7573    3.3401   -0.0293 H   0  0  0  0  0  0  0  0  0  0  0  0
   -1.4340    2.9230    1.9642 C   0  0  0  0  0  0  0  0  0  0  0  0
   -2.3701    2.8828    2.5598 H   0  0  0  0  0  0  0  0  0  0  0  0
   -0.7637    3.6685    2.4393 H   0  0  0  0  0  0  0  0  0  0  0  0
   -0.9473    1.9298    2.0144 H   0  0  0  0  0  0  0  0  0  0  0  0
   -2.3395    4.7183    0.4050 C   0  0  0  0  0  0  0  0  0  0  0  0
   -3.2878    4.7986    0.9752 H   0  0  0  0  0  0  0  0  0  0  0  0
   -2.5539    4.9960   -0.6465 H   0  0  0  0  0  0  0  0  0  0  0  0
   -1.6418    5.4710    0.8249 H   0  0  0  0  0  0  0  0  0  0  0  0
  2  4  1  0  0  0  0
  2  9  1  0  0  0  0
  3 38  1  0  0  0  0
  3  4  1  0  0  0  0
  4  1  1  1  0  0  0
  5  2  1  0  0  0  0
  6  5  1  0  0  0  0
  7  5  2  0  0  0  0
  7  3  1  0  0  0  0
  8  7  1  0  0  0  0
  9 17  1  0  0  0  0
 10 11  1  0  0  0  0
 10  9  2  0  0  0  0
 11 13  2  0  0  0  0
 12 11  1  0  0  0  0
 13 14  1  0  0  0  0
 13 15  1  0  0  0  0
 15 16  1  0  0  0  0
 17 15  2  0  0  0  0
 17 28  1  0  0  0  0
 18 24  1  0  0  0  0
 18 10  1  0  0  0  0
 19 18  1  0  0  0  0
 20 18  1  0  0  0  0
 21 20  1  0  0  0  0
 22 20  1  0  0  0  0
 23 20  1  0  0  0  0
 24 27  1  0  0  0  0
 25 24  1  0  0  0  0
 26 24  1  0  0  0  0
 28 34  1  0  0  0  0
 28 30  1  0  0  0  0
 29 28  1  0  0  0  0
 30 32  1  0  0  0  0
 30 33  1  0  0  0  0
 31 30  1  0  0  0  0
 34 36  1  0  0  0  0
 34 35  1  0  0  0  0
 37 34  1  0  0  0  0
 38 46  1  0  0  0  0
 39 40  1  0  0  0  0
 39 38  2  0  0  0  0
 40 42  2  0  0  0  0
 41 40  1  0  0  0  0
 42 43  1  0  0  0  0
 42 44  1  0  0  0  0
 44 45  1  0  0  0  0
 46 44  2  0  0  0  0
 46 57  1  0  0  0  0
 47 53  1  0  0  0  0
 47 48  1  0  0  0  0
 47 39  1  0  0  0  0
 49 47  1  0  0  0  0
 50 49  1  0  0  0  0
 51 49  1  0  0  0  0
 52 49  1  0  0  0  0
 53 54  1  0  0  0  0
 55 53  1  0  0  0  0
 56 53  1  0  0  0  0
 57 59  1  0  0  0  0
 58 57  1  0  0  0  0
 59 62  1  0  0  0  0
 59 61  1  0  0  0  0
 59 60  1  0  0  0  0
 63 57  1  0  0  0  0
 63 66  1  0  0  0  0
 63 64  1  0  0  0  0
 65 63  1  0  0  0  0
M  END
