1
q = -2.0, confidence = 0.64

 12 12  0  0  0  0  0  0  0  0999 V2000
    1.2222   -1.4420   -0.4343 N   0  0  0  0  0  1  0  0  0  0  0  0
    3.5499   -1.0192    1.3289 Cl  0  0  0  0  0  0  0  0  0  0  0  0
    3.6980    3.9122   -0.9206 Cl  0  0  0  0  0  0  0  0  0  0  0  0
   -0.1343    0.3924   -2.4150 Cl  0  0  0  0  0  0  0  0  0  0  0  0
    1.7820   -0.2159   -0.5685 C   0  0  0  0  0  0  0  0  0  0  0  0
    2.9236    0.1443    0.2133 C   0  0  0  0  0  0  0  0  0  0  0  0
    3.5145    1.4062    0.1112 C   0  0  0  0  0  0  0  0  0  0  0  0
    4.3860    1.6581    0.7285 H   0  0  0  0  0  0  0  0  0  0  0  0
    2.9702    2.3415   -0.7852 C   0  0  0  0  0  0  0  0  0  0  0  0
    1.8474    2.0354   -1.5738 C   0  0  0  0  0  0  0  0  0  0  0  0
    1.4294    2.7761   -2.2670 H   0  0  0  0  0  0  0  0  0  0  0  0
    1.2597    0.7724   -1.4599 C   0  0  0  0  0  0  0  0  0  0  0  0
  3  9  1  0  0  0  0
  4 12  1  0  0  0  0
  5  1  1  0  0  0  0
  5  6  1  0  0  0  0
  6  2  1  0  0  0  0
  7  6  2  0  0  0  0
  7  8  1  0  0  0  0
  9  7  1  0  0  0  0
 10 12  1  0  0  0  0
 10  9  2  0  0  0  0
 11 10  1  0  0  0  0
 12  5  2  0  0  0  0
M  END
