3
q = -1.0

 13 12  0  0  0  0  0  0  0  0999 V2000
    3.3317   -1.1423    0.3269 C   0  0  0  0  0  0  0  0  0  0  0  0
    2.1573   -0.7710   -0.3533 C   0  0  0  0  0  0  0  0  0  0  0  0
    1.0915   -0.5565   -0.8065 N   0  0  0  0  0  0  0  0  0  0  0  0
    3.1250   -2.1909    1.2708 C   0  0  0  0  0  0  0  0  0  0  0  0
    2.8448   -3.0472    2.0305 N   0  0  0  0  0  0  0  0  0  0  0  0
    4.5958   -0.5060    0.1388 C   0  0  0  0  0  0  0  0  0  0  0  0
    5.6647   -0.9662    0.9789 C   0  0  0  0  0  0  0  0  0  0  0  0
    6.5270   -1.3524    1.6748 N   0  0  0  0  0  0  0  0  0  0  0  0
    4.8967    0.5329   -0.7788 C   0  0  0  0  0  0  0  0  0  0  0  0
    6.1939    1.1235   -0.8305 C   0  0  0  0  0  0  0  0  0  0  0  0
    7.2506    1.6374   -0.8964 N   0  0  0  0  0  0  0  0  0  0  0  0
    3.9402    1.0497   -1.6946 C   0  0  0  0  0  0  0  0  0  0  0  0
    3.1763    1.5035   -2.4692 N   0  0  0  0  0  0  0  0  0  0  0  0
  1  4  1  0  0  0  0
  2  1  1  0  0  0  0
  3  2  1  0  0  0  0
  4  5  3  0  0  0  0
  6  1  2  0  0  0  0
  6  7  1  0  0  0  0
  7  8  3  0  0  0  0
  9  6  1  0  0  0  0
 10  9  1  0  0  0  0
 11 10  3  0  0  0  0
 12  9  1  0  0  0  0
 13 12  3  0  0  0  0
M  END
