2
q = -2.0, confidence = 0.524

 16 16  0  0  0  0  0  0  0  0999 V2000
    6.6129   -0.0956    1.5053 O   0  0  0  0  0  0  0  0  0  0  0  0
    1.6551   -0.2183   -0.8927 N   0  0  0  0  0  1  0  0  0  0  0  0
    2.8547   -0.1704   -0.2822 C   0  0  0  0  0  0  0  0  0  0  0  0
    2.9484   -0.0483    1.1394 C   0  0  0  0  0  0  0  0  0  0  0  0
    4.1868   -0.0203    1.7705 C   0  0  0  0  0  0  0  0  0  0  0  0
    5.3754   -0.1121    0.9966 C   0  0  0  0  0  0  0  0  0  0  0  0
    5.2945   -0.2294   -0.4196 C   0  0  0  0  0  0  0  0  0  0  0  0
    4.0626   -0.2585   -1.0486 C   0  0  0  0  0  0  0  0  0  0  0  0
    6.8025    0.0049    2.9168 C   0  0  0  0  0  0  0  0  0  0  0  0
    2.0137    0.0127    1.7159 H   0  0  0  0  0  0  0  0  0  0  0  0
    4.2355    0.0698    2.8637 H   0  0  0  0  0  0  0  0  0  0  0  0
    6.2341   -0.2990   -0.9860 H   0  0  0  0  0  0  0  0  0  0  0  0
    3.9871   -0.3550   -2.1413 H   0  0  0  0  0  0  0  0  0  0  0  0
    6.3842    0.9548    3.3118 H   0  0  0  0  0  0  0  0  0  0  0  0
    7.8945   -0.0092    3.0787 H   0  0  0  0  0  0  0  0  0  0  0  0
    6.3405   -0.8550    3.4459 H   0  0  0  0  0  0  0  0  0  0  0  0
  1  9  1  0  0  0  0
  2  3  1  0  0  0  0
  3  4  1  0  0  0  0
  4 10  1  0  0  0  0
  4  5  2  0  0  0  0
  5 11  1  0  0  0  0
  6  1  1  0  0  0  0
  6  5  1  0  0  0  0
  7  6  2  0  0  0  0
  8  7  1  0  0  0  0
  8  3  2  0  0  0  0
  9 15  1  0  0  0  0
  9 14  1  0  0  0  0
  9 16  1  0  0  0  0
 12  7  1  0  0  0  0
 13  8  1  0  0  0  0
M  END
