1
q = -1.0

 11 10  0  0  0  0  0  0  0  0999 V2000
   -1.5502    2.1705   -0.5933 N   0  0  0  0  0  2  0  0  0  0  0  0
   -3.3523    3.3290   -1.3866 O   0  0  0  0  0  0  0  0  0  0  0  0
   -2.5797    2.2112   -1.3434 C   0  0  0  0  0  0  0  0  0  0  0  0
   -3.1136    1.1302   -2.2441 C   0  0  0  0  0  0  0  0  0  0  0  0
   -3.6834    1.5938   -3.0709 H   0  0  0  0  0  0  0  0  0  0  0  0
   -3.8007    0.4767   -1.6694 H   0  0  0  0  0  0  0  0  0  0  0  0
   -2.2946    0.5081   -2.6421 H   0  0  0  0  0  0  0  0  0  0  0  0
   -2.9660    4.4026   -0.5232 C   0  0  0  0  0  0  0  0  0  0  0  0
   -3.7163    5.1993   -0.6746 H   0  0  0  0  0  0  0  0  0  0  0  0
   -1.9527    4.7740   -0.7824 H   0  0  0  0  0  0  0  0  0  0  0  0
   -2.9564    4.0744    0.5369 H   0  0  0  0  0  0  0  0  0  0  0  0
  2  3  1  0  0  0  0
  2  8  1  0  0  0  0
  3  1  2  0  0  0  0
  4  6  1  0  0  0  0
  4  3  1  0  0  0  0
  5  4  1  0  0  0  0
  7  4  1  0  0  0  0
  8 11  1  0  0  0  0
  9  8  1  0  0  0  0
 10  8  1  0  0  0  0
M  END
