2
q = nan, confidence = 0.0

 53 55  0  0  0  0  0  0  0  0999 V2000
   -0.9430    0.0269    0.1477 P   0  0  0  0  0  4  0  0  0  0  0  0
    0.5971    0.1263   -0.3065 N   0  0  0  0  0  1  0  0  0  0  0  0
   -0.5768   -2.5124    1.2270 C   0  0  0  0  0  0  0  0  0  0  0  0
   -0.5716   -3.4549    2.4378 C   0  0  0  0  0  0  0  0  0  0  0  0
    0.2315   -2.8644    3.6014 C   0  0  0  0  0  0  0  0  0  0  0  0
   -0.3192   -1.4899    3.9955 C   0  0  0  0  0  0  0  0  0  0  0  0
   -0.3271   -0.5253    2.8015 C   0  0  0  0  0  0  0  0  0  0  0  0
   -1.1030   -1.1097    1.6014 C   0  0  0  0  0  0  0  0  0  0  0  0
   -2.9791    1.7709    1.2252 C   0  0  0  0  0  0  0  0  0  0  0  0
   -3.2999    3.1924    1.7138 C   0  0  0  0  0  0  0  0  0  0  0  0
   -3.0782    4.2347    0.6098 C   0  0  0  0  0  0  0  0  0  0  0  0
   -1.6601    4.1495    0.0300 C   0  0  0  0  0  0  0  0  0  0  0  0
   -1.3394    2.7322   -0.4629 C   0  0  0  0  0  0  0  0  0  0  0  0
   -1.5495    1.7035    0.6635 C   0  0  0  0  0  0  0  0  0  0  0  0
   -3.3223   -1.2366   -0.8438 C   0  0  0  0  0  0  0  0  0  0  0  0
   -4.1580   -1.5991   -2.0814 C   0  0  0  0  0  0  0  0  0  0  0  0
   -3.3660   -2.4728   -3.0624 C   0  0  0  0  0  0  0  0  0  0  0  0
   -2.0421   -1.8074   -3.4600 C   0  0  0  0  0  0  0  0  0  0  0  0
   -1.1936   -1.4476   -2.2345 C   0  0  0  0  0  0  0  0  0  0  0  0
   -2.0001   -0.5642   -1.2615 C   0  0  0  0  0  0  0  0  0  0  0  0
   -1.1878   -2.9481    0.4106 H   0  0  0  0  0  0  0  0  0  0  0  0
    0.4574   -2.4052    0.8368 H   0  0  0  0  0  0  0  0  0  0  0  0
   -1.6186   -3.6445    2.7687 H   0  0  0  0  0  0  0  0  0  0  0  0
   -0.1548   -4.4378    2.1349 H   0  0  0  0  0  0  0  0  0  0  0  0
    1.2928   -2.7549    3.2887 H   0  0  0  0  0  0  0  0  0  0  0  0
    0.2183   -3.5517    4.4730 H   0  0  0  0  0  0  0  0  0  0  0  0
    0.2788   -1.0492    4.8204 H   0  0  0  0  0  0  0  0  0  0  0  0
   -1.3566   -1.6041    4.3851 H   0  0  0  0  0  0  0  0  0  0  0  0
    0.7181   -0.3340    2.4759 H   0  0  0  0  0  0  0  0  0  0  0  0
   -0.7613    0.4491    3.1088 H   0  0  0  0  0  0  0  0  0  0  0  0
   -2.1868   -1.1716    1.8536 H   0  0  0  0  0  0  0  0  0  0  0  0
   -3.7014    1.4906    0.4271 H   0  0  0  0  0  0  0  0  0  0  0  0
   -3.1170    1.0408    2.0498 H   0  0  0  0  0  0  0  0  0  0  0  0
   -4.3437    3.2375    2.0888 H   0  0  0  0  0  0  0  0  0  0  0  0
   -2.6449    3.4304    2.5818 H   0  0  0  0  0  0  0  0  0  0  0  0
   -3.8151    4.0613   -0.2069 H   0  0  0  0  0  0  0  0  0  0  0  0
   -3.2788    5.2551    0.9975 H   0  0  0  0  0  0  0  0  0  0  0  0
   -0.9224    4.4365    0.8129 H   0  0  0  0  0  0  0  0  0  0  0  0
   -1.5331    4.8768   -0.7986 H   0  0  0  0  0  0  0  0  0  0  0  0
   -0.3016    2.6613   -0.8451 H   0  0  0  0  0  0  0  0  0  0  0  0
   -2.0090    2.4856   -1.3172 H   0  0  0  0  0  0  0  0  0  0  0  0
   -0.8391    1.9587    1.4831 H   0  0  0  0  0  0  0  0  0  0  0  0
   -3.0979   -2.1647   -0.2748 H   0  0  0  0  0  0  0  0  0  0  0  0
   -3.9085   -0.5852   -0.1637 H   0  0  0  0  0  0  0  0  0  0  0  0
   -5.0923   -2.1097   -1.7669 H   0  0  0  0  0  0  0  0  0  0  0  0
   -4.4708   -0.6613   -2.5938 H   0  0  0  0  0  0  0  0  0  0  0  0
   -3.1506   -3.4539   -2.5820 H   0  0  0  0  0  0  0  0  0  0  0  0
   -3.9788   -2.6939   -3.9612 H   0  0  0  0  0  0  0  0  0  0  0  0
   -2.2569   -0.8809   -4.0396 H   0  0  0  0  0  0  0  0  0  0  0  0
   -1.4593   -2.4671   -4.1355 H   0  0  0  0  0  0  0  0  0  0  0  0
   -0.2526   -0.9412   -2.5265 H   0  0  0  0  0  0  0  0  0  0  0  0
   -0.8788   -2.3780   -1.7150 H   0  0  0  0  0  0  0  0  0  0  0  0
   -2.2492    0.3802   -1.7992 H   0  0  0  0  0  0  0  0  0  0  0  0
  1 14  1  0  0  0  0
  1  8  1  0  0  0  0
  2  1  1  0  0  0  0
  3  8  1  0  0  0  0
  3  4  1  0  0  0  0
  4 23  1  0  0  0  0
  4  5  1  0  0  0  0
  5  6  1  0  0  0  0
  5 26  1  0  0  0  0
  6 28  1  0  0  0  0
  6 27  1  0  0  0  0
  7 30  1  0  0  0  0
  7  6  1  0  0  0  0
  8 31  1  0  0  0  0
  8  7  1  0  0  0  0
  9 10  1  0  0  0  0
  9 33  1  0  0  0  0
 10 34  1  0  0  0  0
 10 35  1  0  0  0  0
 11 37  1  0  0  0  0
 11 10  1  0  0  0  0
 12 11  1  0  0  0  0
 12 38  1  0  0  0  0
 13 12  1  0  0  0  0
 13 14  1  0  0  0  0
 14  9  1  0  0  0  0
 14 42  1  0  0  0  0
 15 43  1  0  0  0  0
 15 44  1  0  0  0  0
 16 45  1  0  0  0  0
 16 15  1  0  0  0  0
 17 47  1  0  0  0  0
 17 16  1  0  0  0  0
 18 17  1  0  0  0  0
 18 19  1  0  0  0  0
 19 52  1  0  0  0  0
 19 20  1  0  0  0  0
 20 15  1  0  0  0  0
 20  1  1  0  0  0  0
 21  3  1  0  0  0  0
 22  3  1  0  0  0  0
 24  4  1  0  0  0  0
 25  5  1  0  0  0  0
 29  7  1  0  0  0  0
 32  9  1  0  0  0  0
 36 11  1  0  0  0  0
 39 12  1  0  0  0  0
 40 13  1  0  0  0  0
 41 13  1  0  0  0  0
 46 16  1  0  0  0  0
 48 17  1  0  0  0  0
 49 18  1  0  0  0  0
 50 18  1  0  0  0  0
 51 19  1  0  0  0  0
 53 20  1  0  0  0  0
M  END
