1
q = 0.0, confidence = 0.606

 15 14  0  0  0  0  0  0  0  0999 V2000
   -1.4077    0.0044    0.2360 N   0  0  0  0  0  1  0  0  0  0  0  0
   -2.5641    0.0513    0.9146 O   0  0  0  0  0  0  0  0  0  0  0  0
   -3.7575   -0.0016    0.0273 C   0  0  0  0  0  0  0  0  0  0  0  0
   -4.9197    0.0533    1.0142 C   0  0  0  0  0  0  0  0  0  0  0  0
   -3.7256    1.2162   -0.8981 C   0  0  0  0  0  0  0  0  0  0  0  0
   -3.7216   -1.3166   -0.7534 C   0  0  0  0  0  0  0  0  0  0  0  0
   -4.8829   -0.8094    1.7088 H   0  0  0  0  0  0  0  0  0  0  0  0
   -5.8842    0.0251    0.4704 H   0  0  0  0  0  0  0  0  0  0  0  0
   -4.8804    0.9863    1.6109 H   0  0  0  0  0  0  0  0  0  0  0  0
   -2.7903    1.2263   -1.4922 H   0  0  0  0  0  0  0  0  0  0  0  0
   -4.5897    1.1970   -1.5918 H   0  0  0  0  0  0  0  0  0  0  0  0
   -3.7732    2.1539   -0.3081 H   0  0  0  0  0  0  0  0  0  0  0  0
   -2.7919   -1.3863   -1.3520 H   0  0  0  0  0  0  0  0  0  0  0  0
   -3.7531   -2.1806   -0.0592 H   0  0  0  0  0  0  0  0  0  0  0  0
   -4.5927   -1.3843   -1.4351 H   0  0  0  0  0  0  0  0  0  0  0  0
  1  2  1  0  0  0  0
  3  2  1  0  0  0  0
  3  4  1  0  0  0  0
  4  9  1  0  0  0  0
  4  7  1  0  0  0  0
  5 12  1  0  0  0  0
  5  3  1  0  0  0  0
  6 14  1  0  0  0  0
  6  3  1  0  0  0  0
  8  4  1  0  0  0  0
 10  5  1  0  0  0  0
 11  5  1  0  0  0  0
 13  6  1  0  0  0  0
 15  6  1  0  0  0  0
M  END
