1
q = -1.0

 22 22  0  0  0  0  0  0  0  0999 V2000
   -0.1964   -1.1922   -0.2679 N   0  0  0  0  0  1  0  0  0  0  0  0
    0.7611   -1.9502   -0.2948 N   0  0  0  0  0  2  0  0  0  0  0  0
    2.0852   -1.5017   -0.2793 C   0  0  0  0  0  0  0  0  0  0  0  0
    3.1092   -2.4791   -0.2716 C   0  0  0  0  0  0  0  0  0  0  0  0
    4.4452   -2.0853   -0.2630 C   0  0  0  0  0  0  0  0  0  0  0  0
    4.7891   -0.7142   -0.2641 C   0  0  0  0  0  0  0  0  0  0  0  0
    3.7590    0.2566   -0.2719 C   0  0  0  0  0  0  0  0  0  0  0  0
    2.4172   -0.1205   -0.2798 C   0  0  0  0  0  0  0  0  0  0  0  0
    6.2277   -0.3577   -0.2531 C   0  0  0  0  0  0  0  0  0  0  0  0
    7.1535   -1.1595   -0.2389 O   0  0  0  0  0  0  0  0  0  0  0  0
    6.4241    0.9959   -0.2636 O   0  0  0  0  0  0  0  0  0  0  0  0
    7.7900    1.4372   -0.2271 C   0  0  0  0  0  0  0  0  0  0  0  0
    8.3249    1.4908    1.1968 C   0  0  0  0  0  0  0  0  0  0  0  0
    2.8212   -3.5401   -0.2697 H   0  0  0  0  0  0  0  0  0  0  0  0
    5.2590   -2.8253   -0.2549 H   0  0  0  0  0  0  0  0  0  0  0  0
    4.0263    1.3224   -0.2695 H   0  0  0  0  0  0  0  0  0  0  0  0
    1.6105    0.6336   -0.2859 H   0  0  0  0  0  0  0  0  0  0  0  0
    8.4068    0.7554   -0.8487 H   0  0  0  0  0  0  0  0  0  0  0  0
    7.7766    2.4434   -0.6918 H   0  0  0  0  0  0  0  0  0  0  0  0
    9.3505    1.9135    1.2068 H   0  0  0  0  0  0  0  0  0  0  0  0
    8.3657    0.4725    1.6298 H   0  0  0  0  0  0  0  0  0  0  0  0
    7.6801    2.1246    1.8379 H   0  0  0  0  0  0  0  0  0  0  0  0
  2  3  1  0  0  0  0
  2  1  1  0  0  0  0
  3  4  1  0  0  0  0
  4 14  1  0  0  0  0
  4  5  2  0  0  0  0
  5 15  1  0  0  0  0
  6  5  1  0  0  0  0
  6  9  1  0  0  0  0
  7 16  1  0  0  0  0
  7  6  2  0  0  0  0
  8  3  2  0  0  0  0
  8  7  1  0  0  0  0
  9 10  2  0  0  0  0
 11  9  1  0  0  0  0
 11 12  1  0  0  0  0
 12 13  1  0  0  0  0
 13 20  1  0  0  0  0
 13 21  1  0  0  0  0
 13 22  1  0  0  0  0
 17  8  1  0  0  0  0
 18 12  1  0  0  0  0
 19 12  1  0  0  0  0
M  END
