1
q = -1.0

  7  6  0  0  0  0  0  0  0  0999 V2000
    0.5157    1.2689   -1.3211 N   0  0  0  0  0  0  0  0  0  0  0  0
    1.0098    2.2844   -1.6762 C   0  0  0  0  0  0  0  0  0  0  0  0
    1.7697    3.4265   -1.9567 C   0  0  0  0  0  0  0  0  0  0  0  0
    3.0018    3.4779   -1.2602 C   0  0  0  0  0  0  0  0  0  0  0  0
    1.3060    4.4839   -2.7856 C   0  0  0  0  0  0  0  0  0  0  0  0
    0.9167    5.3562   -3.4749 N   0  0  0  0  0  0  0  0  0  0  0  0
    3.9938    3.4379   -0.6193 N   0  0  0  0  0  0  0  0  0  0  0  0
  2  1  1  0  0  0  0
  3  2  1  0  0  0  0
  3  4  1  0  0  0  0
  4  7  3  0  0  0  0
  5  3  1  0  0  0  0
  6  5  3  0  0  0  0
M  END
