1
q = -1.0, confidence = 0.104

 34 34  0  0  1  0  0  0  0  0999 V2000
    0.0353    1.8039   -0.9776 N   0  0  0  0  0  1  0  0  0  0  0  0
    1.2102    3.9280   -1.0272 N   0  0  0  0  0  0  0  0  0  0  0  0
   -1.0119    3.9828   -1.0575 N   0  0  0  0  0  0  0  0  0  0  0  0
    0.0776    3.1192   -0.9851 C   0  0  1  0  0  3  0  0  0  0  0  0
    0.8143    5.2559   -1.1302 C   0  0  0  0  0  0  0  0  0  0  0  0
    1.5256    6.0800   -1.1872 H   0  0  0  0  0  0  0  0  0  0  0  0
   -0.5504    5.2895   -1.1504 C   0  0  0  0  0  0  0  0  0  0  0  0
   -1.2188    6.1470   -1.2301 H   0  0  0  0  0  0  0  0  0  0  0  0
    2.6197    3.4589   -0.8340 C   0  0  0  0  0  0  0  0  0  0  0  0
    2.7458    2.9306    0.6048 C   0  0  0  0  0  0  0  0  0  0  0  0
    2.5181    3.7353    1.3320 H   0  0  0  0  0  0  0  0  0  0  0  0
    3.7757    2.5709    0.7892 H   0  0  0  0  0  0  0  0  0  0  0  0
    2.0490    2.0923    0.7906 H   0  0  0  0  0  0  0  0  0  0  0  0
    3.5760    4.6464   -1.0221 C   0  0  0  0  0  0  0  0  0  0  0  0
    3.4914    5.0932   -2.0329 H   0  0  0  0  0  0  0  0  0  0  0  0
    4.6118    4.2749   -0.9062 H   0  0  0  0  0  0  0  0  0  0  0  0
    3.4225    5.4359   -0.2602 H   0  0  0  0  0  0  0  0  0  0  0  0
    2.9594    2.3906   -1.8875 C   0  0  0  0  0  0  0  0  0  0  0  0
    2.3207    1.4959   -1.7988 H   0  0  0  0  0  0  0  0  0  0  0  0
    4.0107    2.0704   -1.7599 H   0  0  0  0  0  0  0  0  0  0  0  0
    2.8425    2.8055   -2.9085 H   0  0  0  0  0  0  0  0  0  0  0  0
   -2.4491    3.5650   -1.0167 C   0  0  0  0  0  0  0  0  0  0  0  0
   -3.3402    4.8090   -1.1485 C   0  0  0  0  0  0  0  0  0  0  0  0
   -3.1938    5.5195   -0.3110 H   0  0  0  0  0  0  0  0  0  0  0  0
   -4.3963    4.4798   -1.1226 H   0  0  0  0  0  0  0  0  0  0  0  0
   -3.1797    5.3388   -2.1085 H   0  0  0  0  0  0  0  0  0  0  0  0
   -2.7266    2.9009    0.3439 C   0  0  0  0  0  0  0  0  0  0  0  0
   -2.1083    1.9985    0.4997 H   0  0  0  0  0  0  0  0  0  0  0  0
   -3.7885    2.5987    0.4090 H   0  0  0  0  0  0  0  0  0  0  0  0
   -2.5091    3.6103    1.1671 H   0  0  0  0  0  0  0  0  0  0  0  0
   -2.7256    2.6309   -2.2081 C   0  0  0  0  0  0  0  0  0  0  0  0
   -2.5157    3.1572   -3.1607 H   0  0  0  0  0  0  0  0  0  0  0  0
   -3.7869    2.3207   -2.2027 H   0  0  0  0  0  0  0  0  0  0  0  0
   -2.1019    1.7211   -2.1637 H   0  0  0  0  0  0  0  0  0  0  0  0
  2  4  1  0  0  0  0
  2  9  1  0  0  0  0
  3 22  1  0  0  0  0
  3  4  1  0  0  0  0
  4  1  1  6  0  0  0
  5  2  1  0  0  0  0
  6  5  1  0  0  0  0
  7  5  2  0  0  0  0
  7  3  1  0  0  0  0
  8  7  1  0  0  0  0
  9 10  1  0  0  0  0
 10 12  1  0  0  0  0
 10 13  1  0  0  0  0
 10 11  1  0  0  0  0
 14 16  1  0  0  0  0
 14  9  1  0  0  0  0
 14 17  1  0  0  0  0
 15 14  1  0  0  0  0
 18 19  1  0  0  0  0
 18 20  1  0  0  0  0
 18  9  1  0  0  0  0
 21 18  1  0  0  0  0
 22 27  1  0  0  0  0
 23 25  1  0  0  0  0
 23 22  1  0  0  0  0
 23 24  1  0  0  0  0
 26 23  1  0  0  0  0
 27 29  1  0  0  0  0
 27 28  1  0  0  0  0
 27 30  1  0  0  0  0
 31 33  1  0  0  0  0
 31 34  1  0  0  0  0
 31 22  1  0  0  0  0
 32 31  1  0  0  0  0
M  END
