1
q = -1.0, confidence = 0.002

 13 12  0  0  0  0  0  0  0  0999 V2000
    3.1030   -0.7457   -0.9688 N   0  0  0  0  0  1  0  0  0  0  0  0
    3.7856   -1.8146   -0.9952 C   0  0  0  0  0  3  0  0  0  0  0  0
    4.8982   -1.7020   -0.9580 H   0  0  0  0  0  0  0  0  0  0  0  0
    3.2744   -3.2585   -1.0535 C   0  0  0  0  0  0  0  0  0  0  0  0
    4.1777   -3.9043   -1.1061 H   0  0  0  0  0  0  0  0  0  0  0  0
    2.5135   -3.6149    0.2336 C   0  0  0  0  0  0  0  0  0  0  0  0
    3.1437   -3.4674    1.1326 H   0  0  0  0  0  0  0  0  0  0  0  0
    2.1744   -4.6707    0.2110 H   0  0  0  0  0  0  0  0  0  0  0  0
    1.6212   -2.9682    0.3458 H   0  0  0  0  0  0  0  0  0  0  0  0
    2.4355   -3.5021   -2.3168 C   0  0  0  0  0  0  0  0  0  0  0  0
    3.0291   -3.3211   -3.2353 H   0  0  0  0  0  0  0  0  0  0  0  0
    1.5619   -2.8224   -2.3403 H   0  0  0  0  0  0  0  0  0  0  0  0
    2.0655   -4.5476   -2.3460 H   0  0  0  0  0  0  0  0  0  0  0  0
  2  1  1  0  0  0  0
  2  3  1  0  0  0  0
  4  2  1  0  0  0  0
  4  6  1  0  0  0  0
  5  4  1  0  0  0  0
  6  9  1  0  0  0  0
  6  7  1  0  0  0  0
  8  6  1  0  0  0  0
 10  4  1  0  0  0  0
 11 10  1  0  0  0  0
 12 10  1  0  0  0  0
 13 10  1  0  0  0  0
M  END
