1
q = -1.0, confidence = 0.002

  6  5  0  0  0  0  0  0  0  0999 V2000
   -0.1952   -2.2460    0.0303 N   0  0  0  0  0  1  0  0  0  0  0  0
   -0.6756   -4.1454   -1.8735 B   0  0  0  0  0  0  0  0  0  0  0  0
   -0.8462   -3.4472   -2.8939 H   0  0  0  0  0  0  0  0  0  0  0  0
    0.2800   -4.9091   -2.0248 H   0  0  0  0  0  0  0  0  0  0  0  0
   -1.7146   -4.7522   -1.5916 H   0  0  0  0  0  0  0  0  0  0  0  0
   -0.3728   -3.1232   -0.7414 C   0  0  0  0  0  2  0  0  0  0  0  0
  2  5  1  0  0  0  0
  2  6  1  0  0  0  0
  3  2  1  0  0  0  0
  4  2  1  0  0  0  0
  6  1  1  0  0  0  0
M  END
