1
q = 0.0, confidence = 0.998

 10  9  0  0  0  0  0  0  0  0999 V2000
   -2.3440    0.0000   -0.2771 N   0  0  0  0  0  1  0  0  0  0  0  0
   -3.5229   -0.0001   -0.4258 C   0  0  0  0  0  2  0  0  0  0  0  0
   -4.7821   -0.0003   -0.7173 N   0  0  0  0  0  2  0  0  0  0  0  0
   -5.7684    0.0000    0.1764 C   0  0  0  0  0  0  0  0  0  0  0  0
   -5.5644    0.0004    1.5170 N   0  0  0  0  0  0  0  0  0  0  0  0
   -7.0343   -0.0002   -0.2948 N   0  0  0  0  0  4  0  0  0  0  0  0
   -4.6109    0.0005    1.8769 H   0  0  0  0  0  0  0  0  0  0  0  0
   -6.3286    0.0008    2.1901 H   0  0  0  0  0  0  0  0  0  0  0  0
   -7.8518    0.0001    0.3106 H   0  0  0  0  0  0  0  0  0  0  0  0
   -7.1654   -0.0004   -1.3056 H   0  0  0  0  0  0  0  0  0  0  0  0
  2  1  1  0  0  0  0
  3  2  1  0  0  0  0
  3  4  1  0  0  0  0
  4  5  1  0  0  0  0
  5  7  1  0  0  0  0
  5  8  1  0  0  0  0
  6  4  2  0  0  0  0
  6  9  1  0  0  0  0
 10  6  1  0  0  0  0
M  END
