2
q = -1.0

 35 35  0  0  0  0  0  0  0  0999 V2000
    0.8774    1.4468    0.2036 P   0  0  0  0  0  4  0  0  0  0  0  0
   -0.1485    0.2213    0.3473 N   0  0  0  0  0  1  0  0  0  0  0  0
    3.7285   -0.7615   -0.3014 N   0  0  0  0  0  0  0  0  0  0  0  0
    1.5215    0.7626   -2.4195 C   0  0  0  0  0  0  0  0  0  0  0  0
    1.5258    1.0588   -3.4884 H   0  0  0  0  0  0  0  0  0  0  0  0
    0.8095   -0.0770   -2.3045 H   0  0  0  0  0  0  0  0  0  0  0  0
    2.5367    0.4089   -2.1476 H   0  0  0  0  0  0  0  0  0  0  0  0
    2.0081    3.1750   -1.7220 C   0  0  0  0  0  0  0  0  0  0  0  0
    2.0192    3.4942   -2.7844 H   0  0  0  0  0  0  0  0  0  0  0  0
    3.0561    2.9378   -1.4453 H   0  0  0  0  0  0  0  0  0  0  0  0
    1.6791    4.0456   -1.1201 H   0  0  0  0  0  0  0  0  0  0  0  0
    1.0909    1.9586   -1.5623 C   0  0  0  0  0  0  0  0  0  0  0  0
    0.0474    2.2235   -1.8451 H   0  0  0  0  0  0  0  0  0  0  0  0
   -0.0459    2.4421    2.6144 C   0  0  0  0  0  0  0  0  0  0  0  0
   -0.3499    3.3140    3.2287 H   0  0  0  0  0  0  0  0  0  0  0  0
    0.8111    1.9600    3.1270 H   0  0  0  0  0  0  0  0  0  0  0  0
   -0.8893    1.7229    2.5892 H   0  0  0  0  0  0  0  0  0  0  0  0
   -0.9162    3.5655    0.5150 C   0  0  0  0  0  0  0  0  0  0  0  0
   -1.2921    4.3919    1.1520 H   0  0  0  0  0  0  0  0  0  0  0  0
   -1.7395    2.8341    0.3882 H   0  0  0  0  0  0  0  0  0  0  0  0
   -0.6736    3.9910   -0.4780 H   0  0  0  0  0  0  0  0  0  0  0  0
    0.2953    2.9087    1.1914 C   0  0  0  0  0  0  0  0  0  0  0  0
    1.1530    3.6192    1.2178 H   0  0  0  0  0  0  0  0  0  0  0  0
    2.5550    1.0089    0.8906 C   0  0  0  0  0  0  0  0  0  0  0  0
    3.3222    1.6370    0.3985 H   0  0  0  0  0  0  0  0  0  0  0  0
    2.5215    1.2665    1.9677 H   0  0  0  0  0  0  0  0  0  0  0  0
    2.8790   -0.4497    0.6957 C   0  0  0  0  0  0  0  0  0  0  0  0
    2.2702   -1.4316    1.5063 C   0  0  0  0  0  0  0  0  0  0  0  0
    1.5618   -1.1330    2.2921 H   0  0  0  0  0  0  0  0  0  0  0  0
    4.0075   -2.0572   -0.5170 C   0  0  0  0  0  0  0  0  0  0  0  0
    4.7093   -2.2732   -1.3421 H   0  0  0  0  0  0  0  0  0  0  0  0
    3.4562   -3.1054    0.2361 C   0  0  0  0  0  0  0  0  0  0  0  0
    3.7170   -4.1505    0.0131 H   0  0  0  0  0  0  0  0  0  0  0  0
    2.5663   -2.7790    1.2707 C   0  0  0  0  0  0  0  0  0  0  0  0
    2.1018   -3.5675    1.8824 H   0  0  0  0  0  0  0  0  0  0  0  0
  1  2  1  0  0  0  0
  1 24  1  0  0  0  0
  1 22  1  0  0  0  0
  3 27  1  0  0  0  0
  4  6  1  0  0  0  0
  4  7  1  0  0  0  0
  4 12  1  0  0  0  0
  5  4  1  0  0  0  0
  8 12  1  0  0  0  0
  8 10  1  0  0  0  0
  8 11  1  0  0  0  0
  9  8  1  0  0  0  0
 12  1  1  0  0  0  0
 13 12  1  0  0  0  0
 14 16  1  0  0  0  0
 14 15  1  0  0  0  0
 17 14  1  0  0  0  0
 18 19  1  0  0  0  0
 18 22  1  0  0  0  0
 20 18  1  0  0  0  0
 21 18  1  0  0  0  0
 22 23  1  0  0  0  0
 22 14  1  0  0  0  0
 24 26  1  0  0  0  0
 25 24  1  0  0  0  0
 27 24  1  0  0  0  0
 27 28  2  0  0  0  0
 28 29  1  0  0  0  0
 30  3  2  0  0  0  0
 30 32  1  0  0  0  0
 31 30  1  0  0  0  0
 32 34  2  0  0  0  0
 33 32  1  0  0  0  0
 34 28  1  0  0  0  0
 34 35  1  0  0  0  0
M  END
