1
q = -1.0, confidence = 0.0

 26 26  0  0  1  0  0  0  0  0999 V2000
    1.5623    0.1295   -0.8739 N   0  0  0  0  0  1  0  0  0  0  0  0
    3.5292   -1.5382    2.9445 C   0  0  0  0  0  0  0  0  0  0  0  0
    3.8264   -1.2341    3.9597 H   0  0  0  0  0  0  0  0  0  0  0  0
    4.7842   -0.1724   -1.8070 C   0  0  0  0  0  0  0  0  0  0  0  0
    4.2112   -0.7736   -2.5410 H   0  0  0  0  0  0  0  0  0  0  0  0
    5.6062    0.3470   -2.3416 H   0  0  0  0  0  0  0  0  0  0  0  0
    5.2355   -0.8596   -1.0635 H   0  0  0  0  0  0  0  0  0  0  0  0
    3.3922   -0.5665    1.9415 C   0  0  0  0  0  0  0  0  0  0  0  0
    3.5498    0.4954    2.1759 H   0  0  0  0  0  0  0  0  0  0  0  0
    3.0023   -0.9496    0.6409 C   0  0  0  0  0  0  0  0  0  0  0  0
    2.7360   -2.3070    0.3592 C   0  0  0  0  0  0  0  0  0  0  0  0
    2.3922   -2.5846   -0.6485 H   0  0  0  0  0  0  0  0  0  0  0  0
    2.8770   -3.2707    1.3672 C   0  0  0  0  0  0  0  0  0  0  0  0
    2.6623   -4.3263    1.1422 H   0  0  0  0  0  0  0  0  0  0  0  0
    2.7511    0.0640   -0.4352 C   0  0  1  0  0  3  0  0  0  0  0  0
    3.8658    0.8720   -1.1344 C   0  0  0  0  0  0  0  0  0  0  0  0
    3.2740   -2.8899    2.6598 C   0  0  0  0  0  0  0  0  0  0  0  0
    3.3795   -3.6482    3.4507 H   0  0  0  0  0  0  0  0  0  0  0  0
    3.2426    1.7791   -2.2083 C   0  0  0  0  0  0  0  0  0  0  0  0
    2.6662    1.1870   -2.9458 H   0  0  0  0  0  0  0  0  0  0  0  0
    2.5552    2.5202   -1.7578 H   0  0  0  0  0  0  0  0  0  0  0  0
    4.0447    2.3266   -2.7424 H   0  0  0  0  0  0  0  0  0  0  0  0
    4.6557    1.7086   -0.1124 C   0  0  0  0  0  0  0  0  0  0  0  0
    5.1811    1.0718    0.6260 H   0  0  0  0  0  0  0  0  0  0  0  0
    5.4250    2.3033   -0.6467 H   0  0  0  0  0  0  0  0  0  0  0  0
    3.9937    2.4134    0.4297 H   0  0  0  0  0  0  0  0  0  0  0  0
  2  3  1  0  0  0  0
  4 16  1  0  0  0  0
  4  7  1  0  0  0  0
  5  4  1  0  0  0  0
  6  4  1  0  0  0  0
  8  9  1  0  0  0  0
  8  2  2  0  0  0  0
 10  8  1  0  0  0  0
 11 10  2  0  0  0  0
 11 13  1  0  0  0  0
 12 11  1  0  0  0  0
 13 17  2  0  0  0  0
 14 13  1  0  0  0  0
 15  1  1  6  0  0  0
 15 10  1  0  0  0  0
 16 15  1  0  0  0  0
 16 23  1  0  0  0  0
 17  2  1  0  0  0  0
 17 18  1  0  0  0  0
 19 21  1  0  0  0  0
 19 16  1  0  0  0  0
 20 19  1  0  0  0  0
 22 19  1  0  0  0  0
 23 26  1  0  0  0  0
 23 24  1  0  0  0  0
 25 23  1  0  0  0  0
M  END
