2
q = -1.0

 30 30  0  0  1  0  0  0  0  0999 V2000
   -6.6198    0.2852   -1.8280 O   0  0  0  0  0  0  0  0  0  0  0  0
   -0.9003   -1.1614    0.1762 N   0  0  0  0  0  1  0  0  0  0  0  0
   -7.6816    0.9128   -1.1348 C   0  0  0  0  0  0  0  0  0  0  0  0
   -8.4412    1.1732   -1.8949 H   0  0  0  0  0  0  0  0  0  0  0  0
   -8.1424    0.2365   -0.3802 H   0  0  0  0  0  0  0  0  0  0  0  0
   -7.3502    1.8441   -0.6222 H   0  0  0  0  0  0  0  0  0  0  0  0
   -1.8191   -2.4998    2.0166 C   0  0  0  0  0  0  0  0  0  0  0  0
   -3.2223   -1.1068    0.1801 C   0  0  0  0  0  0  0  0  0  0  0  0
   -2.9288   -3.5633    1.9190 C   0  0  0  0  0  0  0  0  0  0  0  0
   -2.8383   -4.1440    0.9796 H   0  0  0  0  0  0  0  0  0  0  0  0
   -2.8404   -4.2679    2.7710 H   0  0  0  0  0  0  0  0  0  0  0  0
   -3.9399   -3.1122    1.9475 H   0  0  0  0  0  0  0  0  0  0  0  0
   -5.5436   -0.1436   -1.1183 C   0  0  0  0  0  0  0  0  0  0  0  0
   -1.9380   -1.5633    0.7931 C   0  0  2  0  0  3  0  0  0  0  0  0
   -0.4402   -3.1839    1.9834 C   0  0  0  0  0  0  0  0  0  0  0  0
   -0.2834   -3.7160    1.0242 H   0  0  0  0  0  0  0  0  0  0  0  0
    0.3790   -2.4474    2.0886 H   0  0  0  0  0  0  0  0  0  0  0  0
   -0.3643   -3.9077    2.8195 H   0  0  0  0  0  0  0  0  0  0  0  0
   -5.4046   -0.0071    0.2804 C   0  0  0  0  0  0  0  0  0  0  0  0
   -6.1874    0.4717    0.8834 H   0  0  0  0  0  0  0  0  0  0  0  0
   -4.2482   -0.4830    0.9164 C   0  0  0  0  0  0  0  0  0  0  0  0
   -4.1446   -0.3442    2.0015 H   0  0  0  0  0  0  0  0  0  0  0  0
   -1.9601   -1.6806    3.3177 C   0  0  0  0  0  0  0  0  0  0  0  0
   -2.9680   -1.2345    3.4276 H   0  0  0  0  0  0  0  0  0  0  0  0
   -1.7967   -2.3451    4.1914 H   0  0  0  0  0  0  0  0  0  0  0  0
   -1.2104   -0.8672    3.3615 H   0  0  0  0  0  0  0  0  0  0  0  0
   -4.5142   -0.7624   -1.8625 C   0  0  0  0  0  0  0  0  0  0  0  0
   -4.6391   -0.8590   -2.9504 H   0  0  0  0  0  0  0  0  0  0  0  0
   -3.3687   -1.2336   -1.2254 C   0  0  0  0  0  0  0  0  0  0  0  0
   -2.5655   -1.7190   -1.8022 H   0  0  0  0  0  0  0  0  0  0  0  0
  1  3  1  0  0  0  0
  1 13  1  0  0  0  0
  3  6  1  0  0  0  0
  3  5  1  0  0  0  0
  4  3  1  0  0  0  0
  7 23  1  0  0  0  0
  8 14  1  0  0  0  0
  8 21  1  0  0  0  0
  9 12  1  0  0  0  0
  9  7  1  0  0  0  0
  9 11  1  0  0  0  0
 10  9  1  0  0  0  0
 13 19  1  0  0  0  0
 14  2  1  6  0  0  0
 14  7  1  0  0  0  0
 15  7  1  0  0  0  0
 15 17  1  0  0  0  0
 15 18  1  0  0  0  0
 16 15  1  0  0  0  0
 19 20  1  0  0  0  0
 19 21  2  0  0  0  0
 21 22  1  0  0  0  0
 23 26  1  0  0  0  0
 23 24  1  0  0  0  0
 23 25  1  0  0  0  0
 27 29  1  0  0  0  0
 27 13  2  0  0  0  0
 28 27  1  0  0  0  0
 29  8  2  0  0  0  0
 30 29  1  0  0  0  0
M  END
