3
q = -1.0, confidence = 0.006

 14 14  0  0  0  0  0  0  0  0999 V2000
    4.3225   -2.7776   -0.6478 Cl  0  0  0  0  0  0  0  0  0  0  0  0
    7.0014    1.8466    0.3012 Cl  0  0  0  0  0  0  0  0  0  0  0  0
   -0.1367   -0.1553   -1.8429 N   0  0  0  0  0  1  0  0  0  0  0  0
    2.1725   -1.0254   -1.7060 N   0  0  0  0  0  2  0  0  0  0  0  0
    1.0206   -0.5348   -1.7912 C   0  0  0  0  0  2  0  0  0  0  0  0
    4.4073   -1.0417   -0.7613 C   0  0  0  0  0  0  0  0  0  0  0  0
    5.5428   -0.3822   -0.2718 C   0  0  0  0  0  0  0  0  0  0  0  0
    5.5985    1.0205   -0.3183 C   0  0  0  0  0  0  0  0  0  0  0  0
    4.5332    1.7590   -0.8634 C   0  0  0  0  0  0  0  0  0  0  0  0
    3.4079    1.0839   -1.3451 C   0  0  0  0  0  0  0  0  0  0  0  0
    3.3035   -0.3282   -1.3015 C   0  0  0  0  0  0  0  0  0  0  0  0
    6.3764   -0.9613    0.1466 H   0  0  0  0  0  0  0  0  0  0  0  0
    4.5977    2.8550   -0.9129 H   0  0  0  0  0  0  0  0  0  0  0  0
    2.5703    1.6539   -1.7760 H   0  0  0  0  0  0  0  0  0  0  0  0
  3  5  1  0  0  0  0
  4 11  1  0  0  0  0
  5  4  1  0  0  0  0
  6  1  1  0  0  0  0
  6  7  1  0  0  0  0
  7 12  1  0  0  0  0
  8  7  2  0  0  0  0
  8  2  1  0  0  0  0
  9  8  1  0  0  0  0
 10 11  1  0  0  0  0
 10  9  2  0  0  0  0
 11  6  2  0  0  0  0
 13  9  1  0  0  0  0
 14 10  1  0  0  0  0
M  END
