1
q = 0.0, confidence = 0.984

 15 15  0  0  0  0  0  0  0  0999 V2000
    0.7369   -0.0399    1.0279 N   0  0  0  0  0  1  0  0  0  0  0  0
    1.9030   -0.0546    0.8446 C   0  0  0  0  0  2  0  0  0  0  0  0
    3.2866   -0.1110    0.5337 C   0  0  0  0  0  0  0  0  0  0  0  0
    4.2043    0.7794    1.1514 C   0  0  0  0  0  0  0  0  0  0  0  0
    3.8412    1.5131    1.8845 H   0  0  0  0  0  0  0  0  0  0  0  0
    5.5578    0.7233    0.8145 C   0  0  0  0  0  0  0  0  0  0  0  0
    6.3018    1.3924    1.2672 H   0  0  0  0  0  0  0  0  0  0  0  0
    5.9807   -0.2155   -0.1364 C   0  0  0  0  0  0  0  0  0  0  0  0
    5.0955   -1.1042   -0.7611 C   0  0  0  0  0  0  0  0  0  0  0  0
    5.4903   -1.8188   -1.4957 H   0  0  0  0  0  0  0  0  0  0  0  0
    3.7414   -1.0560   -0.4260 C   0  0  0  0  0  0  0  0  0  0  0  0
    3.0252   -1.7474   -0.8921 H   0  0  0  0  0  0  0  0  0  0  0  0
    7.4251   -0.2694   -0.4985 N   0  0  0  0  0  0  0  0  0  0  0  0
    7.7598   -1.1117   -1.3280 O   0  0  0  0  0  0  0  0  0  0  0  0
    8.1694    0.5331    0.0588 O   0  0  0  0  0  0  0  0  0  0  0  0
  2  1  1  0  0  0  0
  3  2  1  0  0  0  0
  3  4  1  0  0  0  0
  4  5  1  0  0  0  0
  6  4  2  0  0  0  0
  6  7  1  0  0  0  0
  8  6  1  0  0  0  0
  9 11  1  0  0  0  0
  9  8  2  0  0  0  0
 10  9  1  0  0  0  0
 11  3  2  0  0  0  0
 12 11  1  0  0  0  0
 13  8  1  0  0  0  0
 13 15  2  0  0  0  0
 14 13  2  0  0  0  0
M  END
