3
q = -1.0

 56 57  0  0  0  0  0  0  0  0999 V2000
   -0.2445    1.0021   -0.0992 P   0  0  0  0  0  4  0  0  0  0  0  0
   -2.5104   -0.8749   -0.2115 P   0  0  0  0  0  4  0  0  0  0  0  0
    0.8474   -0.1219    0.3206 N   0  0  0  0  0  1  0  0  0  0  0  0
   -1.7404    0.5119   -0.5406 N   0  0  0  0  0  2  0  0  0  0  0  0
    0.3924    1.9912   -1.4979 C   0  0  0  0  0  0  0  0  0  0  0  0
    1.6314    2.6479   -1.3505 C   0  0  0  0  0  0  0  0  0  0  0  0
    2.1864    3.3425   -2.4335 C   0  0  0  0  0  0  0  0  0  0  0  0
    1.5090    3.3846   -3.6650 C   0  0  0  0  0  0  0  0  0  0  0  0
    0.2709    2.7387   -3.8092 C   0  0  0  0  0  0  0  0  0  0  0  0
   -0.2899    2.0431   -2.7259 C   0  0  0  0  0  0  0  0  0  0  0  0
   -0.3951    2.1796    1.2938 C   0  0  0  0  0  0  0  0  0  0  0  0
   -1.4337    3.1327    1.2936 C   0  0  0  0  0  0  0  0  0  0  0  0
   -1.5609    4.0252    2.3667 C   0  0  0  0  0  0  0  0  0  0  0  0
   -0.6551    3.9660    3.4407 C   0  0  0  0  0  0  0  0  0  0  0  0
    0.3770    3.0146    3.4397 C   0  0  0  0  0  0  0  0  0  0  0  0
    0.5136    2.1169    2.3682 C   0  0  0  0  0  0  0  0  0  0  0  0
   -4.3001   -0.4569    0.0930 C   0  0  0  0  0  0  0  0  0  0  0  0
   -4.7513    0.7824   -0.6890 C   0  0  0  0  0  0  0  0  0  0  0  0
   -5.2458   -1.6514   -0.0915 C   0  0  0  0  0  0  0  0  0  0  0  0
   -2.3810   -2.0409   -1.6540 C   0  0  0  0  0  0  0  0  0  0  0  0
   -0.9170   -2.4614   -1.8382 C   0  0  0  0  0  0  0  0  0  0  0  0
   -2.9400   -1.3953   -2.9282 C   0  0  0  0  0  0  0  0  0  0  0  0
   -1.8468   -1.7600    1.2751 C   0  0  0  0  0  0  0  0  0  0  0  0
   -2.3574   -3.1894    1.4823 C   0  0  0  0  0  0  0  0  0  0  0  0
   -1.9832   -0.9023    2.5386 C   0  0  0  0  0  0  0  0  0  0  0  0
    2.1593    2.6057   -0.3846 H   0  0  0  0  0  0  0  0  0  0  0  0
    3.1547    3.8532   -2.3192 H   0  0  0  0  0  0  0  0  0  0  0  0
    1.9490    3.9275   -4.5154 H   0  0  0  0  0  0  0  0  0  0  0  0
   -0.2626    2.7782   -4.7713 H   0  0  0  0  0  0  0  0  0  0  0  0
   -1.2627    1.5353   -2.8103 H   0  0  0  0  0  0  0  0  0  0  0  0
   -2.1427    3.1656    0.4516 H   0  0  0  0  0  0  0  0  0  0  0  0
   -2.3713    4.7703    2.3688 H   0  0  0  0  0  0  0  0  0  0  0  0
   -0.7581    4.6661    4.2840 H   0  0  0  0  0  0  0  0  0  0  0  0
    1.0842    2.9638    4.2817 H   0  0  0  0  0  0  0  0  0  0  0  0
    1.3141    1.3586    2.3658 H   0  0  0  0  0  0  0  0  0  0  0  0
   -4.2811   -0.1838    1.1718 H   0  0  0  0  0  0  0  0  0  0  0  0
   -5.7412    1.1184   -0.3179 H   0  0  0  0  0  0  0  0  0  0  0  0
   -4.8525    0.5718   -1.7721 H   0  0  0  0  0  0  0  0  0  0  0  0
   -4.0255    1.6090   -0.5729 H   0  0  0  0  0  0  0  0  0  0  0  0
   -6.2665   -1.3766    0.2448 H   0  0  0  0  0  0  0  0  0  0  0  0
   -4.9331   -2.5402    0.4890 H   0  0  0  0  0  0  0  0  0  0  0  0
   -5.3225   -1.9497   -1.1566 H   0  0  0  0  0  0  0  0  0  0  0  0
   -2.9959   -2.9278   -1.3870 H   0  0  0  0  0  0  0  0  0  0  0  0
   -0.8291   -3.1311   -2.7182 H   0  0  0  0  0  0  0  0  0  0  0  0
   -0.4937   -2.9867   -0.9601 H   0  0  0  0  0  0  0  0  0  0  0  0
   -0.2806   -1.5720   -2.0192 H   0  0  0  0  0  0  0  0  0  0  0  0
   -2.7902   -2.0762   -3.7907 H   0  0  0  0  0  0  0  0  0  0  0  0
   -2.4083   -0.4479   -3.1479 H   0  0  0  0  0  0  0  0  0  0  0  0
   -4.0223   -1.1732   -2.8594 H   0  0  0  0  0  0  0  0  0  0  0  0
   -0.7619   -1.8172    1.0290 H   0  0  0  0  0  0  0  0  0  0  0  0
   -1.7360   -3.6745    2.2617 H   0  0  0  0  0  0  0  0  0  0  0  0
   -2.2692   -3.8139    0.5722 H   0  0  0  0  0  0  0  0  0  0  0  0
   -3.4112   -3.2158    1.8279 H   0  0  0  0  0  0  0  0  0  0  0  0
   -1.3272   -1.3186    3.3293 H   0  0  0  0  0  0  0  0  0  0  0  0
   -3.0225   -0.8979    2.9293 H   0  0  0  0  0  0  0  0  0  0  0  0
   -1.6677    0.1460    2.3746 H   0  0  0  0  0  0  0  0  0  0  0  0
  1  3  1  0  0  0  0
  1 11  1  0  0  0  0
  2 17  1  0  0  0  0
  2 23  1  0  0  0  0
  4  2  1  0  0  0  0
  4  1  1  0  0  0  0
  5  6  1  0  0  0  0
  5  1  1  0  0  0  0
  6 26  1  0  0  0  0
  7 27  1  0  0  0  0
  7  6  2  0  0  0  0
  8  7  1  0  0  0  0
  9  8  2  0  0  0  0
  9 10  1  0  0  0  0
 10  5  2  0  0  0  0
 11 16  1  0  0  0  0
 12 11  2  0  0  0  0
 12 13  1  0  0  0  0
 13 32  1  0  0  0  0
 13 14  2  0  0  0  0
 14 33  1  0  0  0  0
 15 14  1  0  0  0  0
 15 34  1  0  0  0  0
 16 15  2  0  0  0  0
 17 36  1  0  0  0  0
 18 39  1  0  0  0  0
 18 37  1  0  0  0  0
 18 17  1  0  0  0  0
 19 17  1  0  0  0  0
 19 40  1  0  0  0  0
 19 41  1  0  0  0  0
 20 43  1  0  0  0  0
 20  2  1  0  0  0  0
 21 20  1  0  0  0  0
 21 45  1  0  0  0  0
 22 49  1  0  0  0  0
 22 20  1  0  0  0  0
 23 24  1  0  0  0  0
 23 25  1  0  0  0  0
 24 53  1  0  0  0  0
 24 51  1  0  0  0  0
 25 55  1  0  0  0  0
 25 54  1  0  0  0  0
 28  8  1  0  0  0  0
 29  9  1  0  0  0  0
 30 10  1  0  0  0  0
 31 12  1  0  0  0  0
 35 16  1  0  0  0  0
 38 18  1  0  0  0  0
 42 19  1  0  0  0  0
 44 21  1  0  0  0  0
 46 21  1  0  0  0  0
 47 22  1  0  0  0  0
 48 22  1  0  0  0  0
 50 23  1  0  0  0  0
 52 24  1  0  0  0  0
 56 25  1  0  0  0  0
M  END
