1
q = -1

 14 13  0  0  0  0  0  0  0  0999 V2000
    1.4520    0.9082   -0.0000 N   0  0  0  0  0  1  0  0  0  0  0  0
    3.0486    0.6591    0.0000 P   0  0  0  0  0  4  0  0  0  0  0  0
    3.5919   -0.2844   -1.4597 C   0  0  0  0  0  0  0  0  0  0  0  0
    3.9503    2.2438   -0.0002 C   0  0  0  0  0  0  0  0  0  0  0  0
    3.5918   -0.2841    1.4600 C   0  0  0  0  0  0  0  0  0  0  0  0
    4.6911   -0.4198   -1.4706 H   0  0  0  0  0  0  0  0  0  0  0  0
    3.2586    0.2438   -2.3733 H   0  0  0  0  0  0  0  0  0  0  0  0
    3.0723   -1.2611   -1.3967 H   0  0  0  0  0  0  0  0  0  0  0  0
    5.0462    2.0825   -0.0009 H   0  0  0  0  0  0  0  0  0  0  0  0
    3.6558    2.8183    0.8992 H   0  0  0  0  0  0  0  0  0  0  0  0
    3.6546    2.8186   -0.8990 H   0  0  0  0  0  0  0  0  0  0  0  0
    4.6910   -0.4195    1.4711 H   0  0  0  0  0  0  0  0  0  0  0  0
    3.0723   -1.2609    1.3970 H   0  0  0  0  0  0  0  0  0  0  0  0
    3.2583    0.2442    2.3735 H   0  0  0  0  0  0  0  0  0  0  0  0
  1  2  1  0  0  0  0
  2  5  1  0  0  0  0
  3  8  1  0  0  0  0
  3  2  1  0  0  0  0
  4  2  1  0  0  0  0
  4 10  1  0  0  0  0
  5 12  1  0  0  0  0
  5 14  1  0  0  0  0
  6  3  1  0  0  0  0
  7  3  1  0  0  0  0
  9  4  1  0  0  0  0
 11  4  1  0  0  0  0
 13  5  1  0  0  0  0
M  END
