1
q = -1.0

 48 50  0  0  0  0  0  0  0  0999 V2000
   -0.3604   -0.3186    0.0523 N   0  0  0  0  0  2  0  0  0  0  0  0
   -1.7242    1.6509    0.0796 N   0  0  0  0  0  0  0  0  0  0  0  0
    0.4592    1.9660    0.0400 N   0  0  0  0  0  0  0  0  0  0  0  0
   -0.5130    0.9762    0.0555 C   0  0  0  0  0  0  0  0  0  0  0  0
   -1.4985    3.0267    0.0755 C   0  0  0  0  0  0  0  0  0  0  0  0
   -0.1435    3.2217    0.0529 C   0  0  0  0  0  0  0  0  0  0  0  0
   -3.0016    1.0008    0.0936 C   0  0  0  0  0  0  0  0  0  0  0  0
   -3.4390    0.3821    1.2859 C   0  0  0  0  0  0  0  0  0  0  0  0
   -4.6981   -0.2411    1.2711 C   0  0  0  0  0  0  0  0  0  0  0  0
   -5.5056   -0.2655    0.1183 C   0  0  0  0  0  0  0  0  0  0  0  0
   -5.0233    0.3537   -1.0496 C   0  0  0  0  0  0  0  0  0  0  0  0
   -3.7691    0.9872   -1.0913 C   0  0  0  0  0  0  0  0  0  0  0  0
   -2.5698    0.3680    2.5147 C   0  0  0  0  0  0  0  0  0  0  0  0
   -6.8363   -0.9743    0.1281 C   0  0  0  0  0  0  0  0  0  0  0  0
   -3.2429    1.6040   -2.3620 C   0  0  0  0  0  0  0  0  0  0  0  0
    1.8655    1.6819    0.0707 C   0  0  0  0  0  0  0  0  0  0  0  0
    2.4809    1.4976    1.3310 C   0  0  0  0  0  0  0  0  0  0  0  0
    3.8470    1.1846    1.3489 C   0  0  0  0  0  0  0  0  0  0  0  0
    4.5912    1.0394    0.1620 C   0  0  0  0  0  0  0  0  0  0  0  0
    3.9378    1.2278   -1.0675 C   0  0  0  0  0  0  0  0  0  0  0  0
    2.5691    1.5439   -1.1448 C   0  0  0  0  0  0  0  0  0  0  0  0
    1.6726    1.5679    2.5992 C   0  0  0  0  0  0  0  0  0  0  0  0
    6.0427    0.6383    0.2157 C   0  0  0  0  0  0  0  0  0  0  0  0
    1.8770    1.6436   -2.4778 C   0  0  0  0  0  0  0  0  0  0  0  0
   -2.3267    3.7395    0.1037 H   0  0  0  0  0  0  0  0  0  0  0  0
    0.4521    4.1385    0.0508 H   0  0  0  0  0  0  0  0  0  0  0  0
   -5.0570   -0.7268    2.1926 H   0  0  0  0  0  0  0  0  0  0  0  0
   -5.6357    0.3319   -1.9651 H   0  0  0  0  0  0  0  0  0  0  0  0
   -2.1321    1.3655    2.7232 H   0  0  0  0  0  0  0  0  0  0  0  0
   -1.7194   -0.3326    2.3729 H   0  0  0  0  0  0  0  0  0  0  0  0
   -3.1395    0.0427    3.4051 H   0  0  0  0  0  0  0  0  0  0  0  0
   -7.3713   -0.8236    1.0869 H   0  0  0  0  0  0  0  0  0  0  0  0
   -6.6989   -2.0698    0.0033 H   0  0  0  0  0  0  0  0  0  0  0  0
   -7.4920   -0.6281   -0.6941 H   0  0  0  0  0  0  0  0  0  0  0  0
   -2.2299    1.2193   -2.6018 H   0  0  0  0  0  0  0  0  0  0  0  0
   -3.1530    2.7078   -2.2864 H   0  0  0  0  0  0  0  0  0  0  0  0
   -3.9077    1.3783   -3.2166 H   0  0  0  0  0  0  0  0  0  0  0  0
    4.3403    1.0230    2.3203 H   0  0  0  0  0  0  0  0  0  0  0  0
    4.5036    1.1044   -2.0043 H   0  0  0  0  0  0  0  0  0  0  0  0
    2.3277    1.5547    3.4899 H   0  0  0  0  0  0  0  0  0  0  0  0
    0.9944    0.6908    2.6706 H   0  0  0  0  0  0  0  0  0  0  0  0
    1.0380    2.4764    2.6446 H   0  0  0  0  0  0  0  0  0  0  0  0
    6.1335   -0.4566    0.3805 H   0  0  0  0  0  0  0  0  0  0  0  0
    6.5745    1.1370    1.0504 H   0  0  0  0  0  0  0  0  0  0  0  0
    6.5708    0.8763   -0.7277 H   0  0  0  0  0  0  0  0  0  0  0  0
    1.5217    0.6340   -2.7778 H   0  0  0  0  0  0  0  0  0  0  0  0
    2.5729    1.9963   -3.2629 H   0  0  0  0  0  0  0  0  0  0  0  0
    1.0008    2.3198   -2.4542 H   0  0  0  0  0  0  0  0  0  0  0  0
  1  4  2  0  0  0  0
  2  7  1  0  0  0  0
  3  6  1  0  0  0  0
  3  4  1  0  0  0  0
  3 16  1  0  0  0  0
  4  2  1  0  0  0  0
  5  2  1  0  0  0  0
  5 25  1  0  0  0  0
  6  5  2  0  0  0  0
  7  8  1  0  0  0  0
  8 13  1  0  0  0  0
  9  8  2  0  0  0  0
  9 27  1  0  0  0  0
 10 14  1  0  0  0  0
 10  9  1  0  0  0  0
 11 10  2  0  0  0  0
 12 11  1  0  0  0  0
 12  7  2  0  0  0  0
 13 29  1  0  0  0  0
 13 31  1  0  0  0  0
 14 32  1  0  0  0  0
 15 36  1  0  0  0  0
 15 12  1  0  0  0  0
 16 17  1  0  0  0  0
 17 18  2  0  0  0  0
 17 22  1  0  0  0  0
 18 38  1  0  0  0  0
 19 23  1  0  0  0  0
 19 18  1  0  0  0  0
 20 19  2  0  0  0  0
 21 20  1  0  0  0  0
 21 16  2  0  0  0  0
 22 42  1  0  0  0  0
 22 41  1  0  0  0  0
 22 40  1  0  0  0  0
 23 43  1  0  0  0  0
 23 44  1  0  0  0  0
 24 48  1  0  0  0  0
 24 21  1  0  0  0  0
 26  6  1  0  0  0  0
 28 11  1  0  0  0  0
 30 13  1  0  0  0  0
 33 14  1  0  0  0  0
 34 14  1  0  0  0  0
 35 15  1  0  0  0  0
 37 15  1  0  0  0  0
 39 20  1  0  0  0  0
 45 23  1  0  0  0  0
 46 24  1  0  0  0  0
 47 24  1  0  0  0  0
M  END
