1
q = 0.0, confidence = 0.72

 22 24  0  0  0  0  0  0  0  0999 V2000
   -0.3733    0.0282   -0.3442 N   0  0  0  0  0  1  0  0  0  0  0  0
   -1.6821    0.0561   -0.2132 N   0  0  0  0  0  0  0  0  0  0  0  0
   -2.5202   -1.0750   -0.1877 C   0  0  0  0  0  0  0  0  0  0  0  0
   -2.1668   -2.4248   -0.3075 C   0  0  0  0  0  0  0  0  0  0  0  0
   -1.1175   -2.7241   -0.4446 H   0  0  0  0  0  0  0  0  0  0  0  0
   -3.2130   -3.3576   -0.2420 C   0  0  0  0  0  0  0  0  0  0  0  0
   -2.9815   -4.4295   -0.3345 H   0  0  0  0  0  0  0  0  0  0  0  0
   -4.5543   -2.9495   -0.0636 C   0  0  0  0  0  0  0  0  0  0  0  0
   -5.3483   -3.7098   -0.0191 H   0  0  0  0  0  0  0  0  0  0  0  0
   -4.8881   -1.5925    0.0563 C   0  0  0  0  0  0  0  0  0  0  0  0
   -5.9349   -1.2828    0.1951 H   0  0  0  0  0  0  0  0  0  0  0  0
   -3.8631   -0.6314   -0.0041 C   0  0  0  0  0  0  0  0  0  0  0  0
   -3.8260    0.8221    0.0866 C   0  0  0  0  0  0  0  0  0  0  0  0
   -4.8016    1.8188    0.2678 C   0  0  0  0  0  0  0  0  0  0  0  0
   -5.8633    1.5477    0.3696 H   0  0  0  0  0  0  0  0  0  0  0  0
   -4.3993    3.1615    0.3159 C   0  0  0  0  0  0  0  0  0  0  0  0
   -5.1540    3.9497    0.4564 H   0  0  0  0  0  0  0  0  0  0  0  0
   -3.0383    3.5201    0.1862 C   0  0  0  0  0  0  0  0  0  0  0  0
   -2.7525    4.5820    0.2273 H   0  0  0  0  0  0  0  0  0  0  0  0
   -2.0403    2.5511    0.0032 C   0  0  0  0  0  0  0  0  0  0  0  0
   -0.9769    2.8119   -0.0988 H   0  0  0  0  0  0  0  0  0  0  0  0
   -2.4617    1.2165   -0.0435 C   0  0  0  0  0  0  0  0  0  0  0  0
  1  2  1  0  0  0  0
  2  3  1  0  0  0  0
  2 22  1  0  0  0  0
  3 12  1  0  0  0  0
  4  6  1  0  0  0  0
  4  3  2  0  0  0  0
  5  4  1  0  0  0  0
  6  8  2  0  0  0  0
  7  6  1  0  0  0  0
  8  9  1  0  0  0  0
  8 10  1  0  0  0  0
 10 11  1  0  0  0  0
 12 10  2  0  0  0  0
 12 13  1  0  0  0  0
 13 14  1  0  0  0  0
 14 16  2  0  0  0  0
 14 15  1  0  0  0  0
 16 17  1  0  0  0  0
 18 19  1  0  0  0  0
 18 16  1  0  0  0  0
 20 18  2  0  0  0  0
 21 20  1  0  0  0  0
 22 20  1  0  0  0  0
 22 13  2  0  0  0  0
M  END
