1
q = 0.0, confidence = 0.98

 14 14  0  0  0  0  0  0  0  0999 V2000
    1.8152    0.3598   -0.4367 N   0  0  0  0  0  1  0  0  0  0  0  0
    3.5345   -2.4114    1.5188 N   0  0  0  0  0  0  0  0  0  0  0  0
    2.9935    0.4591   -0.4600 C   0  0  0  0  0  2  0  0  0  0  0  0
    4.4039    0.4394   -0.3599 C   0  0  0  0  0  0  0  0  0  0  0  0
    5.2140    1.4152   -0.9911 C   0  0  0  0  0  0  0  0  0  0  0  0
    6.6046    1.3691   -0.8605 C   0  0  0  0  0  0  0  0  0  0  0  0
    7.2211    0.3548   -0.1037 C   0  0  0  0  0  0  0  0  0  0  0  0
    6.4415   -0.6232    0.5256 C   0  0  0  0  0  0  0  0  0  0  0  0
    5.0371   -0.5969    0.4077 C   0  0  0  0  0  0  0  0  0  0  0  0
    4.2247   -1.5954    1.0320 C   0  0  0  0  0  0  0  0  0  0  0  0
    4.7280    2.2041   -1.5821 H   0  0  0  0  0  0  0  0  0  0  0  0
    7.2198    2.1347   -1.3562 H   0  0  0  0  0  0  0  0  0  0  0  0
    8.3159    0.3259   -0.0055 H   0  0  0  0  0  0  0  0  0  0  0  0
    6.9115   -1.4216    1.1172 H   0  0  0  0  0  0  0  0  0  0  0  0
  3  1  1  0  0  0  0
  3  4  1  0  0  0  0
  4  9  1  0  0  0  0
  5  6  1  0  0  0  0
  5  4  2  0  0  0  0
  6  7  2  0  0  0  0
  7 13  1  0  0  0  0
  7  8  1  0  0  0  0
  8 14  1  0  0  0  0
  9  8  2  0  0  0  0
  9 10  1  0  0  0  0
 10  2  3  0  0  0  0
 11  5  1  0  0  0  0
 12  6  1  0  0  0  0
M  END
