2
q = -1.0, confidence = 0.016

 42 42  0  0  0  0  0  0  0  0999 V2000
    1.6113   -1.0736    0.1406 P   0  0  0  0  0  4  0  0  0  0  0  0
    0.1251   -0.4657    0.0398 N   0  0  0  0  0  1  0  0  0  0  0  0
    1.8496    2.2386    0.6406 C   0  0  0  0  0  0  0  0  0  0  0  0
    0.8150    1.8731    0.6854 H   0  0  0  0  0  0  0  0  0  0  0  0
    2.1078    3.5511    0.2257 C   0  0  0  0  0  0  0  0  0  0  0  0
    1.2628    4.2127   -0.0176 H   0  0  0  0  0  0  0  0  0  0  0  0
    3.4300    4.0077    0.0989 C   0  0  0  0  0  0  0  0  0  0  0  0
    3.6321    5.0384   -0.2297 H   0  0  0  0  0  0  0  0  0  0  0  0
    4.4929    3.1392    0.3913 C   0  0  0  0  0  0  0  0  0  0  0  0
    5.5330    3.4872    0.2993 H   0  0  0  0  0  0  0  0  0  0  0  0
    4.2337    1.8207    0.7977 C   0  0  0  0  0  0  0  0  0  0  0  0
    5.0734    1.1433    1.0226 H   0  0  0  0  0  0  0  0  0  0  0  0
    2.9107    1.3513    0.9218 C   0  0  0  0  0  0  0  0  0  0  0  0
    2.6387   -0.0755    1.3338 C   0  0  0  0  0  0  0  0  0  0  0  0
    2.0380   -0.0993    2.2654 H   0  0  0  0  0  0  0  0  0  0  0  0
    3.5828   -0.6212    1.5346 H   0  0  0  0  0  0  0  0  0  0  0  0
    3.9991   -1.2918   -1.4048 C   0  0  0  0  0  0  0  0  0  0  0  0
    4.4523   -1.2548   -2.4179 H   0  0  0  0  0  0  0  0  0  0  0  0
    4.2545   -2.2737   -0.9664 H   0  0  0  0  0  0  0  0  0  0  0  0
    4.4843   -0.4961   -0.8066 H   0  0  0  0  0  0  0  0  0  0  0  0
    1.8315   -2.1248   -2.4410 C   0  0  0  0  0  0  0  0  0  0  0  0
    2.2100   -1.9948   -3.4764 H   0  0  0  0  0  0  0  0  0  0  0  0
    0.7281   -2.0157   -2.4680 H   0  0  0  0  0  0  0  0  0  0  0  0
    2.0832   -3.1562   -2.1261 H   0  0  0  0  0  0  0  0  0  0  0  0
    2.2456    0.3278   -2.1793 C   0  0  0  0  0  0  0  0  0  0  0  0
    2.6384    0.2983   -3.2176 H   0  0  0  0  0  0  0  0  0  0  0  0
    2.7754    1.1344   -1.6414 H   0  0  0  0  0  0  0  0  0  0  0  0
    1.1720    0.5910   -2.2238 H   0  0  0  0  0  0  0  0  0  0  0  0
    2.4853   -1.0567   -1.5451 C   0  0  0  0  0  0  0  0  0  0  0  0
    2.8375   -3.5962    0.8223 C   0  0  0  0  0  0  0  0  0  0  0  0
    2.7320   -4.5453    1.3892 H   0  0  0  0  0  0  0  0  0  0  0  0
    3.6933   -3.0459    1.2635 H   0  0  0  0  0  0  0  0  0  0  0  0
    3.0931   -3.8659   -0.2199 H   0  0  0  0  0  0  0  0  0  0  0  0
    1.1483   -2.6172    2.3994 C   0  0  0  0  0  0  0  0  0  0  0  0
    0.8943   -3.6030    2.8409 H   0  0  0  0  0  0  0  0  0  0  0  0
    0.2630   -1.9616    2.5035 H   0  0  0  0  0  0  0  0  0  0  0  0
    1.9785   -2.1914    2.9961 H   0  0  0  0  0  0  0  0  0  0  0  0
    0.3769   -3.5873    0.2283 C   0  0  0  0  0  0  0  0  0  0  0  0
    0.1806   -4.5190    0.7990 H   0  0  0  0  0  0  0  0  0  0  0  0
    0.6235   -3.8731   -0.8094 H   0  0  0  0  0  0  0  0  0  0  0  0
   -0.5540   -2.9910    0.1911 H   0  0  0  0  0  0  0  0  0  0  0  0
    1.5182   -2.8156    0.9165 C   0  0  0  0  0  0  0  0  0  0  0  0
  1 42  1  0  0  0  0
  1 14  1  0  0  0  0
  2  1  1  0  0  0  0
  3  4  1  0  0  0  0
  3 13  1  0  0  0  0
  5  3  2  0  0  0  0
  6  5  1  0  0  0  0
  7  5  1  0  0  0  0
  7  9  2  0  0  0  0
  8  7  1  0  0  0  0
  9 11  1  0  0  0  0
 10  9  1  0  0  0  0
 11 13  2  0  0  0  0
 11 12  1  0  0  0  0
 13 14  1  0  0  0  0
 14 16  1  0  0  0  0
 14 15  1  0  0  0  0
 17 19  1  0  0  0  0
 17 20  1  0  0  0  0
 18 17  1  0  0  0  0
 21 24  1  0  0  0  0
 21 29  1  0  0  0  0
 22 21  1  0  0  0  0
 23 21  1  0  0  0  0
 25 27  1  0  0  0  0
 25 29  1  0  0  0  0
 26 25  1  0  0  0  0
 28 25  1  0  0  0  0
 29 17  1  0  0  0  0
 29  1  1  0  0  0  0
 30 42  1  0  0  0  0
 30 32  1  0  0  0  0
 30 31  1  0  0  0  0
 33 30  1  0  0  0  0
 34 36  1  0  0  0  0
 34 35  1  0  0  0  0
 34 37  1  0  0  0  0
 38 39  1  0  0  0  0
 38 42  1  0  0  0  0
 40 38  1  0  0  0  0
 41 38  1  0  0  0  0
 42 34  1  0  0  0  0
M  END
