2
q = -1.0, confidence = 0.018

 50 52  0  0  0  0  0  0  0  0999 V2000
    1.3720    0.5305   -0.4428 P   0  0  0  0  0  4  0  0  0  0  0  0
   -0.0878    0.1604    0.1133 N   0  0  0  0  0  1  0  0  0  0  0  0
    1.7658   -0.4201   -1.9929 C   0  0  0  0  0  0  0  0  0  0  0  0
    0.8679   -0.2680   -2.6269 H   0  0  0  0  0  0  0  0  0  0  0  0
    2.6327    0.0710   -2.4802 H   0  0  0  0  0  0  0  0  0  0  0  0
    2.0111   -1.8819   -1.7410 C   0  0  0  0  0  0  0  0  0  0  0  0
    3.3207   -2.3901   -1.6078 C   0  0  0  0  0  0  0  0  0  0  0  0
    4.1815   -1.7152   -1.7403 H   0  0  0  0  0  0  0  0  0  0  0  0
    3.5394   -3.7452   -1.3180 C   0  0  0  0  0  0  0  0  0  0  0  0
    4.5682   -4.1246   -1.2220 H   0  0  0  0  0  0  0  0  0  0  0  0
    2.4489   -4.6148   -1.1583 C   0  0  0  0  0  0  0  0  0  0  0  0
    2.6178   -5.6787   -0.9334 H   0  0  0  0  0  0  0  0  0  0  0  0
    1.1425   -4.1202   -1.3003 C   0  0  0  0  0  0  0  0  0  0  0  0
    0.2828   -4.7997   -1.1939 H   0  0  0  0  0  0  0  0  0  0  0  0
    0.9213   -2.7651   -1.5878 C   0  0  0  0  0  0  0  0  0  0  0  0
   -0.1008   -2.3749   -1.7085 H   0  0  0  0  0  0  0  0  0  0  0  0
    2.6984    0.0850    0.7687 C   0  0  0  0  0  0  0  0  0  0  0  0
    2.7415   -1.0232    0.6519 H   0  0  0  0  0  0  0  0  0  0  0  0
    4.0884    0.6528    0.4367 C   0  0  0  0  0  0  0  0  0  0  0  0
    4.3679    0.4387   -0.6164 H   0  0  0  0  0  0  0  0  0  0  0  0
    4.0672    1.7604    0.5388 H   0  0  0  0  0  0  0  0  0  0  0  0
    5.1425    0.0743    1.3934 C   0  0  0  0  0  0  0  0  0  0  0  0
    5.2286   -1.0201    1.2093 H   0  0  0  0  0  0  0  0  0  0  0  0
    6.1388    0.5104    1.1708 H   0  0  0  0  0  0  0  0  0  0  0  0
    4.7653    0.3159    2.8614 C   0  0  0  0  0  0  0  0  0  0  0  0
    4.7944    1.4098    3.0677 H   0  0  0  0  0  0  0  0  0  0  0  0
    5.5181   -0.1472    3.5328 H   0  0  0  0  0  0  0  0  0  0  0  0
    3.3608   -0.2154    3.1807 C   0  0  0  0  0  0  0  0  0  0  0  0
    3.0902    0.0114    4.2331 H   0  0  0  0  0  0  0  0  0  0  0  0
    3.3558   -1.3248    3.0871 H   0  0  0  0  0  0  0  0  0  0  0  0
    2.3097    0.3704    2.2293 C   0  0  0  0  0  0  0  0  0  0  0  0
    1.3025   -0.0447    2.4299 H   0  0  0  0  0  0  0  0  0  0  0  0
    2.2346    1.4669    2.3935 H   0  0  0  0  0  0  0  0  0  0  0  0
    1.5103    2.3173   -0.9162 C   0  0  0  0  0  0  0  0  0  0  0  0
    2.5811    2.4861   -1.1780 H   0  0  0  0  0  0  0  0  0  0  0  0
    1.1254    3.2122    0.2801 C   0  0  0  0  0  0  0  0  0  0  0  0
    0.1140    2.9116    0.6266 H   0  0  0  0  0  0  0  0  0  0  0  0
    1.8240    3.0423    1.1251 H   0  0  0  0  0  0  0  0  0  0  0  0
    1.1180    4.6988   -0.1010 C   0  0  0  0  0  0  0  0  0  0  0  0
    0.7951    5.3011    0.7738 H   0  0  0  0  0  0  0  0  0  0  0  0
    2.1556    5.0255   -0.3421 H   0  0  0  0  0  0  0  0  0  0  0  0
    0.2093    4.9636   -1.3059 C   0  0  0  0  0  0  0  0  0  0  0  0
   -0.8380    4.7090   -1.0337 H   0  0  0  0  0  0  0  0  0  0  0  0
    0.2236    6.0407   -1.5740 H   0  0  0  0  0  0  0  0  0  0  0  0
    0.6370    4.1070   -2.5023 C   0  0  0  0  0  0  0  0  0  0  0  0
    1.6578    4.4123   -2.8285 H   0  0  0  0  0  0  0  0  0  0  0  0
   -0.0347    4.2808   -3.3685 H   0  0  0  0  0  0  0  0  0  0  0  0
    0.6361    2.6121   -2.1539 C   0  0  0  0  0  0  0  0  0  0  0  0
    0.9882    2.0248   -3.0263 H   0  0  0  0  0  0  0  0  0  0  0  0
   -0.4040    2.2855   -1.9430 H   0  0  0  0  0  0  0  0  0  0  0  0
  1  2  1  0  0  0  0
  1 17  1  0  0  0  0
  3  6  1  0  0  0  0
  3  1  1  0  0  0  0
  4  3  1  0  0  0  0
  5  3  1  0  0  0  0
  6  7  2  0  0  0  0
  6 15  1  0  0  0  0
  7  9  1  0  0  0  0
  8  7  1  0  0  0  0
  9 10  1  0  0  0  0
  9 11  2  0  0  0  0
 11 12  1  0  0  0  0
 13 14  1  0  0  0  0
 13 11  1  0  0  0  0
 15 13  2  0  0  0  0
 16 15  1  0  0  0  0
 17 31  1  0  0  0  0
 18 17  1  0  0  0  0
 19 21  1  0  0  0  0
 19 17  1  0  0  0  0
 19 22  1  0  0  0  0
 20 19  1  0  0  0  0
 22 25  1  0  0  0  0
 23 22  1  0  0  0  0
 24 22  1  0  0  0  0
 25 26  1  0  0  0  0
 25 28  1  0  0  0  0
 25 27  1  0  0  0  0
 28 29  1  0  0  0  0
 30 28  1  0  0  0  0
 31 33  1  0  0  0  0
 31 32  1  0  0  0  0
 31 28  1  0  0  0  0
 34  1  1  0  0  0  0
 34 36  1  0  0  0  0
 35 34  1  0  0  0  0
 36 37  1  0  0  0  0
 36 38  1  0  0  0  0
 39 36  1  0  0  0  0
 39 40  1  0  0  0  0
 41 39  1  0  0  0  0
 42 43  1  0  0  0  0
 42 39  1  0  0  0  0
 44 42  1  0  0  0  0
 45 48  1  0  0  0  0
 45 42  1  0  0  0  0
 46 45  1  0  0  0  0
 47 45  1  0  0  0  0
 48 50  1  0  0  0  0
 48 34  1  0  0  0  0
 49 48  1  0  0  0  0
M  END
