2
q = -1.0

 16 16  0  0  0  0  0  0  0  0999 V2000
    5.6611    2.3858    2.3655 O   0  0  0  0  0  0  0  0  0  0  0  0
    0.7766    0.6529    0.6671 N   0  0  0  0  0  1  0  0  0  0  0  0
    1.9436    1.0961    1.1448 N   0  0  0  0  0  0  0  0  0  0  0  0
    2.3798    0.7410    2.3944 C   0  0  0  0  0  3  0  0  0  0  0  0
    3.6155    1.1530    2.8657 C   0  0  0  0  0  0  0  0  0  0  0  0
    4.4469    1.9505    2.0381 C   0  0  0  0  0  0  0  0  0  0  0  0
    3.9584    2.3240    0.7597 C   0  0  0  0  0  0  0  0  0  0  0  0
    2.7216    1.8949    0.3325 C   0  0  0  0  0  0  0  0  0  0  0  0
    6.2172    2.0503    3.6411 C   0  0  0  0  0  0  0  0  0  0  0  0
    1.6862    0.1182    2.9730 H   0  0  0  0  0  0  0  0  0  0  0  0
    3.9196    0.8410    3.8722 H   0  0  0  0  0  0  0  0  0  0  0  0
    4.5781    2.9482    0.1026 H   0  0  0  0  0  0  0  0  0  0  0  0
    2.2594    2.1363   -0.6420 H   0  0  0  0  0  0  0  0  0  0  0  0
    7.2157    2.5195    3.6692 H   0  0  0  0  0  0  0  0  0  0  0  0
    5.5953    2.4573    4.4656 H   0  0  0  0  0  0  0  0  0  0  0  0
    6.3222    0.9507    3.7520 H   0  0  0  0  0  0  0  0  0  0  0  0
  1  9  1  0  0  0  0
  2  3  1  0  0  0  0
  3  4  1  0  0  0  0
  4  5  1  0  0  0  0
  4 10  1  0  0  0  0
  5 11  1  0  0  0  0
  6  1  1  0  0  0  0
  6  5  2  0  0  0  0
  7  6  1  0  0  0  0
  8  7  2  0  0  0  0
  8  3  1  0  0  0  0
  9 14  1  0  0  0  0
  9 16  1  0  0  0  0
  9 15  1  0  0  0  0
 12  7  1  0  0  0  0
 13  8  1  0  0  0  0
M  END
