1
q = -1.0

 24 25  0  0  0  0  0  0  0  0999 V2000
    0.7734   -0.1991   -0.4023 N   0  0  0  0  0  1  0  0  0  0  0  0
    2.0302   -0.0270   -0.1840 C   0  0  0  0  0  3  0  0  0  0  0  0
    2.5933    1.3425   -0.3993 C   0  0  0  0  0  0  0  0  0  0  0  0
    3.3789    1.9594    0.5984 C   0  0  0  0  0  0  0  0  0  0  0  0
    3.8375    3.2726    0.4219 C   0  0  0  0  0  0  0  0  0  0  0  0
    3.5267    3.9788   -0.7514 C   0  0  0  0  0  0  0  0  0  0  0  0
    2.7489    3.3690   -1.7495 C   0  0  0  0  0  0  0  0  0  0  0  0
    2.2779    2.0616   -1.5708 C   0  0  0  0  0  0  0  0  0  0  0  0
    2.8984   -1.1506    0.2613 C   0  0  0  0  0  0  0  0  0  0  0  0
    2.3333   -2.3691    0.7049 C   0  0  0  0  0  0  0  0  0  0  0  0
    3.1489   -3.4393    1.0849 C   0  0  0  0  0  0  0  0  0  0  0  0
    4.5481   -3.3182    1.0220 C   0  0  0  0  0  0  0  0  0  0  0  0
    5.1209   -2.1209    0.5670 C   0  0  0  0  0  0  0  0  0  0  0  0
    4.3070   -1.0444    0.1882 C   0  0  0  0  0  0  0  0  0  0  0  0
    3.6155    1.4123    1.5232 H   0  0  0  0  0  0  0  0  0  0  0  0
    4.4421    3.7485    1.2083 H   0  0  0  0  0  0  0  0  0  0  0  0
    3.8943    5.0064   -0.8899 H   0  0  0  0  0  0  0  0  0  0  0  0
    2.5115    3.9162   -2.6740 H   0  0  0  0  0  0  0  0  0  0  0  0
    1.6649    1.5808   -2.3477 H   0  0  0  0  0  0  0  0  0  0  0  0
    1.2404   -2.4670    0.7497 H   0  0  0  0  0  0  0  0  0  0  0  0
    2.6921   -4.3773    1.4347 H   0  0  0  0  0  0  0  0  0  0  0  0
    5.1902   -4.1595    1.3224 H   0  0  0  0  0  0  0  0  0  0  0  0
    6.2146   -2.0229    0.4997 H   0  0  0  0  0  0  0  0  0  0  0  0
    4.7685   -0.1206   -0.1870 H   0  0  0  0  0  0  0  0  0  0  0  0
  1  2  1  0  0  0  0
  2  9  1  0  0  0  0
  3  2  1  0  0  0  0
  3  4  1  0  0  0  0
  4 15  1  0  0  0  0
  5  4  2  0  0  0  0
  5 16  1  0  0  0  0
  6  5  1  0  0  0  0
  7  8  1  0  0  0  0
  7  6  2  0  0  0  0
  8  3  2  0  0  0  0
  9 10  1  0  0  0  0
 10 20  1  0  0  0  0
 10 11  2  0  0  0  0
 11 21  1  0  0  0  0
 12 11  1  0  0  0  0
 12 22  1  0  0  0  0
 13 12  2  0  0  0  0
 14  9  2  0  0  0  0
 14 13  1  0  0  0  0
 17  6  1  0  0  0  0
 18  7  1  0  0  0  0
 19  8  1  0  0  0  0
 23 13  1  0  0  0  0
 24 14  1  0  0  0  0
M  END
