2
q = -1.0

 15 15  0  0  0  0  0  0  0  0999 V2000
   -8.3561    0.7520    0.6082 Cl  0  0  0  0  0  0  0  0  0  0  0  0
   -0.6407   -1.0640    0.1111 N   0  0  0  0  0  1  0  0  0  0  0  0
   -1.8336   -0.9820    0.4959 N   0  0  0  0  0  2  0  0  0  0  0  0
   -2.6405   -2.3551   -1.2214 O   0  0  0  0  0  0  0  0  0  0  0  0
   -2.8353   -1.5154   -0.3338 C   0  0  0  0  0  0  0  0  0  0  0  0
   -4.1933   -0.9672   -0.0373 C   0  0  0  0  0  0  0  0  0  0  0  0
   -4.3966    0.0822    0.8825 C   0  0  0  0  0  0  0  0  0  0  0  0
   -5.6741    0.6145    1.0861 C   0  0  0  0  0  0  0  0  0  0  0  0
   -6.7594    0.0893    0.3626 C   0  0  0  0  0  0  0  0  0  0  0  0
   -6.5785   -0.9569   -0.5594 C   0  0  0  0  0  0  0  0  0  0  0  0
   -5.2949   -1.4768   -0.7545 C   0  0  0  0  0  0  0  0  0  0  0  0
   -3.5287    0.4867    1.4219 H   0  0  0  0  0  0  0  0  0  0  0  0
   -5.8401    1.4384    1.7942 H   0  0  0  0  0  0  0  0  0  0  0  0
   -7.4427   -1.3482   -1.1146 H   0  0  0  0  0  0  0  0  0  0  0  0
   -5.1112   -2.2868   -1.4758 H   0  0  0  0  0  0  0  0  0  0  0  0
  2  3  1  0  0  0  0
  4  5  2  0  0  0  0
  5  6  1  0  0  0  0
  5  3  1  0  0  0  0
  6  7  1  0  0  0  0
  7  8  2  0  0  0  0
  7 12  1  0  0  0  0
  8 13  1  0  0  0  0
  9  1  1  0  0  0  0
  9  8  1  0  0  0  0
 10  9  2  0  0  0  0
 11 10  1  0  0  0  0
 11  6  2  0  0  0  0
 14 10  1  0  0  0  0
 15 11  1  0  0  0  0
M  END
