1
q = -1.0, confidence = 0.036

  9  8  0  0  0  0  0  0  0  0999 V2000
    1.4838    0.7612   -0.3403 N   0  0  0  0  0  1  0  0  0  0  0  0
    2.0593    1.6029   -1.0695 N   0  0  0  0  0  2  0  0  0  0  0  0
    3.9135    1.8157    0.3673 O   0  0  0  0  0  0  0  0  0  0  0  0
    3.5447    3.2538   -1.3614 O   0  0  0  0  0  0  0  0  0  0  0  0
    3.2228    2.1930   -0.5796 C   0  0  0  0  0  0  0  0  0  0  0  0
    4.7508    3.9196   -0.9954 C   0  0  0  0  0  0  0  0  0  0  0  0
    4.8734    4.7492   -1.7153 H   0  0  0  0  0  0  0  0  0  0  0  0
    5.6224    3.2342   -1.0491 H   0  0  0  0  0  0  0  0  0  0  0  0
    4.6936    4.3161    0.0394 H   0  0  0  0  0  0  0  0  0  0  0  0
  2  5  1  0  0  0  0
  2  1  1  0  0  0  0
  4  6  1  0  0  0  0
  4  5  1  0  0  0  0
  5  3  2  0  0  0  0
  6  9  1  0  0  0  0
  7  6  1  0  0  0  0
  8  6  1  0  0  0  0
M  END
