2
q = -1.0, confidence = 0.0

 30 30  0  0  0  0  0  0  0  0999 V2000
   -2.0795    1.9777    0.2537 P   0  0  0  0  0  4  0  0  0  0  0  0
    0.1642    0.7716   -0.0447 N   0  0  0  0  0  1  0  0  0  0  0  0
   -0.2104    2.1246   -0.0568 C   0  0  0  0  0  0  0  0  0  0  0  0
    0.4559    2.9199    1.0789 C   0  0  0  0  0  0  0  0  0  0  0  0
    0.2903    2.4367    2.0605 H   0  0  0  0  0  0  0  0  0  0  0  0
    0.0926    3.9667    1.1064 H   0  0  0  0  0  0  0  0  0  0  0  0
    1.5444    2.9047    0.8768 H   0  0  0  0  0  0  0  0  0  0  0  0
    0.0378    2.7743   -1.4290 C   0  0  0  0  0  0  0  0  0  0  0  0
   -0.3854    2.1587   -2.2452 H   0  0  0  0  0  0  0  0  0  0  0  0
    1.1355    2.8164   -1.5695 H   0  0  0  0  0  0  0  0  0  0  0  0
   -0.3791    3.8009   -1.4697 H   0  0  0  0  0  0  0  0  0  0  0  0
   -2.2601    1.1077    1.8294 C   0  0  0  0  0  0  0  0  0  0  0  0
   -1.8947    1.7397    2.6593 H   0  0  0  0  0  0  0  0  0  0  0  0
   -1.6441    0.1820    1.7701 H   0  0  0  0  0  0  0  0  0  0  0  0
   -3.3191    0.8293    1.9762 H   0  0  0  0  0  0  0  0  0  0  0  0
   -2.7881    1.0109   -1.0942 C   0  0  0  0  0  0  0  0  0  0  0  0
   -2.8289    1.6100   -2.0220 H   0  0  0  0  0  0  0  0  0  0  0  0
   -3.7918    0.6442   -0.8154 H   0  0  0  0  0  0  0  0  0  0  0  0
   -2.1357    0.1272   -1.2740 H   0  0  0  0  0  0  0  0  0  0  0  0
   -2.8804    3.6084    0.3589 C   0  0  0  0  0  0  0  0  0  0  0  0
   -3.4309    4.2092   -0.7943 C   0  0  0  0  0  0  0  0  0  0  0  0
   -3.4502    3.6656   -1.7499 H   0  0  0  0  0  0  0  0  0  0  0  0
   -3.9656    5.5035   -0.7279 C   0  0  0  0  0  0  0  0  0  0  0  0
   -4.3972    5.9602   -1.6310 H   0  0  0  0  0  0  0  0  0  0  0  0
   -3.9535    6.2112    0.4843 C   0  0  0  0  0  0  0  0  0  0  0  0
   -4.3746    7.2265    0.5337 H   0  0  0  0  0  0  0  0  0  0  0  0
   -3.4049    5.6210    1.6341 C   0  0  0  0  0  0  0  0  0  0  0  0
   -3.3949    6.1710    2.5870 H   0  0  0  0  0  0  0  0  0  0  0  0
   -2.8687    4.3276    1.5748 C   0  0  0  0  0  0  0  0  0  0  0  0
   -2.4415    3.8788    2.4834 H   0  0  0  0  0  0  0  0  0  0  0  0
  1 20  1  0  0  0  0
  1 12  1  0  0  0  0
  3  2  1  0  0  0  0
  3  1  1  0  0  0  0
  3  4  1  0  0  0  0
  4  6  1  0  0  0  0
  4  5  1  0  0  0  0
  7  4  1  0  0  0  0
  8  3  1  0  0  0  0
  9  8  1  0  0  0  0
 10  8  1  0  0  0  0
 11  8  1  0  0  0  0
 12 15  1  0  0  0  0
 12 13  1  0  0  0  0
 14 12  1  0  0  0  0
 16 18  1  0  0  0  0
 16  1  1  0  0  0  0
 17 16  1  0  0  0  0
 19 16  1  0  0  0  0
 20 29  1  0  0  0  0
 21 23  1  0  0  0  0
 21 20  2  0  0  0  0
 22 21  1  0  0  0  0
 23 25  2  0  0  0  0
 24 23  1  0  0  0  0
 25 26  1  0  0  0  0
 25 27  1  0  0  0  0
 27 28  1  0  0  0  0
 29 27  2  0  0  0  0
 29 30  1  0  0  0  0
M  END
