1
q = -1.0, confidence = 0.05

  3  2  0  0  0  0  0  0  0  0999 V2000
   -1.5150    0.0515   -1.2449 N   0  0  0  0  0  0  0  0  0  0  0  0
   -3.0522    0.0501   -1.3057 S   0  0  0  0  0  0  0  0  0  0  0  0
   -3.8278    0.0564   -0.0003 O   0  0  0  0  0  0  0  0  0  0  0  0
  2  1  1  0  0  0  0
  2  3  2  0  0  0  0
M  END
