2
q = -1.0

 16 16  0  0  0  0  0  0  0  0999 V2000
   -3.8875   -0.9839    0.5247 O   0  0  0  0  0  0  0  0  0  0  0  0
   -1.0249   -0.7407   -1.8758 N   0  0  0  0  0  1  0  0  0  0  0  0
   -3.4897   -0.7722   -1.7625 N   0  0  0  0  0  2  0  0  0  0  0  0
   -2.2191   -0.7582   -1.7447 C   0  0  0  0  0  2  0  0  0  0  0  0
   -4.2904   -0.8633   -0.6415 C   0  0  0  0  0  0  0  0  0  0  0  0
   -5.7631   -0.7943   -0.9421 C   0  0  0  0  0  0  0  0  0  0  0  0
   -6.6733   -0.8772    0.1305 C   0  0  0  0  0  0  0  0  0  0  0  0
   -6.2608   -0.9954    1.1435 H   0  0  0  0  0  0  0  0  0  0  0  0
   -8.0525   -0.8116   -0.1047 C   0  0  0  0  0  0  0  0  0  0  0  0
   -8.7590   -0.8777    0.7373 H   0  0  0  0  0  0  0  0  0  0  0  0
   -8.5352   -0.6628   -1.4165 C   0  0  0  0  0  0  0  0  0  0  0  0
   -9.6193   -0.6116   -1.6027 H   0  0  0  0  0  0  0  0  0  0  0  0
   -7.6326   -0.5804   -2.4904 C   0  0  0  0  0  0  0  0  0  0  0  0
   -8.0098   -0.4646   -3.5184 H   0  0  0  0  0  0  0  0  0  0  0  0
   -6.2521   -0.6455   -2.2552 C   0  0  0  0  0  0  0  0  0  0  0  0
   -5.5254   -0.5827   -3.0782 H   0  0  0  0  0  0  0  0  0  0  0  0
  2  4  1  0  0  0  0
  3  4  1  0  0  0  0
  3  5  1  0  0  0  0
  5  1  2  0  0  0  0
  6  5  1  0  0  0  0
  6  7  1  0  0  0  0
  7  8  1  0  0  0  0
  9  7  2  0  0  0  0
  9 10  1  0  0  0  0
 11  9  1  0  0  0  0
 12 11  1  0  0  0  0
 13 15  1  0  0  0  0
 13 11  2  0  0  0  0
 14 13  1  0  0  0  0
 15  6  2  0  0  0  0
 16 15  1  0  0  0  0
M  END
