1
q = -1.0, confidence = 0.112

 11 10  0  0  0  0  0  0  0  0999 V2000
    0.9125    0.0003   -0.6401 N   0  0  0  0  0  1  0  0  0  0  0  0
    2.4412   -0.0000   -0.2468 S   0  0  0  0  0  0  0  0  0  0  0  0
    2.6702   -1.4361    0.8194 C   0  0  0  0  0  0  0  0  0  0  0  0
    3.4466   -0.0004   -1.3255 O   0  0  0  0  0  1  0  0  0  0  0  0
    1.8585   -1.4696    1.5707 H   0  0  0  0  0  0  0  0  0  0  0  0
    3.6807   -1.3736    1.2637 H   0  0  0  0  0  0  0  0  0  0  0  0
    2.5964   -2.3014    0.1343 H   0  0  0  0  0  0  0  0  0  0  0  0
    2.6706    1.4364    0.8190 C   0  0  0  0  0  0  0  0  0  0  0  0
    1.8587    1.4704    1.5700 H   0  0  0  0  0  0  0  0  0  0  0  0
    3.6810    1.3738    1.2635 H   0  0  0  0  0  0  0  0  0  0  0  0
    2.5973    2.3015    0.1335 H   0  0  0  0  0  0  0  0  0  0  0  0
  1  2  1  0  0  0  0
  2  8  1  0  0  0  0
  2  3  1  0  0  0  0
  3  6  1  0  0  0  0
  3  5  1  0  0  0  0
  4  2  1  0  0  0  0
  7  3  1  0  0  0  0
  8 10  1  0  0  0  0
  8  9  1  0  0  0  0
 11  8  1  0  0  0  0
M  END
