1
q = -1.0, confidence = 0.0

 16 16  0  0  0  0  0  0  0  0999 V2000
    0.1579    0.4003   -1.4270 N   0  0  0  0  0  1  0  0  0  0  0  0
    2.3448    1.3832   -2.0096 N   0  0  0  0  0  2  0  0  0  0  0  0
    1.2493    0.8463   -1.6609 C   0  0  0  0  0  2  0  0  0  0  0  0
    3.5826    0.9663   -1.5579 C   0  0  0  0  0  0  0  0  0  0  0  0
    4.7454    1.6449   -2.0100 C   0  0  0  0  0  0  0  0  0  0  0  0
    6.0140    1.2771   -1.5658 C   0  0  0  0  0  0  0  0  0  0  0  0
    6.1895    0.2099   -0.6444 C   0  0  0  0  0  0  0  0  0  0  0  0
    5.0290   -0.4746   -0.1952 C   0  0  0  0  0  0  0  0  0  0  0  0
    3.7613   -0.1084   -0.6403 C   0  0  0  0  0  0  0  0  0  0  0  0
    7.4869   -0.1638   -0.1846 C   0  0  0  0  0  0  0  0  0  0  0  0
    8.6031   -0.4865    0.2133 C   0  0  0  0  0  0  0  0  0  0  0  0
    4.6139    2.4741   -2.7204 H   0  0  0  0  0  0  0  0  0  0  0  0
    6.9017    1.8171   -1.9273 H   0  0  0  0  0  0  0  0  0  0  0  0
    5.1426   -1.3079    0.5149 H   0  0  0  0  0  0  0  0  0  0  0  0
    2.8756   -0.6558   -0.2839 H   0  0  0  0  0  0  0  0  0  0  0  0
    9.5866   -0.7689    0.5589 H   0  0  0  0  0  0  0  0  0  0  0  0
  2  3  1  0  0  0  0
  2  4  1  0  0  0  0
  3  1  1  0  0  0  0
  4  9  1  0  0  0  0
  5  6  1  0  0  0  0
  5  4  2  0  0  0  0
  6  7  2  0  0  0  0
  7  8  1  0  0  0  0
  7 10  1  0  0  0  0
  8 14  1  0  0  0  0
  9 15  1  0  0  0  0
  9  8  2  0  0  0  0
 10 11  3  0  0  0  0
 11 16  1  0  0  0  0
 12  5  1  0  0  0  0
 13  6  1  0  0  0  0
M  END
