1
q = -1.0

 32 32  0  0  0  0  0  0  0  0999 V2000
    0.3614    1.2348   -0.7902 N   0  0  0  0  0  1  0  0  0  0  0  0
    2.7407    0.6083   -0.7319 N   0  0  0  0  0  2  0  0  0  0  0  0
    1.5237    0.8803   -0.6890 C   0  0  0  0  0  2  0  0  0  0  0  0
    3.7053    0.2252    0.1944 C   0  0  0  0  0  0  0  0  0  0  0  0
    3.3847   -0.4027    1.4384 C   0  0  0  0  0  0  0  0  0  0  0  0
    4.4423   -0.7722    2.2885 C   0  0  0  0  0  0  0  0  0  0  0  0
    4.2095   -1.2544    3.2499 H   0  0  0  0  0  0  0  0  0  0  0  0
    5.7800   -0.5484    1.9389 C   0  0  0  0  0  0  0  0  0  0  0  0
    6.5883   -0.8486    2.6230 H   0  0  0  0  0  0  0  0  0  0  0  0
    6.0830    0.0494    0.7073 C   0  0  0  0  0  0  0  0  0  0  0  0
    7.1346    0.2139    0.4299 H   0  0  0  0  0  0  0  0  0  0  0  0
    5.0675    0.4383   -0.1799 C   0  0  0  0  0  0  0  0  0  0  0  0
    5.3667    1.1194   -1.5073 C   0  0  0  0  0  0  0  0  0  0  0  0
    4.5822    0.7688   -2.2127 H   0  0  0  0  0  0  0  0  0  0  0  0
    6.7370    0.7664   -2.0957 C   0  0  0  0  0  0  0  0  0  0  0  0
    6.8384    1.1909   -3.1152 H   0  0  0  0  0  0  0  0  0  0  0  0
    6.8848   -0.3303   -2.1644 H   0  0  0  0  0  0  0  0  0  0  0  0
    7.5690    1.1827   -1.4894 H   0  0  0  0  0  0  0  0  0  0  0  0
    5.1989    2.6456   -1.3777 C   0  0  0  0  0  0  0  0  0  0  0  0
    5.3486    3.1468   -2.3570 H   0  0  0  0  0  0  0  0  0  0  0  0
    5.9393    3.0611   -0.6623 H   0  0  0  0  0  0  0  0  0  0  0  0
    4.1857    2.9030   -1.0123 H   0  0  0  0  0  0  0  0  0  0  0  0
    1.9377   -0.6399    1.8468 C   0  0  0  0  0  0  0  0  0  0  0  0
    1.3449   -0.7482    0.9170 H   0  0  0  0  0  0  0  0  0  0  0  0
    1.7188   -1.9336    2.6418 C   0  0  0  0  0  0  0  0  0  0  0  0
    2.1456   -2.8096    2.1136 H   0  0  0  0  0  0  0  0  0  0  0  0
    0.6328   -2.1143    2.7777 H   0  0  0  0  0  0  0  0  0  0  0  0
    2.1729   -1.8886    3.6536 H   0  0  0  0  0  0  0  0  0  0  0  0
    1.3711    0.5775    2.6014 C   0  0  0  0  0  0  0  0  0  0  0  0
    0.2897    0.4395    2.8126 H   0  0  0  0  0  0  0  0  0  0  0  0
    1.4816    1.5077    2.0106 H   0  0  0  0  0  0  0  0  0  0  0  0
    1.9010    0.7210    3.5664 H   0  0  0  0  0  0  0  0  0  0  0  0
  1  3  1  0  0  0  0
  2  3  1  0  0  0  0
  2  4  1  0  0  0  0
  4  5  1  0  0  0  0
  5 23  1  0  0  0  0
  5  6  2  0  0  0  0
  6  7  1  0  0  0  0
  8  6  1  0  0  0  0
  8  9  1  0  0  0  0
 10  8  2  0  0  0  0
 11 10  1  0  0  0  0
 12  4  2  0  0  0  0
 12 10  1  0  0  0  0
 13 19  1  0  0  0  0
 13 12  1  0  0  0  0
 14 13  1  0  0  0  0
 15 13  1  0  0  0  0
 15 18  1  0  0  0  0
 16 15  1  0  0  0  0
 17 15  1  0  0  0  0
 19 22  1  0  0  0  0
 19 21  1  0  0  0  0
 20 19  1  0  0  0  0
 23 29  1  0  0  0  0
 23 25  1  0  0  0  0
 24 23  1  0  0  0  0
 25 27  1  0  0  0  0
 25 28  1  0  0  0  0
 26 25  1  0  0  0  0
 29 30  1  0  0  0  0
 29 32  1  0  0  0  0
 31 29  1  0  0  0  0
M  END
