1
q = -1.0, confidence = 0.0

 14 13  0  0  0  0  0  0  0  0999 V2000
   -0.2316   -0.6577    1.6074 N   0  0  0  0  0  1  0  0  0  0  0  0
   -1.2066   -1.3477    1.6619 C   0  0  0  0  0  2  0  0  0  0  0  0
   -2.3322   -2.1370    1.7162 C   0  0  0  0  0  3  0  0  0  0  0  0
   -2.2365   -3.2059    1.9540 H   0  0  0  0  0  0  0  0  0  0  0  0
   -3.6449   -1.5709    1.5486 C   0  0  0  0  0  0  0  0  0  0  0  0
   -3.9376   -0.4043    1.2738 O   0  0  0  0  0  0  0  0  0  0  0  0
   -4.6181   -2.5518    1.7256 O   0  0  0  0  0  0  0  0  0  0  0  0
   -5.9729   -2.1435    1.5448 C   0  0  0  0  0  0  0  0  0  0  0  0
   -6.5552   -2.6124    2.3668 H   0  0  0  0  0  0  0  0  0  0  0  0
   -6.0335   -1.0395    1.6428 H   0  0  0  0  0  0  0  0  0  0  0  0
   -6.5041   -2.5935    0.1893 C   0  0  0  0  0  0  0  0  0  0  0  0
   -7.5823   -2.3511    0.0882 H   0  0  0  0  0  0  0  0  0  0  0  0
   -6.3800   -3.6875    0.0574 H   0  0  0  0  0  0  0  0  0  0  0  0
   -5.9582   -2.0842   -0.6299 H   0  0  0  0  0  0  0  0  0  0  0  0
  1  2  1  0  0  0  0
  2  3  1  0  0  0  0
  3  4  1  0  0  0  0
  5  3  1  0  0  0  0
  5  7  1  0  0  0  0
  6  5  2  0  0  0  0
  8 10  1  0  0  0  0
  8  7  1  0  0  0  0
  8  9  1  0  0  0  0
 11  8  1  0  0  0  0
 12 11  1  0  0  0  0
 13 11  1  0  0  0  0
 14 11  1  0  0  0  0
M  END
