16
q = -1.0

 35 37  0  0  0  0  0  0  0  0999 V2000
    3.8775    1.7983    1.0853 F   0  0  0  0  0  0  0  0  0  0  0  0
    5.0787    1.2329    3.4114 F   0  0  0  0  0  0  0  0  0  0  0  0
    4.5005   -1.0850    4.7564 F   0  0  0  0  0  0  0  0  0  0  0  0
    2.6805   -2.8548    3.7026 F   0  0  0  0  0  0  0  0  0  0  0  0
    1.4899   -2.3288    1.3472 F   0  0  0  0  0  0  0  0  0  0  0  0
    0.5438   -2.4620   -1.6249 F   0  0  0  0  0  0  0  0  0  0  0  0
    1.8566   -4.1237   -3.2482 F   0  0  0  0  0  0  0  0  0  0  0  0
    4.4773   -3.6446   -3.9296 F   0  0  0  0  0  0  0  0  0  0  0  0
    5.7545   -1.4266   -2.9360 F   0  0  0  0  0  0  0  0  0  0  0  0
    4.4418    0.2703   -1.2896 F   0  0  0  0  0  0  0  0  0  0  0  0
    1.1738    2.3366    1.4357 F   0  0  0  0  0  0  0  0  0  0  0  0
    0.7939    4.8860    0.6752 F   0  0  0  0  0  0  0  0  0  0  0  0
    1.0414    5.5997   -1.9599 F   0  0  0  0  0  0  0  0  0  0  0  0
    1.7157    3.6981   -3.8270 F   0  0  0  0  0  0  0  0  0  0  0  0
    2.1089    1.1614   -3.1064 F   0  0  0  0  0  0  0  0  0  0  0  0
    0.2897   -0.2424   -0.0098 N   0  0  0  0  0  0  0  0  0  0  0  0
    2.5738   -0.2122    1.1287 C   0  0  0  0  0  0  0  0  0  0  0  0
    3.5318    0.6476    1.6906 C   0  0  0  0  0  0  0  0  0  0  0  0
    4.1804    0.3752    2.9081 C   0  0  0  0  0  0  0  0  0  0  0  0
    3.8906   -0.8125    3.5971 C   0  0  0  0  0  0  0  0  0  0  0  0
    2.9570   -1.7120    3.0601 C   0  0  0  0  0  0  0  0  0  0  0  0
    2.3405   -1.4027    1.8375 C   0  0  0  0  0  0  0  0  0  0  0  0
    2.4368   -1.0029   -1.3770 C   0  0  0  0  0  0  0  0  0  0  0  0
    1.8332   -2.1519   -1.9046 C   0  0  0  0  0  0  0  0  0  0  0  0
    2.4941   -3.0481   -2.7635 C   0  0  0  0  0  0  0  0  0  0  0  0
    3.8297   -2.8058   -3.1139 C   0  0  0  0  0  0  0  0  0  0  0  0
    4.4806   -1.6691   -2.6049 C   0  0  0  0  0  0  0  0  0  0  0  0
    3.7778   -0.8068   -1.7506 C   0  0  0  0  0  0  0  0  0  0  0  0
    1.6959    1.6126   -0.7856 C   0  0  0  0  0  0  0  0  0  0  0  0
    1.3327    2.6214    0.1256 C   0  0  0  0  0  0  0  0  0  0  0  0
    1.1257    3.9582   -0.2419 C   0  0  0  0  0  0  0  0  0  0  0  0
    1.2490    4.3322   -1.5883 C   0  0  0  0  0  0  0  0  0  0  0  0
    1.6010    3.3606   -2.5362 C   0  0  0  0  0  0  0  0  0  0  0  0
    1.8085    2.0316   -2.1210 C   0  0  0  0  0  0  0  0  0  0  0  0
    1.7781    0.0377   -0.2936 B   0  0  0  0  0  0  0  0  0  0  0  0
  1 18  1  0  0  0  0
  5 22  1  0  0  0  0
  7 25  1  0  0  0  0
  8 26  1  0  0  0  0
  9 27  1  0  0  0  0
 13 32  1  0  0  0  0
 14 33  1  0  0  0  0
 15 34  1  0  0  0  0
 17 18  2  0  0  0  0
 17 22  1  0  0  0  0
 18 19  1  0  0  0  0
 19  2  1  0  0  0  0
 19 20  2  0  0  0  0
 20  3  1  0  0  0  0
 21 20  1  0  0  0  0
 21  4  1  0  0  0  0
 22 21  2  0  0  0  0
 23 35  1  0  0  0  0
 24  6  1  0  0  0  0
 24 23  2  0  0  0  0
 25 24  1  0  0  0  0
 26 25  2  0  0  0  0
 26 27  1  0  0  0  0
 27 28  2  0  0  0  0
 28 23  1  0  0  0  0
 28 10  1  0  0  0  0
 29 35  1  0  0  0  0
 29 30  1  0  0  0  0
 30 11  1  0  0  0  0
 31 30  2  0  0  0  0
 31 12  1  0  0  0  0
 32 31  1  0  0  0  0
 33 34  1  0  0  0  0
 33 32  2  0  0  0  0
 34 29  2  0  0  0  0
 35 16  1  0  0  0  0
 35 17  1  0  0  0  0
M  END
