1
q = -1.0

  4  3  0  0  0  0  0  0  0  0999 V2000
    0.0025   -1.2855   -1.4051 N   0  0  0  0  0  0  0  0  0  0  0  0
   -0.0799   -2.7766   -1.4314 S   0  0  0  0  0  0  0  0  0  0  0  0
   -1.3549   -3.3597   -0.3662 F   0  0  0  0  0  0  0  0  0  0  0  0
    1.0549   -3.4819   -0.3022 F   0  0  0  0  0  0  0  0  0  0  0  0
  2  1  1  0  0  0  0
  2  3  1  0  0  0  0
  2  4  1  0  0  0  0
M  END
