1
q = -1.0, confidence = 0.088

 16 16  0  0  0  0  0  0  0  0999 V2000
   -1.0498    0.6774   -1.3049 N   0  0  0  0  0  1  0  0  0  0  0  0
   -1.8933    1.0386   -2.1265 N   0  0  0  0  0  2  0  0  0  0  0  0
   -3.2287    1.2717   -1.7753 C   0  0  0  0  0  0  0  0  0  0  0  0
   -3.7097    1.1385   -0.4475 C   0  0  0  0  0  0  0  0  0  0  0  0
   -3.0114    0.8369    0.3481 H   0  0  0  0  0  0  0  0  0  0  0  0
   -5.0583    1.3767   -0.1685 C   0  0  0  0  0  0  0  0  0  0  0  0
   -5.4167    1.2677    0.8690 H   0  0  0  0  0  0  0  0  0  0  0  0
   -5.9732    1.7541   -1.1764 C   0  0  0  0  0  0  0  0  0  0  0  0
   -5.4781    1.8814   -2.4918 C   0  0  0  0  0  0  0  0  0  0  0  0
   -6.1688    2.1697   -3.3010 H   0  0  0  0  0  0  0  0  0  0  0  0
   -4.1326    1.6481   -2.7939 C   0  0  0  0  0  0  0  0  0  0  0  0
   -3.7533    1.7446   -3.8216 H   0  0  0  0  0  0  0  0  0  0  0  0
   -7.4172    2.0427   -0.8504 C   0  0  0  0  0  0  0  0  0  0  0  0
   -7.7883    1.3974   -0.0286 H   0  0  0  0  0  0  0  0  0  0  0  0
   -8.0740    1.8886   -1.7298 H   0  0  0  0  0  0  0  0  0  0  0  0
   -7.5574    3.0959   -0.5208 H   0  0  0  0  0  0  0  0  0  0  0  0
  2  3  1  0  0  0  0
  2  1  1  0  0  0  0
  3  4  1  0  0  0  0
  4  6  2  0  0  0  0
  4  5  1  0  0  0  0
  6  7  1  0  0  0  0
  8 13  1  0  0  0  0
  8  6  1  0  0  0  0
  9  8  2  0  0  0  0
 10  9  1  0  0  0  0
 11  9  1  0  0  0  0
 11  3  2  0  0  0  0
 12 11  1  0  0  0  0
 13 16  1  0  0  0  0
 13 14  1  0  0  0  0
 15 13  1  0  0  0  0
M  END
