2
q = -1.0, confidence = 0.102

 41 43  0  0  0  0  0  0  0  0999 V2000
   -1.6594    0.0067    0.0077 P   0  0  0  0  0  4  0  0  0  0  0  0
   -0.0769   -0.3999   -0.0910 N   0  0  0  0  0  1  0  0  0  0  0  0
   -1.9766    0.3905    1.6236 N   0  0  0  0  0  0  0  0  0  0  0  0
   -2.4993   -1.2821   -0.6509 N   0  0  0  0  0  0  0  0  0  0  0  0
   -2.2630    1.3341   -0.8034 N   0  0  0  0  0  0  0  0  0  0  0  0
   -3.3598    0.6809    2.0720 C   0  0  0  0  0  0  0  0  0  0  0  0
   -4.0368    0.7889    1.2037 H   0  0  0  0  0  0  0  0  0  0  0  0
   -3.3614    1.6517    2.6116 H   0  0  0  0  0  0  0  0  0  0  0  0
   -3.7590   -0.4809    3.0264 C   0  0  0  0  0  0  0  0  0  0  0  0
   -4.0612   -0.0762    4.0117 H   0  0  0  0  0  0  0  0  0  0  0  0
   -4.6225   -1.0559    2.6387 H   0  0  0  0  0  0  0  0  0  0  0  0
   -2.4913   -1.3576    3.1441 C   0  0  0  0  0  0  0  0  0  0  0  0
   -2.5458   -2.2203    2.4477 H   0  0  0  0  0  0  0  0  0  0  0  0
   -2.3368   -1.7620    4.1630 H   0  0  0  0  0  0  0  0  0  0  0  0
   -1.3633   -0.4198    2.6964 C   0  0  0  0  0  0  0  0  0  0  0  0
   -1.0589    0.2646    3.5198 H   0  0  0  0  0  0  0  0  0  0  0  0
   -0.4522   -0.9293    2.3291 H   0  0  0  0  0  0  0  0  0  0  0  0
   -3.9744   -1.3167   -0.7456 C   0  0  0  0  0  0  0  0  0  0  0  0
   -4.3732   -0.3795   -1.1858 H   0  0  0  0  0  0  0  0  0  0  0  0
   -4.4370   -1.4383    0.2605 H   0  0  0  0  0  0  0  0  0  0  0  0
   -4.2417   -2.5549   -1.6070 C   0  0  0  0  0  0  0  0  0  0  0  0
   -5.2591   -2.9635   -1.4562 H   0  0  0  0  0  0  0  0  0  0  0  0
   -4.1342   -2.2997   -2.6823 H   0  0  0  0  0  0  0  0  0  0  0  0
   -3.1215   -3.5068   -1.1704 C   0  0  0  0  0  0  0  0  0  0  0  0
   -2.9446   -4.3389   -1.8783 H   0  0  0  0  0  0  0  0  0  0  0  0
   -3.3653   -3.9519   -0.1826 H   0  0  0  0  0  0  0  0  0  0  0  0
   -1.9054   -2.5804   -1.0454 C   0  0  0  0  0  0  0  0  0  0  0  0
   -1.1663   -2.9362   -0.3022 H   0  0  0  0  0  0  0  0  0  0  0  0
   -1.3752   -2.4823   -2.0176 H   0  0  0  0  0  0  0  0  0  0  0  0
   -2.3952    2.7087   -0.2606 C   0  0  0  0  0  0  0  0  0  0  0  0
   -1.5231    2.9896    0.3619 H   0  0  0  0  0  0  0  0  0  0  0  0
   -3.2973    2.7805    0.3827 H   0  0  0  0  0  0  0  0  0  0  0  0
   -2.5447    3.5903   -1.5106 C   0  0  0  0  0  0  0  0  0  0  0  0
   -1.5524    3.9526   -1.8465 H   0  0  0  0  0  0  0  0  0  0  0  0
   -3.1752    4.4792   -1.3179 H   0  0  0  0  0  0  0  0  0  0  0  0
   -3.1356    2.6372   -2.5580 C   0  0  0  0  0  0  0  0  0  0  0  0
   -4.2233    2.4957   -2.3858 H   0  0  0  0  0  0  0  0  0  0  0  0
   -3.0011    2.9868   -3.5993 H   0  0  0  0  0  0  0  0  0  0  0  0
   -2.3913    1.3299   -2.2781 C   0  0  0  0  0  0  0  0  0  0  0  0
   -2.9331    0.4295   -2.6287 H   0  0  0  0  0  0  0  0  0  0  0  0
   -1.3895    1.3274   -2.7654 H   0  0  0  0  0  0  0  0  0  0  0  0
  1  3  1  0  0  0  0
  2  1  1  0  0  0  0
  3  6  1  0  0  0  0
  3 15  1  0  0  0  0
  4  1  1  0  0  0  0
  5 30  1  0  0  0  0
  5  1  1  0  0  0  0
  6  8  1  0  0  0  0
  6  9  1  0  0  0  0
  7  6  1  0  0  0  0
  9 12  1  0  0  0  0
  9 10  1  0  0  0  0
 11  9  1  0  0  0  0
 12 14  1  0  0  0  0
 13 12  1  0  0  0  0
 15 12  1  0  0  0  0
 15 16  1  0  0  0  0
 17 15  1  0  0  0  0
 18  4  1  0  0  0  0
 18 20  1  0  0  0  0
 19 18  1  0  0  0  0
 21 22  1  0  0  0  0
 21 24  1  0  0  0  0
 21 18  1  0  0  0  0
 23 21  1  0  0  0  0
 24 27  1  0  0  0  0
 24 26  1  0  0  0  0
 25 24  1  0  0  0  0
 27  4  1  0  0  0  0
 27 28  1  0  0  0  0
 29 27  1  0  0  0  0
 30 31  1  0  0  0  0
 30 32  1  0  0  0  0
 33 35  1  0  0  0  0
 33 30  1  0  0  0  0
 34 33  1  0  0  0  0
 36 37  1  0  0  0  0
 36 39  1  0  0  0  0
 36 33  1  0  0  0  0
 38 36  1  0  0  0  0
 39  5  1  0  0  0  0
 40 39  1  0  0  0  0
 41 39  1  0  0  0  0
M  END
