2
q = -1.0

 37 38  0  0  0  0  0  0  0  0999 V2000
    1.5419   -0.3629    0.0786 P   0  0  0  0  0  4  0  0  0  0  0  0
   -0.0149   -0.7570    0.4180 N   0  0  0  0  0  1  0  0  0  0  0  0
    2.4405   -1.9221   -0.2593 C   0  0  0  0  0  0  0  0  0  0  0  0
    2.2351   -2.5524    0.6323 H   0  0  0  0  0  0  0  0  0  0  0  0
    1.9085   -2.4069   -1.1067 H   0  0  0  0  0  0  0  0  0  0  0  0
    3.9424   -1.7907   -0.5278 C   0  0  0  0  0  0  0  0  0  0  0  0
    4.4381   -1.3336    0.3553 H   0  0  0  0  0  0  0  0  0  0  0  0
    4.1153   -1.0922   -1.3756 H   0  0  0  0  0  0  0  0  0  0  0  0
    4.6005   -3.1418   -0.8375 C   0  0  0  0  0  0  0  0  0  0  0  0
    4.4129   -3.8388    0.0085 H   0  0  0  0  0  0  0  0  0  0  0  0
    4.0994   -3.5966   -1.7205 H   0  0  0  0  0  0  0  0  0  0  0  0
    6.1026   -3.0247   -1.0937 C   0  0  0  0  0  0  0  0  0  0  0  0
    6.6318   -2.6080   -0.2120 H   0  0  0  0  0  0  0  0  0  0  0  0
    6.3159   -2.3593   -1.9557 H   0  0  0  0  0  0  0  0  0  0  0  0
    6.5518   -4.0125   -1.3157 H   0  0  0  0  0  0  0  0  0  0  0  0
    1.7315    0.7386   -1.3534 C   0  0  0  0  0  0  0  0  0  0  0  0
    1.7910    0.1933   -2.6539 C   0  0  0  0  0  0  0  0  0  0  0  0
    1.7901   -0.8962   -2.8063 H   0  0  0  0  0  0  0  0  0  0  0  0
    1.8476    1.0436   -3.7671 C   0  0  0  0  0  0  0  0  0  0  0  0
    1.8989    0.6151   -4.7788 H   0  0  0  0  0  0  0  0  0  0  0  0
    1.8415    2.4369   -3.5902 C   0  0  0  0  0  0  0  0  0  0  0  0
    1.8912    3.1017   -4.4653 H   0  0  0  0  0  0  0  0  0  0  0  0
    1.7735    2.9822   -2.2979 C   0  0  0  0  0  0  0  0  0  0  0  0
    1.7696    4.0736   -2.1593 H   0  0  0  0  0  0  0  0  0  0  0  0
    1.7138    2.1385   -1.1794 C   0  0  0  0  0  0  0  0  0  0  0  0
    1.6614    2.5696   -0.1686 H   0  0  0  0  0  0  0  0  0  0  0  0
    2.2925    0.4449    1.5233 C   0  0  0  0  0  0  0  0  0  0  0  0
    3.5213    1.1328    1.4181 C   0  0  0  0  0  0  0  0  0  0  0  0
    4.0255    1.2321    0.4450 H   0  0  0  0  0  0  0  0  0  0  0  0
    4.0941    1.7055    2.5624 C   0  0  0  0  0  0  0  0  0  0  0  0
    5.0499    2.2442    2.4820 H   0  0  0  0  0  0  0  0  0  0  0  0
    3.4494    1.5944    3.8058 C   0  0  0  0  0  0  0  0  0  0  0  0
    3.9032    2.0467    4.7002 H   0  0  0  0  0  0  0  0  0  0  0  0
    2.2283    0.9092    3.9095 C   0  0  0  0  0  0  0  0  0  0  0  0
    1.7248    0.8225    4.8838 H   0  0  0  0  0  0  0  0  0  0  0  0
    1.6468    0.3307    2.7719 C   0  0  0  0  0  0  0  0  0  0  0  0
    0.6882   -0.2063    2.8383 H   0  0  0  0  0  0  0  0  0  0  0  0
  1  2  1  0  0  0  0
  1 27  1  0  0  0  0
  3  1  1  0  0  0  0
  3  4  1  0  0  0  0
  5  3  1  0  0  0  0
  6  3  1  0  0  0  0
  6  7  1  0  0  0  0
  8  6  1  0  0  0  0
  9  6  1  0  0  0  0
  9 10  1  0  0  0  0
 11  9  1  0  0  0  0
 12  9  1  0  0  0  0
 12 13  1  0  0  0  0
 14 12  1  0  0  0  0
 15 12  1  0  0  0  0
 16 25  1  0  0  0  0
 16  1  1  0  0  0  0
 17 16  2  0  0  0  0
 18 17  1  0  0  0  0
 19 21  2  0  0  0  0
 19 17  1  0  0  0  0
 20 19  1  0  0  0  0
 21 23  1  0  0  0  0
 22 21  1  0  0  0  0
 23 24  1  0  0  0  0
 23 25  2  0  0  0  0
 25 26  1  0  0  0  0
 27 36  1  0  0  0  0
 28 27  2  0  0  0  0
 28 30  1  0  0  0  0
 29 28  1  0  0  0  0
 30 32  2  0  0  0  0
 31 30  1  0  0  0  0
 32 34  1  0  0  0  0
 32 33  1  0  0  0  0
 34 35  1  0  0  0  0
 36 37  1  0  0  0  0
 36 34  2  0  0  0  0
M  END
