2
q = -1.0

 31 32  0  0  0  0  0  0  0  0999 V2000
   -1.6542   -0.4973   -0.9280 P   0  0  0  0  0  4  0  0  0  0  0  0
   -0.0797   -0.8568   -0.6393 N   0  0  0  0  0  1  0  0  0  0  0  0
   -2.0725   -1.1706   -2.5824 C   0  0  0  0  0  0  0  0  0  0  0  0
   -1.3594   -0.6975   -3.2908 H   0  0  0  0  0  0  0  0  0  0  0  0
   -1.7760   -2.2385   -2.5154 H   0  0  0  0  0  0  0  0  0  0  0  0
   -3.5270   -1.0029   -3.0198 C   0  0  0  0  0  0  0  0  0  0  0  0
   -3.8264    0.0632   -3.0611 H   0  0  0  0  0  0  0  0  0  0  0  0
   -4.2210   -1.5303   -2.3367 H   0  0  0  0  0  0  0  0  0  0  0  0
   -3.6673   -1.4305   -4.0318 H   0  0  0  0  0  0  0  0  0  0  0  0
   -2.0259    1.2807   -0.9143 C   0  0  0  0  0  0  0  0  0  0  0  0
   -1.8293    2.0465   -2.0837 C   0  0  0  0  0  0  0  0  0  0  0  0
   -1.5160    1.5671   -3.0230 H   0  0  0  0  0  0  0  0  0  0  0  0
   -2.0285    3.4339   -2.0532 C   0  0  0  0  0  0  0  0  0  0  0  0
   -1.8793    4.0266   -2.9677 H   0  0  0  0  0  0  0  0  0  0  0  0
   -2.4192    4.0633   -0.8600 C   0  0  0  0  0  0  0  0  0  0  0  0
   -2.5797    5.1515   -0.8404 H   0  0  0  0  0  0  0  0  0  0  0  0
   -2.6066    3.3054    0.3071 C   0  0  0  0  0  0  0  0  0  0  0  0
   -2.9131    3.7984    1.2417 H   0  0  0  0  0  0  0  0  0  0  0  0
   -2.4071    1.9176    0.2857 C   0  0  0  0  0  0  0  0  0  0  0  0
   -2.5554    1.3275    1.2024 H   0  0  0  0  0  0  0  0  0  0  0  0
   -2.7052   -1.3105    0.3113 C   0  0  0  0  0  0  0  0  0  0  0  0
   -4.0624   -0.9519    0.4661 C   0  0  0  0  0  0  0  0  0  0  0  0
   -4.4972   -0.1351   -0.1294 H   0  0  0  0  0  0  0  0  0  0  0  0
   -4.8567   -1.6344    1.3985 C   0  0  0  0  0  0  0  0  0  0  0  0
   -5.9133   -1.3547    1.5224 H   0  0  0  0  0  0  0  0  0  0  0  0
   -4.3051   -2.6687    2.1729 C   0  0  0  0  0  0  0  0  0  0  0  0
   -4.9330   -3.2000    2.9036 H   0  0  0  0  0  0  0  0  0  0  0  0
   -2.9560   -3.0251    2.0176 C   0  0  0  0  0  0  0  0  0  0  0  0
   -2.5255   -3.8355    2.6245 H   0  0  0  0  0  0  0  0  0  0  0  0
   -2.1525   -2.3509    1.0866 C   0  0  0  0  0  0  0  0  0  0  0  0
   -1.0925   -2.6181    0.9569 H   0  0  0  0  0  0  0  0  0  0  0  0
  1 10  1  0  0  0  0
  1  2  1  0  0  0  0
  1 21  1  0  0  0  0
  3  5  1  0  0  0  0
  3  1  1  0  0  0  0
  4  3  1  0  0  0  0
  6  3  1  0  0  0  0
  6  8  1  0  0  0  0
  7  6  1  0  0  0  0
  9  6  1  0  0  0  0
 10 19  1  0  0  0  0
 11 13  1  0  0  0  0
 11 10  2  0  0  0  0
 12 11  1  0  0  0  0
 13 15  2  0  0  0  0
 14 13  1  0  0  0  0
 15 16  1  0  0  0  0
 15 17  1  0  0  0  0
 17 18  1  0  0  0  0
 19 17  2  0  0  0  0
 19 20  1  0  0  0  0
 21 22  2  0  0  0  0
 21 30  1  0  0  0  0
 22 24  1  0  0  0  0
 23 22  1  0  0  0  0
 24 25  1  0  0  0  0
 24 26  2  0  0  0  0
 26 27  1  0  0  0  0
 28 26  1  0  0  0  0
 28 29  1  0  0  0  0
 30 28  2  0  0  0  0
 31 30  1  0  0  0  0
M  END
