7
q = -2.0, confidence = 0.73

 12 12  0  0  0  0  0  0  0  0999 V2000
   -1.1673    0.0009    0.0004 C   0  0  0  0  0  0  0  0  0  0  0  0
   -3.2750    1.2250   -0.0001 C   0  0  0  0  0  0  0  0  0  0  0  0
   -3.8260    2.1761   -0.0002 H   0  0  0  0  0  0  0  0  0  0  0  0
   -3.2736   -1.2256   -0.0001 C   0  0  0  0  0  0  0  0  0  0  0  0
   -3.8236   -2.1773   -0.0003 H   0  0  0  0  0  0  0  0  0  0  0  0
   -6.0834   -0.0018   -0.0008 I   0  0  0  0  0  0  0  0  0  0  0  0
    0.1934    0.0017    0.0008 N   0  0  0  0  0  1  0  0  0  0  0  0
   -3.9672   -0.0007   -0.0003 C   0  0  0  0  0  0  0  0  0  0  0  0
   -1.8780    1.2285    0.0002 C   0  0  0  0  0  0  0  0  0  0  0  0
   -1.3117    2.1707    0.0004 H   0  0  0  0  0  0  0  0  0  0  0  0
   -1.8767   -1.2275    0.0002 C   0  0  0  0  0  0  0  0  0  0  0  0
   -1.3093   -2.1691    0.0003 H   0  0  0  0  0  0  0  0  0  0  0  0
  1  7  1  0  0  0  0
  2  9  2  0  0  0  0
  3  2  1  0  0  0  0
  4 11  1  0  0  0  0
  5  4  1  0  0  0  0
  6  8  1  0  0  0  0
  8  4  2  0  0  0  0
  8  2  1  0  0  0  0
  9 10  1  0  0  0  0
  9  1  1  0  0  0  0
 11 12  1  0  0  0  0
 11  1  2  0  0  0  0
M  END
