2
q = -1.0

 18 17  0  0  0  0  0  0  0  0999 V2000
    3.9191   -0.1704   -0.0256 Si  0  0  0  0  0  0  0  0  0  0  0  0
    0.4840   -0.5875    0.6170 N   0  0  0  0  0  1  0  0  0  0  0  0
    1.5133   -1.0840    1.0287 N   0  0  0  0  0  2  0  0  0  0  0  0
    2.5507   -1.5307    0.1031 C   0  0  0  0  0  0  0  0  0  0  0  0
    2.1201   -1.7534   -0.9007 H   0  0  0  0  0  0  0  0  0  0  0  0
    3.0113   -2.4540    0.5120 H   0  0  0  0  0  0  0  0  0  0  0  0
    3.1010    1.4403   -0.5603 C   0  0  0  0  0  0  0  0  0  0  0  0
    3.8439    2.2633   -0.6004 H   0  0  0  0  0  0  0  0  0  0  0  0
    2.3049    1.7335    0.1542 H   0  0  0  0  0  0  0  0  0  0  0  0
    2.6332    1.3533   -1.5615 H   0  0  0  0  0  0  0  0  0  0  0  0
    5.1824   -0.7678   -1.3004 C   0  0  0  0  0  0  0  0  0  0  0  0
    4.7179   -0.8948   -2.2996 H   0  0  0  0  0  0  0  0  0  0  0  0
    5.6321   -1.7374   -1.0032 H   0  0  0  0  0  0  0  0  0  0  0  0
    6.0069   -0.0322   -1.4039 H   0  0  0  0  0  0  0  0  0  0  0  0
    4.7051    0.0066    1.6815 C   0  0  0  0  0  0  0  0  0  0  0  0
    5.4568    0.8224    1.6937 H   0  0  0  0  0  0  0  0  0  0  0  0
    5.2125   -0.9294    1.9930 H   0  0  0  0  0  0  0  0  0  0  0  0
    3.9289    0.2428    2.4375 H   0  0  0  0  0  0  0  0  0  0  0  0
  1  4  1  0  0  0  0
  1 15  1  0  0  0  0
  2  3  1  0  0  0  0
  4  6  1  0  0  0  0
  4  3  1  0  0  0  0
  5  4  1  0  0  0  0
  7  1  1  0  0  0  0
  7  9  1  0  0  0  0
  8  7  1  0  0  0  0
 10  7  1  0  0  0  0
 11 13  1  0  0  0  0
 11  1  1  0  0  0  0
 12 11  1  0  0  0  0
 14 11  1  0  0  0  0
 15 16  1  0  0  0  0
 15 17  1  0  0  0  0
 15 18  1  0  0  0  0
M  END
