4
q = -1.0, confidence = 0.012

 42 42  0  0  1  0  0  0  0  0999 V2000
   -1.5785    0.9340    1.0553 N   0  0  0  0  0  0  0  0  0  0  0  0
   -2.0655    1.0330    1.9485 H   0  0  0  0  0  0  0  0  0  0  0  0
   -0.1053    2.6438    1.6703 N   0  0  0  0  0  0  0  0  0  0  0  0
    0.6187    0.9463    0.2165 N   0  0  0  0  0  1  0  0  0  0  0  0
   -2.0160   -0.1197    0.1943 C   0  0  0  0  0  0  0  0  0  0  0  0
   -1.9461   -1.4642    0.6461 C   0  0  0  0  0  0  0  0  0  0  0  0
   -2.3777   -2.4768   -0.2295 C   0  0  0  0  0  0  0  0  0  0  0  0
   -2.3253   -3.5273    0.0896 H   0  0  0  0  0  0  0  0  0  0  0  0
   -2.8610   -2.1678   -1.5083 C   0  0  0  0  0  0  0  0  0  0  0  0
   -3.1844   -2.9756   -2.1822 H   0  0  0  0  0  0  0  0  0  0  0  0
   -2.9338   -0.8352   -1.9300 C   0  0  0  0  0  0  0  0  0  0  0  0
   -3.3208   -0.6039   -2.9335 H   0  0  0  0  0  0  0  0  0  0  0  0
   -2.5202    0.2161   -1.0885 C   0  0  0  0  0  0  0  0  0  0  0  0
   -2.5936    1.6620   -1.5627 C   0  0  0  0  0  0  0  0  0  0  0  0
   -2.5196    2.2964   -0.6551 H   0  0  0  0  0  0  0  0  0  0  0  0
   -3.9267    1.9915   -2.2511 C   0  0  0  0  0  0  0  0  0  0  0  0
   -4.0360    1.4587   -3.2182 H   0  0  0  0  0  0  0  0  0  0  0  0
   -3.9875    3.0766   -2.4718 H   0  0  0  0  0  0  0  0  0  0  0  0
   -4.7936    1.7192   -1.6161 H   0  0  0  0  0  0  0  0  0  0  0  0
   -1.3960    2.0125   -2.4663 C   0  0  0  0  0  0  0  0  0  0  0  0
   -0.4363    1.8397   -1.9419 H   0  0  0  0  0  0  0  0  0  0  0  0
   -1.4384    3.0768   -2.7771 H   0  0  0  0  0  0  0  0  0  0  0  0
   -1.4028    1.3912   -3.3865 H   0  0  0  0  0  0  0  0  0  0  0  0
   -1.4442   -1.7739    2.0503 C   0  0  0  0  0  0  0  0  0  0  0  0
   -0.6087   -1.0699    2.2515 H   0  0  0  0  0  0  0  0  0  0  0  0
   -2.5560   -1.5222    3.0887 C   0  0  0  0  0  0  0  0  0  0  0  0
   -2.9738   -0.4946    3.0328 H   0  0  0  0  0  0  0  0  0  0  0  0
   -2.1755   -1.6734    4.1195 H   0  0  0  0  0  0  0  0  0  0  0  0
   -3.4042   -2.2198    2.9299 H   0  0  0  0  0  0  0  0  0  0  0  0
   -0.8740   -3.1866    2.2113 C   0  0  0  0  0  0  0  0  0  0  0  0
   -1.6538   -3.9686    2.1004 H   0  0  0  0  0  0  0  0  0  0  0  0
   -0.4334   -3.3015    3.2214 H   0  0  0  0  0  0  0  0  0  0  0  0
   -0.0656   -3.3769    1.4796 H   0  0  0  0  0  0  0  0  0  0  0  0
   -0.3115    1.4893    0.9544 C   0  0  2  0  0  3  0  0  0  0  0  0
   -1.1702    3.3030    2.4015 C   0  0  0  0  0  0  0  0  0  0  0  0
   -2.1335    3.2038    1.8636 H   0  0  0  0  0  0  0  0  0  0  0  0
   -0.9370    4.3829    2.4858 H   0  0  0  0  0  0  0  0  0  0  0  0
   -1.2964    2.9078    3.4376 H   0  0  0  0  0  0  0  0  0  0  0  0
    1.2386    3.1794    1.8282 C   0  0  0  0  0  0  0  0  0  0  0  0
    1.9524    2.5935    1.2198 H   0  0  0  0  0  0  0  0  0  0  0  0
    1.5558    3.1368    2.8933 H   0  0  0  0  0  0  0  0  0  0  0  0
    1.2685    4.2391    1.4969 H   0  0  0  0  0  0  0  0  0  0  0  0
  1  2  1  0  0  0  0
  3 39  1  0  0  0  0
  3 35  1  0  0  0  0
  5  6  1  0  0  0  0
  5  1  1  0  0  0  0
  6 24  1  0  0  0  0
  7  8  1  0  0  0  0
  7  6  2  0  0  0  0
  9  7  1  0  0  0  0
 10  9  1  0  0  0  0
 11  9  2  0  0  0  0
 11 13  1  0  0  0  0
 12 11  1  0  0  0  0
 13  5  2  0  0  0  0
 14 13  1  0  0  0  0
 14 15  1  0  0  0  0
 16 19  1  0  0  0  0
 16 14  1  0  0  0  0
 17 16  1  0  0  0  0
 18 16  1  0  0  0  0
 20 21  1  0  0  0  0
 20 14  1  0  0  0  0
 22 20  1  0  0  0  0
 23 20  1  0  0  0  0
 24 30  1  0  0  0  0
 24 25  1  0  0  0  0
 24 26  1  0  0  0  0
 26 28  1  0  0  0  0
 27 26  1  0  0  0  0
 29 26  1  0  0  0  0
 30 32  1  0  0  0  0
 31 30  1  0  0  0  0
 33 30  1  0  0  0  0
 34  4  1  6  0  0  0
 34  1  1  0  0  0  0
 34  3  1  0  0  0  0
 35 37  1  0  0  0  0
 35 38  1  0  0  0  0
 36 35  1  0  0  0  0
 39 41  1  0  0  0  0
 40 39  1  0  0  0  0
 42 39  1  0  0  0  0
M  END
