2
q = -2.0, confidence = 0.834

 35 37  0  0  0  0  0  0  0  0999 V2000
    2.0025   -0.1158    0.0570 Si  0  0  0  0  0  0  0  0  0  0  0  0
    0.3954   -0.1094   -0.6045 N   0  0  0  0  0  1  0  0  0  0  0  0
    2.4303    1.6749    0.5255 C   0  0  0  0  0  0  0  0  0  0  0  0
    2.2479    2.1875    1.8292 C   0  0  0  0  0  0  0  0  0  0  0  0
    1.9610    1.5082    2.6475 H   0  0  0  0  0  0  0  0  0  0  0  0
    2.4224    3.5549    2.1011 C   0  0  0  0  0  0  0  0  0  0  0  0
    2.2727    3.9343    3.1240 H   0  0  0  0  0  0  0  0  0  0  0  0
    2.7917    4.4359    1.0716 C   0  0  0  0  0  0  0  0  0  0  0  0
    2.9284    5.5077    1.2834 H   0  0  0  0  0  0  0  0  0  0  0  0
    2.9984    3.9413   -0.2271 C   0  0  0  0  0  0  0  0  0  0  0  0
    3.3008    4.6252   -1.0357 H   0  0  0  0  0  0  0  0  0  0  0  0
    2.8208    2.5745   -0.4938 C   0  0  0  0  0  0  0  0  0  0  0  0
    2.9812    2.1971   -1.5171 H   0  0  0  0  0  0  0  0  0  0  0  0
    3.2175   -0.7112   -1.2616 C   0  0  0  0  0  0  0  0  0  0  0  0
    2.7329   -1.1994   -2.4951 C   0  0  0  0  0  0  0  0  0  0  0  0
    1.6449   -1.2060   -2.6736 H   0  0  0  0  0  0  0  0  0  0  0  0
    3.6167   -1.6531   -3.4876 C   0  0  0  0  0  0  0  0  0  0  0  0
    3.2227   -2.0273   -4.4456 H   0  0  0  0  0  0  0  0  0  0  0  0
    5.0021   -1.6243   -3.2613 C   0  0  0  0  0  0  0  0  0  0  0  0
    5.6965   -1.9794   -4.0386 H   0  0  0  0  0  0  0  0  0  0  0  0
    5.5020   -1.1337   -2.0433 C   0  0  0  0  0  0  0  0  0  0  0  0
    6.5885   -1.1022   -1.8663 H   0  0  0  0  0  0  0  0  0  0  0  0
    4.6157   -0.6784   -1.0549 C   0  0  0  0  0  0  0  0  0  0  0  0
    5.0207   -0.2835   -0.1082 H   0  0  0  0  0  0  0  0  0  0  0  0
    2.0457   -1.2399    1.5800 C   0  0  0  0  0  0  0  0  0  0  0  0
    2.9766   -2.2942    1.7149 C   0  0  0  0  0  0  0  0  0  0  0  0
    3.7275   -2.4623    0.9261 H   0  0  0  0  0  0  0  0  0  0  0  0
    2.9536   -3.1411    2.8352 C   0  0  0  0  0  0  0  0  0  0  0  0
    3.6863   -3.9590    2.9199 H   0  0  0  0  0  0  0  0  0  0  0  0
    1.9941   -2.9497    3.8425 C   0  0  0  0  0  0  0  0  0  0  0  0
    1.9736   -3.6154    4.7194 H   0  0  0  0  0  0  0  0  0  0  0  0
    1.0577   -1.9095    3.7241 C   0  0  0  0  0  0  0  0  0  0  0  0
    0.2903   -1.7544    4.4982 H   0  0  0  0  0  0  0  0  0  0  0  0
    1.0833   -1.0650    2.6036 C   0  0  0  0  0  0  0  0  0  0  0  0
    0.3211   -0.2747    2.5212 H   0  0  0  0  0  0  0  0  0  0  0  0
  1  3  1  0  0  0  0
  1 25  1  0  0  0  0
  2  1  1  0  0  0  0
  3  4  1  0  0  0  0
  4  6  2  0  0  0  0
  4  5  1  0  0  0  0
  6  7  1  0  0  0  0
  8  9  1  0  0  0  0
  8  6  1  0  0  0  0
 10  8  2  0  0  0  0
 11 10  1  0  0  0  0
 12 10  1  0  0  0  0
 12  3  2  0  0  0  0
 13 12  1  0  0  0  0
 14 23  1  0  0  0  0
 14  1  1  0  0  0  0
 15 14  2  0  0  0  0
 16 15  1  0  0  0  0
 17 19  2  0  0  0  0
 17 15  1  0  0  0  0
 18 17  1  0  0  0  0
 19 21  1  0  0  0  0
 20 19  1  0  0  0  0
 21 22  1  0  0  0  0
 21 23  2  0  0  0  0
 23 24  1  0  0  0  0
 25 26  2  0  0  0  0
 25 34  1  0  0  0  0
 26 28  1  0  0  0  0
 27 26  1  0  0  0  0
 28 29  1  0  0  0  0
 28 30  2  0  0  0  0
 30 31  1  0  0  0  0
 32 30  1  0  0  0  0
 32 33  1  0  0  0  0
 34 32  2  0  0  0  0
 35 34  1  0  0  0  0
M  END
