1
q = -1.0

 13 13  0  0  0  0  0  0  0  0999 V2000
   -0.5556   -1.2656   -0.1982 N   0  0  0  0  0  1  0  0  0  0  0  0
   -0.8757   -2.2942    0.3674 N   0  0  0  0  0  2  0  0  0  0  0  0
   -2.1373   -2.9044    0.2973 C   0  0  0  0  0  0  0  0  0  0  0  0
   -2.3263   -4.0945    1.0342 C   0  0  0  0  0  0  0  0  0  0  0  0
   -3.5631   -4.7420    1.0089 C   0  0  0  0  0  0  0  0  0  0  0  0
   -4.6044   -4.1916    0.2451 C   0  0  0  0  0  0  0  0  0  0  0  0
   -4.4349   -3.0076   -0.4930 C   0  0  0  0  0  0  0  0  0  0  0  0
   -3.1979   -2.3621   -0.4679 C   0  0  0  0  0  0  0  0  0  0  0  0
   -5.7898   -4.8076    0.2177 F   0  0  0  0  0  0  0  0  0  0  0  0
   -1.4886   -4.4926    1.6239 H   0  0  0  0  0  0  0  0  0  0  0  0
   -3.7407   -5.6689    1.5721 H   0  0  0  0  0  0  0  0  0  0  0  0
   -5.2807   -2.6136   -1.0743 H   0  0  0  0  0  0  0  0  0  0  0  0
   -3.0386   -1.4320   -1.0332 H   0  0  0  0  0  0  0  0  0  0  0  0
  1  2  1  0  0  0  0
  3  2  1  0  0  0  0
  3  4  1  0  0  0  0
  4 10  1  0  0  0  0
  5  4  2  0  0  0  0
  5 11  1  0  0  0  0
  6  5  1  0  0  0  0
  7  8  1  0  0  0  0
  7  6  2  0  0  0  0
  8  3  2  0  0  0  0
  9  6  1  0  0  0  0
 12  7  1  0  0  0  0
 13  8  1  0  0  0  0
M  END
