1
q = -2.0, confidence = 0.554

 21 21  0  0  0  0  0  0  0  0999 V2000
    0.8521    0.6541   -0.1923 N   0  0  0  0  0  1  0  0  0  0  0  0
    2.0708    1.1994    0.0925 C   0  0  0  0  0  0  0  0  0  0  0  0
    3.2768    0.5602   -0.3626 C   0  0  0  0  0  0  0  0  0  0  0  0
    4.5096    1.1444   -0.0329 C   0  0  0  0  0  0  0  0  0  0  0  0
    4.5983    2.3311    0.7161 C   0  0  0  0  0  0  0  0  0  0  0  0
    3.4230    2.9579    1.1584 C   0  0  0  0  0  0  0  0  0  0  0  0
    2.1780    2.3963    0.8551 C   0  0  0  0  0  0  0  0  0  0  0  0
    3.1653   -0.6965   -1.2092 C   0  0  0  0  0  0  0  0  0  0  0  0
    4.3713   -1.6351   -1.1035 C   0  0  0  0  0  0  0  0  0  0  0  0
    2.8628   -0.3288   -2.6737 C   0  0  0  0  0  0  0  0  0  0  0  0
    5.4376    0.6590   -0.3720 H   0  0  0  0  0  0  0  0  0  0  0  0
    5.5832    2.7606    0.9538 H   0  0  0  0  0  0  0  0  0  0  0  0
    3.4761    3.8863    1.7484 H   0  0  0  0  0  0  0  0  0  0  0  0
    1.2504    2.8749    1.2054 H   0  0  0  0  0  0  0  0  0  0  0  0
    2.2708   -1.2436   -0.8370 H   0  0  0  0  0  0  0  0  0  0  0  0
    4.1709   -2.5799   -1.6485 H   0  0  0  0  0  0  0  0  0  0  0  0
    4.6045   -1.8887   -0.0489 H   0  0  0  0  0  0  0  0  0  0  0  0
    5.2846   -1.1914   -1.5528 H   0  0  0  0  0  0  0  0  0  0  0  0
    2.6802   -1.2404   -3.2789 H   0  0  0  0  0  0  0  0  0  0  0  0
    1.9550    0.3009   -2.7372 H   0  0  0  0  0  0  0  0  0  0  0  0
    3.7136    0.2274   -3.1203 H   0  0  0  0  0  0  0  0  0  0  0  0
  1  2  1  0  0  0  0
  2  7  1  0  0  0  0
  3  4  1  0  0  0  0
  3  2  2  0  0  0  0
  4  5  2  0  0  0  0
  5 12  1  0  0  0  0
  5  6  1  0  0  0  0
  6 13  1  0  0  0  0
  7  6  2  0  0  0  0
  7 14  1  0  0  0  0
  8  9  1  0  0  0  0
  8 15  1  0  0  0  0
  8  3  1  0  0  0  0
  9 17  1  0  0  0  0
 10  8  1  0  0  0  0
 11  4  1  0  0  0  0
 16  9  1  0  0  0  0
 18  9  1  0  0  0  0
 19 10  1  0  0  0  0
 20 10  1  0  0  0  0
 21 10  1  0  0  0  0
M  END
