1
q = 0.0, confidence = 1.0

 39 39  0  0  0  0  0  0  0  0999 V2000
   -1.1348    0.7488   -0.7692 N   0  0  0  0  0  1  0  0  0  0  0  0
   -1.7014   -0.2090   -1.1260 C   0  0  0  0  0  2  0  0  0  0  0  0
   -2.4077   -1.3682   -1.5498 C   0  0  0  0  0  0  0  0  0  0  0  0
   -3.6533   -1.6379   -0.9027 C   0  0  0  0  0  0  0  0  0  0  0  0
   -1.8966   -2.2025   -2.5704 C   0  0  0  0  0  0  0  0  0  0  0  0
   -4.3635   -2.7795   -1.3326 C   0  0  0  0  0  0  0  0  0  0  0  0
   -4.1151   -0.7782    0.1177 N   0  0  0  0  0  0  0  0  0  0  0  0
   -2.6268   -3.3271   -2.9636 C   0  0  0  0  0  0  0  0  0  0  0  0
   -0.9301   -1.9575   -3.0335 H   0  0  0  0  0  0  0  0  0  0  0  0
   -3.8589   -3.6084   -2.3450 C   0  0  0  0  0  0  0  0  0  0  0  0
   -5.3300   -2.9983   -0.8568 H   0  0  0  0  0  0  0  0  0  0  0  0
   -5.1313    0.6266   -0.3890 Si  0  0  0  0  0  0  0  0  0  0  0  0
   -3.8050   -1.3531    1.7910 Si  0  0  0  0  0  0  0  0  0  0  0  0
   -2.2395   -3.9846   -3.7552 H   0  0  0  0  0  0  0  0  0  0  0  0
   -4.4388   -4.4891   -2.6611 H   0  0  0  0  0  0  0  0  0  0  0  0
   -6.9467    0.1409   -0.1579 C   0  0  0  0  0  0  0  0  0  0  0  0
   -4.7417    2.1984    0.5661 C   0  0  0  0  0  0  0  0  0  0  0  0
   -4.7751    0.9422   -2.2168 C   0  0  0  0  0  0  0  0  0  0  0  0
   -4.3660   -0.0619    3.0373 C   0  0  0  0  0  0  0  0  0  0  0  0
   -4.7491   -2.9681    2.0923 C   0  0  0  0  0  0  0  0  0  0  0  0
   -1.9535   -1.6757    1.9940 C   0  0  0  0  0  0  0  0  0  0  0  0
   -7.1585   -0.1017    0.9041 H   0  0  0  0  0  0  0  0  0  0  0  0
   -7.6267    0.9652   -0.4578 H   0  0  0  0  0  0  0  0  0  0  0  0
   -7.2009   -0.7513   -0.7666 H   0  0  0  0  0  0  0  0  0  0  0  0
   -5.1625    2.2075    1.5890 H   0  0  0  0  0  0  0  0  0  0  0  0
   -3.6491    2.3739    0.6325 H   0  0  0  0  0  0  0  0  0  0  0  0
   -5.1871    3.0501    0.0104 H   0  0  0  0  0  0  0  0  0  0  0  0
   -5.4988    1.6952   -2.5920 H   0  0  0  0  0  0  0  0  0  0  0  0
   -3.7593    1.3667   -2.3529 H   0  0  0  0  0  0  0  0  0  0  0  0
   -4.8711    0.0363   -2.8477 H   0  0  0  0  0  0  0  0  0  0  0  0
   -5.4400    0.1935    2.9401 H   0  0  0  0  0  0  0  0  0  0  0  0
   -4.2121   -0.4785    4.0544 H   0  0  0  0  0  0  0  0  0  0  0  0
   -3.7633    0.8629    2.9514 H   0  0  0  0  0  0  0  0  0  0  0  0
   -4.4049   -3.7803    1.4207 H   0  0  0  0  0  0  0  0  0  0  0  0
   -4.5959   -3.3116    3.1368 H   0  0  0  0  0  0  0  0  0  0  0  0
   -5.8389   -2.8297    1.9366 H   0  0  0  0  0  0  0  0  0  0  0  0
   -1.5611   -2.3670    1.2203 H   0  0  0  0  0  0  0  0  0  0  0  0
   -1.3986   -0.7166    1.9377 H   0  0  0  0  0  0  0  0  0  0  0  0
   -1.7635   -2.1365    2.9861 H   0  0  0  0  0  0  0  0  0  0  0  0
  2  1  1  0  0  0  0
  3  2  1  0  0  0  0
  3  4  1  0  0  0  0
  4  7  1  0  0  0  0
  5  3  2  0  0  0  0
  6  4  2  0  0  0  0
  6 11  1  0  0  0  0
  7 13  1  0  0  0  0
  8  5  1  0  0  0  0
  8 10  2  0  0  0  0
  9  5  1  0  0  0  0
 10  6  1  0  0  0  0
 12 16  1  0  0  0  0
 12  7  1  0  0  0  0
 12 17  1  0  0  0  0
 13 21  1  0  0  0  0
 13 20  1  0  0  0  0
 13 19  1  0  0  0  0
 14  8  1  0  0  0  0
 15 10  1  0  0  0  0
 16 22  1  0  0  0  0
 17 26  1  0  0  0  0
 17 25  1  0  0  0  0
 18 12  1  0  0  0  0
 19 32  1  0  0  0  0
 20 35  1  0  0  0  0
 21 39  1  0  0  0  0
 23 16  1  0  0  0  0
 24 16  1  0  0  0  0
 27 17  1  0  0  0  0
 28 18  1  0  0  0  0
 29 18  1  0  0  0  0
 30 18  1  0  0  0  0
 31 19  1  0  0  0  0
 33 19  1  0  0  0  0
 34 20  1  0  0  0  0
 36 20  1  0  0  0  0
 37 21  1  0  0  0  0
 38 21  1  0  0  0  0
M  END
