1
q = 0.0, confidence = 0.644

 35 37  0  0  0  0  0  0  0  0999 V2000
   -0.3125   -0.0004    0.0020 N   0  0  0  0  0  1  0  0  0  0  0  0
   -1.7695   -0.0012    0.0011 C   0  0  0  0  0  0  0  0  0  0  0  0
   -2.2400    0.7333   -1.2761 C   0  0  0  0  0  0  0  0  0  0  0  0
   -3.1580    1.7983   -1.2497 C   0  0  0  0  0  0  0  0  0  0  0  0
   -3.5854    2.1304   -0.2941 H   0  0  0  0  0  0  0  0  0  0  0  0
   -3.5357    2.4460   -2.4384 C   0  0  0  0  0  0  0  0  0  0  0  0
   -4.2524    3.2802   -2.3953 H   0  0  0  0  0  0  0  0  0  0  0  0
   -3.0051    2.0374   -3.6700 C   0  0  0  0  0  0  0  0  0  0  0  0
   -3.2956    2.5520   -4.5983 H   0  0  0  0  0  0  0  0  0  0  0  0
   -2.1084    0.9569   -3.7091 C   0  0  0  0  0  0  0  0  0  0  0  0
   -1.6942    0.6136   -4.6694 H   0  0  0  0  0  0  0  0  0  0  0  0
   -1.7355    0.3102   -2.5236 C   0  0  0  0  0  0  0  0  0  0  0  0
   -1.0531   -0.5491   -2.5586 H   0  0  0  0  0  0  0  0  0  0  0  0
   -2.2398   -1.4747    0.0029 C   0  0  0  0  0  0  0  0  0  0  0  0
   -3.1582   -1.9841   -0.9324 C   0  0  0  0  0  0  0  0  0  0  0  0
   -3.5864   -1.3221   -1.6970 H   0  0  0  0  0  0  0  0  0  0  0  0
   -3.5352   -3.3376   -0.8997 C   0  0  0  0  0  0  0  0  0  0  0  0
   -4.2522   -3.7171   -1.6434 H   0  0  0  0  0  0  0  0  0  0  0  0
   -3.0035   -4.2003    0.0690 C   0  0  0  0  0  0  0  0  0  0  0  0
   -3.2934   -5.2617    0.0869 H   0  0  0  0  0  0  0  0  0  0  0  0
   -2.1063   -3.6942    1.0240 C   0  0  0  0  0  0  0  0  0  0  0  0
   -1.6911   -4.3546    1.8005 H   0  0  0  0  0  0  0  0  0  0  0  0
   -1.7341   -2.3440    0.9920 C   0  0  0  0  0  0  0  0  0  0  0  0
   -1.0509   -1.9450    1.7532 H   0  0  0  0  0  0  0  0  0  0  0  0
   -2.2416    0.7372    1.2754 C   0  0  0  0  0  0  0  0  0  0  0  0
   -3.1605    0.1819    2.1835 C   0  0  0  0  0  0  0  0  0  0  0  0
   -3.5877   -0.8117    1.9929 H   0  0  0  0  0  0  0  0  0  0  0  0
   -3.5392    0.8874    3.3385 C   0  0  0  0  0  0  0  0  0  0  0  0
   -4.2566    0.4329    4.0387 H   0  0  0  0  0  0  0  0  0  0  0  0
   -3.0089    2.1583    3.6010 C   0  0  0  0  0  0  0  0  0  0  0  0
   -3.3002    2.7049    4.5106 H   0  0  0  0  0  0  0  0  0  0  0  0
   -2.1113    2.7324    2.6856 C   0  0  0  0  0  0  0  0  0  0  0  0
   -1.6973    3.7357    2.8689 H   0  0  0  0  0  0  0  0  0  0  0  0
   -1.7373    2.0291    1.5332 C   0  0  0  0  0  0  0  0  0  0  0  0
   -1.0540    2.4889    0.8073 H   0  0  0  0  0  0  0  0  0  0  0  0
  2  1  1  0  0  0  0
  2 14  1  0  0  0  0
  2 25  1  0  0  0  0
  3  4  1  0  0  0  0
  3  2  1  0  0  0  0
  4  5  1  0  0  0  0
  6  7  1  0  0  0  0
  6  4  2  0  0  0  0
  8  6  1  0  0  0  0
  9  8  1  0  0  0  0
 10  8  2  0  0  0  0
 10 12  1  0  0  0  0
 11 10  1  0  0  0  0
 12  3  2  0  0  0  0
 13 12  1  0  0  0  0
 14 23  1  0  0  0  0
 15 17  1  0  0  0  0
 15 14  2  0  0  0  0
 16 15  1  0  0  0  0
 17 19  2  0  0  0  0
 18 17  1  0  0  0  0
 19 20  1  0  0  0  0
 19 21  1  0  0  0  0
 21 22  1  0  0  0  0
 23 21  2  0  0  0  0
 23 24  1  0  0  0  0
 25 34  2  0  0  0  0
 25 26  1  0  0  0  0
 26 28  2  0  0  0  0
 27 26  1  0  0  0  0
 28 30  1  0  0  0  0
 28 29  1  0  0  0  0
 30 31  1  0  0  0  0
 32 33  1  0  0  0  0
 32 30  2  0  0  0  0
 34 32  1  0  0  0  0
 35 34  1  0  0  0  0
M  END
