3
q = -1

 33 33  0  0  0  0  0  0  0  0999 V2000
   -2.2879    1.9803    0.1093 P   0  0  0  0  0  0  0  0  0  0  0  0
   -1.4346   -0.9241   -0.0347 P   0  0  0  0  0  4  0  0  0  0  0  0
   -0.0626   -0.1106   -0.1057 N   0  0  0  0  0  1  0  0  0  0  0  0
   -3.9822    2.3492    0.0415 N   0  0  0  0  0  0  0  0  0  0  0  0
   -4.8377    1.3244   -0.0320 N   0  0  0  0  0  0  0  0  0  0  0  0
   -1.6648   -1.9814    1.2773 N   0  0  0  0  0  0  0  0  0  0  0  0
   -1.6057   -1.9550   -1.3628 N   0  0  0  0  0  0  0  0  0  0  0  0
   -4.1657    0.1644   -0.0355 C   0  0  0  0  0  0  0  0  0  0  0  0
   -2.7474    0.2981    0.0492 C   0  0  0  0  0  0  0  0  0  0  0  0
   -4.5503    3.6894    0.0383 C   0  0  0  0  0  0  0  0  0  0  0  0
   -4.9329   -1.1198   -0.1468 C   0  0  0  0  0  0  0  0  0  0  0  0
   -0.6407   -3.0111    1.4445 C   0  0  0  0  0  0  0  0  0  0  0  0
   -2.2911   -1.5473    2.5154 C   0  0  0  0  0  0  0  0  0  0  0  0
   -1.0195   -1.5834   -2.6443 C   0  0  0  0  0  0  0  0  0  0  0  0
   -2.3471   -3.2016   -1.3599 C   0  0  0  0  0  0  0  0  0  0  0  0
   -5.1269    3.8589   -0.8930 H   0  0  0  0  0  0  0  0  0  0  0  0
   -3.7305    4.4288    0.1008 H   0  0  0  0  0  0  0  0  0  0  0  0
   -5.2294    3.8192    0.9045 H   0  0  0  0  0  0  0  0  0  0  0  0
   -4.7623   -1.5971   -1.1330 H   0  0  0  0  0  0  0  0  0  0  0  0
   -6.0145   -0.9183   -0.0401 H   0  0  0  0  0  0  0  0  0  0  0  0
   -4.6208   -1.8501    0.6259 H   0  0  0  0  0  0  0  0  0  0  0  0
   -1.1069   -3.9742    1.7463 H   0  0  0  0  0  0  0  0  0  0  0  0
    0.1025   -2.7233    2.2218 H   0  0  0  0  0  0  0  0  0  0  0  0
   -0.0818   -3.1594    0.5003 H   0  0  0  0  0  0  0  0  0  0  0  0
   -2.8327   -2.3991    2.9815 H   0  0  0  0  0  0  0  0  0  0  0  0
   -3.0186   -0.7375    2.3212 H   0  0  0  0  0  0  0  0  0  0  0  0
   -1.5475   -1.1713    3.2574 H   0  0  0  0  0  0  0  0  0  0  0  0
   -0.2655   -2.3361   -2.9618 H   0  0  0  0  0  0  0  0  0  0  0  0
   -0.4985   -0.6106   -2.5701 H   0  0  0  0  0  0  0  0  0  0  0  0
   -1.8067   -1.5097   -3.4282 H   0  0  0  0  0  0  0  0  0  0  0  0
   -1.6788   -4.0575   -1.6097 H   0  0  0  0  0  0  0  0  0  0  0  0
   -3.1674   -3.1859   -2.1143 H   0  0  0  0  0  0  0  0  0  0  0  0
   -2.7891   -3.3848   -0.3643 H   0  0  0  0  0  0  0  0  0  0  0  0
  2  9  1  0  0  0  0
  2  6  1  0  0  0  0
  3  2  1  0  0  0  0
  4  1  1  0  0  0  0
  5  4  1  0  0  0  0
  6 12  1  0  0  0  0
  6 13  1  0  0  0  0
  7 15  1  0  0  0  0
  7  2  1  0  0  0  0
  8  5  2  0  0  0  0
  8  9  1  0  0  0  0
  9  1  2  0  0  0  0
 10  4  1  0  0  0  0
 10 17  1  0  0  0  0
 10 18  1  0  0  0  0
 11 20  1  0  0  0  0
 11  8  1  0  0  0  0
 11 21  1  0  0  0  0
 12 22  1  0  0  0  0
 12 23  1  0  0  0  0
 13 25  1  0  0  0  0
 13 27  1  0  0  0  0
 14 29  1  0  0  0  0
 14  7  1  0  0  0  0
 15 33  1  0  0  0  0
 16 10  1  0  0  0  0
 19 11  1  0  0  0  0
 24 12  1  0  0  0  0
 26 13  1  0  0  0  0
 28 14  1  0  0  0  0
 30 14  1  0  0  0  0
 31 15  1  0  0  0  0
 32 15  1  0  0  0  0
M  END
