3
q = -1.0

 25 25  0  0  1  0  0  0  0  0999 V2000
    2.9046   -1.3423    2.1658 P   0  0  0  0  0  0  0  0  0  0  0  0
    3.6696   -0.4608    3.0155 H   0  0  0  0  0  0  0  0  0  0  0  0
    0.5364   -0.2266    1.2912 N   0  0  0  0  0  1  0  0  0  0  0  0
    1.2555   -0.4486    2.3122 C   0  0  1  0  0  3  0  0  0  0  0  0
    0.8139   -0.2030    3.7442 C   0  0  0  0  0  0  0  0  0  0  0  0
    3.4823   -0.7769    0.4825 C   0  0  0  0  0  0  0  0  0  0  0  0
    4.0394    0.6543    0.4440 C   0  0  0  0  0  0  0  0  0  0  0  0
    4.4409    1.0594   -0.9820 C   0  0  0  0  0  0  0  0  0  0  0  0
    5.4271    0.0576   -1.5954 C   0  0  0  0  0  0  0  0  0  0  0  0
    4.8558   -1.3658   -1.5634 C   0  0  0  0  0  0  0  0  0  0  0  0
    4.4699   -1.7826   -0.1370 C   0  0  0  0  0  0  0  0  0  0  0  0
   -0.2552    0.0810    3.7827 H   0  0  0  0  0  0  0  0  0  0  0  0
    0.9773   -1.1039    4.3720 H   0  0  0  0  0  0  0  0  0  0  0  0
    1.4192    0.6142    4.1907 H   0  0  0  0  0  0  0  0  0  0  0  0
    2.5430   -0.7918   -0.1160 H   0  0  0  0  0  0  0  0  0  0  0  0
    4.9255    0.7209    1.1163 H   0  0  0  0  0  0  0  0  0  0  0  0
    3.2823    1.3597    0.8473 H   0  0  0  0  0  0  0  0  0  0  0  0
    4.8716    2.0836   -0.9804 H   0  0  0  0  0  0  0  0  0  0  0  0
    3.5250    1.0940   -1.6096 H   0  0  0  0  0  0  0  0  0  0  0  0
    6.3841    0.0819   -1.0251 H   0  0  0  0  0  0  0  0  0  0  0  0
    5.6762    0.3507   -2.6371 H   0  0  0  0  0  0  0  0  0  0  0  0
    3.9467   -1.4055   -2.2034 H   0  0  0  0  0  0  0  0  0  0  0  0
    5.5827   -2.0891   -1.9902 H   0  0  0  0  0  0  0  0  0  0  0  0
    4.0249   -2.8001   -0.1348 H   0  0  0  0  0  0  0  0  0  0  0  0
    5.3879   -1.8419    0.4923 H   0  0  0  0  0  0  0  0  0  0  0  0
  1  4  1  0  0  0  0
  1  2  1  0  0  0  0
  4  3  1  1  0  0  0
  4  5  1  0  0  0  0
  5 12  1  0  0  0  0
  5 14  1  0  0  0  0
  5 13  1  0  0  0  0
  6  1  1  0  0  0  0
  7  6  1  0  0  0  0
  7 17  1  0  0  0  0
  7 16  1  0  0  0  0
  8 18  1  0  0  0  0
  8  7  1  0  0  0  0
  9 10  1  0  0  0  0
  9 20  1  0  0  0  0
  9  8  1  0  0  0  0
 10 11  1  0  0  0  0
 11 24  1  0  0  0  0
 11  6  1  0  0  0  0
 11 25  1  0  0  0  0
 15  6  1  0  0  0  0
 19  8  1  0  0  0  0
 21  9  1  0  0  0  0
 22 10  1  0  0  0  0
 23 10  1  0  0  0  0
M  END
