1
q = -1.0, confidence = 0.096

 12 12  0  0  0  0  0  0  0  0999 V2000
   -1.2710   -1.0081    0.0725 N   0  0  0  0  0  1  0  0  0  0  0  0
   -2.3563   -1.6023    0.0375 N   0  0  0  0  0  2  0  0  0  0  0  0
   -3.5926    0.4158   -0.0412 N   0  0  0  0  0  0  0  0  0  0  0  0
   -3.5702   -0.9440    0.0465 C   0  0  0  0  0  0  0  0  0  0  0  0
   -4.7600   -1.7133    0.1263 C   0  0  0  0  0  0  0  0  0  0  0  0
   -4.6808   -2.8067    0.1941 H   0  0  0  0  0  0  0  0  0  0  0  0
   -5.9856   -1.0522    0.1215 C   0  0  0  0  0  0  0  0  0  0  0  0
   -6.9224   -1.6265    0.1860 H   0  0  0  0  0  0  0  0  0  0  0  0
   -6.0121    0.3543    0.0360 C   0  0  0  0  0  0  0  0  0  0  0  0
   -6.9582    0.9132    0.0282 H   0  0  0  0  0  0  0  0  0  0  0  0
   -4.7878    1.0293   -0.0428 C   0  0  0  0  0  0  0  0  0  0  0  0
   -4.7600    2.1307   -0.1142 H   0  0  0  0  0  0  0  0  0  0  0  0
  2  4  1  0  0  0  0
  2  1  1  0  0  0  0
  3  4  1  0  0  0  0
  4  5  2  0  0  0  0
  5  6  1  0  0  0  0
  7  5  1  0  0  0  0
  7  8  1  0  0  0  0
  9  7  2  0  0  0  0
 10  9  1  0  0  0  0
 11  3  2  0  0  0  0
 11  9  1  0  0  0  0
 12 11  1  0  0  0  0
M  END
