7
q = 0.0, confidence = 0.64

 16 16  0  0  0  0  0  0  0  0999 V2000
   -7.1660    2.5627    0.0003 O   0  0  0  0  0  0  0  0  0  0  0  0
   -8.1879    0.5352    0.0005 O   0  0  0  0  0  0  0  0  0  0  0  0
   -8.9655    1.1338    0.0006 H   0  0  0  0  0  0  0  0  0  0  0  0
   -4.6102   -1.4576    0.0001 N   0  0  0  0  0  0  0  0  0  0  0  0
   -4.5828   -2.4829    0.0001 H   0  0  0  0  0  0  0  0  0  0  0  0
   -2.3112   -1.6379   -0.0002 N   0  0  0  0  0  0  0  0  0  0  0  0
   -1.1619   -1.1044   -0.0004 N   0  0  0  0  0  1  0  0  0  0  0  0
   -3.3769   -0.8248   -0.0001 C   0  0  0  0  0  0  0  0  0  0  0  0
   -3.3760    0.6101   -0.0001 C   0  0  0  0  0  0  0  0  0  0  0  0
   -2.4032    1.1287   -0.0002 H   0  0  0  0  0  0  0  0  0  0  0  0
   -4.5753    1.2887    0.0000 C   0  0  0  0  0  0  0  0  0  0  0  0
   -4.6069    2.3884    0.0001 H   0  0  0  0  0  0  0  0  0  0  0  0
   -5.8234    0.5843    0.0002 C   0  0  0  0  0  0  0  0  0  0  0  0
   -5.7956   -0.8016    0.0003 C   0  0  0  0  0  0  0  0  0  0  0  0
   -6.7070   -1.4139    0.0004 H   0  0  0  0  0  0  0  0  0  0  0  0
   -7.0975    1.3472    0.0003 C   0  0  0  0  0  0  0  0  0  0  0  0
  1 16  2  0  0  0  0
  2  3  1  0  0  0  0
  4  5  1  0  0  0  0
  4 14  1  0  0  0  0
  6  8  2  0  0  0  0
  7  6  1  0  0  0  0
  8  9  1  0  0  0  0
  8  4  1  0  0  0  0
  9 11  2  0  0  0  0
 10  9  1  0  0  0  0
 11 12  1  0  0  0  0
 11 13  1  0  0  0  0
 13 14  2  0  0  0  0
 13 16  1  0  0  0  0
 14 15  1  0  0  0  0
 16  2  1  0  0  0  0
M  END
