2
q = -1.0

 55 57  0  0  0  0  0  0  0  0999 V2000
   -0.7754   -0.1148   -0.0995 P   0  0  0  0  0  4  0  0  0  0  0  0
    0.7359   -0.5872    0.1939 N   0  0  0  0  0  1  0  0  0  0  0  0
   -3.6391   -0.1874   -0.8899 O   0  0  0  0  0  0  0  0  0  0  0  0
    0.3366    2.4336    0.5012 O   0  0  0  0  0  0  0  0  0  0  0  0
   -1.6387    0.3163    1.4487 C   0  0  0  0  0  0  0  0  0  0  0  0
   -1.3924   -0.4953    2.5728 C   0  0  0  0  0  0  0  0  0  0  0  0
   -0.6863   -1.3400    2.5059 H   0  0  0  0  0  0  0  0  0  0  0  0
   -2.0312   -0.1979    3.7864 C   0  0  0  0  0  0  0  0  0  0  0  0
   -1.8379   -0.8281    4.6675 H   0  0  0  0  0  0  0  0  0  0  0  0
   -2.8993    0.9018    3.8803 C   0  0  0  0  0  0  0  0  0  0  0  0
   -3.3931    1.1331    4.8366 H   0  0  0  0  0  0  0  0  0  0  0  0
   -3.1286    1.7164    2.7577 C   0  0  0  0  0  0  0  0  0  0  0  0
   -3.7981    2.5871    2.8338 H   0  0  0  0  0  0  0  0  0  0  0  0
   -2.4990    1.4251    1.5395 C   0  0  0  0  0  0  0  0  0  0  0  0
   -2.6674    2.0596    0.6573 H   0  0  0  0  0  0  0  0  0  0  0  0
   -1.6810   -1.4887   -0.8845 C   0  0  0  0  0  0  0  0  0  0  0  0
   -3.0764   -1.3995   -1.1330 C   0  0  0  0  0  0  0  0  0  0  0  0
   -3.7608   -2.5258   -1.6325 C   0  0  0  0  0  0  0  0  0  0  0  0
   -4.8421   -2.4878   -1.8192 H   0  0  0  0  0  0  0  0  0  0  0  0
   -3.0526   -3.7086   -1.8981 C   0  0  0  0  0  0  0  0  0  0  0  0
   -3.6008   -4.5798   -2.2886 H   0  0  0  0  0  0  0  0  0  0  0  0
   -1.6715   -3.7930   -1.6703 C   0  0  0  0  0  0  0  0  0  0  0  0
   -1.1241   -4.7237   -1.8763 H   0  0  0  0  0  0  0  0  0  0  0  0
   -0.9874   -2.6818   -1.1573 C   0  0  0  0  0  0  0  0  0  0  0  0
    0.0927   -2.7360   -0.9486 H   0  0  0  0  0  0  0  0  0  0  0  0
   -5.0760   -0.0290   -0.8531 C   0  0  0  0  0  0  0  0  0  0  0  0
   -5.5088   -0.5537   -1.7350 H   0  0  0  0  0  0  0  0  0  0  0  0
   -5.3373    1.4637   -1.0004 C   0  0  0  0  0  0  0  0  0  0  0  0
   -4.9425    2.0167   -0.1255 H   0  0  0  0  0  0  0  0  0  0  0  0
   -6.4259    1.6554   -1.0691 H   0  0  0  0  0  0  0  0  0  0  0  0
   -4.8495    1.8582   -1.9129 H   0  0  0  0  0  0  0  0  0  0  0  0
   -5.6359   -0.6173    0.4389 C   0  0  0  0  0  0  0  0  0  0  0  0
   -5.4038   -1.6966    0.5274 H   0  0  0  0  0  0  0  0  0  0  0  0
   -6.7373   -0.4988    0.4719 H   0  0  0  0  0  0  0  0  0  0  0  0
   -5.1957   -0.0974    1.3135 H   0  0  0  0  0  0  0  0  0  0  0  0
   -0.7918    1.3235   -1.2149 C   0  0  0  0  0  0  0  0  0  0  0  0
   -0.1152    2.4931   -0.7645 C   0  0  0  0  0  0  0  0  0  0  0  0
    0.0133    3.5956   -1.6355 C   0  0  0  0  0  0  0  0  0  0  0  0
    0.5318    4.5059   -1.3063 H   0  0  0  0  0  0  0  0  0  0  0  0
   -0.5252    3.5233   -2.9294 C   0  0  0  0  0  0  0  0  0  0  0  0
   -0.4178    4.3896   -3.6002 H   0  0  0  0  0  0  0  0  0  0  0  0
   -1.1885    2.3700   -3.3784 C   0  0  0  0  0  0  0  0  0  0  0  0
   -1.5975    2.3234   -4.3979 H   0  0  0  0  0  0  0  0  0  0  0  0
   -1.3166    1.2705   -2.5159 C   0  0  0  0  0  0  0  0  0  0  0  0
   -1.8195    0.3533   -2.8555 H   0  0  0  0  0  0  0  0  0  0  0  0
    1.2449    3.4156    1.0583 C   0  0  0  0  0  0  0  0  0  0  0  0
    0.8372    4.4286    0.8331 H   0  0  0  0  0  0  0  0  0  0  0  0
    1.2124    3.1705    2.5603 C   0  0  0  0  0  0  0  0  0  0  0  0
    0.1768    3.2458    2.9455 H   0  0  0  0  0  0  0  0  0  0  0  0
    1.8429    3.9166    3.0822 H   0  0  0  0  0  0  0  0  0  0  0  0
    1.6040    2.1577    2.7831 H   0  0  0  0  0  0  0  0  0  0  0  0
    2.6370    3.2471    0.4563 C   0  0  0  0  0  0  0  0  0  0  0  0
    3.0058    2.2222    0.6591 H   0  0  0  0  0  0  0  0  0  0  0  0
    3.3356    3.9760    0.9131 H   0  0  0  0  0  0  0  0  0  0  0  0
    2.6361    3.4167   -0.6389 H   0  0  0  0  0  0  0  0  0  0  0  0
  1  2  1  0  0  0  0
  1  5  1  0  0  0  0
  3 26  1  0  0  0  0
  4 46  1  0  0  0  0
  5 14  2  0  0  0  0
  5  6  1  0  0  0  0
  6  8  2  0  0  0  0
  7  6  1  0  0  0  0
  8 10  1  0  0  0  0
  8  9  1  0  0  0  0
 10 11  1  0  0  0  0
 12 13  1  0  0  0  0
 12 10  2  0  0  0  0
 14 12  1  0  0  0  0
 15 14  1  0  0  0  0
 16  1  1  0  0  0  0
 17  3  1  0  0  0  0
 17 16  1  0  0  0  0
 18 17  2  0  0  0  0
 19 18  1  0  0  0  0
 20 22  2  0  0  0  0
 20 18  1  0  0  0  0
 21 20  1  0  0  0  0
 22 24  1  0  0  0  0
 23 22  1  0  0  0  0
 24 25  1  0  0  0  0
 24 16  2  0  0  0  0
 26 32  1  0  0  0  0
 27 26  1  0  0  0  0
 28 26  1  0  0  0  0
 28 29  1  0  0  0  0
 30 28  1  0  0  0  0
 31 28  1  0  0  0  0
 32 34  1  0  0  0  0
 32 33  1  0  0  0  0
 32 35  1  0  0  0  0
 36 37  1  0  0  0  0
 36  1  1  0  0  0  0
 37  4  1  0  0  0  0
 38 39  1  0  0  0  0
 38 37  2  0  0  0  0
 40 38  1  0  0  0  0
 41 40  1  0  0  0  0
 42 40  2  0  0  0  0
 42 44  1  0  0  0  0
 43 42  1  0  0  0  0
 44 36  2  0  0  0  0
 45 44  1  0  0  0  0
 46 48  1  0  0  0  0
 47 46  1  0  0  0  0
 48 51  1  0  0  0  0
 48 49  1  0  0  0  0
 48 50  1  0  0  0  0
 52 53  1  0  0  0  0
 52 54  1  0  0  0  0
 52 46  1  0  0  0  0
 55 52  1  0  0  0  0
M  END
