1
q = -2.0, confidence = 0.558

  9  8  0  0  0  0  0  0  0  0999 V2000
   -0.0230   -1.1406    0.8170 N   0  0  0  0  0  1  0  0  0  0  0  0
   -0.2037   -1.9563    1.9680 C   0  0  0  0  0  0  0  0  0  0  0  0
   -0.9665   -1.2312    3.0530 C   0  0  0  0  0  0  0  0  0  0  0  0
   -2.2175   -1.5488    3.4250 C   0  0  0  0  0  0  0  0  0  0  0  0
    0.7995   -2.2809    2.3347 H   0  0  0  0  0  0  0  0  0  0  0  0
   -0.7540   -2.8775    1.6666 H   0  0  0  0  0  0  0  0  0  0  0  0
   -0.4477   -0.3698    3.5100 H   0  0  0  0  0  0  0  0  0  0  0  0
   -2.7637   -2.3827    2.9528 H   0  0  0  0  0  0  0  0  0  0  0  0
   -2.7453   -0.9797    4.2064 H   0  0  0  0  0  0  0  0  0  0  0  0
  1  2  1  0  0  0  0
  2  5  1  0  0  0  0
  2  3  1  0  0  0  0
  3  4  2  0  0  0  0
  3  7  1  0  0  0  0
  4  9  1  0  0  0  0
  6  2  1  0  0  0  0
  8  4  1  0  0  0  0
M  END
