3
q = -2.0, confidence = 0.802

 42 43  0  0  1  0  0  0  0  0999 V2000
    0.0095   -1.7045   -1.5165 S   0  0  0  0  0  1  0  0  0  0  0  0
    0.7637    0.9242   -0.1065 P   0  0  0  0  0  0  0  0  0  0  0  0
   -0.1409   -1.2087    1.4954 N   0  0  0  0  0  2  0  0  0  0  0  0
    1.8701   -0.5773    0.2530 C   0  0  1  0  0  0  0  0  0  0  0  0
    1.6414   -1.4649   -0.9819 C   0  0  0  0  0  0  0  0  0  0  0  0
    2.8611   -1.8295   -1.5148 C   0  0  0  0  0  0  0  0  0  0  0  0
    3.0063   -2.4611   -2.4008 H   0  0  0  0  0  0  0  0  0  0  0  0
    3.9298   -1.1921   -0.7614 C   0  0  0  0  0  0  0  0  0  0  0  0
    5.3283   -1.2130   -0.9362 C   0  0  0  0  0  0  0  0  0  0  0  0
    5.7787   -1.8011   -1.7505 H   0  0  0  0  0  0  0  0  0  0  0  0
    6.1397   -0.4734   -0.0595 C   0  0  0  0  0  0  0  0  0  0  0  0
    7.2326   -0.4845   -0.1941 H   0  0  0  0  0  0  0  0  0  0  0  0
    5.5798    0.2769    0.9909 C   0  0  0  0  0  0  0  0  0  0  0  0
    6.2327    0.8440    1.6710 H   0  0  0  0  0  0  0  0  0  0  0  0
    4.1820    0.3012    1.1767 C   0  0  0  0  0  0  0  0  0  0  0  0
    3.7491    0.8822    2.0056 H   0  0  0  0  0  0  0  0  0  0  0  0
    3.3635   -0.4174    0.3007 C   0  0  0  0  0  0  0  0  0  0  0  0
    1.1624    2.2404    1.1604 C   0  0  0  0  0  0  0  0  0  0  0  0
    2.2424    2.4579    1.0160 H   0  0  0  0  0  0  0  0  0  0  0  0
    0.9295    1.7482    2.5922 C   0  0  0  0  0  0  0  0  0  0  0  0
    1.6138    0.9264    2.8738 H   0  0  0  0  0  0  0  0  0  0  0  0
   -0.1028    1.3670    2.7182 H   0  0  0  0  0  0  0  0  0  0  0  0
    1.0871    2.5850    3.3044 H   0  0  0  0  0  0  0  0  0  0  0  0
    0.3536    3.5112    0.8711 C   0  0  0  0  0  0  0  0  0  0  0  0
    0.5439    3.9222   -0.1388 H   0  0  0  0  0  0  0  0  0  0  0  0
    0.6088    4.2995    1.6092 H   0  0  0  0  0  0  0  0  0  0  0  0
   -0.7326    3.3105    0.9580 H   0  0  0  0  0  0  0  0  0  0  0  0
    1.3694    1.5633   -1.7628 C   0  0  0  0  0  0  0  0  0  0  0  0
    1.6286    0.6062   -2.2639 H   0  0  0  0  0  0  0  0  0  0  0  0
    0.2394    2.2062   -2.5719 C   0  0  0  0  0  0  0  0  0  0  0  0
   -0.6246    1.5168   -2.6383 H   0  0  0  0  0  0  0  0  0  0  0  0
    0.5908    2.4249   -3.6016 H   0  0  0  0  0  0  0  0  0  0  0  0
   -0.1102    3.1612   -2.1295 H   0  0  0  0  0  0  0  0  0  0  0  0
    2.6352    2.4241   -1.6847 C   0  0  0  0  0  0  0  0  0  0  0  0
    3.4455    1.9225   -1.1205 H   0  0  0  0  0  0  0  0  0  0  0  0
    2.4438    3.4132   -1.2206 H   0  0  0  0  0  0  0  0  0  0  0  0
    3.0129    2.6152   -2.7108 H   0  0  0  0  0  0  0  0  0  0  0  0
    1.1404   -1.2590    1.4342 C   0  0  0  0  0  0  0  0  0  0  0  0
    1.9640   -2.0509    2.4138 C   0  0  0  0  0  0  0  0  0  0  0  0
    1.2959   -2.5535    3.1373 H   0  0  0  0  0  0  0  0  0  0  0  0
    2.6855   -1.4073    2.9589 H   0  0  0  0  0  0  0  0  0  0  0  0
    2.5689   -2.8118    1.8771 H   0  0  0  0  0  0  0  0  0  0  0  0
  1  5  1  0  0  0  0
  2  4  1  0  0  0  0
  2 18  1  0  0  0  0
  4 17  1  0  0  0  0
  4 38  1  1  0  0  0
  5  4  1  0  0  0  0
  6  5  2  0  0  0  0
  6  8  1  0  0  0  0
  7  6  1  0  0  0  0
  8 17  1  0  0  0  0
  9  8  2  0  0  0  0
  9 11  1  0  0  0  0
 10  9  1  0  0  0  0
 11 13  2  0  0  0  0
 12 11  1  0  0  0  0
 13 15  1  0  0  0  0
 13 14  1  0  0  0  0
 15 16  1  0  0  0  0
 17 15  2  0  0  0  0
 18 20  1  0  0  0  0
 19 18  1  0  0  0  0
 20 22  1  0  0  0  0
 20 21  1  0  0  0  0
 20 23  1  0  0  0  0
 24 27  1  0  0  0  0
 24 18  1  0  0  0  0
 24 26  1  0  0  0  0
 25 24  1  0  0  0  0
 28 34  1  0  0  0  0
 28  2  1  0  0  0  0
 29 28  1  0  0  0  0
 30 33  1  0  0  0  0
 30 28  1  0  0  0  0
 31 30  1  0  0  0  0
 32 30  1  0  0  0  0
 34 36  1  0  0  0  0
 34 35  1  0  0  0  0
 37 34  1  0  0  0  0
 38  3  2  0  0  0  0
 38 39  1  0  0  0  0
 39 41  1  0  0  0  0
 39 40  1  0  0  0  0
 42 39  1  0  0  0  0
M  END
