1
q = -1

 23 22  0  0  0  0  0  0  0  0999 V2000
   -1.3462    0.3570    0.0978 N   0  0  0  0  0  1  0  0  0  0  0  0
   -2.9243    0.0379    0.0904 P   0  0  0  0  0  4  0  0  0  0  0  0
   -3.5799   -0.2730    1.7800 C   0  0  0  0  0  0  0  0  0  0  0  0
   -3.4832    0.6970    2.3133 H   0  0  0  0  0  0  0  0  0  0  0  0
   -4.6669   -0.4859    1.6827 H   0  0  0  0  0  0  0  0  0  0  0  0
   -2.8335   -1.3823    2.5261 C   0  0  0  0  0  0  0  0  0  0  0  0
   -3.2755   -1.5271    3.5320 H   0  0  0  0  0  0  0  0  0  0  0  0
   -1.7626   -1.1236    2.6440 H   0  0  0  0  0  0  0  0  0  0  0  0
   -2.8844   -2.3501    1.9899 H   0  0  0  0  0  0  0  0  0  0  0  0
   -3.3332   -1.4260   -0.9351 C   0  0  0  0  0  0  0  0  0  0  0  0
   -2.7292   -2.2454   -0.4894 H   0  0  0  0  0  0  0  0  0  0  0  0
   -4.4078   -1.6643   -0.7817 H   0  0  0  0  0  0  0  0  0  0  0  0
   -2.9631   -1.2465   -2.4085 C   0  0  0  0  0  0  0  0  0  0  0  0
   -3.1450   -2.1881   -2.9636 H   0  0  0  0  0  0  0  0  0  0  0  0
   -1.8885   -0.9918   -2.5136 H   0  0  0  0  0  0  0  0  0  0  0  0
   -3.5607   -0.4498   -2.8974 H   0  0  0  0  0  0  0  0  0  0  0  0
   -3.8502    1.4788   -0.5814 C   0  0  0  0  0  0  0  0  0  0  0  0
   -3.5984    2.3256    0.0919 H   0  0  0  0  0  0  0  0  0  0  0  0
   -3.3581    1.7007   -1.5516 H   0  0  0  0  0  0  0  0  0  0  0  0
   -5.3610    1.2991   -0.7364 C   0  0  0  0  0  0  0  0  0  0  0  0
   -5.8234    2.2182   -1.1485 H   0  0  0  0  0  0  0  0  0  0  0  0
   -5.8567    1.0881    0.2325 H   0  0  0  0  0  0  0  0  0  0  0  0
   -5.6063    0.4690   -1.4291 H   0  0  0  0  0  0  0  0  0  0  0  0
  2  1  1  0  0  0  0
  2  3  1  0  0  0  0
  3  4  1  0  0  0  0
  3  6  1  0  0  0  0
  5  3  1  0  0  0  0
  6  8  1  0  0  0  0
  6  7  1  0  0  0  0
  9  6  1  0  0  0  0
 10 12  1  0  0  0  0
 10 11  1  0  0  0  0
 10  2  1  0  0  0  0
 13 10  1  0  0  0  0
 14 13  1  0  0  0  0
 15 13  1  0  0  0  0
 16 13  1  0  0  0  0
 17  2  1  0  0  0  0
 17 18  1  0  0  0  0
 19 17  1  0  0  0  0
 20 17  1  0  0  0  0
 20 22  1  0  0  0  0
 21 20  1  0  0  0  0
 23 20  1  0  0  0  0
M  END
