1
q = -1.0

 68 70  0  0  0  0  0  0  0  0999 V2000
    0.0076   -0.3028   -0.2257 N   0  0  0  0  0  1  0  0  0  0  0  0
   -1.1746    1.2291    1.1462 N   0  0  0  0  0  0  0  0  0  0  0  0
    1.0540    1.2125    1.3012 N   0  0  0  0  0  0  0  0  0  0  0  0
   -0.0282    0.6394    0.6620 C   0  0  0  0  0  3  0  0  0  0  0  0
   -2.4859    0.9326    0.6579 C   0  0  0  0  0  0  0  0  0  0  0  0
   -2.7563   -0.7136    2.6094 C   0  0  0  0  0  0  0  0  0  0  0  0
   -1.7047   -0.3892    2.7532 H   0  0  0  0  0  0  0  0  0  0  0  0
   -1.9131    2.0589   -2.7732 C   0  0  0  0  0  0  0  0  0  0  0  0
   -1.1613    2.6817   -3.3005 H   0  0  0  0  0  0  0  0  0  0  0  0
   -2.8668    2.1445   -3.3339 H   0  0  0  0  0  0  0  0  0  0  0  0
   -1.5988    0.9980   -2.8139 H   0  0  0  0  0  0  0  0  0  0  0  0
   -3.2789    0.0003    1.3711 C   0  0  0  0  0  0  0  0  0  0  0  0
    3.1163    1.8044    0.1367 C   0  0  0  0  0  0  0  0  0  0  0  0
    2.4126    0.9057    0.9815 C   0  0  0  0  0  0  0  0  0  0  0  0
    4.3336   -0.5614    1.0865 C   0  0  0  0  0  0  0  0  0  0  0  0
    4.8174   -1.4829    1.4399 H   0  0  0  0  0  0  0  0  0  0  0  0
    0.6175    2.1129    2.3707 C   0  0  0  0  0  0  0  0  0  0  0  0
    1.2157    3.0460    2.3804 H   0  0  0  0  0  0  0  0  0  0  0  0
    0.7300    1.6267    3.3655 H   0  0  0  0  0  0  0  0  0  0  0  0
   -2.0750    2.5247   -1.3168 C   0  0  0  0  0  0  0  0  0  0  0  0
   -1.0657    2.5114   -0.8583 H   0  0  0  0  0  0  0  0  0  0  0  0
    2.2531   -1.2264    2.4054 C   0  0  0  0  0  0  0  0  0  0  0  0
    1.1784   -1.1665    2.1361 H   0  0  0  0  0  0  0  0  0  0  0  0
    3.0067   -0.2879    1.4702 C   0  0  0  0  0  0  0  0  0  0  0  0
   -4.5740   -0.2657    0.8911 C   0  0  0  0  0  0  0  0  0  0  0  0
   -5.2076   -0.9927    1.4218 H   0  0  0  0  0  0  0  0  0  0  0  0
   -5.0609    0.3677   -0.2577 C   0  0  0  0  0  0  0  0  0  0  0  0
   -6.0748    0.1415   -0.6214 H   0  0  0  0  0  0  0  0  0  0  0  0
    5.0467    0.3167    0.2611 C   0  0  0  0  0  0  0  0  0  0  0  0
    6.0827    0.0800   -0.0253 H   0  0  0  0  0  0  0  0  0  0  0  0
   -0.8658    2.3568    2.0223 C   0  0  0  0  0  0  0  0  0  0  0  0
   -1.5188    2.3560    2.9176 H   0  0  0  0  0  0  0  0  0  0  0  0
   -1.0189    3.3235    1.4880 H   0  0  0  0  0  0  0  0  0  0  0  0
   -4.2542    1.2724   -0.9574 C   0  0  0  0  0  0  0  0  0  0  0  0
   -4.6374    1.7466   -1.8739 H   0  0  0  0  0  0  0  0  0  0  0  0
    2.4233    3.0261   -0.4567 C   0  0  0  0  0  0  0  0  0  0  0  0
    1.6010    3.3087    0.2323 H   0  0  0  0  0  0  0  0  0  0  0  0
    2.4173   -0.7720    3.8695 C   0  0  0  0  0  0  0  0  0  0  0  0
    2.1087    0.2808    4.0219 H   0  0  0  0  0  0  0  0  0  0  0  0
    3.4786   -0.8515    4.1845 H   0  0  0  0  0  0  0  0  0  0  0  0
    1.8117   -1.4086    4.5466 H   0  0  0  0  0  0  0  0  0  0  0  0
    4.4443    1.4908   -0.2073 C   0  0  0  0  0  0  0  0  0  0  0  0
    5.0108    2.1673   -0.8636 H   0  0  0  0  0  0  0  0  0  0  0  0
   -2.7402   -2.2384    2.4151 C   0  0  0  0  0  0  0  0  0  0  0  0
   -2.1430   -2.5252    1.5279 H   0  0  0  0  0  0  0  0  0  0  0  0
   -3.7663   -2.6405    2.2846 H   0  0  0  0  0  0  0  0  0  0  0  0
   -2.2976   -2.7370    3.3021 H   0  0  0  0  0  0  0  0  0  0  0  0
   -3.5462   -0.3061    3.8653 C   0  0  0  0  0  0  0  0  0  0  0  0
   -3.1235   -0.7897    4.7699 H   0  0  0  0  0  0  0  0  0  0  0  0
   -4.6099   -0.6138    3.7885 H   0  0  0  0  0  0  0  0  0  0  0  0
   -3.5301    0.7922    4.0215 H   0  0  0  0  0  0  0  0  0  0  0  0
    1.7685    2.6601   -1.8023 C   0  0  0  0  0  0  0  0  0  0  0  0
    2.5387    2.3652   -2.5449 H   0  0  0  0  0  0  0  0  0  0  0  0
    1.2062    3.5229   -2.2152 H   0  0  0  0  0  0  0  0  0  0  0  0
    1.0668    1.8115   -1.6893 H   0  0  0  0  0  0  0  0  0  0  0  0
   -2.9512    1.5680   -0.5202 C   0  0  0  0  0  0  0  0  0  0  0  0
   -2.5986    3.9693   -1.2394 C   0  0  0  0  0  0  0  0  0  0  0  0
   -1.9257    4.6626   -1.7855 H   0  0  0  0  0  0  0  0  0  0  0  0
   -2.6781    4.3203   -0.1902 H   0  0  0  0  0  0  0  0  0  0  0  0
   -3.6077    4.0536   -1.6936 H   0  0  0  0  0  0  0  0  0  0  0  0
    3.3430    4.2461   -0.5969 C   0  0  0  0  0  0  0  0  0  0  0  0
    3.8457    4.4933    0.3597 H   0  0  0  0  0  0  0  0  0  0  0  0
    2.7587    5.1316   -0.9188 H   0  0  0  0  0  0  0  0  0  0  0  0
    4.1304    4.0851   -1.3615 H   0  0  0  0  0  0  0  0  0  0  0  0
    2.6659   -2.6963    2.2608 C   0  0  0  0  0  0  0  0  0  0  0  0
    1.9908   -3.3366    2.8620 H   0  0  0  0  0  0  0  0  0  0  0  0
    3.6997   -2.8752    2.6230 H   0  0  0  0  0  0  0  0  0  0  0  0
    2.5853   -3.0381    1.2119 H   0  0  0  0  0  0  0  0  0  0  0  0
  1  4  1  0  0  0  0
  2 31  1  0  0  0  0
  3 17  1  0  0  0  0
  4  2  1  0  0  0  0
  4  3  1  0  0  0  0
  5  2  1  0  0  0  0
  5 12  1  0  0  0  0
  6  7  1  0  0  0  0
  6 48  1  0  0  0  0
  8 20  1  0  0  0  0
  9  8  1  0  0  0  0
 10  8  1  0  0  0  0
 11  8  1  0  0  0  0
 12  6  1  0  0  0  0
 13 14  1  0  0  0  0
 14  3  1  0  0  0  0
 14 24  2  0  0  0  0
 15 16  1  0  0  0  0
 15 24  1  0  0  0  0
 17 18  1  0  0  0  0
 17 19  1  0  0  0  0
 20 57  1  0  0  0  0
 20 21  1  0  0  0  0
 20 56  1  0  0  0  0
 22 38  1  0  0  0  0
 23 22  1  0  0  0  0
 24 22  1  0  0  0  0
 25 12  2  0  0  0  0
 25 26  1  0  0  0  0
 27 25  1  0  0  0  0
 28 27  1  0  0  0  0
 29 15  2  0  0  0  0
 30 29  1  0  0  0  0
 31 17  1  0  0  0  0
 31 32  1  0  0  0  0
 33 31  1  0  0  0  0
 34 56  1  0  0  0  0
 34 27  2  0  0  0  0
 35 34  1  0  0  0  0
 36 13  1  0  0  0  0
 36 37  1  0  0  0  0
 38 39  1  0  0  0  0
 38 40  1  0  0  0  0
 38 41  1  0  0  0  0
 42 13  2  0  0  0  0
 42 29  1  0  0  0  0
 43 42  1  0  0  0  0
 44  6  1  0  0  0  0
 44 47  1  0  0  0  0
 45 44  1  0  0  0  0
 46 44  1  0  0  0  0
 48 51  1  0  0  0  0
 48 49  1  0  0  0  0
 50 48  1  0  0  0  0
 52 55  1  0  0  0  0
 52 36  1  0  0  0  0
 53 52  1  0  0  0  0
 54 52  1  0  0  0  0
 56  5  2  0  0  0  0
 57 59  1  0  0  0  0
 58 57  1  0  0  0  0
 60 57  1  0  0  0  0
 61 36  1  0  0  0  0
 61 62  1  0  0  0  0
 63 61  1  0  0  0  0
 64 61  1  0  0  0  0
 65 22  1  0  0  0  0
 65 67  1  0  0  0  0
 65 66  1  0  0  0  0
 68 65  1  0  0  0  0
M  END
