3
q = -1.0

 35 35  0  0  1  0  0  0  0  0999 V2000
    1.2737    1.8046    0.1073 O   0  0  0  0  0  0  0  0  0  0  0  0
    2.5475   -0.0849    0.1121 N   0  0  0  0  0  0  0  0  0  0  0  0
    0.2141   -0.2767    0.2767 N   0  0  0  0  0  1  0  0  0  0  0  0
    1.2891    0.4283    0.1681 C   0  0  1  0  0  3  0  0  0  0  0  0
    2.6735   -1.5594    0.2195 C   0  0  0  0  0  0  0  0  0  0  0  0
    1.6861   -1.9031    0.5842 H   0  0  0  0  0  0  0  0  0  0  0  0
    0.0471    2.4644    0.1600 C   0  0  0  0  0  0  0  0  0  0  0  0
    3.7576    0.7137   -0.1929 C   0  0  0  0  0  0  0  0  0  0  0  0
    4.5601   -0.0473   -0.2640 H   0  0  0  0  0  0  0  0  0  0  0  0
   -2.0205    3.0283    1.2731 C   0  0  0  0  0  0  0  0  0  0  0  0
   -2.7081    2.8929    2.1208 H   0  0  0  0  0  0  0  0  0  0  0  0
    4.1405    1.6657    0.9473 C   0  0  0  0  0  0  0  0  0  0  0  0
    3.3921    2.4713    1.0663 H   0  0  0  0  0  0  0  0  0  0  0  0
    5.1234    2.1322    0.7346 H   0  0  0  0  0  0  0  0  0  0  0  0
    4.2207    1.1174    1.9063 H   0  0  0  0  0  0  0  0  0  0  0  0
   -2.3619    3.8784    0.2080 C   0  0  0  0  0  0  0  0  0  0  0  0
   -3.3141    4.4291    0.2248 H   0  0  0  0  0  0  0  0  0  0  0  0
    3.7231   -1.9672    1.2557 C   0  0  0  0  0  0  0  0  0  0  0  0
    4.7597   -1.7184    0.9464 H   0  0  0  0  0  0  0  0  0  0  0  0
    3.6794   -3.0643    1.4025 H   0  0  0  0  0  0  0  0  0  0  0  0
    3.5241   -1.4863    2.2337 H   0  0  0  0  0  0  0  0  0  0  0  0
   -0.8095    2.3220    1.2611 C   0  0  0  0  0  0  0  0  0  0  0  0
   -0.5527    1.6365    2.0790 H   0  0  0  0  0  0  0  0  0  0  0  0
    2.8968   -2.1995   -1.1534 C   0  0  0  0  0  0  0  0  0  0  0  0
    2.0778   -1.9207   -1.8458 H   0  0  0  0  0  0  0  0  0  0  0  0
    2.8940   -3.3033   -1.0592 H   0  0  0  0  0  0  0  0  0  0  0  0
    3.8649   -1.8979   -1.6061 H   0  0  0  0  0  0  0  0  0  0  0  0
   -1.4850    4.0222   -0.8800 C   0  0  0  0  0  0  0  0  0  0  0  0
   -1.7451    4.6870   -1.7174 H   0  0  0  0  0  0  0  0  0  0  0  0
   -0.2768    3.3084   -0.9116 C   0  0  0  0  0  0  0  0  0  0  0  0
    0.4171    3.3924   -1.7604 H   0  0  0  0  0  0  0  0  0  0  0  0
    3.6878    1.4066   -1.5611 C   0  0  0  0  0  0  0  0  0  0  0  0
    3.4142    0.6834   -2.3546 H   0  0  0  0  0  0  0  0  0  0  0  0
    4.6788    1.8340   -1.8133 H   0  0  0  0  0  0  0  0  0  0  0  0
    2.9487    2.2290   -1.5634 H   0  0  0  0  0  0  0  0  0  0  0  0
  1  7  1  0  0  0  0
  1  4  1  0  0  0  0
  2  4  1  0  0  0  0
  2  5  1  0  0  0  0
  4  3  1  1  0  0  0
  5  6  1  0  0  0  0
  5 18  1  0  0  0  0
  7 22  1  0  0  0  0
  8  2  1  0  0  0  0
  8 12  1  0  0  0  0
  9  8  1  0  0  0  0
 10 11  1  0  0  0  0
 12 13  1  0  0  0  0
 12 15  1  0  0  0  0
 14 12  1  0  0  0  0
 16 17  1  0  0  0  0
 16 10  1  0  0  0  0
 18 20  1  0  0  0  0
 18 21  1  0  0  0  0
 19 18  1  0  0  0  0
 22 10  2  0  0  0  0
 22 23  1  0  0  0  0
 24 26  1  0  0  0  0
 24  5  1  0  0  0  0
 25 24  1  0  0  0  0
 27 24  1  0  0  0  0
 28 16  2  0  0  0  0
 29 28  1  0  0  0  0
 30 28  1  0  0  0  0
 30  7  2  0  0  0  0
 31 30  1  0  0  0  0
 32  8  1  0  0  0  0
 33 32  1  0  0  0  0
 34 32  1  0  0  0  0
 35 32  1  0  0  0  0
M  END
