1
q = -2.0, confidence = 0.654

 27 27  0  0  0  0  0  0  0  0999 V2000
    0.1526   -1.5707    0.0006 N   0  0  0  0  0  1  0  0  0  0  0  0
    1.3310   -2.2192   -0.0001 C   0  0  0  0  0  0  0  0  0  0  0  0
    1.2550   -3.6473   -0.0008 C   0  0  0  0  0  0  0  0  0  0  0  0
    2.4093   -4.4235   -0.0016 C   0  0  0  0  0  0  0  0  0  0  0  0
    3.6840   -3.8152   -0.0017 C   0  0  0  0  0  0  0  0  0  0  0  0
    3.7803   -2.4229   -0.0010 C   0  0  0  0  0  0  0  0  0  0  0  0
    2.6298   -1.6002   -0.0002 C   0  0  0  0  0  0  0  0  0  0  0  0
    2.7800   -0.1311    0.0005 C   0  0  0  0  0  0  0  0  0  0  0  0
    4.0680    0.2937   -0.0000 O   0  0  0  0  0  0  0  0  0  0  0  0
    1.8624    0.6917    0.0015 O   0  0  0  0  0  0  0  0  0  0  0  0
    4.3781    2.0135    0.0004 Si  0  0  0  0  0  0  0  0  0  0  0  0
    6.2621    2.0472   -0.0013 C   0  0  0  0  0  0  0  0  0  0  0  0
    3.6973    2.7932   -1.5688 C   0  0  0  0  0  0  0  0  0  0  0  0
    3.7000    2.7919    1.5713 C   0  0  0  0  0  0  0  0  0  0  0  0
    0.2441   -4.0838   -0.0008 H   0  0  0  0  0  0  0  0  0  0  0  0
    2.3226   -5.5217   -0.0022 H   0  0  0  0  0  0  0  0  0  0  0  0
    4.5956   -4.4315   -0.0023 H   0  0  0  0  0  0  0  0  0  0  0  0
    4.7615   -1.9285   -0.0011 H   0  0  0  0  0  0  0  0  0  0  0  0
    6.6363    3.0919    0.0001 H   0  0  0  0  0  0  0  0  0  0  0  0
    6.6680    1.5390   -0.8995 H   0  0  0  0  0  0  0  0  0  0  0  0
    6.6694    1.5362    0.8947 H   0  0  0  0  0  0  0  0  0  0  0  0
    4.0220    3.8516   -1.6494 H   0  0  0  0  0  0  0  0  0  0  0  0
    2.5908    2.7579   -1.5737 H   0  0  0  0  0  0  0  0  0  0  0  0
    4.0643    2.2530   -2.4651 H   0  0  0  0  0  0  0  0  0  0  0  0
    4.0224    3.8511    1.6507 H   0  0  0  0  0  0  0  0  0  0  0  0
    4.0707    2.2528    2.4668 H   0  0  0  0  0  0  0  0  0  0  0  0
    2.5936    2.7541    1.5791 H   0  0  0  0  0  0  0  0  0  0  0  0
  2  1  1  0  0  0  0
  3 15  1  0  0  0  0
  3  2  2  0  0  0  0
  4  3  1  0  0  0  0
  5  4  2  0  0  0  0
  5  6  1  0  0  0  0
  6  7  2  0  0  0  0
  7  2  1  0  0  0  0
  7  8  1  0  0  0  0
  8 10  2  0  0  0  0
  9 11  1  0  0  0  0
  9  8  1  0  0  0  0
 11 14  1  0  0  0  0
 12 19  1  0  0  0  0
 12 11  1  0  0  0  0
 12 21  1  0  0  0  0
 13 11  1  0  0  0  0
 14 27  1  0  0  0  0
 14 25  1  0  0  0  0
 14 26  1  0  0  0  0
 16  4  1  0  0  0  0
 17  5  1  0  0  0  0
 18  6  1  0  0  0  0
 20 12  1  0  0  0  0
 22 13  1  0  0  0  0
 23 13  1  0  0  0  0
 24 13  1  0  0  0  0
M  END
