2
q = -1.0

 32 32  0  0  1  0  0  0  0  0999 V2000
   -3.0406   -1.8218    0.2702 S   0  0  0  0  0  0  0  0  0  0  0  0
   -1.3077    0.7858   -0.4152 N   0  0  0  0  0  1  0  0  0  0  0  0
   -3.5384    0.8235    0.2847 N   0  0  0  0  0  0  0  0  0  0  0  0
   -4.2219    1.5774    0.3783 H   0  0  0  0  0  0  0  0  0  0  0  0
   -5.3240   -0.5257   -0.3370 N   0  0  0  0  0  0  0  0  0  0  0  0
   -2.1767    1.2144    0.4205 C   0  0  2  0  0  3  0  0  0  0  0  0
   -4.0035   -0.4582    0.0507 C   0  0  0  0  0  0  0  0  0  0  0  0
   -6.1394    0.6596   -0.6054 C   0  0  0  0  0  0  0  0  0  0  0  0
   -6.0268    1.4065    0.2134 H   0  0  0  0  0  0  0  0  0  0  0  0
   -7.2001    0.3445   -0.5380 H   0  0  0  0  0  0  0  0  0  0  0  0
   -5.8608    1.2967   -1.9696 C   0  0  0  0  0  0  0  0  0  0  0  0
   -6.5103    2.1805   -2.1318 H   0  0  0  0  0  0  0  0  0  0  0  0
   -6.0548    0.5705   -2.7839 H   0  0  0  0  0  0  0  0  0  0  0  0
   -4.8041    1.6192   -2.0521 H   0  0  0  0  0  0  0  0  0  0  0  0
   -5.9563   -1.8268   -0.5654 C   0  0  0  0  0  0  0  0  0  0  0  0
   -5.1593   -2.5185   -0.9043 H   0  0  0  0  0  0  0  0  0  0  0  0
   -6.6843   -1.7032   -1.3951 H   0  0  0  0  0  0  0  0  0  0  0  0
   -6.6326   -2.3875    0.6843 C   0  0  0  0  0  0  0  0  0  0  0  0
   -7.1198   -3.3583    0.4611 H   0  0  0  0  0  0  0  0  0  0  0  0
   -7.4088   -1.6994    1.0792 H   0  0  0  0  0  0  0  0  0  0  0  0
   -5.8716   -2.5545    1.4722 H   0  0  0  0  0  0  0  0  0  0  0  0
   -1.8701    2.1259    1.5492 C   0  0  0  0  0  0  0  0  0  0  0  0
   -2.7025    2.1808    2.6908 C   0  0  0  0  0  0  0  0  0  0  0  0
   -3.5860    1.5272    2.7454 H   0  0  0  0  0  0  0  0  0  0  0  0
   -2.3866    3.0253    3.7646 C   0  0  0  0  0  0  0  0  0  0  0  0
   -3.0382    3.0458    4.6518 H   0  0  0  0  0  0  0  0  0  0  0  0
   -1.2386    3.8316    3.7163 C   0  0  0  0  0  0  0  0  0  0  0  0
   -0.9919    4.4954    4.5588 H   0  0  0  0  0  0  0  0  0  0  0  0
   -0.4083    3.7878    2.5820 C   0  0  0  0  0  0  0  0  0  0  0  0
    0.4877    4.4255    2.5313 H   0  0  0  0  0  0  0  0  0  0  0  0
   -0.7196    2.9482    1.5071 C   0  0  0  0  0  0  0  0  0  0  0  0
   -0.0902    2.9373    0.6040 H   0  0  0  0  0  0  0  0  0  0  0  0
  3  4  1  0  0  0  0
  3  6  1  0  0  0  0
  5  7  1  0  0  0  0
  6  2  1  6  0  0  0
  6 22  1  0  0  0  0
  7  1  2  0  0  0  0
  7  3  1  0  0  0  0
  8 10  1  0  0  0  0
  8  5  1  0  0  0  0
  8  9  1  0  0  0  0
 11  8  1  0  0  0  0
 12 11  1  0  0  0  0
 13 11  1  0  0  0  0
 14 11  1  0  0  0  0
 15  5  1  0  0  0  0
 15 18  1  0  0  0  0
 16 15  1  0  0  0  0
 17 15  1  0  0  0  0
 18 20  1  0  0  0  0
 18 21  1  0  0  0  0
 19 18  1  0  0  0  0
 22 23  1  0  0  0  0
 23 24  1  0  0  0  0
 23 25  2  0  0  0  0
 25 26  1  0  0  0  0
 27 25  1  0  0  0  0
 27 28  1  0  0  0  0
 29 27  2  0  0  0  0
 30 29  1  0  0  0  0
 31 22  2  0  0  0  0
 31 29  1  0  0  0  0
 32 31  1  0  0  0  0
M  END
