1
q = -2.0, confidence = 0.642

 17 17  0  0  0  0  0  0  0  0999 V2000
   -0.8563    0.6779    0.6456 N   0  0  0  0  0  1  0  0  0  0  0  0
   -2.0533    0.6901    2.6013 O   0  0  0  0  0  0  0  0  0  0  0  0
   -1.9670    0.9259    1.3786 C   0  0  0  0  0  0  0  0  0  0  0  0
   -3.1246    1.5042    0.6094 C   0  0  0  0  0  0  0  0  0  0  0  0
   -3.0337    1.8257   -0.7608 C   0  0  0  0  0  0  0  0  0  0  0  0
   -4.1530    2.3175   -1.4424 C   0  0  0  0  0  0  0  0  0  0  0  0
   -5.3889    2.5010   -0.7845 C   0  0  0  0  0  0  0  0  0  0  0  0
   -5.4671    2.1719    0.5858 C   0  0  0  0  0  0  0  0  0  0  0  0
   -4.3508    1.6845    1.2766 C   0  0  0  0  0  0  0  0  0  0  0  0
   -6.5798    3.0595   -1.5210 C   0  0  0  0  0  0  0  0  0  0  0  0
   -2.0845    1.6630   -1.2927 H   0  0  0  0  0  0  0  0  0  0  0  0
   -4.0703    2.5610   -2.5139 H   0  0  0  0  0  0  0  0  0  0  0  0
   -6.4236    2.3038    1.1170 H   0  0  0  0  0  0  0  0  0  0  0  0
   -4.3971    1.4258    2.3452 H   0  0  0  0  0  0  0  0  0  0  0  0
   -6.5252    4.1682   -1.5789 H   0  0  0  0  0  0  0  0  0  0  0  0
   -7.5319    2.8047   -1.0157 H   0  0  0  0  0  0  0  0  0  0  0  0
   -6.6277    2.6864   -2.5638 H   0  0  0  0  0  0  0  0  0  0  0  0
  1  3  1  0  0  0  0
  3  2  2  0  0  0  0
  4  9  1  0  0  0  0
  4  3  1  0  0  0  0
  5  4  2  0  0  0  0
  6  7  2  0  0  0  0
  6  5  1  0  0  0  0
  7  8  1  0  0  0  0
  8 13  1  0  0  0  0
  8  9  2  0  0  0  0
  9 14  1  0  0  0  0
 10 16  1  0  0  0  0
 10  7  1  0  0  0  0
 11  5  1  0  0  0  0
 12  6  1  0  0  0  0
 15 10  1  0  0  0  0
 17 10  1  0  0  0  0
M  END
