1
q = -1.0

 27 26  0  0  0  0  0  0  0  0999 V2000
   -0.5864    0.0617    0.7020 N   0  0  0  0  0  1  0  0  0  0  0  0
   -2.9014    0.0402    0.0023 N   0  0  0  0  0  4  0  0  0  0  0  0
   -1.7847    0.1016    1.1954 C   0  0  0  0  0  0  0  0  0  0  0  0
   -2.2455    0.1929    2.4816 C   0  0  0  0  0  0  0  0  0  0  0  0
   -1.4769    0.2383    3.2642 H   0  0  0  0  0  0  0  0  0  0  0  0
   -3.2973    0.2358    2.7793 H   0  0  0  0  0  0  0  0  0  0  0  0
   -2.6019   -1.2102   -0.8017 C   0  0  0  0  0  0  0  0  0  0  0  0
   -3.2901   -1.1986   -1.6710 H   0  0  0  0  0  0  0  0  0  0  0  0
   -1.5751   -1.0677   -1.1949 H   0  0  0  0  0  0  0  0  0  0  0  0
   -2.6888   -2.4995   -0.0083 C   0  0  0  0  0  0  0  0  0  0  0  0
   -1.9831   -2.4771    0.8441 H   0  0  0  0  0  0  0  0  0  0  0  0
   -2.3629   -3.3274   -0.6672 H   0  0  0  0  0  0  0  0  0  0  0  0
   -3.7104   -2.7321    0.3588 H   0  0  0  0  0  0  0  0  0  0  0  0
   -2.6309    1.2339   -0.8976 C   0  0  0  0  0  0  0  0  0  0  0  0
   -1.6632    1.0159   -1.3981 H   0  0  0  0  0  0  0  0  0  0  0  0
   -3.4193    1.2203   -1.6777 H   0  0  0  0  0  0  0  0  0  0  0  0
   -2.5569    2.5691   -0.1797 C   0  0  0  0  0  0  0  0  0  0  0  0
   -3.4745    2.8221    0.3910 H   0  0  0  0  0  0  0  0  0  0  0  0
   -2.4078    3.3564   -0.9450 H   0  0  0  0  0  0  0  0  0  0  0  0
   -1.6784    2.6014    0.4931 H   0  0  0  0  0  0  0  0  0  0  0  0
   -4.3045    0.0444    0.5314 C   0  0  0  0  0  0  0  0  0  0  0  0
   -4.3497   -0.7593    1.2886 H   0  0  0  0  0  0  0  0  0  0  0  0
   -4.4273    1.0019    1.0700 H   0  0  0  0  0  0  0  0  0  0  0  0
   -5.4122   -0.1387   -0.4993 C   0  0  0  0  0  0  0  0  0  0  0  0
   -5.3935    0.6344   -1.2923 H   0  0  0  0  0  0  0  0  0  0  0  0
   -6.3889   -0.0543    0.0183 H   0  0  0  0  0  0  0  0  0  0  0  0
   -5.3808   -1.1340   -0.9837 H   0  0  0  0  0  0  0  0  0  0  0  0
  1  3  1  0  0  0  0
  2 21  1  0  0  0  0
  2  3  1  0  0  0  0
  3  4  2  0  0  0  0
  4  6  1  0  0  0  0
  4  5  1  0  0  0  0
  7 10  1  0  0  0  0
  7  2  1  0  0  0  0
  8  7  1  0  0  0  0
  9  7  1  0  0  0  0
 10 13  1  0  0  0  0
 10 11  1  0  0  0  0
 12 10  1  0  0  0  0
 14 17  1  0  0  0  0
 14  2  1  0  0  0  0
 15 14  1  0  0  0  0
 16 14  1  0  0  0  0
 17 18  1  0  0  0  0
 17 20  1  0  0  0  0
 19 17  1  0  0  0  0
 21 23  1  0  0  0  0
 21 22  1  0  0  0  0
 24 26  1  0  0  0  0
 24 21  1  0  0  0  0
 25 24  1  0  0  0  0
 27 24  1  0  0  0  0
M  END
