1
q = 0.0, confidence = 0.984

 12 11  0  0  0  0  0  0  0  0999 V2000
    3.0742   -0.5794    0.0364 N   0  0  0  0  0  1  0  0  0  0  0  0
    4.0538    0.0536    0.0268 C   0  0  0  0  0  2  0  0  0  0  0  0
    5.1414    1.0298    0.0146 C   0  0  0  0  0  0  0  0  0  0  0  0
    6.0638    0.5033   -0.3154 H   0  0  0  0  0  0  0  0  0  0  0  0
    5.3447    1.5899    1.4369 C   0  0  0  0  0  0  0  0  0  0  0  0
    4.4094    2.0650    1.7930 H   0  0  0  0  0  0  0  0  0  0  0  0
    6.1492    2.3511    1.4214 H   0  0  0  0  0  0  0  0  0  0  0  0
    5.6259    0.7938    2.1528 H   0  0  0  0  0  0  0  0  0  0  0  0
    4.7773    2.1279   -1.0089 C   0  0  0  0  0  0  0  0  0  0  0  0
    4.6131    1.7041   -2.0179 H   0  0  0  0  0  0  0  0  0  0  0  0
    5.5974    2.8709   -1.0580 H   0  0  0  0  0  0  0  0  0  0  0  0
    3.8436    2.6370   -0.6987 H   0  0  0  0  0  0  0  0  0  0  0  0
  2  1  1  0  0  0  0
  3  2  1  0  0  0  0
  3  5  1  0  0  0  0
  4  3  1  0  0  0  0
  5  6  1  0  0  0  0
  5  8  1  0  0  0  0
  7  5  1  0  0  0  0
  9 12  1  0  0  0  0
  9  3  1  0  0  0  0
 10  9  1  0  0  0  0
 11  9  1  0  0  0  0
M  END
