1
q = -2.0, confidence = 0.536

 35 42  0  0  1  0  0  0  0  0999 V2000
    2.0074   -0.8112   -0.0008 N   0  0  0  0  0  2  0  0  0  0  0  0
    1.5494    1.5487   -0.0003 C   0  0  2  0  0  0  0  0  0  0  0  0
   -0.0219    0.9290   -0.0004 C   0  0  1  0  0  0  0  0  0  0  0  0
    2.5291    0.3554   -0.0004 C   0  0  0  0  0  0  0  0  0  0  0  0
    4.0136    0.5436    0.0002 C   0  0  0  0  0  0  0  0  0  0  0  0
    4.6692    1.7944   -0.0006 C   0  0  0  0  0  0  0  0  0  0  0  0
    4.0892    2.7226   -0.0019 H   0  0  0  0  0  0  0  0  0  0  0  0
    6.0707    1.8673   -0.0000 C   0  0  0  0  0  0  0  0  0  0  0  0
    6.5592    2.8536   -0.0007 H   0  0  0  0  0  0  0  0  0  0  0  0
    6.8445    0.6985    0.0015 C   0  0  0  0  0  0  0  0  0  0  0  0
    7.9435    0.7604    0.0020 H   0  0  0  0  0  0  0  0  0  0  0  0
    6.2045   -0.5541    0.0024 C   0  0  0  0  0  0  0  0  0  0  0  0
    6.8020   -1.4788    0.0036 H   0  0  0  0  0  0  0  0  0  0  0  0
    4.8095   -0.6283    0.0017 C   0  0  0  0  0  0  0  0  0  0  0  0
    4.2858   -1.5957    0.0023 H   0  0  0  0  0  0  0  0  0  0  0  0
    0.6197    1.6697    1.4183 B   0  0  2  0  0  0  0  0  0  0  0  0
    0.9235    1.0078    2.3739 H   0  0  0  0  0  0  0  0  0  0  0  0
    1.6597    3.0153    0.8860 B   0  0  2  0  0  0  0  0  0  0  0  0
    2.6572    3.2320    1.5260 H   0  0  0  0  0  0  0  0  0  0  0  0
    1.6596    3.0153   -0.8866 B   0  0  2  0  0  0  0  0  0  0  0  0
    2.6568    3.2322   -1.5270 H   0  0  0  0  0  0  0  0  0  0  0  0
    0.6196    1.6698   -1.4190 B   0  0  1  0  0  0  0  0  0  0  0  0
    0.9234    1.0081   -2.3747 H   0  0  0  0  0  0  0  0  0  0  0  0
   -1.0238    2.0024    0.8788 B   0  0  1  0  0  0  0  0  0  0  0  0
   -1.9373    1.5424    1.5238 H   0  0  0  0  0  0  0  0  0  0  0  0
    0.0035    3.3396    1.4449 B   0  0  1  0  0  0  0  0  0  0  0  0
   -0.2029    3.8865    2.5041 H   0  0  0  0  0  0  0  0  0  0  0  0
    0.6444    4.1782   -0.0002 B   0  0  1  0  0  0  0  0  0  0  0  0
    0.9121    5.3581   -0.0002 H   0  0  0  0  0  0  0  0  0  0  0  0
    0.0034    3.3397   -1.4455 B   0  0  0  0  0  0  0  0  0  0  0  0
   -0.2031    3.8867   -2.5046 H   0  0  0  0  0  0  0  0  0  0  0  0
   -1.0239    2.0024   -0.8793 B   0  0  2  0  0  0  0  0  0  0  0  0
   -1.9375    1.5424   -1.5242 H   0  0  0  0  0  0  0  0  0  0  0  0
   -1.0250    3.5543   -0.0002 B   0  0  1  0  0  0  0  0  0  0  0  0
   -2.0014    4.2732   -0.0001 H   0  0  0  0  0  0  0  0  0  0  0  0
  1  4  2  0  0  0  0
  2  4  1  6  0  0  0
  2 16  1  0  0  0  0
  3  2  1  0  0  0  0
  3 24  1  0  0  0  0
  4  5  1  0  0  0  0
  5 14  1  0  0  0  0
  6  8  1  0  0  0  0
  6  5  2  0  0  0  0
  7  6  1  0  0  0  0
  8 10  2  0  0  0  0
  9  8  1  0  0  0  0
 10 11  1  0  0  0  0
 10 12  1  0  0  0  0
 12 13  1  0  0  0  0
 14 15  1  0  0  0  0
 14 12  2  0  0  0  0
 16 26  1  0  0  0  0
 16 17  1  0  0  0  0
 18 26  1  0  0  0  0
 18 19  1  0  0  0  0
 20 28  1  0  0  0  0
 20 18  1  0  0  0  0
 21 20  1  0  0  0  0
 22 32  1  0  0  0  0
 22  3  1  0  0  0  0
 22  2  1  0  0  0  0
 23 22  1  0  0  0  0
 24 16  1  0  0  0  0
 24 25  1  0  0  0  0
 26 27  1  0  0  0  0
 28 29  1  0  0  0  0
 28 34  1  0  0  0  0
 28 18  1  0  0  0  0
 30 20  1  0  0  0  0
 30 34  1  0  0  0  0
 31 30  1  0  0  0  0
 32  3  1  0  0  0  0
 32 24  1  0  0  0  0
 33 32  1  0  0  0  0
 34 35  1  0  0  0  0
 34 26  1  0  0  0  0
M  END
