1
q = -1.0, confidence = 0.0

  5  6  0  0  1  0  0  0  0  0999 V2000
   -1.0167   -0.8797   -2.1197 N   0  0  0  0  0  0  0  0  0  0  0  0
   -0.1752   -1.7167   -2.5158 C   0  0  2  0  0  0  0  0  0  0  0  0
    1.4898   -3.3707   -3.2202 C   0  0  0  0  0  0  0  0  0  0  0  0
    0.7730   -2.7651   -2.1342 C   0  0  1  0  0  0  0  0  0  0  0  0
    0.5747   -2.3302   -3.5947 C   0  0  2  0  0  0  0  0  0  0  0  0
  2  4  1  0  0  0  0
  2  1  1  1  0  0  0
  4  3  1  6  0  0  0
  5  3  1  6  0  0  0
  5  2  1  0  0  0  0
  5  4  1  0  0  0  0
M  END
