1
q = -1.0

 14 13  0  0  0  0  0  0  0  0999 V2000
    1.7787    0.0096    0.1001 N   0  0  0  0  0  1  0  0  0  0  0  0
    3.1794    0.0174    0.0242 N   0  3  0  0  0  0  0  0  0  0  0  0
    3.7119   -1.1545    0.8127 C   0  0  0  0  0  0  0  0  0  0  0  0
    3.6111   -0.0988   -1.4191 C   0  0  0  0  0  0  0  0  0  0  0  0
    3.6885    1.3127    0.6087 C   0  0  0  0  0  0  0  0  0  0  0  0
    3.2843   -2.0735    0.3760 H   0  0  0  0  0  0  0  0  0  0  0  0
    4.8157   -1.1630    0.7523 H   0  0  0  0  0  0  0  0  0  0  0  0
    3.3737   -1.0397    1.8567 H   0  0  0  0  0  0  0  0  0  0  0  0
    3.1832    0.7577   -1.9672 H   0  0  0  0  0  0  0  0  0  0  0  0
    4.7153   -0.0928   -1.4732 H   0  0  0  0  0  0  0  0  0  0  0  0
    3.2002   -1.0424   -1.8167 H   0  0  0  0  0  0  0  0  0  0  0  0
    3.3437    1.3680    1.6555 H   0  0  0  0  0  0  0  0  0  0  0  0
    4.7924    1.3286    0.5532 H   0  0  0  0  0  0  0  0  0  0  0  0
    3.2510    2.1392    0.0226 H   0  0  0  0  0  0  0  0  0  0  0  0
  2  1  1  0  0  0  0
  2  5  1  0  0  0  0
  2  3  1  0  0  0  0
  3  8  1  0  0  0  0
  4  2  1  0  0  0  0
  5 12  1  0  0  0  0
  6  3  1  0  0  0  0
  7  3  1  0  0  0  0
  9  4  1  0  0  0  0
 10  4  1  0  0  0  0
 11  4  1  0  0  0  0
 13  5  1  0  0  0  0
 14  5  1  0  0  0  0
M  CHG  1   2   1
M  END
