3
q = -1.0

 14 14  0  0  0  0  0  0  0  0999 V2000
    4.5509    1.7791    1.2248 Cl  0  0  0  0  0  0  0  0  0  0  0  0
    2.9147   -2.9558   -0.9266 Cl  0  0  0  0  0  0  0  0  0  0  0  0
    0.3699   -1.2441    0.9572 N   0  0  0  0  0  1  0  0  0  0  0  0
    2.6993   -0.4646    0.8557 N   0  0  0  0  0  2  0  0  0  0  0  0
    1.5423   -0.9297    0.8206 C   0  0  0  0  0  2  0  0  0  0  0  0
    3.8483   -0.6133    0.1192 C   0  0  0  0  0  0  0  0  0  0  0  0
    4.1206   -1.7156   -0.7421 C   0  0  0  0  0  0  0  0  0  0  0  0
    5.3344   -1.8257   -1.4316 C   0  0  0  0  0  0  0  0  0  0  0  0
    6.3059   -0.8243   -1.2930 C   0  0  0  0  0  0  0  0  0  0  0  0
    6.0692    0.2888   -0.4729 C   0  0  0  0  0  0  0  0  0  0  0  0
    4.8578    0.3868    0.2192 C   0  0  0  0  0  0  0  0  0  0  0  0
    5.5058   -2.6991   -2.0754 H   0  0  0  0  0  0  0  0  0  0  0  0
    7.2593   -0.9112   -1.8336 H   0  0  0  0  0  0  0  0  0  0  0  0
    6.8175    1.0852   -0.3630 H   0  0  0  0  0  0  0  0  0  0  0  0
  2  7  1  0  0  0  0
  5  4  1  0  0  0  0
  5  3  1  0  0  0  0
  6 11  1  0  0  0  0
  6  4  1  0  0  0  0
  7  6  2  0  0  0  0
  8  9  2  0  0  0  0
  8  7  1  0  0  0  0
  9 10  1  0  0  0  0
 10 14  1  0  0  0  0
 10 11  2  0  0  0  0
 11  1  1  0  0  0  0
 12  8  1  0  0  0  0
 13  9  1  0  0  0  0
M  END
