1
q = 0.0, confidence = 0.996

 15 15  0  0  0  0  0  0  0  0999 V2000
   -1.0473    1.5088    0.0577 N   0  0  0  0  0  1  0  0  0  0  0  0
   -2.1818    1.1921    0.0665 C   0  0  0  0  0  2  0  0  0  0  0  0
   -3.5205    0.7489    0.0442 C   0  0  0  0  0  0  0  0  0  0  0  0
   -4.5864    1.5773    0.4916 C   0  0  0  0  0  0  0  0  0  0  0  0
   -5.8953    1.1189    0.4585 C   0  0  0  0  0  0  0  0  0  0  0  0
   -6.2018   -0.1884   -0.0205 C   0  0  0  0  0  0  0  0  0  0  0  0
   -5.1279   -1.0132   -0.4662 C   0  0  0  0  0  0  0  0  0  0  0  0
   -3.8179   -0.5579   -0.4371 C   0  0  0  0  0  0  0  0  0  0  0  0
   -7.4842   -0.6358   -0.0505 N   0  0  0  0  0  0  0  0  0  0  0  0
   -4.3711    2.5884    0.8654 H   0  0  0  0  0  0  0  0  0  0  0  0
   -6.7100    1.7714    0.8067 H   0  0  0  0  0  0  0  0  0  0  0  0
   -5.3430   -2.0255   -0.8404 H   0  0  0  0  0  0  0  0  0  0  0  0
   -3.0025   -1.2061   -0.7881 H   0  0  0  0  0  0  0  0  0  0  0  0
   -8.2541   -0.0481    0.2621 H   0  0  0  0  0  0  0  0  0  0  0  0
   -7.7094   -1.5665   -0.3949 H   0  0  0  0  0  0  0  0  0  0  0  0
  1  2  1  0  0  0  0
  3  2  1  0  0  0  0
  3  4  1  0  0  0  0
  4 10  1  0  0  0  0
  5  4  2  0  0  0  0
  5 11  1  0  0  0  0
  6  5  1  0  0  0  0
  7  8  1  0  0  0  0
  7  6  2  0  0  0  0
  8  3  2  0  0  0  0
  9  6  1  0  0  0  0
  9 14  1  0  0  0  0
 12  7  1  0  0  0  0
 13  8  1  0  0  0  0
 15  9  1  0  0  0  0
M  END
