2
q = -1.0, confidence = 0.0

 36 38  0  0  1  0  0  0  0  0999 V2000
    2.9985    1.4953   -0.3218 O   0  0  0  0  0  0  0  0  0  0  0  0
    0.1885   -0.6381    0.0277 N   0  0  0  0  0  1  0  0  0  0  0  0
    1.4293   -0.9301    0.1591 C   0  0  2  0  0  3  0  0  0  0  0  0
    3.7623    0.8532    0.4079 C   0  0  0  0  0  0  0  0  0  0  0  0
    2.0291   -0.6508    1.5034 C   0  0  0  0  0  0  0  0  0  0  0  0
    3.2003    0.1459    1.6150 C   0  0  0  0  0  0  0  0  0  0  0  0
    3.7418    0.3855    2.8927 C   0  0  0  0  0  0  0  0  0  0  0  0
    3.1216   -0.1247    4.0442 C   0  0  0  0  0  0  0  0  0  0  0  0
    1.9556   -0.8942    3.9289 C   0  0  0  0  0  0  0  0  0  0  0  0
    1.4122   -1.1572    2.6626 C   0  0  0  0  0  0  0  0  0  0  0  0
    2.2136   -1.4825   -0.9686 C   0  0  0  0  0  0  0  0  0  0  0  0
    3.4233   -2.1671   -0.7218 C   0  0  0  0  0  0  0  0  0  0  0  0
    4.1742   -2.6727   -1.7916 C   0  0  0  0  0  0  0  0  0  0  0  0
    3.7217   -2.5091   -3.1100 C   0  0  0  0  0  0  0  0  0  0  0  0
    2.5090   -1.8412   -3.3577 C   0  0  0  0  0  0  0  0  0  0  0  0
    1.7548   -1.3273   -2.2979 C   0  0  0  0  0  0  0  0  0  0  0  0
    5.2218    0.7812    0.1235 C   0  0  0  0  0  0  0  0  0  0  0  0
    5.7441    1.6330   -0.8764 C   0  0  0  0  0  0  0  0  0  0  0  0
    7.0977    1.5737   -1.2180 C   0  0  0  0  0  0  0  0  0  0  0  0
    7.9450    0.6536   -0.5736 C   0  0  0  0  0  0  0  0  0  0  0  0
    7.4336   -0.2073    0.4113 C   0  0  0  0  0  0  0  0  0  0  0  0
    6.0787   -0.1445    0.7618 C   0  0  0  0  0  0  0  0  0  0  0  0
    4.6439    1.0088    2.9848 H   0  0  0  0  0  0  0  0  0  0  0  0
    3.5496    0.0881    5.0350 H   0  0  0  0  0  0  0  0  0  0  0  0
    1.4626   -1.2928    4.8277 H   0  0  0  0  0  0  0  0  0  0  0  0
    0.5009   -1.7635    2.5644 H   0  0  0  0  0  0  0  0  0  0  0  0
    3.7723   -2.3080    0.3114 H   0  0  0  0  0  0  0  0  0  0  0  0
    5.1206   -3.1968   -1.5919 H   0  0  0  0  0  0  0  0  0  0  0  0
    4.3154   -2.9026   -3.9486 H   0  0  0  0  0  0  0  0  0  0  0  0
    2.1528   -1.7113   -4.3906 H   0  0  0  0  0  0  0  0  0  0  0  0
    0.8123   -0.7920   -2.4919 H   0  0  0  0  0  0  0  0  0  0  0  0
    5.0550    2.3312   -1.3733 H   0  0  0  0  0  0  0  0  0  0  0  0
    7.5007    2.2435   -1.9923 H   0  0  0  0  0  0  0  0  0  0  0  0
    9.0105    0.6051   -0.8447 H   0  0  0  0  0  0  0  0  0  0  0  0
    8.0955   -0.9331    0.9066 H   0  0  0  0  0  0  0  0  0  0  0  0
    5.6791   -0.8306    1.5225 H   0  0  0  0  0  0  0  0  0  0  0  0
  1  4  2  0  0  0  0
  3  2  1  6  0  0  0
  3  5  1  0  0  0  0
  4  6  1  0  0  0  0
  5  6  2  0  0  0  0
  5 10  1  0  0  0  0
  6  7  1  0  0  0  0
  7 23  1  0  0  0  0
  7  8  2  0  0  0  0
  8 24  1  0  0  0  0
  9  8  1  0  0  0  0
  9 25  1  0  0  0  0
 10  9  2  0  0  0  0
 11 12  1  0  0  0  0
 11  3  1  0  0  0  0
 12 27  1  0  0  0  0
 13 28  1  0  0  0  0
 13 12  2  0  0  0  0
 14 13  1  0  0  0  0
 15 14  2  0  0  0  0
 15 16  1  0  0  0  0
 16 11  2  0  0  0  0
 17  4  1  0  0  0  0
 17 22  1  0  0  0  0
 18 17  2  0  0  0  0
 19 18  1  0  0  0  0
 19 20  2  0  0  0  0
 20 21  1  0  0  0  0
 21 22  2  0  0  0  0
 21 35  1  0  0  0  0
 22 36  1  0  0  0  0
 26 10  1  0  0  0  0
 29 14  1  0  0  0  0
 30 15  1  0  0  0  0
 31 16  1  0  0  0  0
 32 18  1  0  0  0  0
 33 19  1  0  0  0  0
 34 20  1  0  0  0  0
M  END
