1
q = 0.0, confidence = 0.942

  4  3  0  0  0  0  0  0  0  0999 V2000
    1.0322    0.0560    2.2106 N   0  0  0  0  0  1  0  0  0  0  0  0
    0.4811    0.6334    3.0667 N   0  0  0  0  0  2  0  0  0  0  0  0
   -0.3410    1.3631    3.6437 N   0  0  0  0  0  2  0  0  0  0  0  0
   -0.1560    1.4268    4.6592 H   0  0  0  0  0  0  0  0  0  0  0  0
  1  2  1  0  0  0  0
  2  3  1  0  0  0  0
  3  4  1  0  0  0  0
M  END
