4
q = -2.0, confidence = 0.608

 12 12  0  0  0  0  0  0  0  0999 V2000
   -0.1794   -1.4033   -2.0480 Br  0  0  0  0  0  0  0  0  0  0  0  0
   -5.0714   -3.9436   -0.7001 Br  0  0  0  0  0  0  0  0  0  0  0  0
   -3.9413    1.2155    1.4132 Br  0  0  0  0  0  0  0  0  0  0  0  0
   -1.3693    0.8756   -0.2352 N   0  0  0  0  0  1  0  0  0  0  0  0
   -2.1761   -0.2046   -0.3480 C   0  0  0  0  0  0  0  0  0  0  0  0
   -1.8328   -1.3537   -1.1298 C   0  0  0  0  0  0  0  0  0  0  0  0
   -2.6878   -2.4561   -1.2427 C   0  0  0  0  0  0  0  0  0  0  0  0
   -2.3931   -3.3176   -1.8555 H   0  0  0  0  0  0  0  0  0  0  0  0
   -3.9122   -2.4471   -0.5569 C   0  0  0  0  0  0  0  0  0  0  0  0
   -4.2953   -1.3532    0.2360 C   0  0  0  0  0  0  0  0  0  0  0  0
   -5.2503   -1.3545    0.7768 H   0  0  0  0  0  0  0  0  0  0  0  0
   -3.4361   -0.2544    0.3271 C   0  0  0  0  0  0  0  0  0  0  0  0
  1  6  1  0  0  0  0
  2  9  1  0  0  0  0
  5  4  1  0  0  0  0
  5 12  1  0  0  0  0
  6  5  2  0  0  0  0
  7  6  1  0  0  0  0
  7  9  2  0  0  0  0
  8  7  1  0  0  0  0
  9 10  1  0  0  0  0
 10 12  2  0  0  0  0
 10 11  1  0  0  0  0
 12  3  1  0  0  0  0
M  END
