3
q = -1.0

 11 10  0  0  0  0  0  0  0  0999 V2000
   -4.3697    0.8633   -1.0079 O   0  0  0  0  0  0  0  0  0  0  0  0
   -5.0713    2.0027    0.8343 O   0  0  0  0  0  0  0  0  0  0  0  0
   -0.8169    1.7971   -1.2722 N   0  0  0  0  0  1  0  0  0  0  0  0
   -1.7687    2.0397   -0.5704 C   0  0  0  0  0  2  0  0  0  0  0  0
   -2.8716    2.3438    0.1591 C   0  0  0  0  0  3  0  0  0  0  0  0
   -4.1272    1.6629   -0.1051 C   0  0  0  0  0  0  0  0  0  0  0  0
   -6.3339    1.3637    0.6668 C   0  0  0  0  0  0  0  0  0  0  0  0
   -6.9832    1.7450    1.4764 H   0  0  0  0  0  0  0  0  0  0  0  0
   -6.2403    0.2598    0.7403 H   0  0  0  0  0  0  0  0  0  0  0  0
   -6.7782    1.5977   -0.3230 H   0  0  0  0  0  0  0  0  0  0  0  0
   -2.7923    3.0318    1.0122 H   0  0  0  0  0  0  0  0  0  0  0  0
  1  6  2  0  0  0  0
  3  4  1  0  0  0  0
  4  5  1  0  0  0  0
  5 11  1  0  0  0  0
  6  5  1  0  0  0  0
  6  2  1  0  0  0  0
  7  9  1  0  0  0  0
  7  2  1  0  0  0  0
  7  8  1  0  0  0  0
 10  7  1  0  0  0  0
M  END
