1
q = -2.0, confidence = 0.76

 42 45  0  0  0  0  0  0  0  0999 V2000
    0.4240   -0.1577   -0.3340 N   0  0  0  0  0  1  0  0  0  0  0  0
   -0.9327   -0.0675   -0.3417 C   0  0  0  0  0  0  0  0  0  0  0  0
   -1.5785    1.2198   -0.3140 C   0  0  0  0  0  0  0  0  0  0  0  0
   -2.9716    1.2780   -0.1599 C   0  0  0  0  0  0  0  0  0  0  0  0
   -3.7676    0.1214   -0.0232 C   0  0  0  0  0  0  0  0  0  0  0  0
   -3.1221   -1.1322   -0.0771 C   0  0  0  0  0  0  0  0  0  0  0  0
   -1.7368   -1.2560   -0.2599 C   0  0  0  0  0  0  0  0  0  0  0  0
   -0.8028    2.4796   -0.4068 C   0  0  0  0  0  0  0  0  0  0  0  0
    0.2547    2.6258   -1.3314 C   0  0  0  0  0  0  0  0  0  0  0  0
    0.9892    3.8173   -1.3964 C   0  0  0  0  0  0  0  0  0  0  0  0
    0.6719    4.8940   -0.5537 C   0  0  0  0  0  0  0  0  0  0  0  0
   -0.3887    4.7695    0.3601 C   0  0  0  0  0  0  0  0  0  0  0  0
   -1.1163    3.5742    0.4346 C   0  0  0  0  0  0  0  0  0  0  0  0
   -5.2365    0.2189    0.1472 C   0  0  0  0  0  0  0  0  0  0  0  0
   -5.9416   -0.7335    0.9198 C   0  0  0  0  0  0  0  0  0  0  0  0
   -7.3294   -0.6419    1.0867 C   0  0  0  0  0  0  0  0  0  0  0  0
   -8.0474    0.4031    0.4832 C   0  0  0  0  0  0  0  0  0  0  0  0
   -7.3628    1.3557   -0.2885 C   0  0  0  0  0  0  0  0  0  0  0  0
   -5.9746    1.2652   -0.4541 C   0  0  0  0  0  0  0  0  0  0  0  0
   -1.1391   -2.6096   -0.3639 C   0  0  0  0  0  0  0  0  0  0  0  0
   -1.4721   -3.6097    0.5770 C   0  0  0  0  0  0  0  0  0  0  0  0
   -0.9596   -4.9075    0.4521 C   0  0  0  0  0  0  0  0  0  0  0  0
   -0.1137   -5.2298   -0.6217 C   0  0  0  0  0  0  0  0  0  0  0  0
    0.2206   -4.2449   -1.5630 C   0  0  0  0  0  0  0  0  0  0  0  0
   -0.2833   -2.9442   -1.4344 C   0  0  0  0  0  0  0  0  0  0  0  0
   -3.4509    2.2674   -0.1339 H   0  0  0  0  0  0  0  0  0  0  0  0
   -3.7225   -2.0529   -0.0393 H   0  0  0  0  0  0  0  0  0  0  0  0
    0.5140    1.7991   -2.0064 H   0  0  0  0  0  0  0  0  0  0  0  0
    1.8189    3.8932   -2.1151 H   0  0  0  0  0  0  0  0  0  0  0  0
    1.2469    5.8312   -0.6092 H   0  0  0  0  0  0  0  0  0  0  0  0
   -0.6441    5.6061    1.0286 H   0  0  0  0  0  0  0  0  0  0  0  0
   -1.9225    3.4699    1.1767 H   0  0  0  0  0  0  0  0  0  0  0  0
   -5.3865   -1.5416    1.4193 H   0  0  0  0  0  0  0  0  0  0  0  0
   -7.8545   -1.3895    1.7006 H   0  0  0  0  0  0  0  0  0  0  0  0
   -9.1378    0.4744    0.6133 H   0  0  0  0  0  0  0  0  0  0  0  0
   -7.9170    2.1728   -0.7751 H   0  0  0  0  0  0  0  0  0  0  0  0
   -5.4545    2.0009   -1.0855 H   0  0  0  0  0  0  0  0  0  0  0  0
   -2.1217   -3.3524    1.4276 H   0  0  0  0  0  0  0  0  0  0  0  0
   -1.2164   -5.6710    1.2023 H   0  0  0  0  0  0  0  0  0  0  0  0
    0.2908   -6.2488   -0.7198 H   0  0  0  0  0  0  0  0  0  0  0  0
    0.8909   -4.4843   -2.4018 H   0  0  0  0  0  0  0  0  0  0  0  0
   -0.0175   -2.1763   -2.1746 H   0  0  0  0  0  0  0  0  0  0  0  0
  2  1  1  0  0  0  0
  2  3  2  0  0  0  0
  2  7  1  0  0  0  0
  3  4  1  0  0  0  0
  4 26  1  0  0  0  0
  4  5  2  0  0  0  0
  5 14  1  0  0  0  0
  6 27  1  0  0  0  0
  6  5  1  0  0  0  0
  7  6  2  0  0  0  0
  8  3  1  0  0  0  0
  8 13  1  0  0  0  0
  9  8  2  0  0  0  0
 10  9  1  0  0  0  0
 10 11  2  0  0  0  0
 11 12  1  0  0  0  0
 12 13  2  0  0  0  0
 12 31  1  0  0  0  0
 13 32  1  0  0  0  0
 14 15  1  0  0  0  0
 15 16  2  0  0  0  0
 15 33  1  0  0  0  0
 16 34  1  0  0  0  0
 17 35  1  0  0  0  0
 17 16  1  0  0  0  0
 18 17  2  0  0  0  0
 19 18  1  0  0  0  0
 19 14  2  0  0  0  0
 20  7  1  0  0  0  0
 20 21  1  0  0  0  0
 21 38  1  0  0  0  0
 22 21  2  0  0  0  0
 22 39  1  0  0  0  0
 23 22  1  0  0  0  0
 24 25  1  0  0  0  0
 24 23  2  0  0  0  0
 25 20  2  0  0  0  0
 28  9  1  0  0  0  0
 29 10  1  0  0  0  0
 30 11  1  0  0  0  0
 36 18  1  0  0  0  0
 37 19  1  0  0  0  0
 40 23  1  0  0  0  0
 41 24  1  0  0  0  0
 42 25  1  0  0  0  0
M  END
