1
q = -1.0

 46 46  0  0  1  0  0  0  0  0999 V2000
    0.9376    0.9019   -0.4128 N   0  0  0  0  0  1  0  0  0  0  0  0
   -0.1284    2.9782   -0.0685 N   0  0  0  0  0  0  0  0  0  0  0  0
   -0.1306    1.6125   -0.2360 C   0  0  2  0  0  3  0  0  0  0  0  0
   -1.4462    0.8802   -0.1850 C   0  0  0  0  0  0  0  0  0  0  0  0
   -1.8200    0.0630   -1.2705 C   0  0  0  0  0  0  0  0  0  0  0  0
   -2.9513   -0.7530   -1.1888 C   0  0  0  0  0  0  0  0  0  0  0  0
   -3.7404   -0.8167   -0.0172 C   0  0  0  0  0  0  0  0  0  0  0  0
   -3.3587    0.0059    1.0611 C   0  0  0  0  0  0  0  0  0  0  0  0
   -2.2380    0.8475    0.9786 C   0  0  0  0  0  0  0  0  0  0  0  0
   -4.9343   -1.7832    0.0507 C   0  0  0  0  0  0  0  0  0  0  0  0
   -4.4108   -3.2290   -0.1158 C   0  0  0  0  0  0  0  0  0  0  0  0
   -5.9273   -1.4568   -1.0874 C   0  0  0  0  0  0  0  0  0  0  0  0
   -5.6833   -1.6885    1.3910 C   0  0  0  0  0  0  0  0  0  0  0  0
   -1.3706    3.7751   -0.1238 C   0  0  0  0  0  0  0  0  0  0  0  0
   -1.4072    4.7046   -1.3452 C   0  0  0  0  0  0  0  0  0  0  0  0
   -1.6252    4.5296    1.1873 C   0  0  0  0  0  0  0  0  0  0  0  0
    1.1491    3.7259    0.0177 C   0  0  0  0  0  0  0  0  0  0  0  0
    1.9423    3.7004   -1.2960 C   0  0  0  0  0  0  0  0  0  0  0  0
    1.9930    3.2913    1.2221 C   0  0  0  0  0  0  0  0  0  0  0  0
   -1.1925    0.0543   -2.1736 H   0  0  0  0  0  0  0  0  0  0  0  0
   -3.2114   -1.3780   -2.0568 H   0  0  0  0  0  0  0  0  0  0  0  0
   -3.9331   -0.0089    1.9972 H   0  0  0  0  0  0  0  0  0  0  0  0
   -1.9604    1.4675    1.8449 H   0  0  0  0  0  0  0  0  0  0  0  0
   -3.8969   -3.3702   -1.0873 H   0  0  0  0  0  0  0  0  0  0  0  0
   -5.2499   -3.9538   -0.0681 H   0  0  0  0  0  0  0  0  0  0  0  0
   -3.6878   -3.4823    0.6860 H   0  0  0  0  0  0  0  0  0  0  0  0
   -6.3178   -0.4237   -0.9883 H   0  0  0  0  0  0  0  0  0  0  0  0
   -6.7892   -2.1551   -1.0604 H   0  0  0  0  0  0  0  0  0  0  0  0
   -5.4554   -1.5451   -2.0859 H   0  0  0  0  0  0  0  0  0  0  0  0
   -6.0893   -0.6715    1.5654 H   0  0  0  0  0  0  0  0  0  0  0  0
   -6.5380   -2.3944    1.3940 H   0  0  0  0  0  0  0  0  0  0  0  0
   -5.0314   -1.9527    2.2479 H   0  0  0  0  0  0  0  0  0  0  0  0
   -2.1873    3.0403   -0.2523 H   0  0  0  0  0  0  0  0  0  0  0  0
   -1.2600    4.1319   -2.2819 H   0  0  0  0  0  0  0  0  0  0  0  0
   -0.6296    5.4939   -1.2950 H   0  0  0  0  0  0  0  0  0  0  0  0
   -2.3907    5.2126   -1.4024 H   0  0  0  0  0  0  0  0  0  0  0  0
   -1.6377    3.8355    2.0505 H   0  0  0  0  0  0  0  0  0  0  0  0
   -0.8500    5.2996    1.3797 H   0  0  0  0  0  0  0  0  0  0  0  0
   -2.6035    5.0490    1.1470 H   0  0  0  0  0  0  0  0  0  0  0  0
    0.8433    4.7764    0.2010 H   0  0  0  0  0  0  0  0  0  0  0  0
    2.2844    2.6745   -1.5216 H   0  0  0  0  0  0  0  0  0  0  0  0
    2.8313    4.3571   -1.2100 H   0  0  0  0  0  0  0  0  0  0  0  0
    1.3271    4.0643   -2.1417 H   0  0  0  0  0  0  0  0  0  0  0  0
    2.3664    2.2600    1.0809 H   0  0  0  0  0  0  0  0  0  0  0  0
    2.8627    3.9690    1.3346 H   0  0  0  0  0  0  0  0  0  0  0  0
    1.3983    3.3313    2.1564 H   0  0  0  0  0  0  0  0  0  0  0  0
  2 17  1  0  0  0  0
  3  1  1  1  0  0  0
  3  4  1  0  0  0  0
  3  2  1  0  0  0  0
  4  9  1  0  0  0  0
  5  6  1  0  0  0  0
  5  4  2  0  0  0  0
  6  7  2  0  0  0  0
  7 10  1  0  0  0  0
  7  8  1  0  0  0  0
  8 22  1  0  0  0  0
  9  8  2  0  0  0  0
  9 23  1  0  0  0  0
 10 13  1  0  0  0  0
 11 25  1  0  0  0  0
 11 10  1  0  0  0  0
 11 26  1  0  0  0  0
 12 28  1  0  0  0  0
 12 27  1  0  0  0  0
 12 10  1  0  0  0  0
 13 31  1  0  0  0  0
 13 30  1  0  0  0  0
 13 32  1  0  0  0  0
 14  2  1  0  0  0  0
 14 16  1  0  0  0  0
 15 35  1  0  0  0  0
 15 14  1  0  0  0  0
 16 38  1  0  0  0  0
 16 37  1  0  0  0  0
 17 40  1  0  0  0  0
 17 19  1  0  0  0  0
 18 42  1  0  0  0  0
 18 17  1  0  0  0  0
 19 45  1  0  0  0  0
 19 46  1  0  0  0  0
 20  5  1  0  0  0  0
 21  6  1  0  0  0  0
 24 11  1  0  0  0  0
 29 12  1  0  0  0  0
 33 14  1  0  0  0  0
 34 15  1  0  0  0  0
 36 15  1  0  0  0  0
 39 16  1  0  0  0  0
 41 18  1  0  0  0  0
 43 18  1  0  0  0  0
 44 19  1  0  0  0  0
M  END
