1
q = -1.0, confidence = 0.002

 34 34  0  0  1  0  0  0  0  0999 V2000
   -0.3317   -0.5006   -0.4163 N   0  0  0  0  0  1  0  0  0  0  0  0
   -2.5979   -1.0618   -0.0743 N   0  0  0  0  0  0  0  0  0  0  0  0
   -1.5659   -0.1631   -0.2216 C   0  0  1  0  0  3  0  0  0  0  0  0
   -1.8773    1.3101   -0.1293 C   0  0  0  0  0  0  0  0  0  0  0  0
   -2.3686    1.8889    1.0604 C   0  0  0  0  0  0  0  0  0  0  0  0
   -2.5077    3.2811    1.1679 C   0  0  0  0  0  0  0  0  0  0  0  0
   -2.1751    4.1086    0.0835 C   0  0  0  0  0  0  0  0  0  0  0  0
   -1.6906    3.5372   -1.1053 C   0  0  0  0  0  0  0  0  0  0  0  0
   -1.5295    2.1490   -1.2070 C   0  0  0  0  0  0  0  0  0  0  0  0
   -4.0138   -0.6421   -0.1086 C   0  0  0  0  0  0  0  0  0  0  0  0
   -4.7475   -1.1824   -1.3442 C   0  0  0  0  0  0  0  0  0  0  0  0
   -4.7439   -0.9854    1.1960 C   0  0  0  0  0  0  0  0  0  0  0  0
   -2.3294   -2.5197   -0.0365 C   0  0  0  0  0  0  0  0  0  0  0  0
   -1.8028   -3.0620   -1.3722 C   0  0  0  0  0  0  0  0  0  0  0  0
   -1.4408   -2.9145    1.1493 C   0  0  0  0  0  0  0  0  0  0  0  0
   -2.6264    1.2425    1.9133 H   0  0  0  0  0  0  0  0  0  0  0  0
   -2.8751    3.7224    2.1070 H   0  0  0  0  0  0  0  0  0  0  0  0
   -2.2874    5.2002    0.1671 H   0  0  0  0  0  0  0  0  0  0  0  0
   -1.4229    4.1809   -1.9571 H   0  0  0  0  0  0  0  0  0  0  0  0
   -1.1113    1.6980   -2.1187 H   0  0  0  0  0  0  0  0  0  0  0  0
   -3.9944    0.4598   -0.2017 H   0  0  0  0  0  0  0  0  0  0  0  0
   -5.7753   -0.7693   -1.3818 H   0  0  0  0  0  0  0  0  0  0  0  0
   -4.2236   -0.8884   -2.2748 H   0  0  0  0  0  0  0  0  0  0  0  0
   -4.8357   -2.2879   -1.3298 H   0  0  0  0  0  0  0  0  0  0  0  0
   -5.7767   -0.5840    1.1743 H   0  0  0  0  0  0  0  0  0  0  0  0
   -4.2224   -0.5503    2.0712 H   0  0  0  0  0  0  0  0  0  0  0  0
   -4.8185   -2.0811    1.3534 H   0  0  0  0  0  0  0  0  0  0  0  0
   -3.3236   -2.9792    0.1398 H   0  0  0  0  0  0  0  0  0  0  0  0
   -1.7195   -4.1663   -1.3214 H   0  0  0  0  0  0  0  0  0  0  0  0
   -2.4865   -2.8071   -2.2050 H   0  0  0  0  0  0  0  0  0  0  0  0
   -0.8039   -2.6452   -1.5927 H   0  0  0  0  0  0  0  0  0  0  0  0
   -1.3892   -4.0188    1.2272 H   0  0  0  0  0  0  0  0  0  0  0  0
   -1.8507   -2.5183    2.0996 H   0  0  0  0  0  0  0  0  0  0  0  0
   -0.4157   -2.5233    1.0125 H   0  0  0  0  0  0  0  0  0  0  0  0
  2 13  1  0  0  0  0
  3  1  1  1  0  0  0
  3  4  1  0  0  0  0
  3  2  1  0  0  0  0
  4  5  1  0  0  0  0
  5  6  2  0  0  0  0
  5 16  1  0  0  0  0
  6 17  1  0  0  0  0
  7 18  1  0  0  0  0
  7  6  1  0  0  0  0
  8  7  2  0  0  0  0
  9  8  1  0  0  0  0
  9  4  2  0  0  0  0
 10  2  1  0  0  0  0
 10 12  1  0  0  0  0
 11 24  1  0  0  0  0
 11 10  1  0  0  0  0
 12 27  1  0  0  0  0
 12 26  1  0  0  0  0
 13 28  1  0  0  0  0
 13 15  1  0  0  0  0
 14 29  1  0  0  0  0
 14 13  1  0  0  0  0
 15 32  1  0  0  0  0
 15 33  1  0  0  0  0
 19  8  1  0  0  0  0
 20  9  1  0  0  0  0
 21 10  1  0  0  0  0
 22 11  1  0  0  0  0
 23 11  1  0  0  0  0
 25 12  1  0  0  0  0
 30 14  1  0  0  0  0
 31 14  1  0  0  0  0
 34 15  1  0  0  0  0
M  END
