1
q = -1.0, confidence = 0.018

 11 10  0  0  1  0  0  0  0  0999 V2000
    0.8210    1.1483    0.1539 N   0  0  0  0  0  0  0  0  0  0  0  0
    1.6136    5.2471   -0.9915 N   0  0  0  0  0  0  0  0  0  0  0  0
    3.8526    2.7038    0.3146 N   0  0  0  0  0  0  0  0  0  0  0  0
    7.1423    2.2699    1.0596 N   0  0  0  0  0  0  0  0  0  0  0  0
    5.1235    5.9446   -0.4733 N   0  0  0  0  0  0  0  0  0  0  0  0
    1.6389    1.9927    0.0732 C   0  0  0  0  0  0  0  0  0  0  0  0
    2.1022    4.2658   -0.5608 C   0  0  0  0  0  0  0  0  0  0  0  0
    2.6027    3.0236   -0.0455 C   0  0  2  0  0  0  0  0  0  0  0  0
    6.1596    2.8180    0.7157 C   0  0  0  0  0  0  0  0  0  0  0  0
    5.0336    4.8216   -0.1341 C   0  0  0  0  0  0  0  0  0  0  0  0
    4.9403    3.4498    0.2878 C   0  0  0  0  0  0  0  0  0  0  0  0
  2  7  3  0  0  0  0
  5 10  3  0  0  0  0
  6  1  1  0  0  0  0
  8  7  1  6  0  0  0
  8  6  1  0  0  0  0
  8  3  1  0  0  0  0
  9  4  3  0  0  0  0
 10 11  1  0  0  0  0
 11  3  2  0  0  0  0
 11  9  1  0  0  0  0
M  END
