1
q = -1.0, confidence = 0.006

 10  9  0  0  1  0  0  0  0  0999 V2000
   -1.6165   -0.6308   -1.1594 N   0  0  0  0  0  1  0  0  0  0  0  0
   -2.7119   -0.2957   -0.8064 C   0  0  0  0  0  2  0  0  0  0  0  0
   -3.9076    0.2340   -0.3654 C   0  0  1  0  0  3  0  0  0  0  0  0
   -5.1039   -0.5338    0.0905 C   0  0  0  0  0  0  0  0  0  0  0  0
   -5.0834   -1.8755   -0.2316 N   0  0  0  0  0  0  0  0  0  0  0  0
   -5.9427   -2.3905   -0.0375 H   0  0  0  0  0  0  0  0  0  0  0  0
   -4.4944   -2.2200   -0.9898 H   0  0  0  0  0  0  0  0  0  0  0  0
   -6.0153   -0.0103    0.7219 O   0  0  0  0  0  0  0  0  0  0  0  0
   -3.7646    1.6159   -0.1157 C   0  0  0  0  0  0  0  0  0  0  0  0
   -3.4203    2.7338    0.0597 N   0  0  0  0  0  0  0  0  0  0  0  0
  1  2  1  0  0  0  0
  3  2  1  1  0  0  0
  3  9  1  0  0  0  0
  3  4  1  0  0  0  0
  4  8  2  0  0  0  0
  5  6  1  0  0  0  0
  5  4  1  0  0  0  0
  7  5  1  0  0  0  0
  9 10  3  0  0  0  0
M  END
