1
q = -1.0

 24 25  0  0  0  0  0  0  0  0999 V2000
   -0.7362   -0.6559   -0.9520 N   0  0  0  0  0  1  0  0  0  0  0  0
    0.6430    0.0803   -1.3614 S   0  0  0  0  0  3  0  0  0  0  0  0
    1.9175   -0.9963   -0.6329 C   0  0  0  0  0  0  0  0  0  0  0  0
    3.2519   -0.7863   -1.0104 C   0  0  0  0  0  0  0  0  0  0  0  0
    4.2402   -1.6164   -0.4621 C   0  0  0  0  0  0  0  0  0  0  0  0
    3.8839   -2.6377    0.4352 C   0  0  0  0  0  0  0  0  0  0  0  0
    2.5392   -2.8342    0.7884 C   0  0  0  0  0  0  0  0  0  0  0  0
    1.5348   -2.0137    0.2501 C   0  0  0  0  0  0  0  0  0  0  0  0
    0.8876    1.5641   -0.3445 C   0  0  0  0  0  0  0  0  0  0  0  0
    0.8075    1.4982    1.0556 C   0  0  0  0  0  0  0  0  0  0  0  0
    0.9662    2.6797    1.7890 C   0  0  0  0  0  0  0  0  0  0  0  0
    1.1918    3.9001    1.1273 C   0  0  0  0  0  0  0  0  0  0  0  0
    1.2524    3.9499   -0.2736 C   0  0  0  0  0  0  0  0  0  0  0  0
    1.0917    2.7739   -1.0237 C   0  0  0  0  0  0  0  0  0  0  0  0
    3.5177    0.0164   -1.7155 H   0  0  0  0  0  0  0  0  0  0  0  0
    5.2936   -1.4680   -0.7430 H   0  0  0  0  0  0  0  0  0  0  0  0
    4.6629   -3.2887    0.8595 H   0  0  0  0  0  0  0  0  0  0  0  0
    2.2623   -3.6349    1.4904 H   0  0  0  0  0  0  0  0  0  0  0  0
    0.4728   -2.1457    0.5107 H   0  0  0  0  0  0  0  0  0  0  0  0
    0.6060    0.5420    1.5616 H   0  0  0  0  0  0  0  0  0  0  0  0
    0.9032    2.6493    2.8868 H   0  0  0  0  0  0  0  0  0  0  0  0
    1.3124    4.8240    1.7125 H   0  0  0  0  0  0  0  0  0  0  0  0
    1.4176    4.9080   -0.7884 H   0  0  0  0  0  0  0  0  0  0  0  0
    1.1241    2.7955   -2.1237 H   0  0  0  0  0  0  0  0  0  0  0  0
  2  1  1  0  0  0  0
  2  3  1  0  0  0  0
  2  9  1  0  0  0  0
  3  8  1  0  0  0  0
  4  3  2  0  0  0  0
  4  5  1  0  0  0  0
  5  6  2  0  0  0  0
  6  7  1  0  0  0  0
  6 17  1  0  0  0  0
  7 18  1  0  0  0  0
  8 19  1  0  0  0  0
  8  7  2  0  0  0  0
  9 10  1  0  0  0  0
 10 20  1  0  0  0  0
 10 11  2  0  0  0  0
 11 21  1  0  0  0  0
 12 22  1  0  0  0  0
 12 11  1  0  0  0  0
 13 12  2  0  0  0  0
 14  9  2  0  0  0  0
 14 13  1  0  0  0  0
 15  4  1  0  0  0  0
 16  5  1  0  0  0  0
 23 13  1  0  0  0  0
 24 14  1  0  0  0  0
M  END
