1
q = 0.0, confidence = 0.644

 24 25  0  0  1  0  0  0  0  0999 V2000
    0.9070   -0.0974   -0.1447 N   0  0  0  0  0  1  0  0  0  0  0  0
    2.3015    0.0142   -0.0790 B   0  0  0  0  0  0  0  0  0  0  0  0
    3.1857   -0.3184    1.2121 C   0  0  1  0  0  0  0  0  0  0  0  0
    3.2260    0.5767   -1.2557 C   0  0  2  0  0  0  0  0  0  0  0  0
    4.2517   -0.5263   -1.6163 C   0  0  0  0  0  0  0  0  0  0  0  0
    5.0693   -1.0765   -0.4314 C   0  0  0  0  0  0  0  0  0  0  0  0
    4.2341   -1.3910    0.8261 C   0  0  0  0  0  0  0  0  0  0  0  0
    3.8391    1.9068   -0.7480 C   0  0  0  0  0  0  0  0  0  0  0  0
    4.5502    1.8275    0.6183 C   0  0  0  0  0  0  0  0  0  0  0  0
    3.7836    1.0296    1.6921 C   0  0  0  0  0  0  0  0  0  0  0  0
    2.5610   -0.7270    2.0355 H   0  0  0  0  0  0  0  0  0  0  0  0
    2.6325    0.8024   -2.1676 H   0  0  0  0  0  0  0  0  0  0  0  0
    3.6892   -1.3684   -2.0813 H   0  0  0  0  0  0  0  0  0  0  0  0
    4.9514   -0.1641   -2.4049 H   0  0  0  0  0  0  0  0  0  0  0  0
    5.5995   -1.9988   -0.7539 H   0  0  0  0  0  0  0  0  0  0  0  0
    5.8747   -0.3601   -0.1743 H   0  0  0  0  0  0  0  0  0  0  0  0
    4.9225   -1.5863    1.6808 H   0  0  0  0  0  0  0  0  0  0  0  0
    3.6892   -2.3468    0.6580 H   0  0  0  0  0  0  0  0  0  0  0  0
    3.0098    2.6466   -0.6733 H   0  0  0  0  0  0  0  0  0  0  0  0
    4.5458    2.3237   -1.5028 H   0  0  0  0  0  0  0  0  0  0  0  0
    5.5603    1.3917    0.4864 H   0  0  0  0  0  0  0  0  0  0  0  0
    4.7308    2.8585    0.9929 H   0  0  0  0  0  0  0  0  0  0  0  0
    2.9421    1.6563    2.0667 H   0  0  0  0  0  0  0  0  0  0  0  0
    4.4501    0.8680    2.5710 H   0  0  0  0  0  0  0  0  0  0  0  0
  1  2  1  0  0  0  0
  2  3  1  0  0  0  0
  3 10  1  0  0  0  0
  3 11  1  1  0  0  0
  4 12  1  6  0  0  0
  4  8  1  0  0  0  0
  4  2  1  0  0  0  0
  5  4  1  0  0  0  0
  5  6  1  0  0  0  0
  6 16  1  0  0  0  0
  6  7  1  0  0  0  0
  7  3  1  0  0  0  0
  7 17  1  0  0  0  0
  8 19  1  0  0  0  0
  8  9  1  0  0  0  0
  9 22  1  0  0  0  0
  9 10  1  0  0  0  0
 10 23  1  0  0  0  0
 10 24  1  0  0  0  0
 13  5  1  0  0  0  0
 14  5  1  0  0  0  0
 15  6  1  0  0  0  0
 18  7  1  0  0  0  0
 20  8  1  0  0  0  0
 21  9  1  0  0  0  0
M  END
