2
q = 0.0, confidence = 0.848

 17 16  0  0  0  0  0  0  0  0999 V2000
   -4.1307   -0.0049    0.0514 Si  0  0  0  0  0  0  0  0  0  0  0  0
   -0.9800   -0.0973   -1.1311 N   0  0  0  0  0  1  0  0  0  0  0  0
   -1.2860   -0.0305    0.1116 N   0  0  0  0  0  0  0  0  0  0  0  0
   -2.4137   -0.0236    0.8071 C   0  0  0  0  0  0  0  0  0  0  0  0
   -4.3025   -1.2694   -1.3488 C   0  0  0  0  0  0  0  0  0  0  0  0
   -5.3466   -0.4020    1.4520 C   0  0  0  0  0  0  0  0  0  0  0  0
   -4.5391    1.7131   -0.6510 C   0  0  0  0  0  0  0  0  0  0  0  0
   -2.2683    0.0450    1.8992 H   0  0  0  0  0  0  0  0  0  0  0  0
   -3.5260   -1.0861   -2.1188 H   0  0  0  0  0  0  0  0  0  0  0  0
   -4.1792   -2.3062   -0.9760 H   0  0  0  0  0  0  0  0  0  0  0  0
   -5.2995   -1.1907   -1.8302 H   0  0  0  0  0  0  0  0  0  0  0  0
   -5.2546    0.3318    2.2796 H   0  0  0  0  0  0  0  0  0  0  0  0
   -5.1575   -1.4117    1.8709 H   0  0  0  0  0  0  0  0  0  0  0  0
   -6.3954   -0.3730    1.0911 H   0  0  0  0  0  0  0  0  0  0  0  0
   -4.4498    2.4957    0.1304 H   0  0  0  0  0  0  0  0  0  0  0  0
   -3.8421    1.9733   -1.4728 H   0  0  0  0  0  0  0  0  0  0  0  0
   -5.5732    1.7460   -1.0541 H   0  0  0  0  0  0  0  0  0  0  0  0
  1  4  1  0  0  0  0
  1  6  1  0  0  0  0
  2  3  1  0  0  0  0
  3  4  2  0  0  0  0
  4  8  1  0  0  0  0
  5 10  1  0  0  0  0
  5  1  1  0  0  0  0
  6 13  1  0  0  0  0
  6 12  1  0  0  0  0
  7  1  1  0  0  0  0
  7 15  1  0  0  0  0
  9  5  1  0  0  0  0
 11  5  1  0  0  0  0
 14  6  1  0  0  0  0
 16  7  1  0  0  0  0
 17  7  1  0  0  0  0
M  END
