2
q = 0.0, confidence = 0.618

 17 18  0  0  0  0  0  0  0  0999 V2000
   -0.1062    3.3542   -0.1430 O   0  0  0  0  0  0  0  0  0  0  0  0
   -0.4628    0.5498   -0.6869 N   0  0  0  0  0  1  0  0  0  0  0  0
   -1.3963    1.4740   -0.7090 N   0  0  0  0  0  0  0  0  0  0  0  0
   -1.1880    2.8392   -0.4155 C   0  0  0  0  0  0  0  0  0  0  0  0
   -2.7983    1.1338   -0.9854 C   0  0  0  0  0  0  0  0  0  0  0  0
   -3.4901    2.4561   -0.8149 C   0  0  0  0  0  0  0  0  0  0  0  0
   -4.8450    2.7856   -0.9230 C   0  0  0  0  0  0  0  0  0  0  0  0
   -5.2243    4.1227   -0.7033 C   0  0  0  0  0  0  0  0  0  0  0  0
   -4.2692    5.1091   -0.3826 C   0  0  0  0  0  0  0  0  0  0  0  0
   -2.9104    4.7783   -0.2728 C   0  0  0  0  0  0  0  0  0  0  0  0
   -2.5397    3.4447   -0.4927 C   0  0  0  0  0  0  0  0  0  0  0  0
   -3.1495    0.3578   -0.2723 H   0  0  0  0  0  0  0  0  0  0  0  0
   -2.8946    0.7124   -2.0079 H   0  0  0  0  0  0  0  0  0  0  0  0
   -5.5960    2.0201   -1.1713 H   0  0  0  0  0  0  0  0  0  0  0  0
   -6.2854    4.4038   -0.7827 H   0  0  0  0  0  0  0  0  0  0  0  0
   -4.5965    6.1464   -0.2164 H   0  0  0  0  0  0  0  0  0  0  0  0
   -2.1448    5.5270   -0.0209 H   0  0  0  0  0  0  0  0  0  0  0  0
  3  2  1  0  0  0  0
  3  4  1  0  0  0  0
  4  1  2  0  0  0  0
  5  6  1  0  0  0  0
  5  3  1  0  0  0  0
  5 12  1  0  0  0  0
  6 11  1  0  0  0  0
  7  6  2  0  0  0  0
  7  8  1  0  0  0  0
  8  9  2  0  0  0  0
  9 10  1  0  0  0  0
  9 16  1  0  0  0  0
 10 17  1  0  0  0  0
 11  4  1  0  0  0  0
 11 10  2  0  0  0  0
 13  5  1  0  0  0  0
 14  7  1  0  0  0  0
 15  8  1  0  0  0  0
M  END
