1
q = -2.0, confidence = 0.578

 24 24  0  0  0  0  0  0  0  0999 V2000
    1.3130   -0.1934   -0.4418 N   0  0  0  0  0  1  0  0  0  0  0  0
    2.0965   -1.2853   -0.6950 C   0  0  0  0  0  0  0  0  0  0  0  0
    1.5856   -2.3553   -1.5011 C   0  0  0  0  0  0  0  0  0  0  0  0
    2.4317   -3.4433   -1.7632 C   0  0  0  0  0  0  0  0  0  0  0  0
    2.0548   -4.2656   -2.3916 H   0  0  0  0  0  0  0  0  0  0  0  0
    3.7327   -3.5018   -1.2395 C   0  0  0  0  0  0  0  0  0  0  0  0
    4.3737   -4.3697   -1.4564 H   0  0  0  0  0  0  0  0  0  0  0  0
    4.2138   -2.4569   -0.4386 C   0  0  0  0  0  0  0  0  0  0  0  0
    5.2310   -2.5156   -0.0220 H   0  0  0  0  0  0  0  0  0  0  0  0
    3.4206   -1.3335   -0.1545 C   0  0  0  0  0  0  0  0  0  0  0  0
    0.1817   -2.3093   -2.0399 C   0  0  0  0  0  0  0  0  0  0  0  0
    0.0257   -3.0962   -2.8019 H   0  0  0  0  0  0  0  0  0  0  0  0
   -0.0572   -1.3233   -2.4849 H   0  0  0  0  0  0  0  0  0  0  0  0
   -0.5622   -2.4727   -1.2309 H   0  0  0  0  0  0  0  0  0  0  0  0
    3.9098   -0.2258    0.7643 C   0  0  0  0  0  0  0  0  0  0  0  0
    3.2039    0.6229    0.6509 H   0  0  0  0  0  0  0  0  0  0  0  0
    3.8218   -0.6735    2.2348 C   0  0  0  0  0  0  0  0  0  0  0  0
    2.7883   -0.9739    2.4939 H   0  0  0  0  0  0  0  0  0  0  0  0
    4.1092    0.1557    2.9130 H   0  0  0  0  0  0  0  0  0  0  0  0
    4.4956   -1.5341    2.4306 H   0  0  0  0  0  0  0  0  0  0  0  0
    5.3177    0.2703    0.4060 C   0  0  0  0  0  0  0  0  0  0  0  0
    5.3780    0.5951   -0.6529 H   0  0  0  0  0  0  0  0  0  0  0  0
    6.0873   -0.5146    0.5595 H   0  0  0  0  0  0  0  0  0  0  0  0
    5.5979    1.1310    1.0469 H   0  0  0  0  0  0  0  0  0  0  0  0
  2  1  1  0  0  0  0
  2 10  1  0  0  0  0
  3  2  2  0  0  0  0
  4  3  1  0  0  0  0
  4  6  2  0  0  0  0
  5  4  1  0  0  0  0
  6  8  1  0  0  0  0
  7  6  1  0  0  0  0
  8 10  2  0  0  0  0
  8  9  1  0  0  0  0
 10 15  1  0  0  0  0
 11  3  1  0  0  0  0
 11 14  1  0  0  0  0
 12 11  1  0  0  0  0
 13 11  1  0  0  0  0
 15 17  1  0  0  0  0
 16 15  1  0  0  0  0
 17 20  1  0  0  0  0
 17 18  1  0  0  0  0
 17 19  1  0  0  0  0
 21 23  1  0  0  0  0
 21 15  1  0  0  0  0
 21 24  1  0  0  0  0
 22 21  1  0  0  0  0
M  END
