5
q = -1.0

  8  7  0  0  1  0  0  0  0  0999 V2000
    4.1894   -3.4613   -0.0105 O   0  0  0  0  0  0  0  0  0  0  0  0
    2.0213   -3.7553   -0.1306 O   0  0  0  0  0  0  0  0  0  0  0  0
    3.0682   -3.1163   -0.3605 N   0  0  0  0  0  0  0  0  0  0  0  0
    4.9706   -0.2728   -1.3346 N   0  0  0  0  0  0  0  0  0  0  0  0
    0.5388   -1.0226   -1.4572 N   0  0  0  0  0  0  0  0  0  0  0  0
    2.9365   -1.8579   -1.0775 C   0  0  2  0  0  0  0  0  0  0  0  0
    4.0712   -1.0250   -1.2314 C   0  0  0  0  0  0  0  0  0  0  0  0
    1.6604   -1.4170   -1.3184 C   0  0  0  0  0  0  0  0  0  0  0  0
  3  2  2  0  0  0  0
  3  1  2  0  0  0  0
  4  7  3  0  0  0  0
  5  8  1  0  0  0  0
  6  8  1  1  0  0  0
  6  3  1  0  0  0  0
  7  6  1  0  0  0  0
M  END
