1
q = -1.0

 19 19  0  0  1  0  0  0  0  0999 V2000
   -1.6329   -0.5662   -0.0192 N   0  0  0  0  0  1  0  0  0  0  0  0
   -3.9285   -0.2599   -0.0092 N   0  0  0  0  0  0  0  0  0  0  0  0
   -2.8325   -1.0476   -0.0369 C   0  0  2  0  0  3  0  0  0  0  0  0
   -5.3255   -0.7285   -0.0087 C   0  0  0  0  0  0  0  0  0  0  0  0
   -6.1134    0.5473    0.3188 C   0  0  0  0  0  0  0  0  0  0  0  0
   -5.2552    1.6662   -0.2920 C   0  0  0  0  0  0  0  0  0  0  0  0
   -3.8252    1.2076    0.0127 C   0  0  0  0  0  0  0  0  0  0  0  0
   -3.0076   -2.5535   -0.0855 C   0  0  0  0  0  0  0  0  0  0  0  0
   -5.5973   -1.1327   -1.0095 H   0  0  0  0  0  0  0  0  0  0  0  0
   -5.4815   -1.5342    0.7360 H   0  0  0  0  0  0  0  0  0  0  0  0
   -7.1437    0.5147   -0.0830 H   0  0  0  0  0  0  0  0  0  0  0  0
   -6.1847    0.6743    1.4188 H   0  0  0  0  0  0  0  0  0  0  0  0
   -5.4117    1.7172   -1.3894 H   0  0  0  0  0  0  0  0  0  0  0  0
   -5.4780    2.6658    0.1257 H   0  0  0  0  0  0  0  0  0  0  0  0
   -3.0723    1.5420   -0.7318 H   0  0  0  0  0  0  0  0  0  0  0  0
   -3.4772    1.5474    1.0142 H   0  0  0  0  0  0  0  0  0  0  0  0
   -3.6339   -2.8320   -0.9564 H   0  0  0  0  0  0  0  0  0  0  0  0
   -3.5093   -2.9028    0.8394 H   0  0  0  0  0  0  0  0  0  0  0  0
   -2.0268   -3.0523   -0.1701 H   0  0  0  0  0  0  0  0  0  0  0  0
  2  4  1  0  0  0  0
  2  7  1  0  0  0  0
  3  1  1  1  0  0  0
  3  2  1  0  0  0  0
  4  5  1  0  0  0  0
  4 10  1  0  0  0  0
  5 12  1  0  0  0  0
  6  7  1  0  0  0  0
  6 14  1  0  0  0  0
  6  5  1  0  0  0  0
  7 16  1  0  0  0  0
  8  3  1  0  0  0  0
  8 18  1  0  0  0  0
  9  4  1  0  0  0  0
 11  5  1  0  0  0  0
 13  6  1  0  0  0  0
 15  7  1  0  0  0  0
 17  8  1  0  0  0  0
 19  8  1  0  0  0  0
M  END
