1
q = -1.0

 17 16  0  0  0  0  0  0  0  0999 V2000
   -1.4896   -0.3946    0.7334 N   0  0  0  0  0  1  0  0  0  0  0  0
   -2.7265   -0.7438    1.2867 N   0  3  0  0  0  0  0  0  0  0  0  0
   -3.0255   -2.1936    0.9999 C   0  0  0  0  0  0  0  0  0  0  0  0
   -2.6525   -0.5477    2.7805 C   0  0  0  0  0  0  0  0  0  0  0  0
   -3.8779    0.0914    0.6993 C   0  0  0  0  0  0  0  0  0  0  0  0
   -3.6860    1.5862    0.8230 C   0  0  0  0  0  0  0  0  0  0  0  0
   -2.2150   -2.7999    1.4385 H   0  0  0  0  0  0  0  0  0  0  0  0
   -4.0037   -2.4690    1.4364 H   0  0  0  0  0  0  0  0  0  0  0  0
   -3.0320   -2.3226   -0.0952 H   0  0  0  0  0  0  0  0  0  0  0  0
   -1.8448   -1.1975    3.1579 H   0  0  0  0  0  0  0  0  0  0  0  0
   -2.3941    0.5063    2.9725 H   0  0  0  0  0  0  0  0  0  0  0  0
   -3.6227   -0.8102    3.2427 H   0  0  0  0  0  0  0  0  0  0  0  0
   -4.8004   -0.2578    1.2047 H   0  0  0  0  0  0  0  0  0  0  0  0
   -3.9217   -0.2140   -0.3614 H   0  0  0  0  0  0  0  0  0  0  0  0
   -4.5021    2.0895    0.2689 H   0  0  0  0  0  0  0  0  0  0  0  0
   -2.7216    1.8952    0.3791 H   0  0  0  0  0  0  0  0  0  0  0  0
   -3.7306    1.9454    1.8692 H   0  0  0  0  0  0  0  0  0  0  0  0
  1  2  1  0  0  0  0
  2  4  1  0  0  0  0
  3  2  1  0  0  0  0
  3  8  1  0  0  0  0
  3  7  1  0  0  0  0
  4 11  1  0  0  0  0
  4 10  1  0  0  0  0
  4 12  1  0  0  0  0
  5  6  1  0  0  0  0
  5 13  1  0  0  0  0
  5  2  1  0  0  0  0
  6 17  1  0  0  0  0
  9  3  1  0  0  0  0
 14  5  1  0  0  0  0
 15  6  1  0  0  0  0
 16  6  1  0  0  0  0
M  CHG  1   2   1
M  END
