1
q = -1.0, confidence = 0.0

  9  8  0  0  0  0  0  0  0  0999 V2000
    1.2208   -0.1423    1.0822 N   0  0  0  0  0  1  0  0  0  0  0  0
    2.1707   -0.0290    1.7643 C   0  0  0  0  0  2  0  0  0  0  0  0
    3.3623    0.2598    2.4923 C   0  0  0  0  0  0  0  0  0  0  0  0
    3.9962   -0.6449    2.5817 H   0  0  0  0  0  0  0  0  0  0  0  0
    3.1114    0.6329    3.5059 H   0  0  0  0  0  0  0  0  0  0  0  0
    4.1908    1.4691    1.6440 B   0  0  0  0  0  0  0  0  0  0  0  0
    3.2641    2.5323    1.4012 F   0  0  0  0  0  0  0  0  0  0  0  0
    5.2624    1.9067    2.4107 F   0  0  0  0  0  0  0  0  0  0  0  0
    4.6158    0.9373    0.4041 F   0  0  0  0  0  0  0  0  0  0  0  0
  1  2  1  0  0  0  0
  2  3  1  0  0  0  0
  3  4  1  0  0  0  0
  3  5  1  0  0  0  0
  6  8  1  0  0  0  0
  6  3  1  0  0  0  0
  7  6  1  0  0  0  0
  9  6  1  0  0  0  0
M  END
