1
q = 0.0, confidence = 0.74

 29 29  0  0  0  0  0  0  0  0999 V2000
   -1.4685   -0.5657   -0.0340 N   0  0  0  0  0  1  0  0  0  0  0  0
   -2.6871   -0.9120   -0.2341 N   0  0  0  0  0  0  0  0  0  0  0  0
   -3.7528    0.1196    0.0924 C   0  0  0  0  0  0  0  0  0  0  0  0
   -5.0821   -0.2941   -0.5678 C   0  0  0  0  0  0  0  0  0  0  0  0
   -5.4478   -1.7560   -0.3357 C   0  0  0  0  0  0  0  0  0  0  0  0
   -4.3578   -2.6350   -0.9375 C   0  0  0  0  0  0  0  0  0  0  0  0
   -2.9556   -2.3960   -0.3424 C   0  0  0  0  0  0  0  0  0  0  0  0
   -3.8908    0.2343    1.6231 C   0  0  0  0  0  0  0  0  0  0  0  0
   -3.3060    1.4687   -0.4877 C   0  0  0  0  0  0  0  0  0  0  0  0
   -1.9156   -2.9820   -1.3080 C   0  0  0  0  0  0  0  0  0  0  0  0
   -2.8113   -3.0337    1.0526 C   0  0  0  0  0  0  0  0  0  0  0  0
   -5.0080   -0.1095   -1.6616 H   0  0  0  0  0  0  0  0  0  0  0  0
   -5.8696    0.3859   -0.1831 H   0  0  0  0  0  0  0  0  0  0  0  0
   -6.4251   -1.9866   -0.8069 H   0  0  0  0  0  0  0  0  0  0  0  0
   -5.5712   -1.9632    0.7486 H   0  0  0  0  0  0  0  0  0  0  0  0
   -4.3115   -2.4417   -2.0311 H   0  0  0  0  0  0  0  0  0  0  0  0
   -4.5907   -3.7132   -0.8172 H   0  0  0  0  0  0  0  0  0  0  0  0
   -4.3287   -0.6767    2.0744 H   0  0  0  0  0  0  0  0  0  0  0  0
   -2.8999    0.4090    2.0897 H   0  0  0  0  0  0  0  0  0  0  0  0
   -4.5534    1.0874    1.8725 H   0  0  0  0  0  0  0  0  0  0  0  0
   -2.9865    1.3666   -1.5429 H   0  0  0  0  0  0  0  0  0  0  0  0
   -4.1528    2.1809   -0.4355 H   0  0  0  0  0  0  0  0  0  0  0  0
   -2.4703    1.9134    0.0857 H   0  0  0  0  0  0  0  0  0  0  0  0
   -1.9266   -2.4326   -2.2697 H   0  0  0  0  0  0  0  0  0  0  0  0
   -0.8950   -2.9201   -0.8941 H   0  0  0  0  0  0  0  0  0  0  0  0
   -2.1501   -4.0476   -1.4998 H   0  0  0  0  0  0  0  0  0  0  0  0
   -1.8647   -2.7060    1.5263 H   0  0  0  0  0  0  0  0  0  0  0  0
   -3.6410   -2.7493    1.7275 H   0  0  0  0  0  0  0  0  0  0  0  0
   -2.8021   -4.1388    0.9686 H   0  0  0  0  0  0  0  0  0  0  0  0
  2  1  1  0  0  0  0
  2  3  1  0  0  0  0
  3  8  1  0  0  0  0
  4  5  1  0  0  0  0
  4 13  1  0  0  0  0
  4  3  1  0  0  0  0
  5 15  1  0  0  0  0
  6 17  1  0  0  0  0
  6  7  1  0  0  0  0
  6  5  1  0  0  0  0
  7  2  1  0  0  0  0
  7 11  1  0  0  0  0
  8 20  1  0  0  0  0
  8 18  1  0  0  0  0
  8 19  1  0  0  0  0
  9 22  1  0  0  0  0
  9 23  1  0  0  0  0
  9  3  1  0  0  0  0
 10 25  1  0  0  0  0
 10  7  1  0  0  0  0
 11 27  1  0  0  0  0
 11 28  1  0  0  0  0
 12  4  1  0  0  0  0
 14  5  1  0  0  0  0
 16  6  1  0  0  0  0
 21  9  1  0  0  0  0
 24 10  1  0  0  0  0
 26 10  1  0  0  0  0
 29 11  1  0  0  0  0
M  END
