3
q = -1.0, confidence = 0.002

 28 28  0  0  1  0  0  0  0  0999 V2000
    3.1073    1.7890    0.0361 N   0  0  0  0  0  0  0  0  0  0  0  0
    4.1059    1.6595   -0.1343 H   0  0  0  0  0  0  0  0  0  0  0  0
    1.0286    0.6995   -0.1456 N   0  0  0  0  0  1  0  0  0  0  0  0
    2.6634    3.1750    0.3188 C   0  0  0  0  0  0  0  0  0  0  0  0
    1.8557    3.2068    1.6291 C   0  0  0  0  0  0  0  0  0  0  0  0
    0.9426    2.5874    1.5582 H   0  0  0  0  0  0  0  0  0  0  0  0
    1.5515    4.2482    1.8545 H   0  0  0  0  0  0  0  0  0  0  0  0
    2.4690    2.8323    2.4737 H   0  0  0  0  0  0  0  0  0  0  0  0
    1.8300    3.7190   -0.8561 C   0  0  0  0  0  0  0  0  0  0  0  0
    2.4111    3.6775   -1.7996 H   0  0  0  0  0  0  0  0  0  0  0  0
    1.5556    4.7753   -0.6632 H   0  0  0  0  0  0  0  0  0  0  0  0
    0.8958    3.1419   -0.9874 H   0  0  0  0  0  0  0  0  0  0  0  0
    3.9492    4.0019    0.4783 C   0  0  0  0  0  0  0  0  0  0  0  0
    4.5741    3.6169    1.3109 H   0  0  0  0  0  0  0  0  0  0  0  0
    3.6960    5.0555    0.7035 H   0  0  0  0  0  0  0  0  0  0  0  0
    4.5520    3.9924   -0.4542 H   0  0  0  0  0  0  0  0  0  0  0  0
    2.3245    0.6917   -0.1509 C   0  0  2  0  0  3  0  0  0  0  0  0
    3.0704   -0.6007   -0.3479 C   0  0  0  0  0  0  0  0  0  0  0  0
    4.2478   -0.8958    0.3713 C   0  0  0  0  0  0  0  0  0  0  0  0
    4.6514   -0.1616    1.0863 H   0  0  0  0  0  0  0  0  0  0  0  0
    4.8802   -2.1392    0.2166 C   0  0  0  0  0  0  0  0  0  0  0  0
    5.7876   -2.3674    0.7963 H   0  0  0  0  0  0  0  0  0  0  0  0
    4.3498   -3.0919   -0.6672 C   0  0  0  0  0  0  0  0  0  0  0  0
    4.8480   -4.0655   -0.7916 H   0  0  0  0  0  0  0  0  0  0  0  0
    3.1800   -2.7991   -1.3905 C   0  0  0  0  0  0  0  0  0  0  0  0
    2.7657   -3.5395   -2.0922 H   0  0  0  0  0  0  0  0  0  0  0  0
    2.5349   -1.5663   -1.2269 C   0  0  0  0  0  0  0  0  0  0  0  0
    1.6055   -1.3354   -1.7715 H   0  0  0  0  0  0  0  0  0  0  0  0
  1  4  1  0  0  0  0
  2  1  1  0  0  0  0
  4 13  1  0  0  0  0
  4  5  1  0  0  0  0
  5  7  1  0  0  0  0
  5  8  1  0  0  0  0
  6  5  1  0  0  0  0
  9 11  1  0  0  0  0
  9  4  1  0  0  0  0
 10  9  1  0  0  0  0
 12  9  1  0  0  0  0
 13 15  1  0  0  0  0
 13 14  1  0  0  0  0
 16 13  1  0  0  0  0
 17  3  1  1  0  0  0
 17  1  1  0  0  0  0
 18 17  1  0  0  0  0
 18 19  1  0  0  0  0
 19 20  1  0  0  0  0
 21 19  2  0  0  0  0
 21 22  1  0  0  0  0
 23 21  1  0  0  0  0
 24 23  1  0  0  0  0
 25 27  1  0  0  0  0
 25 23  2  0  0  0  0
 26 25  1  0  0  0  0
 27 18  2  0  0  0  0
 28 27  1  0  0  0  0
M  END
