2
q = -1.0

 45 44  0  0  0  0  0  0  0  0999 V2000
   -1.6556   -0.5195    0.0270 P   0  0  0  0  0  4  0  0  0  0  0  0
   -0.0661   -0.2410    0.0930 N   0  0  0  0  0  1  0  0  0  0  0  0
   -2.0751   -1.4164   -1.6285 C   0  0  0  0  0  0  0  0  0  0  0  0
   -3.5800   -1.4024   -1.9515 C   0  0  0  0  0  0  0  0  0  0  0  0
   -3.7439   -2.0095   -2.8669 H   0  0  0  0  0  0  0  0  0  0  0  0
   -3.9536   -0.3841   -2.1702 H   0  0  0  0  0  0  0  0  0  0  0  0
   -4.2057   -1.8408   -1.1519 H   0  0  0  0  0  0  0  0  0  0  0  0
   -1.5639   -2.8693   -1.5461 C   0  0  0  0  0  0  0  0  0  0  0  0
   -1.6647   -3.3201   -2.5557 H   0  0  0  0  0  0  0  0  0  0  0  0
   -2.1449   -3.5014   -0.8496 H   0  0  0  0  0  0  0  0  0  0  0  0
   -0.4896   -2.9023   -1.2791 H   0  0  0  0  0  0  0  0  0  0  0  0
   -1.2893   -0.7511   -2.7763 C   0  0  0  0  0  0  0  0  0  0  0  0
   -1.5196   -1.3145   -3.7051 H   0  0  0  0  0  0  0  0  0  0  0  0
   -0.1989   -0.8130   -2.6106 H   0  0  0  0  0  0  0  0  0  0  0  0
   -1.5534    0.3038   -2.9491 H   0  0  0  0  0  0  0  0  0  0  0  0
   -2.1236   -1.6485    1.5240 C   0  0  0  0  0  0  0  0  0  0  0  0
   -0.9961   -2.6928    1.6700 C   0  0  0  0  0  0  0  0  0  0  0  0
   -1.1296   -3.2227    2.6364 H   0  0  0  0  0  0  0  0  0  0  0  0
   -0.0036   -2.2045    1.6661 H   0  0  0  0  0  0  0  0  0  0  0  0
   -0.9989   -3.4497    0.8683 H   0  0  0  0  0  0  0  0  0  0  0  0
   -2.1241   -0.8108    2.8172 C   0  0  0  0  0  0  0  0  0  0  0  0
   -2.2271   -1.5035    3.6787 H   0  0  0  0  0  0  0  0  0  0  0  0
   -2.9663   -0.0963    2.8732 H   0  0  0  0  0  0  0  0  0  0  0  0
   -1.1769   -0.2575    2.9452 H   0  0  0  0  0  0  0  0  0  0  0  0
   -3.4862   -2.3481    1.3841 C   0  0  0  0  0  0  0  0  0  0  0  0
   -3.6730   -2.9419    2.3041 H   0  0  0  0  0  0  0  0  0  0  0  0
   -3.5199   -3.0525    0.5329 H   0  0  0  0  0  0  0  0  0  0  0  0
   -4.3259   -1.6349    1.2798 H   0  0  0  0  0  0  0  0  0  0  0  0
   -2.5516    1.1871    0.1351 C   0  0  0  0  0  0  0  0  0  0  0  0
   -1.8002    2.0341    1.1821 C   0  0  0  0  0  0  0  0  0  0  0  0
   -2.1473    3.0846    1.1136 H   0  0  0  0  0  0  0  0  0  0  0  0
   -0.7159    2.0236    0.9638 H   0  0  0  0  0  0  0  0  0  0  0  0
   -1.9563    1.6922    2.2200 H   0  0  0  0  0  0  0  0  0  0  0  0
   -2.3843    1.9109   -1.2148 C   0  0  0  0  0  0  0  0  0  0  0  0
   -2.7526    2.9504   -1.1003 H   0  0  0  0  0  0  0  0  0  0  0  0
   -2.9791    1.4508   -2.0252 H   0  0  0  0  0  0  0  0  0  0  0  0
   -1.3197    1.9554   -1.5198 H   0  0  0  0  0  0  0  0  0  0  0  0
   -4.0601    1.0357    0.4910 C   0  0  0  0  0  0  0  0  0  0  0  0
   -4.5542    0.3607   -0.2341 H   0  0  0  0  0  0  0  0  0  0  0  0
   -4.1505    0.5576    1.4887 H   0  0  0  0  0  0  0  0  0  0  0  0
   -4.8134    2.3382    0.5274 C   0  0  0  0  0  0  0  0  0  0  0  0
   -4.5056    3.0646    1.3008 H   0  0  0  0  0  0  0  0  0  0  0  0
   -5.8244    2.6617   -0.2973 C   0  0  0  0  0  0  0  0  0  0  0  0
   -6.1674    1.9680   -1.0837 H   0  0  0  0  0  0  0  0  0  0  0  0
   -6.3496    3.6261   -0.2175 H   0  0  0  0  0  0  0  0  0  0  0  0
  1  2  1  0  0  0  0
  1 29  1  0  0  0  0
  1 16  1  0  0  0  0
  3  8  1  0  0  0  0
  3  1  1  0  0  0  0
  4  3  1  0  0  0  0
  4  7  1  0  0  0  0
  5  4  1  0  0  0  0
  6  4  1  0  0  0  0
  8 11  1  0  0  0  0
  8 10  1  0  0  0  0
  9  8  1  0  0  0  0
 12 14  1  0  0  0  0
 12  3  1  0  0  0  0
 13 12  1  0  0  0  0
 15 12  1  0  0  0  0
 16 17  1  0  0  0  0
 16 21  1  0  0  0  0
 17 18  1  0  0  0  0
 19 17  1  0  0  0  0
 20 17  1  0  0  0  0
 21 23  1  0  0  0  0
 21 24  1  0  0  0  0
 21 22  1  0  0  0  0
 25 16  1  0  0  0  0
 25 26  1  0  0  0  0
 27 25  1  0  0  0  0
 28 25  1  0  0  0  0
 29 38  1  0  0  0  0
 29 30  1  0  0  0  0
 30 33  1  0  0  0  0
 31 30  1  0  0  0  0
 32 30  1  0  0  0  0
 34 35  1  0  0  0  0
 34 29  1  0  0  0  0
 36 34  1  0  0  0  0
 37 34  1  0  0  0  0
 38 41  1  0  0  0  0
 38 40  1  0  0  0  0
 39 38  1  0  0  0  0
 41 42  1  0  0  0  0
 43 45  1  0  0  0  0
 43 41  2  0  0  0  0
 44 43  1  0  0  0  0
M  END
