1
q = -1.0

  7  6  0  0  0  0  0  0  0  0999 V2000
    2.3424    0.8094    0.3778 N   0  0  0  0  0  1  0  0  0  0  0  0
    3.0214    1.7266    0.9500 C   0  0  0  0  0  3  0  0  0  0  0  0
    2.6632    2.1474    1.9206 H   0  0  0  0  0  0  0  0  0  0  0  0
    4.3043    2.2959    0.4000 C   0  0  0  0  0  0  0  0  0  0  0  0
    4.5802    1.7974   -0.5489 H   0  0  0  0  0  0  0  0  0  0  0  0
    5.1398    2.1675    1.1222 H   0  0  0  0  0  0  0  0  0  0  0  0
    4.2129    3.3892    0.2155 H   0  0  0  0  0  0  0  0  0  0  0  0
  1  2  1  0  0  0  0
  2  3  1  0  0  0  0
  4  2  1  0  0  0  0
  4  6  1  0  0  0  0
  5  4  1  0  0  0  0
  7  4  1  0  0  0  0
M  END
