1
q = -1.0, confidence = 0.004

 15 14  0  0  1  0  0  0  0  0999 V2000
   -1.1681    0.4829   -1.2626 N   0  0  0  0  0  1  0  0  0  0  0  0
   -1.8588    1.1432   -2.1317 C   0  0  2  0  0  3  0  0  0  0  0  0
   -2.0150    2.6472   -2.0255 C   0  0  0  0  0  0  0  0  0  0  0  0
   -1.4971    2.9872   -1.1123 H   0  0  0  0  0  0  0  0  0  0  0  0
   -3.0803    2.9537   -1.9758 H   0  0  0  0  0  0  0  0  0  0  0  0
   -1.5497    3.1612   -2.8913 H   0  0  0  0  0  0  0  0  0  0  0  0
   -2.4819    0.4985   -3.1832 N   0  0  0  0  0  0  0  0  0  0  0  0
   -3.1551    1.1802   -4.2692 C   0  0  0  0  0  0  0  0  0  0  0  0
   -3.3573    2.2342   -4.0161 H   0  0  0  0  0  0  0  0  0  0  0  0
   -4.1264    0.6866   -4.4907 H   0  0  0  0  0  0  0  0  0  0  0  0
   -2.5495    1.1603   -5.2051 H   0  0  0  0  0  0  0  0  0  0  0  0
   -2.2951   -0.9295   -3.3566 C   0  0  0  0  0  0  0  0  0  0  0  0
   -1.9180   -1.3546   -2.4083 H   0  0  0  0  0  0  0  0  0  0  0  0
   -1.5558   -1.1504   -4.1608 H   0  0  0  0  0  0  0  0  0  0  0  0
   -3.2576   -1.4094   -3.6331 H   0  0  0  0  0  0  0  0  0  0  0  0
  2  3  1  0  0  0  0
  2  1  1  1  0  0  0
  3  5  1  0  0  0  0
  3  4  1  0  0  0  0
  6  3  1  0  0  0  0
  7  2  1  0  0  0  0
  8  9  1  0  0  0  0
  8  7  1  0  0  0  0
 10  8  1  0  0  0  0
 11  8  1  0  0  0  0
 12  7  1  0  0  0  0
 12 13  1  0  0  0  0
 14 12  1  0  0  0  0
 15 12  1  0  0  0  0
M  END
