1
q = -1.0

 50 52  0  0  0  0  0  0  0  0999 V2000
    0.6756   -0.0710   -0.3707 N   0  0  0  0  0  1  0  0  0  0  0  0
    0.7164   -1.6547   -0.5624 P   0  0  0  0  0  4  0  0  0  0  0  0
    0.0132   -2.5295    0.8767 C   0  0  0  0  0  0  0  0  0  0  0  0
    0.3047   -3.8862    1.1183 C   0  0  0  0  0  0  0  0  0  0  0  0
    1.0213   -4.4234    0.4765 H   0  0  0  0  0  0  0  0  0  0  0  0
   -0.3111   -4.5470    2.1913 C   0  0  0  0  0  0  0  0  0  0  0  0
   -0.0812   -5.6051    2.3885 H   0  0  0  0  0  0  0  0  0  0  0  0
   -1.2124   -3.8542    3.0177 C   0  0  0  0  0  0  0  0  0  0  0  0
   -1.6918   -4.3743    3.8612 H   0  0  0  0  0  0  0  0  0  0  0  0
   -1.4958   -2.5006    2.7755 C   0  0  0  0  0  0  0  0  0  0  0  0
   -2.1982   -1.9556    3.4239 H   0  0  0  0  0  0  0  0  0  0  0  0
   -0.8845   -1.8307    1.7058 C   0  0  0  0  0  0  0  0  0  0  0  0
   -1.1037   -0.7699    1.5070 H   0  0  0  0  0  0  0  0  0  0  0  0
    2.4152   -2.2839   -0.7795 C   0  0  0  0  0  0  0  0  0  0  0  0
    2.8053   -3.1107   -1.8503 C   0  0  0  0  0  0  0  0  0  0  0  0
    2.0715   -3.4386   -2.6019 H   0  0  0  0  0  0  0  0  0  0  0  0
    4.1449   -3.5163   -1.9669 C   0  0  0  0  0  0  0  0  0  0  0  0
    4.4501   -4.1597   -2.8059 H   0  0  0  0  0  0  0  0  0  0  0  0
    5.0908   -3.0991   -1.0179 C   0  0  0  0  0  0  0  0  0  0  0  0
    6.1402   -3.4170   -1.1129 H   0  0  0  0  0  0  0  0  0  0  0  0
    4.7004   -2.2749    0.0521 C   0  0  0  0  0  0  0  0  0  0  0  0
    5.4421   -1.9458    0.7956 H   0  0  0  0  0  0  0  0  0  0  0  0
    3.3669   -1.8633    0.1757 C   0  0  0  0  0  0  0  0  0  0  0  0
    3.0558   -1.2054    1.0046 H   0  0  0  0  0  0  0  0  0  0  0  0
   -0.3252   -2.1944   -2.0078 C   0  0  0  0  0  0  0  0  0  0  0  0
    0.1571   -1.7886   -2.9204 H   0  0  0  0  0  0  0  0  0  0  0  0
   -0.3215   -3.3022   -2.0536 H   0  0  0  0  0  0  0  0  0  0  0  0
   -1.6989   -1.6244   -1.7744 C   0  0  0  0  0  0  0  0  0  0  0  0
   -2.6792   -2.3509   -1.0692 C   0  0  0  0  0  0  0  0  0  0  0  0
   -2.4971   -3.4066   -0.8132 H   0  0  0  0  0  0  0  0  0  0  0  0
   -3.8579   -1.7287   -0.6432 C   0  0  0  0  0  0  0  0  0  0  0  0
   -4.5870   -2.3211   -0.0699 H   0  0  0  0  0  0  0  0  0  0  0  0
   -4.1007   -0.3588   -0.8860 C   0  0  0  0  0  0  0  0  0  0  0  0
   -3.1419    0.3411   -1.6432 C   0  0  0  0  0  0  0  0  0  0  0  0
   -3.2858    1.4050   -1.8703 H   0  0  0  0  0  0  0  0  0  0  0  0
   -1.9631   -0.2768   -2.0769 C   0  0  0  0  0  0  0  0  0  0  0  0
   -1.2100    0.3153   -2.6165 H   0  0  0  0  0  0  0  0  0  0  0  0
   -5.3293    0.3272   -0.2672 C   0  0  0  0  0  0  0  0  0  0  0  0
   -5.2000    0.2385    1.2726 C   0  0  0  0  0  0  0  0  0  0  0  0
   -5.1807   -0.8135    1.6212 H   0  0  0  0  0  0  0  0  0  0  0  0
   -6.0581    0.7432    1.7636 H   0  0  0  0  0  0  0  0  0  0  0  0
   -4.2641    0.7267    1.6119 H   0  0  0  0  0  0  0  0  0  0  0  0
   -6.6201   -0.3830   -0.7287 C   0  0  0  0  0  0  0  0  0  0  0  0
   -6.7317   -0.3270   -1.8307 H   0  0  0  0  0  0  0  0  0  0  0  0
   -7.5099    0.0937   -0.2677 H   0  0  0  0  0  0  0  0  0  0  0  0
   -6.6283   -1.4536   -0.4424 H   0  0  0  0  0  0  0  0  0  0  0  0
   -5.4160    1.8134   -0.6553 C   0  0  0  0  0  0  0  0  0  0  0  0
   -4.5266    2.3756   -0.3067 H   0  0  0  0  0  0  0  0  0  0  0  0
   -6.3091    2.2722   -0.1849 H   0  0  0  0  0  0  0  0  0  0  0  0
   -5.5086    1.9488   -1.7522 H   0  0  0  0  0  0  0  0  0  0  0  0
  2  1  1  0  0  0  0
  2  3  1  0  0  0  0
  3  4  2  0  0  0  0
  3 12  1  0  0  0  0
  4  6  1  0  0  0  0
  5  4  1  0  0  0  0
  6  7  1  0  0  0  0
  6  8  2  0  0  0  0
  8  9  1  0  0  0  0
 10  8  1  0  0  0  0
 10 11  1  0  0  0  0
 12 10  2  0  0  0  0
 13 12  1  0  0  0  0
 14  2  1  0  0  0  0
 14 23  1  0  0  0  0
 15 14  2  0  0  0  0
 16 15  1  0  0  0  0
 17 15  1  0  0  0  0
 17 19  2  0  0  0  0
 18 17  1  0  0  0  0
 19 21  1  0  0  0  0
 20 19  1  0  0  0  0
 21 23  2  0  0  0  0
 21 22  1  0  0  0  0
 23 24  1  0  0  0  0
 25 28  1  0  0  0  0
 25  2  1  0  0  0  0
 26 25  1  0  0  0  0
 27 25  1  0  0  0  0
 28 29  1  0  0  0  0
 29 30  1  0  0  0  0
 29 31  2  0  0  0  0
 31 32  1  0  0  0  0
 33 31  1  0  0  0  0
 33 38  1  0  0  0  0
 34 33  2  0  0  0  0
 35 34  1  0  0  0  0
 36 28  2  0  0  0  0
 36 34  1  0  0  0  0
 37 36  1  0  0  0  0
 38 39  1  0  0  0  0
 39 42  1  0  0  0  0
 39 40  1  0  0  0  0
 39 41  1  0  0  0  0
 43 46  1  0  0  0  0
 43 45  1  0  0  0  0
 43 38  1  0  0  0  0
 44 43  1  0  0  0  0
 47 48  1  0  0  0  0
 47 38  1  0  0  0  0
 47 49  1  0  0  0  0
 50 47  1  0  0  0  0
M  END
