3
q = -2.0, confidence = 0.564

 15 15  0  0  0  0  0  0  0  0999 V2000
    2.3574    2.8648   -0.0280 Br  0  0  0  0  0  0  0  0  0  0  0  0
    2.3576   -2.8628   -0.0311 Br  0  0  0  0  0  0  0  0  0  0  0  0
    1.1721    0.0004    0.0178 N   0  0  0  0  0  1  0  0  0  0  0  0
    2.5265    0.0013   -0.0167 C   0  0  0  0  0  0  0  0  0  0  0  0
    3.2873   -1.2094   -0.0393 C   0  0  0  0  0  0  0  0  0  0  0  0
    4.6837   -1.2104   -0.0705 C   0  0  0  0  0  0  0  0  0  0  0  0
    5.2180   -2.1713   -0.0869 H   0  0  0  0  0  0  0  0  0  0  0  0
    5.4041    0.0022   -0.0823 C   0  0  0  0  0  0  0  0  0  0  0  0
    4.6840    1.2126   -0.0688 C   0  0  0  0  0  0  0  0  0  0  0  0
    5.2181    2.1734   -0.0839 H   0  0  0  0  0  0  0  0  0  0  0  0
    3.2857    1.2111   -0.0378 C   0  0  0  0  0  0  0  0  0  0  0  0
    6.9112   -0.0048   -0.0834 C   0  0  0  0  0  0  0  0  0  0  0  0
    7.3235    0.9810   -0.3723 H   0  0  0  0  0  0  0  0  0  0  0  0
    7.3125   -0.7669   -0.7813 H   0  0  0  0  0  0  0  0  0  0  0  0
    7.3075   -0.2496    0.9255 H   0  0  0  0  0  0  0  0  0  0  0  0
  4  3  1  0  0  0  0
  5  2  1  0  0  0  0
  5  4  2  0  0  0  0
  6  5  1  0  0  0  0
  7  6  1  0  0  0  0
  8  6  2  0  0  0  0
  8  9  1  0  0  0  0
  9 11  2  0  0  0  0
 10  9  1  0  0  0  0
 11  1  1  0  0  0  0
 11  4  1  0  0  0  0
 12  8  1  0  0  0  0
 12 15  1  0  0  0  0
 13 12  1  0  0  0  0
 14 12  1  0  0  0  0
M  END
