1
q = -1.0

 23 23  0  0  1  0  0  0  0  0999 V2000
   -0.8453    1.5251   -0.0579 N   0  0  0  0  0  1  0  0  0  0  0  0
    1.9581    4.9864   -0.1026 N   0  0  0  0  0  0  0  0  0  0  0  0
    2.0076   -1.0459    0.1386 N   0  0  0  0  0  0  0  0  0  0  0  0
    3.9304    1.9107    0.0739 N   0  0  0  0  0  0  0  0  0  0  0  0
    0.2657    1.9446   -0.0447 C   0  0  0  0  0  2  0  0  0  0  0  0
    1.5703    2.4155   -0.0362 C   0  0  1  0  0  3  0  0  0  0  0  0
    1.7986    3.8210   -0.0725 C   0  0  0  0  0  0  0  0  0  0  0  0
    2.6978    1.4930    0.0160 C   0  0  0  0  0  0  0  0  0  0  0  0
    2.3233    0.0820    0.0572 C   0  0  0  0  0  0  0  0  0  0  0  0
    5.0447    1.0867   -0.0000 C   0  0  0  0  0  0  0  0  0  0  0  0
    5.1722   -0.0010   -0.8998 C   0  0  0  0  0  0  0  0  0  0  0  0
    4.3512   -0.2319   -1.5939 H   0  0  0  0  0  0  0  0  0  0  0  0
    6.3521   -0.7542   -0.9444 C   0  0  0  0  0  0  0  0  0  0  0  0
    6.4307   -1.5864   -1.6628 H   0  0  0  0  0  0  0  0  0  0  0  0
    7.4441   -0.4689   -0.1017 C   0  0  0  0  0  0  0  0  0  0  0  0
    7.3177    0.6261    0.7829 C   0  0  0  0  0  0  0  0  0  0  0  0
    8.1594    0.8833    1.4464 H   0  0  0  0  0  0  0  0  0  0  0  0
    6.1570    1.3998    0.8235 C   0  0  0  0  0  0  0  0  0  0  0  0
    6.0696    2.2624    1.5000 H   0  0  0  0  0  0  0  0  0  0  0  0
    8.7155   -1.2776   -0.1534 C   0  0  0  0  0  0  0  0  0  0  0  0
    9.5767   -0.6601   -0.4868 H   0  0  0  0  0  0  0  0  0  0  0  0
    8.6273   -2.1331   -0.8511 H   0  0  0  0  0  0  0  0  0  0  0  0
    8.9819   -1.6806    0.8463 H   0  0  0  0  0  0  0  0  0  0  0  0
  1  5  1  0  0  0  0
  2  7  3  0  0  0  0
  5  6  1  0  0  0  0
  6  7  1  1  0  0  0
  6  8  1  0  0  0  0
  8  9  1  0  0  0  0
  8  4  2  0  0  0  0
  9  3  3  0  0  0  0
 10  4  1  0  0  0  0
 10 18  1  0  0  0  0
 11 10  2  0  0  0  0
 12 11  1  0  0  0  0
 13 11  1  0  0  0  0
 13 15  2  0  0  0  0
 14 13  1  0  0  0  0
 15 16  1  0  0  0  0
 16 18  2  0  0  0  0
 16 17  1  0  0  0  0
 18 19  1  0  0  0  0
 20 15  1  0  0  0  0
 20 23  1  0  0  0  0
 21 20  1  0  0  0  0
 22 20  1  0  0  0  0
M  END
