2
q = -1

 32 31  0  0  0  0  0  0  0  0999 V2000
   -2.8713   -0.8213    0.4538 P   0  0  0  0  0  4  0  0  0  0  0  0
   -1.2589   -0.8236    0.6788 N   0  0  0  0  0  1  0  0  0  0  0  0
   -3.4288   -2.2753   -0.5203 C   0  0  0  0  0  0  0  0  0  0  0  0
   -3.2486   -3.1646    0.1216 H   0  0  0  0  0  0  0  0  0  0  0  0
   -4.5309   -2.1893   -0.6495 H   0  0  0  0  0  0  0  0  0  0  0  0
   -2.7101   -2.4216   -1.8683 C   0  0  0  0  0  0  0  0  0  0  0  0
   -2.7988   -1.4827   -2.4551 H   0  0  0  0  0  0  0  0  0  0  0  0
   -1.6229   -2.5463   -1.6830 H   0  0  0  0  0  0  0  0  0  0  0  0
   -3.2428   -3.5992   -2.6850 C   0  0  0  0  0  0  0  0  0  0  0  0
   -3.1271   -4.5579   -2.1373 H   0  0  0  0  0  0  0  0  0  0  0  0
   -2.6975   -3.6945   -3.6449 H   0  0  0  0  0  0  0  0  0  0  0  0
   -4.3211   -3.4797   -2.9217 H   0  0  0  0  0  0  0  0  0  0  0  0
   -3.5147    0.6924   -0.3680 C   0  0  0  0  0  0  0  0  0  0  0  0
   -3.0008    1.5372    0.1414 H   0  0  0  0  0  0  0  0  0  0  0  0
   -3.1066    0.6858   -1.4007 H   0  0  0  0  0  0  0  0  0  0  0  0
   -5.0373    0.8690   -0.3717 C   0  0  0  0  0  0  0  0  0  0  0  0
   -5.4183    0.9174    0.6714 H   0  0  0  0  0  0  0  0  0  0  0  0
   -5.5214   -0.0196   -0.8336 H   0  0  0  0  0  0  0  0  0  0  0  0
   -5.4625    2.1297   -1.1290 C   0  0  0  0  0  0  0  0  0  0  0  0
   -6.5643    2.2522   -1.1273 H   0  0  0  0  0  0  0  0  0  0  0  0
   -5.1239    2.0941   -2.1845 H   0  0  0  0  0  0  0  0  0  0  0  0
   -5.0188    3.0376   -0.6714 H   0  0  0  0  0  0  0  0  0  0  0  0
   -3.6936   -0.9461    2.0894 C   0  0  0  0  0  0  0  0  0  0  0  0
   -4.7924   -1.0353    1.9483 H   0  0  0  0  0  0  0  0  0  0  0  0
   -3.3373   -1.9067    2.5200 H   0  0  0  0  0  0  0  0  0  0  0  0
   -3.3240    0.2244    3.0101 C   0  0  0  0  0  0  0  0  0  0  0  0
   -3.7185    1.1718    2.5831 H   0  0  0  0  0  0  0  0  0  0  0  0
   -2.2184    0.3324    3.0142 H   0  0  0  0  0  0  0  0  0  0  0  0
   -3.8457    0.0439    4.4358 C   0  0  0  0  0  0  0  0  0  0  0  0
   -3.5646    0.9026    5.0778 H   0  0  0  0  0  0  0  0  0  0  0  0
   -3.4298   -0.8733    4.9022 H   0  0  0  0  0  0  0  0  0  0  0  0
   -4.9522   -0.0444    4.4581 H   0  0  0  0  0  0  0  0  0  0  0  0
  1  2  1  0  0  0  0
  1 23  1  0  0  0  0
  3  4  1  0  0  0  0
  3  1  1  0  0  0  0
  5  3  1  0  0  0  0
  6  8  1  0  0  0  0
  6  3  1  0  0  0  0
  7  6  1  0  0  0  0
  9 10  1  0  0  0  0
  9  6  1  0  0  0  0
 11  9  1  0  0  0  0
 12  9  1  0  0  0  0
 13 14  1  0  0  0  0
 13  1  1  0  0  0  0
 15 13  1  0  0  0  0
 16 13  1  0  0  0  0
 16 17  1  0  0  0  0
 18 16  1  0  0  0  0
 19 20  1  0  0  0  0
 19 22  1  0  0  0  0
 19 16  1  0  0  0  0
 21 19  1  0  0  0  0
 23 25  1  0  0  0  0
 23 26  1  0  0  0  0
 24 23  1  0  0  0  0
 26 28  1  0  0  0  0
 26 29  1  0  0  0  0
 27 26  1  0  0  0  0
 29 32  1  0  0  0  0
 29 31  1  0  0  0  0
 29 30  1  0  0  0  0
M  END
