1
q = -1.0

 27 28  0  0  0  0  0  0  0  0999 V2000
    0.5184    0.5878   -0.7625 N   0  0  0  0  0  1  0  0  0  0  0  0
    1.4339    1.3970   -0.8811 N   0  0  0  0  0  2  0  0  0  0  0  0
    4.7316    0.4580    0.2957 N   0  0  0  0  0  0  0  0  0  0  0  0
    4.8979    1.8119   -0.0276 N   0  0  0  0  0  0  0  0  0  0  0  0
    2.9914   -1.1181    0.1166 O   0  0  0  0  0  0  0  0  0  0  0  0
    2.7282    1.2681   -0.4264 C   0  0  0  0  0  0  0  0  0  0  0  0
    3.3953    0.0360    0.0240 C   0  0  0  0  0  0  0  0  0  0  0  0
    3.6554    2.2986   -0.4175 C   0  0  0  0  0  0  0  0  0  0  0  0
    5.7171    2.5844    0.9059 C   0  0  0  0  0  0  0  0  0  0  0  0
    3.4244    3.7369   -0.7212 C   0  0  0  0  0  0  0  0  0  0  0  0
    5.8525   -0.4036    0.3158 C   0  0  0  0  0  0  0  0  0  0  0  0
    5.7733   -1.6146    1.0348 C   0  0  0  0  0  0  0  0  0  0  0  0
    6.8740   -2.4809    1.0450 C   0  0  0  0  0  0  0  0  0  0  0  0
    8.0576   -2.1499    0.3653 C   0  0  0  0  0  0  0  0  0  0  0  0
    8.1285   -0.9450   -0.3511 C   0  0  0  0  0  0  0  0  0  0  0  0
    7.0290   -0.0768   -0.3915 C   0  0  0  0  0  0  0  0  0  0  0  0
    4.8432   -1.8704    1.5567 H   0  0  0  0  0  0  0  0  0  0  0  0
    6.8047   -3.4281    1.6011 H   0  0  0  0  0  0  0  0  0  0  0  0
    8.9201   -2.8324    0.3882 H   0  0  0  0  0  0  0  0  0  0  0  0
    9.0441   -0.6819   -0.9024 H   0  0  0  0  0  0  0  0  0  0  0  0
    7.0620    0.8450   -0.9895 H   0  0  0  0  0  0  0  0  0  0  0  0
    5.2399    2.6562    1.9091 H   0  0  0  0  0  0  0  0  0  0  0  0
    5.8593    3.5989    0.4913 H   0  0  0  0  0  0  0  0  0  0  0  0
    6.7096    2.1089    1.0095 H   0  0  0  0  0  0  0  0  0  0  0  0
    3.4108    4.3642    0.1962 H   0  0  0  0  0  0  0  0  0  0  0  0
    4.2031    4.1444   -1.3978 H   0  0  0  0  0  0  0  0  0  0  0  0
    2.4377    3.8381   -1.2108 H   0  0  0  0  0  0  0  0  0  0  0  0
  2  1  1  0  0  0  0
  2  6  1  0  0  0  0
  3 11  1  0  0  0  0
  4  3  1  0  0  0  0
  4  9  1  0  0  0  0
  6  8  2  0  0  0  0
  6  7  1  0  0  0  0
  7  5  2  0  0  0  0
  7  3  1  0  0  0  0
  8  4  1  0  0  0  0
  9 24  1  0  0  0  0
  9 22  1  0  0  0  0
 10  8  1  0  0  0  0
 10 25  1  0  0  0  0
 11 12  1  0  0  0  0
 12 13  2  0  0  0  0
 12 17  1  0  0  0  0
 13 18  1  0  0  0  0
 14 19  1  0  0  0  0
 14 13  1  0  0  0  0
 15 14  2  0  0  0  0
 16 15  1  0  0  0  0
 16 11  2  0  0  0  0
 20 15  1  0  0  0  0
 21 16  1  0  0  0  0
 23  9  1  0  0  0  0
 26 10  1  0  0  0  0
 27 10  1  0  0  0  0
M  END
