1
q = 0.0, confidence = 0.62

 22 22  0  0  0  0  0  0  0  0999 V2000
   -0.4334    0.4124    0.5212 N   0  0  0  0  0  1  0  0  0  0  0  0
    0.8289    0.3915    0.6067 N   0  0  0  0  0  2  0  0  0  0  0  0
    1.5290    0.1203   -0.4465 N   0  0  0  0  0  2  0  0  0  0  0  0
    7.1613    0.0150    0.0624 N   0  0  0  0  0  0  0  0  0  0  0  0
    2.9156    0.1174   -0.2389 C   0  0  0  0  0  0  0  0  0  0  0  0
    3.5713    0.4036    0.9842 C   0  0  0  0  0  0  0  0  0  0  0  0
    4.9609    0.3707    1.0841 C   0  0  0  0  0  0  0  0  0  0  0  0
    5.7786    0.0479   -0.0390 C   0  0  0  0  0  0  0  0  0  0  0  0
    5.1163   -0.2363   -1.2662 C   0  0  0  0  0  0  0  0  0  0  0  0
    3.7239   -0.1988   -1.3544 C   0  0  0  0  0  0  0  0  0  0  0  0
    7.8021    0.3132    1.3241 C   0  0  0  0  0  0  0  0  0  0  0  0
    7.9610   -0.3088   -1.0979 C   0  0  0  0  0  0  0  0  0  0  0  0
    2.9590    0.6564    1.8616 H   0  0  0  0  0  0  0  0  0  0  0  0
    5.4224    0.6017    2.0534 H   0  0  0  0  0  0  0  0  0  0  0  0
    5.6950   -0.4887   -2.1641 H   0  0  0  0  0  0  0  0  0  0  0  0
    3.2193   -0.4178   -2.3076 H   0  0  0  0  0  0  0  0  0  0  0  0
    8.8983    0.2344    1.2067 H   0  0  0  0  0  0  0  0  0  0  0  0
    7.5727    1.3433    1.6829 H   0  0  0  0  0  0  0  0  0  0  0  0
    7.4962   -0.3923    2.1308 H   0  0  0  0  0  0  0  0  0  0  0  0
    9.0316   -0.2867   -0.8246 H   0  0  0  0  0  0  0  0  0  0  0  0
    7.7336   -1.3243   -1.4973 H   0  0  0  0  0  0  0  0  0  0  0  0
    7.8083    0.4145   -1.9323 H   0  0  0  0  0  0  0  0  0  0  0  0
  1  2  1  0  0  0  0
  3  5  1  0  0  0  0
  3  2  1  0  0  0  0
  4 11  1  0  0  0  0
  5  6  1  0  0  0  0
  6  7  2  0  0  0  0
  6 13  1  0  0  0  0
  7 14  1  0  0  0  0
  8  4  1  0  0  0  0
  8  7  1  0  0  0  0
  9  8  2  0  0  0  0
 10  9  1  0  0  0  0
 10  5  2  0  0  0  0
 11 18  1  0  0  0  0
 11 19  1  0  0  0  0
 12 20  1  0  0  0  0
 12  4  1  0  0  0  0
 15  9  1  0  0  0  0
 16 10  1  0  0  0  0
 17 11  1  0  0  0  0
 21 12  1  0  0  0  0
 22 12  1  0  0  0  0
M  END
