1,2,4,5,6,7
q = -2.0, confidence = 0.772

 54 54  0  0  0  0  0  0  0  0999 V2000
   -2.3306   -0.2805   -0.7252 N   0  0  0  0  0  0  0  0  0  0  0  0
    1.3811    1.8977   -0.6285 C   0  0  0  0  0  3  0  0  0  0  0  0
    0.9975    2.7775   -1.1910 H   0  0  0  0  0  0  0  0  0  0  0  0
    2.3305   -0.2813    0.7252 N   0  0  0  0  0  0  0  0  0  0  0  0
    0.0938   -1.0193   -1.7405 N   0  0  0  0  0  2  0  0  0  0  0  0
   -0.0939   -1.0214    1.7395 N   0  0  0  0  0  2  0  0  0  0  0  0
   -1.3810    1.8973    0.6302 C   0  0  0  0  0  3  0  0  0  0  0  0
   -0.9973    2.7768    1.1932 H   0  0  0  0  0  0  0  0  0  0  0  0
    2.7029    1.9521   -0.3224 C   0  0  0  0  0  0  0  0  0  0  0  0
   -3.3179    0.7945   -0.4199 C   0  0  0  0  0  0  0  0  0  0  0  0
   -4.1686    0.3673    0.1620 H   0  0  0  0  0  0  0  0  0  0  0  0
   -3.7809    1.1444   -1.3716 H   0  0  0  0  0  0  0  0  0  0  0  0
   -2.7028    1.9520    0.3242 C   0  0  0  0  0  0  0  0  0  0  0  0
    3.3178    0.7942    0.4213 C   0  0  0  0  0  0  0  0  0  0  0  0
    3.7799    1.1436    1.3736 H   0  0  0  0  0  0  0  0  0  0  0  0
    4.1691    0.3676   -0.1601 H   0  0  0  0  0  0  0  0  0  0  0  0
   -2.6924   -1.5451   -0.0360 C   0  0  0  0  0  0  0  0  0  0  0  0
   -2.0227   -2.3458   -0.4104 H   0  0  0  0  0  0  0  0  0  0  0  0
   -3.7306   -1.8288   -0.3342 H   0  0  0  0  0  0  0  0  0  0  0  0
    2.2202   -0.4711    2.1905 C   0  0  0  0  0  0  0  0  0  0  0  0
    2.0440    0.5339    2.6270 H   0  0  0  0  0  0  0  0  0  0  0  0
    3.1757   -0.8634    2.6159 H   0  0  0  0  0  0  0  0  0  0  0  0
   -2.2203   -0.4683   -2.1908 C   0  0  0  0  0  0  0  0  0  0  0  0
   -2.0441    0.5373   -2.6259 H   0  0  0  0  0  0  0  0  0  0  0  0
   -3.1758   -0.8601   -2.6167 H   0  0  0  0  0  0  0  0  0  0  0  0
    3.6633    3.0663   -0.6605 C   0  0  0  0  0  0  0  0  0  0  0  0
    4.5078    2.7023   -1.2887 H   0  0  0  0  0  0  0  0  0  0  0  0
    4.1262    3.5014    0.2539 H   0  0  0  0  0  0  0  0  0  0  0  0
    3.1538    3.8816   -1.2084 H   0  0  0  0  0  0  0  0  0  0  0  0
    2.6924   -1.5449    0.0343 C   0  0  0  0  0  0  0  0  0  0  0  0
    2.0227   -2.3461    0.4077 H   0  0  0  0  0  0  0  0  0  0  0  0
    3.7306   -1.8289    0.3321 H   0  0  0  0  0  0  0  0  0  0  0  0
   -1.2309   -1.8484    2.0986 C   0  0  0  0  0  0  0  0  0  0  0  0
   -1.3640   -1.8394    3.2114 H   0  0  0  0  0  0  0  0  0  0  0  0
   -1.0314   -2.9273    1.8456 H   0  0  0  0  0  0  0  0  0  0  0  0
   -1.0524   -1.3762   -2.5373 C   0  0  0  0  0  0  0  0  0  0  0  0
   -1.3415   -2.4544   -2.3953 H   0  0  0  0  0  0  0  0  0  0  0  0
   -0.8533   -1.2854   -3.6370 H   0  0  0  0  0  0  0  0  0  0  0  0
   -2.5835   -1.4588    1.4929 C   0  0  0  0  0  0  0  0  0  0  0  0
   -2.8583   -0.4379    1.8333 H   0  0  0  0  0  0  0  0  0  0  0  0
   -3.3392   -2.1463    1.9259 H   0  0  0  0  0  0  0  0  0  0  0  0
   -3.6631    3.0661    0.6631 C   0  0  0  0  0  0  0  0  0  0  0  0
   -4.5077    2.7017    1.2909 H   0  0  0  0  0  0  0  0  0  0  0  0
   -4.1259    3.5019   -0.2510 H   0  0  0  0  0  0  0  0  0  0  0  0
   -3.1535    3.8809    1.2117 H   0  0  0  0  0  0  0  0  0  0  0  0
    1.0523   -1.3795    2.5357 C   0  0  0  0  0  0  0  0  0  0  0  0
    1.3415   -2.4575    2.3922 H   0  0  0  0  0  0  0  0  0  0  0  0
    0.8533   -1.2903    3.6356 H   0  0  0  0  0  0  0  0  0  0  0  0
    2.5835   -1.4566   -1.4944 C   0  0  0  0  0  0  0  0  0  0  0  0
    2.8583   -0.4353   -1.8336 H   0  0  0  0  0  0  0  0  0  0  0  0
    3.3392   -2.1435   -1.9284 H   0  0  0  0  0  0  0  0  0  0  0  0
    1.2310   -1.8456   -2.1008 C   0  0  0  0  0  0  0  0  0  0  0  0
    1.0316   -2.9249   -1.8493 H   0  0  0  0  0  0  0  0  0  0  0  0
    1.3641   -1.8349   -3.2136 H   0  0  0  0  0  0  0  0  0  0  0  0
  1 10  1  0  0  0  0
  1 17  1  0  0  0  0
  2  9  2  0  0  0  0
  3  2  1  0  0  0  0
  4 20  1  0  0  0  0
  6 33  1  0  0  0  0
  6 46  1  0  0  0  0
  7  8  1  0  0  0  0
  9 14  1  0  0  0  0
 10 11  1  0  0  0  0
 10 13  1  0  0  0  0
 12 10  1  0  0  0  0
 13  7  2  0  0  0  0
 13 42  1  0  0  0  0
 14  4  1  0  0  0  0
 14 15  1  0  0  0  0
 16 14  1  0  0  0  0
 17 39  1  0  0  0  0
 18 17  1  0  0  0  0
 19 17  1  0  0  0  0
 20 46  1  0  0  0  0
 20 22  1  0  0  0  0
 20 21  1  0  0  0  0
 23  1  1  0  0  0  0
 24 23  1  0  0  0  0
 25 23  1  0  0  0  0
 26  9  1  0  0  0  0
 26 28  1  0  0  0  0
 27 26  1  0  0  0  0
 29 26  1  0  0  0  0
 30 32  1  0  0  0  0
 30 31  1  0  0  0  0
 30  4  1  0  0  0  0
 33 34  1  0  0  0  0
 35 33  1  0  0  0  0
 36 37  1  0  0  0  0
 36 23  1  0  0  0  0
 36  5  1  0  0  0  0
 38 36  1  0  0  0  0
 39 40  1  0  0  0  0
 39 41  1  0  0  0  0
 39 33  1  0  0  0  0
 42 45  1  0  0  0  0
 42 43  1  0  0  0  0
 44 42  1  0  0  0  0
 46 48  1  0  0  0  0
 47 46  1  0  0  0  0
 49 30  1  0  0  0  0
 50 49  1  0  0  0  0
 51 49  1  0  0  0  0
 52 53  1  0  0  0  0
 52  5  1  0  0  0  0
 52 49  1  0  0  0  0
 54 52  1  0  0  0  0
M  END
