1,2,3,25,29,52
 OpenBabel05122313063D

 76 78  0  0  0  0  0  0  0  0999 V2000
   -2.0871    1.0016    0.1354 C   0  0  0  0  0  3  0  0  0  0  0  0
    1.7115    0.0174   -2.0026 N   0  0  0  0  0  0  0  0  0  0  0  0
    0.8015    2.0190   -0.2731 C   0  0  0  0  0  3  0  0  0  0  0  0
    2.0906    2.1728   -0.8546 C   0  0  0  0  0  0  0  0  0  0  0  0
    1.4649    0.1516    2.8209 C   0  0  0  0  0  0  0  0  0  0  0  0
    1.9052   -3.0467   -0.7874 C   0  0  0  0  0  0  0  0  0  0  0  0
    1.2969   -3.5526   -1.5668 H   0  0  0  0  0  0  0  0  0  0  0  0
    2.4295   -3.8305   -0.1975 H   0  0  0  0  0  0  0  0  0  0  0  0
   -2.5514    2.1376   -0.5691 C   0  0  0  0  0  0  0  0  0  0  0  0
   -1.9037    2.6022   -1.3316 H   0  0  0  0  0  0  0  0  0  0  0  0
    2.3845   -1.2064   -2.5019 C   0  0  0  0  0  0  0  0  0  0  0  0
    3.2027   -0.8827   -3.1890 H   0  0  0  0  0  0  0  0  0  0  0  0
    1.6569   -1.7637   -3.1231 H   0  0  0  0  0  0  0  0  0  0  0  0
   -2.9953    0.4345    1.0666 C   0  0  0  0  0  0  0  0  0  0  0  0
   -4.6730    2.1363    0.6254 C   0  0  0  0  0  0  0  0  0  0  0  0
   -5.6654    2.5740    0.8148 H   0  0  0  0  0  0  0  0  0  0  0  0
    0.2810    3.1855    0.3442 C   0  0  0  0  0  0  0  0  0  0  0  0
   -0.7177    3.1499    0.8060 H   0  0  0  0  0  0  0  0  0  0  0  0
    2.2518    4.5084   -0.1880 C   0  0  0  0  0  0  0  0  0  0  0  0
    2.8063    5.4591   -0.1588 H   0  0  0  0  0  0  0  0  0  0  0  0
    0.0252   -3.3623    0.6473 C   0  0  0  0  0  0  0  0  0  0  0  0
    0.5845   -4.1146    1.2510 H   0  0  0  0  0  0  0  0  0  0  0  0
   -0.4005   -3.9036   -0.2227 H   0  0  0  0  0  0  0  0  0  0  0  0
   -1.8038   -1.6962    0.7565 N   0  0  0  0  0  0  0  0  0  0  0  0
    1.0452   -0.5817    1.5909 N   0  0  0  0  0  2  0  0  0  0  0  0
    2.9424   -2.1492   -1.4443 C   0  0  0  0  0  0  0  0  0  0  0  0
    3.6753   -2.8137   -1.9466 H   0  0  0  0  0  0  0  0  0  0  0  0
    3.5222   -1.6132   -0.6655 H   0  0  0  0  0  0  0  0  0  0  0  0
    0.9640   -2.3452    0.1115 N   0  0  0  0  0  0  0  0  0  0  0  0
    0.9807    4.4025    0.3972 C   0  0  0  0  0  0  0  0  0  0  0  0
    0.5274    5.2752    0.8941 H   0  0  0  0  0  0  0  0  0  0  0  0
   -1.0733   -2.7525    1.4937 C   0  0  0  0  0  0  0  0  0  0  0  0
   -1.7695   -3.5543    1.8364 H   0  0  0  0  0  0  0  0  0  0  0  0
   -0.6353   -2.2907    2.3972 H   0  0  0  0  0  0  0  0  0  0  0  0
    2.7222   -2.2470    1.7047 O   0  0  0  0  0  0  0  0  0  0  0  0
    2.8022    3.3878   -0.8245 C   0  0  0  0  0  0  0  0  0  0  0  0
    3.7946    3.4577   -1.3013 H   0  0  0  0  0  0  0  0  0  0  0  0
    0.9366    0.6120   -3.1227 C   0  0  0  0  0  0  0  0  0  0  0  0
    1.5890    0.7341   -4.0202 H   0  0  0  0  0  0  0  0  0  0  0  0
    0.6119    1.6194   -2.7977 H   0  0  0  0  0  0  0  0  0  0  0  0
    2.7282    0.9689   -1.4963 C   0  0  0  0  0  0  0  0  0  0  0  0
    3.4221    1.2581   -2.3230 H   0  0  0  0  0  0  0  0  0  0  0  0
    3.3400    0.4272   -0.7432 H   0  0  0  0  0  0  0  0  0  0  0  0
   -3.8181    2.7008   -0.3365 C   0  0  0  0  0  0  0  0  0  0  0  0
   -4.1438    3.5840   -0.9093 H   0  0  0  0  0  0  0  0  0  0  0  0
    1.7057   -1.7066    1.2647 C   0  0  0  0  0  0  0  0  0  0  0  0
   -4.2618    0.9908    1.3240 C   0  0  0  0  0  0  0  0  0  0  0  0
   -4.9395    0.5165    2.0537 H   0  0  0  0  0  0  0  0  0  0  0  0
   -3.1938   -1.5535   -1.4341 C   0  0  0  0  0  0  0  0  0  0  0  0
   -4.0450   -2.1235   -1.8645 H   0  0  0  0  0  0  0  0  0  0  0  0
   -3.5983   -0.5686   -1.1379 H   0  0  0  0  0  0  0  0  0  0  0  0
   -0.9639   -0.6423   -2.2252 N   0  0  0  0  0  2  0  0  0  0  0  0
   -2.5524   -0.8462    1.7240 C   0  0  0  0  0  0  0  0  0  0  0  0
   -1.8501   -0.6279    2.5565 H   0  0  0  0  0  0  0  0  0  0  0  0
   -3.4063   -1.4194    2.1581 H   0  0  0  0  0  0  0  0  0  0  0  0
   -2.7344   -2.3510   -0.2147 C   0  0  0  0  0  0  0  0  0  0  0  0
   -3.6248   -2.6953    0.3625 H   0  0  0  0  0  0  0  0  0  0  0  0
   -2.2315   -3.2669   -0.5867 H   0  0  0  0  0  0  0  0  0  0  0  0
    1.5906   -0.8104    4.0218 C   0  0  0  0  0  0  0  0  0  0  0  0
    2.3817   -1.5640    3.8590 H   0  0  0  0  0  0  0  0  0  0  0  0
    0.6296   -1.3376    4.2005 H   0  0  0  0  0  0  0  0  0  0  0  0
    1.8272   -0.2323    4.9376 H   0  0  0  0  0  0  0  0  0  0  0  0
   -2.1635   -1.3910   -2.5525 C   0  0  0  0  0  0  0  0  0  0  0  0
   -1.8965   -2.4104   -2.9497 H   0  0  0  0  0  0  0  0  0  0  0  0
   -2.6907   -0.8871   -3.4013 H   0  0  0  0  0  0  0  0  0  0  0  0
   -0.2809   -0.2492   -3.4391 C   0  0  0  0  0  0  0  0  0  0  0  0
   -0.9542    0.3464   -4.1070 H   0  0  0  0  0  0  0  0  0  0  0  0
    0.0108   -1.1393   -4.0617 H   0  0  0  0  0  0  0  0  0  0  0  0
    0.3847    1.1900    3.1553 C   0  0  0  0  0  0  0  0  0  0  0  0
   -0.5754    0.6984    3.4129 H   0  0  0  0  0  0  0  0  0  0  0  0
    0.2087    1.8742    2.3080 H   0  0  0  0  0  0  0  0  0  0  0  0
    0.6968    1.7952    4.0295 H   0  0  0  0  0  0  0  0  0  0  0  0
    2.8110    0.8557    2.5600 C   0  0  0  0  0  0  0  0  0  0  0  0
    2.7094    1.5887    1.7358 H   0  0  0  0  0  0  0  0  0  0  0  0
    3.5849    0.1092    2.2941 H   0  0  0  0  0  0  0  0  0  0  0  0
    3.1480    1.3987    3.4663 H   0  0  0  0  0  0  0  0  0  0  0  0
  1 14  1  0  0  0  0
  2 41  1  0  0  0  0
  3 17  1  0  0  0  0
  4 36  1  0  0  0  0
  4  3  2  0  0  0  0
  5 69  1  0  0  0  0
  5 59  1  0  0  0  0
  6  8  1  0  0  0  0
  6 29  1  0  0  0  0
  7  6  1  0  0  0  0
  9 44  1  0  0  0  0
  9  1  2  0  0  0  0
 10  9  1  0  0  0  0
 11  2  1  0  0  0  0
 11 26  1  0  0  0  0
 12 11  1  0  0  0  0
 13 11  1  0  0  0  0
 14 47  2  0  0  0  0
 14 53  1  0  0  0  0
 15 16  1  0  0  0  0
 15 47  1  0  0  0  0
 17 30  2  0  0  0  0
 17 18  1  0  0  0  0
 19 20  1  0  0  0  0
 19 30  1  0  0  0  0
 21 22  1  0  0  0  0
 21 32  1  0  0  0  0
 23 21  1  0  0  0  0
 24 32  1  0  0  0  0
 24 53  1  0  0  0  0
 25  5  1  0  0  0  0
 26  6  1  0  0  0  0
 26 28  1  0  0  0  0
 27 26  1  0  0  0  0
 29 21  1  0  0  0  0
 29 46  1  0  0  0  0
 30 31  1  0  0  0  0
 32 33  1  0  0  0  0
 32 34  1  0  0  0  0
 36 19  2  0  0  0  0
 37 36  1  0  0  0  0
 38 40  1  0  0  0  0
 38  2  1  0  0  0  0
 39 38  1  0  0  0  0
 41  4  1  0  0  0  0
 41 43  1  0  0  0  0
 42 41  1  0  0  0  0
 44 15  2  0  0  0  0
 45 44  1  0  0  0  0
 46 25  1  0  0  0  0
 46 35  2  0  0  0  0
 47 48  1  0  0  0  0
 49 51  1  0  0  0  0
 49 56  1  0  0  0  0
 50 49  1  0  0  0  0
 53 55  1  0  0  0  0
 53 54  1  0  0  0  0
 56 57  1  0  0  0  0
 56 24  1  0  0  0  0
 58 56  1  0  0  0  0
 59 61  1  0  0  0  0
 59 62  1  0  0  0  0
 60 59  1  0  0  0  0
 63 52  1  0  0  0  0
 63 49  1  0  0  0  0
 64 63  1  0  0  0  0
 65 63  1  0  0  0  0
 66 38  1  0  0  0  0
 66 52  1  0  0  0  0
 67 66  1  0  0  0  0
 68 66  1  0  0  0  0
 69 70  1  0  0  0  0
 69 72  1  0  0  0  0
 71 69  1  0  0  0  0
 73  5  1  0  0  0  0
 73 76  1  0  0  0  0
 74 73  1  0  0  0  0
 75 73  1  0  0  0  0
M  END
