1,2,3,4
q = -2.0, confidence = 0.978

 34 33  0  0  0  0  0  0  0  0999 V2000
   -1.7752   -0.0132   -0.5138 O   0  0  0  0  0  1  0  0  0  0  0  0
    1.7915    0.0041    0.3887 O   0  0  0  0  0  1  0  0  0  0  0  0
   -0.6590   -1.7276    1.4992 S   0  0  0  0  0  0  0  0  0  0  0  0
    0.7154   -1.4516   -1.8272 S   0  0  0  0  0  0  0  0  0  0  0  0
    2.8515   -0.5029   -0.2976 C   0  0  0  0  0  0  0  0  0  0  0  0
    2.4506   -1.6478   -1.2968 C   0  0  0  0  0  0  0  0  0  0  0  0
    2.5553   -2.6359   -0.8122 H   0  0  0  0  0  0  0  0  0  0  0  0
    3.1014   -1.6505   -2.1910 H   0  0  0  0  0  0  0  0  0  0  0  0
   -0.0678   -2.9067   -1.0423 C   0  0  0  0  0  0  0  0  0  0  0  0
   -1.1299   -2.8072   -1.3428 H   0  0  0  0  0  0  0  0  0  0  0  0
    0.3282   -3.8185   -1.5373 H   0  0  0  0  0  0  0  0  0  0  0  0
    0.0821   -3.0436    0.4687 C   0  0  0  0  0  0  0  0  0  0  0  0
    1.1458   -3.0341    0.7802 H   0  0  0  0  0  0  0  0  0  0  0  0
   -0.3409   -4.0177    0.7935 H   0  0  0  0  0  0  0  0  0  0  0  0
   -2.4103   -1.8318    1.0010 C   0  0  0  0  0  0  0  0  0  0  0  0
   -2.5477   -2.7598    0.4156 H   0  0  0  0  0  0  0  0  0  0  0  0
   -3.0332   -1.9242    1.9103 H   0  0  0  0  0  0  0  0  0  0  0  0
   -2.8224   -0.5801    0.1443 C   0  0  0  0  0  0  0  0  0  0  0  0
   -3.4926    0.4650    1.1012 C   0  0  0  0  0  0  0  0  0  0  0  0
   -2.7590    0.5995    2.2319 F   0  0  0  0  0  0  0  0  0  0  0  0
   -3.5920    1.6727    0.5244 F   0  0  0  0  0  0  0  0  0  0  0  0
   -4.4167   -0.0128   -1.5749 F   0  0  0  0  0  0  0  0  0  0  0  0
   -3.8522   -1.0496   -0.9320 C   0  0  0  0  0  0  0  0  0  0  0  0
   -4.7338    0.0752    1.4820 F   0  0  0  0  0  0  0  0  0  0  0  0
   -3.2179   -1.8135   -1.8583 F   0  0  0  0  0  0  0  0  0  0  0  0
   -4.8399   -1.8089   -0.4049 F   0  0  0  0  0  0  0  0  0  0  0  0
    3.8447   -1.0938    0.7507 C   0  0  0  0  0  0  0  0  0  0  0  0
    3.1733   -1.9431    1.5728 F   0  0  0  0  0  0  0  0  0  0  0  0
    4.3958   -0.1381    1.5174 F   0  0  0  0  0  0  0  0  0  0  0  0
    4.8413   -1.8041    0.1754 F   0  0  0  0  0  0  0  0  0  0  0  0
    3.5480    0.6277   -1.1258 C   0  0  0  0  0  0  0  0  0  0  0  0
    3.7136    1.7476   -0.4069 F   0  0  0  0  0  0  0  0  0  0  0  0
    2.7925    0.9305   -2.2062 F   0  0  0  0  0  0  0  0  0  0  0  0
    4.7629    0.2356   -1.5843 F   0  0  0  0  0  0  0  0  0  0  0  0
  1 18  1  0  0  0  0
  4  6  1  0  0  0  0
  4  9  1  0  0  0  0
  5  2  1  0  0  0  0
  5 27  1  0  0  0  0
  6  7  1  0  0  0  0
  6  5  1  0  0  0  0
  8  6  1  0  0  0  0
  9 12  1  0  0  0  0
 10  9  1  0  0  0  0
 11  9  1  0  0  0  0
 12 13  1  0  0  0  0
 12 14  1  0  0  0  0
 12  3  1  0  0  0  0
 15  3  1  0  0  0  0
 15 17  1  0  0  0  0
 16 15  1  0  0  0  0
 18 15  1  0  0  0  0
 18 19  1  0  0  0  0
 19 24  1  0  0  0  0
 19 20  1  0  0  0  0
 21 19  1  0  0  0  0
 22 23  1  0  0  0  0
 23 26  1  0  0  0  0
 23 18  1  0  0  0  0
 25 23  1  0  0  0  0
 27 29  1  0  0  0  0
 27 28  1  0  0  0  0
 30 27  1  0  0  0  0
 31 32  1  0  0  0  0
 31  5  1  0  0  0  0
 33 31  1  0  0  0  0
 34 31  1  0  0  0  0
M  END
