1,2,3,5
 OpenBabel05122313063D

 20 19  0  0  0  0  0  0  0  0999 V2000
    0.7042   -1.0882    1.4611 S   0  0  0  0  0  0  0  0  0  0  0  0
   -0.7041   -1.0881   -1.4612 S   0  0  0  0  0  0  0  0  0  0  0  0
    1.7389    0.5047   -0.7577 O   0  5  0  0  0  0  0  0  0  0  0  0
    3.8207   -0.3219   -0.8899 O   0  0  0  0  0  0  0  0  0  0  0  0
   -1.7386    0.5046    0.7579 O   0  5  0  0  0  0  0  0  0  0  0  0
   -3.8204   -0.3220    0.8901 O   0  0  0  0  0  0  0  0  0  0  0  0
    2.7265   -0.2765   -0.3643 C   0  0  0  0  0  0  0  0  0  0  0  0
    2.4469   -1.1498    0.8845 C   0  0  0  0  0  0  0  0  0  0  0  0
   -0.0092   -2.6290    0.7574 C   0  0  0  0  0  0  0  0  0  0  0  0
    0.0082   -2.6292   -0.7571 C   0  0  0  0  0  0  0  0  0  0  0  0
   -2.4470   -1.1488   -0.8852 C   0  0  0  0  0  0  0  0  0  0  0  0
   -2.7263   -0.2763    0.3642 C   0  0  0  0  0  0  0  0  0  0  0  0
    2.7491   -2.2000    0.7028 H   0  0  0  0  0  0  0  0  0  0  0  0
    3.0698   -0.7847    1.7266 H   0  0  0  0  0  0  0  0  0  0  0  0
   -1.0376   -2.6694    1.1707 H   0  0  0  0  0  0  0  0  0  0  0  0
    0.5538   -3.4858    1.1820 H   0  0  0  0  0  0  0  0  0  0  0  0
    1.0366   -2.6704   -1.1704 H   0  0  0  0  0  0  0  0  0  0  0  0
   -0.5554   -3.4857   -1.1814 H   0  0  0  0  0  0  0  0  0  0  0  0
   -2.7500   -2.1990   -0.7044 H   0  0  0  0  0  0  0  0  0  0  0  0
   -3.0693   -0.7827   -1.7272 H   0  0  0  0  0  0  0  0  0  0  0  0
  2 11  1  0  0  0  0
  2 10  1  0  0  0  0
  3  7  1  0  0  0  0
  4  7  2  0  0  0  0
  7  8  1  0  0  0  0
  8  1  1  0  0  0  0
  8 14  1  0  0  0  0
  9 15  1  0  0  0  0
  9 16  1  0  0  0  0
  9  1  1  0  0  0  0
 10  9  1  0  0  0  0
 11 19  1  0  0  0  0
 11 12  1  0  0  0  0
 12  5  1  0  0  0  0
 12  6  2  0  0  0  0
 13  8  1  0  0  0  0
 17 10  1  0  0  0  0
 18 10  1  0  0  0  0
 20 11  1  0  0  0  0
M  CHG  2   3  -1   5  -1
M  END
