1,12,19,30
 OpenBabel05122313063D

 30 31  0  0  0  0  0  0  0  0999 V2000
    1.6345    0.8817   -0.8172 O   0  5  0  0  0  0  0  0  0  0  0  0
    2.6157    0.0460   -0.5031 C   0  0  0  0  0  0  0  0  0  0  0  0
    3.8260    0.0161   -1.2365 C   0  0  0  0  0  0  0  0  0  0  0  0
    3.9348    0.7034   -2.0875 H   0  0  0  0  0  0  0  0  0  0  0  0
    4.8467   -0.8674   -0.8681 C   0  0  0  0  0  0  0  0  0  0  0  0
    5.7836   -0.8760   -1.4460 H   0  0  0  0  0  0  0  0  0  0  0  0
    4.6975   -1.7359    0.2303 C   0  0  0  0  0  0  0  0  0  0  0  0
    5.5119   -2.4177    0.5149 H   0  0  0  0  0  0  0  0  0  0  0  0
    3.5067   -1.7175    0.9700 C   0  0  0  0  0  0  0  0  0  0  0  0
    3.3742   -2.3771    1.8412 H   0  0  0  0  0  0  0  0  0  0  0  0
    2.4713   -0.8438    0.6005 C   0  0  0  0  0  0  0  0  0  0  0  0
    0.9165   -0.7644    1.4694 S   0  0  0  0  0  0  0  0  0  0  0  0
    0.0450   -2.2235    0.7554 C   0  0  0  0  0  0  0  0  0  0  0  0
    0.5720   -3.1339    1.1091 H   0  0  0  0  0  0  0  0  0  0  0  0
   -0.9603   -2.2065    1.2249 H   0  0  0  0  0  0  0  0  0  0  0  0
   -0.0455   -2.2226   -0.7581 C   0  0  0  0  0  0  0  0  0  0  0  0
   -0.5723   -3.1327   -1.1130 H   0  0  0  0  0  0  0  0  0  0  0  0
    0.9598   -2.2048   -1.2277 H   0  0  0  0  0  0  0  0  0  0  0  0
   -0.9173   -0.7629   -1.4704 S   0  0  0  0  0  0  0  0  0  0  0  0
   -2.4718   -0.8429   -0.6008 C   0  0  0  0  0  0  0  0  0  0  0  0
   -3.5072   -1.7166   -0.9703 C   0  0  0  0  0  0  0  0  0  0  0  0
   -3.3750   -2.3756   -1.8420 H   0  0  0  0  0  0  0  0  0  0  0  0
   -4.6976   -1.7356   -0.2298 C   0  0  0  0  0  0  0  0  0  0  0  0
   -5.5119   -2.4175   -0.5145 H   0  0  0  0  0  0  0  0  0  0  0  0
   -4.8462   -0.8679    0.8692 C   0  0  0  0  0  0  0  0  0  0  0  0
   -5.7827   -0.8771    1.4476 H   0  0  0  0  0  0  0  0  0  0  0  0
   -3.8255    0.0155    1.2375 C   0  0  0  0  0  0  0  0  0  0  0  0
   -3.9339    0.7023    2.0890 H   0  0  0  0  0  0  0  0  0  0  0  0
   -2.6156    0.0462    0.5034 C   0  0  0  0  0  0  0  0  0  0  0  0
   -1.6345    0.8820    0.8175 O   0  5  0  0  0  0  0  0  0  0  0  0
  1  2  1  0  0  0  0
  2 11  1  0  0  0  0
  3  5  1  0  0  0  0
  3  2  2  0  0  0  0
  4  3  1  0  0  0  0
  5  7  2  0  0  0  0
  6  5  1  0  0  0  0
  7  8  1  0  0  0  0
  7  9  1  0  0  0  0
  9 10  1  0  0  0  0
 11  9  2  0  0  0  0
 11 12  1  0  0  0  0
 13 14  1  0  0  0  0
 13 15  1  0  0  0  0
 13 12  1  0  0  0  0
 16 13  1  0  0  0  0
 17 16  1  0  0  0  0
 18 16  1  0  0  0  0
 19 16  1  0  0  0  0
 19 20  1  0  0  0  0
 20 29  1  0  0  0  0
 21 20  2  0  0  0  0
 21 23  1  0  0  0  0
 22 21  1  0  0  0  0
 23 25  2  0  0  0  0
 24 23  1  0  0  0  0
 25 27  1  0  0  0  0
 25 26  1  0  0  0  0
 27 28  1  0  0  0  0
 29 30  1  0  0  0  0
 29 27  2  0  0  0  0
M  CHG  2   1  -1  30  -1
M  END
