1,2,3,4
 OpenBabel05122313063D

 78 79  0  0  0  0  0  0  0  0999 V2000
    1.7565   -1.3387    0.6402 O   0  5  0  0  0  0  0  0  0  0  0  0
   -1.7490   -1.4050   -0.4010 O   0  5  0  0  0  0  0  0  0  0  0  0
    0.7199    0.1909   -1.5732 S   0  0  0  0  0  0  0  0  0  0  0  0
   -0.7060    0.4723    1.5391 S   0  0  0  0  0  0  0  0  0  0  0  0
    2.6785   -0.4838    0.2026 C   0  0  0  0  0  0  0  0  0  0  0  0
    2.3665    0.3549   -0.8993 C   0  0  0  0  0  0  0  0  0  0  0  0
    3.2968    1.2610   -1.4325 C   0  0  0  0  0  0  0  0  0  0  0  0
    3.0049    1.8650   -2.3022 H   0  0  0  0  0  0  0  0  0  0  0  0
    4.5713    1.3772   -0.8575 C   0  0  0  0  0  0  0  0  0  0  0  0
    4.8653    0.5424    0.2472 C   0  0  0  0  0  0  0  0  0  0  0  0
    5.8628    0.6244    0.6988 H   0  0  0  0  0  0  0  0  0  0  0  0
    3.9725   -0.3880    0.8013 C   0  0  0  0  0  0  0  0  0  0  0  0
    5.6394    2.3515   -1.3840 C   0  0  0  0  0  0  0  0  0  0  0  0
    5.1305    3.1704   -2.5824 C   0  0  0  0  0  0  0  0  0  0  0  0
    5.9244    3.8606   -2.9316 H   0  0  0  0  0  0  0  0  0  0  0  0
    4.2478    3.7865   -2.3157 H   0  0  0  0  0  0  0  0  0  0  0  0
    4.8539    2.5214   -3.4377 H   0  0  0  0  0  0  0  0  0  0  0  0
    6.0358    3.3315   -0.2563 C   0  0  0  0  0  0  0  0  0  0  0  0
    6.8124    4.0400   -0.6119 H   0  0  0  0  0  0  0  0  0  0  0  0
    6.4449    2.8002    0.6260 H   0  0  0  0  0  0  0  0  0  0  0  0
    5.1596    3.9214    0.0817 H   0  0  0  0  0  0  0  0  0  0  0  0
    6.8832    1.5509   -1.8327 C   0  0  0  0  0  0  0  0  0  0  0  0
    6.6246    0.8403   -2.6434 H   0  0  0  0  0  0  0  0  0  0  0  0
    7.3184    0.9659   -0.9983 H   0  0  0  0  0  0  0  0  0  0  0  0
    7.6707    2.2356   -2.2105 H   0  0  0  0  0  0  0  0  0  0  0  0
    4.3427   -1.2778    2.0003 C   0  0  0  0  0  0  0  0  0  0  0  0
    5.7717   -1.0015    2.5001 C   0  0  0  0  0  0  0  0  0  0  0  0
    6.5329   -1.2089    1.7209 H   0  0  0  0  0  0  0  0  0  0  0  0
    5.9928   -1.6613    3.3628 H   0  0  0  0  0  0  0  0  0  0  0  0
    5.8992    0.0460    2.8417 H   0  0  0  0  0  0  0  0  0  0  0  0
    4.2591   -2.7646    1.5788 C   0  0  0  0  0  0  0  0  0  0  0  0
    3.2489   -3.0294    1.2159 H   0  0  0  0  0  0  0  0  0  0  0  0
    4.5029   -3.4181    2.4419 H   0  0  0  0  0  0  0  0  0  0  0  0
    4.9852   -2.9818    0.7693 H   0  0  0  0  0  0  0  0  0  0  0  0
    3.3655   -0.9990    3.1674 C   0  0  0  0  0  0  0  0  0  0  0  0
    3.4356    0.0591    3.4935 H   0  0  0  0  0  0  0  0  0  0  0  0
    3.6172   -1.6413    4.0364 H   0  0  0  0  0  0  0  0  0  0  0  0
    2.3191   -1.2054    2.8757 H   0  0  0  0  0  0  0  0  0  0  0  0
   -0.0734    1.7162   -0.9155 C   0  0  0  0  0  0  0  0  0  0  0  0
    0.3921    2.5858   -1.4241 H   0  0  0  0  0  0  0  0  0  0  0  0
   -1.1309    1.6501   -1.2455 H   0  0  0  0  0  0  0  0  0  0  0  0
    0.0335    1.8673    0.5894 C   0  0  0  0  0  0  0  0  0  0  0  0
   -0.4617    2.8038    0.9202 H   0  0  0  0  0  0  0  0  0  0  0  0
    1.0928    1.9019    0.9186 H   0  0  0  0  0  0  0  0  0  0  0  0
   -2.3700    0.4868    0.8850 C   0  0  0  0  0  0  0  0  0  0  0  0
   -2.6742   -0.5024   -0.0864 C   0  0  0  0  0  0  0  0  0  0  0  0
   -3.9680   -0.5057   -0.6933 C   0  0  0  0  0  0  0  0  0  0  0  0
   -4.8748    0.4762   -0.2652 C   0  0  0  0  0  0  0  0  0  0  0  0
   -5.8737    0.4825   -0.7210 H   0  0  0  0  0  0  0  0  0  0  0  0
   -4.5922    1.4564    0.7168 C   0  0  0  0  0  0  0  0  0  0  0  0
   -3.3131    1.4438    1.2930 C   0  0  0  0  0  0  0  0  0  0  0  0
   -3.0261    2.1702    2.0653 H   0  0  0  0  0  0  0  0  0  0  0  0
   -5.6764    2.4737    1.1133 C   0  0  0  0  0  0  0  0  0  0  0  0
   -5.1770    3.4589    2.1838 C   0  0  0  0  0  0  0  0  0  0  0  0
   -4.3084    4.0492    1.8277 H   0  0  0  0  0  0  0  0  0  0  0  0
   -4.8825    2.9389    3.1177 H   0  0  0  0  0  0  0  0  0  0  0  0
   -5.9826    4.1753    2.4417 H   0  0  0  0  0  0  0  0  0  0  0  0
   -6.0994    3.2822   -0.1343 C   0  0  0  0  0  0  0  0  0  0  0  0
   -6.8884    4.0172    0.1279 H   0  0  0  0  0  0  0  0  0  0  0  0
   -6.5025    2.6275   -0.9323 H   0  0  0  0  0  0  0  0  0  0  0  0
   -5.2376    3.8375   -0.5571 H   0  0  0  0  0  0  0  0  0  0  0  0
   -6.9010    1.7185    1.6785 C   0  0  0  0  0  0  0  0  0  0  0  0
   -7.7002    2.4330    1.9654 H   0  0  0  0  0  0  0  0  0  0  0  0
   -6.6231    1.1314    2.5769 H   0  0  0  0  0  0  0  0  0  0  0  0
   -7.3288    1.0157    0.9362 H   0  0  0  0  0  0  0  0  0  0  0  0
   -4.3180   -1.5444   -1.7734 C   0  0  0  0  0  0  0  0  0  0  0  0
   -3.3405   -1.3957   -2.9644 C   0  0  0  0  0  0  0  0  0  0  0  0
   -3.4072   -0.3790   -3.4038 H   0  0  0  0  0  0  0  0  0  0  0  0
   -3.5975   -2.1271   -3.7582 H   0  0  0  0  0  0  0  0  0  0  0  0
   -2.2952   -1.5811   -2.6549 H   0  0  0  0  0  0  0  0  0  0  0  0
   -4.2063   -2.9696   -1.1807 C   0  0  0  0  0  0  0  0  0  0  0  0
   -4.4849   -3.7200   -1.9491 H   0  0  0  0  0  0  0  0  0  0  0  0
   -4.8926   -3.0920   -0.3181 H   0  0  0  0  0  0  0  0  0  0  0  0
   -3.1758   -3.1883   -0.8455 H   0  0  0  0  0  0  0  0  0  0  0  0
   -5.7507   -1.3545   -2.3021 C   0  0  0  0  0  0  0  0  0  0  0  0
   -5.8956   -0.3579   -2.7670 H   0  0  0  0  0  0  0  0  0  0  0  0
   -6.5098   -1.4793   -1.5033 H   0  0  0  0  0  0  0  0  0  0  0  0
   -5.9592   -2.1166   -3.0793 H   0  0  0  0  0  0  0  0  0  0  0  0
  2 46  1  0  0  0  0
  3 39  1  0  0  0  0
  3  6  1  0  0  0  0
  5  1  1  0  0  0  0
  5 12  1  0  0  0  0
  6  5  2  0  0  0  0
  7  6  1  0  0  0  0
  7  9  2  0  0  0  0
  8  7  1  0  0  0  0
  9 10  1  0  0  0  0
 10 11  1  0  0  0  0
 10 12  2  0  0  0  0
 12 26  1  0  0  0  0
 13  9  1  0  0  0  0
 13 18  1  0  0  0  0
 14 16  1  0  0  0  0
 14 13  1  0  0  0  0
 15 14  1  0  0  0  0
 17 14  1  0  0  0  0
 18 21  1  0  0  0  0
 18 20  1  0  0  0  0
 19 18  1  0  0  0  0
 22 13  1  0  0  0  0
 22 24  1  0  0  0  0
 23 22  1  0  0  0  0
 25 22  1  0  0  0  0
 26 27  1  0  0  0  0
 26 35  1  0  0  0  0
 27 30  1  0  0  0  0
 27 29  1  0  0  0  0
 28 27  1  0  0  0  0
 31 26  1  0  0  0  0
 31 33  1  0  0  0  0
 32 31  1  0  0  0  0
 34 31  1  0  0  0  0
 35 36  1  0  0  0  0
 35 37  1  0  0  0  0
 38 35  1  0  0  0  0
 39 42  1  0  0  0  0
 40 39  1  0  0  0  0
 41 39  1  0  0  0  0
 42 44  1  0  0  0  0
 42 43  1  0  0  0  0
 42  4  1  0  0  0  0
 45 51  1  0  0  0  0
 45  4  1  0  0  0  0
 46 45  2  0  0  0  0
 47 48  2  0  0  0  0
 47 46  1  0  0  0  0
 48 50  1  0  0  0  0
 49 48  1  0  0  0  0
 50 53  1  0  0  0  0
 50 51  2  0  0  0  0
 51 52  1  0  0  0  0
 53 62  1  0  0  0  0
 53 54  1  0  0  0  0
 54 57  1  0  0  0  0
 54 56  1  0  0  0  0
 55 54  1  0  0  0  0
 58 59  1  0  0  0  0
 58 53  1  0  0  0  0
 60 58  1  0  0  0  0
 61 58  1  0  0  0  0
 62 63  1  0  0  0  0
 62 64  1  0  0  0  0
 65 62  1  0  0  0  0
 66 71  1  0  0  0  0
 66 47  1  0  0  0  0
 67 70  1  0  0  0  0
 67 66  1  0  0  0  0
 68 67  1  0  0  0  0
 69 67  1  0  0  0  0
 71 74  1  0  0  0  0
 71 73  1  0  0  0  0
 72 71  1  0  0  0  0
 75 66  1  0  0  0  0
 75 77  1  0  0  0  0
 76 75  1  0  0  0  0
 78 75  1  0  0  0  0
M  CHG  2   1  -1   2  -1
M  END
