1,2,3,4
q = -2.0, confidence = 0.726

 52 56  0  0  0  0  0  0  0  0999 V2000
    0.0021   -1.9007    1.4068 O   0  5  0  0  0  0  0  0  0  0  0  0
   -1.8857    0.0014    1.3949 O   0  5  0  0  0  0  0  0  0  0  0  0
    0.0052    1.9005    1.4066 O   0  5  0  0  0  0  0  0  0  0  0  0
    1.9075   -0.0017    1.4255 O   0  5  0  0  0  0  0  0  0  0  0  0
    1.2368   -3.0065   -0.3143 C   0  0  0  0  0  0  0  0  0  0  0  0
    1.2089   -3.7765   -1.4927 C   0  0  0  0  0  0  0  0  0  0  0  0
   -0.0055   -4.1661   -2.0745 C   0  0  0  0  0  0  0  0  0  0  0  0
   -1.2183   -3.7810   -1.4833 C   0  0  0  0  0  0  0  0  0  0  0  0
   -1.2455   -3.0092   -0.3093 C   0  0  0  0  0  0  0  0  0  0  0  0
   -0.0040   -2.6356    0.2737 C   0  0  0  0  0  0  0  0  0  0  0  0
   -2.5565   -2.5465    0.3054 C   0  0  0  0  0  0  0  0  0  0  0  0
   -3.0587   -1.2362   -0.2791 C   0  0  0  0  0  0  0  0  0  0  0  0
   -3.8920   -1.2100   -1.4103 C   0  0  0  0  0  0  0  0  0  0  0  0
   -4.3117    0.0034   -1.9742 C   0  0  0  0  0  0  0  0  0  0  0  0
   -3.8900    1.2162   -1.4103 C   0  0  0  0  0  0  0  0  0  0  0  0
   -3.0566    1.2410   -0.2792 C   0  0  0  0  0  0  0  0  0  0  0  0
   -2.6587    0.0021    0.2851 C   0  0  0  0  0  0  0  0  0  0  0  0
   -2.5523    2.5505    0.3054 C   0  0  0  0  0  0  0  0  0  0  0  0
   -1.2406    3.0112   -0.3094 C   0  0  0  0  0  0  0  0  0  0  0  0
   -1.2121    3.7831   -1.4831 C   0  0  0  0  0  0  0  0  0  0  0  0
    0.0013    4.1665   -2.0742 C   0  0  0  0  0  0  0  0  0  0  0  0
    1.2151    3.7749   -1.4924 C   0  0  0  0  0  0  0  0  0  0  0  0
    1.2417    3.0047   -0.3142 C   0  0  0  0  0  0  0  0  0  0  0  0
    0.0003    2.6356    0.2737 C   0  0  0  0  0  0  0  0  0  0  0  0
    2.5532    2.5488    0.3080 C   0  0  0  0  0  0  0  0  0  0  0  0
    3.0512    1.2362   -0.2737 C   0  0  0  0  0  0  0  0  0  0  0  0
    3.8619    1.2092   -1.4226 C   0  0  0  0  0  0  0  0  0  0  0  0
    4.2717   -0.0033   -1.9952 C   0  0  0  0  0  0  0  0  0  0  0  0
    3.8601   -1.2153   -1.4226 C   0  0  0  0  0  0  0  0  0  0  0  0
    3.0493   -1.2410   -0.2738 C   0  0  0  0  0  0  0  0  0  0  0  0
    2.6618   -0.0021    0.3060 C   0  0  0  0  0  0  0  0  0  0  0  0
    2.5491   -2.5529    0.3078 C   0  0  0  0  0  0  0  0  0  0  0  0
    2.1624   -4.0794   -1.9532 H   0  0  0  0  0  0  0  0  0  0  0  0
   -0.0076   -4.7760   -2.9899 H   0  0  0  0  0  0  0  0  0  0  0  0
   -2.1728   -4.0836   -1.9419 H   0  0  0  0  0  0  0  0  0  0  0  0
   -3.3215   -3.3280    0.1287 H   0  0  0  0  0  0  0  0  0  0  0  0
   -2.4267   -2.4360    1.3996 H   0  0  0  0  0  0  0  0  0  0  0  0
   -4.2198   -2.1642   -1.8527 H   0  0  0  0  0  0  0  0  0  0  0  0
   -4.9733    0.0040   -2.8532 H   0  0  0  0  0  0  0  0  0  0  0  0
   -4.2162    2.1709   -1.8527 H   0  0  0  0  0  0  0  0  0  0  0  0
   -2.4227    2.4398    1.3995 H   0  0  0  0  0  0  0  0  0  0  0  0
   -3.3161    3.3333    0.1287 H   0  0  0  0  0  0  0  0  0  0  0  0
   -2.1661    4.0873   -1.9418 H   0  0  0  0  0  0  0  0  0  0  0  0
    0.0002    4.7766   -2.9895 H   0  0  0  0  0  0  0  0  0  0  0  0
    2.1691    4.0765   -1.9528 H   0  0  0  0  0  0  0  0  0  0  0  0
    2.4205    2.4408    1.4018 H   0  0  0  0  0  0  0  0  0  0  0  0
    3.3184    3.3295    0.1287 H   0  0  0  0  0  0  0  0  0  0  0  0
    4.1790    2.1637   -1.8717 H   0  0  0  0  0  0  0  0  0  0  0  0
    4.9154   -0.0038   -2.8872 H   0  0  0  0  0  0  0  0  0  0  0  0
    4.1756   -2.1703   -1.8718 H   0  0  0  0  0  0  0  0  0  0  0  0
    3.3129   -3.3348    0.1284 H   0  0  0  0  0  0  0  0  0  0  0  0
    2.4166   -2.4447    1.4016 H   0  0  0  0  0  0  0  0  0  0  0  0
  5 10  1  0  0  0  0
  5 32  1  0  0  0  0
  6  5  2  0  0  0  0
  7  6  1  0  0  0  0
  7  8  2  0  0  0  0
  8  9  1  0  0  0  0
  9 10  2  0  0  0  0
  9 11  1  0  0  0  0
 10  1  1  0  0  0  0
 11 37  1  0  0  0  0
 12 17  1  0  0  0  0
 12 11  1  0  0  0  0
 13 12  2  0  0  0  0
 14 15  2  0  0  0  0
 14 13  1  0  0  0  0
 15 16  1  0  0  0  0
 16 17  2  0  0  0  0
 16 18  1  0  0  0  0
 17  2  1  0  0  0  0
 18 41  1  0  0  0  0
 19 24  1  0  0  0  0
 19 18  1  0  0  0  0
 20 19  2  0  0  0  0
 21 22  2  0  0  0  0
 21 20  1  0  0  0  0
 22 23  1  0  0  0  0
 23 24  2  0  0  0  0
 23 25  1  0  0  0  0
 24  3  1  0  0  0  0
 25 46  1  0  0  0  0
 26 31  1  0  0  0  0
 26 25  1  0  0  0  0
 27 26  2  0  0  0  0
 28 29  2  0  0  0  0
 28 27  1  0  0  0  0
 29 30  1  0  0  0  0
 30 31  2  0  0  0  0
 30 32  1  0  0  0  0
 31  4  1  0  0  0  0
 32 52  1  0  0  0  0
 33  6  1  0  0  0  0
 34  7  1  0  0  0  0
 35  8  1  0  0  0  0
 36 11  1  0  0  0  0
 38 13  1  0  0  0  0
 39 14  1  0  0  0  0
 40 15  1  0  0  0  0
 42 18  1  0  0  0  0
 43 20  1  0  0  0  0
 44 21  1  0  0  0  0
 45 22  1  0  0  0  0
 47 25  1  0  0  0  0
 48 27  1  0  0  0  0
 49 28  1  0  0  0  0
 50 29  1  0  0  0  0
 51 32  1  0  0  0  0
M  CHG  4   1  -1   2  -1   3  -1   4  -1
M  END
