3,5,9,11
q = -2.0, confidence = 0.75

 46 45  0  0  0  0  0  0  0  0999 V2000
   -2.2071    0.9375    0.1366 N   0  0  0  0  0  0  0  0  0  0  0  0
    2.3842    0.4907    0.2650 N   0  0  0  0  0  0  0  0  0  0  0  0
    0.0100    1.7519   -1.0433 O   0  5  0  0  0  0  0  0  0  0  0  0
   -0.5452    3.9440   -0.9992 O   0  0  0  0  0  0  0  0  0  0  0  0
   -1.4569   -1.1881   -1.3186 O   0  5  0  0  0  0  0  0  0  0  0  0
   -3.5827   -1.5737   -2.0026 O   0  0  0  0  0  0  0  0  0  0  0  0
   -1.2987   -1.4317    1.3952 O   0  0  0  0  0  0  0  0  0  0  0  0
    1.1000   -2.0630    0.5862 O   0  0  0  0  0  0  0  0  0  0  0  0
    0.1916    0.7748    1.6699 O   0  5  0  0  0  0  0  0  0  0  0  0
    1.0381    2.3684    3.0291 O   0  0  0  0  0  0  0  0  0  0  0  0
    1.2305   -0.6909   -1.8119 O   0  5  0  0  0  0  0  0  0  0  0  0
    3.1561   -0.7586   -3.0008 O   0  0  0  0  0  0  0  0  0  0  0  0
   -1.9395    2.3882    0.2058 C   0  0  0  0  0  0  0  0  0  0  0  0
   -0.7576    2.7871   -0.6987 C   0  0  0  0  0  0  0  0  0  0  0  0
   -3.0141    0.5817   -1.0532 C   0  0  0  0  0  0  0  0  0  0  0  0
   -2.7240   -0.8611   -1.5136 C   0  0  0  0  0  0  0  0  0  0  0  0
   -2.7958    0.4157    1.3921 C   0  0  0  0  0  0  0  0  0  0  0  0
   -2.6906   -1.0968    1.4941 C   0  0  0  0  0  0  0  0  0  0  0  0
   -0.9950   -2.8256    1.3681 C   0  0  0  0  0  0  0  0  0  0  0  0
    0.5027   -2.9175    1.5708 C   0  0  0  0  0  0  0  0  0  0  0  0
    2.5437   -1.9889    0.5749 C   0  0  0  0  0  0  0  0  0  0  0  0
    2.9753   -0.6106    1.0581 C   0  0  0  0  0  0  0  0  0  0  0  0
    2.3060    1.7206    1.0761 C   0  0  0  0  0  0  0  0  0  0  0  0
    1.1137    1.6492    2.0486 C   0  0  0  0  0  0  0  0  0  0  0  0
    3.0358    0.6602   -1.0471 C   0  0  0  0  0  0  0  0  0  0  0  0
    2.4851   -0.3531   -2.0700 C   0  0  0  0  0  0  0  0  0  0  0  0
   -2.8314    3.0006   -0.0460 H   0  0  0  0  0  0  0  0  0  0  0  0
   -1.6346    2.6448    1.2408 H   0  0  0  0  0  0  0  0  0  0  0  0
   -4.1021    0.7204   -0.8740 H   0  0  0  0  0  0  0  0  0  0  0  0
   -2.7199    1.2513   -1.8879 H   0  0  0  0  0  0  0  0  0  0  0  0
   -2.2230    0.8605    2.2280 H   0  0  0  0  0  0  0  0  0  0  0  0
   -3.8654    0.7130    1.4874 H   0  0  0  0  0  0  0  0  0  0  0  0
   -3.2684   -1.6240    0.7036 H   0  0  0  0  0  0  0  0  0  0  0  0
   -3.0755   -1.4285    2.4836 H   0  0  0  0  0  0  0  0  0  0  0  0
   -1.5212   -3.3554    2.1919 H   0  0  0  0  0  0  0  0  0  0  0  0
   -1.3030   -3.2608    0.3906 H   0  0  0  0  0  0  0  0  0  0  0  0
    0.8493   -3.9632    1.4256 H   0  0  0  0  0  0  0  0  0  0  0  0
    0.7818   -2.5709    2.5906 H   0  0  0  0  0  0  0  0  0  0  0  0
    2.9590   -2.7722    1.2405 H   0  0  0  0  0  0  0  0  0  0  0  0
    2.8730   -2.2047   -0.4603 H   0  0  0  0  0  0  0  0  0  0  0  0
    4.0888   -0.5484    1.0520 H   0  0  0  0  0  0  0  0  0  0  0  0
    2.6444   -0.4865    2.1090 H   0  0  0  0  0  0  0  0  0  0  0  0
    3.2429    1.9360    1.6343 H   0  0  0  0  0  0  0  0  0  0  0  0
    2.1141    2.5753    0.3961 H   0  0  0  0  0  0  0  0  0  0  0  0
    2.7713    1.6656   -1.4325 H   0  0  0  0  0  0  0  0  0  0  0  0
    4.1433    0.5863   -0.9914 H   0  0  0  0  0  0  0  0  0  0  0  0
  1 13  1  0  0  0  0
  1 17  1  0  0  0  0
  2 22  1  0  0  0  0
  2 23  1  0  0  0  0
  3 14  1  0  0  0  0
  4 14  2  0  0  0  0
  6 16  2  0  0  0  0
  7 18  1  0  0  0  0
  8 20  1  0  0  0  0
  9 24  1  0  0  0  0
 12 26  2  0  0  0  0
 13 28  1  0  0  0  0
 14 13  1  0  0  0  0
 15 29  1  0  0  0  0
 15  1  1  0  0  0  0
 16  5  1  0  0  0  0
 16 15  1  0  0  0  0
 17 32  1  0  0  0  0
 17 18  1  0  0  0  0
 17 31  1  0  0  0  0
 18 34  1  0  0  0  0
 19  7  1  0  0  0  0
 19 20  1  0  0  0  0
 19 35  1  0  0  0  0
 20 38  1  0  0  0  0
 21  8  1  0  0  0  0
 21 22  1  0  0  0  0
 21 39  1  0  0  0  0
 22 42  1  0  0  0  0
 23 43  1  0  0  0  0
 23 24  1  0  0  0  0
 24 10  2  0  0  0  0
 25 46  1  0  0  0  0
 25  2  1  0  0  0  0
 26 11  1  0  0  0  0
 26 25  1  0  0  0  0
 27 13  1  0  0  0  0
 30 15  1  0  0  0  0
 33 18  1  0  0  0  0
 36 19  1  0  0  0  0
 37 20  1  0  0  0  0
 40 21  1  0  0  0  0
 41 22  1  0  0  0  0
 44 23  1  0  0  0  0
 45 25  1  0  0  0  0
M  CHG  4   3  -1   5  -1   9  -1  11  -1
M  END
