1
q = 0.0, confidence = 0.998

 53 55  0  0  0  0  0  0  0  0999 V2000
    0.9112   -1.1327   -0.5027 Se  0  0  0  0  0  1  0  0  0  0  0  0
    0.0272    0.7633    0.2207 P   0  0  0  0  0  4  0  0  0  0  0  0
   -2.1512   -2.7848    0.6383 C   0  0  0  0  0  0  0  0  0  0  0  0
   -1.2656   -3.0534    0.0287 H   0  0  0  0  0  0  0  0  0  0  0  0
   -2.4917   -3.7052    1.1533 H   0  0  0  0  0  0  0  0  0  0  0  0
   -1.6629   -1.7479    1.7556 C   0  0  0  0  0  0  0  0  0  0  0  0
   -1.9864   -2.1217    2.7471 H   0  0  0  0  0  0  0  0  0  0  0  0
   -0.5577   -1.7468    1.7465 H   0  0  0  0  0  0  0  0  0  0  0  0
   -2.2425   -0.3621    1.5619 C   0  0  0  0  0  0  0  0  0  0  0  0
   -1.7516    0.6297    0.6585 C   0  0  0  0  0  0  0  0  0  0  0  0
   -2.6574    1.5658    0.1105 C   0  0  0  0  0  0  0  0  0  0  0  0
   -2.3269    2.2478   -0.6847 H   0  0  0  0  0  0  0  0  0  0  0  0
   -4.0250    1.5744    0.4465 C   0  0  0  0  0  0  0  0  0  0  0  0
   -4.3981    0.8245    1.5763 C   0  0  0  0  0  0  0  0  0  0  0  0
   -5.4322    0.8749    1.9519 H   0  0  0  0  0  0  0  0  0  0  0  0
   -3.5196   -0.1223    2.1108 C   0  0  0  0  0  0  0  0  0  0  0  0
   -3.8874   -0.8094    2.8888 H   0  0  0  0  0  0  0  0  0  0  0  0
   -5.0624    2.1412   -0.4966 C   0  0  0  0  0  0  0  0  0  0  0  0
   -4.5893    2.9013   -1.1502 H   0  0  0  0  0  0  0  0  0  0  0  0
   -5.8610    2.6606    0.0708 H   0  0  0  0  0  0  0  0  0  0  0  0
   -5.7476    1.0224   -1.4163 C   0  0  0  0  0  0  0  0  0  0  0  0
   -6.8103    0.9205   -1.1187 H   0  0  0  0  0  0  0  0  0  0  0  0
   -5.7413    1.3907   -2.4622 H   0  0  0  0  0  0  0  0  0  0  0  0
   -5.0564   -0.3181   -1.3091 C   0  0  0  0  0  0  0  0  0  0  0  0
   -5.4877   -1.2867   -0.3798 C   0  0  0  0  0  0  0  0  0  0  0  0
   -6.5014   -1.2127    0.0467 H   0  0  0  0  0  0  0  0  0  0  0  0
   -4.5930   -2.2359    0.1368 C   0  0  0  0  0  0  0  0  0  0  0  0
   -4.9201   -2.8956    0.9568 H   0  0  0  0  0  0  0  0  0  0  0  0
   -3.2386   -2.2335   -0.2547 C   0  0  0  0  0  0  0  0  0  0  0  0
   -2.8983   -1.4597   -1.3850 C   0  0  0  0  0  0  0  0  0  0  0  0
   -1.8674   -1.4990   -1.7733 H   0  0  0  0  0  0  0  0  0  0  0  0
   -3.7958   -0.5208   -1.9070 C   0  0  0  0  0  0  0  0  0  0  0  0
   -3.4605    0.1594   -2.7075 H   0  0  0  0  0  0  0  0  0  0  0  0
    0.8757    1.4229    1.7507 C   0  0  0  0  0  0  0  0  0  0  0  0
    1.9084    1.6087    1.3795 H   0  0  0  0  0  0  0  0  0  0  0  0
    0.9529    0.3832    2.8687 C   0  0  0  0  0  0  0  0  0  0  0  0
   -0.0513    0.1416    3.2715 H   0  0  0  0  0  0  0  0  0  0  0  0
    1.5618    0.7926    3.6999 H   0  0  0  0  0  0  0  0  0  0  0  0
    1.4410   -0.5473    2.5187 H   0  0  0  0  0  0  0  0  0  0  0  0
    0.2188    2.7315    2.2043 C   0  0  0  0  0  0  0  0  0  0  0  0
   -0.8302    2.5664    2.5236 H   0  0  0  0  0  0  0  0  0  0  0  0
    0.2220    3.5119    1.4178 H   0  0  0  0  0  0  0  0  0  0  0  0
    0.7773    3.1366    3.0726 H   0  0  0  0  0  0  0  0  0  0  0  0
    0.1868    2.0914   -1.0929 C   0  0  0  0  0  0  0  0  0  0  0  0
   -0.4853    2.9024   -0.7382 H   0  0  0  0  0  0  0  0  0  0  0  0
    1.6111    2.6490   -1.1889 C   0  0  0  0  0  0  0  0  0  0  0  0
    2.3493    1.8465   -1.4015 H   0  0  0  0  0  0  0  0  0  0  0  0
    1.9333    3.1697   -0.2671 H   0  0  0  0  0  0  0  0  0  0  0  0
    1.6542    3.3819   -2.0199 H   0  0  0  0  0  0  0  0  0  0  0  0
   -0.3054    1.5576   -2.4434 C   0  0  0  0  0  0  0  0  0  0  0  0
   -0.3065    2.3787   -3.1885 H   0  0  0  0  0  0  0  0  0  0  0  0
   -1.3284    1.1364   -2.3905 H   0  0  0  0  0  0  0  0  0  0  0  0
    0.3685    0.7563   -2.8058 H   0  0  0  0  0  0  0  0  0  0  0  0
  1  2  1  0  0  0  0
  2 10  1  0  0  0  0
  2 34  1  0  0  0  0
  3  5  1  0  0  0  0
  3  6  1  0  0  0  0
  4  3  1  0  0  0  0
  6  7  1  0  0  0  0
  8  6  1  0  0  0  0
  9  6  1  0  0  0  0
  9 16  1  0  0  0  0
 10  9  2  0  0  0  0
 11 13  2  0  0  0  0
 11 10  1  0  0  0  0
 12 11  1  0  0  0  0
 13 14  1  0  0  0  0
 14 15  1  0  0  0  0
 14 16  2  0  0  0  0
 16 17  1  0  0  0  0
 18 20  1  0  0  0  0
 18 13  1  0  0  0  0
 19 18  1  0  0  0  0
 21 24  1  0  0  0  0
 21 22  1  0  0  0  0
 21 18  1  0  0  0  0
 23 21  1  0  0  0  0
 24 25  1  0  0  0  0
 25 26  1  0  0  0  0
 25 27  2  0  0  0  0
 27 28  1  0  0  0  0
 29 27  1  0  0  0  0
 29  3  1  0  0  0  0
 30 29  2  0  0  0  0
 31 30  1  0  0  0  0
 32 30  1  0  0  0  0
 32 24  2  0  0  0  0
 33 32  1  0  0  0  0
 34 40  1  0  0  0  0
 34 36  1  0  0  0  0
 35 34  1  0  0  0  0
 36 37  1  0  0  0  0
 36 38  1  0  0  0  0
 39 36  1  0  0  0  0
 40 41  1  0  0  0  0
 40 43  1  0  0  0  0
 42 40  1  0  0  0  0
 44 45  1  0  0  0  0
 44  2  1  0  0  0  0
 46 44  1  0  0  0  0
 46 48  1  0  0  0  0
 47 46  1  0  0  0  0
 49 46  1  0  0  0  0
 50 52  1  0  0  0  0
 50 44  1  0  0  0  0
 51 50  1  0  0  0  0
 53 50  1  0  0  0  0
M  END
