1
q = 0.0, confidence = 0.994

 21 21  0  0  1  0  0  0  0  0999 V2000
    2.0111    0.7952   -0.8320 Se  0  0  0  0  0  1  0  0  0  0  0  0
    4.6566    0.8734    0.2278 N   0  0  0  0  0  0  0  0  0  0  0  0
    3.4902   -0.8481    1.0037 N   0  0  0  0  0  0  0  0  0  0  0  0
    2.6242   -1.3611    1.3192 H   0  0  0  0  0  0  0  0  0  0  0  0
    3.4533    0.2272    0.2026 C   0  0  2  0  0  3  0  0  0  0  0  0
    4.7261   -0.8772    1.7789 C   0  0  0  0  0  0  0  0  0  0  0  0
    5.1308   -1.9045    1.8615 H   0  0  0  0  0  0  0  0  0  0  0  0
    4.5480   -0.4934    2.8093 H   0  0  0  0  0  0  0  0  0  0  0  0
    5.6343    0.0639    0.9672 C   0  0  0  0  0  0  0  0  0  0  0  0
    6.2826    0.6938    1.6062 H   0  0  0  0  0  0  0  0  0  0  0  0
    6.2862   -0.4991    0.2597 H   0  0  0  0  0  0  0  0  0  0  0  0
    5.0488    1.9278   -0.7122 C   0  0  0  0  0  0  0  0  0  0  0  0
    4.0921    2.4243   -0.9835 H   0  0  0  0  0  0  0  0  0  0  0  0
    5.6658    1.3454   -1.9905 C   0  0  0  0  0  0  0  0  0  0  0  0
    6.6176    0.8145   -1.7807 H   0  0  0  0  0  0  0  0  0  0  0  0
    5.8880    2.1554   -2.7132 H   0  0  0  0  0  0  0  0  0  0  0  0
    4.9623    0.6386   -2.4732 H   0  0  0  0  0  0  0  0  0  0  0  0
    5.9518    2.9559   -0.0279 C   0  0  0  0  0  0  0  0  0  0  0  0
    5.4858    3.3390    0.9015 H   0  0  0  0  0  0  0  0  0  0  0  0
    6.1263    3.8138   -0.7059 H   0  0  0  0  0  0  0  0  0  0  0  0
    6.9454    2.5313    0.2260 H   0  0  0  0  0  0  0  0  0  0  0  0
  2  9  1  0  0  0  0
  3  4  1  0  0  0  0
  3  6  1  0  0  0  0
  5  1  1  6  0  0  0
  5  2  1  0  0  0  0
  5  3  1  0  0  0  0
  6  7  1  0  0  0  0
  6  8  1  0  0  0  0
  9 10  1  0  0  0  0
  9  6  1  0  0  0  0
 11  9  1  0  0  0  0
 12 18  1  0  0  0  0
 12  2  1  0  0  0  0
 13 12  1  0  0  0  0
 14 15  1  0  0  0  0
 14 12  1  0  0  0  0
 16 14  1  0  0  0  0
 17 14  1  0  0  0  0
 18 21  1  0  0  0  0
 18 19  1  0  0  0  0
 20 18  1  0  0  0  0
M  END
