1
q = -1.0

 21 21  0  0  0  0  0  0  0  0999 V2000
   -0.6626    1.3446   -1.9818 Se  0  0  0  0  0  1  0  0  0  0  0  0
    1.2527    1.3045   -1.6563 C   0  0  0  0  0  0  0  0  0  0  0  0
    1.8952    2.4772   -1.1787 C   0  0  0  0  0  0  0  0  0  0  0  0
    3.2915    2.4610   -1.0118 C   0  0  0  0  0  0  0  0  0  0  0  0
    3.7889    3.3744   -0.6443 H   0  0  0  0  0  0  0  0  0  0  0  0
    4.0668    1.3239   -1.3003 C   0  0  0  0  0  0  0  0  0  0  0  0
    3.4012    0.1746   -1.7525 C   0  0  0  0  0  0  0  0  0  0  0  0
    3.9836   -0.7374   -1.9606 H   0  0  0  0  0  0  0  0  0  0  0  0
    2.0057    0.1365   -1.9398 C   0  0  0  0  0  0  0  0  0  0  0  0
    1.1187    3.7225   -0.8361 C   0  0  0  0  0  0  0  0  0  0  0  0
    0.3770    3.5206   -0.0338 H   0  0  0  0  0  0  0  0  0  0  0  0
    0.5322    4.0901   -1.7031 H   0  0  0  0  0  0  0  0  0  0  0  0
    1.7938    4.5316   -0.4939 H   0  0  0  0  0  0  0  0  0  0  0  0
    5.5623    1.3470   -1.1100 C   0  0  0  0  0  0  0  0  0  0  0  0
    6.0312    2.1828   -1.6705 H   0  0  0  0  0  0  0  0  0  0  0  0
    6.0308    0.4035   -1.4508 H   0  0  0  0  0  0  0  0  0  0  0  0
    5.8310    1.4853   -0.0416 H   0  0  0  0  0  0  0  0  0  0  0  0
    1.3539   -1.1316   -2.4201 C   0  0  0  0  0  0  0  0  0  0  0  0
    2.1089   -1.9169   -2.6177 H   0  0  0  0  0  0  0  0  0  0  0  0
    0.7610   -0.9548   -3.3414 H   0  0  0  0  0  0  0  0  0  0  0  0
    0.6424   -1.5206   -1.6590 H   0  0  0  0  0  0  0  0  0  0  0  0
  1  2  1  0  0  0  0
  2  3  1  0  0  0  0
  3  4  2  0  0  0  0
  3 10  1  0  0  0  0
  4  5  1  0  0  0  0
  6 14  1  0  0  0  0
  6  4  1  0  0  0  0
  7  6  2  0  0  0  0
  8  7  1  0  0  0  0
  9  7  1  0  0  0  0
  9  2  2  0  0  0  0
 10 13  1  0  0  0  0
 10 11  1  0  0  0  0
 12 10  1  0  0  0  0
 14 17  1  0  0  0  0
 15 14  1  0  0  0  0
 16 14  1  0  0  0  0
 18  9  1  0  0  0  0
 18 21  1  0  0  0  0
 19 18  1  0  0  0  0
 20 18  1  0  0  0  0
M  END
