1
q = -1.0, confidence = 0.0

 14 13  0  0  0  0  0  0  0  0999 V2000
   -1.1056   -2.8739   -1.3432 Se  0  0  0  0  0  1  0  0  0  0  0  0
   -3.0532   -2.5684   -0.1778 Si  0  0  0  0  0  0  0  0  0  0  0  0
   -4.3454   -3.7753   -0.8693 C   0  0  0  0  0  0  0  0  0  0  0  0
   -3.9914   -4.8227   -0.7829 H   0  0  0  0  0  0  0  0  0  0  0  0
   -4.5401   -3.5708   -1.9416 H   0  0  0  0  0  0  0  0  0  0  0  0
   -5.3053   -3.6871   -0.3173 H   0  0  0  0  0  0  0  0  0  0  0  0
   -2.8170   -2.9489    1.6702 C   0  0  0  0  0  0  0  0  0  0  0  0
   -2.4741   -3.9945    1.8064 H   0  0  0  0  0  0  0  0  0  0  0  0
   -3.7645   -2.8143    2.2354 H   0  0  0  0  0  0  0  0  0  0  0  0
   -2.0482   -2.2845    2.1131 H   0  0  0  0  0  0  0  0  0  0  0  0
   -3.7326   -0.8008   -0.3478 C   0  0  0  0  0  0  0  0  0  0  0  0
   -3.8779   -0.5410   -1.4159 H   0  0  0  0  0  0  0  0  0  0  0  0
   -3.0304   -0.0575    0.0817 H   0  0  0  0  0  0  0  0  0  0  0  0
   -4.7083   -0.6940    0.1732 H   0  0  0  0  0  0  0  0  0  0  0  0
  1  2  1  0  0  0  0
  2  7  1  0  0  0  0
  3  4  1  0  0  0  0
  3  6  1  0  0  0  0
  3  2  1  0  0  0  0
  5  3  1  0  0  0  0
  7  8  1  0  0  0  0
  7 10  1  0  0  0  0
  7  9  1  0  0  0  0
 11  2  1  0  0  0  0
 11 13  1  0  0  0  0
 11 14  1  0  0  0  0
 12 11  1  0  0  0  0
M  END
