1
q = -1.0

 14 14  0  0  0  0  0  0  0  0999 V2000
   -2.4523    1.1406   -0.6402 Se  0  0  0  0  0  1  0  0  0  0  0  0
   -2.8757   -3.0534    1.3849 C   0  0  0  0  0  0  0  0  0  0  0  0
   -2.9194   -4.0389    1.8704 H   0  0  0  0  0  0  0  0  0  0  0  0
   -1.6882   -2.3110    1.3777 C   0  0  0  0  0  0  0  0  0  0  0  0
   -0.7685   -2.6922    1.8535 H   0  0  0  0  0  0  0  0  0  0  0  0
   -1.5959   -1.1048    0.7979 N   0  0  0  0  0  0  0  0  0  0  0  0
   -2.6741   -0.5789    0.1884 C   0  0  0  0  0  0  0  0  0  0  0  0
   -5.1149   -0.6182   -0.5510 C   0  0  0  0  0  0  0  0  0  0  0  0
   -6.0066   -1.2723   -0.5000 H   0  0  0  0  0  0  0  0  0  0  0  0
   -4.8902   -0.4126   -1.6195 H   0  0  0  0  0  0  0  0  0  0  0  0
   -5.3723    0.3606   -0.0924 H   0  0  0  0  0  0  0  0  0  0  0  0
   -4.0022   -2.4987    0.7561 C   0  0  0  0  0  0  0  0  0  0  0  0
   -4.9565   -3.0497    0.7408 H   0  0  0  0  0  0  0  0  0  0  0  0
   -3.9333   -1.2405    0.1360 C   0  0  0  0  0  0  0  0  0  0  0  0
  1  7  1  0  0  0  0
  2  3  1  0  0  0  0
  4  2  1  0  0  0  0
  4  5  1  0  0  0  0
  6  4  2  0  0  0  0
  7  6  1  0  0  0  0
  8  9  1  0  0  0  0
  8 11  1  0  0  0  0
  8 14  1  0  0  0  0
 10  8  1  0  0  0  0
 12  2  2  0  0  0  0
 13 12  1  0  0  0  0
 14  7  2  0  0  0  0
 14 12  1  0  0  0  0
M  END
