1
q = -1.0, confidence = 0.0

 11 11  0  0  0  0  0  0  0  0999 V2000
    1.7707   -0.4382   -1.8210 Se  0  0  0  0  0  1  0  0  0  0  0  0
    5.2330   -1.9789   -0.0404 C   0  0  0  0  0  0  0  0  0  0  0  0
    6.2250   -2.3325   -0.3624 H   0  0  0  0  0  0  0  0  0  0  0  0
    3.5963   -1.5323    1.6612 C   0  0  0  0  0  0  0  0  0  0  0  0
    3.2635   -1.5254    2.7145 H   0  0  0  0  0  0  0  0  0  0  0  0
    3.0467   -1.0664   -0.5423 C   0  0  0  0  0  0  0  0  0  0  0  0
    4.8738   -1.9957    1.3196 C   0  0  0  0  0  0  0  0  0  0  0  0
    5.5643   -2.3593    2.0939 H   0  0  0  0  0  0  0  0  0  0  0  0
    2.7074   -1.0744    0.7637 N   0  0  0  0  0  0  0  0  0  0  0  0
    4.3166   -1.5132   -0.9864 C   0  0  0  0  0  0  0  0  0  0  0  0
    4.5655   -1.4959   -2.0573 H   0  0  0  0  0  0  0  0  0  0  0  0
  1  6  1  0  0  0  0
  2  7  1  0  0  0  0
  3  2  1  0  0  0  0
  4  5  1  0  0  0  0
  6  9  2  0  0  0  0
  7  4  2  0  0  0  0
  7  8  1  0  0  0  0
  9  4  1  0  0  0  0
 10  6  1  0  0  0  0
 10  2  2  0  0  0  0
 11 10  1  0  0  0  0
M  END
