1
q = -1.0

 14 14  0  0  0  0  0  0  0  0999 V2000
   -1.9072   -2.7820   -0.6322 Se  0  0  0  0  0  1  0  0  0  0  0  0
   -3.1247   -1.3074   -0.3614 C   0  0  0  0  0  0  0  0  0  0  0  0
   -3.3772   -0.7928    0.9270 C   0  0  0  0  0  0  0  0  0  0  0  0
   -2.8849   -1.2531    1.7964 H   0  0  0  0  0  0  0  0  0  0  0  0
   -4.6866    0.3414   -1.2687 C   0  0  0  0  0  0  0  0  0  0  0  0
   -5.2087    0.7740   -2.1374 H   0  0  0  0  0  0  0  0  0  0  0  0
   -4.8935    0.8999    0.0158 C   0  0  0  0  0  0  0  0  0  0  0  0
   -4.2334    0.2983    1.1148 C   0  0  0  0  0  0  0  0  0  0  0  0
   -4.3967    0.6960    2.1296 H   0  0  0  0  0  0  0  0  0  0  0  0
   -3.8086   -0.7328   -1.4524 C   0  0  0  0  0  0  0  0  0  0  0  0
   -3.6389   -1.1309   -2.4640 H   0  0  0  0  0  0  0  0  0  0  0  0
   -5.6687    2.0412    0.1854 N   0  0  0  0  0  0  0  0  0  0  0  0
   -6.0463    2.1968    1.1209 H   0  0  0  0  0  0  0  0  0  0  0  0
   -6.3433    2.2432   -0.5536 H   0  0  0  0  0  0  0  0  0  0  0  0
  1  2  1  0  0  0  0
  2  3  1  0  0  0  0
  3  8  2  0  0  0  0
  3  4  1  0  0  0  0
  5  7  2  0  0  0  0
  6  5  1  0  0  0  0
  7 12  1  0  0  0  0
  7  8  1  0  0  0  0
  8  9  1  0  0  0  0
 10  5  1  0  0  0  0
 10  2  2  0  0  0  0
 11 10  1  0  0  0  0
 12 13  1  0  0  0  0
 14 12  1  0  0  0  0
M  END
