1
q = -1.0

 10 10  0  0  0  0  0  0  0  0999 V2000
    2.9448   -1.7818   -0.0487 Se  0  0  0  0  0  1  0  0  0  0  0  0
    3.0938    1.0721    0.0543 N   0  0  0  0  0  0  0  0  0  0  0  0
    3.8020   -0.0749    0.0232 C   0  0  0  0  0  0  0  0  0  0  0  0
    3.7879    2.2204    0.1121 C   0  0  0  0  0  0  0  0  0  0  0  0
    3.2007    3.1571    0.1422 H   0  0  0  0  0  0  0  0  0  0  0  0
    5.9086    1.1105    0.1007 N   0  0  0  0  0  0  0  0  0  0  0  0
    5.1882    2.2492    0.1355 C   0  0  0  0  0  0  0  0  0  0  0  0
    5.7408    3.2035    0.1830 H   0  0  0  0  0  0  0  0  0  0  0  0
    5.2266   -0.0328    0.0464 C   0  0  0  0  0  0  0  0  0  0  0  0
    5.8065   -0.9727    0.0189 H   0  0  0  0  0  0  0  0  0  0  0  0
  1  3  1  0  0  0  0
  2  4  1  0  0  0  0
  3  9  1  0  0  0  0
  3  2  2  0  0  0  0
  4  7  2  0  0  0  0
  4  5  1  0  0  0  0
  6  7  1  0  0  0  0
  7  8  1  0  0  0  0
  9  6  2  0  0  0  0
 10  9  1  0  0  0  0
M  END
