1
q = -1.0

 16 16  0  0  0  0  0  0  0  0999 V2000
    2.4108    1.4366   -0.7519 Se  0  0  0  0  0  1  0  0  0  0  0  0
    1.5243   -0.7550    0.7580 N   0  0  0  0  0  0  0  0  0  0  0  0
    3.7315   -0.9492   -0.1591 N   0  0  0  0  0  0  0  0  0  0  0  0
    1.6149   -1.9897    1.2868 C   0  0  0  0  0  0  0  0  0  0  0  0
    2.5800   -0.3009    0.0482 C   0  0  0  0  0  0  0  0  0  0  0  0
    2.7847   -2.7536    1.1103 C   0  0  0  0  0  0  0  0  0  0  0  0
    2.8714   -3.7618    1.5403 H   0  0  0  0  0  0  0  0  0  0  0  0
    5.1456   -2.8980    0.1559 C   0  0  0  0  0  0  0  0  0  0  0  0
    5.3690   -2.9472   -0.9287 H   0  0  0  0  0  0  0  0  0  0  0  0
    5.1386   -3.9207    0.5764 H   0  0  0  0  0  0  0  0  0  0  0  0
    5.9734   -2.3230    0.6192 H   0  0  0  0  0  0  0  0  0  0  0  0
    0.4181   -2.4932    2.0431 C   0  0  0  0  0  0  0  0  0  0  0  0
    0.0949   -1.7402    2.7889 H   0  0  0  0  0  0  0  0  0  0  0  0
    0.6214   -3.4537    2.5517 H   0  0  0  0  0  0  0  0  0  0  0  0
   -0.4372   -2.6299    1.3489 H   0  0  0  0  0  0  0  0  0  0  0  0
    3.8435   -2.1808    0.3778 C   0  0  0  0  0  0  0  0  0  0  0  0
  1  5  1  0  0  0  0
  2  4  1  0  0  0  0
  3  5  1  0  0  0  0
  3 16  2  0  0  0  0
  4 12  1  0  0  0  0
  5  2  2  0  0  0  0
  6  4  2  0  0  0  0
  6  7  1  0  0  0  0
  8 16  1  0  0  0  0
  8 10  1  0  0  0  0
  8 11  1  0  0  0  0
  9  8  1  0  0  0  0
 12 14  1  0  0  0  0
 12 13  1  0  0  0  0
 15 12  1  0  0  0  0
 16  6  1  0  0  0  0
M  END
