1
q = -1.0, confidence = 0.0

  9  9  0  0  0  0  0  0  0  0999 V2000
    2.2673   -1.0393   -1.4439 Se  0  0  0  0  0  1  0  0  0  0  0  0
    2.3873   -3.7893    0.1399 S   0  0  0  0  0  0  0  0  0  0  0  0
    1.9459   -2.9013   -1.3058 C   0  0  0  0  0  0  0  0  0  0  0  0
    1.3716   -3.7581   -2.2396 C   0  0  0  0  0  0  0  0  0  0  0  0
    1.0189   -3.4033   -3.2168 H   0  0  0  0  0  0  0  0  0  0  0  0
    1.2943   -5.1109   -1.7880 C   0  0  0  0  0  0  0  0  0  0  0  0
    0.8716   -5.9326   -2.3832 H   0  0  0  0  0  0  0  0  0  0  0  0
    1.8004   -5.2838   -0.5130 C   0  0  0  0  0  0  0  0  0  0  0  0
    1.8636   -6.2102    0.0718 H   0  0  0  0  0  0  0  0  0  0  0  0
  1  3  1  0  0  0  0
  3  2  1  0  0  0  0
  4  6  1  0  0  0  0
  4  3  2  0  0  0  0
  5  4  1  0  0  0  0
  6  8  2  0  0  0  0
  7  6  1  0  0  0  0
  8  9  1  0  0  0  0
  8  2  1  0  0  0  0
M  END
