1
q = -1.0

 14 13  0  0  0  0  0  0  0  0999 V2000
   -2.3026   -2.2286   -0.0066 Se  0  0  0  0  0  1  0  0  0  0  0  0
   -1.8103   -4.1935   -0.0876 C   0  0  0  0  0  0  0  0  0  0  0  0
   -1.0056   -4.5932    1.1509 C   0  0  0  0  0  0  0  0  0  0  0  0
   -0.7934   -5.6863    1.1340 H   0  0  0  0  0  0  0  0  0  0  0  0
   -1.5582   -4.3600    2.0826 H   0  0  0  0  0  0  0  0  0  0  0  0
   -0.0367   -4.0559    1.1828 H   0  0  0  0  0  0  0  0  0  0  0  0
   -1.0349   -4.5031   -1.3699 C   0  0  0  0  0  0  0  0  0  0  0  0
   -0.0615   -3.9739   -1.3817 H   0  0  0  0  0  0  0  0  0  0  0  0
   -1.6041   -4.1937   -2.2688 H   0  0  0  0  0  0  0  0  0  0  0  0
   -0.8347   -5.5963   -1.4411 H   0  0  0  0  0  0  0  0  0  0  0  0
   -3.1697   -4.9087   -0.0970 C   0  0  0  0  0  0  0  0  0  0  0  0
   -3.7745   -4.6167   -0.9793 H   0  0  0  0  0  0  0  0  0  0  0  0
   -3.7566   -4.6754    0.8145 H   0  0  0  0  0  0  0  0  0  0  0  0
   -3.0183   -6.0097   -0.1345 H   0  0  0  0  0  0  0  0  0  0  0  0
  2  1  1  0  0  0  0
  2  3  1  0  0  0  0
  3  6  1  0  0  0  0
  3  5  1  0  0  0  0
  4  3  1  0  0  0  0
  7  2  1  0  0  0  0
  8  7  1  0  0  0  0
  9  7  1  0  0  0  0
 10  7  1  0  0  0  0
 11  2  1  0  0  0  0
 11 13  1  0  0  0  0
 12 11  1  0  0  0  0
 14 11  1  0  0  0  0
M  END
