1
q = 0.0, confidence = 0.996

 46 48  0  0  1  0  0  0  0  0999 V2000
   -0.8034    0.5297   -1.2268 Se  0  0  0  0  0  1  0  0  0  0  0  0
    0.1991   -2.0071    0.2303 S   0  0  0  0  0  0  0  0  0  0  0  0
    1.2473    1.7235    0.9702 O   0  0  0  0  0  0  0  0  0  0  0  0
    0.5516   -0.4534   -0.4678 C   0  0  1  0  0  3  0  0  0  0  0  0
    1.9217    0.0634   -0.5324 C   0  0  1  0  0  3  0  0  0  0  0  0
    2.1587    1.2986    0.0533 C   0  0  2  0  0  3  0  0  0  0  0  0
    0.6708    3.0407    0.8659 C   0  0  0  0  0  0  0  0  0  0  0  0
   -0.0174    3.3566    2.1760 C   0  0  0  0  0  0  0  0  0  0  0  0
    3.3782    2.1109   -0.1240 C   0  0  0  0  0  0  0  0  0  0  0  0
    3.9874    2.2409   -1.3928 C   0  0  0  0  0  0  0  0  0  0  0  0
    5.1435    3.0145   -1.5452 C   0  0  0  0  0  0  0  0  0  0  0  0
    5.7069    3.6705   -0.4371 C   0  0  0  0  0  0  0  0  0  0  0  0
    5.1035    3.5551    0.8265 C   0  0  0  0  0  0  0  0  0  0  0  0
    3.9449    2.7845    0.9832 C   0  0  0  0  0  0  0  0  0  0  0  0
    2.9772   -0.8020   -1.1136 C   0  0  0  0  0  0  0  0  0  0  0  0
    2.6916   -1.5908   -2.2509 C   0  0  0  0  0  0  0  0  0  0  0  0
    3.6577   -2.4560   -2.7817 C   0  0  0  0  0  0  0  0  0  0  0  0
    4.9255   -2.5494   -2.1850 C   0  0  0  0  0  0  0  0  0  0  0  0
    5.2185   -1.7733   -1.0509 C   0  0  0  0  0  0  0  0  0  0  0  0
    4.2541   -0.9115   -0.5168 C   0  0  0  0  0  0  0  0  0  0  0  0
    1.6522   -2.3218    1.2245 C   0  0  0  0  0  0  0  0  0  0  0  0
    2.4195   -3.4731    0.9758 C   0  0  0  0  0  0  0  0  0  0  0  0
    3.5550   -3.7241    1.7599 C   0  0  0  0  0  0  0  0  0  0  0  0
    3.9227   -2.8277    2.7758 C   0  0  0  0  0  0  0  0  0  0  0  0
    3.1455   -1.6824    3.0211 C   0  0  0  0  0  0  0  0  0  0  0  0
    1.9993   -1.4270    2.2557 C   0  0  0  0  0  0  0  0  0  0  0  0
   -0.0630    3.0023    0.0271 H   0  0  0  0  0  0  0  0  0  0  0  0
    1.4528    3.7871    0.6084 H   0  0  0  0  0  0  0  0  0  0  0  0
   -0.5695    4.3128    2.0920 H   0  0  0  0  0  0  0  0  0  0  0  0
    0.7115    3.4409    3.0068 H   0  0  0  0  0  0  0  0  0  0  0  0
   -0.7455    2.5614    2.4294 H   0  0  0  0  0  0  0  0  0  0  0  0
    3.5372    1.7328   -2.2578 H   0  0  0  0  0  0  0  0  0  0  0  0
    5.6076    3.1123   -2.5381 H   0  0  0  0  0  0  0  0  0  0  0  0
    6.6165    4.2776   -0.5599 H   0  0  0  0  0  0  0  0  0  0  0  0
    5.5426    4.0669    1.6962 H   0  0  0  0  0  0  0  0  0  0  0  0
    3.4727    2.6776    1.9715 H   0  0  0  0  0  0  0  0  0  0  0  0
    1.6979   -1.5167   -2.7188 H   0  0  0  0  0  0  0  0  0  0  0  0
    3.4193   -3.0605   -3.6701 H   0  0  0  0  0  0  0  0  0  0  0  0
    5.6831   -3.2315   -2.5998 H   0  0  0  0  0  0  0  0  0  0  0  0
    6.2031   -1.8542   -0.5659 H   0  0  0  0  0  0  0  0  0  0  0  0
    4.4746   -0.3369    0.3938 H   0  0  0  0  0  0  0  0  0  0  0  0
    2.1422   -4.1495    0.1542 H   0  0  0  0  0  0  0  0  0  0  0  0
    4.1646   -4.6185    1.5629 H   0  0  0  0  0  0  0  0  0  0  0  0
    4.8190   -3.0237    3.3834 H   0  0  0  0  0  0  0  0  0  0  0  0
    3.4274   -0.9852    3.8247 H   0  0  0  0  0  0  0  0  0  0  0  0
    1.3774   -0.5391    2.4426 H   0  0  0  0  0  0  0  0  0  0  0  0
  2 21  1  0  0  0  0
  4  1  1  6  0  0  0
  4  2  1  0  0  0  0
  5  4  1  1  0  0  0
  5  6  1  0  0  0  0
  6  3  1  1  0  0  0
  7  3  1  0  0  0  0
  7  8  1  0  0  0  0
  8 31  1  0  0  0  0
  8 30  1  0  0  0  0
  9  6  1  0  0  0  0
  9 14  1  0  0  0  0
 10  9  2  0  0  0  0
 11 10  1  0  0  0  0
 11 12  2  0  0  0  0
 12 13  1  0  0  0  0
 13 14  2  0  0  0  0
 13 35  1  0  0  0  0
 14 36  1  0  0  0  0
 15  5  1  0  0  0  0
 15 20  1  0  0  0  0
 16 15  2  0  0  0  0
 17 16  1  0  0  0  0
 17 18  2  0  0  0  0
 18 19  1  0  0  0  0
 19 40  1  0  0  0  0
 19 20  2  0  0  0  0
 20 41  1  0  0  0  0
 21 26  1  0  0  0  0
 22 21  2  0  0  0  0
 22 23  1  0  0  0  0
 23 24  2  0  0  0  0
 24 25  1  0  0  0  0
 24 44  1  0  0  0  0
 25 45  1  0  0  0  0
 26 46  1  0  0  0  0
 26 25  2  0  0  0  0
 27  7  1  0  0  0  0
 28  7  1  0  0  0  0
 29  8  1  0  0  0  0
 32 10  1  0  0  0  0
 33 11  1  0  0  0  0
 34 12  1  0  0  0  0
 37 16  1  0  0  0  0
 38 17  1  0  0  0  0
 39 18  1  0  0  0  0
 42 22  1  0  0  0  0
 43 23  1  0  0  0  0
M  END
