1
q = 0.0, confidence = 0.998

 31 32  0  0  1  0  0  0  0  0999 V2000
    0.5561    0.4622   -2.0984 Se  0  0  0  0  0  1  0  0  0  0  0  0
   -1.2866    1.9245    0.2625 N   0  0  0  0  0  0  0  0  0  0  0  0
    1.0025    2.4483    0.0079 N   0  0  0  0  0  0  0  0  0  0  0  0
    2.8447    1.4952   -0.6896 N   0  0  0  0  0  0  0  0  0  0  0  0
   -2.5714    2.2923    0.3821 C   0  0  0  0  0  0  0  0  0  0  0  0
   -3.3012    1.4657    0.4496 H   0  0  0  0  0  0  0  0  0  0  0  0
   -2.9712    3.6372    0.4135 C   0  0  0  0  0  0  0  0  0  0  0  0
   -4.0344    3.8952    0.5214 H   0  0  0  0  0  0  0  0  0  0  0  0
   -1.9876    4.6299    0.2985 C   0  0  0  0  0  0  0  0  0  0  0  0
   -2.2594    5.6960    0.3083 H   0  0  0  0  0  0  0  0  0  0  0  0
   -0.6474    4.2486    0.1472 C   0  0  0  0  0  0  0  0  0  0  0  0
    0.1514    4.9917    0.0142 H   0  0  0  0  0  0  0  0  0  0  0  0
   -0.3564    2.8732    0.1407 C   0  0  0  0  0  0  0  0  0  0  0  0
    1.4874    1.4984   -0.8773 C   0  0  2  0  0  3  0  0  0  0  0  0
    2.0540    3.0010    0.7352 C   0  0  0  0  0  0  0  0  0  0  0  0
    1.8834    3.7336    1.5279 H   0  0  0  0  0  0  0  0  0  0  0  0
    3.2008    2.3973    0.2996 C   0  0  0  0  0  0  0  0  0  0  0  0
    4.2373    2.5176    0.6266 H   0  0  0  0  0  0  0  0  0  0  0  0
    3.7733    0.6029   -1.3851 C   0  0  0  0  0  0  0  0  0  0  0  0
    4.7279    1.1544   -1.5085 H   0  0  0  0  0  0  0  0  0  0  0  0
    3.3439    0.4251   -2.3918 H   0  0  0  0  0  0  0  0  0  0  0  0
    3.9790   -0.7231   -0.6541 C   0  0  0  0  0  0  0  0  0  0  0  0
    2.9874   -1.2004   -0.5074 H   0  0  0  0  0  0  0  0  0  0  0  0
    4.3721   -0.5282    0.3675 H   0  0  0  0  0  0  0  0  0  0  0  0
    4.9136   -1.6663   -1.4146 C   0  0  0  0  0  0  0  0  0  0  0  0
    4.4954   -1.8506   -2.4290 H   0  0  0  0  0  0  0  0  0  0  0  0
    5.8964   -1.1690   -1.5786 H   0  0  0  0  0  0  0  0  0  0  0  0
    5.1208   -2.9982   -0.6928 C   0  0  0  0  0  0  0  0  0  0  0  0
    5.7904   -3.6719   -1.2638 H   0  0  0  0  0  0  0  0  0  0  0  0
    4.1565   -3.5257   -0.5435 H   0  0  0  0  0  0  0  0  0  0  0  0
    5.5703   -2.8471    0.3105 H   0  0  0  0  0  0  0  0  0  0  0  0
  2  5  1  0  0  0  0
  3 13  1  0  0  0  0
  3 15  1  0  0  0  0
  4 17  1  0  0  0  0
  5  7  2  0  0  0  0
  5  6  1  0  0  0  0
  7  8  1  0  0  0  0
  9 10  1  0  0  0  0
  9  7  1  0  0  0  0
 11  9  2  0  0  0  0
 12 11  1  0  0  0  0
 13 11  1  0  0  0  0
 13  2  2  0  0  0  0
 14  1  1  6  0  0  0
 14  4  1  0  0  0  0
 14  3  1  0  0  0  0
 15 16  1  0  0  0  0
 17 18  1  0  0  0  0
 17 15  2  0  0  0  0
 19  4  1  0  0  0  0
 19 22  1  0  0  0  0
 20 19  1  0  0  0  0
 21 19  1  0  0  0  0
 22 23  1  0  0  0  0
 22 24  1  0  0  0  0
 25 28  1  0  0  0  0
 25 22  1  0  0  0  0
 26 25  1  0  0  0  0
 27 25  1  0  0  0  0
 28 30  1  0  0  0  0
 28 31  1  0  0  0  0
 29 28  1  0  0  0  0
M  END
