1
q = -1.0

 26 28  0  0  1  0  0  0  0  0999 V2000
   -1.0698    0.0143    1.5471 Se  0  0  0  0  0  1  0  0  0  0  0  0
   -2.5509    0.6628    0.3666 C   0  0  2  0  0  0  0  0  0  0  0  0
   -2.2320    1.6908    0.0889 H   0  0  0  0  0  0  0  0  0  0  0  0
   -3.8742    0.7139    1.1595 C   0  0  1  0  0  0  0  0  0  0  0  0
   -3.7149    1.2838    2.1000 H   0  0  0  0  0  0  0  0  0  0  0  0
   -4.9414    1.4200    0.2946 C   0  0  0  0  0  0  0  0  0  0  0  0
   -5.8991    1.4935    0.8580 H   0  0  0  0  0  0  0  0  0  0  0  0
   -4.6171    2.4581    0.0646 H   0  0  0  0  0  0  0  0  0  0  0  0
   -4.3562   -0.7135    1.4913 C   0  0  0  0  0  0  0  0  0  0  0  0
   -3.6019   -1.2195    2.1294 H   0  0  0  0  0  0  0  0  0  0  0  0
   -5.3070   -0.6676    2.0686 H   0  0  0  0  0  0  0  0  0  0  0  0
   -5.1551    0.6325   -1.0135 C   0  0  2  0  0  0  0  0  0  0  0  0
   -5.9249    1.1426   -1.6346 H   0  0  0  0  0  0  0  0  0  0  0  0
   -3.2319   -1.5759   -0.5863 C   0  0  0  0  0  0  0  0  0  0  0  0
   -3.3568   -2.1626   -1.5228 H   0  0  0  0  0  0  0  0  0  0  0  0
   -2.4490   -2.0830    0.0164 H   0  0  0  0  0  0  0  0  0  0  0  0
   -2.7591   -0.1522   -0.9223 C   0  0  1  0  0  0  0  0  0  0  0  0
   -1.8062   -0.1996   -1.4852 H   0  0  0  0  0  0  0  0  0  0  0  0
   -4.5642   -1.5083    0.1868 C   0  0  2  0  0  0  0  0  0  0  0  0
   -4.9117   -2.5367    0.4301 H   0  0  0  0  0  0  0  0  0  0  0  0
   -5.6263   -0.7979   -0.6781 C   0  0  0  0  0  0  0  0  0  0  0  0
   -5.7982   -1.3694   -1.6172 H   0  0  0  0  0  0  0  0  0  0  0  0
   -6.5990   -0.7617   -0.1376 H   0  0  0  0  0  0  0  0  0  0  0  0
   -3.8224    0.5605   -1.7839 C   0  0  0  0  0  0  0  0  0  0  0  0
   -3.4680    1.5812   -2.0448 H   0  0  0  0  0  0  0  0  0  0  0  0
   -3.9637    0.0110   -2.7412 H   0  0  0  0  0  0  0  0  0  0  0  0
  2  3  1  6  0  0  0
  2  4  1  0  0  0  0
  2  1  1  0  0  0  0
  4  9  1  0  0  0  0
  4  5  1  1  0  0  0
  6  7  1  0  0  0  0
  6  4  1  0  0  0  0
  8  6  1  0  0  0  0
  9 11  1  0  0  0  0
  9 10  1  0  0  0  0
 12 13  1  6  0  0  0
 12 21  1  0  0  0  0
 12  6  1  0  0  0  0
 14 16  1  0  0  0  0
 14 19  1  0  0  0  0
 15 14  1  0  0  0  0
 17 18  1  6  0  0  0
 17 14  1  0  0  0  0
 17  2  1  0  0  0  0
 19 20  1  1  0  0  0
 19  9  1  0  0  0  0
 21 23  1  0  0  0  0
 21 19  1  0  0  0  0
 22 21  1  0  0  0  0
 24 12  1  0  0  0  0
 24 17  1  0  0  0  0
 25 24  1  0  0  0  0
 26 24  1  0  0  0  0
M  END
