1
q = 0.0, confidence = 1.0

 50 52  0  0  0  0  0  0  0  0999 V2000
   -0.7538   -0.9855   -0.1659 Se  0  0  0  0  0  1  0  0  0  0  0  0
   -0.0567    1.8301    0.2280 N   0  0  0  0  0  0  0  0  0  0  0  0
   -2.2299    1.3825    0.1459 N   0  0  0  0  0  0  0  0  0  0  0  0
   -0.9794    0.8488    0.0836 C   0  0  0  0  0  3  0  0  0  0  0  0
   -0.6967    3.1544    0.3222 C   0  0  0  0  0  0  0  0  0  0  0  0
   -2.1962    2.8210    0.4379 C   0  0  0  0  0  0  0  0  0  0  0  0
    1.3669    1.7343    0.0958 C   0  0  0  0  0  0  0  0  0  0  0  0
    1.9431    1.7584   -1.1954 C   0  0  0  0  0  0  0  0  0  0  0  0
    3.3425    1.6934   -1.2869 C   0  0  0  0  0  0  0  0  0  0  0  0
    4.1596    1.5996   -0.1457 C   0  0  0  0  0  0  0  0  0  0  0  0
    3.5469    1.6104    1.1210 C   0  0  0  0  0  0  0  0  0  0  0  0
    2.1534    1.6719    1.2692 C   0  0  0  0  0  0  0  0  0  0  0  0
    1.0775    1.7522   -2.4280 C   0  0  0  0  0  0  0  0  0  0  0  0
    5.6426    1.3873   -0.2769 C   0  0  0  0  0  0  0  0  0  0  0  0
    1.5001    1.5689    2.6223 C   0  0  0  0  0  0  0  0  0  0  0  0
   -3.4523    0.6415    0.0764 C   0  0  0  0  0  0  0  0  0  0  0  0
   -4.0823    0.4948   -1.1801 C   0  0  0  0  0  0  0  0  0  0  0  0
   -5.3018   -0.2016   -1.2283 C   0  0  0  0  0  0  0  0  0  0  0  0
   -5.8900   -0.7499   -0.0730 C   0  0  0  0  0  0  0  0  0  0  0  0
   -5.2243   -0.5910    1.1575 C   0  0  0  0  0  0  0  0  0  0  0  0
   -4.0032    0.0965    1.2589 C   0  0  0  0  0  0  0  0  0  0  0  0
   -3.4336    1.0384   -2.4265 C   0  0  0  0  0  0  0  0  0  0  0  0
   -7.1806   -1.5248   -0.1557 C   0  0  0  0  0  0  0  0  0  0  0  0
   -3.2724    0.2119    2.5712 C   0  0  0  0  0  0  0  0  0  0  0  0
   -0.4577    3.7489   -0.5862 H   0  0  0  0  0  0  0  0  0  0  0  0
   -0.3047    3.7092    1.1981 H   0  0  0  0  0  0  0  0  0  0  0  0
   -2.6000    3.0161    1.4557 H   0  0  0  0  0  0  0  0  0  0  0  0
   -2.8232    3.3817   -0.2849 H   0  0  0  0  0  0  0  0  0  0  0  0
    3.8077    1.6749   -2.2852 H   0  0  0  0  0  0  0  0  0  0  0  0
    4.1726    1.5178    2.0223 H   0  0  0  0  0  0  0  0  0  0  0  0
    1.6745    1.9575   -3.3363 H   0  0  0  0  0  0  0  0  0  0  0  0
    0.2570    2.4974   -2.3802 H   0  0  0  0  0  0  0  0  0  0  0  0
    0.6013    0.7552   -2.5521 H   0  0  0  0  0  0  0  0  0  0  0  0
    5.8342    0.2926   -0.2942 H   0  0  0  0  0  0  0  0  0  0  0  0
    6.2012    1.8136    0.5793 H   0  0  0  0  0  0  0  0  0  0  0  0
    6.0441    1.8185   -1.2147 H   0  0  0  0  0  0  0  0  0  0  0  0
    0.7684    2.3828    2.8076 H   0  0  0  0  0  0  0  0  0  0  0  0
    2.2538    1.5973    3.4314 H   0  0  0  0  0  0  0  0  0  0  0  0
    0.9477    0.6085    2.7066 H   0  0  0  0  0  0  0  0  0  0  0  0
   -5.8046   -0.3245   -2.2010 H   0  0  0  0  0  0  0  0  0  0  0  0
   -5.6661   -1.0224    2.0702 H   0  0  0  0  0  0  0  0  0  0  0  0
   -3.2418    2.1296   -2.3565 H   0  0  0  0  0  0  0  0  0  0  0  0
   -4.0663    0.8623   -3.3165 H   0  0  0  0  0  0  0  0  0  0  0  0
   -2.4513    0.5498   -2.5996 H   0  0  0  0  0  0  0  0  0  0  0  0
   -7.7950   -1.2068   -1.0204 H   0  0  0  0  0  0  0  0  0  0  0  0
   -7.7870   -1.4090    0.7642 H   0  0  0  0  0  0  0  0  0  0  0  0
   -6.9797   -2.6110   -0.2780 H   0  0  0  0  0  0  0  0  0  0  0  0
   -2.3001   -0.3232    2.5203 H   0  0  0  0  0  0  0  0  0  0  0  0
   -3.8627   -0.2265    3.3974 H   0  0  0  0  0  0  0  0  0  0  0  0
   -3.0481    1.2657    2.8374 H   0  0  0  0  0  0  0  0  0  0  0  0
  1  4  1  0  0  0  0
  2  5  1  0  0  0  0
  3  6  1  0  0  0  0
  4  3  1  0  0  0  0
  4  2  1  0  0  0  0
  5  6  1  0  0  0  0
  5 26  1  0  0  0  0
  6 27  1  0  0  0  0
  7  2  1  0  0  0  0
  7 12  1  0  0  0  0
  8  7  2  0  0  0  0
  9  8  1  0  0  0  0
  9 10  2  0  0  0  0
 10 11  1  0  0  0  0
 11 12  2  0  0  0  0
 11 30  1  0  0  0  0
 12 15  1  0  0  0  0
 13 32  1  0  0  0  0
 13  8  1  0  0  0  0
 14 10  1  0  0  0  0
 14 35  1  0  0  0  0
 15 39  1  0  0  0  0
 15 37  1  0  0  0  0
 15 38  1  0  0  0  0
 16  3  1  0  0  0  0
 16 21  1  0  0  0  0
 17 16  2  0  0  0  0
 18 17  1  0  0  0  0
 18 19  2  0  0  0  0
 19 20  1  0  0  0  0
 20 21  2  0  0  0  0
 20 41  1  0  0  0  0
 21 24  1  0  0  0  0
 22 42  1  0  0  0  0
 22 17  1  0  0  0  0
 23 19  1  0  0  0  0
 23 46  1  0  0  0  0
 24 50  1  0  0  0  0
 24 49  1  0  0  0  0
 25  5  1  0  0  0  0
 28  6  1  0  0  0  0
 29  9  1  0  0  0  0
 31 13  1  0  0  0  0
 33 13  1  0  0  0  0
 34 14  1  0  0  0  0
 36 14  1  0  0  0  0
 40 18  1  0  0  0  0
 43 22  1  0  0  0  0
 44 22  1  0  0  0  0
 45 23  1  0  0  0  0
 47 23  1  0  0  0  0
 48 24  1  0  0  0  0
M  END
