3
q = -1.0

 18 19  0  0  0  0  0  0  0  0999 V2000
   -3.6773    0.0756    0.4991 N   0  0  0  0  0  0  0  0  0  0  0  0
   -4.4209    2.1779    0.2308 N   0  0  0  0  0  0  0  0  0  0  0  0
   -1.6099    2.0605    0.8751 Se  0  0  0  0  0  1  0  0  0  0  0  0
   -3.3218    1.3686    0.5037 C   0  0  0  0  0  0  0  0  0  0  0  0
   -5.0297    0.0234    0.2054 C   0  0  0  0  0  0  0  0  0  0  0  0
   -5.5205    1.3507    0.0449 C   0  0  0  0  0  0  0  0  0  0  0  0
   -6.8649    1.6229   -0.2465 C   0  0  0  0  0  0  0  0  0  0  0  0
   -7.2359    2.6515   -0.3634 H   0  0  0  0  0  0  0  0  0  0  0  0
   -7.7197    0.5178   -0.3845 C   0  0  0  0  0  0  0  0  0  0  0  0
   -8.7823    0.6856   -0.6154 H   0  0  0  0  0  0  0  0  0  0  0  0
   -7.2441   -0.8055   -0.2338 C   0  0  0  0  0  0  0  0  0  0  0  0
   -7.9470   -1.6438   -0.3521 H   0  0  0  0  0  0  0  0  0  0  0  0
   -5.8996   -1.0728    0.0614 C   0  0  0  0  0  0  0  0  0  0  0  0
   -5.5300   -2.1022    0.1750 H   0  0  0  0  0  0  0  0  0  0  0  0
   -4.4357    3.6196    0.1297 C   0  0  0  0  0  0  0  0  0  0  0  0
   -3.3867    3.9736    0.1491 H   0  0  0  0  0  0  0  0  0  0  0  0
   -4.9901    4.0766    0.9760 H   0  0  0  0  0  0  0  0  0  0  0  0
   -4.9131    3.9306   -0.8217 H   0  0  0  0  0  0  0  0  0  0  0  0
  1  4  2  0  0  0  0
  2  4  1  0  0  0  0
  4  3  1  0  0  0  0
  5  1  1  0  0  0  0
  6  5  2  0  0  0  0
  6  2  1  0  0  0  0
  7  6  1  0  0  0  0
  8  7  1  0  0  0  0
  9  7  2  0  0  0  0
  9 11  1  0  0  0  0
 10  9  1  0  0  0  0
 11 13  2  0  0  0  0
 12 11  1  0  0  0  0
 13 14  1  0  0  0  0
 13  5  1  0  0  0  0
 15 16  1  0  0  0  0
 15  2  1  0  0  0  0
 15 17  1  0  0  0  0
 18 15  1  0  0  0  0
M  END
