1
q = -1.0

 15 15  0  0  0  0  0  0  0  0999 V2000
   -0.5534   -2.5843   -0.4999 Se  0  0  0  0  0  1  0  0  0  0  0  0
    1.2236   -3.2896   -0.2229 C   0  0  0  0  0  0  0  0  0  0  0  0
    1.9865   -3.7311   -1.3215 C   0  0  0  0  0  0  0  0  0  0  0  0
    3.2478   -4.3178   -1.1260 C   0  0  0  0  0  0  0  0  0  0  0  0
    3.7920   -4.4734    0.1643 C   0  0  0  0  0  0  0  0  0  0  0  0
    3.0206   -4.0249    1.2595 C   0  0  0  0  0  0  0  0  0  0  0  0
    1.7577   -3.4502    1.0744 C   0  0  0  0  0  0  0  0  0  0  0  0
    5.1636   -5.0637    0.3776 C   0  0  0  0  0  0  0  0  0  0  0  0
    1.5859   -3.6099   -2.3393 H   0  0  0  0  0  0  0  0  0  0  0  0
    3.8267   -4.6574   -2.0004 H   0  0  0  0  0  0  0  0  0  0  0  0
    3.4195   -4.1332    2.2813 H   0  0  0  0  0  0  0  0  0  0  0  0
    1.1701   -3.1141    1.9419 H   0  0  0  0  0  0  0  0  0  0  0  0
    5.1524   -5.8499    1.1602 H   0  0  0  0  0  0  0  0  0  0  0  0
    5.5657   -5.5121   -0.5517 H   0  0  0  0  0  0  0  0  0  0  0  0
    5.8860   -4.2891    0.7167 H   0  0  0  0  0  0  0  0  0  0  0  0
  1  2  1  0  0  0  0
  2  7  1  0  0  0  0
  3  4  1  0  0  0  0
  3  2  2  0  0  0  0
  4  5  2  0  0  0  0
  5  8  1  0  0  0  0
  5  6  1  0  0  0  0
  6 11  1  0  0  0  0
  7  6  2  0  0  0  0
  7 12  1  0  0  0  0
  8 15  1  0  0  0  0
  8 13  1  0  0  0  0
  9  3  1  0  0  0  0
 10  4  1  0  0  0  0
 14  8  1  0  0  0  0
M  END
