1
q = 0.0, confidence = 1.0

 28 29  0  0  0  0  0  0  0  0999 V2000
   -1.0964    1.6030   -1.0986 Se  0  0  0  0  0  1  0  0  0  0  0  0
   -2.5872    1.1712    0.4491 P   0  0  0  0  0  4  0  0  0  0  0  0
   -1.8554    0.9426    2.1031 C   0  0  0  0  0  0  0  0  0  0  0  0
   -2.6596    0.9557    2.8640 H   0  0  0  0  0  0  0  0  0  0  0  0
   -1.1639    1.7892    2.2709 H   0  0  0  0  0  0  0  0  0  0  0  0
   -1.2811   -0.0003    2.1540 H   0  0  0  0  0  0  0  0  0  0  0  0
   -3.6326    2.6628    0.5738 C   0  0  0  0  0  0  0  0  0  0  0  0
   -2.9949    3.9035    0.7923 C   0  0  0  0  0  0  0  0  0  0  0  0
   -1.8957    3.9566    0.8423 H   0  0  0  0  0  0  0  0  0  0  0  0
   -3.7680    5.0638    0.9266 C   0  0  0  0  0  0  0  0  0  0  0  0
   -3.2722    6.0311    1.0965 H   0  0  0  0  0  0  0  0  0  0  0  0
   -5.1688    4.9931    0.8368 C   0  0  0  0  0  0  0  0  0  0  0  0
   -5.7718    5.9081    0.9368 H   0  0  0  0  0  0  0  0  0  0  0  0
   -5.7996    3.7595    0.6150 C   0  0  0  0  0  0  0  0  0  0  0  0
   -6.8959    3.7044    0.5403 H   0  0  0  0  0  0  0  0  0  0  0  0
   -5.0359    2.5892    0.4842 C   0  0  0  0  0  0  0  0  0  0  0  0
   -5.5298    1.6219    0.3093 H   0  0  0  0  0  0  0  0  0  0  0  0
   -3.6903   -0.2279    0.0704 C   0  0  0  0  0  0  0  0  0  0  0  0
   -4.1704   -1.0813    1.0837 C   0  0  0  0  0  0  0  0  0  0  0  0
   -3.8395   -0.9638    2.1256 H   0  0  0  0  0  0  0  0  0  0  0  0
   -5.0682   -2.1097    0.7564 C   0  0  0  0  0  0  0  0  0  0  0  0
   -5.4207   -2.7927    1.5430 H   0  0  0  0  0  0  0  0  0  0  0  0
   -5.4882   -2.2846   -0.5706 C   0  0  0  0  0  0  0  0  0  0  0  0
   -6.1779   -3.1033   -0.8234 H   0  0  0  0  0  0  0  0  0  0  0  0
   -5.0051   -1.4357   -1.5808 C   0  0  0  0  0  0  0  0  0  0  0  0
   -5.3125   -1.5881   -2.6255 H   0  0  0  0  0  0  0  0  0  0  0  0
   -4.1023   -0.4124   -1.2661 C   0  0  0  0  0  0  0  0  0  0  0  0
   -3.6844    0.2295   -2.0572 H   0  0  0  0  0  0  0  0  0  0  0  0
  1  2  1  0  0  0  0
  2  7  1  0  0  0  0
  2  3  1  0  0  0  0
  3  6  1  0  0  0  0
  3  5  1  0  0  0  0
  3  4  1  0  0  0  0
  7  8  1  0  0  0  0
  8  9  1  0  0  0  0
  8 10  2  0  0  0  0
 10 11  1  0  0  0  0
 12 10  1  0  0  0  0
 12 13  1  0  0  0  0
 14 12  2  0  0  0  0
 15 14  1  0  0  0  0
 16  7  2  0  0  0  0
 16 14  1  0  0  0  0
 17 16  1  0  0  0  0
 18  2  1  0  0  0  0
 18 19  1  0  0  0  0
 19 20  1  0  0  0  0
 21 19  2  0  0  0  0
 21 22  1  0  0  0  0
 23 21  1  0  0  0  0
 24 23  1  0  0  0  0
 25 27  1  0  0  0  0
 25 23  2  0  0  0  0
 26 25  1  0  0  0  0
 27 18  2  0  0  0  0
 28 27  1  0  0  0  0
M  END
