1
q = -1.0

  5  4  0  0  0  0  0  0  0  0999 V2000
   -1.6586   -2.5165   -0.3615 Se  0  0  0  0  0  0  0  0  0  0  0  0
   -0.9411   -3.1728   -2.0761 C   0  0  0  0  0  0  0  0  0  0  0  0
   -1.8761   -3.9428   -2.6768 F   0  0  0  0  0  0  0  0  0  0  0  0
   -0.6534   -2.1494   -2.9563 F   0  0  0  0  0  0  0  0  0  0  0  0
    0.1869   -3.9035   -1.9920 F   0  0  0  0  0  0  0  0  0  0  0  0
  2  5  1  0  0  0  0
  2  1  1  0  0  0  0
  3  2  1  0  0  0  0
  4  2  1  0  0  0  0
M  END
