1
q = 0.0, confidence = 0.996

 35 34  0  0  0  0  0  0  0  0999 V2000
    0.4321   -0.6989   -1.2909 Se  0  0  0  0  0  1  0  0  0  0  0  0
    1.9896    0.0206    0.1169 P   0  0  0  0  0  4  0  0  0  0  0  0
    1.6245   -0.4281    1.9439 C   0  0  0  0  0  0  0  0  0  0  0  0
    3.5476   -0.8715   -0.4224 C   0  0  0  0  0  0  0  0  0  0  0  0
    4.3005   -0.5402    0.3260 H   0  0  0  0  0  0  0  0  0  0  0  0
    2.2586    1.8713   -0.0065 C   0  0  0  0  0  0  0  0  0  0  0  0
    1.3703    2.2445    0.5466 H   0  0  0  0  0  0  0  0  0  0  0  0
    2.9537   -0.6115    2.7054 C   0  0  0  0  0  0  0  0  0  0  0  0
    2.7115   -0.7917    3.7732 H   0  0  0  0  0  0  0  0  0  0  0  0
    3.6065    0.2811    2.6657 H   0  0  0  0  0  0  0  0  0  0  0  0
    3.5319   -1.4864    2.3518 H   0  0  0  0  0  0  0  0  0  0  0  0
    0.8108    0.7114    2.5844 C   0  0  0  0  0  0  0  0  0  0  0  0
   -0.1010    0.9634    2.0079 H   0  0  0  0  0  0  0  0  0  0  0  0
    1.4048    1.6371    2.7128 H   0  0  0  0  0  0  0  0  0  0  0  0
    0.4871    0.3813    3.5926 H   0  0  0  0  0  0  0  0  0  0  0  0
    0.8125   -1.7345    2.0056 C   0  0  0  0  0  0  0  0  0  0  0  0
    1.3231   -2.5835    1.5150 H   0  0  0  0  0  0  0  0  0  0  0  0
   -0.1884   -1.6440    1.5435 H   0  0  0  0  0  0  0  0  0  0  0  0
    0.6686   -1.9961    3.0744 H   0  0  0  0  0  0  0  0  0  0  0  0
    4.0073   -0.4247   -1.8175 C   0  0  0  0  0  0  0  0  0  0  0  0
    4.8981   -1.0172   -2.1092 H   0  0  0  0  0  0  0  0  0  0  0  0
    4.2903    0.6430   -1.8524 H   0  0  0  0  0  0  0  0  0  0  0  0
    3.2224   -0.5987   -2.5809 H   0  0  0  0  0  0  0  0  0  0  0  0
    3.4061   -2.3981   -0.3543 C   0  0  0  0  0  0  0  0  0  0  0  0
    2.5963   -2.7548   -1.0214 H   0  0  0  0  0  0  0  0  0  0  0  0
    3.1917   -2.7676    0.6651 H   0  0  0  0  0  0  0  0  0  0  0  0
    4.3563   -2.8633   -0.6866 H   0  0  0  0  0  0  0  0  0  0  0  0
    2.1251    2.4172   -1.4330 C   0  0  0  0  0  0  0  0  0  0  0  0
    2.0469    3.5217   -1.3722 H   0  0  0  0  0  0  0  0  0  0  0  0
    1.2032    2.0475   -1.9184 H   0  0  0  0  0  0  0  0  0  0  0  0
    2.9963    2.1755   -2.0708 H   0  0  0  0  0  0  0  0  0  0  0  0
    3.5464    2.3358    0.6859 C   0  0  0  0  0  0  0  0  0  0  0  0
    4.4566    1.9255    0.2027 H   0  0  0  0  0  0  0  0  0  0  0  0
    3.5793    2.0793    1.7617 H   0  0  0  0  0  0  0  0  0  0  0  0
    3.6106    3.4406    0.6131 H   0  0  0  0  0  0  0  0  0  0  0  0
  1  2  1  0  0  0  0
  2  3  1  0  0  0  0
  3 16  1  0  0  0  0
  3 12  1  0  0  0  0
  3  8  1  0  0  0  0
  4 24  1  0  0  0  0
  4  2  1  0  0  0  0
  4  5  1  0  0  0  0
  6  2  1  0  0  0  0
  6  7  1  0  0  0  0
  6 32  1  0  0  0  0
  8  9  1  0  0  0  0
 10  8  1  0  0  0  0
 11  8  1  0  0  0  0
 12 14  1  0  0  0  0
 12 15  1  0  0  0  0
 13 12  1  0  0  0  0
 16 19  1  0  0  0  0
 17 16  1  0  0  0  0
 18 16  1  0  0  0  0
 20  4  1  0  0  0  0
 21 20  1  0  0  0  0
 22 20  1  0  0  0  0
 23 20  1  0  0  0  0
 24 26  1  0  0  0  0
 25 24  1  0  0  0  0
 27 24  1  0  0  0  0
 28 29  1  0  0  0  0
 28  6  1  0  0  0  0
 30 28  1  0  0  0  0
 31 28  1  0  0  0  0
 32 34  1  0  0  0  0
 33 32  1  0  0  0  0
 35 32  1  0  0  0  0
M  END
