1
q = 0.0, confidence = 1.0

 38 37  0  0  0  0  0  0  0  0999 V2000
   -0.0852   -1.4966   -0.4732 Se  0  0  0  0  0  1  0  0  0  0  0  0
   -1.6183    0.0583   -0.0849 P   0  0  0  0  0  4  0  0  0  0  0  0
   -1.8438    0.2819    1.8050 C   0  0  0  0  0  0  0  0  0  0  0  0
   -1.2417    1.6988   -1.0159 C   0  0  0  0  0  0  0  0  0  0  0  0
   -3.1977   -0.6124   -0.8906 C   0  0  0  0  0  0  0  0  0  0  0  0
   -3.0408   -0.2608   -1.9343 H   0  0  0  0  0  0  0  0  0  0  0  0
   -2.4415   -1.0386    2.3289 C   0  0  0  0  0  0  0  0  0  0  0  0
   -1.8135   -1.9032    2.0350 H   0  0  0  0  0  0  0  0  0  0  0  0
   -3.4772   -1.2121    1.9806 H   0  0  0  0  0  0  0  0  0  0  0  0
   -2.4657   -0.9976    3.4376 H   0  0  0  0  0  0  0  0  0  0  0  0
   -2.7632    1.4681    2.1476 C   0  0  0  0  0  0  0  0  0  0  0  0
   -2.8854    1.5031    3.2505 H   0  0  0  0  0  0  0  0  0  0  0  0
   -3.7732    1.3801    1.7086 H   0  0  0  0  0  0  0  0  0  0  0  0
   -2.3257    2.4373    1.8414 H   0  0  0  0  0  0  0  0  0  0  0  0
   -0.4723    0.4848    2.4740 C   0  0  0  0  0  0  0  0  0  0  0  0
    0.0301    1.4176    2.1628 H   0  0  0  0  0  0  0  0  0  0  0  0
    0.2169   -0.3557    2.2647 H   0  0  0  0  0  0  0  0  0  0  0  0
   -0.6332    0.5354    3.5712 H   0  0  0  0  0  0  0  0  0  0  0  0
   -0.2063    2.5411   -0.2546 C   0  0  0  0  0  0  0  0  0  0  0  0
    0.7203    1.9658   -0.0417 H   0  0  0  0  0  0  0  0  0  0  0  0
   -0.6040    2.9513    0.6931 H   0  0  0  0  0  0  0  0  0  0  0  0
    0.0806    3.4010   -0.8944 H   0  0  0  0  0  0  0  0  0  0  0  0
   -0.6649    1.3117   -2.3902 C   0  0  0  0  0  0  0  0  0  0  0  0
   -0.5120    2.2417   -2.9763 H   0  0  0  0  0  0  0  0  0  0  0  0
   -1.3441    0.6558   -2.9717 H   0  0  0  0  0  0  0  0  0  0  0  0
    0.3101    0.7976   -2.2896 H   0  0  0  0  0  0  0  0  0  0  0  0
   -2.5265    2.5253   -1.2203 C   0  0  0  0  0  0  0  0  0  0  0  0
   -3.0252    2.7959   -0.2708 H   0  0  0  0  0  0  0  0  0  0  0  0
   -3.2582    2.0211   -1.8801 H   0  0  0  0  0  0  0  0  0  0  0  0
   -2.2414    3.4737   -1.7213 H   0  0  0  0  0  0  0  0  0  0  0  0
   -3.2656   -2.1452   -0.9315 C   0  0  0  0  0  0  0  0  0  0  0  0
   -3.3907   -2.5832    0.0774 H   0  0  0  0  0  0  0  0  0  0  0  0
   -2.3645   -2.5909   -1.3924 H   0  0  0  0  0  0  0  0  0  0  0  0
   -4.1441   -2.4447   -1.5393 H   0  0  0  0  0  0  0  0  0  0  0  0
   -4.5266   -0.0306   -0.3837 C   0  0  0  0  0  0  0  0  0  0  0  0
   -5.3356   -0.3530   -1.0709 H   0  0  0  0  0  0  0  0  0  0  0  0
   -4.5468    1.0723   -0.3460 H   0  0  0  0  0  0  0  0  0  0  0  0
   -4.7863   -0.4173    0.6208 H   0  0  0  0  0  0  0  0  0  0  0  0
  1  2  1  0  0  0  0
  2  3  1  0  0  0  0
  3 11  1  0  0  0  0
  3  7  1  0  0  0  0
  3 15  1  0  0  0  0
  4 19  1  0  0  0  0
  4  2  1  0  0  0  0
  5 35  1  0  0  0  0
  5  2  1  0  0  0  0
  6  5  1  0  0  0  0
  7 10  1  0  0  0  0
  8  7  1  0  0  0  0
  9  7  1  0  0  0  0
 11 12  1  0  0  0  0
 13 11  1  0  0  0  0
 14 11  1  0  0  0  0
 15 18  1  0  0  0  0
 16 15  1  0  0  0  0
 17 15  1  0  0  0  0
 19 20  1  0  0  0  0
 19 21  1  0  0  0  0
 22 19  1  0  0  0  0
 23 26  1  0  0  0  0
 23  4  1  0  0  0  0
 24 23  1  0  0  0  0
 25 23  1  0  0  0  0
 27  4  1  0  0  0  0
 27 28  1  0  0  0  0
 29 27  1  0  0  0  0
 30 27  1  0  0  0  0
 31  5  1  0  0  0  0
 31 32  1  0  0  0  0
 33 31  1  0  0  0  0
 34 31  1  0  0  0  0
 35 37  1  0  0  0  0
 35 38  1  0  0  0  0
 36 35  1  0  0  0  0
M  END
