1
q = 0.0, confidence = 0.99

 12 12  0  0  1  0  0  0  0  0999 V2000
   -2.1019   -1.2521   -0.6529 Se  0  0  0  0  0  1  0  0  0  0  0  0
   -2.9764    1.0468    0.9927 C   0  0  0  0  0  0  0  0  0  0  0  0
   -1.9494    1.4321    0.9247 H   0  0  0  0  0  0  0  0  0  0  0  0
   -3.2728   -0.1797    0.3418 C   0  0  1  0  0  3  0  0  0  0  0  0
   -4.5707   -0.6228    0.4514 N   0  0  0  0  0  0  0  0  0  0  0  0
   -4.8018   -1.5074   -0.0174 H   0  0  0  0  0  0  0  0  0  0  0  0
   -5.5588    0.0288    1.1268 C   0  0  0  0  0  0  0  0  0  0  0  0
   -6.5474   -0.4511    1.1222 H   0  0  0  0  0  0  0  0  0  0  0  0
   -5.2846    1.2234    1.7646 C   0  0  0  0  0  0  0  0  0  0  0  0
   -6.0790    1.7508    2.3083 H   0  0  0  0  0  0  0  0  0  0  0  0
   -3.9639    1.7334    1.6899 C   0  0  0  0  0  0  0  0  0  0  0  0
   -3.7156    2.6831    2.1871 H   0  0  0  0  0  0  0  0  0  0  0  0
  2 11  2  0  0  0  0
  3  2  1  0  0  0  0
  4  1  1  6  0  0  0
  4  5  1  0  0  0  0
  4  2  1  0  0  0  0
  5  7  1  0  0  0  0
  6  5  1  0  0  0  0
  7  9  2  0  0  0  0
  8  7  1  0  0  0  0
  9 10  1  0  0  0  0
 11  9  1  0  0  0  0
 11 12  1  0  0  0  0
M  END
