1
q = -1.0

 12 12  0  0  0  0  0  0  0  0999 V2000
   -0.3010   -0.2764   -1.8037 Se  0  0  0  0  0  0  0  0  0  0  0  0
   -3.0145    1.2787   -1.4337 F   0  0  0  0  0  0  0  0  0  0  0  0
   -5.4309    0.3700   -0.6603 F   0  0  0  0  0  0  0  0  0  0  0  0
   -5.8239   -2.2994   -0.1774 F   0  0  0  0  0  0  0  0  0  0  0  0
   -3.7338   -4.0553   -0.4358 F   0  0  0  0  0  0  0  0  0  0  0  0
   -1.2839   -3.1637   -1.1571 F   0  0  0  0  0  0  0  0  0  0  0  0
   -2.0494   -0.9122   -1.3478 C   0  0  0  0  0  0  0  0  0  0  0  0
   -3.1547   -0.0469   -1.2310 C   0  0  0  0  0  0  0  0  0  0  0  0
   -4.4207   -0.4964   -0.8303 C   0  0  0  0  0  0  0  0  0  0  0  0
   -4.6235   -1.8619   -0.5752 C   0  0  0  0  0  0  0  0  0  0  0  0
   -3.5480   -2.7564   -0.7015 C   0  0  0  0  0  0  0  0  0  0  0  0
   -2.2828   -2.2790   -1.0863 C   0  0  0  0  0  0  0  0  0  0  0  0
  1  7  1  0  0  0  0
  2  8  1  0  0  0  0
  6 12  1  0  0  0  0
  7  8  2  0  0  0  0
  7 12  1  0  0  0  0
  8  9  1  0  0  0  0
  9  3  1  0  0  0  0
  9 10  2  0  0  0  0
 10  4  1  0  0  0  0
 11 10  1  0  0  0  0
 11  5  1  0  0  0  0
 12 11  2  0  0  0  0
M  END
