1
q = 0.0, confidence = 0.962

 15 15  0  0  1  0  0  0  0  0999 V2000
    1.4832   -1.6028   -1.4132 Se  0  0  0  0  0  1  0  0  0  0  0  0
    3.2045   -1.0644    0.8319 N   0  0  0  0  0  0  0  0  0  0  0  0
    2.6853   -0.1934    1.0532 H   0  0  0  0  0  0  0  0  0  0  0  0
    3.9080   -2.7331   -0.4358 N   0  0  0  0  0  0  0  0  0  0  0  0
    2.9401   -1.8062   -0.2601 C   0  0  2  0  0  3  0  0  0  0  0  0
    4.5144   -1.3845    1.4030 C   0  0  0  0  0  0  0  0  0  0  0  0
    4.4579   -1.5086    2.5020 H   0  0  0  0  0  0  0  0  0  0  0  0
    5.2430   -0.5734    1.1863 H   0  0  0  0  0  0  0  0  0  0  0  0
    4.8724   -2.6978    0.6732 C   0  0  0  0  0  0  0  0  0  0  0  0
    5.9129   -2.7128    0.2910 H   0  0  0  0  0  0  0  0  0  0  0  0
    4.7322   -3.5956    1.3161 H   0  0  0  0  0  0  0  0  0  0  0  0
    3.9167   -3.8086   -1.4027 C   0  0  0  0  0  0  0  0  0  0  0  0
    3.0471   -3.6996   -2.0774 H   0  0  0  0  0  0  0  0  0  0  0  0
    3.8535   -4.7931   -0.8912 H   0  0  0  0  0  0  0  0  0  0  0  0
    4.8473   -3.7821   -2.0060 H   0  0  0  0  0  0  0  0  0  0  0  0
  2  3  1  0  0  0  0
  2  6  1  0  0  0  0
  4  5  1  0  0  0  0
  4  9  1  0  0  0  0
  5  1  1  6  0  0  0
  5  2  1  0  0  0  0
  6  7  1  0  0  0  0
  8  6  1  0  0  0  0
  9 11  1  0  0  0  0
  9  6  1  0  0  0  0
 10  9  1  0  0  0  0
 12 14  1  0  0  0  0
 12  4  1  0  0  0  0
 13 12  1  0  0  0  0
 15 12  1  0  0  0  0
M  END
