1
q = -1.0

 23 23  0  0  0  0  0  0  0  0999 V2000
    2.5190   -1.5076   -0.0932 Se  0  0  0  0  0  1  0  0  0  0  0  0
    2.9838    0.3661    0.0110 C   0  0  0  0  0  0  0  0  0  0  0  0
    3.7598    0.9009   -1.0399 C   0  0  0  0  0  0  0  0  0  0  0  0
    4.1698    2.2416   -1.0234 C   0  0  0  0  0  0  0  0  0  0  0  0
    3.8046    3.0704    0.0485 C   0  0  0  0  0  0  0  0  0  0  0  0
    3.0467    2.5384    1.1013 C   0  0  0  0  0  0  0  0  0  0  0  0
    2.6285    1.1921    1.1107 C   0  0  0  0  0  0  0  0  0  0  0  0
    1.8390    0.6609    2.2839 C   0  0  0  0  0  0  0  0  0  0  0  0
    0.3851    0.5976    2.0515 N   0  0  0  0  0  0  0  0  0  0  0  0
   -0.2845   -0.1270    3.1300 C   0  0  0  0  0  0  0  0  0  0  0  0
   -0.2067    1.9191    1.8639 C   0  0  0  0  0  0  0  0  0  0  0  0
    4.0343    0.2482   -1.8824 H   0  0  0  0  0  0  0  0  0  0  0  0
    4.7725    2.6386   -1.8546 H   0  0  0  0  0  0  0  0  0  0  0  0
    4.1162    4.1255    0.0702 H   0  0  0  0  0  0  0  0  0  0  0  0
    2.7744    3.1785    1.9560 H   0  0  0  0  0  0  0  0  0  0  0  0
    2.1803   -0.3747    2.4943 H   0  0  0  0  0  0  0  0  0  0  0  0
    2.0544    1.2852    3.1887 H   0  0  0  0  0  0  0  0  0  0  0  0
   -1.3601   -0.2433    2.8902 H   0  0  0  0  0  0  0  0  0  0  0  0
   -0.1877    0.4001    4.1127 H   0  0  0  0  0  0  0  0  0  0  0  0
    0.1546   -1.1394    3.2321 H   0  0  0  0  0  0  0  0  0  0  0  0
   -1.2799    1.8196    1.6148 H   0  0  0  0  0  0  0  0  0  0  0  0
    0.2994    2.4473    1.0353 H   0  0  0  0  0  0  0  0  0  0  0  0
   -0.1129    2.5503    2.7850 H   0  0  0  0  0  0  0  0  0  0  0  0
  1  2  1  0  0  0  0
  2  7  1  0  0  0  0
  3  4  1  0  0  0  0
  3  2  2  0  0  0  0
  4  5  2  0  0  0  0
  5 14  1  0  0  0  0
  5  6  1  0  0  0  0
  6  7  2  0  0  0  0
  6 15  1  0  0  0  0
  7  8  1  0  0  0  0
  8 16  1  0  0  0  0
  8 17  1  0  0  0  0
  9  8  1  0  0  0  0
  9 10  1  0  0  0  0
 10 20  1  0  0  0  0
 10 19  1  0  0  0  0
 11  9  1  0  0  0  0
 11 23  1  0  0  0  0
 12  3  1  0  0  0  0
 13  4  1  0  0  0  0
 18 10  1  0  0  0  0
 21 11  1  0  0  0  0
 22 11  1  0  0  0  0
M  END
