1,2,5
q = -1.0

 39 41  0  0  1  0  0  0  0  0999 V2000
   -2.2755   -1.1344   -0.3152 S   0  0  0  0  0  1  0  0  0  0  0  0
    2.2752   -1.1344    0.3149 S   0  0  0  0  0  1  0  0  0  0  0  0
   -3.7270    1.0541   -0.1402 N   0  0  0  0  0  0  0  0  0  0  0  0
    3.7271    1.0538    0.1403 N   0  0  0  0  0  0  0  0  0  0  0  0
    0.0000    0.6577   -0.0004 C   0  0  0  0  0  2  0  0  0  0  0  0
   -1.2396    1.3940   -0.0869 C   0  0  0  0  0  0  0  0  0  0  0  0
   -1.2077    2.8076   -0.1353 C   0  0  0  0  0  0  0  0  0  0  0  0
    0.0000    3.5022   -0.0016 C   0  0  0  0  0  0  0  0  0  0  0  0
    1.2077    2.8077    0.1328 C   0  0  0  0  0  0  0  0  0  0  0  0
    1.2397    1.3940    0.0857 C   0  0  0  0  0  0  0  0  0  0  0  0
   -2.4579    0.5785   -0.1725 C   0  0  1  0  0  3  0  0  0  0  0  0
   -4.8707    0.1421   -0.3261 C   0  0  0  0  0  0  0  0  0  0  0  0
   -6.0974    1.0517   -0.2398 C   0  0  0  0  0  0  0  0  0  0  0  0
   -5.6377    2.1377    0.7385 C   0  0  0  0  0  0  0  0  0  0  0  0
   -4.1839    2.3787    0.3164 C   0  0  0  0  0  0  0  0  0  0  0  0
    2.4578    0.5785    0.1720 C   0  0  0  0  0  0  0  0  0  0  0  0
    4.8705    0.1416    0.3271 C   0  0  0  0  0  0  0  0  0  0  0  0
    6.0974    1.0511    0.2427 C   0  0  0  0  0  0  0  0  0  0  0  0
    5.6390    2.1376   -0.7357 C   0  0  0  0  0  0  0  0  0  0  0  0
    4.1846    2.3784   -0.3155 C   0  0  0  0  0  0  0  0  0  0  0  0
   -2.1211    3.3922   -0.2867 H   0  0  0  0  0  0  0  0  0  0  0  0
    0.0001    4.6018   -0.0022 H   0  0  0  0  0  0  0  0  0  0  0  0
    2.1211    3.3925    0.2836 H   0  0  0  0  0  0  0  0  0  0  0  0
   -4.7700   -0.4031   -1.2873 H   0  0  0  0  0  0  0  0  0  0  0  0
   -4.8557   -0.6309    0.4766 H   0  0  0  0  0  0  0  0  0  0  0  0
   -6.3207    1.4949   -1.2330 H   0  0  0  0  0  0  0  0  0  0  0  0
   -6.9996    0.5058    0.0954 H   0  0  0  0  0  0  0  0  0  0  0  0
   -6.2432    3.0636    0.6994 H   0  0  0  0  0  0  0  0  0  0  0  0
   -5.6692    1.7545    1.7798 H   0  0  0  0  0  0  0  0  0  0  0  0
   -3.5453    2.7462    1.1421 H   0  0  0  0  0  0  0  0  0  0  0  0
   -4.1362    3.1197   -0.5133 H   0  0  0  0  0  0  0  0  0  0  0  0
    4.7686   -0.4041    1.2879 H   0  0  0  0  0  0  0  0  0  0  0  0
    4.8565   -0.6310   -0.4760 H   0  0  0  0  0  0  0  0  0  0  0  0
    6.3194    1.4939    1.2364 H   0  0  0  0  0  0  0  0  0  0  0  0
    7.0000    0.5054   -0.0915 H   0  0  0  0  0  0  0  0  0  0  0  0
    6.2444    3.0635   -0.6955 H   0  0  0  0  0  0  0  0  0  0  0  0
    5.6718    1.7549   -1.7771 H   0  0  0  0  0  0  0  0  0  0  0  0
    3.5471    2.7460   -1.1421 H   0  0  0  0  0  0  0  0  0  0  0  0
    4.1356    3.1193    0.5142 H   0  0  0  0  0  0  0  0  0  0  0  0
  3 15  1  0  0  0  0
  4 16  1  0  0  0  0
  4 17  1  0  0  0  0
  5 10  1  0  0  0  0
  6  5  1  0  0  0  0
  7  6  2  0  0  0  0
  7  8  1  0  0  0  0
  8  9  2  0  0  0  0
  9 23  1  0  0  0  0
 10  9  1  0  0  0  0
 10 16  2  0  0  0  0
 11  1  1  1  0  0  0
 11  3  1  0  0  0  0
 11  6  1  0  0  0  0
 12 13  1  0  0  0  0
 12  3  1  0  0  0  0
 12 25  1  0  0  0  0
 13 27  1  0  0  0  0
 13 14  1  0  0  0  0
 14 29  1  0  0  0  0
 15 14  1  0  0  0  0
 15 30  1  0  0  0  0
 16  2  1  0  0  0  0
 17 32  1  0  0  0  0
 18 17  1  0  0  0  0
 18 34  1  0  0  0  0
 19 36  1  0  0  0  0
 19 20  1  0  0  0  0
 19 18  1  0  0  0  0
 20  4  1  0  0  0  0
 20 39  1  0  0  0  0
 21  7  1  0  0  0  0
 22  8  1  0  0  0  0
 24 12  1  0  0  0  0
 26 13  1  0  0  0  0
 28 14  1  0  0  0  0
 31 15  1  0  0  0  0
 33 17  1  0  0  0  0
 35 18  1  0  0  0  0
 37 19  1  0  0  0  0
 38 20  1  0  0  0  0
M  END
