1,2,3
q = -2.0, confidence = 0.566

 22 23  0  0  0  0  0  0  0  0999 V2000
    1.5000    0.6434   -1.6012 S   0  0  0  0  0  1  0  0  0  0  0  0
    1.6011   -1.0280    1.3703 S   0  0  0  0  0  0  0  0  0  0  0  0
    0.1272   -1.7733   -0.7575 C   0  0  0  0  0  3  0  0  0  0  0  0
   -0.2726   -2.6429   -1.7907 C   0  0  0  0  0  0  0  0  0  0  0  0
   -0.9454   -2.2871   -2.5880 H   0  0  0  0  0  0  0  0  0  0  0  0
    0.1935   -3.9701   -1.8263 C   0  0  0  0  0  0  0  0  0  0  0  0
   -0.1371   -4.6408   -2.6355 H   0  0  0  0  0  0  0  0  0  0  0  0
    1.0799   -4.4512   -0.8453 C   0  0  0  0  0  0  0  0  0  0  0  0
    1.4336   -5.4928   -0.8810 H   0  0  0  0  0  0  0  0  0  0  0  0
    1.5308   -3.5891    0.1686 C   0  0  0  0  0  0  0  0  0  0  0  0
    2.2530   -3.9245    0.9289 H   0  0  0  0  0  0  0  0  0  0  0  0
    1.0435   -2.2740    0.1880 C   0  0  0  0  0  0  0  0  0  0  0  0
    3.0593   -0.4461    0.5074 C   0  0  0  0  0  0  0  0  0  0  0  0
    2.9748    0.2105   -0.7578 C   0  0  0  0  0  0  0  0  0  0  0  0
    4.2039    0.5722   -1.3756 C   0  0  0  0  0  0  0  0  0  0  0  0
    4.1610    1.0617   -2.3607 H   0  0  0  0  0  0  0  0  0  0  0  0
    5.4347    0.3462   -0.7571 C   0  0  0  0  0  0  0  0  0  0  0  0
    6.3596    0.6578   -1.2672 H   0  0  0  0  0  0  0  0  0  0  0  0
    5.4983   -0.2707    0.5069 C   0  0  0  0  0  0  0  0  0  0  0  0
    6.4653   -0.4493    0.9996 H   0  0  0  0  0  0  0  0  0  0  0  0
    4.3076   -0.6735    1.1214 C   0  0  0  0  0  0  0  0  0  0  0  0
    4.3250   -1.1859    2.0953 H   0  0  0  0  0  0  0  0  0  0  0  0
  1 14  1  0  0  0  0
  3 12  1  0  0  0  0
  4  3  2  0  0  0  0
  5  4  1  0  0  0  0
  6  4  1  0  0  0  0
  6  8  2  0  0  0  0
  7  6  1  0  0  0  0
  8 10  1  0  0  0  0
  9  8  1  0  0  0  0
 10 12  2  0  0  0  0
 10 11  1  0  0  0  0
 12  2  1  0  0  0  0
 13 21  1  0  0  0  0
 13  2  1  0  0  0  0
 14 13  2  0  0  0  0
 15 14  1  0  0  0  0
 15 17  2  0  0  0  0
 16 15  1  0  0  0  0
 17 19  1  0  0  0  0
 18 17  1  0  0  0  0
 19 20  1  0  0  0  0
 19 21  2  0  0  0  0
 21 22  1  0  0  0  0
M  END
