1,2,3
q = -1.0

 25 25  0  0  0  0  0  0  0  0999 V2000
    0.6718    2.2860   -0.3308 S   0  0  0  0  0  0  0  0  0  0  0  0
    0.6715   -2.2861    0.3308 S   0  0  0  0  0  0  0  0  0  0  0  0
   -1.1434    0.0001    0.0000 C   0  0  0  0  0  3  0  0  0  0  0  0
   -1.8657    1.1521   -0.4106 C   0  0  0  0  0  0  0  0  0  0  0  0
   -3.2733    1.1510   -0.3933 C   0  0  0  0  0  0  0  0  0  0  0  0
   -3.8288    2.0509   -0.7034 H   0  0  0  0  0  0  0  0  0  0  0  0
   -3.9744    0.0002   -0.0000 C   0  0  0  0  0  0  0  0  0  0  0  0
   -5.0746    0.0003   -0.0001 H   0  0  0  0  0  0  0  0  0  0  0  0
   -3.2734   -1.1506    0.3933 C   0  0  0  0  0  0  0  0  0  0  0  0
   -3.8290   -2.0504    0.7034 H   0  0  0  0  0  0  0  0  0  0  0  0
   -1.8658   -1.1519    0.4107 C   0  0  0  0  0  0  0  0  0  0  0  0
   -1.0844    2.3360   -0.9168 C   0  0  0  0  0  0  0  0  0  0  0  0
   -1.5221    3.3197   -0.6477 H   0  0  0  0  0  0  0  0  0  0  0  0
   -0.9821    2.3118   -2.0232 H   0  0  0  0  0  0  0  0  0  0  0  0
   -1.0847   -2.3358    0.9169 C   0  0  0  0  0  0  0  0  0  0  0  0
   -1.5226   -3.3195    0.6479 H   0  0  0  0  0  0  0  0  0  0  0  0
   -0.9823   -2.3115    2.0233 H   0  0  0  0  0  0  0  0  0  0  0  0
    0.4608    2.8740    1.3856 C   0  0  0  0  0  0  0  0  0  0  0  0
    0.2541    3.9620    1.3755 H   0  0  0  0  0  0  0  0  0  0  0  0
    1.4199    2.6740    1.8984 H   0  0  0  0  0  0  0  0  0  0  0  0
   -0.3533    2.3140    1.8819 H   0  0  0  0  0  0  0  0  0  0  0  0
    0.4603   -2.8741   -1.3856 C   0  0  0  0  0  0  0  0  0  0  0  0
    0.2535   -3.9620   -1.3755 H   0  0  0  0  0  0  0  0  0  0  0  0
    1.4194   -2.6741   -1.8985 H   0  0  0  0  0  0  0  0  0  0  0  0
   -0.3537   -2.3139   -1.8819 H   0  0  0  0  0  0  0  0  0  0  0  0
  1 18  1  0  0  0  0
  2 15  1  0  0  0  0
  3 11  1  0  0  0  0
  4  5  1  0  0  0  0
  4  3  2  0  0  0  0
  5  7  2  0  0  0  0
  6  5  1  0  0  0  0
  7  9  1  0  0  0  0
  8  7  1  0  0  0  0
  9 11  2  0  0  0  0
  9 10  1  0  0  0  0
 11 15  1  0  0  0  0
 12 13  1  0  0  0  0
 12  4  1  0  0  0  0
 12  1  1  0  0  0  0
 14 12  1  0  0  0  0
 15 17  1  0  0  0  0
 16 15  1  0  0  0  0
 18 21  1  0  0  0  0
 18 20  1  0  0  0  0
 19 18  1  0  0  0  0
 22 23  1  0  0  0  0
 22  2  1  0  0  0  0
 24 22  1  0  0  0  0
 25 22  1  0  0  0  0
M  END
