1,2,8
q = -1.0

 62 64  0  0  0  0  0  0  0  0999 V2000
    1.0648    1.7046   -1.8321 S   0  0  0  0  0  0  0  0  0  0  0  0
   -1.0070   -2.2824   -0.6581 S   0  0  0  0  0  0  0  0  0  0  0  0
    4.9766   -4.6591    1.0108 O   0  0  0  0  0  0  0  0  0  0  0  0
    5.3902   -2.7995   -0.2931 N   0  0  0  0  0  0  0  0  0  0  0  0
    6.1453   -2.2807   -0.7426 H   0  0  0  0  0  0  0  0  0  0  0  0
    2.8209    4.4890    3.2114 N   0  0  0  0  0  0  0  0  0  0  0  0
   -5.5902   -1.6229    3.1666 N   0  0  0  0  0  0  0  0  0  0  0  0
    1.5802   -1.0440   -0.9327 C   0  0  0  0  0  3  0  0  0  0  0  0
    1.6899   -2.2362   -0.1768 C   0  0  0  0  0  0  0  0  0  0  0  0
    2.7583   -0.4631   -1.4673 C   0  0  0  0  0  0  0  0  0  0  0  0
    0.4314   -2.8013    0.4218 C   0  0  0  0  0  0  0  0  0  0  0  0
    0.2144   -2.3689    1.4206 H   0  0  0  0  0  0  0  0  0  0  0  0
    0.4336   -3.9060    0.5084 H   0  0  0  0  0  0  0  0  0  0  0  0
    2.6068    0.7719   -2.3096 C   0  0  0  0  0  0  0  0  0  0  0  0
    2.4215    0.5222   -3.3766 H   0  0  0  0  0  0  0  0  0  0  0  0
    3.4649    1.4714   -2.2568 H   0  0  0  0  0  0  0  0  0  0  0  0
   -2.3352   -2.0720    0.5119 C   0  0  0  0  0  0  0  0  0  0  0  0
    1.5823    2.4746   -0.2977 C   0  0  0  0  0  0  0  0  0  0  0  0
    2.9362   -2.8522    0.0365 C   0  0  0  0  0  0  0  0  0  0  0  0
    3.0321   -3.7823    0.6101 H   0  0  0  0  0  0  0  0  0  0  0  0
    4.1046   -2.2539   -0.4813 C   0  0  0  0  0  0  0  0  0  0  0  0
    4.0056   -1.0560   -1.2259 C   0  0  0  0  0  0  0  0  0  0  0  0
    4.9214   -0.5910   -1.6289 H   0  0  0  0  0  0  0  0  0  0  0  0
    5.7625   -3.9298    0.4121 C   0  0  0  0  0  0  0  0  0  0  0  0
    7.2588   -4.2185    0.3845 C   0  0  0  0  0  0  0  0  0  0  0  0
    7.6153   -4.3253    1.4275 H   0  0  0  0  0  0  0  0  0  0  0  0
    7.8695   -3.4509   -0.1300 H   0  0  0  0  0  0  0  0  0  0  0  0
    7.4211   -5.1964   -0.1112 H   0  0  0  0  0  0  0  0  0  0  0  0
    1.5838    1.8114    0.9444 C   0  0  0  0  0  0  0  0  0  0  0  0
    1.2517    0.7636    0.9925 H   0  0  0  0  0  0  0  0  0  0  0  0
    1.9923    2.4727    2.1031 C   0  0  0  0  0  0  0  0  0  0  0  0
    1.9739    1.9217    3.0517 H   0  0  0  0  0  0  0  0  0  0  0  0
    2.4152    3.8339    2.0666 C   0  0  0  0  0  0  0  0  0  0  0  0
    2.3929    4.4946    0.8040 C   0  0  0  0  0  0  0  0  0  0  0  0
    2.6915    5.5470    0.7204 H   0  0  0  0  0  0  0  0  0  0  0  0
    1.9806    3.8243   -0.3493 C   0  0  0  0  0  0  0  0  0  0  0  0
    1.9622    4.3598   -1.3109 H   0  0  0  0  0  0  0  0  0  0  0  0
    2.8088    3.7979    4.4849 C   0  0  0  0  0  0  0  0  0  0  0  0
    1.7861    3.4658    4.7763 H   0  0  0  0  0  0  0  0  0  0  0  0
    3.1812    4.4765    5.2731 H   0  0  0  0  0  0  0  0  0  0  0  0
    3.4626    2.8970    4.4766 H   0  0  0  0  0  0  0  0  0  0  0  0
    3.2085    5.8838    3.1492 C   0  0  0  0  0  0  0  0  0  0  0  0
    4.0735    6.0466    2.4674 H   0  0  0  0  0  0  0  0  0  0  0  0
    3.5055    6.2266    4.1566 H   0  0  0  0  0  0  0  0  0  0  0  0
    2.3781    6.5377    2.7977 H   0  0  0  0  0  0  0  0  0  0  0  0
   -3.3174   -3.0749    0.6088 C   0  0  0  0  0  0  0  0  0  0  0  0
   -3.2418   -3.9754   -0.0194 H   0  0  0  0  0  0  0  0  0  0  0  0
   -4.3918   -2.9359    1.4890 C   0  0  0  0  0  0  0  0  0  0  0  0
   -5.1403   -3.7367    1.5339 H   0  0  0  0  0  0  0  0  0  0  0  0
   -4.5268   -1.7724    2.3012 C   0  0  0  0  0  0  0  0  0  0  0  0
   -3.5286   -0.7608    2.1764 C   0  0  0  0  0  0  0  0  0  0  0  0
   -3.6018    0.1675    2.7562 H   0  0  0  0  0  0  0  0  0  0  0  0
   -2.4589   -0.9084    1.2961 C   0  0  0  0  0  0  0  0  0  0  0  0
   -1.7196   -0.1004    1.1879 H   0  0  0  0  0  0  0  0  0  0  0  0
   -5.7372   -0.3991    3.9299 C   0  0  0  0  0  0  0  0  0  0  0  0
   -5.8503    0.4961    3.2769 H   0  0  0  0  0  0  0  0  0  0  0  0
   -4.8649   -0.2195    4.5972 H   0  0  0  0  0  0  0  0  0  0  0  0
   -6.6372   -0.4715    4.5664 H   0  0  0  0  0  0  0  0  0  0  0  0
   -6.6203   -2.6402    3.2307 C   0  0  0  0  0  0  0  0  0  0  0  0
   -6.2066   -3.6308    3.5237 H   0  0  0  0  0  0  0  0  0  0  0  0
   -7.1481   -2.7713    2.2582 H   0  0  0  0  0  0  0  0  0  0  0  0
   -7.3714   -2.3532    3.9884 H   0  0  0  0  0  0  0  0  0  0  0  0
  1 18  1  0  0  0  0
  2 11  1  0  0  0  0
  2 17  1  0  0  0  0
  4 24  1  0  0  0  0
  5  4  1  0  0  0  0
  6 38  1  0  0  0  0
  7 59  1  0  0  0  0
  7 55  1  0  0  0  0
  8  9  1  0  0  0  0
  9 19  2  0  0  0  0
  9 11  1  0  0  0  0
 10 22  1  0  0  0  0
 10  8  2  0  0  0  0
 11 13  1  0  0  0  0
 11 12  1  0  0  0  0
 14 16  1  0  0  0  0
 14  1  1  0  0  0  0
 14 10  1  0  0  0  0
 15 14  1  0  0  0  0
 17 46  2  0  0  0  0
 17 53  1  0  0  0  0
 18 29  1  0  0  0  0
 19 20  1  0  0  0  0
 21  4  1  0  0  0  0
 21 19  1  0  0  0  0
 22 21  2  0  0  0  0
 23 22  1  0  0  0  0
 24  3  2  0  0  0  0
 25 24  1  0  0  0  0
 25 26  1  0  0  0  0
 27 25  1  0  0  0  0
 28 25  1  0  0  0  0
 29 30  1  0  0  0  0
 29 31  2  0  0  0  0
 31 32  1  0  0  0  0
 33 31  1  0  0  0  0
 33  6  1  0  0  0  0
 34 33  2  0  0  0  0
 35 34  1  0  0  0  0
 36 18  2  0  0  0  0
 36 34  1  0  0  0  0
 37 36  1  0  0  0  0
 38 39  1  0  0  0  0
 38 40  1  0  0  0  0
 41 38  1  0  0  0  0
 42  6  1  0  0  0  0
 42 44  1  0  0  0  0
 43 42  1  0  0  0  0
 45 42  1  0  0  0  0
 46 48  1  0  0  0  0
 47 46  1  0  0  0  0
 48 49  1  0  0  0  0
 48 50  2  0  0  0  0
 50  7  1  0  0  0  0
 51 50  1  0  0  0  0
 51 52  1  0  0  0  0
 53 51  2  0  0  0  0
 54 53  1  0  0  0  0
 55 58  1  0  0  0  0
 55 57  1  0  0  0  0
 56 55  1  0  0  0  0
 59 60  1  0  0  0  0
 59 62  1  0  0  0  0
 61 59  1  0  0  0  0
M  END
