1,2,5
q = -1.0

 45 47  0  0  1  0  0  0  0  0999 V2000
   -2.3038    1.5723    0.0197 S   0  0  0  0  0  1  0  0  0  0  0  0
    2.3039    1.5722    0.0196 S   0  0  0  0  0  1  0  0  0  0  0  0
   -3.6788   -0.7156    0.2080 N   0  0  0  0  0  0  0  0  0  0  0  0
    3.6787   -0.7157    0.2081 N   0  0  0  0  0  0  0  0  0  0  0  0
   -0.0000   -0.2046   -0.0425 C   0  0  0  0  0  3  0  0  0  0  0  0
   -1.2313   -0.9269   -0.1586 C   0  0  0  0  0  0  0  0  0  0  0  0
   -1.2153   -2.2729   -0.5978 C   0  0  0  0  0  0  0  0  0  0  0  0
   -0.0001   -2.9277   -0.8400 C   0  0  0  0  0  0  0  0  0  0  0  0
    1.2152   -2.2729   -0.5978 C   0  0  0  0  0  0  0  0  0  0  0  0
    1.2312   -0.9269   -0.1587 C   0  0  0  0  0  0  0  0  0  0  0  0
   -2.4573   -0.1404    0.0334 C   0  0  1  0  0  3  0  0  0  0  0  0
   -4.9106    0.0704    0.0843 C   0  0  0  0  0  0  0  0  0  0  0  0
   -5.9970   -0.7562   -0.6142 C   0  0  0  0  0  0  0  0  0  0  0  0
   -6.2416   -2.0952    0.0903 C   0  0  0  0  0  0  0  0  0  0  0  0
   -4.9240   -2.8604    0.2661 C   0  0  0  0  0  0  0  0  0  0  0  0
   -3.8811   -1.9730    0.9459 C   0  0  0  0  0  0  0  0  0  0  0  0
    2.4572   -0.1405    0.0333 C   0  0  2  0  0  3  0  0  0  0  0  0
    3.8810   -1.9731    0.9460 C   0  0  0  0  0  0  0  0  0  0  0  0
    4.9238   -2.8605    0.2662 C   0  0  0  0  0  0  0  0  0  0  0  0
    6.2415   -2.0955    0.0903 C   0  0  0  0  0  0  0  0  0  0  0  0
    5.9969   -0.7564   -0.6142 C   0  0  0  0  0  0  0  0  0  0  0  0
    4.9105    0.0703    0.0843 C   0  0  0  0  0  0  0  0  0  0  0  0
   -2.1547   -2.7965   -0.8258 H   0  0  0  0  0  0  0  0  0  0  0  0
   -0.0001   -3.9530   -1.2375 H   0  0  0  0  0  0  0  0  0  0  0  0
    2.1546   -2.7966   -0.8259 H   0  0  0  0  0  0  0  0  0  0  0  0
   -5.2477    0.3898    1.0988 H   0  0  0  0  0  0  0  0  0  0  0  0
   -4.6804    0.9913   -0.4838 H   0  0  0  0  0  0  0  0  0  0  0  0
   -6.9281   -0.1550   -0.6581 H   0  0  0  0  0  0  0  0  0  0  0  0
   -5.6807   -0.9363   -1.6644 H   0  0  0  0  0  0  0  0  0  0  0  0
   -6.6871   -1.9074    1.0929 H   0  0  0  0  0  0  0  0  0  0  0  0
   -6.9785   -2.7043   -0.4721 H   0  0  0  0  0  0  0  0  0  0  0  0
   -5.0737   -3.7772    0.8729 H   0  0  0  0  0  0  0  0  0  0  0  0
   -4.5379   -3.1853   -0.7250 H   0  0  0  0  0  0  0  0  0  0  0  0
   -2.9140   -2.4843    1.0812 H   0  0  0  0  0  0  0  0  0  0  0  0
   -4.2432   -1.6966    1.9655 H   0  0  0  0  0  0  0  0  0  0  0  0
    4.2430   -1.6967    1.9655 H   0  0  0  0  0  0  0  0  0  0  0  0
    2.9138   -2.4843    1.0813 H   0  0  0  0  0  0  0  0  0  0  0  0
    5.0735   -3.7773    0.8729 H   0  0  0  0  0  0  0  0  0  0  0  0
    4.5377   -3.1855   -0.7250 H   0  0  0  0  0  0  0  0  0  0  0  0
    6.6869   -1.9077    1.0929 H   0  0  0  0  0  0  0  0  0  0  0  0
    6.9784   -2.7045   -0.4721 H   0  0  0  0  0  0  0  0  0  0  0  0
    6.9281   -0.1552   -0.6581 H   0  0  0  0  0  0  0  0  0  0  0  0
    5.6806   -0.9365   -1.6643 H   0  0  0  0  0  0  0  0  0  0  0  0
    4.6804    0.9911   -0.4838 H   0  0  0  0  0  0  0  0  0  0  0  0
    5.2476    0.3896    1.0988 H   0  0  0  0  0  0  0  0  0  0  0  0
  3 16  1  0  0  0  0
  4 18  1  0  0  0  0
  6  5  1  0  0  0  0
  6 11  1  0  0  0  0
  7  6  2  0  0  0  0
  8  9  2  0  0  0  0
  8  7  1  0  0  0  0
  9 10  1  0  0  0  0
 10  5  2  0  0  0  0
 10 17  1  0  0  0  0
 11  1  1  6  0  0  0
 11  3  1  0  0  0  0
 12  3  1  0  0  0  0
 12 26  1  0  0  0  0
 13 12  1  0  0  0  0
 13 14  1  0  0  0  0
 14 15  1  0  0  0  0
 14 30  1  0  0  0  0
 15 32  1  0  0  0  0
 15 16  1  0  0  0  0
 16 34  1  0  0  0  0
 16 35  1  0  0  0  0
 17  2  1  6  0  0  0
 17  4  1  0  0  0  0
 18 37  1  0  0  0  0
 18 36  1  0  0  0  0
 19 38  1  0  0  0  0
 19 18  1  0  0  0  0
 20 19  1  0  0  0  0
 20 40  1  0  0  0  0
 21 22  1  0  0  0  0
 21 20  1  0  0  0  0
 22  4  1  0  0  0  0
 22 45  1  0  0  0  0
 23  7  1  0  0  0  0
 24  8  1  0  0  0  0
 25  9  1  0  0  0  0
 27 12  1  0  0  0  0
 28 13  1  0  0  0  0
 29 13  1  0  0  0  0
 31 14  1  0  0  0  0
 33 15  1  0  0  0  0
 39 19  1  0  0  0  0
 41 20  1  0  0  0  0
 42 21  1  0  0  0  0
 43 21  1  0  0  0  0
 44 22  1  0  0  0  0
M  END
