2,3,9
q = -1.0, confidence = 0.004

 50 53  0  0  1  0  0  0  0  0999 V2000
   -2.5832    0.2041   -0.2079 P   0  0  0  0  0  4  0  0  0  0  0  0
   -1.8729   -0.3854   -1.9811 S   0  0  0  0  0  1  0  0  0  0  0  0
    2.4375   -0.8787   -0.2710 S   0  0  0  0  0  1  0  0  0  0  0  0
    4.1197    1.1824    0.2384 N   0  0  0  0  0  0  0  0  0  0  0  0
    4.1799    2.1968    0.3629 H   0  0  0  0  0  0  0  0  0  0  0  0
   -1.9860    1.7084    0.3117 N   0  0  0  0  0  0  0  0  0  0  0  0
   -2.6879    2.4385    0.4471 H   0  0  0  0  0  0  0  0  0  0  0  0
    1.7488    1.6946    0.2970 C   0  0  0  0  0  0  0  0  0  0  0  0
    0.4218    1.2250    0.0181 C   0  0  0  0  0  3  0  0  0  0  0  0
   -0.6377    2.1016    0.3882 C   0  0  0  0  0  0  0  0  0  0  0  0
   -0.3842    3.4001    0.8807 C   0  0  0  0  0  0  0  0  0  0  0  0
   -1.2334    4.0566    1.1325 H   0  0  0  0  0  0  0  0  0  0  0  0
    0.9264    3.8518    1.0789 C   0  0  0  0  0  0  0  0  0  0  0  0
    1.1072    4.8622    1.4733 H   0  0  0  0  0  0  0  0  0  0  0  0
    1.9920    2.9931    0.8127 C   0  0  0  0  0  0  0  0  0  0  0  0
    3.0092    3.3445    1.0520 H   0  0  0  0  0  0  0  0  0  0  0  0
   -2.3321   -0.9970    1.1362 C   0  0  0  0  0  0  0  0  0  0  0  0
   -2.0533   -2.3455    0.8373 C   0  0  0  0  0  0  0  0  0  0  0  0
   -1.9176   -2.6651   -0.2086 H   0  0  0  0  0  0  0  0  0  0  0  0
   -1.8783   -3.2564    1.8887 C   0  0  0  0  0  0  0  0  0  0  0  0
   -1.6404   -4.3052    1.6573 H   0  0  0  0  0  0  0  0  0  0  0  0
   -1.9762   -2.8286    3.2228 C   0  0  0  0  0  0  0  0  0  0  0  0
   -1.8270   -3.5476    4.0428 H   0  0  0  0  0  0  0  0  0  0  0  0
   -2.2470   -1.4814    3.5155 C   0  0  0  0  0  0  0  0  0  0  0  0
   -2.3087   -1.1433    4.5610 H   0  0  0  0  0  0  0  0  0  0  0  0
   -2.4249   -0.5605    2.4735 C   0  0  0  0  0  0  0  0  0  0  0  0
   -2.6170    0.5009    2.6924 H   0  0  0  0  0  0  0  0  0  0  0  0
   -4.3694    0.5866   -0.2872 C   0  0  0  0  0  0  0  0  0  0  0  0
   -5.3054   -0.0446    0.5544 C   0  0  0  0  0  0  0  0  0  0  0  0
   -4.9661   -0.7734    1.3053 H   0  0  0  0  0  0  0  0  0  0  0  0
   -6.6699    0.2601    0.4287 C   0  0  0  0  0  0  0  0  0  0  0  0
   -7.4008   -0.2346    1.0859 H   0  0  0  0  0  0  0  0  0  0  0  0
   -7.1009    1.1883   -0.5316 C   0  0  0  0  0  0  0  0  0  0  0  0
   -8.1718    1.4232   -0.6272 H   0  0  0  0  0  0  0  0  0  0  0  0
   -6.1681    1.8111   -1.3784 C   0  0  0  0  0  0  0  0  0  0  0  0
   -6.5063    2.5297   -2.1401 H   0  0  0  0  0  0  0  0  0  0  0  0
   -4.8048    1.5080   -1.2643 C   0  0  0  0  0  0  0  0  0  0  0  0
   -4.0723    1.9679   -1.9465 H   0  0  0  0  0  0  0  0  0  0  0  0
    2.8459    0.7355    0.0999 C   0  0  2  0  0  3  0  0  0  0  0  0
    5.3824    0.5673    0.1885 C   0  0  0  0  0  0  0  0  0  0  0  0
    5.5939   -0.8265    0.1118 C   0  0  0  0  0  0  0  0  0  0  0  0
    4.7416   -1.5154    0.0810 H   0  0  0  0  0  0  0  0  0  0  0  0
    6.9040   -1.3250    0.0730 C   0  0  0  0  0  0  0  0  0  0  0  0
    7.0533   -2.4134    0.0106 H   0  0  0  0  0  0  0  0  0  0  0  0
    8.0113   -0.4653    0.1124 C   0  0  0  0  0  0  0  0  0  0  0  0
    9.0330   -0.8711    0.0795 H   0  0  0  0  0  0  0  0  0  0  0  0
    7.8009    0.9216    0.1956 C   0  0  0  0  0  0  0  0  0  0  0  0
    8.6563    1.6128    0.2294 H   0  0  0  0  0  0  0  0  0  0  0  0
    6.5016    1.4336    0.2338 C   0  0  0  0  0  0  0  0  0  0  0  0
    6.3411    2.5225    0.2964 H   0  0  0  0  0  0  0  0  0  0  0  0
  1  6  1  0  0  0  0
  1 17  1  0  0  0  0
  2  1  1  0  0  0  0
  4  5  1  0  0  0  0
  6 10  1  0  0  0  0
  6  7  1  0  0  0  0
  8 15  1  0  0  0  0
  9  8  2  0  0  0  0
  9 10  1  0  0  0  0
 10 11  2  0  0  0  0
 11 13  1  0  0  0  0
 11 12  1  0  0  0  0
 13 14  1  0  0  0  0
 15 16  1  0  0  0  0
 15 13  2  0  0  0  0
 17 26  1  0  0  0  0
 18 17  2  0  0  0  0
 18 20  1  0  0  0  0
 19 18  1  0  0  0  0
 20 22  2  0  0  0  0
 21 20  1  0  0  0  0
 22 24  1  0  0  0  0
 22 23  1  0  0  0  0
 24 25  1  0  0  0  0
 26 27  1  0  0  0  0
 26 24  2  0  0  0  0
 28  1  1  0  0  0  0
 28 29  1  0  0  0  0
 29 30  1  0  0  0  0
 31 29  2  0  0  0  0
 31 32  1  0  0  0  0
 33 31  1  0  0  0  0
 34 33  1  0  0  0  0
 35 37  1  0  0  0  0
 35 33  2  0  0  0  0
 36 35  1  0  0  0  0
 37 28  2  0  0  0  0
 38 37  1  0  0  0  0
 39  3  1  1  0  0  0
 39  4  1  0  0  0  0
 39  8  1  0  0  0  0
 40 49  1  0  0  0  0
 40  4  1  0  0  0  0
 41 40  2  0  0  0  0
 42 41  1  0  0  0  0
 43 41  1  0  0  0  0
 43 45  2  0  0  0  0
 44 43  1  0  0  0  0
 45 47  1  0  0  0  0
 46 45  1  0  0  0  0
 47 48  1  0  0  0  0
 47 49  2  0  0  0  0
 49 50  1  0  0  0  0
M  END
