1,2,5
q = -1.0, confidence = 0.01

 60 64  0  0  0  0  0  0  0  0999 V2000
    2.0183   -1.6234    1.2390 S   0  0  0  0  0  1  0  0  0  0  0  0
   -2.0225   -1.6153   -1.2509 S   0  0  0  0  0  1  0  0  0  0  0  0
    2.6329    0.0374    0.2395 P   0  0  0  0  0  4  0  0  0  0  0  0
   -2.6332    0.0403   -0.2398 P   0  0  0  0  0  4  0  0  0  0  0  0
   -0.0003    0.3768   -0.0053 C   0  0  0  0  0  3  0  0  0  0  0  0
    1.1928    1.1340    0.1234 C   0  0  0  0  0  0  0  0  0  0  0  0
    1.2055    2.5381    0.1223 C   0  0  0  0  0  0  0  0  0  0  0  0
   -0.0001    3.2665    0.0122 C   0  0  0  0  0  0  0  0  0  0  0  0
   -1.2043    2.5406   -0.1033 C   0  0  0  0  0  0  0  0  0  0  0  0
   -1.1922    1.1348   -0.1236 C   0  0  0  0  0  0  0  0  0  0  0  0
    4.0021    0.8975    1.0779 C   0  0  0  0  0  0  0  0  0  0  0  0
    5.3292    0.8222    0.6108 C   0  0  0  0  0  0  0  0  0  0  0  0
    6.3594    1.4407    1.3353 C   0  0  0  0  0  0  0  0  0  0  0  0
    6.0709    2.1300    2.5234 C   0  0  0  0  0  0  0  0  0  0  0  0
    4.7493    2.1962    2.9967 C   0  0  0  0  0  0  0  0  0  0  0  0
    3.7155    1.5773    2.2818 C   0  0  0  0  0  0  0  0  0  0  0  0
    3.1677   -0.3240   -1.4710 C   0  0  0  0  0  0  0  0  0  0  0  0
    3.0420   -1.6311   -1.9755 C   0  0  0  0  0  0  0  0  0  0  0  0
    3.3979   -1.8916   -3.3079 C   0  0  0  0  0  0  0  0  0  0  0  0
    3.8747   -0.8576   -4.1284 C   0  0  0  0  0  0  0  0  0  0  0  0
    3.9924    0.4487   -3.6229 C   0  0  0  0  0  0  0  0  0  0  0  0
    3.6344    0.7209   -2.2954 C   0  0  0  0  0  0  0  0  0  0  0  0
   -3.1641   -0.3311    1.4699 C   0  0  0  0  0  0  0  0  0  0  0  0
   -3.0331   -1.6400    1.9683 C   0  0  0  0  0  0  0  0  0  0  0  0
   -3.3853   -1.9074    3.3004 C   0  0  0  0  0  0  0  0  0  0  0  0
   -3.8637   -0.8786    4.1264 C   0  0  0  0  0  0  0  0  0  0  0  0
   -3.9867    0.4296    3.6268 C   0  0  0  0  0  0  0  0  0  0  0  0
   -3.6325    0.7087    2.2998 C   0  0  0  0  0  0  0  0  0  0  0  0
   -4.0053    0.9047   -1.0690 C   0  0  0  0  0  0  0  0  0  0  0  0
   -5.3322    0.8177   -0.6031 C   0  0  0  0  0  0  0  0  0  0  0  0
   -6.3651    1.4394   -1.3207 C   0  0  0  0  0  0  0  0  0  0  0  0
   -6.0797    2.1435   -2.5009 C   0  0  0  0  0  0  0  0  0  0  0  0
   -4.7584    2.2215   -2.9730 C   0  0  0  0  0  0  0  0  0  0  0  0
   -3.7218    1.5995   -2.2650 C   0  0  0  0  0  0  0  0  0  0  0  0
    0.0099    4.7750   -0.0031 C   0  0  0  0  0  0  0  0  0  0  0  0
    2.1594    3.0832    0.2198 H   0  0  0  0  0  0  0  0  0  0  0  0
   -2.1581    3.0879   -0.1871 H   0  0  0  0  0  0  0  0  0  0  0  0
    5.5553    0.2789   -0.3186 H   0  0  0  0  0  0  0  0  0  0  0  0
    7.3953    1.3800    0.9692 H   0  0  0  0  0  0  0  0  0  0  0  0
    6.8816    2.6142    3.0886 H   0  0  0  0  0  0  0  0  0  0  0  0
    4.5236    2.7285    3.9329 H   0  0  0  0  0  0  0  0  0  0  0  0
    2.6813    1.6108    2.6579 H   0  0  0  0  0  0  0  0  0  0  0  0
    2.6429   -2.4296   -1.3286 H   0  0  0  0  0  0  0  0  0  0  0  0
    3.2918   -2.9119   -3.7057 H   0  0  0  0  0  0  0  0  0  0  0  0
    4.1505   -1.0672   -5.1732 H   0  0  0  0  0  0  0  0  0  0  0  0
    4.3585    1.2613   -4.2686 H   0  0  0  0  0  0  0  0  0  0  0  0
    3.7134    1.7472   -1.9034 H   0  0  0  0  0  0  0  0  0  0  0  0
   -2.6329   -2.4346    1.3173 H   0  0  0  0  0  0  0  0  0  0  0  0
   -3.2753   -2.9291    3.6934 H   0  0  0  0  0  0  0  0  0  0  0  0
   -4.1367   -1.0936    5.1708 H   0  0  0  0  0  0  0  0  0  0  0  0
   -4.3540    1.2381    4.2769 H   0  0  0  0  0  0  0  0  0  0  0  0
   -3.7160    1.7364    1.9124 H   0  0  0  0  0  0  0  0  0  0  0  0
   -5.5557    0.2630    0.3201 H   0  0  0  0  0  0  0  0  0  0  0  0
   -7.4008    1.3697   -0.9556 H   0  0  0  0  0  0  0  0  0  0  0  0
   -6.8926    2.6304   -3.0607 H   0  0  0  0  0  0  0  0  0  0  0  0
   -4.5350    2.7657   -3.9030 H   0  0  0  0  0  0  0  0  0  0  0  0
   -2.6876    1.6425   -2.6402 H   0  0  0  0  0  0  0  0  0  0  0  0
    0.3673    5.1669   -0.9797 H   0  0  0  0  0  0  0  0  0  0  0  0
    0.6848    5.1861    0.7749 H   0  0  0  0  0  0  0  0  0  0  0  0
   -1.0021    5.1906    0.1686 H   0  0  0  0  0  0  0  0  0  0  0  0
  2  4  1  0  0  0  0
  3 11  1  0  0  0  0
  3  1  1  0  0  0  0
  4 10  1  0  0  0  0
  4 23  1  0  0  0  0
  5  6  1  0  0  0  0
  6  3  1  0  0  0  0
  7  6  2  0  0  0  0
  7 36  1  0  0  0  0
  8  7  1  0  0  0  0
  9  8  2  0  0  0  0
 10  9  1  0  0  0  0
 10  5  2  0  0  0  0
 11 16  1  0  0  0  0
 12 11  2  0  0  0  0
 12 13  1  0  0  0  0
 13 14  2  0  0  0  0
 14 15  1  0  0  0  0
 14 40  1  0  0  0  0
 15 41  1  0  0  0  0
 16 42  1  0  0  0  0
 16 15  2  0  0  0  0
 17  3  1  0  0  0  0
 18 17  1  0  0  0  0
 18 43  1  0  0  0  0
 19 18  2  0  0  0  0
 20 21  2  0  0  0  0
 20 19  1  0  0  0  0
 21 22  1  0  0  0  0
 22 47  1  0  0  0  0
 22 17  2  0  0  0  0
 23 24  2  0  0  0  0
 23 28  1  0  0  0  0
 24 25  1  0  0  0  0
 25 49  1  0  0  0  0
 25 26  2  0  0  0  0
 26 50  1  0  0  0  0
 27 26  1  0  0  0  0
 27 51  1  0  0  0  0
 28 27  2  0  0  0  0
 29 30  1  0  0  0  0
 29  4  1  0  0  0  0
 30 53  1  0  0  0  0
 31 54  1  0  0  0  0
 31 30  2  0  0  0  0
 32 31  1  0  0  0  0
 33 32  2  0  0  0  0
 33 34  1  0  0  0  0
 34 29  2  0  0  0  0
 35  8  1  0  0  0  0
 35 60  1  0  0  0  0
 35 59  1  0  0  0  0
 37  9  1  0  0  0  0
 38 12  1  0  0  0  0
 39 13  1  0  0  0  0
 44 19  1  0  0  0  0
 45 20  1  0  0  0  0
 46 21  1  0  0  0  0
 48 24  1  0  0  0  0
 52 28  1  0  0  0  0
 55 32  1  0  0  0  0
 56 33  1  0  0  0  0
 57 34  1  0  0  0  0
 58 35  1  0  0  0  0
M  END
