1,2,3
q = 0.0, confidence = 0.888

 22 22  0  0  0  0  0  0  0  0999 V2000
   -0.7432   -0.0344    0.9008 S   0  0  0  0  0  1  0  0  0  0  0  0
    0.5678   -2.2111   -1.3149 S   0  0  0  0  0  0  0  0  0  0  0  0
   -0.1335   -0.5782   -1.9081 C   0  0  0  0  0  3  0  0  0  0  0  0
   -1.5426   -0.3239   -1.6438 C   0  0  0  0  0  0  0  0  0  0  0  0
   -1.9777   -0.1346   -0.3500 C   0  0  0  0  0  0  0  0  0  0  0  0
   -3.3983   -0.0043    0.0375 C   0  0  0  0  0  0  0  0  0  0  0  0
   -3.7722    0.6703    1.2241 C   0  0  0  0  0  0  0  0  0  0  0  0
   -5.1193    0.8118    1.5806 C   0  0  0  0  0  0  0  0  0  0  0  0
   -6.1293    0.2822    0.7613 C   0  0  0  0  0  0  0  0  0  0  0  0
   -5.7756   -0.3977   -0.4162 C   0  0  0  0  0  0  0  0  0  0  0  0
   -4.4286   -0.5449   -0.7701 C   0  0  0  0  0  0  0  0  0  0  0  0
   -0.7858   -3.0550   -0.4402 C   0  0  0  0  0  0  0  0  0  0  0  0
    0.1705   -0.4729   -2.9654 H   0  0  0  0  0  0  0  0  0  0  0  0
   -2.2580   -0.2677   -2.4821 H   0  0  0  0  0  0  0  0  0  0  0  0
   -2.9781    1.0893    1.8605 H   0  0  0  0  0  0  0  0  0  0  0  0
   -5.3842    1.3438    2.5074 H   0  0  0  0  0  0  0  0  0  0  0  0
   -7.1878    0.3915    1.0423 H   0  0  0  0  0  0  0  0  0  0  0  0
   -6.5577   -0.8299   -1.0593 H   0  0  0  0  0  0  0  0  0  0  0  0
   -4.1616   -1.1078   -1.6769 H   0  0  0  0  0  0  0  0  0  0  0  0
   -0.8999   -2.6535    0.5866 H   0  0  0  0  0  0  0  0  0  0  0  0
   -0.5223   -4.1299   -0.4292 H   0  0  0  0  0  0  0  0  0  0  0  0
   -1.7358   -2.8993   -0.9877 H   0  0  0  0  0  0  0  0  0  0  0  0
  2 12  1  0  0  0  0
  3  4  1  0  0  0  0
  3  2  1  0  0  0  0
  4  5  2  0  0  0  0
  5  6  1  0  0  0  0
  5  1  1  0  0  0  0
  6  7  1  0  0  0  0
  7  8  2  0  0  0  0
  7 15  1  0  0  0  0
  8 16  1  0  0  0  0
  9 17  1  0  0  0  0
  9  8  1  0  0  0  0
 10  9  2  0  0  0  0
 11 10  1  0  0  0  0
 11  6  2  0  0  0  0
 12 21  1  0  0  0  0
 12 20  1  0  0  0  0
 13  3  1  0  0  0  0
 14  4  1  0  0  0  0
 18 10  1  0  0  0  0
 19 11  1  0  0  0  0
 22 12  1  0  0  0  0
M  END
