1,2,7
q = -1.0, confidence = 0.01

 56 60  0  0  0  0  0  0  0  0999 V2000
   -2.0421   -1.2103    1.5295 S   0  0  0  0  0  1  0  0  0  0  0  0
    2.0430    1.2120    1.5291 S   0  0  0  0  0  1  0  0  0  0  0  0
   -2.6491   -0.2385   -0.1535 P   0  0  0  0  0  4  0  0  0  0  0  0
    2.6491    0.2394   -0.1536 P   0  0  0  0  0  4  0  0  0  0  0  0
   -0.0002    0.0013   -3.3242 N   0  0  0  0  0  0  0  0  0  0  0  0
   -1.1877   -0.1217   -1.2207 C   0  0  0  0  0  0  0  0  0  0  0  0
    0.0000    0.0011   -0.4522 C   0  0  0  0  0  3  0  0  0  0  0  0
    1.1877    0.1239   -1.2210 C   0  0  0  0  0  0  0  0  0  0  0  0
    1.1443    0.1095   -2.6262 C   0  0  0  0  0  0  0  0  0  0  0  0
   -1.1445   -0.1071   -2.6260 C   0  0  0  0  0  0  0  0  0  0  0  0
   -3.2003    1.4722    0.1758 C   0  0  0  0  0  0  0  0  0  0  0  0
   -3.6646    2.2756   -0.8866 C   0  0  0  0  0  0  0  0  0  0  0  0
   -4.0336    3.6046   -0.6383 C   0  0  0  0  0  0  0  0  0  0  0  0
   -3.9295    4.1318    0.6607 C   0  0  0  0  0  0  0  0  0  0  0  0
   -3.4556    3.3319    1.7119 C   0  0  0  0  0  0  0  0  0  0  0  0
   -3.0884    1.9979    1.4756 C   0  0  0  0  0  0  0  0  0  0  0  0
   -3.9923   -1.0999   -1.0267 C   0  0  0  0  0  0  0  0  0  0  0  0
   -5.3282   -0.6580   -0.9498 C   0  0  0  0  0  0  0  0  0  0  0  0
   -6.3424   -1.3961   -1.5781 C   0  0  0  0  0  0  0  0  0  0  0  0
   -6.0290   -2.5717   -2.2781 C   0  0  0  0  0  0  0  0  0  0  0  0
   -4.6986   -3.0191   -2.3456 C   0  0  0  0  0  0  0  0  0  0  0  0
   -3.6801   -2.2912   -1.7169 C   0  0  0  0  0  0  0  0  0  0  0  0
    3.9934    1.0990   -1.0269 C   0  0  0  0  0  0  0  0  0  0  0  0
    3.6826    2.2906   -1.7171 C   0  0  0  0  0  0  0  0  0  0  0  0
    4.7020    3.0173   -2.3460 C   0  0  0  0  0  0  0  0  0  0  0  0
    6.0318    2.5682   -2.2784 C   0  0  0  0  0  0  0  0  0  0  0  0
    6.3438    1.3923   -1.5783 C   0  0  0  0  0  0  0  0  0  0  0  0
    5.3288    0.6555   -0.9500 C   0  0  0  0  0  0  0  0  0  0  0  0
    3.1981   -1.4719    0.1761 C   0  0  0  0  0  0  0  0  0  0  0  0
    3.0860   -1.9972    1.4761 C   0  0  0  0  0  0  0  0  0  0  0  0
    3.4517   -3.3315    1.7125 C   0  0  0  0  0  0  0  0  0  0  0  0
    3.9244   -4.1322    0.6613 C   0  0  0  0  0  0  0  0  0  0  0  0
    4.0288   -3.6054   -0.6378 C   0  0  0  0  0  0  0  0  0  0  0  0
    3.6613   -2.2760   -0.8863 C   0  0  0  0  0  0  0  0  0  0  0  0
    2.0738    0.1985   -3.2192 H   0  0  0  0  0  0  0  0  0  0  0  0
   -2.0742   -0.1962   -3.2189 H   0  0  0  0  0  0  0  0  0  0  0  0
   -3.7346    1.8665   -1.9069 H   0  0  0  0  0  0  0  0  0  0  0  0
   -4.3979    4.2343   -1.4640 H   0  0  0  0  0  0  0  0  0  0  0  0
   -4.2144    5.1778    0.8511 H   0  0  0  0  0  0  0  0  0  0  0  0
   -3.3617    3.7468    2.7265 H   0  0  0  0  0  0  0  0  0  0  0  0
   -2.6944    1.3650    2.2875 H   0  0  0  0  0  0  0  0  0  0  0  0
   -5.5731    0.2624   -0.3994 H   0  0  0  0  0  0  0  0  0  0  0  0
   -7.3852   -1.0501   -1.5176 H   0  0  0  0  0  0  0  0  0  0  0  0
   -6.8272   -3.1468   -2.7711 H   0  0  0  0  0  0  0  0  0  0  0  0
   -4.4532   -3.9443   -2.8881 H   0  0  0  0  0  0  0  0  0  0  0  0
   -2.6392   -2.6477   -1.7531 H   0  0  0  0  0  0  0  0  0  0  0  0
    2.6421    2.6483   -1.7534 H   0  0  0  0  0  0  0  0  0  0  0  0
    4.4577    3.9427   -2.8885 H   0  0  0  0  0  0  0  0  0  0  0  0
    6.8307    3.1424   -2.7714 H   0  0  0  0  0  0  0  0  0  0  0  0
    7.3862    1.0452   -1.5178 H   0  0  0  0  0  0  0  0  0  0  0  0
    5.5725   -0.2651   -0.3995 H   0  0  0  0  0  0  0  0  0  0  0  0
    2.6927   -1.3638    2.2879 H   0  0  0  0  0  0  0  0  0  0  0  0
    3.3575   -3.7461    2.7271 H   0  0  0  0  0  0  0  0  0  0  0  0
    4.2081   -5.1785    0.8518 H   0  0  0  0  0  0  0  0  0  0  0  0
    4.3921   -4.2357   -1.4634 H   0  0  0  0  0  0  0  0  0  0  0  0
    3.7314   -1.8672   -1.9067 H   0  0  0  0  0  0  0  0  0  0  0  0
  3 11  1  0  0  0  0
  3  1  1  0  0  0  0
  4 29  1  0  0  0  0
  4  2  1  0  0  0  0
  5  9  2  0  0  0  0
  5 10  1  0  0  0  0
  6  7  1  0  0  0  0
  6  3  1  0  0  0  0
  8  7  2  0  0  0  0
  8  4  1  0  0  0  0
  9  8  1  0  0  0  0
 10  6  2  0  0  0  0
 11 16  1  0  0  0  0
 12 13  1  0  0  0  0
 12 11  2  0  0  0  0
 13 14  2  0  0  0  0
 14 39  1  0  0  0  0
 14 15  1  0  0  0  0
 15 40  1  0  0  0  0
 16 15  2  0  0  0  0
 16 41  1  0  0  0  0
 17 18  1  0  0  0  0
 17  3  1  0  0  0  0
 18 42  1  0  0  0  0
 19 43  1  0  0  0  0
 19 18  2  0  0  0  0
 20 19  1  0  0  0  0
 21 20  2  0  0  0  0
 21 22  1  0  0  0  0
 22 17  2  0  0  0  0
 23 28  1  0  0  0  0
 23  4  1  0  0  0  0
 24 23  2  0  0  0  0
 25 26  2  0  0  0  0
 25 24  1  0  0  0  0
 26 27  1  0  0  0  0
 27 50  1  0  0  0  0
 27 28  2  0  0  0  0
 28 51  1  0  0  0  0
 29 30  1  0  0  0  0
 30 31  2  0  0  0  0
 30 52  1  0  0  0  0
 31 53  1  0  0  0  0
 32 54  1  0  0  0  0
 32 31  1  0  0  0  0
 33 32  2  0  0  0  0
 34 33  1  0  0  0  0
 34 29  2  0  0  0  0
 35  9  1  0  0  0  0
 36 10  1  0  0  0  0
 37 12  1  0  0  0  0
 38 13  1  0  0  0  0
 44 20  1  0  0  0  0
 45 21  1  0  0  0  0
 46 22  1  0  0  0  0
 47 24  1  0  0  0  0
 48 25  1  0  0  0  0
 49 26  1  0  0  0  0
 55 33  1  0  0  0  0
 56 34  1  0  0  0  0
M  END
