1,2,4
q = -1.0, confidence = 0.002

 52 54  0  0  0  0  0  0  0  0999 V2000
    0.7478    2.0601   -1.1091 S   0  0  0  0  0  0  0  0  0  0  0  0
    0.8446   -2.0578    1.0415 S   0  0  0  0  0  0  0  0  0  0  0  0
   -5.0878   -0.4118   -0.3264 O   0  0  0  0  0  0  0  0  0  0  0  0
   -0.9243   -0.0871   -0.1295 C   0  0  0  0  0  3  0  0  0  0  0  0
   -1.6929    1.0713   -0.3892 C   0  0  0  0  0  0  0  0  0  0  0  0
   -0.9889    2.3902   -0.5223 C   0  0  0  0  0  0  0  0  0  0  0  0
    1.7019    3.3094   -0.2396 C   0  0  0  0  0  0  0  0  0  0  0  0
    2.3150    4.3126   -1.0108 C   0  0  0  0  0  0  0  0  0  0  0  0
    3.0739    5.3034   -0.3673 C   0  0  0  0  0  0  0  0  0  0  0  0
    3.2146    5.2876    1.0288 C   0  0  0  0  0  0  0  0  0  0  0  0
    2.6012    4.2776    1.7909 C   0  0  0  0  0  0  0  0  0  0  0  0
    1.8463    3.2794    1.1608 C   0  0  0  0  0  0  0  0  0  0  0  0
   -1.5905   -1.3288    0.0528 C   0  0  0  0  0  0  0  0  0  0  0  0
   -0.7668   -2.5666    0.2591 C   0  0  0  0  0  0  0  0  0  0  0  0
    2.0248   -3.1910    0.2998 C   0  0  0  0  0  0  0  0  0  0  0  0
    2.3249   -3.1424   -1.0753 C   0  0  0  0  0  0  0  0  0  0  0  0
    3.2596   -4.0434   -1.6027 C   0  0  0  0  0  0  0  0  0  0  0  0
    3.8960   -4.9748   -0.7630 C   0  0  0  0  0  0  0  0  0  0  0  0
    3.5979   -5.0094    0.6078 C   0  0  0  0  0  0  0  0  0  0  0  0
    2.6586   -4.1161    1.1480 C   0  0  0  0  0  0  0  0  0  0  0  0
   -3.0963    0.9966   -0.4836 C   0  0  0  0  0  0  0  0  0  0  0  0
   -2.9873   -1.3938    0.0012 C   0  0  0  0  0  0  0  0  0  0  0  0
   -3.7510   -0.2366   -0.2770 C   0  0  0  0  0  0  0  0  0  0  0  0
   -5.9392    0.7113   -0.5913 C   0  0  0  0  0  0  0  0  0  0  0  0
   -7.3821    0.2378   -0.5445 C   0  0  0  0  0  0  0  0  0  0  0  0
   -7.8257   -0.2787    0.8281 C   0  0  0  0  0  0  0  0  0  0  0  0
   -9.2738   -0.7669    0.8443 C   0  0  0  0  0  0  0  0  0  0  0  0
   -0.8834    2.9087    0.4530 H   0  0  0  0  0  0  0  0  0  0  0  0
   -1.4669    3.0851   -1.2410 H   0  0  0  0  0  0  0  0  0  0  0  0
    2.1927    4.3197   -2.1041 H   0  0  0  0  0  0  0  0  0  0  0  0
    3.5527    6.0943   -0.9634 H   0  0  0  0  0  0  0  0  0  0  0  0
    3.8070    6.0680    1.5292 H   0  0  0  0  0  0  0  0  0  0  0  0
    2.7148    4.2648    2.8852 H   0  0  0  0  0  0  0  0  0  0  0  0
    1.3758    2.4733    1.7458 H   0  0  0  0  0  0  0  0  0  0  0  0
   -0.4958   -3.0513   -0.7015 H   0  0  0  0  0  0  0  0  0  0  0  0
   -1.2447   -3.3214    0.9140 H   0  0  0  0  0  0  0  0  0  0  0  0
    1.8336   -2.3970   -1.7203 H   0  0  0  0  0  0  0  0  0  0  0  0
    3.4951   -4.0164   -2.6771 H   0  0  0  0  0  0  0  0  0  0  0  0
    4.6292   -5.6795   -1.1829 H   0  0  0  0  0  0  0  0  0  0  0  0
    4.0937   -5.7396    1.2644 H   0  0  0  0  0  0  0  0  0  0  0  0
    2.4130   -4.1392    2.2201 H   0  0  0  0  0  0  0  0  0  0  0  0
   -3.6710    1.9054   -0.7063 H   0  0  0  0  0  0  0  0  0  0  0  0
   -3.5249   -2.3403    0.1592 H   0  0  0  0  0  0  0  0  0  0  0  0
   -5.6893    1.1377   -1.5895 H   0  0  0  0  0  0  0  0  0  0  0  0
   -5.7573    1.5010    0.1748 H   0  0  0  0  0  0  0  0  0  0  0  0
   -7.5207   -0.5533   -1.3133 H   0  0  0  0  0  0  0  0  0  0  0  0
   -8.0235    1.0897   -0.8587 H   0  0  0  0  0  0  0  0  0  0  0  0
   -7.6903    0.5302    1.5805 H   0  0  0  0  0  0  0  0  0  0  0  0
   -7.1437   -1.0990    1.1374 H   0  0  0  0  0  0  0  0  0  0  0  0
   -9.9788    0.0437    0.5649 H   0  0  0  0  0  0  0  0  0  0  0  0
   -9.5683   -1.1339    1.8474 H   0  0  0  0  0  0  0  0  0  0  0  0
   -9.4267   -1.5990    0.1261 H   0  0  0  0  0  0  0  0  0  0  0  0
  1  6  1  0  0  0  0
  1  7  1  0  0  0  0
  3 23  1  0  0  0  0
  4 13  1  0  0  0  0
  5  4  2  0  0  0  0
  6  5  1  0  0  0  0
  6 28  1  0  0  0  0
  7 12  1  0  0  0  0
  8  9  1  0  0  0  0
  8  7  2  0  0  0  0
  9 10  2  0  0  0  0
 10 32  1  0  0  0  0
 10 11  1  0  0  0  0
 11 33  1  0  0  0  0
 12 34  1  0  0  0  0
 12 11  2  0  0  0  0
 13 14  1  0  0  0  0
 14 36  1  0  0  0  0
 14  2  1  0  0  0  0
 15  2  1  0  0  0  0
 15 20  1  0  0  0  0
 16 15  2  0  0  0  0
 17 16  1  0  0  0  0
 17 18  2  0  0  0  0
 18 19  1  0  0  0  0
 19 20  2  0  0  0  0
 19 40  1  0  0  0  0
 20 41  1  0  0  0  0
 21  5  1  0  0  0  0
 21 23  2  0  0  0  0
 22 13  2  0  0  0  0
 22 43  1  0  0  0  0
 23 22  1  0  0  0  0
 24 25  1  0  0  0  0
 24  3  1  0  0  0  0
 24 45  1  0  0  0  0
 25 26  1  0  0  0  0
 26 27  1  0  0  0  0
 26 49  1  0  0  0  0
 26 48  1  0  0  0  0
 27 51  1  0  0  0  0
 29  6  1  0  0  0  0
 30  8  1  0  0  0  0
 31  9  1  0  0  0  0
 35 14  1  0  0  0  0
 37 16  1  0  0  0  0
 38 17  1  0  0  0  0
 39 18  1  0  0  0  0
 42 21  1  0  0  0  0
 44 24  1  0  0  0  0
 46 25  1  0  0  0  0
 47 25  1  0  0  0  0
 50 27  1  0  0  0  0
 52 27  1  0  0  0  0
M  END
