1,2,7
q = -1.0, confidence = 0.032

 65 68  0  0  0  0  0  0  0  0999 V2000
    2.4200    2.0367   -1.1698 S   0  0  0  0  0  0  0  0  0  0  0  0
    2.5744   -2.4603   -0.0099 S   0  0  0  0  0  0  0  0  0  0  0  0
   -3.3653    3.0814    1.3074 O   0  0  0  0  0  0  0  0  0  0  0  0
   -4.9950    1.6280   -0.4307 O   0  0  0  0  0  0  0  0  0  0  0  0
   -5.6036   -0.9613   -1.4113 O   0  0  0  0  0  0  0  0  0  0  0  0
   -3.9723   -2.4082    0.3358 O   0  0  0  0  0  0  0  0  0  0  0  0
    4.2514   -0.1037   -0.2845 C   0  0  0  0  0  3  0  0  0  0  0  0
    4.9766   -1.1729    0.3029 C   0  0  0  0  0  0  0  0  0  0  0  0
    6.3729   -1.0801    0.4654 C   0  0  0  0  0  0  0  0  0  0  0  0
    7.0568    0.0765    0.0724 C   0  0  0  0  0  0  0  0  0  0  0  0
    6.3545    1.1361   -0.5182 C   0  0  0  0  0  0  0  0  0  0  0  0
    4.9649    1.0468   -0.7184 C   0  0  0  0  0  0  0  0  0  0  0  0
    4.2346    2.1281   -1.4604 C   0  0  0  0  0  0  0  0  0  0  0  0
    2.2435    2.9372    0.4580 C   0  0  0  0  0  0  0  0  0  0  0  0
    0.7851    3.0047    0.7934 C   0  0  0  0  0  0  0  0  0  0  0  0
    0.1774    2.0452    1.6230 C   0  0  0  0  0  0  0  0  0  0  0  0
   -1.2075    2.0446    1.8455 C   0  0  0  0  0  0  0  0  0  0  0  0
   -2.0169    3.0113    1.2096 C   0  0  0  0  0  0  0  0  0  0  0  0
   -1.4115    3.9999    0.4001 C   0  0  0  0  0  0  0  0  0  0  0  0
   -0.0340    3.9892    0.1948 C   0  0  0  0  0  0  0  0  0  0  0  0
   -4.1239    1.9571    1.7448 C   0  0  0  0  0  0  0  0  0  0  0  0
   -5.3830    1.8832    0.9040 C   0  0  0  0  0  0  0  0  0  0  0  0
   -6.0555    1.3782   -1.3370 C   0  0  0  0  0  0  0  0  0  0  0  0
   -6.6398   -0.0228   -1.2065 C   0  0  0  0  0  0  0  0  0  0  0  0
   -5.9102   -2.2793   -1.0133 C   0  0  0  0  0  0  0  0  0  0  0  0
   -4.6059   -3.0153   -0.7914 C   0  0  0  0  0  0  0  0  0  0  0  0
   -2.6599   -2.6417    0.5823 C   0  0  0  0  0  0  0  0  0  0  0  0
   -1.8559   -3.5496   -0.1389 C   0  0  0  0  0  0  0  0  0  0  0  0
   -0.4936   -3.6586    0.1688 C   0  0  0  0  0  0  0  0  0  0  0  0
    0.0937   -2.8728    1.1780 C   0  0  0  0  0  0  0  0  0  0  0  0
   -0.7273   -1.9863    1.9055 C   0  0  0  0  0  0  0  0  0  0  0  0
   -2.0886   -1.8794    1.6252 C   0  0  0  0  0  0  0  0  0  0  0  0
    1.5602   -2.9515    1.4692 C   0  0  0  0  0  0  0  0  0  0  0  0
    4.2484   -2.3979    0.7735 C   0  0  0  0  0  0  0  0  0  0  0  0
    6.9273   -1.9209    0.9105 H   0  0  0  0  0  0  0  0  0  0  0  0
    8.1445    0.1492    0.2169 H   0  0  0  0  0  0  0  0  0  0  0  0
    6.8952    2.0387   -0.8432 H   0  0  0  0  0  0  0  0  0  0  0  0
    4.3364    2.0070   -2.5603 H   0  0  0  0  0  0  0  0  0  0  0  0
    4.5729    3.1553   -1.2128 H   0  0  0  0  0  0  0  0  0  0  0  0
    2.8509    2.4037    1.2130 H   0  0  0  0  0  0  0  0  0  0  0  0
    2.6778    3.9405    0.2728 H   0  0  0  0  0  0  0  0  0  0  0  0
    0.7988    1.2728    2.1039 H   0  0  0  0  0  0  0  0  0  0  0  0
   -1.6473    1.2938    2.5154 H   0  0  0  0  0  0  0  0  0  0  0  0
   -2.0583    4.7540   -0.0702 H   0  0  0  0  0  0  0  0  0  0  0  0
    0.4192    4.7530   -0.4566 H   0  0  0  0  0  0  0  0  0  0  0  0
   -3.5495    1.0162    1.6054 H   0  0  0  0  0  0  0  0  0  0  0  0
   -4.3801    2.0596    2.8226 H   0  0  0  0  0  0  0  0  0  0  0  0
   -6.0286    1.0736    1.3220 H   0  0  0  0  0  0  0  0  0  0  0  0
   -5.9535    2.8406    0.9780 H   0  0  0  0  0  0  0  0  0  0  0  0
   -5.6224    1.4979   -2.3513 H   0  0  0  0  0  0  0  0  0  0  0  0
   -6.8743    2.1284   -1.2265 H   0  0  0  0  0  0  0  0  0  0  0  0
   -7.4666   -0.1433   -1.9495 H   0  0  0  0  0  0  0  0  0  0  0  0
   -7.0973   -0.1678   -0.1967 H   0  0  0  0  0  0  0  0  0  0  0  0
   -6.5160   -2.8208   -1.7804 H   0  0  0  0  0  0  0  0  0  0  0  0
   -6.4960   -2.2825   -0.0626 H   0  0  0  0  0  0  0  0  0  0  0  0
   -4.7898   -4.0968   -0.6041 H   0  0  0  0  0  0  0  0  0  0  0  0
   -3.9650   -2.9169   -1.6959 H   0  0  0  0  0  0  0  0  0  0  0  0
   -2.2823   -4.1765   -0.9329 H   0  0  0  0  0  0  0  0  0  0  0  0
    0.1260   -4.3676   -0.4025 H   0  0  0  0  0  0  0  0  0  0  0  0
   -0.2886   -1.3696    2.7055 H   0  0  0  0  0  0  0  0  0  0  0  0
   -2.7416   -1.2011    2.1929 H   0  0  0  0  0  0  0  0  0  0  0  0
    1.8472   -2.2929    2.3110 H   0  0  0  0  0  0  0  0  0  0  0  0
    1.8956   -3.9863    1.6926 H   0  0  0  0  0  0  0  0  0  0  0  0
    4.0824   -2.3793    1.8714 H   0  0  0  0  0  0  0  0  0  0  0  0
    4.7797   -3.3393    0.5271 H   0  0  0  0  0  0  0  0  0  0  0  0
  1 14  1  0  0  0  0
  2 34  1  0  0  0  0
  2 33  1  0  0  0  0
  3 21  1  0  0  0  0
  4 22  1  0  0  0  0
  5 24  1  0  0  0  0
  5 25  1  0  0  0  0
  6 27  1  0  0  0  0
  7  8  1  0  0  0  0
  8  9  2  0  0  0  0
  8 34  1  0  0  0  0
  9 35  1  0  0  0  0
 10 36  1  0  0  0  0
 10  9  1  0  0  0  0
 11 10  2  0  0  0  0
 12 11  1  0  0  0  0
 12  7  2  0  0  0  0
 13 39  1  0  0  0  0
 13  1  1  0  0  0  0
 13 12  1  0  0  0  0
 14 15  1  0  0  0  0
 14 40  1  0  0  0  0
 15 16  1  0  0  0  0
 16 17  2  0  0  0  0
 16 42  1  0  0  0  0
 17 43  1  0  0  0  0
 18  3  1  0  0  0  0
 18 17  1  0  0  0  0
 19 18  2  0  0  0  0
 20 19  1  0  0  0  0
 20 15  2  0  0  0  0
 21 47  1  0  0  0  0
 22 49  1  0  0  0  0
 22 48  1  0  0  0  0
 22 21  1  0  0  0  0
 23 51  1  0  0  0  0
 23 24  1  0  0  0  0
 23  4  1  0  0  0  0
 24 53  1  0  0  0  0
 25 26  1  0  0  0  0
 25 55  1  0  0  0  0
 26 56  1  0  0  0  0
 26  6  1  0  0  0  0
 27 32  1  0  0  0  0
 28 29  1  0  0  0  0
 28 27  2  0  0  0  0
 29 30  2  0  0  0  0
 30 33  1  0  0  0  0
 30 31  1  0  0  0  0
 31 60  1  0  0  0  0
 32 31  2  0  0  0  0
 32 61  1  0  0  0  0
 33 63  1  0  0  0  0
 33 62  1  0  0  0  0
 34 64  1  0  0  0  0
 37 11  1  0  0  0  0
 38 13  1  0  0  0  0
 41 14  1  0  0  0  0
 44 19  1  0  0  0  0
 45 20  1  0  0  0  0
 46 21  1  0  0  0  0
 50 23  1  0  0  0  0
 52 24  1  0  0  0  0
 54 25  1  0  0  0  0
 57 26  1  0  0  0  0
 58 28  1  0  0  0  0
 59 29  1  0  0  0  0
 65 34  1  0  0  0  0
M  END
