1,2,11
q = -1.0, confidence = 0.0

 33 33  0  0  1  0  0  0  0  0999 V2000
    2.1093   -0.0751    1.6635 S   0  0  0  0  0  1  0  0  0  0  0  0
   -1.6191   -1.2430   -0.9255 S   0  0  0  0  0  1  0  0  0  0  0  0
    2.1882    1.7450   -0.3468 O   0  0  0  0  0  0  0  0  0  0  0  0
   -2.5829    0.9602    0.3624 O   0  0  0  0  0  0  0  0  0  0  0  0
    3.6080    0.0008   -0.5774 N   0  0  0  0  0  0  0  0  0  0  0  0
   -4.0946   -0.6051   -0.1640 N   0  0  0  0  0  0  0  0  0  0  0  0
   -1.7105    3.1363    0.1341 C   0  0  0  0  0  0  0  0  0  0  0  0
   -0.6469    4.0331   -0.0193 C   0  0  0  0  0  0  0  0  0  0  0  0
    0.6649    3.5479   -0.1401 C   0  0  0  0  0  0  0  0  0  0  0  0
    0.8816    2.1665   -0.0932 C   0  0  0  0  0  0  0  0  0  0  0  0
   -0.1483    1.2176    0.1043 C   0  0  0  0  0  3  0  0  0  0  0  0
   -1.4376    1.7578    0.1836 C   0  0  0  0  0  0  0  0  0  0  0  0
    4.0002    0.5036   -1.8901 C   0  0  0  0  0  0  0  0  0  0  0  0
    4.1676   -1.2860   -0.1540 C   0  0  0  0  0  0  0  0  0  0  0  0
   -5.1634    0.3003    0.2422 C   0  0  0  0  0  0  0  0  0  0  0  0
   -4.5067   -1.9368   -0.5854 C   0  0  0  0  0  0  0  0  0  0  0  0
   -2.7926   -0.2291   -0.2094 C   0  0  2  0  0  3  0  0  0  0  0  0
    2.6212    0.5571    0.1464 C   0  0  1  0  0  3  0  0  0  0  0  0
   -2.7501    3.4857    0.2091 H   0  0  0  0  0  0  0  0  0  0  0  0
   -0.8396    5.1150   -0.0545 H   0  0  0  0  0  0  0  0  0  0  0  0
    1.5209    4.2243   -0.2744 H   0  0  0  0  0  0  0  0  0  0  0  0
    3.7006   -0.2211   -2.6769 H   0  0  0  0  0  0  0  0  0  0  0  0
    5.1008    0.6333   -1.9295 H   0  0  0  0  0  0  0  0  0  0  0  0
    3.5120    1.4715   -2.0856 H   0  0  0  0  0  0  0  0  0  0  0  0
    3.3512   -2.0400   -0.0670 H   0  0  0  0  0  0  0  0  0  0  0  0
    4.6646   -1.1933    0.8307 H   0  0  0  0  0  0  0  0  0  0  0  0
    4.9066   -1.6055   -0.9113 H   0  0  0  0  0  0  0  0  0  0  0  0
   -5.9381    0.3456   -0.5517 H   0  0  0  0  0  0  0  0  0  0  0  0
   -4.7621    1.3107    0.4178 H   0  0  0  0  0  0  0  0  0  0  0  0
   -5.6414   -0.0623    1.1770 H   0  0  0  0  0  0  0  0  0  0  0  0
   -5.4101   -2.2273   -0.0145 H   0  0  0  0  0  0  0  0  0  0  0  0
   -3.6921   -2.6597   -0.3889 H   0  0  0  0  0  0  0  0  0  0  0  0
   -4.7440   -1.9674   -1.6709 H   0  0  0  0  0  0  0  0  0  0  0  0
  3 10  1  0  0  0  0
  3 18  1  0  0  0  0
  5 14  1  0  0  0  0
  5 18  1  0  0  0  0
  6 15  1  0  0  0  0
  7 12  1  0  0  0  0
  7 19  1  0  0  0  0
  8  7  2  0  0  0  0
  9 10  2  0  0  0  0
  9  8  1  0  0  0  0
 10 11  1  0  0  0  0
 11 12  2  0  0  0  0
 12  4  1  0  0  0  0
 13  5  1  0  0  0  0
 14 25  1  0  0  0  0
 14 26  1  0  0  0  0
 15 29  1  0  0  0  0
 15 30  1  0  0  0  0
 16 32  1  0  0  0  0
 16  6  1  0  0  0  0
 16 31  1  0  0  0  0
 17  2  1  1  0  0  0
 17  6  1  0  0  0  0
 17  4  1  0  0  0  0
 18  1  1  1  0  0  0
 20  8  1  0  0  0  0
 21  9  1  0  0  0  0
 22 13  1  0  0  0  0
 23 13  1  0  0  0  0
 24 13  1  0  0  0  0
 27 14  1  0  0  0  0
 28 15  1  0  0  0  0
 33 16  1  0  0  0  0
M  END
