1,2,4
q = 0.0, confidence = 0.938

 55 57  0  0  0  0  0  0  0  0999 V2000
   -1.1962    1.3845   -1.9644 S   0  0  0  0  0  1  0  0  0  0  0  0
   -1.1767    2.1532    0.9197 S   0  0  0  0  0  1  0  0  0  0  0  0
    0.8270    0.0352   -0.0275 P   0  0  0  0  0  4  0  0  0  0  0  0
   -0.6433    1.0147   -0.3330 C   0  0  0  0  0  3  0  0  0  0  0  0
    2.2885    1.1944    0.0303 C   0  0  0  0  0  0  0  0  0  0  0  0
    2.5646    1.8474   -1.3401 C   0  0  0  0  0  0  0  0  0  0  0  0
    3.8044    2.7530   -1.2801 C   0  0  0  0  0  0  0  0  0  0  0  0
    3.6974    3.8075   -0.1738 C   0  0  0  0  0  0  0  0  0  0  0  0
    3.4091    3.1537    1.1817 C   0  0  0  0  0  0  0  0  0  0  0  0
    2.1496    2.2792    1.1173 C   0  0  0  0  0  0  0  0  0  0  0  0
    1.1968   -1.1311   -1.4204 C   0  0  0  0  0  0  0  0  0  0  0  0
    0.0081   -1.9748   -1.9113 C   0  0  0  0  0  0  0  0  0  0  0  0
    0.4134   -2.8092   -3.1335 C   0  0  0  0  0  0  0  0  0  0  0  0
    1.6462   -3.6768   -2.8576 C   0  0  0  0  0  0  0  0  0  0  0  0
    2.8234   -2.8206   -2.3767 C   0  0  0  0  0  0  0  0  0  0  0  0
    2.4487   -1.9881   -1.1416 C   0  0  0  0  0  0  0  0  0  0  0  0
    0.6813   -0.7957    1.6227 C   0  0  0  0  0  0  0  0  0  0  0  0
    2.0085   -1.0355    2.3696 C   0  0  0  0  0  0  0  0  0  0  0  0
    1.7305   -1.5687    3.7842 C   0  0  0  0  0  0  0  0  0  0  0  0
    0.8728   -2.8392    3.7606 C   0  0  0  0  0  0  0  0  0  0  0  0
   -0.4267   -2.6189    2.9779 C   0  0  0  0  0  0  0  0  0  0  0  0
   -0.1451   -2.0963    1.5635 C   0  0  0  0  0  0  0  0  0  0  0  0
    3.1528    0.5411    0.2920 H   0  0  0  0  0  0  0  0  0  0  0  0
    1.6726    2.4390   -1.6418 H   0  0  0  0  0  0  0  0  0  0  0  0
    2.7144    1.0786   -2.1244 H   0  0  0  0  0  0  0  0  0  0  0  0
    4.7035    2.1214   -1.0986 H   0  0  0  0  0  0  0  0  0  0  0  0
    3.9566    3.2350   -2.2681 H   0  0  0  0  0  0  0  0  0  0  0  0
    4.6259    4.4136   -0.1266 H   0  0  0  0  0  0  0  0  0  0  0  0
    2.8724    4.5127   -0.4187 H   0  0  0  0  0  0  0  0  0  0  0  0
    3.2833    3.9249    1.9694 H   0  0  0  0  0  0  0  0  0  0  0  0
    4.2799    2.5303    1.4881 H   0  0  0  0  0  0  0  0  0  0  0  0
    1.9334    1.8335    2.1085 H   0  0  0  0  0  0  0  0  0  0  0  0
    1.2737    2.9174    0.8736 H   0  0  0  0  0  0  0  0  0  0  0  0
    1.4307   -0.4234   -2.2468 H   0  0  0  0  0  0  0  0  0  0  0  0
   -0.3576   -2.6447   -1.1079 H   0  0  0  0  0  0  0  0  0  0  0  0
   -0.8150   -1.2881   -2.1808 H   0  0  0  0  0  0  0  0  0  0  0  0
   -0.4472   -3.4339   -3.4495 H   0  0  0  0  0  0  0  0  0  0  0  0
    0.6292   -2.1236   -3.9836 H   0  0  0  0  0  0  0  0  0  0  0  0
    1.3990   -4.4299   -2.0754 H   0  0  0  0  0  0  0  0  0  0  0  0
    1.9324   -4.2505   -3.7636 H   0  0  0  0  0  0  0  0  0  0  0  0
    3.7052   -3.4539   -2.1453 H   0  0  0  0  0  0  0  0  0  0  0  0
    3.1364   -2.1329   -3.1941 H   0  0  0  0  0  0  0  0  0  0  0  0
    2.2425   -2.6743   -0.2916 H   0  0  0  0  0  0  0  0  0  0  0  0
    3.3086   -1.3560   -0.8365 H   0  0  0  0  0  0  0  0  0  0  0  0
    0.0886   -0.0284    2.1771 H   0  0  0  0  0  0  0  0  0  0  0  0
    2.6081   -0.1070    2.4364 H   0  0  0  0  0  0  0  0  0  0  0  0
    2.6238   -1.7741    1.8110 H   0  0  0  0  0  0  0  0  0  0  0  0
    1.2028   -0.7794    4.3644 H   0  0  0  0  0  0  0  0  0  0  0  0
    2.6917   -1.7538    4.3076 H   0  0  0  0  0  0  0  0  0  0  0  0
    0.6521   -3.1735    4.7955 H   0  0  0  0  0  0  0  0  0  0  0  0
    1.4532   -3.6613    3.2836 H   0  0  0  0  0  0  0  0  0  0  0  0
   -1.0730   -1.8866    3.5079 H   0  0  0  0  0  0  0  0  0  0  0  0
   -1.0109   -3.5602    2.9155 H   0  0  0  0  0  0  0  0  0  0  0  0
   -1.0892   -1.9253    1.0127 H   0  0  0  0  0  0  0  0  0  0  0  0
    0.4256   -2.8664    0.9997 H   0  0  0  0  0  0  0  0  0  0  0  0
  1  4  1  0  0  0  0
  3  5  1  0  0  0  0
  3 17  1  0  0  0  0
  4  3  1  0  0  0  0
  4  2  1  0  0  0  0
  5 23  1  0  0  0  0
  5 10  1  0  0  0  0
  6  7  1  0  0  0  0
  6  5  1  0  0  0  0
  7 26  1  0  0  0  0
  7  8  1  0  0  0  0
  8 28  1  0  0  0  0
  8  9  1  0  0  0  0
  9 31  1  0  0  0  0
  9 30  1  0  0  0  0
 10  9  1  0  0  0  0
 10 32  1  0  0  0  0
 11 16  1  0  0  0  0
 11  3  1  0  0  0  0
 12 11  1  0  0  0  0
 12 35  1  0  0  0  0
 13 14  1  0  0  0  0
 13 12  1  0  0  0  0
 14 15  1  0  0  0  0
 14 39  1  0  0  0  0
 15 41  1  0  0  0  0
 15 16  1  0  0  0  0
 16 44  1  0  0  0  0
 16 43  1  0  0  0  0
 17 45  1  0  0  0  0
 17 18  1  0  0  0  0
 18 46  1  0  0  0  0
 18 19  1  0  0  0  0
 19 49  1  0  0  0  0
 19 48  1  0  0  0  0
 20 19  1  0  0  0  0
 20 50  1  0  0  0  0
 21 52  1  0  0  0  0
 21 20  1  0  0  0  0
 22 17  1  0  0  0  0
 22 21  1  0  0  0  0
 24  6  1  0  0  0  0
 25  6  1  0  0  0  0
 27  7  1  0  0  0  0
 29  8  1  0  0  0  0
 33 10  1  0  0  0  0
 34 11  1  0  0  0  0
 36 12  1  0  0  0  0
 37 13  1  0  0  0  0
 38 13  1  0  0  0  0
 40 14  1  0  0  0  0
 42 15  1  0  0  0  0
 47 18  1  0  0  0  0
 51 20  1  0  0  0  0
 53 21  1  0  0  0  0
 54 22  1  0  0  0  0
 55 22  1  0  0  0  0
M  END
