1,2,3
q = -1.0

 31 31  0  0  0  0  0  0  0  0999 V2000
    2.2039   -0.6436    0.6908 S   0  0  0  0  0  0  0  0  0  0  0  0
   -2.2043   -0.6419   -0.6909 S   0  0  0  0  0  0  0  0  0  0  0  0
    0.0005    1.1758    0.0001 C   0  0  0  0  0  3  0  0  0  0  0  0
    1.0787    1.8978    0.5780 C   0  0  0  0  0  0  0  0  0  0  0  0
    1.0803    3.3055    0.5606 C   0  0  0  0  0  0  0  0  0  0  0  0
    0.0017    4.0073   -0.0000 C   0  0  0  0  0  0  0  0  0  0  0  0
   -1.0776    3.3064   -0.5605 C   0  0  0  0  0  0  0  0  0  0  0  0
   -1.0772    1.8987   -0.5778 C   0  0  0  0  0  0  0  0  0  0  0  0
    2.1756    1.1199    1.2554 C   0  0  0  0  0  0  0  0  0  0  0  0
   -2.1749    1.1217   -1.2550 C   0  0  0  0  0  0  0  0  0  0  0  0
    3.0610   -0.4764   -0.9351 C   0  0  0  0  0  0  0  0  0  0  0  0
    4.5672   -0.3084   -0.7929 C   0  0  0  0  0  0  0  0  0  0  0  0
   -3.0614   -0.4749    0.9350 C   0  0  0  0  0  0  0  0  0  0  0  0
   -4.5674   -0.3062    0.7928 C   0  0  0  0  0  0  0  0  0  0  0  0
    1.9243    3.8605    1.0012 H   0  0  0  0  0  0  0  0  0  0  0  0
    0.0021    5.1075   -0.0001 H   0  0  0  0  0  0  0  0  0  0  0  0
   -1.9212    3.8620   -1.0011 H   0  0  0  0  0  0  0  0  0  0  0  0
    1.9966    1.0325    2.3487 H   0  0  0  0  0  0  0  0  0  0  0  0
    3.1875    1.5564    1.1264 H   0  0  0  0  0  0  0  0  0  0  0  0
   -3.1865    1.5589   -1.1253 H   0  0  0  0  0  0  0  0  0  0  0  0
   -1.9965    1.0346   -2.3484 H   0  0  0  0  0  0  0  0  0  0  0  0
    2.7911   -1.4153   -1.4585 H   0  0  0  0  0  0  0  0  0  0  0  0
    2.5766    0.3611   -1.4761 H   0  0  0  0  0  0  0  0  0  0  0  0
    5.0196   -1.1593   -0.2462 H   0  0  0  0  0  0  0  0  0  0  0  0
    5.0346   -0.2580   -1.7975 H   0  0  0  0  0  0  0  0  0  0  0  0
    4.8343    0.6264   -0.2592 H   0  0  0  0  0  0  0  0  0  0  0  0
   -2.7919   -1.4141    1.4581 H   0  0  0  0  0  0  0  0  0  0  0  0
   -2.5766    0.3622    1.4763 H   0  0  0  0  0  0  0  0  0  0  0  0
   -5.0202   -1.1567    0.2459 H   0  0  0  0  0  0  0  0  0  0  0  0
   -4.8342    0.6289    0.2594 H   0  0  0  0  0  0  0  0  0  0  0  0
   -5.0349   -0.2558    1.7974 H   0  0  0  0  0  0  0  0  0  0  0  0
  1  9  1  0  0  0  0
  2 13  1  0  0  0  0
  3  4  1  0  0  0  0
  4  9  1  0  0  0  0
  5  4  2  0  0  0  0
  5 15  1  0  0  0  0
  6  5  1  0  0  0  0
  7  6  2  0  0  0  0
  8  7  1  0  0  0  0
  8  3  2  0  0  0  0
  9 18  1  0  0  0  0
 10 20  1  0  0  0  0
 10  2  1  0  0  0  0
 10  8  1  0  0  0  0
 11 12  1  0  0  0  0
 11  1  1  0  0  0  0
 12 26  1  0  0  0  0
 12 24  1  0  0  0  0
 13 27  1  0  0  0  0
 13 28  1  0  0  0  0
 14 13  1  0  0  0  0
 14 31  1  0  0  0  0
 16  6  1  0  0  0  0
 17  7  1  0  0  0  0
 19  9  1  0  0  0  0
 21 10  1  0  0  0  0
 22 11  1  0  0  0  0
 23 11  1  0  0  0  0
 25 12  1  0  0  0  0
 29 14  1  0  0  0  0
 30 14  1  0  0  0  0
M  END
