1,2,25
q = -1.0

 45 47  0  0  0  0  0  0  0  0999 V2000
    2.1688    0.9190   -0.8003 S   0  0  0  0  0  0  0  0  0  0  0  0
   -0.0001   -0.8748    0.0000 C   0  0  0  0  0  3  0  0  0  0  0  0
    1.0151   -1.5952   -0.6827 C   0  0  0  0  0  0  0  0  0  0  0  0
    1.0201   -3.0032   -0.6633 C   0  0  0  0  0  0  0  0  0  0  0  0
   -0.0003   -3.7039    0.0001 C   0  0  0  0  0  0  0  0  0  0  0  0
    2.0382   -0.8058   -1.4536 C   0  0  0  0  0  0  0  0  0  0  0  0
    3.0868    0.5978    0.7885 C   0  0  0  0  0  0  0  0  0  0  0  0
    4.4580    0.0464    0.5289 C   0  0  0  0  0  0  0  0  0  0  0  0
    4.7167   -1.3273    0.7170 C   0  0  0  0  0  0  0  0  0  0  0  0
    5.9867   -1.8584    0.4428 C   0  0  0  0  0  0  0  0  0  0  0  0
    7.0111   -1.0229   -0.0279 C   0  0  0  0  0  0  0  0  0  0  0  0
    6.7610    0.3461   -0.2234 C   0  0  0  0  0  0  0  0  0  0  0  0
    5.4934    0.8765    0.0502 C   0  0  0  0  0  0  0  0  0  0  0  0
   -0.0004   -4.8042    0.0001 H   0  0  0  0  0  0  0  0  0  0  0  0
    1.8179   -3.5573   -1.1837 H   0  0  0  0  0  0  0  0  0  0  0  0
    1.7265   -0.6489   -2.5086 H   0  0  0  0  0  0  0  0  0  0  0  0
    3.0518   -1.2571   -1.4671 H   0  0  0  0  0  0  0  0  0  0  0  0
    3.1002    1.5951    1.2708 H   0  0  0  0  0  0  0  0  0  0  0  0
    2.4629   -0.0826    1.3979 H   0  0  0  0  0  0  0  0  0  0  0  0
    3.9108   -1.9816    1.0865 H   0  0  0  0  0  0  0  0  0  0  0  0
    6.1766   -2.9311    0.5997 H   0  0  0  0  0  0  0  0  0  0  0  0
    8.0077   -1.4377   -0.2421 H   0  0  0  0  0  0  0  0  0  0  0  0
    7.5621    1.0056   -0.5905 H   0  0  0  0  0  0  0  0  0  0  0  0
    5.2964    1.9483   -0.1095 H   0  0  0  0  0  0  0  0  0  0  0  0
   -2.1688    0.9193    0.8002 S   0  0  0  0  0  0  0  0  0  0  0  0
   -2.0384   -0.8055    1.4537 C   0  0  0  0  0  0  0  0  0  0  0  0
   -1.0154   -1.5951    0.6828 C   0  0  0  0  0  0  0  0  0  0  0  0
   -1.0206   -3.0030    0.6634 C   0  0  0  0  0  0  0  0  0  0  0  0
   -1.8184   -3.5571    1.1839 H   0  0  0  0  0  0  0  0  0  0  0  0
   -1.7267   -0.6485    2.5086 H   0  0  0  0  0  0  0  0  0  0  0  0
   -3.0521   -1.2567    1.4673 H   0  0  0  0  0  0  0  0  0  0  0  0
   -3.0868    0.5980   -0.7886 C   0  0  0  0  0  0  0  0  0  0  0  0
   -4.4579    0.0465   -0.5289 C   0  0  0  0  0  0  0  0  0  0  0  0
   -4.7166   -1.3272   -0.7171 C   0  0  0  0  0  0  0  0  0  0  0  0
   -5.9865   -1.8584   -0.4429 C   0  0  0  0  0  0  0  0  0  0  0  0
   -7.0110   -1.0229    0.0278 C   0  0  0  0  0  0  0  0  0  0  0  0
   -6.7610    0.3461    0.2233 C   0  0  0  0  0  0  0  0  0  0  0  0
   -5.4934    0.8766   -0.0503 C   0  0  0  0  0  0  0  0  0  0  0  0
   -5.2964    1.9484    0.1094 H   0  0  0  0  0  0  0  0  0  0  0  0
   -7.5621    1.0055    0.5904 H   0  0  0  0  0  0  0  0  0  0  0  0
   -8.0075   -1.4378    0.2420 H   0  0  0  0  0  0  0  0  0  0  0  0
   -6.1764   -2.9311   -0.5998 H   0  0  0  0  0  0  0  0  0  0  0  0
   -3.9106   -1.9814   -1.0866 H   0  0  0  0  0  0  0  0  0  0  0  0
   -3.1003    1.5953   -1.2708 H   0  0  0  0  0  0  0  0  0  0  0  0
   -2.4628   -0.0824   -1.3979 H   0  0  0  0  0  0  0  0  0  0  0  0
  1  7  1  0  0  0  0
  2 27  1  0  0  0  0
  3  4  1  0  0  0  0
  3  2  2  0  0  0  0
  4  5  2  0  0  0  0
  5 14  1  0  0  0  0
  5 28  1  0  0  0  0
  6  1  1  0  0  0  0
  6  3  1  0  0  0  0
  7 18  1  0  0  0  0
  7 19  1  0  0  0  0
  8  9  1  0  0  0  0
  8  7  1  0  0  0  0
  9 20  1  0  0  0  0
 10 21  1  0  0  0  0
 10  9  2  0  0  0  0
 11 10  1  0  0  0  0
 12 11  2  0  0  0  0
 12 13  1  0  0  0  0
 13  8  2  0  0  0  0
 15  4  1  0  0  0  0
 16  6  1  0  0  0  0
 17  6  1  0  0  0  0
 22 11  1  0  0  0  0
 23 12  1  0  0  0  0
 24 13  1  0  0  0  0
 25 26  1  0  0  0  0
 26 31  1  0  0  0  0
 26 30  1  0  0  0  0
 27 26  1  0  0  0  0
 28 27  2  0  0  0  0
 28 29  1  0  0  0  0
 32 33  1  0  0  0  0
 32 25  1  0  0  0  0
 33 38  1  0  0  0  0
 34 33  2  0  0  0  0
 34 35  1  0  0  0  0
 35 36  2  0  0  0  0
 36 37  1  0  0  0  0
 36 41  1  0  0  0  0
 37 40  1  0  0  0  0
 38 39  1  0  0  0  0
 38 37  2  0  0  0  0
 42 35  1  0  0  0  0
 43 34  1  0  0  0  0
 44 32  1  0  0  0  0
 45 32  1  0  0  0  0
M  END
