1,3,4
q = -1.0

 36 37  0  0  0  0  0  0  0  0999 V2000
    0.1390   -0.9846   -1.9794 S   0  0  0  0  0  0  0  0  0  0  0  0
    2.3579   -3.0518    2.0021 S   0  0  0  0  0  0  0  0  0  0  0  0
    1.0494    1.9436    1.5256 S   0  0  0  0  0  0  0  0  0  0  0  0
    2.2442    0.7940   -0.9426 C   0  0  0  0  0  3  0  0  0  0  0  0
    3.0460    1.8430   -0.4204 C   0  0  0  0  0  0  0  0  0  0  0  0
    4.3201    2.1002   -0.9563 C   0  0  0  0  0  0  0  0  0  0  0  0
    4.7926    1.3444   -2.0401 C   0  0  0  0  0  0  0  0  0  0  0  0
    3.9907    0.3428   -2.6020 C   0  0  0  0  0  0  0  0  0  0  0  0
    2.7227    0.0599   -2.0564 C   0  0  0  0  0  0  0  0  0  0  0  0
    1.8732   -1.0234   -2.6571 C   0  0  0  0  0  0  0  0  0  0  0  0
   -0.0622   -2.7434   -1.4331 C   0  0  0  0  0  0  0  0  0  0  0  0
    0.4562   -3.0965   -0.0425 C   0  0  0  0  0  0  0  0  0  0  0  0
    1.9470   -2.8806    0.2244 C   0  0  0  0  0  0  0  0  0  0  0  0
    1.6704   -1.4634    2.5867 C   0  0  0  0  0  0  0  0  0  0  0  0
    2.6367   -0.2775    2.5392 C   0  0  0  0  0  0  0  0  0  0  0  0
    1.9376    1.0396    2.8817 C   0  0  0  0  0  0  0  0  0  0  0  0
    2.4693    2.7352    0.6429 C   0  0  0  0  0  0  0  0  0  0  0  0
    4.9430    2.9064   -0.5386 H   0  0  0  0  0  0  0  0  0  0  0  0
    5.7887    1.5492   -2.4588 H   0  0  0  0  0  0  0  0  0  0  0  0
    4.3564   -0.2272   -3.4702 H   0  0  0  0  0  0  0  0  0  0  0  0
    2.2723   -2.0369   -2.4493 H   0  0  0  0  0  0  0  0  0  0  0  0
    1.7751   -0.9219   -3.7572 H   0  0  0  0  0  0  0  0  0  0  0  0
   -1.1537   -2.9190   -1.4952 H   0  0  0  0  0  0  0  0  0  0  0  0
    0.4146   -3.3330   -2.2435 H   0  0  0  0  0  0  0  0  0  0  0  0
   -0.1350   -2.5082    0.6884 H   0  0  0  0  0  0  0  0  0  0  0  0
    0.1945   -4.1589    0.1492 H   0  0  0  0  0  0  0  0  0  0  0  0
    2.2793   -1.8720   -0.0971 H   0  0  0  0  0  0  0  0  0  0  0  0
    2.5758   -3.6256   -0.3048 H   0  0  0  0  0  0  0  0  0  0  0  0
    0.7707   -1.2340    1.9706 H   0  0  0  0  0  0  0  0  0  0  0  0
    1.3191   -1.6357    3.6253 H   0  0  0  0  0  0  0  0  0  0  0  0
    3.4510   -0.4364    3.2767 H   0  0  0  0  0  0  0  0  0  0  0  0
    3.1266   -0.2079    1.5465 H   0  0  0  0  0  0  0  0  0  0  0  0
    2.6395    1.8043    3.2708 H   0  0  0  0  0  0  0  0  0  0  0  0
    1.1571    0.8978    3.6581 H   0  0  0  0  0  0  0  0  0  0  0  0
    2.0189    3.6491    0.1994 H   0  0  0  0  0  0  0  0  0  0  0  0
    3.1985    3.0681    1.4091 H   0  0  0  0  0  0  0  0  0  0  0  0
  1 11  1  0  0  0  0
  2 14  1  0  0  0  0
  3 16  1  0  0  0  0
  4  5  1  0  0  0  0
  5 17  1  0  0  0  0
  6 18  1  0  0  0  0
  6  5  2  0  0  0  0
  7  6  1  0  0  0  0
  8  9  1  0  0  0  0
  8  7  2  0  0  0  0
  9  4  2  0  0  0  0
 10 21  1  0  0  0  0
 10  9  1  0  0  0  0
 10  1  1  0  0  0  0
 11 12  1  0  0  0  0
 12 26  1  0  0  0  0
 12 13  1  0  0  0  0
 12 25  1  0  0  0  0
 13  2  1  0  0  0  0
 14 30  1  0  0  0  0
 15 14  1  0  0  0  0
 15 16  1  0  0  0  0
 15 31  1  0  0  0  0
 16 33  1  0  0  0  0
 16 34  1  0  0  0  0
 17 36  1  0  0  0  0
 17  3  1  0  0  0  0
 19  7  1  0  0  0  0
 20  8  1  0  0  0  0
 22 10  1  0  0  0  0
 23 11  1  0  0  0  0
 24 11  1  0  0  0  0
 27 13  1  0  0  0  0
 28 13  1  0  0  0  0
 29 14  1  0  0  0  0
 32 15  1  0  0  0  0
 35 17  1  0  0  0  0
M  END
