1,2,4
q = -1.0, confidence = 0.002

 18 17  0  0  0  0  0  0  0  0999 V2000
    0.7260    1.1084   -1.6641 S   0  0  0  0  0  1  0  0  0  0  0  0
    1.4450   -1.7858   -1.0977 S   0  0  0  0  0  1  0  0  0  0  0  0
    2.8563    0.3118    0.0479 N   0  0  0  0  0  0  0  0  0  0  0  0
    1.7542   -0.0902   -0.6640 C   0  0  0  0  0  3  0  0  0  0  0  0
    2.7913    1.5046    0.8894 C   0  0  0  0  0  0  0  0  0  0  0  0
    3.3559    1.2955    1.8248 H   0  0  0  0  0  0  0  0  0  0  0  0
    1.7332    1.6457    1.1916 H   0  0  0  0  0  0  0  0  0  0  0  0
    3.3277    2.7714    0.2182 C   0  0  0  0  0  0  0  0  0  0  0  0
    3.2864    3.6280    0.9212 H   0  0  0  0  0  0  0  0  0  0  0  0
    2.7231    3.0246   -0.6750 H   0  0  0  0  0  0  0  0  0  0  0  0
    4.3829    2.6500   -0.1016 H   0  0  0  0  0  0  0  0  0  0  0  0
    4.1269   -0.4024   -0.0436 C   0  0  0  0  0  0  0  0  0  0  0  0
    4.9491    0.3472   -0.0688 H   0  0  0  0  0  0  0  0  0  0  0  0
    4.1508   -0.9282   -1.0200 H   0  0  0  0  0  0  0  0  0  0  0  0
    4.3509   -1.3989    1.0965 C   0  0  0  0  0  0  0  0  0  0  0  0
    5.3403   -1.8900    0.9973 H   0  0  0  0  0  0  0  0  0  0  0  0
    3.5661   -2.1809    1.0841 H   0  0  0  0  0  0  0  0  0  0  0  0
    4.3207   -0.8970    2.0852 H   0  0  0  0  0  0  0  0  0  0  0  0
  1  4  1  0  0  0  0
  2  4  1  0  0  0  0
  3  5  1  0  0  0  0
  4  3  1  0  0  0  0
  5  7  1  0  0  0  0
  5  6  1  0  0  0  0
  8  5  1  0  0  0  0
  8  9  1  0  0  0  0
 10  8  1  0  0  0  0
 11  8  1  0  0  0  0
 12  3  1  0  0  0  0
 12 15  1  0  0  0  0
 13 12  1  0  0  0  0
 14 12  1  0  0  0  0
 15 18  1  0  0  0  0
 16 15  1  0  0  0  0
 17 15  1  0  0  0  0
M  END
