1,3,12
q = -1.0

 41 44  0  0  1  0  0  0  0  0999 V2000
    1.1225    2.5072   -0.5804 S   0  0  0  0  0  0  0  0  0  0  0  0
   -3.5803   -0.1654    0.2512 S   0  0  0  0  0  0  0  0  0  0  0  0
    1.6791   -2.0577   -0.0930 S   0  0  0  0  0  0  0  0  0  0  0  0
   -3.2822    2.5334    0.6635 C   0  0  0  0  0  0  0  0  0  0  0  0
   -4.3658    2.5275    0.8547 H   0  0  0  0  0  0  0  0  0  0  0  0
   -2.6262    1.3253    0.3550 C   0  0  0  0  0  0  0  0  0  0  0  0
   -1.2256    1.2957    0.1222 C   0  0  0  0  0  0  0  0  0  0  0  0
   -1.2418   -0.8380   -1.1218 C   0  0  0  0  0  0  0  0  0  0  0  0
   -2.6420   -1.0271   -0.9911 C   0  0  0  0  0  0  0  0  0  0  0  0
   -0.6153   -1.4292   -2.2388 C   0  0  0  0  0  0  0  0  0  0  0  0
    0.4525   -1.2276   -2.4087 H   0  0  0  0  0  0  0  0  0  0  0  0
   -0.4909   -0.0239   -0.0585 C   0  0  2  0  0  3  0  0  0  0  0  0
   -1.3185   -2.2586   -3.1238 C   0  0  0  0  0  0  0  0  0  0  0  0
   -0.7916   -2.7142   -3.9753 H   0  0  0  0  0  0  0  0  0  0  0  0
    0.5245   -2.8589    2.3327 C   0  0  0  0  0  0  0  0  0  0  0  0
    1.2147   -3.7152    2.3079 H   0  0  0  0  0  0  0  0  0  0  0  0
   -3.3544   -1.8643   -1.8707 C   0  0  0  0  0  0  0  0  0  0  0  0
   -4.4404   -1.9876   -1.7407 H   0  0  0  0  0  0  0  0  0  0  0  0
   -2.6860   -2.5009   -2.9234 C   0  0  0  0  0  0  0  0  0  0  0  0
   -3.2447   -3.1558   -3.6088 H   0  0  0  0  0  0  0  0  0  0  0  0
    3.2515   -2.2389    0.8241 C   0  0  0  0  0  0  0  0  0  0  0  0
    4.0114   -1.7314    0.1962 H   0  0  0  0  0  0  0  0  0  0  0  0
    3.4783   -3.3124    0.9623 H   0  0  0  0  0  0  0  0  0  0  0  0
    3.1734   -1.7145    1.7936 H   0  0  0  0  0  0  0  0  0  0  0  0
   -2.5644    3.7370    0.6857 C   0  0  0  0  0  0  0  0  0  0  0  0
   -3.0826    4.6784    0.9211 H   0  0  0  0  0  0  0  0  0  0  0  0
    2.1021    3.1777    0.8141 C   0  0  0  0  0  0  0  0  0  0  0  0
    1.8042    2.6810    1.7548 H   0  0  0  0  0  0  0  0  0  0  0  0
    1.9631    4.2739    0.8705 H   0  0  0  0  0  0  0  0  0  0  0  0
    3.1477    2.9174    0.5576 H   0  0  0  0  0  0  0  0  0  0  0  0
   -1.1604   -0.6169    2.4017 C   0  0  0  0  0  0  0  0  0  0  0  0
   -1.8026    0.2716    2.4570 H   0  0  0  0  0  0  0  0  0  0  0  0
    0.4816   -1.9570    1.2650 C   0  0  0  0  0  0  0  0  0  0  0  0
   -0.2791   -2.6260    3.4629 C   0  0  0  0  0  0  0  0  0  0  0  0
   -0.2393   -3.3188    4.3165 H   0  0  0  0  0  0  0  0  0  0  0  0
   -1.0921   -1.4871    3.5042 C   0  0  0  0  0  0  0  0  0  0  0  0
   -1.6912   -1.2693    4.4011 H   0  0  0  0  0  0  0  0  0  0  0  0
   -1.2056    3.7528    0.3368 C   0  0  0  0  0  0  0  0  0  0  0  0
   -0.6549    4.7025    0.2669 H   0  0  0  0  0  0  0  0  0  0  0  0
   -0.5639    2.5365    0.0543 C   0  0  0  0  0  0  0  0  0  0  0  0
   -0.4060   -0.8510    1.2353 C   0  0  0  0  0  0  0  0  0  0  0  0
  1 40  1  0  0  0  0
  1 27  1  0  0  0  0
  2  6  1  0  0  0  0
  3 21  1  0  0  0  0
  3 33  1  0  0  0  0
  4 25  1  0  0  0  0
  4  5  1  0  0  0  0
  6  4  2  0  0  0  0
  7  6  1  0  0  0  0
  8  9  1  0  0  0  0
  8 12  1  0  0  0  0
  9  2  1  0  0  0  0
 10  8  2  0  0  0  0
 11 10  1  0  0  0  0
 12  7  1  0  0  0  0
 12 41  1  1  0  0  0
 13 19  2  0  0  0  0
 13 10  1  0  0  0  0
 14 13  1  0  0  0  0
 15 34  1  0  0  0  0
 16 15  1  0  0  0  0
 17 18  1  0  0  0  0
 17  9  2  0  0  0  0
 19 17  1  0  0  0  0
 20 19  1  0  0  0  0
 21 23  1  0  0  0  0
 21 24  1  0  0  0  0
 22 21  1  0  0  0  0
 25 26  1  0  0  0  0
 27 29  1  0  0  0  0
 27 28  1  0  0  0  0
 30 27  1  0  0  0  0
 31 32  1  0  0  0  0
 31 36  1  0  0  0  0
 33 15  2  0  0  0  0
 34 36  2  0  0  0  0
 34 35  1  0  0  0  0
 36 37  1  0  0  0  0
 38 25  2  0  0  0  0
 39 38  1  0  0  0  0
 40  7  2  0  0  0  0
 40 38  1  0  0  0  0
 41 33  1  0  0  0  0
 41 31  2  0  0  0  0
M  END
