1,2,8
q = -1.0

 58 59  0  0  0  0  0  0  0  0999 V2000
   -1.7474    0.9243   -2.0804 S   0  0  0  0  0  0  0  0  0  0  0  0
    0.3043   -0.6617    1.7824 S   0  0  0  0  0  0  0  0  0  0  0  0
   -0.4119    3.1033   -0.2144 O   0  0  0  0  0  0  0  0  0  0  0  0
    2.3553    2.4429    0.7085 O   0  0  0  0  0  0  0  0  0  0  0  0
    3.8193   -0.0279    0.4570 O   0  0  0  0  0  0  0  0  0  0  0  0
    2.7353   -1.9552   -1.2294 O   0  0  0  0  0  0  0  0  0  0  0  0
   -0.1323   -2.5727   -0.8593 O   0  0  0  0  0  0  0  0  0  0  0  0
   -2.3267   -0.3977    0.4758 C   0  0  0  0  0  3  0  0  0  0  0  0
   -2.4739   -0.8051    1.8268 C   0  0  0  0  0  0  0  0  0  0  0  0
   -3.7347   -1.2085    2.3083 C   0  0  0  0  0  0  0  0  0  0  0  0
   -4.8539   -1.1947    1.4640 C   0  0  0  0  0  0  0  0  0  0  0  0
   -4.7185   -0.7977    0.1256 C   0  0  0  0  0  0  0  0  0  0  0  0
   -3.4611   -0.4173   -0.3791 C   0  0  0  0  0  0  0  0  0  0  0  0
   -3.2702   -0.0892   -1.8339 C   0  0  0  0  0  0  0  0  0  0  0  0
   -2.3645    2.5572   -1.4864 C   0  0  0  0  0  0  0  0  0  0  0  0
   -1.2293    3.5441   -1.2762 C   0  0  0  0  0  0  0  0  0  0  0  0
    0.6139    4.0144    0.1284 C   0  0  0  0  0  0  0  0  0  0  0  0
    1.4704    3.4300    1.2301 C   0  0  0  0  0  0  0  0  0  0  0  0
    3.2860    1.9590    1.6726 C   0  0  0  0  0  0  0  0  0  0  0  0
    4.3673    1.1790    0.9608 C   0  0  0  0  0  0  0  0  0  0  0  0
    4.6196   -0.6328   -0.5423 C   0  0  0  0  0  0  0  0  0  0  0  0
    4.0938   -2.0238   -0.8107 C   0  0  0  0  0  0  0  0  0  0  0  0
    2.1905   -3.2431   -1.4801 C   0  0  0  0  0  0  0  0  0  0  0  0
    0.7147   -3.1645   -1.8328 C   0  0  0  0  0  0  0  0  0  0  0  0
   -0.1727   -3.1546    0.4297 C   0  0  0  0  0  0  0  0  0  0  0  0
    0.7158   -2.4262    1.4433 C   0  0  0  0  0  0  0  0  0  0  0  0
   -1.2759   -0.7663    2.7351 C   0  0  0  0  0  0  0  0  0  0  0  0
   -3.8431   -1.5309    3.3559 H   0  0  0  0  0  0  0  0  0  0  0  0
   -5.8371   -1.5006    1.8500 H   0  0  0  0  0  0  0  0  0  0  0  0
   -5.5975   -0.7973   -0.5380 H   0  0  0  0  0  0  0  0  0  0  0  0
   -4.1295    0.4349   -2.2996 H   0  0  0  0  0  0  0  0  0  0  0  0
   -3.0710   -1.0016   -2.4354 H   0  0  0  0  0  0  0  0  0  0  0  0
   -3.0539    2.9390   -2.2662 H   0  0  0  0  0  0  0  0  0  0  0  0
   -2.9231    2.3882   -0.5443 H   0  0  0  0  0  0  0  0  0  0  0  0
   -1.6824    4.5395   -1.0424 H   0  0  0  0  0  0  0  0  0  0  0  0
   -0.6357    3.6704   -2.2153 H   0  0  0  0  0  0  0  0  0  0  0  0
    1.2577    4.2490   -0.7538 H   0  0  0  0  0  0  0  0  0  0  0  0
    0.1781    4.9776    0.4903 H   0  0  0  0  0  0  0  0  0  0  0  0
    0.8156    2.9979    2.0236 H   0  0  0  0  0  0  0  0  0  0  0  0
    2.0679    4.2506    1.6914 H   0  0  0  0  0  0  0  0  0  0  0  0
    3.7542    2.8156    2.2108 H   0  0  0  0  0  0  0  0  0  0  0  0
    2.7741    1.3151    2.4265 H   0  0  0  0  0  0  0  0  0  0  0  0
    5.2043    0.9700    1.6698 H   0  0  0  0  0  0  0  0  0  0  0  0
    4.7743    1.8061    0.1323 H   0  0  0  0  0  0  0  0  0  0  0  0
    4.6054   -0.0224   -1.4784 H   0  0  0  0  0  0  0  0  0  0  0  0
    5.6839   -0.7221   -0.2179 H   0  0  0  0  0  0  0  0  0  0  0  0
    4.1725   -2.6402    0.1175 H   0  0  0  0  0  0  0  0  0  0  0  0
    4.7230   -2.5099   -1.5930 H   0  0  0  0  0  0  0  0  0  0  0  0
    2.7219   -3.7346   -2.3305 H   0  0  0  0  0  0  0  0  0  0  0  0
    2.3508   -3.8994   -0.5896 H   0  0  0  0  0  0  0  0  0  0  0  0
    0.3760   -4.1999   -2.0777 H   0  0  0  0  0  0  0  0  0  0  0  0
    0.5816   -2.5424   -2.7410 H   0  0  0  0  0  0  0  0  0  0  0  0
   -1.2301   -3.1279    0.7673 H   0  0  0  0  0  0  0  0  0  0  0  0
    0.1380   -4.2253    0.4024 H   0  0  0  0  0  0  0  0  0  0  0  0
    1.7654   -2.3599    1.0957 H   0  0  0  0  0  0  0  0  0  0  0  0
    0.7073   -2.9455    2.4241 H   0  0  0  0  0  0  0  0  0  0  0  0
   -1.2097   -1.6270    3.4321 H   0  0  0  0  0  0  0  0  0  0  0  0
   -1.2595    0.1560    3.3550 H   0  0  0  0  0  0  0  0  0  0  0  0
  1 14  1  0  0  0  0
  1 15  1  0  0  0  0
  2 27  1  0  0  0  0
  3 17  1  0  0  0  0
  4 18  1  0  0  0  0
  4 19  1  0  0  0  0
  5 20  1  0  0  0  0
  6 22  1  0  0  0  0
  7 25  1  0  0  0  0
  8  9  1  0  0  0  0
  9 10  2  0  0  0  0
  9 27  1  0  0  0  0
 10 28  1  0  0  0  0
 11 29  1  0  0  0  0
 11 10  1  0  0  0  0
 12 11  2  0  0  0  0
 13 12  1  0  0  0  0
 13  8  2  0  0  0  0
 14 13  1  0  0  0  0
 15 16  1  0  0  0  0
 15 34  1  0  0  0  0
 16 35  1  0  0  0  0
 16  3  1  0  0  0  0
 17 38  1  0  0  0  0
 17 18  1  0  0  0  0
 18 40  1  0  0  0  0
 18 39  1  0  0  0  0
 19 41  1  0  0  0  0
 19 42  1  0  0  0  0
 20 43  1  0  0  0  0
 20 19  1  0  0  0  0
 21 46  1  0  0  0  0
 21  5  1  0  0  0  0
 22 21  1  0  0  0  0
 22 47  1  0  0  0  0
 23  6  1  0  0  0  0
 23 50  1  0  0  0  0
 24 23  1  0  0  0  0
 24  7  1  0  0  0  0
 25 53  1  0  0  0  0
 25 26  1  0  0  0  0
 26  2  1  0  0  0  0
 26 56  1  0  0  0  0
 27 58  1  0  0  0  0
 27 57  1  0  0  0  0
 30 12  1  0  0  0  0
 31 14  1  0  0  0  0
 32 14  1  0  0  0  0
 33 15  1  0  0  0  0
 36 16  1  0  0  0  0
 37 17  1  0  0  0  0
 44 20  1  0  0  0  0
 45 21  1  0  0  0  0
 48 22  1  0  0  0  0
 49 23  1  0  0  0  0
 51 24  1  0  0  0  0
 52 24  1  0  0  0  0
 54 25  1  0  0  0  0
 55 26  1  0  0  0  0
M  END
