1,2,4
q = 0.0, confidence = 0.944

 36 38  0  0  1  0  0  0  0  0999 V2000
    0.4788   -2.1558   -0.7531 S   0  0  0  0  0  1  0  0  0  0  0  0
   -0.0913    2.4204   -0.2813 S   0  0  0  0  0  1  0  0  0  0  0  0
    5.4086   -0.5769    0.4079 S   0  0  0  0  0  0  0  0  0  0  0  0
    2.1170    0.2081   -0.2647 B   0  0  0  0  0  0  0  0  0  0  0  0
    2.5558    1.7083   -0.4245 N   0  0  0  0  0  0  0  0  0  0  0  0
    2.2385    3.8955   -0.3969 N   0  0  0  0  0  0  0  0  0  0  0  0
    2.7057   -0.3387    1.0826 N   0  0  0  0  0  0  0  0  0  0  0  0
    4.0096   -1.1198    2.6903 N   0  0  0  0  0  0  0  0  0  0  0  0
    2.6569   -0.7319   -1.4324 N   0  0  0  0  0  0  0  0  0  0  0  0
    2.0173   -1.9468   -1.5274 C   0  0  2  0  0  3  0  0  0  0  0  0
    2.5922   -2.9747   -2.3131 C   0  0  0  0  0  0  0  0  0  0  0  0
    2.0855   -3.9490   -2.3433 H   0  0  0  0  0  0  0  0  0  0  0  0
    3.7175   -2.7070   -3.0875 C   0  0  0  0  0  0  0  0  0  0  0  0
    4.1362   -3.4903   -3.7378 H   0  0  0  0  0  0  0  0  0  0  0  0
    4.2979   -1.4238   -3.0523 C   0  0  0  0  0  0  0  0  0  0  0  0
    5.1754   -1.1658   -3.6588 H   0  0  0  0  0  0  0  0  0  0  0  0
    3.7677   -0.4834   -2.1754 C   0  0  0  0  0  0  0  0  0  0  0  0
    4.1932    0.5212   -2.0822 H   0  0  0  0  0  0  0  0  0  0  0  0
    1.6088    2.6814   -0.3932 C   0  0  2  0  0  3  0  0  0  0  0  0
    3.8099    2.3210   -0.4083 C   0  0  0  0  0  0  0  0  0  0  0  0
    4.7211    1.7097   -0.3193 H   0  0  0  0  0  0  0  0  0  0  0  0
    3.6169    3.6789   -0.4069 C   0  0  0  0  0  0  0  0  0  0  0  0
    4.3302    4.5085   -0.3973 H   0  0  0  0  0  0  0  0  0  0  0  0
    1.5487    5.1696   -0.3795 C   0  0  0  0  0  0  0  0  0  0  0  0
    0.6990    5.1148    0.3299 H   0  0  0  0  0  0  0  0  0  0  0  0
    1.1467    5.4226   -1.3823 H   0  0  0  0  0  0  0  0  0  0  0  0
    2.2493    5.9605   -0.0555 H   0  0  0  0  0  0  0  0  0  0  0  0
    4.0165   -0.6716    1.3781 C   0  0  0  0  0  0  0  0  0  0  0  0
    1.9207   -0.5693    2.2099 C   0  0  0  0  0  0  0  0  0  0  0  0
    0.8433   -0.3753    2.1756 H   0  0  0  0  0  0  0  0  0  0  0  0
    2.7211   -1.0527    3.2066 C   0  0  0  0  0  0  0  0  0  0  0  0
    2.4884   -1.3598    4.2301 H   0  0  0  0  0  0  0  0  0  0  0  0
    5.1778   -1.5943    3.3983 C   0  0  0  0  0  0  0  0  0  0  0  0
    6.0556   -1.3786    2.7565 H   0  0  0  0  0  0  0  0  0  0  0  0
    5.1196   -2.6882    3.5774 H   0  0  0  0  0  0  0  0  0  0  0  0
    5.2812   -1.0716    4.3703 H   0  0  0  0  0  0  0  0  0  0  0  0
  3 28  2  0  0  0  0
  4  7  1  0  0  0  0
  5 20  1  0  0  0  0
  5 19  1  0  0  0  0
  5  4  1  0  0  0  0
  6 19  1  0  0  0  0
  6 24  1  0  0  0  0
  7 28  1  0  0  0  0
  7 29  1  0  0  0  0
  8 31  1  0  0  0  0
  8 33  1  0  0  0  0
  9  4  1  0  0  0  0
 10  9  1  0  0  0  0
 10  1  1  6  0  0  0
 11 10  1  0  0  0  0
 12 11  1  0  0  0  0
 13 15  1  0  0  0  0
 13 11  2  0  0  0  0
 14 13  1  0  0  0  0
 15 17  2  0  0  0  0
 16 15  1  0  0  0  0
 17 18  1  0  0  0  0
 17  9  1  0  0  0  0
 19  2  1  1  0  0  0
 20 22  2  0  0  0  0
 20 21  1  0  0  0  0
 22 23  1  0  0  0  0
 22  6  1  0  0  0  0
 24 27  1  0  0  0  0
 24 25  1  0  0  0  0
 26 24  1  0  0  0  0
 28  8  1  0  0  0  0
 29 31  2  0  0  0  0
 30 29  1  0  0  0  0
 31 32  1  0  0  0  0
 33 35  1  0  0  0  0
 33 36  1  0  0  0  0
 34 33  1  0  0  0  0
M  END
