1,2,23
q = 0.0, confidence = 0.998

 24 25  0  0  1  0  0  0  0  0999 V2000
   -1.1832    2.3652   -0.1448 S   0  0  0  0  0  1  0  0  0  0  0  0
   -1.0954   -2.1355    0.6315 S   0  0  0  0  0  1  0  0  0  0  0  0
   -3.5615    1.1661    0.0960 N   0  0  0  0  0  0  0  0  0  0  0  0
   -3.4551   -1.4032   -0.3881 N   0  0  0  0  0  0  0  0  0  0  0  0
   -2.8907    2.3795    0.0685 C   0  0  1  0  0  3  0  0  0  0  0  0
   -3.6235    3.5729    0.2996 C   0  0  0  0  0  0  0  0  0  0  0  0
   -3.0926    4.5287    0.1892 H   0  0  0  0  0  0  0  0  0  0  0  0
   -4.9382    3.5132    0.7469 C   0  0  0  0  0  0  0  0  0  0  0  0
   -5.4860    4.4377    0.9836 H   0  0  0  0  0  0  0  0  0  0  0  0
   -5.5473    2.2499    0.9314 C   0  0  0  0  0  0  0  0  0  0  0  0
   -6.5646    2.1505    1.3326 H   0  0  0  0  0  0  0  0  0  0  0  0
   -4.8359    1.1128    0.5751 C   0  0  0  0  0  0  0  0  0  0  0  0
   -5.2755    0.1107    0.6677 H   0  0  0  0  0  0  0  0  0  0  0  0
   -2.7253   -2.4282    0.1723 C   0  0  1  0  0  3  0  0  0  0  0  0
   -3.3347   -3.7117    0.3029 C   0  0  0  0  0  0  0  0  0  0  0  0
   -2.7449   -4.5107    0.7734 H   0  0  0  0  0  0  0  0  0  0  0  0
   -4.6153   -3.9337   -0.1739 C   0  0  0  0  0  0  0  0  0  0  0  0
   -5.0782   -4.9274   -0.0766 H   0  0  0  0  0  0  0  0  0  0  0  0
   -5.3134   -2.8780   -0.8207 C   0  0  0  0  0  0  0  0  0  0  0  0
   -6.3090   -3.0258   -1.2593 H   0  0  0  0  0  0  0  0  0  0  0  0
   -4.6932   -1.6456   -0.9140 C   0  0  0  0  0  0  0  0  0  0  0  0
   -5.1539   -0.7971   -1.4408 H   0  0  0  0  0  0  0  0  0  0  0  0
   -2.7512   -0.0089   -0.5528 B   0  0  0  0  0  0  0  0  0  0  0  0
   -2.6337    0.2299   -1.7598 H   0  0  0  0  0  0  0  0  0  0  0  0
  3 12  1  0  0  0  0
  4 14  1  0  0  0  0
  5  1  1  1  0  0  0
  5  3  1  0  0  0  0
  5  6  1  0  0  0  0
  6  8  2  0  0  0  0
  7  6  1  0  0  0  0
  8 10  1  0  0  0  0
  8  9  1  0  0  0  0
 10 11  1  0  0  0  0
 12 13  1  0  0  0  0
 12 10  2  0  0  0  0
 14 15  1  0  0  0  0
 14  2  1  6  0  0  0
 15 16  1  0  0  0  0
 17 18  1  0  0  0  0
 17 15  2  0  0  0  0
 19 17  1  0  0  0  0
 20 19  1  0  0  0  0
 21 19  2  0  0  0  0
 21  4  1  0  0  0  0
 22 21  1  0  0  0  0
 23  4  1  0  0  0  0
 23  3  1  0  0  0  0
 24 23  1  0  0  0  0
M  END
