1,2,15
q = 0.0, confidence = 0.83

 26 27  0  0  1  0  0  0  0  0999 V2000
    1.0952    1.8526    0.8779 S   0  0  0  0  0  1  0  0  0  0  0  0
    1.0769   -1.7158    0.8333 S   0  0  0  0  0  1  0  0  0  0  0  0
    3.3484    1.1611   -0.5380 N   0  0  0  0  0  0  0  0  0  0  0  0
    3.6838    2.7824    0.9257 N   0  0  0  0  0  0  0  0  0  0  0  0
    3.2225   -1.3566   -0.8156 N   0  0  0  0  0  0  0  0  0  0  0  0
    3.4193   -3.1392    0.4716 N   0  0  0  0  0  0  0  0  0  0  0  0
    2.7454    1.9153    0.4191 C   0  0  1  0  0  3  0  0  0  0  0  0
    4.6720    1.5626   -0.6378 C   0  0  0  0  0  0  0  0  0  0  0  0
    4.8946    2.5654    0.2729 C   0  0  0  0  0  0  0  0  0  0  0  0
    3.4100    3.7520    1.9656 C   0  0  0  0  0  0  0  0  0  0  0  0
    2.6113   -2.0763    0.1546 C   0  0  2  0  0  3  0  0  0  0  0  0
    4.4282   -1.9670   -1.1192 C   0  0  0  0  0  0  0  0  0  0  0  0
    4.5660   -3.0758   -0.3195 C   0  0  0  0  0  0  0  0  0  0  0  0
    3.0994   -4.1401    1.4682 C   0  0  0  0  0  0  0  0  0  0  0  0
    2.6289    0.0041   -1.3446 B   0  0  0  0  0  0  0  0  0  0  0  0
    2.9512    0.1135   -2.5264 H   0  0  0  0  0  0  0  0  0  0  0  0
    5.3530    1.1076   -1.3624 H   0  0  0  0  0  0  0  0  0  0  0  0
    5.7899    3.1500    0.5049 H   0  0  0  0  0  0  0  0  0  0  0  0
    4.2046    4.5206    1.9698 H   0  0  0  0  0  0  0  0  0  0  0  0
    2.4294    4.2293    1.7685 H   0  0  0  0  0  0  0  0  0  0  0  0
    3.3604    3.2677    2.9630 H   0  0  0  0  0  0  0  0  0  0  0  0
    5.0851   -1.5746   -1.9009 H   0  0  0  0  0  0  0  0  0  0  0  0
    5.3525   -3.8337   -0.2572 H   0  0  0  0  0  0  0  0  0  0  0  0
    3.5817   -5.0990    1.2012 H   0  0  0  0  0  0  0  0  0  0  0  0
    3.4371   -3.8290    2.4788 H   0  0  0  0  0  0  0  0  0  0  0  0
    1.9999   -4.2731    1.4950 H   0  0  0  0  0  0  0  0  0  0  0  0
  3  7  1  0  0  0  0
  4 10  1  0  0  0  0
  5 11  1  0  0  0  0
  6 14  1  0  0  0  0
  7  1  1  6  0  0  0
  7  4  1  0  0  0  0
  8  3  1  0  0  0  0
  8  9  2  0  0  0  0
  9 18  1  0  0  0  0
  9  4  1  0  0  0  0
 10 19  1  0  0  0  0
 10 21  1  0  0  0  0
 11  6  1  0  0  0  0
 11  2  1  6  0  0  0
 12  5  1  0  0  0  0
 12 13  2  0  0  0  0
 13 23  1  0  0  0  0
 13  6  1  0  0  0  0
 14 26  1  0  0  0  0
 14 25  1  0  0  0  0
 15  5  1  0  0  0  0
 15  3  1  0  0  0  0
 16 15  1  0  0  0  0
 17  8  1  0  0  0  0
 20 10  1  0  0  0  0
 22 12  1  0  0  0  0
 24 14  1  0  0  0  0
M  END
