1,2,4
q = 0.0, confidence = 0.89

 32 35  0  0  1  0  0  0  0  0999 V2000
   -0.5299   -0.0019    2.0017 S   0  0  0  0  0  1  0  0  0  0  0  0
   -0.2256   -2.9604   -0.0282 S   0  0  0  0  0  1  0  0  0  0  0  0
    1.4225   -2.5546   -0.1042 C   0  0  2  0  0  3  0  0  0  0  0  0
    1.0134   -0.0856   -0.7606 B   0  0  0  0  0  0  0  0  0  0  0  0
    1.2974    1.0551    0.2840 N   0  0  0  0  0  0  0  0  0  0  0  0
    0.7080    1.0545    1.5155 C   0  0  1  0  0  3  0  0  0  0  0  0
    1.9306   -1.3278   -0.4019 N   0  0  0  0  0  0  0  0  0  0  0  0
    3.3261   -1.4225   -0.3866 C   0  0  0  0  0  0  0  0  0  0  0  0
    2.4635   -3.4269    0.1070 N   0  0  0  0  0  0  0  0  0  0  0  0
    4.3343   -0.4772   -0.6251 C   0  0  0  0  0  0  0  0  0  0  0  0
    4.0928    0.5627   -0.8733 H   0  0  0  0  0  0  0  0  0  0  0  0
    1.2278    2.0979    2.2437 N   0  0  0  0  0  0  0  0  0  0  0  0
    2.8789    2.6933   -0.8689 C   0  0  0  0  0  0  0  0  0  0  0  0
    2.8677    2.2062   -1.8535 H   0  0  0  0  0  0  0  0  0  0  0  0
    2.1033    2.8342    1.4536 C   0  0  0  0  0  0  0  0  0  0  0  0
    3.6715   -2.7639   -0.0579 C   0  0  0  0  0  0  0  0  0  0  0  0
    5.0002   -3.1915    0.0423 C   0  0  0  0  0  0  0  0  0  0  0  0
    5.2501   -4.2318    0.2963 H   0  0  0  0  0  0  0  0  0  0  0  0
    2.1305    2.1684    0.1960 C   0  0  0  0  0  0  0  0  0  0  0  0
    2.8398    3.9998    1.6916 C   0  0  0  0  0  0  0  0  0  0  0  0
    2.8153    4.5051    2.6679 H   0  0  0  0  0  0  0  0  0  0  0  0
    3.6141    3.8671   -0.6331 C   0  0  0  0  0  0  0  0  0  0  0  0
    4.2078    4.3007   -1.4514 H   0  0  0  0  0  0  0  0  0  0  0  0
    5.9997   -2.2340   -0.1976 C   0  0  0  0  0  0  0  0  0  0  0  0
    7.0568   -2.5303   -0.1281 H   0  0  0  0  0  0  0  0  0  0  0  0
    3.6023    4.5056    0.6246 C   0  0  0  0  0  0  0  0  0  0  0  0
    4.1910    5.4229    0.7725 H   0  0  0  0  0  0  0  0  0  0  0  0
    5.6689   -0.9033   -0.5256 C   0  0  0  0  0  0  0  0  0  0  0  0
    6.4745   -0.1765   -0.7074 H   0  0  0  0  0  0  0  0  0  0  0  0
    2.3271   -4.4083    0.3436 H   0  0  0  0  0  0  0  0  0  0  0  0
    0.8905    2.3424    3.1736 H   0  0  0  0  0  0  0  0  0  0  0  0
    1.3049    0.3233   -1.8814 H   0  0  0  0  0  0  0  0  0  0  0  0
  3  2  1  6  0  0  0
  3  9  1  0  0  0  0
  4  7  1  0  0  0  0
  4  5  1  0  0  0  0
  5  6  1  0  0  0  0
  6  1  1  6  0  0  0
  6 12  1  0  0  0  0
  7  8  1  0  0  0  0
  7  3  1  0  0  0  0
  8 16  1  0  0  0  0
  9 30  1  0  0  0  0
 10 28  1  0  0  0  0
 10  8  2  0  0  0  0
 11 10  1  0  0  0  0
 12 31  1  0  0  0  0
 13 22  2  0  0  0  0
 13 19  1  0  0  0  0
 14 13  1  0  0  0  0
 15 20  1  0  0  0  0
 15 12  1  0  0  0  0
 16 17  2  0  0  0  0
 16  9  1  0  0  0  0
 17 18  1  0  0  0  0
 19  5  1  0  0  0  0
 19 15  2  0  0  0  0
 20 21  1  0  0  0  0
 22 26  1  0  0  0  0
 23 22  1  0  0  0  0
 24 25  1  0  0  0  0
 24 17  1  0  0  0  0
 26 27  1  0  0  0  0
 26 20  2  0  0  0  0
 28 24  2  0  0  0  0
 29 28  1  0  0  0  0
 32  4  1  0  0  0  0
M  END
