1,2,21
 OpenBabel05122313063D

 40 41  0  0  1  0  0  0  0  0999 V2000
   -0.8374   -1.8417    0.5822 S   0  0  0  0  0  1  0  0  0  0  0  0
   -0.6471    1.7432    0.4999 S   0  0  0  0  0  1  0  0  0  0  0  0
   -2.7848   -1.1313   -1.1927 N   0  0  0  0  0  0  0  0  0  0  0  0
   -4.0587   -1.4551   -1.5289 N   0  0  0  0  0  0  0  0  0  0  0  0
   -4.4724   -2.3902   -0.7553 N   0  0  0  0  0  0  0  0  0  0  0  0
   -3.4620   -2.7003    0.1127 N   0  0  0  0  0  0  0  0  0  0  0  0
   -2.5753    1.3695   -1.3687 N   0  0  0  0  0  0  0  0  0  0  0  0
   -3.7157    1.9355   -1.8331 N   0  0  0  0  0  0  0  0  0  0  0  0
   -3.9771    2.9817   -1.1378 N   0  0  0  0  0  0  0  0  0  0  0  0
   -2.9976    3.1167   -0.1899 N   0  0  0  0  0  0  0  0  0  0  0  0
   -2.3780   -1.9081   -0.1519 C   0  0  1  0  0  3  0  0  0  0  0  0
   -2.0991    2.0993   -0.3307 C   0  0  2  0  0  3  0  0  0  0  0  0
   -3.6173   -3.7700    1.1423 C   0  0  0  0  0  0  0  0  0  0  0  0
   -3.4074   -3.1336    2.5273 C   0  0  0  0  0  0  0  0  0  0  0  0
   -2.5691   -4.8601    0.8603 C   0  0  0  0  0  0  0  0  0  0  0  0
   -5.0331   -4.3485    1.0313 C   0  0  0  0  0  0  0  0  0  0  0  0
   -2.9797    4.2634    0.7653 C   0  0  0  0  0  0  0  0  0  0  0  0
   -2.9901    3.6929    2.1938 C   0  0  0  0  0  0  0  0  0  0  0  0
   -1.7071    5.0861    0.4968 C   0  0  0  0  0  0  0  0  0  0  0  0
   -4.2309    5.1159    0.5229 C   0  0  0  0  0  0  0  0  0  0  0  0
   -1.9399    0.0179   -1.8718 B   0  0  0  0  0  0  0  0  0  0  0  0
   -2.0802   -0.0523   -3.0807 H   0  0  0  0  0  0  0  0  0  0  0  0
   -3.5056   -3.9123    3.3086 H   0  0  0  0  0  0  0  0  0  0  0  0
   -4.1698   -2.3517    2.7156 H   0  0  0  0  0  0  0  0  0  0  0  0
   -2.4019   -2.6764    2.6112 H   0  0  0  0  0  0  0  0  0  0  0  0
   -2.6539   -5.6590    1.6226 H   0  0  0  0  0  0  0  0  0  0  0  0
   -1.5422   -4.4467    0.8963 H   0  0  0  0  0  0  0  0  0  0  0  0
   -2.7357   -5.3102   -0.1383 H   0  0  0  0  0  0  0  0  0  0  0  0
   -5.1442   -5.1389    1.7988 H   0  0  0  0  0  0  0  0  0  0  0  0
   -5.8043   -3.5746    1.2036 H   0  0  0  0  0  0  0  0  0  0  0  0
   -5.2149   -4.7922    0.0348 H   0  0  0  0  0  0  0  0  0  0  0  0
   -3.9109    3.1027    2.3710 H   0  0  0  0  0  0  0  0  0  0  0  0
   -2.9635    4.5259    2.9230 H   0  0  0  0  0  0  0  0  0  0  0  0
   -2.1125    3.0421    2.3756 H   0  0  0  0  0  0  0  0  0  0  0  0
   -1.7177    5.4906   -0.5346 H   0  0  0  0  0  0  0  0  0  0  0  0
   -1.6618    5.9362    1.2050 H   0  0  0  0  0  0  0  0  0  0  0  0
   -0.7937    4.4729    0.6266 H   0  0  0  0  0  0  0  0  0  0  0  0
   -4.2546    5.5214   -0.5056 H   0  0  0  0  0  0  0  0  0  0  0  0
   -4.2182    5.9603    1.2389 H   0  0  0  0  0  0  0  0  0  0  0  0
   -5.1572    4.5318    0.6786 H   0  0  0  0  0  0  0  0  0  0  0  0
  3 11  1  0  0  0  0
  4  3  1  0  0  0  0
  4  5  2  0  0  0  0
  5  6  1  0  0  0  0
  6 13  1  0  0  0  0
  7 12  1  0  0  0  0
  8  7  1  0  0  0  0
  8  9  2  0  0  0  0
  9 10  1  0  0  0  0
 10 17  1  0  0  0  0
 11  6  1  0  0  0  0
 11  1  1  6  0  0  0
 12 10  1  0  0  0  0
 12  2  1  6  0  0  0
 13 14  1  0  0  0  0
 14 25  1  0  0  0  0
 14 24  1  0  0  0  0
 14 23  1  0  0  0  0
 15 27  1  0  0  0  0
 15 13  1  0  0  0  0
 15 26  1  0  0  0  0
 16 13  1  0  0  0  0
 16 30  1  0  0  0  0
 16 29  1  0  0  0  0
 17 18  1  0  0  0  0
 18 32  1  0  0  0  0
 18 34  1  0  0  0  0
 18 33  1  0  0  0  0
 19 37  1  0  0  0  0
 19 17  1  0  0  0  0
 19 36  1  0  0  0  0
 20 40  1  0  0  0  0
 20 17  1  0  0  0  0
 20 39  1  0  0  0  0
 21  7  1  0  0  0  0
 21  3  1  0  0  0  0
 22 21  1  0  0  0  0
 28 15  1  0  0  0  0
 31 16  1  0  0  0  0
 35 19  1  0  0  0  0
 38 20  1  0  0  0  0
M  END
