9,14,20,28
q = -2.0, confidence = 0.83

 43 46  0  0  0  0  0  0  0  0999 V2000
   -3.1771   -2.5158   -0.2627 Se  0  0  0  0  0  0  0  0  0  0  0  0
    3.3528    4.4018   -0.1976 C   0  0  0  0  0  0  0  0  0  0  0  0
    4.1324    5.1780   -0.2133 H   0  0  0  0  0  0  0  0  0  0  0  0
    2.6913    2.0399   -0.0209 C   0  0  0  0  0  0  0  0  0  0  0  0
   -3.1752    1.7885    1.8552 C   0  0  0  0  0  0  0  0  0  0  0  0
   -3.2432    2.8621    2.1273 H   0  0  0  0  0  0  0  0  0  0  0  0
   -2.2747    1.3672    2.3456 H   0  0  0  0  0  0  0  0  0  0  0  0
   -4.0689    1.2679    2.2546 H   0  0  0  0  0  0  0  0  0  0  0  0
    1.1655   -0.5107    0.0036 N   0  0  0  0  0  0  0  0  0  0  0  0
    1.0506    3.7095   -0.3103 C   0  0  0  0  0  0  0  0  0  0  0  0
   -0.0162    3.9383   -0.4223 H   0  0  0  0  0  0  0  0  0  0  0  0
   -2.9549    0.1554    0.0233 C   0  0  0  0  0  0  0  0  0  0  0  0
    3.1519   -1.6894    0.1165 C   0  0  0  0  0  0  0  0  0  0  0  0
    1.3534    2.3947   -0.1341 N   0  0  0  0  0  2  0  0  0  0  0  0
    4.7400   -3.4865    0.2069 C   0  0  0  0  0  0  0  0  0  0  0  0
    5.7780   -3.8472    0.2689 H   0  0  0  0  0  0  0  0  0  0  0  0
    4.4840   -2.1019    0.1939 C   0  0  0  0  0  0  0  0  0  0  0  0
    5.2941   -1.3596    0.2428 H   0  0  0  0  0  0  0  0  0  0  0  0
   -0.3630   -2.3787   -0.0966 N   0  0  0  0  0  0  0  0  0  0  0  0
   -1.7738    2.3222   -0.1806 C   0  0  0  0  0  3  0  0  0  0  0  0
   -1.6262    3.2651    0.3877 H   0  0  0  0  0  0  0  0  0  0  0  0
   -1.8564    2.5749   -1.2624 H   0  0  0  0  0  0  0  0  0  0  0  0
    2.5243   -0.3476    0.0739 C   0  0  0  0  0  0  0  0  0  0  0  0
    3.6858    3.0659   -0.0373 C   0  0  0  0  0  0  0  0  0  0  0  0
    4.7239    2.7249    0.0701 H   0  0  0  0  0  0  0  0  0  0  0  0
    2.0954   -2.6280    0.0505 C   0  0  0  0  0  3  0  0  0  0  0  0
   -3.0778    1.6382    0.3172 C   0  0  0  0  0  0  0  0  0  0  0  0
   -1.6501   -0.3149    0.0047 N   0  0  0  0  0  2  0  0  0  0  0  0
    3.1973    0.7764    0.0883 N   0  0  0  0  0  0  0  0  0  0  0  0
   -1.4838   -1.6478   -0.1026 C   0  0  0  0  0  0  0  0  0  0  0  0
    2.3455   -4.0030    0.0610 C   0  0  0  0  0  0  0  0  0  0  0  0
    1.5150   -4.7221    0.0080 H   0  0  0  0  0  0  0  0  0  0  0  0
   -4.3254    2.2494   -0.3422 C   0  0  0  0  0  0  0  0  0  0  0  0
   -4.3089    2.1042   -1.4409 H   0  0  0  0  0  0  0  0  0  0  0  0
   -4.3645    3.3387   -0.1389 H   0  0  0  0  0  0  0  0  0  0  0  0
   -5.2635    1.8046    0.0522 H   0  0  0  0  0  0  0  0  0  0  0  0
    1.9924    4.7322   -0.3502 C   0  0  0  0  0  0  0  0  0  0  0  0
    1.6570    5.7684   -0.4960 H   0  0  0  0  0  0  0  0  0  0  0  0
   -3.9289   -0.8030   -0.1249 C   0  0  0  0  0  0  0  0  0  0  0  0
   -5.0126   -0.6416   -0.1366 H   0  0  0  0  0  0  0  0  0  0  0  0
    0.8443   -1.8444   -0.0193 C   0  0  0  0  0  0  0  0  0  0  0  0
    3.6873   -4.4220    0.1410 C   0  0  0  0  0  0  0  0  0  0  0  0
    3.9207   -5.4975    0.1522 H   0  0  0  0  0  0  0  0  0  0  0  0
  1 39  1  0  0  0  0
  1 30  1  0  0  0  0
  2 24  2  0  0  0  0
  3  2  1  0  0  0  0
  4 29  2  0  0  0  0
  5  6  1  0  0  0  0
  5  8  1  0  0  0  0
  5  7  1  0  0  0  0
  9 23  1  0  0  0  0
 10 14  1  0  0  0  0
 11 10  1  0  0  0  0
 12 27  1  0  0  0  0
 13 17  1  0  0  0  0
 14  4  1  0  0  0  0
 15 16  1  0  0  0  0
 17 15  2  0  0  0  0
 17 18  1  0  0  0  0
 19 41  1  0  0  0  0
 20 27  1  0  0  0  0
 20 21  1  0  0  0  0
 22 20  1  0  0  0  0
 23 29  1  0  0  0  0
 23 13  2  0  0  0  0
 24  4  1  0  0  0  0
 24 25  1  0  0  0  0
 26 31  1  0  0  0  0
 26 13  1  0  0  0  0
 27  5  1  0  0  0  0
 28 12  1  0  0  0  0
 30 19  2  0  0  0  0
 30 28  1  0  0  0  0
 31 42  2  0  0  0  0
 32 31  1  0  0  0  0
 33 35  1  0  0  0  0
 33 36  1  0  0  0  0
 33 27  1  0  0  0  0
 34 33  1  0  0  0  0
 37 10  2  0  0  0  0
 37  2  1  0  0  0  0
 38 37  1  0  0  0  0
 39 12  2  0  0  0  0
 40 39  1  0  0  0  0
 41  9  2  0  0  0  0
 41 26  1  0  0  0  0
 42 43  1  0  0  0  0
 42 15  1  0  0  0  0
M  END
