3,4,6,36
q = 0.0, confidence = 0.982

 40 41  0  0  1  0  0  0  0  0999 V2000
   -0.6881    0.0001    2.0968 Cl  0  0  0  0  0  0  0  0  0  0  0  0
   -2.1723   -1.2419    0.0736 C   0  0  0  0  0  0  0  0  0  0  0  0
   -1.6613   -0.0000    0.5351 C   0  0  1  0  0  3  0  0  0  0  0  0
    2.4672    0.0000   -0.5382 N   0  0  0  0  0  0  0  0  0  0  0  0
    2.5633    0.0001   -1.5660 H   0  0  0  0  0  0  0  0  0  0  0  0
    0.0366    2.0809   -0.3615 N   0  0  0  0  0  0  0  0  0  0  0  0
   -0.0930    2.1915   -1.3795 H   0  0  0  0  0  0  0  0  0  0  0  0
   -2.1723    1.2418    0.0736 C   0  0  0  0  0  0  0  0  0  0  0  0
   -3.2872    1.2169   -0.7770 C   0  0  0  0  0  0  0  0  0  0  0  0
   -3.6806    2.1686   -1.1677 H   0  0  0  0  0  0  0  0  0  0  0  0
   -3.8817   -0.0001   -1.1559 C   0  0  0  0  0  3  0  0  0  0  0  0
   -4.7693   -0.0002   -1.8040 H   0  0  0  0  0  0  0  0  0  0  0  0
   -3.2871   -1.2172   -0.7769 C   0  0  0  0  0  0  0  0  0  0  0  0
   -3.6804   -2.1689   -1.1676 H   0  0  0  0  0  0  0  0  0  0  0  0
   -1.2776   -2.4269    0.2877 C   0  0  0  0  0  0  0  0  0  0  0  0
   -1.7078   -3.3657   -0.1203 H   0  0  0  0  0  0  0  0  0  0  0  0
   -1.0705   -2.5870    1.3651 H   0  0  0  0  0  0  0  0  0  0  0  0
    1.1600   -2.9440    0.0604 C   0  0  0  0  0  0  0  0  0  0  0  0
    0.9530   -4.0106   -0.1849 H   0  0  0  0  0  0  0  0  0  0  0  0
    1.2221   -2.8791    1.1675 H   0  0  0  0  0  0  0  0  0  0  0  0
    2.4970   -2.5266   -0.5573 C   0  0  0  0  0  0  0  0  0  0  0  0
    2.4133   -2.4883   -1.6678 H   0  0  0  0  0  0  0  0  0  0  0  0
    3.2204   -3.3427   -0.3552 H   0  0  0  0  0  0  0  0  0  0  0  0
    3.1201   -1.2302   -0.0312 C   0  0  0  0  0  0  0  0  0  0  0  0
    3.0574   -1.2056    1.0776 H   0  0  0  0  0  0  0  0  0  0  0  0
    4.2058   -1.2140   -0.2842 H   0  0  0  0  0  0  0  0  0  0  0  0
    2.4969    2.5267   -0.5573 C   0  0  0  0  0  0  0  0  0  0  0  0
    3.2202    3.3428   -0.3551 H   0  0  0  0  0  0  0  0  0  0  0  0
    2.4132    2.4885   -1.6678 H   0  0  0  0  0  0  0  0  0  0  0  0
    1.1598    2.9441    0.0603 C   0  0  0  0  0  0  0  0  0  0  0  0
    1.2218    2.8792    1.1675 H   0  0  0  0  0  0  0  0  0  0  0  0
    0.9528    4.0107   -0.1849 H   0  0  0  0  0  0  0  0  0  0  0  0
   -1.2778    2.4269    0.2876 C   0  0  0  0  0  0  0  0  0  0  0  0
   -1.0708    2.5871    1.3649 H   0  0  0  0  0  0  0  0  0  0  0  0
   -1.7080    3.3656   -0.1206 H   0  0  0  0  0  0  0  0  0  0  0  0
    0.0367   -2.0809   -0.3615 N   0  0  0  0  0  0  0  0  0  0  0  0
   -0.0929   -2.1915   -1.3795 H   0  0  0  0  0  0  0  0  0  0  0  0
    3.1200    1.2303   -0.0312 C   0  0  0  0  0  0  0  0  0  0  0  0
    4.2057    1.2142   -0.2841 H   0  0  0  0  0  0  0  0  0  0  0  0
    3.0573    1.2057    1.0776 H   0  0  0  0  0  0  0  0  0  0  0  0
  2 15  1  0  0  0  0
  2  3  1  0  0  0  0
  3  1  1  1  0  0  0
  4 24  1  0  0  0  0
  4 38  1  0  0  0  0
  5  4  1  0  0  0  0
  6 30  1  0  0  0  0
  6 33  1  0  0  0  0
  7  6  1  0  0  0  0
  8 33  1  0  0  0  0
  8  3  1  0  0  0  0
  9  8  2  0  0  0  0
 10  9  1  0  0  0  0
 11  9  1  0  0  0  0
 11 13  1  0  0  0  0
 12 11  1  0  0  0  0
 13  2  2  0  0  0  0
 14 13  1  0  0  0  0
 15 17  1  0  0  0  0
 16 15  1  0  0  0  0
 18 20  1  0  0  0  0
 19 18  1  0  0  0  0
 21 23  1  0  0  0  0
 21 24  1  0  0  0  0
 21 18  1  0  0  0  0
 22 21  1  0  0  0  0
 24 25  1  0  0  0  0
 26 24  1  0  0  0  0
 27 28  1  0  0  0  0
 27 38  1  0  0  0  0
 27 30  1  0  0  0  0
 29 27  1  0  0  0  0
 30 31  1  0  0  0  0
 32 30  1  0  0  0  0
 33 34  1  0  0  0  0
 35 33  1  0  0  0  0
 36 18  1  0  0  0  0
 36 15  1  0  0  0  0
 37 36  1  0  0  0  0
 38 40  1  0  0  0  0
 39 38  1  0  0  0  0
M  END
