1,2,3,19
q = 0.0, confidence = 0.984

 44 46  0  0  1  0  0  0  0  0999 V2000
    0.4240    0.6205    1.4890 N   0  0  0  0  0  0  0  0  0  0  0  0
   -1.2425    1.0154   -0.7488 N   0  0  0  0  0  2  0  0  0  0  0  0
    2.1036   -0.1247   -0.6297 N   0  0  0  0  0  2  0  0  0  0  0  0
   -2.2913    1.0092   -1.5985 C   0  0  0  0  0  3  0  0  0  0  0  0
   -3.2827    1.9973   -1.5776 C   0  0  0  0  0  0  0  0  0  0  0  0
   -3.1870    3.0260   -0.6311 C   0  0  0  0  0  0  0  0  0  0  0  0
   -2.1005    3.0290    0.2573 C   0  0  0  0  0  0  0  0  0  0  0  0
   -1.1401    2.0130    0.1700 C   0  0  0  0  0  0  0  0  0  0  0  0
    0.0962    1.9844    1.0503 C   0  0  0  0  0  0  0  0  0  0  0  0
    2.8425   -0.2589   -1.7528 C   0  0  0  0  0  3  0  0  0  0  0  0
    4.1953    0.0906   -1.8142 C   0  0  0  0  0  0  0  0  0  0  0  0
    4.8040    0.6155   -0.6650 C   0  0  0  0  0  0  0  0  0  0  0  0
    4.0374    0.7608    0.4993 C   0  0  0  0  0  0  0  0  0  0  0  0
    2.6897    0.3700    0.4907 C   0  0  0  0  0  0  0  0  0  0  0  0
    1.8474    0.4215    1.7559 C   0  0  0  0  0  0  0  0  0  0  0  0
   -0.4704    0.1257    2.5498 C   0  0  0  0  0  0  0  0  0  0  0  0
   -0.6169   -1.4106    2.5614 C   0  0  0  0  0  0  0  0  0  0  0  0
   -1.1051   -1.9287    1.2291 C   0  0  2  0  0  3  0  0  0  0  0  0
   -0.1661   -2.3894    0.2563 C   0  0  0  0  0  3  0  0  0  0  0  0
   -0.6072   -2.6798   -1.0656 C   0  0  0  0  0  0  0  0  0  0  0  0
   -1.9788   -2.6019   -1.3863 C   0  0  0  0  0  0  0  0  0  0  0  0
   -2.9087   -2.2304   -0.4034 C   0  0  0  0  0  0  0  0  0  0  0  0
   -2.4696   -1.8722    0.8829 C   0  0  0  0  0  0  0  0  0  0  0  0
   -2.3314    0.1746   -2.3147 H   0  0  0  0  0  0  0  0  0  0  0  0
   -4.1165    1.9519   -2.2924 H   0  0  0  0  0  0  0  0  0  0  0  0
   -3.9513    3.8154   -0.5792 H   0  0  0  0  0  0  0  0  0  0  0  0
   -1.9938    3.8168    1.0175 H   0  0  0  0  0  0  0  0  0  0  0  0
   -0.0236    2.6901    1.9052 H   0  0  0  0  0  0  0  0  0  0  0  0
    0.9512    2.3606    0.4468 H   0  0  0  0  0  0  0  0  0  0  0  0
    2.3206   -0.6625   -2.6349 H   0  0  0  0  0  0  0  0  0  0  0  0
    4.7550   -0.0409   -2.7510 H   0  0  0  0  0  0  0  0  0  0  0  0
    5.8631    0.9126   -0.6757 H   0  0  0  0  0  0  0  0  0  0  0  0
    4.4797    1.1730    1.4185 H   0  0  0  0  0  0  0  0  0  0  0  0
    2.2656    1.1864    2.4529 H   0  0  0  0  0  0  0  0  0  0  0  0
    1.9608   -0.5557    2.2725 H   0  0  0  0  0  0  0  0  0  0  0  0
   -0.1460    0.4918    3.5529 H   0  0  0  0  0  0  0  0  0  0  0  0
   -1.4700    0.5668    2.3582 H   0  0  0  0  0  0  0  0  0  0  0  0
    0.3472   -1.8913    2.8297 H   0  0  0  0  0  0  0  0  0  0  0  0
   -1.3286   -1.6709    3.3707 H   0  0  0  0  0  0  0  0  0  0  0  0
    0.8607   -2.6450    0.5642 H   0  0  0  0  0  0  0  0  0  0  0  0
    0.1105   -3.0646   -1.8062 H   0  0  0  0  0  0  0  0  0  0  0  0
   -2.3173   -2.8662   -2.3993 H   0  0  0  0  0  0  0  0  0  0  0  0
   -3.9822   -2.2051   -0.6417 H   0  0  0  0  0  0  0  0  0  0  0  0
   -3.2017   -1.5429    1.6371 H   0  0  0  0  0  0  0  0  0  0  0  0
  1 15  1  0  0  0  0
  1 16  1  0  0  0  0
  2  8  1  0  0  0  0
  3 14  1  0  0  0  0
  4  5  1  0  0  0  0
  4  2  1  0  0  0  0
  5  6  2  0  0  0  0
  6 26  1  0  0  0  0
  6  7  1  0  0  0  0
  7 27  1  0  0  0  0
  8  7  2  0  0  0  0
  8  9  1  0  0  0  0
  9  1  1  0  0  0  0
  9 28  1  0  0  0  0
 10  3  1  0  0  0  0
 11 10  1  0  0  0  0
 11 12  2  0  0  0  0
 12 13  1  0  0  0  0
 13 33  1  0  0  0  0
 14 13  2  0  0  0  0
 14 15  1  0  0  0  0
 15 35  1  0  0  0  0
 15 34  1  0  0  0  0
 16 17  1  0  0  0  0
 16 36  1  0  0  0  0
 17 38  1  0  0  0  0
 17 39  1  0  0  0  0
 18 17  1  6  0  0  0
 19 40  1  0  0  0  0
 19 18  1  0  0  0  0
 20 19  1  0  0  0  0
 21 20  2  0  0  0  0
 21 22  1  0  0  0  0
 22 23  2  0  0  0  0
 23 18  1  0  0  0  0
 23 44  1  0  0  0  0
 24  4  1  0  0  0  0
 25  5  1  0  0  0  0
 29  9  1  0  0  0  0
 30 10  1  0  0  0  0
 31 11  1  0  0  0  0
 32 12  1  0  0  0  0
 37 16  1  0  0  0  0
 41 20  1  0  0  0  0
 42 21  1  0  0  0  0
 43 22  1  0  0  0  0
M  END
