3,5,6,26
q = -2.0, confidence = 0.528

 49 51  0  0  0  0  0  0  0  0999 V2000
    2.3995    3.9881    0.4334 O   0  0  0  0  0  0  0  0  0  0  0  0
   -1.9106   -0.3253    1.6806 O   0  0  0  0  0  0  0  0  0  0  0  0
    2.2878   -1.2598   -0.0069 N   0  0  0  0  0  2  0  0  0  0  0  0
    3.4482    1.4929    0.3706 N   0  0  0  0  0  0  0  0  0  0  0  0
    2.1799    1.6589    0.1662 N   0  0  0  0  0  2  0  0  0  0  0  0
   -0.3095   -1.4963   -0.2287 N   0  0  0  0  0  2  0  0  0  0  0  0
   -1.6702   -1.5327   -0.2648 N   0  0  0  0  0  0  0  0  0  0  0  0
    3.6194   -0.9994    0.1307 C   0  0  0  0  0  0  0  0  0  0  0  0
    4.5313   -2.0911    0.0290 C   0  0  0  0  0  0  0  0  0  0  0  0
    4.0707   -3.3772   -0.2416 C   0  0  0  0  0  0  0  0  0  0  0  0
    2.6939   -3.6036   -0.4056 C   0  0  0  0  0  0  0  0  0  0  0  0
    1.8194   -2.5139   -0.2690 C   0  0  0  0  0  0  0  0  0  0  0  0
    4.1241    0.3547    0.3719 C   0  0  0  0  0  0  0  0  0  0  0  0
    5.6076    0.5262    0.6317 C   0  0  0  0  0  0  0  0  0  0  0  0
    1.6958    3.0270    0.1844 C   0  0  0  0  0  0  0  0  0  0  0  0
    0.3577   -2.6323   -0.3622 C   0  0  0  0  0  0  0  0  0  0  0  0
   -0.3449   -3.9453   -0.5400 C   0  0  0  0  0  0  0  0  0  0  0  0
   -2.4274   -0.8534    0.7100 C   0  0  0  0  0  0  0  0  0  0  0  0
   -3.9040   -0.8701    0.4515 C   0  0  0  0  0  0  0  0  0  0  0  0
   -4.4720   -1.1166   -0.8167 C   0  0  0  0  0  0  0  0  0  0  0  0
   -5.8642   -1.0956   -0.9819 C   0  0  0  0  0  0  0  0  0  0  0  0
   -6.6979   -0.8258    0.1153 C   0  0  0  0  0  0  0  0  0  0  0  0
   -6.1365   -0.5653    1.3771 C   0  0  0  0  0  0  0  0  0  0  0  0
   -4.7470   -0.5822    1.5438 C   0  0  0  0  0  0  0  0  0  0  0  0
    0.2534    3.0411   -0.1728 C   0  0  0  0  0  0  0  0  0  0  0  0
   -0.3737    1.7935   -0.4052 C   0  0  0  0  0  3  0  0  0  0  0  0
   -1.7004    1.8068   -0.8673 C   0  0  0  0  0  0  0  0  0  0  0  0
   -2.3908    3.0219   -1.0366 C   0  0  0  0  0  0  0  0  0  0  0  0
   -1.7655    4.2496   -0.7546 C   0  0  0  0  0  0  0  0  0  0  0  0
   -0.4307    4.2595   -0.3294 C   0  0  0  0  0  0  0  0  0  0  0  0
    5.6055   -1.9113    0.1540 H   0  0  0  0  0  0  0  0  0  0  0  0
    4.7824   -4.2109   -0.3330 H   0  0  0  0  0  0  0  0  0  0  0  0
    2.3174   -4.6075   -0.6397 H   0  0  0  0  0  0  0  0  0  0  0  0
   -2.1237   -2.2714   -0.8105 H   0  0  0  0  0  0  0  0  0  0  0  0
    6.2320    0.2303   -0.2389 H   0  0  0  0  0  0  0  0  0  0  0  0
    5.7950    1.5954    0.8346 H   0  0  0  0  0  0  0  0  0  0  0  0
    5.9572   -0.0613    1.5072 H   0  0  0  0  0  0  0  0  0  0  0  0
   -0.7876   -4.0450   -1.5561 H   0  0  0  0  0  0  0  0  0  0  0  0
   -1.1716   -4.0436    0.1947 H   0  0  0  0  0  0  0  0  0  0  0  0
    0.3343   -4.8021   -0.3959 H   0  0  0  0  0  0  0  0  0  0  0  0
   -3.8288   -1.2845   -1.6948 H   0  0  0  0  0  0  0  0  0  0  0  0
   -6.3002   -1.2766   -1.9758 H   0  0  0  0  0  0  0  0  0  0  0  0
   -7.7904   -0.8079   -0.0164 H   0  0  0  0  0  0  0  0  0  0  0  0
   -6.7888   -0.3422    2.2347 H   0  0  0  0  0  0  0  0  0  0  0  0
   -4.2784   -0.3663    2.5151 H   0  0  0  0  0  0  0  0  0  0  0  0
   -2.2197    0.8695   -1.1164 H   0  0  0  0  0  0  0  0  0  0  0  0
   -3.4329    3.0073   -1.3951 H   0  0  0  0  0  0  0  0  0  0  0  0
   -2.3166    5.1937   -0.8817 H   0  0  0  0  0  0  0  0  0  0  0  0
    0.1105    5.1965   -0.1232 H   0  0  0  0  0  0  0  0  0  0  0  0
  3  8  1  0  0  0  0
  4 13  2  0  0  0  0
  5 15  1  0  0  0  0
  5  4  1  0  0  0  0
  7  6  1  0  0  0  0
  7 18  1  0  0  0  0
  8 13  1  0  0  0  0
  9  8  2  0  0  0  0
  9 31  1  0  0  0  0
 10  9  1  0  0  0  0
 11 12  1  0  0  0  0
 11 10  2  0  0  0  0
 12  3  1  0  0  0  0
 13 14  1  0  0  0  0
 14 36  1  0  0  0  0
 14 37  1  0  0  0  0
 15  1  2  0  0  0  0
 16 12  2  0  0  0  0
 16  6  1  0  0  0  0
 17 40  1  0  0  0  0
 17 16  1  0  0  0  0
 17 39  1  0  0  0  0
 18  2  2  0  0  0  0
 19 18  1  0  0  0  0
 19 24  1  0  0  0  0
 20 19  2  0  0  0  0
 21 20  1  0  0  0  0
 21 22  2  0  0  0  0
 22 23  1  0  0  0  0
 23 24  2  0  0  0  0
 23 44  1  0  0  0  0
 24 45  1  0  0  0  0
 25 15  1  0  0  0  0
 26 25  2  0  0  0  0
 27 26  1  0  0  0  0
 28 27  2  0  0  0  0
 28 29  1  0  0  0  0
 29 30  2  0  0  0  0
 30 25  1  0  0  0  0
 30 49  1  0  0  0  0
 32 10  1  0  0  0  0
 33 11  1  0  0  0  0
 34  7  1  0  0  0  0
 35 14  1  0  0  0  0
 38 17  1  0  0  0  0
 41 20  1  0  0  0  0
 42 21  1  0  0  0  0
 43 22  1  0  0  0  0
 46 27  1  0  0  0  0
 47 28  1  0  0  0  0
 48 29  1  0  0  0  0
M  END
