1,2,3,38
q = -1.0, confidence = 0.246

 80 88  0  0  0  0  0  0  0  0999 V2000
    2.0564   -0.6988    0.0153 N   0  0  0  0  0  2  0  0  0  0  0  0
    0.0001    1.4153   -0.0000 N   0  0  0  0  0  0  0  0  0  0  0  0
   -2.0565   -0.6987   -0.0153 N   0  0  0  0  0  2  0  0  0  0  0  0
    6.5663    5.8384   -0.0618 N   0  0  0  0  0  0  0  0  0  0  0  0
   -6.5657    5.8390    0.0618 N   0  0  0  0  0  0  0  0  0  0  0  0
   -7.2856    5.9235   -0.9329 O   0  0  0  0  0  0  0  0  0  0  0  0
   -6.6512    6.5479    1.0642 O   0  0  0  0  0  0  0  0  0  0  0  0
    7.2861    5.9229    0.9329 O   0  0  0  0  0  0  0  0  0  0  0  0
    6.6518    6.5473   -1.0642 O   0  0  0  0  0  0  0  0  0  0  0  0
   -1.1133    2.2310    0.0128 C   0  0  0  0  0  3  0  0  0  0  0  0
   -0.6863    3.6147    0.0007 C   0  0  0  0  0  0  0  0  0  0  0  0
   -1.3561    4.4803   -0.0069 H   0  0  0  0  0  0  0  0  0  0  0  0
    0.6866    3.6146   -0.0006 C   0  0  0  0  0  0  0  0  0  0  0  0
    1.3564    4.4802    0.0069 H   0  0  0  0  0  0  0  0  0  0  0  0
    1.1135    2.2309   -0.0128 C   0  0  0  0  0  0  0  0  0  0  0  0
    2.4485    1.7894   -0.0197 C   0  0  0  0  0  0  0  0  0  0  0  0
    2.8602    0.4377   -0.0187 C   0  0  0  0  0  0  0  0  0  0  0  0
    4.2378    0.0222   -0.0918 C   0  0  0  0  0  0  0  0  0  0  0  0
    5.0909    0.7038   -0.1592 H   0  0  0  0  0  0  0  0  0  0  0  0
    4.2560   -1.3532   -0.0906 C   0  0  0  0  0  0  0  0  0  0  0  0
    5.1249   -2.0151   -0.1559 H   0  0  0  0  0  0  0  0  0  0  0  0
    2.8939   -1.8065   -0.0165 C   0  0  0  0  0  0  0  0  0  0  0  0
    2.4979   -3.1634   -0.0160 C   0  0  0  0  0  0  0  0  0  0  0  0
    1.1488   -3.5527   -0.0102 C   0  0  0  0  0  0  0  0  0  0  0  0
    0.6818   -4.9508    0.0017 C   0  0  0  0  0  0  0  0  0  0  0  0
    1.3445   -5.8238    0.0108 H   0  0  0  0  0  0  0  0  0  0  0  0
   -0.6822   -4.9508   -0.0017 C   0  0  0  0  0  0  0  0  0  0  0  0
   -1.3449   -5.8237   -0.0109 H   0  0  0  0  0  0  0  0  0  0  0  0
   -1.1491   -3.5527    0.0102 C   0  0  0  0  0  0  0  0  0  0  0  0
   -2.4982   -3.1632    0.0160 C   0  0  0  0  0  0  0  0  0  0  0  0
   -2.8941   -1.8062    0.0165 C   0  0  0  0  0  0  0  0  0  0  0  0
   -4.2561   -1.3529    0.0906 C   0  0  0  0  0  0  0  0  0  0  0  0
   -5.1251   -2.0147    0.1559 H   0  0  0  0  0  0  0  0  0  0  0  0
   -4.2378    0.0225    0.0918 C   0  0  0  0  0  0  0  0  0  0  0  0
   -5.0909    0.7042    0.1593 H   0  0  0  0  0  0  0  0  0  0  0  0
   -2.8602    0.4379    0.0187 C   0  0  0  0  0  0  0  0  0  0  0  0
   -2.4484    1.7896    0.0197 C   0  0  0  0  0  0  0  0  0  0  0  0
   -0.0001   -2.7095   -0.0000 C   0  0  0  0  0  2  0  0  0  0  0  0
    3.5169    2.8333   -0.0323 C   0  0  0  0  0  0  0  0  0  0  0  0
    3.6829    3.6773   -1.1536 C   0  0  0  0  0  0  0  0  0  0  0  0
    3.0250    3.5465   -2.0253 H   0  0  0  0  0  0  0  0  0  0  0  0
    4.6774    4.6615   -1.1704 C   0  0  0  0  0  0  0  0  0  0  0  0
    4.8313    5.3250   -2.0316 H   0  0  0  0  0  0  0  0  0  0  0  0
    5.5089    4.7967   -0.0515 C   0  0  0  0  0  0  0  0  0  0  0  0
    5.3727    3.9777    1.0768 C   0  0  0  0  0  0  0  0  0  0  0  0
    6.0469    4.1302    1.9299 H   0  0  0  0  0  0  0  0  0  0  0  0
    4.3746    2.9975    1.0791 C   0  0  0  0  0  0  0  0  0  0  0  0
    4.2442    2.3483    1.9573 H   0  0  0  0  0  0  0  0  0  0  0  0
    3.5666   -4.2044   -0.0312 C   0  0  0  0  0  0  0  0  0  0  0  0
    4.4601   -4.3400    1.0533 C   0  0  0  0  0  0  0  0  0  0  0  0
    4.3573   -3.6691    1.9196 H   0  0  0  0  0  0  0  0  0  0  0  0
    5.4568   -5.3266    1.0383 C   0  0  0  0  0  0  0  0  0  0  0  0
    6.1407   -5.4241    1.8951 H   0  0  0  0  0  0  0  0  0  0  0  0
    5.5783   -6.1906   -0.0616 C   0  0  0  0  0  0  0  0  0  0  0  0
    6.3614   -6.9636   -0.0736 H   0  0  0  0  0  0  0  0  0  0  0  0
    4.6951   -6.0642   -1.1456 C   0  0  0  0  0  0  0  0  0  0  0  0
    4.7870   -6.7347   -2.0136 H   0  0  0  0  0  0  0  0  0  0  0  0
    3.6953   -5.0809   -1.1305 C   0  0  0  0  0  0  0  0  0  0  0  0
    3.0068   -4.9758   -1.9823 H   0  0  0  0  0  0  0  0  0  0  0  0
   -3.5669   -4.2042    0.0312 C   0  0  0  0  0  0  0  0  0  0  0  0
   -3.6957   -5.0806    1.1304 C   0  0  0  0  0  0  0  0  0  0  0  0
   -3.0072   -4.9756    1.9823 H   0  0  0  0  0  0  0  0  0  0  0  0
   -4.6956   -6.0638    1.1456 C   0  0  0  0  0  0  0  0  0  0  0  0
   -4.7875   -6.7344    2.0136 H   0  0  0  0  0  0  0  0  0  0  0  0
   -5.5788   -6.1902    0.0616 C   0  0  0  0  0  0  0  0  0  0  0  0
   -6.3620   -6.9632    0.0736 H   0  0  0  0  0  0  0  0  0  0  0  0
   -5.4573   -5.3262   -1.0382 C   0  0  0  0  0  0  0  0  0  0  0  0
   -6.1412   -5.4236   -1.8951 H   0  0  0  0  0  0  0  0  0  0  0  0
   -4.4605   -4.3396   -1.0533 C   0  0  0  0  0  0  0  0  0  0  0  0
   -4.3577   -3.6688   -1.9196 H   0  0  0  0  0  0  0  0  0  0  0  0
   -3.5167    2.8336    0.0323 C   0  0  0  0  0  0  0  0  0  0  0  0
   -4.3743    2.9979   -1.0791 C   0  0  0  0  0  0  0  0  0  0  0  0
   -4.2439    2.3488   -1.9574 H   0  0  0  0  0  0  0  0  0  0  0  0
   -5.3723    3.9783   -1.0768 C   0  0  0  0  0  0  0  0  0  0  0  0
   -6.0464    4.1309   -1.9300 H   0  0  0  0  0  0  0  0  0  0  0  0
   -5.5085    4.7972    0.0515 C   0  0  0  0  0  0  0  0  0  0  0  0
   -4.6770    4.6618    1.1704 C   0  0  0  0  0  0  0  0  0  0  0  0
   -4.8310    5.3253    2.0317 H   0  0  0  0  0  0  0  0  0  0  0  0
   -3.6827    3.6775    1.1537 C   0  0  0  0  0  0  0  0  0  0  0  0
   -3.0248    3.5465    2.0253 H   0  0  0  0  0  0  0  0  0  0  0  0
  2 10  1  0  0  0  0
  3 31  1  0  0  0  0
  3 36  1  0  0  0  0
  4 44  1  0  0  0  0
  4  8  2  0  0  0  0
  5  7  2  0  0  0  0
  6  5  2  0  0  0  0
  9  4  2  0  0  0  0
 10 37  1  0  0  0  0
 11 10  1  0  0  0  0
 12 11  1  0  0  0  0
 13 11  2  0  0  0  0
 13 14  1  0  0  0  0
 15 13  1  0  0  0  0
 15  2  2  0  0  0  0
 16 17  2  0  0  0  0
 16 15  1  0  0  0  0
 17  1  1  0  0  0  0
 18 20  2  0  0  0  0
 18 17  1  0  0  0  0
 19 18  1  0  0  0  0
 20 22  1  0  0  0  0
 21 20  1  0  0  0  0
 22 23  2  0  0  0  0
 22  1  1  0  0  0  0
 23 24  1  0  0  0  0
 24 38  1  0  0  0  0
 24 25  2  0  0  0  0
 25 26  1  0  0  0  0
 27 25  1  0  0  0  0
 27 29  2  0  0  0  0
 28 27  1  0  0  0  0
 29 30  1  0  0  0  0
 30 31  2  0  0  0  0
 30 60  1  0  0  0  0
 31 32  1  0  0  0  0
 32 34  2  0  0  0  0
 32 33  1  0  0  0  0
 34 35  1  0  0  0  0
 36 37  2  0  0  0  0
 36 34  1  0  0  0  0
 37 71  1  0  0  0  0
 38 29  1  0  0  0  0
 39 16  1  0  0  0  0
 39 47  1  0  0  0  0
 40 39  2  0  0  0  0
 41 40  1  0  0  0  0
 42 40  1  0  0  0  0
 42 44  2  0  0  0  0
 43 42  1  0  0  0  0
 44 45  1  0  0  0  0
 45 47  2  0  0  0  0
 45 46  1  0  0  0  0
 47 48  1  0  0  0  0
 49 23  1  0  0  0  0
 49 50  1  0  0  0  0
 50 51  1  0  0  0  0
 52 50  2  0  0  0  0
 52 53  1  0  0  0  0
 54 52  1  0  0  0  0
 55 54  1  0  0  0  0
 56 58  1  0  0  0  0
 56 54  2  0  0  0  0
 57 56  1  0  0  0  0
 58 49  2  0  0  0  0
 59 58  1  0  0  0  0
 60 61  1  0  0  0  0
 61 63  2  0  0  0  0
 61 62  1  0  0  0  0
 63 64  1  0  0  0  0
 65 66  1  0  0  0  0
 65 63  1  0  0  0  0
 67 65  2  0  0  0  0
 68 67  1  0  0  0  0
 69 67  1  0  0  0  0
 69 60  2  0  0  0  0
 70 69  1  0  0  0  0
 71 79  1  0  0  0  0
 72 74  1  0  0  0  0
 72 71  2  0  0  0  0
 73 72  1  0  0  0  0
 74 76  2  0  0  0  0
 75 74  1  0  0  0  0
 76  5  1  0  0  0  0
 76 77  1  0  0  0  0
 77 78  1  0  0  0  0
 79 77  2  0  0  0  0
 79 80  1  0  0  0  0
M  END
