1,2,3,84
q = -2.0, confidence = 0.67

 84 93  0  0  1  0  0  0  0  0999 V2000
    0.4687   -2.0438    0.0113 N   0  0  0  0  0  0  0  0  0  0  0  0
    2.5418    0.0024   -0.0016 N   0  0  0  0  0  2  0  0  0  0  0  0
    0.4557    2.0354   -0.0707 N   0  0  0  0  0  0  0  0  0  0  0  0
   -2.4217    1.1457   -0.0775 C   0  0  0  0  0  0  0  0  0  0  0  0
   -3.8034    0.6981   -0.0517 C   0  0  0  0  0  0  0  0  0  0  0  0
   -4.9539    1.4458   -0.3762 C   0  0  0  0  0  0  0  0  0  0  0  0
   -4.7704    2.4414   -0.7972 H   0  0  0  0  0  0  0  0  0  0  0  0
   -6.3120    1.1098   -0.2564 C   0  0  0  0  0  0  0  0  0  0  0  0
   -7.0141    1.8845   -0.6056 H   0  0  0  0  0  0  0  0  0  0  0  0
   -6.8943   -0.0404    0.2968 C   0  0  0  0  0  0  0  0  0  0  0  0
   -7.9940   -0.0459    0.3699 H   0  0  0  0  0  0  0  0  0  0  0  0
   -3.7795   -0.7327    0.2371 C   0  0  2  0  0  3  0  0  0  0  0  0
   -4.8667   -1.5021    0.7002 C   0  0  0  0  0  0  0  0  0  0  0  0
   -4.6115   -2.4985    1.0829 H   0  0  0  0  0  0  0  0  0  0  0  0
   -6.2323   -1.1857    0.7649 C   0  0  0  0  0  0  0  0  0  0  0  0
   -6.8728   -1.9698    1.2004 H   0  0  0  0  0  0  0  0  0  0  0  0
   -2.4012   -1.1667    0.1124 C   0  0  0  0  0  0  0  0  0  0  0  0
   -1.9806   -2.5229    0.0410 C   0  0  0  0  0  0  0  0  0  0  0  0
   -2.9776   -3.6300   -0.0754 C   0  0  0  0  0  0  0  0  0  0  0  0
   -3.8029   -3.7190   -1.2176 C   0  0  0  0  0  0  0  0  0  0  0  0
   -3.6919   -2.9687   -2.0147 H   0  0  0  0  0  0  0  0  0  0  0  0
   -4.7529   -4.7429   -1.3346 C   0  0  0  0  0  0  0  0  0  0  0  0
   -5.3870   -4.7992   -2.2326 H   0  0  0  0  0  0  0  0  0  0  0  0
   -4.8954   -5.6950   -0.3118 C   0  0  0  0  0  0  0  0  0  0  0  0
   -5.6449   -6.4959   -0.4017 H   0  0  0  0  0  0  0  0  0  0  0  0
   -4.0716   -5.6239    0.8233 C   0  0  0  0  0  0  0  0  0  0  0  0
   -4.1747   -6.3686    1.6274 H   0  0  0  0  0  0  0  0  0  0  0  0
   -3.1160   -4.6029    0.9386 C   0  0  0  0  0  0  0  0  0  0  0  0
   -2.4756   -4.5379    1.8312 H   0  0  0  0  0  0  0  0  0  0  0  0
   -0.6314   -2.8973   -0.0399 C   0  0  0  0  0  3  0  0  0  0  0  0
   -0.1744   -4.2637   -0.1905 C   0  0  0  0  0  0  0  0  0  0  0  0
   -0.8275   -5.1348   -0.2964 H   0  0  0  0  0  0  0  0  0  0  0  0
    1.1934   -4.2350   -0.1878 C   0  0  0  0  0  0  0  0  0  0  0  0
    1.8867   -5.0754   -0.2900 H   0  0  0  0  0  0  0  0  0  0  0  0
    1.5949   -2.8490   -0.0494 C   0  0  0  0  0  0  0  0  0  0  0  0
    2.9456   -2.4398    0.0018 C   0  0  0  0  0  0  0  0  0  0  0  0
    3.9971   -3.5023    0.0050 C   0  0  0  0  0  0  0  0  0  0  0  0
    4.1209   -4.3915    1.0944 C   0  0  0  0  0  0  0  0  0  0  0  0
    3.4315   -4.2907    1.9463 H   0  0  0  0  0  0  0  0  0  0  0  0
    5.1127   -5.3832    1.1000 C   0  0  0  0  0  0  0  0  0  0  0  0
    5.1989   -6.0641    1.9607 H   0  0  0  0  0  0  0  0  0  0  0  0
    5.9971   -5.5035    0.0160 C   0  0  0  0  0  0  0  0  0  0  0  0
    6.7752   -6.2819    0.0204 H   0  0  0  0  0  0  0  0  0  0  0  0
    5.8835   -4.6251   -1.0733 C   0  0  0  0  0  0  0  0  0  0  0  0
    6.5697   -4.7156   -1.9293 H   0  0  0  0  0  0  0  0  0  0  0  0
    4.8921   -3.6326   -1.0786 C   0  0  0  0  0  0  0  0  0  0  0  0
    4.7964   -2.9475   -1.9345 H   0  0  0  0  0  0  0  0  0  0  0  0
    3.3690   -1.1017    0.0510 C   0  0  0  0  0  0  0  0  0  0  0  0
    4.7517   -0.6745    0.1724 C   0  0  0  0  0  0  0  0  0  0  0  0
    5.6102   -1.3477    0.2616 H   0  0  0  0  0  0  0  0  0  0  0  0
    4.7467    0.6954    0.1736 C   0  0  0  0  0  0  0  0  0  0  0  0
    5.6000    1.3750    0.2642 H   0  0  0  0  0  0  0  0  0  0  0  0
    3.3610    1.1125    0.0535 C   0  0  0  0  0  0  0  0  0  0  0  0
    2.9282    2.4475    0.0199 C   0  0  0  0  0  0  0  0  0  0  0  0
    3.9735    3.5164    0.0666 C   0  0  0  0  0  0  0  0  0  0  0  0
    4.8554    3.7072   -1.0183 C   0  0  0  0  0  0  0  0  0  0  0  0
    4.7549    3.0653   -1.9066 H   0  0  0  0  0  0  0  0  0  0  0  0
    5.8418    4.7039   -0.9722 C   0  0  0  0  0  0  0  0  0  0  0  0
    6.5188    4.8419   -1.8291 H   0  0  0  0  0  0  0  0  0  0  0  0
    5.9622    5.5257    0.1596 C   0  0  0  0  0  0  0  0  0  0  0  0
    6.7361    6.3075    0.1960 H   0  0  0  0  0  0  0  0  0  0  0  0
    5.0905    5.3444    1.2454 C   0  0  0  0  0  0  0  0  0  0  0  0
    5.1821    5.9808    2.1389 H   0  0  0  0  0  0  0  0  0  0  0  0
    4.1043    4.3480    1.1993 C   0  0  0  0  0  0  0  0  0  0  0  0
    3.4245    4.1993    2.0519 H   0  0  0  0  0  0  0  0  0  0  0  0
    1.5766    2.8500   -0.0522 C   0  0  0  0  0  3  0  0  0  0  0  0
    1.1681    4.2393   -0.1138 C   0  0  0  0  0  0  0  0  0  0  0  0
    1.8568    5.0893   -0.1314 H   0  0  0  0  0  0  0  0  0  0  0  0
   -0.1994    4.2597   -0.1415 C   0  0  0  0  0  0  0  0  0  0  0  0
   -0.8579    5.1326   -0.1739 H   0  0  0  0  0  0  0  0  0  0  0  0
   -0.6492    2.8826   -0.1237 C   0  0  0  0  0  0  0  0  0  0  0  0
   -1.9992    2.5017   -0.1296 C   0  0  0  0  0  0  0  0  0  0  0  0
   -2.9821    3.6293   -0.0862 C   0  0  0  0  0  0  0  0  0  0  0  0
   -3.2364    4.4206   -1.2267 C   0  0  0  0  0  0  0  0  0  0  0  0
   -2.7021    4.1960   -2.1622 H   0  0  0  0  0  0  0  0  0  0  0  0
   -4.1715    5.4659   -1.1753 C   0  0  0  0  0  0  0  0  0  0  0  0
   -4.3666    6.0690   -2.0752 H   0  0  0  0  0  0  0  0  0  0  0  0
   -4.8566    5.7419    0.0192 C   0  0  0  0  0  0  0  0  0  0  0  0
   -5.5903    6.5612    0.0589 H   0  0  0  0  0  0  0  0  0  0  0  0
   -4.5944    4.9727    1.1648 C   0  0  0  0  0  0  0  0  0  0  0  0
   -5.1189    5.1913    2.1076 H   0  0  0  0  0  0  0  0  0  0  0  0
   -3.6634    3.9257    1.1135 C   0  0  0  0  0  0  0  0  0  0  0  0
   -3.4594    3.3167    2.0069 H   0  0  0  0  0  0  0  0  0  0  0  0
   -1.5460   -0.0056    0.0008 C   0  0  0  0  0  2  0  0  0  0  0  0
  2 48  1  0  0  0  0
  2 53  1  0  0  0  0
  3 66  1  0  0  0  0
  4  5  1  0  0  0  0
  4 84  1  0  0  0  0
  6  8  1  0  0  0  0
  6  5  2  0  0  0  0
  7  6  1  0  0  0  0
  8 10  2  0  0  0  0
  9  8  1  0  0  0  0
 10 11  1  0  0  0  0
 10 15  1  0  0  0  0
 12  5  1  1  0  0  0
 12 13  1  0  0  0  0
 13 15  2  0  0  0  0
 13 14  1  0  0  0  0
 15 16  1  0  0  0  0
 17 12  1  0  0  0  0
 18 17  2  0  0  0  0
 19 18  1  0  0  0  0
 19 28  1  0  0  0  0
 20 19  2  0  0  0  0
 21 20  1  0  0  0  0
 22 20  1  0  0  0  0
 22 24  2  0  0  0  0
 23 22  1  0  0  0  0
 24 26  1  0  0  0  0
 25 24  1  0  0  0  0
 26 28  2  0  0  0  0
 26 27  1  0  0  0  0
 28 29  1  0  0  0  0
 30  1  1  0  0  0  0
 30 18  1  0  0  0  0
 31 33  2  0  0  0  0
 31 30  1  0  0  0  0
 32 31  1  0  0  0  0
 33 35  1  0  0  0  0
 34 33  1  0  0  0  0
 35 36  1  0  0  0  0
 35  1  2  0  0  0  0
 36 37  1  0  0  0  0
 36 48  2  0  0  0  0
 37 38  1  0  0  0  0
 38 40  2  0  0  0  0
 38 39  1  0  0  0  0
 40 41  1  0  0  0  0
 42 43  1  0  0  0  0
 42 40  1  0  0  0  0
 44 42  2  0  0  0  0
 45 44  1  0  0  0  0
 46 44  1  0  0  0  0
 46 37  2  0  0  0  0
 47 46  1  0  0  0  0
 48 49  1  0  0  0  0
 49 51  2  0  0  0  0
 49 50  1  0  0  0  0
 51 52  1  0  0  0  0
 53 51  1  0  0  0  0
 54 53  2  0  0  0  0
 54 55  1  0  0  0  0
 55 64  1  0  0  0  0
 56 58  1  0  0  0  0
 56 55  2  0  0  0  0
 57 56  1  0  0  0  0
 58 60  2  0  0  0  0
 59 58  1  0  0  0  0
 60 61  1  0  0  0  0
 60 62  1  0  0  0  0
 62 63  1  0  0  0  0
 64 62  2  0  0  0  0
 64 65  1  0  0  0  0
 66 54  1  0  0  0  0
 67 66  1  0  0  0  0
 68 67  1  0  0  0  0
 69 71  1  0  0  0  0
 69 67  2  0  0  0  0
 70 69  1  0  0  0  0
 71  3  2  0  0  0  0
 72 71  1  0  0  0  0
 72 73  1  0  0  0  0
 72  4  2  0  0  0  0
 73 82  1  0  0  0  0
 74 76  1  0  0  0  0
 74 73  2  0  0  0  0
 75 74  1  0  0  0  0
 76 78  2  0  0  0  0
 77 76  1  0  0  0  0
 78 79  1  0  0  0  0
 78 80  1  0  0  0  0
 80 81  1  0  0  0  0
 82 80  2  0  0  0  0
 82 83  1  0  0  0  0
 84 17  1  0  0  0  0
M  END
