3,4,5,6
q = -1.0, confidence = 0.064

 80 88  0  0  1  0  0  0  0  0999 V2000
    0.4897   -3.7666    0.5582 N   0  0  0  0  0  0  0  0  0  0  0  0
    0.0666   -4.4487    1.1904 H   0  0  0  0  0  0  0  0  0  0  0  0
   -1.9083   -0.5307   -0.4845 N   0  0  0  0  0  0  0  0  0  0  0  0
   -0.6210    1.9425   -0.1262 N   0  0  0  0  0  0  0  0  0  0  0  0
    1.8587    0.6465   -0.4505 N   0  0  0  0  0  0  0  0  0  0  0  0
    0.6344   -1.9873   -0.8397 C   0  0  1  0  0  3  0  0  0  0  0  0
   -0.2603   -2.9338   -0.2474 C   0  0  2  0  0  3  0  0  0  0  0  0
   -1.6636   -3.0162   -0.3621 C   0  0  2  0  0  3  0  0  0  0  0  0
   -2.3840   -1.8367   -0.6516 C   0  0  0  0  0  0  0  0  0  0  0  0
   -3.7867   -1.8180   -1.0174 C   0  0  0  0  0  0  0  0  0  0  0  0
   -4.3774   -2.7036   -1.2745 H   0  0  0  0  0  0  0  0  0  0  0  0
   -4.1872   -0.5083   -0.9882 C   0  0  0  0  0  0  0  0  0  0  0  0
   -5.1770   -0.0971   -1.2123 H   0  0  0  0  0  0  0  0  0  0  0  0
   -3.0317    0.2768   -0.6006 C   0  0  0  0  0  3  0  0  0  0  0  0
   -3.0755    1.6438   -0.2830 C   0  0  2  0  0  3  0  0  0  0  0  0
   -1.9233    2.3918    0.0265 C   0  0  0  0  0  0  0  0  0  0  0  0
   -1.9326    3.7709    0.4665 C   0  0  0  0  0  0  0  0  0  0  0  0
   -2.8335    4.3494    0.6951 H   0  0  0  0  0  0  0  0  0  0  0  0
   -0.6236    4.1738    0.5409 C   0  0  0  0  0  0  0  0  0  0  0  0
   -0.2312    5.1505    0.8412 H   0  0  0  0  0  0  0  0  0  0  0  0
    0.1837    3.0433    0.1353 C   0  0  0  0  0  3  0  0  0  0  0  0
    1.5706    3.0850   -0.0857 C   0  0  1  0  0  3  0  0  0  0  0  0
    2.3170    1.9543   -0.4660 C   0  0  0  0  0  3  0  0  0  0  0  0
    3.7073    2.0113   -0.8767 C   0  0  0  0  0  0  0  0  0  0  0  0
    4.2726    2.9349   -1.0387 H   0  0  0  0  0  0  0  0  0  0  0  0
    4.1302    0.7206   -1.0329 C   0  0  0  0  0  0  0  0  0  0  0  0
    5.1138    0.3639   -1.3556 H   0  0  0  0  0  0  0  0  0  0  0  0
    3.0072   -0.1370   -0.6994 C   0  0  0  0  0  0  0  0  0  0  0  0
    3.1221   -1.5202   -0.4885 C   0  0  2  0  0  3  0  0  0  0  0  0
    1.9438   -2.2970   -0.2963 C   0  0  0  0  0  0  0  0  0  0  0  0
    1.8014   -3.4001    0.5562 C   0  0  0  0  0  0  0  0  0  0  0  0
    2.5397   -3.8777    1.2086 H   0  0  0  0  0  0  0  0  0  0  0  0
   -2.3471   -4.2933   -0.0610 C   0  0  0  0  0  0  0  0  0  0  0  0
   -1.8391   -5.5179   -0.5639 C   0  0  0  0  0  0  0  0  0  0  0  0
   -0.9595   -5.5008   -1.2258 H   0  0  0  0  0  0  0  0  0  0  0  0
   -2.4576   -6.7367   -0.2547 C   0  0  0  0  0  0  0  0  0  0  0  0
   -2.0528   -7.6738   -0.6669 H   0  0  0  0  0  0  0  0  0  0  0  0
   -3.5988   -6.7628    0.5635 C   0  0  0  0  0  0  0  0  0  0  0  0
   -4.0858   -7.7196    0.8050 H   0  0  0  0  0  0  0  0  0  0  0  0
   -4.1114   -5.5585    1.0748 C   0  0  0  0  0  0  0  0  0  0  0  0
   -4.9960   -5.5708    1.7298 H   0  0  0  0  0  0  0  0  0  0  0  0
   -3.4929   -4.3391    0.7715 C   0  0  0  0  0  0  0  0  0  0  0  0
   -3.8769   -3.4013    1.1988 H   0  0  0  0  0  0  0  0  0  0  0  0
   -4.3989    2.3295   -0.2552 C   0  0  0  0  0  0  0  0  0  0  0  0
   -5.4122    1.9040    0.6318 C   0  0  0  0  0  0  0  0  0  0  0  0
   -5.2052    1.0656    1.3135 H   0  0  0  0  0  0  0  0  0  0  0  0
   -6.6566    2.5501    0.6596 C   0  0  0  0  0  0  0  0  0  0  0  0
   -7.4318    2.2110    1.3637 H   0  0  0  0  0  0  0  0  0  0  0  0
   -6.9108    3.6302   -0.2006 C   0  0  0  0  0  0  0  0  0  0  0  0
   -7.8879    4.1364   -0.1794 H   0  0  0  0  0  0  0  0  0  0  0  0
   -5.9111    4.0626   -1.0869 C   0  0  0  0  0  0  0  0  0  0  0  0
   -6.1044    4.9055   -1.7680 H   0  0  0  0  0  0  0  0  0  0  0  0
   -4.6650    3.4203   -1.1120 C   0  0  0  0  0  0  0  0  0  0  0  0
   -3.8824    3.7539   -1.8098 H   0  0  0  0  0  0  0  0  0  0  0  0
    2.2852    4.3844    0.0657 C   0  0  0  0  0  0  0  0  0  0  0  0
    3.3217    4.5230    1.0151 C   0  0  0  0  0  0  0  0  0  0  0  0
    3.5811    3.6619    1.6491 H   0  0  0  0  0  0  0  0  0  0  0  0
    3.9995    5.7418    1.1617 C   0  0  0  0  0  0  0  0  0  0  0  0
    4.7983    5.8349    1.9132 H   0  0  0  0  0  0  0  0  0  0  0  0
    3.6568    6.8414    0.3585 C   0  0  0  0  0  0  0  0  0  0  0  0
    4.1900    7.7975    0.4727 H   0  0  0  0  0  0  0  0  0  0  0  0
    2.6302    6.7149   -0.5911 C   0  0  0  0  0  0  0  0  0  0  0  0
    2.3605    7.5702   -1.2294 H   0  0  0  0  0  0  0  0  0  0  0  0
    1.9483    5.4980   -0.7348 C   0  0  0  0  0  0  0  0  0  0  0  0
    1.1493    5.3948   -1.4842 H   0  0  0  0  0  0  0  0  0  0  0  0
    4.4378   -2.1811   -0.3470 C   0  0  0  0  0  0  0  0  0  0  0  0
    5.4779   -1.6142    0.4300 C   0  0  0  0  0  0  0  0  0  0  0  0
    5.3001   -0.6575    0.9421 H   0  0  0  0  0  0  0  0  0  0  0  0
    6.7024   -2.2770    0.5819 C   0  0  0  0  0  0  0  0  0  0  0  0
    7.4927   -1.8242    1.1999 H   0  0  0  0  0  0  0  0  0  0  0  0
    6.9180   -3.5211   -0.0344 C   0  0  0  0  0  0  0  0  0  0  0  0
    7.8816   -4.0391    0.0856 H   0  0  0  0  0  0  0  0  0  0  0  0
    5.8926   -4.1031   -0.7974 C   0  0  0  0  0  0  0  0  0  0  0  0
    6.0529   -5.0765   -1.2858 H   0  0  0  0  0  0  0  0  0  0  0  0
    4.6653   -3.4442   -0.9472 C   0  0  0  0  0  0  0  0  0  0  0  0
    3.8671   -3.8952   -1.5557 H   0  0  0  0  0  0  0  0  0  0  0  0
    0.4131   -1.3673   -2.2009 C   0  0  0  0  0  0  0  0  0  0  0  0
   -0.3818   -1.9090   -2.7498 H   0  0  0  0  0  0  0  0  0  0  0  0
    1.3597   -1.3742   -2.7761 H   0  0  0  0  0  0  0  0  0  0  0  0
    0.0775   -0.2817   -2.2459 H   0  0  0  0  0  0  0  0  0  0  0  0
  1  2  1  0  0  0  0
  4 16  2  0  0  0  0
  4 21  1  0  0  0  0
  6 77  1  6  0  0  0
  6 30  1  0  0  0  0
  6  7  1  0  0  0  0
  7  1  1  1  0  0  0
  8  7  1  0  0  0  0
  8 33  1  1  0  0  0
  9  3  2  0  0  0  0
  9  8  1  0  0  0  0
 10 12  2  0  0  0  0
 10  9  1  0  0  0  0
 11 10  1  0  0  0  0
 12 14  1  0  0  0  0
 13 12  1  0  0  0  0
 14  3  1  0  0  0  0
 14 15  1  0  0  0  0
 15 44  1  1  0  0  0
 15 16  1  0  0  0  0
 16 17  1  0  0  0  0
 17 19  2  0  0  0  0
 17 18  1  0  0  0  0
 19 20  1  0  0  0  0
 21 19  1  0  0  0  0
 22 55  1  6  0  0  0
 22 21  1  0  0  0  0
 23  5  1  0  0  0  0
 23 22  1  0  0  0  0
 24 23  1  0  0  0  0
 25 24  1  0  0  0  0
 26 24  2  0  0  0  0
 26 28  1  0  0  0  0
 27 26  1  0  0  0  0
 28 29  1  0  0  0  0
 28  5  2  0  0  0  0
 29 66  1  1  0  0  0
 29 30  1  0  0  0  0
 30 31  2  0  0  0  0
 31  1  1  0  0  0  0
 31 32  1  0  0  0  0
 33 42  1  0  0  0  0
 34 36  1  0  0  0  0
 34 33  2  0  0  0  0
 35 34  1  0  0  0  0
 36 38  2  0  0  0  0
 37 36  1  0  0  0  0
 38 39  1  0  0  0  0
 38 40  1  0  0  0  0
 40 41  1  0  0  0  0
 42 40  2  0  0  0  0
 42 43  1  0  0  0  0
 44 45  1  0  0  0  0
 45 47  2  0  0  0  0
 45 46  1  0  0  0  0
 47 48  1  0  0  0  0
 49 50  1  0  0  0  0
 49 47  1  0  0  0  0
 51 49  2  0  0  0  0
 52 51  1  0  0  0  0
 53 51  1  0  0  0  0
 53 44  2  0  0  0  0
 54 53  1  0  0  0  0
 55 56  1  0  0  0  0
 56 58  2  0  0  0  0
 56 57  1  0  0  0  0
 58 59  1  0  0  0  0
 60 61  1  0  0  0  0
 60 58  1  0  0  0  0
 62 60  2  0  0  0  0
 63 62  1  0  0  0  0
 64 62  1  0  0  0  0
 64 55  2  0  0  0  0
 65 64  1  0  0  0  0
 66 67  1  0  0  0  0
 67 69  2  0  0  0  0
 67 68  1  0  0  0  0
 69 70  1  0  0  0  0
 71 72  1  0  0  0  0
 71 69  1  0  0  0  0
 73 71  2  0  0  0  0
 74 73  1  0  0  0  0
 75 73  1  0  0  0  0
 75 66  2  0  0  0  0
 76 75  1  0  0  0  0
 78 77  1  0  0  0  0
 79 77  1  0  0  0  0
 80 77  1  0  0  0  0
M  END
