1,2,3,4
q = -2.0, confidence = 0.832

 66 70  0  0  0  0  0  0  0  0999 V2000
   -1.5755   -0.8273   -0.0753 C   0  0  0  0  0  3  0  0  0  0  0  0
    1.0425   -1.6395   -0.0698 N   0  0  0  0  0  2  0  0  0  0  0  0
    1.8419    1.0604    0.0206 N   0  0  0  0  0  0  0  0  0  0  0  0
   -0.8431    1.7944    0.0416 N   0  0  0  0  0  2  0  0  0  0  0  0
   -2.8606   -0.2919    0.0125 N   0  0  0  0  0  0  0  0  0  0  0  0
   -3.8711   -1.2965   -0.0781 C   0  0  0  0  0  0  0  0  0  0  0  0
   -5.3136   -1.0465   -0.0101 C   0  0  0  0  0  0  0  0  0  0  0  0
   -5.8835    0.0313    0.1388 O   0  0  0  0  0  0  0  0  0  0  0  0
   -5.9982   -2.2179   -0.1368 O   0  0  0  0  0  0  0  0  0  0  0  0
   -7.4207   -2.0951   -0.0823 C   0  0  0  0  0  0  0  0  0  0  0  0
   -7.7475   -1.6612    0.8848 H   0  0  0  0  0  0  0  0  0  0  0  0
   -7.8196   -3.1187   -0.1981 H   0  0  0  0  0  0  0  0  0  0  0  0
   -7.7966   -1.4409   -0.8954 H   0  0  0  0  0  0  0  0  0  0  0  0
   -3.2209   -2.4972   -0.2369 C   0  0  0  0  0  0  0  0  0  0  0  0
   -3.7031   -3.4752   -0.3373 H   0  0  0  0  0  0  0  0  0  0  0  0
   -1.8128   -2.2304   -0.2295 C   0  0  0  0  0  0  0  0  0  0  0  0
   -0.8271   -3.2212   -0.3101 C   0  0  0  0  0  0  0  0  0  0  0  0
   -1.1286   -4.2725   -0.4214 H   0  0  0  0  0  0  0  0  0  0  0  0
    0.5175   -2.9251   -0.2105 C   0  0  0  0  0  0  0  0  0  0  0  0
    1.5633   -3.9335   -0.1946 C   0  0  0  0  0  0  0  0  0  0  0  0
    1.3336   -5.4063   -0.3170 C   0  0  0  0  0  0  0  0  0  0  0  0
    2.2906   -5.9616   -0.3498 H   0  0  0  0  0  0  0  0  0  0  0  0
    0.7672   -5.6602   -1.2374 H   0  0  0  0  0  0  0  0  0  0  0  0
    0.7494   -5.8041    0.5399 H   0  0  0  0  0  0  0  0  0  0  0  0
    2.7506   -3.2545   -0.0305 C   0  0  0  0  0  0  0  0  0  0  0  0
    4.1360   -3.8142    0.1106 C   0  0  0  0  0  0  0  0  0  0  0  0
    4.8524   -3.2023   -0.4792 H   0  0  0  0  0  0  0  0  0  0  0  0
    4.1657   -4.8256   -0.3460 H   0  0  0  0  0  0  0  0  0  0  0  0
    4.6146   -3.9002    1.5699 C   0  0  0  0  0  0  0  0  0  0  0  0
    5.6413   -4.3148    1.6340 H   0  0  0  0  0  0  0  0  0  0  0  0
    3.9433   -4.5490    2.1677 H   0  0  0  0  0  0  0  0  0  0  0  0
    4.6175   -2.9010    2.0508 H   0  0  0  0  0  0  0  0  0  0  0  0
    2.4045   -1.8398    0.0339 C   0  0  0  0  0  0  0  0  0  0  0  0
    3.3756   -0.8426    0.1285 C   0  0  0  0  0  0  0  0  0  0  0  0
    4.4243   -1.1585    0.1963 H   0  0  0  0  0  0  0  0  0  0  0  0
    3.1074    0.5143    0.0901 C   0  0  0  0  0  3  0  0  0  0  0  0
    4.1406    1.5476    0.0950 C   0  0  0  0  0  0  0  0  0  0  0  0
    5.6185    1.2914    0.1142 C   0  0  0  0  0  0  0  0  0  0  0  0
    5.8469    0.4680    0.8248 H   0  0  0  0  0  0  0  0  0  0  0  0
    6.1376    2.1859    0.5180 H   0  0  0  0  0  0  0  0  0  0  0  0
    6.1953    0.9492   -1.2705 C   0  0  0  0  0  0  0  0  0  0  0  0
    7.2870    0.7616   -1.2166 H   0  0  0  0  0  0  0  0  0  0  0  0
    6.0231    1.7784   -1.9857 H   0  0  0  0  0  0  0  0  0  0  0  0
    5.7117    0.0456   -1.6935 H   0  0  0  0  0  0  0  0  0  0  0  0
    3.4761    2.7497    0.0084 C   0  0  0  0  0  0  0  0  0  0  0  0
    4.0365    4.1347   -0.0416 C   0  0  0  0  0  0  0  0  0  0  0  0
    5.1405    4.1269    0.0387 H   0  0  0  0  0  0  0  0  0  0  0  0
    3.6447    4.7677    0.7825 H   0  0  0  0  0  0  0  0  0  0  0  0
    3.7758    4.6486   -0.9912 H   0  0  0  0  0  0  0  0  0  0  0  0
    2.0532    2.4241   -0.0204 C   0  0  0  0  0  0  0  0  0  0  0  0
    1.0479    3.3770   -0.0416 C   0  0  0  0  0  0  0  0  0  0  0  0
    1.3341    4.4361   -0.0659 H   0  0  0  0  0  0  0  0  0  0  0  0
   -0.3091    3.0664    0.0169 C   0  0  0  0  0  0  0  0  0  0  0  0
   -1.3490    4.0873    0.0951 C   0  0  0  0  0  0  0  0  0  0  0  0
   -1.0902    5.5599    0.0858 C   0  0  0  0  0  0  0  0  0  0  0  0
   -2.0332    6.1358    0.1486 H   0  0  0  0  0  0  0  0  0  0  0  0
   -0.5657    5.8788   -0.8397 H   0  0  0  0  0  0  0  0  0  0  0  0
   -0.4520    5.8707    0.9400 H   0  0  0  0  0  0  0  0  0  0  0  0
   -2.5482    3.4191    0.1836 C   0  0  0  0  0  0  0  0  0  0  0  0
   -3.9356    3.9648    0.2924 C   0  0  0  0  0  0  0  0  0  0  0  0
   -3.9342    5.0712    0.3112 H   0  0  0  0  0  0  0  0  0  0  0  0
   -4.4425    3.6134    1.2154 H   0  0  0  0  0  0  0  0  0  0  0  0
   -4.5710    3.6441   -0.5597 H   0  0  0  0  0  0  0  0  0  0  0  0
   -2.2172    2.0023    0.1349 C   0  0  0  0  0  0  0  0  0  0  0  0
   -3.1758    1.0248    0.1335 C   0  0  0  0  0  0  0  0  0  0  0  0
   -4.2466    1.2522    0.2020 H   0  0  0  0  0  0  0  0  0  0  0  0
  1  5  1  0  0  0  0
  2 33  1  0  0  0  0
  3 36  1  0  0  0  0
  4 64  1  0  0  0  0
  5 65  1  0  0  0  0
  6  7  1  0  0  0  0
  6  5  1  0  0  0  0
  7  8  2  0  0  0  0
  9 10  1  0  0  0  0
  9  7  1  0  0  0  0
 10 11  1  0  0  0  0
 12 10  1  0  0  0  0
 13 10  1  0  0  0  0
 14 16  1  0  0  0  0
 14  6  2  0  0  0  0
 15 14  1  0  0  0  0
 16  1  2  0  0  0  0
 17 16  1  0  0  0  0
 17 19  2  0  0  0  0
 18 17  1  0  0  0  0
 19 20  1  0  0  0  0
 19  2  1  0  0  0  0
 20 25  2  0  0  0  0
 21 20  1  0  0  0  0
 21 24  1  0  0  0  0
 22 21  1  0  0  0  0
 23 21  1  0  0  0  0
 25 33  1  0  0  0  0
 25 26  1  0  0  0  0
 26 29  1  0  0  0  0
 27 26  1  0  0  0  0
 28 26  1  0  0  0  0
 29 30  1  0  0  0  0
 29 32  1  0  0  0  0
 29 31  1  0  0  0  0
 33 34  2  0  0  0  0
 34 35  1  0  0  0  0
 36 37  1  0  0  0  0
 36 34  1  0  0  0  0
 37 38  1  0  0  0  0
 38 40  1  0  0  0  0
 38 39  1  0  0  0  0
 41 42  1  0  0  0  0
 41 38  1  0  0  0  0
 43 41  1  0  0  0  0
 44 41  1  0  0  0  0
 45 37  2  0  0  0  0
 46 45  1  0  0  0  0
 46 47  1  0  0  0  0
 46 48  1  0  0  0  0
 49 46  1  0  0  0  0
 50 45  1  0  0  0  0
 50  3  2  0  0  0  0
 51 50  1  0  0  0  0
 51 53  2  0  0  0  0
 52 51  1  0  0  0  0
 53  4  1  0  0  0  0
 53 54  1  0  0  0  0
 54 59  2  0  0  0  0
 55 54  1  0  0  0  0
 55 56  1  0  0  0  0
 55 58  1  0  0  0  0
 57 55  1  0  0  0  0
 59 60  1  0  0  0  0
 60 61  1  0  0  0  0
 60 62  1  0  0  0  0
 63 60  1  0  0  0  0
 64 59  1  0  0  0  0
 65 64  2  0  0  0  0
 65 66  1  0  0  0  0
M  END
