1,3,5,41
q = -2.0, confidence = 0.818

 64 69  0  0  0  0  0  0  0  0999 V2000
    1.4084   -1.3729   -1.3718 N   0  0  0  0  0  2  0  0  0  0  0  0
    1.0350   -2.6003   -1.8288 N   0  0  0  0  0  0  0  0  0  0  0  0
    0.1721   -2.2404    0.9190 N   0  0  0  0  0  2  0  0  0  0  0  0
    0.0107   -3.4316    0.3031 N   0  0  0  0  0  0  0  0  0  0  0  0
   -1.5214   -1.2212   -1.3154 N   0  0  0  0  0  2  0  0  0  0  0  0
   -1.4596   -2.5581   -1.5578 N   0  0  0  0  0  0  0  0  0  0  0  0
   -0.1850   -3.3669   -1.2392 B   0  0  1  0  0  0  0  0  0  0  0  0
   -0.2545   -4.4883   -1.7141 H   0  0  0  0  0  0  0  0  0  0  0  0
    1.8047   -2.9489   -2.8933 C   0  0  0  0  0  3  0  0  0  0  0  0
    1.6568   -3.9140   -3.3893 H   0  0  0  0  0  0  0  0  0  0  0  0
    2.7052   -1.9151   -3.1412 C   0  0  0  0  0  0  0  0  0  0  0  0
    3.4915   -1.8758   -3.9010 H   0  0  0  0  0  0  0  0  0  0  0  0
    2.4296   -0.9394   -2.1493 C   0  0  0  0  0  0  0  0  0  0  0  0
    3.1023    0.3486   -1.9127 C   0  0  0  0  0  0  0  0  0  0  0  0
    3.3686    1.2286   -2.9827 C   0  0  0  0  0  0  0  0  0  0  0  0
    3.0641    0.9470   -4.0024 H   0  0  0  0  0  0  0  0  0  0  0  0
    3.9859    2.4640   -2.7514 C   0  0  0  0  0  0  0  0  0  0  0  0
    4.1741    3.1424   -3.5988 H   0  0  0  0  0  0  0  0  0  0  0  0
    4.3586    2.8631   -1.4510 C   0  0  0  0  0  0  0  0  0  0  0  0
    4.1110    1.9667   -0.3911 C   0  0  0  0  0  0  0  0  0  0  0  0
    4.4070    2.2406    0.6343 H   0  0  0  0  0  0  0  0  0  0  0  0
    3.4984    0.7286   -0.6135 C   0  0  0  0  0  0  0  0  0  0  0  0
    3.3195    0.0459    0.2280 H   0  0  0  0  0  0  0  0  0  0  0  0
    4.9734    4.2158   -1.1967 C   0  0  0  0  0  0  0  0  0  0  0  0
    5.5236    4.5904   -2.0823 H   0  0  0  0  0  0  0  0  0  0  0  0
    5.6728    4.1918   -0.3376 H   0  0  0  0  0  0  0  0  0  0  0  0
    4.1897    4.9670   -0.9572 H   0  0  0  0  0  0  0  0  0  0  0  0
    0.5517   -4.3925    1.1055 C   0  0  0  0  0  3  0  0  0  0  0  0
    0.5282   -5.4429    0.7960 H   0  0  0  0  0  0  0  0  0  0  0  0
    1.0850   -3.7884    2.2483 C   0  0  0  0  0  0  0  0  0  0  0  0
    1.5966   -4.2830    3.0791 H   0  0  0  0  0  0  0  0  0  0  0  0
    0.8678   -2.3968    2.0708 C   0  0  0  0  0  0  0  0  0  0  0  0
    1.3546   -1.1368    2.6148 C   0  0  0  0  0  0  0  0  0  0  0  0
    2.0427   -0.9891    3.8319 C   0  0  0  0  0  0  0  0  0  0  0  0
    2.1912   -1.8626    4.4860 H   0  0  0  0  0  0  0  0  0  0  0  0
    2.5421    0.2638    4.2072 C   0  0  0  0  0  0  0  0  0  0  0  0
    3.0827    0.3759    5.1599 H   0  0  0  0  0  0  0  0  0  0  0  0
    2.3576    1.3873    3.3749 C   0  0  0  0  0  0  0  0  0  0  0  0
    1.6631    1.2269    2.1555 C   0  0  0  0  0  0  0  0  0  0  0  0
    1.5360    2.1134    1.5148 H   0  0  0  0  0  0  0  0  0  0  0  0
    1.1567   -0.0153    1.7414 C   0  0  0  0  0  3  0  0  0  0  0  0
    2.8629    2.7493    3.7816 C   0  0  0  0  0  0  0  0  0  0  0  0
    3.6333    2.6834    4.5746 H   0  0  0  0  0  0  0  0  0  0  0  0
    2.0356    3.3793    4.1743 H   0  0  0  0  0  0  0  0  0  0  0  0
    3.2976    3.2961    2.9197 H   0  0  0  0  0  0  0  0  0  0  0  0
   -2.6585   -3.0078   -2.0092 C   0  0  0  0  0  3  0  0  0  0  0  0
   -2.7895   -4.0622   -2.2747 H   0  0  0  0  0  0  0  0  0  0  0  0
   -3.5371   -1.9272   -2.0573 C   0  0  0  0  0  0  0  0  0  0  0  0
   -4.5758   -1.9170   -2.4005 H   0  0  0  0  0  0  0  0  0  0  0  0
   -2.7810   -0.8136   -1.6150 C   0  0  0  0  0  0  0  0  0  0  0  0
   -3.2260    0.5828   -1.4658 C   0  0  0  0  0  0  0  0  0  0  0  0
   -2.5369    1.6422   -2.0861 C   0  0  0  0  0  0  0  0  0  0  0  0
   -1.6704    1.4198   -2.7252 H   0  0  0  0  0  0  0  0  0  0  0  0
   -2.9491    2.9677   -1.8965 C   0  0  0  0  0  0  0  0  0  0  0  0
   -2.3876    3.7829   -2.3796 H   0  0  0  0  0  0  0  0  0  0  0  0
   -4.0649    3.2758   -1.0943 C   0  0  0  0  0  0  0  0  0  0  0  0
   -4.7725    2.2057   -0.5071 C   0  0  0  0  0  0  0  0  0  0  0  0
   -5.6470    2.4185    0.1278 H   0  0  0  0  0  0  0  0  0  0  0  0
   -4.3660    0.8812   -0.6900 C   0  0  0  0  0  0  0  0  0  0  0  0
   -4.9035    0.0643   -0.1874 H   0  0  0  0  0  0  0  0  0  0  0  0
   -4.4802    4.7028   -0.8412 C   0  0  0  0  0  0  0  0  0  0  0  0
   -4.2167    5.0124    0.1932 H   0  0  0  0  0  0  0  0  0  0  0  0
   -5.5765    4.8346   -0.9455 H   0  0  0  0  0  0  0  0  0  0  0  0
   -3.9803    5.4055   -1.5359 H   0  0  0  0  0  0  0  0  0  0  0  0
  2  1  1  0  0  0  0
  2  7  1  0  0  0  0
  3 32  1  0  0  0  0
  4  3  1  0  0  0  0
  4 28  1  0  0  0  0
  6  5  1  0  0  0  0
  6  7  1  0  0  0  0
  7  8  1  6  0  0  0
  7  4  1  0  0  0  0
  9  2  1  0  0  0  0
 10  9  1  0  0  0  0
 11  9  1  0  0  0  0
 11 13  2  0  0  0  0
 12 11  1  0  0  0  0
 13 14  1  0  0  0  0
 13  1  1  0  0  0  0
 14 22  1  0  0  0  0
 15 17  1  0  0  0  0
 15 14  2  0  0  0  0
 16 15  1  0  0  0  0
 17 19  2  0  0  0  0
 18 17  1  0  0  0  0
 19 24  1  0  0  0  0
 19 20  1  0  0  0  0
 20 21  1  0  0  0  0
 22 20  2  0  0  0  0
 22 23  1  0  0  0  0
 24 27  1  0  0  0  0
 24 26  1  0  0  0  0
 25 24  1  0  0  0  0
 28 30  1  0  0  0  0
 29 28  1  0  0  0  0
 30 31  1  0  0  0  0
 32 30  2  0  0  0  0
 32 33  1  0  0  0  0
 33 34  1  0  0  0  0
 34 36  2  0  0  0  0
 34 35  1  0  0  0  0
 36 37  1  0  0  0  0
 38 42  1  0  0  0  0
 38 36  1  0  0  0  0
 39 38  2  0  0  0  0
 40 39  1  0  0  0  0
 41 39  1  0  0  0  0
 41 33  2  0  0  0  0
 42 44  1  0  0  0  0
 42 43  1  0  0  0  0
 45 42  1  0  0  0  0
 46  6  1  0  0  0  0
 47 46  1  0  0  0  0
 48 46  1  0  0  0  0
 48 50  2  0  0  0  0
 49 48  1  0  0  0  0
 50 51  1  0  0  0  0
 50  5  1  0  0  0  0
 51 59  1  0  0  0  0
 52 54  1  0  0  0  0
 52 51  2  0  0  0  0
 53 52  1  0  0  0  0
 54 56  2  0  0  0  0
 55 54  1  0  0  0  0
 56 61  1  0  0  0  0
 56 57  1  0  0  0  0
 57 58  1  0  0  0  0
 59 57  2  0  0  0  0
 59 60  1  0  0  0  0
 61 62  1  0  0  0  0
 63 61  1  0  0  0  0
 64 61  1  0  0  0  0
M  END
