1,2,3,4
q = -2.0, confidence = 0.662

 75 80  0  0  0  0  0  0  0  0999 V2000
   -1.5936   -0.8890   -0.0524 C   0  0  0  0  0  3  0  0  0  0  0  0
    0.9429   -2.0823   -0.2175 N   0  0  0  0  0  2  0  0  0  0  0  0
    2.1434    0.5847   -0.1847 N   0  0  0  0  0  0  0  0  0  0  0  0
   -0.5446    1.7113    0.0209 N   0  0  0  0  0  2  0  0  0  0  0  0
   -2.8033   -0.1770    0.0156 C   0  0  0  0  0  0  0  0  0  0  0  0
   -3.8393   -1.1410    0.0305 N   0  0  0  0  0  0  0  0  0  0  0  0
   -5.2416   -0.9279    0.0876 C   0  0  0  0  0  0  0  0  0  0  0  0
   -6.0270   -1.7678    0.9009 C   0  0  0  0  0  0  0  0  0  0  0  0
   -5.5295   -2.5644    1.4705 H   0  0  0  0  0  0  0  0  0  0  0  0
   -7.4119   -1.5735    0.9595 C   0  0  0  0  0  0  0  0  0  0  0  0
   -8.0238   -2.2287    1.5976 H   0  0  0  0  0  0  0  0  0  0  0  0
   -8.0189   -0.5452    0.2182 C   0  0  0  0  0  0  0  0  0  0  0  0
   -9.1071   -0.3930    0.2725 H   0  0  0  0  0  0  0  0  0  0  0  0
   -7.2322    0.2788   -0.6014 C   0  0  0  0  0  0  0  0  0  0  0  0
   -7.7029    1.0698   -1.2044 H   0  0  0  0  0  0  0  0  0  0  0  0
   -5.8453    0.0872   -0.6798 C   0  0  0  0  0  0  0  0  0  0  0  0
   -5.2340    0.6969   -1.3592 H   0  0  0  0  0  0  0  0  0  0  0  0
   -3.3667   -2.3836    0.0070 N   0  0  0  0  0  0  0  0  0  0  0  0
   -2.0060   -2.2535   -0.0503 C   0  0  0  0  0  0  0  0  0  0  0  0
   -1.1554   -3.3901   -0.1159 C   0  0  0  0  0  0  0  0  0  0  0  0
   -1.6158   -4.3881   -0.1049 H   0  0  0  0  0  0  0  0  0  0  0  0
    0.2199   -3.2840   -0.1980 C   0  0  0  0  0  0  0  0  0  0  0  0
    1.1426   -4.4136   -0.2807 C   0  0  0  0  0  0  0  0  0  0  0  0
    0.7259   -5.8494   -0.2710 C   0  0  0  0  0  0  0  0  0  0  0  0
    1.5936   -6.5243   -0.4002 H   0  0  0  0  0  0  0  0  0  0  0  0
    0.0021   -6.0716   -1.0830 H   0  0  0  0  0  0  0  0  0  0  0  0
    0.2293   -6.1240    0.6837 H   0  0  0  0  0  0  0  0  0  0  0  0
    2.4119   -3.8838   -0.3596 C   0  0  0  0  0  0  0  0  0  0  0  0
    3.7243   -4.6093   -0.4106 C   0  0  0  0  0  0  0  0  0  0  0  0
    4.3954   -4.1177   -1.1481 H   0  0  0  0  0  0  0  0  0  0  0  0
    3.5581   -5.6359   -0.7985 H   0  0  0  0  0  0  0  0  0  0  0  0
    4.4315   -4.6885    0.9535 C   0  0  0  0  0  0  0  0  0  0  0  0
    5.3989   -5.2250    0.8747 H   0  0  0  0  0  0  0  0  0  0  0  0
    3.8013   -5.2206    1.6941 H   0  0  0  0  0  0  0  0  0  0  0  0
    4.6335   -3.6773    1.3619 H   0  0  0  0  0  0  0  0  0  0  0  0
    2.2635   -2.4247   -0.3146 C   0  0  0  0  0  0  0  0  0  0  0  0
    3.3551   -1.5335   -0.3669 C   0  0  0  0  0  0  0  0  0  0  0  0
    4.3502   -1.9875   -0.4662 H   0  0  0  0  0  0  0  0  0  0  0  0
    3.3018   -0.1439   -0.2961 C   0  0  0  0  0  0  0  0  0  0  0  0
    4.4611    0.7583   -0.3232 C   0  0  0  0  0  0  0  0  0  0  0  0
    5.8930    0.3160   -0.3753 C   0  0  0  0  0  0  0  0  0  0  0  0
    6.5194    1.1501   -0.7557 H   0  0  0  0  0  0  0  0  0  0  0  0
    6.0030   -0.5063   -1.1154 H   0  0  0  0  0  0  0  0  0  0  0  0
    6.4376   -0.1492    0.9869 C   0  0  0  0  0  0  0  0  0  0  0  0
    7.4951   -0.4735    0.9076 H   0  0  0  0  0  0  0  0  0  0  0  0
    5.8474   -0.9990    1.3861 H   0  0  0  0  0  0  0  0  0  0  0  0
    6.3832    0.6676    1.7346 H   0  0  0  0  0  0  0  0  0  0  0  0
    3.9600    2.0387   -0.2237 C   0  0  0  0  0  0  0  0  0  0  0  0
    4.7138    3.3323   -0.1433 C   0  0  0  0  0  0  0  0  0  0  0  0
    4.1910    4.1067   -0.7456 H   0  0  0  0  0  0  0  0  0  0  0  0
    5.7106    3.2046   -0.6154 H   0  0  0  0  0  0  0  0  0  0  0  0
    4.8938    3.8429    1.2972 C   0  0  0  0  0  0  0  0  0  0  0  0
    5.4445    4.8053    1.3171 H   0  0  0  0  0  0  0  0  0  0  0  0
    5.4589    3.1105    1.9083 H   0  0  0  0  0  0  0  0  0  0  0  0
    3.9140    3.9970    1.7929 H   0  0  0  0  0  0  0  0  0  0  0  0
    2.4979    1.9082   -0.1393 C   0  0  0  0  0  3  0  0  0  0  0  0
    1.5939    2.9640   -0.0315 C   0  0  0  0  0  0  0  0  0  0  0  0
    2.0159    3.9777   -0.0008 H   0  0  0  0  0  0  0  0  0  0  0  0
    0.1910    2.8679    0.0483 C   0  0  0  0  0  0  0  0  0  0  0  0
   -0.6936    4.0281    0.1898 C   0  0  0  0  0  0  0  0  0  0  0  0
   -0.2390    5.4580    0.1997 C   0  0  0  0  0  0  0  0  0  0  0  0
    0.6707    5.5571    0.8308 H   0  0  0  0  0  0  0  0  0  0  0  0
   -1.0121    6.0832    0.6933 H   0  0  0  0  0  0  0  0  0  0  0  0
    0.0479    6.0161   -1.2049 C   0  0  0  0  0  0  0  0  0  0  0  0
    0.3908    7.0698   -1.1577 H   0  0  0  0  0  0  0  0  0  0  0  0
   -0.8616    5.9777   -1.8376 H   0  0  0  0  0  0  0  0  0  0  0  0
    0.8305    5.4234   -1.7203 H   0  0  0  0  0  0  0  0  0  0  0  0
   -1.9818    3.5393    0.2487 C   0  0  0  0  0  0  0  0  0  0  0  0
   -3.2649    4.2961    0.3810 C   0  0  0  0  0  0  0  0  0  0  0  0
   -3.0842    5.3809    0.5062 H   0  0  0  0  0  0  0  0  0  0  0  0
   -3.8573    3.9517    1.2548 H   0  0  0  0  0  0  0  0  0  0  0  0
   -3.9106    4.1691   -0.5140 H   0  0  0  0  0  0  0  0  0  0  0  0
   -1.8842    2.0873    0.1400 C   0  0  0  0  0  0  0  0  0  0  0  0
   -2.9682    1.2215    0.1423 C   0  0  0  0  0  0  0  0  0  0  0  0
   -3.9686    1.6555    0.2695 H   0  0  0  0  0  0  0  0  0  0  0  0
  1 19  1  0  0  0  0
  1  5  2  0  0  0  0
  2 22  1  0  0  0  0
  3 56  1  0  0  0  0
  4 59  1  0  0  0  0
  4 73  1  0  0  0  0
  5  6  1  0  0  0  0
  5 74  1  0  0  0  0
  6  7  1  0  0  0  0
  7  8  1  0  0  0  0
  8 10  2  0  0  0  0
  8  9  1  0  0  0  0
 10 11  1  0  0  0  0
 12 13  1  0  0  0  0
 12 10  1  0  0  0  0
 14 12  2  0  0  0  0
 15 14  1  0  0  0  0
 16 14  1  0  0  0  0
 16  7  2  0  0  0  0
 17 16  1  0  0  0  0
 18  6  1  0  0  0  0
 19 18  2  0  0  0  0
 20 21  1  0  0  0  0
 20 19  1  0  0  0  0
 22 20  2  0  0  0  0
 23 24  1  0  0  0  0
 23 22  1  0  0  0  0
 24 27  1  0  0  0  0
 25 24  1  0  0  0  0
 26 24  1  0  0  0  0
 28 36  1  0  0  0  0
 28 23  2  0  0  0  0
 29 28  1  0  0  0  0
 29 32  1  0  0  0  0
 30 29  1  0  0  0  0
 31 29  1  0  0  0  0
 32 35  1  0  0  0  0
 32 34  1  0  0  0  0
 33 32  1  0  0  0  0
 36  2  1  0  0  0  0
 37 36  2  0  0  0  0
 37 39  1  0  0  0  0
 38 37  1  0  0  0  0
 39  3  2  0  0  0  0
 40 39  1  0  0  0  0
 40 48  2  0  0  0  0
 41 40  1  0  0  0  0
 41 44  1  0  0  0  0
 42 41  1  0  0  0  0
 43 41  1  0  0  0  0
 44 46  1  0  0  0  0
 44 47  1  0  0  0  0
 45 44  1  0  0  0  0
 48 49  1  0  0  0  0
 48 56  1  0  0  0  0
 49 52  1  0  0  0  0
 50 49  1  0  0  0  0
 51 49  1  0  0  0  0
 52 53  1  0  0  0  0
 52 55  1  0  0  0  0
 52 54  1  0  0  0  0
 56 57  1  0  0  0  0
 57 58  1  0  0  0  0
 57 59  2  0  0  0  0
 59 60  1  0  0  0  0
 60 61  1  0  0  0  0
 60 68  2  0  0  0  0
 61 63  1  0  0  0  0
 61 62  1  0  0  0  0
 64 65  1  0  0  0  0
 64 61  1  0  0  0  0
 66 64  1  0  0  0  0
 67 64  1  0  0  0  0
 68 69  1  0  0  0  0
 69 70  1  0  0  0  0
 69 71  1  0  0  0  0
 72 69  1  0  0  0  0
 73 74  2  0  0  0  0
 73 68  1  0  0  0  0
 74 75  1  0  0  0  0
M  END
