3,4,5,24
 OpenBabel05122313063D

 52 54  0  0  1  0  0  0  0  0999 V2000
   -4.5074   -1.6355    0.6894 O   0  0  0  0  0  0  0  0  0  0  0  0
   -2.9411   -3.0193    0.0358 O   0  0  0  0  0  0  0  0  0  0  0  0
    1.3113    1.9951    0.4672 N   0  0  0  0  0  0  0  0  0  0  0  0
   -0.9831    0.4469   -1.2294 N   0  0  0  0  0  2  0  0  0  0  0  0
    2.0908   -1.0784   -0.3911 N   0  0  0  0  0  2  0  0  0  0  0  0
   -3.3431   -2.0208    0.6399 N   0  0  0  0  0  0  0  0  0  0  0  0
   -1.5819   -0.5832   -1.8745 C   0  0  0  0  0  3  0  0  0  0  0  0
   -2.6217   -0.4060   -2.7895 C   0  0  0  0  0  0  0  0  0  0  0  0
   -3.0437    0.9009   -3.0721 C   0  0  0  0  0  0  0  0  0  0  0  0
   -2.4170    1.9672   -2.4164 C   0  0  0  0  0  0  0  0  0  0  0  0
   -1.3931    1.7164   -1.4838 C   0  0  0  0  0  0  0  0  0  0  0  0
   -0.7800    2.8553   -0.7004 C   0  0  0  0  0  0  0  0  0  0  0  0
    0.7493    2.8991   -0.5691 C   0  0  0  0  0  0  0  0  0  0  0  0
    2.0717   -2.4278   -0.2867 C   0  0  0  0  0  3  0  0  0  0  0  0
    3.1936   -3.2280   -0.5140 C   0  0  0  0  0  0  0  0  0  0  0  0
    4.4004   -2.6019   -0.8570 C   0  0  0  0  0  0  0  0  0  0  0  0
    4.4240   -1.2063   -0.9680 C   0  0  0  0  0  0  0  0  0  0  0  0
    3.2522   -0.4623   -0.7405 C   0  0  0  0  0  0  0  0  0  0  0  0
    3.2411    1.0372   -0.9064 C   0  0  0  0  0  0  0  0  0  0  0  0
    2.7802    1.8611    0.3093 C   0  0  0  0  0  0  0  0  0  0  0  0
    0.9969    2.5043    1.8319 C   0  0  0  0  0  0  0  0  0  0  0  0
    0.7844    1.3787    2.8521 C   0  0  0  0  0  0  0  0  0  0  0  0
   -0.3185    0.4478    2.3976 C   0  0  2  0  0  3  0  0  0  0  0  0
   -0.0141   -0.8865    2.0022 C   0  0  0  0  0  3  0  0  0  0  0  0
   -1.0227   -1.7063    1.4462 C   0  0  0  0  0  0  0  0  0  0  0  0
   -2.3223   -1.2010    1.3304 C   0  0  0  0  0  0  0  0  0  0  0  0
   -2.6709    0.0725    1.8048 C   0  0  0  0  0  0  0  0  0  0  0  0
   -1.6629    0.8913    2.3222 C   0  0  0  0  0  0  0  0  0  0  0  0
   -1.2254   -1.5933   -1.6218 H   0  0  0  0  0  0  0  0  0  0  0  0
   -3.0872   -1.2810   -3.2640 H   0  0  0  0  0  0  0  0  0  0  0  0
   -3.8544    1.0878   -3.7919 H   0  0  0  0  0  0  0  0  0  0  0  0
   -2.7262    3.0041   -2.6131 H   0  0  0  0  0  0  0  0  0  0  0  0
   -1.1041    3.8045   -1.1692 H   0  0  0  0  0  0  0  0  0  0  0  0
   -1.2443    2.8575    0.3108 H   0  0  0  0  0  0  0  0  0  0  0  0
    1.2037    2.6368   -1.5446 H   0  0  0  0  0  0  0  0  0  0  0  0
    1.0642    3.9475   -0.3514 H   0  0  0  0  0  0  0  0  0  0  0  0
    1.1067   -2.8816   -0.0132 H   0  0  0  0  0  0  0  0  0  0  0  0
    3.1159   -4.3205   -0.4233 H   0  0  0  0  0  0  0  0  0  0  0  0
    5.3105   -3.1924   -1.0387 H   0  0  0  0  0  0  0  0  0  0  0  0
    5.3516   -0.6818   -1.2400 H   0  0  0  0  0  0  0  0  0  0  0  0
    2.6221    1.2915   -1.7947 H   0  0  0  0  0  0  0  0  0  0  0  0
    4.2674    1.3632   -1.1628 H   0  0  0  0  0  0  0  0  0  0  0  0
    3.1785    1.3974    1.2342 H   0  0  0  0  0  0  0  0  0  0  0  0
    3.2349    2.8787    0.2445 H   0  0  0  0  0  0  0  0  0  0  0  0
    1.7899    3.2095    2.1708 H   0  0  0  0  0  0  0  0  0  0  0  0
    0.0665    3.1005    1.7710 H   0  0  0  0  0  0  0  0  0  0  0  0
    0.5303    1.8402    3.8293 H   0  0  0  0  0  0  0  0  0  0  0  0
    1.7223    0.8074    3.0077 H   0  0  0  0  0  0  0  0  0  0  0  0
    0.9737   -1.3129    2.2358 H   0  0  0  0  0  0  0  0  0  0  0  0
   -0.8301   -2.7397    1.1270 H   0  0  0  0  0  0  0  0  0  0  0  0
   -1.9200    1.9006    2.6801 H   0  0  0  0  0  0  0  0  0  0  0  0
   -3.7167    0.3998    1.7326 H   0  0  0  0  0  0  0  0  0  0  0  0
  2  6  2  0  0  0  0
  3 21  1  0  0  0  0
  5 14  1  0  0  0  0
  6  1  2  0  0  0  0
  6 26  1  0  0  0  0
  7 29  1  0  0  0  0
  7  4  1  0  0  0  0
  8  7  1  0  0  0  0
  9  8  2  0  0  0  0
  9 10  1  0  0  0  0
 10 11  2  0  0  0  0
 11  4  1  0  0  0  0
 11 12  1  0  0  0  0
 12 13  1  0  0  0  0
 12 34  1  0  0  0  0
 13 36  1  0  0  0  0
 13  3  1  0  0  0  0
 14 37  1  0  0  0  0
 15 38  1  0  0  0  0
 15 14  1  0  0  0  0
 16 15  2  0  0  0  0
 17 16  1  0  0  0  0
 17 18  2  0  0  0  0
 18  5  1  0  0  0  0
 19 18  1  0  0  0  0
 19 20  1  0  0  0  0
 20  3  1  0  0  0  0
 20 43  1  0  0  0  0
 21 45  1  0  0  0  0
 21 22  1  0  0  0  0
 22 48  1  0  0  0  0
 22 47  1  0  0  0  0
 23 22  1  6  0  0  0
 24 49  1  0  0  0  0
 24 23  1  0  0  0  0
 25 24  1  0  0  0  0
 26 25  2  0  0  0  0
 26 27  1  0  0  0  0
 27 28  2  0  0  0  0
 28 23  1  0  0  0  0
 28 51  1  0  0  0  0
 30  8  1  0  0  0  0
 31  9  1  0  0  0  0
 32 10  1  0  0  0  0
 33 12  1  0  0  0  0
 35 13  1  0  0  0  0
 39 16  1  0  0  0  0
 40 17  1  0  0  0  0
 41 19  1  0  0  0  0
 42 19  1  0  0  0  0
 44 20  1  0  0  0  0
 46 21  1  0  0  0  0
 50 25  1  0  0  0  0
 52 27  1  0  0  0  0
M  END
