1,2,3,26
 OpenBabel05122313063D

 53 55  0  0  1  0  0  0  0  0999 V2000
    0.6835   -1.9585    0.8017 N   0  0  0  0  0  0  0  0  0  0  0  0
    2.0437    0.7214   -0.4995 N   0  0  0  0  0  2  0  0  0  0  0  0
   -1.2518   -0.2675   -1.1644 N   0  0  0  0  0  2  0  0  0  0  0  0
    2.3059    2.0461   -0.5937 C   0  0  0  0  0  3  0  0  0  0  0  0
    3.5594    2.5545   -0.9409 C   0  0  0  0  0  0  0  0  0  0  0  0
    4.6001    1.6489   -1.1934 C   0  0  0  0  0  0  0  0  0  0  0  0
    4.3330    0.2777   -1.0977 C   0  0  0  0  0  0  0  0  0  0  0  0
    3.0418   -0.1663   -0.7591 C   0  0  0  0  0  0  0  0  0  0  0  0
    2.7186   -1.6386   -0.6968 C   0  0  0  0  0  0  0  0  0  0  0  0
    2.1417   -2.1539    0.6349 C   0  0  0  0  0  0  0  0  0  0  0  0
   -1.5903    0.7220   -2.0233 C   0  0  0  0  0  3  0  0  0  0  0  0
   -2.5867    0.5829   -2.9923 C   0  0  0  0  0  0  0  0  0  0  0  0
   -3.2556   -0.6461   -3.0867 C   0  0  0  0  0  0  0  0  0  0  0  0
   -2.9028   -1.6729   -2.2031 C   0  0  0  0  0  0  0  0  0  0  0  0
   -1.9003   -1.4589   -1.2383 C   0  0  0  0  0  0  0  0  0  0  0  0
   -1.5629   -2.5354   -0.2330 C   0  0  0  0  0  0  0  0  0  0  0  0
   -0.0804   -2.8982   -0.0516 C   0  0  0  0  0  0  0  0  0  0  0  0
    0.3044   -2.1024    2.2340 C   0  0  0  0  0  0  0  0  0  0  0  0
    0.3478   -0.7655    2.9807 C   0  0  0  0  0  0  0  0  0  0  0  0
   -0.5677    0.2597    2.3374 C   0  0  1  0  0  3  0  0  0  0  0  0
   -1.9722    0.0618    2.2917 C   0  0  0  0  0  0  0  0  0  0  0  0
   -2.8213    1.0054    1.7107 C   0  0  0  0  0  0  0  0  0  0  0  0
   -2.3159    2.1992    1.1401 C   0  0  0  0  0  0  0  0  0  0  0  0
   -3.2430    3.1899    0.4875 C   0  0  0  0  0  0  0  0  0  0  0  0
   -0.9319    2.4238    1.2169 C   0  0  0  0  0  0  0  0  0  0  0  0
   -0.0570    1.4745    1.8026 C   0  0  0  0  0  3  0  0  0  0  0  0
    1.4629    2.7220   -0.3807 H   0  0  0  0  0  0  0  0  0  0  0  0
    3.7118    3.6408   -1.0100 H   0  0  0  0  0  0  0  0  0  0  0  0
    5.6053    2.0051   -1.4631 H   0  0  0  0  0  0  0  0  0  0  0  0
    5.1234   -0.4617   -1.2920 H   0  0  0  0  0  0  0  0  0  0  0  0
    2.0236   -1.8860   -1.5291 H   0  0  0  0  0  0  0  0  0  0  0  0
    3.6458   -2.2053   -0.9081 H   0  0  0  0  0  0  0  0  0  0  0  0
    2.6510   -1.6385    1.4738 H   0  0  0  0  0  0  0  0  0  0  0  0
    2.3847   -3.2391    0.7366 H   0  0  0  0  0  0  0  0  0  0  0  0
   -1.0327    1.6656   -1.9168 H   0  0  0  0  0  0  0  0  0  0  0  0
   -2.8257    1.4220   -3.6607 H   0  0  0  0  0  0  0  0  0  0  0  0
   -4.0421   -0.8036   -3.8397 H   0  0  0  0  0  0  0  0  0  0  0  0
   -3.4081   -2.6486   -2.2492 H   0  0  0  0  0  0  0  0  0  0  0  0
   -1.9956   -2.2332    0.7458 H   0  0  0  0  0  0  0  0  0  0  0  0
   -2.1032   -3.4570   -0.5235 H   0  0  0  0  0  0  0  0  0  0  0  0
    0.4051   -2.9403   -1.0468 H   0  0  0  0  0  0  0  0  0  0  0  0
   -0.0088   -3.9286    0.3721 H   0  0  0  0  0  0  0  0  0  0  0  0
   -0.7280   -2.4997    2.2791 H   0  0  0  0  0  0  0  0  0  0  0  0
    0.9464   -2.8665    2.7294 H   0  0  0  0  0  0  0  0  0  0  0  0
    0.0493   -0.9448    4.0358 H   0  0  0  0  0  0  0  0  0  0  0  0
    1.3852   -0.3729    3.0150 H   0  0  0  0  0  0  0  0  0  0  0  0
   -2.4051   -0.8425    2.7490 H   0  0  0  0  0  0  0  0  0  0  0  0
   -3.9072    0.8226    1.7012 H   0  0  0  0  0  0  0  0  0  0  0  0
   -4.0829    3.4598    1.1594 H   0  0  0  0  0  0  0  0  0  0  0  0
   -2.7181    4.1224    0.2053 H   0  0  0  0  0  0  0  0  0  0  0  0
   -3.6957    2.7624   -0.4325 H   0  0  0  0  0  0  0  0  0  0  0  0
   -0.5209    3.3752    0.8429 H   0  0  0  0  0  0  0  0  0  0  0  0
    0.9984    1.7395    1.9744 H   0  0  0  0  0  0  0  0  0  0  0  0
  1 18  1  0  0  0  0
  4  2  1  0  0  0  0
  4 27  1  0  0  0  0
  5  4  1  0  0  0  0
  6  7  1  0  0  0  0
  6  5  2  0  0  0  0
  7  8  2  0  0  0  0
  8  9  1  0  0  0  0
  8  2  1  0  0  0  0
  9 10  1  0  0  0  0
 10 34  1  0  0  0  0
 10  1  1  0  0  0  0
 10 33  1  0  0  0  0
 11 35  1  0  0  0  0
 11  3  1  0  0  0  0
 12 11  1  0  0  0  0
 13 12  2  0  0  0  0
 13 14  1  0  0  0  0
 14 15  2  0  0  0  0
 15  3  1  0  0  0  0
 15 16  1  0  0  0  0
 16 17  1  0  0  0  0
 16 39  1  0  0  0  0
 17 42  1  0  0  0  0
 17  1  1  0  0  0  0
 18 43  1  0  0  0  0
 18 44  1  0  0  0  0
 18 19  1  0  0  0  0
 19 46  1  0  0  0  0
 19 45  1  0  0  0  0
 20 19  1  1  0  0  0
 21 20  1  0  0  0  0
 21 47  1  0  0  0  0
 22 21  2  0  0  0  0
 23 25  2  0  0  0  0
 23 22  1  0  0  0  0
 24 23  1  0  0  0  0
 24 49  1  0  0  0  0
 25 26  1  0  0  0  0
 26 53  1  0  0  0  0
 26 20  1  0  0  0  0
 28  5  1  0  0  0  0
 29  6  1  0  0  0  0
 30  7  1  0  0  0  0
 31  9  1  0  0  0  0
 32  9  1  0  0  0  0
 36 12  1  0  0  0  0
 37 13  1  0  0  0  0
 38 14  1  0  0  0  0
 40 16  1  0  0  0  0
 41 17  1  0  0  0  0
 48 22  1  0  0  0  0
 50 24  1  0  0  0  0
 51 24  1  0  0  0  0
 52 25  1  0  0  0  0
M  END
