2,3,4,6
 OpenBabel05122313063D

 55 61  0  0  0  0  0  0  0  0999 V2000
   -0.7136   -2.9180    0.0291 N   0  0  0  0  0  0  0  0  0  0  0  0
    2.0642    1.2632    0.0471 N   0  0  0  0  0  2  0  0  0  0  0  0
   -0.0135    3.3839   -0.0223 N   0  0  0  0  0  0  0  0  0  0  0  0
   -2.0697    1.2369   -0.0580 N   0  0  0  0  0  2  0  0  0  0  0  0
   -1.1304   -1.5666   -0.0335 C   0  0  0  0  0  0  0  0  0  0  0  0
    0.0027   -0.7144   -0.0760 C   0  0  0  0  0  2  0  0  0  0  0  0
    0.5996   -2.9017    0.0229 C   0  0  0  0  0  0  0  0  0  0  0  0
    1.1519   -1.5435   -0.0388 C   0  0  0  0  0  0  0  0  0  0  0  0
    2.5158   -1.1839   -0.0016 C   0  0  0  0  0  0  0  0  0  0  0  0
    2.9173    0.1696    0.0216 C   0  0  0  0  0  0  0  0  0  0  0  0
    4.2795    0.6478   -0.0050 C   0  0  0  0  0  0  0  0  0  0  0  0
    4.2337    2.0225    0.0233 C   0  0  0  0  0  0  0  0  0  0  0  0
    2.8440    2.4088    0.0497 C   0  0  0  0  0  0  0  0  0  0  0  0
    2.4112    3.7441    0.0633 C   0  0  0  0  0  0  0  0  0  0  0  0
    1.0910    4.1992    0.0330 C   0  0  0  0  0  3  0  0  0  0  0  0
    0.6587    5.5841    0.0330 C   0  0  0  0  0  0  0  0  0  0  0  0
   -0.7150    5.5756   -0.0276 C   0  0  0  0  0  0  0  0  0  0  0  0
   -1.1290    4.1858   -0.0618 C   0  0  0  0  0  0  0  0  0  0  0  0
   -2.4412    3.7141   -0.1324 C   0  0  0  0  0  0  0  0  0  0  0  0
   -2.8595    2.3738   -0.1449 C   0  0  0  0  0  0  0  0  0  0  0  0
   -4.2389    1.9705   -0.2425 C   0  0  0  0  0  0  0  0  0  0  0  0
   -4.2689    0.5943   -0.2107 C   0  0  0  0  0  0  0  0  0  0  0  0
   -2.9075    0.1338   -0.0818 C   0  0  0  0  0  0  0  0  0  0  0  0
   -2.4976   -1.2223   -0.0239 C   0  0  0  0  0  0  0  0  0  0  0  0
    3.5551   -2.2493    0.0092 C   0  0  0  0  0  0  0  0  0  0  0  0
    3.6149   -3.2006   -1.0340 C   0  0  0  0  0  0  0  0  0  0  0  0
    4.5849   -4.2127   -1.0243 C   0  0  0  0  0  0  0  0  0  0  0  0
    5.5091   -4.2958    0.0293 C   0  0  0  0  0  0  0  0  0  0  0  0
    5.4570   -3.3593    1.0741 C   0  0  0  0  0  0  0  0  0  0  0  0
    4.4897   -2.3445    1.0648 C   0  0  0  0  0  0  0  0  0  0  0  0
   -3.5271   -2.2899    0.0578 C   0  0  0  0  0  0  0  0  0  0  0  0
   -4.5299   -2.2454    1.0533 C   0  0  0  0  0  0  0  0  0  0  0  0
   -5.5018   -3.2523    1.1383 C   0  0  0  0  0  0  0  0  0  0  0  0
   -5.4910   -4.3200    0.2277 C   0  0  0  0  0  0  0  0  0  0  0  0
   -4.4946   -4.3792   -0.7606 C   0  0  0  0  0  0  0  0  0  0  0  0
   -3.5169   -3.3798   -0.8419 C   0  0  0  0  0  0  0  0  0  0  0  0
    1.1871   -3.8308    0.0859 H   0  0  0  0  0  0  0  0  0  0  0  0
    5.1621    0.0023   -0.0536 H   0  0  0  0  0  0  0  0  0  0  0  0
    5.0707    2.7305    0.0105 H   0  0  0  0  0  0  0  0  0  0  0  0
    3.2017    4.5072    0.0876 H   0  0  0  0  0  0  0  0  0  0  0  0
    1.3317    6.4490    0.0720 H   0  0  0  0  0  0  0  0  0  0  0  0
   -1.3994    6.4322   -0.0479 H   0  0  0  0  0  0  0  0  0  0  0  0
   -3.2398    4.4677   -0.1809 H   0  0  0  0  0  0  0  0  0  0  0  0
   -5.0810    2.6660   -0.3376 H   0  0  0  0  0  0  0  0  0  0  0  0
   -5.1401   -0.0636   -0.2869 H   0  0  0  0  0  0  0  0  0  0  0  0
    2.8993   -3.1269   -1.8666 H   0  0  0  0  0  0  0  0  0  0  0  0
    4.6218   -4.9400   -1.8495 H   0  0  0  0  0  0  0  0  0  0  0  0
    6.2689   -5.0919    0.0374 H   0  0  0  0  0  0  0  0  0  0  0  0
    6.1709   -3.4240    1.9094 H   0  0  0  0  0  0  0  0  0  0  0  0
    4.4366   -1.6228    1.8937 H   0  0  0  0  0  0  0  0  0  0  0  0
   -4.5250   -1.4226    1.7836 H   0  0  0  0  0  0  0  0  0  0  0  0
   -6.2678   -3.2056    1.9274 H   0  0  0  0  0  0  0  0  0  0  0  0
   -6.2547   -5.1100    0.2918 H   0  0  0  0  0  0  0  0  0  0  0  0
   -4.4769   -5.2158   -1.4757 H   0  0  0  0  0  0  0  0  0  0  0  0
   -2.7321   -3.4314   -1.6080 H   0  0  0  0  0  0  0  0  0  0  0  0
  2 13  1  0  0  0  0
  3 15  1  0  0  0  0
  5 24  1  0  0  0  0
  5  1  2  0  0  0  0
  6  8  1  0  0  0  0
  6  5  1  0  0  0  0
  7  1  1  0  0  0  0
  7 37  1  0  0  0  0
  8  9  1  0  0  0  0
  8  7  2  0  0  0  0
  9 25  1  0  0  0  0
  9 10  2  0  0  0  0
 10  2  1  0  0  0  0
 11 10  1  0  0  0  0
 11 12  2  0  0  0  0
 12 13  1  0  0  0  0
 13 14  2  0  0  0  0
 14 40  1  0  0  0  0
 15 14  1  0  0  0  0
 16 15  1  0  0  0  0
 16 41  1  0  0  0  0
 17 16  2  0  0  0  0
 18 17  1  0  0  0  0
 18  3  2  0  0  0  0
 19 18  1  0  0  0  0
 20 19  2  0  0  0  0
 20  4  1  0  0  0  0
 21 22  2  0  0  0  0
 21 20  1  0  0  0  0
 22 23  1  0  0  0  0
 23  4  1  0  0  0  0
 23 24  2  0  0  0  0
 24 31  1  0  0  0  0
 25 30  1  0  0  0  0
 26 27  1  0  0  0  0
 26 25  2  0  0  0  0
 27 28  2  0  0  0  0
 28 48  1  0  0  0  0
 28 29  1  0  0  0  0
 29 49  1  0  0  0  0
 30 29  2  0  0  0  0
 30 50  1  0  0  0  0
 31 32  1  0  0  0  0
 32 33  2  0  0  0  0
 32 51  1  0  0  0  0
 33 52  1  0  0  0  0
 34 53  1  0  0  0  0
 34 33  1  0  0  0  0
 35 34  2  0  0  0  0
 36 35  1  0  0  0  0
 36 31  2  0  0  0  0
 38 11  1  0  0  0  0
 39 12  1  0  0  0  0
 42 17  1  0  0  0  0
 43 19  1  0  0  0  0
 44 21  1  0  0  0  0
 45 22  1  0  0  0  0
 46 26  1  0  0  0  0
 47 27  1  0  0  0  0
 54 35  1  0  0  0  0
 55 36  1  0  0  0  0
M  END
