2,6,10,34
 OpenBabel05122313063D

 43 44  0  0  1  0  0  0  0  0999 V2000
   -0.9919   -0.0001    2.1244 Cl  0  0  0  0  0  0  0  0  0  0  0  0
   -0.0590   -2.0837   -0.2182 N   0  0  0  0  0  0  0  0  0  0  0  0
   -1.4330   -2.4245    0.3006 C   0  0  0  0  0  0  0  0  0  0  0  0
   -1.8207   -3.3642   -0.1453 H   0  0  0  0  0  0  0  0  0  0  0  0
   -1.3339   -2.5826    1.3931 H   0  0  0  0  0  0  0  0  0  0  0  0
    2.3956    0.0000   -0.4137 N   0  0  0  0  0  0  0  0  0  0  0  0
    1.0177   -2.9012    0.3808 C   0  0  0  0  0  0  0  0  0  0  0  0
    0.8165   -3.9870    0.2349 H   0  0  0  0  0  0  0  0  0  0  0  0
    0.9935   -2.7165    1.4760 H   0  0  0  0  0  0  0  0  0  0  0  0
   -0.0590    2.0837   -0.2181 N   0  0  0  0  0  0  0  0  0  0  0  0
    2.4002   -2.5624   -0.1768 C   0  0  0  0  0  0  0  0  0  0  0  0
    2.4119   -2.6981   -1.2801 H   0  0  0  0  0  0  0  0  0  0  0  0
    3.1017   -3.3326    0.2044 H   0  0  0  0  0  0  0  0  0  0  0  0
    2.9947   -1.2072    0.2204 C   0  0  0  0  0  0  0  0  0  0  0  0
    2.8944   -1.0783    1.3184 H   0  0  0  0  0  0  0  0  0  0  0  0
    4.0903   -1.2178    0.0020 H   0  0  0  0  0  0  0  0  0  0  0  0
    2.6468   -0.0000   -1.8665 C   0  0  0  0  0  0  0  0  0  0  0  0
    3.7395   -0.0002   -2.0920 H   0  0  0  0  0  0  0  0  0  0  0  0
    2.1941    0.8915   -2.3374 H   0  0  0  0  0  0  0  0  0  0  0  0
    2.1939   -0.8914   -2.3373 H   0  0  0  0  0  0  0  0  0  0  0  0
    2.9947    1.2073    0.2203 C   0  0  0  0  0  0  0  0  0  0  0  0
    4.0903    1.2179    0.0018 H   0  0  0  0  0  0  0  0  0  0  0  0
    2.8945    1.0785    1.3183 H   0  0  0  0  0  0  0  0  0  0  0  0
    2.4001    2.5625   -0.1769 C   0  0  0  0  0  0  0  0  0  0  0  0
    2.4117    2.6982   -1.2803 H   0  0  0  0  0  0  0  0  0  0  0  0
    3.1016    3.3327    0.2042 H   0  0  0  0  0  0  0  0  0  0  0  0
    1.0176    2.9012    0.3808 C   0  0  0  0  0  0  0  0  0  0  0  0
    0.9936    2.7164    1.4761 H   0  0  0  0  0  0  0  0  0  0  0  0
    0.8164    3.9871    0.2350 H   0  0  0  0  0  0  0  0  0  0  0  0
   -1.4330    2.4245    0.3007 C   0  0  0  0  0  0  0  0  0  0  0  0
   -1.3339    2.5825    1.3932 H   0  0  0  0  0  0  0  0  0  0  0  0
   -1.8208    3.3642   -0.1451 H   0  0  0  0  0  0  0  0  0  0  0  0
   -2.3026    1.2409   -0.0027 C   0  0  0  0  0  0  0  0  0  0  0  0
   -1.8454   -0.0000    0.5107 C   0  0  2  0  0  3  0  0  0  0  0  0
   -2.3025   -1.2410   -0.0028 C   0  0  0  0  0  0  0  0  0  0  0  0
   -3.3226   -1.2169   -0.9653 C   0  0  0  0  0  0  0  0  0  0  0  0
   -3.6726   -2.1688   -1.3947 H   0  0  0  0  0  0  0  0  0  0  0  0
   -3.8741    0.0000   -1.4045 C   0  0  0  0  0  3  0  0  0  0  0  0
   -4.6888    0.0000   -2.1422 H   0  0  0  0  0  0  0  0  0  0  0  0
   -3.3226    1.2169   -0.9652 C   0  0  0  0  0  0  0  0  0  0  0  0
   -3.6727    2.1688   -1.3945 H   0  0  0  0  0  0  0  0  0  0  0  0
   -0.0714    2.2582   -1.2350 H   0  0  0  0  0  0  0  0  0  0  0  0
   -0.0712   -2.2582   -1.2351 H   0  0  0  0  0  0  0  0  0  0  0  0
  2  3  1  0  0  0  0
  2  7  1  0  0  0  0
  3  5  1  0  0  0  0
  4  3  1  0  0  0  0
  6 21  1  0  0  0  0
  6 14  1  0  0  0  0
  7  9  1  0  0  0  0
  8  7  1  0  0  0  0
 10 30  1  0  0  0  0
 10 27  1  0  0  0  0
 11 13  1  0  0  0  0
 11 14  1  0  0  0  0
 11  7  1  0  0  0  0
 12 11  1  0  0  0  0
 14 15  1  0  0  0  0
 16 14  1  0  0  0  0
 17  6  1  0  0  0  0
 18 17  1  0  0  0  0
 19 17  1  0  0  0  0
 20 17  1  0  0  0  0
 21 23  1  0  0  0  0
 22 21  1  0  0  0  0
 24 26  1  0  0  0  0
 24 21  1  0  0  0  0
 24 27  1  0  0  0  0
 25 24  1  0  0  0  0
 27 28  1  0  0  0  0
 29 27  1  0  0  0  0
 30 31  1  0  0  0  0
 32 30  1  0  0  0  0
 33 30  1  0  0  0  0
 33 34  1  0  0  0  0
 34  1  1  1  0  0  0
 35  3  1  0  0  0  0
 35 34  1  0  0  0  0
 36 35  2  0  0  0  0
 37 36  1  0  0  0  0
 38 36  1  0  0  0  0
 38 40  1  0  0  0  0
 39 38  1  0  0  0  0
 40 33  2  0  0  0  0
 41 40  1  0  0  0  0
 42 10  1  0  0  0  0
 43  2  1  0  0  0  0
M  END
