1,2,3,4
q = -2.0, confidence = 0.692

 74 79  0  0  0  0  0  0  0  0999 V2000
    2.1108   -0.6625    0.0426 C   0  0  0  0  0  2  0  0  0  0  0  0
   -0.5002   -2.0902   -0.0750 N   0  0  0  0  0  0  0  0  0  0  0  0
   -1.9177    0.4141   -0.3579 N   0  0  0  0  0  2  0  0  0  0  0  0
    0.5724    1.8521   -0.0768 N   0  0  0  0  0  0  0  0  0  0  0  0
    3.1923    0.2680   -0.0646 C   0  0  0  0  0  0  0  0  0  0  0  0
    4.5979   -0.1515   -0.1535 C   0  0  0  0  0  0  0  0  0  0  0  0
    5.6742    0.7199   -0.4869 C   0  0  0  0  0  0  0  0  0  0  0  0
    5.4786    1.7660   -0.7563 H   0  0  0  0  0  0  0  0  0  0  0  0
    6.9923    0.2727   -0.5229 C   0  0  0  0  0  0  0  0  0  0  0  0
    7.7924    0.9785   -0.7938 H   0  0  0  0  0  0  0  0  0  0  0  0
    4.9384   -1.5213    0.0952 C   0  0  0  0  0  0  0  0  0  0  0  0
    6.2949   -1.9608    0.0734 C   0  0  0  0  0  0  0  0  0  0  0  0
    6.5078   -3.0204    0.2847 H   0  0  0  0  0  0  0  0  0  0  0  0
    7.3166   -1.0747   -0.2265 C   0  0  0  0  0  0  0  0  0  0  0  0
    8.3637   -1.4112   -0.2513 H   0  0  0  0  0  0  0  0  0  0  0  0
    3.8751   -2.4120    0.3302 C   0  0  0  0  0  0  0  0  0  0  0  0
    4.1169   -3.4672    0.5383 H   0  0  0  0  0  0  0  0  0  0  0  0
    2.5193   -2.0384    0.2539 C   0  0  0  0  0  0  0  0  0  0  0  0
    1.6444   -3.1698    0.3894 C   0  0  0  0  0  0  0  0  0  0  0  0
    2.1262   -4.1344    0.6067 H   0  0  0  0  0  0  0  0  0  0  0  0
    0.2893   -3.2005    0.2086 C   0  0  0  0  0  3  0  0  0  0  0  0
   -0.5208   -4.4178    0.2267 C   0  0  0  0  0  0  0  0  0  0  0  0
    0.0010   -5.7875    0.5192 C   0  0  0  0  0  0  0  0  0  0  0  0
   -0.7968   -6.5502    0.4366 H   0  0  0  0  0  0  0  0  0  0  0  0
    0.4212   -5.8546    1.5450 H   0  0  0  0  0  0  0  0  0  0  0  0
    0.8144   -6.0757   -0.1797 H   0  0  0  0  0  0  0  0  0  0  0  0
   -1.8021   -4.0296   -0.0844 C   0  0  0  0  0  0  0  0  0  0  0  0
   -3.0404   -4.8727   -0.1671 C   0  0  0  0  0  0  0  0  0  0  0  0
   -2.7508   -5.9236   -0.3762 H   0  0  0  0  0  0  0  0  0  0  0  0
   -3.6530   -4.5540   -1.0381 H   0  0  0  0  0  0  0  0  0  0  0  0
   -3.8981   -4.8253    1.1095 C   0  0  0  0  0  0  0  0  0  0  0  0
   -4.8046   -5.4559    1.0082 H   0  0  0  0  0  0  0  0  0  0  0  0
   -4.2249   -3.7903    1.3370 H   0  0  0  0  0  0  0  0  0  0  0  0
   -3.3223   -5.1869    1.9850 H   0  0  0  0  0  0  0  0  0  0  0  0
   -1.7684   -2.5711   -0.2534 C   0  0  0  0  0  0  0  0  0  0  0  0
   -2.9177   -1.8162   -0.5285 C   0  0  0  0  0  0  0  0  0  0  0  0
   -3.8511   -2.3705   -0.6897 H   0  0  0  0  0  0  0  0  0  0  0  0
   -2.9865   -0.4298   -0.5491 C   0  0  0  0  0  0  0  0  0  0  0  0
   -4.2282    0.3313   -0.7244 C   0  0  0  0  0  0  0  0  0  0  0  0
   -5.5917   -0.2691   -0.8968 C   0  0  0  0  0  0  0  0  0  0  0  0
   -5.5352   -1.1337   -1.5929 H   0  0  0  0  0  0  0  0  0  0  0  0
   -6.2548    0.4719   -1.3909 H   0  0  0  0  0  0  0  0  0  0  0  0
   -6.2329   -0.7203    0.4275 C   0  0  0  0  0  0  0  0  0  0  0  0
   -7.2367   -1.1605    0.2590 H   0  0  0  0  0  0  0  0  0  0  0  0
   -6.3447    0.1348    1.1242 H   0  0  0  0  0  0  0  0  0  0  0  0
   -5.6068   -1.4797    0.9385 H   0  0  0  0  0  0  0  0  0  0  0  0
   -3.8818    1.6590   -0.6155 C   0  0  0  0  0  0  0  0  0  0  0  0
   -4.7745    2.8635   -0.6417 C   0  0  0  0  0  0  0  0  0  0  0  0
   -5.7107    2.6105   -1.1823 H   0  0  0  0  0  0  0  0  0  0  0  0
   -4.2939    3.6731   -1.2324 H   0  0  0  0  0  0  0  0  0  0  0  0
   -5.1241    3.3942    0.7600 C   0  0  0  0  0  0  0  0  0  0  0  0
   -5.7818    4.2850    0.6999 H   0  0  0  0  0  0  0  0  0  0  0  0
   -4.2109    3.6793    1.3209 H   0  0  0  0  0  0  0  0  0  0  0  0
   -5.6471    2.6201    1.3570 H   0  0  0  0  0  0  0  0  0  0  0  0
   -2.4316    1.6878   -0.3927 C   0  0  0  0  0  0  0  0  0  0  0  0
   -1.6866    2.8496   -0.2426 C   0  0  0  0  0  0  0  0  0  0  0  0
   -2.2273    3.8043   -0.2765 H   0  0  0  0  0  0  0  0  0  0  0  0
   -0.2954    2.9134   -0.0825 C   0  0  0  0  0  0  0  0  0  0  0  0
    0.4340    4.1778    0.0459 C   0  0  0  0  0  0  0  0  0  0  0  0
   -0.2080    5.5307    0.1374 C   0  0  0  0  0  0  0  0  0  0  0  0
    0.5431    6.3077   -0.1156 H   0  0  0  0  0  0  0  0  0  0  0  0
   -1.0016    5.6221   -0.6360 H   0  0  0  0  0  0  0  0  0  0  0  0
   -0.8060    5.8313    1.5227 C   0  0  0  0  0  0  0  0  0  0  0  0
   -1.2741    6.8363    1.5495 H   0  0  0  0  0  0  0  0  0  0  0  0
   -0.0230    5.7945    2.3066 H   0  0  0  0  0  0  0  0  0  0  0  0
   -1.5798    5.0859    1.7975 H   0  0  0  0  0  0  0  0  0  0  0  0
    1.7701    3.8530    0.1124 C   0  0  0  0  0  0  0  0  0  0  0  0
    2.9496    4.7615    0.2488 C   0  0  0  0  0  0  0  0  0  0  0  0
    2.6427    5.8250    0.2478 H   0  0  0  0  0  0  0  0  0  0  0  0
    3.6748    4.6226   -0.5807 H   0  0  0  0  0  0  0  0  0  0  0  0
    3.5034    4.5757    1.1933 H   0  0  0  0  0  0  0  0  0  0  0  0
    1.8423    2.3966    0.0177 C   0  0  0  0  0  3  0  0  0  0  0  0
    3.0154    1.6842   -0.0215 C   0  0  0  0  0  3  0  0  0  0  0  0
    3.9169    2.3040    0.0446 H   0  0  0  0  0  0  0  0  0  0  0  0
  1 18  1  0  0  0  0
  2 21  1  0  0  0  0
  4 72  1  0  0  0  0
  5 73  1  0  0  0  0
  5  1  1  0  0  0  0
  6  5  2  0  0  0  0
  6 11  1  0  0  0  0
  7  6  1  0  0  0  0
  8  7  1  0  0  0  0
  9  7  2  0  0  0  0
  9 14  1  0  0  0  0
 10  9  1  0  0  0  0
 11 16  2  0  0  0  0
 12 11  1  0  0  0  0
 12 13  1  0  0  0  0
 14 12  2  0  0  0  0
 15 14  1  0  0  0  0
 16 17  1  0  0  0  0
 18 16  1  0  0  0  0
 18 19  2  0  0  0  0
 19 20  1  0  0  0  0
 21 22  1  0  0  0  0
 21 19  1  0  0  0  0
 22 23  1  0  0  0  0
 23 25  1  0  0  0  0
 24 23  1  0  0  0  0
 26 23  1  0  0  0  0
 27 22  2  0  0  0  0
 28 27  1  0  0  0  0
 28 31  1  0  0  0  0
 29 28  1  0  0  0  0
 30 28  1  0  0  0  0
 31 33  1  0  0  0  0
 31 34  1  0  0  0  0
 32 31  1  0  0  0  0
 35 27  1  0  0  0  0
 35  2  2  0  0  0  0
 36 35  1  0  0  0  0
 37 36  1  0  0  0  0
 38 36  2  0  0  0  0
 38  3  1  0  0  0  0
 39 47  2  0  0  0  0
 39 38  1  0  0  0  0
 40 39  1  0  0  0  0
 40 43  1  0  0  0  0
 41 40  1  0  0  0  0
 42 40  1  0  0  0  0
 43 46  1  0  0  0  0
 43 45  1  0  0  0  0
 44 43  1  0  0  0  0
 47 55  1  0  0  0  0
 48 47  1  0  0  0  0
 48 51  1  0  0  0  0
 49 48  1  0  0  0  0
 50 48  1  0  0  0  0
 51 53  1  0  0  0  0
 51 54  1  0  0  0  0
 52 51  1  0  0  0  0
 55  3  1  0  0  0  0
 55 56  2  0  0  0  0
 56 58  1  0  0  0  0
 57 56  1  0  0  0  0
 58  4  2  0  0  0  0
 58 59  1  0  0  0  0
 59 67  2  0  0  0  0
 59 60  1  0  0  0  0
 60 63  1  0  0  0  0
 61 60  1  0  0  0  0
 62 60  1  0  0  0  0
 63 64  1  0  0  0  0
 63 66  1  0  0  0  0
 63 65  1  0  0  0  0
 67 68  1  0  0  0  0
 68 71  1  0  0  0  0
 69 68  1  0  0  0  0
 70 68  1  0  0  0  0
 72 67  1  0  0  0  0
 73 72  1  0  0  0  0
 73 74  1  0  0  0  0
M  END
