2,3,6,24
 OpenBabel05122313063D

 40 42  0  0  1  0  0  0  0  0999 V2000
   -1.0465   -1.7136   -1.1822 C   0  0  2  0  0  3  0  0  0  0  0  0
   -0.5239   -1.3389    0.0059 N   0  0  0  0  0  2  0  0  0  0  0  0
    0.4665    0.0720    2.1036 N   0  0  0  0  0  0  0  0  0  0  0  0
   -2.1963   -2.5104   -1.2085 C   0  0  0  0  0  0  0  0  0  0  0  0
   -2.6343   -2.8189   -2.1683 H   0  0  0  0  0  0  0  0  0  0  0  0
    0.4667    0.0532   -2.1042 N   0  0  0  0  0  0  0  0  0  0  0  0
   -2.7760   -2.8985    0.0126 C   0  0  0  0  0  0  0  0  0  0  0  0
   -3.6865   -3.5152    0.0152 H   0  0  0  0  0  0  0  0  0  0  0  0
   -2.1969   -2.4993    1.2303 C   0  0  0  0  0  0  0  0  0  0  0  0
   -2.6352   -2.7990    2.1926 H   0  0  0  0  0  0  0  0  0  0  0  0
   -1.0470   -1.7027    1.1972 C   0  0  0  0  0  0  0  0  0  0  0  0
   -0.1951   -1.2522    2.3547 C   0  0  0  0  0  0  0  0  0  0  0  0
    0.6320   -1.9902    2.4310 H   0  0  0  0  0  0  0  0  0  0  0  0
   -0.7530   -1.2423    3.3156 H   0  0  0  0  0  0  0  0  0  0  0  0
    1.7167    0.1678    2.8937 C   0  0  0  0  0  0  0  0  0  0  0  0
    1.5015    0.1177    3.9846 H   0  0  0  0  0  0  0  0  0  0  0  0
    2.2108    1.1212    2.6328 H   0  0  0  0  0  0  0  0  0  0  0  0
    2.3831   -0.6568    2.5767 H   0  0  0  0  0  0  0  0  0  0  0  0
   -0.4599    1.2310    2.4120 C   0  0  0  0  0  0  0  0  0  0  0  0
   -1.0273    1.0181    3.3453 H   0  0  0  0  0  0  0  0  0  0  0  0
    0.2076    2.0941    2.6124 H   0  0  0  0  0  0  0  0  0  0  0  0
   -1.3272    1.5630    1.2238 C   0  0  0  0  0  0  0  0  0  0  0  0
   -1.3274    1.5516   -1.2377 C   0  0  0  0  0  0  0  0  0  0  0  0
   -0.7213    1.2639   -0.0057 C   0  0  0  0  0  3  0  0  0  0  0  0
   -2.5872    2.1765   -1.2384 C   0  0  0  0  0  0  0  0  0  0  0  0
   -3.0947    2.4236   -2.1851 H   0  0  0  0  0  0  0  0  0  0  0  0
   -0.4605    1.2088   -2.4230 C   0  0  0  0  0  0  0  0  0  0  0  0
    0.2065    2.0703   -2.6319 H   0  0  0  0  0  0  0  0  0  0  0  0
   -1.0281    0.9869   -3.3540 H   0  0  0  0  0  0  0  0  0  0  0  0
   -2.5869    2.1878    1.2191 C   0  0  0  0  0  0  0  0  0  0  0  0
   -3.0943    2.4435    2.1636 H   0  0  0  0  0  0  0  0  0  0  0  0
   -3.2070    2.4866   -0.0110 C   0  0  0  0  0  0  0  0  0  0  0  0
   -4.1957    2.9695   -0.0131 H   0  0  0  0  0  0  0  0  0  0  0  0
    1.7169    0.1426   -2.8950 C   0  0  0  0  0  0  0  0  0  0  0  0
    1.5018    0.0828   -3.9855 H   0  0  0  0  0  0  0  0  0  0  0  0
    2.3836   -0.6788   -2.5706 H   0  0  0  0  0  0  0  0  0  0  0  0
    2.2105    1.0986   -2.6425 H   0  0  0  0  0  0  0  0  0  0  0  0
   -0.1940   -1.2736   -2.3433 C   0  0  0  0  0  0  0  0  0  0  0  0
   -0.7512   -1.2732   -3.3047 H   0  0  0  0  0  0  0  0  0  0  0  0
    0.6337   -2.0118   -2.4117 H   0  0  0  0  0  0  0  0  0  0  0  0
  1  4  1  1  0  0  0
  1  2  1  0  0  0  0
  2 11  1  0  0  0  0
  3 12  1  0  0  0  0
  3 19  1  0  0  0  0
  3 15  1  0  0  0  0
  4  7  2  0  0  0  0
  5  4  1  0  0  0  0
  7  8  1  0  0  0  0
  7  9  1  0  0  0  0
  9 10  1  0  0  0  0
 11  9  2  0  0  0  0
 11 12  1  0  0  0  0
 12 13  1  0  0  0  0
 12 14  1  0  0  0  0
 15 16  1  0  0  0  0
 17 15  1  0  0  0  0
 18 15  1  0  0  0  0
 19 21  1  0  0  0  0
 19 20  1  0  0  0  0
 22 19  1  0  0  0  0
 23 24  1  0  0  0  0
 24 22  2  0  0  0  0
 25 23  2  0  0  0  0
 25 32  1  0  0  0  0
 26 25  1  0  0  0  0
 27  6  1  0  0  0  0
 27 23  1  0  0  0  0
 28 27  1  0  0  0  0
 29 27  1  0  0  0  0
 30 22  1  0  0  0  0
 30 31  1  0  0  0  0
 32 30  2  0  0  0  0
 33 32  1  0  0  0  0
 34 37  1  0  0  0  0
 34 36  1  0  0  0  0
 34  6  1  0  0  0  0
 35 34  1  0  0  0  0
 38  6  1  0  0  0  0
 38  1  1  0  0  0  0
 39 38  1  0  0  0  0
 40 38  1  0  0  0  0
M  END
