1,2,3,32
 OpenBabel05122313063D

 77 79  0  0  1  0  0  0  0  0999 V2000
   -2.0849    0.5251   -0.2367 N   0  0  0  0  0  2  0  0  0  0  0  0
   -0.2253    2.0584    0.0397 N   0  0  0  0  0  2  0  0  0  0  0  0
    1.7076    0.5662    0.1724 N   0  0  0  0  0  2  0  0  0  0  0  0
   -3.8654    2.2307   -0.8068 C   0  0  0  0  0  0  0  0  0  0  0  0
   -3.7812    3.0781   -1.5161 H   0  0  0  0  0  0  0  0  0  0  0  0
   -4.5119    2.5691    0.0308 H   0  0  0  0  0  0  0  0  0  0  0  0
   -4.3915    1.4013   -1.3165 H   0  0  0  0  0  0  0  0  0  0  0  0
   -2.5026    1.8008   -0.3528 C   0  0  0  0  0  0  0  0  0  0  0  0
   -1.4262    2.7277   -0.1512 C   0  0  0  0  0  0  0  0  0  0  0  0
   -1.4528    4.1343   -0.1830 C   0  0  0  0  0  0  0  0  0  0  0  0
   -2.4108    4.6569   -0.3159 H   0  0  0  0  0  0  0  0  0  0  0  0
   -0.2525    4.8539   -0.0516 C   0  0  0  0  0  0  0  0  0  0  0  0
   -0.2643    5.9530   -0.0732 H   0  0  0  0  0  0  0  0  0  0  0  0
    0.9664    4.1649    0.0839 C   0  0  0  0  0  0  0  0  0  0  0  0
    1.9175    4.7119    0.1526 H   0  0  0  0  0  0  0  0  0  0  0  0
    0.9654    2.7597    0.1174 C   0  0  0  0  0  0  0  0  0  0  0  0
    2.0755    1.8595    0.2294 C   0  0  1  0  0  3  0  0  0  0  0  0
    3.4796    2.3548    0.4075 C   0  0  0  0  0  0  0  0  0  0  0  0
    4.1755    1.5271    0.6337 H   0  0  0  0  0  0  0  0  0  0  0  0
    3.5341    3.0947    1.2324 H   0  0  0  0  0  0  0  0  0  0  0  0
    3.8433    2.8676   -0.5082 H   0  0  0  0  0  0  0  0  0  0  0  0
   -2.8315   -0.6200   -0.5992 C   0  0  0  0  0  0  0  0  0  0  0  0
   -2.0769   -1.5255   -1.4049 C   0  0  0  0  0  0  0  0  0  0  0  0
   -2.6889   -2.7118   -1.8399 C   0  0  0  0  0  0  0  0  0  0  0  0
   -2.1241   -3.4221   -2.4605 H   0  0  0  0  0  0  0  0  0  0  0  0
   -4.0149   -2.9977   -1.4765 C   0  0  0  0  0  0  0  0  0  0  0  0
   -4.4955   -3.9205   -1.8355 H   0  0  0  0  0  0  0  0  0  0  0  0
   -4.7046   -2.1455   -0.6066 C   0  0  0  0  0  0  0  0  0  0  0  0
   -5.7071   -2.4320   -0.2539 H   0  0  0  0  0  0  0  0  0  0  0  0
   -4.1212   -0.9550   -0.1201 C   0  0  0  0  0  0  0  0  0  0  0  0
   -0.6264   -1.2244   -1.6180 C   0  0  2  0  0  3  0  0  0  0  0  0
   -0.2104    0.0564   -2.0898 C   0  0  0  0  0  3  0  0  0  0  0  0
   -0.9517    0.7635   -2.5009 H   0  0  0  0  0  0  0  0  0  0  0  0
    0.7954    0.1545   -2.5245 H   0  0  0  0  0  0  0  0  0  0  0  0
    0.2803   -2.4309   -1.7127 C   0  0  0  0  0  0  0  0  0  0  0  0
    0.0290   -3.1857   -0.9408 H   0  0  0  0  0  0  0  0  0  0  0  0
    0.1931   -2.9289   -2.7043 H   0  0  0  0  0  0  0  0  0  0  0  0
    1.3390   -2.1487   -1.5712 H   0  0  0  0  0  0  0  0  0  0  0  0
   -4.7650   -0.2213    1.0518 C   0  0  0  0  0  0  0  0  0  0  0  0
   -4.2166    0.7270    1.2070 H   0  0  0  0  0  0  0  0  0  0  0  0
   -4.5641   -1.0544    2.3340 C   0  0  0  0  0  0  0  0  0  0  0  0
   -5.0993   -2.0239    2.2663 H   0  0  0  0  0  0  0  0  0  0  0  0
   -3.4911   -1.2765    2.5007 H   0  0  0  0  0  0  0  0  0  0  0  0
   -4.9509   -0.5109    3.2209 H   0  0  0  0  0  0  0  0  0  0  0  0
   -6.2468    0.1125    0.8296 C   0  0  0  0  0  0  0  0  0  0  0  0
   -6.8618   -0.8063    0.7369 H   0  0  0  0  0  0  0  0  0  0  0  0
   -6.6498    0.6886    1.6873 H   0  0  0  0  0  0  0  0  0  0  0  0
   -6.4019    0.7116   -0.0897 H   0  0  0  0  0  0  0  0  0  0  0  0
    2.6888   -0.4681    0.2996 C   0  0  0  0  0  0  0  0  0  0  0  0
    3.4820   -0.8599   -0.8189 C   0  0  0  0  0  0  0  0  0  0  0  0
    4.3252   -1.9796   -0.6769 C   0  0  0  0  0  0  0  0  0  0  0  0
    4.9327   -2.3024   -1.5366 H   0  0  0  0  0  0  0  0  0  0  0  0
    4.4166   -2.6780    0.5306 C   0  0  0  0  0  0  0  0  0  0  0  0
    5.0733   -3.5571    0.6142 H   0  0  0  0  0  0  0  0  0  0  0  0
    3.6901   -2.2326    1.6419 C   0  0  0  0  0  0  0  0  0  0  0  0
    3.7974   -2.7557    2.6032 H   0  0  0  0  0  0  0  0  0  0  0  0
    2.8312   -1.1229    1.5595 C   0  0  0  0  0  0  0  0  0  0  0  0
    3.5296   -0.0708   -2.1285 C   0  0  0  0  0  0  0  0  0  0  0  0
    2.7685    0.7333   -2.0640 H   0  0  0  0  0  0  0  0  0  0  0  0
    4.9096    0.5956   -2.3059 C   0  0  0  0  0  0  0  0  0  0  0  0
    5.6991   -0.1696   -2.4556 H   0  0  0  0  0  0  0  0  0  0  0  0
    4.9125    1.2568   -3.1970 H   0  0  0  0  0  0  0  0  0  0  0  0
    5.1998    1.2006   -1.4270 H   0  0  0  0  0  0  0  0  0  0  0  0
    3.2177   -0.9186   -3.3743 C   0  0  0  0  0  0  0  0  0  0  0  0
    3.9629   -1.7298   -3.5061 H   0  0  0  0  0  0  0  0  0  0  0  0
    3.2531   -0.2877   -4.2858 H   0  0  0  0  0  0  0  0  0  0  0  0
    2.2184   -1.3880   -3.3253 H   0  0  0  0  0  0  0  0  0  0  0  0
    2.1567   -0.5763    2.8151 C   0  0  0  0  0  0  0  0  0  0  0  0
    1.2437   -0.0411    2.4838 H   0  0  0  0  0  0  0  0  0  0  0  0
    3.0698    0.4589    3.5024 C   0  0  0  0  0  0  0  0  0  0  0  0
    2.5719    0.8820    4.3992 H   0  0  0  0  0  0  0  0  0  0  0  0
    3.3259    1.2988    2.8305 H   0  0  0  0  0  0  0  0  0  0  0  0
    4.0201   -0.0126    3.8298 H   0  0  0  0  0  0  0  0  0  0  0  0
    1.7454   -1.6584    3.8221 C   0  0  0  0  0  0  0  0  0  0  0  0
    1.1401   -1.2085    4.6348 H   0  0  0  0  0  0  0  0  0  0  0  0
    2.6281   -2.1304    4.3023 H   0  0  0  0  0  0  0  0  0  0  0  0
    1.1396   -2.4537    3.3479 H   0  0  0  0  0  0  0  0  0  0  0  0
  2 16  1  0  0  0  0
  3 49  1  0  0  0  0
  4  8  1  0  0  0  0
  4  6  1  0  0  0  0
  5  4  1  0  0  0  0
  7  4  1  0  0  0  0
  8  1  1  0  0  0  0
  8  9  2  0  0  0  0
  9  2  1  0  0  0  0
 10  9  1  0  0  0  0
 10 12  2  0  0  0  0
 11 10  1  0  0  0  0
 12 14  1  0  0  0  0
 13 12  1  0  0  0  0
 14 16  2  0  0  0  0
 14 15  1  0  0  0  0
 16 17  1  0  0  0  0
 17  3  1  1  0  0  0
 17 18  1  0  0  0  0
 18 19  1  0  0  0  0
 18 20  1  0  0  0  0
 21 18  1  0  0  0  0
 22  1  1  0  0  0  0
 22 30  1  0  0  0  0
 23 22  2  0  0  0  0
 24 26  2  0  0  0  0
 24 23  1  0  0  0  0
 25 24  1  0  0  0  0
 26 28  1  0  0  0  0
 27 26  1  0  0  0  0
 28 29  1  0  0  0  0
 28 30  2  0  0  0  0
 30 39  1  0  0  0  0
 31 32  1  6  0  0  0
 31 23  1  0  0  0  0
 33 32  1  0  0  0  0
 34 32  1  0  0  0  0
 35 31  1  0  0  0  0
 35 38  1  0  0  0  0
 35 36  1  0  0  0  0
 37 35  1  0  0  0  0
 39 40  1  0  0  0  0
 39 41  1  0  0  0  0
 41 43  1  0  0  0  0
 41 44  1  0  0  0  0
 42 41  1  0  0  0  0
 45 39  1  0  0  0  0
 45 47  1  0  0  0  0
 46 45  1  0  0  0  0
 48 45  1  0  0  0  0
 49 57  1  0  0  0  0
 50 51  1  0  0  0  0
 50 49  2  0  0  0  0
 51 53  2  0  0  0  0
 52 51  1  0  0  0  0
 53 54  1  0  0  0  0
 53 55  1  0  0  0  0
 55 56  1  0  0  0  0
 57 55  2  0  0  0  0
 57 68  1  0  0  0  0
 58 59  1  0  0  0  0
 58 50  1  0  0  0  0
 60 58  1  0  0  0  0
 60 63  1  0  0  0  0
 61 60  1  0  0  0  0
 62 60  1  0  0  0  0
 64 67  1  0  0  0  0
 64 58  1  0  0  0  0
 65 64  1  0  0  0  0
 66 64  1  0  0  0  0
 68 70  1  0  0  0  0
 68 74  1  0  0  0  0
 69 68  1  0  0  0  0
 70 73  1  0  0  0  0
 70 71  1  0  0  0  0
 72 70  1  0  0  0  0
 74 76  1  0  0  0  0
 74 75  1  0  0  0  0
 77 74  1  0  0  0  0
M  END
