1,2,3,22
 OpenBabel05122313063D

 53 55  0  0  1  0  0  0  0  0999 V2000
   -0.2015   -1.0292   -1.7168 N   0  0  0  0  0  0  0  0  0  0  0  0
    0.9552    1.5816   -0.1612 N   0  0  0  0  0  2  0  0  0  0  0  0
   -2.0187    0.3017    0.5842 N   0  0  0  0  0  2  0  0  0  0  0  0
    1.6087    2.2287    0.8315 C   0  0  0  0  0  3  0  0  0  0  0  0
    2.4081    3.3530    0.6079 C   0  0  0  0  0  0  0  0  0  0  0  0
    2.5489    3.8210   -0.7059 C   0  0  0  0  0  0  0  0  0  0  0  0
    1.8755    3.1503   -1.7348 C   0  0  0  0  0  0  0  0  0  0  0  0
    1.0725    2.0343   -1.4376 C   0  0  0  0  0  0  0  0  0  0  0  0
    0.3014    1.3217   -2.5232 C   0  0  0  0  0  0  0  0  0  0  0  0
    0.5668   -0.1889   -2.6618 C   0  0  0  0  0  0  0  0  0  0  0  0
   -2.3494    1.3242    1.4040 C   0  0  0  0  0  3  0  0  0  0  0  0
   -3.6659    1.7547    1.5872 C   0  0  0  0  0  0  0  0  0  0  0  0
   -4.6849    1.1000    0.8802 C   0  0  0  0  0  0  0  0  0  0  0  0
   -4.3425    0.0441    0.0262 C   0  0  0  0  0  0  0  0  0  0  0  0
   -2.9966   -0.3448   -0.1035 C   0  0  0  0  0  0  0  0  0  0  0  0
   -2.5968   -1.4908   -1.0027 C   0  0  0  0  0  0  0  0  0  0  0  0
   -1.6174   -1.1336   -2.1356 C   0  0  0  0  0  0  0  0  0  0  0  0
    2.6643   -1.0501    1.1971 C   0  0  0  0  0  0  0  0  0  0  0  0
    2.6306   -0.5648    2.5069 C   0  0  0  0  0  0  0  0  0  0  0  0
    1.4487   -0.6681    3.2714 C   0  0  0  0  0  0  0  0  0  0  0  0
    0.3214   -1.2888    2.7242 C   0  0  0  0  0  0  0  0  0  0  0  0
    0.3572   -1.8333    1.4104 C   0  0  0  0  0  3  0  0  0  0  0  0
    1.5366   -1.6879    0.6133 C   0  0  2  0  0  3  0  0  0  0  0  0
    1.6884   -2.3928   -0.7303 C   0  0  1  0  0  0  0  0  0  0  0  0
    2.1671   -3.8434   -0.5401 C   0  0  0  0  0  0  0  0  0  0  0  0
    0.4026   -2.3717   -1.5696 C   0  0  0  0  0  0  0  0  0  0  0  0
    1.4855    1.8131    1.8432 H   0  0  0  0  0  0  0  0  0  0  0  0
    2.9097    3.8468    1.4521 H   0  0  0  0  0  0  0  0  0  0  0  0
    3.1737    4.6989   -0.9279 H   0  0  0  0  0  0  0  0  0  0  0  0
    1.9622    3.4914   -2.7766 H   0  0  0  0  0  0  0  0  0  0  0  0
    0.5398    1.8040   -3.4906 H   0  0  0  0  0  0  0  0  0  0  0  0
   -0.7850    1.4971   -2.3613 H   0  0  0  0  0  0  0  0  0  0  0  0
    1.6444   -0.3831   -2.4982 H   0  0  0  0  0  0  0  0  0  0  0  0
    0.3453   -0.5050   -3.7091 H   0  0  0  0  0  0  0  0  0  0  0  0
   -1.5141    1.8086    1.9348 H   0  0  0  0  0  0  0  0  0  0  0  0
   -3.8832    2.5868    2.2717 H   0  0  0  0  0  0  0  0  0  0  0  0
   -5.7353    1.4071    0.9935 H   0  0  0  0  0  0  0  0  0  0  0  0
   -5.1175   -0.4916   -0.5411 H   0  0  0  0  0  0  0  0  0  0  0  0
   -3.5130   -1.9081   -1.4632 H   0  0  0  0  0  0  0  0  0  0  0  0
   -2.1734   -2.3115   -0.3843 H   0  0  0  0  0  0  0  0  0  0  0  0
   -1.7091   -1.8876   -2.9527 H   0  0  0  0  0  0  0  0  0  0  0  0
   -1.9252   -0.1645   -2.5756 H   0  0  0  0  0  0  0  0  0  0  0  0
    3.5845   -0.9537    0.5995 H   0  0  0  0  0  0  0  0  0  0  0  0
    3.5278   -0.0977    2.9397 H   0  0  0  0  0  0  0  0  0  0  0  0
    1.4176   -0.2784    4.2997 H   0  0  0  0  0  0  0  0  0  0  0  0
   -0.5927   -1.4049    3.3258 H   0  0  0  0  0  0  0  0  0  0  0  0
   -0.4525   -2.5093    1.0947 H   0  0  0  0  0  0  0  0  0  0  0  0
    2.4838   -1.8516   -1.2875 H   0  0  0  0  0  0  0  0  0  0  0  0
    3.1250   -3.8722    0.0133 H   0  0  0  0  0  0  0  0  0  0  0  0
    1.4264   -4.4315    0.0395 H   0  0  0  0  0  0  0  0  0  0  0  0
    2.3193   -4.3462   -1.5164 H   0  0  0  0  0  0  0  0  0  0  0  0
    0.5984   -2.8225   -2.5719 H   0  0  0  0  0  0  0  0  0  0  0  0
   -0.3498   -3.0283   -1.0869 H   0  0  0  0  0  0  0  0  0  0  0  0
  1 26  1  0  0  0  0
  2  4  1  0  0  0  0
  3 11  1  0  0  0  0
  4 27  1  0  0  0  0
  5  4  1  0  0  0  0
  5 28  1  0  0  0  0
  6  5  2  0  0  0  0
  7  8  2  0  0  0  0
  7  6  1  0  0  0  0
  8  2  1  0  0  0  0
  9 32  1  0  0  0  0
  9  8  1  0  0  0  0
 10  9  1  0  0  0  0
 10 33  1  0  0  0  0
 10  1  1  0  0  0  0
 11 12  1  0  0  0  0
 11 35  1  0  0  0  0
 12 36  1  0  0  0  0
 13 37  1  0  0  0  0
 13 12  2  0  0  0  0
 14 13  1  0  0  0  0
 15 14  2  0  0  0  0
 15  3  1  0  0  0  0
 16 40  1  0  0  0  0
 16 15  1  0  0  0  0
 17  1  1  0  0  0  0
 17 16  1  0  0  0  0
 18 19  2  0  0  0  0
 19 44  1  0  0  0  0
 19 20  1  0  0  0  0
 20 45  1  0  0  0  0
 21 20  2  0  0  0  0
 21 46  1  0  0  0  0
 22 21  1  0  0  0  0
 23 24  1  1  0  0  0
 23 18  1  0  0  0  0
 23 22  1  0  0  0  0
 24 48  1  6  0  0  0
 24 25  1  0  0  0  0
 25 49  1  0  0  0  0
 25 50  1  0  0  0  0
 26 53  1  0  0  0  0
 26 24  1  0  0  0  0
 29  6  1  0  0  0  0
 30  7  1  0  0  0  0
 31  9  1  0  0  0  0
 34 10  1  0  0  0  0
 38 14  1  0  0  0  0
 39 16  1  0  0  0  0
 41 17  1  0  0  0  0
 42 17  1  0  0  0  0
 43 18  1  0  0  0  0
 47 22  1  0  0  0  0
 51 25  1  0  0  0  0
 52 26  1  0  0  0  0
M  END
