1,2,3,5
 OpenBabel05122313063D

 50 53  0  0  1  0  0  0  0  0999 V2000
    2.1156    1.1664    0.0362 N   0  0  0  0  0  2  0  0  0  0  0  0
   -1.2710   -0.9236   -0.6788 N   0  0  0  0  0  2  0  0  0  0  0  0
    1.2132   -1.6526   -0.1258 N   0  0  0  0  0  2  0  0  0  0  0  0
    2.4428   -1.9401    0.1061 N   0  0  0  0  0  0  0  0  0  0  0  0
   -0.3313    2.1353   -0.3332 C   0  0  0  0  0  2  0  0  0  0  0  0
   -1.6176    2.6991   -0.3306 C   0  0  0  0  0  0  0  0  0  0  0  0
   -2.5082    2.0623   -0.2277 H   0  0  0  0  0  0  0  0  0  0  0  0
   -1.8063    4.0945   -0.4339 C   0  0  0  0  0  0  0  0  0  0  0  0
   -2.8315    4.4980   -0.4280 H   0  0  0  0  0  0  0  0  0  0  0  0
   -0.7168    4.9758   -0.5433 C   0  0  0  0  0  0  0  0  0  0  0  0
   -0.8833    6.0590   -0.6369 H   0  0  0  0  0  0  0  0  0  0  0  0
    0.5831    4.4571   -0.5107 C   0  0  0  0  0  0  0  0  0  0  0  0
    1.4563    5.1270   -0.5673 H   0  0  0  0  0  0  0  0  0  0  0  0
    0.7679    3.0620   -0.3842 C   0  0  0  0  0  0  0  0  0  0  0  0
    2.0642    2.4665   -0.2049 C   0  0  0  0  0  0  0  0  0  0  0  0
    2.9839    3.0745   -0.2397 H   0  0  0  0  0  0  0  0  0  0  0  0
    3.3132    0.4839    0.3530 C   0  0  1  0  0  3  0  0  0  0  0  0
    4.4605    1.2149    0.7398 C   0  0  0  0  0  0  0  0  0  0  0  0
    4.3881    2.3057    0.8452 H   0  0  0  0  0  0  0  0  0  0  0  0
    5.6854    0.6052    1.0232 C   0  0  0  0  0  0  0  0  0  0  0  0
    6.5456    1.2241    1.3180 H   0  0  0  0  0  0  0  0  0  0  0  0
    5.7965   -0.7934    0.9440 C   0  0  0  0  0  0  0  0  0  0  0  0
    6.7510   -1.2949    1.1609 H   0  0  0  0  0  0  0  0  0  0  0  0
    4.6714   -1.5433    0.6136 C   0  0  0  0  0  0  0  0  0  0  0  0
    4.7083   -2.6407    0.5714 H   0  0  0  0  0  0  0  0  0  0  0  0
    3.4021   -0.9607    0.3314 C   0  0  0  0  0  0  0  0  0  0  0  0
    0.3058   -2.6886   -0.2877 C   0  0  0  0  0  0  0  0  0  0  0  0
    0.6408   -4.0614   -0.1934 C   0  0  0  0  0  0  0  0  0  0  0  0
    1.6870   -4.3199    0.0176 H   0  0  0  0  0  0  0  0  0  0  0  0
   -0.3447   -5.0239   -0.3595 C   0  0  0  0  0  0  0  0  0  0  0  0
   -0.0984   -6.0927   -0.2819 H   0  0  0  0  0  0  0  0  0  0  0  0
   -1.6848   -4.6183   -0.6158 C   0  0  0  0  0  0  0  0  0  0  0  0
   -2.4676   -5.3849   -0.7259 H   0  0  0  0  0  0  0  0  0  0  0  0
   -2.0383   -3.2797   -0.7162 C   0  0  0  0  0  0  0  0  0  0  0  0
   -3.0875   -3.0028   -0.8818 H   0  0  0  0  0  0  0  0  0  0  0  0
   -1.0467   -2.2543   -0.5687 C   0  0  0  0  0  0  0  0  0  0  0  0
   -2.5649   -0.4438   -1.1081 C   0  0  0  0  0  0  0  0  0  0  0  0
   -3.0030   -1.1439   -1.8549 H   0  0  0  0  0  0  0  0  0  0  0  0
   -2.4080    0.5072   -1.6584 H   0  0  0  0  0  0  0  0  0  0  0  0
   -3.5786   -0.2055    0.0024 C   0  0  0  0  0  0  0  0  0  0  0  0
   -3.2441   -0.3768    1.3574 C   0  0  0  0  0  0  0  0  0  0  0  0
   -2.2266   -0.7041    1.6174 H   0  0  0  0  0  0  0  0  0  0  0  0
   -4.1915   -0.1227    2.3624 C   0  0  0  0  0  0  0  0  0  0  0  0
   -3.9137   -0.2602    3.4187 H   0  0  0  0  0  0  0  0  0  0  0  0
   -5.4839    0.3058    2.0258 C   0  0  0  0  0  0  0  0  0  0  0  0
   -6.2258    0.5046    2.8141 H   0  0  0  0  0  0  0  0  0  0  0  0
   -5.8261    0.4796    0.6739 C   0  0  0  0  0  0  0  0  0  0  0  0
   -6.8384    0.8143    0.3994 H   0  0  0  0  0  0  0  0  0  0  0  0
   -4.8798    0.2258   -0.3284 C   0  0  0  0  0  0  0  0  0  0  0  0
   -5.1523    0.3652   -1.3876 H   0  0  0  0  0  0  0  0  0  0  0  0
  2 36  1  0  0  0  0
  3  4  1  0  0  0  0
  4 26  2  0  0  0  0
  5  6  1  0  0  0  0
  6  7  1  0  0  0  0
  8  9  1  0  0  0  0
  8  6  2  0  0  0  0
 10 12  2  0  0  0  0
 10  8  1  0  0  0  0
 11 10  1  0  0  0  0
 12 14  1  0  0  0  0
 13 12  1  0  0  0  0
 14  5  1  0  0  0  0
 14 15  2  0  0  0  0
 15  1  1  0  0  0  0
 16 15  1  0  0  0  0
 17  1  1  1  0  0  0
 17 18  1  0  0  0  0
 18 19  1  0  0  0  0
 18 20  2  0  0  0  0
 20 21  1  0  0  0  0
 22 20  1  0  0  0  0
 22 23  1  0  0  0  0
 24 22  2  0  0  0  0
 25 24  1  0  0  0  0
 26 17  1  0  0  0  0
 26 24  1  0  0  0  0
 27 28  1  0  0  0  0
 27  3  1  0  0  0  0
 28 29  1  0  0  0  0
 30 31  1  0  0  0  0
 30 28  2  0  0  0  0
 32 30  1  0  0  0  0
 33 32  1  0  0  0  0
 34 32  2  0  0  0  0
 34 36  1  0  0  0  0
 35 34  1  0  0  0  0
 36 27  2  0  0  0  0
 37  2  1  0  0  0  0
 37 40  1  0  0  0  0
 38 37  1  0  0  0  0
 39 37  1  0  0  0  0
 40 41  1  0  0  0  0
 41 42  1  0  0  0  0
 41 43  2  0  0  0  0
 43 44  1  0  0  0  0
 45 43  1  0  0  0  0
 45 46  1  0  0  0  0
 47 45  2  0  0  0  0
 48 47  1  0  0  0  0
 49 40  2  0  0  0  0
 49 47  1  0  0  0  0
 50 49  1  0  0  0  0
M  END
