1,2,3,21
 OpenBabel05122313063D

 50 52  0  0  1  0  0  0  0  0999 V2000
    0.3995   -0.5002    1.7647 N   0  0  0  0  0  0  0  0  0  0  0  0
    2.0729    0.0365   -0.4090 N   0  0  0  0  0  2  0  0  0  0  0  0
   -1.1914   -1.1738   -0.4856 N   0  0  0  0  0  2  0  0  0  0  0  0
    2.0418    0.3732   -2.8207 C   0  0  0  0  0  0  0  0  0  0  0  0
    2.7855    0.0266   -1.5642 C   0  0  2  0  0  3  0  0  0  0  0  0
    4.1477   -0.3224   -1.5663 C   0  0  0  0  0  0  0  0  0  0  0  0
    4.7673   -0.6882   -0.3654 C   0  0  0  0  0  0  0  0  0  0  0  0
    4.0120   -0.6979    0.8149 C   0  0  0  0  0  0  0  0  0  0  0  0
    2.6639   -0.3181    0.7585 C   0  0  0  0  0  0  0  0  0  0  0  0
    1.8164   -0.2386    2.0181 C   0  0  0  0  0  0  0  0  0  0  0  0
   -2.2032   -0.3560   -2.5617 C   0  0  0  0  0  0  0  0  0  0  0  0
   -2.1653   -1.3251   -1.4174 C   0  0  1  0  0  3  0  0  0  0  0  0
   -3.1056   -2.3695   -1.3106 C   0  0  0  0  0  0  0  0  0  0  0  0
   -3.0352   -3.2595   -0.2364 C   0  0  0  0  0  0  0  0  0  0  0  0
   -2.0045   -3.1072    0.7046 C   0  0  0  0  0  0  0  0  0  0  0  0
   -1.0921   -2.0603    0.5425 C   0  0  0  0  0  0  0  0  0  0  0  0
    0.1173   -1.9052    1.4453 C   0  0  0  0  0  0  0  0  0  0  0  0
   -0.5110    0.0389    2.7863 C   0  0  0  0  0  0  0  0  0  0  0  0
   -0.6545    1.5714    2.7266 C   0  0  0  0  0  0  0  0  0  0  0  0
   -1.0994    2.0441    1.3635 C   0  0  1  0  0  3  0  0  0  0  0  0
   -0.1271    2.4027    0.3799 C   0  0  0  0  0  3  0  0  0  0  0  0
   -0.5513    2.7471   -0.9328 C   0  0  0  0  0  0  0  0  0  0  0  0
   -1.9238    2.8012   -1.2437 C   0  0  0  0  0  0  0  0  0  0  0  0
   -2.8772    2.4957   -0.2612 C   0  0  0  0  0  0  0  0  0  0  0  0
   -2.4647    2.0956    1.0209 C   0  0  0  0  0  0  0  0  0  0  0  0
    2.7218    0.5097   -3.6812 H   0  0  0  0  0  0  0  0  0  0  0  0
    1.4497    1.2993   -2.6785 H   0  0  0  0  0  0  0  0  0  0  0  0
    1.3231   -0.4353   -3.0732 H   0  0  0  0  0  0  0  0  0  0  0  0
    4.7093   -0.3142   -2.5113 H   0  0  0  0  0  0  0  0  0  0  0  0
    5.8298   -0.9728   -0.3500 H   0  0  0  0  0  0  0  0  0  0  0  0
    4.4606   -0.9931    1.7747 H   0  0  0  0  0  0  0  0  0  0  0  0
    1.9042    0.7919    2.4235 H   0  0  0  0  0  0  0  0  0  0  0  0
    2.2436   -0.9121    2.7989 H   0  0  0  0  0  0  0  0  0  0  0  0
   -1.2495    0.2014   -2.6259 H   0  0  0  0  0  0  0  0  0  0  0  0
   -3.0143    0.3873   -2.4220 H   0  0  0  0  0  0  0  0  0  0  0  0
   -2.3929   -0.8776   -3.5202 H   0  0  0  0  0  0  0  0  0  0  0  0
   -3.8877   -2.4714   -2.0767 H   0  0  0  0  0  0  0  0  0  0  0  0
   -3.7696   -4.0720   -0.1336 H   0  0  0  0  0  0  0  0  0  0  0  0
   -1.9006   -3.7995    1.5526 H   0  0  0  0  0  0  0  0  0  0  0  0
   -0.0021   -2.5318    2.3596 H   0  0  0  0  0  0  0  0  0  0  0  0
    0.9953   -2.3117    0.8973 H   0  0  0  0  0  0  0  0  0  0  0  0
   -0.2016   -0.2810    3.8102 H   0  0  0  0  0  0  0  0  0  0  0  0
   -1.5068   -0.4123    2.5972 H   0  0  0  0  0  0  0  0  0  0  0  0
   -1.3898    1.8684    3.5010 H   0  0  0  0  0  0  0  0  0  0  0  0
    0.3015    2.0620    3.0059 H   0  0  0  0  0  0  0  0  0  0  0  0
    0.9169    2.5841    0.6830 H   0  0  0  0  0  0  0  0  0  0  0  0
    0.1925    3.0785   -1.6735 H   0  0  0  0  0  0  0  0  0  0  0  0
   -2.2429    3.1093   -2.2503 H   0  0  0  0  0  0  0  0  0  0  0  0
   -3.9503    2.5648   -0.4934 H   0  0  0  0  0  0  0  0  0  0  0  0
   -3.2185    1.8377    1.7814 H   0  0  0  0  0  0  0  0  0  0  0  0
  1 10  1  0  0  0  0
  1 18  1  0  0  0  0
  2  9  1  0  0  0  0
  3 16  1  0  0  0  0
  4 27  1  0  0  0  0
  5  4  1  6  0  0  0
  5  2  1  0  0  0  0
  6  5  1  0  0  0  0
  6  7  2  0  0  0  0
  7 30  1  0  0  0  0
  7  8  1  0  0  0  0
  8 31  1  0  0  0  0
  9  8  2  0  0  0  0
  9 10  1  0  0  0  0
 10 32  1  0  0  0  0
 10 33  1  0  0  0  0
 11 35  1  0  0  0  0
 12 11  1  6  0  0  0
 12 13  1  0  0  0  0
 12  3  1  0  0  0  0
 13 14  2  0  0  0  0
 14 38  1  0  0  0  0
 14 15  1  0  0  0  0
 15 39  1  0  0  0  0
 16 15  2  0  0  0  0
 16 17  1  0  0  0  0
 17  1  1  0  0  0  0
 17 40  1  0  0  0  0
 18 42  1  0  0  0  0
 19 18  1  0  0  0  0
 19 45  1  0  0  0  0
 19 44  1  0  0  0  0
 20 19  1  6  0  0  0
 21 46  1  0  0  0  0
 21 20  1  0  0  0  0
 22 21  1  0  0  0  0
 23 22  2  0  0  0  0
 23 24  1  0  0  0  0
 24 25  2  0  0  0  0
 25 20  1  0  0  0  0
 25 50  1  0  0  0  0
 26  4  1  0  0  0  0
 28  4  1  0  0  0  0
 29  6  1  0  0  0  0
 34 11  1  0  0  0  0
 36 11  1  0  0  0  0
 37 13  1  0  0  0  0
 41 17  1  0  0  0  0
 43 18  1  0  0  0  0
 47 22  1  0  0  0  0
 48 23  1  0  0  0  0
 49 24  1  0  0  0  0
M  END
