4,6,8,10
 OpenBabel05122313063D

 73 78  0  0  1  0  0  0  0  0999 V2000
   -1.5959   -0.6909   -2.2957 S   0  0  0  0  0  0  0  0  0  0  0  0
    0.2014    1.7140   -2.2982 S   0  0  0  0  0  0  0  0  0  0  0  0
    1.3852   -1.0452   -2.2965 S   0  0  0  0  0  0  0  0  0  0  0  0
   -1.8263   -0.7867    0.4613 N   0  0  0  0  0  2  0  0  0  0  0  0
   -3.6257   -1.5531   -0.6394 N   0  0  0  0  0  0  0  0  0  0  0  0
    0.2320    1.9651    0.4584 N   0  0  0  0  0  2  0  0  0  0  0  0
    0.4631    3.9058   -0.6447 N   0  0  0  0  0  0  0  0  0  0  0  0
    1.5912   -1.1888    0.4604 N   0  0  0  0  0  2  0  0  0  0  0  0
    3.1625   -2.3525   -0.6412 N   0  0  0  0  0  0  0  0  0  0  0  0
   -0.0030   -0.0070   -1.7644 C   0  0  0  0  0  3  0  0  0  0  0  0
   -2.3709   -1.0194   -0.7421 C   0  0  1  0  0  3  0  0  0  0  0  0
   -2.7634   -1.1845    1.4092 C   0  0  0  0  0  0  0  0  0  0  0  0
   -2.7062   -1.1589    2.8113 C   0  0  0  0  0  0  0  0  0  0  0  0
   -1.8150   -0.7791    3.3326 H   0  0  0  0  0  0  0  0  0  0  0  0
   -3.8210   -1.6330    3.5135 C   0  0  0  0  0  0  0  0  0  0  0  0
   -3.8110   -1.6278    4.6131 H   0  0  0  0  0  0  0  0  0  0  0  0
   -4.9614   -2.1194    2.8347 C   0  0  0  0  0  0  0  0  0  0  0  0
   -5.8193   -2.4843    3.4179 H   0  0  0  0  0  0  0  0  0  0  0  0
   -5.0304   -2.1500    1.4345 C   0  0  0  0  0  0  0  0  0  0  0  0
   -5.9251   -2.5319    0.9268 H   0  0  0  0  0  0  0  0  0  0  0  0
   -3.9130   -1.6745    0.7288 C   0  0  0  0  0  0  0  0  0  0  0  0
   -4.4858   -1.9200   -1.7854 C   0  0  0  0  0  0  0  0  0  0  0  0
   -3.8800   -1.6609   -2.6799 H   0  0  0  0  0  0  0  0  0  0  0  0
   -5.7551   -1.0650   -1.8155 C   0  0  0  0  0  0  0  0  0  0  0  0
   -6.3297   -1.2861   -2.7358 H   0  0  0  0  0  0  0  0  0  0  0  0
   -5.5068    0.0141   -1.8144 H   0  0  0  0  0  0  0  0  0  0  0  0
   -6.4139   -1.2700   -0.9495 H   0  0  0  0  0  0  0  0  0  0  0  0
   -4.7457   -3.4282   -1.8156 C   0  0  0  0  0  0  0  0  0  0  0  0
   -5.3042   -3.6904   -2.7350 H   0  0  0  0  0  0  0  0  0  0  0  0
   -5.3479   -3.7624   -0.9485 H   0  0  0  0  0  0  0  0  0  0  0  0
   -3.7944   -3.9948   -1.8159 H   0  0  0  0  0  0  0  0  0  0  0  0
    0.3017    2.5516   -0.7457 C   0  0  2  0  0  3  0  0  0  0  0  0
    0.3527    2.9771    1.4050 C   0  0  0  0  0  0  0  0  0  0  0  0
    0.3456    2.9165    2.8073 C   0  0  0  0  0  0  0  0  0  0  0  0
    0.2315    1.9551    3.3296 H   0  0  0  0  0  0  0  0  0  0  0  0
    0.4886    4.1203    3.5080 C   0  0  0  0  0  0  0  0  0  0  0  0
    0.4875    4.1104    4.6076 H   0  0  0  0  0  0  0  0  0  0  0  0
    0.6346    5.3506    2.8277 C   0  0  0  0  0  0  0  0  0  0  0  0
    0.7447    6.2771    3.4098 H   0  0  0  0  0  0  0  0  0  0  0  0
    0.6433    5.4239    1.4275 C   0  0  0  0  0  0  0  0  0  0  0  0
    0.7580    6.3894    0.9187 H   0  0  0  0  0  0  0  0  0  0  0  0
    0.5000    4.2172    0.7231 C   0  0  0  0  0  0  0  0  0  0  0  0
    0.5731    4.8330   -1.7918 C   0  0  0  0  0  0  0  0  0  0  0  0
    0.4962    4.1777   -2.6855 H   0  0  0  0  0  0  0  0  0  0  0  0
    1.9467    5.5079   -1.8226 C   0  0  0  0  0  0  0  0  0  0  0  0
    2.0412    6.1154   -2.7435 H   0  0  0  0  0  0  0  0  0  0  0  0
    2.7587    4.7550   -1.8207 H   0  0  0  0  0  0  0  0  0  0  0  0
    2.0970    6.1821   -0.9572 H   0  0  0  0  0  0  0  0  0  0  0  0
   -0.6054    5.8093   -1.8233 C   0  0  0  0  0  0  0  0  0  0  0  0
   -0.5549    6.4227   -2.7437 H   0  0  0  0  0  0  0  0  0  0  0  0
   -0.5952    6.4994   -0.9573 H   0  0  0  0  0  0  0  0  0  0  0  0
   -1.5705    5.2664   -1.8226 H   0  0  0  0  0  0  0  0  0  0  0  0
    2.0652   -1.5427   -0.7433 C   0  0  2  0  0  3  0  0  0  0  0  0
    2.4124   -1.7912    1.4078 C   0  0  0  0  0  0  0  0  0  0  0  0
    2.3649   -1.7510    2.8100 C   0  0  0  0  0  0  0  0  0  0  0  0
    1.5868   -1.1745    3.3318 H   0  0  0  0  0  0  0  0  0  0  0  0
    3.3409   -2.4691    3.5116 C   0  0  0  0  0  0  0  0  0  0  0  0
    3.3342   -2.4602    4.6112 H   0  0  0  0  0  0  0  0  0  0  0  0
    4.3367   -3.2072    2.8323 C   0  0  0  0  0  0  0  0  0  0  0  0
    5.0878   -3.7599    3.4150 H   0  0  0  0  0  0  0  0  0  0  0  0
    4.3945   -3.2550    1.4321 C   0  0  0  0  0  0  0  0  0  0  0  0
    5.1759   -3.8342    0.9240 H   0  0  0  0  0  0  0  0  0  0  0  0
    3.4163   -2.5349    0.7269 C   0  0  0  0  0  0  0  0  0  0  0  0
    3.9125   -2.9101   -1.7876 C   0  0  0  0  0  0  0  0  0  0  0  0
    3.3813   -2.5199   -2.6818 H   0  0  0  0  0  0  0  0  0  0  0  0
    3.8179   -4.4375   -1.8152 C   0  0  0  0  0  0  0  0  0  0  0  0
    4.2991   -4.8227   -2.7350 H   0  0  0  0  0  0  0  0  0  0  0  0
    2.7616   -4.7698   -1.8128 H   0  0  0  0  0  0  0  0  0  0  0  0
    4.3288   -4.9001   -0.9485 H   0  0  0  0  0  0  0  0  0  0  0  0
    5.3446   -2.3705   -1.8210 C   0  0  0  0  0  0  0  0  0  0  0  0
    5.8515   -2.7196   -2.7414 H   0  0  0  0  0  0  0  0  0  0  0  0
    5.9398   -2.7203   -0.9552 H   0  0  0  0  0  0  0  0  0  0  0  0
    5.3515   -1.2632   -1.8217 H   0  0  0  0  0  0  0  0  0  0  0  0
  1 10  1  0  0  0  0
  2 10  1  0  0  0  0
  3 10  1  0  0  0  0
  4 12  1  0  0  0  0
  5 21  1  0  0  0  0
  6 33  1  0  0  0  0
  7 42  1  0  0  0  0
  8 54  1  0  0  0  0
  9 63  1  0  0  0  0
 11  1  1  6  0  0  0
 11  5  1  0  0  0  0
 11  4  1  0  0  0  0
 12 13  1  0  0  0  0
 13 14  1  0  0  0  0
 13 15  2  0  0  0  0
 15 16  1  0  0  0  0
 17 18  1  0  0  0  0
 17 15  1  0  0  0  0
 19 17  2  0  0  0  0
 20 19  1  0  0  0  0
 21 12  2  0  0  0  0
 21 19  1  0  0  0  0
 22  5  1  0  0  0  0
 23 22  1  0  0  0  0
 24 26  1  0  0  0  0
 24 22  1  0  0  0  0
 24 27  1  0  0  0  0
 25 24  1  0  0  0  0
 28 22  1  0  0  0  0
 28 30  1  0  0  0  0
 29 28  1  0  0  0  0
 31 28  1  0  0  0  0
 32  2  1  1  0  0  0
 32  7  1  0  0  0  0
 32  6  1  0  0  0  0
 33 34  1  0  0  0  0
 34 35  1  0  0  0  0
 34 36  2  0  0  0  0
 36 37  1  0  0  0  0
 38 39  1  0  0  0  0
 38 36  1  0  0  0  0
 40 38  2  0  0  0  0
 41 40  1  0  0  0  0
 42 33  2  0  0  0  0
 42 40  1  0  0  0  0
 43  7  1  0  0  0  0
 44 43  1  0  0  0  0
 45 47  1  0  0  0  0
 45 43  1  0  0  0  0
 45 48  1  0  0  0  0
 46 45  1  0  0  0  0
 49 52  1  0  0  0  0
 49 43  1  0  0  0  0
 49 51  1  0  0  0  0
 50 49  1  0  0  0  0
 53  3  1  6  0  0  0
 53  9  1  0  0  0  0
 53  8  1  0  0  0  0
 54 55  1  0  0  0  0
 55 56  1  0  0  0  0
 55 57  2  0  0  0  0
 57 58  1  0  0  0  0
 59 60  1  0  0  0  0
 59 57  1  0  0  0  0
 61 59  2  0  0  0  0
 62 61  1  0  0  0  0
 63 54  2  0  0  0  0
 63 61  1  0  0  0  0
 64  9  1  0  0  0  0
 65 64  1  0  0  0  0
 66 68  1  0  0  0  0
 66 64  1  0  0  0  0
 66 69  1  0  0  0  0
 67 66  1  0  0  0  0
 70 64  1  0  0  0  0
 70 72  1  0  0  0  0
 71 70  1  0  0  0  0
 73 70  1  0  0  0  0
M  END
