1,3,7,28
 OpenBabel05122313063D

 34 36  0  0  1  0  0  0  0  0999 V2000
   -0.0133   -2.1530   -0.2048 N   0  0  0  0  0  2  0  0  0  0  0  0
    0.2424   -3.0584    0.7549 C   0  0  2  0  0  3  0  0  0  0  0  0
   -0.0022   -0.0729   -1.7363 N   0  0  0  0  0  0  0  0  0  0  0  0
   -0.5516    0.7728   -1.9804 H   0  0  0  0  0  0  0  0  0  0  0  0
    0.4034   -4.4098    0.4182 C   0  0  0  0  0  0  0  0  0  0  0  0
    0.6205   -5.1583    1.1936 H   0  0  0  0  0  0  0  0  0  0  0  0
    0.2183   -0.9785    2.1425 N   0  0  0  0  0  0  0  0  0  0  0  0
   -0.5286   -0.6728    2.7799 H   0  0  0  0  0  0  0  0  0  0  0  0
    0.2756   -4.7827   -0.9297 C   0  0  0  0  0  0  0  0  0  0  0  0
    0.4078   -5.8349   -1.2211 H   0  0  0  0  0  0  0  0  0  0  0  0
   -0.0322   -3.8184   -1.9071 C   0  0  0  0  0  0  0  0  0  0  0  0
   -0.1558   -4.0998   -2.9625 H   0  0  0  0  0  0  0  0  0  0  0  0
   -0.1792   -2.4881   -1.5031 C   0  0  0  0  0  0  0  0  0  0  0  0
   -0.5928   -1.2979   -2.3353 C   0  0  0  0  0  0  0  0  0  0  0  0
   -0.3211   -1.4119   -3.4056 H   0  0  0  0  0  0  0  0  0  0  0  0
   -1.6978   -1.2033   -2.2748 H   0  0  0  0  0  0  0  0  0  0  0  0
    1.4225    0.1827   -2.1843 C   0  0  0  0  0  0  0  0  0  0  0  0
    1.6865   -0.5442   -2.9810 H   0  0  0  0  0  0  0  0  0  0  0  0
    1.4490    1.1893   -2.6494 H   0  0  0  0  0  0  0  0  0  0  0  0
    2.3499    0.0883   -1.0026 C   0  0  0  0  0  0  0  0  0  0  0  0
    3.7513    0.2093   -1.0197 C   0  0  0  0  0  0  0  0  0  0  0  0
    4.2892    0.3778   -1.9663 H   0  0  0  0  0  0  0  0  0  0  0  0
    4.4735    0.1099    0.1852 C   0  0  0  0  0  0  0  0  0  0  0  0
    5.5696    0.1985    0.1667 H   0  0  0  0  0  0  0  0  0  0  0  0
    3.8170   -0.1077    1.4118 C   0  0  0  0  0  0  0  0  0  0  0  0
    4.4010   -0.1830    2.3426 H   0  0  0  0  0  0  0  0  0  0  0  0
    2.4167   -0.2215    1.4287 C   0  0  0  0  0  0  0  0  0  0  0  0
    1.7071   -0.1183    0.2242 C   0  0  0  0  0  3  0  0  0  0  0  0
    1.5142   -0.3735    2.6208 C   0  0  0  0  0  0  0  0  0  0  0  0
    1.9449   -0.9787    3.4474 H   0  0  0  0  0  0  0  0  0  0  0  0
    1.2648    0.6226    3.0446 H   0  0  0  0  0  0  0  0  0  0  0  0
    0.2274   -2.4816    2.1499 C   0  0  0  0  0  0  0  0  0  0  0  0
   -0.6956   -2.8340    2.6571 H   0  0  0  0  0  0  0  0  0  0  0  0
    1.0813   -2.8586    2.7496 H   0  0  0  0  0  0  0  0  0  0  0  0
  2  1  1  1  0  0  0
  2 32  1  0  0  0  0
  4  3  1  0  0  0  0
  5  2  1  0  0  0  0
  5  6  1  0  0  0  0
  7 32  1  0  0  0  0
  7 29  1  0  0  0  0
  7  8  1  0  0  0  0
  9  5  2  0  0  0  0
 10  9  1  0  0  0  0
 11 13  2  0  0  0  0
 11  9  1  0  0  0  0
 12 11  1  0  0  0  0
 13  1  1  0  0  0  0
 14 16  1  0  0  0  0
 14  3  1  0  0  0  0
 14 13  1  0  0  0  0
 15 14  1  0  0  0  0
 17  3  1  0  0  0  0
 17 20  1  0  0  0  0
 18 17  1  0  0  0  0
 19 17  1  0  0  0  0
 20 28  1  0  0  0  0
 21 20  2  0  0  0  0
 21 23  1  0  0  0  0
 22 21  1  0  0  0  0
 23 25  2  0  0  0  0
 24 23  1  0  0  0  0
 25 27  1  0  0  0  0
 25 26  1  0  0  0  0
 27 29  1  0  0  0  0
 28 27  2  0  0  0  0
 29 31  1  0  0  0  0
 29 30  1  0  0  0  0
 32 33  1  0  0  0  0
 32 34  1  0  0  0  0
M  END
