16,17,20,38
 OpenBabel05122313063D

 64 71  0  0  0  0  0  0  0  0999 V2000
    5.0041   -0.2253   -2.0553 F   0  0  0  0  0  0  0  0  0  0  0  0
    7.7067   -0.4506   -2.1090 F   0  0  0  0  0  0  0  0  0  0  0  0
    9.0120   -1.8101   -0.1226 F   0  0  0  0  0  0  0  0  0  0  0  0
    7.5937   -2.9305    1.9344 F   0  0  0  0  0  0  0  0  0  0  0  0
    4.8934   -2.6876    2.0170 F   0  0  0  0  0  0  0  0  0  0  0  0
    1.2324    4.0082   -1.8321 F   0  0  0  0  0  0  0  0  0  0  0  0
    1.2105    6.7140   -1.6958 F   0  0  0  0  0  0  0  0  0  0  0  0
   -0.0084    7.9769    0.4057 F   0  0  0  0  0  0  0  0  0  0  0  0
   -1.1951    6.5055    2.3881 F   0  0  0  0  0  0  0  0  0  0  0  0
   -1.1530    3.7971    2.2849 F   0  0  0  0  0  0  0  0  0  0  0  0
   -5.0103   -0.1087   -2.1263 F   0  0  0  0  0  0  0  0  0  0  0  0
   -7.7119   -0.3005   -2.2134 F   0  0  0  0  0  0  0  0  0  0  0  0
   -9.0529   -1.7477   -0.3112 F   0  0  0  0  0  0  0  0  0  0  0  0
   -7.6638   -2.9873    1.6952 F   0  0  0  0  0  0  0  0  0  0  0  0
   -4.9701   -2.7775    1.8217 F   0  0  0  0  0  0  0  0  0  0  0  0
    1.2523   -2.4763    0.0164 N   0  0  0  0  0  0  0  0  0  0  0  0
    1.4099    0.2470    0.0252 N   0  0  0  0  0  2  0  0  0  0  0  0
   -3.3939    1.1470   -0.0089 N   0  0  0  0  0  0  0  0  0  0  0  0
   -4.4065    1.2640   -0.0577 H   0  0  0  0  0  0  0  0  0  0  0  0
   -1.2364   -2.4346   -0.0981 N   0  0  0  0  0  0  0  0  0  0  0  0
    0.7154   -3.7356   -0.1064 C   0  0  0  0  0  0  0  0  0  0  0  0
    1.7990   -4.6697   -0.2070 C   0  0  0  0  0  0  0  0  0  0  0  0
    1.7079   -5.7573   -0.3070 H   0  0  0  0  0  0  0  0  0  0  0  0
    2.9775   -3.9257   -0.1646 C   0  0  0  0  0  0  0  0  0  0  0  0
    4.0020   -4.3084   -0.2314 H   0  0  0  0  0  0  0  0  0  0  0  0
    2.6080   -2.5333   -0.0323 C   0  0  0  0  0  3  0  0  0  0  0  0
    3.3727   -1.3391    0.0149 C   0  0  0  0  0  0  0  0  0  0  0  0
    2.7669   -0.0600    0.0810 C   0  0  0  0  0  0  0  0  0  0  0  0
    3.4959    1.1836    0.2385 C   0  0  0  0  0  0  0  0  0  0  0  0
    4.5845    1.2564    0.3341 H   0  0  0  0  0  0  0  0  0  0  0  0
    2.5857    2.2088    0.2744 C   0  0  0  0  0  0  0  0  0  0  0  0
    2.7886    3.2770    0.4054 H   0  0  0  0  0  0  0  0  0  0  0  0
    1.2668    1.6275    0.1403 C   0  0  0  0  0  0  0  0  0  0  0  0
    0.0496    2.3208    0.1553 C   0  0  0  0  0  0  0  0  0  0  0  0
   -1.1919    1.6096    0.1014 C   0  0  0  0  0  0  0  0  0  0  0  0
   -2.5005    2.1617    0.0578 C   0  0  0  0  0  3  0  0  0  0  0  0
   -2.8221    3.2093    0.0641 H   0  0  0  0  0  0  0  0  0  0  0  0
   -1.3636    0.1970    0.0604 C   0  0  0  0  0  3  0  0  0  0  0  0
   -2.7402   -0.0907   -0.0301 C   0  0  0  0  0  0  0  0  0  0  0  0
   -3.4092   -1.3488   -0.1058 C   0  0  0  0  0  0  0  0  0  0  0  0
   -2.6092   -2.5058   -0.1297 C   0  0  0  0  0  3  0  0  0  0  0  0
   -2.9617   -3.9066   -0.2144 C   0  0  0  0  0  0  0  0  0  0  0  0
   -3.9848   -4.2958   -0.2609 H   0  0  0  0  0  0  0  0  0  0  0  0
   -1.7862   -4.6455   -0.2139 C   0  0  0  0  0  0  0  0  0  0  0  0
   -1.6862   -5.7354   -0.2651 H   0  0  0  0  0  0  0  0  0  0  0  0
   -0.7015   -3.7098   -0.1365 C   0  0  0  0  0  0  0  0  0  0  0  0
    4.8530   -1.4435   -0.0139 C   0  0  0  0  0  0  0  0  0  0  0  0
    5.6134   -0.8801   -1.0603 C   0  0  0  0  0  0  0  0  0  0  0  0
    7.0126   -0.9911   -1.1037 C   0  0  0  0  0  0  0  0  0  0  0  0
    7.6837   -1.6942   -0.0886 C   0  0  0  0  0  0  0  0  0  0  0  0
    6.9537   -2.2720    0.9639 C   0  0  0  0  0  0  0  0  0  0  0  0
    5.5557   -2.1416    0.9904 C   0  0  0  0  0  0  0  0  0  0  0  0
    0.0459    3.8020    0.2244 C   0  0  0  0  0  0  0  0  0  0  0  0
    0.6463    4.5910   -0.7807 C   0  0  0  0  0  0  0  0  0  0  0  0
    0.6392    5.9944   -0.7268 C   0  0  0  0  0  0  0  0  0  0  0  0
    0.0083    6.6448    0.3474 C   0  0  0  0  0  0  0  0  0  0  0  0
   -0.6048    5.8882    1.3607 C   0  0  0  0  0  0  0  0  0  0  0  0
   -0.5781    4.4862    1.2896 C   0  0  0  0  0  0  0  0  0  0  0  0
   -4.8849   -1.4428   -0.1527 C   0  0  0  0  0  0  0  0  0  0  0  0
   -5.6367   -0.8119   -1.1691 C   0  0  0  0  0  0  0  0  0  0  0  0
   -7.0362   -0.9033   -1.2324 C   0  0  0  0  0  0  0  0  0  0  0  0
   -7.7250   -1.6505   -0.2616 C   0  0  0  0  0  0  0  0  0  0  0  0
   -7.0086   -2.2917    0.7638 C   0  0  0  0  0  0  0  0  0  0  0  0
   -5.6097   -2.1783    0.8126 C   0  0  0  0  0  0  0  0  0  0  0  0
  1 48  1  0  0  0  0
  2 49  1  0  0  0  0
  3 50  1  0  0  0  0
  6 54  1  0  0  0  0
  7 55  1  0  0  0  0
 11 60  1  0  0  0  0
 12 61  1  0  0  0  0
 13 62  1  0  0  0  0
 17 28  1  0  0  0  0
 17 33  1  0  0  0  0
 18 36  1  0  0  0  0
 19 18  1  0  0  0  0
 21 16  2  0  0  0  0
 22 24  2  0  0  0  0
 22 21  1  0  0  0  0
 23 22  1  0  0  0  0
 24 26  1  0  0  0  0
 25 24  1  0  0  0  0
 26 27  1  0  0  0  0
 26 16  1  0  0  0  0
 27 28  2  0  0  0  0
 28 29  1  0  0  0  0
 29 31  2  0  0  0  0
 29 30  1  0  0  0  0
 31 32  1  0  0  0  0
 33 34  2  0  0  0  0
 33 31  1  0  0  0  0
 34 53  1  0  0  0  0
 35 34  1  0  0  0  0
 36 37  1  0  0  0  0
 36 35  1  0  0  0  0
 38 35  2  0  0  0  0
 39 18  1  0  0  0  0
 39 38  1  0  0  0  0
 40 39  2  0  0  0  0
 41 40  1  0  0  0  0
 41 20  1  0  0  0  0
 42 44  2  0  0  0  0
 42 41  1  0  0  0  0
 43 42  1  0  0  0  0
 44 46  1  0  0  0  0
 45 44  1  0  0  0  0
 46 21  1  0  0  0  0
 46 20  2  0  0  0  0
 47 27  1  0  0  0  0
 47 52  1  0  0  0  0
 48 47  2  0  0  0  0
 49 48  1  0  0  0  0
 49 50  2  0  0  0  0
 50 51  1  0  0  0  0
 51 52  2  0  0  0  0
 51  4  1  0  0  0  0
 52  5  1  0  0  0  0
 53 58  1  0  0  0  0
 54 55  1  0  0  0  0
 54 53  2  0  0  0  0
 55 56  2  0  0  0  0
 56  8  1  0  0  0  0
 56 57  1  0  0  0  0
 57  9  1  0  0  0  0
 58 57  2  0  0  0  0
 58 10  1  0  0  0  0
 59 40  1  0  0  0  0
 59 64  1  0  0  0  0
 60 59  2  0  0  0  0
 61 60  1  0  0  0  0
 61 62  2  0  0  0  0
 62 63  1  0  0  0  0
 63 64  2  0  0  0  0
 63 14  1  0  0  0  0
 64 15  1  0  0  0  0
M  END
