1,2,3,4,6
q = -2.0, confidence = 0.834

 60 63  0  0  0  0  0  0  0  0999 V2000
    1.4882    1.3521   -1.1122 O   0  5  0  0  0  0  0  0  0  0  0  0
   -1.4320    0.9418    1.3116 O   0  5  0  0  0  0  0  0  0  0  0  0
   -1.2115    1.3207   -1.3736 N   0  0  0  0  0  2  0  0  0  0  0  0
    0.0761    3.1058    0.3727 N   0  0  0  0  0  0  0  0  0  0  0  0
    1.0745    3.2737    0.1630 H   0  0  0  0  0  0  0  0  0  0  0  0
    1.2725    0.9309    1.5551 N   0  0  0  0  0  2  0  0  0  0  0  0
   -2.5549    0.3237    1.0371 C   0  0  0  0  0  0  0  0  0  0  0  0
   -3.3468   -0.1223    2.1492 C   0  0  0  0  0  0  0  0  0  0  0  0
   -2.9677    0.0874    3.1599 H   0  0  0  0  0  0  0  0  0  0  0  0
   -4.5313   -0.7959    1.9500 C   0  0  0  0  0  0  0  0  0  0  0  0
   -5.1171   -1.1386    2.8176 H   0  0  0  0  0  0  0  0  0  0  0  0
   -5.0266   -1.0850    0.6383 C   0  0  0  0  0  0  0  0  0  0  0  0
   -6.2334   -1.8119    0.4506 C   0  0  0  0  0  0  0  0  0  0  0  0
   -6.7907   -2.1464    1.3393 H   0  0  0  0  0  0  0  0  0  0  0  0
   -6.7033   -2.0978   -0.8250 C   0  0  0  0  0  0  0  0  0  0  0  0
   -7.6389   -2.6592   -0.9617 H   0  0  0  0  0  0  0  0  0  0  0  0
   -5.9615   -1.6686   -1.9505 C   0  0  0  0  0  0  0  0  0  0  0  0
   -6.3205   -1.9052   -2.9634 H   0  0  0  0  0  0  0  0  0  0  0  0
   -4.7731   -0.9595   -1.7929 C   0  0  0  0  0  0  0  0  0  0  0  0
   -4.2071   -0.6743   -2.6916 H   0  0  0  0  0  0  0  0  0  0  0  0
   -4.2764   -0.6314   -0.5021 C   0  0  0  0  0  0  0  0  0  0  0  0
   -3.0484    0.1152   -0.2873 C   0  0  0  0  0  0  0  0  0  0  0  0
   -2.4121    0.7933   -1.3732 C   0  0  0  0  0  3  0  0  0  0  0  0
   -3.0108    0.9354   -2.2938 H   0  0  0  0  0  0  0  0  0  0  0  0
   -0.7994    2.1451   -2.5058 C   0  0  0  0  0  0  0  0  0  0  0  0
   -1.6465    2.2187   -3.2192 H   0  0  0  0  0  0  0  0  0  0  0  0
    0.0420    1.6466   -3.0260 H   0  0  0  0  0  0  0  0  0  0  0  0
   -0.3472    3.5534   -2.0500 C   0  0  0  0  0  0  0  0  0  0  0  0
    0.7510    3.6513   -2.1649 H   0  0  0  0  0  0  0  0  0  0  0  0
   -0.8039    4.3204   -2.7057 H   0  0  0  0  0  0  0  0  0  0  0  0
   -0.7210    3.8822   -0.6091 C   0  0  0  0  0  0  0  0  0  0  0  0
   -1.7917    3.6761   -0.4071 H   0  0  0  0  0  0  0  0  0  0  0  0
   -0.5552    4.9649   -0.4173 H   0  0  0  0  0  0  0  0  0  0  0  0
   -0.2084    3.5319    1.7650 C   0  0  0  0  0  0  0  0  0  0  0  0
   -1.2230    3.1647    2.0144 H   0  0  0  0  0  0  0  0  0  0  0  0
   -0.2299    4.6434    1.7963 H   0  0  0  0  0  0  0  0  0  0  0  0
    0.8148    3.0141    2.7705 C   0  0  0  0  0  0  0  0  0  0  0  0
    0.5442    3.4134    3.7692 H   0  0  0  0  0  0  0  0  0  0  0  0
    1.8222    3.4219    2.5314 H   0  0  0  0  0  0  0  0  0  0  0  0
    0.8937    1.4858    2.8492 C   0  0  0  0  0  0  0  0  0  0  0  0
    1.6360    1.1848    3.6188 H   0  0  0  0  0  0  0  0  0  0  0  0
   -0.0976    1.0804    3.1317 H   0  0  0  0  0  0  0  0  0  0  0  0
    2.4690    0.4161    1.4037 C   0  0  0  0  0  3  0  0  0  0  0  0
    3.0751    0.2970    2.3234 H   0  0  0  0  0  0  0  0  0  0  0  0
    3.0921    0.0664    0.1648 C   0  0  0  0  0  0  0  0  0  0  0  0
    4.3082   -0.7268    0.1465 C   0  0  0  0  0  0  0  0  0  0  0  0
    4.7920   -1.4339    1.2805 C   0  0  0  0  0  0  0  0  0  0  0  0
    4.2221   -1.4235    2.2212 H   0  0  0  0  0  0  0  0  0  0  0  0
    5.9708   -2.1732    1.2203 C   0  0  0  0  0  0  0  0  0  0  0  0
    6.3213   -2.7081    2.1158 H   0  0  0  0  0  0  0  0  0  0  0  0
    6.7140   -2.2541    0.0192 C   0  0  0  0  0  0  0  0  0  0  0  0
    7.6417   -2.8434   -0.0171 H   0  0  0  0  0  0  0  0  0  0  0  0
    6.2560   -1.5918   -1.1129 C   0  0  0  0  0  0  0  0  0  0  0  0
    6.8149   -1.6515   -2.0596 H   0  0  0  0  0  0  0  0  0  0  0  0
    5.0594   -0.8256   -1.0761 C   0  0  0  0  0  0  0  0  0  0  0  0
    4.5756   -0.1472   -2.2399 C   0  0  0  0  0  0  0  0  0  0  0  0
    5.1620   -0.2197   -3.1695 H   0  0  0  0  0  0  0  0  0  0  0  0
    3.3994    0.5703   -2.2290 C   0  0  0  0  0  0  0  0  0  0  0  0
    3.0281    1.0797   -3.1301 H   0  0  0  0  0  0  0  0  0  0  0  0
    2.6058    0.6678   -1.0371 C   0  0  0  0  0  0  0  0  0  0  0  0
  1 60  1  0  0  0  0
  3 23  1  0  0  0  0
  4 34  1  0  0  0  0
  5  4  1  0  0  0  0
  6 40  1  0  0  0  0
  7  2  1  0  0  0  0
  7  8  1  0  0  0  0
  8  9  1  0  0  0  0
 10  8  2  0  0  0  0
 10 11  1  0  0  0  0
 12 10  1  0  0  0  0
 13 12  1  0  0  0  0
 13 14  1  0  0  0  0
 15 13  2  0  0  0  0
 16 15  1  0  0  0  0
 17 19  2  0  0  0  0
 17 15  1  0  0  0  0
 18 17  1  0  0  0  0
 19 21  1  0  0  0  0
 20 19  1  0  0  0  0
 21 22  1  0  0  0  0
 21 12  2  0  0  0  0
 22  7  2  0  0  0  0
 23 22  1  0  0  0  0
 24 23  1  0  0  0  0
 25 28  1  0  0  0  0
 25  3  1  0  0  0  0
 26 25  1  0  0  0  0
 27 25  1  0  0  0  0
 28 31  1  0  0  0  0
 29 28  1  0  0  0  0
 30 28  1  0  0  0  0
 31 33  1  0  0  0  0
 31 32  1  0  0  0  0
 31  4  1  0  0  0  0
 34 36  1  0  0  0  0
 34 35  1  0  0  0  0
 34 37  1  0  0  0  0
 37 40  1  0  0  0  0
 37 38  1  0  0  0  0
 39 37  1  0  0  0  0
 40 42  1  0  0  0  0
 40 41  1  0  0  0  0
 43  6  1  0  0  0  0
 43 44  1  0  0  0  0
 45 43  1  0  0  0  0
 46 45  1  0  0  0  0
 46 47  1  0  0  0  0
 47 48  1  0  0  0  0
 49 47  2  0  0  0  0
 49 50  1  0  0  0  0
 51 49  1  0  0  0  0
 52 51  1  0  0  0  0
 53 55  1  0  0  0  0
 53 51  2  0  0  0  0
 54 53  1  0  0  0  0
 55 46  2  0  0  0  0
 56 58  2  0  0  0  0
 56 55  1  0  0  0  0
 57 56  1  0  0  0  0
 58 60  1  0  0  0  0
 59 58  1  0  0  0  0
 60 45  2  0  0  0  0
M  CHG  2   1  -1   2  -1
M  END
