1,3,5,6,7
q = -2.0, confidence = 0.842

 53 54  0  0  0  0  0  0  0  0999 V2000
   -0.6483    1.3398    0.7539 O   0  5  0  0  0  0  0  0  0  0  0  0
    1.0108    2.7365    2.2472 O   0  0  0  0  0  0  0  0  0  0  0  0
    0.5896   -0.7011   -0.6107 O   0  5  0  0  0  0  0  0  0  0  0  0
    2.7308   -1.1607   -1.9943 O   0  0  0  0  0  0  0  0  0  0  0  0
   -1.4695    0.5324   -1.6856 N   0  0  0  0  0  2  0  0  0  0  0  0
   -0.8477   -1.0725    1.7184 N   0  0  0  0  0  2  0  0  0  0  0  0
   -2.9978    0.0789    0.6159 N   0  0  0  0  0  0  0  0  0  0  0  0
   -2.8648    1.0844    0.8221 H   0  0  0  0  0  0  0  0  0  0  0  0
    0.2355    2.0671    0.1245 C   0  0  0  0  0  0  0  0  0  0  0  0
    1.1543    2.8625    0.8973 C   0  0  0  0  0  0  0  0  0  0  0  0
    2.1038    3.6678    0.2591 C   0  0  0  0  0  0  0  0  0  0  0  0
    2.8190    4.2523    0.8542 H   0  0  0  0  0  0  0  0  0  0  0  0
    2.1660    3.7358   -1.1539 C   0  0  0  0  0  0  0  0  0  0  0  0
    2.9227    4.3754   -1.6309 H   0  0  0  0  0  0  0  0  0  0  0  0
    1.2725    3.0022   -1.9243 C   0  0  0  0  0  0  0  0  0  0  0  0
    1.3024    3.0564   -3.0237 H   0  0  0  0  0  0  0  0  0  0  0  0
    0.3143    2.1576   -1.3036 C   0  0  0  0  0  0  0  0  0  0  0  0
   -0.6978    1.5005   -2.0922 C   0  0  0  0  0  3  0  0  0  0  0  0
   -0.8706    1.8984   -3.1147 H   0  0  0  0  0  0  0  0  0  0  0  0
   -2.6523    0.1752   -2.4479 C   0  0  0  0  0  0  0  0  0  0  0  0
   -2.6540   -0.9265   -2.5822 H   0  0  0  0  0  0  0  0  0  0  0  0
   -2.6359    0.6729   -3.4426 H   0  0  0  0  0  0  0  0  0  0  0  0
   -3.9069    0.6084   -1.6720 C   0  0  0  0  0  0  0  0  0  0  0  0
   -3.8718    1.7089   -1.5083 H   0  0  0  0  0  0  0  0  0  0  0  0
   -4.8022    0.4099   -2.2972 H   0  0  0  0  0  0  0  0  0  0  0  0
   -4.1034   -0.1232   -0.3455 C   0  0  0  0  0  0  0  0  0  0  0  0
   -5.0612    0.1952    0.1261 H   0  0  0  0  0  0  0  0  0  0  0  0
   -4.1454   -1.2158   -0.5290 H   0  0  0  0  0  0  0  0  0  0  0  0
   -3.1962   -0.6733    1.8762 C   0  0  0  0  0  0  0  0  0  0  0  0
   -3.4286   -1.7167    1.5835 H   0  0  0  0  0  0  0  0  0  0  0  0
   -4.0405   -0.2589    2.4700 H   0  0  0  0  0  0  0  0  0  0  0  0
   -1.8817   -0.6481    2.6442 C   0  0  0  0  0  0  0  0  0  0  0  0
   -1.6470    0.3910    2.9706 H   0  0  0  0  0  0  0  0  0  0  0  0
   -1.9276   -1.2953    3.5470 H   0  0  0  0  0  0  0  0  0  0  0  0
    0.2024   -1.7426    2.0987 C   0  0  0  0  0  3  0  0  0  0  0  0
    0.2347   -2.0973    3.1499 H   0  0  0  0  0  0  0  0  0  0  0  0
    1.3358   -2.0443    1.2784 C   0  0  0  0  0  0  0  0  0  0  0  0
    2.3751   -2.8678    1.8083 C   0  0  0  0  0  0  0  0  0  0  0  0
    2.2486   -3.2900    2.8176 H   0  0  0  0  0  0  0  0  0  0  0  0
    3.5167   -3.1297    1.0720 C   0  0  0  0  0  0  0  0  0  0  0  0
    4.3140   -3.7681    1.4791 H   0  0  0  0  0  0  0  0  0  0  0  0
    3.6665   -2.5646   -0.2230 C   0  0  0  0  0  0  0  0  0  0  0  0
    4.5799   -2.7765   -0.7959 H   0  0  0  0  0  0  0  0  0  0  0  0
    2.6747   -1.7528   -0.7707 C   0  0  0  0  0  0  0  0  0  0  0  0
    1.4568   -1.4712   -0.0353 C   0  0  0  0  0  0  0  0  0  0  0  0
    1.9056    3.4493    3.0719 C   0  0  0  0  0  0  0  0  0  0  0  0
    1.6365    3.2047    4.1168 H   0  0  0  0  0  0  0  0  0  0  0  0
    2.9648    3.1519    2.8942 H   0  0  0  0  0  0  0  0  0  0  0  0
    1.8225    4.5514    2.9270 H   0  0  0  0  0  0  0  0  0  0  0  0
    3.8892   -1.3628   -2.7700 C   0  0  0  0  0  0  0  0  0  0  0  0
    3.7438   -0.7956   -3.7087 H   0  0  0  0  0  0  0  0  0  0  0  0
    4.8055   -0.9861   -2.2588 H   0  0  0  0  0  0  0  0  0  0  0  0
    4.0450   -2.4383   -3.0187 H   0  0  0  0  0  0  0  0  0  0  0  0
  2 46  1  0  0  0  0
  3 45  1  0  0  0  0
  4 44  1  0  0  0  0
  6 35  1  0  0  0  0
  6 32  1  0  0  0  0
  7  8  1  0  0  0  0
  7 29  1  0  0  0  0
  9  1  1  0  0  0  0
  9 10  1  0  0  0  0
 10  2  1  0  0  0  0
 11 12  1  0  0  0  0
 11 10  2  0  0  0  0
 13 11  1  0  0  0  0
 14 13  1  0  0  0  0
 15 17  1  0  0  0  0
 15 13  2  0  0  0  0
 16 15  1  0  0  0  0
 17  9  2  0  0  0  0
 18  5  1  0  0  0  0
 18 17  1  0  0  0  0
 19 18  1  0  0  0  0
 20  5  1  0  0  0  0
 20 23  1  0  0  0  0
 21 20  1  0  0  0  0
 22 20  1  0  0  0  0
 23 24  1  0  0  0  0
 23 26  1  0  0  0  0
 25 23  1  0  0  0  0
 26 27  1  0  0  0  0
 26  7  1  0  0  0  0
 28 26  1  0  0  0  0
 29 31  1  0  0  0  0
 29 32  1  0  0  0  0
 30 29  1  0  0  0  0
 32 33  1  0  0  0  0
 32 34  1  0  0  0  0
 35 36  1  0  0  0  0
 37 38  1  0  0  0  0
 37 35  1  0  0  0  0
 38 39  1  0  0  0  0
 40 41  1  0  0  0  0
 40 38  2  0  0  0  0
 42 40  1  0  0  0  0
 43 42  1  0  0  0  0
 44 42  2  0  0  0  0
 44 45  1  0  0  0  0
 45 37  2  0  0  0  0
 46 47  1  0  0  0  0
 48 46  1  0  0  0  0
 49 46  1  0  0  0  0
 50 52  1  0  0  0  0
 50  4  1  0  0  0  0
 51 50  1  0  0  0  0
 53 50  1  0  0  0  0
M  CHG  2   1  -1   3  -1
M  END
