1,2,3,32,34
q = -2.0, confidence = 0.86

 62 65  0  0  0  0  0  0  0  0999 V2000
    0.7239    1.9806    0.4991 O   0  5  0  0  0  0  0  0  0  0  0  0
   -1.3484    0.6686   -1.2074 N   0  0  0  0  0  0  0  0  0  0  0  0
   -2.4658    0.6446    1.3810 N   0  0  0  0  0  2  0  0  0  0  0  0
   -2.9624    0.9903    2.5869 C   0  0  0  0  0  3  0  0  0  0  0  0
   -2.2261    1.0027    3.4083 H   0  0  0  0  0  0  0  0  0  0  0  0
   -4.3165    1.2877    2.7902 C   0  0  0  0  0  0  0  0  0  0  0  0
   -4.6699    1.5633    3.7939 H   0  0  0  0  0  0  0  0  0  0  0  0
   -5.1896    1.2252    1.6968 C   0  0  0  0  0  0  0  0  0  0  0  0
   -6.2597    1.4543    1.8152 H   0  0  0  0  0  0  0  0  0  0  0  0
   -4.6741    0.8740    0.4425 C   0  0  0  0  0  0  0  0  0  0  0  0
   -5.3216    0.8244   -0.4452 H   0  0  0  0  0  0  0  0  0  0  0  0
   -3.3044    0.5866    0.3201 C   0  0  0  0  0  0  0  0  0  0  0  0
   -2.7110    0.1511   -0.9965 C   0  0  0  0  0  0  0  0  0  0  0  0
   -2.6640   -0.9597   -1.0058 H   0  0  0  0  0  0  0  0  0  0  0  0
   -3.3935    0.4533   -1.8283 H   0  0  0  0  0  0  0  0  0  0  0  0
   -0.7631    0.0301   -2.4083 C   0  0  0  0  0  0  0  0  0  0  0  0
   -1.0881    0.5674   -3.3322 H   0  0  0  0  0  0  0  0  0  0  0  0
   -1.1681   -0.9957   -2.4762 H   0  0  0  0  0  0  0  0  0  0  0  0
   -1.4178    2.1564   -1.3323 C   0  0  0  0  0  0  0  0  0  0  0  0
   -2.1190    2.4114   -2.1643 H   0  0  0  0  0  0  0  0  0  0  0  0
   -1.8775    2.5274   -0.3915 H   0  0  0  0  0  0  0  0  0  0  0  0
   -0.1126    2.8695   -1.5513 C   0  0  0  0  0  0  0  0  0  0  0  0
    0.1115    3.6554   -2.6936 C   0  0  0  0  0  0  0  0  0  0  0  0
   -0.6823    3.7205   -3.4568 H   0  0  0  0  0  0  0  0  0  0  0  0
    1.3176    4.3514   -2.8783 C   0  0  0  0  0  0  0  0  0  0  0  0
    1.4756    4.9619   -3.7793 H   0  0  0  0  0  0  0  0  0  0  0  0
    2.3128    4.2610   -1.8898 C   0  0  0  0  0  0  0  0  0  0  0  0
    3.2614    4.8071   -2.0152 H   0  0  0  0  0  0  0  0  0  0  0  0
    2.1122    3.4847   -0.7405 C   0  0  0  0  0  0  0  0  0  0  0  0
    2.8823    3.4143    0.0429 H   0  0  0  0  0  0  0  0  0  0  0  0
    0.9023    2.7638   -0.5459 C   0  0  0  0  0  0  0  0  0  0  0  0
   -0.7239   -1.9806    0.4991 O   0  5  0  0  0  0  0  0  0  0  0  0
    1.3484   -0.6686   -1.2074 N   0  0  0  0  0  0  0  0  0  0  0  0
    2.4659   -0.6446    1.3810 N   0  0  0  0  0  2  0  0  0  0  0  0
    2.9624   -0.9903    2.5868 C   0  0  0  0  0  3  0  0  0  0  0  0
    2.2261   -1.0028    3.4082 H   0  0  0  0  0  0  0  0  0  0  0  0
    4.3166   -1.2878    2.7902 C   0  0  0  0  0  0  0  0  0  0  0  0
    4.6699   -1.5634    3.7939 H   0  0  0  0  0  0  0  0  0  0  0  0
    5.1896   -1.2252    1.6968 C   0  0  0  0  0  0  0  0  0  0  0  0
    6.2597   -1.4544    1.8151 H   0  0  0  0  0  0  0  0  0  0  0  0
    4.6741   -0.8740    0.4424 C   0  0  0  0  0  0  0  0  0  0  0  0
    5.3216   -0.8244   -0.4452 H   0  0  0  0  0  0  0  0  0  0  0  0
    3.3044   -0.5866    0.3201 C   0  0  0  0  0  0  0  0  0  0  0  0
    2.7110   -0.1511   -0.9965 C   0  0  0  0  0  0  0  0  0  0  0  0
    2.6640    0.9597   -1.0058 H   0  0  0  0  0  0  0  0  0  0  0  0
    3.3935   -0.4533   -1.8283 H   0  0  0  0  0  0  0  0  0  0  0  0
    0.7631   -0.0301   -2.4083 C   0  0  0  0  0  0  0  0  0  0  0  0
    1.0881   -0.5673   -3.3322 H   0  0  0  0  0  0  0  0  0  0  0  0
    1.1681    0.9957   -2.4762 H   0  0  0  0  0  0  0  0  0  0  0  0
    1.4178   -2.1563   -1.3324 C   0  0  0  0  0  0  0  0  0  0  0  0
    2.1190   -2.4114   -2.1643 H   0  0  0  0  0  0  0  0  0  0  0  0
    1.8775   -2.5274   -0.3916 H   0  0  0  0  0  0  0  0  0  0  0  0
    0.1126   -2.8695   -1.5513 C   0  0  0  0  0  0  0  0  0  0  0  0
   -0.1115   -3.6554   -2.6937 C   0  0  0  0  0  0  0  0  0  0  0  0
    0.6822   -3.7204   -3.4568 H   0  0  0  0  0  0  0  0  0  0  0  0
   -1.3176   -4.3514   -2.8783 C   0  0  0  0  0  0  0  0  0  0  0  0
   -1.4756   -4.9618   -3.7793 H   0  0  0  0  0  0  0  0  0  0  0  0
   -2.3129   -4.2610   -1.8898 C   0  0  0  0  0  0  0  0  0  0  0  0
   -3.2614   -4.8071   -2.0152 H   0  0  0  0  0  0  0  0  0  0  0  0
   -2.1122   -3.4846   -0.7406 C   0  0  0  0  0  0  0  0  0  0  0  0
   -2.8824   -3.4143    0.0429 H   0  0  0  0  0  0  0  0  0  0  0  0
   -0.9023   -2.7638   -0.5459 C   0  0  0  0  0  0  0  0  0  0  0  0
  2 13  1  0  0  0  0
  3  4  1  0  0  0  0
  4  6  1  0  0  0  0
  4  5  1  0  0  0  0
  6  7  1  0  0  0  0
  8  9  1  0  0  0  0
  8  6  2  0  0  0  0
 10  8  1  0  0  0  0
 11 10  1  0  0  0  0
 12 10  2  0  0  0  0
 12  3  1  0  0  0  0
 13 12  1  0  0  0  0
 14 13  1  0  0  0  0
 15 13  1  0  0  0  0
 16  2  1  0  0  0  0
 17 16  1  0  0  0  0
 18 16  1  0  0  0  0
 19  2  1  0  0  0  0
 19 21  1  0  0  0  0
 20 19  1  0  0  0  0
 22 19  1  0  0  0  0
 22 31  1  0  0  0  0
 23 22  2  0  0  0  0
 24 23  1  0  0  0  0
 25 23  1  0  0  0  0
 25 27  2  0  0  0  0
 26 25  1  0  0  0  0
 27 29  1  0  0  0  0
 28 27  1  0  0  0  0
 29 31  2  0  0  0  0
 29 30  1  0  0  0  0
 31  1  1  0  0  0  0
 33 44  1  0  0  0  0
 34 35  1  0  0  0  0
 35 37  1  0  0  0  0
 35 36  1  0  0  0  0
 37 38  1  0  0  0  0
 39 40  1  0  0  0  0
 39 37  2  0  0  0  0
 41 39  1  0  0  0  0
 42 41  1  0  0  0  0
 43 41  2  0  0  0  0
 43 34  1  0  0  0  0
 44 43  1  0  0  0  0
 45 44  1  0  0  0  0
 46 44  1  0  0  0  0
 47 16  1  0  0  0  0
 47 33  1  0  0  0  0
 48 47  1  0  0  0  0
 49 47  1  0  0  0  0
 50 33  1  0  0  0  0
 50 52  1  0  0  0  0
 51 50  1  0  0  0  0
 53 50  1  0  0  0  0
 53 62  1  0  0  0  0
 54 53  2  0  0  0  0
 55 54  1  0  0  0  0
 56 54  1  0  0  0  0
 56 58  2  0  0  0  0
 57 56  1  0  0  0  0
 58 60  1  0  0  0  0
 59 58  1  0  0  0  0
 60 62  2  0  0  0  0
 60 61  1  0  0  0  0
 62 32  1  0  0  0  0
M  CHG  2   1  -1  32  -1
M  END
