1,2,3,4,6
q = -2.0, confidence = 0.868

 65 66  0  0  0  0  0  0  0  0999 V2000
    0.2521    2.0502    0.4572 N   0  0  0  0  0  2  0  0  0  0  0  0
   -0.2081   -2.0538    0.3328 N   0  0  0  0  0  2  0  0  0  0  0  0
   -0.0958   -0.0863    2.5686 N   0  0  0  0  0  0  0  0  0  0  0  0
    1.9280   -0.1448   -0.1848 O   0  5  0  0  0  0  0  0  0  0  0  0
    4.2159   -0.9817   -1.1141 O   0  0  0  0  0  0  0  0  0  0  0  0
   -1.8793    0.1864   -0.2848 O   0  5  0  0  0  0  0  0  0  0  0  0
   -4.1839    1.0468   -1.1438 O   0  0  0  0  0  0  0  0  0  0  0  0
    1.2486    2.7346   -0.0267 C   0  0  0  0  0  3  0  0  0  0  0  0
    1.1994    3.8484    0.0337 H   0  0  0  0  0  0  0  0  0  0  0  0
    2.4446    2.1941   -0.6197 C   0  0  0  0  0  0  0  0  0  0  0  0
    2.7213    0.7745   -0.6274 C   0  0  0  0  0  0  0  0  0  0  0  0
    4.0086    0.3648   -1.1638 C   0  0  0  0  0  0  0  0  0  0  0  0
    4.9108    1.2963   -1.6755 C   0  0  0  0  0  0  0  0  0  0  0  0
    5.8738    0.9647   -2.0885 H   0  0  0  0  0  0  0  0  0  0  0  0
    4.6039    2.6831   -1.6708 C   0  0  0  0  0  0  0  0  0  0  0  0
    5.3310    3.4001   -2.0787 H   0  0  0  0  0  0  0  0  0  0  0  0
    3.3989    3.1177   -1.1462 C   0  0  0  0  0  0  0  0  0  0  0  0
    3.1542    4.1920   -1.1238 H   0  0  0  0  0  0  0  0  0  0  0  0
    5.4325   -1.4966   -1.6294 C   0  0  0  0  0  0  0  0  0  0  0  0
    6.3011   -1.0478   -1.0893 H   0  0  0  0  0  0  0  0  0  0  0  0
    5.5428   -1.2182   -2.7050 H   0  0  0  0  0  0  0  0  0  0  0  0
    5.4115   -3.0049   -1.4613 C   0  0  0  0  0  0  0  0  0  0  0  0
    5.3174   -3.2776   -0.3913 H   0  0  0  0  0  0  0  0  0  0  0  0
    6.3451   -3.4520   -1.8563 H   0  0  0  0  0  0  0  0  0  0  0  0
    4.5526   -3.4454   -2.0053 H   0  0  0  0  0  0  0  0  0  0  0  0
   -1.2229   -2.7079   -0.1578 C   0  0  0  0  0  3  0  0  0  0  0  0
   -1.1814   -3.8235   -0.1386 H   0  0  0  0  0  0  0  0  0  0  0  0
   -2.4300   -2.1465   -0.7076 C   0  0  0  0  0  0  0  0  0  0  0  0
   -2.6931   -0.7247   -0.7054 C   0  0  0  0  0  0  0  0  0  0  0  0
   -3.9902   -0.3008   -1.2065 C   0  0  0  0  0  0  0  0  0  0  0  0
   -4.9145   -1.2217   -1.6973 C   0  0  0  0  0  0  0  0  0  0  0  0
   -5.8854   -0.8795   -2.0823 H   0  0  0  0  0  0  0  0  0  0  0  0
   -4.6200   -2.6112   -1.7069 C   0  0  0  0  0  0  0  0  0  0  0  0
   -5.3634   -3.3199   -2.0996 H   0  0  0  0  0  0  0  0  0  0  0  0
   -3.4058   -3.0585   -1.2158 C   0  0  0  0  0  0  0  0  0  0  0  0
   -3.1701   -4.1349   -1.2056 H   0  0  0  0  0  0  0  0  0  0  0  0
   -5.4092    1.5755   -1.6233 C   0  0  0  0  0  0  0  0  0  0  0  0
   -6.2671    1.1309   -1.0631 H   0  0  0  0  0  0  0  0  0  0  0  0
   -5.5504    1.3047   -2.6973 H   0  0  0  0  0  0  0  0  0  0  0  0
   -5.3699    3.0825   -1.4467 C   0  0  0  0  0  0  0  0  0  0  0  0
   -5.2457    3.3477   -0.3779 H   0  0  0  0  0  0  0  0  0  0  0  0
   -6.3092    3.5404   -1.8150 H   0  0  0  0  0  0  0  0  0  0  0  0
   -4.5210    3.5182   -2.0096 H   0  0  0  0  0  0  0  0  0  0  0  0
   -0.8268    2.6848    1.1844 C   0  0  0  0  0  0  0  0  0  0  0  0
   -1.7736    2.2504    0.7998 H   0  0  0  0  0  0  0  0  0  0  0  0
   -0.8545    3.7847    1.0026 H   0  0  0  0  0  0  0  0  0  0  0  0
   -0.6866    2.4141    2.7113 C   0  0  0  0  0  0  0  0  0  0  0  0
   -1.6934    2.2945    3.1615 H   0  0  0  0  0  0  0  0  0  0  0  0
   -0.2446    3.3064    3.2024 H   0  0  0  0  0  0  0  0  0  0  0  0
    0.2331    1.2515    3.1104 C   0  0  0  0  0  0  0  0  0  0  0  0
    1.2633    1.4791    2.7694 H   0  0  0  0  0  0  0  0  0  0  0  0
    0.2683    1.1978    4.2273 H   0  0  0  0  0  0  0  0  0  0  0  0
    0.8749   -2.7544    0.9957 C   0  0  0  0  0  0  0  0  0  0  0  0
    1.8301   -2.3738    0.5735 H   0  0  0  0  0  0  0  0  0  0  0  0
    0.8161   -3.8544    0.8163 H   0  0  0  0  0  0  0  0  0  0  0  0
    0.8384   -2.4908    2.5127 C   0  0  0  0  0  0  0  0  0  0  0  0
    1.6852   -3.0401    2.9759 H   0  0  0  0  0  0  0  0  0  0  0  0
   -0.0825   -2.9398    2.9427 H   0  0  0  0  0  0  0  0  0  0  0  0
    0.9843   -1.0307    2.9611 C   0  0  0  0  0  0  0  0  0  0  0  0
    1.0897   -1.0150    4.0751 H   0  0  0  0  0  0  0  0  0  0  0  0
    1.9237   -0.6187    2.5355 H   0  0  0  0  0  0  0  0  0  0  0  0
   -1.4310   -0.5310    2.9790 C   0  0  0  0  0  0  0  0  0  0  0  0
   -1.5143   -0.6349    4.0879 H   0  0  0  0  0  0  0  0  0  0  0  0
   -1.6692   -1.5004    2.5060 H   0  0  0  0  0  0  0  0  0  0  0  0
   -2.1881    0.1916    2.6230 H   0  0  0  0  0  0  0  0  0  0  0  0
  1 44  1  0  0  0  0
  2 53  1  0  0  0  0
  3 59  1  0  0  0  0
  3 62  1  0  0  0  0
  3 50  1  0  0  0  0
  8  9  1  0  0  0  0
  8  1  1  0  0  0  0
 10  8  1  0  0  0  0
 11 10  1  0  0  0  0
 11  4  1  0  0  0  0
 12  5  1  0  0  0  0
 12 11  2  0  0  0  0
 13 15  2  0  0  0  0
 13 12  1  0  0  0  0
 14 13  1  0  0  0  0
 15 17  1  0  0  0  0
 16 15  1  0  0  0  0
 17 18  1  0  0  0  0
 17 10  2  0  0  0  0
 19 22  1  0  0  0  0
 19  5  1  0  0  0  0
 19 20  1  0  0  0  0
 21 19  1  0  0  0  0
 22 23  1  0  0  0  0
 24 22  1  0  0  0  0
 25 22  1  0  0  0  0
 26 27  1  0  0  0  0
 26  2  1  0  0  0  0
 28 29  1  0  0  0  0
 28 26  1  0  0  0  0
 29  6  1  0  0  0  0
 30  7  1  0  0  0  0
 30 29  2  0  0  0  0
 31 30  1  0  0  0  0
 32 31  1  0  0  0  0
 33 31  2  0  0  0  0
 33 35  1  0  0  0  0
 34 33  1  0  0  0  0
 35 36  1  0  0  0  0
 35 28  2  0  0  0  0
 37 40  1  0  0  0  0
 37  7  1  0  0  0  0
 37 38  1  0  0  0  0
 39 37  1  0  0  0  0
 40 41  1  0  0  0  0
 42 40  1  0  0  0  0
 43 40  1  0  0  0  0
 44 47  1  0  0  0  0
 45 44  1  0  0  0  0
 46 44  1  0  0  0  0
 47 50  1  0  0  0  0
 47 48  1  0  0  0  0
 47 49  1  0  0  0  0
 50 52  1  0  0  0  0
 51 50  1  0  0  0  0
 53 56  1  0  0  0  0
 54 53  1  0  0  0  0
 55 53  1  0  0  0  0
 56 58  1  0  0  0  0
 56 59  1  0  0  0  0
 56 57  1  0  0  0  0
 59 60  1  0  0  0  0
 61 59  1  0  0  0  0
 62 63  1  0  0  0  0
 64 62  1  0  0  0  0
 65 62  1  0  0  0  0
M  CHG  2   4  -1   6  -1
M  END
