1,3,4,6
q = -2.0, confidence = 0.814

 45 47  0  0  1  0  0  0  0  0999 V2000
    0.0019    1.1272    0.1537 N   0  0  0  0  0  2  0  0  0  0  0  0
    1.9586   -0.5032   -0.4813 N   0  0  0  0  0  0  0  0  0  0  0  0
   -1.9594   -0.6102    0.3423 N   0  0  0  0  0  0  0  0  0  0  0  0
   -0.3232   -0.4498   -1.9295 O   0  5  0  0  0  0  0  0  0  0  0  0
    0.7322   -0.0022   -3.8654 O   0  0  0  0  0  0  0  0  0  0  0  0
    0.3132   -0.9761    1.7598 O   0  5  0  0  0  0  0  0  0  0  0  0
   -0.7484   -0.9984    3.7465 O   0  0  0  0  0  0  0  0  0  0  0  0
   -1.1793    1.7533    0.3383 C   0  0  1  0  0  3  0  0  0  0  0  0
   -1.2094    3.1409    0.5211 C   0  0  0  0  0  0  0  0  0  0  0  0
   -0.0016    3.8542    0.4783 C   0  0  0  0  0  0  0  0  0  0  0  0
    1.2074    3.1746    0.2648 C   0  0  0  0  0  0  0  0  0  0  0  0
    1.1811    1.7831    0.1131 C   0  0  0  0  0  0  0  0  0  0  0  0
    2.3788    0.8937   -0.0359 C   0  0  1  0  0  0  0  0  0  0  0  0
    3.1780    0.6755    1.2613 C   0  0  0  0  0  0  0  0  0  0  0  0
    3.9252   -0.6210    0.9470 C   0  0  0  0  0  0  0  0  0  0  0  0
    2.8320   -1.4700    0.3004 C   0  0  0  0  0  0  0  0  0  0  0  0
    2.0561   -0.6795   -1.9582 C   0  0  0  0  0  0  0  0  0  0  0  0
    0.7543   -0.3055   -2.6893 C   0  0  0  0  0  0  0  0  0  0  0  0
   -2.3780    0.8556    0.2565 C   0  0  1  0  0  0  0  0  0  0  0  0
   -3.1767    0.9675   -1.0544 C   0  0  0  0  0  0  0  0  0  0  0  0
   -3.9211   -0.3683   -1.0784 C   0  0  0  0  0  0  0  0  0  0  0  0
   -2.8224   -1.3470   -0.6653 C   0  0  0  0  0  0  0  0  0  0  0  0
   -2.0731   -1.1388    1.7311 C   0  0  0  0  0  0  0  0  0  0  0  0
   -0.7631   -0.9947    2.5319 C   0  0  0  0  0  0  0  0  0  0  0  0
   -2.1675    3.6533    0.6865 H   0  0  0  0  0  0  0  0  0  0  0  0
   -0.0029    4.9461    0.6098 H   0  0  0  0  0  0  0  0  0  0  0  0
    2.1639    3.7141    0.2203 H   0  0  0  0  0  0  0  0  0  0  0  0
    3.0567    1.3102   -0.8125 H   0  0  0  0  0  0  0  0  0  0  0  0
    2.4786    0.5284    2.1087 H   0  0  0  0  0  0  0  0  0  0  0  0
    3.8359    1.5370    1.4832 H   0  0  0  0  0  0  0  0  0  0  0  0
    4.7591   -0.4320    0.2398 H   0  0  0  0  0  0  0  0  0  0  0  0
    4.3459   -1.1073    1.8473 H   0  0  0  0  0  0  0  0  0  0  0  0
    3.2061   -2.2557   -0.3797 H   0  0  0  0  0  0  0  0  0  0  0  0
    2.2054   -1.9307    1.0844 H   0  0  0  0  0  0  0  0  0  0  0  0
    2.9159   -0.1224   -2.3819 H   0  0  0  0  0  0  0  0  0  0  0  0
    2.2209   -1.7557   -2.1644 H   0  0  0  0  0  0  0  0  0  0  0  0
   -3.0570    1.0648    1.1117 H   0  0  0  0  0  0  0  0  0  0  0  0
   -2.4771    1.0409   -1.9108 H   0  0  0  0  0  0  0  0  0  0  0  0
   -3.8390    1.8538   -1.0521 H   0  0  0  0  0  0  0  0  0  0  0  0
   -4.3405   -0.6136   -2.0724 H   0  0  0  0  0  0  0  0  0  0  0  0
   -4.7542   -0.3696   -0.3455 H   0  0  0  0  0  0  0  0  0  0  0  0
   -3.1991   -2.2833   -0.2133 H   0  0  0  0  0  0  0  0  0  0  0  0
   -2.1923   -1.5737   -1.5462 H   0  0  0  0  0  0  0  0  0  0  0  0
   -2.9155   -0.6730    2.2812 H   0  0  0  0  0  0  0  0  0  0  0  0
   -2.2870   -2.2261    1.6781 H   0  0  0  0  0  0  0  0  0  0  0  0
  2 13  1  0  0  0  0
  2 16  1  0  0  0  0
  3 23  1  0  0  0  0
  5 18  2  0  0  0  0
  6 24  1  0  0  0  0
  8  1  1  6  0  0  0
  8  9  1  0  0  0  0
  9 25  1  0  0  0  0
 10  9  2  0  0  0  0
 10 26  1  0  0  0  0
 11 10  1  0  0  0  0
 12  1  1  0  0  0  0
 12 11  2  0  0  0  0
 13 28  1  6  0  0  0
 13 12  1  0  0  0  0
 13 14  1  0  0  0  0
 14 30  1  0  0  0  0
 14 29  1  0  0  0  0
 15 14  1  0  0  0  0
 15 32  1  0  0  0  0
 16 15  1  0  0  0  0
 16 34  1  0  0  0  0
 17  2  1  0  0  0  0
 18 17  1  0  0  0  0
 18  4  1  0  0  0  0
 19  8  1  0  0  0  0
 19  3  1  0  0  0  0
 19 37  1  1  0  0  0
 20 39  1  0  0  0  0
 20 19  1  0  0  0  0
 21 20  1  0  0  0  0
 21 22  1  0  0  0  0
 21 41  1  0  0  0  0
 22 42  1  0  0  0  0
 22  3  1  0  0  0  0
 23 44  1  0  0  0  0
 23 24  1  0  0  0  0
 24  7  2  0  0  0  0
 27 11  1  0  0  0  0
 31 15  1  0  0  0  0
 33 16  1  0  0  0  0
 35 17  1  0  0  0  0
 36 17  1  0  0  0  0
 38 20  1  0  0  0  0
 40 21  1  0  0  0  0
 43 22  1  0  0  0  0
 45 23  1  0  0  0  0
M  CHG  2   4  -1   6  -1
M  END
