1,2,3,4,5
q = -2.0, confidence = 0.926

 46 47  0  0  0  0  0  0  0  0999 V2000
   -0.8635   -0.2710   -1.3821 O   0  5  0  0  0  0  0  0  0  0  0  0
    1.8366   -1.0568    0.8718 O   0  5  0  0  0  0  0  0  0  0  0  0
   -1.2636   -1.4685    1.3646 N   0  0  0  0  0  0  0  0  0  0  0  0
    1.1105    1.5562   -0.4815 N   0  0  0  0  0  0  0  0  0  0  0  0
   -0.5362    1.2450    1.7848 N   0  0  0  0  0  0  0  0  0  0  0  0
   -2.1799   -0.2773   -1.3432 C   0  0  0  0  0  0  0  0  0  0  0  0
   -2.9419    0.6115   -2.1577 C   0  0  0  0  0  0  0  0  0  0  0  0
   -4.3394    0.6414   -2.0990 C   0  0  0  0  0  0  0  0  0  0  0  0
   -5.0439   -0.2149   -1.2322 C   0  0  0  0  0  0  0  0  0  0  0  0
   -4.3162   -1.1105   -0.4335 C   0  0  0  0  0  0  0  0  0  0  0  0
   -2.9122   -1.1615   -0.4769 C   0  0  0  0  0  0  0  0  0  0  0  0
   -2.1367   -2.1388    0.3612 C   0  0  0  0  0  0  0  0  0  0  0  0
   -1.9701   -0.6452    2.3627 C   0  0  0  0  0  0  0  0  0  0  0  0
   -1.9316    0.8459    2.0002 C   0  0  0  0  0  0  0  0  0  0  0  0
   -0.2682    2.6068    1.2882 C   0  0  0  0  0  0  0  0  0  0  0  0
    0.1343    2.6076   -0.1992 C   0  0  0  0  0  0  0  0  0  0  0  0
    2.4548    1.6834    0.1119 C   0  0  0  0  0  0  0  0  0  0  0  0
    3.3302    0.5067   -0.2348 C   0  0  0  0  0  0  0  0  0  0  0  0
    4.5321    0.6986   -0.9401 C   0  0  0  0  0  0  0  0  0  0  0  0
    5.4005   -0.3655   -1.2214 C   0  0  0  0  0  0  0  0  0  0  0  0
    5.0526   -1.6546   -0.7788 C   0  0  0  0  0  0  0  0  0  0  0  0
    3.8600   -1.8726   -0.0828 C   0  0  0  0  0  0  0  0  0  0  0  0
    2.9549   -0.8120    0.2039 C   0  0  0  0  0  0  0  0  0  0  0  0
   -2.3863    1.2723   -2.8415 H   0  0  0  0  0  0  0  0  0  0  0  0
   -4.8924    1.3452   -2.7417 H   0  0  0  0  0  0  0  0  0  0  0  0
   -6.1424   -0.1918   -1.1883 H   0  0  0  0  0  0  0  0  0  0  0  0
   -4.8500   -1.8023    0.2408 H   0  0  0  0  0  0  0  0  0  0  0  0
   -2.8368   -2.8439    0.8656 H   0  0  0  0  0  0  0  0  0  0  0  0
   -1.4534   -2.7335   -0.2828 H   0  0  0  0  0  0  0  0  0  0  0  0
   -0.6799   -2.1735    1.8309 H   0  0  0  0  0  0  0  0  0  0  0  0
   -3.0288   -0.9655    2.4792 H   0  0  0  0  0  0  0  0  0  0  0  0
   -1.4762   -0.7893    3.3479 H   0  0  0  0  0  0  0  0  0  0  0  0
   -2.4299    1.4369    2.8047 H   0  0  0  0  0  0  0  0  0  0  0  0
   -2.4968    1.0157    1.0611 H   0  0  0  0  0  0  0  0  0  0  0  0
    0.0096    1.0694    2.6369 H   0  0  0  0  0  0  0  0  0  0  0  0
   -1.1478    3.2710    1.4308 H   0  0  0  0  0  0  0  0  0  0  0  0
    0.5521    3.0403    1.8949 H   0  0  0  0  0  0  0  0  0  0  0  0
   -0.7536    2.3932   -0.8293 H   0  0  0  0  0  0  0  0  0  0  0  0
    0.5024    3.6284   -0.4631 H   0  0  0  0  0  0  0  0  0  0  0  0
    1.1663    1.3756   -1.4917 H   0  0  0  0  0  0  0  0  0  0  0  0
    2.9475    2.6373   -0.1915 H   0  0  0  0  0  0  0  0  0  0  0  0
    2.3203    1.7244    1.2170 H   0  0  0  0  0  0  0  0  0  0  0  0
    4.7948    1.7198   -1.2653 H   0  0  0  0  0  0  0  0  0  0  0  0
    6.3356   -0.1922   -1.7738 H   0  0  0  0  0  0  0  0  0  0  0  0
    5.7220   -2.5051   -0.9853 H   0  0  0  0  0  0  0  0  0  0  0  0
    3.5772   -2.8786    0.2631 H   0  0  0  0  0  0  0  0  0  0  0  0
  1  6  1  0  0  0  0
  3 30  1  0  0  0  0
  3 13  1  0  0  0  0
  4 16  1  0  0  0  0
  4 17  1  0  0  0  0
  5 14  1  0  0  0  0
  5 35  1  0  0  0  0
  6 11  1  0  0  0  0
  7  8  1  0  0  0  0
  7  6  2  0  0  0  0
  8  9  2  0  0  0  0
  9 26  1  0  0  0  0
  9 10  1  0  0  0  0
 10 27  1  0  0  0  0
 11 10  2  0  0  0  0
 11 12  1  0  0  0  0
 12 28  1  0  0  0  0
 12  3  1  0  0  0  0
 13 31  1  0  0  0  0
 13 32  1  0  0  0  0
 14 13  1  0  0  0  0
 14 33  1  0  0  0  0
 15 36  1  0  0  0  0
 15  5  1  0  0  0  0
 15 37  1  0  0  0  0
 16 15  1  0  0  0  0
 17 42  1  0  0  0  0
 18 17  1  0  0  0  0
 18 23  1  0  0  0  0
 19 18  2  0  0  0  0
 20 19  1  0  0  0  0
 20 21  2  0  0  0  0
 21 22  1  0  0  0  0
 22 23  2  0  0  0  0
 22 46  1  0  0  0  0
 23  2  1  0  0  0  0
 24  7  1  0  0  0  0
 25  8  1  0  0  0  0
 29 12  1  0  0  0  0
 34 14  1  0  0  0  0
 38 16  1  0  0  0  0
 39 16  1  0  0  0  0
 40  4  1  0  0  0  0
 41 17  1  0  0  0  0
 43 19  1  0  0  0  0
 44 20  1  0  0  0  0
 45 21  1  0  0  0  0
M  CHG  2   1  -1   2  -1
M  END
