1,2,3,4,6
q = -2.0, confidence = 0.86

 56 57  0  0  1  0  0  0  0  0999 V2000
   -0.0862   -0.2686    0.7882 O   0  5  0  0  0  0  0  0  0  0  0  0
    0.3155   -0.8729   -1.6968 O   0  5  0  0  0  0  0  0  0  0  0  0
   -2.7720    0.3029    0.2380 N   0  0  0  0  0  2  0  0  0  0  0  0
   -2.4845   -0.4807   -2.2429 N   0  0  0  0  0  0  0  0  0  0  0  0
   -1.9699   -0.3554   -3.1250 H   0  0  0  0  0  0  0  0  0  0  0  0
   -1.6667   -2.1701   -0.3887 N   0  0  0  0  0  2  0  0  0  0  0  0
    1.8641   -0.9122    2.5722 C   0  0  0  0  0  0  0  0  0  0  0  0
    1.9659   -1.2017    1.5174 H   0  0  0  0  0  0  0  0  0  0  0  0
    2.9265   -1.0816    3.4672 C   0  0  0  0  0  0  0  0  0  0  0  0
    3.8779   -1.5051    3.1113 H   0  0  0  0  0  0  0  0  0  0  0  0
    2.7800   -0.7137    4.8149 C   0  0  0  0  0  0  0  0  0  0  0  0
    3.6155   -0.8458    5.5187 H   0  0  0  0  0  0  0  0  0  0  0  0
    1.5638   -0.1703    5.2613 C   0  0  0  0  0  0  0  0  0  0  0  0
    1.4473    0.1305    6.3131 H   0  0  0  0  0  0  0  0  0  0  0  0
    0.4981    0.0003    4.3693 C   0  0  0  0  0  0  0  0  0  0  0  0
   -0.4364    0.4521    4.7313 H   0  0  0  0  0  0  0  0  0  0  0  0
    0.6316   -0.3754    3.0132 C   0  0  0  0  0  0  0  0  0  0  0  0
   -0.4709   -0.2112    2.0252 C   0  0  0  0  0  0  0  0  0  0  0  0
   -1.7980    0.0134    2.4310 C   0  0  0  0  0  0  0  0  0  0  0  0
   -2.0148    0.0035    3.5044 H   0  0  0  0  0  0  0  0  0  0  0  0
   -2.8817    0.3142    1.5665 C   0  0  1  0  0  3  0  0  0  0  0  0
   -4.2070    0.6836    2.1903 C   0  0  0  0  0  0  0  0  0  0  0  0
   -4.5017    1.7193    1.9204 H   0  0  0  0  0  0  0  0  0  0  0  0
   -4.1621    0.6187    3.2912 H   0  0  0  0  0  0  0  0  0  0  0  0
   -5.0217    0.0186    1.8353 H   0  0  0  0  0  0  0  0  0  0  0  0
   -3.9106    0.6455   -0.6079 C   0  0  0  0  0  0  0  0  0  0  0  0
   -4.3313    1.6460   -0.3642 H   0  0  0  0  0  0  0  0  0  0  0  0
   -4.7503   -0.0754   -0.4665 H   0  0  0  0  0  0  0  0  0  0  0  0
   -3.4475    0.6317   -2.0616 C   0  0  0  0  0  0  0  0  0  0  0  0
   -4.3082    0.5408   -2.7589 H   0  0  0  0  0  0  0  0  0  0  0  0
   -2.9188    1.5726   -2.3096 H   0  0  0  0  0  0  0  0  0  0  0  0
   -3.0989   -1.8470   -2.2435 C   0  0  0  0  0  0  0  0  0  0  0  0
   -2.4962   -2.4740   -2.9286 H   0  0  0  0  0  0  0  0  0  0  0  0
   -4.1382   -1.8059   -2.6335 H   0  0  0  0  0  0  0  0  0  0  0  0
   -3.0204   -2.4475   -0.8313 C   0  0  0  0  0  0  0  0  0  0  0  0
   -3.7616   -1.9821   -0.1511 H   0  0  0  0  0  0  0  0  0  0  0  0
   -3.2489   -3.5310   -0.8768 H   0  0  0  0  0  0  0  0  0  0  0  0
   -1.1810   -4.5355    0.0961 C   0  0  0  0  0  0  0  0  0  0  0  0
   -2.0457   -4.5528    0.7870 H   0  0  0  0  0  0  0  0  0  0  0  0
   -0.3434   -5.0814    0.5680 H   0  0  0  0  0  0  0  0  0  0  0  0
   -1.4566   -5.1004   -0.8199 H   0  0  0  0  0  0  0  0  0  0  0  0
   -0.7504   -3.1249   -0.2402 C   0  0  1  0  0  3  0  0  0  0  0  0
    0.6300   -2.8829   -0.4547 C   0  0  0  0  0  0  0  0  0  0  0  0
    1.3316   -3.6738   -0.1685 H   0  0  0  0  0  0  0  0  0  0  0  0
    1.0907   -1.8179   -1.2485 C   0  0  0  0  0  0  0  0  0  0  0  0
    2.5139   -1.7343   -1.6763 C   0  0  0  0  0  0  0  0  0  0  0  0
    3.5346   -2.4857   -1.0488 C   0  0  0  0  0  0  0  0  0  0  0  0
    3.2944   -3.1640   -0.2177 H   0  0  0  0  0  0  0  0  0  0  0  0
    4.8678   -2.3541   -1.4558 C   0  0  0  0  0  0  0  0  0  0  0  0
    5.6515   -2.9384   -0.9512 H   0  0  0  0  0  0  0  0  0  0  0  0
    5.2054   -1.4794   -2.5019 C   0  0  0  0  0  0  0  0  0  0  0  0
    6.2532   -1.3821   -2.8230 H   0  0  0  0  0  0  0  0  0  0  0  0
    4.2006   -0.7280   -3.1332 C   0  0  0  0  0  0  0  0  0  0  0  0
    4.4594   -0.0422   -3.9539 H   0  0  0  0  0  0  0  0  0  0  0  0
    2.8690   -0.8492   -2.7199 C   0  0  0  0  0  0  0  0  0  0  0  0
    2.0762   -0.2630   -3.2050 H   0  0  0  0  0  0  0  0  0  0  0  0
  1 18  1  0  0  0  0
  2 45  1  0  0  0  0
  4 29  1  0  0  0  0
  5  4  1  0  0  0  0
  6 42  1  0  0  0  0
  7 17  2  0  0  0  0
  7  9  1  0  0  0  0
  8  7  1  0  0  0  0
  9 11  2  0  0  0  0
 10  9  1  0  0  0  0
 11 13  1  0  0  0  0
 11 12  1  0  0  0  0
 13 14  1  0  0  0  0
 15 16  1  0  0  0  0
 15 13  2  0  0  0  0
 17 15  1  0  0  0  0
 18 19  2  0  0  0  0
 18 17  1  0  0  0  0
 19 20  1  0  0  0  0
 21  3  1  6  0  0  0
 21 22  1  0  0  0  0
 21 19  1  0  0  0  0
 22 24  1  0  0  0  0
 23 22  1  0  0  0  0
 25 22  1  0  0  0  0
 26 28  1  0  0  0  0
 26 27  1  0  0  0  0
 26  3  1  0  0  0  0
 29 26  1  0  0  0  0
 30 29  1  0  0  0  0
 31 29  1  0  0  0  0
 32  4  1  0  0  0  0
 32 35  1  0  0  0  0
 33 32  1  0  0  0  0
 34 32  1  0  0  0  0
 35  6  1  0  0  0  0
 35 36  1  0  0  0  0
 37 35  1  0  0  0  0
 38 40  1  0  0  0  0
 38 39  1  0  0  0  0
 41 38  1  0  0  0  0
 42 43  1  6  0  0  0
 42 38  1  0  0  0  0
 43 44  1  0  0  0  0
 45 43  2  0  0  0  0
 46 45  1  0  0  0  0
 46 47  1  0  0  0  0
 47 48  1  0  0  0  0
 49 47  2  0  0  0  0
 49 50  1  0  0  0  0
 51 49  1  0  0  0  0
 52 51  1  0  0  0  0
 53 55  1  0  0  0  0
 53 51  2  0  0  0  0
 54 53  1  0  0  0  0
 55 46  2  0  0  0  0
 56 55  1  0  0  0  0
M  CHG  2   1  -1   2  -1
M  END
