1,2,3,4,5
 OpenBabel05122313063D

 48 49  0  0  0  0  0  0  0  0999 V2000
   -1.6081   -0.1044    1.0600 O   0  5  0  0  0  0  0  0  0  0  0  0
    0.0952    1.4179   -0.4174 O   0  5  0  0  0  0  0  0  0  0  0  0
   -1.0859   -0.5795   -1.5998 N   0  0  0  0  0  2  0  0  0  0  0  0
   -0.1893   -2.4258    0.2884 N   0  0  0  0  0  0  0  0  0  0  0  0
    0.9699   -0.1938    1.6357 N   0  0  0  0  0  2  0  0  0  0  0  0
   -2.6097    0.6144    0.6315 C   0  0  0  0  0  0  0  0  0  0  0  0
   -3.4680    1.2419    1.5839 C   0  0  0  0  0  0  0  0  0  0  0  0
   -4.5678    1.9940    1.1804 C   0  0  0  0  0  0  0  0  0  0  0  0
   -4.8850    2.1521   -0.1894 C   0  0  0  0  0  0  0  0  0  0  0  0
   -4.0814    1.5283   -1.1387 C   0  0  0  0  0  0  0  0  0  0  0  0
   -2.9443    0.7668   -0.7624 C   0  0  0  0  0  0  0  0  0  0  0  0
   -2.2142    0.0487   -1.7692 C   0  0  0  0  0  3  0  0  0  0  0  0
   -0.5527   -1.4184   -2.6587 C   0  0  0  0  0  0  0  0  0  0  0  0
   -0.3850   -2.8794   -2.1589 C   0  0  0  0  0  0  0  0  0  0  0  0
   -0.9520   -3.1255   -0.7596 C   0  0  0  0  0  0  0  0  0  0  0  0
   -0.5920   -2.8287    1.6443 C   0  0  0  0  0  0  0  0  0  0  0  0
    0.4569   -2.4129    2.6709 C   0  0  0  0  0  0  0  0  0  0  0  0
    0.5724   -0.9015    2.8460 C   0  0  0  0  0  0  0  0  0  0  0  0
    1.9010    0.7181    1.7243 C   0  0  0  0  0  3  0  0  0  0  0  0
    2.1938    1.7297    0.7507 C   0  0  0  0  0  0  0  0  0  0  0  0
    3.3714    2.5131    0.8825 C   0  0  0  0  0  0  0  0  0  0  0  0
    3.6135    3.6036    0.0538 C   0  0  0  0  0  0  0  0  0  0  0  0
    2.6371    3.9562   -0.9106 C   0  0  0  0  0  0  0  0  0  0  0  0
    1.4636    3.2237   -1.0529 C   0  0  0  0  0  0  0  0  0  0  0  0
    1.2067    2.0680   -0.2502 C   0  0  0  0  0  0  0  0  0  0  0  0
    0.8460   -2.6507    0.1703 H   0  0  0  0  0  0  0  0  0  0  0  0
   -3.2182    1.1193    2.6479 H   0  0  0  0  0  0  0  0  0  0  0  0
   -5.1974    2.4772    1.9443 H   0  0  0  0  0  0  0  0  0  0  0  0
   -5.7546    2.7506   -0.4963 H   0  0  0  0  0  0  0  0  0  0  0  0
   -4.3186    1.6183   -2.2114 H   0  0  0  0  0  0  0  0  0  0  0  0
   -2.6804   -0.0047   -2.7756 H   0  0  0  0  0  0  0  0  0  0  0  0
    2.4830    0.7567    2.6693 H   0  0  0  0  0  0  0  0  0  0  0  0
    0.7026    3.4945   -1.7990 H   0  0  0  0  0  0  0  0  0  0  0  0
    2.8088    4.8270   -1.5634 H   0  0  0  0  0  0  0  0  0  0  0  0
    4.5362    4.1926    0.1555 H   0  0  0  0  0  0  0  0  0  0  0  0
    4.0973    2.2393    1.6658 H   0  0  0  0  0  0  0  0  0  0  0  0
   -1.2316   -1.3778   -3.5378 H   0  0  0  0  0  0  0  0  0  0  0  0
    0.4303   -1.0058   -2.9569 H   0  0  0  0  0  0  0  0  0  0  0  0
    0.6853   -3.1668   -2.1581 H   0  0  0  0  0  0  0  0  0  0  0  0
   -0.8965   -3.5726   -2.8565 H   0  0  0  0  0  0  0  0  0  0  0  0
   -2.0154   -2.8115   -0.6954 H   0  0  0  0  0  0  0  0  0  0  0  0
   -0.9240   -4.2192   -0.5491 H   0  0  0  0  0  0  0  0  0  0  0  0
   -0.7155   -3.9360    1.6677 H   0  0  0  0  0  0  0  0  0  0  0  0
   -1.5769   -2.3716    1.8748 H   0  0  0  0  0  0  0  0  0  0  0  0
    0.1819   -2.8512    3.6522 H   0  0  0  0  0  0  0  0  0  0  0  0
    1.4442   -2.8343    2.3860 H   0  0  0  0  0  0  0  0  0  0  0  0
   -0.4199   -0.4938    3.1376 H   0  0  0  0  0  0  0  0  0  0  0  0
    1.2887   -0.6637    3.6630 H   0  0  0  0  0  0  0  0  0  0  0  0
  2 25  1  0  0  0  0
  4 16  1  0  0  0  0
  5 19  1  0  0  0  0
  5 18  1  0  0  0  0
  6  1  1  0  0  0  0
  6  7  1  0  0  0  0
  7 27  1  0  0  0  0
  8  7  2  0  0  0  0
  8 28  1  0  0  0  0
  9  8  1  0  0  0  0
 10 11  1  0  0  0  0
 10  9  2  0  0  0  0
 11  6  2  0  0  0  0
 12  3  1  0  0  0  0
 12 11  1  0  0  0  0
 13 14  1  0  0  0  0
 13  3  1  0  0  0  0
 14 39  1  0  0  0  0
 14 15  1  0  0  0  0
 15 41  1  0  0  0  0
 15 42  1  0  0  0  0
 15  4  1  0  0  0  0
 16 43  1  0  0  0  0
 16 44  1  0  0  0  0
 16 17  1  0  0  0  0
 17 18  1  0  0  0  0
 17 45  1  0  0  0  0
 18 47  1  0  0  0  0
 18 48  1  0  0  0  0
 19 32  1  0  0  0  0
 20 21  1  0  0  0  0
 20 19  1  0  0  0  0
 21 36  1  0  0  0  0
 22 35  1  0  0  0  0
 22 21  2  0  0  0  0
 23 22  1  0  0  0  0
 24 23  2  0  0  0  0
 24 25  1  0  0  0  0
 25 20  2  0  0  0  0
 26  4  1  0  0  0  0
 29  9  1  0  0  0  0
 30 10  1  0  0  0  0
 31 12  1  0  0  0  0
 33 24  1  0  0  0  0
 34 23  1  0  0  0  0
 37 13  1  0  0  0  0
 38 13  1  0  0  0  0
 40 14  1  0  0  0  0
 46 17  1  0  0  0  0
M  CHG  2   1  -1   2  -1
M  END
