1,2,3,4,5
 OpenBabel05122313063D

 51 52  0  0  0  0  0  0  0  0999 V2000
   -1.6821    0.4840   -0.9960 O   0  5  0  0  0  0  0  0  0  0  0  0
    1.6547    0.2654    0.9022 O   0  5  0  0  0  0  0  0  0  0  0  0
   -0.9950    0.0204    1.6092 N   0  0  0  0  0  2  0  0  0  0  0  0
   -0.1406    2.4590    0.4336 N   0  0  0  0  0  0  0  0  0  0  0  0
    0.9187    0.7625   -1.6529 N   0  0  0  0  0  2  0  0  0  0  0  0
   -2.6928   -0.3092   -0.7782 C   0  0  0  0  0  0  0  0  0  0  0  0
   -3.6256   -0.5590   -1.8294 C   0  0  0  0  0  0  0  0  0  0  0  0
   -3.4206   -0.1041   -2.8093 H   0  0  0  0  0  0  0  0  0  0  0  0
   -4.7372   -1.3717   -1.6287 C   0  0  0  0  0  0  0  0  0  0  0  0
   -5.4227   -1.5604   -2.4700 H   0  0  0  0  0  0  0  0  0  0  0  0
   -4.9966   -1.9659   -0.3701 C   0  0  0  0  0  0  0  0  0  0  0  0
   -5.8760   -2.6097   -0.2274 H   0  0  0  0  0  0  0  0  0  0  0  0
   -4.1215   -1.7164    0.6809 C   0  0  0  0  0  0  0  0  0  0  0  0
   -4.3093   -2.1525    1.6756 H   0  0  0  0  0  0  0  0  0  0  0  0
   -2.9687   -0.9048    0.5061 C   0  0  0  0  0  0  0  0  0  0  0  0
   -2.1567   -0.5778    1.6401 C   0  0  0  0  0  3  0  0  0  0  0  0
   -2.5716   -0.8315    2.6383 H   0  0  0  0  0  0  0  0  0  0  0  0
   -0.3948    0.4643    2.8579 C   0  0  0  0  0  0  0  0  0  0  0  0
    0.6504    0.0994    2.8892 H   0  0  0  0  0  0  0  0  0  0  0  0
   -0.9499    0.0366    3.7209 H   0  0  0  0  0  0  0  0  0  0  0  0
   -0.3949    1.9940    2.9411 C   0  0  0  0  0  0  0  0  0  0  0  0
    0.0919    2.2940    3.8925 H   0  0  0  0  0  0  0  0  0  0  0  0
   -1.4389    2.3685    2.9995 H   0  0  0  0  0  0  0  0  0  0  0  0
    0.3758    2.6818    1.8164 C   0  0  0  0  0  0  0  0  0  0  0  0
    0.3915    3.7816    2.0028 H   0  0  0  0  0  0  0  0  0  0  0  0
    1.4203    2.3164    1.8173 H   0  0  0  0  0  0  0  0  0  0  0  0
   -1.5205    2.9640    0.3064 C   0  0  0  0  0  0  0  0  0  0  0  0
   -1.5597    4.0498    0.5536 H   0  0  0  0  0  0  0  0  0  0  0  0
   -1.8920    2.7917   -0.7164 H   0  0  0  0  0  0  0  0  0  0  0  0
   -2.1903    2.4087    0.9847 H   0  0  0  0  0  0  0  0  0  0  0  0
    0.7724    3.1939   -0.4847 C   0  0  0  0  0  0  0  0  0  0  0  0
    1.7802    2.7677   -0.3147 H   0  0  0  0  0  0  0  0  0  0  0  0
    0.8081    4.2627   -0.1660 H   0  0  0  0  0  0  0  0  0  0  0  0
    0.4351    3.1413   -1.9769 C   0  0  0  0  0  0  0  0  0  0  0  0
    1.2695    3.6702   -2.4829 H   0  0  0  0  0  0  0  0  0  0  0  0
   -0.4776    3.7303   -2.1991 H   0  0  0  0  0  0  0  0  0  0  0  0
    0.2911    1.7103   -2.5535 C   0  0  0  0  0  0  0  0  0  0  0  0
   -0.7752    1.4289   -2.6331 H   0  0  0  0  0  0  0  0  0  0  0  0
    0.7511    1.6509   -3.5631 H   0  0  0  0  0  0  0  0  0  0  0  0
    2.0724    0.2395   -1.9484 C   0  0  0  0  0  3  0  0  0  0  0  0
    2.4669    0.4063   -2.9729 H   0  0  0  0  0  0  0  0  0  0  0  0
    2.9220   -0.4685   -1.0300 C   0  0  0  0  0  0  0  0  0  0  0  0
    4.0727   -1.1431   -1.5089 C   0  0  0  0  0  0  0  0  0  0  0  0
    4.2268   -1.2074   -2.5981 H   0  0  0  0  0  0  0  0  0  0  0  0
    4.9920   -1.7182   -0.6351 C   0  0  0  0  0  0  0  0  0  0  0  0
    5.8708   -2.2550   -1.0197 H   0  0  0  0  0  0  0  0  0  0  0  0
    4.7795   -1.5922    0.7559 C   0  0  0  0  0  0  0  0  0  0  0  0
    5.5013   -2.0351    1.4602 H   0  0  0  0  0  0  0  0  0  0  0  0
    3.6640   -0.9227    1.2571 C   0  0  0  0  0  0  0  0  0  0  0  0
    3.4980   -0.8273    2.3403 H   0  0  0  0  0  0  0  0  0  0  0  0
    2.6878   -0.3588    0.3862 C   0  0  0  0  0  0  0  0  0  0  0  0
  1  6  1  0  0  0  0
  3 16  1  0  0  0  0
  3 18  1  0  0  0  0
  4 24  1  0  0  0  0
  6 15  1  0  0  0  0
  7  9  1  0  0  0  0
  7  6  2  0  0  0  0
  8  7  1  0  0  0  0
  9 11  2  0  0  0  0
 10  9  1  0  0  0  0
 11 12  1  0  0  0  0
 11 13  1  0  0  0  0
 13 14  1  0  0  0  0
 15 13  2  0  0  0  0
 15 16  1  0  0  0  0
 16 17  1  0  0  0  0
 18 19  1  0  0  0  0
 18 21  1  0  0  0  0
 18 20  1  0  0  0  0
 21 23  1  0  0  0  0
 21 22  1  0  0  0  0
 24 26  1  0  0  0  0
 24 25  1  0  0  0  0
 24 21  1  0  0  0  0
 27  4  1  0  0  0  0
 27 28  1  0  0  0  0
 27 30  1  0  0  0  0
 29 27  1  0  0  0  0
 31 32  1  0  0  0  0
 31 33  1  0  0  0  0
 31  4  1  0  0  0  0
 34 31  1  0  0  0  0
 35 34  1  0  0  0  0
 36 34  1  0  0  0  0
 37 34  1  0  0  0  0
 37  5  1  0  0  0  0
 38 37  1  0  0  0  0
 39 37  1  0  0  0  0
 40  5  1  0  0  0  0
 40 42  1  0  0  0  0
 41 40  1  0  0  0  0
 42 51  1  0  0  0  0
 43 42  2  0  0  0  0
 43 45  1  0  0  0  0
 44 43  1  0  0  0  0
 45 47  2  0  0  0  0
 46 45  1  0  0  0  0
 47 49  1  0  0  0  0
 47 48  1  0  0  0  0
 49 50  1  0  0  0  0
 51  2  1  0  0  0  0
 51 49  2  0  0  0  0
M  CHG  2   1  -1   2  -1
M  END
