2,6,7,45,48
 OpenBabel05122313063D

 74 78  0  0  1  0  0  0  0  0999 V2000
    6.8616   -0.6093   -0.0959 S   0  0  0  0  0  0  0  0  0  0  0  0
    1.2695   -1.0639   -2.0470 O   0  5  0  0  0  0  0  0  0  0  0  0
    7.6598   -1.6289   -0.8044 O   0  0  0  0  0  0  0  0  0  0  0  0
    7.3734    0.7641    0.1125 O   0  0  0  0  0  0  0  0  0  0  0  0
   -0.1206    2.6001    0.2951 N   0  0  0  0  0  0  0  0  0  0  0  0
    0.3719   -0.2039    0.9589 N   0  0  0  0  0  2  0  0  0  0  0  0
    1.9778    1.2316   -0.8695 N   0  0  0  0  0  2  0  0  0  0  0  0
    6.6165   -1.2469    1.4858 N   0  0  0  0  0  0  0  0  0  0  0  0
   -0.1210    2.0898    1.6680 C   0  0  0  0  0  0  0  0  0  0  0  0
    0.2881    2.8405    2.3861 H   0  0  0  0  0  0  0  0  0  0  0  0
    0.5924    0.7625    1.8742 C   0  0  1  0  0  3  0  0  0  0  0  0
    1.3869    0.5169    3.0048 C   0  0  0  0  0  0  0  0  0  0  0  0
    1.5682    1.3210    3.7332 H   0  0  0  0  0  0  0  0  0  0  0  0
    1.9492   -0.7569    3.1802 C   0  0  0  0  0  0  0  0  0  0  0  0
    2.5870   -0.9651    4.0525 H   0  0  0  0  0  0  0  0  0  0  0  0
    1.6938   -1.7547    2.2295 C   0  0  0  0  0  0  0  0  0  0  0  0
    2.1186   -2.7637    2.3269 H   0  0  0  0  0  0  0  0  0  0  0  0
    0.8975   -1.4310    1.1229 C   0  0  0  0  0  0  0  0  0  0  0  0
    0.6781   -2.1506    0.3173 H   0  0  0  0  0  0  0  0  0  0  0  0
    1.0924    3.3260   -0.0613 C   0  0  0  0  0  0  0  0  0  0  0  0
    1.3614    4.1071    0.6920 H   0  0  0  0  0  0  0  0  0  0  0  0
    0.8978    3.8579   -1.0173 H   0  0  0  0  0  0  0  0  0  0  0  0
    2.2569    2.3819   -0.2624 C   0  0  0  0  0  0  0  0  0  0  0  0
    3.5719    2.6945    0.1586 C   0  0  0  0  0  0  0  0  0  0  0  0
    3.7779    3.6665    0.6317 H   0  0  0  0  0  0  0  0  0  0  0  0
    4.5888    1.7678   -0.0230 C   0  0  0  0  0  0  0  0  0  0  0  0
    5.6215    1.9845    0.2825 H   0  0  0  0  0  0  0  0  0  0  0  0
    4.3039    0.5054   -0.6231 C   0  0  0  0  0  0  0  0  0  0  0  0
    2.9484    0.3056   -1.0668 C   0  0  1  0  0  3  0  0  0  0  0  0
    2.5094   -0.9229   -1.7331 C   0  0  0  0  0  0  0  0  0  0  0  0
    3.5127   -1.8964   -1.9747 C   0  0  0  0  0  0  0  0  0  0  0  0
    3.2230   -2.8137   -2.5073 H   0  0  0  0  0  0  0  0  0  0  0  0
    4.8270   -1.7158   -1.5230 C   0  0  0  0  0  0  0  0  0  0  0  0
    5.5808   -2.4966   -1.7038 H   0  0  0  0  0  0  0  0  0  0  0  0
    5.2397   -0.5572   -0.8441 C   0  0  0  0  0  0  0  0  0  0  0  0
    5.9285   -0.3740    2.4209 C   0  0  0  0  0  0  0  0  0  0  0  0
    6.3367    0.6495    2.3361 H   0  0  0  0  0  0  0  0  0  0  0  0
    4.8207   -0.3432    2.2651 H   0  0  0  0  0  0  0  0  0  0  0  0
    6.1223   -0.7360    3.4522 H   0  0  0  0  0  0  0  0  0  0  0  0
    6.2159   -2.6441    1.5302 C   0  0  0  0  0  0  0  0  0  0  0  0
    6.8227   -3.2192    0.8077 H   0  0  0  0  0  0  0  0  0  0  0  0
    6.4190   -3.0400    2.5467 H   0  0  0  0  0  0  0  0  0  0  0  0
    5.1312   -2.7974    1.3025 H   0  0  0  0  0  0  0  0  0  0  0  0
   -7.1399   -0.6798   -0.0270 S   0  0  0  0  0  0  0  0  0  0  0  0
   -1.3908   -1.3123   -1.4710 O   0  5  0  0  0  0  0  0  0  0  0  0
   -7.8612   -1.7668   -0.7184 O   0  0  0  0  0  0  0  0  0  0  0  0
   -7.6334    0.7159   -0.0601 O   0  0  0  0  0  0  0  0  0  0  0  0
   -2.1892    1.0837   -0.6003 N   0  0  0  0  0  2  0  0  0  0  0  0
   -7.1398   -1.1230    1.6342 N   0  0  0  0  0  0  0  0  0  0  0  0
   -1.1800    1.9195    1.9589 H   0  0  0  0  0  0  0  0  0  0  0  0
   -1.3593    3.2867   -0.0618 C   0  0  0  0  0  0  0  0  0  0  0  0
   -1.6281    4.1094    0.6459 H   0  0  0  0  0  0  0  0  0  0  0  0
   -1.2011    3.7640   -1.0529 H   0  0  0  0  0  0  0  0  0  0  0  0
   -2.5038    2.3024   -0.1670 C   0  0  0  0  0  0  0  0  0  0  0  0
   -3.8418    2.6407    0.1495 C   0  0  0  0  0  0  0  0  0  0  0  0
   -4.0827    3.6601    0.4869 H   0  0  0  0  0  0  0  0  0  0  0  0
   -4.8408    1.6847    0.0232 C   0  0  0  0  0  0  0  0  0  0  0  0
   -5.8917    1.9285    0.2302 H   0  0  0  0  0  0  0  0  0  0  0  0
   -4.5177    0.3587   -0.3958 C   0  0  0  0  0  0  0  0  0  0  0  0
   -3.1348    0.1197   -0.7182 C   0  0  1  0  0  3  0  0  0  0  0  0
   -2.6385   -1.1737   -1.2001 C   0  0  0  0  0  0  0  0  0  0  0  0
   -3.6158   -2.1929   -1.3536 C   0  0  0  0  0  0  0  0  0  0  0  0
   -3.2868   -3.1698   -1.7363 H   0  0  0  0  0  0  0  0  0  0  0  0
   -4.9605   -1.9669   -1.0346 C   0  0  0  0  0  0  0  0  0  0  0  0
   -5.6969   -2.7720   -1.1767 H   0  0  0  0  0  0  0  0  0  0  0  0
   -5.4323   -0.7318   -0.5551 C   0  0  0  0  0  0  0  0  0  0  0  0
   -6.5521   -0.1551    2.5447 C   0  0  0  0  0  0  0  0  0  0  0  0
   -6.9168    0.8565    2.2900 H   0  0  0  0  0  0  0  0  0  0  0  0
   -5.4335   -0.1586    2.5346 H   0  0  0  0  0  0  0  0  0  0  0  0
   -6.8865   -0.3907    3.5762 H   0  0  0  0  0  0  0  0  0  0  0  0
   -6.8064   -2.5141    1.9006 C   0  0  0  0  0  0  0  0  0  0  0  0
   -7.3408   -3.1590    1.1799 H   0  0  0  0  0  0  0  0  0  0  0  0
   -7.1538   -2.7718    2.9222 H   0  0  0  0  0  0  0  0  0  0  0  0
   -5.7097   -2.7238    1.8401 H   0  0  0  0  0  0  0  0  0  0  0  0
  1  4  2  0  0  0  0
  1  8  1  0  0  0  0
  2 30  1  0  0  0  0
  3  1  2  0  0  0  0
  5  9  1  0  0  0  0
  6 18  1  0  0  0  0
  6 11  1  0  0  0  0
  7 23  1  0  0  0  0
  8 40  1  0  0  0  0
  8 36  1  0  0  0  0
  9 50  1  0  0  0  0
  9 10  1  0  0  0  0
 11  9  1  1  0  0  0
 11 12  1  0  0  0  0
 12 14  2  0  0  0  0
 12 13  1  0  0  0  0
 14 15  1  0  0  0  0
 16 17  1  0  0  0  0
 16 14  1  0  0  0  0
 18 16  2  0  0  0  0
 19 18  1  0  0  0  0
 20  5  1  0  0  0  0
 20 21  1  0  0  0  0
 22 20  1  0  0  0  0
 23 20  1  0  0  0  0
 23 24  2  0  0  0  0
 24 25  1  0  0  0  0
 26 24  1  0  0  0  0
 26 27  1  0  0  0  0
 28 26  2  0  0  0  0
 29 30  1  1  0  0  0
 29  7  1  0  0  0  0
 29 28  1  0  0  0  0
 31 30  2  0  0  0  0
 31 33  1  0  0  0  0
 32 31  1  0  0  0  0
 33 35  2  0  0  0  0
 34 33  1  0  0  0  0
 35 28  1  0  0  0  0
 35  1  1  0  0  0  0
 36 39  1  0  0  0  0
 37 36  1  0  0  0  0
 38 36  1  0  0  0  0
 40 42  1  0  0  0  0
 41 40  1  0  0  0  0
 43 40  1  0  0  0  0
 44 49  1  0  0  0  0
 45 61  1  0  0  0  0
 46 44  2  0  0  0  0
 47 44  2  0  0  0  0
 48 54  1  0  0  0  0
 49 71  1  0  0  0  0
 49 67  1  0  0  0  0
 51  5  1  0  0  0  0
 51 52  1  0  0  0  0
 53 51  1  0  0  0  0
 54 51  1  0  0  0  0
 54 55  2  0  0  0  0
 55 56  1  0  0  0  0
 57 55  1  0  0  0  0
 57 58  1  0  0  0  0
 59 57  2  0  0  0  0
 60 61  1  6  0  0  0
 60 48  1  0  0  0  0
 60 59  1  0  0  0  0
 62 61  2  0  0  0  0
 62 64  1  0  0  0  0
 63 62  1  0  0  0  0
 64 66  2  0  0  0  0
 65 64  1  0  0  0  0
 66 59  1  0  0  0  0
 66 44  1  0  0  0  0
 67 70  1  0  0  0  0
 68 67  1  0  0  0  0
 69 67  1  0  0  0  0
 71 73  1  0  0  0  0
 72 71  1  0  0  0  0
 74 71  1  0  0  0  0
M  CHG  2   2  -1  45  -1
M  END
