1,3,4,5,6
 OpenBabel05122313063D

 48 49  0  0  1  0  0  0  0  0999 V2000
    1.4185   -0.1347    2.3380 N   0  0  0  0  0  0  0  0  0  0  0  0
    1.8015   -1.0747    2.5054 H   0  0  0  0  0  0  0  0  0  0  0  0
    0.9915    1.7392    0.5302 N   0  0  0  0  0  2  0  0  0  0  0  0
   -1.0919    0.2478    1.5798 N   0  0  0  0  0  2  0  0  0  0  0  0
    0.0105   -1.9498    0.6803 O   0  5  0  0  0  0  0  0  0  0  0  0
   -0.3846   -0.0114   -1.0767 O   0  5  0  0  0  0  0  0  0  0  0  0
   -1.0475    1.0526   -1.4632 C   0  0  0  0  0  0  0  0  0  0  0  0
   -2.1228    0.8472   -2.3748 C   0  0  0  0  0  0  0  0  0  0  0  0
   -2.3341   -0.1906   -2.6694 H   0  0  0  0  0  0  0  0  0  0  0  0
   -2.8779    1.9126   -2.8515 C   0  0  0  0  0  0  0  0  0  0  0  0
   -3.7101    1.7205   -3.5460 H   0  0  0  0  0  0  0  0  0  0  0  0
   -2.5944    3.2336   -2.4369 C   0  0  0  0  0  0  0  0  0  0  0  0
   -3.2041    4.0746   -2.7956 H   0  0  0  0  0  0  0  0  0  0  0  0
   -1.5351    3.4615   -1.5668 C   0  0  0  0  0  0  0  0  0  0  0  0
   -1.3390    4.4935   -1.2458 H   0  0  0  0  0  0  0  0  0  0  0  0
   -0.7272    2.4017   -1.0567 C   0  0  0  0  0  0  0  0  0  0  0  0
    0.3956    2.6887   -0.1742 C   0  0  1  0  0  3  0  0  0  0  0  0
    0.8999    4.1053   -0.0353 C   0  0  0  0  0  0  0  0  0  0  0  0
    2.0051    4.1361   -0.1043 H   0  0  0  0  0  0  0  0  0  0  0  0
    0.6316    4.5311    0.9553 H   0  0  0  0  0  0  0  0  0  0  0  0
    0.5024    4.7729   -0.8151 H   0  0  0  0  0  0  0  0  0  0  0  0
    2.0292    2.0976    1.5017 C   0  0  0  0  0  0  0  0  0  0  0  0
    1.6212    2.8210    2.2433 H   0  0  0  0  0  0  0  0  0  0  0  0
    2.8895    2.6145    1.0233 H   0  0  0  0  0  0  0  0  0  0  0  0
    2.5272    0.8351    2.2012 C   0  0  0  0  0  0  0  0  0  0  0  0
    3.3118    0.3457    1.5946 H   0  0  0  0  0  0  0  0  0  0  0  0
    2.9775    1.0822    3.1870 H   0  0  0  0  0  0  0  0  0  0  0  0
   -1.1889   -2.2809    0.2485 C   0  0  0  0  0  0  0  0  0  0  0  0
   -1.3579   -3.5313   -0.4058 C   0  0  0  0  0  0  0  0  0  0  0  0
   -0.4692   -4.1686   -0.5215 H   0  0  0  0  0  0  0  0  0  0  0  0
   -2.5952   -3.9163   -0.9172 C   0  0  0  0  0  0  0  0  0  0  0  0
   -2.6857   -4.8778   -1.4457 H   0  0  0  0  0  0  0  0  0  0  0  0
   -3.7250   -3.0790   -0.7849 C   0  0  0  0  0  0  0  0  0  0  0  0
   -4.6917   -3.3749   -1.2157 H   0  0  0  0  0  0  0  0  0  0  0  0
   -3.6022   -1.8777   -0.0929 C   0  0  0  0  0  0  0  0  0  0  0  0
   -4.4859   -1.2322    0.0144 H   0  0  0  0  0  0  0  0  0  0  0  0
   -2.3605   -1.4556    0.4523 C   0  0  0  0  0  0  0  0  0  0  0  0
   -2.2575   -0.3302    1.3657 C   0  0  1  0  0  3  0  0  0  0  0  0
   -3.4655    0.0892    2.1652 C   0  0  0  0  0  0  0  0  0  0  0  0
   -3.4299    1.1568    2.4497 H   0  0  0  0  0  0  0  0  0  0  0  0
   -3.5563   -0.5236    3.0873 H   0  0  0  0  0  0  0  0  0  0  0  0
   -4.3911   -0.0822    1.5883 H   0  0  0  0  0  0  0  0  0  0  0  0
   -0.7562    0.9569    2.8054 C   0  0  0  0  0  0  0  0  0  0  0  0
   -1.5895    0.9873    3.5344 H   0  0  0  0  0  0  0  0  0  0  0  0
   -0.4735    2.0049    2.5791 H   0  0  0  0  0  0  0  0  0  0  0  0
    0.4197    0.1725    3.4041 C   0  0  0  0  0  0  0  0  0  0  0  0
    0.8960    0.7144    4.2486 H   0  0  0  0  0  0  0  0  0  0  0  0
    0.0404   -0.7961    3.7830 H   0  0  0  0  0  0  0  0  0  0  0  0
  1  2  1  0  0  0  0
  1 46  1  0  0  0  0
  3 22  1  0  0  0  0
  4 43  1  0  0  0  0
  7  6  1  0  0  0  0
  7 16  1  0  0  0  0
  8  7  2  0  0  0  0
  9  8  1  0  0  0  0
 10 12  2  0  0  0  0
 10  8  1  0  0  0  0
 11 10  1  0  0  0  0
 12 14  1  0  0  0  0
 13 12  1  0  0  0  0
 14 15  1  0  0  0  0
 14 16  2  0  0  0  0
 16 17  1  0  0  0  0
 17 18  1  0  0  0  0
 17  3  1  1  0  0  0
 18 20  1  0  0  0  0
 19 18  1  0  0  0  0
 21 18  1  0  0  0  0
 22 25  1  0  0  0  0
 22 23  1  0  0  0  0
 24 22  1  0  0  0  0
 25  1  1  0  0  0  0
 25 27  1  0  0  0  0
 26 25  1  0  0  0  0
 28 37  1  0  0  0  0
 28  5  1  0  0  0  0
 29 28  2  0  0  0  0
 30 29  1  0  0  0  0
 31 33  2  0  0  0  0
 31 29  1  0  0  0  0
 32 31  1  0  0  0  0
 33 35  1  0  0  0  0
 34 33  1  0  0  0  0
 35 36  1  0  0  0  0
 35 37  2  0  0  0  0
 37 38  1  0  0  0  0
 38  4  1  1  0  0  0
 38 39  1  0  0  0  0
 39 40  1  0  0  0  0
 39 41  1  0  0  0  0
 42 39  1  0  0  0  0
 43 46  1  0  0  0  0
 43 44  1  0  0  0  0
 45 43  1  0  0  0  0
 46 48  1  0  0  0  0
 46 47  1  0  0  0  0
M  CHG  2   5  -1   6  -1
M  END
