1,2,3,4,5
 OpenBabel05122313063D

 73 78  0  0  1  0  0  0  0  0999 V2000
   -0.4683    0.1995   -2.5847 O   0  5  0  0  0  0  0  0  0  0  0  0
    2.0468   -0.9512   -1.4569 O   0  5  0  0  0  0  0  0  0  0  0  0
    0.0128    2.1839   -0.8098 N   0  0  0  0  0  2  0  0  0  0  0  0
    2.4992    1.5687   -0.4499 N   0  0  0  0  0  2  0  0  0  0  0  0
   -0.5548    0.2331    0.1942 N   0  0  0  0  0  2  0  0  0  0  0  0
   -1.7325    0.6640   -2.5464 C   0  0  0  0  0  0  0  0  0  0  0  0
   -2.6076    0.4850   -3.6370 C   0  0  0  0  0  0  0  0  0  0  0  0
   -3.9197    0.9710   -3.5633 C   0  0  0  0  0  0  0  0  0  0  0  0
   -4.3743    1.6441   -2.4152 C   0  0  0  0  0  0  0  0  0  0  0  0
   -3.5060    1.8243   -1.3275 C   0  0  0  0  0  0  0  0  0  0  0  0
   -2.1934    1.3384   -1.3797 C   0  0  0  0  0  0  0  0  0  0  0  0
   -1.1854    1.5113   -0.2644 C   0  0  2  0  0  0  0  0  0  0  0  0
    0.7230    3.1003   -0.0706 C   0  0  0  0  0  0  0  0  0  0  0  0
    0.1854    4.2570    0.5427 C   0  0  0  0  0  0  0  0  0  0  0  0
    1.0307    5.1596    1.1963 C   0  0  0  0  0  0  0  0  0  0  0  0
    2.4204    4.9293    1.2586 C   0  0  0  0  0  0  0  0  0  0  0  0
    2.9653    3.7710    0.6916 C   0  0  0  0  0  0  0  0  0  0  0  0
    2.1260    2.8392    0.0488 C   0  0  0  0  0  0  0  0  0  0  0  0
    3.7416    1.1435   -0.4122 C   0  0  0  0  0  3  0  0  0  0  0  0
    4.2048   -0.1796   -0.7443 C   0  0  0  0  0  0  0  0  0  0  0  0
    5.5752   -0.4945   -0.5395 C   0  0  0  0  0  0  0  0  0  0  0  0
    6.0685   -1.7760   -0.7763 C   0  0  0  0  0  0  0  0  0  0  0  0
    5.1872   -2.7817   -1.2277 C   0  0  0  0  0  0  0  0  0  0  0  0
    3.8356   -2.5039   -1.4480 C   0  0  0  0  0  0  0  0  0  0  0  0
    3.3226   -1.2051   -1.2249 C   0  0  0  0  0  0  0  0  0  0  0  0
   -1.2045   -0.8506    0.9302 C   0  0  0  0  0  0  0  0  0  0  0  0
   -0.0903   -1.8143    1.4157 C   0  0  0  0  0  0  0  0  0  0  0  0
   -0.3819   -3.1638    1.6944 C   0  0  0  0  0  0  0  0  0  0  0  0
    0.6167   -4.0321    2.1574 C   0  0  0  0  0  0  0  0  0  0  0  0
    1.9272   -3.5668    2.3531 C   0  0  0  0  0  0  0  0  0  0  0  0
    2.2220   -2.2189    2.1031 C   0  0  0  0  0  0  0  0  0  0  0  0
    1.2176   -1.3491    1.6507 C   0  0  0  0  0  0  0  0  0  0  0  0
   -2.1693   -1.5523   -0.0511 C   0  0  0  0  0  0  0  0  0  0  0  0
   -3.5383   -1.2354   -0.1221 C   0  0  0  0  0  0  0  0  0  0  0  0
   -4.3502   -1.7765   -1.1311 C   0  0  0  0  0  0  0  0  0  0  0  0
   -3.8044   -2.6398   -2.0909 C   0  0  0  0  0  0  0  0  0  0  0  0
   -2.4359   -2.9502   -2.0406 C   0  0  0  0  0  0  0  0  0  0  0  0
   -1.6277   -2.4068   -1.0348 C   0  0  0  0  0  0  0  0  0  0  0  0
   -1.8565   -0.3316    2.2298 C   0  0  0  0  0  0  0  0  0  0  0  0
   -2.8711   -1.0545    2.8885 C   0  0  0  0  0  0  0  0  0  0  0  0
   -3.3836   -0.6134    4.1175 C   0  0  0  0  0  0  0  0  0  0  0  0
   -2.8853    0.5543    4.7162 C   0  0  0  0  0  0  0  0  0  0  0  0
   -1.8550    1.2655    4.0828 C   0  0  0  0  0  0  0  0  0  0  0  0
   -1.3415    0.8213    2.8554 C   0  0  0  0  0  0  0  0  0  0  0  0
   -2.2372   -0.0456   -4.5259 H   0  0  0  0  0  0  0  0  0  0  0  0
   -4.5996    0.8214   -4.4162 H   0  0  0  0  0  0  0  0  0  0  0  0
   -5.4046    2.0269   -2.3692 H   0  0  0  0  0  0  0  0  0  0  0  0
   -3.8512    2.3434   -0.4187 H   0  0  0  0  0  0  0  0  0  0  0  0
   -1.6289    2.0683    0.5916 H   0  0  0  0  0  0  0  0  0  0  0  0
   -0.8948    4.4502    0.4653 H   0  0  0  0  0  0  0  0  0  0  0  0
    0.6066    6.0660    1.6549 H   0  0  0  0  0  0  0  0  0  0  0  0
    3.0779    5.6506    1.7656 H   0  0  0  0  0  0  0  0  0  0  0  0
    4.0458    3.5858    0.7845 H   0  0  0  0  0  0  0  0  0  0  0  0
    4.5311    1.8321   -0.0490 H   0  0  0  0  0  0  0  0  0  0  0  0
    6.2466    0.2997   -0.1752 H   0  0  0  0  0  0  0  0  0  0  0  0
    7.1313   -2.0022   -0.6089 H   0  0  0  0  0  0  0  0  0  0  0  0
    5.5662   -3.7987   -1.4124 H   0  0  0  0  0  0  0  0  0  0  0  0
    3.1373   -3.2763   -1.7997 H   0  0  0  0  0  0  0  0  0  0  0  0
   -1.3999   -3.5445    1.5271 H   0  0  0  0  0  0  0  0  0  0  0  0
    0.3690   -5.0856    2.3586 H   0  0  0  0  0  0  0  0  0  0  0  0
    2.7137   -4.2522    2.7036 H   0  0  0  0  0  0  0  0  0  0  0  0
    3.2420   -1.8354    2.2579 H   0  0  0  0  0  0  0  0  0  0  0  0
    1.4516   -0.2881    1.4826 H   0  0  0  0  0  0  0  0  0  0  0  0
   -3.9766   -0.5361    0.6029 H   0  0  0  0  0  0  0  0  0  0  0  0
   -5.4147   -1.5020   -1.1746 H   0  0  0  0  0  0  0  0  0  0  0  0
   -4.4398   -3.0583   -2.8861 H   0  0  0  0  0  0  0  0  0  0  0  0
   -1.9895   -3.6112   -2.7989 H   0  0  0  0  0  0  0  0  0  0  0  0
   -0.5516   -2.6363   -1.0202 H   0  0  0  0  0  0  0  0  0  0  0  0
   -3.2623   -1.9785    2.4392 H   0  0  0  0  0  0  0  0  0  0  0  0
   -4.1790   -1.1915    4.6124 H   0  0  0  0  0  0  0  0  0  0  0  0
   -3.2911    0.9015    5.6785 H   0  0  0  0  0  0  0  0  0  0  0  0
   -1.4396    2.1723    4.5486 H   0  0  0  0  0  0  0  0  0  0  0  0
   -0.5097    1.3631    2.3812 H   0  0  0  0  0  0  0  0  0  0  0  0
  1  6  1  0  0  0  0
  2 25  1  0  0  0  0
  3 12  1  0  0  0  0
  3 13  1  0  0  0  0
  4 19  1  0  0  0  0
  4 18  1  0  0  0  0
  5 26  1  0  0  0  0
  6 11  1  0  0  0  0
  7  8  1  0  0  0  0
  7  6  2  0  0  0  0
  8  9  2  0  0  0  0
  9 47  1  0  0  0  0
  9 10  1  0  0  0  0
 10 48  1  0  0  0  0
 11 10  2  0  0  0  0
 11 12  1  0  0  0  0
 12  5  1  0  0  0  0
 12 49  1  1  0  0  0
 13 18  2  0  0  0  0
 13 14  1  0  0  0  0
 14 15  2  0  0  0  0
 15 16  1  0  0  0  0
 15 51  1  0  0  0  0
 16 52  1  0  0  0  0
 17 53  1  0  0  0  0
 17 16  2  0  0  0  0
 18 17  1  0  0  0  0
 19 54  1  0  0  0  0
 20 21  1  0  0  0  0
 20 19  1  0  0  0  0
 21 55  1  0  0  0  0
 22 56  1  0  0  0  0
 22 21  2  0  0  0  0
 23 22  1  0  0  0  0
 24 23  2  0  0  0  0
 24 25  1  0  0  0  0
 25 20  2  0  0  0  0
 26 27  1  0  0  0  0
 26 39  1  0  0  0  0
 27 32  2  0  0  0  0
 27 28  1  0  0  0  0
 28 29  2  0  0  0  0
 29 30  1  0  0  0  0
 29 60  1  0  0  0  0
 30 61  1  0  0  0  0
 31 62  1  0  0  0  0
 31 30  2  0  0  0  0
 32 31  1  0  0  0  0
 33 26  1  0  0  0  0
 34 33  1  0  0  0  0
 34 64  1  0  0  0  0
 35 34  2  0  0  0  0
 36 37  2  0  0  0  0
 36 35  1  0  0  0  0
 37 38  1  0  0  0  0
 38 68  1  0  0  0  0
 38 33  2  0  0  0  0
 39 44  2  0  0  0  0
 39 40  1  0  0  0  0
 40 41  2  0  0  0  0
 41 70  1  0  0  0  0
 41 42  1  0  0  0  0
 42 71  1  0  0  0  0
 43 72  1  0  0  0  0
 43 42  2  0  0  0  0
 44 43  1  0  0  0  0
 45  7  1  0  0  0  0
 46  8  1  0  0  0  0
 50 14  1  0  0  0  0
 57 23  1  0  0  0  0
 58 24  1  0  0  0  0
 59 28  1  0  0  0  0
 63 32  1  0  0  0  0
 65 35  1  0  0  0  0
 66 36  1  0  0  0  0
 67 37  1  0  0  0  0
 69 40  1  0  0  0  0
 73 44  1  0  0  0  0
M  CHG  2   1  -1   2  -1
M  END
