1,2,5,6,7
 OpenBabel05122313063D

 30 29  0  0  0  0  0  0  0  0999 V2000
   -1.3650    0.0380   -1.2593 O   0  5  0  0  0  0  0  0  0  0  0  0
    1.5350   -0.6095    1.0944 O   0  5  0  0  0  0  0  0  0  0  0  0
   -3.5834   -0.2447   -1.5363 O   0  0  0  0  0  0  0  0  0  0  0  0
    3.7788   -0.8479    1.0596 O   0  0  0  0  0  0  0  0  0  0  0  0
   -1.3393   -0.7625    1.2758 N   0  0  0  0  0  0  0  0  0  0  0  0
   -0.0392    1.5149    0.6358 N   0  0  0  0  0  0  0  0  0  0  0  0
    1.3949    0.4088   -1.3188 N   0  0  0  0  0  0  0  0  0  0  0  0
   -1.4566    0.4052    2.2008 C   0  0  0  0  0  0  0  0  0  0  0  0
   -2.5795   -1.0539    0.5074 C   0  0  0  0  0  0  0  0  0  0  0  0
    2.6562   -0.3121   -1.0206 C   0  0  0  0  0  0  0  0  0  0  0  0
   -1.3013    1.6798    1.3857 C   0  0  0  0  0  0  0  0  0  0  0  0
   -2.5693   -0.3624   -0.8793 C   0  0  0  0  0  0  0  0  0  0  0  0
    2.7273   -0.6106    0.5032 C   0  0  0  0  0  0  0  0  0  0  0  0
    0.2331    2.4180   -0.5008 C   0  0  0  0  0  0  0  0  0  0  0  0
    1.5167    1.8928   -1.1235 C   0  0  0  0  0  0  0  0  0  0  0  0
   -1.0552   -1.5793    1.8351 H   0  0  0  0  0  0  0  0  0  0  0  0
    0.7554    1.5269    1.3011 H   0  0  0  0  0  0  0  0  0  0  0  0
    1.0514    0.2256   -2.2733 H   0  0  0  0  0  0  0  0  0  0  0  0
   -2.4195    0.3806    2.7522 H   0  0  0  0  0  0  0  0  0  0  0  0
   -0.6341    0.3223    2.9399 H   0  0  0  0  0  0  0  0  0  0  0  0
   -2.6655   -2.1487    0.3474 H   0  0  0  0  0  0  0  0  0  0  0  0
   -3.4893   -0.7537    1.0659 H   0  0  0  0  0  0  0  0  0  0  0  0
    2.6756   -1.2724   -1.5749 H   0  0  0  0  0  0  0  0  0  0  0  0
    3.5536    0.2559   -1.3386 H   0  0  0  0  0  0  0  0  0  0  0  0
   -2.1273    1.8111    0.6592 H   0  0  0  0  0  0  0  0  0  0  0  0
   -1.2779    2.5797    2.0359 H   0  0  0  0  0  0  0  0  0  0  0  0
   -0.6206    2.3357   -1.2020 H   0  0  0  0  0  0  0  0  0  0  0  0
    0.3377    3.4758   -0.1778 H   0  0  0  0  0  0  0  0  0  0  0  0
    2.3712    2.0678   -0.4374 H   0  0  0  0  0  0  0  0  0  0  0  0
    1.7557    2.3983   -2.0803 H   0  0  0  0  0  0  0  0  0  0  0  0
  1 12  1  0  0  0  0
  3 12  2  0  0  0  0
  5 16  1  0  0  0  0
  5  8  1  0  0  0  0
  6 17  1  0  0  0  0
  6 11  1  0  0  0  0
  7 15  1  0  0  0  0
  7 10  1  0  0  0  0
  8 19  1  0  0  0  0
  8 20  1  0  0  0  0
  9 22  1  0  0  0  0
  9  5  1  0  0  0  0
 10 13  1  0  0  0  0
 11 26  1  0  0  0  0
 11  8  1  0  0  0  0
 12  9  1  0  0  0  0
 13  4  2  0  0  0  0
 13  2  1  0  0  0  0
 14 28  1  0  0  0  0
 14  6  1  0  0  0  0
 15 14  1  0  0  0  0
 15 29  1  0  0  0  0
 18  7  1  0  0  0  0
 21  9  1  0  0  0  0
 23 10  1  0  0  0  0
 24 10  1  0  0  0  0
 25 11  1  0  0  0  0
 27 14  1  0  0  0  0
 30 15  1  0  0  0  0
M  CHG  2   1  -1   2  -1
M  END
