1,2,5,6,7
 OpenBabel05122313063D

 61 65  0  0  1  0  0  0  0  0999 V2000
    1.3060    1.4681   -1.6775 O   0  5  0  0  0  0  0  0  0  0  0  0
    0.9011   -1.0528   -2.0125 O   0  5  0  0  0  0  0  0  0  0  0  0
   -6.8751   -1.0327    0.9978 O   0  0  0  0  0  0  0  0  0  0  0  0
   -6.4662    1.0406    0.4226 O   0  0  0  0  0  0  0  0  0  0  0  0
    0.4448    1.2561    0.9561 N   0  0  0  0  0  2  0  0  0  0  0  0
    0.0264   -1.2854    0.6133 N   0  0  0  0  0  2  0  0  0  0  0  0
    2.4431   -0.2163    0.1223 N   0  0  0  0  0  2  0  0  0  0  0  0
   -6.1409   -0.0567    0.8770 N   0  0  0  0  0  0  0  0  0  0  0  0
    1.4661    2.7295   -1.3918 C   0  0  0  0  0  0  0  0  0  0  0  0
    1.9413    3.5991   -2.4219 C   0  0  0  0  0  0  0  0  0  0  0  0
    2.1509    3.1492   -3.4027 H   0  0  0  0  0  0  0  0  0  0  0  0
    2.1268    4.9555   -2.1895 C   0  0  0  0  0  0  0  0  0  0  0  0
    2.4954    5.5928   -3.0082 H   0  0  0  0  0  0  0  0  0  0  0  0
    1.8520    5.5356   -0.9227 C   0  0  0  0  0  0  0  0  0  0  0  0
    2.0082    6.6108   -0.7584 H   0  0  0  0  0  0  0  0  0  0  0  0
    1.3915    4.7243    0.0999 C   0  0  0  0  0  0  0  0  0  0  0  0
    1.1791    5.1485    1.0941 H   0  0  0  0  0  0  0  0  0  0  0  0
    1.1836    3.3239   -0.0988 C   0  0  0  0  0  0  0  0  0  0  0  0
    0.7582    2.5295    1.0057 C   0  0  0  0  0  3  0  0  0  0  0  0
    0.7031    3.0273    1.9957 H   0  0  0  0  0  0  0  0  0  0  0  0
    0.9748   -2.3552   -1.9725 C   0  0  0  0  0  0  0  0  0  0  0  0
    1.3864   -3.0452   -3.1538 C   0  0  0  0  0  0  0  0  0  0  0  0
    1.6162   -2.4356   -4.0393 H   0  0  0  0  0  0  0  0  0  0  0  0
    1.4939   -4.4303   -3.1773 C   0  0  0  0  0  0  0  0  0  0  0  0
    1.8198   -4.9260   -4.1048 H   0  0  0  0  0  0  0  0  0  0  0  0
    1.1936   -5.2159   -2.0342 C   0  0  0  0  0  0  0  0  0  0  0  0
    1.2855   -6.3102   -2.0718 H   0  0  0  0  0  0  0  0  0  0  0  0
    0.7780   -4.5806   -0.8757 C   0  0  0  0  0  0  0  0  0  0  0  0
    0.5309   -5.1686    0.0226 H   0  0  0  0  0  0  0  0  0  0  0  0
    0.6538   -3.1591   -0.8120 C   0  0  0  0  0  0  0  0  0  0  0  0
    0.1848   -2.5676    0.3988 C   0  0  0  0  0  3  0  0  0  0  0  0
   -0.0805   -3.2602    1.2228 H   0  0  0  0  0  0  0  0  0  0  0  0
    3.3725   -0.3912   -0.8204 C   0  0  0  0  0  0  0  0  0  0  0  0
    3.0202   -0.2760   -1.8557 H   0  0  0  0  0  0  0  0  0  0  0  0
    4.7114   -0.7186   -0.5157 C   0  0  0  0  0  0  0  0  0  0  0  0
    5.4294   -0.8579   -1.3354 H   0  0  0  0  0  0  0  0  0  0  0  0
    5.0766   -0.8698    0.8100 C   0  0  0  0  0  0  0  0  0  0  0  0
    6.1057   -1.1439    1.0884 H   0  0  0  0  0  0  0  0  0  0  0  0
    4.1169   -0.6548    1.8380 C   0  0  0  0  0  0  0  0  0  0  0  0
    4.4620   -0.7692    3.2149 C   0  0  0  0  0  0  0  0  0  0  0  0
    5.4921   -1.0525    3.4777 H   0  0  0  0  0  0  0  0  0  0  0  0
    3.5220   -0.5133    4.1979 C   0  0  0  0  0  0  0  0  0  0  0  0
    3.7892   -0.5941    5.2614 H   0  0  0  0  0  0  0  0  0  0  0  0
    2.2123   -0.1181    3.8310 C   0  0  0  0  0  0  0  0  0  0  0  0
    1.4834    0.1205    4.6216 H   0  0  0  0  0  0  0  0  0  0  0  0
    1.8194   -0.0059    2.4999 C   0  0  0  0  0  0  0  0  0  0  0  0
    2.7697   -0.2977    1.4628 C   0  0  1  0  0  3  0  0  0  0  0  0
    0.4012    0.4460    2.1738 C   0  0  2  0  0  0  0  0  0  0  0  0
    0.0025    1.0317    3.0296 H   0  0  0  0  0  0  0  0  0  0  0  0
   -0.4927   -0.7756    1.8903 C   0  0  1  0  0  0  0  0  0  0  0  0
   -0.3165   -1.5329    2.6843 H   0  0  0  0  0  0  0  0  0  0  0  0
   -1.9942   -0.5243    1.7907 C   0  0  0  0  0  0  0  0  0  0  0  0
   -2.5539    0.7610    1.6635 C   0  0  0  0  0  0  0  0  0  0  0  0
   -1.9210    1.6552    1.7237 H   0  0  0  0  0  0  0  0  0  0  0  0
   -3.9181    0.9211    1.3936 C   0  0  0  0  0  0  0  0  0  0  0  0
   -4.3682    1.9100    1.2360 H   0  0  0  0  0  0  0  0  0  0  0  0
   -4.7208   -0.2176    1.2816 C   0  0  0  0  0  0  0  0  0  0  0  0
   -4.2143   -1.5063    1.4894 C   0  0  0  0  0  0  0  0  0  0  0  0
   -4.8949   -2.3663    1.4298 H   0  0  0  0  0  0  0  0  0  0  0  0
   -2.8459   -1.6490    1.7362 C   0  0  0  0  0  0  0  0  0  0  0  0
   -2.4298   -2.6598    1.8663 H   0  0  0  0  0  0  0  0  0  0  0  0
  1  9  1  0  0  0  0
  2 21  1  0  0  0  0
  4  8  2  0  0  0  0
  5 19  1  0  0  0  0
  5 48  1  0  0  0  0
  6 50  1  0  0  0  0
  8  3  2  0  0  0  0
  8 57  1  0  0  0  0
  9 18  1  0  0  0  0
 10 12  1  0  0  0  0
 10  9  2  0  0  0  0
 11 10  1  0  0  0  0
 12 14  2  0  0  0  0
 13 12  1  0  0  0  0
 14 15  1  0  0  0  0
 14 16  1  0  0  0  0
 16 17  1  0  0  0  0
 18 16  2  0  0  0  0
 18 19  1  0  0  0  0
 19 20  1  0  0  0  0
 21 30  1  0  0  0  0
 22 21  2  0  0  0  0
 23 22  1  0  0  0  0
 24 22  1  0  0  0  0
 24 26  2  0  0  0  0
 25 24  1  0  0  0  0
 26 28  1  0  0  0  0
 27 26  1  0  0  0  0
 28 30  2  0  0  0  0
 28 29  1  0  0  0  0
 30 31  1  0  0  0  0
 31  6  1  0  0  0  0
 31 32  1  0  0  0  0
 33 35  2  0  0  0  0
 33  7  1  0  0  0  0
 34 33  1  0  0  0  0
 35 37  1  0  0  0  0
 36 35  1  0  0  0  0
 37 38  1  0  0  0  0
 37 39  2  0  0  0  0
 39 40  1  0  0  0  0
 40 41  1  0  0  0  0
 40 42  2  0  0  0  0
 42 43  1  0  0  0  0
 44 42  1  0  0  0  0
 44 45  1  0  0  0  0
 46 44  2  0  0  0  0
 47  7  1  6  0  0  0
 47 39  1  0  0  0  0
 47 46  1  0  0  0  0
 48 46  1  0  0  0  0
 48 49  1  1  0  0  0
 50 48  1  0  0  0  0
 50 51  1  1  0  0  0
 52 50  1  0  0  0  0
 53 54  1  0  0  0  0
 53 52  2  0  0  0  0
 55 53  1  0  0  0  0
 56 55  1  0  0  0  0
 57 55  2  0  0  0  0
 57 58  1  0  0  0  0
 58 60  2  0  0  0  0
 59 58  1  0  0  0  0
 60 52  1  0  0  0  0
 60 61  1  0  0  0  0
M  CHG  2   1  -1   2  -1
M  END
