5,6,7,9,10
 OpenBabel05122313063D

 50 51  0  0  0  0  0  0  0  0999 V2000
    1.3215    3.7242   -0.3166 Cl  0  0  0  0  0  0  0  0  0  0  0  0
    6.6285    2.8399    0.4717 Cl  0  0  0  0  0  0  0  0  0  0  0  0
   -3.2595    1.5233   -2.8780 Cl  0  0  0  0  0  0  0  0  0  0  0  0
   -5.7691    3.1861    1.6538 Cl  0  0  0  0  0  0  0  0  0  0  0  0
    1.1200    0.8357   -0.3043 O   0  5  0  0  0  0  0  0  0  0  0  0
   -1.8287   -0.2707   -1.0847 O   0  5  0  0  0  0  0  0  0  0  0  0
    2.3170   -1.8771   -0.0898 N   0  0  0  0  0  2  0  0  0  0  0  0
    0.0895   -3.7139    0.5168 N   0  0  0  0  0  0  0  0  0  0  0  0
   -1.2269   -1.3358    1.5470 N   0  0  0  0  0  2  0  0  0  0  0  0
   -0.6625   -2.4896   -2.1216 N   0  0  0  0  0  0  0  0  0  0  0  0
   -1.3416   -1.7620   -2.4010 H   0  0  0  0  0  0  0  0  0  0  0  0
   -0.0784   -2.7389   -2.9285 H   0  0  0  0  0  0  0  0  0  0  0  0
    2.3327    1.2031   -0.1334 C   0  0  0  0  0  0  0  0  0  0  0  0
    2.6488    2.6217   -0.1085 C   0  0  0  0  0  0  0  0  0  0  0  0
    3.9343    3.1105    0.0732 C   0  0  0  0  0  0  0  0  0  0  0  0
    4.1129    4.1942    0.0839 H   0  0  0  0  0  0  0  0  0  0  0  0
    5.0123    2.2068    0.2448 C   0  0  0  0  0  0  0  0  0  0  0  0
    4.7849    0.8411    0.2314 C   0  0  0  0  0  0  0  0  0  0  0  0
    5.6290    0.1476    0.3639 H   0  0  0  0  0  0  0  0  0  0  0  0
    3.4712    0.3127    0.0469 C   0  0  0  0  0  0  0  0  0  0  0  0
    3.3750   -1.1217    0.0484 C   0  0  0  0  0  3  0  0  0  0  0  0
    4.3544   -1.6402    0.1856 H   0  0  0  0  0  0  0  0  0  0  0  0
    2.4849   -3.3149   -0.0684 C   0  0  0  0  0  0  0  0  0  0  0  0
    3.5176   -3.6085    0.2346 H   0  0  0  0  0  0  0  0  0  0  0  0
    2.3365   -3.7155   -1.0986 H   0  0  0  0  0  0  0  0  0  0  0  0
    1.4819   -3.9849    0.8799 C   0  0  0  0  0  0  0  0  0  0  0  0
    1.6925   -5.0831    0.9295 H   0  0  0  0  0  0  0  0  0  0  0  0
    1.6557   -3.5819    1.8983 H   0  0  0  0  0  0  0  0  0  0  0  0
   -0.8274   -3.7332    1.6619 C   0  0  0  0  0  0  0  0  0  0  0  0
   -0.5974   -4.5783    2.3572 H   0  0  0  0  0  0  0  0  0  0  0  0
   -1.8549   -3.9023    1.2815 H   0  0  0  0  0  0  0  0  0  0  0  0
   -0.8319   -2.4023    2.4374 C   0  0  0  0  0  0  0  0  0  0  0  0
   -1.5098   -2.4957    3.3183 H   0  0  0  0  0  0  0  0  0  0  0  0
    0.1904   -2.2011    2.8326 H   0  0  0  0  0  0  0  0  0  0  0  0
   -2.2473   -0.5778    1.8384 C   0  0  0  0  0  3  0  0  0  0  0  0
   -2.7097   -0.6961    2.8481 H   0  0  0  0  0  0  0  0  0  0  0  0
   -2.8909    0.3962    0.9921 C   0  0  0  0  0  0  0  0  0  0  0  0
   -2.6588    0.4673   -0.4433 C   0  0  0  0  0  0  0  0  0  0  0  0
   -3.4817    1.4248   -1.1528 C   0  0  0  0  0  0  0  0  0  0  0  0
   -4.4068    2.2483   -0.5250 C   0  0  0  0  0  0  0  0  0  0  0  0
   -4.9917    2.9685   -1.1128 H   0  0  0  0  0  0  0  0  0  0  0  0
   -4.5932    2.1499    0.8748 C   0  0  0  0  0  0  0  0  0  0  0  0
   -3.8608    1.2332    1.6144 C   0  0  0  0  0  0  0  0  0  0  0  0
   -4.0267    1.1529    2.6992 H   0  0  0  0  0  0  0  0  0  0  0  0
   -0.3891   -4.4683   -0.6450 C   0  0  0  0  0  0  0  0  0  0  0  0
   -0.8924   -5.4184   -0.3402 H   0  0  0  0  0  0  0  0  0  0  0  0
    0.4895   -4.7723   -1.2516 H   0  0  0  0  0  0  0  0  0  0  0  0
   -1.3353   -3.6550   -1.5392 C   0  0  0  0  0  0  0  0  0  0  0  0
   -1.7705   -4.3350   -2.3069 H   0  0  0  0  0  0  0  0  0  0  0  0
   -2.1834   -3.2729   -0.9340 H   0  0  0  0  0  0  0  0  0  0  0  0
  1 14  1  0  0  0  0
  3 39  1  0  0  0  0
  5 13  1  0  0  0  0
  6 38  1  0  0  0  0
  7 23  1  0  0  0  0
  7 21  1  0  0  0  0
  8 26  1  0  0  0  0
  8 29  1  0  0  0  0
  9 35  1  0  0  0  0
  9 32  1  0  0  0  0
 10 48  1  0  0  0  0
 11 10  1  0  0  0  0
 12 10  1  0  0  0  0
 13 14  2  0  0  0  0
 13 20  1  0  0  0  0
 14 15  1  0  0  0  0
 15 16  1  0  0  0  0
 15 17  2  0  0  0  0
 17  2  1  0  0  0  0
 18 17  1  0  0  0  0
 18 19  1  0  0  0  0
 20 21  1  0  0  0  0
 20 18  2  0  0  0  0
 21 22  1  0  0  0  0
 23 24  1  0  0  0  0
 23 26  1  0  0  0  0
 25 23  1  0  0  0  0
 26 27  1  0  0  0  0
 26 28  1  0  0  0  0
 29 30  1  0  0  0  0
 29 32  1  0  0  0  0
 31 29  1  0  0  0  0
 32 34  1  0  0  0  0
 32 33  1  0  0  0  0
 35 36  1  0  0  0  0
 37 43  1  0  0  0  0
 37 35  1  0  0  0  0
 38 37  2  0  0  0  0
 39 40  2  0  0  0  0
 39 38  1  0  0  0  0
 40 42  1  0  0  0  0
 41 40  1  0  0  0  0
 42 43  2  0  0  0  0
 42  4  1  0  0  0  0
 43 44  1  0  0  0  0
 45 46  1  0  0  0  0
 45  8  1  0  0  0  0
 47 45  1  0  0  0  0
 48 50  1  0  0  0  0
 48 45  1  0  0  0  0
 49 48  1  0  0  0  0
M  CHG  2   5  -1   6  -1
M  END
