1
q = -1.0

 27 28  0  0  0  0  0  0  0  0999 V2000
   -1.7330   -0.5322    0.4487 Si  0  0  0  0  0  3  0  0  0  0  0  0
   -1.8403   -1.2327    2.2412 C   0  0  0  0  0  0  0  0  0  0  0  0
   -2.8847   -1.2406    2.6181 H   0  0  0  0  0  0  0  0  0  0  0  0
   -1.2270   -0.6321    2.9433 H   0  0  0  0  0  0  0  0  0  0  0  0
   -1.4526   -2.2699    2.2883 H   0  0  0  0  0  0  0  0  0  0  0  0
   -2.5746    1.1891    0.6069 C   0  0  0  0  0  0  0  0  0  0  0  0
   -3.2225    1.7759   -0.5058 C   0  0  0  0  0  0  0  0  0  0  0  0
   -3.3008    1.2011   -1.4439 H   0  0  0  0  0  0  0  0  0  0  0  0
   -3.7608    3.0702   -0.4447 C   0  0  0  0  0  0  0  0  0  0  0  0
   -4.2701    3.4965   -1.3241 H   0  0  0  0  0  0  0  0  0  0  0  0
   -3.6547    3.8236    0.7383 C   0  0  0  0  0  0  0  0  0  0  0  0
   -4.0737    4.8406    0.7890 H   0  0  0  0  0  0  0  0  0  0  0  0
   -3.0162    3.2631    1.8561 C   0  0  0  0  0  0  0  0  0  0  0  0
   -2.9324    3.8420    2.7899 H   0  0  0  0  0  0  0  0  0  0  0  0
   -2.4891    1.9620    1.7873 C   0  0  0  0  0  0  0  0  0  0  0  0
   -1.9999    1.5398    2.6801 H   0  0  0  0  0  0  0  0  0  0  0  0
   -2.9177   -1.6583   -0.5473 C   0  0  0  0  0  0  0  0  0  0  0  0
   -4.2497   -1.8873   -0.1320 C   0  0  0  0  0  0  0  0  0  0  0  0
   -4.6358   -1.3718    0.7634 H   0  0  0  0  0  0  0  0  0  0  0  0
   -5.0987   -2.7506   -0.8418 C   0  0  0  0  0  0  0  0  0  0  0  0
   -6.1350   -2.9072   -0.5021 H   0  0  0  0  0  0  0  0  0  0  0  0
   -4.6279   -3.4156   -1.9868 C   0  0  0  0  0  0  0  0  0  0  0  0
   -5.2915   -4.0955   -2.5437 H   0  0  0  0  0  0  0  0  0  0  0  0
   -3.3091   -3.2038   -2.4187 C   0  0  0  0  0  0  0  0  0  0  0  0
   -2.9352   -3.7171   -3.3190 H   0  0  0  0  0  0  0  0  0  0  0  0
   -2.4702   -2.3305   -1.7064 C   0  0  0  0  0  0  0  0  0  0  0  0
   -1.4394   -2.1500   -2.0561 H   0  0  0  0  0  0  0  0  0  0  0  0
  1  6  1  0  0  0  0
  1  2  1  0  0  0  0
  2  5  1  0  0  0  0
  2  3  1  0  0  0  0
  2  4  1  0  0  0  0
  6 15  1  0  0  0  0
  7  9  1  0  0  0  0
  7  6  2  0  0  0  0
  8  7  1  0  0  0  0
  9 11  2  0  0  0  0
 10  9  1  0  0  0  0
 11 12  1  0  0  0  0
 11 13  1  0  0  0  0
 13 14  1  0  0  0  0
 15 13  2  0  0  0  0
 15 16  1  0  0  0  0
 17 18  1  0  0  0  0
 17  1  1  0  0  0  0
 18 19  1  0  0  0  0
 20 21  1  0  0  0  0
 20 18  2  0  0  0  0
 22 20  1  0  0  0  0
 23 22  1  0  0  0  0
 24 22  2  0  0  0  0
 24 26  1  0  0  0  0
 25 24  1  0  0  0  0
 26 17  2  0  0  0  0
 27 26  1  0  0  0  0
M  END
