2
q = -1.0

 42 43  0  0  0  0  0  0  0  0999 V2000
    0.9188    0.0708    0.4207 P   0  0  0  0  0  0  0  0  0  0  0  0
   -1.6478    0.8572    1.6831 Si  0  0  0  0  0  3  0  0  0  0  0  0
   -0.1701    1.1758    2.5799 O   0  0  0  0  0  0  0  0  0  0  0  0
   -2.2816    2.6536    1.5178 C   0  0  0  0  0  0  0  0  0  0  0  0
   -2.8467    0.0835    2.9439 C   0  0  0  0  0  0  0  0  0  0  0  0
    2.2623   -1.1706    0.1408 C   0  0  0  0  0  0  0  0  0  0  0  0
    3.6311   -0.8627    0.3088 C   0  0  0  0  0  0  0  0  0  0  0  0
    4.6071   -1.8593    0.1623 C   0  0  0  0  0  0  0  0  0  0  0  0
    4.2321   -3.1762   -0.1526 C   0  0  0  0  0  0  0  0  0  0  0  0
    2.8752   -3.4910   -0.3218 C   0  0  0  0  0  0  0  0  0  0  0  0
    1.8983   -2.4938   -0.1780 C   0  0  0  0  0  0  0  0  0  0  0  0
    1.5886    1.6049   -0.3630 C   0  0  0  0  0  0  0  0  0  0  0  0
    2.5053    1.5736   -1.4348 C   0  0  0  0  0  0  0  0  0  0  0  0
    2.9026    2.7609   -2.0716 C   0  0  0  0  0  0  0  0  0  0  0  0
    2.3997    3.9981   -1.6411 C   0  0  0  0  0  0  0  0  0  0  0  0
    1.4975    4.0407   -0.5654 C   0  0  0  0  0  0  0  0  0  0  0  0
    1.0887    2.8565    0.0628 C   0  0  0  0  0  0  0  0  0  0  0  0
    1.0095    0.4494    2.3320 C   0  0  0  0  0  0  0  0  0  0  0  0
    2.2132    1.3032    2.7385 C   0  0  0  0  0  0  0  0  0  0  0  0
    1.0396   -0.8709    3.1145 C   0  0  0  0  0  0  0  0  0  0  0  0
   -1.9506    3.1863    2.4343 H   0  0  0  0  0  0  0  0  0  0  0  0
   -1.8786    3.2006    0.6428 H   0  0  0  0  0  0  0  0  0  0  0  0
   -3.3871    2.7033    1.4803 H   0  0  0  0  0  0  0  0  0  0  0  0
   -3.8510   -0.0508    2.4882 H   0  0  0  0  0  0  0  0  0  0  0  0
   -2.5027   -0.9121    3.2868 H   0  0  0  0  0  0  0  0  0  0  0  0
   -2.9601    0.7437    3.8290 H   0  0  0  0  0  0  0  0  0  0  0  0
    3.9392    0.1659    0.5479 H   0  0  0  0  0  0  0  0  0  0  0  0
    5.6699   -1.6051    0.2956 H   0  0  0  0  0  0  0  0  0  0  0  0
    5.0002   -3.9564   -0.2664 H   0  0  0  0  0  0  0  0  0  0  0  0
    2.5721   -4.5204   -0.5673 H   0  0  0  0  0  0  0  0  0  0  0  0
    0.8325   -2.7313   -0.3043 H   0  0  0  0  0  0  0  0  0  0  0  0
    2.9156    0.6137   -1.7791 H   0  0  0  0  0  0  0  0  0  0  0  0
    3.6142    2.7150   -2.9103 H   0  0  0  0  0  0  0  0  0  0  0  0
    2.7128    4.9276   -2.1403 H   0  0  0  0  0  0  0  0  0  0  0  0
    1.1011    5.0055   -0.2137 H   0  0  0  0  0  0  0  0  0  0  0  0
    0.3782    2.8952    0.9003 H   0  0  0  0  0  0  0  0  0  0  0  0
    2.1204    1.5304    3.8204 H   0  0  0  0  0  0  0  0  0  0  0  0
    3.1645    0.7586    2.5847 H   0  0  0  0  0  0  0  0  0  0  0  0
    2.2563    2.2621    2.1919 H   0  0  0  0  0  0  0  0  0  0  0  0
    0.1908   -1.5305    2.8654 H   0  0  0  0  0  0  0  0  0  0  0  0
    1.9797   -1.4301    2.9398 H   0  0  0  0  0  0  0  0  0  0  0  0
    0.9687   -0.6267    4.1945 H   0  0  0  0  0  0  0  0  0  0  0  0
  1 18  1  0  0  0  0
  2  3  1  0  0  0  0
  2  5  1  0  0  0  0
  4  2  1  0  0  0  0
  4 21  1  0  0  0  0
  5 25  1  0  0  0  0
  5 26  1  0  0  0  0
  6  7  1  0  0  0  0
  6  1  1  0  0  0  0
  7 27  1  0  0  0  0
  8 28  1  0  0  0  0
  8  7  2  0  0  0  0
  9  8  1  0  0  0  0
 10 11  1  0  0  0  0
 10  9  2  0  0  0  0
 11  6  2  0  0  0  0
 12 17  1  0  0  0  0
 12  1  1  0  0  0  0
 13 12  2  0  0  0  0
 14 15  2  0  0  0  0
 14 13  1  0  0  0  0
 15 16  1  0  0  0  0
 16 35  1  0  0  0  0
 16 17  2  0  0  0  0
 17 36  1  0  0  0  0
 18  3  1  0  0  0  0
 18 19  1  0  0  0  0
 18 20  1  0  0  0  0
 19 37  1  0  0  0  0
 20 42  1  0  0  0  0
 22  4  1  0  0  0  0
 23  4  1  0  0  0  0
 24  5  1  0  0  0  0
 29  9  1  0  0  0  0
 30 10  1  0  0  0  0
 31 11  1  0  0  0  0
 32 13  1  0  0  0  0
 33 14  1  0  0  0  0
 34 15  1  0  0  0  0
 38 19  1  0  0  0  0
 39 19  1  0  0  0  0
 40 20  1  0  0  0  0
 41 20  1  0  0  0  0
M  END
