1
q = -1.0, confidence = 0.132

 14 13  0  0  0  0  0  0  0  0999 V2000
   -1.6524    1.7182    0.0833 Si  0  0  0  0  0  3  0  0  0  0  0  0
   -3.2734    1.8146   -0.5263 O   0  0  0  0  0  0  0  0  0  0  0  0
   -1.8303    2.4012    1.8526 C   0  0  0  0  0  0  0  0  0  0  0  0
   -0.7790    3.1225   -0.8705 C   0  0  0  0  0  0  0  0  0  0  0  0
   -3.5340    1.9607   -1.9009 C   0  0  0  0  0  0  0  0  0  0  0  0
   -2.5062    1.7967    2.4861 H   0  0  0  0  0  0  0  0  0  0  0  0
   -0.8365    2.4316    2.3446 H   0  0  0  0  0  0  0  0  0  0  0  0
   -2.2285    3.4367    1.8158 H   0  0  0  0  0  0  0  0  0  0  0  0
    0.1041    3.5097   -0.3298 H   0  0  0  0  0  0  0  0  0  0  0  0
   -1.5068    3.9574   -0.9586 H   0  0  0  0  0  0  0  0  0  0  0  0
   -0.4570    2.8368   -1.8911 H   0  0  0  0  0  0  0  0  0  0  0  0
   -3.2489    2.9695   -2.2831 H   0  0  0  0  0  0  0  0  0  0  0  0
   -4.6240    1.8319   -2.0809 H   0  0  0  0  0  0  0  0  0  0  0  0
   -2.9986    1.2106   -2.5300 H   0  0  0  0  0  0  0  0  0  0  0  0
  1  3  1  0  0  0  0
  2  1  1  0  0  0  0
  3  7  1  0  0  0  0
  3  6  1  0  0  0  0
  4  9  1  0  0  0  0
  4  1  1  0  0  0  0
  5  2  1  0  0  0  0
  8  3  1  0  0  0  0
 10  4  1  0  0  0  0
 11  4  1  0  0  0  0
 12  5  1  0  0  0  0
 13  5  1  0  0  0  0
 14  5  1  0  0  0  0
M  END
