1
q = 0.0, confidence = 0.988

 69 72  0  0  1  0  0  0  0  0999 V2000
   -0.0000    0.2367    0.0000 Si  0  0  2  0  0  0  0  0  0  0  0  0
    1.2428   -0.7725   -0.9405 N   0  0  0  0  0  0  0  0  0  0  0  0
    1.6146   -0.4171    1.1835 N   0  0  0  0  0  0  0  0  0  0  0  0
   -1.2428   -0.7726    0.9405 N   0  0  0  0  0  0  0  0  0  0  0  0
   -1.6145   -0.4171   -1.1835 N   0  0  0  0  0  0  0  0  0  0  0  0
    2.1375   -0.9042    0.0682 C   0  0  2  0  0  3  0  0  0  0  0  0
    3.5135   -1.4662   -0.0582 C   0  0  0  0  0  0  0  0  0  0  0  0
    4.6237   -0.5975   -0.1202 C   0  0  0  0  0  0  0  0  0  0  0  0
    4.4582    0.4897   -0.0989 H   0  0  0  0  0  0  0  0  0  0  0  0
    5.9197   -1.1246   -0.2157 C   0  0  0  0  0  0  0  0  0  0  0  0
    6.7809   -0.4418   -0.2708 H   0  0  0  0  0  0  0  0  0  0  0  0
    6.1196   -2.5144   -0.2410 C   0  0  0  0  0  0  0  0  0  0  0  0
    7.1382   -2.9239   -0.3165 H   0  0  0  0  0  0  0  0  0  0  0  0
    5.0180   -3.3809   -0.1647 C   0  0  0  0  0  0  0  0  0  0  0  0
    5.1700   -4.4708   -0.1765 H   0  0  0  0  0  0  0  0  0  0  0  0
    3.7185   -2.8602   -0.0714 C   0  0  0  0  0  0  0  0  0  0  0  0
    2.8533   -3.5367   -0.0055 H   0  0  0  0  0  0  0  0  0  0  0  0
    1.4203   -1.0126   -2.3727 C   0  0  0  0  0  0  0  0  0  0  0  0
    0.4949   -0.5984   -2.8196 H   0  0  0  0  0  0  0  0  0  0  0  0
    2.6031   -0.2510   -2.9867 C   0  0  0  0  0  0  0  0  0  0  0  0
    2.5715    0.8205   -2.7124 H   0  0  0  0  0  0  0  0  0  0  0  0
    2.5588   -0.3184   -4.0924 H   0  0  0  0  0  0  0  0  0  0  0  0
    3.5747   -0.6713   -2.6617 H   0  0  0  0  0  0  0  0  0  0  0  0
    1.4593   -2.5096   -2.7099 C   0  0  0  0  0  0  0  0  0  0  0  0
    0.6170   -3.0430   -2.2272 H   0  0  0  0  0  0  0  0  0  0  0  0
    2.4080   -2.9730   -2.3750 H   0  0  0  0  0  0  0  0  0  0  0  0
    1.3826   -2.6584   -3.8060 H   0  0  0  0  0  0  0  0  0  0  0  0
    2.3469   -0.4215    2.4556 C   0  0  0  0  0  0  0  0  0  0  0  0
    3.4270   -0.2912    2.2208 H   0  0  0  0  0  0  0  0  0  0  0  0
    1.9406    0.7420    3.3584 C   0  0  0  0  0  0  0  0  0  0  0  0
    0.8720    0.6918    3.6450 H   0  0  0  0  0  0  0  0  0  0  0  0
    2.1143    1.7172    2.8693 H   0  0  0  0  0  0  0  0  0  0  0  0
    2.5397    0.7144    4.2899 H   0  0  0  0  0  0  0  0  0  0  0  0
    2.2004   -1.7698    3.1789 C   0  0  0  0  0  0  0  0  0  0  0  0
    2.8254   -1.7839    4.0947 H   0  0  0  0  0  0  0  0  0  0  0  0
    2.5253   -2.6081    2.5317 H   0  0  0  0  0  0  0  0  0  0  0  0
    1.1506   -1.9535    3.4801 H   0  0  0  0  0  0  0  0  0  0  0  0
   -2.1375   -0.9043   -0.0681 C   0  0  2  0  0  3  0  0  0  0  0  0
   -3.5134   -1.4662    0.0583 C   0  0  0  0  0  0  0  0  0  0  0  0
   -4.6238   -0.5976    0.1200 C   0  0  0  0  0  0  0  0  0  0  0  0
   -4.4583    0.4896    0.0985 H   0  0  0  0  0  0  0  0  0  0  0  0
   -5.9198   -1.1247    0.2154 C   0  0  0  0  0  0  0  0  0  0  0  0
   -6.7809   -0.4419    0.2703 H   0  0  0  0  0  0  0  0  0  0  0  0
   -6.1195   -2.5145    0.2410 C   0  0  0  0  0  0  0  0  0  0  0  0
   -7.1382   -2.9240    0.3164 H   0  0  0  0  0  0  0  0  0  0  0  0
   -5.0179   -3.3810    0.1650 C   0  0  0  0  0  0  0  0  0  0  0  0
   -5.1699   -4.4708    0.1770 H   0  0  0  0  0  0  0  0  0  0  0  0
   -3.7185   -2.8603    0.0717 C   0  0  0  0  0  0  0  0  0  0  0  0
   -2.8532   -3.5367    0.0061 H   0  0  0  0  0  0  0  0  0  0  0  0
   -1.4204   -1.0123    2.3728 C   0  0  0  0  0  0  0  0  0  0  0  0
   -0.4951   -0.5981    2.8196 H   0  0  0  0  0  0  0  0  0  0  0  0
   -2.6033   -0.2505    2.9865 C   0  0  0  0  0  0  0  0  0  0  0  0
   -2.5590   -0.3177    4.0922 H   0  0  0  0  0  0  0  0  0  0  0  0
   -3.5749   -0.6709    2.6615 H   0  0  0  0  0  0  0  0  0  0  0  0
   -2.5716    0.8208    2.7120 H   0  0  0  0  0  0  0  0  0  0  0  0
   -1.4596   -2.5093    2.7102 C   0  0  0  0  0  0  0  0  0  0  0  0
   -1.3830   -2.6579    3.8064 H   0  0  0  0  0  0  0  0  0  0  0  0
   -0.6174   -3.0429    2.2277 H   0  0  0  0  0  0  0  0  0  0  0  0
   -2.4084   -2.9727    2.3753 H   0  0  0  0  0  0  0  0  0  0  0  0
   -2.3468   -0.4215   -2.4556 C   0  0  0  0  0  0  0  0  0  0  0  0
   -3.4269   -0.2911   -2.2209 H   0  0  0  0  0  0  0  0  0  0  0  0
   -1.9402    0.7419   -3.3584 C   0  0  0  0  0  0  0  0  0  0  0  0
   -2.1139    1.7171   -2.8695 H   0  0  0  0  0  0  0  0  0  0  0  0
   -2.5393    0.7143   -4.2900 H   0  0  0  0  0  0  0  0  0  0  0  0
   -0.8716    0.6916   -3.6450 H   0  0  0  0  0  0  0  0  0  0  0  0
   -2.2004   -1.7699   -3.1788 C   0  0  0  0  0  0  0  0  0  0  0  0
   -2.5255   -2.6081   -2.5316 H   0  0  0  0  0  0  0  0  0  0  0  0
   -1.1506   -1.9537   -3.4799 H   0  0  0  0  0  0  0  0  0  0  0  0
   -2.8253   -1.7840   -4.0947 H   0  0  0  0  0  0  0  0  0  0  0  0
  1  5  1  6  0  0  0
  1  4  1  0  0  0  0
  1  3  1  0  0  0  0
  2  1  1  0  0  0  0
  2  6  1  0  0  0  0
  3 28  1  0  0  0  0
  4 50  1  0  0  0  0
  5 38  1  0  0  0  0
  6  7  1  6  0  0  0
  6  3  1  0  0  0  0
  8  9  1  0  0  0  0
  8  7  2  0  0  0  0
 10  8  1  0  0  0  0
 11 10  1  0  0  0  0
 12 10  2  0  0  0  0
 12 14  1  0  0  0  0
 13 12  1  0  0  0  0
 14 16  2  0  0  0  0
 15 14  1  0  0  0  0
 16  7  1  0  0  0  0
 16 17  1  0  0  0  0
 18  2  1  0  0  0  0
 19 18  1  0  0  0  0
 20 21  1  0  0  0  0
 20 23  1  0  0  0  0
 20 18  1  0  0  0  0
 22 20  1  0  0  0  0
 24 26  1  0  0  0  0
 24 18  1  0  0  0  0
 24 25  1  0  0  0  0
 27 24  1  0  0  0  0
 28 34  1  0  0  0  0
 28 30  1  0  0  0  0
 29 28  1  0  0  0  0
 30 31  1  0  0  0  0
 30 33  1  0  0  0  0
 32 30  1  0  0  0  0
 34 37  1  0  0  0  0
 34 35  1  0  0  0  0
 36 34  1  0  0  0  0
 38 39  1  1  0  0  0
 38  4  1  0  0  0  0
 39 48  2  0  0  0  0
 39 40  1  0  0  0  0
 40 42  2  0  0  0  0
 41 40  1  0  0  0  0
 42 44  1  0  0  0  0
 42 43  1  0  0  0  0
 44 45  1  0  0  0  0
 46 47  1  0  0  0  0
 46 44  2  0  0  0  0
 48 46  1  0  0  0  0
 49 48  1  0  0  0  0
 50 56  1  0  0  0  0
 50 51  1  0  0  0  0
 50 52  1  0  0  0  0
 52 53  1  0  0  0  0
 54 52  1  0  0  0  0
 55 52  1  0  0  0  0
 56 57  1  0  0  0  0
 58 56  1  0  0  0  0
 59 56  1  0  0  0  0
 60 61  1  0  0  0  0
 60  5  1  0  0  0  0
 62 63  1  0  0  0  0
 62 60  1  0  0  0  0
 64 62  1  0  0  0  0
 65 62  1  0  0  0  0
 66 67  1  0  0  0  0
 66 60  1  0  0  0  0
 68 66  1  0  0  0  0
 69 66  1  0  0  0  0
M  END
