1
q = nan, confidence = 0.0

 50 50  0  0  0  0  0  0  0  0999 V2000
    0.1811   -0.0001    0.4524 Si  0  0  0  0  0  3  0  0  0  0  0  0
   -0.9746   -1.8872   -0.3722 Si  0  0  0  0  0  0  0  0  0  0  0  0
   -3.2327   -1.9593    0.3287 Si  0  0  0  0  0  0  0  0  0  0  0  0
   -4.3871    0.0000   -0.2955 Si  0  0  0  0  0  0  0  0  0  0  0  0
   -3.2325    1.9593    0.3288 Si  0  0  0  0  0  0  0  0  0  0  0  0
   -0.9745    1.8872   -0.3720 Si  0  0  0  0  0  0  0  0  0  0  0  0
   -0.2158   -0.0002    2.3486 C   0  0  0  0  0  0  0  0  0  0  0  0
    0.2268   -0.8955    2.8315 H   0  0  0  0  0  0  0  0  0  0  0  0
   -1.3051   -0.0001    2.5514 H   0  0  0  0  0  0  0  0  0  0  0  0
    0.2269    0.8951    2.8316 H   0  0  0  0  0  0  0  0  0  0  0  0
   -0.1405   -3.4934    0.2557 C   0  0  0  0  0  0  0  0  0  0  0  0
   -0.0564   -3.4966    1.3611 H   0  0  0  0  0  0  0  0  0  0  0  0
    0.8866   -3.5620   -0.1581 H   0  0  0  0  0  0  0  0  0  0  0  0
   -0.7047   -4.3968   -0.0589 H   0  0  0  0  0  0  0  0  0  0  0  0
   -1.0078   -1.9830   -2.2830 C   0  0  0  0  0  0  0  0  0  0  0  0
   -1.4799   -1.0848   -2.7280 H   0  0  0  0  0  0  0  0  0  0  0  0
   -1.5769   -2.8745   -2.6214 H   0  0  0  0  0  0  0  0  0  0  0  0
    0.0251   -2.0605   -2.6769 H   0  0  0  0  0  0  0  0  0  0  0  0
   -4.1231   -3.4465   -0.5014 C   0  0  0  0  0  0  0  0  0  0  0  0
   -3.6299   -4.4018   -0.2224 H   0  0  0  0  0  0  0  0  0  0  0  0
   -4.0898   -3.3587   -1.6067 H   0  0  0  0  0  0  0  0  0  0  0  0
   -5.1884   -3.5066   -0.1924 H   0  0  0  0  0  0  0  0  0  0  0  0
   -3.3955   -2.2093    2.2199 C   0  0  0  0  0  0  0  0  0  0  0  0
   -2.9697   -1.3532    2.7797 H   0  0  0  0  0  0  0  0  0  0  0  0
   -2.8499   -3.1223    2.5381 H   0  0  0  0  0  0  0  0  0  0  0  0
   -4.4602   -2.3215    2.5144 H   0  0  0  0  0  0  0  0  0  0  0  0
   -4.6195   -0.0000   -2.1964 C   0  0  0  0  0  0  0  0  0  0  0  0
   -5.1806   -0.8990   -2.5271 H   0  0  0  0  0  0  0  0  0  0  0  0
   -3.6395   -0.0004   -2.7140 H   0  0  0  0  0  0  0  0  0  0  0  0
   -5.1800    0.8993   -2.5273 H   0  0  0  0  0  0  0  0  0  0  0  0
   -6.1373    0.0001    0.4934 C   0  0  0  0  0  0  0  0  0  0  0  0
   -6.0680    0.0001    1.6006 H   0  0  0  0  0  0  0  0  0  0  0  0
   -6.7134   -0.8986    0.1869 H   0  0  0  0  0  0  0  0  0  0  0  0
   -6.7133    0.8990    0.1870 H   0  0  0  0  0  0  0  0  0  0  0  0
   -4.1229    3.4465   -0.5014 C   0  0  0  0  0  0  0  0  0  0  0  0
   -4.0897    3.3587   -1.6067 H   0  0  0  0  0  0  0  0  0  0  0  0
   -3.6298    4.4018   -0.2224 H   0  0  0  0  0  0  0  0  0  0  0  0
   -5.1883    3.5066   -0.1925 H   0  0  0  0  0  0  0  0  0  0  0  0
   -3.3953    2.2093    2.2200 C   0  0  0  0  0  0  0  0  0  0  0  0
   -2.9690    1.3535    2.7798 H   0  0  0  0  0  0  0  0  0  0  0  0
   -4.4600    2.3210    2.5146 H   0  0  0  0  0  0  0  0  0  0  0  0
   -2.8502    3.1226    2.5380 H   0  0  0  0  0  0  0  0  0  0  0  0
   -0.1403    3.4934    0.2558 C   0  0  0  0  0  0  0  0  0  0  0  0
   -0.0558    3.4965    1.3612 H   0  0  0  0  0  0  0  0  0  0  0  0
   -0.7047    4.3967   -0.0586 H   0  0  0  0  0  0  0  0  0  0  0  0
    0.8866    3.5621   -0.1584 H   0  0  0  0  0  0  0  0  0  0  0  0
   -1.0078    1.9832   -2.2829 C   0  0  0  0  0  0  0  0  0  0  0  0
   -1.4816    1.0859   -2.7280 H   0  0  0  0  0  0  0  0  0  0  0  0
    0.0251    2.0591   -2.6770 H   0  0  0  0  0  0  0  0  0  0  0  0
   -1.5755    2.8757   -2.6210 H   0  0  0  0  0  0  0  0  0  0  0  0
  1  7  1  0  0  0  0
  2 11  1  0  0  0  0
  2  3  1  0  0  0  0
  2  1  1  0  0  0  0
  3 23  1  0  0  0  0
  4  3  1  0  0  0  0
  4  5  1  0  0  0  0
  4 31  1  0  0  0  0
  5 39  1  0  0  0  0
  6 43  1  0  0  0  0
  6  5  1  0  0  0  0
  6  1  1  0  0  0  0
  7  9  1  0  0  0  0
  7  8  1  0  0  0  0
  7 10  1  0  0  0  0
 11 12  1  0  0  0  0
 13 11  1  0  0  0  0
 14 11  1  0  0  0  0
 15  2  1  0  0  0  0
 16 15  1  0  0  0  0
 17 15  1  0  0  0  0
 18 15  1  0  0  0  0
 19 20  1  0  0  0  0
 19 22  1  0  0  0  0
 19  3  1  0  0  0  0
 21 19  1  0  0  0  0
 23 26  1  0  0  0  0
 23 25  1  0  0  0  0
 23 24  1  0  0  0  0
 27  4  1  0  0  0  0
 28 27  1  0  0  0  0
 29 27  1  0  0  0  0
 30 27  1  0  0  0  0
 31 32  1  0  0  0  0
 33 31  1  0  0  0  0
 34 31  1  0  0  0  0
 35 37  1  0  0  0  0
 35 38  1  0  0  0  0
 35  5  1  0  0  0  0
 36 35  1  0  0  0  0
 39 41  1  0  0  0  0
 39 42  1  0  0  0  0
 39 40  1  0  0  0  0
 43 44  1  0  0  0  0
 45 43  1  0  0  0  0
 46 43  1  0  0  0  0
 47  6  1  0  0  0  0
 48 47  1  0  0  0  0
 49 47  1  0  0  0  0
 50 47  1  0  0  0  0
M  END
