1
q = -1.0

 34 36  0  0  0  0  0  0  0  0999 V2000
    0.3529   -0.0137    0.0116 Si  0  0  0  0  0  3  0  0  0  0  0  0
    1.0918    0.9399   -1.4501 C   0  0  0  0  0  0  0  0  0  0  0  0
    0.7516    2.2916   -1.6919 C   0  0  0  0  0  0  0  0  0  0  0  0
    1.3259    3.0016   -2.7558 C   0  0  0  0  0  0  0  0  0  0  0  0
    2.2488    2.3701   -3.6062 C   0  0  0  0  0  0  0  0  0  0  0  0
    2.5973    1.0300   -3.3817 C   0  0  0  0  0  0  0  0  0  0  0  0
    2.0246    0.3221   -2.3125 C   0  0  0  0  0  0  0  0  0  0  0  0
    0.9355   -1.8151   -0.0719 C   0  0  0  0  0  0  0  0  0  0  0  0
    1.7771   -2.3468    0.9304 C   0  0  0  0  0  0  0  0  0  0  0  0
    2.2287   -3.6748    0.8633 C   0  0  0  0  0  0  0  0  0  0  0  0
    1.8485   -4.4947   -0.2095 C   0  0  0  0  0  0  0  0  0  0  0  0
    1.0156   -3.9811   -1.2176 C   0  0  0  0  0  0  0  0  0  0  0  0
    0.5617   -2.6565   -1.1461 C   0  0  0  0  0  0  0  0  0  0  0  0
    0.9741    0.7610    1.6259 C   0  0  0  0  0  0  0  0  0  0  0  0
    1.9254    1.8050    1.6008 C   0  0  0  0  0  0  0  0  0  0  0  0
    2.4085    2.3695    2.7925 C   0  0  0  0  0  0  0  0  0  0  0  0
    1.9502    1.8979    4.0316 C   0  0  0  0  0  0  0  0  0  0  0  0
    1.0073    0.8575    4.0754 C   0  0  0  0  0  0  0  0  0  0  0  0
    0.5224    0.2988    2.8844 C   0  0  0  0  0  0  0  0  0  0  0  0
    0.0294    2.8051   -1.0385 H   0  0  0  0  0  0  0  0  0  0  0  0
    1.0488    4.0535   -2.9253 H   0  0  0  0  0  0  0  0  0  0  0  0
    2.6953    2.9248   -4.4457 H   0  0  0  0  0  0  0  0  0  0  0  0
    3.3205    0.5293   -4.0437 H   0  0  0  0  0  0  0  0  0  0  0  0
    2.3096   -0.7283   -2.1464 H   0  0  0  0  0  0  0  0  0  0  0  0
    2.0860   -1.7136    1.7765 H   0  0  0  0  0  0  0  0  0  0  0  0
    2.8822   -4.0705    1.6560 H   0  0  0  0  0  0  0  0  0  0  0  0
    2.2000   -5.5366   -0.2614 H   0  0  0  0  0  0  0  0  0  0  0  0
    0.7145   -4.6184   -2.0633 H   0  0  0  0  0  0  0  0  0  0  0  0
   -0.0910   -2.2743   -1.9462 H   0  0  0  0  0  0  0  0  0  0  0  0
    2.2956    2.1832    0.6353 H   0  0  0  0  0  0  0  0  0  0  0  0
    3.1479    3.1840    2.7509 H   0  0  0  0  0  0  0  0  0  0  0  0
    2.3266    2.3417    4.9661 H   0  0  0  0  0  0  0  0  0  0  0  0
    0.6441    0.4817    5.0444 H   0  0  0  0  0  0  0  0  0  0  0  0
   -0.2178   -0.5144    2.9417 H   0  0  0  0  0  0  0  0  0  0  0  0
  1 14  1  0  0  0  0
  2  1  1  0  0  0  0
  3  2  1  0  0  0  0
  3 20  1  0  0  0  0
  4  3  2  0  0  0  0
  5  6  2  0  0  0  0
  5  4  1  0  0  0  0
  6  7  1  0  0  0  0
  7 24  1  0  0  0  0
  7  2  2  0  0  0  0
  8  1  1  0  0  0  0
  8  9  1  0  0  0  0
  9 25  1  0  0  0  0
 10  9  2  0  0  0  0
 10 26  1  0  0  0  0
 11 10  1  0  0  0  0
 12 13  1  0  0  0  0
 12 11  2  0  0  0  0
 13  8  2  0  0  0  0
 14 19  1  0  0  0  0
 15 14  2  0  0  0  0
 15 16  1  0  0  0  0
 16 17  2  0  0  0  0
 17 18  1  0  0  0  0
 17 32  1  0  0  0  0
 18 33  1  0  0  0  0
 19 34  1  0  0  0  0
 19 18  2  0  0  0  0
 21  4  1  0  0  0  0
 22  5  1  0  0  0  0
 23  6  1  0  0  0  0
 27 11  1  0  0  0  0
 28 12  1  0  0  0  0
 29 13  1  0  0  0  0
 30 15  1  0  0  0  0
 31 16  1  0  0  0  0
M  END
