1
q = -1.0

 24 25  0  0  0  0  0  0  0  0999 V2000
   -0.2579    0.2293   -0.6425 Si  0  0  0  0  0  3  0  0  0  0  0  0
   -0.1919    0.1205   -2.3103 F   0  0  0  0  0  0  0  0  0  0  0  0
   -2.0955    0.0877   -0.2438 C   0  0  0  0  0  0  0  0  0  0  0  0
   -2.9587   -0.5844   -1.1376 C   0  0  0  0  0  0  0  0  0  0  0  0
   -4.3221   -0.7356   -0.8423 C   0  0  0  0  0  0  0  0  0  0  0  0
   -4.8441   -0.2190    0.3542 C   0  0  0  0  0  0  0  0  0  0  0  0
   -3.9990    0.4530    1.2522 C   0  0  0  0  0  0  0  0  0  0  0  0
   -2.6366    0.6053    0.9541 C   0  0  0  0  0  0  0  0  0  0  0  0
    0.3501    1.9835   -0.2721 C   0  0  0  0  0  0  0  0  0  0  0  0
    0.6264    2.4283    1.0411 C   0  0  0  0  0  0  0  0  0  0  0  0
    1.0699    3.7381    1.2818 C   0  0  0  0  0  0  0  0  0  0  0  0
    1.2587    4.6250    0.2091 C   0  0  0  0  0  0  0  0  0  0  0  0
    0.9986    4.1967   -1.1020 C   0  0  0  0  0  0  0  0  0  0  0  0
    0.5473    2.8885   -1.3396 C   0  0  0  0  0  0  0  0  0  0  0  0
   -4.4047    0.8643    2.1894 H   0  0  0  0  0  0  0  0  0  0  0  0
   -1.9902    1.1428    1.6657 H   0  0  0  0  0  0  0  0  0  0  0  0
    0.4981    1.7440    1.8953 H   0  0  0  0  0  0  0  0  0  0  0  0
    1.2727    4.0681    2.3125 H   0  0  0  0  0  0  0  0  0  0  0  0
    1.6108    5.6511    0.3963 H   0  0  0  0  0  0  0  0  0  0  0  0
   -2.5568   -0.9899   -2.0791 H   0  0  0  0  0  0  0  0  0  0  0  0
    1.1465    4.8875   -1.9468 H   0  0  0  0  0  0  0  0  0  0  0  0
   -4.9819   -1.2599   -1.5509 H   0  0  0  0  0  0  0  0  0  0  0  0
    0.3412    2.5586   -2.3700 H   0  0  0  0  0  0  0  0  0  0  0  0
   -5.9134   -0.3389    0.5874 H   0  0  0  0  0  0  0  0  0  0  0  0
  1  9  1  0  0  0  0
  1  3  1  0  0  0  0
  2  1  1  0  0  0  0
  3  8  1  0  0  0  0
  4  5  1  0  0  0  0
  4  3  2  0  0  0  0
  5  6  2  0  0  0  0
  6 24  1  0  0  0  0
  6  7  1  0  0  0  0
  7 15  1  0  0  0  0
  8  7  2  0  0  0  0
  8 16  1  0  0  0  0
  9 10  1  0  0  0  0
 10 11  2  0  0  0  0
 10 17  1  0  0  0  0
 11 18  1  0  0  0  0
 12 19  1  0  0  0  0
 12 11  1  0  0  0  0
 13 12  2  0  0  0  0
 14 13  1  0  0  0  0
 14  9  2  0  0  0  0
 20  4  1  0  0  0  0
 21 13  1  0  0  0  0
 22  5  1  0  0  0  0
 23 14  1  0  0  0  0
M  END
