2
q = -1

 44 45  0  0  0  0  0  0  0  0999 V2000
    0.8318    0.0207    0.3539 P   0  0  0  0  0  0  0  0  0  0  0  0
   -0.5336   -0.3176    2.0827 Si  0  0  0  0  0  3  0  0  0  0  0  0
   -0.2847   -2.0423    2.8601 C   0  0  0  0  0  0  0  0  0  0  0  0
    0.5407   -2.0313    3.6024 H   0  0  0  0  0  0  0  0  0  0  0  0
   -0.0609   -2.8139    2.0973 H   0  0  0  0  0  0  0  0  0  0  0  0
   -1.2078   -2.3544    3.3927 H   0  0  0  0  0  0  0  0  0  0  0  0
   -0.5918    0.9311    3.5117 C   0  0  0  0  0  0  0  0  0  0  0  0
   -1.4979    0.7336    4.1241 H   0  0  0  0  0  0  0  0  0  0  0  0
   -0.6576    1.9723    3.1440 H   0  0  0  0  0  0  0  0  0  0  0  0
    0.2924    0.8363    4.1751 H   0  0  0  0  0  0  0  0  0  0  0  0
    1.9465   -1.4415    0.0025 C   0  0  0  0  0  0  0  0  0  0  0  0
    1.2650   -2.3141    0.0964 H   0  0  0  0  0  0  0  0  0  0  0  0
    3.0602   -1.5948    1.0552 C   0  0  0  0  0  0  0  0  0  0  0  0
    3.7158   -0.6950    1.0294 H   0  0  0  0  0  0  0  0  0  0  0  0
    2.6146   -1.6262    2.0702 H   0  0  0  0  0  0  0  0  0  0  0  0
    3.9095   -2.8480    0.7949 C   0  0  0  0  0  0  0  0  0  0  0  0
    4.7239   -2.9195    1.5465 H   0  0  0  0  0  0  0  0  0  0  0  0
    3.2728   -3.7503    0.9380 H   0  0  0  0  0  0  0  0  0  0  0  0
    4.4852   -2.8586   -0.6267 C   0  0  0  0  0  0  0  0  0  0  0  0
    5.0626   -3.7898   -0.8060 H   0  0  0  0  0  0  0  0  0  0  0  0
    5.2074   -2.0176   -0.7335 H   0  0  0  0  0  0  0  0  0  0  0  0
    3.3777   -2.7023   -1.6761 C   0  0  0  0  0  0  0  0  0  0  0  0
    2.7142   -3.5963   -1.6452 H   0  0  0  0  0  0  0  0  0  0  0  0
    3.8100   -2.6699   -2.6985 H   0  0  0  0  0  0  0  0  0  0  0  0
    2.5336   -1.4452   -1.4195 C   0  0  0  0  0  0  0  0  0  0  0  0
    1.7220   -1.3582   -2.1693 H   0  0  0  0  0  0  0  0  0  0  0  0
    3.1755   -0.5457   -1.5527 H   0  0  0  0  0  0  0  0  0  0  0  0
    1.8990    1.5355    0.0454 C   0  0  0  0  0  0  0  0  0  0  0  0
    2.9427    1.1466    0.0080 H   0  0  0  0  0  0  0  0  0  0  0  0
    1.8174    2.5644    1.1860 C   0  0  0  0  0  0  0  0  0  0  0  0
    2.1080    2.0866    2.1442 H   0  0  0  0  0  0  0  0  0  0  0  0
    0.7641    2.8948    1.3036 H   0  0  0  0  0  0  0  0  0  0  0  0
    2.6937    3.7914    0.8958 C   0  0  0  0  0  0  0  0  0  0  0  0
    2.5937    4.5301    1.7188 H   0  0  0  0  0  0  0  0  0  0  0  0
    3.7643    3.4839    0.8788 H   0  0  0  0  0  0  0  0  0  0  0  0
    2.3314    4.4319   -0.4501 C   0  0  0  0  0  0  0  0  0  0  0  0
    2.9839    5.3071   -0.6532 H   0  0  0  0  0  0  0  0  0  0  0  0
    1.2891    4.8191   -0.3980 H   0  0  0  0  0  0  0  0  0  0  0  0
    2.4299    3.4119   -1.5912 C   0  0  0  0  0  0  0  0  0  0  0  0
    3.4921    3.0979   -1.7102 H   0  0  0  0  0  0  0  0  0  0  0  0
    2.1323    3.8749   -2.5559 H   0  0  0  0  0  0  0  0  0  0  0  0
    1.5634    2.1753   -1.3145 C   0  0  0  0  0  0  0  0  0  0  0  0
    1.6779    1.4271   -2.1269 H   0  0  0  0  0  0  0  0  0  0  0  0
    0.4884    2.4592   -1.3096 H   0  0  0  0  0  0  0  0  0  0  0  0
  1  2  1  0  0  0  0
  2  3  1  0  0  0  0
  2  7  1  0  0  0  0
  3  6  1  0  0  0  0
  3  4  1  0  0  0  0
  5  3  1  0  0  0  0
  7  8  1  0  0  0  0
  7 10  1  0  0  0  0
  9  7  1  0  0  0  0
 11 12  1  0  0  0  0
 11  1  1  0  0  0  0
 11 13  1  0  0  0  0
 13 15  1  0  0  0  0
 14 13  1  0  0  0  0
 16 18  1  0  0  0  0
 16 13  1  0  0  0  0
 16 17  1  0  0  0  0
 19 16  1  0  0  0  0
 20 19  1  0  0  0  0
 21 19  1  0  0  0  0
 22 23  1  0  0  0  0
 22 25  1  0  0  0  0
 22 19  1  0  0  0  0
 24 22  1  0  0  0  0
 25 11  1  0  0  0  0
 26 25  1  0  0  0  0
 27 25  1  0  0  0  0
 28  1  1  0  0  0  0
 28 30  1  0  0  0  0
 29 28  1  0  0  0  0
 30 32  1  0  0  0  0
 30 31  1  0  0  0  0
 33 30  1  0  0  0  0
 33 34  1  0  0  0  0
 35 33  1  0  0  0  0
 36 38  1  0  0  0  0
 36 33  1  0  0  0  0
 37 36  1  0  0  0  0
 39 42  1  0  0  0  0
 39 36  1  0  0  0  0
 40 39  1  0  0  0  0
 41 39  1  0  0  0  0
 42 44  1  0  0  0  0
 42 28  1  0  0  0  0
 43 42  1  0  0  0  0
M  END
