1
q = 0.0, confidence = 0.994

 66 69  0  0  1  0  0  0  0  0999 V2000
   -0.8158   -0.0741    0.1163 Si  0  0  1  0  0  0  0  0  0  0  0  0
    0.7403    0.5517   -0.7592 N   0  0  0  0  0  0  0  0  0  0  0  0
    0.7277   -0.5737    1.0948 N   0  0  0  0  0  0  0  0  0  0  0  0
    1.5314   -0.0993    0.1121 C   0  0  1  0  0  0  0  0  0  0  0  0
   -1.9764    3.3975   -0.2307 C   0  0  0  0  0  0  0  0  0  0  0  0
   -0.7548    2.5020    1.5309 C   0  0  0  0  0  0  0  0  0  0  0  0
   -1.6949    1.4412    1.0339 C   0  0  1  0  0  0  0  0  0  0  0  0
    1.0480    1.3002   -1.9961 C   0  0  0  0  0  0  0  0  0  0  0  0
    0.9677   -1.6566    2.0730 C   0  0  0  0  0  0  0  0  0  0  0  0
   -0.9331    3.6418    0.7756 C   0  0  0  0  0  0  0  0  0  0  0  0
    3.5544   -1.4120   -0.6453 C   0  0  0  0  0  0  0  0  0  0  0  0
    2.8865   -2.1492   -1.1142 H   0  0  0  0  0  0  0  0  0  0  0  0
    3.0041   -0.2908    0.0081 C   0  0  0  0  0  0  0  0  0  0  0  0
   -2.4569    2.1140   -0.0866 C   0  0  0  0  0  0  0  0  0  0  0  0
    3.8585    0.6719    0.5819 C   0  0  0  0  0  0  0  0  0  0  0  0
    3.4227    1.5424    1.0951 H   0  0  0  0  0  0  0  0  0  0  0  0
    0.1689    2.3140    2.6921 C   0  0  0  0  0  0  0  0  0  0  0  0
   -0.3800    2.0016    3.6081 H   0  0  0  0  0  0  0  0  0  0  0  0
    0.7134    3.2459    2.9389 H   0  0  0  0  0  0  0  0  0  0  0  0
    0.9187    1.5177    2.4972 H   0  0  0  0  0  0  0  0  0  0  0  0
   -0.2280    4.9585    0.9108 C   0  0  0  0  0  0  0  0  0  0  0  0
    0.3035    5.2451   -0.0233 H   0  0  0  0  0  0  0  0  0  0  0  0
    0.5199    4.9502    1.7269 H   0  0  0  0  0  0  0  0  0  0  0  0
   -0.9443    5.7815    1.1220 H   0  0  0  0  0  0  0  0  0  0  0  0
   -2.3920    4.4266   -1.2376 C   0  0  0  0  0  0  0  0  0  0  0  0
   -2.7388    5.3619   -0.7485 H   0  0  0  0  0  0  0  0  0  0  0  0
   -3.2097    4.0667   -1.8909 H   0  0  0  0  0  0  0  0  0  0  0  0
   -1.5421    4.7161   -1.8944 H   0  0  0  0  0  0  0  0  0  0  0  0
   -3.5695    1.4453   -0.8330 C   0  0  0  0  0  0  0  0  0  0  0  0
   -4.4183    1.1861   -0.1627 H   0  0  0  0  0  0  0  0  0  0  0  0
   -3.2460    0.4827   -1.2922 H   0  0  0  0  0  0  0  0  0  0  0  0
   -3.9670    2.0852   -1.6443 H   0  0  0  0  0  0  0  0  0  0  0  0
    2.2721   -1.4365    2.8601 C   0  0  0  0  0  0  0  0  0  0  0  0
    3.1717   -1.5613    2.2299 H   0  0  0  0  0  0  0  0  0  0  0  0
    2.3312   -2.1761    3.6832 H   0  0  0  0  0  0  0  0  0  0  0  0
    2.2958   -0.4225    3.3071 H   0  0  0  0  0  0  0  0  0  0  0  0
    4.9456   -1.5686   -0.7152 C   0  0  0  0  0  0  0  0  0  0  0  0
    5.3697   -2.4447   -1.2284 H   0  0  0  0  0  0  0  0  0  0  0  0
    2.1312    0.6224   -2.8562 C   0  0  0  0  0  0  0  0  0  0  0  0
    3.1305    0.6607   -2.3856 H   0  0  0  0  0  0  0  0  0  0  0  0
    2.1979    1.1540   -3.8261 H   0  0  0  0  0  0  0  0  0  0  0  0
    1.8750   -0.4348   -3.0634 H   0  0  0  0  0  0  0  0  0  0  0  0
    5.7949   -0.6096   -0.1388 C   0  0  0  0  0  0  0  0  0  0  0  0
    6.8866   -0.7357   -0.1958 H   0  0  0  0  0  0  0  0  0  0  0  0
    5.2498    0.5113    0.5073 C   0  0  0  0  0  0  0  0  0  0  0  0
    5.9118    1.2655    0.9585 H   0  0  0  0  0  0  0  0  0  0  0  0
   -0.2205   -1.6299    3.0473 C   0  0  0  0  0  0  0  0  0  0  0  0
   -0.2563   -0.6718    3.6010 H   0  0  0  0  0  0  0  0  0  0  0  0
   -0.1327   -2.4545    3.7808 H   0  0  0  0  0  0  0  0  0  0  0  0
   -1.1763   -1.7634    2.5004 H   0  0  0  0  0  0  0  0  0  0  0  0
   -0.2629    1.3476   -2.8004 C   0  0  0  0  0  0  0  0  0  0  0  0
   -0.5962    0.3243   -3.0660 H   0  0  0  0  0  0  0  0  0  0  0  0
   -0.1170    1.9240   -3.7346 H   0  0  0  0  0  0  0  0  0  0  0  0
   -1.0609    1.8384   -2.2091 H   0  0  0  0  0  0  0  0  0  0  0  0
    0.9912   -3.0204    1.3539 C   0  0  0  0  0  0  0  0  0  0  0  0
    0.0564   -3.1673    0.7740 H   0  0  0  0  0  0  0  0  0  0  0  0
    1.0747   -3.8469    2.0878 H   0  0  0  0  0  0  0  0  0  0  0  0
    1.8461   -3.0941    0.6555 H   0  0  0  0  0  0  0  0  0  0  0  0
    1.4957    2.7244   -1.6200 C   0  0  0  0  0  0  0  0  0  0  0  0
    0.7321    3.2059   -0.9825 H   0  0  0  0  0  0  0  0  0  0  0  0
    1.6472    3.3362   -2.5319 H   0  0  0  0  0  0  0  0  0  0  0  0
    2.4524    2.6987   -1.0604 H   0  0  0  0  0  0  0  0  0  0  0  0
   -2.6253    0.8544    2.1162 C   0  0  0  0  0  0  0  0  0  0  0  0
   -3.2391    0.0159    1.7302 H   0  0  0  0  0  0  0  0  0  0  0  0
   -3.3120    1.6480    2.4786 H   0  0  0  0  0  0  0  0  0  0  0  0
   -2.0577    0.4749    2.9864 H   0  0  0  0  0  0  0  0  0  0  0  0
  1  2  1  6  0  0  0
  1  7  1  0  0  0  0
  1  3  1  0  0  0  0
  1  4  1  0  0  0  0
  2  4  1  0  0  0  0
  3  9  1  0  0  0  0
  4 13  1  6  0  0  0
  4  3  1  0  0  0  0
  5 14  2  0  0  0  0
  5 10  1  0  0  0  0
  6 17  1  0  0  0  0
  7  6  1  0  0  0  0
  7 63  1  1  0  0  0
  8 59  1  0  0  0  0
  8  2  1  0  0  0  0
  9 33  1  0  0  0  0
  9 47  1  0  0  0  0
 10 21  1  0  0  0  0
 10  6  2  0  0  0  0
 11 13  1  0  0  0  0
 12 11  1  0  0  0  0
 13 15  2  0  0  0  0
 14  7  1  0  0  0  0
 15 16  1  0  0  0  0
 17 19  1  0  0  0  0
 17 18  1  0  0  0  0
 20 17  1  0  0  0  0
 21 24  1  0  0  0  0
 21 23  1  0  0  0  0
 22 21  1  0  0  0  0
 25 26  1  0  0  0  0
 25  5  1  0  0  0  0
 27 25  1  0  0  0  0
 28 25  1  0  0  0  0
 29 30  1  0  0  0  0
 29 14  1  0  0  0  0
 31 29  1  0  0  0  0
 32 29  1  0  0  0  0
 33 36  1  0  0  0  0
 33 35  1  0  0  0  0
 34 33  1  0  0  0  0
 37 11  2  0  0  0  0
 37 43  1  0  0  0  0
 38 37  1  0  0  0  0
 39 40  1  0  0  0  0
 39  8  1  0  0  0  0
 41 39  1  0  0  0  0
 42 39  1  0  0  0  0
 43 45  2  0  0  0  0
 44 43  1  0  0  0  0
 45 15  1  0  0  0  0
 45 46  1  0  0  0  0
 47 48  1  0  0  0  0
 47 49  1  0  0  0  0
 50 47  1  0  0  0  0
 51 54  1  0  0  0  0
 51  8  1  0  0  0  0
 52 51  1  0  0  0  0
 53 51  1  0  0  0  0
 55  9  1  0  0  0  0
 55 57  1  0  0  0  0
 56 55  1  0  0  0  0
 58 55  1  0  0  0  0
 59 62  1  0  0  0  0
 59 60  1  0  0  0  0
 61 59  1  0  0  0  0
 63 65  1  0  0  0  0
 63 66  1  0  0  0  0
 64 63  1  0  0  0  0
M  HYD  1   4   0
M  ZBO  1   4   0
M  END
