1
q = 0.0, confidence = 0.526

 46 48  0  0  0  0  0  0  0  0999 V2000
   -0.0253    2.0387    1.2526 Si  0  0  0  0  0  3  0  0  0  0  0  0
   -0.0253   -2.0388    1.2525 Si  0  0  0  0  0  3  0  0  0  0  0  0
    2.2568    0.0000    0.9107 O   0  0  0  0  0  0  0  0  0  0  0  0
    0.3600    1.9369    3.1166 C   0  0  0  0  0  0  0  0  0  0  0  0
   -0.9393    3.7072    1.0808 C   0  0  0  0  0  0  0  0  0  0  0  0
   -0.9392   -3.7074    1.0805 C   0  0  0  0  0  0  0  0  0  0  0  0
    0.3600   -1.9372    3.1165 C   0  0  0  0  0  0  0  0  0  0  0  0
    1.6380    2.2377    0.3299 C   0  0  0  0  0  0  0  0  0  0  0  0
    1.9714    3.4152   -0.3746 C   0  0  0  0  0  0  0  0  0  0  0  0
    3.1478    3.5083   -1.1340 C   0  0  0  0  0  0  0  0  0  0  0  0
    4.0301    2.4195   -1.2063 C   0  0  0  0  0  0  0  0  0  0  0  0
    3.7561    1.2298   -0.5098 C   0  0  0  0  0  0  0  0  0  0  0  0
    2.5667    1.1781    0.2440 C   0  0  0  0  0  0  0  0  0  0  0  0
    1.6382   -2.2377    0.3299 C   0  0  0  0  0  0  0  0  0  0  0  0
    1.9716   -3.4152   -0.3746 C   0  0  0  0  0  0  0  0  0  0  0  0
    3.1480   -3.5082   -1.1340 C   0  0  0  0  0  0  0  0  0  0  0  0
    4.0303   -2.4193   -1.2063 C   0  0  0  0  0  0  0  0  0  0  0  0
    3.7562   -1.2297   -0.5098 C   0  0  0  0  0  0  0  0  0  0  0  0
    2.5668   -1.1781    0.2440 C   0  0  0  0  0  0  0  0  0  0  0  0
    4.6718    0.0001   -0.4716 C   0  0  0  0  0  0  0  0  0  0  0  0
    5.4345    0.0001    0.8823 C   0  0  0  0  0  0  0  0  0  0  0  0
    5.6891    0.0001   -1.6189 C   0  0  0  0  0  0  0  0  0  0  0  0
    1.0811    1.1246    3.3328 H   0  0  0  0  0  0  0  0  0  0  0  0
   -0.5610    1.7400    3.7034 H   0  0  0  0  0  0  0  0  0  0  0  0
    0.7997    2.8927    3.4693 H   0  0  0  0  0  0  0  0  0  0  0  0
   -1.2105    3.9720    0.0399 H   0  0  0  0  0  0  0  0  0  0  0  0
   -0.3074    4.5252    1.4873 H   0  0  0  0  0  0  0  0  0  0  0  0
   -1.8701    3.6774    1.6826 H   0  0  0  0  0  0  0  0  0  0  0  0
   -0.3074   -4.5253    1.4870 H   0  0  0  0  0  0  0  0  0  0  0  0
   -1.8702   -3.6776    1.6821 H   0  0  0  0  0  0  0  0  0  0  0  0
   -1.2102   -3.9720    0.0394 H   0  0  0  0  0  0  0  0  0  0  0  0
    0.7997   -2.8930    3.4692 H   0  0  0  0  0  0  0  0  0  0  0  0
   -0.5612   -1.7405    3.7033 H   0  0  0  0  0  0  0  0  0  0  0  0
    1.0809   -1.1249    3.3329 H   0  0  0  0  0  0  0  0  0  0  0  0
    1.2854    4.2760   -0.3451 H   0  0  0  0  0  0  0  0  0  0  0  0
    3.3786    4.4353   -1.6806 H   0  0  0  0  0  0  0  0  0  0  0  0
    4.9452    2.5028   -1.8095 H   0  0  0  0  0  0  0  0  0  0  0  0
    1.2856   -4.2760   -0.3452 H   0  0  0  0  0  0  0  0  0  0  0  0
    3.3789   -4.4353   -1.6806 H   0  0  0  0  0  0  0  0  0  0  0  0
    4.9454   -2.5026   -1.8095 H   0  0  0  0  0  0  0  0  0  0  0  0
    6.0751    0.9017    0.9617 H   0  0  0  0  0  0  0  0  0  0  0  0
    4.7302    0.0001    1.7364 H   0  0  0  0  0  0  0  0  0  0  0  0
    6.0752   -0.9015    0.9617 H   0  0  0  0  0  0  0  0  0  0  0  0
    6.3479   -0.8879   -1.5588 H   0  0  0  0  0  0  0  0  0  0  0  0
    6.3479    0.8882   -1.5588 H   0  0  0  0  0  0  0  0  0  0  0  0
    5.1910    0.0001   -2.6086 H   0  0  0  0  0  0  0  0  0  0  0  0
  1  4  1  0  0  0  0
  2  7  1  0  0  0  0
  4 23  1  0  0  0  0
  4 25  1  0  0  0  0
  4 24  1  0  0  0  0
  5  1  1  0  0  0  0
  5 27  1  0  0  0  0
  5 28  1  0  0  0  0
  6  2  1  0  0  0  0
  6 29  1  0  0  0  0
  6 30  1  0  0  0  0
  7 34  1  0  0  0  0
  7 32  1  0  0  0  0
  7 33  1  0  0  0  0
  8  1  1  0  0  0  0
  9 35  1  0  0  0  0
  9  8  2  0  0  0  0
 10  9  1  0  0  0  0
 11 10  2  0  0  0  0
 11 12  1  0  0  0  0
 12 20  1  0  0  0  0
 12 13  2  0  0  0  0
 13  8  1  0  0  0  0
 13  3  1  0  0  0  0
 14  2  1  0  0  0  0
 15 38  1  0  0  0  0
 15 14  2  0  0  0  0
 16 15  1  0  0  0  0
 17 16  2  0  0  0  0
 17 18  1  0  0  0  0
 18 20  1  0  0  0  0
 18 19  2  0  0  0  0
 19 14  1  0  0  0  0
 19  3  1  0  0  0  0
 20 21  1  0  0  0  0
 21 41  1  0  0  0  0
 21 43  1  0  0  0  0
 21 42  1  0  0  0  0
 22 45  1  0  0  0  0
 22 44  1  0  0  0  0
 22 20  1  0  0  0  0
 26  5  1  0  0  0  0
 31  6  1  0  0  0  0
 36 10  1  0  0  0  0
 37 11  1  0  0  0  0
 39 16  1  0  0  0  0
 40 17  1  0  0  0  0
 46 22  1  0  0  0  0
M  END
