3
q = -1.0, confidence = 0.0

 14 14  0  0  0  0  0  0  0  0999 V2000
    0.8249   -2.7740   -1.4567 Cl  0  0  0  0  0  0  0  0  0  0  0  0
    0.6886   -2.2768    1.8098 Cl  0  0  0  0  0  0  0  0  0  0  0  0
    0.7675   -1.1480   -0.0426 Si  0  0  0  0  0  3  0  0  0  0  0  0
    2.5840   -0.5567   -0.0467 C   0  0  0  0  0  0  0  0  0  0  0  0
    3.3767   -0.4746    1.1183 C   0  0  0  0  0  0  0  0  0  0  0  0
    2.9916   -0.8960    2.0605 H   0  0  0  0  0  0  0  0  0  0  0  0
    4.6545    0.1095    1.0903 C   0  0  0  0  0  0  0  0  0  0  0  0
    5.2522    0.1627    2.0139 H   0  0  0  0  0  0  0  0  0  0  0  0
    5.1733    0.6127   -0.1123 C   0  0  0  0  0  0  0  0  0  0  0  0
    6.1742    1.0704   -0.1369 H   0  0  0  0  0  0  0  0  0  0  0  0
    4.4126    0.5117   -1.2898 C   0  0  0  0  0  0  0  0  0  0  0  0
    4.8217    0.8807   -2.2434 H   0  0  0  0  0  0  0  0  0  0  0  0
    3.1348   -0.0652   -1.2531 C   0  0  0  0  0  0  0  0  0  0  0  0
    2.5596   -0.1511   -2.1885 H   0  0  0  0  0  0  0  0  0  0  0  0
  1  3  1  0  0  0  0
  3  2  1  0  0  0  0
  4  3  1  0  0  0  0
  4  5  1  0  0  0  0
  5  6  1  0  0  0  0
  7  5  2  0  0  0  0
  7  8  1  0  0  0  0
  9  7  1  0  0  0  0
 10  9  1  0  0  0  0
 11 13  1  0  0  0  0
 11  9  2  0  0  0  0
 12 11  1  0  0  0  0
 13  4  2  0  0  0  0
 14 13  1  0  0  0  0
M  END
