1
q = -1.0

 43 44  0  0  1  0  0  0  0  0999 V2000
    1.6627    0.6500    1.6776 Si  0  0  0  0  0  3  0  0  0  0  0  0
   -0.9136    0.0502    0.3396 P   0  0  0  0  0  0  0  0  0  0  0  0
    2.2272    2.4762    1.7793 C   0  0  0  0  0  0  0  0  0  0  0  0
    1.7926    3.1363    1.0034 H   0  0  0  0  0  0  0  0  0  0  0  0
    3.3297    2.5690    1.7355 H   0  0  0  0  0  0  0  0  0  0  0  0
    1.8972    2.8533    2.7705 H   0  0  0  0  0  0  0  0  0  0  0  0
    2.9614   -0.2452    2.7478 C   0  0  0  0  0  0  0  0  0  0  0  0
    3.0279    0.2191    3.7543 H   0  0  0  0  0  0  0  0  0  0  0  0
    3.9616   -0.1559    2.2726 H   0  0  0  0  0  0  0  0  0  0  0  0
    2.7426   -1.3240    2.8644 H   0  0  0  0  0  0  0  0  0  0  0  0
    0.2027    0.7627    2.6626 O   0  0  0  0  0  0  0  0  0  0  0  0
   -0.9715    0.0932    2.2976 C   0  0  1  0  0  0  0  0  0  0  0  0
   -2.1869    0.8432    2.8606 C   0  0  0  0  0  0  0  0  0  0  0  0
   -2.0647    0.8969    3.9609 H   0  0  0  0  0  0  0  0  0  0  0  0
   -3.1287    0.3021    2.6481 H   0  0  0  0  0  0  0  0  0  0  0  0
   -2.2651    1.8720    2.4637 H   0  0  0  0  0  0  0  0  0  0  0  0
   -1.0267   -1.3378    2.7910 C   0  0  0  0  0  0  0  0  0  0  0  0
   -1.8647   -1.9469    2.4117 H   0  0  0  0  0  0  0  0  0  0  0  0
   -0.1700   -1.8473    3.6901 C   0  0  0  0  0  0  0  0  0  0  0  0
    0.6570   -1.2370    4.0827 H   0  0  0  0  0  0  0  0  0  0  0  0
   -0.2661   -2.8836    4.0472 H   0  0  0  0  0  0  0  0  0  0  0  0
   -1.5989    1.6893   -0.1682 C   0  0  0  0  0  0  0  0  0  0  0  0
   -1.1114    2.8556    0.4635 C   0  0  0  0  0  0  0  0  0  0  0  0
   -0.4042    2.7606    1.2988 H   0  0  0  0  0  0  0  0  0  0  0  0
   -1.5260    4.1254    0.0389 C   0  0  0  0  0  0  0  0  0  0  0  0
   -1.1386    5.0206    0.5491 H   0  0  0  0  0  0  0  0  0  0  0  0
   -2.4231    4.2566   -1.0337 C   0  0  0  0  0  0  0  0  0  0  0  0
   -2.7412    5.2542   -1.3726 H   0  0  0  0  0  0  0  0  0  0  0  0
   -2.9151    3.1051   -1.6671 C   0  0  0  0  0  0  0  0  0  0  0  0
   -3.6229    3.1950   -2.5055 H   0  0  0  0  0  0  0  0  0  0  0  0
   -2.5114    1.8311   -1.2351 C   0  0  0  0  0  0  0  0  0  0  0  0
   -2.9131    0.9392   -1.7366 H   0  0  0  0  0  0  0  0  0  0  0  0
   -2.2661   -1.1258   -0.1248 C   0  0  0  0  0  0  0  0  0  0  0  0
   -3.6322   -0.8451    0.1010 C   0  0  0  0  0  0  0  0  0  0  0  0
   -3.9342    0.1318    0.5068 H   0  0  0  0  0  0  0  0  0  0  0  0
   -4.6131   -1.8021   -0.1981 C   0  0  0  0  0  0  0  0  0  0  0  0
   -5.6739   -1.5702   -0.0171 H   0  0  0  0  0  0  0  0  0  0  0  0
   -4.2453   -3.0513   -0.7255 C   0  0  0  0  0  0  0  0  0  0  0  0
   -5.0171   -3.8006   -0.9587 H   0  0  0  0  0  0  0  0  0  0  0  0
   -2.8907   -3.3384   -0.9533 C   0  0  0  0  0  0  0  0  0  0  0  0
   -2.5934   -4.3151   -1.3648 H   0  0  0  0  0  0  0  0  0  0  0  0
   -1.9090   -2.3808   -0.6563 C   0  0  0  0  0  0  0  0  0  0  0  0
   -0.8448   -2.5976   -0.8252 H   0  0  0  0  0  0  0  0  0  0  0  0
  1  3  1  0  0  0  0
  1 11  1  0  0  0  0
  1  7  1  0  0  0  0
  2 12  1  0  0  0  0
  3  6  1  0  0  0  0
  4  3  1  0  0  0  0
  5  3  1  0  0  0  0
  7 10  1  0  0  0  0
  7  8  1  0  0  0  0
  9  7  1  0  0  0  0
 12 11  1  1  0  0  0
 12 17  1  0  0  0  0
 12 13  1  0  0  0  0
 13 14  1  0  0  0  0
 15 13  1  0  0  0  0
 16 13  1  0  0  0  0
 17 19  2  0  0  0  0
 18 17  1  0  0  0  0
 19 21  1  0  0  0  0
 19 20  1  0  0  0  0
 22  2  1  0  0  0  0
 22 23  1  0  0  0  0
 23 24  1  0  0  0  0
 25 23  2  0  0  0  0
 25 26  1  0  0  0  0
 27 25  1  0  0  0  0
 28 27  1  0  0  0  0
 29 31  1  0  0  0  0
 29 27  2  0  0  0  0
 30 29  1  0  0  0  0
 31 22  2  0  0  0  0
 32 31  1  0  0  0  0
 33 34  1  0  0  0  0
 33  2  1  0  0  0  0
 34 35  1  0  0  0  0
 36 37  1  0  0  0  0
 36 34  2  0  0  0  0
 38 36  1  0  0  0  0
 39 38  1  0  0  0  0
 40 38  2  0  0  0  0
 40 42  1  0  0  0  0
 41 40  1  0  0  0  0
 42 33  2  0  0  0  0
 43 42  1  0  0  0  0
M  END
