1
q = nan, confidence = 0.0

  4  3  0  0  0  0  0  0  0  0999 V2000
   -2.1931   -0.0011   -0.0018 Si  0  0  0  0  0  0  0  0  0  0  0  0
   -2.9419    1.1734   -0.9062 F   0  0  0  0  0  0  0  0  0  0  0  0
   -2.9429    0.1944    1.4672 F   0  0  0  0  0  0  0  0  0  0  0  0
   -2.9402   -1.3721   -0.5683 F   0  0  0  0  0  0  0  0  0  0  0  0
  1  3  1  0  0  0  0
  2  1  1  0  0  0  0
  4  1  1  0  0  0  0
M  END
