2
q = 0.0, confidence = 0.982

 58 57  0  0  0  0  0  0  0  0999 V2000
   -2.3222   -0.1420   -0.2147 P   0  0  0  0  0  4  0  0  0  0  0  0
    0.7119    0.4403   -0.0264 Si  0  0  0  0  0  3  0  0  0  0  0  0
    1.3154    1.7128   -0.9440 O   0  0  0  0  0  0  0  0  0  0  0  0
    0.1775    1.2168    1.3797 O   0  0  0  0  0  0  0  0  0  0  0  0
   -0.9349    0.3185   -0.7836 O   0  0  0  0  0  0  0  0  0  0  0  0
   -2.3874   -1.1861    1.0726 N   0  0  0  0  0  0  0  0  0  0  0  0
   -3.0963    1.2520    0.2998 N   0  0  0  0  0  0  0  0  0  0  0  0
   -3.0382   -0.9735   -1.4803 N   0  0  0  0  0  0  0  0  0  0  0  0
    1.5541    1.9426   -2.3452 C   0  0  0  0  0  0  0  0  0  0  0  0
    1.6034    0.6354   -3.1482 C   0  0  0  0  0  0  0  0  0  0  0  0
    2.8985    2.6757   -2.4353 C   0  0  0  0  0  0  0  0  0  0  0  0
    0.4077    2.8325   -2.8519 C   0  0  0  0  0  0  0  0  0  0  0  0
    0.8994    2.0989    2.2705 C   0  0  0  0  0  0  0  0  0  0  0  0
    2.4021    1.7825    2.2788 C   0  0  0  0  0  0  0  0  0  0  0  0
    0.6684    3.5419    1.7966 C   0  0  0  0  0  0  0  0  0  0  0  0
    0.2980    1.8741    3.6627 C   0  0  0  0  0  0  0  0  0  0  0  0
   -2.3739   -0.7163    2.4604 C   0  0  0  0  0  0  0  0  0  0  0  0
   -2.1294   -2.6188    0.9031 C   0  0  0  0  0  0  0  0  0  0  0  0
   -4.4856    1.1966    0.7294 C   0  0  0  0  0  0  0  0  0  0  0  0
   -2.5817    2.5847    0.0070 C   0  0  0  0  0  0  0  0  0  0  0  0
   -2.5996   -0.8018   -2.8619 C   0  0  0  0  0  0  0  0  0  0  0  0
   -4.3082   -1.6659   -1.3217 C   0  0  0  0  0  0  0  0  0  0  0  0
    1.7740    0.8551   -4.2211 H   0  0  0  0  0  0  0  0  0  0  0  0
    0.6516    0.0748   -3.0621 H   0  0  0  0  0  0  0  0  0  0  0  0
    2.4173   -0.0244   -2.7941 H   0  0  0  0  0  0  0  0  0  0  0  0
    3.1428    2.9325   -3.4856 H   0  0  0  0  0  0  0  0  0  0  0  0
    3.7046    2.0360   -2.0269 H   0  0  0  0  0  0  0  0  0  0  0  0
    2.8630    3.6117   -1.8430 H   0  0  0  0  0  0  0  0  0  0  0  0
    0.5545    3.1093   -3.9156 H   0  0  0  0  0  0  0  0  0  0  0  0
    0.3517    3.7624   -2.2515 H   0  0  0  0  0  0  0  0  0  0  0  0
   -0.5597    2.2999   -2.7577 H   0  0  0  0  0  0  0  0  0  0  0  0
    2.9327    2.4652    2.9723 H   0  0  0  0  0  0  0  0  0  0  0  0
    2.8380    1.9178    1.2690 H   0  0  0  0  0  0  0  0  0  0  0  0
    2.5901    0.7420    2.6051 H   0  0  0  0  0  0  0  0  0  0  0  0
    1.1944    4.2646    2.4527 H   0  0  0  0  0  0  0  0  0  0  0  0
   -0.4126    3.7858    1.8107 H   0  0  0  0  0  0  0  0  0  0  0  0
    1.0426    3.6586    0.7610 H   0  0  0  0  0  0  0  0  0  0  0  0
    0.7730    2.5396    4.4109 H   0  0  0  0  0  0  0  0  0  0  0  0
    0.4465    0.8225    3.9758 H   0  0  0  0  0  0  0  0  0  0  0  0
   -0.7901    2.0883    3.6501 H   0  0  0  0  0  0  0  0  0  0  0  0
   -3.2666   -1.0991    3.0017 H   0  0  0  0  0  0  0  0  0  0  0  0
   -2.3699    0.3864    2.4865 H   0  0  0  0  0  0  0  0  0  0  0  0
   -1.4575   -1.0716    2.9709 H   0  0  0  0  0  0  0  0  0  0  0  0
   -2.9598   -3.2110    1.3450 H   0  0  0  0  0  0  0  0  0  0  0  0
   -1.1793   -2.8972    1.4016 H   0  0  0  0  0  0  0  0  0  0  0  0
   -2.0335   -2.8685   -0.1681 H   0  0  0  0  0  0  0  0  0  0  0  0
   -5.1849    1.5493   -0.0637 H   0  0  0  0  0  0  0  0  0  0  0  0
   -4.7683    0.1643    1.0091 H   0  0  0  0  0  0  0  0  0  0  0  0
   -4.6329    1.8382    1.6251 H   0  0  0  0  0  0  0  0  0  0  0  0
   -1.5067    2.5364   -0.2329 H   0  0  0  0  0  0  0  0  0  0  0  0
   -2.7025    3.2301    0.9031 H   0  0  0  0  0  0  0  0  0  0  0  0
   -3.1271    3.0594   -0.8405 H   0  0  0  0  0  0  0  0  0  0  0  0
   -3.3509   -0.2329   -3.4549 H   0  0  0  0  0  0  0  0  0  0  0  0
   -1.6354   -0.2675   -2.8901 H   0  0  0  0  0  0  0  0  0  0  0  0
   -2.4472   -1.7952   -3.3330 H   0  0  0  0  0  0  0  0  0  0  0  0
   -4.5464   -1.8077   -0.2515 H   0  0  0  0  0  0  0  0  0  0  0  0
   -5.1469   -1.1086   -1.7986 H   0  0  0  0  0  0  0  0  0  0  0  0
   -4.2542   -2.6713   -1.7932 H   0  0  0  0  0  0  0  0  0  0  0  0
  1  7  1  0  0  0  0
  1  6  1  0  0  0  0
  2  4  1  0  0  0  0
  3  2  1  0  0  0  0
  4 13  1  0  0  0  0
  5  1  1  0  0  0  0
  5  2  1  0  0  0  0
  6 17  1  0  0  0  0
  7 19  1  0  0  0  0
  8 22  1  0  0  0  0
  8  1  1  0  0  0  0
  9  3  1  0  0  0  0
 10 24  1  0  0  0  0
 10 25  1  0  0  0  0
 10  9  1  0  0  0  0
 11  9  1  0  0  0  0
 11 27  1  0  0  0  0
 11 28  1  0  0  0  0
 12 31  1  0  0  0  0
 12  9  1  0  0  0  0
 12 30  1  0  0  0  0
 13 14  1  0  0  0  0
 13 16  1  0  0  0  0
 14 34  1  0  0  0  0
 14 32  1  0  0  0  0
 15 36  1  0  0  0  0
 15 13  1  0  0  0  0
 15 35  1  0  0  0  0
 16 39  1  0  0  0  0
 16 38  1  0  0  0  0
 17 42  1  0  0  0  0
 17 43  1  0  0  0  0
 17 41  1  0  0  0  0
 18  6  1  0  0  0  0
 18 44  1  0  0  0  0
 18 45  1  0  0  0  0
 19 48  1  0  0  0  0
 19 49  1  0  0  0  0
 20  7  1  0  0  0  0
 20 51  1  0  0  0  0
 21  8  1  0  0  0  0
 22 56  1  0  0  0  0
 23 10  1  0  0  0  0
 26 11  1  0  0  0  0
 29 12  1  0  0  0  0
 33 14  1  0  0  0  0
 37 15  1  0  0  0  0
 40 16  1  0  0  0  0
 46 18  1  0  0  0  0
 47 19  1  0  0  0  0
 50 20  1  0  0  0  0
 52 20  1  0  0  0  0
 53 21  1  0  0  0  0
 54 21  1  0  0  0  0
 55 21  1  0  0  0  0
 57 22  1  0  0  0  0
 58 22  1  0  0  0  0
M  END
