1
q = nan, confidence = 0.0

 40 41  0  0  0  0  0  0  0  0999 V2000
   -2.1104    0.0132   -0.1079 Si  0  0  0  0  0  0  0  0  0  0  0  0
   -3.1471   -1.2344   -1.8356 Si  0  0  0  0  0  0  0  0  0  0  0  0
   -2.7386    2.2490   -0.5629 Si  0  0  0  0  0  0  0  0  0  0  0  0
   -3.4135   -0.4898    1.8092 Si  0  0  0  0  0  0  0  0  0  0  0  0
   -4.8478   -0.5597   -2.3746 C   0  0  0  0  0  0  0  0  0  0  0  0
   -4.7473    0.4425   -2.8392 H   0  0  0  0  0  0  0  0  0  0  0  0
   -5.5473   -0.4711   -1.5204 H   0  0  0  0  0  0  0  0  0  0  0  0
   -5.3031   -1.2370   -3.1287 H   0  0  0  0  0  0  0  0  0  0  0  0
   -2.0872   -1.3275   -3.4131 C   0  0  0  0  0  0  0  0  0  0  0  0
   -2.6194   -1.9005   -4.2024 H   0  0  0  0  0  0  0  0  0  0  0  0
   -1.1118   -1.8190   -3.2210 H   0  0  0  0  0  0  0  0  0  0  0  0
   -1.8614   -0.3167   -3.8088 H   0  0  0  0  0  0  0  0  0  0  0  0
   -3.4269   -3.0404   -1.2702 C   0  0  0  0  0  0  0  0  0  0  0  0
   -3.9710   -3.6083   -2.0548 H   0  0  0  0  0  0  0  0  0  0  0  0
   -4.0180   -3.0990   -0.3342 H   0  0  0  0  0  0  0  0  0  0  0  0
   -2.4613   -3.5572   -1.0940 H   0  0  0  0  0  0  0  0  0  0  0  0
   -4.5955    2.6581   -0.4255 C   0  0  0  0  0  0  0  0  0  0  0  0
   -4.7721    3.7212   -0.6969 H   0  0  0  0  0  0  0  0  0  0  0  0
   -4.9587    2.5084    0.6114 H   0  0  0  0  0  0  0  0  0  0  0  0
   -5.2074    2.0237   -1.0957 H   0  0  0  0  0  0  0  0  0  0  0  0
   -1.8814    3.4355    0.6739 C   0  0  0  0  0  0  0  0  0  0  0  0
   -1.9449    4.4902    0.3292 H   0  0  0  0  0  0  0  0  0  0  0  0
   -0.8168    3.1773    0.8361 H   0  0  0  0  0  0  0  0  0  0  0  0
   -2.3779    3.3695    1.6628 H   0  0  0  0  0  0  0  0  0  0  0  0
   -2.1985    2.7086   -2.3361 C   0  0  0  0  0  0  0  0  0  0  0  0
   -2.8423    2.1835   -3.0722 H   0  0  0  0  0  0  0  0  0  0  0  0
   -1.1555    2.3980   -2.5536 H   0  0  0  0  0  0  0  0  0  0  0  0
   -2.2943    3.7999   -2.5221 H   0  0  0  0  0  0  0  0  0  0  0  0
   -5.2720   -0.6784    1.4148 C   0  0  0  0  0  0  0  0  0  0  0  0
   -5.4613   -1.5325    0.7335 H   0  0  0  0  0  0  0  0  0  0  0  0
   -5.6783    0.2334    0.9340 H   0  0  0  0  0  0  0  0  0  0  0  0
   -5.8424   -0.8589    2.3512 H   0  0  0  0  0  0  0  0  0  0  0  0
   -2.8835   -2.1229    2.6435 C   0  0  0  0  0  0  0  0  0  0  0  0
   -3.5253   -2.3177    3.5291 H   0  0  0  0  0  0  0  0  0  0  0  0
   -1.8316   -2.0654    2.9899 H   0  0  0  0  0  0  0  0  0  0  0  0
   -2.9882   -2.9886    1.9572 H   0  0  0  0  0  0  0  0  0  0  0  0
   -3.2587    0.8859    3.1166 C   0  0  0  0  0  0  0  0  0  0  0  0
   -3.7624    0.5805    4.0583 H   0  0  0  0  0  0  0  0  0  0  0  0
   -3.7341    1.8247    2.7664 H   0  0  0  0  0  0  0  0  0  0  0  0
   -2.1943    1.0968    3.3449 H   0  0  0  0  0  0  0  0  0  0  0  0
  1  4  1  0  0  0  0
  1 25  1  0  0  0  0
  1 21  1  0  0  0  0
  2 13  1  0  0  0  0
  2  1  1  0  0  0  0
  3 17  1  0  0  0  0
  3  1  1  0  0  0  0
  3 21  1  0  0  0  0
  4 33  1  0  0  0  0
  4 37  1  0  0  0  0
  5  2  1  0  0  0  0
  5  7  1  0  0  0  0
  6  5  1  0  0  0  0
  8  5  1  0  0  0  0
  9 11  1  0  0  0  0
  9  2  1  0  0  0  0
 10  9  1  0  0  0  0
 12  9  1  0  0  0  0
 13 16  1  0  0  0  0
 13 15  1  0  0  0  0
 14 13  1  0  0  0  0
 17 19  1  0  0  0  0
 18 17  1  0  0  0  0
 20 17  1  0  0  0  0
 21 23  1  0  0  0  0
 21 24  1  0  0  0  0
 22 21  1  0  0  0  0
 25  3  1  0  0  0  0
 26 25  1  0  0  0  0
 27 25  1  0  0  0  0
 28 25  1  0  0  0  0
 29  4  1  0  0  0  0
 29 32  1  0  0  0  0
 30 29  1  0  0  0  0
 31 29  1  0  0  0  0
 33 35  1  0  0  0  0
 33 34  1  0  0  0  0
 36 33  1  0  0  0  0
 37 40  1  0  0  0  0
 37 38  1  0  0  0  0
 39 37  1  0  0  0  0
M  ZBO  2   2   0   3   0
M  END
