25
q = -1

 31 30  0  0  0  0  0  0  0  0999 V2000
    1.3480    0.5148    3.5716 C   0  0  0  0  0  0  0  0  0  0  0  0
    1.7323    0.2631    4.5818 H   0  0  0  0  0  0  0  0  0  0  0  0
    0.2458    0.3863    3.5846 H   0  0  0  0  0  0  0  0  0  0  0  0
    1.5588    1.5869    3.3781 H   0  0  0  0  0  0  0  0  0  0  0  0
    4.0452   -0.4709    2.3823 C   0  0  0  0  0  0  0  0  0  0  0  0
    4.3939    0.5765    2.2795 H   0  0  0  0  0  0  0  0  0  0  0  0
    4.5360   -1.0664    1.5860 H   0  0  0  0  0  0  0  0  0  0  0  0
    4.3860   -0.8551    3.3661 H   0  0  0  0  0  0  0  0  0  0  0  0
    1.4206    2.8225   -1.9685 C   0  0  0  0  0  0  0  0  0  0  0  0
    1.3874    3.9287   -2.0447 H   0  0  0  0  0  0  0  0  0  0  0  0
    0.4124    2.4128   -2.1823 H   0  0  0  0  0  0  0  0  0  0  0  0
    2.0969    2.4487   -2.7645 H   0  0  0  0  0  0  0  0  0  0  0  0
    3.9493    2.5024   -0.2087 C   0  0  0  0  0  0  0  0  0  0  0  0
    4.4584    1.8103   -0.9098 H   0  0  0  0  0  0  0  0  0  0  0  0
    4.3502    2.3108    0.8065 H   0  0  0  0  0  0  0  0  0  0  0  0
    4.2114    3.5432   -0.4919 H   0  0  0  0  0  0  0  0  0  0  0  0
    2.6535   -3.0337   -1.2531 C   0  0  0  0  0  0  0  0  0  0  0  0
    1.6593   -3.4877   -1.4365 H   0  0  0  0  0  0  0  0  0  0  0  0
    2.9724   -3.2989   -0.2247 H   0  0  0  0  0  0  0  0  0  0  0  0
    3.3709   -3.4938   -1.9640 H   0  0  0  0  0  0  0  0  0  0  0  0
    1.9263   -0.7806   -3.2535 C   0  0  0  0  0  0  0  0  0  0  0  0
    2.3768   -1.4548   -4.0111 H   0  0  0  0  0  0  0  0  0  0  0  0
    2.1439    0.2646   -3.5507 H   0  0  0  0  0  0  0  0  0  0  0  0
    0.8229   -0.8992   -3.2689 H   0  0  0  0  0  0  0  0  0  0  0  0
    1.3640    0.0293    0.1017 Si  0  0  0  0  0  3  0  0  0  0  0  0
    2.1538   -0.5728    2.2280 Si  0  0  0  0  0  0  0  0  0  0  0  0
    1.7659   -2.0083    2.5339 H   0  0  0  0  0  0  0  0  0  0  0  0
    2.0669    2.2452   -0.2700 Si  0  0  0  0  0  0  0  0  0  0  0  0
    1.4693    3.1442    0.7982 H   0  0  0  0  0  0  0  0  0  0  0  0
    2.6089   -1.1481   -1.5205 Si  0  0  0  0  0  0  0  0  0  0  0  0
    4.0520   -0.6840   -1.4613 H   0  0  0  0  0  0  0  0  0  0  0  0
  1  3  1  0  0  0  0
  1  2  1  0  0  0  0
  4  1  1  0  0  0  0
  5  8  1  0  0  0  0
  6  5  1  0  0  0  0
  7  5  1  0  0  0  0
  9 28  1  0  0  0  0
 10  9  1  0  0  0  0
 11  9  1  0  0  0  0
 12  9  1  0  0  0  0
 13 15  1  0  0  0  0
 14 13  1  0  0  0  0
 16 13  1  0  0  0  0
 17 19  1  0  0  0  0
 18 17  1  0  0  0  0
 20 17  1  0  0  0  0
 21 30  1  0  0  0  0
 22 21  1  0  0  0  0
 23 21  1  0  0  0  0
 24 21  1  0  0  0  0
 25 26  1  0  0  0  0
 26  5  1  0  0  0  0
 26 27  1  0  0  0  0
 26  1  1  0  0  0  0
 28 13  1  0  0  0  0
 28 25  1  0  0  0  0
 28 29  1  0  0  0  0
 30 31  1  0  0  0  0
 30 17  1  0  0  0  0
 30 25  1  0  0  0  0
M  END
