1
q = 0, confidence = 1.0

 28 29  0  0  0  0  0  0  0  0999 V2000
    0.1523    0.3838    0.4941 Si  0  0  1  0  0  3  0  0  0  0  0  0
    1.0035    1.7953   -0.7416 N   0  3  0  0  0  0  0  0  0  0  0  0
    1.9472   -1.9817    0.4473 C   0  0  0  0  0  0  0  0  0  0  0  0
    3.1963   -2.5575    0.1638 C   0  0  0  0  0  0  0  0  0  0  0  0
    4.2351   -1.7688   -0.3593 C   0  0  0  0  0  0  0  0  0  0  0  0
    4.0342   -0.3997   -0.6008 C   0  0  0  0  0  0  0  0  0  0  0  0
    2.7891    0.1742   -0.3021 C   0  0  0  0  0  0  0  0  0  0  0  0
    1.7372   -0.6096    0.2245 C   0  0  0  0  0  0  0  0  0  0  0  0
    2.4729    1.6407   -0.4796 C   0  0  0  0  0  0  0  0  0  0  0  0
    0.5531    3.1782   -0.4486 C   0  0  0  0  0  0  0  0  0  0  0  0
    0.6941    1.4522   -2.1551 C   0  0  0  0  0  0  0  0  0  0  0  0
    0.3384    1.3069    2.1312 C   0  0  0  0  0  0  0  0  0  0  0  0
    1.3602    1.1157    2.9925 C   0  0  0  0  0  0  0  0  0  0  0  0
    1.1273   -2.6052    0.8379 H   0  0  0  0  0  0  0  0  0  0  0  0
    3.3591   -3.6318    0.3388 H   0  0  0  0  0  0  0  0  0  0  0  0
    5.2080   -2.2268   -0.5937 H   0  0  0  0  0  0  0  0  0  0  0  0
    4.8460    0.2136   -1.0238 H   0  0  0  0  0  0  0  0  0  0  0  0
    2.6909    2.1947    0.4577 H   0  0  0  0  0  0  0  0  0  0  0  0
    3.0522    2.1177   -1.2992 H   0  0  0  0  0  0  0  0  0  0  0  0
    0.7631    3.4133    0.6107 H   0  0  0  0  0  0  0  0  0  0  0  0
   -0.5342    3.2579   -0.6254 H   0  0  0  0  0  0  0  0  0  0  0  0
    1.0899    3.8962   -1.1030 H   0  0  0  0  0  0  0  0  0  0  0  0
    1.0696    0.4377   -2.3793 H   0  0  0  0  0  0  0  0  0  0  0  0
   -0.4027    1.4576   -2.2910 H   0  0  0  0  0  0  0  0  0  0  0  0
    1.1745    2.1896   -2.8308 H   0  0  0  0  0  0  0  0  0  0  0  0
   -0.4977    1.9616    2.4422 H   0  0  0  0  0  0  0  0  0  0  0  0
    1.3928    1.6010    3.9839 H   0  0  0  0  0  0  0  0  0  0  0  0
    2.2028    0.4439    2.7488 H   0  0  0  0  0  0  0  0  0  0  0  0
  1 12  1  1  0  0  0
  2  9  1  0  0  0  0
  2 10  1  0  0  0  0
  2  1  1  0  0  0  0
  3 14  1  0  0  0  0
  4 15  1  0  0  0  0
  4  3  2  0  0  0  0
  5  4  1  0  0  0  0
  6  5  2  0  0  0  0
  6  7  1  0  0  0  0
  7  8  2  0  0  0  0
  8  3  1  0  0  0  0
  8  1  1  0  0  0  0
  9  7  1  0  0  0  0
  9 18  1  0  0  0  0
 10 20  1  0  0  0  0
 11  2  1  0  0  0  0
 12 26  1  0  0  0  0
 12 13  2  0  0  0  0
 13 27  1  0  0  0  0
 16  5  1  0  0  0  0
 17  6  1  0  0  0  0
 19  9  1  0  0  0  0
 21 10  1  0  0  0  0
 22 10  1  0  0  0  0
 23 11  1  0  0  0  0
 24 11  1  0  0  0  0
 25 11  1  0  0  0  0
 28 13  1  0  0  0  0
M  CHG  1   2   1
M  END
