1
q = -1.0, confidence = 0.004

 19 18  0  0  0  0  0  0  0  0999 V2000
    1.1323   -1.2554    0.6817 Si  0  0  0  0  0  3  0  0  0  0  0  0
    1.0158   -1.8637    2.4876 C   0  0  0  0  0  0  0  0  0  0  0  0
    0.4834   -2.8384    2.4985 H   0  0  0  0  0  0  0  0  0  0  0  0
    0.4333   -1.1586    3.1093 H   0  0  0  0  0  0  0  0  0  0  0  0
    2.0076   -2.0159    2.9562 H   0  0  0  0  0  0  0  0  0  0  0  0
    2.2737   -2.5065   -0.2739 C   0  0  0  0  0  0  0  0  0  0  0  0
    1.2953   -3.5894   -0.7783 C   0  0  0  0  0  0  0  0  0  0  0  0
    1.8490   -4.3814   -1.3303 H   0  0  0  0  0  0  0  0  0  0  0  0
    0.5357   -3.1591   -1.4631 H   0  0  0  0  0  0  0  0  0  0  0  0
    0.7551   -4.0885    0.0551 H   0  0  0  0  0  0  0  0  0  0  0  0
    3.3180   -3.1372    0.6628 C   0  0  0  0  0  0  0  0  0  0  0  0
    2.8550   -3.6943    1.5018 H   0  0  0  0  0  0  0  0  0  0  0  0
    3.9981   -2.3737    1.0952 H   0  0  0  0  0  0  0  0  0  0  0  0
    3.9484   -3.8599    0.0979 H   0  0  0  0  0  0  0  0  0  0  0  0
    2.9895   -1.8620   -1.4688 C   0  0  0  0  0  0  0  0  0  0  0  0
    3.7159   -1.0913   -1.1415 H   0  0  0  0  0  0  0  0  0  0  0  0
    2.2883   -1.3901   -2.1820 H   0  0  0  0  0  0  0  0  0  0  0  0
    3.5602   -2.6369   -2.0282 H   0  0  0  0  0  0  0  0  0  0  0  0
    2.3021   -0.0005    0.9848 H   0  0  0  0  0  0  0  0  0  0  0  0
  1 19  1  0  0  0  0
  1  2  1  0  0  0  0
  2  3  1  0  0  0  0
  2  5  1  0  0  0  0
  2  4  1  0  0  0  0
  6 11  1  0  0  0  0
  6  1  1  0  0  0  0
  7  6  1  0  0  0  0
  7 10  1  0  0  0  0
  8  7  1  0  0  0  0
  9  7  1  0  0  0  0
 11 13  1  0  0  0  0
 11 12  1  0  0  0  0
 14 11  1  0  0  0  0
 15 16  1  0  0  0  0
 15  6  1  0  0  0  0
 17 15  1  0  0  0  0
 18 15  1  0  0  0  0
M  END
