1
q = 0.0, confidence = 0.844

 18 17  0  0  0  0  0  0  0  0999 V2000
    1.1330    1.2553    0.6810 Si  0  0  0  0  0  2  0  0  0  0  0  0
    1.0166    1.8643    2.4867 C   0  0  0  0  0  0  0  0  0  0  0  0
    2.0083    2.0153    2.9558 H   0  0  0  0  0  0  0  0  0  0  0  0
    0.4327    1.1602    3.1083 H   0  0  0  0  0  0  0  0  0  0  0  0
    0.4856    2.8398    2.4970 H   0  0  0  0  0  0  0  0  0  0  0  0
    2.2758    2.5052   -0.2745 C   0  0  0  0  0  0  0  0  0  0  0  0
    3.3219    3.1332    0.6619 C   0  0  0  0  0  0  0  0  0  0  0  0
    4.0010    2.3681    1.0931 H   0  0  0  0  0  0  0  0  0  0  0  0
    2.8607    3.6905    1.5017 H   0  0  0  0  0  0  0  0  0  0  0  0
    3.9532    3.8552    0.0970 H   0  0  0  0  0  0  0  0  0  0  0  0
    2.9893    1.8604   -1.4706 C   0  0  0  0  0  0  0  0  0  0  0  0
    3.5611    2.6345   -2.0297 H   0  0  0  0  0  0  0  0  0  0  0  0
    2.2865    1.3906   -2.1836 H   0  0  0  0  0  0  0  0  0  0  0  0
    3.7144    1.0878   -1.1447 H   0  0  0  0  0  0  0  0  0  0  0  0
    1.2988    3.5901   -0.7772 C   0  0  0  0  0  0  0  0  0  0  0  0
    1.8533    4.3815   -1.3292 H   0  0  0  0  0  0  0  0  0  0  0  0
    0.7602    4.0896    0.0570 H   0  0  0  0  0  0  0  0  0  0  0  0
    0.5378    3.1615   -1.4616 H   0  0  0  0  0  0  0  0  0  0  0  0
  1  2  1  0  0  0  0
  2  5  1  0  0  0  0
  2  3  1  0  0  0  0
  2  4  1  0  0  0  0
  6  7  1  0  0  0  0
  6  1  1  0  0  0  0
  7  8  1  0  0  0  0
  7  9  1  0  0  0  0
 10  7  1  0  0  0  0
 11 14  1  0  0  0  0
 11  6  1  0  0  0  0
 12 11  1  0  0  0  0
 13 11  1  0  0  0  0
 15  6  1  0  0  0  0
 15 17  1  0  0  0  0
 16 15  1  0  0  0  0
 18 15  1  0  0  0  0
M  END
