1
q = -1

 40 40  0  0  0  0  0  0  0  0999 V2000
   -1.4161    0.0168    0.1160 Si  0  0  0  0  0  0  0  0  0  0  0  0
   -2.3672    2.1976    0.0150 Si  0  0  0  0  0  0  0  0  0  0  0  0
   -2.2288   -1.0251   -1.8955 Si  0  0  0  0  0  0  0  0  0  0  0  0
   -2.6470   -1.0922    1.8240 Si  0  0  0  0  0  0  0  0  0  0  0  0
   -4.2512    2.1493    0.2948 C   0  0  0  0  0  0  0  0  0  0  0  0
   -1.6635    3.3341    1.3696 C   0  0  0  0  0  0  0  0  0  0  0  0
   -2.0474    3.0136   -1.6688 C   0  0  0  0  0  0  0  0  0  0  0  0
   -1.2056   -0.5829   -3.4372 C   0  0  0  0  0  0  0  0  0  0  0  0
   -4.0130   -0.4907   -2.2993 C   0  0  0  0  0  0  0  0  0  0  0  0
   -2.2107   -2.9161   -1.6952 C   0  0  0  0  0  0  0  0  0  0  0  0
   -4.4011   -1.5334    1.2285 C   0  0  0  0  0  0  0  0  0  0  0  0
   -2.8984   -0.0102    3.3733 C   0  0  0  0  0  0  0  0  0  0  0  0
   -1.8233   -2.7240    2.3564 C   0  0  0  0  0  0  0  0  0  0  0  0
   -4.7670    1.5097   -0.4465 H   0  0  0  0  0  0  0  0  0  0  0  0
   -4.6560    3.1797    0.2017 H   0  0  0  0  0  0  0  0  0  0  0  0
   -4.5064    1.7774    1.3072 H   0  0  0  0  0  0  0  0  0  0  0  0
   -0.5908    3.5455    1.1980 H   0  0  0  0  0  0  0  0  0  0  0  0
   -1.7747    2.8845    2.3772 H   0  0  0  0  0  0  0  0  0  0  0  0
   -2.2059    4.3034    1.3682 H   0  0  0  0  0  0  0  0  0  0  0  0
   -0.9627    3.0805   -1.8853 H   0  0  0  0  0  0  0  0  0  0  0  0
   -2.4728    4.0394   -1.6804 H   0  0  0  0  0  0  0  0  0  0  0  0
   -2.5195    2.4390   -2.4912 H   0  0  0  0  0  0  0  0  0  0  0  0
   -0.1906   -1.0257   -3.4053 H   0  0  0  0  0  0  0  0  0  0  0  0
   -1.0989    0.5125   -3.5625 H   0  0  0  0  0  0  0  0  0  0  0  0
   -1.7217   -0.9874   -4.3340 H   0  0  0  0  0  0  0  0  0  0  0  0
   -4.7187   -0.7032   -1.4740 H   0  0  0  0  0  0  0  0  0  0  0  0
   -4.3546   -1.0477   -3.1979 H   0  0  0  0  0  0  0  0  0  0  0  0
   -4.0668    0.5912   -2.5335 H   0  0  0  0  0  0  0  0  0  0  0  0
   -1.1874   -3.2782   -1.4727 H   0  0  0  0  0  0  0  0  0  0  0  0
   -2.5478   -3.3976   -2.6376 H   0  0  0  0  0  0  0  0  0  0  0  0
   -2.8835   -3.2527   -0.8813 H   0  0  0  0  0  0  0  0  0  0  0  0
   -4.3910   -2.2408    0.3765 H   0  0  0  0  0  0  0  0  0  0  0  0
   -4.9670   -0.6322    0.9218 H   0  0  0  0  0  0  0  0  0  0  0  0
   -4.9511   -2.0157    2.0646 H   0  0  0  0  0  0  0  0  0  0  0  0
   -1.9499    0.2448    3.8832 H   0  0  0  0  0  0  0  0  0  0  0  0
   -3.5397   -0.5549    4.0985 H   0  0  0  0  0  0  0  0  0  0  0  0
   -3.4119    0.9386    3.1180 H   0  0  0  0  0  0  0  0  0  0  0  0
   -0.9305   -2.5456    2.9887 H   0  0  0  0  0  0  0  0  0  0  0  0
   -1.5072   -3.3219    1.4779 H   0  0  0  0  0  0  0  0  0  0  0  0
   -2.5356   -3.3331    2.9521 H   0  0  0  0  0  0  0  0  0  0  0  0
  1  4  1  0  0  0  0
  1 10  1  0  0  0  0
  2  1  1  0  0  0  0
  2  5  1  0  0  0  0
  2  6  1  0  0  0  0
  3 10  1  0  0  0  0
  3  1  1  0  0  0  0
  4 13  1  0  0  0  0
  4 12  1  0  0  0  0
  5 16  1  0  0  0  0
  6 18  1  0  0  0  0
  7  2  1  0  0  0  0
  8 23  1  0  0  0  0
  8  3  1  0  0  0  0
  9  3  1  0  0  0  0
  9 26  1  0  0  0  0
 10 29  1  0  0  0  0
 10 31  1  0  0  0  0
 11  4  1  0  0  0  0
 11 34  1  0  0  0  0
 12 35  1  0  0  0  0
 12 36  1  0  0  0  0
 13 40  1  0  0  0  0
 13 38  1  0  0  0  0
 14  5  1  0  0  0  0
 15  5  1  0  0  0  0
 17  6  1  0  0  0  0
 19  6  1  0  0  0  0
 20  7  1  0  0  0  0
 21  7  1  0  0  0  0
 22  7  1  0  0  0  0
 24  8  1  0  0  0  0
 25  8  1  0  0  0  0
 27  9  1  0  0  0  0
 28  9  1  0  0  0  0
 30 10  1  0  0  0  0
 32 11  1  0  0  0  0
 33 11  1  0  0  0  0
 37 12  1  0  0  0  0
 39 13  1  0  0  0  0
M  ZBO  1   2   0
M  END
