1
q = -1

 40 42  0  0  0  0  0  0  0  0999 V2000
   -0.9275   -0.0002   -0.0003 Si  0  0  0  0  0  0  0  0  0  0  0  0
   -1.8576   -2.0438   -0.7315 Si  0  0  0  0  0  0  0  0  0  0  0  0
   -3.6881   -1.8885   -1.2367 C   0  0  0  0  0  0  0  0  0  0  0  0
   -0.8964   -2.6881   -2.2458 C   0  0  0  0  0  0  0  0  0  0  0  0
   -1.7577   -3.3729    0.6324 C   0  0  0  0  0  0  0  0  0  0  0  0
   -4.3058   -1.5095   -0.3981 H   0  0  0  0  0  0  0  0  0  0  0  0
   -4.0909   -2.8773   -1.5439 H   0  0  0  0  0  0  0  0  0  0  0  0
   -3.8112   -1.1914   -2.0902 H   0  0  0  0  0  0  0  0  0  0  0  0
    0.1737   -2.8390   -1.9974 H   0  0  0  0  0  0  0  0  0  0  0  0
   -0.9462   -1.9591   -3.0804 H   0  0  0  0  0  0  0  0  0  0  0  0
   -1.3133   -3.6526   -2.6056 H   0  0  0  0  0  0  0  0  0  0  0  0
   -2.3495   -3.0776    1.5228 H   0  0  0  0  0  0  0  0  0  0  0  0
   -0.7139   -3.5416    0.9654 H   0  0  0  0  0  0  0  0  0  0  0  0
   -2.1598   -4.3399    0.2623 H   0  0  0  0  0  0  0  0  0  0  0  0
   -1.8505    1.6581   -1.4055 Si  0  0  0  0  0  0  0  0  0  0  0  0
   -3.6815    2.0208   -1.0247 C   0  0  0  0  0  0  0  0  0  0  0  0
   -4.3002    1.1063   -1.1211 H   0  0  0  0  0  0  0  0  0  0  0  0
   -4.0800    2.7841   -1.7266 H   0  0  0  0  0  0  0  0  0  0  0  0
   -3.8080    2.4082    0.0066 H   0  0  0  0  0  0  0  0  0  0  0  0
   -0.8849    3.2879   -1.1985 C   0  0  0  0  0  0  0  0  0  0  0  0
    0.1876    3.1411   -1.4389 H   0  0  0  0  0  0  0  0  0  0  0  0
   -0.9458    3.6478   -0.1510 H   0  0  0  0  0  0  0  0  0  0  0  0
   -1.2891    4.0827   -1.8604 H   0  0  0  0  0  0  0  0  0  0  0  0
   -1.7451    1.1447   -3.2392 C   0  0  0  0  0  0  0  0  0  0  0  0
   -2.3362    0.2263   -3.4320 H   0  0  0  0  0  0  0  0  0  0  0  0
   -0.7005    0.9415   -3.5493 H   0  0  0  0  0  0  0  0  0  0  0  0
   -2.1455    1.9499   -3.8912 H   0  0  0  0  0  0  0  0  0  0  0  0
   -1.8554    0.3914    2.1354 Si  0  0  0  0  0  0  0  0  0  0  0  0
   -3.6888   -0.1136    2.2530 C   0  0  0  0  0  0  0  0  0  0  0  0
   -4.3027    0.4276    1.5055 H   0  0  0  0  0  0  0  0  0  0  0  0
   -4.0905    0.1164    3.2629 H   0  0  0  0  0  0  0  0  0  0  0  0
   -3.8183   -1.2004    2.0750 H   0  0  0  0  0  0  0  0  0  0  0  0
   -0.8986   -0.6051    3.4481 C   0  0  0  0  0  0  0  0  0  0  0  0
    0.1732   -0.3208    3.4525 H   0  0  0  0  0  0  0  0  0  0  0  0
   -0.9553   -1.6916    3.2324 H   0  0  0  0  0  0  0  0  0  0  0  0
   -1.3126   -0.4332    4.4643 H   0  0  0  0  0  0  0  0  0  0  0  0
   -1.7453    2.2360    2.6066 C   0  0  0  0  0  0  0  0  0  0  0  0
   -2.3367    2.8632    1.9089 H   0  0  0  0  0  0  0  0  0  0  0  0
   -0.6999    2.6038    2.5832 H   0  0  0  0  0  0  0  0  0  0  0  0
   -2.1433    2.3992    3.6308 H   0  0  0  0  0  0  0  0  0  0  0  0
  1 28  1  0  0  0  0
  1 20  1  0  0  0  0
  1 33  1  0  0  0  0
  1  4  1  0  0  0  0
  2  1  1  0  0  0  0
  2  5  1  0  0  0  0
  3  2  1  0  0  0  0
  3  6  1  0  0  0  0
  4  9  1  0  0  0  0
  4  2  1  0  0  0  0
  5 13  1  0  0  0  0
  5 12  1  0  0  0  0
  7  3  1  0  0  0  0
  8  3  1  0  0  0  0
 10  4  1  0  0  0  0
 11  4  1  0  0  0  0
 14  5  1  0  0  0  0
 15 20  1  0  0  0  0
 15 16  1  0  0  0  0
 15  1  1  0  0  0  0
 16 19  1  0  0  0  0
 17 16  1  0  0  0  0
 18 16  1  0  0  0  0
 20 22  1  0  0  0  0
 21 20  1  0  0  0  0
 23 20  1  0  0  0  0
 24 15  1  0  0  0  0
 25 24  1  0  0  0  0
 26 24  1  0  0  0  0
 27 24  1  0  0  0  0
 28 29  1  0  0  0  0
 28 37  1  0  0  0  0
 28 33  1  0  0  0  0
 29 31  1  0  0  0  0
 30 29  1  0  0  0  0
 32 29  1  0  0  0  0
 33 34  1  0  0  0  0
 33 36  1  0  0  0  0
 35 33  1  0  0  0  0
 37 40  1  0  0  0  0
 38 37  1  0  0  0  0
 39 37  1  0  0  0  0
M  ZBO  3   2   0   3   0   4   0
M  END
