1
q = -1

 55 54  0  0  0  0  0  0  0  0999 V2000
    0.4561   -0.8392    0.0076 Si  0  0  0  0  0  3  0  0  0  0  0  0
    2.6191    0.0786   -0.5035 Si  0  0  0  0  0  0  0  0  0  0  0  0
    0.6443   -2.0559    2.0706 Si  0  0  0  0  0  0  0  0  0  0  0  0
    0.3919   -2.6784   -1.5491 Si  0  0  0  0  0  0  0  0  0  0  0  0
    1.8399   -3.5406    1.9935 C   0  0  0  0  0  0  0  0  0  0  0  0
    1.9128   -3.9818    3.0107 H   0  0  0  0  0  0  0  0  0  0  0  0
    2.8596   -3.2591    1.6681 H   0  0  0  0  0  0  0  0  0  0  0  0
    1.4632   -4.3303    1.3139 H   0  0  0  0  0  0  0  0  0  0  0  0
    3.0326    1.8520    0.2373 C   0  0  0  0  0  0  0  0  0  0  0  0
    1.9432    2.9101   -0.1599 C   0  0  0  0  0  0  0  0  0  0  0  0
    0.9637    2.3880   -0.0668 H   0  0  0  0  0  0  0  0  0  0  0  0
    1.2773   -1.0028    3.5330 C   0  0  0  0  0  0  0  0  0  0  0  0
    1.2381   -1.6210    4.4553 H   0  0  0  0  0  0  0  0  0  0  0  0
    0.6892   -0.0839    3.7221 H   0  0  0  0  0  0  0  0  0  0  0  0
    2.3320   -0.7015    3.3770 H   0  0  0  0  0  0  0  0  0  0  0  0
   -1.0164   -2.8357    2.5910 C   0  0  0  0  0  0  0  0  0  0  0  0
   -1.3247   -3.6085    1.8596 H   0  0  0  0  0  0  0  0  0  0  0  0
   -1.8592   -2.1230    2.6625 H   0  0  0  0  0  0  0  0  0  0  0  0
   -0.8870   -3.3307    3.5771 H   0  0  0  0  0  0  0  0  0  0  0  0
    4.4354    2.2769   -0.2434 C   0  0  0  0  0  0  0  0  0  0  0  0
    4.7024    3.2835    0.1489 H   0  0  0  0  0  0  0  0  0  0  0  0
    4.5269    2.3181   -1.3462 H   0  0  0  0  0  0  0  0  0  0  0  0
    5.2116    1.5769    0.1257 H   0  0  0  0  0  0  0  0  0  0  0  0
    0.0739   -2.2473   -3.3841 C   0  0  0  0  0  0  0  0  0  0  0  0
   -0.9445   -1.8679   -3.5881 H   0  0  0  0  0  0  0  0  0  0  0  0
    0.1966   -3.1862   -3.9654 H   0  0  0  0  0  0  0  0  0  0  0  0
    0.8037   -1.5162   -3.7843 H   0  0  0  0  0  0  0  0  0  0  0  0
   -0.9644   -3.9102   -1.0399 C   0  0  0  0  0  0  0  0  0  0  0  0
   -1.9371   -3.4040   -0.8787 H   0  0  0  0  0  0  0  0  0  0  0  0
   -0.6961   -4.4333   -0.1000 H   0  0  0  0  0  0  0  0  0  0  0  0
   -1.0895   -4.6792   -1.8314 H   0  0  0  0  0  0  0  0  0  0  0  0
    1.8918    4.1369    0.7682 C   0  0  0  0  0  0  0  0  0  0  0  0
    2.8693    4.6625    0.8047 H   0  0  0  0  0  0  0  0  0  0  0  0
    1.6088    3.8811    1.8073 H   0  0  0  0  0  0  0  0  0  0  0  0
    1.1478    4.8715    0.3952 H   0  0  0  0  0  0  0  0  0  0  0  0
    2.0627    3.3974   -1.6118 C   0  0  0  0  0  0  0  0  0  0  0  0
    1.2117    4.0605   -1.8737 H   0  0  0  0  0  0  0  0  0  0  0  0
    2.0803    2.5673   -2.3417 H   0  0  0  0  0  0  0  0  0  0  0  0
    2.9830    3.9970   -1.7632 H   0  0  0  0  0  0  0  0  0  0  0  0
    2.0294   -3.6596   -1.6225 C   0  0  0  0  0  0  0  0  0  0  0  0
    1.8529   -4.5809   -2.2182 H   0  0  0  0  0  0  0  0  0  0  0  0
    2.4006   -3.9627   -0.6265 H   0  0  0  0  0  0  0  0  0  0  0  0
    2.8305   -3.0854   -2.1294 H   0  0  0  0  0  0  0  0  0  0  0  0
    3.1010    1.6806    1.7676 C   0  0  0  0  0  0  0  0  0  0  0  0
    3.4373    2.6112    2.2714 H   0  0  0  0  0  0  0  0  0  0  0  0
    3.8227    0.8892    2.0499 H   0  0  0  0  0  0  0  0  0  0  0  0
    2.1259    1.3947    2.2075 H   0  0  0  0  0  0  0  0  0  0  0  0
    3.9786   -1.0910    0.1488 C   0  0  0  0  0  0  0  0  0  0  0  0
    4.9834   -0.7157   -0.1379 H   0  0  0  0  0  0  0  0  0  0  0  0
    3.8572   -2.0997   -0.2889 H   0  0  0  0  0  0  0  0  0  0  0  0
    3.9526   -1.1975    1.2508 H   0  0  0  0  0  0  0  0  0  0  0  0
    2.8632    0.0802   -2.4019 C   0  0  0  0  0  0  0  0  0  0  0  0
    2.0371    0.5612   -2.9614 H   0  0  0  0  0  0  0  0  0  0  0  0
    2.9464   -0.9639   -2.7641 H   0  0  0  0  0  0  0  0  0  0  0  0
    3.8046    0.6011   -2.6740 H   0  0  0  0  0  0  0  0  0  0  0  0
  1  3  1  0  0  0  0
  2  1  1  0  0  0  0
  2 48  1  0  0  0  0
  2  9  1  0  0  0  0
  3 16  1  0  0  0  0
  3 12  1  0  0  0  0
  4 28  1  0  0  0  0
  4  1  1  0  0  0  0
  5  3  1  0  0  0  0
  5  6  1  0  0  0  0
  7  5  1  0  0  0  0
  8  5  1  0  0  0  0
  9 44  1  0  0  0  0
 10 11  1  0  0  0  0
 10  9  1  0  0  0  0
 10 32  1  0  0  0  0
 12 14  1  0  0  0  0
 12 13  1  0  0  0  0
 15 12  1  0  0  0  0
 16 18  1  0  0  0  0
 16 19  1  0  0  0  0
 17 16  1  0  0  0  0
 20 23  1  0  0  0  0
 20 21  1  0  0  0  0
 20  9  1  0  0  0  0
 22 20  1  0  0  0  0
 24  4  1  0  0  0  0
 25 24  1  0  0  0  0
 26 24  1  0  0  0  0
 27 24  1  0  0  0  0
 28 29  1  0  0  0  0
 28 30  1  0  0  0  0
 31 28  1  0  0  0  0
 32 33  1  0  0  0  0
 32 34  1  0  0  0  0
 35 32  1  0  0  0  0
 36 10  1  0  0  0  0
 37 36  1  0  0  0  0
 38 36  1  0  0  0  0
 39 36  1  0  0  0  0
 40  4  1  0  0  0  0
 40 42  1  0  0  0  0
 41 40  1  0  0  0  0
 43 40  1  0  0  0  0
 44 46  1  0  0  0  0
 44 47  1  0  0  0  0
 44 45  1  0  0  0  0
 48 51  1  0  0  0  0
 49 48  1  0  0  0  0
 50 48  1  0  0  0  0
 52  2  1  0  0  0  0
 53 52  1  0  0  0  0
 54 52  1  0  0  0  0
 55 52  1  0  0  0  0
M  END
