3
q = 0.0, confidence = 0.994

 42 44  0  0  1  0  0  0  0  0999 V2000
    1.1271    1.0832    0.4737 N   0  0  0  0  0  0  0  0  0  0  0  0
   -0.3549   -0.0003    2.9843 Cl  0  0  0  0  0  0  0  0  0  0  0  0
   -0.3589   -0.0000    0.8554 Si  0  0  1  0  0  0  0  0  0  0  0  0
    1.1270   -1.0832    0.4734 N   0  0  0  0  0  0  0  0  0  0  0  0
    1.8827    0.0000    0.2109 C   0  0  2  0  0  0  0  0  0  0  0  0
    3.2603    0.0000   -0.3554 C   0  0  0  0  0  0  0  0  0  0  0  0
    3.4206    0.0000   -1.7563 C   0  0  0  0  0  0  0  0  0  0  0  0
    2.5309    0.0000   -2.4033 H   0  0  0  0  0  0  0  0  0  0  0  0
    4.7064    0.0001   -2.3142 C   0  0  0  0  0  0  0  0  0  0  0  0
    4.8255    0.0001   -3.4079 H   0  0  0  0  0  0  0  0  0  0  0  0
    5.8368    0.0001   -1.4807 C   0  0  0  0  0  0  0  0  0  0  0  0
    6.8452    0.0001   -1.9209 H   0  0  0  0  0  0  0  0  0  0  0  0
    5.6794    0.0001   -0.0861 C   0  0  0  0  0  0  0  0  0  0  0  0
    6.5627    0.0001    0.5699 H   0  0  0  0  0  0  0  0  0  0  0  0
    4.3951    0.0000    0.4788 C   0  0  0  0  0  0  0  0  0  0  0  0
    4.2693    0.0000    1.5713 H   0  0  0  0  0  0  0  0  0  0  0  0
    1.4404    2.5261    0.5167 C   0  0  0  0  0  0  0  0  0  0  0  0
    2.5045    2.7813    1.6031 C   0  0  0  0  0  0  0  0  0  0  0  0
    2.6599    3.8707    1.7346 H   0  0  0  0  0  0  0  0  0  0  0  0
    3.4782    2.3327    1.3280 H   0  0  0  0  0  0  0  0  0  0  0  0
    2.1743    2.3537    2.5706 H   0  0  0  0  0  0  0  0  0  0  0  0
    1.9214    3.0412   -0.8518 C   0  0  0  0  0  0  0  0  0  0  0  0
    2.0658    4.1391   -0.8057 H   0  0  0  0  0  0  0  0  0  0  0  0
    1.1714    2.8259   -1.6376 H   0  0  0  0  0  0  0  0  0  0  0  0
    2.8870    2.5866   -1.1442 H   0  0  0  0  0  0  0  0  0  0  0  0
    0.1377    3.2430    0.9136 C   0  0  0  0  0  0  0  0  0  0  0  0
    0.3247    4.3291    1.0183 H   0  0  0  0  0  0  0  0  0  0  0  0
   -0.2445    2.8652    1.8830 H   0  0  0  0  0  0  0  0  0  0  0  0
   -0.6487    3.1055    0.1482 H   0  0  0  0  0  0  0  0  0  0  0  0
    1.4404   -2.5262    0.5165 C   0  0  0  0  0  0  0  0  0  0  0  0
    1.9217   -3.0412   -0.8519 C   0  0  0  0  0  0  0  0  0  0  0  0
    2.0661   -4.1391   -0.8058 H   0  0  0  0  0  0  0  0  0  0  0  0
    2.8874   -2.5866   -1.1441 H   0  0  0  0  0  0  0  0  0  0  0  0
    1.1719   -2.8259   -1.6378 H   0  0  0  0  0  0  0  0  0  0  0  0
    0.1377   -3.2431    0.9132 C   0  0  0  0  0  0  0  0  0  0  0  0
    0.3247   -4.3292    1.0179 H   0  0  0  0  0  0  0  0  0  0  0  0
   -0.6486   -3.1057    0.1476 H   0  0  0  0  0  0  0  0  0  0  0  0
   -0.2447   -2.8653    1.8825 H   0  0  0  0  0  0  0  0  0  0  0  0
    2.5043   -2.7812    1.6032 C   0  0  0  0  0  0  0  0  0  0  0  0
    2.6598   -3.8705    1.7347 H   0  0  0  0  0  0  0  0  0  0  0  0
    2.1739   -2.3536    2.5706 H   0  0  0  0  0  0  0  0  0  0  0  0
    3.4781   -2.3325    1.3282 H   0  0  0  0  0  0  0  0  0  0  0  0
  1 17  1  0  0  0  0
  1  3  1  0  0  0  0
  3  2  1  1  0  0  0
  3  5  1  0  0  0  0
  4 30  1  0  0  0  0
  4  3  1  0  0  0  0
  5  6  1  6  0  0  0
  5  4  1  0  0  0  0
  5  1  1  0  0  0  0
  6 15  1  0  0  0  0
  7  6  2  0  0  0  0
  8  7  1  0  0  0  0
  9  7  1  0  0  0  0
  9 11  2  0  0  0  0
 10  9  1  0  0  0  0
 11 13  1  0  0  0  0
 12 11  1  0  0  0  0
 13 15  2  0  0  0  0
 13 14  1  0  0  0  0
 15 16  1  0  0  0  0
 17 26  1  0  0  0  0
 17 18  1  0  0  0  0
 18 19  1  0  0  0  0
 18 21  1  0  0  0  0
 20 18  1  0  0  0  0
 22 23  1  0  0  0  0
 22 17  1  0  0  0  0
 24 22  1  0  0  0  0
 25 22  1  0  0  0  0
 26 27  1  0  0  0  0
 26 28  1  0  0  0  0
 29 26  1  0  0  0  0
 30 35  1  0  0  0  0
 30 39  1  0  0  0  0
 31 32  1  0  0  0  0
 31 30  1  0  0  0  0
 33 31  1  0  0  0  0
 34 31  1  0  0  0  0
 35 36  1  0  0  0  0
 35 38  1  0  0  0  0
 37 35  1  0  0  0  0
 39 40  1  0  0  0  0
 39 41  1  0  0  0  0
 42 39  1  0  0  0  0
M  HYD  1   5   0
M  ZBO  1   4   0
M  END
