1
q = -1

 28 27  0  0  0  0  0  0  0  0999 V2000
   -0.8128   -1.2869   -0.2134 Si  0  0  0  0  0  3  0  0  0  0  0  0
   -2.3648   -1.9620   -1.1815 C   0  0  0  0  0  0  0  0  0  0  0  0
   -2.5608   -3.4508   -0.8420 C   0  0  0  0  0  0  0  0  0  0  0  0
   -3.6665   -1.1949   -0.9011 C   0  0  0  0  0  0  0  0  0  0  0  0
   -2.0124   -1.8175   -2.6747 C   0  0  0  0  0  0  0  0  0  0  0  0
   -0.7170   -1.6898    1.7076 C   0  0  0  0  0  0  0  0  0  0  0  0
   -2.0307   -1.3618    2.4313 C   0  0  0  0  0  0  0  0  0  0  0  0
   -0.2830   -3.1289    2.0241 C   0  0  0  0  0  0  0  0  0  0  0  0
    0.4002   -0.7321    2.1682 C   0  0  0  0  0  0  0  0  0  0  0  0
    0.3152   -2.1210   -0.7997 H   0  0  0  0  0  0  0  0  0  0  0  0
   -3.3532   -3.8965   -1.4863 H   0  0  0  0  0  0  0  0  0  0  0  0
   -2.8763   -3.5981    0.2116 H   0  0  0  0  0  0  0  0  0  0  0  0
   -1.6323   -4.0370   -1.0015 H   0  0  0  0  0  0  0  0  0  0  0  0
   -3.6013   -0.1444   -1.2490 H   0  0  0  0  0  0  0  0  0  0  0  0
   -3.9347   -1.1874    0.1752 H   0  0  0  0  0  0  0  0  0  0  0  0
   -4.5160   -1.6637   -1.4479 H   0  0  0  0  0  0  0  0  0  0  0  0
   -2.8515   -2.1783   -3.3120 H   0  0  0  0  0  0  0  0  0  0  0  0
   -1.1100   -2.4044   -2.9430 H   0  0  0  0  0  0  0  0  0  0  0  0
   -1.8140   -0.7586   -2.9467 H   0  0  0  0  0  0  0  0  0  0  0  0
   -1.9051   -1.4367    3.5361 H   0  0  0  0  0  0  0  0  0  0  0  0
   -2.8387   -2.0656    2.1460 H   0  0  0  0  0  0  0  0  0  0  0  0
   -2.3908   -0.3364    2.2066 H   0  0  0  0  0  0  0  0  0  0  0  0
    0.6723   -3.3832    1.5217 H   0  0  0  0  0  0  0  0  0  0  0  0
   -1.0429   -3.8637    1.6913 H   0  0  0  0  0  0  0  0  0  0  0  0
   -0.1393   -3.2723    3.1206 H   0  0  0  0  0  0  0  0  0  0  0  0
    0.1839    0.3801    2.0105 H   0  0  0  0  0  0  0  0  0  0  0  0
    0.5438   -0.7404    3.2750 H   0  0  0  0  0  0  0  0  0  0  0  0
    1.3779   -0.9670    1.7034 H   0  0  0  0  0  0  0  0  0  0  0  0
  1  6  1  0  0  0  0
  2  4  1  0  0  0  0
  2  3  1  0  0  0  0
  2  1  1  0  0  0  0
  3 12  1  0  0  0  0
  4 15  1  0  0  0  0
  5  2  1  0  0  0  0
  6  8  1  0  0  0  0
  6  9  1  0  0  0  0
  6  7  1  0  0  0  0
  7 20  1  0  0  0  0
  8 25  1  0  0  0  0
  9 27  1  0  0  0  0
 10  1  1  0  0  0  0
 11  3  1  0  0  0  0
 13  3  1  0  0  0  0
 14  4  1  0  0  0  0
 16  4  1  0  0  0  0
 17  5  1  0  0  0  0
 18  5  1  0  0  0  0
 19  5  1  0  0  0  0
 21  7  1  0  0  0  0
 22  7  1  0  0  0  0
 23  8  1  0  0  0  0
 24  8  1  0  0  0  0
 26  9  1  0  0  0  0
 28  9  1  0  0  0  0
M  END
