2
q = -1

 10  9  0  0  0  0  0  0  0  0999 V2000
   -2.1013   -3.1827    0.0158 Cl  0  0  0  0  0  0  0  0  0  0  0  0
   -0.1475   -2.2137   -0.3134 Si  0  0  0  0  0  3  0  0  0  0  0  0
    0.8783   -3.1584    0.9874 C   0  0  0  0  0  0  0  0  0  0  0  0
    0.6748   -4.2451    0.9031 H   0  0  0  0  0  0  0  0  0  0  0  0
    0.6469   -2.8491    2.0263 H   0  0  0  0  0  0  0  0  0  0  0  0
    1.9577   -2.9821    0.8071 H   0  0  0  0  0  0  0  0  0  0  0  0
    0.3462   -2.9684   -1.9825 C   0  0  0  0  0  0  0  0  0  0  0  0
    1.4099   -2.7357   -2.1883 H   0  0  0  0  0  0  0  0  0  0  0  0
   -0.2600   -2.5550   -2.8120 H   0  0  0  0  0  0  0  0  0  0  0  0
    0.2196   -4.0698   -1.9637 H   0  0  0  0  0  0  0  0  0  0  0  0
  2  1  1  0  0  0  0
  2  3  1  0  0  0  0
  3  5  1  0  0  0  0
  4  3  1  0  0  0  0
  6  3  1  0  0  0  0
  7 10  1  0  0  0  0
  7  2  1  0  0  0  0
  8  7  1  0  0  0  0
  9  7  1  0  0  0  0
M  END
