1
q = -1.0, confidence = 0.014

 37 40  0  0  0  0  0  0  0  0999 V2000
    0.9215    0.2842   -0.5768 Si  0  0  0  0  0  3  0  0  0  0  0  0
    1.9369   -2.7242   -1.0575 N   0  0  0  0  0  0  0  0  0  0  0  0
    3.9131    1.0391   -0.9131 N   0  0  0  0  0  0  0  0  0  0  0  0
    2.3151   -3.9358   -1.4336 C   0  0  0  0  0  0  0  0  0  0  0  0
    3.2170   -4.7514   -0.6972 C   0  0  0  0  0  0  0  0  0  0  0  0
    3.7046   -4.2650    0.5041 C   0  0  0  0  0  0  0  0  0  0  0  0
    3.3129   -2.9722    0.9533 C   0  0  0  0  0  0  0  0  0  0  0  0
    3.7385   -2.4366    2.2011 C   0  0  0  0  0  0  0  0  0  0  0  0
    3.3057   -1.1776    2.5914 C   0  0  0  0  0  0  0  0  0  0  0  0
    2.4651   -0.4135    1.7417 C   0  0  0  0  0  0  0  0  0  0  0  0
    2.0237   -0.8774    0.4982 C   0  0  0  0  0  0  0  0  0  0  0  0
    2.4288   -2.1983    0.1069 C   0  0  0  0  0  0  0  0  0  0  0  0
    5.2169    1.1357   -1.1085 C   0  0  0  0  0  0  0  0  0  0  0  0
    5.9819    2.2957   -0.8056 C   0  0  0  0  0  0  0  0  0  0  0  0
    5.3232    3.3904   -0.2718 C   0  0  0  0  0  0  0  0  0  0  0  0
    3.9206    3.3246   -0.0372 C   0  0  0  0  0  0  0  0  0  0  0  0
    3.1916    4.4066    0.5322 C   0  0  0  0  0  0  0  0  0  0  0  0
    1.8340    4.2683    0.7661 C   0  0  0  0  0  0  0  0  0  0  0  0
    1.1663    3.0582    0.4344 C   0  0  0  0  0  0  0  0  0  0  0  0
    1.8133    1.9665   -0.1444 C   0  0  0  0  0  0  0  0  0  0  0  0
    3.2302    2.0999   -0.3828 C   0  0  0  0  0  0  0  0  0  0  0  0
    1.3502    0.0066   -2.4186 C   0  0  0  0  0  0  0  0  0  0  0  0
    1.8800   -4.3168   -2.3771 H   0  0  0  0  0  0  0  0  0  0  0  0
    3.4987   -5.7460   -1.0740 H   0  0  0  0  0  0  0  0  0  0  0  0
    4.3864   -4.8660    1.1276 H   0  0  0  0  0  0  0  0  0  0  0  0
    4.4055   -3.0350    2.8419 H   0  0  0  0  0  0  0  0  0  0  0  0
    3.6255   -0.7596    3.5588 H   0  0  0  0  0  0  0  0  0  0  0  0
    2.1619    0.5940    2.0708 H   0  0  0  0  0  0  0  0  0  0  0  0
    5.7181    0.2462   -1.5348 H   0  0  0  0  0  0  0  0  0  0  0  0
    7.0659    2.3102   -0.9943 H   0  0  0  0  0  0  0  0  0  0  0  0
    5.8665    4.3151   -0.0173 H   0  0  0  0  0  0  0  0  0  0  0  0
    3.7245    5.3367    0.7877 H   0  0  0  0  0  0  0  0  0  0  0  0
    1.2632    5.0961    1.2159 H   0  0  0  0  0  0  0  0  0  0  0  0
    0.0915    2.9670    0.6541 H   0  0  0  0  0  0  0  0  0  0  0  0
    0.9214   -0.9352   -2.8056 H   0  0  0  0  0  0  0  0  0  0  0  0
    2.4510   -0.0451   -2.5105 H   0  0  0  0  0  0  0  0  0  0  0  0
    0.9846    0.8578   -3.0285 H   0  0  0  0  0  0  0  0  0  0  0  0
  1 20  1  0  0  0  0
  1 11  1  0  0  0  0
  2 12  1  0  0  0  0
  3 21  1  0  0  0  0
  4  2  2  0  0  0  0
  4  5  1  0  0  0  0
  5  6  2  0  0  0  0
  6  7  1  0  0  0  0
  6 25  1  0  0  0  0
  7  8  1  0  0  0  0
  8  9  2  0  0  0  0
  8 26  1  0  0  0  0
  9 27  1  0  0  0  0
 10 28  1  0  0  0  0
 10  9  1  0  0  0  0
 11 10  2  0  0  0  0
 12 11  1  0  0  0  0
 12  7  2  0  0  0  0
 13  3  2  0  0  0  0
 13 14  1  0  0  0  0
 14 15  2  0  0  0  0
 15 16  1  0  0  0  0
 15 31  1  0  0  0  0
 16 17  1  0  0  0  0
 17 18  2  0  0  0  0
 17 32  1  0  0  0  0
 18 33  1  0  0  0  0
 19 34  1  0  0  0  0
 19 18  1  0  0  0  0
 20 19  2  0  0  0  0
 21 20  1  0  0  0  0
 21 16  2  0  0  0  0
 22  1  1  0  0  0  0
 23  4  1  0  0  0  0
 24  5  1  0  0  0  0
 29 13  1  0  0  0  0
 30 14  1  0  0  0  0
 35 22  1  0  0  0  0
 36 22  1  0  0  0  0
 37 22  1  0  0  0  0
M  END
