1
q = -1.0

 14 14  0  0  0  0  0  0  0  0999 V2000
   -1.4087    1.2048   -1.1292 Si  0  0  0  0  0  3  0  0  0  0  0  0
   -4.0495    0.0279   -1.4328 C   0  0  0  0  0  0  0  0  0  0  0  0
   -5.3163   -0.3870   -0.9890 C   0  0  0  0  0  0  0  0  0  0  0  0
   -5.7380   -0.0847    0.3152 C   0  0  0  0  0  0  0  0  0  0  0  0
   -4.8859    0.6351    1.1702 C   0  0  0  0  0  0  0  0  0  0  0  0
   -3.6189    1.0409    0.7245 C   0  0  0  0  0  0  0  0  0  0  0  0
   -3.1744    0.7467   -0.5867 C   0  0  0  0  0  0  0  0  0  0  0  0
   -1.4023    1.0335   -2.6394 H   0  0  0  0  0  0  0  0  0  0  0  0
   -1.2757    2.6978   -0.8926 H   0  0  0  0  0  0  0  0  0  0  0  0
   -3.7392   -0.2050   -2.4650 H   0  0  0  0  0  0  0  0  0  0  0  0
   -5.9801   -0.9453   -1.6676 H   0  0  0  0  0  0  0  0  0  0  0  0
   -6.7304   -0.4080    0.6655 H   0  0  0  0  0  0  0  0  0  0  0  0
   -5.2100    0.8779    2.1944 H   0  0  0  0  0  0  0  0  0  0  0  0
   -2.9527    1.5827    1.4155 H   0  0  0  0  0  0  0  0  0  0  0  0
  1  9  1  0  0  0  0
  1  7  1  0  0  0  0
  2  3  2  0  0  0  0
  2  7  1  0  0  0  0
  3  4  1  0  0  0  0
  4 12  1  0  0  0  0
  4  5  2  0  0  0  0
  5 13  1  0  0  0  0
  6  5  1  0  0  0  0
  6 14  1  0  0  0  0
  7  6  2  0  0  0  0
  8  1  1  0  0  0  0
 10  2  1  0  0  0  0
 11  3  1  0  0  0  0
M  END
