1
q = -1.0

 43 45  0  0  0  0  0  0  0  0999 V2000
    1.2827   -0.0387    0.3027 Si  0  0  0  0  0  3  0  0  0  0  0  0
    0.1940   -0.7255    1.6716 C   0  0  0  0  0  0  0  0  0  0  0  0
    0.2642   -2.0684    2.1651 C   0  0  0  0  0  0  0  0  0  0  0  0
    1.1304   -2.6899    1.8909 H   0  0  0  0  0  0  0  0  0  0  0  0
   -0.7237   -2.5916    2.9834 C   0  0  0  0  0  0  0  0  0  0  0  0
   -0.6292   -3.6236    3.3575 H   0  0  0  0  0  0  0  0  0  0  0  0
   -1.8774   -1.8303    3.3414 C   0  0  0  0  0  0  0  0  0  0  0  0
   -1.9641   -0.5179    2.8854 C   0  0  0  0  0  0  0  0  0  0  0  0
   -2.8229    0.1039    3.1815 H   0  0  0  0  0  0  0  0  0  0  0  0
   -0.9527    0.0458    2.0522 C   0  0  0  0  0  0  0  0  0  0  0  0
   -0.9409    1.1359    1.8994 H   0  0  0  0  0  0  0  0  0  0  0  0
   -2.9618   -2.4558    4.1773 C   0  0  0  0  0  0  0  0  0  0  0  0
   -3.7238   -1.7142    4.4862 H   0  0  0  0  0  0  0  0  0  0  0  0
   -2.5476   -2.9295    5.0914 H   0  0  0  0  0  0  0  0  0  0  0  0
   -3.4792   -3.2575    3.6082 H   0  0  0  0  0  0  0  0  0  0  0  0
    1.9405    1.7024    0.6214 C   0  0  0  0  0  0  0  0  0  0  0  0
    1.7830    2.3658    1.8576 C   0  0  0  0  0  0  0  0  0  0  0  0
    1.3190    1.8373    2.7053 H   0  0  0  0  0  0  0  0  0  0  0  0
    2.2146    3.6905    2.0317 C   0  0  0  0  0  0  0  0  0  0  0  0
    2.0763    4.1833    3.0079 H   0  0  0  0  0  0  0  0  0  0  0  0
    2.8318    4.4025    0.9847 C   0  0  0  0  0  0  0  0  0  0  0  0
    3.0058    3.7374   -0.2486 C   0  0  0  0  0  0  0  0  0  0  0  0
    3.4913    4.2676   -1.0843 H   0  0  0  0  0  0  0  0  0  0  0  0
    2.5666    2.4196   -0.4270 C   0  0  0  0  0  0  0  0  0  0  0  0
    2.7131    1.9361   -1.4076 H   0  0  0  0  0  0  0  0  0  0  0  0
    3.3132    5.8191    1.1711 C   0  0  0  0  0  0  0  0  0  0  0  0
    2.9740    6.2430    2.1361 H   0  0  0  0  0  0  0  0  0  0  0  0
    2.9504    6.4816    0.3584 H   0  0  0  0  0  0  0  0  0  0  0  0
    4.4227    5.8710    1.1538 H   0  0  0  0  0  0  0  0  0  0  0  0
    2.7273   -1.1878   -0.0874 C   0  0  0  0  0  0  0  0  0  0  0  0
    4.0608   -0.7302    0.0082 C   0  0  0  0  0  0  0  0  0  0  0  0
    4.2597    0.3182    0.2806 H   0  0  0  0  0  0  0  0  0  0  0  0
    5.1440   -1.5899   -0.2262 C   0  0  0  0  0  0  0  0  0  0  0  0
    6.1727   -1.2031   -0.1423 H   0  0  0  0  0  0  0  0  0  0  0  0
    4.9418   -2.9430   -0.5607 C   0  0  0  0  0  0  0  0  0  0  0  0
    3.6120   -3.4058   -0.6509 C   0  0  0  0  0  0  0  0  0  0  0  0
    3.4229   -4.4601   -0.9101 H   0  0  0  0  0  0  0  0  0  0  0  0
    2.5288   -2.5475   -0.4283 C   0  0  0  0  0  0  0  0  0  0  0  0
    1.5068   -2.9443   -0.5236 H   0  0  0  0  0  0  0  0  0  0  0  0
    6.1011   -3.8659   -0.8387 C   0  0  0  0  0  0  0  0  0  0  0  0
    7.0594   -3.4384   -0.4846 H   0  0  0  0  0  0  0  0  0  0  0  0
    6.2049   -4.0581   -1.9283 H   0  0  0  0  0  0  0  0  0  0  0  0
    5.9614   -4.8527   -0.3522 H   0  0  0  0  0  0  0  0  0  0  0  0
  1 16  1  0  0  0  0
  1  2  1  0  0  0  0
  2 10  2  0  0  0  0
  2  3  1  0  0  0  0
  3  5  2  0  0  0  0
  4  3  1  0  0  0  0
  5  7  1  0  0  0  0
  5  6  1  0  0  0  0
  7 12  1  0  0  0  0
  8  9  1  0  0  0  0
  8  7  2  0  0  0  0
 10  8  1  0  0  0  0
 11 10  1  0  0  0  0
 12 13  1  0  0  0  0
 12 14  1  0  0  0  0
 15 12  1  0  0  0  0
 16 17  1  0  0  0  0
 17 19  2  0  0  0  0
 17 18  1  0  0  0  0
 19 20  1  0  0  0  0
 21 26  1  0  0  0  0
 21 19  1  0  0  0  0
 22 21  2  0  0  0  0
 23 22  1  0  0  0  0
 24 22  1  0  0  0  0
 24 16  2  0  0  0  0
 25 24  1  0  0  0  0
 26 27  1  0  0  0  0
 28 26  1  0  0  0  0
 29 26  1  0  0  0  0
 30 31  1  0  0  0  0
 30  1  1  0  0  0  0
 31 32  1  0  0  0  0
 33 34  1  0  0  0  0
 33 31  2  0  0  0  0
 35 33  1  0  0  0  0
 36 35  2  0  0  0  0
 36 38  1  0  0  0  0
 37 36  1  0  0  0  0
 38 30  2  0  0  0  0
 39 38  1  0  0  0  0
 40 35  1  0  0  0  0
 40 41  1  0  0  0  0
 40 43  1  0  0  0  0
 42 40  1  0  0  0  0
M  END
