1
q = 0.0, confidence = 0.988

 68 70  0  0  1  0  0  0  0  0999 V2000
   -0.3520    0.9039    0.0406 Si  0  0  1  0  0  0  0  0  0  0  0  0
   -1.6664    3.7792   -0.1317 Si  0  0  0  0  0  0  0  0  0  0  0  0
    1.3960    3.3200    0.2536 Si  0  0  0  0  0  0  0  0  0  0  0  0
   -1.7115    0.2287   -1.0616 N   0  0  0  0  0  0  0  0  0  0  0  0
   -1.7591    0.2534    1.1018 N   0  0  0  0  0  0  0  0  0  0  0  0
   -0.2779    2.6584    0.0737 N   0  0  0  0  0  0  0  0  0  0  0  0
   -2.3705   -0.2547    0.0137 C   0  0  2  0  0  0  0  0  0  0  0  0
   -3.5519   -1.1596   -0.0006 C   0  0  0  0  0  0  0  0  0  0  0  0
   -4.8435   -0.6012    0.0902 C   0  0  0  0  0  0  0  0  0  0  0  0
   -4.9616    0.4906    0.1479 H   0  0  0  0  0  0  0  0  0  0  0  0
   -5.9693   -1.4375    0.0903 C   0  0  0  0  0  0  0  0  0  0  0  0
   -6.9754   -0.9971    0.1580 H   0  0  0  0  0  0  0  0  0  0  0  0
   -5.8119   -2.8299    0.0032 C   0  0  0  0  0  0  0  0  0  0  0  0
   -6.6963   -3.4850    0.0049 H   0  0  0  0  0  0  0  0  0  0  0  0
   -4.5249   -3.3849   -0.0834 C   0  0  0  0  0  0  0  0  0  0  0  0
   -4.3958   -4.4760   -0.1436 H   0  0  0  0  0  0  0  0  0  0  0  0
   -3.3938   -2.5569   -0.0865 C   0  0  0  0  0  0  0  0  0  0  0  0
   -2.3786   -2.9832   -0.1196 H   0  0  0  0  0  0  0  0  0  0  0  0
   -1.9759    0.0739    2.5524 C   0  0  0  0  0  0  0  0  0  0  0  0
   -2.9687    1.1421    3.0516 C   0  0  0  0  0  0  0  0  0  0  0  0
   -2.6027    2.1633    2.8267 H   0  0  0  0  0  0  0  0  0  0  0  0
   -3.1035    1.0562    4.1483 H   0  0  0  0  0  0  0  0  0  0  0  0
   -3.9613    1.0099    2.5765 H   0  0  0  0  0  0  0  0  0  0  0  0
   -2.4878   -1.3288    2.9216 C   0  0  0  0  0  0  0  0  0  0  0  0
   -3.5234   -1.5008    2.5744 H   0  0  0  0  0  0  0  0  0  0  0  0
   -2.4819   -1.4307    4.0252 H   0  0  0  0  0  0  0  0  0  0  0  0
   -1.8286   -2.1105    2.4950 H   0  0  0  0  0  0  0  0  0  0  0  0
   -0.6001    0.2977    3.2053 C   0  0  0  0  0  0  0  0  0  0  0  0
    0.1187   -0.4645    2.8431 H   0  0  0  0  0  0  0  0  0  0  0  0
   -0.6775    0.2204    4.3072 H   0  0  0  0  0  0  0  0  0  0  0  0
   -0.2061    1.3036    2.9559 H   0  0  0  0  0  0  0  0  0  0  0  0
   -1.7971   -0.1004   -2.5034 C   0  0  0  0  0  0  0  0  0  0  0  0
   -1.3472   -1.5491   -2.7667 C   0  0  0  0  0  0  0  0  0  0  0  0
   -0.3453   -1.7373   -2.3346 H   0  0  0  0  0  0  0  0  0  0  0  0
   -1.2874   -1.7323   -3.8580 H   0  0  0  0  0  0  0  0  0  0  0  0
   -2.0600   -2.2768   -2.3354 H   0  0  0  0  0  0  0  0  0  0  0  0
   -3.2273    0.1144   -3.0311 C   0  0  0  0  0  0  0  0  0  0  0  0
   -3.9531   -0.5659   -2.5469 H   0  0  0  0  0  0  0  0  0  0  0  0
   -3.2482   -0.0881   -4.1200 H   0  0  0  0  0  0  0  0  0  0  0  0
   -3.5638    1.1588   -2.8742 H   0  0  0  0  0  0  0  0  0  0  0  0
   -0.8345    0.8723   -3.2058 C   0  0  0  0  0  0  0  0  0  0  0  0
   -1.1151    1.9248   -3.0035 H   0  0  0  0  0  0  0  0  0  0  0  0
   -0.8574    0.7070   -4.3002 H   0  0  0  0  0  0  0  0  0  0  0  0
    0.2105    0.7066   -2.8701 H   0  0  0  0  0  0  0  0  0  0  0  0
   -3.3364    2.9048   -0.2470 C   0  0  0  0  0  0  0  0  0  0  0  0
   -3.3982    2.2162   -1.1081 H   0  0  0  0  0  0  0  0  0  0  0  0
   -4.1068    3.6931   -0.3771 H   0  0  0  0  0  0  0  0  0  0  0  0
   -3.5755    2.3432    0.6739 H   0  0  0  0  0  0  0  0  0  0  0  0
   -1.4692    4.7530   -1.7434 C   0  0  0  0  0  0  0  0  0  0  0  0
   -1.5287    4.0665   -2.6127 H   0  0  0  0  0  0  0  0  0  0  0  0
   -0.5078    5.2969   -1.8136 H   0  0  0  0  0  0  0  0  0  0  0  0
   -2.2876    5.4959   -1.8438 H   0  0  0  0  0  0  0  0  0  0  0  0
   -1.8098    4.9449    1.3557 C   0  0  0  0  0  0  0  0  0  0  0  0
   -1.7302    4.3765    2.3054 H   0  0  0  0  0  0  0  0  0  0  0  0
   -2.8051    5.4358    1.3401 H   0  0  0  0  0  0  0  0  0  0  0  0
   -1.0431    5.7413    1.3694 H   0  0  0  0  0  0  0  0  0  0  0  0
    2.4124    2.8632   -1.2630 C   0  0  0  0  0  0  0  0  0  0  0  0
    2.4690    1.7689   -1.4404 H   0  0  0  0  0  0  0  0  0  0  0  0
    3.4500    3.2482   -1.1753 H   0  0  0  0  0  0  0  0  0  0  0  0
    1.9587    3.3168   -2.1686 H   0  0  0  0  0  0  0  0  0  0  0  0
    1.4469    5.2072    0.4185 C   0  0  0  0  0  0  0  0  0  0  0  0
    0.9360    5.7626   -0.3909 H   0  0  0  0  0  0  0  0  0  0  0  0
    2.5213    5.4859    0.3789 H   0  0  0  0  0  0  0  0  0  0  0  0
    1.0526    5.5583    1.3916 H   0  0  0  0  0  0  0  0  0  0  0  0
    2.1546    2.6726    1.8596 C   0  0  0  0  0  0  0  0  0  0  0  0
    1.5646    3.0393    2.7251 H   0  0  0  0  0  0  0  0  0  0  0  0
    3.1895    3.0598    1.9713 H   0  0  0  0  0  0  0  0  0  0  0  0
    2.1949    1.5672    1.9056 H   0  0  0  0  0  0  0  0  0  0  0  0
  1  6  1  6  0  0  0
  1  5  1  0  0  0  0
  1  7  1  0  0  0  0
  2  6  1  0  0  0  0
  2 53  1  0  0  0  0
  3 61  1  0  0  0  0
  3 65  1  0  0  0  0
  4  7  1  0  0  0  0
  4  1  1  0  0  0  0
  5 19  1  0  0  0  0
  6  3  1  0  0  0  0
  7  8  1  1  0  0  0
  7  5  1  0  0  0  0
  8  9  1  0  0  0  0
  9 11  2  0  0  0  0
  9 10  1  0  0  0  0
 11 12  1  0  0  0  0
 13 14  1  0  0  0  0
 13 11  1  0  0  0  0
 15 13  2  0  0  0  0
 16 15  1  0  0  0  0
 17 15  1  0  0  0  0
 17  8  2  0  0  0  0
 18 17  1  0  0  0  0
 19 24  1  0  0  0  0
 19 20  1  0  0  0  0
 19 28  1  0  0  0  0
 20 22  1  0  0  0  0
 21 20  1  0  0  0  0
 23 20  1  0  0  0  0
 24 26  1  0  0  0  0
 25 24  1  0  0  0  0
 27 24  1  0  0  0  0
 28 30  1  0  0  0  0
 29 28  1  0  0  0  0
 31 28  1  0  0  0  0
 32  4  1  0  0  0  0
 33 32  1  0  0  0  0
 33 36  1  0  0  0  0
 33 34  1  0  0  0  0
 35 33  1  0  0  0  0
 37 40  1  0  0  0  0
 37 38  1  0  0  0  0
 37 32  1  0  0  0  0
 39 37  1  0  0  0  0
 41 42  1  0  0  0  0
 41 44  1  0  0  0  0
 41 32  1  0  0  0  0
 43 41  1  0  0  0  0
 45  2  1  0  0  0  0
 45 48  1  0  0  0  0
 46 45  1  0  0  0  0
 47 45  1  0  0  0  0
 49  2  1  0  0  0  0
 50 49  1  0  0  0  0
 51 49  1  0  0  0  0
 52 49  1  0  0  0  0
 53 56  1  0  0  0  0
 53 54  1  0  0  0  0
 55 53  1  0  0  0  0
 57 59  1  0  0  0  0
 57  3  1  0  0  0  0
 58 57  1  0  0  0  0
 60 57  1  0  0  0  0
 61 64  1  0  0  0  0
 62 61  1  0  0  0  0
 63 61  1  0  0  0  0
 65 68  1  0  0  0  0
 65 67  1  0  0  0  0
 65 66  1  0  0  0  0
M  HYD  1   7   0
M  ZBO  1   3   0
M  END
