1
q = -1.0

  4  3  0  0  0  0  0  0  0  0999 V2000
    1.2467   -0.2541   -0.7102 Si  0  0  0  0  0  3  0  0  0  0  0  0
    1.3520   -0.3436   -2.2104 H   0  0  0  0  0  0  0  0  0  0  0  0
    2.7468    1.1074   -0.1602 Cl  0  0  0  0  0  0  0  0  0  0  0  0
    1.9163   -2.1448   -0.0431 Cl  0  0  0  0  0  0  0  0  0  0  0  0
  1  3  1  0  0  0  0
  1  4  1  0  0  0  0
  2  1  1  0  0  0  0
M  END
