1
q = nan, confidence = 0.0

 40 40  0  0  0  0  0  0  0  0999 V2000
    1.2144    0.0202    0.0302 Si  0  0  0  0  0  0  0  0  0  0  0  0
    2.4246   -1.8965    0.7608 Si  0  0  0  0  0  0  0  0  0  0  0  0
    2.1992    0.5643   -2.0654 Si  0  0  0  0  0  0  0  0  0  0  0  0
    1.8207    1.8331    1.4422 Si  0  0  0  0  0  0  0  0  0  0  0  0
    1.9548   -2.2921    2.5623 C   0  0  0  0  0  0  0  0  0  0  0  0
    4.3014   -1.5656    0.6847 C   0  0  0  0  0  0  0  0  0  0  0  0
    2.1414   -3.4544   -0.2856 C   0  0  0  0  0  0  0  0  0  0  0  0
    3.8951    1.3936   -1.8116 C   0  0  0  0  0  0  0  0  0  0  0  0
    2.5163   -0.9951   -3.1122 C   0  0  0  0  0  0  0  0  0  0  0  0
    1.1513    1.7529   -3.1175 C   0  0  0  0  0  0  0  0  0  0  0  0
    0.8343    1.8354    3.0725 C   0  0  0  0  0  0  0  0  0  0  0  0
    3.6516    1.8206    1.9638 C   0  0  0  0  0  0  0  0  0  0  0  0
    1.4938    3.4801    0.5443 C   0  0  0  0  0  0  0  0  0  0  0  0
    2.0728   -1.4106    3.2255 H   0  0  0  0  0  0  0  0  0  0  0  0
    2.5968   -3.1070    2.9588 H   0  0  0  0  0  0  0  0  0  0  0  0
    0.9014   -2.6340    2.6128 H   0  0  0  0  0  0  0  0  0  0  0  0
    4.6097   -0.6687    1.2540 H   0  0  0  0  0  0  0  0  0  0  0  0
    4.6371   -1.4374   -0.3647 H   0  0  0  0  0  0  0  0  0  0  0  0
    4.8412   -2.4426    1.1016 H   0  0  0  0  0  0  0  0  0  0  0  0
    1.0754   -3.7506   -0.2857 H   0  0  0  0  0  0  0  0  0  0  0  0
    2.7433   -4.2855    0.1406 H   0  0  0  0  0  0  0  0  0  0  0  0
    2.4627   -3.3051   -1.3351 H   0  0  0  0  0  0  0  0  0  0  0  0
    4.5661    0.7632   -1.1956 H   0  0  0  0  0  0  0  0  0  0  0  0
    3.8016    2.3795   -1.3146 H   0  0  0  0  0  0  0  0  0  0  0  0
    4.3811    1.5540   -2.7975 H   0  0  0  0  0  0  0  0  0  0  0  0
    3.2841   -1.6393   -2.6390 H   0  0  0  0  0  0  0  0  0  0  0  0
    2.8926   -0.6985   -4.1143 H   0  0  0  0  0  0  0  0  0  0  0  0
    1.6061   -1.6100   -3.2582 H   0  0  0  0  0  0  0  0  0  0  0  0
    0.9441    2.6991   -2.5799 H   0  0  0  0  0  0  0  0  0  0  0  0
    0.1807    1.2995   -3.4006 H   0  0  0  0  0  0  0  0  0  0  0  0
    1.6974    2.0007   -4.0524 H   0  0  0  0  0  0  0  0  0  0  0  0
    1.0222    0.9099    3.6539 H   0  0  0  0  0  0  0  0  0  0  0  0
   -0.2567    1.9201    2.9067 H   0  0  0  0  0  0  0  0  0  0  0  0
    1.1525    2.6970    3.6973 H   0  0  0  0  0  0  0  0  0  0  0  0
    3.8766    0.9531    2.6164 H   0  0  0  0  0  0  0  0  0  0  0  0
    3.8713    2.7439    2.5416 H   0  0  0  0  0  0  0  0  0  0  0  0
    4.3380    1.7869    1.0956 H   0  0  0  0  0  0  0  0  0  0  0  0
    2.1874    3.6140   -0.3100 H   0  0  0  0  0  0  0  0  0  0  0  0
    1.6338    4.3377    1.2358 H   0  0  0  0  0  0  0  0  0  0  0  0
    0.4614    3.5167    0.1473 H   0  0  0  0  0  0  0  0  0  0  0  0
  1  2  1  0  0  0  0
  1  4  1  0  0  0  0
  1  5  1  0  0  0  0
  2  5  1  0  0  0  0
  3  8  1  0  0  0  0
  3  1  1  0  0  0  0
  4 12  1  0  0  0  0
  4 11  1  0  0  0  0
  5 16  1  0  0  0  0
  5 15  1  0  0  0  0
  5 14  1  0  0  0  0
  6  2  1  0  0  0  0
  6 19  1  0  0  0  0
  6 17  1  0  0  0  0
  7 21  1  0  0  0  0
  7  2  1  0  0  0  0
  8 24  1  0  0  0  0
  8 23  1  0  0  0  0
  9 26  1  0  0  0  0
  9  3  1  0  0  0  0
 10 29  1  0  0  0  0
 10  3  1  0  0  0  0
 11 32  1  0  0  0  0
 11 34  1  0  0  0  0
 12 36  1  0  0  0  0
 12 35  1  0  0  0  0
 13 39  1  0  0  0  0
 13  4  1  0  0  0  0
 18  6  1  0  0  0  0
 20  7  1  0  0  0  0
 22  7  1  0  0  0  0
 25  8  1  0  0  0  0
 27  9  1  0  0  0  0
 28  9  1  0  0  0  0
 30 10  1  0  0  0  0
 31 10  1  0  0  0  0
 33 11  1  0  0  0  0
 37 12  1  0  0  0  0
 38 13  1  0  0  0  0
 40 13  1  0  0  0  0
M  ZBO  1   3   0
M  END
