1
q = -1

 34 34  0  0  0  0  0  0  0  0999 V2000
    0.8305   -0.0454   -0.5782 Si  0  0  0  0  0  3  0  0  0  0  0  0
    1.9473    1.1944    0.1283 N   0  0  0  0  0  0  0  0  0  0  0  0
    1.9111   -1.3558    0.0379 N   0  0  0  0  0  0  0  0  0  0  0  0
    2.8674    0.5554    0.9812 C   0  0  0  0  0  0  0  0  0  0  0  0
    2.8310   -0.8087    0.9444 C   0  0  0  0  0  0  0  0  0  0  0  0
    2.2307    2.5627   -0.3489 C   0  0  0  0  0  0  0  0  0  0  0  0
    1.0662    3.0552   -1.2224 C   0  0  0  0  0  0  0  0  0  0  0  0
    2.3954    3.5286    0.8442 C   0  0  0  0  0  0  0  0  0  0  0  0
    3.5241    2.5592   -1.1938 C   0  0  0  0  0  0  0  0  0  0  0  0
    1.8335   -2.8122   -0.1682 C   0  0  0  0  0  0  0  0  0  0  0  0
    0.9601   -3.0904   -1.4029 C   0  0  0  0  0  0  0  0  0  0  0  0
    1.2058   -3.4979    1.0660 C   0  0  0  0  0  0  0  0  0  0  0  0
    3.2420   -3.3867   -0.4295 C   0  0  0  0  0  0  0  0  0  0  0  0
    0.9936    0.0426   -2.0898 H   0  0  0  0  0  0  0  0  0  0  0  0
    3.4954    1.1366    1.6697 H   0  0  0  0  0  0  0  0  0  0  0  0
    3.4161   -1.4580    1.6096 H   0  0  0  0  0  0  0  0  0  0  0  0
    1.2517    4.0955   -1.5551 H   0  0  0  0  0  0  0  0  0  0  0  0
    0.1073    3.0269   -0.6681 H   0  0  0  0  0  0  0  0  0  0  0  0
    0.9599    2.4247   -2.1277 H   0  0  0  0  0  0  0  0  0  0  0  0
    1.4842    3.5353    1.4757 H   0  0  0  0  0  0  0  0  0  0  0  0
    2.5784    4.5619    0.4863 H   0  0  0  0  0  0  0  0  0  0  0  0
    3.2517    3.2468    1.4881 H   0  0  0  0  0  0  0  0  0  0  0  0
    3.7746    3.5761   -1.5604 H   0  0  0  0  0  0  0  0  0  0  0  0
    3.4049    1.8881   -2.0681 H   0  0  0  0  0  0  0  0  0  0  0  0
    4.3777    2.1834   -0.5951 H   0  0  0  0  0  0  0  0  0  0  0  0
    0.8818   -4.1809   -1.5827 H   0  0  0  0  0  0  0  0  0  0  0  0
    1.3950   -2.6188   -2.3067 H   0  0  0  0  0  0  0  0  0  0  0  0
   -0.0636   -2.6938   -1.2505 H   0  0  0  0  0  0  0  0  0  0  0  0
    1.1681   -4.5999    0.9427 H   0  0  0  0  0  0  0  0  0  0  0  0
    0.1727   -3.1265    1.2160 H   0  0  0  0  0  0  0  0  0  0  0  0
    1.7916   -3.2762    1.9810 H   0  0  0  0  0  0  0  0  0  0  0  0
    3.7118   -2.8729   -1.2917 H   0  0  0  0  0  0  0  0  0  0  0  0
    3.1823   -4.4711   -0.6533 H   0  0  0  0  0  0  0  0  0  0  0  0
    3.9094   -3.2624    0.4457 H   0  0  0  0  0  0  0  0  0  0  0  0
  1  3  1  0  0  0  0
  1  2  1  0  0  0  0
  2  4  1  0  0  0  0
  3  5  1  0  0  0  0
  4 15  1  0  0  0  0
  5  4  2  0  0  0  0
  5 16  1  0  0  0  0
  6  2  1  0  0  0  0
  6  8  1  0  0  0  0
  7 18  1  0  0  0  0
  7  6  1  0  0  0  0
  8 20  1  0  0  0  0
  8 22  1  0  0  0  0
  9 25  1  0  0  0  0
  9  6  1  0  0  0  0
 10  3  1  0  0  0  0
 10 12  1  0  0  0  0
 11 28  1  0  0  0  0
 11 10  1  0  0  0  0
 12 30  1  0  0  0  0
 12 31  1  0  0  0  0
 13 10  1  0  0  0  0
 13 34  1  0  0  0  0
 14  1  1  0  0  0  0
 17  7  1  0  0  0  0
 19  7  1  0  0  0  0
 21  8  1  0  0  0  0
 23  9  1  0  0  0  0
 24  9  1  0  0  0  0
 26 11  1  0  0  0  0
 27 11  1  0  0  0  0
 29 12  1  0  0  0  0
 32 13  1  0  0  0  0
 33 13  1  0  0  0  0
M  END
