1
q = -1.0, confidence = 0.0

 54 56  0  0  0  0  0  0  0  0999 V2000
   -1.1511   -0.1372   -0.7378 Si  0  0  2  0  0  3  0  0  0  0  0  0
   -1.9808   -0.3941   -2.6761 Cl  0  0  0  0  0  0  0  0  0  0  0  0
    0.0410    1.3379   -0.6693 C   0  0  0  0  0  0  0  0  0  0  0  0
    1.2442    0.7906   -0.2813 C   0  0  0  0  0  0  0  0  0  0  0  0
    1.3469   -0.7177   -0.2467 C   0  0  0  0  0  0  0  0  0  0  0  0
    0.0596   -3.3184   -0.6635 Si  0  0  0  0  0  0  0  0  0  0  0  0
    0.2081   -1.4411   -0.5135 C   0  0  0  0  0  0  0  0  0  0  0  0
   -1.7524   -3.8452   -0.5231 C   0  0  0  0  0  0  0  0  0  0  0  0
   -2.3741   -3.3434   -1.2902 H   0  0  0  0  0  0  0  0  0  0  0  0
   -2.1967   -3.6297    0.4686 H   0  0  0  0  0  0  0  0  0  0  0  0
   -1.8264   -4.9399   -0.6907 H   0  0  0  0  0  0  0  0  0  0  0  0
    0.6287   -3.8349   -2.3976 C   0  0  0  0  0  0  0  0  0  0  0  0
    1.7229   -3.7283   -2.5284 H   0  0  0  0  0  0  0  0  0  0  0  0
    0.1229   -3.2072   -3.1595 H   0  0  0  0  0  0  0  0  0  0  0  0
    0.3617   -4.8949   -2.5898 H   0  0  0  0  0  0  0  0  0  0  0  0
    1.0520   -4.2275    0.6730 C   0  0  0  0  0  0  0  0  0  0  0  0
    0.8397   -5.3159    0.6208 H   0  0  0  0  0  0  0  0  0  0  0  0
    0.7722   -3.8761    1.6878 H   0  0  0  0  0  0  0  0  0  0  0  0
    2.1435   -4.0810    0.5577 H   0  0  0  0  0  0  0  0  0  0  0  0
   -0.2863    3.1494   -1.1072 Si  0  0  0  0  0  0  0  0  0  0  0  0
   -1.5054    3.1921   -2.5535 C   0  0  0  0  0  0  0  0  0  0  0  0
   -2.4865    2.7517   -2.2936 H   0  0  0  0  0  0  0  0  0  0  0  0
   -1.1039    2.6294   -3.4201 H   0  0  0  0  0  0  0  0  0  0  0  0
   -1.6733    4.2430   -2.8688 H   0  0  0  0  0  0  0  0  0  0  0  0
   -1.0281    4.1103    0.3562 C   0  0  0  0  0  0  0  0  0  0  0  0
   -1.1713    5.1729    0.0686 H   0  0  0  0  0  0  0  0  0  0  0  0
   -0.3566    4.0891    1.2384 H   0  0  0  0  0  0  0  0  0  0  0  0
   -2.0188    3.7107    0.6485 H   0  0  0  0  0  0  0  0  0  0  0  0
    1.2921    4.0318   -1.6762 C   0  0  0  0  0  0  0  0  0  0  0  0
    1.0103    5.0024   -2.1360 H   0  0  0  0  0  0  0  0  0  0  0  0
    1.8253    3.4344   -2.4431 H   0  0  0  0  0  0  0  0  0  0  0  0
    2.0009    4.2325   -0.8502 H   0  0  0  0  0  0  0  0  0  0  0  0
    2.4261    1.6011    0.1262 C   0  0  0  0  0  0  0  0  0  0  0  0
    2.3329    2.4495    1.2505 C   0  0  0  0  0  0  0  0  0  0  0  0
    1.3873    2.4836    1.8127 H   0  0  0  0  0  0  0  0  0  0  0  0
    3.4224    3.2367    1.6513 C   0  0  0  0  0  0  0  0  0  0  0  0
    3.3308    3.8915    2.5314 H   0  0  0  0  0  0  0  0  0  0  0  0
    4.6250    3.1894    0.9292 C   0  0  0  0  0  0  0  0  0  0  0  0
    5.4807    3.8088    1.2380 H   0  0  0  0  0  0  0  0  0  0  0  0
    4.7323    2.3435   -0.1872 C   0  0  0  0  0  0  0  0  0  0  0  0
    5.6722    2.3021   -0.7583 H   0  0  0  0  0  0  0  0  0  0  0  0
    3.6472    1.5490   -0.5799 C   0  0  0  0  0  0  0  0  0  0  0  0
    3.7372    0.8891   -1.4546 H   0  0  0  0  0  0  0  0  0  0  0  0
    2.6659   -1.3386    0.0729 C   0  0  0  0  0  0  0  0  0  0  0  0
    3.1897   -1.2838    1.3820 C   0  0  0  0  0  0  0  0  0  0  0  0
    2.6256   -0.7581    2.1674 H   0  0  0  0  0  0  0  0  0  0  0  0
    4.4116   -1.8970    1.6889 C   0  0  0  0  0  0  0  0  0  0  0  0
    4.8001   -1.8550    2.7179 H   0  0  0  0  0  0  0  0  0  0  0  0
    5.1404   -2.5608    0.6880 C   0  0  0  0  0  0  0  0  0  0  0  0
    6.1010   -3.0404    0.9294 H   0  0  0  0  0  0  0  0  0  0  0  0
    4.6409   -2.6007   -0.6230 C   0  0  0  0  0  0  0  0  0  0  0  0
    5.2110   -3.1082   -1.4162 H   0  0  0  0  0  0  0  0  0  0  0  0
    3.4139   -1.9924   -0.9279 C   0  0  0  0  0  0  0  0  0  0  0  0
    3.0249   -2.0123   -1.9565 H   0  0  0  0  0  0  0  0  0  0  0  0
  1  2  1  6  0  0  0
  1  3  1  0  0  0  0
  1  7  1  0  0  0  0
  3  4  2  0  0  0  0
  4  5  1  0  0  0  0
  4 33  1  0  0  0  0
  5 44  1  0  0  0  0
  6  8  1  0  0  0  0
  6  7  1  0  0  0  0
  6 16  1  0  0  0  0
  7  5  2  0  0  0  0
  8 10  1  0  0  0  0
  9  8  1  0  0  0  0
 11  8  1  0  0  0  0
 12  6  1  0  0  0  0
 13 12  1  0  0  0  0
 14 12  1  0  0  0  0
 15 12  1  0  0  0  0
 16 18  1  0  0  0  0
 17 16  1  0  0  0  0
 19 16  1  0  0  0  0
 20  3  1  0  0  0  0
 20 25  1  0  0  0  0
 21 22  1  0  0  0  0
 21 20  1  0  0  0  0
 23 21  1  0  0  0  0
 24 21  1  0  0  0  0
 25 28  1  0  0  0  0
 25 27  1  0  0  0  0
 26 25  1  0  0  0  0
 29 20  1  0  0  0  0
 29 32  1  0  0  0  0
 30 29  1  0  0  0  0
 31 29  1  0  0  0  0
 33 34  1  0  0  0  0
 34 36  2  0  0  0  0
 34 35  1  0  0  0  0
 36 37  1  0  0  0  0
 38 39  1  0  0  0  0
 38 36  1  0  0  0  0
 40 38  2  0  0  0  0
 41 40  1  0  0  0  0
 42 40  1  0  0  0  0
 42 33  2  0  0  0  0
 43 42  1  0  0  0  0
 44 45  1  0  0  0  0
 45 47  2  0  0  0  0
 45 46  1  0  0  0  0
 47 48  1  0  0  0  0
 49 50  1  0  0  0  0
 49 47  1  0  0  0  0
 51 49  2  0  0  0  0
 52 51  1  0  0  0  0
 53 51  1  0  0  0  0
 53 44  2  0  0  0  0
 54 53  1  0  0  0  0
M  END
