1
q = 0, confidence = 1.0

 35 36  0  0  0  0  0  0  0  0999 V2000
   -2.4810    0.0000   -0.0000 Si  0  0  2  0  0  3  0  0  0  0  0  0
   -3.7029    1.2738   -0.1165 N   0  0  0  0  0  0  0  0  0  0  0  0
   -3.7029   -1.2737    0.1166 N   0  0  0  0  0  0  0  0  0  0  0  0
   -5.0319    0.7344    0.1969 C   0  0  0  0  0  0  0  0  0  0  0  0
   -5.8306    1.2632   -0.3581 H   0  0  0  0  0  0  0  0  0  0  0  0
   -5.2611    0.8404    1.2860 H   0  0  0  0  0  0  0  0  0  0  0  0
   -5.0319   -0.7342   -0.1966 C   0  0  0  0  0  0  0  0  0  0  0  0
   -5.8306   -1.2630    0.3586 H   0  0  0  0  0  0  0  0  0  0  0  0
   -5.2614   -0.8402   -1.2856 H   0  0  0  0  0  0  0  0  0  0  0  0
   -3.5576    2.7560   -0.0209 C   0  0  0  0  0  0  0  0  0  0  0  0
   -2.3145    3.2186   -0.7919 C   0  0  0  0  0  0  0  0  0  0  0  0
   -1.3882    2.7964   -0.3688 H   0  0  0  0  0  0  0  0  0  0  0  0
   -2.2330    4.3224   -0.7456 H   0  0  0  0  0  0  0  0  0  0  0  0
   -2.3742    2.9150   -1.8553 H   0  0  0  0  0  0  0  0  0  0  0  0
   -3.4537    3.1814    1.4592 C   0  0  0  0  0  0  0  0  0  0  0  0
   -2.5473    2.7543    1.9293 H   0  0  0  0  0  0  0  0  0  0  0  0
   -4.3385    2.8433    2.0359 H   0  0  0  0  0  0  0  0  0  0  0  0
   -3.3974    4.2852    1.5505 H   0  0  0  0  0  0  0  0  0  0  0  0
   -4.7745    3.4537   -0.6670 C   0  0  0  0  0  0  0  0  0  0  0  0
   -4.9444    3.0763   -1.6958 H   0  0  0  0  0  0  0  0  0  0  0  0
   -4.5783    4.5418   -0.7306 H   0  0  0  0  0  0  0  0  0  0  0  0
   -5.7068    3.3258   -0.0830 H   0  0  0  0  0  0  0  0  0  0  0  0
   -3.5578   -2.7559    0.0208 C   0  0  0  0  0  0  0  0  0  0  0  0
   -2.3147   -3.2186    0.7919 C   0  0  0  0  0  0  0  0  0  0  0  0
   -1.3883   -2.7963    0.3689 H   0  0  0  0  0  0  0  0  0  0  0  0
   -2.2332   -4.3224    0.7454 H   0  0  0  0  0  0  0  0  0  0  0  0
   -2.3744   -2.9151    1.8553 H   0  0  0  0  0  0  0  0  0  0  0  0
   -3.4537   -3.1811   -1.4593 C   0  0  0  0  0  0  0  0  0  0  0  0
   -2.5473   -2.7541   -1.9293 H   0  0  0  0  0  0  0  0  0  0  0  0
   -4.3385   -2.8429   -2.0359 H   0  0  0  0  0  0  0  0  0  0  0  0
   -3.3976   -4.2849   -1.5506 H   0  0  0  0  0  0  0  0  0  0  0  0
   -4.7747   -3.4536    0.6669 C   0  0  0  0  0  0  0  0  0  0  0  0
   -4.9446   -3.0764    1.6957 H   0  0  0  0  0  0  0  0  0  0  0  0
   -4.5785   -4.5417    0.7304 H   0  0  0  0  0  0  0  0  0  0  0  0
   -5.7069   -3.3257    0.0828 H   0  0  0  0  0  0  0  0  0  0  0  0
  1  2  1  6  0  0  0
  1  3  1  0  0  0  0
  1  4  1  0  0  0  0
  2 10  1  0  0  0  0
  2  4  1  0  0  0  0
  4  6  1  0  0  0  0
  5  4  1  0  0  0  0
  7  3  1  0  0  0  0
  7  4  1  0  0  0  0
  7  8  1  0  0  0  0
  9  7  1  0  0  0  0
 10 15  1  0  0  0  0
 11 13  1  0  0  0  0
 11 12  1  0  0  0  0
 11 10  1  0  0  0  0
 14 11  1  0  0  0  0
 15 18  1  0  0  0  0
 15 16  1  0  0  0  0
 15 17  1  0  0  0  0
 19 22  1  0  0  0  0
 19 10  1  0  0  0  0
 20 19  1  0  0  0  0
 21 19  1  0  0  0  0
 23  3  1  0  0  0  0
 23 32  1  0  0  0  0
 23 24  1  0  0  0  0
 24 27  1  0  0  0  0
 25 24  1  0  0  0  0
 26 24  1  0  0  0  0
 28 23  1  0  0  0  0
 29 28  1  0  0  0  0
 30 28  1  0  0  0  0
 31 28  1  0  0  0  0
 32 34  1  0  0  0  0
 32 33  1  0  0  0  0
 35 32  1  0  0  0  0
M  ZBO  1   3   0
M  END
