1
q = 0.0, confidence = 0.98

 35 36  0  0  0  0  0  0  0  0999 V2000
    2.4808   -0.0000    0.0000 Si  0  0  1  0  0  3  0  0  0  0  0  0
    3.7027   -1.2737    0.1179 N   0  0  0  0  0  0  0  0  0  0  0  0
    5.0317   -0.7345   -0.1959 C   0  0  0  0  0  0  0  0  0  0  0  0
    5.8304   -1.2628    0.3596 H   0  0  0  0  0  0  0  0  0  0  0  0
    5.2610   -0.8414   -1.2849 H   0  0  0  0  0  0  0  0  0  0  0  0
    5.0317    0.7345    0.1963 C   0  0  0  0  0  0  0  0  0  0  0  0
    3.7027    1.2737   -0.1177 N   0  0  0  0  0  0  0  0  0  0  0  0
    3.5579    2.7560   -0.0243 C   0  0  0  0  0  0  0  0  0  0  0  0
    2.3142    3.2177   -0.7950 C   0  0  0  0  0  0  0  0  0  0  0  0
    1.3881    2.7963   -0.3705 H   0  0  0  0  0  0  0  0  0  0  0  0
    2.2330    4.3216   -0.7502 H   0  0  0  0  0  0  0  0  0  0  0  0
    2.3729    2.9125   -1.8579 H   0  0  0  0  0  0  0  0  0  0  0  0
    3.4553    3.1838    1.4552 C   0  0  0  0  0  0  0  0  0  0  0  0
    2.5492    2.7578    1.9267 H   0  0  0  0  0  0  0  0  0  0  0  0
    4.3405    2.8464    2.0317 H   0  0  0  0  0  0  0  0  0  0  0  0
    3.3994    4.2877    1.5446 H   0  0  0  0  0  0  0  0  0  0  0  0
    4.7744    3.4524   -0.6727 C   0  0  0  0  0  0  0  0  0  0  0  0
    4.9433    3.0731   -1.7010 H   0  0  0  0  0  0  0  0  0  0  0  0
    4.5782    4.5403   -0.7380 H   0  0  0  0  0  0  0  0  0  0  0  0
    5.7071    3.3254   -0.0892 H   0  0  0  0  0  0  0  0  0  0  0  0
    5.8305    1.2628   -0.3590 H   0  0  0  0  0  0  0  0  0  0  0  0
    5.2608    0.8413    1.2854 H   0  0  0  0  0  0  0  0  0  0  0  0
    3.5578   -2.7560    0.0243 C   0  0  0  0  0  0  0  0  0  0  0  0
    2.3141   -3.2178    0.7949 C   0  0  0  0  0  0  0  0  0  0  0  0
    1.3881   -2.7963    0.3705 H   0  0  0  0  0  0  0  0  0  0  0  0
    2.2329   -4.3217    0.7500 H   0  0  0  0  0  0  0  0  0  0  0  0
    2.3728   -2.9127    1.8579 H   0  0  0  0  0  0  0  0  0  0  0  0
    3.4552   -3.1835   -1.4552 C   0  0  0  0  0  0  0  0  0  0  0  0
    2.5491   -2.7574   -1.9267 H   0  0  0  0  0  0  0  0  0  0  0  0
    4.3404   -2.8461   -2.0317 H   0  0  0  0  0  0  0  0  0  0  0  0
    3.3993   -4.2875   -1.5449 H   0  0  0  0  0  0  0  0  0  0  0  0
    4.7743   -3.4525    0.6726 C   0  0  0  0  0  0  0  0  0  0  0  0
    4.9433   -3.0735    1.7009 H   0  0  0  0  0  0  0  0  0  0  0  0
    4.5781   -4.5405    0.7377 H   0  0  0  0  0  0  0  0  0  0  0  0
    5.7070   -3.3255    0.0891 H   0  0  0  0  0  0  0  0  0  0  0  0
  1  7  1  6  0  0  0
  1  2  1  0  0  0  0
  1  6  1  0  0  0  0
  3  2  1  0  0  0  0
  3  6  1  0  0  0  0
  3  4  1  0  0  0  0
  5  3  1  0  0  0  0
  6 22  1  0  0  0  0
  7  8  1  0  0  0  0
  7  6  1  0  0  0  0
  8 13  1  0  0  0  0
  9 11  1  0  0  0  0
  9 10  1  0  0  0  0
  9  8  1  0  0  0  0
 12  9  1  0  0  0  0
 13 16  1  0  0  0  0
 13 14  1  0  0  0  0
 13 15  1  0  0  0  0
 17 20  1  0  0  0  0
 17  8  1  0  0  0  0
 18 17  1  0  0  0  0
 19 17  1  0  0  0  0
 21  6  1  0  0  0  0
 23  2  1  0  0  0  0
 23 32  1  0  0  0  0
 23 24  1  0  0  0  0
 24 27  1  0  0  0  0
 25 24  1  0  0  0  0
 26 24  1  0  0  0  0
 28 23  1  0  0  0  0
 29 28  1  0  0  0  0
 30 28  1  0  0  0  0
 31 28  1  0  0  0  0
 32 34  1  0  0  0  0
 32 33  1  0  0  0  0
 35 32  1  0  0  0  0
M  ZBO  1   3   0
M  END
