1
q = 0.0, confidence = 0.986

 30 30  0  0  1  0  0  0  0  0999 V2000
    0.4612   -0.0650    1.3676 Si  0  0  0  0  0  3  0  0  0  0  0  0
   -2.1321   -1.0726    0.2661 N   0  0  0  0  0  0  0  0  0  0  0  0
   -2.0599    1.0926    0.3110 N   0  0  0  0  0  0  0  0  0  0  0  0
   -3.2377    0.7540   -0.3525 C   0  0  0  0  0  0  0  0  0  0  0  0
   -1.3746   -0.0221    0.6935 C   0  0  2  0  0  3  0  0  0  0  0  0
    0.5533   -1.5884    2.5148 C   0  0  0  0  0  0  0  0  0  0  0  0
    1.5055   -1.4856    3.0766 H   0  0  0  0  0  0  0  0  0  0  0  0
    0.5976   -2.5614    1.9932 H   0  0  0  0  0  0  0  0  0  0  0  0
   -0.2708   -1.6020    3.2586 H   0  0  0  0  0  0  0  0  0  0  0  0
    0.5347    1.3585    2.6447 C   0  0  0  0  0  0  0  0  0  0  0  0
   -0.3565    1.3695    3.3062 H   0  0  0  0  0  0  0  0  0  0  0  0
    0.6772    2.3640    2.2076 H   0  0  0  0  0  0  0  0  0  0  0  0
    1.4231    1.1641    3.2801 H   0  0  0  0  0  0  0  0  0  0  0  0
   -4.3090   -1.5378   -0.9649 C   0  0  0  0  0  0  0  0  0  0  0  0
   -5.1459   -0.9478   -1.3815 H   0  0  0  0  0  0  0  0  0  0  0  0
   -4.7342   -2.2323   -0.2108 H   0  0  0  0  0  0  0  0  0  0  0  0
   -3.8948   -2.1509   -1.7928 H   0  0  0  0  0  0  0  0  0  0  0  0
   -3.2870   -0.6258   -0.3787 C   0  0  0  0  0  0  0  0  0  0  0  0
   -1.7583   -2.4758    0.4041 C   0  0  0  0  0  0  0  0  0  0  0  0
   -0.7229   -2.6312    0.0515 H   0  0  0  0  0  0  0  0  0  0  0  0
   -2.4354   -3.0905   -0.2124 H   0  0  0  0  0  0  0  0  0  0  0  0
   -1.8353   -2.8023    1.4583 H   0  0  0  0  0  0  0  0  0  0  0  0
   -1.5844    2.4586    0.4827 C   0  0  0  0  0  0  0  0  0  0  0  0
   -1.8528    2.8513    1.4826 H   0  0  0  0  0  0  0  0  0  0  0  0
   -2.0295    3.0975   -0.2988 H   0  0  0  0  0  0  0  0  0  0  0  0
   -0.4877    2.4799    0.3599 H   0  0  0  0  0  0  0  0  0  0  0  0
   -4.1697    1.7648   -0.9241 C   0  0  0  0  0  0  0  0  0  0  0  0
   -5.0634    1.2668   -1.3425 H   0  0  0  0  0  0  0  0  0  0  0  0
   -3.6913    2.3356   -1.7480 H   0  0  0  0  0  0  0  0  0  0  0  0
   -4.5165    2.4941   -0.1633 H   0  0  0  0  0  0  0  0  0  0  0  0
  1  6  1  0  0  0  0
  1 10  1  0  0  0  0
  2 19  1  0  0  0  0
  2  5  1  0  0  0  0
  3 23  1  0  0  0  0
  3  5  1  0  0  0  0
  4  3  1  0  0  0  0
  5  1  1  6  0  0  0
  6  7  1  0  0  0  0
  6  9  1  0  0  0  0
  8  6  1  0  0  0  0
 10 13  1  0  0  0  0
 10 11  1  0  0  0  0
 12 10  1  0  0  0  0
 14 18  1  0  0  0  0
 14 16  1  0  0  0  0
 15 14  1  0  0  0  0
 17 14  1  0  0  0  0
 18  4  2  0  0  0  0
 18  2  1  0  0  0  0
 19 22  1  0  0  0  0
 20 19  1  0  0  0  0
 21 19  1  0  0  0  0
 23 24  1  0  0  0  0
 25 23  1  0  0  0  0
 26 23  1  0  0  0  0
 27  4  1  0  0  0  0
 27 30  1  0  0  0  0
 28 27  1  0  0  0  0
 29 27  1  0  0  0  0
M  END
