1
q = -1.0

 32 33  0  0  0  0  0  0  0  0999 V2000
   -0.5224    0.2788   -0.9852 Si  0  0  0  0  0  3  0  0  0  0  0  0
   -6.5698   -0.0776   -0.0174 O   0  0  0  0  0  0  0  0  0  0  0  0
    0.8111    6.2382   -0.4498 O   0  0  0  0  0  0  0  0  0  0  0  0
   -2.4096    0.1250   -0.6864 C   0  0  0  0  0  0  0  0  0  0  0  0
   -3.0309   -1.1152   -0.4345 C   0  0  0  0  0  0  0  0  0  0  0  0
   -4.4132   -1.2366   -0.2109 C   0  0  0  0  0  0  0  0  0  0  0  0
   -5.2230   -0.0827   -0.2302 C   0  0  0  0  0  0  0  0  0  0  0  0
   -4.6265    1.1723   -0.4780 C   0  0  0  0  0  0  0  0  0  0  0  0
   -3.2503    1.2657   -0.7026 C   0  0  0  0  0  0  0  0  0  0  0  0
   -7.2108   -1.3104    0.2395 C   0  0  0  0  0  0  0  0  0  0  0  0
   -0.1095    2.1316   -0.7474 C   0  0  0  0  0  0  0  0  0  0  0  0
   -0.3232    3.0504   -1.8051 C   0  0  0  0  0  0  0  0  0  0  0  0
   -0.0110    4.4076   -1.6827 C   0  0  0  0  0  0  0  0  0  0  0  0
    0.5358    4.9045   -0.4795 C   0  0  0  0  0  0  0  0  0  0  0  0
    0.7657    4.0149    0.5903 C   0  0  0  0  0  0  0  0  0  0  0  0
    0.4428    2.6556    0.4375 C   0  0  0  0  0  0  0  0  0  0  0  0
    1.3642    6.7821    0.7320 C   0  0  0  0  0  0  0  0  0  0  0  0
   -0.4058    0.1597   -2.5058 H   0  0  0  0  0  0  0  0  0  0  0  0
   -2.4097   -2.0243   -0.3824 H   0  0  0  0  0  0  0  0  0  0  0  0
   -4.8436   -2.2284   -0.0155 H   0  0  0  0  0  0  0  0  0  0  0  0
   -5.2722    2.0631   -0.4838 H   0  0  0  0  0  0  0  0  0  0  0  0
   -2.8128    2.2608   -0.8818 H   0  0  0  0  0  0  0  0  0  0  0  0
   -8.2845   -1.0842    0.3792 H   0  0  0  0  0  0  0  0  0  0  0  0
   -7.1002   -2.0235   -0.6088 H   0  0  0  0  0  0  0  0  0  0  0  0
   -6.8225   -1.7987    1.1622 H   0  0  0  0  0  0  0  0  0  0  0  0
   -0.7379    2.6879   -2.7600 H   0  0  0  0  0  0  0  0  0  0  0  0
   -0.1755    5.1145   -2.5095 H   0  0  0  0  0  0  0  0  0  0  0  0
    1.1995    4.3658    1.5368 H   0  0  0  0  0  0  0  0  0  0  0  0
    0.6651    1.9708    1.2701 H   0  0  0  0  0  0  0  0  0  0  0  0
    0.6880    6.6518    1.6071 H   0  0  0  0  0  0  0  0  0  0  0  0
    2.3510    6.3280    0.9778 H   0  0  0  0  0  0  0  0  0  0  0  0
    1.5042    7.8632    0.5453 H   0  0  0  0  0  0  0  0  0  0  0  0
  1 11  1  0  0  0  0
  1  4  1  0  0  0  0
  2 10  1  0  0  0  0
  3 17  1  0  0  0  0
  4  5  1  0  0  0  0
  5 19  1  0  0  0  0
  5  6  2  0  0  0  0
  6 20  1  0  0  0  0
  7  6  1  0  0  0  0
  7  2  1  0  0  0  0
  8  7  2  0  0  0  0
  9  4  2  0  0  0  0
  9  8  1  0  0  0  0
 10 23  1  0  0  0  0
 10 25  1  0  0  0  0
 11 16  1  0  0  0  0
 12 13  1  0  0  0  0
 12 11  2  0  0  0  0
 13 14  2  0  0  0  0
 14  3  1  0  0  0  0
 14 15  1  0  0  0  0
 15 28  1  0  0  0  0
 16 15  2  0  0  0  0
 16 29  1  0  0  0  0
 17 31  1  0  0  0  0
 17 30  1  0  0  0  0
 18  1  1  0  0  0  0
 21  8  1  0  0  0  0
 22  9  1  0  0  0  0
 24 10  1  0  0  0  0
 26 12  1  0  0  0  0
 27 13  1  0  0  0  0
 32 17  1  0  0  0  0
M  END
