2
q = -1.0

 24 25  0  0  0  0  0  0  0  0999 V2000
   -1.7043    0.1335    2.7417 Cl  0  0  0  0  0  0  0  0  0  0  0  0
   -1.3336    0.2351    0.5929 Si  0  0  0  0  0  3  0  0  0  0  0  0
   -2.3948    1.7600    0.1456 C   0  0  0  0  0  0  0  0  0  0  0  0
   -1.8537    2.9415   -0.4015 C   0  0  0  0  0  0  0  0  0  0  0  0
   -2.6684    4.0439   -0.7094 C   0  0  0  0  0  0  0  0  0  0  0  0
   -4.0502    3.9822   -0.4738 C   0  0  0  0  0  0  0  0  0  0  0  0
   -4.6097    2.8149    0.0734 C   0  0  0  0  0  0  0  0  0  0  0  0
   -3.7892    1.7195    0.3792 C   0  0  0  0  0  0  0  0  0  0  0  0
   -2.3790   -1.2388   -0.0353 C   0  0  0  0  0  0  0  0  0  0  0  0
   -2.8694   -1.2036   -1.3616 C   0  0  0  0  0  0  0  0  0  0  0  0
   -3.5267   -2.3076   -1.9277 C   0  0  0  0  0  0  0  0  0  0  0  0
   -3.7169   -3.4758   -1.1709 C   0  0  0  0  0  0  0  0  0  0  0  0
   -3.2619   -3.5209    0.1573 C   0  0  0  0  0  0  0  0  0  0  0  0
   -2.6032   -2.4132    0.7161 C   0  0  0  0  0  0  0  0  0  0  0  0
   -0.7695    2.9909   -0.5905 H   0  0  0  0  0  0  0  0  0  0  0  0
   -2.2221    4.9564   -1.1358 H   0  0  0  0  0  0  0  0  0  0  0  0
   -4.6929    4.8433   -0.7153 H   0  0  0  0  0  0  0  0  0  0  0  0
   -5.6933    2.7598    0.2624 H   0  0  0  0  0  0  0  0  0  0  0  0
   -4.2390    0.8115    0.8125 H   0  0  0  0  0  0  0  0  0  0  0  0
   -2.7460   -0.2839   -1.9585 H   0  0  0  0  0  0  0  0  0  0  0  0
   -3.9007   -2.2540   -2.9625 H   0  0  0  0  0  0  0  0  0  0  0  0
   -4.2320   -4.3437   -1.6110 H   0  0  0  0  0  0  0  0  0  0  0  0
   -3.4258   -4.4253    0.7643 H   0  0  0  0  0  0  0  0  0  0  0  0
   -2.2623   -2.4535    1.7626 H   0  0  0  0  0  0  0  0  0  0  0  0
  2  1  1  0  0  0  0
  3  8  1  0  0  0  0
  3  2  1  0  0  0  0
  4  3  2  0  0  0  0
  5  6  2  0  0  0  0
  5  4  1  0  0  0  0
  6  7  1  0  0  0  0
  7 18  1  0  0  0  0
  7  8  2  0  0  0  0
  8 19  1  0  0  0  0
  9  2  1  0  0  0  0
  9 14  1  0  0  0  0
 10  9  2  0  0  0  0
 11 10  1  0  0  0  0
 11 12  2  0  0  0  0
 12 13  1  0  0  0  0
 13 14  2  0  0  0  0
 13 23  1  0  0  0  0
 14 24  1  0  0  0  0
 15  4  1  0  0  0  0
 16  5  1  0  0  0  0
 17  6  1  0  0  0  0
 20 10  1  0  0  0  0
 21 11  1  0  0  0  0
 22 12  1  0  0  0  0
M  END
