1
q = -1

  4  3  0  0  0  0  0  0  0  0999 V2000
   -0.0306   -1.9470   -1.6422 Si  0  0  0  0  0  3  0  0  0  0  0  0
    1.1416   -1.9056   -2.5911 H   0  0  0  0  0  0  0  0  0  0  0  0
   -0.0322   -3.3344   -1.0341 H   0  0  0  0  0  0  0  0  0  0  0  0
   -1.2533   -1.8918   -2.5299 H   0  0  0  0  0  0  0  0  0  0  0  0
  1  3  1  0  0  0  0
  2  1  1  0  0  0  0
  4  1  1  0  0  0  0
M  END
