1
q = 0.0, confidence = 0.986

 68 69  0  0  1  0  0  0  0  0999 V2000
   -0.4171    0.2044    0.0195 Si  0  0  1  0  0  3  0  0  0  0  0  0
   -3.2535    1.1145    0.0557 Si  0  0  0  0  0  0  0  0  0  0  0  0
   -0.9862    3.2905   -0.0877 Si  0  0  0  0  0  0  0  0  0  0  0  0
   -1.4961    1.5759    0.0284 N   0  0  0  0  0  0  0  0  0  0  0  0
   -4.3887    2.6280    0.1691 C   0  0  0  0  0  0  0  0  0  0  0  0
   -4.3498    3.1077    1.1664 H   0  0  0  0  0  0  0  0  0  0  0  0
   -5.4227    2.2480    0.0288 H   0  0  0  0  0  0  0  0  0  0  0  0
   -4.2172    3.4028   -0.6023 H   0  0  0  0  0  0  0  0  0  0  0  0
    1.0957    0.4352   -1.0748 N   0  0  0  0  0  0  0  0  0  0  0  0
   -3.6310    0.0766    1.5866 C   0  0  0  0  0  0  0  0  0  0  0  0
   -3.3504    0.6273    2.5080 H   0  0  0  0  0  0  0  0  0  0  0  0
   -3.0902   -0.8918    1.5757 H   0  0  0  0  0  0  0  0  0  0  0  0
   -4.7183   -0.1410    1.6343 H   0  0  0  0  0  0  0  0  0  0  0  0
   -3.6801    0.1959   -1.5369 C   0  0  0  0  0  0  0  0  0  0  0  0
   -3.1315   -0.7666   -1.5992 H   0  0  0  0  0  0  0  0  0  0  0  0
   -3.4190    0.8067   -2.4254 H   0  0  0  0  0  0  0  0  0  0  0  0
   -4.7658   -0.0294   -1.5771 H   0  0  0  0  0  0  0  0  0  0  0  0
   -1.5701    4.0275   -1.7313 C   0  0  0  0  0  0  0  0  0  0  0  0
   -2.6625    3.9360   -1.8863 H   0  0  0  0  0  0  0  0  0  0  0  0
   -1.0682    3.5163   -2.5786 H   0  0  0  0  0  0  0  0  0  0  0  0
   -1.3087    5.1047   -1.7851 H   0  0  0  0  0  0  0  0  0  0  0  0
   -1.6408    4.2910    1.3798 C   0  0  0  0  0  0  0  0  0  0  0  0
   -1.3805    3.7911    2.3356 H   0  0  0  0  0  0  0  0  0  0  0  0
   -2.7362    4.4396    1.3598 H   0  0  0  0  0  0  0  0  0  0  0  0
   -1.1639    5.2932    1.3827 H   0  0  0  0  0  0  0  0  0  0  0  0
    0.8928    3.5142   -0.0498 C   0  0  0  0  0  0  0  0  0  0  0  0
    1.3921    3.0234   -0.9055 H   0  0  0  0  0  0  0  0  0  0  0  0
    1.3423    3.1347    0.8871 H   0  0  0  0  0  0  0  0  0  0  0  0
    1.0927    4.6042   -0.1112 H   0  0  0  0  0  0  0  0  0  0  0  0
    1.3461    0.1580   -2.5049 C   0  0  0  0  0  0  0  0  0  0  0  0
    0.0023    0.3940   -3.2161 C   0  0  0  0  0  0  0  0  0  0  0  0
   -0.3546    1.4309   -3.0598 H   0  0  0  0  0  0  0  0  0  0  0  0
   -0.7707   -0.3021   -2.8308 H   0  0  0  0  0  0  0  0  0  0  0  0
    0.1091    0.2184   -4.3038 H   0  0  0  0  0  0  0  0  0  0  0  0
    1.7736   -1.3090   -2.7067 C   0  0  0  0  0  0  0  0  0  0  0  0
    1.0395   -1.9902   -2.2296 H   0  0  0  0  0  0  0  0  0  0  0  0
    2.7734   -1.5022   -2.2730 H   0  0  0  0  0  0  0  0  0  0  0  0
    1.8226   -1.5465   -3.7883 H   0  0  0  0  0  0  0  0  0  0  0  0
    2.4076    1.1175   -3.0713 C   0  0  0  0  0  0  0  0  0  0  0  0
    3.3955    0.9639   -2.5971 H   0  0  0  0  0  0  0  0  0  0  0  0
    2.1062    2.1741   -2.9241 H   0  0  0  0  0  0  0  0  0  0  0  0
    2.5239    0.9433   -4.1593 H   0  0  0  0  0  0  0  0  0  0  0  0
    1.9007    0.3711    0.0056 C   0  0  2  0  0  3  0  0  0  0  0  0
    3.3767    0.1856    0.0044 C   0  0  0  0  0  0  0  0  0  0  0  0
    4.2249    1.3095   -0.0576 C   0  0  0  0  0  0  0  0  0  0  0  0
    3.7857    2.3168   -0.1070 H   0  0  0  0  0  0  0  0  0  0  0  0
    5.6164    1.1376   -0.0496 C   0  0  0  0  0  0  0  0  0  0  0  0
    6.2747    2.0179   -0.0963 H   0  0  0  0  0  0  0  0  0  0  0  0
    6.1674   -0.1523    0.0185 C   0  0  0  0  0  0  0  0  0  0  0  0
    7.2597   -0.2848    0.0244 H   0  0  0  0  0  0  0  0  0  0  0  0
    5.3238   -1.2730    0.0785 C   0  0  0  0  0  0  0  0  0  0  0  0
    5.7516   -2.2853    0.1303 H   0  0  0  0  0  0  0  0  0  0  0  0
    3.9309   -1.1085    0.0724 C   0  0  0  0  0  0  0  0  0  0  0  0
    3.2655   -1.9834    0.1163 H   0  0  0  0  0  0  0  0  0  0  0  0
    1.1058    0.4595    1.0889 N   0  0  0  0  0  0  0  0  0  0  0  0
    1.3644    0.2818    2.5311 C   0  0  0  0  0  0  0  0  0  0  0  0
    0.0573    0.6799    3.2394 C   0  0  0  0  0  0  0  0  0  0  0  0
   -0.7793    0.0305    2.9097 H   0  0  0  0  0  0  0  0  0  0  0  0
   -0.2124    1.7314    3.0182 H   0  0  0  0  0  0  0  0  0  0  0  0
    0.1663    0.5659    4.3353 H   0  0  0  0  0  0  0  0  0  0  0  0
    2.5103    1.1903    3.0091 C   0  0  0  0  0  0  0  0  0  0  0  0
    2.3046    2.2520    2.7651 H   0  0  0  0  0  0  0  0  0  0  0  0
    3.4790    0.9078    2.5559 H   0  0  0  0  0  0  0  0  0  0  0  0
    2.6141    1.1059    4.1089 H   0  0  0  0  0  0  0  0  0  0  0  0
    1.6784   -1.1961    2.8380 C   0  0  0  0  0  0  0  0  0  0  0  0
    2.6431   -1.5018    2.3894 H   0  0  0  0  0  0  0  0  0  0  0  0
    0.8783   -1.8507    2.4366 H   0  0  0  0  0  0  0  0  0  0  0  0
    1.7483   -1.3536    3.9330 H   0  0  0  0  0  0  0  0  0  0  0  0
  1  4  1  6  0  0  0
  1 55  1  0  0  0  0
  2  5  1  0  0  0  0
  2 10  1  0  0  0  0
  3 26  1  0  0  0  0
  3  4  1  0  0  0  0
  3 22  1  0  0  0  0
  4  2  1  0  0  0  0
  5  6  1  0  0  0  0
  7  5  1  0  0  0  0
  8  5  1  0  0  0  0
  9 43  1  0  0  0  0
  9  1  1  0  0  0  0
 10 13  1  0  0  0  0
 10 11  1  0  0  0  0
 12 10  1  0  0  0  0
 14  2  1  0  0  0  0
 15 14  1  0  0  0  0
 16 14  1  0  0  0  0
 17 14  1  0  0  0  0
 18  3  1  0  0  0  0
 19 18  1  0  0  0  0
 20 18  1  0  0  0  0
 21 18  1  0  0  0  0
 22 25  1  0  0  0  0
 22 23  1  0  0  0  0
 24 22  1  0  0  0  0
 26 28  1  0  0  0  0
 27 26  1  0  0  0  0
 29 26  1  0  0  0  0
 30  9  1  0  0  0  0
 31 32  1  0  0  0  0
 31 33  1  0  0  0  0
 31 30  1  0  0  0  0
 34 31  1  0  0  0  0
 35 30  1  0  0  0  0
 35 37  1  0  0  0  0
 35 36  1  0  0  0  0
 38 35  1  0  0  0  0
 39 41  1  0  0  0  0
 39 40  1  0  0  0  0
 39 30  1  0  0  0  0
 42 39  1  0  0  0  0
 43 44  1  1  0  0  0
 43 55  1  0  0  0  0
 44 53  1  0  0  0  0
 45 47  1  0  0  0  0
 45 44  2  0  0  0  0
 46 45  1  0  0  0  0
 47 49  2  0  0  0  0
 48 47  1  0  0  0  0
 49 50  1  0  0  0  0
 49 51  1  0  0  0  0
 51 52  1  0  0  0  0
 53 51  2  0  0  0  0
 53 54  1  0  0  0  0
 55 56  1  0  0  0  0
 56 65  1  0  0  0  0
 56 61  1  0  0  0  0
 56 57  1  0  0  0  0
 57 60  1  0  0  0  0
 58 57  1  0  0  0  0
 59 57  1  0  0  0  0
 61 64  1  0  0  0  0
 62 61  1  0  0  0  0
 63 61  1  0  0  0  0
 65 68  1  0  0  0  0
 66 65  1  0  0  0  0
 67 65  1  0  0  0  0
M  END
