1
q = -1.0

 17 17  0  0  0  0  0  0  0  0999 V2000
    0.5659   -0.0715   -0.2774 Si  0  0  0  0  0  3  0  0  0  0  0  0
   -2.0960    1.6761   -0.2499 Si  0  0  0  0  0  0  0  0  0  0  0  0
   -2.3058   -1.4104    0.0266 Si  0  0  0  0  0  0  0  0  0  0  0  0
   -0.2241    1.6702   -0.3558 C   0  0  0  0  0  0  0  0  0  0  0  0
   -2.8754    0.1135   -0.9223 C   0  0  0  0  0  0  0  0  0  0  0  0
   -0.5830   -1.1963    0.7391 C   0  0  0  0  0  0  0  0  0  0  0  0
    0.3760   -0.7771   -2.2876 Cl  0  0  0  0  0  0  0  0  0  0  0  0
   -2.8683    3.3384   -1.2467 Cl  0  0  0  0  0  0  0  0  0  0  0  0
   -2.6013    1.8434    1.7703 Cl  0  0  0  0  0  0  0  0  0  0  0  0
   -2.3445   -3.0698   -1.2296 Cl  0  0  0  0  0  0  0  0  0  0  0  0
   -3.6595   -1.7809    1.5677 Cl  0  0  0  0  0  0  0  0  0  0  0  0
    0.0834    2.1554   -1.3049 H   0  0  0  0  0  0  0  0  0  0  0  0
    0.1597    2.2924    0.4797 H   0  0  0  0  0  0  0  0  0  0  0  0
   -3.9813    0.1854   -0.9074 H   0  0  0  0  0  0  0  0  0  0  0  0
   -2.5402    0.0019   -1.9760 H   0  0  0  0  0  0  0  0  0  0  0  0
   -0.6867   -0.7341    1.7459 H   0  0  0  0  0  0  0  0  0  0  0  0
   -0.1274   -2.1983    0.8738 H   0  0  0  0  0  0  0  0  0  0  0  0
  1  6  1  0  0  0  0
  2  9  1  0  0  0  0
  3  6  1  0  0  0  0
  3 11  1  0  0  0  0
  4  1  1  0  0  0  0
  4  2  1  0  0  0  0
  4 13  1  0  0  0  0
  5 14  1  0  0  0  0
  5  2  1  0  0  0  0
  5  3  1  0  0  0  0
  6 17  1  0  0  0  0
  6 16  1  0  0  0  0
  7  1  1  0  0  0  0
  8  2  1  0  0  0  0
 10  3  1  0  0  0  0
 12  4  1  0  0  0  0
 15  5  1  0  0  0  0
M  END
