1
q = nan, confidence = 0.0

 31 30  0  0  0  0  0  0  0  0999 V2000
    1.2643    0.0001    0.5704 Si  0  0  0  0  0  3  0  0  0  0  0  0
    2.2720   -1.9583   -0.3102 Si  0  0  0  0  0  0  0  0  0  0  0  0
    2.2711    1.9590   -0.3101 Si  0  0  0  0  0  0  0  0  0  0  0  0
    1.7712   -0.0001    2.4259 C   0  0  0  0  0  0  0  0  0  0  0  0
    4.0904   -2.0064    0.2545 C   0  0  0  0  0  0  0  0  0  0  0  0
    2.2621   -2.0581   -2.2141 C   0  0  0  0  0  0  0  0  0  0  0  0
    1.4128   -3.5174    0.3599 C   0  0  0  0  0  0  0  0  0  0  0  0
    2.2632    2.0571   -2.2141 C   0  0  0  0  0  0  0  0  0  0  0  0
    4.0887    2.0096    0.2568 C   0  0  0  0  0  0  0  0  0  0  0  0
    1.4094    3.5178    0.3578 C   0  0  0  0  0  0  0  0  0  0  0  0
    1.3833    0.8965    2.9510 H   0  0  0  0  0  0  0  0  0  0  0  0
    1.3835   -0.8969    2.9508 H   0  0  0  0  0  0  0  0  0  0  0  0
    2.8769    0.0001    2.5182 H   0  0  0  0  0  0  0  0  0  0  0  0
    4.5787   -2.9403   -0.0966 H   0  0  0  0  0  0  0  0  0  0  0  0
    4.6660   -1.1486   -0.1483 H   0  0  0  0  0  0  0  0  0  0  0  0
    4.1678   -1.9767    1.3603 H   0  0  0  0  0  0  0  0  0  0  0  0
    2.8489   -2.9426   -2.5413 H   0  0  0  0  0  0  0  0  0  0  0  0
    1.2397   -2.1688   -2.6279 H   0  0  0  0  0  0  0  0  0  0  0  0
    2.7236   -1.1618   -2.6764 H   0  0  0  0  0  0  0  0  0  0  0  0
    1.9595   -4.4267    0.0317 H   0  0  0  0  0  0  0  0  0  0  0  0
    1.3777   -3.5167    1.4678 H   0  0  0  0  0  0  0  0  0  0  0  0
    0.3675   -3.5975   -0.0008 H   0  0  0  0  0  0  0  0  0  0  0  0
    2.8490    2.9420   -2.5416 H   0  0  0  0  0  0  0  0  0  0  0  0
    2.7264    1.1609   -2.6750 H   0  0  0  0  0  0  0  0  0  0  0  0
    1.2410    2.1659   -2.6291 H   0  0  0  0  0  0  0  0  0  0  0  0
    4.5766    2.9433   -0.0950 H   0  0  0  0  0  0  0  0  0  0  0  0
    4.1645    1.9817    1.3628 H   0  0  0  0  0  0  0  0  0  0  0  0
    4.6656    1.1515   -0.1437 H   0  0  0  0  0  0  0  0  0  0  0  0
    1.9554    4.4274    0.0294 H   0  0  0  0  0  0  0  0  0  0  0  0
    0.3644    3.5963   -0.0041 H   0  0  0  0  0  0  0  0  0  0  0  0
    1.3731    3.5179    1.4657 H   0  0  0  0  0  0  0  0  0  0  0  0
  1  4  1  0  0  0  0
  2  5  1  0  0  0  0
  2  7  1  0  0  0  0
  2  1  1  0  0  0  0
  3  9  1  0  0  0  0
  3 10  1  0  0  0  0
  3  1  1  0  0  0  0
  4 13  1  0  0  0  0
  4 12  1  0  0  0  0
  4 11  1  0  0  0  0
  5 16  1  0  0  0  0
  6  2  1  0  0  0  0
  7 21  1  0  0  0  0
  8  3  1  0  0  0  0
  9 27  1  0  0  0  0
 10 31  1  0  0  0  0
 14  5  1  0  0  0  0
 15  5  1  0  0  0  0
 17  6  1  0  0  0  0
 18  6  1  0  0  0  0
 19  6  1  0  0  0  0
 20  7  1  0  0  0  0
 22  7  1  0  0  0  0
 23  8  1  0  0  0  0
 24  8  1  0  0  0  0
 25  8  1  0  0  0  0
 26  9  1  0  0  0  0
 28  9  1  0  0  0  0
 29 10  1  0  0  0  0
 30 10  1  0  0  0  0
M  END
