1
q = -1

 10  9  0  0  0  0  0  0  0  0999 V2000
    1.1188    2.3727   -1.0457 Si  0  0  0  0  0  3  0  0  0  0  0  0
    0.0575    3.7491   -1.8647 C   0  0  0  0  0  0  0  0  0  0  0  0
    0.6965    4.4207   -2.4763 H   0  0  0  0  0  0  0  0  0  0  0  0
   -0.4960    4.3660   -1.1299 H   0  0  0  0  0  0  0  0  0  0  0  0
   -0.6964    3.2905   -2.5397 H   0  0  0  0  0  0  0  0  0  0  0  0
    2.1345    1.7201   -2.5523 C   0  0  0  0  0  0  0  0  0  0  0  0
    2.6481    2.5549   -3.0751 H   0  0  0  0  0  0  0  0  0  0  0  0
    1.4558    1.2362   -3.2868 H   0  0  0  0  0  0  0  0  0  0  0  0
    2.8984    0.9704   -2.2598 H   0  0  0  0  0  0  0  0  0  0  0  0
    2.1621    3.1112   -0.2129 H   0  0  0  0  0  0  0  0  0  0  0  0
  1 10  1  0  0  0  0
  2  4  1  0  0  0  0
  2  1  1  0  0  0  0
  3  2  1  0  0  0  0
  5  2  1  0  0  0  0
  6  9  1  0  0  0  0
  6  1  1  0  0  0  0
  7  6  1  0  0  0  0
  8  6  1  0  0  0  0
M  END
