1
q = -1.0

 36 38  0  0  0  0  0  0  0  0999 V2000
    0.6935    0.1235   -0.4537 Si  0  0  0  0  0  3  0  0  0  0  0  0
   -0.4191   -0.8122   -1.3254 O   0  0  0  0  0  0  0  0  0  0  0  0
    1.4989   -0.9852    0.6162 O   0  0  0  0  0  0  0  0  0  0  0  0
    2.0400    0.2551   -1.5276 O   0  0  0  0  0  0  0  0  0  0  0  0
   -1.5765   -2.5018    1.3828 N   0  0  0  0  0  0  0  0  0  0  0  0
   -1.7761   -0.8029   -1.4336 C   0  0  0  0  0  0  0  0  0  0  0  0
   -2.4243    0.1840   -2.2012 C   0  0  0  0  0  0  0  0  0  0  0  0
   -3.8201    0.1649   -2.3365 C   0  0  0  0  0  0  0  0  0  0  0  0
   -4.5744   -0.8521   -1.7302 C   0  0  0  0  0  0  0  0  0  0  0  0
   -3.9184   -1.8497   -0.9922 C   0  0  0  0  0  0  0  0  0  0  0  0
   -2.5218   -1.8425   -0.8203 C   0  0  0  0  0  0  0  0  0  0  0  0
   -1.8065   -2.9005   -0.0120 C   0  0  0  0  0  0  0  0  0  0  0  0
   -0.5260   -3.2902    2.0101 C   0  0  0  0  0  0  0  0  0  0  0  0
   -2.7982   -2.4856    2.1694 C   0  0  0  0  0  0  0  0  0  0  0  0
    2.7504   -1.2506    0.1175 C   0  0  0  0  0  0  0  0  0  0  0  0
    3.6822   -2.1132    0.6989 C   0  0  0  0  0  0  0  0  0  0  0  0
    4.9313   -2.2758    0.0657 C   0  0  0  0  0  0  0  0  0  0  0  0
    5.2303   -1.5870   -1.1207 C   0  0  0  0  0  0  0  0  0  0  0  0
    4.2900   -0.7168   -1.7084 C   0  0  0  0  0  0  0  0  0  0  0  0
    3.0519   -0.5556   -1.0827 C   0  0  0  0  0  0  0  0  0  0  0  0
   -1.8186    0.9554   -2.6967 H   0  0  0  0  0  0  0  0  0  0  0  0
   -4.3173    0.9434   -2.9352 H   0  0  0  0  0  0  0  0  0  0  0  0
   -5.6680   -0.8786   -1.8456 H   0  0  0  0  0  0  0  0  0  0  0  0
   -4.5001   -2.6688   -0.5394 H   0  0  0  0  0  0  0  0  0  0  0  0
   -0.8139   -3.0797   -0.4692 H   0  0  0  0  0  0  0  0  0  0  0  0
   -2.3798   -3.8630   -0.0656 H   0  0  0  0  0  0  0  0  0  0  0  0
   -0.7794   -4.3803    2.0793 H   0  0  0  0  0  0  0  0  0  0  0  0
   -0.3471   -2.9192    3.0399 H   0  0  0  0  0  0  0  0  0  0  0  0
    0.4159   -3.1731    1.4406 H   0  0  0  0  0  0  0  0  0  0  0  0
   -3.2665   -3.5006    2.2693 H   0  0  0  0  0  0  0  0  0  0  0  0
   -3.5453   -1.8116    1.7046 H   0  0  0  0  0  0  0  0  0  0  0  0
   -2.5850   -2.1068    3.1897 H   0  0  0  0  0  0  0  0  0  0  0  0
    3.4323   -2.6414    1.6306 H   0  0  0  0  0  0  0  0  0  0  0  0
    5.6779   -2.9503    0.5109 H   0  0  0  0  0  0  0  0  0  0  0  0
    6.2105   -1.7246   -1.6012 H   0  0  0  0  0  0  0  0  0  0  0  0
    4.5059   -0.1693   -2.6369 H   0  0  0  0  0  0  0  0  0  0  0  0
  1  3  1  0  0  0  0
  2  1  1  0  0  0  0
  4 20  1  0  0  0  0
  4  1  1  0  0  0  0
  5 13  1  0  0  0  0
  5 14  1  0  0  0  0
  6  2  1  0  0  0  0
  6 11  1  0  0  0  0
  7  6  2  0  0  0  0
  8  7  1  0  0  0  0
  8  9  2  0  0  0  0
  9 10  1  0  0  0  0
 10 11  2  0  0  0  0
 10 24  1  0  0  0  0
 11 12  1  0  0  0  0
 12  5  1  0  0  0  0
 13 27  1  0  0  0  0
 13 28  1  0  0  0  0
 14 30  1  0  0  0  0
 14 32  1  0  0  0  0
 15  3  1  0  0  0  0
 15 16  1  0  0  0  0
 16 33  1  0  0  0  0
 17 34  1  0  0  0  0
 17 16  2  0  0  0  0
 18 17  1  0  0  0  0
 19 18  2  0  0  0  0
 19 20  1  0  0  0  0
 20 15  2  0  0  0  0
 21  7  1  0  0  0  0
 22  8  1  0  0  0  0
 23  9  1  0  0  0  0
 25 12  1  0  0  0  0
 26 12  1  0  0  0  0
 29 13  1  0  0  0  0
 31 14  1  0  0  0  0
 35 18  1  0  0  0  0
 36 19  1  0  0  0  0
M  END
