1
q = nan, confidence = 0.0

 42 41  0  0  0  0  0  0  0  0999 V2000
    0.5120    0.5949   -0.1325 Si  0  0  0  0  0  2  0  0  0  0  0  0
    0.7140    2.1319   -0.2670 H   0  0  0  0  0  0  0  0  0  0  0  0
    2.4168    0.1016   -0.0225 C   0  0  0  0  0  0  0  0  0  0  0  0
    3.2944    1.2937   -1.2377 Si  0  0  0  0  0  0  0  0  0  0  0  0
    2.7360   -1.7352   -0.4845 Si  0  0  0  0  0  0  0  0  0  0  0  0
    2.9081    0.4528    1.7965 Si  0  0  0  0  0  0  0  0  0  0  0  0
    2.3342    1.4688   -2.8736 C   0  0  0  0  0  0  0  0  0  0  0  0
    2.8992    2.1277   -3.5672 H   0  0  0  0  0  0  0  0  0  0  0  0
    1.3376    1.9234   -2.7005 H   0  0  0  0  0  0  0  0  0  0  0  0
    2.1741    0.4938   -3.3714 H   0  0  0  0  0  0  0  0  0  0  0  0
    5.0655    0.7565   -1.7120 C   0  0  0  0  0  0  0  0  0  0  0  0
    5.5004    1.5225   -2.3890 H   0  0  0  0  0  0  0  0  0  0  0  0
    5.0878   -0.2154   -2.2431 H   0  0  0  0  0  0  0  0  0  0  0  0
    5.7219    0.6764   -0.8225 H   0  0  0  0  0  0  0  0  0  0  0  0
    3.4963    3.0744   -0.5839 C   0  0  0  0  0  0  0  0  0  0  0  0
    4.1486    3.1392    0.3093 H   0  0  0  0  0  0  0  0  0  0  0  0
    2.5119    3.5149   -0.3318 H   0  0  0  0  0  0  0  0  0  0  0  0
    3.9566    3.6905   -1.3853 H   0  0  0  0  0  0  0  0  0  0  0  0
    2.5517   -2.0283   -2.3555 C   0  0  0  0  0  0  0  0  0  0  0  0
    2.7196   -3.1072   -2.5580 H   0  0  0  0  0  0  0  0  0  0  0  0
    3.2584   -1.4496   -2.9823 H   0  0  0  0  0  0  0  0  0  0  0  0
    1.5132   -1.7929   -2.6666 H   0  0  0  0  0  0  0  0  0  0  0  0
    1.6017   -3.0249    0.3071 C   0  0  0  0  0  0  0  0  0  0  0  0
    0.6112   -3.0200   -0.1830 H   0  0  0  0  0  0  0  0  0  0  0  0
    1.4343   -2.8916    1.3898 H   0  0  0  0  0  0  0  0  0  0  0  0
    2.0672   -4.0211    0.1430 H   0  0  0  0  0  0  0  0  0  0  0  0
    4.5069   -2.2753    0.0036 C   0  0  0  0  0  0  0  0  0  0  0  0
    4.6879   -3.2943   -0.4001 H   0  0  0  0  0  0  0  0  0  0  0  0
    4.6156   -2.3352    1.1060 H   0  0  0  0  0  0  0  0  0  0  0  0
    5.3006   -1.6083   -0.3829 H   0  0  0  0  0  0  0  0  0  0  0  0
    2.0519    2.0032    2.4988 C   0  0  0  0  0  0  0  0  0  0  0  0
    0.9514    1.8582    2.5188 H   0  0  0  0  0  0  0  0  0  0  0  0
    2.2628    2.9199    1.9166 H   0  0  0  0  0  0  0  0  0  0  0  0
    2.3976    2.1614    3.5428 H   0  0  0  0  0  0  0  0  0  0  0  0
    4.7878    0.7149    2.0231 C   0  0  0  0  0  0  0  0  0  0  0  0
    5.0051    0.8658    3.1021 H   0  0  0  0  0  0  0  0  0  0  0  0
    5.1614    1.6045    1.4777 H   0  0  0  0  0  0  0  0  0  0  0  0
    5.3674   -0.1641    1.6787 H   0  0  0  0  0  0  0  0  0  0  0  0
    2.4176   -0.9471    2.9802 C   0  0  0  0  0  0  0  0  0  0  0  0
    2.6268   -0.6167    4.0200 H   0  0  0  0  0  0  0  0  0  0  0  0
    2.9882   -1.8802    2.8019 H   0  0  0  0  0  0  0  0  0  0  0  0
    1.3372   -1.1849    2.9013 H   0  0  0  0  0  0  0  0  0  0  0  0
  1  3  1  0  0  0  0
  2  1  1  0  0  0  0
  3  6  1  0  0  0  0
  4 15  1  0  0  0  0
  4  3  1  0  0  0  0
  5  3  1  0  0  0  0
  5 27  1  0  0  0  0
  5 23  1  0  0  0  0
  6 35  1  0  0  0  0
  6 31  1  0  0  0  0
  6 39  1  0  0  0  0
  7  9  1  0  0  0  0
  7  4  1  0  0  0  0
  8  7  1  0  0  0  0
 10  7  1  0  0  0  0
 11  4  1  0  0  0  0
 11 14  1  0  0  0  0
 12 11  1  0  0  0  0
 13 11  1  0  0  0  0
 15 17  1  0  0  0  0
 15 16  1  0  0  0  0
 18 15  1  0  0  0  0
 19  5  1  0  0  0  0
 20 19  1  0  0  0  0
 21 19  1  0  0  0  0
 22 19  1  0  0  0  0
 23 25  1  0  0  0  0
 24 23  1  0  0  0  0
 26 23  1  0  0  0  0
 27 29  1  0  0  0  0
 28 27  1  0  0  0  0
 30 27  1  0  0  0  0
 31 32  1  0  0  0  0
 31 34  1  0  0  0  0
 33 31  1  0  0  0  0
 35 36  1  0  0  0  0
 37 35  1  0  0  0  0
 38 35  1  0  0  0  0
 39 40  1  0  0  0  0
 41 39  1  0  0  0  0
 42 39  1  0  0  0  0
M  END
