4
q = -1.0

 43 42  0  0  0  0  0  0  0  0999 V2000
    0.1404   -1.1026    1.7052 S   0  0  0  0  0  0  0  0  0  0  0  0
    2.4303   -0.8913   -1.2314 S   0  0  0  0  0  0  0  0  0  0  0  0
    2.3509    1.6766    1.2691 S   0  0  0  0  0  0  0  0  0  0  0  0
    1.2313    0.1735    0.1923 Si  0  0  0  0  0  3  0  0  0  0  0  0
    0.2886   -2.9982    1.7658 C   0  0  0  0  0  0  0  0  0  0  0  0
   -1.1052   -3.4522    2.2135 C   0  0  0  0  0  0  0  0  0  0  0  0
    1.3349   -3.2672    2.8521 C   0  0  0  0  0  0  0  0  0  0  0  0
    0.6719   -3.6047    0.4255 C   0  0  0  0  0  0  0  0  0  0  0  0
    4.2266   -1.1206   -0.6250 C   0  0  0  0  0  0  0  0  0  0  0  0
    4.2473   -1.5755    0.8333 C   0  0  0  0  0  0  0  0  0  0  0  0
    5.0157    0.1738   -0.8187 C   0  0  0  0  0  0  0  0  0  0  0  0
    4.7474   -2.2261   -1.5541 C   0  0  0  0  0  0  0  0  0  0  0  0
    2.1961    3.2253    0.1584 C   0  0  0  0  0  0  0  0  0  0  0  0
    0.7609    3.7517    0.2177 C   0  0  0  0  0  0  0  0  0  0  0  0
    3.1770    4.2141    0.7991 C   0  0  0  0  0  0  0  0  0  0  0  0
    2.5943    2.9148   -1.2847 C   0  0  0  0  0  0  0  0  0  0  0  0
   -1.8774   -3.1697    1.4723 H   0  0  0  0  0  0  0  0  0  0  0  0
   -1.3809   -3.0183    3.1955 H   0  0  0  0  0  0  0  0  0  0  0  0
   -1.1131   -4.5574    2.3175 H   0  0  0  0  0  0  0  0  0  0  0  0
    1.0555   -2.7968    3.8154 H   0  0  0  0  0  0  0  0  0  0  0  0
    1.4097   -4.3625    3.0170 H   0  0  0  0  0  0  0  0  0  0  0  0
    2.3346   -2.8961    2.5585 H   0  0  0  0  0  0  0  0  0  0  0  0
    0.7305   -4.7081    0.5305 H   0  0  0  0  0  0  0  0  0  0  0  0
    1.6452   -3.2300    0.0590 H   0  0  0  0  0  0  0  0  0  0  0  0
   -0.0856   -3.3717   -0.3432 H   0  0  0  0  0  0  0  0  0  0  0  0
    5.2991   -1.7473    1.1447 H   0  0  0  0  0  0  0  0  0  0  0  0
    3.8212   -0.8085    1.5098 H   0  0  0  0  0  0  0  0  0  0  0  0
    3.6971   -2.5264    0.9678 H   0  0  0  0  0  0  0  0  0  0  0  0
    4.9636    0.5266   -1.8671 H   0  0  0  0  0  0  0  0  0  0  0  0
    6.0822   -0.0124   -0.5717 H   0  0  0  0  0  0  0  0  0  0  0  0
    4.6418    0.9685   -0.1459 H   0  0  0  0  0  0  0  0  0  0  0  0
    5.8097   -2.4330   -1.3078 H   0  0  0  0  0  0  0  0  0  0  0  0
    4.6998   -1.9211   -2.6183 H   0  0  0  0  0  0  0  0  0  0  0  0
    4.1760   -3.1675   -1.4319 H   0  0  0  0  0  0  0  0  0  0  0  0
    0.0486    2.9881   -0.1569 H   0  0  0  0  0  0  0  0  0  0  0  0
    0.4731    4.0366    1.2485 H   0  0  0  0  0  0  0  0  0  0  0  0
    0.6723    4.6566   -0.4201 H   0  0  0  0  0  0  0  0  0  0  0  0
    4.2170    3.8347    0.7622 H   0  0  0  0  0  0  0  0  0  0  0  0
    3.1410    5.1740    0.2427 H   0  0  0  0  0  0  0  0  0  0  0  0
    2.9161    4.4213    1.8558 H   0  0  0  0  0  0  0  0  0  0  0  0
    1.9214    2.1657   -1.7468 H   0  0  0  0  0  0  0  0  0  0  0  0
    3.6275    2.5302   -1.3544 H   0  0  0  0  0  0  0  0  0  0  0  0
    2.5313    3.8459   -1.8865 H   0  0  0  0  0  0  0  0  0  0  0  0
  1  5  1  0  0  0  0
  2  9  1  0  0  0  0
  2  4  1  0  0  0  0
  4  3  1  0  0  0  0
  4  1  1  0  0  0  0
  5  6  1  0  0  0  0
  5  7  1  0  0  0  0
  6 19  1  0  0  0  0
  6 18  1  0  0  0  0
  7 21  1  0  0  0  0
  7 20  1  0  0  0  0
  8 23  1  0  0  0  0
  8  5  1  0  0  0  0
  9 10  1  0  0  0  0
 10 28  1  0  0  0  0
 10 26  1  0  0  0  0
 10 27  1  0  0  0  0
 11  9  1  0  0  0  0
 11 30  1  0  0  0  0
 11 31  1  0  0  0  0
 12 34  1  0  0  0  0
 12 32  1  0  0  0  0
 12  9  1  0  0  0  0
 13 14  1  0  0  0  0
 13 15  1  0  0  0  0
 13  3  1  0  0  0  0
 14 36  1  0  0  0  0
 15 40  1  0  0  0  0
 16 13  1  0  0  0  0
 17  6  1  0  0  0  0
 22  7  1  0  0  0  0
 24  8  1  0  0  0  0
 25  8  1  0  0  0  0
 29 11  1  0  0  0  0
 33 12  1  0  0  0  0
 35 14  1  0  0  0  0
 37 14  1  0  0  0  0
 38 15  1  0  0  0  0
 39 15  1  0  0  0  0
 41 16  1  0  0  0  0
 42 16  1  0  0  0  0
 43 16  1  0  0  0  0
M  END
