1
q = 0, confidence = 1.0

 42 42  0  0  1  0  0  0  0  0999 V2000
    0.6386   -0.4771    1.2484 Si  0  0  0  0  0  3  0  0  0  0  0  0
   -1.5571    1.2467    0.2379 N   0  0  0  0  0  0  0  0  0  0  0  0
   -1.1518   -0.0257    0.5267 C   0  0  1  0  0  3  0  0  0  0  0  0
   -2.7948    1.2355   -0.4014 C   0  0  0  0  0  0  0  0  0  0  0  0
   -0.7108    2.4360    0.4956 C   0  0  0  0  0  0  0  0  0  0  0  0
   -1.2791    3.3194    1.6070 C   0  0  0  0  0  0  0  0  0  0  0  0
   -0.3519    3.1810   -0.7905 C   0  0  0  0  0  0  0  0  0  0  0  0
   -3.5302    2.4395   -0.8877 C   0  0  0  0  0  0  0  0  0  0  0  0
    0.7619    0.5610    2.8550 C   0  0  0  0  0  0  0  0  0  0  0  0
    0.2320    2.0053    0.8676 H   0  0  0  0  0  0  0  0  0  0  0  0
   -1.4978    2.7230    2.5140 H   0  0  0  0  0  0  0  0  0  0  0  0
   -0.5261    4.0857    1.8767 H   0  0  0  0  0  0  0  0  0  0  0  0
   -2.2024    3.8525    1.3049 H   0  0  0  0  0  0  0  0  0  0  0  0
   -1.1890    3.7803   -1.1969 H   0  0  0  0  0  0  0  0  0  0  0  0
    0.4853    3.8705   -0.5681 H   0  0  0  0  0  0  0  0  0  0  0  0
    0.0026    2.4689   -1.5603 H   0  0  0  0  0  0  0  0  0  0  0  0
   -4.5873    2.1789   -1.0829 H   0  0  0  0  0  0  0  0  0  0  0  0
   -3.5196    3.2663   -0.1533 H   0  0  0  0  0  0  0  0  0  0  0  0
   -3.1065    2.8287   -1.8362 H   0  0  0  0  0  0  0  0  0  0  0  0
    1.6368    0.1617    3.4097 H   0  0  0  0  0  0  0  0  0  0  0  0
    0.9430    1.6435    2.7210 H   0  0  0  0  0  0  0  0  0  0  0  0
   -0.1344    0.4212    3.4949 H   0  0  0  0  0  0  0  0  0  0  0  0
   -2.1349   -0.8431    0.0466 N   0  0  0  0  0  0  0  0  0  0  0  0
   -3.1646   -0.0917   -0.5204 C   0  0  0  0  0  0  0  0  0  0  0  0
   -2.0484   -2.3224    0.0774 C   0  0  0  0  0  0  0  0  0  0  0  0
   -2.9868   -2.9173    1.1298 C   0  0  0  0  0  0  0  0  0  0  0  0
   -2.1873   -2.9497   -1.3128 C   0  0  0  0  0  0  0  0  0  0  0  0
   -4.3986   -0.6434   -1.1531 C   0  0  0  0  0  0  0  0  0  0  0  0
    0.5349   -2.2296    2.0158 C   0  0  0  0  0  0  0  0  0  0  0  0
   -1.0145   -2.5093    0.4073 H   0  0  0  0  0  0  0  0  0  0  0  0
   -2.8233   -2.4466    2.1190 H   0  0  0  0  0  0  0  0  0  0  0  0
   -2.7881   -4.0025    1.2296 H   0  0  0  0  0  0  0  0  0  0  0  0
   -4.0552   -2.7976    0.8603 H   0  0  0  0  0  0  0  0  0  0  0  0
   -3.2335   -2.9830   -1.6707 H   0  0  0  0  0  0  0  0  0  0  0  0
   -1.8242   -3.9952   -1.2652 H   0  0  0  0  0  0  0  0  0  0  0  0
   -1.5657   -2.4031   -2.0476 H   0  0  0  0  0  0  0  0  0  0  0  0
   -5.1609    0.1537   -1.2373 H   0  0  0  0  0  0  0  0  0  0  0  0
   -4.8433   -1.4678   -0.5645 H   0  0  0  0  0  0  0  0  0  0  0  0
   -4.2074   -1.0258   -2.1766 H   0  0  0  0  0  0  0  0  0  0  0  0
    1.4273   -2.3069    2.6712 H   0  0  0  0  0  0  0  0  0  0  0  0
    0.6214   -3.0607    1.2889 H   0  0  0  0  0  0  0  0  0  0  0  0
   -0.3605   -2.3817    2.6530 H   0  0  0  0  0  0  0  0  0  0  0  0
  1 29  1  0  0  0  0
  1  9  1  0  0  0  0
  2  5  1  0  0  0  0
  2  3  1  0  0  0  0
  3  1  1  6  0  0  0
  4  2  1  0  0  0  0
  5 10  1  0  0  0  0
  5  6  1  0  0  0  0
  6 12  1  0  0  0  0
  6 11  1  0  0  0  0
  7 15  1  0  0  0  0
  7  5  1  0  0  0  0
  8  4  1  0  0  0  0
  8 18  1  0  0  0  0
  9 20  1  0  0  0  0
  9 22  1  0  0  0  0
 13  6  1  0  0  0  0
 14  7  1  0  0  0  0
 16  7  1  0  0  0  0
 17  8  1  0  0  0  0
 19  8  1  0  0  0  0
 21  9  1  0  0  0  0
 23 25  1  0  0  0  0
 23  3  1  0  0  0  0
 24  4  2  0  0  0  0
 24 23  1  0  0  0  0
 25 30  1  0  0  0  0
 25 26  1  0  0  0  0
 26 32  1  0  0  0  0
 26 31  1  0  0  0  0
 27 35  1  0  0  0  0
 27 25  1  0  0  0  0
 28 38  1  0  0  0  0
 28 24  1  0  0  0  0
 29 42  1  0  0  0  0
 29 40  1  0  0  0  0
 33 26  1  0  0  0  0
 34 27  1  0  0  0  0
 36 27  1  0  0  0  0
 37 28  1  0  0  0  0
 39 28  1  0  0  0  0
 41 29  1  0  0  0  0
M  END
