5
q = nan, confidence = 0.0

 50 53  0  0  1  0  0  0  0  0999 V2000
    4.3932   -1.8414   -0.0480 N   0  0  1  0  0  0  0  0  0  0  0  0
    1.8378   -1.5206   -1.1627 O   0  0  0  0  0  0  0  0  0  0  0  0
    2.2851   -0.9147    1.5538 O   0  0  1  0  0  0  0  0  0  0  0  0
    3.3744    0.7321   -0.4689 O   0  0  0  0  0  0  0  0  0  0  0  0
    0.1243    1.0070    0.0290 Si  0  0  0  0  0  0  0  0  0  0  0  0
    0.5278    2.4995   -1.7804 Si  0  0  0  0  0  0  0  0  0  0  0  0
    0.4335    2.4026    1.9317 Si  0  0  0  0  0  0  0  0  0  0  0  0
    2.0764   -0.2708   -0.0158 Si  0  0  0  0  0  0  0  0  0  0  0  0
    1.9848    3.6611   -1.3959 C   0  0  0  0  0  0  0  0  0  0  0  0
    2.2030    4.2928   -2.2832 H   0  0  0  0  0  0  0  0  0  0  0  0
    2.8822    3.0595   -1.1516 H   0  0  0  0  0  0  0  0  0  0  0  0
    1.7732    4.3335   -0.5415 H   0  0  0  0  0  0  0  0  0  0  0  0
   -0.9882    3.5980   -2.1388 C   0  0  0  0  0  0  0  0  0  0  0  0
   -1.1957    4.2555   -1.2712 H   0  0  0  0  0  0  0  0  0  0  0  0
   -1.9143    3.0208   -2.3317 H   0  0  0  0  0  0  0  0  0  0  0  0
   -0.7946    4.2449   -3.0207 H   0  0  0  0  0  0  0  0  0  0  0  0
    1.0199    1.5688   -3.3727 C   0  0  0  0  0  0  0  0  0  0  0  0
    0.1806    1.0143   -3.8356 H   0  0  0  0  0  0  0  0  0  0  0  0
    1.8323    0.8430   -3.1635 H   0  0  0  0  0  0  0  0  0  0  0  0
    1.3963    2.2970   -4.1223 H   0  0  0  0  0  0  0  0  0  0  0  0
   -0.4635    4.0536    1.6259 C   0  0  0  0  0  0  0  0  0  0  0  0
   -0.4210    4.6865    2.5376 H   0  0  0  0  0  0  0  0  0  0  0  0
   -1.5302    3.8678    1.3836 H   0  0  0  0  0  0  0  0  0  0  0  0
   -0.0171    4.6284    0.7909 H   0  0  0  0  0  0  0  0  0  0  0  0
    2.2863    2.7097    2.2382 C   0  0  0  0  0  0  0  0  0  0  0  0
    2.8178    3.0130    1.3166 H   0  0  0  0  0  0  0  0  0  0  0  0
    2.7590    1.7763    2.6057 H   0  0  0  0  0  0  0  0  0  0  0  0
    2.4265    3.4965    3.0097 H   0  0  0  0  0  0  0  0  0  0  0  0
   -0.2817    1.7424    3.5675 C   0  0  0  0  0  0  0  0  0  0  0  0
    0.1080    0.7435    3.8450 H   0  0  0  0  0  0  0  0  0  0  0  0
   -1.3880    1.6960    3.5242 H   0  0  0  0  0  0  0  0  0  0  0  0
   -0.0085    2.4485    4.3804 H   0  0  0  0  0  0  0  0  0  0  0  0
    2.3931   -2.8160   -1.0781 C   0  0  0  0  0  0  0  0  0  0  0  0
    2.0407   -3.4093   -1.9503 H   0  0  0  0  0  0  0  0  0  0  0  0
    2.0284   -3.3370   -0.1595 H   0  0  0  0  0  0  0  0  0  0  0  0
    3.9278   -2.7684   -1.0573 C   0  0  0  0  0  0  0  0  0  0  0  0
    4.2841   -2.4115   -2.0454 H   0  0  0  0  0  0  0  0  0  0  0  0
    4.3363   -3.8015   -0.9219 H   0  0  0  0  0  0  0  0  0  0  0  0
    3.5363   -1.1845    2.1546 C   0  0  0  0  0  0  0  0  0  0  0  0
    3.3581   -1.5557    3.1871 H   0  0  0  0  0  0  0  0  0  0  0  0
    4.1325   -0.2453    2.2423 H   0  0  0  0  0  0  0  0  0  0  0  0
    4.3254   -2.2249    1.3469 C   0  0  0  0  0  0  0  0  0  0  0  0
    3.7993   -3.1997    1.4125 H   0  0  0  0  0  0  0  0  0  0  0  0
    5.3351   -2.3736    1.8058 H   0  0  0  0  0  0  0  0  0  0  0  0
    4.5112    0.3191   -1.1977 C   0  0  0  0  0  0  0  0  0  0  0  0
    5.1611    1.2049   -1.3672 H   0  0  0  0  0  0  0  0  0  0  0  0
    4.2121   -0.0620   -2.2033 H   0  0  0  0  0  0  0  0  0  0  0  0
    5.2847   -0.7690   -0.4406 C   0  0  0  0  0  0  0  0  0  0  0  0
    6.1461   -1.1252   -1.0596 H   0  0  0  0  0  0  0  0  0  0  0  0
    5.7148   -0.3229    0.4795 H   0  0  0  0  0  0  0  0  0  0  0  0
  1 36  1  6  0  0  0
  1 42  1  0  0  0  0
  2 33  1  0  0  0  0
  2  8  1  0  0  0  0
  3 39  1  1  0  0  0
  4  8  1  0  0  0  0
  5  7  1  0  0  0  0
  5  3  1  0  0  0  0
  6  9  1  0  0  0  0
  6  5  1  0  0  0  0
  7 25  1  0  0  0  0
  7 29  1  0  0  0  0
  8  5  1  0  0  0  0
  8  3  1  0  0  0  0
  8 45  1  0  0  0  0
  9 11  1  0  0  0  0
  9 12  1  0  0  0  0
 10  9  1  0  0  0  0
 13  6  1  0  0  0  0
 13 14  1  0  0  0  0
 15 13  1  0  0  0  0
 16 13  1  0  0  0  0
 17 19  1  0  0  0  0
 17  6  1  0  0  0  0
 18 17  1  0  0  0  0
 20 17  1  0  0  0  0
 21  7  1  0  0  0  0
 21 22  1  0  0  0  0
 23 21  1  0  0  0  0
 24 21  1  0  0  0  0
 25 27  1  0  0  0  0
 25 28  1  0  0  0  0
 26 25  1  0  0  0  0
 29 30  1  0  0  0  0
 29 32  1  0  0  0  0
 31 29  1  0  0  0  0
 33 36  1  0  0  0  0
 33 35  1  0  0  0  0
 34 33  1  0  0  0  0
 36 38  1  0  0  0  0
 37 36  1  0  0  0  0
 39 41  1  0  0  0  0
 39 40  1  0  0  0  0
 42 43  1  0  0  0  0
 42 44  1  0  0  0  0
 42 39  1  0  0  0  0
 45  4  1  0  0  0  0
 45 48  1  0  0  0  0
 46 45  1  0  0  0  0
 47 45  1  0  0  0  0
 48  1  1  0  0  0  0
 48 50  1  0  0  0  0
 49 48  1  0  0  0  0
M  ZBO  2   8   0  15   0
M  END
