1
q = -1

 34 33  0  0  0  0  0  0  0  0999 V2000
   -1.9990   -0.4337   -0.4772 Si  0  0  0  0  0  3  0  0  0  0  0  0
   -2.8175   -1.1772    1.6056 Si  0  0  0  0  0  0  0  0  0  0  0  0
   -3.0884    1.6032   -0.9300 Si  0  0  0  0  0  0  0  0  0  0  0  0
   -1.6887   -2.5233    2.3546 C   0  0  0  0  0  0  0  0  0  0  0  0
   -2.0780   -2.8845    3.3306 H   0  0  0  0  0  0  0  0  0  0  0  0
   -0.6674   -2.1197    2.5164 H   0  0  0  0  0  0  0  0  0  0  0  0
   -1.5990   -3.3965    1.6760 H   0  0  0  0  0  0  0  0  0  0  0  0
   -4.5730   -1.9084    1.4559 C   0  0  0  0  0  0  0  0  0  0  0  0
   -4.5822   -2.7710    0.7576 H   0  0  0  0  0  0  0  0  0  0  0  0
   -5.2839   -1.1528    1.0633 H   0  0  0  0  0  0  0  0  0  0  0  0
   -4.9511   -2.2620    2.4389 H   0  0  0  0  0  0  0  0  0  0  0  0
   -2.8732    0.2613    2.8578 C   0  0  0  0  0  0  0  0  0  0  0  0
   -3.1675   -0.0992    3.8663 H   0  0  0  0  0  0  0  0  0  0  0  0
   -3.6030    1.0363    2.5460 H   0  0  0  0  0  0  0  0  0  0  0  0
   -1.8797    0.7485    2.9449 H   0  0  0  0  0  0  0  0  0  0  0  0
   -2.3584    3.0127    0.1295 C   0  0  0  0  0  0  0  0  0  0  0  0
   -1.2875    3.1655   -0.1149 H   0  0  0  0  0  0  0  0  0  0  0  0
   -2.4275    2.7818    1.2118 H   0  0  0  0  0  0  0  0  0  0  0  0
   -2.8944    3.9679   -0.0547 H   0  0  0  0  0  0  0  0  0  0  0  0
   -2.8298    2.0699   -2.7617 C   0  0  0  0  0  0  0  0  0  0  0  0
   -3.3000    3.0477   -3.0003 H   0  0  0  0  0  0  0  0  0  0  0  0
   -3.2725    1.3059   -3.4338 H   0  0  0  0  0  0  0  0  0  0  0  0
   -1.7478    2.1385   -2.9987 H   0  0  0  0  0  0  0  0  0  0  0  0
   -4.9683    1.5432   -0.6078 C   0  0  0  0  0  0  0  0  0  0  0  0
   -5.4602    2.4958   -0.8993 H   0  0  0  0  0  0  0  0  0  0  0  0
   -5.1816    1.3637    0.4661 H   0  0  0  0  0  0  0  0  0  0  0  0
   -5.4425    0.7225   -1.1847 H   0  0  0  0  0  0  0  0  0  0  0  0
   -2.6020   -1.7058   -1.8160 C   0  0  0  0  0  0  0  0  0  0  0  0
   -3.7099   -1.7832   -1.7524 H   0  0  0  0  0  0  0  0  0  0  0  0
   -2.3813   -1.2703   -2.8150 H   0  0  0  0  0  0  0  0  0  0  0  0
   -1.9657   -3.0942   -1.6937 C   0  0  0  0  0  0  0  0  0  0  0  0
   -0.8575   -3.0329   -1.7508 H   0  0  0  0  0  0  0  0  0  0  0  0
   -2.3059   -3.7910   -2.4905 H   0  0  0  0  0  0  0  0  0  0  0  0
   -2.2076   -3.5675   -0.7185 H   0  0  0  0  0  0  0  0  0  0  0  0
  1  2  1  0  0  0  0
  2  4  1  0  0  0  0
  2 12  1  0  0  0  0
  3 24  1  0  0  0  0
  3  1  1  0  0  0  0
  3 16  1  0  0  0  0
  4  6  1  0  0  0  0
  4  5  1  0  0  0  0
  7  4  1  0  0  0  0
  8  2  1  0  0  0  0
  8 11  1  0  0  0  0
  9  8  1  0  0  0  0
 10  8  1  0  0  0  0
 12 15  1  0  0  0  0
 12 13  1  0  0  0  0
 14 12  1  0  0  0  0
 16 18  1  0  0  0  0
 17 16  1  0  0  0  0
 19 16  1  0  0  0  0
 20  3  1  0  0  0  0
 21 20  1  0  0  0  0
 22 20  1  0  0  0  0
 23 20  1  0  0  0  0
 24 26  1  0  0  0  0
 25 24  1  0  0  0  0
 27 24  1  0  0  0  0
 28 29  1  0  0  0  0
 28 31  1  0  0  0  0
 28  1  1  0  0  0  0
 30 28  1  0  0  0  0
 31 34  1  0  0  0  0
 32 31  1  0  0  0  0
 33 31  1  0  0  0  0
M  END
