1
q = -1

 40 42  0  0  0  0  0  0  0  0999 V2000
    1.5601    0.0164   -0.0540 Si  0  0  0  0  0  0  0  0  0  0  0  0
    2.6339    1.8787   -1.0006 Si  0  0  0  0  0  0  0  0  0  0  0  0
    2.4880   -1.9157   -1.0151 Si  0  0  0  0  0  0  0  0  0  0  0  0
    2.1376   -0.0064    2.2266 Si  0  0  0  0  0  0  0  0  0  0  0  0
    1.6938    3.4798   -0.5595 C   0  0  0  0  0  0  0  0  0  0  0  0
    2.2045    4.3732   -0.9781 H   0  0  0  0  0  0  0  0  0  0  0  0
    1.6182    3.6078    0.5395 H   0  0  0  0  0  0  0  0  0  0  0  0
    0.6631    3.4472   -0.9665 H   0  0  0  0  0  0  0  0  0  0  0  0
    2.6577    1.7318   -2.9014 C   0  0  0  0  0  0  0  0  0  0  0  0
    3.0815    2.6456   -3.3697 H   0  0  0  0  0  0  0  0  0  0  0  0
    1.6321    1.5821   -3.2973 H   0  0  0  0  0  0  0  0  0  0  0  0
    3.2723    0.8666   -3.2249 H   0  0  0  0  0  0  0  0  0  0  0  0
    4.4335    2.0869   -0.4068 C   0  0  0  0  0  0  0  0  0  0  0  0
    5.0281    1.1741   -0.6136 H   0  0  0  0  0  0  0  0  0  0  0  0
    4.4718    2.2720    0.6864 H   0  0  0  0  0  0  0  0  0  0  0  0
    4.9251    2.9439   -0.9150 H   0  0  0  0  0  0  0  0  0  0  0  0
    1.7915   -2.1837   -2.7703 C   0  0  0  0  0  0  0  0  0  0  0  0
    2.2272   -3.0907   -3.2413 H   0  0  0  0  0  0  0  0  0  0  0  0
    2.0145   -1.3151   -3.4228 H   0  0  0  0  0  0  0  0  0  0  0  0
    0.6893   -2.3047   -2.7416 H   0  0  0  0  0  0  0  0  0  0  0  0
    4.3878   -1.8570   -1.1582 C   0  0  0  0  0  0  0  0  0  0  0  0
    4.8593   -1.6890   -0.1690 H   0  0  0  0  0  0  0  0  0  0  0  0
    4.7048   -1.0298   -1.8264 H   0  0  0  0  0  0  0  0  0  0  0  0
    4.7873   -2.8052   -1.5774 H   0  0  0  0  0  0  0  0  0  0  0  0
    2.0186   -3.4464    0.0238 C   0  0  0  0  0  0  0  0  0  0  0  0
    2.3764   -4.3825   -0.4555 H   0  0  0  0  0  0  0  0  0  0  0  0
    0.9174   -3.5154    0.1407 H   0  0  0  0  0  0  0  0  0  0  0  0
    2.4614   -3.3913    1.0396 H   0  0  0  0  0  0  0  0  0  0  0  0
    0.9884   -1.1869    3.1901 C   0  0  0  0  0  0  0  0  0  0  0  0
    1.0225   -2.2130    2.7702 H   0  0  0  0  0  0  0  0  0  0  0  0
   -0.0623   -0.8345    3.1338 H   0  0  0  0  0  0  0  0  0  0  0  0
    1.2778   -1.2429    4.2614 H   0  0  0  0  0  0  0  0  0  0  0  0
    1.9035    1.7309    2.9797 C   0  0  0  0  0  0  0  0  0  0  0  0
    2.0794    1.7174    4.0765 H   0  0  0  0  0  0  0  0  0  0  0  0
    0.8730    2.1016    2.8003 H   0  0  0  0  0  0  0  0  0  0  0  0
    2.6072    2.4614    2.5307 H   0  0  0  0  0  0  0  0  0  0  0  0
    3.9319   -0.5558    2.5653 C   0  0  0  0  0  0  0  0  0  0  0  0
    4.1679   -0.5057    3.6498 H   0  0  0  0  0  0  0  0  0  0  0  0
    4.6562    0.0852    2.0229 H   0  0  0  0  0  0  0  0  0  0  0  0
    4.0923   -1.6013    2.2301 H   0  0  0  0  0  0  0  0  0  0  0  0
  1  4  1  0  0  0  0
  1 25  1  0  0  0  0
  1  9  1  0  0  0  0
  1 33  1  0  0  0  0
  2  5  1  0  0  0  0
  2 13  1  0  0  0  0
  2  1  1  0  0  0  0
  3  1  1  0  0  0  0
  3 25  1  0  0  0  0
  4 37  1  0  0  0  0
  4 33  1  0  0  0  0
  4 29  1  0  0  0  0
  5  7  1  0  0  0  0
  6  5  1  0  0  0  0
  8  5  1  0  0  0  0
  9  2  1  0  0  0  0
 10  9  1  0  0  0  0
 11  9  1  0  0  0  0
 12  9  1  0  0  0  0
 13 15  1  0  0  0  0
 14 13  1  0  0  0  0
 16 13  1  0  0  0  0
 17 20  1  0  0  0  0
 17  3  1  0  0  0  0
 18 17  1  0  0  0  0
 19 17  1  0  0  0  0
 21  3  1  0  0  0  0
 21 22  1  0  0  0  0
 23 21  1  0  0  0  0
 24 21  1  0  0  0  0
 25 27  1  0  0  0  0
 25 28  1  0  0  0  0
 26 25  1  0  0  0  0
 29 32  1  0  0  0  0
 30 29  1  0  0  0  0
 31 29  1  0  0  0  0
 33 34  1  0  0  0  0
 35 33  1  0  0  0  0
 36 33  1  0  0  0  0
 37 38  1  0  0  0  0
 39 37  1  0  0  0  0
 40 37  1  0  0  0  0
M  ZBO  3   2   0   3   0   4   0
M  END
