2
q = -1.0

 58 61  0  0  0  0  0  0  0  0999 V2000
    0.4533    0.4023   -1.6783 Cl  0  0  0  0  0  0  0  0  0  0  0  0
   -0.5061   -0.7255   -0.1942 Si  0  0  0  0  0  3  0  0  0  0  0  0
    0.3572   -2.3192   -0.1241 N   0  0  0  0  0  0  0  0  0  0  0  0
   -0.3453   -3.5282   -0.0803 C   0  0  0  0  0  0  0  0  0  0  0  0
   -1.4187   -3.5532   -0.2754 H   0  0  0  0  0  0  0  0  0  0  0  0
    0.5294   -4.5637    0.1931 C   0  0  0  0  0  0  0  0  0  0  0  0
    0.2646   -5.6241    0.2752 H   0  0  0  0  0  0  0  0  0  0  0  0
    1.8278   -3.9838    0.3163 C   0  0  0  0  0  0  0  0  0  0  0  0
    2.7756   -4.5048    0.4967 H   0  0  0  0  0  0  0  0  0  0  0  0
    1.7153   -2.6104    0.1146 C   0  0  0  0  0  0  0  0  0  0  0  0
    2.8396   -1.6479   -0.0181 C   0  0  0  0  0  0  0  0  0  0  0  0
    3.3210   -1.3585   -1.3278 C   0  0  0  0  0  0  0  0  0  0  0  0
    4.4129   -0.4892   -1.4791 C   0  0  0  0  0  0  0  0  0  0  0  0
    4.7692   -0.2570   -2.4960 H   0  0  0  0  0  0  0  0  0  0  0  0
    5.0814    0.0652   -0.3713 C   0  0  0  0  0  0  0  0  0  0  0  0
    4.6406   -0.2966    0.9109 C   0  0  0  0  0  0  0  0  0  0  0  0
    5.1696    0.0997    1.7933 H   0  0  0  0  0  0  0  0  0  0  0  0
    3.5299   -1.1391    1.1126 C   0  0  0  0  0  0  0  0  0  0  0  0
    2.7152   -2.0325   -2.5331 C   0  0  0  0  0  0  0  0  0  0  0  0
    3.1917   -1.6835   -3.4693 H   0  0  0  0  0  0  0  0  0  0  0  0
    1.6268   -1.8473   -2.6105 H   0  0  0  0  0  0  0  0  0  0  0  0
    2.8414   -3.1331   -2.4646 H   0  0  0  0  0  0  0  0  0  0  0  0
    6.2206    1.0348   -0.5586 C   0  0  0  0  0  0  0  0  0  0  0  0
    5.8400    2.0757   -0.6496 H   0  0  0  0  0  0  0  0  0  0  0  0
    6.7965    0.8195   -1.4806 H   0  0  0  0  0  0  0  0  0  0  0  0
    6.9197    1.0181    0.3008 H   0  0  0  0  0  0  0  0  0  0  0  0
    3.1033   -1.4561    2.5227 C   0  0  0  0  0  0  0  0  0  0  0  0
    3.9761   -1.4752    3.2048 H   0  0  0  0  0  0  0  0  0  0  0  0
    2.5814   -2.4289    2.5875 H   0  0  0  0  0  0  0  0  0  0  0  0
    2.3990   -0.6877    2.9056 H   0  0  0  0  0  0  0  0  0  0  0  0
   -0.0978    0.0167    1.4065 N   0  0  0  0  0  0  0  0  0  0  0  0
   -0.1746   -0.8065    2.5323 C   0  0  0  0  0  0  0  0  0  0  0  0
   -0.0455   -1.8900    2.4345 H   0  0  0  0  0  0  0  0  0  0  0  0
   -0.3746   -0.0225    3.6578 C   0  0  0  0  0  0  0  0  0  0  0  0
   -0.4345   -0.3840    4.6909 H   0  0  0  0  0  0  0  0  0  0  0  0
   -0.4348    1.3348    3.2128 C   0  0  0  0  0  0  0  0  0  0  0  0
   -0.5392    2.2318    3.8346 H   0  0  0  0  0  0  0  0  0  0  0  0
   -0.2713    1.3476    1.8275 C   0  0  0  0  0  0  0  0  0  0  0  0
   -0.1763    2.5281    0.9311 C   0  0  0  0  0  0  0  0  0  0  0  0
   -1.3144    3.3333    0.6641 C   0  0  0  0  0  0  0  0  0  0  0  0
   -1.1869    4.4448   -0.1886 C   0  0  0  0  0  0  0  0  0  0  0  0
   -2.0818    5.0495   -0.4085 H   0  0  0  0  0  0  0  0  0  0  0  0
    0.0419    4.8025   -0.7662 C   0  0  0  0  0  0  0  0  0  0  0  0
    1.1698    4.0277   -0.4413 C   0  0  0  0  0  0  0  0  0  0  0  0
    2.1535    4.3084   -0.8523 H   0  0  0  0  0  0  0  0  0  0  0  0
    1.0887    2.9060    0.3992 C   0  0  0  0  0  0  0  0  0  0  0  0
   -2.6530    3.0393    1.2935 C   0  0  0  0  0  0  0  0  0  0  0  0
   -2.8427    1.9525    1.3446 H   0  0  0  0  0  0  0  0  0  0  0  0
   -3.4751    3.5208    0.7287 H   0  0  0  0  0  0  0  0  0  0  0  0
   -2.6990    3.4120    2.3386 H   0  0  0  0  0  0  0  0  0  0  0  0
    0.1493    5.9674   -1.7175 C   0  0  0  0  0  0  0  0  0  0  0  0
    0.1078    5.6219   -2.7732 H   0  0  0  0  0  0  0  0  0  0  0  0
    1.1085    6.5091   -1.5934 H   0  0  0  0  0  0  0  0  0  0  0  0
   -0.6780    6.6905   -1.5766 H   0  0  0  0  0  0  0  0  0  0  0  0
    2.3302    2.1236    0.7279 C   0  0  0  0  0  0  0  0  0  0  0  0
    2.3776    1.1821    0.1466 H   0  0  0  0  0  0  0  0  0  0  0  0
    2.3594    1.8345    1.7972 H   0  0  0  0  0  0  0  0  0  0  0  0
    3.2446    2.7015    0.4927 H   0  0  0  0  0  0  0  0  0  0  0  0
  1  2  1  0  0  0  0
  2  3  1  0  0  0  0
  2 31  1  0  0  0  0
  3  4  1  0  0  0  0
  3 10  1  0  0  0  0
  4  6  2  0  0  0  0
  5  4  1  0  0  0  0
  6  7  1  0  0  0  0
  6  8  1  0  0  0  0
  8  9  1  0  0  0  0
 10  8  2  0  0  0  0
 11 10  1  0  0  0  0
 11 18  1  0  0  0  0
 12 11  2  0  0  0  0
 13 12  1  0  0  0  0
 13 15  2  0  0  0  0
 14 13  1  0  0  0  0
 15 16  1  0  0  0  0
 16 18  2  0  0  0  0
 16 17  1  0  0  0  0
 18 27  1  0  0  0  0
 19 22  1  0  0  0  0
 19 12  1  0  0  0  0
 20 19  1  0  0  0  0
 21 19  1  0  0  0  0
 23 15  1  0  0  0  0
 23 26  1  0  0  0  0
 24 23  1  0  0  0  0
 25 23  1  0  0  0  0
 27 29  1  0  0  0  0
 27 30  1  0  0  0  0
 27 28  1  0  0  0  0
 31 38  1  0  0  0  0
 31 32  1  0  0  0  0
 32 34  2  0  0  0  0
 33 32  1  0  0  0  0
 34 35  1  0  0  0  0
 36 34  1  0  0  0  0
 36 37  1  0  0  0  0
 38 36  2  0  0  0  0
 39 38  1  0  0  0  0
 40 39  1  0  0  0  0
 40 47  1  0  0  0  0
 41 40  2  0  0  0  0
 42 41  1  0  0  0  0
 43 44  2  0  0  0  0
 43 41  1  0  0  0  0
 44 46  1  0  0  0  0
 45 44  1  0  0  0  0
 46 55  1  0  0  0  0
 46 39  2  0  0  0  0
 47 48  1  0  0  0  0
 47 50  1  0  0  0  0
 49 47  1  0  0  0  0
 51 53  1  0  0  0  0
 51 54  1  0  0  0  0
 51 43  1  0  0  0  0
 52 51  1  0  0  0  0
 55 57  1  0  0  0  0
 56 55  1  0  0  0  0
 58 55  1  0  0  0  0
M  END
