1
q = -1.0

 28 29  0  0  0  0  0  0  0  0999 V2000
    0.3260    0.0939    0.5305 Si  0  0  0  0  0  3  0  0  0  0  0  0
    0.3140    0.1170    2.2395 O   0  0  0  0  0  0  0  0  0  0  0  0
    0.4924   -1.0467    3.0155 C   0  0  0  0  0  0  0  0  0  0  0  0
   -0.3841   -1.7343    2.9505 H   0  0  0  0  0  0  0  0  0  0  0  0
    0.6155   -0.7526    4.0790 H   0  0  0  0  0  0  0  0  0  0  0  0
    1.3941   -1.6262    2.7095 H   0  0  0  0  0  0  0  0  0  0  0  0
    2.0052   -0.6451    0.0312 C   0  0  0  0  0  0  0  0  0  0  0  0
    2.2116   -1.7425   -0.8303 C   0  0  0  0  0  0  0  0  0  0  0  0
    1.3556   -2.2559   -1.2923 H   0  0  0  0  0  0  0  0  0  0  0  0
    3.5056   -2.2050   -1.1207 C   0  0  0  0  0  0  0  0  0  0  0  0
    3.6410   -3.0616   -1.7988 H   0  0  0  0  0  0  0  0  0  0  0  0
    4.6217   -1.5788   -0.5463 C   0  0  0  0  0  0  0  0  0  0  0  0
    5.6365   -1.9410   -0.7724 H   0  0  0  0  0  0  0  0  0  0  0  0
    4.4386   -0.4870    0.3187 C   0  0  0  0  0  0  0  0  0  0  0  0
    5.3102    0.0100    0.7724 H   0  0  0  0  0  0  0  0  0  0  0  0
    3.1448   -0.0263    0.6006 C   0  0  0  0  0  0  0  0  0  0  0  0
    3.0132    0.8347    1.2762 H   0  0  0  0  0  0  0  0  0  0  0  0
    0.3837    1.9440    0.1320 C   0  0  0  0  0  0  0  0  0  0  0  0
    0.2441    2.9159    1.1474 C   0  0  0  0  0  0  0  0  0  0  0  0
    0.1388    2.5835    2.1924 H   0  0  0  0  0  0  0  0  0  0  0  0
    0.2552    4.2865    0.8393 C   0  0  0  0  0  0  0  0  0  0  0  0
    0.1472    5.0310    1.6437 H   0  0  0  0  0  0  0  0  0  0  0  0
    0.4095    4.7078   -0.4907 C   0  0  0  0  0  0  0  0  0  0  0  0
    0.4186    5.7817   -0.7333 H   0  0  0  0  0  0  0  0  0  0  0  0
    0.5591    3.7534   -1.5113 C   0  0  0  0  0  0  0  0  0  0  0  0
    0.6908    4.0785   -2.5551 H   0  0  0  0  0  0  0  0  0  0  0  0
    0.5457    2.3851   -1.2009 C   0  0  0  0  0  0  0  0  0  0  0  0
    0.6701    1.6488   -2.0118 H   0  0  0  0  0  0  0  0  0  0  0  0
  1  2  1  0  0  0  0
  2  3  1  0  0  0  0
  3  5  1  0  0  0  0
  4  3  1  0  0  0  0
  6  3  1  0  0  0  0
  7  1  1  0  0  0  0
  7 16  1  0  0  0  0
  8  7  2  0  0  0  0
  9  8  1  0  0  0  0
 10  8  1  0  0  0  0
 10 12  2  0  0  0  0
 11 10  1  0  0  0  0
 12 14  1  0  0  0  0
 13 12  1  0  0  0  0
 14 16  2  0  0  0  0
 14 15  1  0  0  0  0
 16 17  1  0  0  0  0
 18  1  1  0  0  0  0
 18 19  1  0  0  0  0
 19 20  1  0  0  0  0
 21 19  2  0  0  0  0
 21 22  1  0  0  0  0
 23 21  1  0  0  0  0
 24 23  1  0  0  0  0
 25 27  1  0  0  0  0
 25 23  2  0  0  0  0
 26 25  1  0  0  0  0
 27 18  2  0  0  0  0
 28 27  1  0  0  0  0
M  END
