1
q = -1.0

 28 29  0  0  0  0  0  0  0  0999 V2000
    0.2401    0.1987   -0.7210 Si  0  0  2  0  0  3  0  0  0  0  0  0
    0.5780   -0.2536   -2.7907 Cl  0  0  0  0  0  0  0  0  0  0  0  0
   -1.3868    1.1995    1.6140 O   0  0  0  0  0  0  0  0  0  0  0  0
   -1.9495    1.5187    2.8728 C   0  0  0  0  0  0  0  0  0  0  0  0
   -1.2402    1.1322    3.6275 H   0  0  0  0  0  0  0  0  0  0  0  0
   -2.9408    1.0329    3.0161 H   0  0  0  0  0  0  0  0  0  0  0  0
   -2.0672    2.6170    3.0050 H   0  0  0  0  0  0  0  0  0  0  0  0
   -1.4032    1.1730   -0.7441 C   0  0  0  0  0  0  0  0  0  0  0  0
   -2.0488    1.5071   -1.9509 C   0  0  0  0  0  0  0  0  0  0  0  0
   -1.5655    1.2267   -2.8996 H   0  0  0  0  0  0  0  0  0  0  0  0
   -3.2813    2.1824   -1.9708 C   0  0  0  0  0  0  0  0  0  0  0  0
   -3.7561    2.4339   -2.9308 H   0  0  0  0  0  0  0  0  0  0  0  0
   -3.8956    2.5318   -0.7621 C   0  0  0  0  0  0  0  0  0  0  0  0
   -4.8614    3.0602   -0.7608 H   0  0  0  0  0  0  0  0  0  0  0  0
   -3.2853    2.2139    0.4624 C   0  0  0  0  0  0  0  0  0  0  0  0
   -3.7751    2.4969    1.4038 H   0  0  0  0  0  0  0  0  0  0  0  0
   -2.0483    1.5421    0.4659 C   0  0  0  0  0  0  0  0  0  0  0  0
    1.6913    1.3237   -0.2527 C   0  0  0  0  0  0  0  0  0  0  0  0
    1.5822    2.2465    0.8125 C   0  0  0  0  0  0  0  0  0  0  0  0
    0.6311    2.3386    1.3563 H   0  0  0  0  0  0  0  0  0  0  0  0
    2.6749    3.0417    1.1898 C   0  0  0  0  0  0  0  0  0  0  0  0
    2.5687    3.7584    2.0191 H   0  0  0  0  0  0  0  0  0  0  0  0
    3.8996    2.9254    0.5138 C   0  0  0  0  0  0  0  0  0  0  0  0
    4.7572    3.5488    0.8106 H   0  0  0  0  0  0  0  0  0  0  0  0
    4.0248    2.0101   -0.5432 C   0  0  0  0  0  0  0  0  0  0  0  0
    4.9814    1.9135   -1.0798 H   0  0  0  0  0  0  0  0  0  0  0  0
    2.9313    1.2173   -0.9222 C   0  0  0  0  0  0  0  0  0  0  0  0
    3.0374    0.5102   -1.7590 H   0  0  0  0  0  0  0  0  0  0  0  0
  1  2  1  6  0  0  0
  1 18  1  0  0  0  0
  3  4  1  0  0  0  0
  4  7  1  0  0  0  0
  4  6  1  0  0  0  0
  4  5  1  0  0  0  0
  8  1  1  0  0  0  0
  8 17  1  0  0  0  0
  9  8  2  0  0  0  0
 10  9  1  0  0  0  0
 11  9  1  0  0  0  0
 11 13  2  0  0  0  0
 12 11  1  0  0  0  0
 13 14  1  0  0  0  0
 13 15  1  0  0  0  0
 15 17  2  0  0  0  0
 15 16  1  0  0  0  0
 17  3  1  0  0  0  0
 18 19  1  0  0  0  0
 19 21  2  0  0  0  0
 19 20  1  0  0  0  0
 21 22  1  0  0  0  0
 23 24  1  0  0  0  0
 23 21  1  0  0  0  0
 25 23  2  0  0  0  0
 26 25  1  0  0  0  0
 27 25  1  0  0  0  0
 27 18  2  0  0  0  0
 28 27  1  0  0  0  0
M  END
