2
q = -1.0

 38 40  0  0  0  0  0  0  0  0999 V2000
    0.3416    0.2737   -2.2677 S   0  0  0  0  0  0  0  0  0  0  0  0
   -0.6782    0.3082   -0.3078 Si  0  0  0  0  0  3  0  0  0  0  0  0
   -0.2958    2.0170    0.4415 C   0  0  0  0  0  0  0  0  0  0  0  0
   -0.7224    3.1489   -0.2941 C   0  0  0  0  0  0  0  0  0  0  0  0
   -1.2700    3.0058   -1.2395 H   0  0  0  0  0  0  0  0  0  0  0  0
   -0.4476    4.4492    0.1511 C   0  0  0  0  0  0  0  0  0  0  0  0
   -0.7895    5.3145   -0.4378 H   0  0  0  0  0  0  0  0  0  0  0  0
    0.2654    4.6472    1.3460 C   0  0  0  0  0  0  0  0  0  0  0  0
    0.4850    5.6675    1.6965 H   0  0  0  0  0  0  0  0  0  0  0  0
    0.6952    3.5383    2.0892 C   0  0  0  0  0  0  0  0  0  0  0  0
    1.2544    3.6836    3.0263 H   0  0  0  0  0  0  0  0  0  0  0  0
    0.4153    2.2372    1.6393 C   0  0  0  0  0  0  0  0  0  0  0  0
    0.7711    1.3881    2.2400 H   0  0  0  0  0  0  0  0  0  0  0  0
   -2.5057    0.3615   -0.8341 C   0  0  0  0  0  0  0  0  0  0  0  0
   -2.9653   -0.1045   -2.0858 C   0  0  0  0  0  0  0  0  0  0  0  0
   -2.2411   -0.4552   -2.8398 H   0  0  0  0  0  0  0  0  0  0  0  0
   -4.3351   -0.1147   -2.3972 C   0  0  0  0  0  0  0  0  0  0  0  0
   -4.6705   -0.4768   -3.3815 H   0  0  0  0  0  0  0  0  0  0  0  0
   -5.2734    0.3409   -1.4581 C   0  0  0  0  0  0  0  0  0  0  0  0
   -6.3473    0.3330   -1.7003 H   0  0  0  0  0  0  0  0  0  0  0  0
   -4.8345    0.8142   -0.2100 C   0  0  0  0  0  0  0  0  0  0  0  0
   -5.5642    1.1813    0.5285 H   0  0  0  0  0  0  0  0  0  0  0  0
   -3.4656    0.8250    0.0962 C   0  0  0  0  0  0  0  0  0  0  0  0
   -3.1364    1.2036    1.0775 H   0  0  0  0  0  0  0  0  0  0  0  0
    2.0399    0.1759   -1.7010 C   0  0  0  0  0  0  0  0  0  0  0  0
    2.6645    1.2781   -1.0838 C   0  0  0  0  0  0  0  0  0  0  0  0
    2.1062    2.2157   -0.9536 H   0  0  0  0  0  0  0  0  0  0  0  0
    3.9838    1.1710   -0.6271 C   0  0  0  0  0  0  0  0  0  0  0  0
    4.4508    2.0371   -0.1317 H   0  0  0  0  0  0  0  0  0  0  0  0
    4.7233   -0.0193   -0.7825 C   0  0  0  0  0  0  0  0  0  0  0  0
    4.1002   -1.0994   -1.4390 C   0  0  0  0  0  0  0  0  0  0  0  0
    4.6624   -2.0343   -1.5948 H   0  0  0  0  0  0  0  0  0  0  0  0
    2.7767   -1.0090   -1.8917 C   0  0  0  0  0  0  0  0  0  0  0  0
    2.3031   -1.8579   -2.4076 H   0  0  0  0  0  0  0  0  0  0  0  0
    6.1218   -0.1400   -0.2339 C   0  0  0  0  0  0  0  0  0  0  0  0
    6.0970   -0.4067    0.8451 H   0  0  0  0  0  0  0  0  0  0  0  0
    6.6790    0.8142   -0.3185 H   0  0  0  0  0  0  0  0  0  0  0  0
    6.7016   -0.9275   -0.7542 H   0  0  0  0  0  0  0  0  0  0  0  0
  1 25  1  0  0  0  0
  1  2  1  0  0  0  0
  2  3  1  0  0  0  0
  3 12  1  0  0  0  0
  4  6  1  0  0  0  0
  4  3  2  0  0  0  0
  5  4  1  0  0  0  0
  6  8  2  0  0  0  0
  7  6  1  0  0  0  0
  8  9  1  0  0  0  0
  8 10  1  0  0  0  0
 10 11  1  0  0  0  0
 12 10  2  0  0  0  0
 12 13  1  0  0  0  0
 14  2  1  0  0  0  0
 14 23  1  0  0  0  0
 15 14  2  0  0  0  0
 16 15  1  0  0  0  0
 17 15  1  0  0  0  0
 17 19  2  0  0  0  0
 18 17  1  0  0  0  0
 19 21  1  0  0  0  0
 20 19  1  0  0  0  0
 21 23  2  0  0  0  0
 21 22  1  0  0  0  0
 23 24  1  0  0  0  0
 25 26  1  0  0  0  0
 26 27  1  0  0  0  0
 26 28  2  0  0  0  0
 28 29  1  0  0  0  0
 30 28  1  0  0  0  0
 30 35  1  0  0  0  0
 31 30  2  0  0  0  0
 32 31  1  0  0  0  0
 33 25  2  0  0  0  0
 33 31  1  0  0  0  0
 34 33  1  0  0  0  0
 35 36  1  0  0  0  0
 37 35  1  0  0  0  0
 38 35  1  0  0  0  0
M  END
