2
q = 0.0, confidence = 0.968

 28 28  0  0  0  0  0  0  0  0999 V2000
   -1.9559   -1.6266   -0.2621 Si  0  0  0  0  0  3  0  0  0  0  0  0
   -1.9558    1.6266   -0.2621 Si  0  0  0  0  0  3  0  0  0  0  0  0
   -3.5961   -0.7064    0.0031 C   0  0  0  0  0  0  0  0  0  0  0  0
   -3.5961    0.7064    0.0029 C   0  0  0  0  0  0  0  0  0  0  0  0
   -4.8174    1.4013    0.1476 C   0  0  0  0  0  0  0  0  0  0  0  0
   -4.8330    2.5040    0.1484 H   0  0  0  0  0  0  0  0  0  0  0  0
   -6.0244    0.7027    0.2981 C   0  0  0  0  0  0  0  0  0  0  0  0
   -6.9698    1.2540    0.4193 H   0  0  0  0  0  0  0  0  0  0  0  0
   -6.0244   -0.7026    0.2983 C   0  0  0  0  0  0  0  0  0  0  0  0
   -6.9698   -1.2539    0.4196 H   0  0  0  0  0  0  0  0  0  0  0  0
   -4.8174   -1.4013    0.1480 C   0  0  0  0  0  0  0  0  0  0  0  0
   -4.8331   -2.5039    0.1490 H   0  0  0  0  0  0  0  0  0  0  0  0
   -1.9076   -3.0585    0.9943 C   0  0  0  0  0  0  0  0  0  0  0  0
   -1.0542   -3.7415    0.8034 H   0  0  0  0  0  0  0  0  0  0  0  0
   -1.8180   -2.6786    2.0322 H   0  0  0  0  0  0  0  0  0  0  0  0
   -2.8387   -3.6589    0.9327 H   0  0  0  0  0  0  0  0  0  0  0  0
   -1.9888   -2.3900   -2.0007 C   0  0  0  0  0  0  0  0  0  0  0  0
   -2.8512   -3.0828   -2.0898 H   0  0  0  0  0  0  0  0  0  0  0  0
   -2.1011   -1.6073   -2.7773 H   0  0  0  0  0  0  0  0  0  0  0  0
   -1.0624   -2.9601   -2.2157 H   0  0  0  0  0  0  0  0  0  0  0  0
   -1.9075    3.0582    0.9945 C   0  0  0  0  0  0  0  0  0  0  0  0
   -1.0540    3.7411    0.8038 H   0  0  0  0  0  0  0  0  0  0  0  0
   -2.8385    3.6588    0.9329 H   0  0  0  0  0  0  0  0  0  0  0  0
   -1.8180    2.6782    2.0324 H   0  0  0  0  0  0  0  0  0  0  0  0
   -1.9887    2.3903   -2.0006 C   0  0  0  0  0  0  0  0  0  0  0  0
   -2.1008    1.6078   -2.7774 H   0  0  0  0  0  0  0  0  0  0  0  0
   -2.8512    3.0830   -2.0896 H   0  0  0  0  0  0  0  0  0  0  0  0
   -1.0624    2.9606   -2.2154 H   0  0  0  0  0  0  0  0  0  0  0  0
  1  3  1  0  0  0  0
  1 13  1  0  0  0  0
  2  4  1  0  0  0  0
  2 21  1  0  0  0  0
  3 11  1  0  0  0  0
  4  3  2  0  0  0  0
  4  5  1  0  0  0  0
  5  6  1  0  0  0  0
  5  7  2  0  0  0  0
  7  9  1  0  0  0  0
  7  8  1  0  0  0  0
  9 10  1  0  0  0  0
 11 12  1  0  0  0  0
 11  9  2  0  0  0  0
 13 15  1  0  0  0  0
 14 13  1  0  0  0  0
 16 13  1  0  0  0  0
 17  1  1  0  0  0  0
 18 17  1  0  0  0  0
 19 17  1  0  0  0  0
 20 17  1  0  0  0  0
 21 24  1  0  0  0  0
 22 21  1  0  0  0  0
 23 21  1  0  0  0  0
 25  2  1  0  0  0  0
 26 25  1  0  0  0  0
 27 25  1  0  0  0  0
 28 25  1  0  0  0  0
M  END
