1
q = 0, confidence = 1.0

 27 26  0  0  0  0  0  0  0  0999 V2000
   -2.1462    0.2403    0.1140 Si  0  0  0  0  0  3  0  0  0  0  0  0
   -2.8839    1.7525    0.3625 O   0  0  0  0  0  0  0  0  0  0  0  0
   -3.2153   -0.6049   -0.8873 O   0  0  0  0  0  0  0  0  0  0  0  0
   -3.0536   -0.3402    1.7901 N   0  3  0  0  0  0  0  0  0  0  0  0
   -3.8896    0.2659    1.7206 H   0  0  0  0  0  0  0  0  0  0  0  0
   -2.2970    0.0692    2.9974 C   0  0  0  0  0  0  0  0  0  0  0  0
   -2.8865   -0.1385    3.9131 H   0  0  0  0  0  0  0  0  0  0  0  0
   -2.0673    1.1468    2.9254 H   0  0  0  0  0  0  0  0  0  0  0  0
   -1.3438   -0.4908    3.0238 H   0  0  0  0  0  0  0  0  0  0  0  0
   -3.4795   -1.7583    1.8333 C   0  0  0  0  0  0  0  0  0  0  0  0
   -4.0779   -1.9516    2.7465 H   0  0  0  0  0  0  0  0  0  0  0  0
   -2.5814   -2.4028    1.8362 H   0  0  0  0  0  0  0  0  0  0  0  0
   -4.0711   -1.9763    0.9280 H   0  0  0  0  0  0  0  0  0  0  0  0
   -2.4788    2.9468   -0.3011 C   0  0  0  0  0  0  0  0  0  0  0  0
   -1.3693    3.0467   -0.2649 H   0  0  0  0  0  0  0  0  0  0  0  0
   -2.8993    3.7940    0.2829 H   0  0  0  0  0  0  0  0  0  0  0  0
   -2.9644    3.0001   -1.7437 C   0  0  0  0  0  0  0  0  0  0  0  0
   -2.7116    3.9770   -2.2046 H   0  0  0  0  0  0  0  0  0  0  0  0
   -4.0632    2.8620   -1.7921 H   0  0  0  0  0  0  0  0  0  0  0  0
   -2.4860    2.2071   -2.3530 H   0  0  0  0  0  0  0  0  0  0  0  0
   -2.8754   -1.4017   -2.0185 C   0  0  0  0  0  0  0  0  0  0  0  0
   -1.7941   -1.2974   -2.2566 H   0  0  0  0  0  0  0  0  0  0  0  0
   -3.4408   -1.0054   -2.8915 H   0  0  0  0  0  0  0  0  0  0  0  0
   -3.2121   -2.8680   -1.7890 C   0  0  0  0  0  0  0  0  0  0  0  0
   -3.0047   -3.4587   -2.7048 H   0  0  0  0  0  0  0  0  0  0  0  0
   -4.2854   -2.9958   -1.5381 H   0  0  0  0  0  0  0  0  0  0  0  0
   -2.6004   -3.2886   -0.9660 H   0  0  0  0  0  0  0  0  0  0  0  0
  1  2  1  0  0  0  0
  1  4  1  0  0  0  0
  3  1  1  0  0  0  0
  4 10  1  0  0  0  0
  4  6  1  0  0  0  0
  5  4  1  0  0  0  0
  6  9  1  0  0  0  0
  6  7  1  0  0  0  0
  8  6  1  0  0  0  0
 10 12  1  0  0  0  0
 10 11  1  0  0  0  0
 13 10  1  0  0  0  0
 14 15  1  0  0  0  0
 14 16  1  0  0  0  0
 14  2  1  0  0  0  0
 17 14  1  0  0  0  0
 18 17  1  0  0  0  0
 19 17  1  0  0  0  0
 20 17  1  0  0  0  0
 21 24  1  0  0  0  0
 21  3  1  0  0  0  0
 22 21  1  0  0  0  0
 23 21  1  0  0  0  0
 24 26  1  0  0  0  0
 24 27  1  0  0  0  0
 25 24  1  0  0  0  0
M  CHG  1   4   1
M  END
