1
q = -1.0

 32 32  0  0  0  0  0  0  0  0999 V2000
   -0.0212    0.0140   -0.3904 Si  0  0  0  0  0  3  0  0  0  0  0  0
   -2.2929   -2.0804    0.0092 S   0  0  0  0  0  0  0  0  0  0  0  0
   -1.2749    1.4876    1.9986 S   0  0  0  0  0  0  0  0  0  0  0  0
   -0.8013    0.3067   -2.4167 S   0  0  0  0  0  0  0  0  0  0  0  0
   -0.8277   -1.4500    0.2293 O   0  0  0  0  0  0  0  0  0  0  0  0
   -3.3650   -1.1345    0.3378 O   0  0  0  0  0  1  0  0  0  0  0  0
   -2.3095   -2.8958   -1.2175 O   0  0  0  0  0  1  0  0  0  0  0  0
   -1.0880    1.2086    0.4443 O   0  0  0  0  0  0  0  0  0  0  0  0
   -0.3618    2.5547    2.4587 O   0  0  0  0  0  1  0  0  0  0  0  0
   -1.4102    0.2504    2.7849 O   0  0  0  0  0  1  0  0  0  0  0  0
   -3.3505   -4.0415    1.3896 F   0  0  0  0  0  0  0  0  0  0  0  0
   -2.1227   -2.7129    2.6071 F   0  0  0  0  0  0  0  0  0  0  0  0
   -1.1741   -4.1572    1.2680 F   0  0  0  0  0  0  0  0  0  0  0  0
   -3.9019    1.4418    1.5015 F   0  0  0  0  0  0  0  0  0  0  0  0
   -2.9308    3.3526    1.0766 F   0  0  0  0  0  0  0  0  0  0  0  0
   -3.2743    2.7334    3.1429 F   0  0  0  0  0  0  0  0  0  0  0  0
   -2.2198   -3.3273    1.4275 C   0  0  0  0  0  0  0  0  0  0  0  0
   -2.9785    2.3023    1.9100 C   0  0  0  0  0  0  0  0  0  0  0  0
   -2.5773    0.5407   -2.3211 C   0  0  0  0  0  0  0  0  0  0  0  0
   -3.1220    1.7183   -1.7771 C   0  0  0  0  0  0  0  0  0  0  0  0
   -4.5102    1.8815   -1.7166 C   0  0  0  0  0  0  0  0  0  0  0  0
   -5.3866    0.8948   -2.2130 C   0  0  0  0  0  0  0  0  0  0  0  0
   -4.8215   -0.2609   -2.7870 C   0  0  0  0  0  0  0  0  0  0  0  0
   -3.4342   -0.4466   -2.8397 C   0  0  0  0  0  0  0  0  0  0  0  0
   -6.8806    1.0573   -2.0964 C   0  0  0  0  0  0  0  0  0  0  0  0
   -2.4544    2.4955   -1.3826 H   0  0  0  0  0  0  0  0  0  0  0  0
   -4.9227    2.7978   -1.2650 H   0  0  0  0  0  0  0  0  0  0  0  0
   -5.4837   -1.0452   -3.1872 H   0  0  0  0  0  0  0  0  0  0  0  0
   -3.0101   -1.3719   -3.2525 H   0  0  0  0  0  0  0  0  0  0  0  0
   -7.4188    0.4697   -2.8660 H   0  0  0  0  0  0  0  0  0  0  0  0
   -7.1868    2.1182   -2.1922 H   0  0  0  0  0  0  0  0  0  0  0  0
   -7.2379    0.7040   -1.1048 H   0  0  0  0  0  0  0  0  0  0  0  0
  1  5  1  0  0  0  0
  1  8  1  0  0  0  0
  2  5  1  0  0  0  0
  2  6  1  0  0  0  0
  2 17  1  0  0  0  0
  3  9  1  0  0  0  0
  3 10  1  0  0  0  0
  4 19  1  0  0  0  0
  4  1  1  0  0  0  0
  7  2  1  0  0  0  0
  8  3  1  0  0  0  0
 11 17  1  0  0  0  0
 13 17  1  0  0  0  0
 14 18  1  0  0  0  0
 15 18  1  0  0  0  0
 17 12  1  0  0  0  0
 18  3  1  0  0  0  0
 18 16  1  0  0  0  0
 19 20  1  0  0  0  0
 20 21  2  0  0  0  0
 20 26  1  0  0  0  0
 21 27  1  0  0  0  0
 22 25  1  0  0  0  0
 22 21  1  0  0  0  0
 23 22  2  0  0  0  0
 24 23  1  0  0  0  0
 24 19  2  0  0  0  0
 25 32  1  0  0  0  0
 28 23  1  0  0  0  0
 29 24  1  0  0  0  0
 30 25  1  0  0  0  0
 31 25  1  0  0  0  0
M  END
