2
q = -1.0

 17 17  0  0  0  0  0  0  0  0999 V2000
    1.8994   -2.4919    0.8614 Cl  0  0  0  0  0  0  0  0  0  0  0  0
    1.9298   -0.3284    0.7173 Si  0  0  1  0  0  3  0  0  0  0  0  0
    1.7656    0.2037    2.5308 C   0  0  0  0  0  0  0  0  0  0  0  0
    3.7594    0.0566    0.3118 C   0  0  0  0  0  0  0  0  0  0  0  0
    4.1684    1.4112    0.2806 C   0  0  0  0  0  0  0  0  0  0  0  0
    5.4935    1.7644   -0.0185 C   0  0  0  0  0  0  0  0  0  0  0  0
    6.4421    0.7668   -0.2987 C   0  0  0  0  0  0  0  0  0  0  0  0
    6.0561   -0.5819   -0.2689 C   0  0  0  0  0  0  0  0  0  0  0  0
    4.7296   -0.9306    0.0358 C   0  0  0  0  0  0  0  0  0  0  0  0
    3.4405    2.2117    0.4923 H   0  0  0  0  0  0  0  0  0  0  0  0
    5.7880    2.8256   -0.0328 H   0  0  0  0  0  0  0  0  0  0  0  0
    7.4812    1.0417   -0.5372 H   0  0  0  0  0  0  0  0  0  0  0  0
    6.7944   -1.3711   -0.4817 H   0  0  0  0  0  0  0  0  0  0  0  0
    4.4385   -1.9930    0.0700 H   0  0  0  0  0  0  0  0  0  0  0  0
    2.6802   -0.1300    3.0611 H   0  0  0  0  0  0  0  0  0  0  0  0
    1.6966    1.3073    2.6075 H   0  0  0  0  0  0  0  0  0  0  0  0
    0.8863   -0.2395    3.0314 H   0  0  0  0  0  0  0  0  0  0  0  0
  2  1  1  1  0  0  0
  2  3  1  0  0  0  0
  3 16  1  0  0  0  0
  3 17  1  0  0  0  0
  3 15  1  0  0  0  0
  4  2  1  0  0  0  0
  5  4  1  0  0  0  0
  5 10  1  0  0  0  0
  6  5  2  0  0  0  0
  7  8  2  0  0  0  0
  7  6  1  0  0  0  0
  8  9  1  0  0  0  0
  9 14  1  0  0  0  0
  9  4  2  0  0  0  0
 11  6  1  0  0  0  0
 12  7  1  0  0  0  0
 13  8  1  0  0  0  0
M  END
