1,12
q = 0.0, confidence = 0.996

 42 44  0  0  1  0  0  0  0  0999 V2000
   -0.1876    1.1250    0.0001 C   0  0  0  0  0  2  0  0  0  0  0  0
   -1.4278    1.7148   -0.0001 N   0  0  0  0  0  0  0  0  0  0  0  0
   -1.3338    3.1133   -0.0002 C   0  0  0  0  0  0  0  0  0  0  0  0
   -0.0095    3.4499    0.0000 C   0  0  0  0  0  0  0  0  0  0  0  0
    0.6791    2.2347    0.0002 N   0  0  0  0  0  0  0  0  0  0  0  0
    2.0162    1.9154    0.0000 C   0  0  1  0  0  3  0  0  0  0  0  0
    2.9523    2.8649    0.0000 O   0  0  0  0  0  0  0  0  0  0  0  0
    4.2210    2.1310   -0.0004 C   0  0  0  0  0  0  0  0  0  0  0  0
    3.8399    0.6052   -0.0001 C   0  0  0  0  0  0  0  0  0  0  0  0
    4.3258   -0.1087    1.2663 C   0  0  0  0  0  0  0  0  0  0  0  0
    4.3258   -0.1091   -1.2663 C   0  0  0  0  0  0  0  0  0  0  0  0
    2.3565    0.6662   -0.0001 N   0  0  0  0  0  2  0  0  0  0  0  0
   -2.6623    0.9810   -0.0001 C   0  0  0  0  0  0  0  0  0  0  0  0
   -3.2319    0.6154    1.2378 C   0  0  0  0  0  0  0  0  0  0  0  0
   -4.4240   -0.1270    1.2095 C   0  0  0  0  0  0  0  0  0  0  0  0
   -5.0324   -0.5108   -0.0001 C   0  0  0  0  0  0  0  0  0  0  0  0
   -4.4238   -0.1273   -1.2098 C   0  0  0  0  0  0  0  0  0  0  0  0
   -3.2317    0.6151   -1.2381 C   0  0  0  0  0  0  0  0  0  0  0  0
   -2.5420    0.9597    2.5309 C   0  0  0  0  0  0  0  0  0  0  0  0
   -6.2776   -1.3600   -0.0001 C   0  0  0  0  0  0  0  0  0  0  0  0
   -2.5416    0.9590   -2.5312 C   0  0  0  0  0  0  0  0  0  0  0  0
   -2.2290    3.7418   -0.0003 H   0  0  0  0  0  0  0  0  0  0  0  0
    0.5007    4.4165    0.0001 H   0  0  0  0  0  0  0  0  0  0  0  0
    4.7811    2.4391    0.9043 H   0  0  0  0  0  0  0  0  0  0  0  0
    4.7803    2.4390   -0.9056 H   0  0  0  0  0  0  0  0  0  0  0  0
    5.4344   -0.1285    1.2960 H   0  0  0  0  0  0  0  0  0  0  0  0
    3.9540    0.4049    2.1755 H   0  0  0  0  0  0  0  0  0  0  0  0
    3.9421   -1.1481    1.2680 H   0  0  0  0  0  0  0  0  0  0  0  0
    5.4344   -0.1288   -1.2961 H   0  0  0  0  0  0  0  0  0  0  0  0
    3.9423   -1.1485   -1.2676 H   0  0  0  0  0  0  0  0  0  0  0  0
    3.9539    0.4041   -2.1756 H   0  0  0  0  0  0  0  0  0  0  0  0
   -4.8815   -0.4298    2.1648 H   0  0  0  0  0  0  0  0  0  0  0  0
   -4.8812   -0.4304   -2.1651 H   0  0  0  0  0  0  0  0  0  0  0  0
   -3.1492    0.6514    3.4023 H   0  0  0  0  0  0  0  0  0  0  0  0
   -1.5597    0.4432    2.5912 H   0  0  0  0  0  0  0  0  0  0  0  0
   -2.3362    2.0466    2.6177 H   0  0  0  0  0  0  0  0  0  0  0  0
   -6.8996   -1.1769    0.8979 H   0  0  0  0  0  0  0  0  0  0  0  0
   -6.8989   -1.1780   -0.8988 H   0  0  0  0  0  0  0  0  0  0  0  0
   -6.0102   -2.4386    0.0007 H   0  0  0  0  0  0  0  0  0  0  0  0
   -3.1490    0.6512   -3.4026 H   0  0  0  0  0  0  0  0  0  0  0  0
   -2.3350    2.0457   -2.6178 H   0  0  0  0  0  0  0  0  0  0  0  0
   -1.5596    0.4418   -2.5915 H   0  0  0  0  0  0  0  0  0  0  0  0
  1  5  1  0  0  0  0
  2  1  1  0  0  0  0
  3  2  1  0  0  0  0
  3  4  2  0  0  0  0
  4 23  1  0  0  0  0
  4  5  1  0  0  0  0
  6  7  1  0  0  0  0
  6  5  1  1  0  0  0
  8  9  1  0  0  0  0
  8  7  1  0  0  0  0
  8 24  1  0  0  0  0
  9 12  1  0  0  0  0
  9 10  1  0  0  0  0
 10 28  1  0  0  0  0
 10 26  1  0  0  0  0
 10 27  1  0  0  0  0
 11  9  1  0  0  0  0
 12  6  1  0  0  0  0
 13  2  1  0  0  0  0
 13 14  1  0  0  0  0
 14 19  1  0  0  0  0
 15 14  2  0  0  0  0
 15 32  1  0  0  0  0
 16 20  1  0  0  0  0
 16 15  1  0  0  0  0
 17 16  2  0  0  0  0
 18 17  1  0  0  0  0
 18 13  2  0  0  0  0
 19 35  1  0  0  0  0
 19 36  1  0  0  0  0
 19 34  1  0  0  0  0
 20 39  1  0  0  0  0
 20 37  1  0  0  0  0
 21 18  1  0  0  0  0
 22  3  1  0  0  0  0
 25  8  1  0  0  0  0
 29 11  1  0  0  0  0
 30 11  1  0  0  0  0
 31 11  1  0  0  0  0
 33 17  1  0  0  0  0
 38 20  1  0  0  0  0
 40 21  1  0  0  0  0
 41 21  1  0  0  0  0
 42 21  1  0  0  0  0
M  END
