11,28
q = -1.0, confidence = 0.0

 30 32  0  0  1  0  0  0  0  0999 V2000
    2.8763    1.7058   -0.4517 C   0  0  0  0  0  0  0  0  0  0  0  0
    3.6769    0.9527   -0.3472 H   0  0  0  0  0  0  0  0  0  0  0  0
    3.1000    3.0711   -0.6626 C   0  0  0  0  0  0  0  0  0  0  0  0
    4.1307    3.4397   -0.7541 H   0  0  0  0  0  0  0  0  0  0  0  0
    1.9953    3.9377   -0.7453 C   0  0  0  0  0  0  0  0  0  0  0  0
    2.1467    5.0160   -0.9049 H   0  0  0  0  0  0  0  0  0  0  0  0
    0.7020    3.4236   -0.6213 C   0  0  0  0  0  0  0  0  0  0  0  0
   -0.1948    4.0548   -0.6778 H   0  0  0  0  0  0  0  0  0  0  0  0
    0.5332    2.0393   -0.4227 C   0  0  0  0  0  0  0  0  0  0  0  0
   -0.7362    1.3515   -0.3306 C   0  0  0  0  0  0  0  0  0  0  0  0
   -0.7683   -0.0248   -0.2222 C   0  0  0  0  0  2  0  0  0  0  0  0
   -2.0538   -0.6831   -0.3881 C   0  0  0  0  0  0  0  0  0  0  0  0
   -3.2172    0.1381   -0.2856 C   0  0  0  0  0  0  0  0  0  0  0  0
   -3.0414    1.5698    0.1421 C   0  0  2  0  0  0  0  0  0  0  0  0
   -3.8525    2.2262   -0.2502 H   0  0  0  0  0  0  0  0  0  0  0  0
   -2.9900    2.9321    2.0752 C   0  0  0  0  0  0  0  0  0  0  0  0
   -2.0718    3.4990    1.8059 H   0  0  0  0  0  0  0  0  0  0  0  0
   -3.0388    2.8282    3.1750 H   0  0  0  0  0  0  0  0  0  0  0  0
   -3.8763    3.5120    1.7249 H   0  0  0  0  0  0  0  0  0  0  0  0
   -2.2264   -2.0372   -0.7648 C   0  0  0  0  0  0  0  0  0  0  0  0
   -1.3400   -2.6772   -0.8574 H   0  0  0  0  0  0  0  0  0  0  0  0
   -3.5038   -2.5525   -1.0071 C   0  0  0  0  0  0  0  0  0  0  0  0
   -3.6128   -3.6086   -1.2963 H   0  0  0  0  0  0  0  0  0  0  0  0
   -4.6412   -1.7352   -0.8923 C   0  0  0  0  0  0  0  0  0  0  0  0
   -5.6438   -2.1469   -1.0820 H   0  0  0  0  0  0  0  0  0  0  0  0
   -4.4901   -0.3872   -0.5360 C   0  0  0  0  0  0  0  0  0  0  0  0
   -5.3716    0.2670   -0.4460 H   0  0  0  0  0  0  0  0  0  0  0  0
    1.6266    1.2216   -0.3426 N   0  0  0  0  0  2  0  0  0  0  0  0
   -1.8481    2.1342   -0.4534 O   0  0  0  0  0  0  0  0  0  0  0  0
   -2.9807    1.6201    1.5330 O   0  0  0  0  0  0  0  0  0  0  0  0
  1  2  1  0  0  0  0
  1 28  1  0  0  0  0
  3  1  2  0  0  0  0
  4  3  1  0  0  0  0
  5  3  1  0  0  0  0
  5  7  2  0  0  0  0
  6  5  1  0  0  0  0
  7  9  1  0  0  0  0
  8  7  1  0  0  0  0
  9 28  1  0  0  0  0
  9 10  2  0  0  0  0
 10 11  1  0  0  0  0
 12 13  1  0  0  0  0
 12 11  1  0  0  0  0
 13 14  1  0  0  0  0
 14 15  1  6  0  0  0
 14 30  1  0  0  0  0
 16 18  1  0  0  0  0
 17 16  1  0  0  0  0
 19 16  1  0  0  0  0
 20 12  2  0  0  0  0
 21 20  1  0  0  0  0
 22 24  2  0  0  0  0
 22 20  1  0  0  0  0
 23 22  1  0  0  0  0
 24 26  1  0  0  0  0
 25 24  1  0  0  0  0
 26 27  1  0  0  0  0
 26 13  2  0  0  0  0
 29 10  1  0  0  0  0
 29 14  1  0  0  0  0
 30 16  1  0  0  0  0
M  END
