1,2
q = -1.0, confidence = 0.002

 20 21  0  0  1  0  0  0  0  0999 V2000
    1.6317    0.8825   -1.1381 C   0  0  0  0  0  3  0  0  0  0  0  0
    0.3371    1.8199    0.9536 N   0  0  0  0  0  2  0  0  0  0  0  0
    1.1945    2.7368    0.3864 C   0  0  2  0  0  3  0  0  0  0  0  0
    1.9085    2.2422   -0.7869 C   0  0  0  0  0  0  0  0  0  0  0  0
    3.2260    1.1116   -2.9817 C   0  0  0  0  0  0  0  0  0  0  0  0
    3.7509    0.6627   -3.8393 H   0  0  0  0  0  0  0  0  0  0  0  0
    2.8227    3.0157   -1.5371 C   0  0  0  0  0  0  0  0  0  0  0  0
    3.0272    4.0618   -1.2619 H   0  0  0  0  0  0  0  0  0  0  0  0
    1.3235    4.0163    0.9658 C   0  0  0  0  0  0  0  0  0  0  0  0
    2.0095    4.7431    0.5108 H   0  0  0  0  0  0  0  0  0  0  0  0
   -0.2646    3.3905    2.6761 C   0  0  0  0  0  0  0  0  0  0  0  0
   -0.8479    3.6033    3.5824 H   0  0  0  0  0  0  0  0  0  0  0  0
    3.4790    2.4525   -2.6347 C   0  0  0  0  0  0  0  0  0  0  0  0
    4.1932    3.0515   -3.2181 H   0  0  0  0  0  0  0  0  0  0  0  0
   -0.3648    2.1405    2.0653 C   0  0  0  0  0  0  0  0  0  0  0  0
   -1.0118    1.3465    2.4644 H   0  0  0  0  0  0  0  0  0  0  0  0
    2.3172    0.3376   -2.2431 C   0  0  0  0  0  0  0  0  0  0  0  0
    2.1485   -0.7098   -2.5350 H   0  0  0  0  0  0  0  0  0  0  0  0
    0.5965    4.3478    2.1103 C   0  0  0  0  0  0  0  0  0  0  0  0
    0.7028    5.3435    2.5655 H   0  0  0  0  0  0  0  0  0  0  0  0
  1  4  1  0  0  0  0
  2 15  1  0  0  0  0
  3  4  1  1  0  0  0
  3  2  1  0  0  0  0
  3  9  1  0  0  0  0
  5 13  2  0  0  0  0
  5 17  1  0  0  0  0
  6  5  1  0  0  0  0
  7  8  1  0  0  0  0
  7  4  2  0  0  0  0
  9 19  2  0  0  0  0
 10  9  1  0  0  0  0
 11 12  1  0  0  0  0
 13  7  1  0  0  0  0
 14 13  1  0  0  0  0
 15 16  1  0  0  0  0
 15 11  2  0  0  0  0
 17  1  2  0  0  0  0
 18 17  1  0  0  0  0
 19 20  1  0  0  0  0
 19 11  1  0  0  0  0
M  END
