2,3
q = -1.0, confidence = 0.002

 23 25  0  0  1  0  0  0  0  0999 V2000
    6.4475    0.3240    0.9842 S   0  0  0  0  0  0  0  0  0  0  0  0
    1.9875    0.1418    0.4830 N   0  0  0  0  0  2  0  0  0  0  0  0
    0.6330   -1.2168   -1.2733 C   0  0  0  0  0  3  0  0  0  0  0  0
    2.0586   -1.4005   -1.3128 C   0  0  0  0  0  0  0  0  0  0  0  0
    2.6200   -2.3735   -2.1753 C   0  0  0  0  0  0  0  0  0  0  0  0
    3.6985   -2.5706   -2.1754 H   0  0  0  0  0  0  0  0  0  0  0  0
    1.8040   -3.1394   -3.0116 C   0  0  0  0  0  0  0  0  0  0  0  0
    2.2530   -3.8960   -3.6721 H   0  0  0  0  0  0  0  0  0  0  0  0
    0.4084   -2.9519   -2.9889 C   0  0  0  0  0  0  0  0  0  0  0  0
   -0.2367   -3.5602   -3.6428 H   0  0  0  0  0  0  0  0  0  0  0  0
   -0.1653   -2.0115   -2.1244 C   0  0  0  0  0  0  0  0  0  0  0  0
   -1.2596   -1.8954   -2.1010 H   0  0  0  0  0  0  0  0  0  0  0  0
    2.8028   -0.5806   -0.3563 C   0  0  2  0  0  3  0  0  0  0  0  0
    4.2192   -0.4657   -0.1849 C   0  0  0  0  0  0  0  0  0  0  0  0
    5.3156   -0.9801   -0.9706 C   0  0  0  0  0  0  0  0  0  0  0  0
    5.2106   -1.5504   -1.8985 H   0  0  0  0  0  0  0  0  0  0  0  0
    6.5452   -0.6399   -0.4640 C   0  0  0  0  0  0  0  0  0  0  0  0
    7.5297   -0.8953   -0.8751 H   0  0  0  0  0  0  0  0  0  0  0  0
    4.7044    0.2991    0.9212 C   0  0  0  0  0  0  0  0  0  0  0  0
    3.8302    0.9566    1.8042 C   0  0  0  0  0  0  0  0  0  0  0  0
    4.1870    1.5405    2.6628 H   0  0  0  0  0  0  0  0  0  0  0  0
    2.4736    0.8633    1.5255 C   0  0  0  0  0  0  0  0  0  0  0  0
    1.7102    1.3683    2.1345 H   0  0  0  0  0  0  0  0  0  0  0  0
  2 22  1  0  0  0  0
  4  3  1  0  0  0  0
  5  4  2  0  0  0  0
  6  5  1  0  0  0  0
  7  9  2  0  0  0  0
  7  5  1  0  0  0  0
  8  7  1  0  0  0  0
  9 11  1  0  0  0  0
 10  9  1  0  0  0  0
 11 12  1  0  0  0  0
 11  3  2  0  0  0  0
 13  4  1  1  0  0  0
 13 14  1  0  0  0  0
 13  2  1  0  0  0  0
 14 19  2  0  0  0  0
 15 17  2  0  0  0  0
 15 14  1  0  0  0  0
 16 15  1  0  0  0  0
 17  1  1  0  0  0  0
 18 17  1  0  0  0  0
 19  1  1  0  0  0  0
 19 20  1  0  0  0  0
 20 21  1  0  0  0  0
 22 20  2  0  0  0  0
 22 23  1  0  0  0  0
M  END
