2,3
q = -2.0, confidence = 0.956

 36 37  0  0  1  0  0  0  0  0999 V2000
   -0.1129    2.2806   -0.1389 Si  0  0  0  0  0  0  0  0  0  0  0  0
   -0.5612    0.5924    0.1296 N   0  0  0  0  0  2  0  0  0  0  0  0
    1.6743    1.8370   -0.5387 C   0  0  1  0  0  3  0  0  0  0  0  0
    2.5745    1.4386    0.5060 C   0  0  0  0  0  0  0  0  0  0  0  0
    2.5373    1.7978    1.5423 H   0  0  0  0  0  0  0  0  0  0  0  0
    3.4562    0.4402    0.0150 C   0  0  0  0  0  0  0  0  0  0  0  0
    4.2396   -0.0751    0.5855 H   0  0  0  0  0  0  0  0  0  0  0  0
    3.1274    0.2140   -1.3517 C   0  0  0  0  0  0  0  0  0  0  0  0
    3.6356   -0.4969   -2.0145 H   0  0  0  0  0  0  0  0  0  0  0  0
    2.0411    1.0680   -1.6956 C   0  0  0  0  0  0  0  0  0  0  0  0
    1.5237    1.0862   -2.6640 H   0  0  0  0  0  0  0  0  0  0  0  0
   -0.2453    3.3345    1.4231 C   0  0  0  0  0  0  0  0  0  0  0  0
    0.3076    2.8813    2.2701 H   0  0  0  0  0  0  0  0  0  0  0  0
   -1.3071    3.4357    1.7293 H   0  0  0  0  0  0  0  0  0  0  0  0
    0.1571    4.3543    1.2506 H   0  0  0  0  0  0  0  0  0  0  0  0
   -1.0093    3.1670   -1.5418 C   0  0  0  0  0  0  0  0  0  0  0  0
   -0.7311    2.7604   -2.5331 H   0  0  0  0  0  0  0  0  0  0  0  0
   -0.7506    4.2458   -1.5255 H   0  0  0  0  0  0  0  0  0  0  0  0
   -2.1089    3.0773   -1.4257 H   0  0  0  0  0  0  0  0  0  0  0  0
   -1.8585    0.0304    0.1327 C   0  0  0  0  0  0  0  0  0  0  0  0
   -2.5173   -0.2431    1.3686 C   0  0  0  0  0  0  0  0  0  0  0  0
   -3.8092   -0.7987    1.3581 C   0  0  0  0  0  0  0  0  0  0  0  0
   -4.3077   -0.9975    2.3205 H   0  0  0  0  0  0  0  0  0  0  0  0
   -4.4595   -1.1059    0.1560 C   0  0  0  0  0  0  0  0  0  0  0  0
   -5.4691   -1.5436    0.1647 H   0  0  0  0  0  0  0  0  0  0  0  0
   -3.8038   -0.8613   -1.0560 C   0  0  0  0  0  0  0  0  0  0  0  0
   -4.2969   -1.1165   -2.0080 H   0  0  0  0  0  0  0  0  0  0  0  0
   -2.5136   -0.2979   -1.0942 C   0  0  0  0  0  0  0  0  0  0  0  0
   -1.8191    0.0231    2.6738 C   0  0  0  0  0  0  0  0  0  0  0  0
   -1.3992    1.0474    2.7180 H   0  0  0  0  0  0  0  0  0  0  0  0
   -0.9634   -0.6709    2.7982 H   0  0  0  0  0  0  0  0  0  0  0  0
   -2.5053   -0.1143    3.5315 H   0  0  0  0  0  0  0  0  0  0  0  0
   -1.8423   -0.0752   -2.4256 C   0  0  0  0  0  0  0  0  0  0  0  0
   -0.7494   -0.2385   -2.3509 H   0  0  0  0  0  0  0  0  0  0  0  0
   -1.9912    0.9602   -2.7944 H   0  0  0  0  0  0  0  0  0  0  0  0
   -2.2572   -0.7555   -3.1950 H   0  0  0  0  0  0  0  0  0  0  0  0
  1  2  1  0  0  0  0
  1 12  1  0  0  0  0
  2 20  1  0  0  0  0
  3  1  1  1  0  0  0
  3  4  1  0  0  0  0
  4  5  1  0  0  0  0
  6  4  2  0  0  0  0
  6  7  1  0  0  0  0
  8  6  1  0  0  0  0
  9  8  1  0  0  0  0
 10  8  2  0  0  0  0
 10  3  1  0  0  0  0
 11 10  1  0  0  0  0
 12 14  1  0  0  0  0
 12 13  1  0  0  0  0
 15 12  1  0  0  0  0
 16 18  1  0  0  0  0
 16 19  1  0  0  0  0
 16  1  1  0  0  0  0
 17 16  1  0  0  0  0
 20 21  1  0  0  0  0
 21 29  1  0  0  0  0
 22 21  2  0  0  0  0
 22 23  1  0  0  0  0
 24 25  1  0  0  0  0
 24 22  1  0  0  0  0
 26 24  2  0  0  0  0
 27 26  1  0  0  0  0
 28 26  1  0  0  0  0
 28 20  2  0  0  0  0
 29 30  1  0  0  0  0
 29 31  1  0  0  0  0
 29 32  1  0  0  0  0
 33 34  1  0  0  0  0
 33 28  1  0  0  0  0
 35 33  1  0  0  0  0
 36 33  1  0  0  0  0
M  END
