1,24
q = 0.0, confidence = 1.0

 48 49  0  0  0  0  0  0  0  0999 V2000
    2.8973    0.0937    0.0981 N   0  0  0  0  0  0  0  0  0  0  0  0
    3.1634   -0.8588   -0.2021 H   0  0  0  0  0  0  0  0  0  0  0  0
    0.4992   -0.9520    2.0961 N   0  0  0  0  0  0  0  0  0  0  0  0
   -1.5285   -0.5975    1.3851 N   0  0  0  0  0  0  0  0  0  0  0  0
    3.8893    1.0380   -0.5123 C   0  0  0  0  0  0  0  0  0  0  0  0
    5.3233    0.5269   -0.2708 C   0  0  0  0  0  0  0  0  0  0  0  0
    6.0658    1.2140   -0.7242 H   0  0  0  0  0  0  0  0  0  0  0  0
    5.4705   -0.4757   -0.7242 H   0  0  0  0  0  0  0  0  0  0  0  0
    5.5583    0.4579    0.8114 H   0  0  0  0  0  0  0  0  0  0  0  0
    3.5770    1.0421   -2.0167 C   0  0  0  0  0  0  0  0  0  0  0  0
    4.3069    1.6647   -2.5716 H   0  0  0  0  0  0  0  0  0  0  0  0
    2.5595    1.4478   -2.1883 H   0  0  0  0  0  0  0  0  0  0  0  0
    3.6127    0.0132   -2.4302 H   0  0  0  0  0  0  0  0  0  0  0  0
    3.7259    2.4499    0.0661 C   0  0  0  0  0  0  0  0  0  0  0  0
    4.3684    3.1538   -0.4988 H   0  0  0  0  0  0  0  0  0  0  0  0
    4.0365    2.5016    1.1292 H   0  0  0  0  0  0  0  0  0  0  0  0
    2.6739    2.7866   -0.0168 H   0  0  0  0  0  0  0  0  0  0  0  0
    2.7651    0.1007    1.5644 C   0  0  0  0  0  0  0  0  0  0  0  0
    2.2779    1.0464    1.8775 H   0  0  0  0  0  0  0  0  0  0  0  0
    3.7626    0.0614    2.0657 H   0  0  0  0  0  0  0  0  0  0  0  0
    1.9578   -1.0935    2.1128 C   0  0  0  0  0  0  0  0  0  0  0  0
    2.2232   -2.0166    1.5528 H   0  0  0  0  0  0  0  0  0  0  0  0
    2.2411   -1.2465    3.1724 H   0  0  0  0  0  0  0  0  0  0  0  0
   -0.2227   -0.6075    0.9776 C   0  0  0  0  0  2  0  0  0  0  0  0
   -0.3469   -1.1724    3.1787 C   0  0  0  0  0  0  0  0  0  0  0  0
    0.0248   -1.4746    4.1623 H   0  0  0  0  0  0  0  0  0  0  0  0
   -1.6223   -0.9510    2.7325 C   0  0  0  0  0  0  0  0  0  0  0  0
   -2.5878   -1.0256    3.2401 H   0  0  0  0  0  0  0  0  0  0  0  0
   -3.2909    1.0019    0.7943 C   0  0  0  0  0  0  0  0  0  0  0  0
   -4.3929    1.3278   -0.0150 C   0  0  0  0  0  0  0  0  0  0  0  0
   -4.8920    2.2974    0.1418 H   0  0  0  0  0  0  0  0  0  0  0  0
   -4.8644    0.4625   -1.0187 C   0  0  0  0  0  0  0  0  0  0  0  0
   -4.2164   -0.7738   -1.1911 C   0  0  0  0  0  0  0  0  0  0  0  0
   -4.5832   -1.4746   -1.9581 H   0  0  0  0  0  0  0  0  0  0  0  0
   -3.1115   -1.1549   -0.4089 C   0  0  0  0  0  0  0  0  0  0  0  0
   -2.6572   -0.2406    0.5669 C   0  0  0  0  0  0  0  0  0  0  0  0
   -2.8033    1.9504    1.8583 C   0  0  0  0  0  0  0  0  0  0  0  0
   -2.9878    1.5600    2.8811 H   0  0  0  0  0  0  0  0  0  0  0  0
   -3.3141    2.9281    1.7748 H   0  0  0  0  0  0  0  0  0  0  0  0
   -1.7122    2.1203    1.7547 H   0  0  0  0  0  0  0  0  0  0  0  0
   -6.0173    0.8609   -1.9053 C   0  0  0  0  0  0  0  0  0  0  0  0
   -6.6064   -0.0192   -2.2311 H   0  0  0  0  0  0  0  0  0  0  0  0
   -5.6503    1.3654   -2.8250 H   0  0  0  0  0  0  0  0  0  0  0  0
   -6.7011    1.5682   -1.3961 H   0  0  0  0  0  0  0  0  0  0  0  0
   -2.4445   -2.4882   -0.6049 C   0  0  0  0  0  0  0  0  0  0  0  0
   -3.0596   -3.1482   -1.2451 H   0  0  0  0  0  0  0  0  0  0  0  0
   -2.2669   -3.0033    0.3612 H   0  0  0  0  0  0  0  0  0  0  0  0
   -1.4454   -2.3748   -1.0772 H   0  0  0  0  0  0  0  0  0  0  0  0
  1 18  1  0  0  0  0
  2  1  1  0  0  0  0
  3 21  1  0  0  0  0
  3 25  1  0  0  0  0
  4 27  1  0  0  0  0
  5  6  1  0  0  0  0
  5 14  1  0  0  0  0
  5  1  1  0  0  0  0
  6  9  1  0  0  0  0
  7  6  1  0  0  0  0
  8  6  1  0  0  0  0
 10  5  1  0  0  0  0
 11 10  1  0  0  0  0
 12 10  1  0  0  0  0
 13 10  1  0  0  0  0
 14 16  1  0  0  0  0
 15 14  1  0  0  0  0
 17 14  1  0  0  0  0
 18 19  1  0  0  0  0
 18 20  1  0  0  0  0
 18 21  1  0  0  0  0
 21 23  1  0  0  0  0
 22 21  1  0  0  0  0
 24  4  1  0  0  0  0
 24  3  1  0  0  0  0
 25 26  1  0  0  0  0
 27 25  2  0  0  0  0
 27 28  1  0  0  0  0
 29 37  1  0  0  0  0
 30 31  1  0  0  0  0
 30 29  2  0  0  0  0
 32 30  1  0  0  0  0
 33 32  2  0  0  0  0
 33 35  1  0  0  0  0
 34 33  1  0  0  0  0
 35 36  2  0  0  0  0
 36 29  1  0  0  0  0
 36  4  1  0  0  0  0
 37 38  1  0  0  0  0
 39 37  1  0  0  0  0
 40 37  1  0  0  0  0
 41 44  1  0  0  0  0
 41 32  1  0  0  0  0
 42 41  1  0  0  0  0
 43 41  1  0  0  0  0
 45 35  1  0  0  0  0
 45 47  1  0  0  0  0
 46 45  1  0  0  0  0
 48 45  1  0  0  0  0
M  END
