1,24
q = -1.0, confidence = 0.004

 35 38  0  0  1  0  0  0  0  0999 V2000
    1.6679   -1.0708    0.1027 N   0  0  0  0  0  2  0  0  0  0  0  0
    1.7920   -2.2843    0.7476 C   0  0  1  0  0  3  0  0  0  0  0  0
    0.6734   -2.9668    1.2950 C   0  0  0  0  0  0  0  0  0  0  0  0
   -0.3100   -2.4764    1.2905 H   0  0  0  0  0  0  0  0  0  0  0  0
    0.8426   -4.2397    1.8273 C   0  0  0  0  0  0  0  0  0  0  0  0
   -0.0320   -4.7663    2.2375 H   0  0  0  0  0  0  0  0  0  0  0  0
    2.1149   -4.8686    1.8481 C   0  0  0  0  0  0  0  0  0  0  0  0
    2.2197   -5.8774    2.2747 H   0  0  0  0  0  0  0  0  0  0  0  0
    3.2259   -4.2055    1.3468 C   0  0  0  0  0  0  0  0  0  0  0  0
    4.2341   -4.6432    1.3674 H   0  0  0  0  0  0  0  0  0  0  0  0
    3.0932   -2.9002    0.7984 C   0  0  0  0  0  0  0  0  0  0  0  0
    4.2053   -2.2292    0.3943 N   0  0  0  0  0  0  0  0  0  0  0  0
    4.0700   -1.0395   -0.1726 C   0  0  0  0  0  0  0  0  0  0  0  0
    2.7609   -0.5027   -0.4908 C   0  0  0  0  0  0  0  0  0  0  0  0
    2.4331    0.5317   -1.4684 C   0  0  0  0  0  0  0  0  0  0  0  0
    3.3329    1.0838   -2.4174 C   0  0  0  0  0  0  0  0  0  0  0  0
    4.3942    0.8058   -2.4067 H   0  0  0  0  0  0  0  0  0  0  0  0
    2.8649    1.9625   -3.3950 C   0  0  0  0  0  0  0  0  0  0  0  0
    3.5650    2.3801   -4.1337 H   0  0  0  0  0  0  0  0  0  0  0  0
    1.4951    2.2955   -3.4471 C   0  0  0  0  0  0  0  0  0  0  0  0
    1.1283    2.9810   -4.2274 H   0  0  0  0  0  0  0  0  0  0  0  0
    0.5936    1.7443   -2.5293 C   0  0  0  0  0  0  0  0  0  0  0  0
   -0.4756    1.9944   -2.6002 H   0  0  0  0  0  0  0  0  0  0  0  0
    1.0351    0.8589   -1.5194 C   0  0  0  0  0  3  0  0  0  0  0  0
    5.3310   -0.2811   -0.3902 C   0  0  0  0  0  0  0  0  0  0  0  0
    6.4837   -0.9604   -0.8369 C   0  0  0  0  0  0  0  0  0  0  0  0
    6.4071   -2.0345   -1.0589 H   0  0  0  0  0  0  0  0  0  0  0  0
    7.6965   -0.2754   -0.9885 C   0  0  0  0  0  0  0  0  0  0  0  0
    8.5855   -0.8123   -1.3529 H   0  0  0  0  0  0  0  0  0  0  0  0
    7.7804    1.0904   -0.6721 C   0  0  0  0  0  0  0  0  0  0  0  0
    8.7343    1.6269   -0.7876 H   0  0  0  0  0  0  0  0  0  0  0  0
    6.6445    1.7679   -0.1986 C   0  0  0  0  0  0  0  0  0  0  0  0
    6.7087    2.8334    0.0688 H   0  0  0  0  0  0  0  0  0  0  0  0
    5.4276    1.0885   -0.0612 C   0  0  0  0  0  0  0  0  0  0  0  0
    4.5399    1.6194    0.3122 H   0  0  0  0  0  0  0  0  0  0  0  0
  2  1  1  6  0  0  0
  2 11  1  0  0  0  0
  2  3  1  0  0  0  0
  3  5  2  0  0  0  0
  4  3  1  0  0  0  0
  5  7  1  0  0  0  0
  5  6  1  0  0  0  0
  7  8  1  0  0  0  0
  9 10  1  0  0  0  0
  9  7  2  0  0  0  0
 11  9  1  0  0  0  0
 12 11  2  0  0  0  0
 13 12  1  0  0  0  0
 14 13  2  0  0  0  0
 14  1  1  0  0  0  0
 15 14  1  0  0  0  0
 16 17  1  0  0  0  0
 16 15  2  0  0  0  0
 18 16  1  0  0  0  0
 19 18  1  0  0  0  0
 20 18  2  0  0  0  0
 20 22  1  0  0  0  0
 21 20  1  0  0  0  0
 22 24  2  0  0  0  0
 23 22  1  0  0  0  0
 24 15  1  0  0  0  0
 25 13  1  0  0  0  0
 25 34  1  0  0  0  0
 26 25  2  0  0  0  0
 27 26  1  0  0  0  0
 28 26  1  0  0  0  0
 28 30  2  0  0  0  0
 29 28  1  0  0  0  0
 30 32  1  0  0  0  0
 31 30  1  0  0  0  0
 32 34  2  0  0  0  0
 32 33  1  0  0  0  0
 34 35  1  0  0  0  0
M  END
