1,12
q = -1.0, confidence = 0.0

 23 24  0  0  0  0  0  0  0  0999 V2000
   -1.2342    1.0833    0.0003 N   0  0  0  0  0  2  0  0  0  0  0  0
   -2.5329    1.4554    0.0003 C   0  0  0  0  0  0  0  0  0  0  0  0
   -2.9262    2.7972   -0.0001 C   0  0  0  0  0  0  0  0  0  0  0  0
   -1.9318    3.7899   -0.0006 C   0  0  0  0  0  0  0  0  0  0  0  0
   -0.5891    3.4044   -0.0006 C   0  0  0  0  0  0  0  0  0  0  0  0
   -0.2403    2.0361   -0.0001 C   0  0  0  0  0  0  0  0  0  0  0  0
    1.1227    1.5037    0.0000 C   0  0  0  0  0  0  0  0  0  0  0  0
    2.2743    2.3249    0.0003 C   0  0  0  0  0  3  0  0  0  0  0  0
    3.5470    1.7525    0.0003 C   0  0  0  0  0  0  0  0  0  0  0  0
    3.6960    0.3438    0.0000 C   0  0  0  0  0  0  0  0  0  0  0  0
    2.5434   -0.4628   -0.0002 C   0  0  0  0  0  0  0  0  0  0  0  0
    1.2357    0.0751   -0.0001 C   0  0  0  0  0  3  0  0  0  0  0  0
    5.0745   -0.2717    0.0001 C   0  0  0  0  0  0  0  0  0  0  0  0
   -3.2551    0.6219    0.0007 H   0  0  0  0  0  0  0  0  0  0  0  0
   -3.9964    3.0489   -0.0001 H   0  0  0  0  0  0  0  0  0  0  0  0
   -2.2020    4.8575   -0.0011 H   0  0  0  0  0  0  0  0  0  0  0  0
    0.2086    4.1600   -0.0010 H   0  0  0  0  0  0  0  0  0  0  0  0
    2.1802    3.4234    0.0006 H   0  0  0  0  0  0  0  0  0  0  0  0
    4.4409    2.3981    0.0006 H   0  0  0  0  0  0  0  0  0  0  0  0
    2.6554   -1.5595   -0.0004 H   0  0  0  0  0  0  0  0  0  0  0  0
    5.0205   -1.3776   -0.0014 H   0  0  0  0  0  0  0  0  0  0  0  0
    5.6610    0.0433   -0.8901 H   0  0  0  0  0  0  0  0  0  0  0  0
    5.6597    0.0408    0.8921 H   0  0  0  0  0  0  0  0  0  0  0  0
  1  2  1  0  0  0  0
  2 14  1  0  0  0  0
  3 15  1  0  0  0  0
  3  2  2  0  0  0  0
  4  5  2  0  0  0  0
  4  3  1  0  0  0  0
  5  6  1  0  0  0  0
  6  7  2  0  0  0  0
  6  1  1  0  0  0  0
  7  8  1  0  0  0  0
  8  9  1  0  0  0  0
  8 18  1  0  0  0  0
  9 19  1  0  0  0  0
 10 13  1  0  0  0  0
 10  9  2  0  0  0  0
 11 12  2  0  0  0  0
 11 10  1  0  0  0  0
 12  7  1  0  0  0  0
 13 23  1  0  0  0  0
 16  4  1  0  0  0  0
 17  5  1  0  0  0  0
 20 11  1  0  0  0  0
 21 13  1  0  0  0  0
 22 13  1  0  0  0  0
M  END
