2,13
q = -1.0, confidence = 0.0

 23 25  0  0  1  0  0  0  0  0999 V2000
   -3.7257    2.2842   -0.9166 S   0  0  0  0  0  0  0  0  0  0  0  0
   -2.2119   -1.3739   -0.1398 N   0  0  0  0  0  2  0  0  0  0  0  0
   -3.1961   -0.4721   -0.4742 C   0  0  1  0  0  3  0  0  0  0  0  0
   -4.5249   -0.9115   -0.6793 C   0  0  0  0  0  0  0  0  0  0  0  0
   -5.2963   -0.1772   -0.9528 H   0  0  0  0  0  0  0  0  0  0  0  0
   -4.8310   -2.2658   -0.5432 C   0  0  0  0  0  0  0  0  0  0  0  0
   -5.8606   -2.6186   -0.7052 H   0  0  0  0  0  0  0  0  0  0  0  0
   -3.8108   -3.1745   -0.2038 C   0  0  0  0  0  0  0  0  0  0  0  0
   -4.0090   -4.2491   -0.0914 H   0  0  0  0  0  0  0  0  0  0  0  0
   -2.5167   -2.6788   -0.0158 C   0  0  0  0  0  0  0  0  0  0  0  0
   -1.6804   -3.3462    0.2445 H   0  0  0  0  0  0  0  0  0  0  0  0
   -2.7161    0.8805   -0.5706 C   0  0  0  0  0  0  0  0  0  0  0  0
   -1.3595    1.1661   -0.3788 C   0  0  0  0  0  3  0  0  0  0  0  0
   -1.1219    2.5874   -0.5018 C   0  0  0  0  0  0  0  0  0  0  0  0
    0.0879    3.3152   -0.3761 C   0  0  0  0  0  0  0  0  0  0  0  0
    1.0161    2.7735   -0.1572 H   0  0  0  0  0  0  0  0  0  0  0  0
    0.0926    4.7013   -0.5347 C   0  0  0  0  0  0  0  0  0  0  0  0
    1.0381    5.2554   -0.4370 H   0  0  0  0  0  0  0  0  0  0  0  0
   -1.1015    5.4011   -0.8238 C   0  0  0  0  0  0  0  0  0  0  0  0
   -1.0790    6.4945   -0.9483 H   0  0  0  0  0  0  0  0  0  0  0  0
   -2.3159    4.7195   -0.9569 C   0  0  0  0  0  0  0  0  0  0  0  0
   -3.2456    5.2620   -1.1839 H   0  0  0  0  0  0  0  0  0  0  0  0
   -2.3198    3.3234   -0.7947 C   0  0  0  0  0  0  0  0  0  0  0  0
  1 23  1  0  0  0  0
  1 12  1  0  0  0  0
  2 10  1  0  0  0  0
  3 12  1  1  0  0  0
  3  2  1  0  0  0  0
  4  6  2  0  0  0  0
  4  3  1  0  0  0  0
  5  4  1  0  0  0  0
  6  8  1  0  0  0  0
  7  6  1  0  0  0  0
  8  9  1  0  0  0  0
  8 10  2  0  0  0  0
 10 11  1  0  0  0  0
 12 13  2  0  0  0  0
 14 13  1  0  0  0  0
 14 15  1  0  0  0  0
 15 16  1  0  0  0  0
 17 18  1  0  0  0  0
 17 15  2  0  0  0  0
 19 17  1  0  0  0  0
 20 19  1  0  0  0  0
 21 19  2  0  0  0  0
 21 23  1  0  0  0  0
 22 21  1  0  0  0  0
 23 14  2  0  0  0  0
M  END
