1,20
q = -1.0, confidence = 0.002

 22 24  0  0  0  0  0  0  0  0999 V2000
   -1.2365   -1.4315   -0.0668 N   0  0  0  0  0  2  0  0  0  0  0  0
   -1.1594   -2.7685   -0.1120 C   0  0  0  0  0  0  0  0  0  0  0  0
   -0.1490   -3.2027   -0.1418 H   0  0  0  0  0  0  0  0  0  0  0  0
   -2.3069   -3.5889   -0.1230 C   0  0  0  0  0  0  0  0  0  0  0  0
   -2.1854   -4.6806   -0.1596 H   0  0  0  0  0  0  0  0  0  0  0  0
   -3.5715   -3.0026   -0.0893 C   0  0  0  0  0  0  0  0  0  0  0  0
   -4.4808   -3.6237   -0.0957 H   0  0  0  0  0  0  0  0  0  0  0  0
   -3.6851   -1.5910   -0.0531 C   0  0  0  0  0  0  0  0  0  0  0  0
   -4.9262   -0.8618   -0.0305 C   0  0  0  0  0  3  0  0  0  0  0  0
   -5.8691   -1.4297   -0.0303 H   0  0  0  0  0  0  0  0  0  0  0  0
   -4.9388    0.5164   -0.0152 C   0  0  0  0  0  0  0  0  0  0  0  0
   -5.8998    1.0546   -0.0028 H   0  0  0  0  0  0  0  0  0  0  0  0
   -3.7231    1.2903   -0.0213 C   0  0  0  0  0  0  0  0  0  0  0  0
   -3.6812    2.7078   -0.0254 C   0  0  0  0  0  0  0  0  0  0  0  0
   -4.6209    3.2809   -0.0160 H   0  0  0  0  0  0  0  0  0  0  0  0
   -2.4477    3.3604   -0.0461 C   0  0  0  0  0  0  0  0  0  0  0  0
   -2.4212    4.4617   -0.0535 H   0  0  0  0  0  0  0  0  0  0  0  0
   -1.2222    2.6460   -0.0571 C   0  0  0  0  0  0  0  0  0  0  0  0
   -0.2764    3.2057   -0.0761 H   0  0  0  0  0  0  0  0  0  0  0  0
   -1.2112    1.2479   -0.0434 C   0  0  0  0  0  3  0  0  0  0  0  0
   -2.4777    0.5899   -0.0311 C   0  0  0  0  0  0  0  0  0  0  0  0
   -2.4741   -0.8373   -0.0459 C   0  0  0  0  0  0  0  0  0  0  0  0
  1 22  1  0  0  0  0
  2  1  1  0  0  0  0
  3  2  1  0  0  0  0
  4  2  2  0  0  0  0
  4  6  1  0  0  0  0
  5  4  1  0  0  0  0
  6  8  2  0  0  0  0
  7  6  1  0  0  0  0
  8 22  1  0  0  0  0
  8  9  1  0  0  0  0
  9 10  1  0  0  0  0
  9 11  1  0  0  0  0
 11 12  1  0  0  0  0
 13 11  2  0  0  0  0
 14 13  1  0  0  0  0
 14 15  1  0  0  0  0
 16 14  2  0  0  0  0
 17 16  1  0  0  0  0
 18 16  1  0  0  0  0
 18 20  2  0  0  0  0
 19 18  1  0  0  0  0
 20 21  1  0  0  0  0
 21 13  1  0  0  0  0
 22 21  2  0  0  0  0
M  END
