1,13
q = -1.0, confidence = 0.0

 19 20  0  0  1  0  0  0  0  0999 V2000
   -0.3714    1.5542   -0.6699 N   0  0  0  0  0  2  0  0  0  0  0  0
   -0.6218    2.4435   -1.6230 C   0  0  0  0  0  0  0  0  0  0  0  0
   -0.6784    2.0742   -2.6596 H   0  0  0  0  0  0  0  0  0  0  0  0
   -0.8086    3.8342   -1.3425 C   0  0  0  0  0  0  0  0  0  0  0  0
   -1.0910    4.7785   -2.4820 C   0  0  0  0  0  0  0  0  0  0  0  0
   -2.0167    4.4928   -3.0245 H   0  0  0  0  0  0  0  0  0  0  0  0
   -0.2682    4.7698   -3.2274 H   0  0  0  0  0  0  0  0  0  0  0  0
   -1.2143    5.8188   -2.1248 H   0  0  0  0  0  0  0  0  0  0  0  0
   -0.7148    4.2638   -0.0189 C   0  0  0  0  0  0  0  0  0  0  0  0
   -0.8479    5.3319    0.2213 H   0  0  0  0  0  0  0  0  0  0  0  0
   -0.4386    3.3339    1.0260 C   0  0  0  0  0  0  0  0  0  0  0  0
   -0.2812    1.9760    0.6361 C   0  0  2  0  0  3  0  0  0  0  0  0
    0.0095    0.8693    1.4866 C   0  0  0  0  0  3  0  0  0  0  0  0
    0.1765    1.2068    2.8340 C   0  0  0  0  0  0  0  0  0  0  0  0
    0.4228    0.4401    3.5876 H   0  0  0  0  0  0  0  0  0  0  0  0
    0.0248    2.5564    3.2803 C   0  0  0  0  0  0  0  0  0  0  0  0
    0.1558    2.7727    4.3532 H   0  0  0  0  0  0  0  0  0  0  0  0
   -0.2834    3.6072    2.4182 C   0  0  0  0  0  0  0  0  0  0  0  0
   -0.3958    4.6358    2.7935 H   0  0  0  0  0  0  0  0  0  0  0  0
  1 12  1  0  0  0  0
  2  4  2  0  0  0  0
  2  1  1  0  0  0  0
  3  2  1  0  0  0  0
  4  9  1  0  0  0  0
  5  8  1  0  0  0  0
  5  4  1  0  0  0  0
  6  5  1  0  0  0  0
  7  5  1  0  0  0  0
  9 10  1  0  0  0  0
  9 11  2  0  0  0  0
 11 18  1  0  0  0  0
 12 11  1  0  0  0  0
 12 13  1  6  0  0  0
 13 14  2  0  0  0  0
 14 16  1  0  0  0  0
 14 15  1  0  0  0  0
 16 17  1  0  0  0  0
 18 19  1  0  0  0  0
 18 16  2  0  0  0  0
M  END
