1,15
q = 0.0, confidence = 0.964

 33 35  0  0  1  0  0  0  0  0999 V2000
   -2.0562   -1.2779    0.2802 N   0  0  0  0  0  2  0  0  0  0  0  0
   -0.1121    0.8318   -2.4009 N   0  0  0  0  0  0  0  0  0  0  0  0
   -1.0697    1.4641   -3.0958 N   0  0  0  0  0  2  0  0  0  0  0  0
   -2.2030    1.0686   -2.5347 N   0  0  0  0  0  0  0  0  0  0  0  0
   -2.8276   -0.5464   -0.5981 C   0  0  2  0  0  3  0  0  0  0  0  0
   -4.2291   -0.6158   -0.5635 C   0  0  0  0  0  0  0  0  0  0  0  0
   -4.8271   -0.0301   -1.2720 H   0  0  0  0  0  0  0  0  0  0  0  0
   -4.8486   -1.4414    0.3808 C   0  0  0  0  0  0  0  0  0  0  0  0
   -5.9453   -1.5133    0.4180 H   0  0  0  0  0  0  0  0  0  0  0  0
   -4.0510   -2.1796    1.2676 C   0  0  0  0  0  0  0  0  0  0  0  0
   -4.4956   -2.8513    2.0150 H   0  0  0  0  0  0  0  0  0  0  0  0
   -2.6577   -2.0808    1.1833 C   0  0  0  0  0  0  0  0  0  0  0  0
   -1.9618   -2.6616    1.8148 H   0  0  0  0  0  0  0  0  0  0  0  0
   -1.9828    0.2106   -1.4933 C   0  0  0  0  0  0  0  0  0  0  0  0
   -0.5874    0.0454   -1.3825 C   0  0  0  0  0  3  0  0  0  0  0  0
    1.2768    1.0120   -2.8113 C   0  0  0  0  0  0  0  0  0  0  0  0
    1.2401    1.4749   -3.8178 H   0  0  0  0  0  0  0  0  0  0  0  0
    1.7193    0.0027   -2.9193 H   0  0  0  0  0  0  0  0  0  0  0  0
   -3.4609    1.5658   -3.0724 C   0  0  0  0  0  0  0  0  0  0  0  0
   -3.2218    2.2695   -3.8879 H   0  0  0  0  0  0  0  0  0  0  0  0
   -4.0199    2.0875   -2.2724 H   0  0  0  0  0  0  0  0  0  0  0  0
   -4.0572    0.7228   -3.4712 H   0  0  0  0  0  0  0  0  0  0  0  0
    2.0865    1.8595   -1.8523 C   0  0  0  0  0  0  0  0  0  0  0  0
    1.4789    2.8528   -1.0627 C   0  0  0  0  0  0  0  0  0  0  0  0
    0.3915    3.0025   -1.1229 H   0  0  0  0  0  0  0  0  0  0  0  0
    3.4814    1.6912   -1.7895 C   0  0  0  0  0  0  0  0  0  0  0  0
    3.9666    0.9140   -2.4005 H   0  0  0  0  0  0  0  0  0  0  0  0
    4.2573    2.5053   -0.9509 C   0  0  0  0  0  0  0  0  0  0  0  0
    5.3492    2.3718   -0.9209 H   0  0  0  0  0  0  0  0  0  0  0  0
    3.6444    3.4873   -0.1553 C   0  0  0  0  0  0  0  0  0  0  0  0
    4.2547    4.1368    0.4908 H   0  0  0  0  0  0  0  0  0  0  0  0
    2.2507    3.6569   -0.2108 C   0  0  0  0  0  0  0  0  0  0  0  0
    1.7642    4.4345    0.3977 H   0  0  0  0  0  0  0  0  0  0  0  0
  1 12  1  0  0  0  0
  2 15  1  0  0  0  0
  3  4  1  0  0  0  0
  3  2  1  0  0  0  0
  4 14  1  0  0  0  0
  5 14  1  6  0  0  0
  5  6  1  0  0  0  0
  5  1  1  0  0  0  0
  6  8  2  0  0  0  0
  7  6  1  0  0  0  0
  8  9  1  0  0  0  0
  8 10  1  0  0  0  0
 10 11  1  0  0  0  0
 12 10  2  0  0  0  0
 12 13  1  0  0  0  0
 14 15  2  0  0  0  0
 16  2  1  0  0  0  0
 16 23  1  0  0  0  0
 17 16  1  0  0  0  0
 18 16  1  0  0  0  0
 19  4  1  0  0  0  0
 19 21  1  0  0  0  0
 20 19  1  0  0  0  0
 22 19  1  0  0  0  0
 23 26  2  0  0  0  0
 23 24  1  0  0  0  0
 24 32  2  0  0  0  0
 25 24  1  0  0  0  0
 26 28  1  0  0  0  0
 27 26  1  0  0  0  0
 28 29  1  0  0  0  0
 28 30  2  0  0  0  0
 30 31  1  0  0  0  0
 32 30  1  0  0  0  0
 32 33  1  0  0  0  0
M  END
