2,3
q = -1.0, confidence = 0.0

 25 25  0  0  1  0  0  0  0  0999 V2000
    5.7644    0.7624   -0.2580 Cl  0  0  0  0  0  0  0  0  0  0  0  0
    2.3864   -2.1332    0.1841 N   0  0  0  0  0  0  0  0  0  0  0  0
    1.7424    0.5150    0.3391 C   0  0  0  0  0  3  0  0  0  0  0  0
    3.0908    0.1830    0.0248 C   0  0  0  0  0  0  0  0  0  0  0  0
    4.1023    1.1471    0.1864 C   0  0  0  0  0  0  0  0  0  0  0  0
    3.8285    2.4270    0.6916 C   0  0  0  0  0  0  0  0  0  0  0  0
    2.5080    2.7363    1.0427 C   0  0  0  0  0  0  0  0  0  0  0  0
    1.4796    1.7959    0.8668 C   0  0  0  0  0  0  0  0  0  0  0  0
    3.3569   -1.2067   -0.5034 C   0  0  2  0  0  0  0  0  0  0  0  0
    3.2252   -1.2223   -2.0298 C   0  0  0  0  0  0  0  0  0  0  0  0
    2.7606   -2.3031    1.6067 C   0  0  0  0  0  0  0  0  0  0  0  0
    2.3260   -3.4628   -0.4519 C   0  0  0  0  0  0  0  0  0  0  0  0
    4.6439    3.1540    0.8079 H   0  0  0  0  0  0  0  0  0  0  0  0
    2.2751    3.7310    1.4540 H   0  0  0  0  0  0  0  0  0  0  0  0
    0.4574    2.0889    1.1446 H   0  0  0  0  0  0  0  0  0  0  0  0
    4.3897   -1.5296   -0.2358 H   0  0  0  0  0  0  0  0  0  0  0  0
    3.8821   -0.4325   -2.4413 H   0  0  0  0  0  0  0  0  0  0  0  0
    2.1790   -0.9997   -2.3258 H   0  0  0  0  0  0  0  0  0  0  0  0
    3.5336   -2.1856   -2.4790 H   0  0  0  0  0  0  0  0  0  0  0  0
    3.7333   -2.8403    1.6922 H   0  0  0  0  0  0  0  0  0  0  0  0
    2.8485   -1.3144    2.0920 H   0  0  0  0  0  0  0  0  0  0  0  0
    1.9707   -2.8889    2.1127 H   0  0  0  0  0  0  0  0  0  0  0  0
    1.6080   -4.0863    0.1098 H   0  0  0  0  0  0  0  0  0  0  0  0
    1.9493   -3.3799   -1.4850 H   0  0  0  0  0  0  0  0  0  0  0  0
    3.3359   -3.9343   -0.4546 H   0  0  0  0  0  0  0  0  0  0  0  0
  1  5  1  0  0  0  0
  2 11  1  0  0  0  0
  3  8  1  0  0  0  0
  4  5  1  0  0  0  0
  4  3  2  0  0  0  0
  5  6  2  0  0  0  0
  6 13  1  0  0  0  0
  6  7  1  0  0  0  0
  7 14  1  0  0  0  0
  8  7  2  0  0  0  0
  8 15  1  0  0  0  0
  9 16  1  1  0  0  0
  9  4  1  0  0  0  0
  9  2  1  0  0  0  0
 10  9  1  0  0  0  0
 11 20  1  0  0  0  0
 11 21  1  0  0  0  0
 11 22  1  0  0  0  0
 12 23  1  0  0  0  0
 12  2  1  0  0  0  0
 17 10  1  0  0  0  0
 18 10  1  0  0  0  0
 19 10  1  0  0  0  0
 24 12  1  0  0  0  0
 25 12  1  0  0  0  0
M  END
