1,5
q = -1.0, confidence = 0.006

 31 33  0  0  1  0  0  0  0  0999 V2000
   -1.6444   -0.9890   -1.2010 N   0  0  0  0  0  2  0  0  0  0  0  0
    1.3737    1.9045    1.6675 F   0  0  0  0  0  0  0  0  0  0  0  0
    0.6990    0.6999    3.3683 F   0  0  0  0  0  0  0  0  0  0  0  0
    0.3645    2.8465    3.3397 F   0  0  0  0  0  0  0  0  0  0  0  0
   -1.2007    0.5096    0.9064 C   0  0  0  0  0  3  0  0  0  0  0  0
   -1.9333    2.3322    2.3664 N   0  0  0  0  0  0  0  0  0  0  0  0
   -0.9850    1.5166    1.8943 C   0  0  0  0  0  0  0  0  0  0  0  0
   -2.5643    0.4008    0.4518 C   0  0  0  0  0  0  0  0  0  0  0  0
   -2.8003   -0.5585   -0.6355 C   0  0  0  0  0  0  0  0  0  0  0  0
   -4.0619   -1.0340   -1.1418 C   0  0  0  0  0  0  0  0  0  0  0  0
   -1.6381   -1.7220   -2.3512 C   0  0  0  0  0  0  0  0  0  0  0  0
   -0.6431   -1.9884   -2.7302 H   0  0  0  0  0  0  0  0  0  0  0  0
   -5.4013    3.0622    1.8808 F   0  0  0  0  0  0  0  0  0  0  0  0
   -5.3059   -0.8827   -0.4591 C   0  0  0  0  0  0  0  0  0  0  0  0
   -5.3292   -0.4361    0.5414 H   0  0  0  0  0  0  0  0  0  0  0  0
    0.3668    1.7542    2.5662 C   0  0  0  0  0  0  0  0  0  0  0  0
   -4.0580   -1.7709   -2.3833 C   0  0  1  0  0  3  0  0  0  0  0  0
   -2.8065   -2.0769   -2.9877 C   0  0  0  0  0  0  0  0  0  0  0  0
   -2.7698   -2.6314   -3.9359 H   0  0  0  0  0  0  0  0  0  0  0  0
   -3.5422    1.2998    0.9168 C   0  0  0  0  0  0  0  0  0  0  0  0
   -4.5597    1.3183    0.5127 H   0  0  0  0  0  0  0  0  0  0  0  0
   -4.3114    3.1024    3.7745 F   0  0  0  0  0  0  0  0  0  0  0  0
   -3.1728    2.2402    1.8801 C   0  0  0  0  0  0  0  0  0  0  0  0
   -6.4883   -1.3494   -1.0170 C   0  0  0  0  0  0  0  0  0  0  0  0
   -7.4322   -1.2305   -0.4646 H   0  0  0  0  0  0  0  0  0  0  0  0
   -5.2900   -2.2125   -2.9434 C   0  0  0  0  0  0  0  0  0  0  0  0
   -5.2684   -2.7523   -3.9023 H   0  0  0  0  0  0  0  0  0  0  0  0
   -6.4880   -1.9918   -2.2816 C   0  0  0  0  0  0  0  0  0  0  0  0
   -7.4350   -2.3411   -2.7196 H   0  0  0  0  0  0  0  0  0  0  0  0
   -3.7954    4.5107    2.1949 F   0  0  0  0  0  0  0  0  0  0  0  0
   -4.1723    3.2386    2.4375 C   0  0  0  0  0  0  0  0  0  0  0  0
  1  9  1  0  0  0  0
  2 16  1  0  0  0  0
  5  7  1  0  0  0  0
  7  6  2  0  0  0  0
  7 16  1  0  0  0  0
  8  5  2  0  0  0  0
  8 20  1  0  0  0  0
  9  8  1  0  0  0  0
 10  9  2  0  0  0  0
 10 14  1  0  0  0  0
 11  1  1  0  0  0  0
 12 11  1  0  0  0  0
 13 31  1  0  0  0  0
 14 15  1  0  0  0  0
 16  4  1  0  0  0  0
 16  3  1  0  0  0  0
 17 18  1  1  0  0  0
 17 10  1  0  0  0  0
 18 11  2  0  0  0  0
 19 18  1  0  0  0  0
 20 23  2  0  0  0  0
 21 20  1  0  0  0  0
 23  6  1  0  0  0  0
 23 31  1  0  0  0  0
 24 25  1  0  0  0  0
 24 14  2  0  0  0  0
 26 17  1  0  0  0  0
 26 28  2  0  0  0  0
 27 26  1  0  0  0  0
 28 24  1  0  0  0  0
 29 28  1  0  0  0  0
 30 31  1  0  0  0  0
 31 22  1  0  0  0  0
M  END
