1
q = -2.0, confidence = 0.562

 42 43  0  0  1  0  0  0  0  0999 V2000
    0.1009    0.8966    0.0449 N   0  0  0  0  0  2  0  0  0  0  0  0
   -0.0704   -1.0765    1.1241 C   0  0  1  0  0  3  0  0  0  0  0  0
   -0.0499   -2.1192    0.1295 C   0  0  2  0  0  3  0  0  0  0  0  0
    1.2553   -2.6977    0.1724 C   0  0  0  0  0  0  0  0  0  0  0  0
    1.6065   -3.4971   -0.4918 H   0  0  0  0  0  0  0  0  0  0  0  0
    2.0057   -2.0808    1.2114 C   0  0  0  0  0  0  0  0  0  0  0  0
    3.0455   -2.3043    1.4787 H   0  0  0  0  0  0  0  0  0  0  0  0
    1.1917   -1.0886    1.8255 C   0  0  1  0  0  3  0  0  0  0  0  0
   -1.1253   -2.5829   -0.8130 C   0  0  0  0  0  0  0  0  0  0  0  0
   -0.9203   -3.6302   -1.1091 H   0  0  0  0  0  0  0  0  0  0  0  0
   -1.1614   -1.9829   -1.7417 H   0  0  0  0  0  0  0  0  0  0  0  0
   -2.1234   -2.5387   -0.3411 H   0  0  0  0  0  0  0  0  0  0  0  0
    1.6116   -0.1897    2.9474 C   0  0  0  0  0  0  0  0  0  0  0  0
    1.3158   -0.6299    3.9234 H   0  0  0  0  0  0  0  0  0  0  0  0
    1.1485    0.8120    2.8795 H   0  0  0  0  0  0  0  0  0  0  0  0
    2.7092   -0.0512    2.9474 H   0  0  0  0  0  0  0  0  0  0  0  0
   -0.8231    0.2537    0.9726 C   0  0  2  0  0  0  0  0  0  0  0  0
   -0.8505    0.7743    1.9597 H   0  0  0  0  0  0  0  0  0  0  0  0
   -2.2632    0.1012    0.4976 C   0  0  0  0  0  0  0  0  0  0  0  0
   -2.6025    0.1673   -0.8654 C   0  0  0  0  0  0  0  0  0  0  0  0
   -1.8060    0.3571   -1.6004 H   0  0  0  0  0  0  0  0  0  0  0  0
   -3.9287   -0.0236   -1.2790 C   0  0  0  0  0  0  0  0  0  0  0  0
   -4.1800    0.0320   -2.3493 H   0  0  0  0  0  0  0  0  0  0  0  0
   -4.9324   -0.2898   -0.3339 C   0  0  0  0  0  0  0  0  0  0  0  0
   -5.9734   -0.4395   -0.6584 H   0  0  0  0  0  0  0  0  0  0  0  0
   -4.6012   -0.3595    1.0291 C   0  0  0  0  0  0  0  0  0  0  0  0
   -5.3821   -0.5639    1.7775 H   0  0  0  0  0  0  0  0  0  0  0  0
   -3.2746   -0.1604    1.4401 C   0  0  0  0  0  0  0  0  0  0  0  0
   -3.0171   -0.2118    2.5106 H   0  0  0  0  0  0  0  0  0  0  0  0
    0.1498    2.3741   -0.1321 C   0  0  0  0  0  0  0  0  0  0  0  0
    0.9086    2.6714   -1.4369 C   0  0  0  0  0  0  0  0  0  0  0  0
    1.9497    2.2933   -1.3938 H   0  0  0  0  0  0  0  0  0  0  0  0
    0.9568    3.7652   -1.6081 H   0  0  0  0  0  0  0  0  0  0  0  0
    0.4047    2.1983   -2.3022 H   0  0  0  0  0  0  0  0  0  0  0  0
    0.9026    2.9964    1.0644 C   0  0  0  0  0  0  0  0  0  0  0  0
    0.3597    2.8169    2.0154 H   0  0  0  0  0  0  0  0  0  0  0  0
    0.9899    4.0943    0.9373 H   0  0  0  0  0  0  0  0  0  0  0  0
    1.9209    2.5696    1.1473 H   0  0  0  0  0  0  0  0  0  0  0  0
   -1.2548    3.0033   -0.2121 C   0  0  0  0  0  0  0  0  0  0  0  0
   -1.8141    2.6577   -1.1006 H   0  0  0  0  0  0  0  0  0  0  0  0
   -1.1483    4.1046   -0.2803 H   0  0  0  0  0  0  0  0  0  0  0  0
   -1.8661    2.7799    0.6842 H   0  0  0  0  0  0  0  0  0  0  0  0
  1 17  1  0  0  0  0
  2 17  1  6  0  0  0
  2  8  1  0  0  0  0
  3  9  1  6  0  0  0
  3  4  1  0  0  0  0
  3  2  1  0  0  0  0
  4  6  2  0  0  0  0
  5  4  1  0  0  0  0
  6  7  1  0  0  0  0
  6  8  1  0  0  0  0
  8 13  1  6  0  0  0
  9 12  1  0  0  0  0
 10  9  1  0  0  0  0
 11  9  1  0  0  0  0
 13 14  1  0  0  0  0
 15 13  1  0  0  0  0
 16 13  1  0  0  0  0
 17 18  1  1  0  0  0
 19 17  1  0  0  0  0
 19 28  1  0  0  0  0
 20 19  2  0  0  0  0
 21 20  1  0  0  0  0
 22 20  1  0  0  0  0
 22 24  2  0  0  0  0
 23 22  1  0  0  0  0
 24 26  1  0  0  0  0
 25 24  1  0  0  0  0
 26 28  2  0  0  0  0
 26 27  1  0  0  0  0
 28 29  1  0  0  0  0
 30  1  1  0  0  0  0
 30 35  1  0  0  0  0
 31 32  1  0  0  0  0
 31 30  1  0  0  0  0
 33 31  1  0  0  0  0
 34 31  1  0  0  0  0
 35 38  1  0  0  0  0
 35 36  1  0  0  0  0
 37 35  1  0  0  0  0
 39 30  1  0  0  0  0
 39 42  1  0  0  0  0
 40 39  1  0  0  0  0
 41 39  1  0  0  0  0
M  END
