1,20
q = -1.0, confidence = 0.002

 55 57  0  0  0  0  0  0  0  0999 V2000
   -2.4310    1.2510    0.0543 N   0  0  0  0  0  2  0  0  0  0  0  0
    2.3205    1.2596   -0.0825 N   0  0  0  0  0  0  0  0  0  0  0  0
   -3.6673    0.5406    0.0799 C   0  0  0  0  0  0  0  0  0  0  0  0
   -4.2075    0.1218    1.3215 C   0  0  0  0  0  0  0  0  0  0  0  0
    3.5704    0.5757   -0.0228 C   0  0  0  0  0  0  0  0  0  0  0  0
    5.4507   -0.2614    1.2613 C   0  0  0  0  0  0  0  0  0  0  0  0
    5.9608   -0.3766    2.2318 H   0  0  0  0  0  0  0  0  0  0  0  0
    4.1454    0.0631   -1.2112 C   0  0  0  0  0  0  0  0  0  0  0  0
   -1.2648    3.3329   -0.0522 C   0  0  0  0  0  0  0  0  0  0  0  0
   -2.4877    2.5467    0.0083 C   0  0  0  0  0  3  0  0  0  0  0  0
   -3.4729    3.0640    0.0128 H   0  0  0  0  0  0  0  0  0  0  0  0
   -3.5541    0.5280    2.6153 C   0  0  0  0  0  0  0  0  0  0  0  0
   -2.4569    0.3655    2.6014 H   0  0  0  0  0  0  0  0  0  0  0  0
   -3.9903   -0.0192    3.4731 H   0  0  0  0  0  0  0  0  0  0  0  0
   -3.6948    1.6141    2.8051 H   0  0  0  0  0  0  0  0  0  0  0  0
   -6.0564   -0.9785    0.1192 C   0  0  0  0  0  0  0  0  0  0  0  0
   -1.2806    4.7467   -0.0955 C   0  0  0  0  0  0  0  0  0  0  0  0
   -2.2392    5.2919   -0.0830 H   0  0  0  0  0  0  0  0  0  0  0  0
    1.1346    3.3358   -0.1214 C   0  0  0  0  0  0  0  0  0  0  0  0
   -0.0633    2.5896   -0.0662 C   0  0  0  0  0  3  0  0  0  0  0  0
   -5.5197   -0.5012   -1.0899 C   0  0  0  0  0  0  0  0  0  0  0  0
   -6.0363   -0.7273   -2.0372 H   0  0  0  0  0  0  0  0  0  0  0  0
   -3.7985    0.7752   -2.4482 C   0  0  0  0  0  0  0  0  0  0  0  0
   -3.9143    1.8772   -2.5284 H   0  0  0  0  0  0  0  0  0  0  0  0
   -4.3360    0.3225   -3.3032 H   0  0  0  0  0  0  0  0  0  0  0  0
   -2.7125    0.5732   -2.5560 H   0  0  0  0  0  0  0  0  0  0  0  0
    4.2301    0.4381    1.2260 C   0  0  0  0  0  0  0  0  0  0  0  0
    3.4877    0.3011   -2.5437 C   0  0  0  0  0  0  0  0  0  0  0  0
    3.6604    1.3436   -2.8894 H   0  0  0  0  0  0  0  0  0  0  0  0
    2.3866    0.1817   -2.4969 H   0  0  0  0  0  0  0  0  0  0  0  0
    3.8959   -0.3750   -3.3197 H   0  0  0  0  0  0  0  0  0  0  0  0
    1.1431    4.7497   -0.1659 C   0  0  0  0  0  0  0  0  0  0  0  0
    2.0992    5.2977   -0.2087 H   0  0  0  0  0  0  0  0  0  0  0  0
    2.3634    2.5561   -0.1161 C   0  0  0  0  0  0  0  0  0  0  0  0
    3.3435    3.0831   -0.1332 H   0  0  0  0  0  0  0  0  0  0  0  0
   -4.3371    0.2615   -1.1384 C   0  0  0  0  0  0  0  0  0  0  0  0
   -0.0704    5.4548   -0.1541 C   0  0  0  0  0  0  0  0  0  0  0  0
   -0.0727    6.5543   -0.1888 H   0  0  0  0  0  0  0  0  0  0  0  0
    5.3710   -0.6222   -1.1197 C   0  0  0  0  0  0  0  0  0  0  0  0
    5.8209   -1.0182   -2.0452 H   0  0  0  0  0  0  0  0  0  0  0  0
    3.6546    1.0509    2.4775 C   0  0  0  0  0  0  0  0  0  0  0  0
    3.7777    2.1553    2.4792 H   0  0  0  0  0  0  0  0  0  0  0  0
    4.1649    0.6619    3.3793 H   0  0  0  0  0  0  0  0  0  0  0  0
    2.5650    0.8631    2.5703 H   0  0  0  0  0  0  0  0  0  0  0  0
    6.0375   -0.8088    0.1050 C   0  0  0  0  0  0  0  0  0  0  0  0
   -7.2967   -1.8374    0.1387 C   0  0  0  0  0  0  0  0  0  0  0  0
   -7.9228   -1.6719   -0.7602 H   0  0  0  0  0  0  0  0  0  0  0  0
   -7.9191   -1.6363    1.0336 H   0  0  0  0  0  0  0  0  0  0  0  0
   -7.0378   -2.9184    0.1622 H   0  0  0  0  0  0  0  0  0  0  0  0
    7.3226   -1.5951    0.1821 C   0  0  0  0  0  0  0  0  0  0  0  0
    7.1232   -2.6713    0.3788 H   0  0  0  0  0  0  0  0  0  0  0  0
    7.9755   -1.2326    1.0007 H   0  0  0  0  0  0  0  0  0  0  0  0
    7.8939   -1.5391   -0.7656 H   0  0  0  0  0  0  0  0  0  0  0  0
   -5.3902   -0.6405    1.3117 C   0  0  0  0  0  0  0  0  0  0  0  0
   -5.8080   -0.9708    2.2771 H   0  0  0  0  0  0  0  0  0  0  0  0
  1  3  1  0  0  0  0
  2  5  1  0  0  0  0
  3  4  1  0  0  0  0
  4 12  1  0  0  0  0
  5 27  1  0  0  0  0
  6  7  1  0  0  0  0
  8 39  1  0  0  0  0
  8  5  2  0  0  0  0
  9 10  1  0  0  0  0
 10 11  1  0  0  0  0
 10  1  1  0  0  0  0
 12 15  1  0  0  0  0
 12 14  1  0  0  0  0
 13 12  1  0  0  0  0
 16 46  1  0  0  0  0
 16 54  1  0  0  0  0
 17 18  1  0  0  0  0
 17  9  2  0  0  0  0
 19 34  1  0  0  0  0
 19 20  2  0  0  0  0
 20  9  1  0  0  0  0
 21 16  2  0  0  0  0
 22 21  1  0  0  0  0
 23 36  1  0  0  0  0
 24 23  1  0  0  0  0
 25 23  1  0  0  0  0
 26 23  1  0  0  0  0
 27  6  2  0  0  0  0
 27 41  1  0  0  0  0
 28 30  1  0  0  0  0
 28  8  1  0  0  0  0
 29 28  1  0  0  0  0
 31 28  1  0  0  0  0
 32 37  2  0  0  0  0
 32 19  1  0  0  0  0
 33 32  1  0  0  0  0
 34  2  2  0  0  0  0
 35 34  1  0  0  0  0
 36 21  1  0  0  0  0
 36  3  2  0  0  0  0
 37 17  1  0  0  0  0
 38 37  1  0  0  0  0
 39 45  2  0  0  0  0
 40 39  1  0  0  0  0
 41 42  1  0  0  0  0
 41 44  1  0  0  0  0
 41 43  1  0  0  0  0
 45 50  1  0  0  0  0
 45  6  1  0  0  0  0
 46 49  1  0  0  0  0
 46 48  1  0  0  0  0
 47 46  1  0  0  0  0
 50 51  1  0  0  0  0
 50 52  1  0  0  0  0
 53 50  1  0  0  0  0
 54  4  2  0  0  0  0
 54 55  1  0  0  0  0
M  END
