1,15
q = -1.0, confidence = 0.0

 39 41  0  0  0  0  0  0  0  0999 V2000
    2.2323    0.4196   -1.0957 N   0  0  0  0  0  2  0  0  0  0  0  0
    2.6962    1.6914   -1.1903 C   0  0  0  0  0  3  0  0  0  0  0  0
    2.0293    2.4570   -0.7669 H   0  0  0  0  0  0  0  0  0  0  0  0
    1.1233   -2.2378   -1.5494 N   0  0  0  0  0  0  0  0  0  0  0  0
    3.9302    2.0385   -1.7266 C   0  0  0  0  0  0  0  0  0  0  0  0
    4.2416    3.0907   -1.7640 H   0  0  0  0  0  0  0  0  0  0  0  0
   -1.0046   -2.1047   -1.0964 N   0  0  0  0  0  0  0  0  0  0  0  0
    4.7601    0.9817   -2.1971 C   0  0  0  0  0  0  0  0  0  0  0  0
    5.7609    1.1966   -2.6036 H   0  0  0  0  0  0  0  0  0  0  0  0
    4.2945   -0.3154   -2.1596 C   0  0  0  0  0  0  0  0  0  0  0  0
    4.9053   -1.1473   -2.5414 H   0  0  0  0  0  0  0  0  0  0  0  0
    2.9767   -0.6237   -1.6527 C   0  0  0  0  0  0  0  0  0  0  0  0
    2.4899   -1.9293   -1.7120 C   0  0  0  0  0  3  0  0  0  0  0  0
    3.0884   -2.7242   -2.1698 H   0  0  0  0  0  0  0  0  0  0  0  0
    0.2129   -1.4912   -0.8361 C   0  0  0  0  0  2  0  0  0  0  0  0
    0.4977   -3.3047   -2.1921 C   0  0  0  0  0  0  0  0  0  0  0  0
    1.0575   -4.0091   -2.8135 H   0  0  0  0  0  0  0  0  0  0  0  0
   -0.8406   -3.2204   -1.9101 C   0  0  0  0  0  0  0  0  0  0  0  0
   -1.6873   -3.8359   -2.2255 H   0  0  0  0  0  0  0  0  0  0  0  0
   -2.2862   -1.5473   -0.7821 C   0  0  0  0  0  0  0  0  0  0  0  0
   -3.0885   -2.1309    0.2203 C   0  0  0  0  0  0  0  0  0  0  0  0
   -4.3148   -1.5093    0.5268 C   0  0  0  0  0  0  0  0  0  0  0  0
   -4.9411   -1.9383    1.3259 H   0  0  0  0  0  0  0  0  0  0  0  0
   -4.7620   -0.3682   -0.1613 C   0  0  0  0  0  0  0  0  0  0  0  0
   -3.9755    0.1203   -1.2231 C   0  0  0  0  0  0  0  0  0  0  0  0
   -4.3382    0.9769   -1.8140 H   0  0  0  0  0  0  0  0  0  0  0  0
   -2.7431   -0.4581   -1.5627 C   0  0  0  0  0  0  0  0  0  0  0  0
   -2.6932   -3.4231    0.8867 C   0  0  0  0  0  0  0  0  0  0  0  0
   -3.1178   -3.5005    1.9058 H   0  0  0  0  0  0  0  0  0  0  0  0
   -1.5949   -3.5372    0.9467 H   0  0  0  0  0  0  0  0  0  0  0  0
   -3.0739   -4.2915    0.3065 H   0  0  0  0  0  0  0  0  0  0  0  0
   -6.0468    0.3235    0.2203 C   0  0  0  0  0  0  0  0  0  0  0  0
   -6.6747   -0.3075    0.8788 H   0  0  0  0  0  0  0  0  0  0  0  0
   -6.6459    0.5938   -0.6730 H   0  0  0  0  0  0  0  0  0  0  0  0
   -5.8397    1.2696    0.7659 H   0  0  0  0  0  0  0  0  0  0  0  0
   -1.9487    0.0116   -2.7519 C   0  0  0  0  0  0  0  0  0  0  0  0
   -1.8300   -0.8097   -3.4896 H   0  0  0  0  0  0  0  0  0  0  0  0
   -0.9278    0.3270   -2.4596 H   0  0  0  0  0  0  0  0  0  0  0  0
   -2.4475    0.8604   -3.2549 H   0  0  0  0  0  0  0  0  0  0  0  0
  2  1  1  0  0  0  0
  2  3  1  0  0  0  0
  4 15  1  0  0  0  0
  5  2  1  0  0  0  0
  6  5  1  0  0  0  0
  7 15  1  0  0  0  0
  7 20  1  0  0  0  0
  8 10  1  0  0  0  0
  8  5  2  0  0  0  0
  9  8  1  0  0  0  0
 10 12  2  0  0  0  0
 11 10  1  0  0  0  0
 12  1  1  0  0  0  0
 13 12  1  0  0  0  0
 13  4  1  0  0  0  0
 14 13  1  0  0  0  0
 16 18  2  0  0  0  0
 16  4  1  0  0  0  0
 17 16  1  0  0  0  0
 18  7  1  0  0  0  0
 19 18  1  0  0  0  0
 20 21  1  0  0  0  0
 21 22  2  0  0  0  0
 21 28  1  0  0  0  0
 22 23  1  0  0  0  0
 24 32  1  0  0  0  0
 24 22  1  0  0  0  0
 25 24  2  0  0  0  0
 26 25  1  0  0  0  0
 27 25  1  0  0  0  0
 27 20  2  0  0  0  0
 28 30  1  0  0  0  0
 28 29  1  0  0  0  0
 31 28  1  0  0  0  0
 32 35  1  0  0  0  0
 32 33  1  0  0  0  0
 34 32  1  0  0  0  0
 36 38  1  0  0  0  0
 36 27  1  0  0  0  0
 37 36  1  0  0  0  0
 39 36  1  0  0  0  0
M  END
