1,4
q = -1.0, confidence = 0.0

 23 24  0  0  0  0  0  0  0  0999 V2000
   -1.9159   -1.2217   -1.1012 N   0  0  0  0  0  0  0  0  0  0  0  0
   -1.8578   -2.2514   -1.1897 H   0  0  0  0  0  0  0  0  0  0  0  0
   -2.0889   -0.8042   -2.0281 H   0  0  0  0  0  0  0  0  0  0  0  0
   -0.5986    1.1924   -0.6493 C   0  0  0  0  0  3  0  0  0  0  0  0
    0.2682    2.2012   -1.1218 C   0  0  0  0  0  0  0  0  0  0  0  0
    1.3138    1.9509   -1.3598 H   0  0  0  0  0  0  0  0  0  0  0  0
   -0.1592    3.5284   -1.2895 C   0  0  0  0  0  0  0  0  0  0  0  0
    0.5465    4.2896   -1.6583 H   0  0  0  0  0  0  0  0  0  0  0  0
   -1.4855    3.8771   -0.9928 C   0  0  0  0  0  0  0  0  0  0  0  0
   -1.8394    4.9090   -1.1381 H   0  0  0  0  0  0  0  0  0  0  0  0
   -2.3628    2.8962   -0.5162 C   0  0  0  0  0  0  0  0  0  0  0  0
   -3.4097    3.1651   -0.3057 H   0  0  0  0  0  0  0  0  0  0  0  0
   -1.9435    1.5566   -0.3246 C   0  0  0  0  0  0  0  0  0  0  0  0
   -2.9058    0.5788    0.2494 C   0  0  0  0  0  0  0  0  0  0  0  0
   -3.8617    0.9628    1.2144 C   0  0  0  0  0  0  0  0  0  0  0  0
   -3.8865    2.0125    1.5422 H   0  0  0  0  0  0  0  0  0  0  0  0
   -4.7371    0.0363    1.7987 C   0  0  0  0  0  0  0  0  0  0  0  0
   -5.4562    0.3703    2.5615 H   0  0  0  0  0  0  0  0  0  0  0  0
   -4.6770   -1.3150    1.4285 C   0  0  0  0  0  0  0  0  0  0  0  0
   -5.3487   -2.0535    1.8903 H   0  0  0  0  0  0  0  0  0  0  0  0
   -3.7477   -1.7249    0.4613 C   0  0  0  0  0  0  0  0  0  0  0  0
   -3.6889   -2.7801    0.1530 H   0  0  0  0  0  0  0  0  0  0  0  0
   -2.8793   -0.7909   -0.1211 C   0  0  0  0  0  0  0  0  0  0  0  0
  1 23  1  0  0  0  0
  2  1  1  0  0  0  0
  3  1  1  0  0  0  0
  4 13  1  0  0  0  0
  5  4  2  0  0  0  0
  6  5  1  0  0  0  0
  7  5  1  0  0  0  0
  7  9  2  0  0  0  0
  8  7  1  0  0  0  0
  9 11  1  0  0  0  0
 10  9  1  0  0  0  0
 11 13  2  0  0  0  0
 11 12  1  0  0  0  0
 13 14  1  0  0  0  0
 14 15  1  0  0  0  0
 15 16  1  0  0  0  0
 15 17  2  0  0  0  0
 17 18  1  0  0  0  0
 19 17  1  0  0  0  0
 19 20  1  0  0  0  0
 21 19  2  0  0  0  0
 22 21  1  0  0  0  0
 23 14  2  0  0  0  0
 23 21  1  0  0  0  0
M  END
