5,34
q = -1.0, confidence = 0.044

 56 61  0  0  1  0  0  0  0  0999 V2000
   -2.4745   -1.8553    0.3339 S   0  0  0  0  0  0  0  0  0  0  0  0
   -2.2040   -2.6810   -0.8673 O   0  0  0  0  0  0  0  0  0  0  0  0
   -2.2784   -2.3776    1.7052 O   0  0  0  0  0  0  0  0  0  0  0  0
   -1.3613   -0.5779    0.2237 N   0  0  0  0  0  0  0  0  0  0  0  0
    2.7591    1.7545   -0.1577 N   0  0  0  0  0  2  0  0  0  0  0  0
   -7.9380    0.8139   -0.0044 C   0  0  0  0  0  0  0  0  0  0  0  0
   -8.6058    0.3489   -0.7571 H   0  0  0  0  0  0  0  0  0  0  0  0
   -7.7830    1.8676   -0.3207 H   0  0  0  0  0  0  0  0  0  0  0  0
   -8.4666    0.8290    0.9674 H   0  0  0  0  0  0  0  0  0  0  0  0
   -6.6207    0.0915    0.0837 C   0  0  0  0  0  0  0  0  0  0  0  0
   -5.9122   -0.2488   -1.0908 C   0  0  0  0  0  0  0  0  0  0  0  0
   -6.3475   -0.0084   -2.0731 H   0  0  0  0  0  0  0  0  0  0  0  0
   -4.6701   -0.8865   -1.0310 C   0  0  0  0  0  0  0  0  0  0  0  0
   -4.1267   -1.1595   -1.9464 H   0  0  0  0  0  0  0  0  0  0  0  0
   -4.1240   -1.1862    0.2279 C   0  0  0  0  0  0  0  0  0  0  0  0
   -4.8099   -0.8845    1.4138 C   0  0  0  0  0  0  0  0  0  0  0  0
   -4.3694   -1.1597    2.3826 H   0  0  0  0  0  0  0  0  0  0  0  0
   -6.0561   -0.2509    1.3299 C   0  0  0  0  0  0  0  0  0  0  0  0
   -6.6061   -0.0175    2.2546 H   0  0  0  0  0  0  0  0  0  0  0  0
   -1.0827    0.1631   -1.0305 C   0  0  1  0  0  0  0  0  0  0  0  0
   -1.0365   -0.4790   -1.9219 H   0  0  0  0  0  0  0  0  0  0  0  0
   -1.4595    0.6064    1.1192 C   0  0  2  0  0  0  0  0  0  0  0  0
   -1.7455    0.3610    2.1570 H   0  0  0  0  0  0  0  0  0  0  0  0
   -2.3840    1.5361    0.3450 C   0  0  0  0  0  0  0  0  0  0  0  0
   -2.1457    1.2566   -1.0194 C   0  0  0  0  0  0  0  0  0  0  0  0
   -2.8049    1.9636   -2.0249 C   0  0  0  0  0  0  0  0  0  0  0  0
   -2.6197    1.7550   -3.0898 H   0  0  0  0  0  0  0  0  0  0  0  0
   -3.7499    2.9368   -1.6382 C   0  0  0  0  0  0  0  0  0  0  0  0
   -4.3086    3.4879   -2.4096 H   0  0  0  0  0  0  0  0  0  0  0  0
   -3.9983    3.2027   -0.2813 C   0  0  0  0  0  0  0  0  0  0  0  0
   -4.7493    3.9578   -0.0048 H   0  0  0  0  0  0  0  0  0  0  0  0
   -3.3021    2.5102    0.7323 C   0  0  0  0  0  0  0  0  0  0  0  0
   -3.4998    2.7240    1.7936 H   0  0  0  0  0  0  0  0  0  0  0  0
    0.2311    0.8652   -0.6005 C   0  0  0  0  0  3  0  0  0  0  0  0
    0.3896    1.7890   -1.1891 H   0  0  0  0  0  0  0  0  0  0  0  0
   -0.0044    1.1315    0.9254 C   0  0  2  0  0  0  0  0  0  0  0  0
    0.0520    2.2093    1.1785 H   0  0  0  0  0  0  0  0  0  0  0  0
    1.0291    0.3743    1.7876 C   0  0  0  0  0  0  0  0  0  0  0  0
    0.6698   -0.7790    2.5335 C   0  0  0  0  0  0  0  0  0  0  0  0
   -0.2974   -1.2685    2.3497 H   0  0  0  0  0  0  0  0  0  0  0  0
    1.5204   -1.3100    3.5087 C   0  0  0  0  0  0  0  0  0  0  0  0
    1.2003   -2.1960    4.0772 H   0  0  0  0  0  0  0  0  0  0  0  0
    2.7626   -0.7078    3.7789 C   0  0  0  0  0  0  0  0  0  0  0  0
    3.4193   -1.1128    4.5631 H   0  0  0  0  0  0  0  0  0  0  0  0
    3.1696    0.4012    3.0297 C   0  0  0  0  0  0  0  0  0  0  0  0
    4.1582    0.8544    3.1973 H   0  0  0  0  0  0  0  0  0  0  0  0
    2.3313    0.9338    2.0276 C   0  0  0  0  0  0  0  0  0  0  0  0
    2.8279    2.0404    1.1701 C   0  0  1  0  0  3  0  0  0  0  0  0
    3.3667    3.2533    1.6236 C   0  0  0  0  0  0  0  0  0  0  0  0
    3.4123    3.4564    2.7028 H   0  0  0  0  0  0  0  0  0  0  0  0
    3.8204    4.1889    0.6816 C   0  0  0  0  0  0  0  0  0  0  0  0
    4.2430    5.1492    1.0118 H   0  0  0  0  0  0  0  0  0  0  0  0
    3.7169    3.8892   -0.6850 C   0  0  0  0  0  0  0  0  0  0  0  0
    4.0499    4.6005   -1.4536 H   0  0  0  0  0  0  0  0  0  0  0  0
    3.1736    2.6570   -1.0684 C   0  0  0  0  0  0  0  0  0  0  0  0
    3.0641    2.3712   -2.1252 H   0  0  0  0  0  0  0  0  0  0  0  0
  1  3  2  0  0  0  0
  2  1  2  0  0  0  0
  4  1  1  0  0  0  0
  4 22  1  0  0  0  0
  5 48  1  0  0  0  0
  6 10  1  0  0  0  0
  6  9  1  0  0  0  0
  7  6  1  0  0  0  0
  8  6  1  0  0  0  0
 10 18  1  0  0  0  0
 11 13  1  0  0  0  0
 11 10  2  0  0  0  0
 12 11  1  0  0  0  0
 13 15  2  0  0  0  0
 14 13  1  0  0  0  0
 15  1  1  0  0  0  0
 15 16  1  0  0  0  0
 16 17  1  0  0  0  0
 18 16  2  0  0  0  0
 18 19  1  0  0  0  0
 20 21  1  6  0  0  0
 20 25  1  0  0  0  0
 20 34  1  0  0  0  0
 20  4  1  0  0  0  0
 22 23  1  1  0  0  0
 24 32  1  0  0  0  0
 24 22  1  0  0  0  0
 25 24  2  0  0  0  0
 26 28  2  0  0  0  0
 26 25  1  0  0  0  0
 27 26  1  0  0  0  0
 28 30  1  0  0  0  0
 29 28  1  0  0  0  0
 30 31  1  0  0  0  0
 30 32  2  0  0  0  0
 32 33  1  0  0  0  0
 34 36  1  0  0  0  0
 35 34  1  0  0  0  0
 36 22  1  0  0  0  0
 36 37  1  1  0  0  0
 36 38  1  0  0  0  0
 38 47  2  0  0  0  0
 38 39  1  0  0  0  0
 39 41  2  0  0  0  0
 40 39  1  0  0  0  0
 41 43  1  0  0  0  0
 41 42  1  0  0  0  0
 43 44  1  0  0  0  0
 45 46  1  0  0  0  0
 45 43  2  0  0  0  0
 47 45  1  0  0  0  0
 48 49  1  0  0  0  0
 48 47  1  1  0  0  0
 49 50  1  0  0  0  0
 51 52  1  0  0  0  0
 51 49  2  0  0  0  0
 53 51  1  0  0  0  0
 54 53  1  0  0  0  0
 55 53  2  0  0  0  0
 55  5  1  0  0  0  0
 56 55  1  0  0  0  0
M  END
