2,11
q = -1.0, confidence = 0.004

 23 24  0  0  0  0  0  0  0  0999 V2000
   -2.1605   -2.8118    0.6124 N   0  0  0  0  0  0  0  0  0  0  0  0
   -2.2475   -1.6193    0.1681 N   0  0  0  0  0  2  0  0  0  0  0  0
   -4.8930    0.2363   -1.6644 C   0  0  0  0  0  0  0  0  0  0  0  0
   -4.9691    0.9842   -2.4673 H   0  0  0  0  0  0  0  0  0  0  0  0
   -3.5360   -1.1788   -0.2295 C   0  0  0  0  0  0  0  0  0  0  0  0
   -0.8743   -3.1909    0.9394 C   0  0  0  0  0  0  0  0  0  0  0  0
   -5.9549   -1.2448   -0.0493 C   0  0  0  0  0  0  0  0  0  0  0  0
   -6.8652   -1.6443    0.4220 H   0  0  0  0  0  0  0  0  0  0  0  0
    0.6155   -4.8872    1.8330 C   0  0  0  0  0  0  0  0  0  0  0  0
    0.7861   -5.8832    2.2662 H   0  0  0  0  0  0  0  0  0  0  0  0
    0.2211   -2.2924    0.6946 C   0  0  0  0  0  2  0  0  0  0  0  0
    1.5008   -2.7310    1.0575 C   0  0  0  0  0  0  0  0  0  0  0  0
    2.3841   -2.0960    0.9007 H   0  0  0  0  0  0  0  0  0  0  0  0
   -6.0553   -0.2753   -1.0643 C   0  0  0  0  0  0  0  0  0  0  0  0
   -7.0444    0.0817   -1.3872 H   0  0  0  0  0  0  0  0  0  0  0  0
   -0.6762   -4.4773    1.4924 C   0  0  0  0  0  0  0  0  0  0  0  0
   -1.5527   -5.1229    1.6470 H   0  0  0  0  0  0  0  0  0  0  0  0
   -3.6325   -0.2042   -1.2442 C   0  0  0  0  0  0  0  0  0  0  0  0
   -2.7135    0.1828   -1.7060 H   0  0  0  0  0  0  0  0  0  0  0  0
   -4.7028   -1.7060    0.3673 C   0  0  0  0  0  0  0  0  0  0  0  0
   -4.6008   -2.4673    1.1526 H   0  0  0  0  0  0  0  0  0  0  0  0
    1.6940   -4.0120    1.6198 C   0  0  0  0  0  0  0  0  0  0  0  0
    2.7138   -4.3275    1.8893 H   0  0  0  0  0  0  0  0  0  0  0  0
  1  6  2  0  0  0  0
  2  1  1  0  0  0  0
  3 18  2  0  0  0  0
  3 14  1  0  0  0  0
  4  3  1  0  0  0  0
  5  2  1  0  0  0  0
  5 20  2  0  0  0  0
  6 16  1  0  0  0  0
  7 20  1  0  0  0  0
  7  8  1  0  0  0  0
  9 10  1  0  0  0  0
 11  6  1  0  0  0  0
 11 12  1  0  0  0  0
 12 22  2  0  0  0  0
 13 12  1  0  0  0  0
 14  7  2  0  0  0  0
 15 14  1  0  0  0  0
 16 17  1  0  0  0  0
 16  9  2  0  0  0  0
 18  5  1  0  0  0  0
 19 18  1  0  0  0  0
 20 21  1  0  0  0  0
 22  9  1  0  0  0  0
 22 23  1  0  0  0  0
M  END
