3,5
q = 0.0, confidence = 1.0

 20 21  0  0  1  0  0  0  0  0999 V2000
    0.4548   -1.6148    2.1271 N   0  0  0  0  0  0  0  0  0  0  0  0
    2.2402   -1.2188    0.9738 N   0  0  0  0  0  0  0  0  0  0  0  0
    2.3802    0.4174   -0.6365 N   0  0  0  0  0  2  0  0  0  0  0  0
    4.2888   -0.9554   -0.1741 N   0  0  0  0  0  0  0  0  0  0  0  0
    0.9372   -0.7903    1.1652 C   0  0  0  0  0  2  0  0  0  0  0  0
   -0.9111   -1.5868    2.6343 C   0  0  0  0  0  0  0  0  0  0  0  0
   -1.6031   -2.0278    1.8909 H   0  0  0  0  0  0  0  0  0  0  0  0
   -1.2126   -0.5435    2.8359 H   0  0  0  0  0  0  0  0  0  0  0  0
   -0.9623   -2.1665    3.5729 H   0  0  0  0  0  0  0  0  0  0  0  0
    1.4284   -2.5400    2.5254 C   0  0  0  0  0  0  0  0  0  0  0  0
    1.2313   -3.2909    3.2967 H   0  0  0  0  0  0  0  0  0  0  0  0
    2.5608   -2.2914    1.8003 C   0  0  0  0  0  0  0  0  0  0  0  0
    3.5516   -2.7540    1.7885 H   0  0  0  0  0  0  0  0  0  0  0  0
    3.0361   -0.5734    0.0151 C   0  0  2  0  0  3  0  0  0  0  0  0
    3.0637    1.0978   -1.5775 C   0  0  0  0  0  0  0  0  0  0  0  0
    2.4934    1.8958   -2.0846 H   0  0  0  0  0  0  0  0  0  0  0  0
    4.3980    0.7716   -1.8508 C   0  0  0  0  0  0  0  0  0  0  0  0
    4.9673    1.3184   -2.6146 H   0  0  0  0  0  0  0  0  0  0  0  0
    4.9729   -0.2764   -1.1141 C   0  0  0  0  0  0  0  0  0  0  0  0
    6.0182   -0.5863   -1.2799 H   0  0  0  0  0  0  0  0  0  0  0  0
  1 10  1  0  0  0  0
  1  6  1  0  0  0  0
  2  5  1  0  0  0  0
  2 12  1  0  0  0  0
  3 14  1  0  0  0  0
  4 14  1  0  0  0  0
  5  1  1  0  0  0  0
  6  8  1  0  0  0  0
  6  9  1  0  0  0  0
  7  6  1  0  0  0  0
 10 11  1  0  0  0  0
 12 10  2  0  0  0  0
 13 12  1  0  0  0  0
 14  2  1  6  0  0  0
 15  3  1  0  0  0  0
 16 15  1  0  0  0  0
 17 15  2  0  0  0  0
 17 19  1  0  0  0  0
 18 17  1  0  0  0  0
 19  4  2  0  0  0  0
 20 19  1  0  0  0  0
M  END
