2,3
q = -1.0, confidence = 0.0

 45 45  0  0  0  0  0  0  0  0999 V2000
    3.8243    0.2340    0.7514 N   0  0  0  0  0  0  0  0  0  0  0  0
   -2.3590    1.0324    0.0862 N   0  0  0  0  0  0  0  0  0  0  0  0
    0.3624    0.8636   -0.5999 C   0  0  0  0  0  3  0  0  0  0  0  0
    1.7699    0.9868   -0.4845 C   0  0  0  0  0  0  0  0  0  0  0  0
    2.4024    2.2031   -0.8106 C   0  0  0  0  0  0  0  0  0  0  0  0
    3.4943    2.2620   -0.6866 H   0  0  0  0  0  0  0  0  0  0  0  0
    1.6649    3.3173   -1.2284 C   0  0  0  0  0  0  0  0  0  0  0  0
    2.1767    4.2609   -1.4731 H   0  0  0  0  0  0  0  0  0  0  0  0
    0.2670    3.2341   -1.2936 C   0  0  0  0  0  0  0  0  0  0  0  0
   -0.3315    4.1161   -1.5745 H   0  0  0  0  0  0  0  0  0  0  0  0
   -0.3714    2.0227   -0.9807 C   0  0  0  0  0  0  0  0  0  0  0  0
    2.6457   -0.1655   -0.0130 C   0  0  0  0  0  0  0  0  0  0  0  0
    2.0168   -0.8769    0.5754 H   0  0  0  0  0  0  0  0  0  0  0  0
    2.9723   -0.7305   -0.9099 H   0  0  0  0  0  0  0  0  0  0  0  0
    5.0044   -0.5775    0.4620 C   0  0  0  0  0  0  0  0  0  0  0  0
    4.7984   -1.6755    0.5954 H   0  0  0  0  0  0  0  0  0  0  0  0
    5.7713   -0.3241    1.2243 H   0  0  0  0  0  0  0  0  0  0  0  0
    5.5887   -0.3262   -0.9260 C   0  0  0  0  0  0  0  0  0  0  0  0
    6.4886   -0.9531   -1.0879 H   0  0  0  0  0  0  0  0  0  0  0  0
    5.8754    0.7383   -1.0421 H   0  0  0  0  0  0  0  0  0  0  0  0
    4.8684   -0.5707   -1.7330 H   0  0  0  0  0  0  0  0  0  0  0  0
    3.5602    0.3290    2.1847 C   0  0  0  0  0  0  0  0  0  0  0  0
    3.2881   -0.6791    2.6092 H   0  0  0  0  0  0  0  0  0  0  0  0
    4.5124    0.6209    2.6778 H   0  0  0  0  0  0  0  0  0  0  0  0
    2.4729    1.3304    2.5694 C   0  0  0  0  0  0  0  0  0  0  0  0
    2.3968    1.3916    3.6739 H   0  0  0  0  0  0  0  0  0  0  0  0
    1.4784    1.0367    2.1780 H   0  0  0  0  0  0  0  0  0  0  0  0
    2.7012    2.3395    2.1732 H   0  0  0  0  0  0  0  0  0  0  0  0
   -1.8786    1.9250   -1.0052 C   0  0  0  0  0  0  0  0  0  0  0  0
   -2.3414    2.9351   -0.9249 H   0  0  0  0  0  0  0  0  0  0  0  0
   -2.2271    1.4767   -1.9604 H   0  0  0  0  0  0  0  0  0  0  0  0
   -2.1352    1.6726    1.4086 C   0  0  0  0  0  0  0  0  0  0  0  0
   -2.7382    2.6089    1.4722 H   0  0  0  0  0  0  0  0  0  0  0  0
   -1.0718    1.9822    1.4212 H   0  0  0  0  0  0  0  0  0  0  0  0
   -2.4208    0.7692    2.5991 C   0  0  0  0  0  0  0  0  0  0  0  0
   -2.1466    1.2942    3.5352 H   0  0  0  0  0  0  0  0  0  0  0  0
   -1.8160   -0.1584    2.5363 H   0  0  0  0  0  0  0  0  0  0  0  0
   -3.4891    0.4848    2.6819 H   0  0  0  0  0  0  0  0  0  0  0  0
   -3.7657    0.6047   -0.1349 C   0  0  0  0  0  0  0  0  0  0  0  0
   -4.0100   -0.1533    0.6347 H   0  0  0  0  0  0  0  0  0  0  0  0
   -3.7793    0.0738   -1.1088 H   0  0  0  0  0  0  0  0  0  0  0  0
   -4.8212    1.7112   -0.1225 C   0  0  0  0  0  0  0  0  0  0  0  0
   -5.8168    1.2677   -0.3226 H   0  0  0  0  0  0  0  0  0  0  0  0
   -4.6392    2.4772   -0.9021 H   0  0  0  0  0  0  0  0  0  0  0  0
   -4.8825    2.2257    0.8573 H   0  0  0  0  0  0  0  0  0  0  0  0
  1 22  1  0  0  0  0
  2 32  1  0  0  0  0
  3  4  1  0  0  0  0
  4 12  1  0  0  0  0
  5  6  1  0  0  0  0
  5  4  2  0  0  0  0
  7  5  1  0  0  0  0
  8  7  1  0  0  0  0
  9  7  2  0  0  0  0
  9 11  1  0  0  0  0
 10  9  1  0  0  0  0
 11  3  2  0  0  0  0
 12 13  1  0  0  0  0
 12  1  1  0  0  0  0
 14 12  1  0  0  0  0
 15 16  1  0  0  0  0
 15  1  1  0  0  0  0
 15 17  1  0  0  0  0
 18 15  1  0  0  0  0
 19 18  1  0  0  0  0
 20 18  1  0  0  0  0
 21 18  1  0  0  0  0
 22 25  1  0  0  0  0
 22 23  1  0  0  0  0
 22 24  1  0  0  0  0
 25 26  1  0  0  0  0
 27 25  1  0  0  0  0
 28 25  1  0  0  0  0
 29 11  1  0  0  0  0
 29 30  1  0  0  0  0
 29  2  1  0  0  0  0
 31 29  1  0  0  0  0
 32 34  1  0  0  0  0
 32 33  1  0  0  0  0
 32 35  1  0  0  0  0
 35 38  1  0  0  0  0
 35 36  1  0  0  0  0
 37 35  1  0  0  0  0
 39 42  1  0  0  0  0
 39  2  1  0  0  0  0
 39 40  1  0  0  0  0
 41 39  1  0  0  0  0
 42 45  1  0  0  0  0
 43 42  1  0  0  0  0
 44 42  1  0  0  0  0
M  END
