8,11
q = 0.0, confidence = 0.996

 34 36  0  0  1  0  0  0  0  0999 V2000
   -3.4248    1.7651    0.7552 C   0  0  0  0  0  0  0  0  0  0  0  0
   -3.2006    2.5139    1.5299 H   0  0  0  0  0  0  0  0  0  0  0  0
    2.4538    1.8349   -0.3508 C   0  0  1  0  0  3  0  0  0  0  0  0
   -0.6913    3.2028   -0.1223 N   0  0  0  0  0  0  0  0  0  0  0  0
    1.1051    2.1709   -0.1989 N   0  0  0  0  0  0  0  0  0  0  0  0
   -2.4162    1.3487   -0.1484 C   0  0  0  0  0  0  0  0  0  0  0  0
    0.6167    3.4130   -0.1719 N   0  0  0  0  0  2  0  0  0  0  0  0
    2.6229    0.4839   -0.3612 N   0  0  0  0  0  2  0  0  0  0  0  0
    3.4924    2.7573   -0.5003 C   0  0  0  0  0  0  0  0  0  0  0  0
    3.2684    3.8322   -0.4820 H   0  0  0  0  0  0  0  0  0  0  0  0
    0.1677    1.1507   -0.1438 C   0  0  0  0  0  3  0  0  0  0  0  0
   -1.0472    1.8654   -0.1068 C   0  0  0  0  0  0  0  0  0  0  0  0
    4.7837    2.2523   -0.6841 C   0  0  0  0  0  0  0  0  0  0  0  0
    5.6336    2.9387   -0.8073 H   0  0  0  0  0  0  0  0  0  0  0  0
   -1.5790    4.3581   -0.1111 C   0  0  0  0  0  0  0  0  0  0  0  0
   -1.8246    4.6482    0.9287 H   0  0  0  0  0  0  0  0  0  0  0  0
   -2.5077    4.0926   -0.6476 H   0  0  0  0  0  0  0  0  0  0  0  0
   -1.0631    5.1927   -0.6168 H   0  0  0  0  0  0  0  0  0  0  0  0
   -2.7275    0.3563   -1.1063 C   0  0  0  0  0  0  0  0  0  0  0  0
   -1.9487    0.0361   -1.8175 H   0  0  0  0  0  0  0  0  0  0  0  0
   -4.0074   -0.2055   -1.1689 C   0  0  0  0  0  0  0  0  0  0  0  0
   -4.2239   -0.9612   -1.9355 H   0  0  0  0  0  0  0  0  0  0  0  0
   -5.0094    0.2182   -0.2635 C   0  0  0  0  0  0  0  0  0  0  0  0
    4.9742    0.8592   -0.7244 C   0  0  0  0  0  0  0  0  0  0  0  0
    5.9709    0.4254   -0.8832 H   0  0  0  0  0  0  0  0  0  0  0  0
    3.8772    0.0107   -0.5683 C   0  0  0  0  0  0  0  0  0  0  0  0
    3.9733   -1.0822   -0.6113 H   0  0  0  0  0  0  0  0  0  0  0  0
   -4.7009    1.2092    0.7003 C   0  0  0  0  0  0  0  0  0  0  0  0
   -5.4908    1.5171    1.3997 H   0  0  0  0  0  0  0  0  0  0  0  0
   -6.2701   -0.2552   -0.2384 O   0  0  0  0  0  0  0  0  0  0  0  0
   -6.6586   -1.2442   -1.1847 C   0  0  0  0  0  0  0  0  0  0  0  0
   -6.5621   -0.8709   -2.2272 H   0  0  0  0  0  0  0  0  0  0  0  0
   -7.7198   -1.4693   -0.9770 H   0  0  0  0  0  0  0  0  0  0  0  0
   -6.0600   -2.1743   -1.0717 H   0  0  0  0  0  0  0  0  0  0  0  0
  1  2  1  0  0  0  0
  3  5  1  6  0  0  0
  4 15  1  0  0  0  0
  4 12  1  0  0  0  0
  5  7  1  0  0  0  0
  5 11  1  0  0  0  0
  6 12  1  0  0  0  0
  6  1  2  0  0  0  0
  7  4  1  0  0  0  0
  8  3  1  0  0  0  0
  9 10  1  0  0  0  0
  9  3  1  0  0  0  0
 11 12  2  0  0  0  0
 13  9  2  0  0  0  0
 14 13  1  0  0  0  0
 15 16  1  0  0  0  0
 17 15  1  0  0  0  0
 18 15  1  0  0  0  0
 19  6  1  0  0  0  0
 20 19  1  0  0  0  0
 21 19  2  0  0  0  0
 21 23  1  0  0  0  0
 22 21  1  0  0  0  0
 23 30  1  0  0  0  0
 23 28  2  0  0  0  0
 24 13  1  0  0  0  0
 24 26  2  0  0  0  0
 25 24  1  0  0  0  0
 26  8  1  0  0  0  0
 27 26  1  0  0  0  0
 28  1  1  0  0  0  0
 28 29  1  0  0  0  0
 31 34  1  0  0  0  0
 31 33  1  0  0  0  0
 31 30  1  0  0  0  0
 32 31  1  0  0  0  0
M  END
