1,4
q = 0.0, confidence = 0.99

 38 40  0  0  1  0  0  0  0  0999 V2000
   -0.3446   -0.1077    0.0679 N   0  0  0  0  0  2  0  0  0  0  0  0
    0.8870    1.8118    0.0724 N   0  0  0  0  0  0  0  0  0  0  0  0
    3.0511    1.8943    0.1164 N   0  0  0  0  0  0  0  0  0  0  0  0
    2.0256    0.9915    0.0350 C   0  0  0  0  0  2  0  0  0  0  0  0
    2.5852    3.2072    0.2207 C   0  0  0  0  0  0  0  0  0  0  0  0
    1.2206    3.1630    0.2016 C   0  0  0  0  0  0  0  0  0  0  0  0
    4.4597    1.5394    0.1138 C   0  0  0  0  0  0  0  0  0  0  0  0
   -0.3745    1.2013    0.0676 C   0  0  2  0  0  3  0  0  0  0  0  0
   -1.5818    2.0625    0.0769 C   0  0  0  0  0  0  0  0  0  0  0  0
   -1.7600    3.0571   -0.9104 C   0  0  0  0  0  0  0  0  0  0  0  0
   -2.9165    3.8495   -0.9149 C   0  0  0  0  0  0  0  0  0  0  0  0
   -3.9026    3.6623    0.0666 C   0  0  0  0  0  0  0  0  0  0  0  0
   -3.7302    2.6757    1.0515 C   0  0  0  0  0  0  0  0  0  0  0  0
   -2.5805    1.8767    1.0576 C   0  0  0  0  0  0  0  0  0  0  0  0
   -1.5528   -0.8514    0.0090 C   0  0  0  0  0  0  0  0  0  0  0  0
   -2.4345   -0.7357   -1.0813 C   0  0  0  0  0  0  0  0  0  0  0  0
   -3.6105   -1.4954   -1.1151 C   0  0  0  0  0  0  0  0  0  0  0  0
   -3.9411   -2.3844   -0.0729 C   0  0  0  0  0  0  0  0  0  0  0  0
   -3.0390   -2.4954    1.0066 C   0  0  0  0  0  0  0  0  0  0  0  0
   -1.8525   -1.7554    1.0461 C   0  0  0  0  0  0  0  0  0  0  0  0
   -5.1926   -3.2235   -0.1264 C   0  0  0  0  0  0  0  0  0  0  0  0
    3.2635    4.0622    0.3053 H   0  0  0  0  0  0  0  0  0  0  0  0
    0.4741    3.9569    0.2795 H   0  0  0  0  0  0  0  0  0  0  0  0
    4.9440    1.8728    1.0537 H   0  0  0  0  0  0  0  0  0  0  0  0
    4.9758    2.0118   -0.7461 H   0  0  0  0  0  0  0  0  0  0  0  0
    4.5401    0.4435    0.0304 H   0  0  0  0  0  0  0  0  0  0  0  0
   -0.9983    3.1906   -1.6935 H   0  0  0  0  0  0  0  0  0  0  0  0
   -3.0513    4.6132   -1.6956 H   0  0  0  0  0  0  0  0  0  0  0  0
   -4.8100    4.2848    0.0622 H   0  0  0  0  0  0  0  0  0  0  0  0
   -4.5005    2.5249    1.8225 H   0  0  0  0  0  0  0  0  0  0  0  0
   -2.4501    1.0975    1.8216 H   0  0  0  0  0  0  0  0  0  0  0  0
   -2.1889   -0.0494   -1.9044 H   0  0  0  0  0  0  0  0  0  0  0  0
   -4.2900   -1.3955   -1.9764 H   0  0  0  0  0  0  0  0  0  0  0  0
   -3.2659   -3.1894    1.8314 H   0  0  0  0  0  0  0  0  0  0  0  0
   -1.1401   -1.8637    1.8763 H   0  0  0  0  0  0  0  0  0  0  0  0
   -4.9693   -4.2506   -0.4880 H   0  0  0  0  0  0  0  0  0  0  0  0
   -5.6568   -3.3291    0.8748 H   0  0  0  0  0  0  0  0  0  0  0  0
   -5.9467   -2.7909   -0.8128 H   0  0  0  0  0  0  0  0  0  0  0  0
  2  6  1  0  0  0  0
  3  5  1  0  0  0  0
  4  2  1  0  0  0  0
  4  3  1  0  0  0  0
  5 22  1  0  0  0  0
  6  5  2  0  0  0  0
  6 23  1  0  0  0  0
  7  3  1  0  0  0  0
  7 24  1  0  0  0  0
  8  1  1  1  0  0  0
  8  2  1  0  0  0  0
  8  9  1  0  0  0  0
  9 14  1  0  0  0  0
 10  9  2  0  0  0  0
 11 10  1  0  0  0  0
 11 12  2  0  0  0  0
 12 13  1  0  0  0  0
 13 14  2  0  0  0  0
 13 30  1  0  0  0  0
 14 31  1  0  0  0  0
 15  1  1  0  0  0  0
 15 20  1  0  0  0  0
 16 15  2  0  0  0  0
 17 16  1  0  0  0  0
 17 18  2  0  0  0  0
 18 19  1  0  0  0  0
 19 20  2  0  0  0  0
 19 34  1  0  0  0  0
 20 35  1  0  0  0  0
 21 18  1  0  0  0  0
 21 37  1  0  0  0  0
 25  7  1  0  0  0  0
 26  7  1  0  0  0  0
 27 10  1  0  0  0  0
 28 11  1  0  0  0  0
 29 12  1  0  0  0  0
 32 16  1  0  0  0  0
 33 17  1  0  0  0  0
 36 21  1  0  0  0  0
 38 21  1  0  0  0  0
M  END
