1,3
q = -1.0, confidence = 0.004

 31 32  0  0  0  0  0  0  0  0999 V2000
    1.7638   -2.8435   -0.2707 N   0  0  0  0  0  0  0  0  0  0  0  0
    7.5183    3.8485    0.1128 N   0  0  0  0  0  0  0  0  0  0  0  0
    1.4953   -0.1178   -0.0198 C   0  0  0  0  0  3  0  0  0  0  0  0
    2.7253   -0.6062   -0.5436 C   0  0  0  0  0  0  0  0  0  0  0  0
    3.8942    0.1630   -0.5189 C   0  0  0  0  0  0  0  0  0  0  0  0
    4.8330   -0.2646   -0.9064 H   0  0  0  0  0  0  0  0  0  0  0  0
    3.8976    1.4628    0.0375 C   0  0  0  0  0  0  0  0  0  0  0  0
    2.6859    1.9419    0.5847 C   0  0  0  0  0  0  0  0  0  0  0  0
    2.6532    2.9516    1.0225 H   0  0  0  0  0  0  0  0  0  0  0  0
    1.5155    1.1712    0.5615 C   0  0  0  0  0  0  0  0  0  0  0  0
    0.5979    1.5843    1.0047 H   0  0  0  0  0  0  0  0  0  0  0  0
    2.6859   -2.0037   -1.0946 C   0  0  0  0  0  0  0  0  0  0  0  0
    2.2690   -1.9988   -2.1241 H   0  0  0  0  0  0  0  0  0  0  0  0
    3.6961   -2.4747   -1.1424 H   0  0  0  0  0  0  0  0  0  0  0  0
    2.3786   -3.1501    1.0358 C   0  0  0  0  0  0  0  0  0  0  0  0
    1.6541   -3.6989    1.6665 H   0  0  0  0  0  0  0  0  0  0  0  0
    2.6463   -2.2059    1.5438 H   0  0  0  0  0  0  0  0  0  0  0  0
    3.2965   -3.7717    0.9102 H   0  0  0  0  0  0  0  0  0  0  0  0
    1.4631   -4.0841   -0.9984 C   0  0  0  0  0  0  0  0  0  0  0  0
    2.3969   -4.6390   -1.2513 H   0  0  0  0  0  0  0  0  0  0  0  0
    0.9241   -3.8443   -1.9348 H   0  0  0  0  0  0  0  0  0  0  0  0
    0.8322   -4.7455   -0.3775 H   0  0  0  0  0  0  0  0  0  0  0  0
    5.1321    2.2788    0.0629 C   0  0  0  0  0  0  0  0  0  0  0  0
    5.3900    3.2163    1.0890 C   0  0  0  0  0  0  0  0  0  0  0  0
    4.6795    3.3464    1.9187 H   0  0  0  0  0  0  0  0  0  0  0  0
    6.5764    3.9621    1.0643 C   0  0  0  0  0  0  0  0  0  0  0  0
    6.7796    4.6917    1.8695 H   0  0  0  0  0  0  0  0  0  0  0  0
    7.2776    2.9583   -0.8642 C   0  0  0  0  0  0  0  0  0  0  0  0
    8.0508    2.8724   -1.6497 H   0  0  0  0  0  0  0  0  0  0  0  0
    6.1243    2.1651   -0.9376 C   0  0  0  0  0  0  0  0  0  0  0  0
    5.9855    1.4794   -1.7868 H   0  0  0  0  0  0  0  0  0  0  0  0
  1 15  1  0  0  0  0
  2 26  1  0  0  0  0
  3 10  1  0  0  0  0
  4  5  1  0  0  0  0
  4  3  2  0  0  0  0
  5  7  2  0  0  0  0
  6  5  1  0  0  0  0
  7 23  1  0  0  0  0
  7  8  1  0  0  0  0
  8  9  1  0  0  0  0
 10  8  2  0  0  0  0
 10 11  1  0  0  0  0
 12  4  1  0  0  0  0
 12  1  1  0  0  0  0
 13 12  1  0  0  0  0
 14 12  1  0  0  0  0
 15 17  1  0  0  0  0
 15 16  1  0  0  0  0
 18 15  1  0  0  0  0
 19 22  1  0  0  0  0
 19  1  1  0  0  0  0
 20 19  1  0  0  0  0
 21 19  1  0  0  0  0
 23 24  1  0  0  0  0
 24 25  1  0  0  0  0
 26 24  2  0  0  0  0
 26 27  1  0  0  0  0
 28  2  2  0  0  0  0
 29 28  1  0  0  0  0
 30 28  1  0  0  0  0
 30 23  2  0  0  0  0
 31 30  1  0  0  0  0
M  END
