1,5
q = -1.0, confidence = 0.0

 30 31  0  0  1  0  0  0  0  0999 V2000
   -1.7487    0.1086   -0.2940 N   0  0  0  0  0  2  0  0  0  0  0  0
   -5.2499   -2.0916    0.0228 F   0  0  0  0  0  0  0  0  0  0  0  0
   -2.8945   -0.5094   -0.2214 C   0  0  0  0  0  0  0  0  0  0  0  0
   -2.8752   -1.9489   -0.0929 C   0  0  0  0  0  0  0  0  0  0  0  0
   -1.5879   -2.5770   -0.1074 C   0  0  0  0  0  2  0  0  0  0  0  0
   -1.5594   -3.9805   -0.0136 C   0  0  0  0  0  0  0  0  0  0  0  0
   -2.7465   -4.7311    0.0853 C   0  0  0  0  0  0  0  0  0  0  0  0
   -4.0075   -4.1109    0.1002 C   0  0  0  0  0  0  0  0  0  0  0  0
   -4.0511   -2.7190    0.0117 C   0  0  0  0  0  0  0  0  0  0  0  0
   -1.6850    1.5547   -0.5899 C   0  0  1  0  0  0  0  0  0  0  0  0
   -1.2485    1.7228   -2.0493 C   0  0  0  0  0  0  0  0  0  0  0  0
   -2.9415    2.3221   -0.2094 C   0  0  0  0  0  0  0  0  0  0  0  0
   -3.0682    2.7938    1.1137 C   0  0  0  0  0  0  0  0  0  0  0  0
   -4.2206    3.4743    1.5296 C   0  0  0  0  0  0  0  0  0  0  0  0
   -5.2717    3.6953    0.6245 C   0  0  0  0  0  0  0  0  0  0  0  0
   -5.1575    3.2343   -0.6956 C   0  0  0  0  0  0  0  0  0  0  0  0
   -4.0007    2.5539   -1.1089 C   0  0  0  0  0  0  0  0  0  0  0  0
   -3.8499    0.0421   -0.2802 H   0  0  0  0  0  0  0  0  0  0  0  0
   -0.5973   -4.5134   -0.0176 H   0  0  0  0  0  0  0  0  0  0  0  0
   -2.6920   -5.8295    0.1528 H   0  0  0  0  0  0  0  0  0  0  0  0
   -4.9435   -4.6813    0.1785 H   0  0  0  0  0  0  0  0  0  0  0  0
   -0.8719    1.9452    0.0503 H   0  0  0  0  0  0  0  0  0  0  0  0
   -0.3011    1.1746   -2.2218 H   0  0  0  0  0  0  0  0  0  0  0  0
   -1.0948    2.7929   -2.2882 H   0  0  0  0  0  0  0  0  0  0  0  0
   -2.0018    1.3020   -2.7450 H   0  0  0  0  0  0  0  0  0  0  0  0
   -2.2401    2.6246    1.8203 H   0  0  0  0  0  0  0  0  0  0  0  0
   -4.2988    3.8383    2.5656 H   0  0  0  0  0  0  0  0  0  0  0  0
   -6.1779    4.2298    0.9477 H   0  0  0  0  0  0  0  0  0  0  0  0
   -5.9752    3.4061   -1.4123 H   0  0  0  0  0  0  0  0  0  0  0  0
   -3.9246    2.2016   -2.1483 H   0  0  0  0  0  0  0  0  0  0  0  0
  1  3  1  0  0  0  0
  3  4  2  0  0  0  0
  4  9  1  0  0  0  0
  5  4  1  0  0  0  0
  5  6  1  0  0  0  0
  6  7  2  0  0  0  0
  7  8  1  0  0  0  0
  7 20  1  0  0  0  0
  8 21  1  0  0  0  0
  9  2  1  0  0  0  0
  9  8  2  0  0  0  0
 10  1  1  0  0  0  0
 10 12  1  0  0  0  0
 10 22  1  1  0  0  0
 11 10  1  0  0  0  0
 12 13  1  0  0  0  0
 13 14  2  0  0  0  0
 13 26  1  0  0  0  0
 14 27  1  0  0  0  0
 15 28  1  0  0  0  0
 15 14  1  0  0  0  0
 16 15  2  0  0  0  0
 17 16  1  0  0  0  0
 17 12  2  0  0  0  0
 18  3  1  0  0  0  0
 19  6  1  0  0  0  0
 23 11  1  0  0  0  0
 24 11  1  0  0  0  0
 25 11  1  0  0  0  0
 29 16  1  0  0  0  0
 30 17  1  0  0  0  0
M  END
