3,4
q = -1.0, confidence = 0.0

 32 33  0  0  1  0  0  0  0  0999 V2000
   -0.8776   -3.2568   -3.8542 F   0  0  0  0  0  0  0  0  0  0  0  0
    3.5887   -2.3595   -2.6829 F   0  0  0  0  0  0  0  0  0  0  0  0
    2.0281    0.3945    0.2441 N   0  0  0  0  0  2  0  0  0  0  0  0
    0.4409   -0.9455   -1.3529 C   0  0  0  0  0  3  0  0  0  0  0  0
   -0.4718   -1.6642   -2.1488 C   0  0  0  0  0  0  0  0  0  0  0  0
   -1.5574   -1.5266   -2.0495 H   0  0  0  0  0  0  0  0  0  0  0  0
    0.0030   -2.5773   -3.0942 C   0  0  0  0  0  0  0  0  0  0  0  0
    1.3706   -2.8213   -3.2900 C   0  0  0  0  0  0  0  0  0  0  0  0
    1.7258   -3.5407   -4.0381 H   0  0  0  0  0  0  0  0  0  0  0  0
    2.2685   -2.1146   -2.4907 C   0  0  0  0  0  0  0  0  0  0  0  0
    1.8498   -1.1820   -1.5174 C   0  0  0  0  0  0  0  0  0  0  0  0
    2.7203   -0.4313   -0.6166 C   0  0  2  0  0  3  0  0  0  0  0  0
    4.1240   -0.4908   -0.5349 C   0  0  0  0  0  0  0  0  0  0  0  0
    4.6477   -1.1526   -1.2330 H   0  0  0  0  0  0  0  0  0  0  0  0
    4.8412    0.2637    0.4108 C   0  0  0  0  0  0  0  0  0  0  0  0
    4.0885    1.0846    1.2758 C   0  0  0  0  0  0  0  0  0  0  0  0
    4.5646    1.7026    2.0468 H   0  0  0  0  0  0  0  0  0  0  0  0
    2.6981    1.1210    1.1606 C   0  0  0  0  0  0  0  0  0  0  0  0
    2.0703    1.7396    1.8185 H   0  0  0  0  0  0  0  0  0  0  0  0
    6.3722    0.1637    0.4674 C   0  0  0  0  0  0  0  0  0  0  0  0
    6.9684    1.0618    1.5644 C   0  0  0  0  0  0  0  0  0  0  0  0
    8.0721    0.9618    1.5711 H   0  0  0  0  0  0  0  0  0  0  0  0
    6.6030    0.7800    2.5725 H   0  0  0  0  0  0  0  0  0  0  0  0
    6.7321    2.1318    1.3956 H   0  0  0  0  0  0  0  0  0  0  0  0
    6.9531    0.5973   -0.8981 C   0  0  0  0  0  0  0  0  0  0  0  0
    6.5841   -0.0422   -1.7240 H   0  0  0  0  0  0  0  0  0  0  0  0
    8.0601    0.5256   -0.8832 H   0  0  0  0  0  0  0  0  0  0  0  0
    6.6784    1.6456   -1.1321 H   0  0  0  0  0  0  0  0  0  0  0  0
    6.7683   -1.3023    0.7576 C   0  0  0  0  0  0  0  0  0  0  0  0
    6.3959   -1.9920   -0.0252 H   0  0  0  0  0  0  0  0  0  0  0  0
    6.3575   -1.6401    1.7303 H   0  0  0  0  0  0  0  0  0  0  0  0
    7.8727   -1.3995    0.7967 H   0  0  0  0  0  0  0  0  0  0  0  0
  1  7  1  0  0  0  0
  2 10  1  0  0  0  0
  3 18  1  0  0  0  0
  5  6  1  0  0  0  0
  5  4  2  0  0  0  0
  7  5  1  0  0  0  0
  8  7  2  0  0  0  0
  8 10  1  0  0  0  0
  9  8  1  0  0  0  0
 10 11  2  0  0  0  0
 11  4  1  0  0  0  0
 12 11  1  1  0  0  0
 12 13  1  0  0  0  0
 12  3  1  0  0  0  0
 13 15  2  0  0  0  0
 14 13  1  0  0  0  0
 15 20  1  0  0  0  0
 15 16  1  0  0  0  0
 16 17  1  0  0  0  0
 18 16  2  0  0  0  0
 18 19  1  0  0  0  0
 20 29  1  0  0  0  0
 20 21  1  0  0  0  0
 21 22  1  0  0  0  0
 21 23  1  0  0  0  0
 24 21  1  0  0  0  0
 25 27  1  0  0  0  0
 25 20  1  0  0  0  0
 26 25  1  0  0  0  0
 28 25  1  0  0  0  0
 29 32  1  0  0  0  0
 29 31  1  0  0  0  0
 30 29  1  0  0  0  0
M  END
