1,11
q = 0.0, confidence = 0.978

 15 15  0  0  1  0  0  0  0  0999 V2000
    3.0781   -0.8761    0.3990 N   0  0  0  0  0  2  0  0  0  0  0  0
    2.9817   -2.1293   -0.1207 C   0  0  2  0  0  3  0  0  0  0  0  0
    4.1243   -2.8738   -0.4317 C   0  0  0  0  0  0  0  0  0  0  0  0
    4.0314   -3.8736   -0.8789 H   0  0  0  0  0  0  0  0  0  0  0  0
    5.3790   -2.3042   -0.1461 C   0  0  0  0  0  0  0  0  0  0  0  0
    6.3012   -2.8608   -0.3717 H   0  0  0  0  0  0  0  0  0  0  0  0
    5.4520   -1.0268    0.4325 C   0  0  0  0  0  0  0  0  0  0  0  0
    6.4212   -0.5685    0.6753 H   0  0  0  0  0  0  0  0  0  0  0  0
    4.2639   -0.3253    0.6907 C   0  0  0  0  0  0  0  0  0  0  0  0
    4.2457    0.6886    1.1190 H   0  0  0  0  0  0  0  0  0  0  0  0
    1.5284   -2.4029   -0.2748 C   0  0  0  0  0  3  0  0  0  0  0  0
    1.1579   -2.8468   -1.2140 H   0  0  0  0  0  0  0  0  0  0  0  0
    0.7282   -2.4169    0.9053 C   0  0  0  0  0  3  0  0  0  0  0  0
    1.1932   -2.4978    1.9008 H   0  0  0  0  0  0  0  0  0  0  0  0
   -0.2838   -2.8448    0.8270 H   0  0  0  0  0  0  0  0  0  0  0  0
  1  9  1  0  0  0  0
  2 11  1  6  0  0  0
  2  1  1  0  0  0  0
  3  5  2  0  0  0  0
  3  2  1  0  0  0  0
  4  3  1  0  0  0  0
  5  7  1  0  0  0  0
  6  5  1  0  0  0  0
  7  8  1  0  0  0  0
  7  9  2  0  0  0  0
  9 10  1  0  0  0  0
 11 13  1  0  0  0  0
 12 11  1  0  0  0  0
 13 14  1  0  0  0  0
 15 13  1  0  0  0  0
M  END
