7,16
q = 0.0, confidence = 0.574

 20 20  0  0  0  0  0  0  0  0999 V2000
    3.6240    0.1089   -0.1653 C   0  0  0  0  0  0  0  0  0  0  0  0
    3.8364    1.4604   -0.4775 C   0  0  0  0  0  0  0  0  0  0  0  0
    4.8645    1.8274   -0.5930 H   0  0  0  0  0  0  0  0  0  0  0  0
    2.7155    2.2869   -0.6255 C   0  0  0  0  0  0  0  0  0  0  0  0
    2.8064    3.3573   -0.8689 H   0  0  0  0  0  0  0  0  0  0  0  0
    1.4251    1.7543   -0.4649 C   0  0  0  0  0  0  0  0  0  0  0  0
    1.2171    0.3868   -0.1670 C   0  0  0  0  0  3  0  0  0  0  0  0
    2.3383   -0.4391   -0.0052 C   0  0  0  0  0  0  0  0  0  0  0  0
    2.2662   -1.5088    0.2356 H   0  0  0  0  0  0  0  0  0  0  0  0
    0.2094    2.6288   -0.5968 C   0  0  0  0  0  0  0  0  0  0  0  0
   -2.8038    2.7641    0.7045 C   0  0  0  0  0  0  0  0  0  0  0  0
   -2.8979    1.8568    1.3438 H   0  0  0  0  0  0  0  0  0  0  0  0
   -2.2878    3.5724    1.2701 H   0  0  0  0  0  0  0  0  0  0  0  0
   -3.8126    3.1162    0.4134 H   0  0  0  0  0  0  0  0  0  0  0  0
    4.7943   -0.7838    0.0033 N   0  0  0  0  0  0  0  0  0  0  0  0
   -0.8921    1.8762   -0.2521 N   0  0  0  0  0  2  0  0  0  0  0  0
    5.9147   -0.2939   -0.1404 O   0  0  0  0  0  0  0  0  0  0  0  0
    4.5737   -1.9668    0.2799 O   0  0  0  0  0  0  0  0  0  0  0  0
    0.2280    3.8185   -0.9180 O   0  0  0  0  0  0  0  0  0  0  0  0
   -2.1189    2.4737   -0.5078 O   0  0  0  0  0  0  0  0  0  0  0  0
  1  8  1  0  0  0  0
  1 15  1  0  0  0  0
  2  1  2  0  0  0  0
  3  2  1  0  0  0  0
  4  2  1  0  0  0  0
  4  6  2  0  0  0  0
  5  4  1  0  0  0  0
  6  7  1  0  0  0  0
  7  8  2  0  0  0  0
  8  9  1  0  0  0  0
 10  6  1  0  0  0  0
 10 16  1  0  0  0  0
 11 13  1  0  0  0  0
 11 12  1  0  0  0  0
 14 11  1  0  0  0  0
 15 18  2  0  0  0  0
 17 15  2  0  0  0  0
 19 10  2  0  0  0  0
 20 16  1  0  0  0  0
 20 11  1  0  0  0  0
M  END
