2,19
q = -1.0, confidence = 0.0

 19 19  0  0  1  0  0  0  0  0999 V2000
   -4.0194    3.1738   -0.6753 F   0  0  0  0  0  0  0  0  0  0  0  0
   -1.0764   -2.2741   -0.3033 N   0  0  0  0  0  0  0  0  0  0  0  0
   -1.1770   -2.4571   -1.3136 H   0  0  0  0  0  0  0  0  0  0  0  0
   -0.5214   -3.0561    0.0827 H   0  0  0  0  0  0  0  0  0  0  0  0
   -2.2904   -2.4078    1.8459 C   0  0  0  0  0  0  0  0  0  0  0  0
   -1.9254   -3.4366    2.0487 H   0  0  0  0  0  0  0  0  0  0  0  0
   -3.2738   -2.2858    2.3387 H   0  0  0  0  0  0  0  0  0  0  0  0
   -1.5814   -1.6817    2.2925 H   0  0  0  0  0  0  0  0  0  0  0  0
   -2.4266   -2.1426    0.3446 C   0  0  1  0  0  0  0  0  0  0  0  0
   -3.1133   -2.8988   -0.0971 H   0  0  0  0  0  0  0  0  0  0  0  0
   -2.9040   -0.7376    0.0428 C   0  0  0  0  0  0  0  0  0  0  0  0
   -4.2632   -0.3916    0.0041 C   0  0  0  0  0  0  0  0  0  0  0  0
   -5.0349   -1.1637    0.1576 H   0  0  0  0  0  0  0  0  0  0  0  0
   -4.6561    0.9359   -0.2306 C   0  0  0  0  0  0  0  0  0  0  0  0
   -5.7130    1.2342   -0.2682 H   0  0  0  0  0  0  0  0  0  0  0  0
   -3.6566    1.8944   -0.4347 C   0  0  0  0  0  0  0  0  0  0  0  0
   -2.2932    1.5727   -0.4102 C   0  0  0  0  0  0  0  0  0  0  0  0
   -1.5688    2.3782   -0.6033 H   0  0  0  0  0  0  0  0  0  0  0  0
   -1.8893    0.2458   -0.1576 C   0  0  0  0  0  3  0  0  0  0  0  0
  1 16  1  0  0  0  0
  2  4  1  0  0  0  0
  2  9  1  0  0  0  0
  3  2  1  0  0  0  0
  5  6  1  0  0  0  0
  5  8  1  0  0  0  0
  5  7  1  0  0  0  0
  9 10  1  6  0  0  0
  9  5  1  0  0  0  0
 11  9  1  0  0  0  0
 12 11  1  0  0  0  0
 12 13  1  0  0  0  0
 14 12  2  0  0  0  0
 15 14  1  0  0  0  0
 16 17  2  0  0  0  0
 16 14  1  0  0  0  0
 17 19  1  0  0  0  0
 18 17  1  0  0  0  0
 19 11  2  0  0  0  0
M  END
