1,4
q = -1.0, confidence = 0.002

 58 60  0  0  1  0  0  0  0  0999 V2000
    0.2051   -1.1620   -1.0955 N   0  0  0  0  0  2  0  0  0  0  0  0
   -2.4343   -0.4298   -0.3883 N   0  0  0  0  0  0  0  0  0  0  0  0
    2.4232    0.5023   -0.2309 N   0  0  0  0  0  0  0  0  0  0  0  0
   -0.2043    1.3858   -0.8089 C   0  0  0  0  0  3  0  0  0  0  0  0
    0.8834    2.2657   -0.9774 C   0  0  0  0  0  0  0  0  0  0  0  0
    0.7399    3.3744   -1.8344 C   0  0  0  0  0  0  0  0  0  0  0  0
    1.5863    4.0653   -1.9779 H   0  0  0  0  0  0  0  0  0  0  0  0
   -0.4696    3.5899   -2.5132 C   0  0  0  0  0  0  0  0  0  0  0  0
   -0.5836    4.4655   -3.1694 H   0  0  0  0  0  0  0  0  0  0  0  0
   -1.5170    2.6663   -2.3888 C   0  0  0  0  0  0  0  0  0  0  0  0
   -2.4459    2.8083   -2.9654 H   0  0  0  0  0  0  0  0  0  0  0  0
   -1.3870    1.5377   -1.5528 C   0  0  0  0  0  0  0  0  0  0  0  0
   -2.4410    0.4449   -1.5707 C   0  0  0  0  0  0  0  0  0  0  0  0
   -3.4455    0.8833   -1.7504 H   0  0  0  0  0  0  0  0  0  0  0  0
   -2.2515   -0.1779   -2.4742 H   0  0  0  0  0  0  0  0  0  0  0  0
   -2.1560   -1.8144   -0.7238 C   0  0  0  0  0  0  0  0  0  0  0  0
   -2.9246   -2.2813   -1.3902 H   0  0  0  0  0  0  0  0  0  0  0  0
   -2.1560   -2.4171    0.2083 H   0  0  0  0  0  0  0  0  0  0  0  0
   -0.8109   -2.0074   -1.4026 C   0  0  1  0  0  3  0  0  0  0  0  0
   -0.6208   -3.0380   -2.3364 C   0  0  0  0  0  0  0  0  0  0  0  0
   -1.4601   -3.7068   -2.5771 H   0  0  0  0  0  0  0  0  0  0  0  0
    0.6279   -3.1917   -2.9492 C   0  0  0  0  0  0  0  0  0  0  0  0
    0.8023   -4.0068   -3.6669 H   0  0  0  0  0  0  0  0  0  0  0  0
    1.6409   -2.2693   -2.6580 C   0  0  0  0  0  0  0  0  0  0  0  0
    2.6203   -2.3241   -3.1557 H   0  0  0  0  0  0  0  0  0  0  0  0
    1.3977   -1.2409   -1.7366 C   0  0  0  0  0  0  0  0  0  0  0  0
    2.3985   -0.1126   -1.5526 C   0  0  0  0  0  0  0  0  0  0  0  0
    3.3972   -0.4632   -1.8907 H   0  0  0  0  0  0  0  0  0  0  0  0
    2.0933    0.6569   -2.2951 H   0  0  0  0  0  0  0  0  0  0  0  0
    2.1921    1.9570   -0.2815 C   0  0  0  0  0  0  0  0  0  0  0  0
    3.0206    2.5117   -0.7852 H   0  0  0  0  0  0  0  0  0  0  0  0
    2.1559    2.3294    0.7621 H   0  0  0  0  0  0  0  0  0  0  0  0
   -3.5633   -0.2067    0.5755 C   0  0  0  0  0  0  0  0  0  0  0  0
   -4.9016   -0.7333    0.0146 C   0  0  0  0  0  0  0  0  0  0  0  0
   -5.1475   -0.2655   -0.9603 H   0  0  0  0  0  0  0  0  0  0  0  0
   -5.7334   -0.5023    0.7091 H   0  0  0  0  0  0  0  0  0  0  0  0
   -4.8857   -1.8330   -0.1254 H   0  0  0  0  0  0  0  0  0  0  0  0
   -3.2540   -0.9075    1.9109 C   0  0  0  0  0  0  0  0  0  0  0  0
   -3.2201   -2.0116    1.8190 H   0  0  0  0  0  0  0  0  0  0  0  0
   -4.0516   -0.6759    2.6431 H   0  0  0  0  0  0  0  0  0  0  0  0
   -2.2866   -0.5572    2.3175 H   0  0  0  0  0  0  0  0  0  0  0  0
   -3.6793    1.3033    0.8584 C   0  0  0  0  0  0  0  0  0  0  0  0
   -2.7014    1.7177    1.1649 H   0  0  0  0  0  0  0  0  0  0  0  0
   -4.4121    1.4721    1.6711 H   0  0  0  0  0  0  0  0  0  0  0  0
   -4.0301    1.8765   -0.0203 H   0  0  0  0  0  0  0  0  0  0  0  0
    3.5471    0.0465    0.6531 C   0  0  0  0  0  0  0  0  0  0  0  0
    3.6013   -1.4929    0.6329 C   0  0  0  0  0  0  0  0  0  0  0  0
    2.6164   -1.9234    0.8952 H   0  0  0  0  0  0  0  0  0  0  0  0
    4.3473   -1.8476    1.3702 H   0  0  0  0  0  0  0  0  0  0  0  0
    3.9046   -1.8974   -0.3519 H   0  0  0  0  0  0  0  0  0  0  0  0
    3.2681    0.4872    2.1020 C   0  0  0  0  0  0  0  0  0  0  0  0
    3.3164    1.5863    2.2286 H   0  0  0  0  0  0  0  0  0  0  0  0
    4.0319    0.0532    2.7762 H   0  0  0  0  0  0  0  0  0  0  0  0
    2.2684    0.1397    2.4259 H   0  0  0  0  0  0  0  0  0  0  0  0
    4.9059    0.6154    0.1927 C   0  0  0  0  0  0  0  0  0  0  0  0
    5.1392    0.3282   -0.8529 H   0  0  0  0  0  0  0  0  0  0  0  0
    5.7252    0.2272    0.8296 H   0  0  0  0  0  0  0  0  0  0  0  0
    4.9312    1.7211    0.2587 H   0  0  0  0  0  0  0  0  0  0  0  0
  2 33  1  0  0  0  0
  3 46  1  0  0  0  0
  5  4  1  0  0  0  0
  5 30  1  0  0  0  0
  6  5  2  0  0  0  0
  7  6  1  0  0  0  0
  8 10  2  0  0  0  0
  8  6  1  0  0  0  0
  9  8  1  0  0  0  0
 10 12  1  0  0  0  0
 11 10  1  0  0  0  0
 12  4  2  0  0  0  0
 13 12  1  0  0  0  0
 13  2  1  0  0  0  0
 14 13  1  0  0  0  0
 15 13  1  0  0  0  0
 16  2  1  0  0  0  0
 16 18  1  0  0  0  0
 17 16  1  0  0  0  0
 19 20  1  6  0  0  0
 19  1  1  0  0  0  0
 19 16  1  0  0  0  0
 21 20  1  0  0  0  0
 22 24  1  0  0  0  0
 22 20  2  0  0  0  0
 23 22  1  0  0  0  0
 24 26  2  0  0  0  0
 25 24  1  0  0  0  0
 26 27  1  0  0  0  0
 26  1  1  0  0  0  0
 27  3  1  0  0  0  0
 28 27  1  0  0  0  0
 29 27  1  0  0  0  0
 30  3  1  0  0  0  0
 30 32  1  0  0  0  0
 31 30  1  0  0  0  0
 33 42  1  0  0  0  0
 33 38  1  0  0  0  0
 34 33  1  0  0  0  0
 34 36  1  0  0  0  0
 35 34  1  0  0  0  0
 37 34  1  0  0  0  0
 38 41  1  0  0  0  0
 38 40  1  0  0  0  0
 39 38  1  0  0  0  0
 42 43  1  0  0  0  0
 42 44  1  0  0  0  0
 45 42  1  0  0  0  0
 46 51  1  0  0  0  0
 47 46  1  0  0  0  0
 47 48  1  0  0  0  0
 47 49  1  0  0  0  0
 50 47  1  0  0  0  0
 51 52  1  0  0  0  0
 51 54  1  0  0  0  0
 51 53  1  0  0  0  0
 55 58  1  0  0  0  0
 55 46  1  0  0  0  0
 55 57  1  0  0  0  0
 56 55  1  0  0  0  0
M  END
