1,15
q = 0.0, confidence = 0.99

 39 39  0  0  1  0  0  0  0  0999 V2000
    0.8010   -1.1579   -0.3541 N   0  0  0  0  0  2  0  0  0  0  0  0
    1.4066   -2.3654   -0.8955 C   0  0  0  0  0  0  0  0  0  0  0  0
    2.4788   -2.2435   -1.1478 H   0  0  0  0  0  0  0  0  0  0  0  0
    1.5188   -0.1265   -0.0312 C   0  0  2  0  0  3  0  0  0  0  0  0
    3.0059   -0.0568   -0.0416 C   0  0  0  0  0  0  0  0  0  0  0  0
    3.7772   -0.9709    0.7112 C   0  0  0  0  0  0  0  0  0  0  0  0
    5.1751   -0.8729    0.7354 C   0  0  0  0  0  0  0  0  0  0  0  0
    5.8251    0.1355    0.0058 C   0  0  0  0  0  0  0  0  0  0  0  0
    5.0689    1.0517   -0.7428 C   0  0  0  0  0  0  0  0  0  0  0  0
    3.6702    0.9628   -0.7592 C   0  0  0  0  0  0  0  0  0  0  0  0
    0.7666    1.0867    0.4616 C   0  0  2  0  0  0  0  0  0  0  0  0
    1.2187    1.9724   -0.0391 H   0  0  0  0  0  0  0  0  0  0  0  0
    0.9995    1.2508    1.9858 C   0  0  0  0  0  0  0  0  0  0  0  0
    2.0798    1.3743    2.1985 H   0  0  0  0  0  0  0  0  0  0  0  0
   -0.7212    0.9406    0.1449 C   0  0  0  0  0  2  0  0  0  0  0  0
   -1.3875    2.0945    0.0566 N   0  0  0  0  0  0  0  0  0  0  0  0
   -2.8444    2.1313   -0.1689 C   0  0  0  0  0  0  0  0  0  0  0  0
   -3.6242    2.1920    1.1406 C   0  0  0  0  0  0  0  0  0  0  0  0
   -3.3824    1.3141    1.7699 H   0  0  0  0  0  0  0  0  0  0  0  0
   -0.7864    3.4456    0.1311 C   0  0  0  0  0  0  0  0  0  0  0  0
   -0.3799    3.9753   -1.2441 C   0  0  0  0  0  0  0  0  0  0  0  0
    0.3986    3.3358   -1.7064 H   0  0  0  0  0  0  0  0  0  0  0  0
   -3.1166    1.2334   -0.7473 H   0  0  0  0  0  0  0  0  0  0  0  0
   -3.0650    3.0148   -0.8034 H   0  0  0  0  0  0  0  0  0  0  0  0
   -4.7124    2.1728    0.9364 H   0  0  0  0  0  0  0  0  0  0  0  0
   -3.3969    3.1130    1.7164 H   0  0  0  0  0  0  0  0  0  0  0  0
    0.0764    3.4386    0.8207 H   0  0  0  0  0  0  0  0  0  0  0  0
   -1.5386    4.1150    0.5955 H   0  0  0  0  0  0  0  0  0  0  0  0
    0.0221    5.0047   -1.1597 H   0  0  0  0  0  0  0  0  0  0  0  0
   -1.2435    4.0023   -1.9382 H   0  0  0  0  0  0  0  0  0  0  0  0
    3.2692   -1.7529    1.2953 H   0  0  0  0  0  0  0  0  0  0  0  0
    5.7614   -1.5878    1.3322 H   0  0  0  0  0  0  0  0  0  0  0  0
    6.9228    0.2094    0.0231 H   0  0  0  0  0  0  0  0  0  0  0  0
    5.5727    1.8420   -1.3195 H   0  0  0  0  0  0  0  0  0  0  0  0
    3.0841    1.6792   -1.3552 H   0  0  0  0  0  0  0  0  0  0  0  0
    0.4628    2.1344    2.3836 H   0  0  0  0  0  0  0  0  0  0  0  0
    0.6302    0.3633    2.5319 H   0  0  0  0  0  0  0  0  0  0  0  0
    1.2924   -3.1955   -0.1700 H   0  0  0  0  0  0  0  0  0  0  0  0
    0.8444   -2.6609   -1.8019 H   0  0  0  0  0  0  0  0  0  0  0  0
  2  1  1  0  0  0  0
  2 38  1  0  0  0  0
  3  2  1  0  0  0  0
  4  1  1  1  0  0  0
  4 11  1  0  0  0  0
  5  4  1  0  0  0  0
  5  6  1  0  0  0  0
  6  7  2  0  0  0  0
  6 31  1  0  0  0  0
  7 32  1  0  0  0  0
  8 33  1  0  0  0  0
  8  7  1  0  0  0  0
  9  8  2  0  0  0  0
 10  9  1  0  0  0  0
 10  5  2  0  0  0  0
 11 12  1  6  0  0  0
 11 13  1  0  0  0  0
 13 14  1  0  0  0  0
 13 36  1  0  0  0  0
 13 37  1  0  0  0  0
 15 11  1  0  0  0  0
 16 20  1  0  0  0  0
 16 15  1  0  0  0  0
 17 16  1  0  0  0  0
 17 18  1  0  0  0  0
 18 26  1  0  0  0  0
 18 19  1  0  0  0  0
 20 28  1  0  0  0  0
 20 27  1  0  0  0  0
 21 29  1  0  0  0  0
 21 20  1  0  0  0  0
 22 21  1  0  0  0  0
 23 17  1  0  0  0  0
 24 17  1  0  0  0  0
 25 18  1  0  0  0  0
 30 21  1  0  0  0  0
 34  9  1  0  0  0  0
 35 10  1  0  0  0  0
 39  2  1  0  0  0  0
M  END
