2
q = -2.0, confidence = 0.93

 44 44  0  0  1  0  0  0  0  0999 V2000
   -1.8182    1.8888    0.8942 Si  0  0  0  0  0  0  0  0  0  0  0  0
   -0.7368    1.5408   -0.4525 N   0  0  0  0  0  2  0  0  0  0  0  0
   -1.3133    0.3689    1.9078 C   0  0  2  0  0  3  0  0  0  0  0  0
    0.0416    0.2649    2.4091 C   0  0  0  0  0  0  0  0  0  0  0  0
    0.4267   -1.1097    2.4199 C   0  0  0  0  0  0  0  0  0  0  0  0
   -0.6823   -1.8785    1.9288 C   0  0  0  0  0  0  0  0  0  0  0  0
   -1.7529   -0.9779    1.6354 C   0  0  0  0  0  0  0  0  0  0  0  0
    0.9195    1.4149    2.8244 C   0  0  0  0  0  0  0  0  0  0  0  0
    1.8924    1.0621    3.2133 H   0  0  0  0  0  0  0  0  0  0  0  0
    0.4363    2.0175    3.6202 H   0  0  0  0  0  0  0  0  0  0  0  0
    1.1374    2.1056    1.9825 H   0  0  0  0  0  0  0  0  0  0  0  0
    1.6994   -1.7011    2.9495 C   0  0  0  0  0  0  0  0  0  0  0  0
    1.5395   -2.1798    3.9406 H   0  0  0  0  0  0  0  0  0  0  0  0
    2.4906   -0.9381    3.0739 H   0  0  0  0  0  0  0  0  0  0  0  0
    2.1068   -2.4833    2.2763 H   0  0  0  0  0  0  0  0  0  0  0  0
   -0.7115   -3.3791    1.8730 C   0  0  0  0  0  0  0  0  0  0  0  0
    0.2470   -3.7992    1.5027 H   0  0  0  0  0  0  0  0  0  0  0  0
   -1.5231   -3.7616    1.2223 H   0  0  0  0  0  0  0  0  0  0  0  0
   -0.8775   -3.8215    2.8803 H   0  0  0  0  0  0  0  0  0  0  0  0
   -3.1224   -1.3980    1.1787 C   0  0  0  0  0  0  0  0  0  0  0  0
   -3.8453   -1.3678    2.0224 H   0  0  0  0  0  0  0  0  0  0  0  0
   -3.1264   -2.4353    0.7904 H   0  0  0  0  0  0  0  0  0  0  0  0
   -3.5365   -0.7381    0.3933 H   0  0  0  0  0  0  0  0  0  0  0  0
   -1.5459    3.5317    1.8104 C   0  0  0  0  0  0  0  0  0  0  0  0
   -0.4907    3.7171    2.0826 H   0  0  0  0  0  0  0  0  0  0  0  0
   -2.1471    3.5361    2.7443 H   0  0  0  0  0  0  0  0  0  0  0  0
   -1.8940    4.3817    1.1873 H   0  0  0  0  0  0  0  0  0  0  0  0
   -3.6668    1.9187    0.4299 C   0  0  0  0  0  0  0  0  0  0  0  0
   -3.9362    2.9145    0.0217 H   0  0  0  0  0  0  0  0  0  0  0  0
   -4.3024    1.7373    1.3217 H   0  0  0  0  0  0  0  0  0  0  0  0
   -3.9339    1.1659   -0.3382 H   0  0  0  0  0  0  0  0  0  0  0  0
   -0.3343    2.4287   -1.5504 C   0  0  0  0  0  0  0  0  0  0  0  0
    0.7493    3.4148   -1.0572 C   0  0  0  0  0  0  0  0  0  0  0  0
    0.3573    4.0482   -0.2372 H   0  0  0  0  0  0  0  0  0  0  0  0
    1.1015    4.0828   -1.8713 H   0  0  0  0  0  0  0  0  0  0  0  0
    1.6219    2.8543   -0.6647 H   0  0  0  0  0  0  0  0  0  0  0  0
   -1.5337    3.2284   -2.0999 C   0  0  0  0  0  0  0  0  0  0  0  0
   -2.3417    2.5433   -2.4286 H   0  0  0  0  0  0  0  0  0  0  0  0
   -1.2386    3.8576   -2.9652 H   0  0  0  0  0  0  0  0  0  0  0  0
   -1.9525    3.9019   -1.3242 H   0  0  0  0  0  0  0  0  0  0  0  0
    0.2570    1.5767   -2.6939 C   0  0  0  0  0  0  0  0  0  0  0  0
    1.0777    0.9301   -2.3192 H   0  0  0  0  0  0  0  0  0  0  0  0
    0.6792    2.2097   -3.5010 H   0  0  0  0  0  0  0  0  0  0  0  0
   -0.5215    0.9290   -3.1435 H   0  0  0  0  0  0  0  0  0  0  0  0
  1 24  1  0  0  0  0
  2  1  1  0  0  0  0
  3  1  1  6  0  0  0
  3  4  1  0  0  0  0
  4  5  2  0  0  0  0
  4  8  1  0  0  0  0
  5 12  1  0  0  0  0
  6  5  1  0  0  0  0
  7  3  1  0  0  0  0
  7  6  2  0  0  0  0
  8  9  1  0  0  0  0
  8 10  1  0  0  0  0
 11  8  1  0  0  0  0
 12 14  1  0  0  0  0
 12 13  1  0  0  0  0
 15 12  1  0  0  0  0
 16  6  1  0  0  0  0
 16 19  1  0  0  0  0
 17 16  1  0  0  0  0
 18 16  1  0  0  0  0
 20  7  1  0  0  0  0
 20 21  1  0  0  0  0
 22 20  1  0  0  0  0
 23 20  1  0  0  0  0
 24 25  1  0  0  0  0
 24 26  1  0  0  0  0
 27 24  1  0  0  0  0
 28  1  1  0  0  0  0
 28 30  1  0  0  0  0
 29 28  1  0  0  0  0
 31 28  1  0  0  0  0
 32 33  1  0  0  0  0
 32  2  1  0  0  0  0
 33 36  1  0  0  0  0
 33 34  1  0  0  0  0
 35 33  1  0  0  0  0
 37 32  1  0  0  0  0
 37 40  1  0  0  0  0
 38 37  1  0  0  0  0
 39 37  1  0  0  0  0
 41 42  1  0  0  0  0
 41 32  1  0  0  0  0
 43 41  1  0  0  0  0
 44 41  1  0  0  0  0
M  END
