7,23
q = -1.0, confidence = 0.0

 29 30  0  0  0  0  0  0  0  0999 V2000
    6.2446    0.8339    1.0503 F   0  0  0  0  0  0  0  0  0  0  0  0
    6.6609   -0.3291   -0.7473 F   0  0  0  0  0  0  0  0  0  0  0  0
    6.2359   -1.3527    1.1275 F   0  0  0  0  0  0  0  0  0  0  0  0
    2.7934   -3.8354   -1.1036 F   0  0  0  0  0  0  0  0  0  0  0  0
    1.1405   -2.8790   -2.1428 F   0  0  0  0  0  0  0  0  0  0  0  0
    0.9849   -3.3254   -0.0119 F   0  0  0  0  0  0  0  0  0  0  0  0
    0.3166    2.0047   -1.0808 N   0  0  0  0  0  2  0  0  0  0  0  0
   -0.3608    3.1054   -1.4554 C   0  0  0  0  0  3  0  0  0  0  0  0
   -1.3608    2.9414   -1.8757 H   0  0  0  0  0  0  0  0  0  0  0  0
    0.1488    4.3974   -1.3301 C   0  0  0  0  0  0  0  0  0  0  0  0
   -0.4569    5.2549   -1.6580 H   0  0  0  0  0  0  0  0  0  0  0  0
    1.4313    4.5807   -0.7718 C   0  0  0  0  0  0  0  0  0  0  0  0
    2.1451    3.4244   -0.4298 C   0  0  0  0  0  0  0  0  0  0  0  0
    3.1606    3.5215   -0.0230 H   0  0  0  0  0  0  0  0  0  0  0  0
    1.5895    2.1410   -0.6122 C   0  0  0  0  0  0  0  0  0  0  0  0
    2.3409    0.8875   -0.4066 C   0  0  0  0  0  0  0  0  0  0  0  0
    3.6993    0.9008   -0.0364 C   0  0  0  0  0  0  0  0  0  0  0  0
    4.2162    1.8398    0.2036 H   0  0  0  0  0  0  0  0  0  0  0  0
    4.4205   -0.2937    0.0299 C   0  0  0  0  0  0  0  0  0  0  0  0
    3.7900   -1.5041   -0.2949 C   0  0  0  0  0  0  0  0  0  0  0  0
    4.3616   -2.4410   -0.2656 H   0  0  0  0  0  0  0  0  0  0  0  0
    2.4303   -1.5261   -0.6480 C   0  0  0  0  0  0  0  0  0  0  0  0
    1.6628   -0.3356   -0.6779 C   0  0  0  0  0  3  0  0  0  0  0  0
    2.0007    5.9556   -0.5578 C   0  0  0  0  0  0  0  0  0  0  0  0
    3.0735    5.9205   -0.2899 H   0  0  0  0  0  0  0  0  0  0  0  0
    1.4626    6.4741    0.2636 H   0  0  0  0  0  0  0  0  0  0  0  0
    1.8844    6.5836   -1.4641 H   0  0  0  0  0  0  0  0  0  0  0  0
    5.8896   -0.2849    0.3703 C   0  0  0  0  0  0  0  0  0  0  0  0
    1.8327   -2.8849   -0.9746 C   0  0  0  0  0  0  0  0  0  0  0  0
  2 28  1  0  0  0  0
  4 29  1  0  0  0  0
  5 29  1  0  0  0  0
  7 15  1  0  0  0  0
  8 10  1  0  0  0  0
  8  7  1  0  0  0  0
  9  8  1  0  0  0  0
 10 12  2  0  0  0  0
 11 10  1  0  0  0  0
 12 24  1  0  0  0  0
 12 13  1  0  0  0  0
 13 14  1  0  0  0  0
 15 13  2  0  0  0  0
 15 16  1  0  0  0  0
 16 17  1  0  0  0  0
 17 19  2  0  0  0  0
 17 18  1  0  0  0  0
 19 28  1  0  0  0  0
 20 21  1  0  0  0  0
 20 19  1  0  0  0  0
 22 20  2  0  0  0  0
 23 22  1  0  0  0  0
 23 16  2  0  0  0  0
 24 25  1  0  0  0  0
 24 26  1  0  0  0  0
 27 24  1  0  0  0  0
 28  1  1  0  0  0  0
 28  3  1  0  0  0  0
 29 22  1  0  0  0  0
 29  6  1  0  0  0  0
M  END
