2,5
q = -1.0, confidence = 0.002

 42 43  0  0  1  0  0  0  0  0999 V2000
   -3.3993   -0.3649    0.2069 C   0  0  0  0  0  0  0  0  0  0  0  0
    0.7209    1.7270    0.1818 N   0  0  0  0  0  2  0  0  0  0  0  0
   -2.1373   -0.4930    0.7800 N   0  0  0  0  0  0  0  0  0  0  0  0
   -0.1704    0.0215    2.7589 O   0  0  0  0  0  0  0  0  0  0  0  0
    0.2912   -0.9115    0.6226 C   0  0  0  0  0  3  0  0  0  0  0  0
   -0.9103   -0.0475    0.1719 C   0  0  2  0  0  0  0  0  0  0  0  0
   -1.0008   -0.1770   -0.9257 H   0  0  0  0  0  0  0  0  0  0  0  0
   -5.8394   -0.5693    0.4417 C   0  0  0  0  0  0  0  0  0  0  0  0
   -6.6969   -0.8011    1.0879 H   0  0  0  0  0  0  0  0  0  0  0  0
   -4.5487   -0.6479    0.9818 C   0  0  0  0  0  0  0  0  0  0  0  0
   -4.4220   -0.9465    2.0344 H   0  0  0  0  0  0  0  0  0  0  0  0
    0.5130   -0.7847    2.1088 C   0  0  0  0  0  0  0  0  0  0  0  0
   -0.5859    1.4201    0.3737 C   0  0  2  0  0  3  0  0  0  0  0  0
    0.2712    4.0469    0.5604 C   0  0  0  0  0  0  0  0  0  0  0  0
    0.6494    5.0766    0.6264 H   0  0  0  0  0  0  0  0  0  0  0  0
   -1.0870    3.7484    0.7679 C   0  0  0  0  0  0  0  0  0  0  0  0
   -1.8036    4.5494    1.0034 H   0  0  0  0  0  0  0  0  0  0  0  0
   -7.2373   -0.0982   -1.5318 O   0  0  0  0  0  0  0  0  0  0  0  0
   -1.5201    2.4217    0.6718 C   0  0  0  0  0  0  0  0  0  0  0  0
   -2.5710    2.1412    0.8262 H   0  0  0  0  0  0  0  0  0  0  0  0
   -4.8881    0.0889   -1.6870 C   0  0  0  0  0  0  0  0  0  0  0  0
   -5.0383    0.3848   -2.7356 H   0  0  0  0  0  0  0  0  0  0  0  0
    1.1535    3.0048    0.2712 C   0  0  0  0  0  0  0  0  0  0  0  0
    2.2291    3.1524    0.0907 H   0  0  0  0  0  0  0  0  0  0  0  0
   -8.3947   -0.3860   -0.7788 C   0  0  0  0  0  0  0  0  0  0  0  0
   -8.5115    0.3005    0.0918 H   0  0  0  0  0  0  0  0  0  0  0  0
   -8.3996   -1.4343   -0.4001 H   0  0  0  0  0  0  0  0  0  0  0  0
   -9.2572   -0.2488   -1.4580 H   0  0  0  0  0  0  0  0  0  0  0  0
   -6.0241   -0.2028   -0.9070 C   0  0  0  0  0  0  0  0  0  0  0  0
   -3.6020    0.0170   -1.1447 C   0  0  0  0  0  0  0  0  0  0  0  0
   -2.7471    0.2725   -1.7869 H   0  0  0  0  0  0  0  0  0  0  0  0
    0.8182   -3.2612    0.6019 O   0  0  0  0  0  0  0  0  0  0  0  0
    0.3364   -2.2966    0.0172 C   0  0  0  0  0  0  0  0  0  0  0  0
    1.5566   -1.6310    2.7982 C   0  0  0  0  0  0  0  0  0  0  0  0
    1.1480   -2.6541    2.9245 H   0  0  0  0  0  0  0  0  0  0  0  0
    1.7824   -1.1853    3.7848 H   0  0  0  0  0  0  0  0  0  0  0  0
    2.4664   -1.7496    2.1812 H   0  0  0  0  0  0  0  0  0  0  0  0
   -0.2332   -2.4662   -1.3868 C   0  0  0  0  0  0  0  0  0  0  0  0
   -1.3396   -2.3729   -1.3705 H   0  0  0  0  0  0  0  0  0  0  0  0
    0.0325   -3.4754   -1.7490 H   0  0  0  0  0  0  0  0  0  0  0  0
    0.1630   -1.7007   -2.0846 H   0  0  0  0  0  0  0  0  0  0  0  0
   -2.0865   -0.4811    1.8024 H   0  0  0  0  0  0  0  0  0  0  0  0
  1  3  1  0  0  0  0
  1 10  1  0  0  0  0
  2 23  1  0  0  0  0
  2 13  1  0  0  0  0
  3 42  1  0  0  0  0
  5 12  1  0  0  0  0
  6  7  1  6  0  0  0
  6  5  1  0  0  0  0
  6  3  1  0  0  0  0
  8 10  2  0  0  0  0
  8  9  1  0  0  0  0
 10 11  1  0  0  0  0
 12  4  2  0  0  0  0
 12 34  1  0  0  0  0
 13  6  1  6  0  0  0
 13 19  1  0  0  0  0
 14 15  1  0  0  0  0
 14 16  1  0  0  0  0
 16 17  1  0  0  0  0
 18 29  1  0  0  0  0
 18 25  1  0  0  0  0
 19 16  2  0  0  0  0
 19 20  1  0  0  0  0
 21 30  1  0  0  0  0
 21 29  2  0  0  0  0
 22 21  1  0  0  0  0
 23 14  2  0  0  0  0
 24 23  1  0  0  0  0
 25 27  1  0  0  0  0
 25 26  1  0  0  0  0
 28 25  1  0  0  0  0
 29  8  1  0  0  0  0
 30  1  2  0  0  0  0
 31 30  1  0  0  0  0
 33 32  2  0  0  0  0
 33  5  1  0  0  0  0
 34 35  1  0  0  0  0
 34 36  1  0  0  0  0
 37 34  1  0  0  0  0
 38 39  1  0  0  0  0
 38 33  1  0  0  0  0
 40 38  1  0  0  0  0
 41 38  1  0  0  0  0
M  END
