1,6
q = -1.0, confidence = 0.0

 21 22  0  0  1  0  0  0  0  0999 V2000
   -0.5267    1.5967   -0.1544 N   0  0  0  0  0  2  0  0  0  0  0  0
   -1.7213    1.9030    0.4008 C   0  0  1  0  0  3  0  0  0  0  0  0
   -2.5591    0.9321    0.8062 O   0  0  0  0  0  0  0  0  0  0  0  0
   -0.0973    3.9448   -0.5048 C   0  0  0  0  0  0  0  0  0  0  0  0
    0.5679    4.7201   -0.9087 H   0  0  0  0  0  0  0  0  0  0  0  0
   -1.5822   -0.9172   -0.5010 C   0  0  0  0  0  3  0  0  0  0  0  0
    0.2450    2.6015   -0.6479 C   0  0  0  0  0  0  0  0  0  0  0  0
    1.1480    2.2658   -1.1789 H   0  0  0  0  0  0  0  0  0  0  0  0
   -2.6937   -0.2470    0.0337 C   0  0  0  0  0  0  0  0  0  0  0  0
   -1.8606   -2.0764   -1.2584 C   0  0  0  0  0  0  0  0  0  0  0  0
   -1.0219   -2.6122   -1.7294 H   0  0  0  0  0  0  0  0  0  0  0  0
   -3.1718   -2.5526   -1.4266 C   0  0  0  0  0  0  0  0  0  0  0  0
   -3.3495   -3.4646   -2.0175 H   0  0  0  0  0  0  0  0  0  0  0  0
   -4.0132   -0.6986   -0.1128 C   0  0  0  0  0  0  0  0  0  0  0  0
   -4.8306   -0.1231    0.3463 H   0  0  0  0  0  0  0  0  0  0  0  0
   -4.2530   -1.8704   -0.8448 C   0  0  0  0  0  0  0  0  0  0  0  0
   -5.2822   -2.2395   -0.9682 H   0  0  0  0  0  0  0  0  0  0  0  0
   -2.1244    3.2391    0.6000 C   0  0  0  0  0  0  0  0  0  0  0  0
   -3.0969    3.4207    1.0767 H   0  0  0  0  0  0  0  0  0  0  0  0
   -1.2960    4.2701    0.1560 C   0  0  0  0  0  0  0  0  0  0  0  0
   -1.5954    5.3195    0.2961 H   0  0  0  0  0  0  0  0  0  0  0  0
  1  2  1  0  0  0  0
  2 18  1  0  0  0  0
  2  3  1  1  0  0  0
  4 20  1  0  0  0  0
  5  4  1  0  0  0  0
  6  9  1  0  0  0  0
  7  4  2  0  0  0  0
  7  1  1  0  0  0  0
  8  7  1  0  0  0  0
  9  3  1  0  0  0  0
 10  6  2  0  0  0  0
 11 10  1  0  0  0  0
 12 10  1  0  0  0  0
 12 16  2  0  0  0  0
 13 12  1  0  0  0  0
 14  9  2  0  0  0  0
 14 15  1  0  0  0  0
 16 14  1  0  0  0  0
 17 16  1  0  0  0  0
 18 19  1  0  0  0  0
 20 21  1  0  0  0  0
 20 18  2  0  0  0  0
M  END
