2,4
q = -2.0, confidence = 0.962

 49 51  0  0  1  0  0  0  0  0999 V2000
   -1.0674   -0.9466   -0.3165 B   0  0  0  0  0  0  0  0  0  0  0  0
   -0.8332    0.4355    0.0640 N   0  0  0  0  0  2  0  0  0  0  0  0
   -2.2097   -1.7551   -0.0439 N   0  0  0  0  0  0  0  0  0  0  0  0
    0.3027   -1.4461   -0.9858 C   0  0  1  0  0  3  0  0  0  0  0  0
    0.8437   -0.8947   -2.1927 C   0  0  0  0  0  0  0  0  0  0  0  0
    0.2372   -0.4720   -3.0068 H   0  0  0  0  0  0  0  0  0  0  0  0
    2.2636   -0.8189   -2.1228 C   0  0  0  0  0  0  0  0  0  0  0  0
    2.9385   -0.4634   -2.9122 H   0  0  0  0  0  0  0  0  0  0  0  0
    3.9373   -1.7122   -0.3055 C   0  0  0  0  0  0  0  0  0  0  0  0
    4.8600   -1.4356   -0.8388 H   0  0  0  0  0  0  0  0  0  0  0  0
    3.9927   -2.3232    0.9428 C   0  0  0  0  0  0  0  0  0  0  0  0
    4.9705   -2.5376    1.4007 H   0  0  0  0  0  0  0  0  0  0  0  0
    2.8049   -2.6731    1.6459 C   0  0  0  0  0  0  0  0  0  0  0  0
    2.8871   -3.1447    2.6369 H   0  0  0  0  0  0  0  0  0  0  0  0
    1.5482   -2.4313    1.1007 C   0  0  0  0  0  0  0  0  0  0  0  0
    0.6327   -2.6992    1.6487 H   0  0  0  0  0  0  0  0  0  0  0  0
    1.4524   -1.8537   -0.1961 C   0  0  0  0  0  0  0  0  0  0  0  0
    2.6665   -1.4575   -0.8923 C   0  0  0  0  0  0  0  0  0  0  0  0
   -1.6888    1.5158    0.3098 C   0  0  0  0  0  0  0  0  0  0  0  0
   -2.8295    1.7539   -0.4998 C   0  0  0  0  0  0  0  0  0  0  0  0
   -3.0585    1.0401   -1.3053 H   0  0  0  0  0  0  0  0  0  0  0  0
   -3.6350    2.8817   -0.2978 C   0  0  0  0  0  0  0  0  0  0  0  0
   -4.5134    3.0417   -0.9427 H   0  0  0  0  0  0  0  0  0  0  0  0
   -3.3231    3.8124    0.7080 C   0  0  0  0  0  0  0  0  0  0  0  0
   -3.9550    4.6996    0.8620 H   0  0  0  0  0  0  0  0  0  0  0  0
   -2.1910    3.5958    1.5111 C   0  0  0  0  0  0  0  0  0  0  0  0
   -1.9313    4.3160    2.3027 H   0  0  0  0  0  0  0  0  0  0  0  0
   -1.3871    2.4639    1.3201 C   0  0  0  0  0  0  0  0  0  0  0  0
   -0.5030    2.2952    1.9540 H   0  0  0  0  0  0  0  0  0  0  0  0
   -3.2647   -1.3071    0.8852 C   0  0  0  0  0  0  0  0  0  0  0  0
   -2.9782   -0.2846    1.1959 H   0  0  0  0  0  0  0  0  0  0  0  0
   -4.6496   -1.2071    0.2293 C   0  0  0  0  0  0  0  0  0  0  0  0
   -4.6164   -0.5677   -0.6738 H   0  0  0  0  0  0  0  0  0  0  0  0
   -5.3773   -0.7596    0.9356 H   0  0  0  0  0  0  0  0  0  0  0  0
   -5.0455   -2.2011   -0.0656 H   0  0  0  0  0  0  0  0  0  0  0  0
   -3.3035   -2.1672    2.1583 C   0  0  0  0  0  0  0  0  0  0  0  0
   -2.3097   -2.1858    2.6487 H   0  0  0  0  0  0  0  0  0  0  0  0
   -3.6009   -3.2148    1.9435 H   0  0  0  0  0  0  0  0  0  0  0  0
   -4.0381   -1.7575    2.8810 H   0  0  0  0  0  0  0  0  0  0  0  0
   -2.3965   -3.1029   -0.6295 C   0  0  0  0  0  0  0  0  0  0  0  0
   -3.3958   -3.4463   -0.2892 H   0  0  0  0  0  0  0  0  0  0  0  0
   -2.4472   -3.0501   -2.1623 C   0  0  0  0  0  0  0  0  0  0  0  0
   -3.2137   -2.3262   -2.5037 H   0  0  0  0  0  0  0  0  0  0  0  0
   -2.6954   -4.0455   -2.5844 H   0  0  0  0  0  0  0  0  0  0  0  0
   -1.4675   -2.7395   -2.5768 H   0  0  0  0  0  0  0  0  0  0  0  0
   -1.3840   -4.1414   -0.1280 C   0  0  0  0  0  0  0  0  0  0  0  0
   -1.3617   -4.1714    0.9791 H   0  0  0  0  0  0  0  0  0  0  0  0
   -0.3624   -3.9157   -0.4890 H   0  0  0  0  0  0  0  0  0  0  0  0
   -1.6582   -5.1531   -0.4918 H   0  0  0  0  0  0  0  0  0  0  0  0
  1  3  1  0  0  0  0
  1  2  1  0  0  0  0
  2 19  1  0  0  0  0
  3 30  1  0  0  0  0
  4  1  1  1  0  0  0
  4 17  1  0  0  0  0
  5  7  2  0  0  0  0
  5  4  1  0  0  0  0
  6  5  1  0  0  0  0
  7 18  1  0  0  0  0
  8  7  1  0  0  0  0
  9 11  1  0  0  0  0
 10  9  1  0  0  0  0
 11 12  1  0  0  0  0
 11 13  2  0  0  0  0
 13 14  1  0  0  0  0
 15 13  1  0  0  0  0
 15 16  1  0  0  0  0
 17 15  2  0  0  0  0
 18  9  2  0  0  0  0
 18 17  1  0  0  0  0
 19 28  1  0  0  0  0
 20 22  1  0  0  0  0
 20 19  2  0  0  0  0
 21 20  1  0  0  0  0
 22 24  2  0  0  0  0
 23 22  1  0  0  0  0
 24 25  1  0  0  0  0
 24 26  1  0  0  0  0
 26 27  1  0  0  0  0
 28 26  2  0  0  0  0
 28 29  1  0  0  0  0
 30 31  1  0  0  0  0
 30 36  1  0  0  0  0
 32 30  1  0  0  0  0
 32 34  1  0  0  0  0
 33 32  1  0  0  0  0
 35 32  1  0  0  0  0
 36 37  1  0  0  0  0
 36 39  1  0  0  0  0
 38 36  1  0  0  0  0
 40 41  1  0  0  0  0
 40 46  1  0  0  0  0
 40  3  1  0  0  0  0
 42 40  1  0  0  0  0
 43 42  1  0  0  0  0
 44 42  1  0  0  0  0
 45 42  1  0  0  0  0
 46 47  1  0  0  0  0
 48 46  1  0  0  0  0
 49 46  1  0  0  0  0
M  END
