1,26
q = -1.0, confidence = 0.004

 34 37  0  0  0  0  0  0  0  0999 V2000
   -1.6811    1.1847    0.4331 N   0  0  0  0  0  2  0  0  0  0  0  0
   -3.6086    3.1936    0.0652 N   0  0  0  0  0  0  0  0  0  0  0  0
   -2.9070    0.8524   -0.1170 C   0  0  0  0  0  0  0  0  0  0  0  0
   -3.2313   -0.4637   -0.4767 C   0  0  0  0  0  0  0  0  0  0  0  0
   -2.4941   -1.2621   -0.3304 H   0  0  0  0  0  0  0  0  0  0  0  0
   -4.4947   -0.7719   -1.0247 C   0  0  0  0  0  0  0  0  0  0  0  0
   -4.8393   -2.1117   -1.3954 C   0  0  0  0  0  0  0  0  0  0  0  0
   -4.0951   -2.9068   -1.2334 H   0  0  0  0  0  0  0  0  0  0  0  0
   -6.0758   -2.3989   -1.9439 C   0  0  0  0  0  0  0  0  0  0  0  0
   -6.3264   -3.4325   -2.2271 H   0  0  0  0  0  0  0  0  0  0  0  0
   -7.0366   -1.3621   -2.1456 C   0  0  0  0  0  0  0  0  0  0  0  0
   -8.0160   -1.6083   -2.5830 H   0  0  0  0  0  0  0  0  0  0  0  0
   -6.7438   -0.0573   -1.7938 C   0  0  0  0  0  3  0  0  0  0  0  0
   -7.4831    0.7444   -1.9451 H   0  0  0  0  0  0  0  0  0  0  0  0
   -5.4744    0.2812   -1.2252 C   0  0  0  0  0  0  0  0  0  0  0  0
   -5.1407    1.5974   -0.8462 C   0  0  0  0  0  0  0  0  0  0  0  0
   -5.8565    2.4234   -0.9693 H   0  0  0  0  0  0  0  0  0  0  0  0
   -3.8879    1.9020   -0.2896 C   0  0  0  0  0  0  0  0  0  0  0  0
   -2.4701    3.4654    0.6720 C   0  0  0  0  0  0  0  0  0  0  0  0
   -1.4736    2.4326    0.9395 C   0  0  0  0  0  0  0  0  0  0  0  0
   -2.2501    4.9182    1.0028 C   0  0  0  0  0  0  0  0  0  0  0  0
   -1.2512    5.2734    0.6823 H   0  0  0  0  0  0  0  0  0  0  0  0
   -2.3406    5.1087    2.0924 H   0  0  0  0  0  0  0  0  0  0  0  0
   -3.0357    5.5004    0.4886 H   0  0  0  0  0  0  0  0  0  0  0  0
   -0.2464    2.5507    1.7248 C   0  0  0  0  0  0  0  0  0  0  0  0
    0.5546    1.3567    1.7321 C   0  0  0  0  0  3  0  0  0  0  0  0
    1.6835    1.2980    2.5766 C   0  0  0  0  0  0  0  0  0  0  0  0
    2.2903    0.3805    2.6045 H   0  0  0  0  0  0  0  0  0  0  0  0
    2.0444    2.3938    3.3688 C   0  0  0  0  0  0  0  0  0  0  0  0
    2.9304    2.3312    4.0202 H   0  0  0  0  0  0  0  0  0  0  0  0
    1.2775    3.5753    3.3385 C   0  0  0  0  0  0  0  0  0  0  0  0
    1.5613    4.4358    3.9624 H   0  0  0  0  0  0  0  0  0  0  0  0
    0.1425    3.6543    2.5284 C   0  0  0  0  0  0  0  0  0  0  0  0
   -0.4470    4.5762    2.5476 H   0  0  0  0  0  0  0  0  0  0  0  0
  1 20  1  0  0  0  0
  2 19  1  0  0  0  0
  3  1  1  0  0  0  0
  4  5  1  0  0  0  0
  4  3  2  0  0  0  0
  6  4  1  0  0  0  0
  7  8  1  0  0  0  0
  7  6  2  0  0  0  0
  9  7  1  0  0  0  0
 10  9  1  0  0  0  0
 11  9  2  0  0  0  0
 11 13  1  0  0  0  0
 12 11  1  0  0  0  0
 13 15  1  0  0  0  0
 14 13  1  0  0  0  0
 15  6  1  0  0  0  0
 15 16  2  0  0  0  0
 16 18  1  0  0  0  0
 17 16  1  0  0  0  0
 18  3  1  0  0  0  0
 18  2  2  0  0  0  0
 19 20  2  0  0  0  0
 19 21  1  0  0  0  0
 20 25  1  0  0  0  0
 21 23  1  0  0  0  0
 22 21  1  0  0  0  0
 24 21  1  0  0  0  0
 25 26  2  0  0  0  0
 25 33  1  0  0  0  0
 26 27  1  0  0  0  0
 27 28  1  0  0  0  0
 27 29  2  0  0  0  0
 29 30  1  0  0  0  0
 31 29  1  0  0  0  0
 31 32  1  0  0  0  0
 33 34  1  0  0  0  0
 33 31  2  0  0  0  0
M  END
