1
q = -1.0, confidence = 0.032

 34 37  0  0  1  0  0  0  0  0999 V2000
    1.3396   -1.3216   -1.1535 N   0  0  0  0  0  2  0  0  0  0  0  0
    0.2585   -2.0505    1.2831 C   0  0  0  0  0  3  0  0  0  0  0  0
    0.1867   -1.0035    2.2663 C   0  0  0  0  0  0  0  0  0  0  0  0
   -1.1725   -0.4839    2.2969 C   0  0  0  0  0  0  0  0  0  0  0  0
   -1.9651   -1.2867    1.3848 C   0  0  0  0  0  0  0  0  0  0  0  0
   -1.0735   -2.2652    0.7844 C   0  0  0  0  0  0  0  0  0  0  0  0
    1.4891   -2.7729    0.8239 C   0  0  0  0  0  0  0  0  0  0  0  0
    1.3736   -3.8783    0.8843 H   0  0  0  0  0  0  0  0  0  0  0  0
    2.3412   -2.5322    1.4966 H   0  0  0  0  0  0  0  0  0  0  0  0
    1.9113   -2.4138   -0.5875 C   0  0  2  0  0  3  0  0  0  0  0  0
    2.8765   -3.1600   -1.2908 C   0  0  0  0  0  0  0  0  0  0  0  0
    3.3222   -4.0462   -0.8155 H   0  0  0  0  0  0  0  0  0  0  0  0
    3.2569   -2.7641   -2.5768 C   0  0  0  0  0  0  0  0  0  0  0  0
    4.0140   -3.3367   -3.1339 H   0  0  0  0  0  0  0  0  0  0  0  0
    2.6574   -1.6303   -3.1485 C   0  0  0  0  0  0  0  0  0  0  0  0
    2.9222   -1.2830   -4.1567 H   0  0  0  0  0  0  0  0  0  0  0  0
    1.7000   -0.9431   -2.3995 C   0  0  0  0  0  0  0  0  0  0  0  0
    1.1877   -0.0542   -2.8001 H   0  0  0  0  0  0  0  0  0  0  0  0
    1.1739   -0.4039    3.0982 C   0  0  0  0  0  0  0  0  0  0  0  0
    2.2052   -0.7876    3.1008 H   0  0  0  0  0  0  0  0  0  0  0  0
    0.8193    0.6615    3.9188 C   0  0  0  0  0  0  0  0  0  0  0  0
    1.5811    1.1214    4.5667 H   0  0  0  0  0  0  0  0  0  0  0  0
   -0.5080    1.1763    3.9355 C   0  0  0  0  0  0  0  0  0  0  0  0
   -0.7499    2.0264    4.5901 H   0  0  0  0  0  0  0  0  0  0  0  0
   -1.4984    0.6136    3.1358 C   0  0  0  0  0  0  0  0  0  0  0  0
   -2.5251    1.0085    3.1538 H   0  0  0  0  0  0  0  0  0  0  0  0
   -3.3373   -1.2653    1.0322 C   0  0  0  0  0  0  0  0  0  0  0  0
   -4.0178   -0.5399    1.5026 H   0  0  0  0  0  0  0  0  0  0  0  0
   -3.8154   -2.1788    0.0954 C   0  0  0  0  0  0  0  0  0  0  0  0
   -4.8798   -2.1720   -0.1818 H   0  0  0  0  0  0  0  0  0  0  0  0
   -2.9398   -3.1211   -0.5122 C   0  0  0  0  0  0  0  0  0  0  0  0
   -3.3440   -3.8261   -1.2548 H   0  0  0  0  0  0  0  0  0  0  0  0
   -1.5865   -3.1670   -0.1903 C   0  0  0  0  0  0  0  0  0  0  0  0
   -0.9228   -3.9028   -0.6703 H   0  0  0  0  0  0  0  0  0  0  0  0
  1 10  1  0  0  0  0
  2  3  1  0  0  0  0
  3  4  2  0  0  0  0
  3 19  1  0  0  0  0
  4 25  1  0  0  0  0
  5  4  1  0  0  0  0
  6  2  1  0  0  0  0
  6  5  2  0  0  0  0
  7  8  1  0  0  0  0
  7  2  1  0  0  0  0
  7  9  1  0  0  0  0
 10  7  1  1  0  0  0
 11 12  1  0  0  0  0
 11 10  1  0  0  0  0
 13 11  2  0  0  0  0
 14 13  1  0  0  0  0
 15 13  1  0  0  0  0
 15 17  2  0  0  0  0
 16 15  1  0  0  0  0
 17  1  1  0  0  0  0
 18 17  1  0  0  0  0
 19 20  1  0  0  0  0
 19 21  2  0  0  0  0
 21 23  1  0  0  0  0
 21 22  1  0  0  0  0
 23 24  1  0  0  0  0
 25 26  1  0  0  0  0
 25 23  2  0  0  0  0
 27  5  1  0  0  0  0
 27 28  1  0  0  0  0
 29 27  2  0  0  0  0
 30 29  1  0  0  0  0
 31 33  2  0  0  0  0
 31 29  1  0  0  0  0
 32 31  1  0  0  0  0
 33  6  1  0  0  0  0
 34 33  1  0  0  0  0
M  END
