1,2
q = -1.0, confidence = 0.0

 37 38  0  0  1  0  0  0  0  0999 V2000
   -2.3917   -1.9744   -1.0655 N   0  0  0  0  0  0  0  0  0  0  0  0
   -1.5114    0.4242   -0.1959 C   0  0  0  0  0  3  0  0  0  0  0  0
   -1.1294    1.8027   -0.2928 C   0  0  0  0  0  0  0  0  0  0  0  0
    0.1322    2.2375   -0.7974 C   0  0  0  0  0  0  0  0  0  0  0  0
    0.8271    1.4821   -1.1909 H   0  0  0  0  0  0  0  0  0  0  0  0
    0.4816    3.5770   -0.8378 C   0  0  0  0  0  0  0  0  0  0  0  0
    1.4669    3.8675   -1.2369 H   0  0  0  0  0  0  0  0  0  0  0  0
   -0.4178    4.5890   -0.3835 C   0  0  0  0  0  0  0  0  0  0  0  0
   -1.6733    4.1934    0.0653 C   0  0  0  0  0  0  0  0  0  0  0  0
   -2.4002    4.9559    0.3913 H   0  0  0  0  0  0  0  0  0  0  0  0
   -2.0723    2.8237    0.1049 C   0  0  0  0  0  0  0  0  0  0  0  0
   -3.3842    2.4410    0.4993 C   0  0  0  0  0  0  0  0  0  0  0  0
   -4.0961    3.2275    0.7977 H   0  0  0  0  0  0  0  0  0  0  0  0
   -3.7989    1.1130    0.4723 C   0  0  0  0  0  0  0  0  0  0  0  0
   -2.8437    0.1076    0.1125 C   0  0  0  0  0  0  0  0  0  0  0  0
   -0.0050    6.0379   -0.4227 C   0  0  0  0  0  0  0  0  0  0  0  0
    0.2592    6.3534   -1.4543 H   0  0  0  0  0  0  0  0  0  0  0  0
    0.8954    6.2171    0.2026 H   0  0  0  0  0  0  0  0  0  0  0  0
   -0.8101    6.7048   -0.0582 H   0  0  0  0  0  0  0  0  0  0  0  0
   -5.2243    0.7503    0.8124 C   0  0  0  0  0  0  0  0  0  0  0  0
   -5.8032    1.6458    1.1099 H   0  0  0  0  0  0  0  0  0  0  0  0
   -5.2852    0.0182    1.6449 H   0  0  0  0  0  0  0  0  0  0  0  0
   -5.7471    0.2875   -0.0522 H   0  0  0  0  0  0  0  0  0  0  0  0
   -3.2136   -1.3611    0.0459 C   0  0  2  0  0  0  0  0  0  0  0  0
   -4.2881   -1.4883   -0.2280 H   0  0  0  0  0  0  0  0  0  0  0  0
   -2.9721   -2.0450    1.3977 C   0  0  0  0  0  0  0  0  0  0  0  0
   -3.3569   -3.0825    1.4356 H   0  0  0  0  0  0  0  0  0  0  0  0
   -3.4849   -1.4642    2.1882 H   0  0  0  0  0  0  0  0  0  0  0  0
   -1.8864   -2.0458    1.6294 H   0  0  0  0  0  0  0  0  0  0  0  0
   -2.8315   -1.4613   -2.3812 C   0  0  0  0  0  0  0  0  0  0  0  0
   -2.1402   -1.8330   -3.1603 H   0  0  0  0  0  0  0  0  0  0  0  0
   -2.8139   -0.3573   -2.3801 H   0  0  0  0  0  0  0  0  0  0  0  0
   -3.8638   -1.8137   -2.6128 H   0  0  0  0  0  0  0  0  0  0  0  0
   -2.4604   -3.4462   -1.0834 C   0  0  0  0  0  0  0  0  0  0  0  0
   -3.5162   -3.7833   -1.2070 H   0  0  0  0  0  0  0  0  0  0  0  0
   -2.0363   -3.8663   -0.1566 H   0  0  0  0  0  0  0  0  0  0  0  0
   -1.8416   -3.8199   -1.9184 H   0  0  0  0  0  0  0  0  0  0  0  0
  1 24  1  0  0  0  0
  2 15  1  0  0  0  0
  3  2  2  0  0  0  0
  3 11  1  0  0  0  0
  4  3  1  0  0  0  0
  5  4  1  0  0  0  0
  6  4  2  0  0  0  0
  6  8  1  0  0  0  0
  7  6  1  0  0  0  0
  8  9  2  0  0  0  0
  9 11  1  0  0  0  0
  9 10  1  0  0  0  0
 11 12  2  0  0  0  0
 12 13  1  0  0  0  0
 14 12  1  0  0  0  0
 14 20  1  0  0  0  0
 15 14  2  0  0  0  0
 16  8  1  0  0  0  0
 16 19  1  0  0  0  0
 16 18  1  0  0  0  0
 17 16  1  0  0  0  0
 20 21  1  0  0  0  0
 20 22  1  0  0  0  0
 23 20  1  0  0  0  0
 24 25  1  6  0  0  0
 24 15  1  0  0  0  0
 24 26  1  0  0  0  0
 26 27  1  0  0  0  0
 26 29  1  0  0  0  0
 26 28  1  0  0  0  0
 30 32  1  0  0  0  0
 30  1  1  0  0  0  0
 31 30  1  0  0  0  0
 33 30  1  0  0  0  0
 34  1  1  0  0  0  0
 34 36  1  0  0  0  0
 35 34  1  0  0  0  0
 37 34  1  0  0  0  0
M  END
