7,11
q = -1.0, confidence = 0.002

 25 25  0  0  1  0  0  0  0  0999 V2000
   -1.9713   -0.2012   -0.9671 S   0  0  0  0  0  0  0  0  0  0  0  0
   -2.3002   -1.8126    1.1628 F   0  0  0  0  0  0  0  0  0  0  0  0
   -2.0124    0.2822    1.7062 F   0  0  0  0  0  0  0  0  0  0  0  0
   -3.9190   -0.3736    0.8757 F   0  0  0  0  0  0  0  0  0  0  0  0
   -2.1587    1.2581   -1.1020 O   0  0  0  0  0  0  0  0  0  0  0  0
   -2.7863   -1.1430   -1.7677 O   0  0  0  0  0  0  0  0  0  0  0  0
   -0.4071   -0.6293   -0.9833 N   0  0  0  0  0  2  0  0  0  0  0  0
   -2.5934   -0.5388    0.8005 C   0  0  0  0  0  0  0  0  0  0  0  0
   -0.0886   -1.9966   -1.4152 C   0  0  0  0  0  0  0  0  0  0  0  0
    0.4926   -2.8112   -0.2338 C   0  0  0  0  0  0  0  0  0  0  0  0
    1.4600   -1.9032    0.4947 C   0  0  1  0  0  3  0  0  0  0  0  0
    2.6343   -1.4487   -0.1948 C   0  0  0  0  0  3  0  0  0  0  0  0
    3.3510   -0.2944    0.2804 C   0  0  0  0  0  0  0  0  0  0  0  0
    2.9484    0.3793    1.4630 C   0  0  0  0  0  0  0  0  0  0  0  0
    1.7697   -0.0867    2.1459 C   0  0  0  0  0  0  0  0  0  0  0  0
    1.0584   -1.2478    1.7134 C   0  0  0  0  0  0  0  0  0  0  0  0
   -0.9839   -2.4878   -1.8452 H   0  0  0  0  0  0  0  0  0  0  0  0
    0.6705   -1.9227   -2.2248 H   0  0  0  0  0  0  0  0  0  0  0  0
   -0.3194   -3.1210    0.4497 H   0  0  0  0  0  0  0  0  0  0  0  0
    1.0036   -3.7226   -0.6064 H   0  0  0  0  0  0  0  0  0  0  0  0
    2.9039   -1.8910   -1.1640 H   0  0  0  0  0  0  0  0  0  0  0  0
    4.1599    0.1229   -0.3364 H   0  0  0  0  0  0  0  0  0  0  0  0
    3.4553    1.2999    1.7828 H   0  0  0  0  0  0  0  0  0  0  0  0
    1.3666    0.4993    2.9860 H   0  0  0  0  0  0  0  0  0  0  0  0
    0.1279   -1.5463    2.2149 H   0  0  0  0  0  0  0  0  0  0  0  0
  1  8  1  0  0  0  0
  5  1  2  0  0  0  0
  6  1  2  0  0  0  0
  7  1  1  0  0  0  0
  8  4  1  0  0  0  0
  8  2  1  0  0  0  0
  8  3  1  0  0  0  0
  9  7  1  0  0  0  0
  9 10  1  0  0  0  0
 10 19  1  0  0  0  0
 11 10  1  6  0  0  0
 11 16  1  0  0  0  0
 12 13  1  0  0  0  0
 12 11  1  0  0  0  0
 13 14  2  0  0  0  0
 14 23  1  0  0  0  0
 14 15  1  0  0  0  0
 15 24  1  0  0  0  0
 16 15  2  0  0  0  0
 16 25  1  0  0  0  0
 17  9  1  0  0  0  0
 18  9  1  0  0  0  0
 20 10  1  0  0  0  0
 21 12  1  0  0  0  0
 22 13  1  0  0  0  0
M  END
