1,4
q = -1.0, confidence = 0.002

 38 39  0  0  0  0  0  0  0  0999 V2000
    2.5784    0.6391   -0.1895 N   0  0  0  0  0  2  0  0  0  0  0  0
   -2.9295    3.4842    0.8592 O   0  0  0  0  0  0  0  0  0  0  0  0
   -1.1225    5.3403    0.7967 O   0  0  0  0  0  0  0  0  0  0  0  0
   -0.0108    1.3330    0.0811 C   0  0  0  0  0  2  0  0  0  0  0  0
   -1.3319    1.7111    0.3561 C   0  0  0  0  0  0  0  0  0  0  0  0
   -2.1385    0.9698    0.3713 H   0  0  0  0  0  0  0  0  0  0  0  0
   -1.6804    3.0588    0.5979 C   0  0  0  0  0  0  0  0  0  0  0  0
   -0.6784    4.0846    0.5682 C   0  0  0  0  0  0  0  0  0  0  0  0
    0.6453    3.7157    0.3204 C   0  0  0  0  0  0  0  0  0  0  0  0
    1.4405    4.4737    0.3120 H   0  0  0  0  0  0  0  0  0  0  0  0
    0.9835    2.3557    0.0922 C   0  0  0  0  0  0  0  0  0  0  0  0
    2.3410    1.9206   -0.0734 C   0  0  0  0  0  0  0  0  0  0  0  0
    3.1689    2.6537   -0.0799 H   0  0  0  0  0  0  0  0  0  0  0  0
    3.9314    0.0960   -0.2820 C   0  0  0  0  0  0  0  0  0  0  0  0
    3.8808   -0.7347   -1.0288 H   0  0  0  0  0  0  0  0  0  0  0  0
    5.0116    1.0582   -0.8004 C   0  0  0  0  0  0  0  0  0  0  0  0
    5.1326    1.9016   -0.0860 H   0  0  0  0  0  0  0  0  0  0  0  0
    4.6956    1.4947   -1.7708 H   0  0  0  0  0  0  0  0  0  0  0  0
    6.3576    0.3311   -0.9354 C   0  0  0  0  0  0  0  0  0  0  0  0
    6.2689   -0.4628   -1.7106 H   0  0  0  0  0  0  0  0  0  0  0  0
    7.1281    1.0374   -1.3055 H   0  0  0  0  0  0  0  0  0  0  0  0
    6.7957   -0.2962    0.3941 C   0  0  0  0  0  0  0  0  0  0  0  0
    7.0023    0.5127    1.1296 H   0  0  0  0  0  0  0  0  0  0  0  0
    7.7483   -0.8491    0.2652 H   0  0  0  0  0  0  0  0  0  0  0  0
    5.7138   -1.2239    0.9613 C   0  0  0  0  0  0  0  0  0  0  0  0
    6.0150   -1.6180    1.9534 H   0  0  0  0  0  0  0  0  0  0  0  0
    5.6046   -2.1111    0.2959 H   0  0  0  0  0  0  0  0  0  0  0  0
    4.3627   -0.5065    1.0728 C   0  0  0  0  0  0  0  0  0  0  0  0
    3.5732   -1.1848    1.4621 H   0  0  0  0  0  0  0  0  0  0  0  0
    4.4272    0.3273    1.8057 H   0  0  0  0  0  0  0  0  0  0  0  0
   -3.9895    2.5382    0.8763 C   0  0  0  0  0  0  0  0  0  0  0  0
   -4.9061    3.1086    1.1106 H   0  0  0  0  0  0  0  0  0  0  0  0
   -3.8332    1.7622    1.6577 H   0  0  0  0  0  0  0  0  0  0  0  0
   -4.1073    2.0389   -0.1095 H   0  0  0  0  0  0  0  0  0  0  0  0
   -0.1760    6.3955    0.7844 C   0  0  0  0  0  0  0  0  0  0  0  0
   -0.7413    7.3236    0.9840 H   0  0  0  0  0  0  0  0  0  0  0  0
    0.3293    6.4828   -0.2034 H   0  0  0  0  0  0  0  0  0  0  0  0
    0.5966    6.2640    1.5746 H   0  0  0  0  0  0  0  0  0  0  0  0
  1 12  1  0  0  0  0
  2 31  1  0  0  0  0
  4 11  1  0  0  0  0
  4  5  1  0  0  0  0
  5  6  1  0  0  0  0
  5  7  2  0  0  0  0
  7  2  1  0  0  0  0
  8  7  1  0  0  0  0
  8  3  1  0  0  0  0
  9  8  2  0  0  0  0
 10  9  1  0  0  0  0
 11  9  1  0  0  0  0
 12 11  2  0  0  0  0
 13 12  1  0  0  0  0
 14  1  1  0  0  0  0
 14 28  1  0  0  0  0
 15 14  1  0  0  0  0
 16 14  1  0  0  0  0
 16 17  1  0  0  0  0
 18 16  1  0  0  0  0
 19 16  1  0  0  0  0
 19 22  1  0  0  0  0
 20 19  1  0  0  0  0
 21 19  1  0  0  0  0
 22 25  1  0  0  0  0
 22 23  1  0  0  0  0
 24 22  1  0  0  0  0
 25 28  1  0  0  0  0
 25 26  1  0  0  0  0
 27 25  1  0  0  0  0
 28 29  1  0  0  0  0
 28 30  1  0  0  0  0
 31 32  1  0  0  0  0
 31 33  1  0  0  0  0
 34 31  1  0  0  0  0
 35  3  1  0  0  0  0
 35 36  1  0  0  0  0
 35 38  1  0  0  0  0
 37 35  1  0  0  0  0
M  END
