3,5
q = 0.0, confidence = 0.992

 33 35  0  0  1  0  0  0  0  0999 V2000
    1.0666   -2.0598   -0.5574 N   0  0  0  0  0  0  0  0  0  0  0  0
   -1.1187   -1.9845   -0.5170 N   0  0  0  0  0  0  0  0  0  0  0  0
   -2.2429   -0.0488   -0.0464 N   0  0  0  0  0  2  0  0  0  0  0  0
    3.2529   -1.7478   -1.3537 N   0  0  0  0  0  0  0  0  0  0  0  0
    0.0256   -1.1829   -0.3372 C   0  0  0  0  0  2  0  0  0  0  0  0
    0.6019   -3.3176   -0.9379 C   0  0  0  0  0  0  0  0  0  0  0  0
   -0.7606   -3.2819   -0.9126 C   0  0  0  0  0  0  0  0  0  0  0  0
   -2.3597   -1.3937   -0.2700 C   0  0  2  0  0  3  0  0  0  0  0  0
   -3.6058   -2.0715   -0.2030 C   0  0  0  0  0  0  0  0  0  0  0  0
   -4.7292   -1.2884    0.1047 C   0  0  0  0  0  0  0  0  0  0  0  0
   -4.6059    0.0868    0.3616 C   0  0  0  0  0  0  0  0  0  0  0  0
   -3.3433    0.6620    0.2943 C   0  0  0  0  0  0  0  0  0  0  0  0
   -3.7766   -3.5548   -0.4085 C   0  0  0  0  0  0  0  0  0  0  0  0
    2.4551   -1.8051   -0.2866 C   0  0  0  0  0  0  0  0  0  0  0  0
    2.8766   -1.7008    1.0630 C   0  0  0  0  0  0  0  0  0  0  0  0
    4.2529   -1.4507    1.2392 C   0  0  0  0  0  0  0  0  0  0  0  0
    5.1037   -1.3475    0.1321 C   0  0  0  0  0  0  0  0  0  0  0  0
    4.5588   -1.5216   -1.1495 C   0  0  0  0  0  0  0  0  0  0  0  0
    1.9344   -1.8513    2.2179 C   0  0  0  0  0  0  0  0  0  0  0  0
    1.2901   -4.1273   -1.1961 H   0  0  0  0  0  0  0  0  0  0  0  0
   -1.4785   -4.0604   -1.1627 H   0  0  0  0  0  0  0  0  0  0  0  0
   -5.7123   -1.7788    0.1689 H   0  0  0  0  0  0  0  0  0  0  0  0
   -5.4768    0.7008    0.6280 H   0  0  0  0  0  0  0  0  0  0  0  0
   -3.1750    1.7217    0.5285 H   0  0  0  0  0  0  0  0  0  0  0  0
   -4.8253   -3.8433   -0.2079 H   0  0  0  0  0  0  0  0  0  0  0  0
   -3.1318   -4.1464    0.2725 H   0  0  0  0  0  0  0  0  0  0  0  0
   -3.5454   -3.8661   -1.4484 H   0  0  0  0  0  0  0  0  0  0  0  0
    4.6505   -1.3478    2.2609 H   0  0  0  0  0  0  0  0  0  0  0  0
    6.1783   -1.1498    0.2593 H   0  0  0  0  0  0  0  0  0  0  0  0
    5.1974   -1.4752   -2.0485 H   0  0  0  0  0  0  0  0  0  0  0  0
    1.2552   -2.7151    2.0700 H   0  0  0  0  0  0  0  0  0  0  0  0
    1.2682   -0.9611    2.3397 H   0  0  0  0  0  0  0  0  0  0  0  0
    2.4906   -1.9978    3.1632 H   0  0  0  0  0  0  0  0  0  0  0  0
  1  5  1  0  0  0  0
  1 14  1  0  0  0  0
  2  5  1  0  0  0  0
  3 12  1  0  0  0  0
  4 18  2  0  0  0  0
  4 14  1  0  0  0  0
  6  7  2  0  0  0  0
  6  1  1  0  0  0  0
  7  2  1  0  0  0  0
  8  2  1  1  0  0  0
  8  9  1  0  0  0  0
  8  3  1  0  0  0  0
  9 10  2  0  0  0  0
 10 22  1  0  0  0  0
 10 11  1  0  0  0  0
 11 23  1  0  0  0  0
 12 11  2  0  0  0  0
 12 24  1  0  0  0  0
 13 25  1  0  0  0  0
 13  9  1  0  0  0  0
 13 26  1  0  0  0  0
 14 15  2  0  0  0  0
 15 16  1  0  0  0  0
 15 19  1  0  0  0  0
 16 28  1  0  0  0  0
 17 29  1  0  0  0  0
 17 16  2  0  0  0  0
 18 17  1  0  0  0  0
 19 32  1  0  0  0  0
 19 33  1  0  0  0  0
 20  6  1  0  0  0  0
 21  7  1  0  0  0  0
 27 13  1  0  0  0  0
 30 18  1  0  0  0  0
 31 19  1  0  0  0  0
M  END
