1,4
q = 0.0, confidence = 0.99

 26 25  0  0  0  0  0  0  0  0999 V2000
    0.4554    1.5696   -0.2465 N   0  0  0  0  0  0  0  0  0  0  0  0
    1.9514    1.4492   -0.3779 C   0  0  0  0  0  0  0  0  0  0  0  0
    2.5627    0.2093    0.2985 C   0  0  0  0  0  0  0  0  0  0  0  0
    1.7830   -1.0180   -0.1667 C   0  0  0  0  0  3  0  0  0  0  0  0
    1.2478   -1.1899   -1.4436 C   0  0  0  0  0  3  0  0  0  0  0  0
    4.0341    0.1012   -0.1575 C   0  0  0  0  0  0  0  0  0  0  0  0
    2.5159    0.2759    1.8376 C   0  0  0  0  0  0  0  0  0  0  0  0
    0.1072    2.4234    0.9201 C   0  0  0  0  0  0  0  0  0  0  0  0
   -0.0912    2.2115   -1.4714 C   0  0  0  0  0  0  0  0  0  0  0  0
    0.9216   -2.1896   -1.7661 H   0  0  0  0  0  0  0  0  0  0  0  0
    2.1767    1.3993   -1.4604 H   0  0  0  0  0  0  0  0  0  0  0  0
    2.4230    2.3819    0.0004 H   0  0  0  0  0  0  0  0  0  0  0  0
    1.3819   -0.4450   -2.2446 H   0  0  0  0  0  0  0  0  0  0  0  0
    1.8775   -1.9106    0.4764 H   0  0  0  0  0  0  0  0  0  0  0  0
    4.5012   -0.8115    0.2627 H   0  0  0  0  0  0  0  0  0  0  0  0
    4.1110    0.0431   -1.2619 H   0  0  0  0  0  0  0  0  0  0  0  0
    4.6252    0.9739    0.1907 H   0  0  0  0  0  0  0  0  0  0  0  0
    3.0835   -0.5735    2.2681 H   0  0  0  0  0  0  0  0  0  0  0  0
    2.9690    1.2141    2.2176 H   0  0  0  0  0  0  0  0  0  0  0  0
    1.4774    0.1925    2.2149 H   0  0  0  0  0  0  0  0  0  0  0  0
    0.5726    3.4270    0.8009 H   0  0  0  0  0  0  0  0  0  0  0  0
   -0.9907    2.5360    0.9656 H   0  0  0  0  0  0  0  0  0  0  0  0
    0.4736    1.9620    1.8513 H   0  0  0  0  0  0  0  0  0  0  0  0
    0.3559    3.2217   -1.6077 H   0  0  0  0  0  0  0  0  0  0  0  0
    0.1387    1.5843   -2.3518 H   0  0  0  0  0  0  0  0  0  0  0  0
   -1.1884    2.2970   -1.3662 H   0  0  0  0  0  0  0  0  0  0  0  0
  1  8  1  0  0  0  0
  2  1  1  0  0  0  0
  2 12  1  0  0  0  0
  2  3  1  0  0  0  0
  3  7  1  0  0  0  0
  4  3  1  0  0  0  0
  4 14  1  0  0  0  0
  5  4  1  0  0  0  0
  6 17  1  0  0  0  0
  6 15  1  0  0  0  0
  6  3  1  0  0  0  0
  7 20  1  0  0  0  0
  7 19  1  0  0  0  0
  7 18  1  0  0  0  0
  8 22  1  0  0  0  0
  8 23  1  0  0  0  0
  9 26  1  0  0  0  0
  9  1  1  0  0  0  0
 10  5  1  0  0  0  0
 11  2  1  0  0  0  0
 13  5  1  0  0  0  0
 16  6  1  0  0  0  0
 21  8  1  0  0  0  0
 24  9  1  0  0  0  0
 25  9  1  0  0  0  0
M  END
