1,36
q = 0.0, confidence = 0.968

 41 43  0  0  0  0  0  0  0  0999 V2000
    0.4281    0.9718   -0.3804 N   0  0  0  0  0  2  0  0  0  0  0  0
    1.5325    1.7469   -0.7308 C   0  0  0  0  0  0  0  0  0  0  0  0
    1.6736    3.0355   -0.1624 C   0  0  0  0  0  0  0  0  0  0  0  0
    0.9074    3.3840    0.5451 H   0  0  0  0  0  0  0  0  0  0  0  0
    2.7571    3.8457   -0.5167 C   0  0  0  0  0  0  0  0  0  0  0  0
    2.8514    4.8475   -0.0702 H   0  0  0  0  0  0  0  0  0  0  0  0
    3.7215    3.3899   -1.4327 C   0  0  0  0  0  0  0  0  0  0  0  0
    4.5756    4.0283   -1.7039 H   0  0  0  0  0  0  0  0  0  0  0  0
    3.5825    2.1132   -2.0017 C   0  0  0  0  0  0  0  0  0  0  0  0
    4.3268    1.7489   -2.7265 H   0  0  0  0  0  0  0  0  0  0  0  0
    2.5000    1.2937   -1.6598 C   0  0  0  0  0  0  0  0  0  0  0  0
    2.3872    0.2992   -2.1136 H   0  0  0  0  0  0  0  0  0  0  0  0
    0.3130   -0.4138   -0.5280 C   0  0  0  0  0  0  0  0  0  0  0  0
    1.4456   -1.2759   -0.1103 C   0  0  0  0  0  0  0  0  0  0  0  0
    2.2700   -0.8936    0.9742 C   0  0  0  0  0  0  0  0  0  0  0  0
    2.0338    0.0304    1.5212 H   0  0  0  0  0  0  0  0  0  0  0  0
    3.3763   -1.6618    1.3462 C   0  0  0  0  0  0  0  0  0  0  0  0
    3.9961   -1.3380    2.1976 H   0  0  0  0  0  0  0  0  0  0  0  0
    3.7204   -2.8398    0.6485 C   0  0  0  0  0  0  0  0  0  0  0  0
    2.9156   -3.2054   -0.4488 C   0  0  0  0  0  0  0  0  0  0  0  0
    3.1749   -4.1038   -1.0314 H   0  0  0  0  0  0  0  0  0  0  0  0
    1.8036   -2.4407   -0.8257 C   0  0  0  0  0  0  0  0  0  0  0  0
    1.2218   -2.7327   -1.7126 H   0  0  0  0  0  0  0  0  0  0  0  0
    4.9031   -3.6730    1.0709 C   0  0  0  0  0  0  0  0  0  0  0  0
    5.7897   -3.0420    1.2848 H   0  0  0  0  0  0  0  0  0  0  0  0
    5.1841   -4.4091    0.2929 H   0  0  0  0  0  0  0  0  0  0  0  0
    4.6818   -4.2401    2.0007 H   0  0  0  0  0  0  0  0  0  0  0  0
   -0.9635   -0.9287   -0.9603 C   0  0  0  0  0  0  0  0  0  0  0  0
   -1.3597   -2.3072   -0.7769 C   0  0  0  0  0  0  0  0  0  0  0  0
   -0.6177   -3.0328   -0.4183 H   0  0  0  0  0  0  0  0  0  0  0  0
   -2.6471   -2.7294   -1.0377 C   0  0  0  0  0  0  0  0  0  0  0  0
   -2.8931   -3.7945   -0.8952 H   0  0  0  0  0  0  0  0  0  0  0  0
   -3.6841   -1.8375   -1.4744 C   0  0  0  0  0  0  0  0  0  0  0  0
   -3.3414   -0.5028   -1.6310 C   0  0  0  0  0  0  0  0  0  0  0  0
   -4.0925    0.2248   -1.9768 H   0  0  0  0  0  0  0  0  0  0  0  0
   -2.0249   -0.0273   -1.3602 C   0  0  0  0  0  3  0  0  0  0  0  0
   -1.7452    0.9734   -1.7409 H   0  0  0  0  0  0  0  0  0  0  0  0
   -5.0701   -2.3591   -1.7457 C   0  0  0  0  0  0  0  0  0  0  0  0
   -5.0634   -3.1302   -2.5454 H   0  0  0  0  0  0  0  0  0  0  0  0
   -5.7553   -1.5493   -2.0623 H   0  0  0  0  0  0  0  0  0  0  0  0
   -5.5079   -2.8415   -0.8457 H   0  0  0  0  0  0  0  0  0  0  0  0
  2  1  1  0  0  0  0
  2  3  1  0  0  0  0
  3  4  1  0  0  0  0
  5  3  2  0  0  0  0
  5  6  1  0  0  0  0
  7  5  1  0  0  0  0
  8  7  1  0  0  0  0
  9 11  1  0  0  0  0
  9  7  2  0  0  0  0
 10  9  1  0  0  0  0
 11  2  2  0  0  0  0
 12 11  1  0  0  0  0
 13  1  1  0  0  0  0
 13 14  1  0  0  0  0
 14 15  1  0  0  0  0
 15 17  2  0  0  0  0
 15 16  1  0  0  0  0
 17 18  1  0  0  0  0
 19 24  1  0  0  0  0
 19 17  1  0  0  0  0
 20 19  2  0  0  0  0
 21 20  1  0  0  0  0
 22 20  1  0  0  0  0
 22 14  2  0  0  0  0
 23 22  1  0  0  0  0
 24 25  1  0  0  0  0
 24 27  1  0  0  0  0
 26 24  1  0  0  0  0
 28 29  1  0  0  0  0
 28 13  2  0  0  0  0
 29 30  1  0  0  0  0
 31 32  1  0  0  0  0
 31 29  2  0  0  0  0
 33 31  1  0  0  0  0
 34 33  2  0  0  0  0
 34 36  1  0  0  0  0
 35 34  1  0  0  0  0
 36 28  1  0  0  0  0
 37 36  1  0  0  0  0
 38 33  1  0  0  0  0
 38 41  1  0  0  0  0
 39 38  1  0  0  0  0
 40 38  1  0  0  0  0
M  END
