1,19
q = -1.0, confidence = 0.0

 24 25  0  0  0  0  0  0  0  0999 V2000
   -0.2709   -1.4521   -1.5667 N   0  0  0  0  0  2  0  0  0  0  0  0
   -1.4495   -1.3219   -2.2144 N   0  0  0  0  0  0  0  0  0  0  0  0
    0.4619   -2.3468   -2.2606 C   0  0  0  0  0  3  0  0  0  0  0  0
    1.4765   -2.5948   -1.9337 H   0  0  0  0  0  0  0  0  0  0  0  0
   -0.2708   -2.8029   -3.3736 C   0  0  0  0  0  0  0  0  0  0  0  0
    0.0477   -3.5277   -4.1282 H   0  0  0  0  0  0  0  0  0  0  0  0
   -1.4891   -2.1268   -3.3095 C   0  0  0  0  0  0  0  0  0  0  0  0
   -2.3803   -2.1579   -3.9444 H   0  0  0  0  0  0  0  0  0  0  0  0
   -2.4794   -0.4182   -1.7162 C   0  0  0  0  0  0  0  0  0  0  0  0
   -3.3188   -0.4855   -2.4236 H   0  0  0  0  0  0  0  0  0  0  0  0
   -2.0801    0.6153   -1.7582 H   0  0  0  0  0  0  0  0  0  0  0  0
   -2.8608   -0.7452   -0.2857 C   0  0  0  0  0  0  0  0  0  0  0  0
   -4.1975   -1.0669    0.0593 C   0  0  0  0  0  0  0  0  0  0  0  0
   -4.5377   -1.3377    1.3946 C   0  0  0  0  0  0  0  0  0  0  0  0
   -5.5757   -1.5769    1.6596 H   0  0  0  0  0  0  0  0  0  0  0  0
   -3.5426   -1.3069    2.3762 C   0  0  0  0  0  0  0  0  0  0  0  0
   -3.7651   -1.5149    3.4326 H   0  0  0  0  0  0  0  0  0  0  0  0
   -2.2285   -1.0108    2.0011 C   0  0  0  0  0  0  0  0  0  0  0  0
   -1.8163   -0.7162    0.6808 C   0  0  0  0  0  3  0  0  0  0  0  0
   -5.2786   -1.1360   -0.9923 C   0  0  0  0  0  0  0  0  0  0  0  0
   -4.9893   -2.0632   -1.9548 F   0  0  0  0  0  0  0  0  0  0  0  0
   -5.4363    0.0500   -1.6468 F   0  0  0  0  0  0  0  0  0  0  0  0
   -6.4826   -1.4666   -0.4804 F   0  0  0  0  0  0  0  0  0  0  0  0
   -1.3058   -1.0175    2.9985 F   0  0  0  0  0  0  0  0  0  0  0  0
  2  9  1  0  0  0  0
  2  1  1  0  0  0  0
  3  4  1  0  0  0  0
  3  1  1  0  0  0  0
  5  7  2  0  0  0  0
  5  3  1  0  0  0  0
  6  5  1  0  0  0  0
  7  2  1  0  0  0  0
  8  7  1  0  0  0  0
  9 12  1  0  0  0  0
 10  9  1  0  0  0  0
 11  9  1  0  0  0  0
 12 13  2  0  0  0  0
 12 19  1  0  0  0  0
 13 14  1  0  0  0  0
 14 15  1  0  0  0  0
 14 16  2  0  0  0  0
 16 17  1  0  0  0  0
 18 16  1  0  0  0  0
 18 24  1  0  0  0  0
 19 18  2  0  0  0  0
 20 23  1  0  0  0  0
 20 13  1  0  0  0  0
 21 20  1  0  0  0  0
 22 20  1  0  0  0  0
M  END
