5,7
q = -1.0, confidence = 0.004

 34 35  0  0  0  0  0  0  0  0999 V2000
    1.4580    2.8349   -0.2323 O   0  0  0  0  0  0  0  0  0  0  0  0
    0.1920    2.7542    1.6536 O   0  0  0  0  0  0  0  0  0  0  0  0
   -1.5847    3.5283   -0.4560 O   0  0  0  0  0  0  0  0  0  0  0  0
   -3.4425    2.2713   -0.7727 O   0  0  0  0  0  0  0  0  0  0  0  0
   -0.5600   -1.1208    1.6339 N   0  0  0  0  0  2  0  0  0  0  0  0
   -1.8815   -1.2338    1.3188 N   0  0  0  0  0  0  0  0  0  0  0  0
   -0.1239    1.0484    0.0641 C   0  0  0  0  0  3  0  0  0  0  0  0
   -1.4088    1.1099   -0.4189 C   0  0  0  0  0  0  0  0  0  0  0  0
   -2.1534   -0.0984   -0.8605 C   0  0  0  0  0  0  0  0  0  0  0  0
   -2.3715   -1.2160   -0.0206 C   0  0  0  0  0  0  0  0  0  0  0  0
   -0.4661   -1.2867    2.9647 C   0  0  0  0  0  3  0  0  0  0  0  0
    0.5180   -1.1710    3.4339 H   0  0  0  0  0  0  0  0  0  0  0  0
   -1.7430   -1.5234    3.5195 C   0  0  0  0  0  0  0  0  0  0  0  0
   -1.9919   -1.6806    4.5731 H   0  0  0  0  0  0  0  0  0  0  0  0
   -2.6207   -1.4837    2.4421 C   0  0  0  0  0  0  0  0  0  0  0  0
   -3.7084   -1.5859    2.3742 H   0  0  0  0  0  0  0  0  0  0  0  0
   -3.1004   -2.3382   -0.4577 C   0  0  0  0  0  0  0  0  0  0  0  0
   -3.2457   -3.1825    0.2324 H   0  0  0  0  0  0  0  0  0  0  0  0
   -3.6171   -2.3785   -1.7580 C   0  0  0  0  0  0  0  0  0  0  0  0
   -4.1812   -3.2590   -2.0992 H   0  0  0  0  0  0  0  0  0  0  0  0
   -3.3972   -1.2898   -2.6186 C   0  0  0  0  0  0  0  0  0  0  0  0
   -3.7876   -1.3115   -3.6472 H   0  0  0  0  0  0  0  0  0  0  0  0
   -2.6856   -0.1719   -2.1681 C   0  0  0  0  0  0  0  0  0  0  0  0
   -2.5309    0.6853   -2.8392 H   0  0  0  0  0  0  0  0  0  0  0  0
    0.5862    2.3091    0.4430 C   0  0  0  0  0  0  0  0  0  0  0  0
    0.8936    3.9053    2.1268 C   0  0  0  0  0  0  0  0  0  0  0  0
    1.9750    3.6827    2.2299 H   0  0  0  0  0  0  0  0  0  0  0  0
    0.4572    4.1463    3.1128 H   0  0  0  0  0  0  0  0  0  0  0  0
    0.7640    4.7551    1.4266 H   0  0  0  0  0  0  0  0  0  0  0  0
   -2.1007    2.4259   -0.5471 C   0  0  0  0  0  0  0  0  0  0  0  0
   -4.1744    3.4909   -0.9004 C   0  0  0  0  0  0  0  0  0  0  0  0
   -4.1053    4.0948    0.0275 H   0  0  0  0  0  0  0  0  0  0  0  0
   -5.2232    3.2018   -1.0943 H   0  0  0  0  0  0  0  0  0  0  0  0
   -3.7819    4.1075   -1.7349 H   0  0  0  0  0  0  0  0  0  0  0  0
  1 25  2  0  0  0  0
  2 26  1  0  0  0  0
  4 30  1  0  0  0  0
  5 11  1  0  0  0  0
  6  5  1  0  0  0  0
  6 15  1  0  0  0  0
  7 25  1  0  0  0  0
  8  7  2  0  0  0  0
  9  8  1  0  0  0  0
  9 10  1  0  0  0  0
 10  6  1  0  0  0  0
 11 12  1  0  0  0  0
 11 13  1  0  0  0  0
 13 14  1  0  0  0  0
 15 13  2  0  0  0  0
 16 15  1  0  0  0  0
 17 10  2  0  0  0  0
 17 18  1  0  0  0  0
 19 17  1  0  0  0  0
 20 19  1  0  0  0  0
 21 23  1  0  0  0  0
 21 19  2  0  0  0  0
 22 21  1  0  0  0  0
 23  9  2  0  0  0  0
 24 23  1  0  0  0  0
 25  2  1  0  0  0  0
 26 27  1  0  0  0  0
 26 28  1  0  0  0  0
 29 26  1  0  0  0  0
 30  3  2  0  0  0  0
 30  8  1  0  0  0  0
 31  4  1  0  0  0  0
 31 32  1  0  0  0  0
 33 31  1  0  0  0  0
 34 31  1  0  0  0  0
M  END
