2,3
q = -1.0, confidence = 0.0

 27 28  0  0  0  0  0  0  0  0999 V2000
    1.7040   -4.1576    0.0501 F   0  0  0  0  0  0  0  0  0  0  0  0
   -0.6796   -0.7423    0.0560 N   0  0  0  0  0  2  0  0  0  0  0  0
    1.9487   -0.4627   -0.1584 C   0  0  0  0  0  3  0  0  0  0  0  0
    1.4140   -1.7944   -0.0463 C   0  0  0  0  0  0  0  0  0  0  0  0
    2.2591   -2.9285   -0.0688 C   0  0  0  0  0  0  0  0  0  0  0  0
    3.6370   -2.8076   -0.2167 C   0  0  0  0  0  0  0  0  0  0  0  0
    4.2683   -3.7064   -0.2349 H   0  0  0  0  0  0  0  0  0  0  0  0
    4.1697   -1.5069   -0.3431 C   0  0  0  0  0  0  0  0  0  0  0  0
    5.2588   -1.3905   -0.4645 H   0  0  0  0  0  0  0  0  0  0  0  0
    3.3531   -0.3662   -0.3140 C   0  0  0  0  0  0  0  0  0  0  0  0
    3.8308    0.6193   -0.4086 H   0  0  0  0  0  0  0  0  0  0  0  0
   -0.0093   -1.8755    0.0701 C   0  0  0  0  0  3  0  0  0  0  0  0
   -0.5163   -2.8512    0.1746 H   0  0  0  0  0  0  0  0  0  0  0  0
   -2.0956   -0.7720    0.0716 C   0  0  0  0  0  0  0  0  0  0  0  0
   -2.7973    0.3703    0.5143 C   0  0  0  0  0  0  0  0  0  0  0  0
   -2.1988    1.2708    0.7378 H   0  0  0  0  0  0  0  0  0  0  0  0
   -4.1963    0.3630    0.5619 C   0  0  0  0  0  0  0  0  0  0  0  0
   -4.7224    1.2675    0.9081 H   0  0  0  0  0  0  0  0  0  0  0  0
   -4.9491   -0.7608    0.1649 C   0  0  0  0  0  0  0  0  0  0  0  0
   -4.2385   -1.8811   -0.3168 C   0  0  0  0  0  0  0  0  0  0  0  0
   -4.7959   -2.7615   -0.6753 H   0  0  0  0  0  0  0  0  0  0  0  0
   -2.8414   -1.8921   -0.3711 C   0  0  0  0  0  0  0  0  0  0  0  0
   -2.3314   -2.7696   -0.7946 H   0  0  0  0  0  0  0  0  0  0  0  0
   -6.4535   -0.7711    0.2526 C   0  0  0  0  0  0  0  0  0  0  0  0
   -6.9074   -1.3872   -0.5492 H   0  0  0  0  0  0  0  0  0  0  0  0
   -6.8740    0.2516    0.1840 H   0  0  0  0  0  0  0  0  0  0  0  0
   -6.7939   -1.1989    1.2209 H   0  0  0  0  0  0  0  0  0  0  0  0
  2 12  1  0  0  0  0
  2 14  1  0  0  0  0
  3  4  1  0  0  0  0
  4 12  1  0  0  0  0
  5  4  2  0  0  0  0
  5  1  1  0  0  0  0
  6  5  1  0  0  0  0
  7  6  1  0  0  0  0
  8 10  1  0  0  0  0
  8  6  2  0  0  0  0
  9  8  1  0  0  0  0
 10  3  2  0  0  0  0
 11 10  1  0  0  0  0
 12 13  1  0  0  0  0
 14 15  1  0  0  0  0
 15 17  2  0  0  0  0
 15 16  1  0  0  0  0
 17 18  1  0  0  0  0
 19 24  1  0  0  0  0
 19 17  1  0  0  0  0
 20 19  2  0  0  0  0
 21 20  1  0  0  0  0
 22 20  1  0  0  0  0
 22 14  2  0  0  0  0
 23 22  1  0  0  0  0
 24 27  1  0  0  0  0
 25 24  1  0  0  0  0
 26 24  1  0  0  0  0
M  END
