5,8
q = 0.0, confidence = 0.638

 30 30  0  0  0  0  0  0  0  0999 V2000
   -1.3899   -2.2593    0.3145 S   0  0  0  0  0  0  0  0  0  0  0  0
   -2.9122   -2.3839    2.5032 F   0  0  0  0  0  0  0  0  0  0  0  0
   -1.5127   -0.7120    2.5221 F   0  0  0  0  0  0  0  0  0  0  0  0
   -3.3025   -0.6253    1.2685 F   0  0  0  0  0  0  0  0  0  0  0  0
   -1.0007   -1.1064   -0.7770 N   0  0  0  0  0  2  0  0  0  0  0  0
   -0.1593   -2.7617    0.9717 O   0  0  0  0  0  0  0  0  0  0  0  0
   -2.3846   -3.1966   -0.2541 O   0  0  0  0  0  0  0  0  0  0  0  0
   -1.0299    1.4596    0.1220 C   0  0  0  0  0  3  0  0  0  0  0  0
   -1.0629    2.1725    1.3376 C   0  0  0  0  0  0  0  0  0  0  0  0
   -0.2874    1.9937    2.0997 H   0  0  0  0  0  0  0  0  0  0  0  0
   -2.0926    3.0882    1.6147 C   0  0  0  0  0  0  0  0  0  0  0  0
   -2.1075    3.6278    2.5748 H   0  0  0  0  0  0  0  0  0  0  0  0
   -3.1025    3.2931    0.6667 C   0  0  0  0  0  0  0  0  0  0  0  0
   -3.9142    4.0103    0.8629 H   0  0  0  0  0  0  0  0  0  0  0  0
   -3.0919    2.5633   -0.5325 C   0  0  0  0  0  0  0  0  0  0  0  0
   -3.9045    2.7280   -1.2539 H   0  0  0  0  0  0  0  0  0  0  0  0
   -2.0769    1.6273   -0.8211 C   0  0  0  0  0  0  0  0  0  0  0  0
   -2.0956    0.7814   -2.1023 C   0  0  0  0  0  0  0  0  0  0  0  0
   -3.3767    0.9792   -2.9304 C   0  0  0  0  0  0  0  0  0  0  0  0
   -4.2887    0.7617   -2.3394 H   0  0  0  0  0  0  0  0  0  0  0  0
   -3.3703    0.2961   -3.8037 H   0  0  0  0  0  0  0  0  0  0  0  0
   -3.4522    2.0136   -3.3208 H   0  0  0  0  0  0  0  0  0  0  0  0
   -0.8927    1.1432   -3.0020 C   0  0  0  0  0  0  0  0  0  0  0  0
   -0.9338    2.2126   -3.2923 H   0  0  0  0  0  0  0  0  0  0  0  0
   -0.8984    0.5276   -3.9256 H   0  0  0  0  0  0  0  0  0  0  0  0
    0.0704    0.9715   -2.4743 H   0  0  0  0  0  0  0  0  0  0  0  0
   -2.0680   -0.7245   -1.7121 C   0  0  0  0  0  0  0  0  0  0  0  0
   -3.0618   -0.9890   -1.2965 H   0  0  0  0  0  0  0  0  0  0  0  0
   -1.9522   -1.3124   -2.6508 H   0  0  0  0  0  0  0  0  0  0  0  0
   -2.3390   -1.4348    1.7479 C   0  0  0  0  0  0  0  0  0  0  0  0
  1  6  2  0  0  0  0
  1 30  1  0  0  0  0
  4 30  1  0  0  0  0
  5  1  1  0  0  0  0
  7  1  2  0  0  0  0
  8  9  1  0  0  0  0
  9 11  2  0  0  0  0
  9 10  1  0  0  0  0
 11 12  1  0  0  0  0
 13 14  1  0  0  0  0
 13 11  1  0  0  0  0
 15 13  2  0  0  0  0
 16 15  1  0  0  0  0
 17 15  1  0  0  0  0
 17  8  2  0  0  0  0
 18 27  1  0  0  0  0
 18 17  1  0  0  0  0
 19 20  1  0  0  0  0
 19 18  1  0  0  0  0
 21 19  1  0  0  0  0
 22 19  1  0  0  0  0
 23 26  1  0  0  0  0
 23 18  1  0  0  0  0
 24 23  1  0  0  0  0
 25 23  1  0  0  0  0
 27 28  1  0  0  0  0
 27  5  1  0  0  0  0
 29 27  1  0  0  0  0
 30  2  1  0  0  0  0
 30  3  1  0  0  0  0
M  END
