2,13
q = -2.0, confidence = 0.954

 52 54  0  0  1  0  0  0  0  0999 V2000
    0.3419    0.9476    2.1784 Si  0  0  0  0  0  0  0  0  0  0  0  0
   -0.4324    0.7219    0.5991 N   0  0  0  0  0  2  0  0  0  0  0  0
    2.9341    0.4107    0.9201 C   0  0  2  0  0  3  0  0  0  0  0  0
   -1.4164    1.5636    0.0457 C   0  0  0  0  0  0  0  0  0  0  0  0
   -2.7198    1.0930   -0.3145 C   0  0  0  0  0  0  0  0  0  0  0  0
   -2.9994   -0.9085    1.2017 C   0  0  0  0  0  0  0  0  0  0  0  0
   -2.5193   -0.3393    2.0059 H   0  0  0  0  0  0  0  0  0  0  0  0
    1.8377   -0.0933    1.7070 C   0  0  2  0  0  3  0  0  0  0  0  0
    3.3872   -0.6410    0.0598 C   0  0  0  0  0  0  0  0  0  0  0  0
   -3.8191   -1.0387   -1.0736 C   0  0  0  0  0  0  0  0  0  0  0  0
   -3.9450   -0.5862   -2.0692 H   0  0  0  0  0  0  0  0  0  0  0  0
    2.5951   -1.8097    0.3226 C   0  0  0  0  0  0  0  0  0  0  0  0
    1.6560   -1.4830    1.3454 C   0  0  1  0  0  3  0  0  0  0  0  0
   -1.1099    2.9230   -0.2274 C   0  0  0  0  0  0  0  0  0  0  0  0
   -0.0964    3.2737    0.0120 H   0  0  0  0  0  0  0  0  0  0  0  0
   -3.1649   -0.3010   -0.0626 C   0  0  0  0  0  0  0  0  0  0  0  0
   -2.0289    3.7924   -0.8239 C   0  0  0  0  0  0  0  0  0  0  0  0
   -1.7447    4.8386   -1.0165 H   0  0  0  0  0  0  0  0  0  0  0  0
   -3.3000    3.3218   -1.1880 C   0  0  0  0  0  0  0  0  0  0  0  0
   -4.0347    3.9912   -1.6596 H   0  0  0  0  0  0  0  0  0  0  0  0
    2.8331   -3.1482   -0.3075 C   0  0  0  0  0  0  0  0  0  0  0  0
    3.6820   -3.6731    0.1832 H   0  0  0  0  0  0  0  0  0  0  0  0
    3.0871   -3.0550   -1.3815 H   0  0  0  0  0  0  0  0  0  0  0  0
    1.9482   -3.8076   -0.2316 H   0  0  0  0  0  0  0  0  0  0  0  0
   -3.6253    1.9845   -0.9340 C   0  0  0  0  0  0  0  0  0  0  0  0
   -4.6276    1.6097   -1.1931 H   0  0  0  0  0  0  0  0  0  0  0  0
   -4.2770   -2.3433   -0.8361 C   0  0  0  0  0  0  0  0  0  0  0  0
   -4.7741   -2.9026   -1.6437 H   0  0  0  0  0  0  0  0  0  0  0  0
    0.7228    2.7497    2.6136 C   0  0  0  0  0  0  0  0  0  0  0  0
    1.2907    2.7942    3.5664 H   0  0  0  0  0  0  0  0  0  0  0  0
   -0.2296    3.2991    2.7635 H   0  0  0  0  0  0  0  0  0  0  0  0
    1.3039    3.2835    1.8399 H   0  0  0  0  0  0  0  0  0  0  0  0
   -4.0915   -2.9394    0.4209 C   0  0  0  0  0  0  0  0  0  0  0  0
   -4.4460   -3.9644    0.6075 H   0  0  0  0  0  0  0  0  0  0  0  0
    3.5362    1.7854    1.0294 C   0  0  0  0  0  0  0  0  0  0  0  0
    3.6062    2.0947    2.0901 H   0  0  0  0  0  0  0  0  0  0  0  0
    2.9497    2.5623    0.4985 H   0  0  0  0  0  0  0  0  0  0  0  0
    4.5606    1.8088    0.6088 H   0  0  0  0  0  0  0  0  0  0  0  0
    0.6658   -2.4361    1.9555 C   0  0  0  0  0  0  0  0  0  0  0  0
    0.8860   -2.5813    3.0336 H   0  0  0  0  0  0  0  0  0  0  0  0
    0.7049   -3.4275    1.4680 H   0  0  0  0  0  0  0  0  0  0  0  0
   -0.3785   -2.0749    1.8785 H   0  0  0  0  0  0  0  0  0  0  0  0
    4.5781   -0.6485   -0.8548 C   0  0  0  0  0  0  0  0  0  0  0  0
    5.2817   -1.4586   -0.5684 H   0  0  0  0  0  0  0  0  0  0  0  0
    5.1414    0.3031   -0.8169 H   0  0  0  0  0  0  0  0  0  0  0  0
    4.2959   -0.8262   -1.9129 H   0  0  0  0  0  0  0  0  0  0  0  0
   -3.4554   -2.2121    1.4411 C   0  0  0  0  0  0  0  0  0  0  0  0
   -3.3186   -2.6624    2.4367 H   0  0  0  0  0  0  0  0  0  0  0  0
   -0.6364    0.2997    3.6658 C   0  0  0  0  0  0  0  0  0  0  0  0
   -1.5525    0.9074    3.8191 H   0  0  0  0  0  0  0  0  0  0  0  0
   -0.0099    0.4090    4.5760 H   0  0  0  0  0  0  0  0  0  0  0  0
   -0.9318   -0.7622    3.5843 H   0  0  0  0  0  0  0  0  0  0  0  0
  1 29  1  0  0  0  0
  1 49  1  0  0  0  0
  2  1  1  0  0  0  0
  3 35  1  1  0  0  0
  3  8  1  0  0  0  0
  4  2  1  0  0  0  0
  5 16  1  0  0  0  0
  5  4  2  0  0  0  0
  6 47  1  0  0  0  0
  6  7  1  0  0  0  0
  8  1  1  6  0  0  0
  9 12  2  0  0  0  0
  9  3  1  0  0  0  0
 10 27  2  0  0  0  0
 10 16  1  0  0  0  0
 11 10  1  0  0  0  0
 12 13  1  0  0  0  0
 13  8  1  0  0  0  0
 13 39  1  1  0  0  0
 14 15  1  0  0  0  0
 14  4  1  0  0  0  0
 16  6  2  0  0  0  0
 17 14  2  0  0  0  0
 18 17  1  0  0  0  0
 19 25  2  0  0  0  0
 19 17  1  0  0  0  0
 20 19  1  0  0  0  0
 21 24  1  0  0  0  0
 21 22  1  0  0  0  0
 21 12  1  0  0  0  0
 23 21  1  0  0  0  0
 25  5  1  0  0  0  0
 26 25  1  0  0  0  0
 27 33  1  0  0  0  0
 28 27  1  0  0  0  0
 29 31  1  0  0  0  0
 29 30  1  0  0  0  0
 32 29  1  0  0  0  0
 33 34  1  0  0  0  0
 33 47  2  0  0  0  0
 35 36  1  0  0  0  0
 37 35  1  0  0  0  0
 38 35  1  0  0  0  0
 39 40  1  0  0  0  0
 41 39  1  0  0  0  0
 42 39  1  0  0  0  0
 43 45  1  0  0  0  0
 43 44  1  0  0  0  0
 43  9  1  0  0  0  0
 46 43  1  0  0  0  0
 47 48  1  0  0  0  0
 49 50  1  0  0  0  0
 49 51  1  0  0  0  0
 52 49  1  0  0  0  0
M  END
