3,4
q = -2.0, confidence = 0.804

 26 25  0  0  0  0  0  0  0  0999 V2000
    2.5073    1.1319    0.1836 Si  0  0  0  0  0  0  0  0  0  0  0  0
    1.5381   -1.8780   -0.3551 Si  0  0  0  0  0  0  0  0  0  0  0  0
    1.3323   -0.1552   -0.0172 N   0  0  0  0  0  2  0  0  0  0  0  0
   -0.3025   -2.1718   -0.5070 C   0  0  0  0  0  3  0  0  0  0  0  0
   -0.7711   -2.8850    0.2038 H   0  0  0  0  0  0  0  0  0  0  0  0
   -0.6844   -2.4074   -1.5250 H   0  0  0  0  0  0  0  0  0  0  0  0
    3.3694    1.5183   -1.4629 C   0  0  0  0  0  0  0  0  0  0  0  0
    3.8872    0.6235   -1.8643 H   0  0  0  0  0  0  0  0  0  0  0  0
    4.1235    2.3238   -1.3408 H   0  0  0  0  0  0  0  0  0  0  0  0
    2.6342    1.8504   -2.2241 H   0  0  0  0  0  0  0  0  0  0  0  0
    1.6437    2.7089    0.7868 C   0  0  0  0  0  0  0  0  0  0  0  0
    0.8789    3.0435    0.0566 H   0  0  0  0  0  0  0  0  0  0  0  0
    2.3737    3.5339    0.9186 H   0  0  0  0  0  0  0  0  0  0  0  0
    1.1335    2.5419    1.7570 H   0  0  0  0  0  0  0  0  0  0  0  0
    3.8334    0.6408    1.4497 C   0  0  0  0  0  0  0  0  0  0  0  0
    3.3740    0.3695    2.4222 H   0  0  0  0  0  0  0  0  0  0  0  0
    4.5446    1.4743    1.6270 H   0  0  0  0  0  0  0  0  0  0  0  0
    4.4198   -0.2328    1.0977 H   0  0  0  0  0  0  0  0  0  0  0  0
    2.3452   -2.8293    1.0732 C   0  0  0  0  0  0  0  0  0  0  0  0
    3.3763   -2.4714    1.2712 H   0  0  0  0  0  0  0  0  0  0  0  0
    2.3986   -3.9131    0.8390 H   0  0  0  0  0  0  0  0  0  0  0  0
    1.7616   -2.7151    2.0097 H   0  0  0  0  0  0  0  0  0  0  0  0
    2.5418   -2.1966   -1.9325 C   0  0  0  0  0  0  0  0  0  0  0  0
    2.1258   -1.6350   -2.7938 H   0  0  0  0  0  0  0  0  0  0  0  0
    2.5393   -3.2756   -2.1924 H   0  0  0  0  0  0  0  0  0  0  0  0
    3.5986   -1.8816   -1.8041 H   0  0  0  0  0  0  0  0  0  0  0  0
  1 11  1  0  0  0  0
  1 15  1  0  0  0  0
  2  3  1  0  0  0  0
  2 19  1  0  0  0  0
  3  1  1  0  0  0  0
  4  2  1  0  0  0  0
  4  5  1  0  0  0  0
  6  4  1  0  0  0  0
  7  9  1  0  0  0  0
  7  1  1  0  0  0  0
  8  7  1  0  0  0  0
 10  7  1  0  0  0  0
 11 13  1  0  0  0  0
 11 14  1  0  0  0  0
 12 11  1  0  0  0  0
 15 17  1  0  0  0  0
 15 16  1  0  0  0  0
 18 15  1  0  0  0  0
 19 20  1  0  0  0  0
 19 22  1  0  0  0  0
 21 19  1  0  0  0  0
 23 26  1  0  0  0  0
 23  2  1  0  0  0  0
 24 23  1  0  0  0  0
 25 23  1  0  0  0  0
M  END
