3,5
q = 0.0, confidence = 0.998

 29 31  0  0  1  0  0  0  0  0999 V2000
   -1.5579   -1.3112    0.5123 N   0  0  0  0  0  0  0  0  0  0  0  0
   -1.1382    0.8185    0.2804 N   0  0  0  0  0  0  0  0  0  0  0  0
    1.0106    1.6156    0.2491 N   0  0  0  0  0  2  0  0  0  0  0  0
   -0.8391    3.1279   -0.0635 N   0  0  0  0  0  0  0  0  0  0  0  0
   -0.5315   -0.4241    0.4682 C   0  0  0  0  0  2  0  0  0  0  0  0
   -2.7945   -0.6736    0.3156 C   0  0  0  0  0  0  0  0  0  0  0  0
   -4.0996   -1.1763    0.2571 C   0  0  0  0  0  0  0  0  0  0  0  0
   -4.3088   -2.2500    0.3585 H   0  0  0  0  0  0  0  0  0  0  0  0
   -5.1339   -0.2477    0.0534 C   0  0  0  0  0  0  0  0  0  0  0  0
   -6.1724   -0.6061   -0.0002 H   0  0  0  0  0  0  0  0  0  0  0  0
   -4.8682    1.1299   -0.0875 C   0  0  0  0  0  0  0  0  0  0  0  0
   -5.7044    1.8261   -0.2481 H   0  0  0  0  0  0  0  0  0  0  0  0
   -3.5592    1.6376   -0.0314 C   0  0  0  0  0  0  0  0  0  0  0  0
   -3.3305    2.7039   -0.1424 H   0  0  0  0  0  0  0  0  0  0  0  0
   -2.5323    0.7087    0.1713 C   0  0  0  0  0  0  0  0  0  0  0  0
   -0.3135    1.9238    0.1460 C   0  0  1  0  0  3  0  0  0  0  0  0
    1.8674    2.6478    0.1143 C   0  0  0  0  0  0  0  0  0  0  0  0
    2.9383    2.4083    0.1839 H   0  0  0  0  0  0  0  0  0  0  0  0
    1.4151    3.9516   -0.1139 C   0  0  0  0  0  0  0  0  0  0  0  0
    2.1243    4.7824   -0.2259 H   0  0  0  0  0  0  0  0  0  0  0  0
    0.0286    4.1431   -0.1950 C   0  0  0  0  0  0  0  0  0  0  0  0
   -0.4043    5.1421   -0.3721 H   0  0  0  0  0  0  0  0  0  0  0  0
   -1.4124   -2.7640    0.6032 C   0  0  0  0  0  0  0  0  0  0  0  0
   -2.2764   -3.1441    1.1856 H   0  0  0  0  0  0  0  0  0  0  0  0
   -0.5074   -2.9651    1.2028 H   0  0  0  0  0  0  0  0  0  0  0  0
   -1.3216   -3.4220   -0.7716 C   0  0  0  0  0  0  0  0  0  0  0  0
   -1.1484   -4.5100   -0.6578 H   0  0  0  0  0  0  0  0  0  0  0  0
   -0.4841   -2.9864   -1.3527 H   0  0  0  0  0  0  0  0  0  0  0  0
   -2.2554   -3.2756   -1.3505 H   0  0  0  0  0  0  0  0  0  0  0  0
  1 23  1  0  0  0  0
  2  5  1  0  0  0  0
  4 16  1  0  0  0  0
  5  1  1  0  0  0  0
  6  1  1  0  0  0  0
  7  6  1  0  0  0  0
  7  8  1  0  0  0  0
  9  7  2  0  0  0  0
 10  9  1  0  0  0  0
 11 13  2  0  0  0  0
 11  9  1  0  0  0  0
 12 11  1  0  0  0  0
 13 15  1  0  0  0  0
 14 13  1  0  0  0  0
 15  2  1  0  0  0  0
 15  6  2  0  0  0  0
 16  3  1  0  0  0  0
 16  2  1  6  0  0  0
 17 18  1  0  0  0  0
 17  3  1  0  0  0  0
 19 17  2  0  0  0  0
 20 19  1  0  0  0  0
 21 19  1  0  0  0  0
 21  4  2  0  0  0  0
 22 21  1  0  0  0  0
 23 24  1  0  0  0  0
 23 25  1  0  0  0  0
 26 27  1  0  0  0  0
 26 23  1  0  0  0  0
 28 26  1  0  0  0  0
 29 26  1  0  0  0  0
M  END
