1,3
q = 0.0, confidence = 0.576

 19 19  0  0  0  0  0  0  0  0999 V2000
   -0.8859    2.0807   -0.0354 N   0  0  0  0  0  2  0  0  0  0  0  0
   -1.9759    2.7176   -0.0617 O   0  0  0  0  0  1  0  0  0  0  0  0
    1.0821    0.3484   -0.0250 C   0  0  0  0  0  2  0  0  0  0  0  0
    1.4246    1.7443   -0.0698 C   0  0  0  0  0  0  0  0  0  0  0  0
    2.7817    2.1492   -0.0712 C   0  0  0  0  0  0  0  0  0  0  0  0
    3.0346    3.2191   -0.1162 H   0  0  0  0  0  0  0  0  0  0  0  0
    3.8088    1.2025   -0.0076 C   0  0  0  0  0  0  0  0  0  0  0  0
    4.8696    1.4844   -0.0067 H   0  0  0  0  0  0  0  0  0  0  0  0
    3.4644   -0.1534    0.0656 C   0  0  0  0  0  0  0  0  0  0  0  0
    4.5237   -1.1653    0.1453 N   0  0  0  0  0  0  0  0  0  0  0  0
    5.6967   -0.7780    0.1536 O   0  0  0  0  0  0  0  0  0  0  0  0
    4.1817   -2.3552    0.1981 O   0  0  0  0  0  0  0  0  0  0  0  0
    2.1176   -0.5793    0.0617 C   0  0  0  0  0  0  0  0  0  0  0  0
    1.9624   -1.6638    0.1365 H   0  0  0  0  0  0  0  0  0  0  0  0
    0.3183    2.6721   -0.0954 C   0  0  0  0  0  0  0  0  0  0  0  0
    0.4400    4.1597   -0.1744 C   0  0  0  0  0  0  0  0  0  0  0  0
   -0.5682    4.6114   -0.1826 H   0  0  0  0  0  0  0  0  0  0  0  0
    0.9815    4.4714   -1.0926 H   0  0  0  0  0  0  0  0  0  0  0  0
    1.0074    4.5641    0.6907 H   0  0  0  0  0  0  0  0  0  0  0  0
  2  1  1  0  0  0  0
  3 13  1  0  0  0  0
  4  3  1  0  0  0  0
  5  4  1  0  0  0  0
  5  7  2  0  0  0  0
  6  5  1  0  0  0  0
  7  8  1  0  0  0  0
  7  9  1  0  0  0  0
  9 10  1  0  0  0  0
 10 11  2  0  0  0  0
 10 12  2  0  0  0  0
 13  9  2  0  0  0  0
 13 14  1  0  0  0  0
 15  4  2  0  0  0  0
 15  1  1  0  0  0  0
 16 15  1  0  0  0  0
 16 19  1  0  0  0  0
 17 16  1  0  0  0  0
 18 16  1  0  0  0  0
M  END
