1,22
q = -1.0, confidence = 0.002

 33 35  0  0  0  0  0  0  0  0999 V2000
   -2.9211   -1.0724    0.2396 N   0  0  0  0  0  2  0  0  0  0  0  0
    3.6166   -0.7243   -2.3651 O   0  0  0  0  0  0  0  0  0  0  0  0
    4.2364   -2.8983   -1.0888 O   0  0  0  0  0  0  0  0  0  0  0  0
    3.5572   -1.5808   -1.1549 S   0  0  0  0  0  0  0  0  0  0  0  0
   -4.2529   -1.0033    0.4622 C   0  0  0  0  0  0  0  0  0  0  0  0
   -4.6653    0.0198    0.4624 H   0  0  0  0  0  0  0  0  0  0  0  0
   -5.0203   -2.1499    0.6820 C   0  0  0  0  0  0  0  0  0  0  0  0
   -6.1000   -2.0496    0.8596 H   0  0  0  0  0  0  0  0  0  0  0  0
   -4.3882   -3.4034    0.6724 C   0  0  0  0  0  0  0  0  0  0  0  0
   -4.9650   -4.3244    0.8443 H   0  0  0  0  0  0  0  0  0  0  0  0
   -3.0114   -3.4690    0.4394 C   0  0  0  0  0  0  0  0  0  0  0  0
   -2.4915   -4.4363    0.4216 H   0  0  0  0  0  0  0  0  0  0  0  0
   -2.2775   -2.2891    0.2196 C   0  0  0  0  0  0  0  0  0  0  0  0
   -0.8454   -2.1970   -0.0654 C   0  0  0  0  0  0  0  0  0  0  0  0
    0.0153   -3.3103   -0.1533 C   0  0  0  0  0  3  0  0  0  0  0  0
   -0.3666   -4.3274    0.0247 H   0  0  0  0  0  0  0  0  0  0  0  0
    1.3689   -3.1356   -0.4648 C   0  0  0  0  0  0  0  0  0  0  0  0
    2.0733   -3.9770   -0.5251 H   0  0  0  0  0  0  0  0  0  0  0  0
    1.8205   -1.8330   -0.7229 C   0  0  0  0  0  0  0  0  0  0  0  0
    0.9790   -0.7136   -0.6677 C   0  0  0  0  0  0  0  0  0  0  0  0
    1.3942    0.2712   -0.9273 H   0  0  0  0  0  0  0  0  0  0  0  0
   -0.3689   -0.8614   -0.2861 C   0  0  0  0  0  3  0  0  0  0  0  0
    4.1600   -0.5755    0.2297 C   0  0  0  0  0  0  0  0  0  0  0  0
    4.3809   -1.1832    1.4746 C   0  0  0  0  0  0  0  0  0  0  0  0
    4.1975   -2.2608    1.5977 H   0  0  0  0  0  0  0  0  0  0  0  0
    4.8420   -0.3942    2.5380 C   0  0  0  0  0  0  0  0  0  0  0  0
    5.0175   -0.8521    3.5231 H   0  0  0  0  0  0  0  0  0  0  0  0
    5.0910    0.9760    2.3437 C   0  0  0  0  0  0  0  0  0  0  0  0
    5.4588    1.5889    3.1806 H   0  0  0  0  0  0  0  0  0  0  0  0
    4.8846    1.5625    1.0840 C   0  0  0  0  0  0  0  0  0  0  0  0
    5.1027    2.6307    0.9301 H   0  0  0  0  0  0  0  0  0  0  0  0
    4.4133    0.7854    0.0136 C   0  0  0  0  0  0  0  0  0  0  0  0
    4.2475    1.2061   -0.9893 H   0  0  0  0  0  0  0  0  0  0  0  0
  1  5  1  0  0  0  0
  2  4  2  0  0  0  0
  4  3  2  0  0  0  0
  4 19  1  0  0  0  0
  4 23  1  0  0  0  0
  5  6  1  0  0  0  0
  5  7  2  0  0  0  0
  7  8  1  0  0  0  0
  9  7  1  0  0  0  0
  9 10  1  0  0  0  0
 11  9  2  0  0  0  0
 12 11  1  0  0  0  0
 13  1  1  0  0  0  0
 13 11  1  0  0  0  0
 14 13  2  0  0  0  0
 15 14  1  0  0  0  0
 15 16  1  0  0  0  0
 17 15  1  0  0  0  0
 18 17  1  0  0  0  0
 19 20  1  0  0  0  0
 19 17  2  0  0  0  0
 20 22  2  0  0  0  0
 21 20  1  0  0  0  0
 22 14  1  0  0  0  0
 23 24  1  0  0  0  0
 24 25  1  0  0  0  0
 24 26  2  0  0  0  0
 26 27  1  0  0  0  0
 28 26  1  0  0  0  0
 28 29  1  0  0  0  0
 30 28  2  0  0  0  0
 31 30  1  0  0  0  0
 32 23  2  0  0  0  0
 32 30  1  0  0  0  0
 33 32  1  0  0  0  0
M  END
