1,5
q = 0.0, confidence = 0.988

 12 12  0  0  0  0  0  0  0  0999 V2000
   -1.0714    1.5788   -0.2253 N   0  0  0  0  0  0  0  0  0  0  0  0
   -2.4162   -0.9294   -0.0340 N   0  0  0  0  0  0  0  0  0  0  0  0
   -2.3769    1.4515    0.4569 C   0  0  0  0  0  0  0  0  0  0  0  0
   -3.2128    0.2738   -0.0767 C   0  0  0  0  0  0  0  0  0  0  0  0
   -1.1021   -1.2333   -0.0441 C   0  0  0  0  0  2  0  0  0  0  0  0
   -2.1924   -2.2613    0.1043 C   0  0  0  0  0  2  0  0  0  0  0  0
   -0.4818    2.3397    0.1683 H   0  0  0  0  0  0  0  0  0  0  0  0
   -1.1914    1.8082   -1.2244 H   0  0  0  0  0  0  0  0  0  0  0  0
   -2.1742    1.3050    1.5363 H   0  0  0  0  0  0  0  0  0  0  0  0
   -2.9817    2.3767    0.3471 H   0  0  0  0  0  0  0  0  0  0  0  0
   -4.1435    0.1363    0.5107 H   0  0  0  0  0  0  0  0  0  0  0  0
   -3.5074    0.4345   -1.1375 H   0  0  0  0  0  0  0  0  0  0  0  0
  1  7  1  0  0  0  0
  1  3  1  0  0  0  0
  2  6  1  0  0  0  0
  3  9  1  0  0  0  0
  4  2  1  0  0  0  0
  4  3  1  0  0  0  0
  4 11  1  0  0  0  0
  5  2  1  0  0  0  0
  5  6  1  0  0  0  0
  8  1  1  0  0  0  0
 10  3  1  0  0  0  0
 12  4  1  0  0  0  0
M  END
