1,4
q = -1.0, confidence = 0.0

 23 24  0  0  0  0  0  0  0  0999 V2000
   -1.6364   -0.3199    0.0000 N   0  0  0  0  0  2  0  0  0  0  0  0
   -2.2297    0.9144   -0.0000 C   0  0  0  0  0  0  0  0  0  0  0  0
   -1.2926    2.0327    0.0000 C   0  0  0  0  0  0  0  0  0  0  0  0
    0.0943    1.6795    0.0000 C   0  0  0  0  0  2  0  0  0  0  0  0
    1.0393    2.7214    0.0001 C   0  0  0  0  0  0  0  0  0  0  0  0
    2.1129    2.4757    0.0001 H   0  0  0  0  0  0  0  0  0  0  0  0
    0.6279    4.0649    0.0001 C   0  0  0  0  0  0  0  0  0  0  0  0
    1.3892    4.8610    0.0001 H   0  0  0  0  0  0  0  0  0  0  0  0
   -0.7367    4.4038    0.0001 C   0  0  0  0  0  0  0  0  0  0  0  0
   -1.0507    5.4582    0.0001 H   0  0  0  0  0  0  0  0  0  0  0  0
   -1.6949    3.3855    0.0000 C   0  0  0  0  0  0  0  0  0  0  0  0
   -2.7649    3.6452    0.0000 H   0  0  0  0  0  0  0  0  0  0  0  0
   -3.6365    0.9932   -0.0002 C   0  0  0  0  0  0  0  0  0  0  0  0
   -4.1203    1.9791   -0.0003 H   0  0  0  0  0  0  0  0  0  0  0  0
   -4.4023   -0.1721   -0.0002 C   0  0  0  0  0  0  0  0  0  0  0  0
   -5.5018   -0.1046   -0.0003 H   0  0  0  0  0  0  0  0  0  0  0  0
   -3.7765   -1.4374   -0.0001 C   0  0  0  0  0  0  0  0  0  0  0  0
   -2.3744   -1.4498    0.0000 C   0  0  0  0  0  0  0  0  0  0  0  0
   -1.7894   -2.3850    0.0001 H   0  0  0  0  0  0  0  0  0  0  0  0
   -4.5624   -2.7203    0.0001 C   0  0  0  0  0  0  0  0  0  0  0  0
   -3.8955   -3.6031   -0.0001 H   0  0  0  0  0  0  0  0  0  0  0  0
   -5.2197   -2.7883   -0.8916 H   0  0  0  0  0  0  0  0  0  0  0  0
   -5.2192   -2.7884    0.8922 H   0  0  0  0  0  0  0  0  0  0  0  0
  2  3  2  0  0  0  0
  2  1  1  0  0  0  0
  3  4  1  0  0  0  0
  3 11  1  0  0  0  0
  4  5  1  0  0  0  0
  5  6  1  0  0  0  0
  5  7  2  0  0  0  0
  7  8  1  0  0  0  0
  9  7  1  0  0  0  0
  9 10  1  0  0  0  0
 11  9  2  0  0  0  0
 12 11  1  0  0  0  0
 13  2  1  0  0  0  0
 14 13  1  0  0  0  0
 15 13  2  0  0  0  0
 15 17  1  0  0  0  0
 16 15  1  0  0  0  0
 17 18  2  0  0  0  0
 17 20  1  0  0  0  0
 18  1  1  0  0  0  0
 18 19  1  0  0  0  0
 20 23  1  0  0  0  0
 21 20  1  0  0  0  0
 22 20  1  0  0  0  0
M  END
