2,12
q = -1.0, confidence = 0.076

 47 50  0  0  1  0  0  0  0  0999 V2000
    0.0884   -2.8684   -0.0641 O   0  0  0  0  0  0  0  0  0  0  0  0
   -0.0531    0.9162    1.3082 N   0  0  0  0  0  0  0  0  0  0  0  0
    0.0190    0.7624   -1.5941 N   0  0  0  0  0  0  0  0  0  0  0  0
    1.3056   -0.7478   -0.0255 C   0  0  2  0  0  0  0  0  0  0  0  0
    1.1844    0.1413    1.2403 C   0  0  0  0  0  0  0  0  0  0  0  0
   -1.2470    0.0831    1.1902 C   0  0  0  0  0  0  0  0  0  0  0  0
   -1.2493   -0.8222   -0.0747 C   0  0  1  0  0  0  0  0  0  0  0  0
   -1.2212    0.0249   -1.3787 C   0  0  0  0  0  0  0  0  0  0  0  0
    1.2968    0.1135   -1.3232 C   0  0  0  0  0  0  0  0  0  0  0  0
    0.0528   -1.6534   -0.0580 C   0  0  0  0  0  0  0  0  0  0  0  0
   -0.0974    1.7004    2.5488 C   0  0  0  0  0  0  0  0  0  0  0  0
   -0.0173    2.0615   -1.9552 C   0  0  0  0  0  3  0  0  0  0  0  0
    2.6060   -1.5513   -0.0272 C   0  0  0  0  0  0  0  0  0  0  0  0
    2.8025   -2.5580   -0.9983 C   0  0  0  0  0  0  0  0  0  0  0  0
    3.9983   -3.2854   -1.0540 C   0  0  0  0  0  0  0  0  0  0  0  0
    5.0293   -3.0221   -0.1389 C   0  0  0  0  0  0  0  0  0  0  0  0
    4.8502   -2.0236    0.8277 C   0  0  0  0  0  0  0  0  0  0  0  0
    3.6510   -1.2955    0.8826 C   0  0  0  0  0  0  0  0  0  0  0  0
   -2.5056   -1.6902   -0.0228 C   0  0  0  0  0  0  0  0  0  0  0  0
   -3.6097   -1.4716   -0.8711 C   0  0  0  0  0  0  0  0  0  0  0  0
   -4.7725   -2.2511   -0.7607 C   0  0  0  0  0  0  0  0  0  0  0  0
   -4.8556   -3.2645    0.2028 C   0  0  0  0  0  0  0  0  0  0  0  0
   -3.7666   -3.4884    1.0597 C   0  0  0  0  0  0  0  0  0  0  0  0
   -2.6073   -2.7102    0.9489 C   0  0  0  0  0  0  0  0  0  0  0  0
    1.2810   -0.5252    2.1354 H   0  0  0  0  0  0  0  0  0  0  0  0
    2.0227    0.8679    1.2526 H   0  0  0  0  0  0  0  0  0  0  0  0
   -2.1324    0.7508    1.1499 H   0  0  0  0  0  0  0  0  0  0  0  0
   -1.3553   -0.5815    2.0839 H   0  0  0  0  0  0  0  0  0  0  0  0
   -2.0403    0.7720   -1.3455 H   0  0  0  0  0  0  0  0  0  0  0  0
   -1.3841   -0.6580   -2.2414 H   0  0  0  0  0  0  0  0  0  0  0  0
    1.5554   -0.5415   -2.1827 H   0  0  0  0  0  0  0  0  0  0  0  0
    2.0685    0.9057   -1.2327 H   0  0  0  0  0  0  0  0  0  0  0  0
    0.7844    2.3702    2.5852 H   0  0  0  0  0  0  0  0  0  0  0  0
   -1.0164    2.3191    2.5515 H   0  0  0  0  0  0  0  0  0  0  0  0
   -0.0970    1.0457    3.4562 H   0  0  0  0  0  0  0  0  0  0  0  0
   -0.9682    2.4459   -2.3510 H   0  0  0  0  0  0  0  0  0  0  0  0
    0.9238    2.5083   -2.3065 H   0  0  0  0  0  0  0  0  0  0  0  0
    2.0035   -2.7932   -1.7154 H   0  0  0  0  0  0  0  0  0  0  0  0
    4.1223   -4.0685   -1.8172 H   0  0  0  0  0  0  0  0  0  0  0  0
    5.9692   -3.5930   -0.1809 H   0  0  0  0  0  0  0  0  0  0  0  0
    5.6511   -1.8010    1.5488 H   0  0  0  0  0  0  0  0  0  0  0  0
    3.5493   -0.5148    1.6478 H   0  0  0  0  0  0  0  0  0  0  0  0
   -3.5915   -0.6766   -1.6289 H   0  0  0  0  0  0  0  0  0  0  0  0
   -5.6206   -2.0556   -1.4342 H   0  0  0  0  0  0  0  0  0  0  0  0
   -5.7662   -3.8762    0.2892 H   0  0  0  0  0  0  0  0  0  0  0  0
   -3.8167   -4.2804    1.8222 H   0  0  0  0  0  0  0  0  0  0  0  0
   -1.7639   -2.9105    1.6233 H   0  0  0  0  0  0  0  0  0  0  0  0
  1 10  2  0  0  0  0
  2 11  1  0  0  0  0
  3  8  1  0  0  0  0
  3  9  1  0  0  0  0
  4 13  1  1  0  0  0
  4  5  1  0  0  0  0
  5 26  1  0  0  0  0
  5  2  1  0  0  0  0
  5 25  1  0  0  0  0
  6  2  1  0  0  0  0
  6 28  1  0  0  0  0
  7 10  1  0  0  0  0
  7 19  1  1  0  0  0
  7  6  1  0  0  0  0
  8 29  1  0  0  0  0
  8  7  1  0  0  0  0
  9 32  1  0  0  0  0
  9  4  1  0  0  0  0
 10  4  1  0  0  0  0
 11 34  1  0  0  0  0
 11 33  1  0  0  0  0
 11 35  1  0  0  0  0
 12  3  1  0  0  0  0
 13 18  1  0  0  0  0
 14 13  2  0  0  0  0
 15 14  1  0  0  0  0
 15 16  2  0  0  0  0
 16 17  1  0  0  0  0
 17 18  2  0  0  0  0
 17 41  1  0  0  0  0
 18 42  1  0  0  0  0
 19 24  1  0  0  0  0
 20 21  1  0  0  0  0
 20 19  2  0  0  0  0
 21 22  2  0  0  0  0
 22 45  1  0  0  0  0
 22 23  1  0  0  0  0
 23 46  1  0  0  0  0
 24 23  2  0  0  0  0
 24 47  1  0  0  0  0
 27  6  1  0  0  0  0
 30  8  1  0  0  0  0
 31  9  1  0  0  0  0
 36 12  1  0  0  0  0
 37 12  1  0  0  0  0
 38 14  1  0  0  0  0
 39 15  1  0  0  0  0
 40 16  1  0  0  0  0
 43 20  1  0  0  0  0
 44 21  1  0  0  0  0
M  END
