9,13
q = -1.0, confidence = 0.002

 23 25  0  0  1  0  0  0  0  0999 V2000
   -3.1467    3.1765    0.2352 S   0  0  0  0  0  0  0  0  0  0  0  0
   -0.6087    5.0742    4.3599 F   0  0  0  0  0  0  0  0  0  0  0  0
   -0.8445    2.4158    1.2023 C   0  0  0  0  0  0  0  0  0  0  0  0
    0.3355    3.2817    3.1310 C   0  0  0  0  0  0  0  0  0  0  0  0
    1.1877    3.2822    3.8247 H   0  0  0  0  0  0  0  0  0  0  0  0
   -1.8825    3.3675    1.4353 C   0  0  0  0  0  0  0  0  0  0  0  0
    0.2678    2.3780    2.0680 C   0  0  0  0  0  0  0  0  0  0  0  0
    1.0611    1.6409    1.8978 H   0  0  0  0  0  0  0  0  0  0  0  0
   -1.0821    1.5894    0.1166 N   0  0  0  0  0  2  0  0  0  0  0  0
   -1.8242    4.2802    2.4983 C   0  0  0  0  0  0  0  0  0  0  0  0
   -2.6113    5.0210    2.6927 H   0  0  0  0  0  0  0  0  0  0  0  0
   -0.7007    4.2146    3.3291 C   0  0  0  0  0  0  0  0  0  0  0  0
   -1.6666    0.0815   -2.0279 C   0  0  0  0  0  3  0  0  0  0  0  0
   -2.2344    1.8588   -0.4955 C   0  0  1  0  0  3  0  0  0  0  0  0
   -2.0119   -0.7176   -3.1431 C   0  0  0  0  0  0  0  0  0  0  0  0
   -1.3117   -1.4936   -3.4859 H   0  0  0  0  0  0  0  0  0  0  0  0
   -4.1438    0.4554   -3.4361 C   0  0  0  0  0  0  0  0  0  0  0  0
   -5.0873    0.5895   -3.9853 H   0  0  0  0  0  0  0  0  0  0  0  0
   -3.8460    1.2631   -2.3376 C   0  0  0  0  0  0  0  0  0  0  0  0
   -4.5553    2.0410   -2.0100 H   0  0  0  0  0  0  0  0  0  0  0  0
   -2.6290    1.0782   -1.6426 C   0  0  0  0  0  0  0  0  0  0  0  0
   -3.2204   -0.5347   -3.8313 C   0  0  0  0  0  0  0  0  0  0  0  0
   -3.4504   -1.1746   -4.6982 H   0  0  0  0  0  0  0  0  0  0  0  0
  1  6  1  0  0  0  0
  3  6  2  0  0  0  0
  3  7  1  0  0  0  0
  4 12  1  0  0  0  0
  4  5  1  0  0  0  0
  6 10  1  0  0  0  0
  7  4  2  0  0  0  0
  8  7  1  0  0  0  0
  9  3  1  0  0  0  0
 10 11  1  0  0  0  0
 10 12  2  0  0  0  0
 12  2  1  0  0  0  0
 13 21  1  0  0  0  0
 14 21  1  1  0  0  0
 14  9  1  0  0  0  0
 14  1  1  0  0  0  0
 15 13  2  0  0  0  0
 16 15  1  0  0  0  0
 17 19  1  0  0  0  0
 18 17  1  0  0  0  0
 19 20  1  0  0  0  0
 19 21  2  0  0  0  0
 22 17  2  0  0  0  0
 22 15  1  0  0  0  0
 23 22  1  0  0  0  0
M  END
