1,11
q = -1.0, confidence = 0.0

 23 24  0  0  1  0  0  0  0  0999 V2000
   -0.8797   -1.1857   -0.0857 N   0  0  0  0  0  2  0  0  0  0  0  0
   -2.0373   -0.4380   -0.0351 C   0  0  1  0  0  3  0  0  0  0  0  0
   -3.2970   -1.1209    0.0184 C   0  0  0  0  0  0  0  0  0  0  0  0
   -3.2956   -2.5249   -0.0347 C   0  0  0  0  0  0  0  0  0  0  0  0
   -4.2607   -3.0535    0.0046 H   0  0  0  0  0  0  0  0  0  0  0  0
   -2.1052   -3.2513   -0.1277 C   0  0  0  0  0  0  0  0  0  0  0  0
   -2.0938   -4.3486   -0.1748 H   0  0  0  0  0  0  0  0  0  0  0  0
   -0.9133   -2.5340   -0.1382 C   0  0  0  0  0  0  0  0  0  0  0  0
    0.0581   -3.0443   -0.1841 H   0  0  0  0  0  0  0  0  0  0  0  0
   -1.8089    1.0237   -0.0244 C   0  0  0  0  0  0  0  0  0  0  0  0
   -0.4428    1.4502    0.0319 C   0  0  0  0  0  3  0  0  0  0  0  0
   -0.1764    2.8339    0.0594 C   0  0  0  0  0  0  0  0  0  0  0  0
    0.8669    3.1827    0.1098 H   0  0  0  0  0  0  0  0  0  0  0  0
   -1.2039    3.7878    0.0148 C   0  0  0  0  0  0  0  0  0  0  0  0
   -0.9618    4.8621    0.0363 H   0  0  0  0  0  0  0  0  0  0  0  0
   -2.5391    3.3657   -0.0697 C   0  0  0  0  0  0  0  0  0  0  0  0
   -3.3557    4.1012   -0.1235 H   0  0  0  0  0  0  0  0  0  0  0  0
   -2.8383    1.9997   -0.0881 C   0  0  0  0  0  0  0  0  0  0  0  0
   -3.8893    1.7136   -0.1693 H   0  0  0  0  0  0  0  0  0  0  0  0
   -4.6380   -0.4459    0.1529 C   0  0  0  0  0  0  0  0  0  0  0  0
   -4.9084    0.1333   -0.7536 H   0  0  0  0  0  0  0  0  0  0  0  0
   -4.6673    0.2529    1.0120 H   0  0  0  0  0  0  0  0  0  0  0  0
   -5.4271   -1.2062    0.3055 H   0  0  0  0  0  0  0  0  0  0  0  0
  1  2  1  0  0  0  0
  2 10  1  1  0  0  0
  2  3  1  0  0  0  0
  3 20  1  0  0  0  0
  4  5  1  0  0  0  0
  4  3  2  0  0  0  0
  6  4  1  0  0  0  0
  7  6  1  0  0  0  0
  8  6  2  0  0  0  0
  8  1  1  0  0  0  0
  9  8  1  0  0  0  0
 10 11  1  0  0  0  0
 11 12  2  0  0  0  0
 12 13  1  0  0  0  0
 14 15  1  0  0  0  0
 14 12  1  0  0  0  0
 16 14  2  0  0  0  0
 17 16  1  0  0  0  0
 18 16  1  0  0  0  0
 18 10  2  0  0  0  0
 19 18  1  0  0  0  0
 20 23  1  0  0  0  0
 20 22  1  0  0  0  0
 21 20  1  0  0  0  0
M  END
