1,14
q = -1.0, confidence = 0.1

 30 32  0  0  1  0  0  0  0  0999 V2000
    1.4681    1.2070   -1.4077 N   0  0  0  0  0  2  0  0  0  0  0  0
    1.1629    1.9478   -2.4792 C   0  0  2  0  0  3  0  0  0  0  0  0
    2.1333    1.9202   -3.4327 O   0  0  0  0  0  0  0  0  0  0  0  0
    3.1290    1.1123   -2.9170 C   0  0  0  0  0  0  0  0  0  0  0  0
    4.3475    0.7560   -3.4887 C   0  0  0  0  0  0  0  0  0  0  0  0
    4.6474    1.1041   -4.4861 H   0  0  0  0  0  0  0  0  0  0  0  0
    5.1722   -0.0796   -2.7158 C   0  0  0  0  0  0  0  0  0  0  0  0
    6.1487   -0.4126   -3.0928 H   0  0  0  0  0  0  0  0  0  0  0  0
    4.7781   -0.4932   -1.4238 C   0  0  0  0  0  0  0  0  0  0  0  0
    3.5522   -0.1373   -0.8460 C   0  0  0  0  0  0  0  0  0  0  0  0
    3.2412   -0.4457    0.1583 H   0  0  0  0  0  0  0  0  0  0  0  0
    2.7225    0.6668   -1.6366 C   0  0  0  0  0  0  0  0  0  0  0  0
   -0.0578    2.6958   -2.4742 C   0  0  0  0  0  0  0  0  0  0  0  0
   -0.7837    2.4971   -1.2448 C   0  0  0  0  0  3  0  0  0  0  0  0
   -1.9786    3.2347   -1.1033 C   0  0  0  0  0  0  0  0  0  0  0  0
   -2.5759    3.1334   -0.1841 H   0  0  0  0  0  0  0  0  0  0  0  0
   -2.4264    4.0931   -2.1190 C   0  0  0  0  0  0  0  0  0  0  0  0
   -3.3656    4.6516   -1.9784 H   0  0  0  0  0  0  0  0  0  0  0  0
   -1.6999    4.2561   -3.3184 C   0  0  0  0  0  0  0  0  0  0  0  0
   -2.0708    4.9326   -4.1023 H   0  0  0  0  0  0  0  0  0  0  0  0
   -0.5059    3.5558   -3.5002 C   0  0  0  0  0  0  0  0  0  0  0  0
    0.0845    3.6669   -4.4225 H   0  0  0  0  0  0  0  0  0  0  0  0
    5.3354   -2.7665   -0.1225 S   0  0  0  0  0  0  0  0  0  0  0  0
    5.7230   -1.2418   -0.7099 O   0  0  0  0  0  0  0  0  0  0  0  0
    6.4836   -3.6281   -0.3965 O   0  0  0  0  0  1  0  0  0  0  0  0
    3.9497   -3.1172   -0.4565 O   0  0  0  0  0  1  0  0  0  0  0  0
    5.4172   -2.3267    1.7251 C   0  0  0  0  0  0  0  0  0  0  0  0
    4.9859   -3.3868    2.4134 F   0  0  0  0  0  0  0  0  0  0  0  0
    4.6334   -1.2751    1.9831 F   0  0  0  0  0  0  0  0  0  0  0  0
    6.6737   -2.0461    2.0568 F   0  0  0  0  0  0  0  0  0  0  0  0
  2 13  1  1  0  0  0
  2  1  1  0  0  0  0
  3  4  1  0  0  0  0
  3  2  1  0  0  0  0
  4 12  1  0  0  0  0
  5  4  2  0  0  0  0
  5  7  1  0  0  0  0
  6  5  1  0  0  0  0
  7  9  2  0  0  0  0
  8  7  1  0  0  0  0
  9 10  1  0  0  0  0
  9 24  1  0  0  0  0
 10 11  1  0  0  0  0
 12  1  1  0  0  0  0
 12 10  2  0  0  0  0
 13 14  1  0  0  0  0
 14 15  2  0  0  0  0
 15 16  1  0  0  0  0
 17 18  1  0  0  0  0
 17 15  1  0  0  0  0
 19 17  2  0  0  0  0
 20 19  1  0  0  0  0
 21 19  1  0  0  0  0
 21 13  2  0  0  0  0
 22 21  1  0  0  0  0
 23 27  1  0  0  0  0
 24 23  1  0  0  0  0
 25 23  1  0  0  0  0
 26 23  1  0  0  0  0
 27 29  1  0  0  0  0
 27 30  1  0  0  0  0
 27 28  1  0  0  0  0
M  END
