1,15
q = 0.0, confidence = 0.512

 31 33  0  0  0  0  0  0  0  0999 V2000
    0.4396    0.9627   -0.8740 N   0  0  0  0  0  2  0  0  0  0  0  0
   -0.2420    2.1441   -0.6818 C   0  0  0  0  0  0  0  0  0  0  0  0
    0.1365    3.4171   -1.1654 C   0  0  0  0  0  0  0  0  0  0  0  0
    1.0690    3.5445   -1.7328 H   0  0  0  0  0  0  0  0  0  0  0  0
   -0.6614    4.5543   -0.8897 C   0  0  0  0  0  0  0  0  0  0  0  0
   -0.3338    5.5311   -1.2810 H   0  0  0  0  0  0  0  0  0  0  0  0
   -1.8254    4.4778   -0.1322 C   0  0  0  0  0  0  0  0  0  0  0  0
   -2.4220    5.3774    0.0829 H   0  0  0  0  0  0  0  0  0  0  0  0
   -3.4035    3.0506    1.2048 C   0  0  0  0  0  0  0  0  0  0  0  0
   -4.0110    3.9373    1.4472 H   0  0  0  0  0  0  0  0  0  0  0  0
   -3.7583    1.7977    1.6954 C   0  0  0  0  0  0  0  0  0  0  0  0
   -4.6540    1.6942    2.3293 H   0  0  0  0  0  0  0  0  0  0  0  0
   -2.9868    0.6480    1.3775 C   0  0  0  0  0  0  0  0  0  0  0  0
   -3.3118   -0.3373    1.7520 H   0  0  0  0  0  0  0  0  0  0  0  0
   -1.8400    0.7498    0.5782 C   0  0  0  0  0  3  0  0  0  0  0  0
   -1.4648    2.0435    0.0940 C   0  0  0  0  0  0  0  0  0  0  0  0
   -2.2455    3.2151    0.3854 C   0  0  0  0  0  0  0  0  0  0  0  0
    1.5661    0.9685   -1.7785 C   0  0  0  0  0  0  0  0  0  0  0  0
    1.3759    1.6519   -2.6445 H   0  0  0  0  0  0  0  0  0  0  0  0
    1.6618   -0.0463   -2.2236 H   0  0  0  0  0  0  0  0  0  0  0  0
    2.9175    1.3381   -1.1822 C   0  0  0  0  0  0  0  0  0  0  0  0
    3.0218    1.9788    0.0651 C   0  0  0  0  0  0  0  0  0  0  0  0
    2.0966    2.2310    0.6009 H   0  0  0  0  0  0  0  0  0  0  0  0
    4.2772    2.2915    0.6122 C   0  0  0  0  0  0  0  0  0  0  0  0
    4.3362    2.7973    1.5887 H   0  0  0  0  0  0  0  0  0  0  0  0
    5.4526    1.9658   -0.0825 C   0  0  0  0  0  0  0  0  0  0  0  0
    6.4371    2.2063    0.3466 H   0  0  0  0  0  0  0  0  0  0  0  0
    5.3609    1.3360   -1.3351 C   0  0  0  0  0  0  0  0  0  0  0  0
    6.2759    1.0775   -1.8903 H   0  0  0  0  0  0  0  0  0  0  0  0
    4.1044    1.0294   -1.8777 C   0  0  0  0  0  0  0  0  0  0  0  0
    4.0398    0.5310   -2.8597 H   0  0  0  0  0  0  0  0  0  0  0  0
  1  2  1  0  0  0  0
  2 16  1  0  0  0  0
  3  5  1  0  0  0  0
  3  2  2  0  0  0  0
  4  3  1  0  0  0  0
  5  7  2  0  0  0  0
  6  5  1  0  0  0  0
  7  8  1  0  0  0  0
  7 17  1  0  0  0  0
  9 10  1  0  0  0  0
  9 11  1  0  0  0  0
 11 12  1  0  0  0  0
 13 11  2  0  0  0  0
 13 14  1  0  0  0  0
 15 13  1  0  0  0  0
 16 17  1  0  0  0  0
 16 15  2  0  0  0  0
 17  9  2  0  0  0  0
 18 21  1  0  0  0  0
 18  1  1  0  0  0  0
 19 18  1  0  0  0  0
 20 18  1  0  0  0  0
 21 22  1  0  0  0  0
 22 23  1  0  0  0  0
 22 24  2  0  0  0  0
 24 25  1  0  0  0  0
 26 27  1  0  0  0  0
 26 24  1  0  0  0  0
 28 26  2  0  0  0  0
 29 28  1  0  0  0  0
 30 28  1  0  0  0  0
 30 21  2  0  0  0  0
 31 30  1  0  0  0  0
M  END
