1,40
q = 0.0, confidence = 0.998

 40 43  0  0  1  0  0  0  0  0999 V2000
   -1.8873   -0.4165   -0.7858 C   0  0  0  0  0  2  0  0  0  0  0  0
   -2.4575   -1.4575   -2.9876 C   0  0  0  0  0  0  0  0  0  0  0  0
   -1.7029   -0.7377   -3.3522 H   0  0  0  0  0  0  0  0  0  0  0  0
   -3.4189   -1.2529   -3.4985 H   0  0  0  0  0  0  0  0  0  0  0  0
   -2.1395   -2.4925   -3.2253 H   0  0  0  0  0  0  0  0  0  0  0  0
   -3.5565   -1.9494   -0.7682 C   0  0  0  0  0  0  0  0  0  0  0  0
   -4.5142   -2.9216   -1.0875 C   0  0  0  0  0  0  0  0  0  0  0  0
   -4.6319   -3.3058   -2.1102 H   0  0  0  0  0  0  0  0  0  0  0  0
   -5.3185   -3.3856   -0.0368 C   0  0  0  0  0  0  0  0  0  0  0  0
   -6.0824   -4.1492   -0.2427 H   0  0  0  0  0  0  0  0  0  0  0  0
   -5.1692   -2.8966    1.2808 C   0  0  0  0  0  0  0  0  0  0  0  0
   -5.8188   -3.2898    2.0760 H   0  0  0  0  0  0  0  0  0  0  0  0
   -4.2135   -1.9216    1.6010 C   0  0  0  0  0  0  0  0  0  0  0  0
   -4.1051   -1.5499    2.6297 H   0  0  0  0  0  0  0  0  0  0  0  0
   -3.4113   -1.4530    0.5513 C   0  0  0  0  0  0  0  0  0  0  0  0
   -1.8083    0.2907    1.5754 C   0  0  1  0  0  0  0  0  0  0  0  0
   -2.4222    0.0821    2.4741 H   0  0  0  0  0  0  0  0  0  0  0  0
   -0.3483   -0.1080    1.8441 C   0  0  0  0  0  0  0  0  0  0  0  0
    0.0303   -1.4631    1.7468 C   0  0  0  0  0  0  0  0  0  0  0  0
   -0.7179   -2.2270    1.4833 H   0  0  0  0  0  0  0  0  0  0  0  0
    1.3617   -1.8448    1.9692 C   0  0  0  0  0  0  0  0  0  0  0  0
    1.6506   -2.9026    1.8786 H   0  0  0  0  0  0  0  0  0  0  0  0
    2.3305   -0.8816    2.2981 C   0  0  0  0  0  0  0  0  0  0  0  0
    3.3807   -1.1782    2.4374 H   0  0  0  0  0  0  0  0  0  0  0  0
    1.9527    0.4639    2.4201 C   0  0  0  0  0  0  0  0  0  0  0  0
    2.7054    1.2264    2.6684 H   0  0  0  0  0  0  0  0  0  0  0  0
    0.6211    0.8504    2.1981 C   0  0  0  0  0  0  0  0  0  0  0  0
    0.3513    1.9135    2.2786 H   0  0  0  0  0  0  0  0  0  0  0  0
   -1.9665    1.7666    1.2357 C   0  0  1  0  0  3  0  0  0  0  0  0
   -2.5759    2.6778    2.1055 C   0  0  0  0  0  0  0  0  0  0  0  0
   -2.9861    2.3238    3.0622 H   0  0  0  0  0  0  0  0  0  0  0  0
   -2.6406    4.0336    1.7484 C   0  0  0  0  0  0  0  0  0  0  0  0
   -3.1144    4.7630    2.4218 H   0  0  0  0  0  0  0  0  0  0  0  0
   -2.0858    4.4427    0.5291 C   0  0  0  0  0  0  0  0  0  0  0  0
   -2.1022    5.4951    0.2135 H   0  0  0  0  0  0  0  0  0  0  0  0
   -1.4902    3.4849   -0.2990 C   0  0  0  0  0  0  0  0  0  0  0  0
   -1.0087    3.7484   -1.2519 H   0  0  0  0  0  0  0  0  0  0  0  0
   -2.6054   -1.2822   -1.5526 N   0  0  0  0  0  0  0  0  0  0  0  0
   -2.3774   -0.5155    0.4855 N   0  0  0  0  0  0  0  0  0  0  0  0
   -1.4467    2.1814    0.0518 N   0  0  0  0  0  2  0  0  0  0  0  0
  1 39  1  0  0  0  0
  2 38  1  0  0  0  0
  3  2  1  0  0  0  0
  4  2  1  0  0  0  0
  5  2  1  0  0  0  0
  6 15  1  0  0  0  0
  7  6  2  0  0  0  0
  7  9  1  0  0  0  0
  8  7  1  0  0  0  0
  9 11  2  0  0  0  0
 10  9  1  0  0  0  0
 11 13  1  0  0  0  0
 11 12  1  0  0  0  0
 13 14  1  0  0  0  0
 15 13  2  0  0  0  0
 16 18  1  0  0  0  0
 16 17  1  1  0  0  0
 18 27  1  0  0  0  0
 19 18  2  0  0  0  0
 19 21  1  0  0  0  0
 20 19  1  0  0  0  0
 21 23  2  0  0  0  0
 22 21  1  0  0  0  0
 23 25  1  0  0  0  0
 23 24  1  0  0  0  0
 25 26  1  0  0  0  0
 27 28  1  0  0  0  0
 27 25  2  0  0  0  0
 29 16  1  1  0  0  0
 29 30  1  0  0  0  0
 30 31  1  0  0  0  0
 32 30  2  0  0  0  0
 32 33  1  0  0  0  0
 34 32  1  0  0  0  0
 35 34  1  0  0  0  0
 36 40  1  0  0  0  0
 36 34  2  0  0  0  0
 37 36  1  0  0  0  0
 38  1  1  0  0  0  0
 38  6  1  0  0  0  0
 39 15  1  0  0  0  0
 39 16  1  0  0  0  0
 40 29  1  0  0  0  0
M  END
