1,41
q = 0.0, confidence = 0.984

 41 44  0  0  1  0  0  0  0  0999 V2000
    0.2462   -1.4481    0.4388 C   0  0  0  0  0  2  0  0  0  0  0  0
   -0.3166   -3.2386    1.7240 C   0  0  0  0  0  0  0  0  0  0  0  0
   -0.9812   -3.9155    2.2696 H   0  0  0  0  0  0  0  0  0  0  0  0
    1.0441   -3.2604    1.5537 C   0  0  0  0  0  0  0  0  0  0  0  0
    1.8024   -3.9705    1.8962 H   0  0  0  0  0  0  0  0  0  0  0  0
    2.6843   -1.8533    0.2763 C   0  0  0  0  0  0  0  0  0  0  0  0
    3.7225   -1.6258    1.1947 C   0  0  0  0  0  0  0  0  0  0  0  0
    3.5222   -1.6771    2.2754 H   0  0  0  0  0  0  0  0  0  0  0  0
    5.0061   -1.3242    0.7138 C   0  0  0  0  0  0  0  0  0  0  0  0
    5.8249   -1.1438    1.4257 H   0  0  0  0  0  0  0  0  0  0  0  0
    5.2434   -1.2507   -0.6689 C   0  0  0  0  0  0  0  0  0  0  0  0
    6.2515   -1.0155   -1.0406 H   0  0  0  0  0  0  0  0  0  0  0  0
    4.1970   -1.4829   -1.5770 C   0  0  0  0  0  0  0  0  0  0  0  0
    4.3835   -1.4330   -2.6598 H   0  0  0  0  0  0  0  0  0  0  0  0
    2.9109   -1.7877   -1.1087 C   0  0  0  0  0  0  0  0  0  0  0  0
    2.0819   -1.9798   -1.8047 H   0  0  0  0  0  0  0  0  0  0  0  0
   -2.1571   -1.6223    0.9440 C   0  0  1  0  0  0  0  0  0  0  0  0
   -2.8006   -2.3805    1.4344 H   0  0  0  0  0  0  0  0  0  0  0  0
   -2.2823   -0.2785    1.6781 C   0  0  0  0  0  0  0  0  0  0  0  0
   -1.5438   -0.0578    2.8583 C   0  0  0  0  0  0  0  0  0  0  0  0
   -0.8836   -0.8454    3.2531 H   0  0  0  0  0  0  0  0  0  0  0  0
   -1.6321    1.1693    3.5309 C   0  0  0  0  0  0  0  0  0  0  0  0
   -1.0520    1.3285    4.4523 H   0  0  0  0  0  0  0  0  0  0  0  0
   -2.4627    2.1884    3.0354 C   0  0  0  0  0  0  0  0  0  0  0  0
   -2.5292    3.1527    3.5608 H   0  0  0  0  0  0  0  0  0  0  0  0
   -3.2157    1.9660    1.8729 C   0  0  0  0  0  0  0  0  0  0  0  0
   -3.8712    2.7560    1.4779 H   0  0  0  0  0  0  0  0  0  0  0  0
   -3.1302    0.7378    1.1994 C   0  0  0  0  0  0  0  0  0  0  0  0
   -3.7171    0.5886    0.2816 H   0  0  0  0  0  0  0  0  0  0  0  0
   -2.5697   -1.5294   -0.5187 C   0  0  1  0  0  3  0  0  0  0  0  0
   -3.7348   -2.1339   -1.0043 C   0  0  0  0  0  0  0  0  0  0  0  0
   -4.3605   -2.7313   -0.3256 H   0  0  0  0  0  0  0  0  0  0  0  0
   -4.0953   -1.9537   -2.3487 C   0  0  0  0  0  0  0  0  0  0  0  0
   -5.0089   -2.4200   -2.7460 H   0  0  0  0  0  0  0  0  0  0  0  0
   -3.2808   -1.1634   -3.1694 C   0  0  0  0  0  0  0  0  0  0  0  0
   -3.5307   -0.9811   -4.2238 H   0  0  0  0  0  0  0  0  0  0  0  0
   -2.1269   -0.5873   -2.6259 C   0  0  0  0  0  0  0  0  0  0  0  0
   -1.4673    0.0741   -3.2066 H   0  0  0  0  0  0  0  0  0  0  0  0
    1.3677   -2.1604    0.7559 N   0  0  0  0  0  0  0  0  0  0  0  0
   -0.7777   -2.1271    1.0304 N   0  0  0  0  0  0  0  0  0  0  0  0
   -1.7828   -0.7813   -1.3339 N   0  0  0  0  0  2  0  0  0  0  0  0
  1 39  1  0  0  0  0
  1 40  1  0  0  0  0
  2  3  1  0  0  0  0
  4  2  2  0  0  0  0
  4  5  1  0  0  0  0
  6 39  1  0  0  0  0
  6  7  1  0  0  0  0
  7  8  1  0  0  0  0
  9  7  2  0  0  0  0
  9 10  1  0  0  0  0
 11  9  1  0  0  0  0
 12 11  1  0  0  0  0
 13 15  1  0  0  0  0
 13 11  2  0  0  0  0
 14 13  1  0  0  0  0
 15  6  2  0  0  0  0
 16 15  1  0  0  0  0
 17 40  1  0  0  0  0
 17 18  1  1  0  0  0
 17 19  1  0  0  0  0
 19 20  1  0  0  0  0
 20 21  1  0  0  0  0
 20 22  2  0  0  0  0
 22 23  1  0  0  0  0
 24 22  1  0  0  0  0
 24 25  1  0  0  0  0
 26 24  2  0  0  0  0
 27 26  1  0  0  0  0
 28 19  2  0  0  0  0
 28 26  1  0  0  0  0
 29 28  1  0  0  0  0
 30 17  1  1  0  0  0
 31 30  1  0  0  0  0
 31 32  1  0  0  0  0
 33 31  2  0  0  0  0
 34 33  1  0  0  0  0
 35 37  2  0  0  0  0
 35 33  1  0  0  0  0
 36 35  1  0  0  0  0
 37 41  1  0  0  0  0
 38 37  1  0  0  0  0
 39  4  1  0  0  0  0
 40  2  1  0  0  0  0
 41 30  1  0  0  0  0
M  END
