2,3
q = -2.0, confidence = 0.712

 33 33  0  0  0  0  0  0  0  0999 V2000
    0.0331    1.6939   -0.9783 P   0  0  0  0  0  2  0  0  0  0  0  0
   -1.0262    0.3308   -0.5968 N   0  0  0  0  0  2  0  0  0  0  0  0
    1.5101    1.1887   -0.2728 C   0  0  0  0  0  2  0  0  0  0  0  0
    2.7497    2.0760   -0.2921 C   0  0  0  0  0  0  0  0  0  0  0  0
    4.0242    1.2398   -0.0563 C   0  0  0  0  0  0  0  0  0  0  0  0
    4.9119    1.8986    0.0438 H   0  0  0  0  0  0  0  0  0  0  0  0
    4.2154    0.5468   -0.8986 H   0  0  0  0  0  0  0  0  0  0  0  0
    3.9319    0.6368    0.8698 H   0  0  0  0  0  0  0  0  0  0  0  0
    2.6160    3.0973    0.8655 C   0  0  0  0  0  0  0  0  0  0  0  0
    3.5170    3.7441    0.9246 H   0  0  0  0  0  0  0  0  0  0  0  0
    2.4995    2.5831    1.8404 H   0  0  0  0  0  0  0  0  0  0  0  0
    1.7272    3.7428    0.7169 H   0  0  0  0  0  0  0  0  0  0  0  0
    2.8981    2.8505   -1.6203 C   0  0  0  0  0  0  0  0  0  0  0  0
    3.8078    3.4868   -1.6079 H   0  0  0  0  0  0  0  0  0  0  0  0
    2.0250    3.5107   -1.8006 H   0  0  0  0  0  0  0  0  0  0  0  0
    2.9758    2.1529   -2.4790 H   0  0  0  0  0  0  0  0  0  0  0  0
   -2.4155    0.4712   -0.4506 C   0  0  0  0  0  0  0  0  0  0  0  0
   -3.0503    1.6274    0.1129 C   0  0  0  0  0  0  0  0  0  0  0  0
   -4.4528    1.6395    0.2489 C   0  0  0  0  0  0  0  0  0  0  0  0
   -4.9236    2.5339    0.6878 H   0  0  0  0  0  0  0  0  0  0  0  0
   -5.2506    0.5573   -0.1349 C   0  0  0  0  0  0  0  0  0  0  0  0
   -6.3432    0.5961   -0.0137 H   0  0  0  0  0  0  0  0  0  0  0  0
   -4.6291   -0.5797   -0.6645 C   0  0  0  0  0  0  0  0  0  0  0  0
   -5.2340   -1.4483   -0.9699 H   0  0  0  0  0  0  0  0  0  0  0  0
   -3.2359   -0.6412   -0.8286 C   0  0  0  0  0  0  0  0  0  0  0  0
   -2.6118   -1.8828   -1.3986 C   0  0  0  0  0  0  0  0  0  0  0  0
   -1.9480   -2.3779   -0.6571 H   0  0  0  0  0  0  0  0  0  0  0  0
   -1.9767   -1.6535   -2.2772 H   0  0  0  0  0  0  0  0  0  0  0  0
   -3.3840   -2.6157   -1.7008 H   0  0  0  0  0  0  0  0  0  0  0  0
   -2.3011    2.8473    0.6012 C   0  0  0  0  0  0  0  0  0  0  0  0
   -2.0899    3.5714   -0.2129 H   0  0  0  0  0  0  0  0  0  0  0  0
   -1.3214    2.5987    1.0570 H   0  0  0  0  0  0  0  0  0  0  0  0
   -2.9019    3.3808    1.3649 H   0  0  0  0  0  0  0  0  0  0  0  0
  1  2  1  0  0  0  0
  1  3  1  0  0  0  0
  2 17  1  0  0  0  0
  4  3  1  0  0  0  0
  4  5  1  0  0  0  0
  4  9  1  0  0  0  0
  5  6  1  0  0  0  0
  5  8  1  0  0  0  0
  7  5  1  0  0  0  0
  9 10  1  0  0  0  0
  9 11  1  0  0  0  0
 12  9  1  0  0  0  0
 13 14  1  0  0  0  0
 13  4  1  0  0  0  0
 15 13  1  0  0  0  0
 16 13  1  0  0  0  0
 17 18  1  0  0  0  0
 18 19  2  0  0  0  0
 18 30  1  0  0  0  0
 19 20  1  0  0  0  0
 21 22  1  0  0  0  0
 21 19  1  0  0  0  0
 23 21  2  0  0  0  0
 24 23  1  0  0  0  0
 25 23  1  0  0  0  0
 25 17  2  0  0  0  0
 26 25  1  0  0  0  0
 26 27  1  0  0  0  0
 28 26  1  0  0  0  0
 29 26  1  0  0  0  0
 30 32  1  0  0  0  0
 30 33  1  0  0  0  0
 31 30  1  0  0  0  0
M  END
