2,7
q = -2.0, confidence = 0.884

 38 38  0  0  1  0  0  0  0  0999 V2000
    1.5633    1.7036    0.0208 Si  0  0  0  0  0  0  0  0  0  0  0  0
    1.4575   -0.0658   -0.0580 N   0  0  0  0  0  2  0  0  0  0  0  0
   -2.3587    1.0380    0.8736 C   0  0  0  0  0  0  0  0  0  0  0  0
   -2.4269    1.1573   -0.5589 C   0  0  0  0  0  0  0  0  0  0  0  0
   -1.1754    1.6860   -1.0012 C   0  0  0  0  0  0  0  0  0  0  0  0
   -0.9016    1.8380   -2.0548 H   0  0  0  0  0  0  0  0  0  0  0  0
   -0.3119    1.9009    0.1252 C   0  0  1  0  0  3  0  0  0  0  0  0
   -1.0663    1.4936    1.2774 C   0  0  0  0  0  0  0  0  0  0  0  0
   -0.6920    1.4679    2.3107 H   0  0  0  0  0  0  0  0  0  0  0  0
   -3.4640    0.5770    1.7752 C   0  0  0  0  0  0  0  0  0  0  0  0
   -4.1721    1.4086    1.9788 H   0  0  0  0  0  0  0  0  0  0  0  0
   -3.0680    0.2177    2.7437 H   0  0  0  0  0  0  0  0  0  0  0  0
   -4.0490   -0.2477    1.3226 H   0  0  0  0  0  0  0  0  0  0  0  0
   -3.6156    0.8445   -1.4166 C   0  0  0  0  0  0  0  0  0  0  0  0
   -4.1743   -0.0358   -1.0424 H   0  0  0  0  0  0  0  0  0  0  0  0
   -3.3125    0.6326   -2.4592 H   0  0  0  0  0  0  0  0  0  0  0  0
   -4.3225    1.7017   -1.4292 H   0  0  0  0  0  0  0  0  0  0  0  0
    2.5507   -1.0661   -0.0237 C   0  0  0  0  0  0  0  0  0  0  0  0
    2.0137   -2.4169   -0.5363 C   0  0  0  0  0  0  0  0  0  0  0  0
    2.7954   -3.2007   -0.4797 H   0  0  0  0  0  0  0  0  0  0  0  0
    1.6706   -2.3412   -1.5867 H   0  0  0  0  0  0  0  0  0  0  0  0
    1.1661   -2.7755    0.0895 H   0  0  0  0  0  0  0  0  0  0  0  0
    3.7151   -0.6122   -0.9218 C   0  0  0  0  0  0  0  0  0  0  0  0
    4.1652    0.3303   -0.5470 H   0  0  0  0  0  0  0  0  0  0  0  0
    3.3670   -0.4434   -1.9603 H   0  0  0  0  0  0  0  0  0  0  0  0
    4.5170   -1.3779   -0.9425 H   0  0  0  0  0  0  0  0  0  0  0  0
    3.0415   -1.2357    1.4288 C   0  0  0  0  0  0  0  0  0  0  0  0
    2.2064   -1.5615    2.0809 H   0  0  0  0  0  0  0  0  0  0  0  0
    3.4396   -0.2821    1.8280 H   0  0  0  0  0  0  0  0  0  0  0  0
    3.8484   -1.9948    1.4881 H   0  0  0  0  0  0  0  0  0  0  0  0
    2.2318    2.5233   -1.5409 C   0  0  0  0  0  0  0  0  0  0  0  0
    3.3279    2.3944   -1.6388 H   0  0  0  0  0  0  0  0  0  0  0  0
    2.0161    3.6118   -1.5182 H   0  0  0  0  0  0  0  0  0  0  0  0
    1.7578    2.0939   -2.4463 H   0  0  0  0  0  0  0  0  0  0  0  0
    2.4329    2.3779    1.5519 C   0  0  0  0  0  0  0  0  0  0  0  0
    2.0438    1.9055    2.4758 H   0  0  0  0  0  0  0  0  0  0  0  0
    2.2747    3.4739    1.6264 H   0  0  0  0  0  0  0  0  0  0  0  0
    3.5262    2.1963    1.5100 H   0  0  0  0  0  0  0  0  0  0  0  0
  1 35  1  0  0  0  0
  2 18  1  0  0  0  0
  2  1  1  0  0  0  0
  3  8  2  0  0  0  0
  3 10  1  0  0  0  0
  4  3  1  0  0  0  0
  5  4  2  0  0  0  0
  5  7  1  0  0  0  0
  6  5  1  0  0  0  0
  7  1  1  6  0  0  0
  7  8  1  0  0  0  0
  8  9  1  0  0  0  0
 10 11  1  0  0  0  0
 10 12  1  0  0  0  0
 13 10  1  0  0  0  0
 14 15  1  0  0  0  0
 14  4  1  0  0  0  0
 16 14  1  0  0  0  0
 17 14  1  0  0  0  0
 18 27  1  0  0  0  0
 19 20  1  0  0  0  0
 19 18  1  0  0  0  0
 19 22  1  0  0  0  0
 21 19  1  0  0  0  0
 23 24  1  0  0  0  0
 23 18  1  0  0  0  0
 25 23  1  0  0  0  0
 26 23  1  0  0  0  0
 27 30  1  0  0  0  0
 27 29  1  0  0  0  0
 27 28  1  0  0  0  0
 31 33  1  0  0  0  0
 31  1  1  0  0  0  0
 32 31  1  0  0  0  0
 34 31  1  0  0  0  0
 35 37  1  0  0  0  0
 35 36  1  0  0  0  0
 38 35  1  0  0  0  0
M  END
