1,11
q = -1.0, confidence = 0.0

 26 27  0  0  0  0  0  0  0  0999 V2000
    1.7288    0.0637   -0.0610 C   0  0  0  0  0  3  0  0  0  0  0  0
    2.0355   -1.2616    0.2416 C   0  0  0  0  0  0  0  0  0  0  0  0
    3.4626   -1.4305    0.1519 C   0  0  0  0  0  0  0  0  0  0  0  0
    4.0175   -0.1573   -0.2125 C   0  0  0  0  0  0  0  0  0  0  0  0
    2.9505    0.7197   -0.3256 N   0  0  0  0  0  0  0  0  0  0  0  0
    4.3414   -2.5194    0.3459 C   0  0  0  0  0  0  0  0  0  0  0  0
    5.7172   -2.3279    0.1732 C   0  0  0  0  0  0  0  0  0  0  0  0
    6.2401   -1.0650   -0.1934 C   0  0  0  0  0  0  0  0  0  0  0  0
    5.3969    0.0370   -0.3955 C   0  0  0  0  0  0  0  0  0  0  0  0
    2.9661    2.0873   -0.7420 C   0  0  0  0  0  0  0  0  0  0  0  0
    1.8681    2.8042   -0.0490 N   0  0  0  0  0  0  0  0  0  0  0  0
    1.5446    4.0597   -0.7514 C   0  0  0  0  0  0  0  0  0  0  0  0
    2.1997    3.0714    1.3676 C   0  0  0  0  0  0  0  0  0  0  0  0
    1.3190   -2.0410    0.5173 H   0  0  0  0  0  0  0  0  0  0  0  0
    3.9436   -3.5063    0.6284 H   0  0  0  0  0  0  0  0  0  0  0  0
    6.4071   -3.1727    0.3213 H   0  0  0  0  0  0  0  0  0  0  0  0
    7.3259   -0.9447   -0.3268 H   0  0  0  0  0  0  0  0  0  0  0  0
    5.8090    1.0140   -0.6904 H   0  0  0  0  0  0  0  0  0  0  0  0
    3.9537    2.5492   -0.5105 H   0  0  0  0  0  0  0  0  0  0  0  0
    2.7803    2.1905   -1.8347 H   0  0  0  0  0  0  0  0  0  0  0  0
    0.6546    4.5085   -0.2733 H   0  0  0  0  0  0  0  0  0  0  0  0
    2.4092    4.7617   -0.7147 H   0  0  0  0  0  0  0  0  0  0  0  0
    1.2933    3.8367   -1.8051 H   0  0  0  0  0  0  0  0  0  0  0  0
    1.3018    3.4855    1.8628 H   0  0  0  0  0  0  0  0  0  0  0  0
    3.0411    3.7987    1.4422 H   0  0  0  0  0  0  0  0  0  0  0  0
    2.4851    2.1243    1.8615 H   0  0  0  0  0  0  0  0  0  0  0  0
  1  2  2  0  0  0  0
  2 14  1  0  0  0  0
  3  2  1  0  0  0  0
  3  6  1  0  0  0  0
  4  3  2  0  0  0  0
  5  4  1  0  0  0  0
  5  1  1  0  0  0  0
  6 15  1  0  0  0  0
  7 16  1  0  0  0  0
  7  6  2  0  0  0  0
  8  7  1  0  0  0  0
  9  4  1  0  0  0  0
  9  8  2  0  0  0  0
 10 19  1  0  0  0  0
 10  5  1  0  0  0  0
 10 11  1  0  0  0  0
 11 13  1  0  0  0  0
 12 22  1  0  0  0  0
 12 21  1  0  0  0  0
 12 11  1  0  0  0  0
 13 25  1  0  0  0  0
 13 26  1  0  0  0  0
 13 24  1  0  0  0  0
 17  8  1  0  0  0  0
 18  9  1  0  0  0  0
 20 10  1  0  0  0  0
 23 12  1  0  0  0  0
M  END
