1,17
q = -2.0, confidence = 0.788

 29 31  0  0  1  0  0  0  0  0999 V2000
    0.0449   -1.4846    0.6051 N   0  0  0  0  0  0  0  0  0  0  0  0
    1.2880   -1.9177    0.1601 C   0  0  0  0  0  0  0  0  0  0  0  0
   -0.2498   -2.3230    1.6735 C   0  0  0  0  0  3  0  0  0  0  0  0
   -1.1821   -2.2325    2.2429 H   0  0  0  0  0  0  0  0  0  0  0  0
    0.8190   -3.1992    1.8083 C   0  0  0  0  0  0  0  0  0  0  0  0
    0.9415   -4.0118    2.5371 H   0  0  0  0  0  0  0  0  0  0  0  0
    1.7785   -2.9351    0.8520 N   0  0  0  0  0  0  0  0  0  0  0  0
    1.9719   -1.1909   -0.9783 C   0  0  1  0  0  0  0  0  0  0  0  0
    2.3224   -1.9492   -1.7102 H   0  0  0  0  0  0  0  0  0  0  0  0
    0.9301   -0.3095   -1.6415 C   0  0  0  0  0  0  0  0  0  0  0  0
    0.7868    1.0980   -1.5159 C   0  0  0  0  0  0  0  0  0  0  0  0
    1.4999    1.7574   -1.0084 H   0  0  0  0  0  0  0  0  0  0  0  0
   -0.4669    1.4732   -2.0874 C   0  0  0  0  0  0  0  0  0  0  0  0
   -0.8786    2.4883   -2.1372 H   0  0  0  0  0  0  0  0  0  0  0  0
   -1.0881    0.2987   -2.6090 C   0  0  0  0  0  0  0  0  0  0  0  0
   -2.0585    0.2504   -3.1166 H   0  0  0  0  0  0  0  0  0  0  0  0
   -0.2280   -0.7977   -2.3312 C   0  0  0  0  0  3  0  0  0  0  0  0
   -0.4213   -1.8535   -2.5609 H   0  0  0  0  0  0  0  0  0  0  0  0
    3.1847   -0.3809   -0.5327 C   0  0  0  0  0  0  0  0  0  0  0  0
    3.1894    0.2904    0.7052 C   0  0  0  0  0  0  0  0  0  0  0  0
    2.3271    0.1791    1.3790 H   0  0  0  0  0  0  0  0  0  0  0  0
    4.2798    1.0883    1.0816 C   0  0  0  0  0  0  0  0  0  0  0  0
    4.2692    1.6029    2.0549 H   0  0  0  0  0  0  0  0  0  0  0  0
    5.3852    1.2230    0.2260 C   0  0  0  0  0  0  0  0  0  0  0  0
    6.2444    1.8432    0.5238 H   0  0  0  0  0  0  0  0  0  0  0  0
    5.3911    0.5539   -1.0079 C   0  0  0  0  0  0  0  0  0  0  0  0
    6.2562    0.6471   -1.6824 H   0  0  0  0  0  0  0  0  0  0  0  0
    4.2965   -0.2400   -1.3830 C   0  0  0  0  0  0  0  0  0  0  0  0
    4.3033   -0.7634   -2.3525 H   0  0  0  0  0  0  0  0  0  0  0  0
  1  3  1  0  0  0  0
  2  1  2  0  0  0  0
  2  7  1  0  0  0  0
  3  5  1  0  0  0  0
  3  4  1  0  0  0  0
  5  6  1  0  0  0  0
  7  5  2  0  0  0  0
  8  9  1  6  0  0  0
  8 19  1  0  0  0  0
  8  2  1  0  0  0  0
 10 11  2  0  0  0  0
 10  8  1  0  0  0  0
 11 12  1  0  0  0  0
 13 11  1  0  0  0  0
 14 13  1  0  0  0  0
 15 17  1  0  0  0  0
 15 13  2  0  0  0  0
 16 15  1  0  0  0  0
 17 10  1  0  0  0  0
 18 17  1  0  0  0  0
 19 20  1  0  0  0  0
 20 22  2  0  0  0  0
 20 21  1  0  0  0  0
 22 23  1  0  0  0  0
 24 25  1  0  0  0  0
 24 22  1  0  0  0  0
 26 24  2  0  0  0  0
 27 26  1  0  0  0  0
 28 26  1  0  0  0  0
 28 19  2  0  0  0  0
 29 28  1  0  0  0  0
M  END
