2,7
q = -1.0, confidence = 0.002

 31 33  0  0  1  0  0  0  0  0999 V2000
   -1.3725   -0.2989   -0.1247 N   0  0  0  0  0  0  0  0  0  0  0  0
   -0.2221   -1.0445   -0.1767 N   0  0  0  0  0  2  0  0  0  0  0  0
   -0.5765   -2.3464   -0.2193 C   0  0  1  0  0  3  0  0  0  0  0  0
   -1.9884   -2.4312   -0.1810 C   0  0  0  0  0  0  0  0  0  0  0  0
   -2.4738   -1.1220   -0.1000 C   0  0  0  0  0  0  0  0  0  0  0  0
   -1.1809    1.1067   -0.2188 C   0  0  0  0  0  0  0  0  0  0  0  0
    0.1777    1.5037   -0.1549 C   0  0  0  0  0  2  0  0  0  0  0  0
    0.4770    2.8718   -0.2374 C   0  0  0  0  0  3  0  0  0  0  0  0
   -0.5497    3.8181   -0.3998 C   0  0  0  0  0  0  0  0  0  0  0  0
   -1.8863    3.4000   -0.5032 C   0  0  0  0  0  0  0  0  0  0  0  0
   -2.2143    2.0380   -0.4204 C   0  0  0  0  0  0  0  0  0  0  0  0
    0.4160   -3.4572   -0.3068 C   0  0  0  0  0  0  0  0  0  0  0  0
   -3.8708   -0.6942    0.0960 C   0  0  0  0  0  0  0  0  0  0  0  0
   -4.8775   -1.1726   -0.7697 C   0  0  0  0  0  0  0  0  0  0  0  0
   -6.2209   -0.8325   -0.5543 C   0  0  0  0  0  0  0  0  0  0  0  0
   -6.5759   -0.0136    0.5286 C   0  0  0  0  0  0  0  0  0  0  0  0
   -5.5811    0.4589    1.4015 C   0  0  0  0  0  0  0  0  0  0  0  0
   -4.2388    0.1194    1.1919 C   0  0  0  0  0  0  0  0  0  0  0  0
   -2.5939   -3.3424   -0.1523 H   0  0  0  0  0  0  0  0  0  0  0  0
    1.5305    3.1843   -0.1802 H   0  0  0  0  0  0  0  0  0  0  0  0
   -0.3027    4.8895   -0.4619 H   0  0  0  0  0  0  0  0  0  0  0  0
   -2.6890    4.1365   -0.6576 H   0  0  0  0  0  0  0  0  0  0  0  0
   -3.2574    1.7169   -0.5254 H   0  0  0  0  0  0  0  0  0  0  0  0
    1.4276   -3.1068   -0.0308 H   0  0  0  0  0  0  0  0  0  0  0  0
    0.4628   -3.8501   -1.3445 H   0  0  0  0  0  0  0  0  0  0  0  0
    0.1146   -4.2971    0.3492 H   0  0  0  0  0  0  0  0  0  0  0  0
   -4.5932   -1.8048   -1.6242 H   0  0  0  0  0  0  0  0  0  0  0  0
   -6.9951   -1.2061   -1.2414 H   0  0  0  0  0  0  0  0  0  0  0  0
   -7.6298    0.2554    0.6958 H   0  0  0  0  0  0  0  0  0  0  0  0
   -5.8544    1.0928    2.2585 H   0  0  0  0  0  0  0  0  0  0  0  0
   -3.4618    0.4829    1.8807 H   0  0  0  0  0  0  0  0  0  0  0  0
  1  5  1  0  0  0  0
  2  1  1  0  0  0  0
  3 12  1  6  0  0  0
  3  4  1  0  0  0  0
  3  2  1  0  0  0  0
  4 19  1  0  0  0  0
  4  5  2  0  0  0  0
  5 13  1  0  0  0  0
  6  7  1  0  0  0  0
  6  1  1  0  0  0  0
  8 20  1  0  0  0  0
  8  7  1  0  0  0  0
  9  8  1  0  0  0  0
 10 11  1  0  0  0  0
 10  9  2  0  0  0  0
 11  6  2  0  0  0  0
 12 24  1  0  0  0  0
 12 26  1  0  0  0  0
 13 18  1  0  0  0  0
 14 15  1  0  0  0  0
 14 13  2  0  0  0  0
 15 16  2  0  0  0  0
 16 29  1  0  0  0  0
 16 17  1  0  0  0  0
 17 30  1  0  0  0  0
 18 17  2  0  0  0  0
 18 31  1  0  0  0  0
 21  9  1  0  0  0  0
 22 10  1  0  0  0  0
 23 11  1  0  0  0  0
 25 12  1  0  0  0  0
 27 14  1  0  0  0  0
 28 15  1  0  0  0  0
M  END
