3,7
q = -1.0, confidence = 0.0

 37 39  0  0  0  0  0  0  0  0999 V2000
   -4.4218   -2.1117    0.5417 O   0  0  0  0  0  0  0  0  0  0  0  0
   -1.2831   -3.1950   -2.6857 O   0  0  0  0  0  0  0  0  0  0  0  0
   -1.0296   -1.8209   -0.8293 N   0  0  0  0  0  2  0  0  0  0  0  0
   -0.3413    0.1319   -2.6721 N   0  0  0  0  0  0  0  0  0  0  0  0
   -1.3433    2.0912   -2.9482 N   0  0  0  0  0  0  0  0  0  0  0  0
   -1.1005    1.8335   -1.6244 N   0  0  0  0  0  0  0  0  0  0  0  0
   -0.5011    0.6325   -1.4042 C   0  0  0  0  0  2  0  0  0  0  0  0
   -0.8725    1.0304   -3.5667 C   0  0  0  0  0  0  0  0  0  0  0  0
   -0.8877    0.8795   -4.6522 H   0  0  0  0  0  0  0  0  0  0  0  0
   -1.5319    2.8114   -0.6237 C   0  0  0  0  0  0  0  0  0  0  0  0
   -1.6625    3.7592   -1.1761 H   0  0  0  0  0  0  0  0  0  0  0  0
   -0.6922    2.9431    0.0869 H   0  0  0  0  0  0  0  0  0  0  0  0
   -2.7997    2.4560    0.1280 C   0  0  0  0  0  0  0  0  0  0  0  0
   -2.8838    1.2728    0.8878 C   0  0  0  0  0  0  0  0  0  0  0  0
   -2.0433    0.5552    0.8571 H   0  0  0  0  0  0  0  0  0  0  0  0
   -4.0271    0.9900    1.6448 C   0  0  0  0  0  0  0  0  0  0  0  0
   -4.0799    0.0529    2.2179 H   0  0  0  0  0  0  0  0  0  0  0  0
   -5.1072    1.8879    1.6475 C   0  0  0  0  0  0  0  0  0  0  0  0
   -6.0085    1.6639    2.2380 H   0  0  0  0  0  0  0  0  0  0  0  0
   -5.0400    3.0613    0.8825 C   0  0  0  0  0  0  0  0  0  0  0  0
   -5.8871    3.7637    0.8710 H   0  0  0  0  0  0  0  0  0  0  0  0
   -3.8912    3.3424    0.1246 C   0  0  0  0  0  0  0  0  0  0  0  0
   -3.8401    4.2665   -0.4730 H   0  0  0  0  0  0  0  0  0  0  0  0
   -5.5541   -1.4773    0.1059 C   0  0  0  0  0  0  0  0  0  0  0  0
   -6.4386   -1.5888    0.7405 H   0  0  0  0  0  0  0  0  0  0  0  0
   -5.3023   -0.8142   -1.0704 C   0  0  0  0  0  0  0  0  0  0  0  0
   -6.0150   -0.2117   -1.6440 H   0  0  0  0  0  0  0  0  0  0  0  0
   -3.9221   -1.0606   -1.3792 C   0  0  0  0  0  0  0  0  0  0  0  0
   -3.3605   -0.7085   -2.2497 H   0  0  0  0  0  0  0  0  0  0  0  0
   -3.4296   -1.8580   -0.3682 C   0  0  0  0  0  0  0  0  0  0  0  0
   -2.1009   -2.5113   -0.1295 C   0  0  0  0  0  0  0  0  0  0  0  0
   -1.8939   -2.5272    0.9605 H   0  0  0  0  0  0  0  0  0  0  0  0
   -2.1464   -3.5653   -0.4901 H   0  0  0  0  0  0  0  0  0  0  0  0
   -0.8140   -2.2062   -2.1086 C   0  0  0  0  0  0  0  0  0  0  0  0
    0.1111   -1.2388   -2.8888 C   0  0  0  0  0  0  0  0  0  0  0  0
    1.1580   -1.3430   -2.5392 H   0  0  0  0  0  0  0  0  0  0  0  0
    0.0453   -1.4816   -3.9633 H   0  0  0  0  0  0  0  0  0  0  0  0
  2 34  2  0  0  0  0
  3 31  1  0  0  0  0
  4  7  1  0  0  0  0
  5  6  1  0  0  0  0
  6  7  1  0  0  0  0
  6 10  1  0  0  0  0
  8  5  2  0  0  0  0
  8  4  1  0  0  0  0
  9  8  1  0  0  0  0
 10 12  1  0  0  0  0
 10 13  1  0  0  0  0
 11 10  1  0  0  0  0
 13 14  1  0  0  0  0
 14 16  2  0  0  0  0
 15 14  1  0  0  0  0
 16 18  1  0  0  0  0
 16 17  1  0  0  0  0
 18 19  1  0  0  0  0
 20 18  2  0  0  0  0
 21 20  1  0  0  0  0
 22 13  2  0  0  0  0
 22 20  1  0  0  0  0
 23 22  1  0  0  0  0
 24  1  1  0  0  0  0
 24 25  1  0  0  0  0
 26 24  2  0  0  0  0
 27 26  1  0  0  0  0
 28 26  1  0  0  0  0
 28 30  2  0  0  0  0
 29 28  1  0  0  0  0
 30 31  1  0  0  0  0
 30  1  1  0  0  0  0
 31 32  1  0  0  0  0
 33 31  1  0  0  0  0
 34  3  1  0  0  0  0
 35  4  1  0  0  0  0
 35 36  1  0  0  0  0
 35 34  1  0  0  0  0
 37 35  1  0  0  0  0
M  END
