1,20
q = 0.0, confidence = 1.0

 57 60  0  0  1  0  0  0  0  0999 V2000
    0.6215    0.7645    1.1296 N   0  0  0  0  0  2  0  0  0  0  0  0
   -1.4190    0.0139   -0.5763 N   0  0  0  0  0  0  0  0  0  0  0  0
   -0.3605   -1.4317   -1.8152 N   0  0  0  0  0  0  0  0  0  0  0  0
   -0.6897    1.3785    1.3730 C   0  0  1  0  0  0  0  0  0  0  0  0
   -1.2136    0.7996    2.1710 H   0  0  0  0  0  0  0  0  0  0  0  0
   -0.5563    2.8439    1.8173 C   0  0  0  0  0  0  0  0  0  0  0  0
    0.0420    2.8850    2.7500 H   0  0  0  0  0  0  0  0  0  0  0  0
    0.0334    3.3833    1.0449 H   0  0  0  0  0  0  0  0  0  0  0  0
   -1.9396    3.4757    2.0210 C   0  0  0  0  0  0  0  0  0  0  0  0
   -1.8238    4.5453    2.2908 H   0  0  0  0  0  0  0  0  0  0  0  0
   -2.4406    2.9885    2.8878 H   0  0  0  0  0  0  0  0  0  0  0  0
   -2.8353    3.3334    0.7818 C   0  0  0  0  0  0  0  0  0  0  0  0
   -3.8442    3.7457    0.9861 H   0  0  0  0  0  0  0  0  0  0  0  0
   -2.4099    3.9345   -0.0512 H   0  0  0  0  0  0  0  0  0  0  0  0
   -2.9547    1.8673    0.3358 C   0  0  0  0  0  0  0  0  0  0  0  0
   -3.4802    1.2797    1.1151 H   0  0  0  0  0  0  0  0  0  0  0  0
   -3.5594    1.7800   -0.5894 H   0  0  0  0  0  0  0  0  0  0  0  0
   -1.5488    1.3262    0.0862 C   0  0  2  0  0  0  0  0  0  0  0  0
   -1.0530    2.0207   -0.6279 H   0  0  0  0  0  0  0  0  0  0  0  0
   -0.2149   -0.2402   -1.1834 C   0  0  0  0  0  2  0  0  0  0  0  0
   -2.3197   -1.0355   -0.8051 C   0  0  0  0  0  0  0  0  0  0  0  0
   -1.6356   -1.9336   -1.6003 C   0  0  0  0  0  0  0  0  0  0  0  0
   -1.9565   -2.9044   -1.9890 H   0  0  0  0  0  0  0  0  0  0  0  0
    1.0989   -0.0163    2.0500 C   0  0  0  0  0  3  0  0  0  0  0  0
    0.4691   -0.1703    2.9536 H   0  0  0  0  0  0  0  0  0  0  0  0
    2.3353   -0.7942    2.0254 C   0  0  0  0  0  0  0  0  0  0  0  0
    2.3992   -1.9132    2.8928 C   0  0  0  0  0  0  0  0  0  0  0  0
    1.5523   -2.1259    3.5649 H   0  0  0  0  0  0  0  0  0  0  0  0
    3.5126   -2.7604    2.8842 C   0  0  0  0  0  0  0  0  0  0  0  0
    3.5438   -3.6351    3.5510 H   0  0  0  0  0  0  0  0  0  0  0  0
    4.5896   -2.4859    2.0241 C   0  0  0  0  0  0  0  0  0  0  0  0
    5.4691   -3.1480    2.0165 H   0  0  0  0  0  0  0  0  0  0  0  0
    4.5522   -1.3544    1.1906 C   0  0  0  0  0  0  0  0  0  0  0  0
    5.4069   -1.1196    0.5385 H   0  0  0  0  0  0  0  0  0  0  0  0
    3.4383   -0.5068    1.1853 C   0  0  0  0  0  0  0  0  0  0  0  0
    3.4326    0.4083    0.5672 H   0  0  0  0  0  0  0  0  0  0  0  0
    0.7258   -2.1188   -2.5275 C   0  0  0  0  0  0  0  0  0  0  0  0
    0.2653   -2.9770   -3.0571 H   0  0  0  0  0  0  0  0  0  0  0  0
    1.1287   -1.3977   -3.2676 H   0  0  0  0  0  0  0  0  0  0  0  0
    1.8425   -2.5713   -1.5832 C   0  0  0  0  0  0  0  0  0  0  0  0
    2.6013   -3.0963   -2.2013 H   0  0  0  0  0  0  0  0  0  0  0  0
    2.3453   -1.6616   -1.1906 H   0  0  0  0  0  0  0  0  0  0  0  0
    1.3807   -3.4548   -0.4270 C   0  0  0  0  0  0  0  0  0  0  0  0
    2.2337   -3.7374    0.2208 H   0  0  0  0  0  0  0  0  0  0  0  0
    0.8959   -4.3885   -0.7837 H   0  0  0  0  0  0  0  0  0  0  0  0
    0.6509   -2.9216    0.2171 H   0  0  0  0  0  0  0  0  0  0  0  0
   -3.6693   -1.1801   -0.2305 C   0  0  0  0  0  0  0  0  0  0  0  0
   -3.8581   -1.2149    1.1700 C   0  0  0  0  0  0  0  0  0  0  0  0
   -2.9849   -1.1177    1.8336 H   0  0  0  0  0  0  0  0  0  0  0  0
   -5.1373   -1.3930    1.7119 C   0  0  0  0  0  0  0  0  0  0  0  0
   -5.2695   -1.4191    2.8041 H   0  0  0  0  0  0  0  0  0  0  0  0
   -6.2464   -1.5526    0.8641 C   0  0  0  0  0  0  0  0  0  0  0  0
   -7.2508   -1.6937    1.2907 H   0  0  0  0  0  0  0  0  0  0  0  0
   -6.0675   -1.5379   -0.5276 C   0  0  0  0  0  0  0  0  0  0  0  0
   -6.9320   -1.6649   -1.1965 H   0  0  0  0  0  0  0  0  0  0  0  0
   -4.7884   -1.3513   -1.0728 C   0  0  0  0  0  0  0  0  0  0  0  0
   -4.6460   -1.3219   -2.1635 H   0  0  0  0  0  0  0  0  0  0  0  0
  1  4  1  0  0  0  0
  1 24  1  0  0  0  0
  2 18  1  0  0  0  0
  3 22  1  0  0  0  0
  3 20  1  0  0  0  0
  4  6  1  0  0  0  0
  4  5  1  1  0  0  0
  6  9  1  0  0  0  0
  6  7  1  0  0  0  0
  8  6  1  0  0  0  0
  9 10  1  0  0  0  0
  9 11  1  0  0  0  0
 12 13  1  0  0  0  0
 12  9  1  0  0  0  0
 14 12  1  0  0  0  0
 15 12  1  0  0  0  0
 15 16  1  0  0  0  0
 17 15  1  0  0  0  0
 18 19  1  6  0  0  0
 18 15  1  0  0  0  0
 18  4  1  0  0  0  0
 20  2  1  0  0  0  0
 21  2  1  0  0  0  0
 21 47  1  0  0  0  0
 22 21  2  0  0  0  0
 23 22  1  0  0  0  0
 24 25  1  0  0  0  0
 26 24  1  0  0  0  0
 26 27  1  0  0  0  0
 27 28  1  0  0  0  0
 29 27  2  0  0  0  0
 29 30  1  0  0  0  0
 31 29  1  0  0  0  0
 32 31  1  0  0  0  0
 33 31  2  0  0  0  0
 34 33  1  0  0  0  0
 35 33  1  0  0  0  0
 35 26  2  0  0  0  0
 36 35  1  0  0  0  0
 37  3  1  0  0  0  0
 37 40  1  0  0  0  0
 38 37  1  0  0  0  0
 39 37  1  0  0  0  0
 40 42  1  0  0  0  0
 40 43  1  0  0  0  0
 41 40  1  0  0  0  0
 43 46  1  0  0  0  0
 43 44  1  0  0  0  0
 45 43  1  0  0  0  0
 47 48  1  0  0  0  0
 48 50  2  0  0  0  0
 48 49  1  0  0  0  0
 50 51  1  0  0  0  0
 52 53  1  0  0  0  0
 52 50  1  0  0  0  0
 54 52  2  0  0  0  0
 55 54  1  0  0  0  0
 56 54  1  0  0  0  0
 56 47  2  0  0  0  0
 57 56  1  0  0  0  0
M  END
