1,22
q = 0.0, confidence = 1.0

 46 48  0  0  1  0  0  0  0  0999 V2000
   -0.7088   -1.8375   -1.2620 N   0  0  0  0  0  0  0  0  0  0  0  0
   -1.3703   -2.6411   -1.3216 H   0  0  0  0  0  0  0  0  0  0  0  0
   -0.5802   -1.4618   -2.2091 H   0  0  0  0  0  0  0  0  0  0  0  0
    0.7616    0.2445    0.0094 N   0  0  0  0  0  0  0  0  0  0  0  0
   -0.3861    2.0475   -0.4295 N   0  0  0  0  0  0  0  0  0  0  0  0
    0.5834   -2.1713   -0.6107 C   0  0  2  0  0  0  0  0  0  0  0  0
    1.3945   -2.1360   -1.3730 H   0  0  0  0  0  0  0  0  0  0  0  0
    0.5195   -3.5739    0.0080 C   0  0  0  0  0  0  0  0  0  0  0  0
   -0.3654   -3.6033    0.6821 H   0  0  0  0  0  0  0  0  0  0  0  0
    0.3290   -4.3173   -0.7938 H   0  0  0  0  0  0  0  0  0  0  0  0
    1.7950   -3.9235    0.7819 C   0  0  0  0  0  0  0  0  0  0  0  0
    2.6470   -4.0039    0.0700 H   0  0  0  0  0  0  0  0  0  0  0  0
    1.6855   -4.9227    1.2503 H   0  0  0  0  0  0  0  0  0  0  0  0
    2.1231   -2.8639    1.8409 C   0  0  0  0  0  0  0  0  0  0  0  0
    1.3301   -2.8609    2.6204 H   0  0  0  0  0  0  0  0  0  0  0  0
    3.0727   -3.1127    2.3566 H   0  0  0  0  0  0  0  0  0  0  0  0
    2.2273   -1.4693    1.2094 C   0  0  0  0  0  0  0  0  0  0  0  0
    3.0800   -1.4508    0.5023 H   0  0  0  0  0  0  0  0  0  0  0  0
    2.4366   -0.6963    1.9760 H   0  0  0  0  0  0  0  0  0  0  0  0
    0.9147   -1.1411    0.4965 C   0  0  1  0  0  0  0  0  0  0  0  0
    0.0941   -1.2463    1.2411 H   0  0  0  0  0  0  0  0  0  0  0  0
   -0.5208    0.7199   -0.1594 C   0  0  0  0  0  2  0  0  0  0  0  0
    1.6986    1.2742   -0.1763 C   0  0  0  0  0  0  0  0  0  0  0  0
    0.9532    2.4056   -0.4315 C   0  0  0  0  0  0  0  0  0  0  0  0
    1.2895    3.4192   -0.6692 H   0  0  0  0  0  0  0  0  0  0  0  0
   -1.4959    2.9781   -0.6439 C   0  0  0  0  0  0  0  0  0  0  0  0
   -1.2598    3.5909   -1.5398 H   0  0  0  0  0  0  0  0  0  0  0  0
   -2.3876    2.3561   -0.8536 H   0  0  0  0  0  0  0  0  0  0  0  0
   -1.7679    3.8558    0.5793 C   0  0  0  0  0  0  0  0  0  0  0  0
   -0.8762    4.4828    0.8022 H   0  0  0  0  0  0  0  0  0  0  0  0
   -1.9286    3.1739    1.4397 H   0  0  0  0  0  0  0  0  0  0  0  0
   -3.0078    4.7241    0.3763 C   0  0  0  0  0  0  0  0  0  0  0  0
   -2.9144    5.3823   -0.5133 H   0  0  0  0  0  0  0  0  0  0  0  0
   -3.1903    5.3727    1.2556 H   0  0  0  0  0  0  0  0  0  0  0  0
   -3.9029    4.0840    0.2387 H   0  0  0  0  0  0  0  0  0  0  0  0
    3.1672    1.1494   -0.2107 C   0  0  0  0  0  0  0  0  0  0  0  0
    3.8022    0.2817   -1.1285 C   0  0  0  0  0  0  0  0  0  0  0  0
    3.1876   -0.3241   -1.8122 H   0  0  0  0  0  0  0  0  0  0  0  0
    5.1994    0.2040   -1.1860 C   0  0  0  0  0  0  0  0  0  0  0  0
    5.6798   -0.4751   -1.9066 H   0  0  0  0  0  0  0  0  0  0  0  0
    5.9859    1.0015   -0.3373 C   0  0  0  0  0  0  0  0  0  0  0  0
    7.0835    0.9407   -0.3841 H   0  0  0  0  0  0  0  0  0  0  0  0
    5.3661    1.8797    0.5646 C   0  0  0  0  0  0  0  0  0  0  0  0
    5.9765    2.5086    1.2301 H   0  0  0  0  0  0  0  0  0  0  0  0
    3.9666    1.9530    0.6298 C   0  0  0  0  0  0  0  0  0  0  0  0
    3.4768    2.6275    1.3480 H   0  0  0  0  0  0  0  0  0  0  0  0
  1  6  1  0  0  0  0
  2  1  1  0  0  0  0
  3  1  1  0  0  0  0
  4 20  1  0  0  0  0
  5 22  1  0  0  0  0
  6  7  1  6  0  0  0
  6  8  1  0  0  0  0
  6 20  1  0  0  0  0
  8  9  1  0  0  0  0
  8 11  1  0  0  0  0
 10  8  1  0  0  0  0
 11 13  1  0  0  0  0
 11 14  1  0  0  0  0
 12 11  1  0  0  0  0
 14 16  1  0  0  0  0
 14 15  1  0  0  0  0
 17 14  1  0  0  0  0
 17 19  1  0  0  0  0
 18 17  1  0  0  0  0
 20 17  1  0  0  0  0
 20 21  1  1  0  0  0
 22  4  1  0  0  0  0
 23  4  1  0  0  0  0
 24  5  1  0  0  0  0
 24 23  2  0  0  0  0
 25 24  1  0  0  0  0
 26  5  1  0  0  0  0
 26 29  1  0  0  0  0
 27 26  1  0  0  0  0
 28 26  1  0  0  0  0
 29 30  1  0  0  0  0
 29 31  1  0  0  0  0
 32 29  1  0  0  0  0
 32 34  1  0  0  0  0
 33 32  1  0  0  0  0
 35 32  1  0  0  0  0
 36 23  1  0  0  0  0
 36 45  1  0  0  0  0
 37 36  2  0  0  0  0
 38 37  1  0  0  0  0
 39 37  1  0  0  0  0
 39 41  2  0  0  0  0
 40 39  1  0  0  0  0
 41 43  1  0  0  0  0
 42 41  1  0  0  0  0
 43 45  2  0  0  0  0
 43 44  1  0  0  0  0
 45 46  1  0  0  0  0
M  END
