4,5
q = -1.0, confidence = 0.006

 24 24  0  0  1  0  0  0  0  0999 V2000
   -2.0873   -0.6041   -2.9027 O   0  0  0  0  0  0  0  0  0  0  0  0
    2.3219   -1.1088    0.9272 O   0  0  0  0  0  0  0  0  0  0  0  0
    4.3612   -0.1364    0.6852 O   0  0  0  0  0  0  0  0  0  0  0  0
    0.3925    0.9373   -0.3493 N   0  0  0  0  0  2  0  0  0  0  0  0
   -1.4864   -0.0298   -2.0233 C   0  0  0  0  0  3  0  0  0  0  0  0
   -1.0524    1.4481   -2.2117 C   0  0  0  0  0  0  0  0  0  0  0  0
   -0.8940    1.6616   -3.2888 H   0  0  0  0  0  0  0  0  0  0  0  0
   -1.9264    2.0557   -1.8836 H   0  0  0  0  0  0  0  0  0  0  0  0
    0.1403    1.7892   -1.3786 C   0  0  2  0  0  3  0  0  0  0  0  0
    0.9644    2.8955   -1.6360 C   0  0  0  0  0  0  0  0  0  0  0  0
    0.7233    3.5623   -2.4761 H   0  0  0  0  0  0  0  0  0  0  0  0
    2.0794    3.1202   -0.8234 C   0  0  0  0  0  0  0  0  0  0  0  0
    2.7449    3.9766   -1.0074 H   0  0  0  0  0  0  0  0  0  0  0  0
    2.3495    2.2176    0.2117 C   0  0  0  0  0  0  0  0  0  0  0  0
    3.2468    2.3119    0.8374 H   0  0  0  0  0  0  0  0  0  0  0  0
    1.4903    1.1292    0.4309 C   0  0  0  0  0  0  0  0  0  0  0  0
    1.8172    0.1134    1.5013 C   0  0  0  0  0  0  0  0  0  0  0  0
    2.5752    0.5382    2.1868 H   0  0  0  0  0  0  0  0  0  0  0  0
    0.9079   -0.1822    2.0543 H   0  0  0  0  0  0  0  0  0  0  0  0
    3.6323   -1.1002    0.5438 C   0  0  0  0  0  0  0  0  0  0  0  0
    4.0122   -2.4313   -0.0503 C   0  0  0  0  0  0  0  0  0  0  0  0
    5.0483   -2.3885   -0.4268 H   0  0  0  0  0  0  0  0  0  0  0  0
    3.3058   -2.6969   -0.8611 H   0  0  0  0  0  0  0  0  0  0  0  0
    3.9229   -3.2231    0.7202 H   0  0  0  0  0  0  0  0  0  0  0  0
  1  5  2  0  0  0  0
  2 17  1  0  0  0  0
  4 16  1  0  0  0  0
  6  5  1  0  0  0  0
  6  8  1  0  0  0  0
  7  6  1  0  0  0  0
  9  6  1  6  0  0  0
  9  4  1  0  0  0  0
 10  9  1  0  0  0  0
 10 12  2  0  0  0  0
 11 10  1  0  0  0  0
 12 14  1  0  0  0  0
 13 12  1  0  0  0  0
 14 16  2  0  0  0  0
 14 15  1  0  0  0  0
 16 17  1  0  0  0  0
 17 19  1  0  0  0  0
 17 18  1  0  0  0  0
 20  3  2  0  0  0  0
 20  2  1  0  0  0  0
 21 20  1  0  0  0  0
 21 24  1  0  0  0  0
 22 21  1  0  0  0  0
 23 21  1  0  0  0  0
M  END
