1,2
q = -1.0, confidence = 0.0

 27 28  0  0  1  0  0  0  0  0999 V2000
    0.9406    0.3611    1.6491 N   0  0  0  0  0  2  0  0  0  0  0  0
    2.6180   -0.7188   -0.1241 C   0  0  0  0  0  3  0  0  0  0  0  0
    3.5356   -1.2891   -1.0369 C   0  0  0  0  0  0  0  0  0  0  0  0
    3.1495   -1.8301   -1.9140 H   0  0  0  0  0  0  0  0  0  0  0  0
    4.9200   -1.1788   -0.8490 C   0  0  0  0  0  0  0  0  0  0  0  0
    5.6075   -1.6306   -1.5822 H   0  0  0  0  0  0  0  0  0  0  0  0
    5.4445   -0.4980    0.2686 C   0  0  0  0  0  0  0  0  0  0  0  0
    6.5324   -0.4101    0.4070 H   0  0  0  0  0  0  0  0  0  0  0  0
    4.5680    0.0497    1.2085 C   0  0  0  0  0  0  0  0  0  0  0  0
    4.9738    0.5642    2.0931 H   0  0  0  0  0  0  0  0  0  0  0  0
    3.1680   -0.0588    1.0267 C   0  0  0  0  0  0  0  0  0  0  0  0
    2.2056    0.4710    1.9909 C   0  0  2  0  0  3  0  0  0  0  0  0
   -0.1391    0.8172    2.4363 C   0  0  0  0  0  0  0  0  0  0  0  0
   -1.0628   -0.1267    2.9389 C   0  0  0  0  0  0  0  0  0  0  0  0
   -0.8364   -1.1929    2.7799 H   0  0  0  0  0  0  0  0  0  0  0  0
   -2.2098    0.3098    3.6137 C   0  0  0  0  0  0  0  0  0  0  0  0
   -2.9202   -0.4332    4.0090 H   0  0  0  0  0  0  0  0  0  0  0  0
   -2.4594    1.6823    3.7932 C   0  0  0  0  0  0  0  0  0  0  0  0
   -3.3674    2.0183    4.3159 H   0  0  0  0  0  0  0  0  0  0  0  0
   -1.5338    2.6205    3.3101 C   0  0  0  0  0  0  0  0  0  0  0  0
   -1.7116    3.6974    3.4542 H   0  0  0  0  0  0  0  0  0  0  0  0
   -0.3767    2.1953    2.6384 C   0  0  0  0  0  0  0  0  0  0  0  0
    0.3423    2.9289    2.2467 H   0  0  0  0  0  0  0  0  0  0  0  0
    2.6564    1.0638    3.2970 C   0  0  0  0  0  0  0  0  0  0  0  0
    3.3516    0.3681    3.8075 H   0  0  0  0  0  0  0  0  0  0  0  0
    1.8058    1.2751    3.9691 H   0  0  0  0  0  0  0  0  0  0  0  0
    3.2128    2.0094    3.1287 H   0  0  0  0  0  0  0  0  0  0  0  0
  1 13  1  0  0  0  0
  2 11  1  0  0  0  0
  3  5  1  0  0  0  0
  3  2  2  0  0  0  0
  4  3  1  0  0  0  0
  5  7  2  0  0  0  0
  6  5  1  0  0  0  0
  7  8  1  0  0  0  0
  7  9  1  0  0  0  0
  9 10  1  0  0  0  0
 11  9  2  0  0  0  0
 11 12  1  0  0  0  0
 12  1  1  1  0  0  0
 12 24  1  0  0  0  0
 13 22  2  0  0  0  0
 13 14  1  0  0  0  0
 14 16  2  0  0  0  0
 15 14  1  0  0  0  0
 16 18  1  0  0  0  0
 16 17  1  0  0  0  0
 18 19  1  0  0  0  0
 20 21  1  0  0  0  0
 20 18  2  0  0  0  0
 22 20  1  0  0  0  0
 23 22  1  0  0  0  0
 24 25  1  0  0  0  0
 24 26  1  0  0  0  0
 27 24  1  0  0  0  0
M  END
