2,3
q = -1.0, confidence = 0.0

 17 18  0  0  0  0  0  0  0  0999 V2000
   -1.5757   -2.9210    0.4325 S   0  0  0  0  0  0  0  0  0  0  0  0
   -1.6950    1.4028   -0.1834 N   0  0  0  0  0  2  0  0  0  0  0  0
   -1.4886   -1.2179    0.1449 C   0  0  0  0  0  3  0  0  0  0  0  0
   -2.7894   -0.6745    0.1775 C   0  0  0  0  0  0  0  0  0  0  0  0
   -3.8242   -1.6423    0.4136 C   0  0  0  0  0  0  0  0  0  0  0  0
   -3.3164   -2.9127    0.5723 C   0  0  0  0  0  0  0  0  0  0  0  0
   -2.8995    0.7521   -0.0476 C   0  0  0  0  0  0  0  0  0  0  0  0
   -4.1118    1.4685   -0.1676 C   0  0  0  0  0  0  0  0  0  0  0  0
   -4.0889    2.8312   -0.4694 C   0  0  0  0  0  0  0  0  0  0  0  0
   -2.8515    3.4680   -0.6642 C   0  0  0  0  0  0  0  0  0  0  0  0
   -1.6872    2.7068   -0.5110 C   0  0  0  0  0  3  0  0  0  0  0  0
   -4.8977   -1.4132    0.4707 H   0  0  0  0  0  0  0  0  0  0  0  0
   -3.8635   -3.8438    0.7652 H   0  0  0  0  0  0  0  0  0  0  0  0
   -5.0637    0.9352   -0.0386 H   0  0  0  0  0  0  0  0  0  0  0  0
   -5.0299    3.3932   -0.5687 H   0  0  0  0  0  0  0  0  0  0  0  0
   -2.7820    4.5318   -0.9297 H   0  0  0  0  0  0  0  0  0  0  0  0
   -0.6985    3.1624   -0.6689 H   0  0  0  0  0  0  0  0  0  0  0  0
  1  6  1  0  0  0  0
  2  7  1  0  0  0  0
  3  4  2  0  0  0  0
  3  1  1  0  0  0  0
  4  5  1  0  0  0  0
  5 12  1  0  0  0  0
  5  6  2  0  0  0  0
  6 13  1  0  0  0  0
  7  4  1  0  0  0  0
  8  7  2  0  0  0  0
  8 14  1  0  0  0  0
  9  8  1  0  0  0  0
 10 11  1  0  0  0  0
 10  9  2  0  0  0  0
 11  2  1  0  0  0  0
 15  9  1  0  0  0  0
 16 10  1  0  0  0  0
 17 11  1  0  0  0  0
M  END
