2,3
q = -1.0, confidence = 0.0

 17 18  0  0  0  0  0  0  0  0999 V2000
    1.5758   -2.9210   -0.4325 S   0  0  0  0  0  0  0  0  0  0  0  0
    1.6950    1.4028    0.1834 N   0  0  0  0  0  2  0  0  0  0  0  0
    1.4886   -1.2179   -0.1449 C   0  0  0  0  0  2  0  0  0  0  0  0
    2.7895   -0.6744   -0.1774 C   0  0  0  0  0  0  0  0  0  0  0  0
    3.8242   -1.6422   -0.4135 C   0  0  0  0  0  0  0  0  0  0  0  0
    3.3165   -2.9127   -0.5722 C   0  0  0  0  0  0  0  0  0  0  0  0
    2.8995    0.7521    0.0476 C   0  0  0  0  0  0  0  0  0  0  0  0
    4.1118    1.4686    0.1677 C   0  0  0  0  0  0  0  0  0  0  0  0
    4.0888    2.8313    0.4695 C   0  0  0  0  0  0  0  0  0  0  0  0
    2.8514    3.4680    0.6643 C   0  0  0  0  0  0  0  0  0  0  0  0
    1.6871    2.7068    0.5110 C   0  0  0  0  0  0  0  0  0  0  0  0
    4.8977   -1.4131   -0.4705 H   0  0  0  0  0  0  0  0  0  0  0  0
    3.8636   -3.8437   -0.7651 H   0  0  0  0  0  0  0  0  0  0  0  0
    5.0637    0.9353    0.0387 H   0  0  0  0  0  0  0  0  0  0  0  0
    5.0298    3.3933    0.5688 H   0  0  0  0  0  0  0  0  0  0  0  0
    2.7818    4.5319    0.9297 H   0  0  0  0  0  0  0  0  0  0  0  0
    0.6984    3.1624    0.6689 H   0  0  0  0  0  0  0  0  0  0  0  0
  1  3  1  0  0  0  0
  2 11  1  0  0  0  0
  4  3  1  0  0  0  0
  4  7  2  0  0  0  0
  5  4  1  0  0  0  0
  6  1  1  0  0  0  0
  6  5  2  0  0  0  0
  7  8  1  0  0  0  0
  7  2  1  0  0  0  0
  8  9  2  0  0  0  0
  9 15  1  0  0  0  0
  9 10  1  0  0  0  0
 10 16  1  0  0  0  0
 11 10  2  0  0  0  0
 11 17  1  0  0  0  0
 12  5  1  0  0  0  0
 13  6  1  0  0  0  0
 14  8  1  0  0  0  0
M  END
