1,28
q = 0.0, confidence = 0.994

 47 50  0  0  0  0  0  0  0  0999 V2000
    1.6279    2.4939   -1.0460 N   0  0  0  0  0  2  0  0  0  0  0  0
    2.6871    2.4743   -1.8833 C   0  0  0  0  0  3  0  0  0  0  0  0
    3.0857    1.4831   -2.1431 H   0  0  0  0  0  0  0  0  0  0  0  0
    3.2398    3.6573   -2.3855 C   0  0  0  0  0  0  0  0  0  0  0  0
    4.1013    3.6059   -3.0657 H   0  0  0  0  0  0  0  0  0  0  0  0
    2.6820    4.8826   -1.9987 C   0  0  0  0  0  0  0  0  0  0  0  0
    3.1007    5.8304   -2.3685 H   0  0  0  0  0  0  0  0  0  0  0  0
    1.5771    4.8866   -1.1338 C   0  0  0  0  0  0  0  0  0  0  0  0
    1.1158    5.8311   -0.8113 H   0  0  0  0  0  0  0  0  0  0  0  0
    1.0610    3.6689   -0.6715 C   0  0  0  0  0  0  0  0  0  0  0  0
   -0.1471    3.5764    0.2407 C   0  0  0  0  0  0  0  0  0  0  0  0
    0.1314    3.0663    1.1874 H   0  0  0  0  0  0  0  0  0  0  0  0
   -0.4939    4.5889    0.5115 H   0  0  0  0  0  0  0  0  0  0  0  0
   -1.2578    2.8548   -0.3985 N   0  0  0  0  0  0  0  0  0  0  0  0
   -2.4310    3.6244   -0.8633 C   0  0  0  0  0  0  0  0  0  0  0  0
   -2.6989    3.2453   -1.8728 H   0  0  0  0  0  0  0  0  0  0  0  0
   -2.1282    4.6822   -0.9707 H   0  0  0  0  0  0  0  0  0  0  0  0
   -3.6407    3.5026    0.0431 C   0  0  0  0  0  0  0  0  0  0  0  0
   -4.2359    2.2897    0.0422 N   0  0  0  0  0  0  0  0  0  0  0  0
   -5.3094    2.0848    0.8204 C   0  0  0  0  0  0  0  0  0  0  0  0
   -5.7562    1.0771    0.7882 H   0  0  0  0  0  0  0  0  0  0  0  0
   -5.8531    3.0894    1.6360 C   0  0  0  0  0  0  0  0  0  0  0  0
   -6.7372    2.8813    2.2552 H   0  0  0  0  0  0  0  0  0  0  0  0
   -5.2441    4.3512    1.6367 C   0  0  0  0  0  0  0  0  0  0  0  0
   -5.6428    5.1652    2.2605 H   0  0  0  0  0  0  0  0  0  0  0  0
   -4.1163    4.5641    0.8282 C   0  0  0  0  0  0  0  0  0  0  0  0
   -3.6189    5.5452    0.8021 H   0  0  0  0  0  0  0  0  0  0  0  0
   -1.1192    1.5311   -0.6379 C   0  0  0  0  0  2  0  0  0  0  0  0
   -2.1779    0.8467   -1.0683 N   0  0  0  0  0  0  0  0  0  0  0  0
   -3.1372    1.2499   -0.8202 H   0  0  0  0  0  0  0  0  0  0  0  0
   -2.1185   -0.4963   -1.5287 C   0  0  0  0  0  0  0  0  0  0  0  0
   -1.1432   -0.8707   -2.4961 C   0  0  0  0  0  0  0  0  0  0  0  0
   -0.4955   -0.0983   -2.9368 H   0  0  0  0  0  0  0  0  0  0  0  0
   -1.0287   -2.1963   -2.8790 C   0  0  0  0  0  0  0  0  0  0  0  0
   -0.2680   -2.4920   -3.6165 H   0  0  0  0  0  0  0  0  0  0  0  0
   -1.8703   -3.1992   -2.3166 C   0  0  0  0  0  0  0  0  0  0  0  0
   -1.7269   -4.5793   -2.6411 C   0  0  0  0  0  0  0  0  0  0  0  0
   -0.9507   -4.8762   -3.3627 H   0  0  0  0  0  0  0  0  0  0  0  0
   -2.5362   -5.5334   -2.0449 C   0  0  0  0  0  0  0  0  0  0  0  0
   -2.4076   -6.5974   -2.2926 H   0  0  0  0  0  0  0  0  0  0  0  0
   -3.5309   -5.1465   -1.1054 C   0  0  0  0  0  0  0  0  0  0  0  0
   -4.1602   -5.9154   -0.6331 H   0  0  0  0  0  0  0  0  0  0  0  0
   -3.7092   -3.8115   -0.7792 C   0  0  0  0  0  0  0  0  0  0  0  0
   -4.4740   -3.5138   -0.0455 H   0  0  0  0  0  0  0  0  0  0  0  0
   -2.8902   -2.8049   -1.3712 C   0  0  0  0  0  0  0  0  0  0  0  0
   -3.0022   -1.4349   -1.0085 C   0  0  0  0  0  0  0  0  0  0  0  0
   -3.7479   -1.1349   -0.2564 H   0  0  0  0  0  0  0  0  0  0  0  0
  1 10  1  0  0  0  0
  2  1  1  0  0  0  0
  3  2  1  0  0  0  0
  4  6  2  0  0  0  0
  4  2  1  0  0  0  0
  5  4  1  0  0  0  0
  6  8  1  0  0  0  0
  7  6  1  0  0  0  0
  8  9  1  0  0  0  0
  8 10  2  0  0  0  0
 10 11  1  0  0  0  0
 11 13  1  0  0  0  0
 11 12  1  0  0  0  0
 14 11  1  0  0  0  0
 15 14  1  0  0  0  0
 15 18  1  0  0  0  0
 16 15  1  0  0  0  0
 17 15  1  0  0  0  0
 18 26  1  0  0  0  0
 19 18  2  0  0  0  0
 19 20  1  0  0  0  0
 20 22  2  0  0  0  0
 21 20  1  0  0  0  0
 22 24  1  0  0  0  0
 22 23  1  0  0  0  0
 24 25  1  0  0  0  0
 26 24  2  0  0  0  0
 27 26  1  0  0  0  0
 28 14  1  0  0  0  0
 29 30  1  0  0  0  0
 29 28  1  0  0  0  0
 31 29  1  0  0  0  0
 31 46  1  0  0  0  0
 32 31  2  0  0  0  0
 33 32  1  0  0  0  0
 34 32  1  0  0  0  0
 34 36  2  0  0  0  0
 35 34  1  0  0  0  0
 36 45  1  0  0  0  0
 37 36  1  0  0  0  0
 37 39  2  0  0  0  0
 38 37  1  0  0  0  0
 39 41  1  0  0  0  0
 40 39  1  0  0  0  0
 41 43  2  0  0  0  0
 41 42  1  0  0  0  0
 43 44  1  0  0  0  0
 45 46  2  0  0  0  0
 45 43  1  0  0  0  0
 46 47  1  0  0  0  0
M  END
