4,30
q = 0.0, confidence = 0.998

 47 49  0  0  0  0  0  0  0  0999 V2000
    2.3770   -0.2534   -1.7625 N   0  0  0  0  0  0  0  0  0  0  0  0
    2.1887    1.4422   -0.1948 N   0  0  0  0  0  0  0  0  0  0  0  0
    3.1334    1.7570   -0.4505 H   0  0  0  0  0  0  0  0  0  0  0  0
    0.9440   -2.3277   -0.1409 N   0  0  0  0  0  2  0  0  0  0  0  0
    0.8367   -3.1868    0.8958 C   0  0  0  0  0  3  0  0  0  0  0  0
    0.1550   -2.8932    1.7066 H   0  0  0  0  0  0  0  0  0  0  0  0
    1.5571   -4.3844    0.9217 C   0  0  0  0  0  0  0  0  0  0  0  0
    1.4462   -5.0641    1.7780 H   0  0  0  0  0  0  0  0  0  0  0  0
    2.3953   -4.6938   -0.1587 C   0  0  0  0  0  0  0  0  0  0  0  0
    2.9648   -5.6350   -0.1732 H   0  0  0  0  0  0  0  0  0  0  0  0
    2.5063   -3.7841   -1.2185 C   0  0  0  0  0  0  0  0  0  0  0  0
    3.1656   -3.9885   -2.0738 H   0  0  0  0  0  0  0  0  0  0  0  0
    1.7735   -2.5916   -1.1801 C   0  0  0  0  0  0  0  0  0  0  0  0
    1.8536   -1.5347   -2.2645 C   0  0  0  0  0  0  0  0  0  0  0  0
    2.5086   -1.8834   -3.0813 H   0  0  0  0  0  0  0  0  0  0  0  0
    0.8461   -1.3662   -2.7022 H   0  0  0  0  0  0  0  0  0  0  0  0
    3.7654    0.1023   -2.0530 C   0  0  0  0  0  0  0  0  0  0  0  0
    3.8248    1.1754   -2.3391 H   0  0  0  0  0  0  0  0  0  0  0  0
    4.0787   -0.4577   -2.9567 H   0  0  0  0  0  0  0  0  0  0  0  0
    4.7145   -0.2049   -0.8949 C   0  0  0  0  0  0  0  0  0  0  0  0
    5.9397    0.4745   -0.7696 C   0  0  0  0  0  0  0  0  0  0  0  0
    6.2309    1.2511   -1.4939 H   0  0  0  0  0  0  0  0  0  0  0  0
    6.7836    0.1360    0.2984 C   0  0  0  0  0  0  0  0  0  0  0  0
    7.7497    0.6464    0.4283 H   0  0  0  0  0  0  0  0  0  0  0  0
    6.3710   -0.8573    1.1982 C   0  0  0  0  0  0  0  0  0  0  0  0
    6.9989   -1.1502    2.0521 H   0  0  0  0  0  0  0  0  0  0  0  0
    5.1272   -1.4725    0.9856 C   0  0  0  0  0  0  0  0  0  0  0  0
    4.7664   -2.2580    1.6722 H   0  0  0  0  0  0  0  0  0  0  0  0
    4.3146   -1.1561   -0.0357 N   0  0  0  0  0  0  0  0  0  0  0  0
    1.6743    0.3825   -0.8038 C   0  0  0  0  0  2  0  0  0  0  0  0
    1.6012    2.1800    0.9330 C   0  0  0  0  0  0  0  0  0  0  0  0
    0.6823    1.6328    1.2190 H   0  0  0  0  0  0  0  0  0  0  0  0
    1.2231    3.6116    0.5286 C   0  0  0  0  0  0  0  0  0  0  0  0
    0.5141    3.5789   -0.3240 H   0  0  0  0  0  0  0  0  0  0  0  0
    2.1375    4.1364    0.1692 H   0  0  0  0  0  0  0  0  0  0  0  0
    0.6241    4.3735    1.7194 C   0  0  0  0  0  0  0  0  0  0  0  0
   -0.3479    3.9109    1.9978 H   0  0  0  0  0  0  0  0  0  0  0  0
    0.3926    5.4145    1.4161 H   0  0  0  0  0  0  0  0  0  0  0  0
    1.5655    4.3560    2.9301 C   0  0  0  0  0  0  0  0  0  0  0  0
    2.4866    4.9319    2.6882 H   0  0  0  0  0  0  0  0  0  0  0  0
    1.0933    4.8719    3.7903 H   0  0  0  0  0  0  0  0  0  0  0  0
    1.9507    2.9230    3.3189 C   0  0  0  0  0  0  0  0  0  0  0  0
    1.0455    2.3799    3.6705 H   0  0  0  0  0  0  0  0  0  0  0  0
    2.6635    2.9237    4.1682 H   0  0  0  0  0  0  0  0  0  0  0  0
    2.5589    2.1601    2.1337 C   0  0  0  0  0  0  0  0  0  0  0  0
    3.5224    2.6353    1.8366 H   0  0  0  0  0  0  0  0  0  0  0  0
    2.7889    1.1089    2.4069 H   0  0  0  0  0  0  0  0  0  0  0  0
  1 30  1  0  0  0  0
  2 31  1  0  0  0  0
  3  2  1  0  0  0  0
  4  5  1  0  0  0  0
  5  7  1  0  0  0  0
  5  6  1  0  0  0  0
  7  8  1  0  0  0  0
  9  7  2  0  0  0  0
 10  9  1  0  0  0  0
 11 13  2  0  0  0  0
 11  9  1  0  0  0  0
 12 11  1  0  0  0  0
 13  4  1  0  0  0  0
 14  1  1  0  0  0  0
 14 13  1  0  0  0  0
 15 14  1  0  0  0  0
 16 14  1  0  0  0  0
 17  1  1  0  0  0  0
 17 20  1  0  0  0  0
 18 17  1  0  0  0  0
 19 17  1  0  0  0  0
 20 21  2  0  0  0  0
 20 29  1  0  0  0  0
 21 23  1  0  0  0  0
 22 21  1  0  0  0  0
 23 24  1  0  0  0  0
 23 25  2  0  0  0  0
 25 26  1  0  0  0  0
 27 25  1  0  0  0  0
 27 28  1  0  0  0  0
 29 27  2  0  0  0  0
 30  2  1  0  0  0  0
 31 32  1  0  0  0  0
 31 45  1  0  0  0  0
 33 31  1  0  0  0  0
 33 36  1  0  0  0  0
 34 33  1  0  0  0  0
 35 33  1  0  0  0  0
 36 37  1  0  0  0  0
 36 39  1  0  0  0  0
 38 36  1  0  0  0  0
 39 42  1  0  0  0  0
 39 41  1  0  0  0  0
 40 39  1  0  0  0  0
 42 43  1  0  0  0  0
 42 44  1  0  0  0  0
 45 47  1  0  0  0  0
 45 42  1  0  0  0  0
 46 45  1  0  0  0  0
M  END
