2,7
q = -1.0, confidence = 0.006

 28 30  0  0  1  0  0  0  0  0999 V2000
   -2.0279   -0.2926   -0.0433 N   0  0  0  0  0  0  0  0  0  0  0  0
   -0.8596    0.3686    0.0088 N   0  0  0  0  0  2  0  0  0  0  0  0
   -3.0948    0.5697    0.0584 C   0  0  2  0  0  3  0  0  0  0  0  0
   -2.5444    1.8519    0.2049 C   0  0  0  0  0  0  0  0  0  0  0  0
   -1.1362    1.6858    0.1642 C   0  0  0  0  0  0  0  0  0  0  0  0
    0.0534    2.5193    0.1941 C   0  0  0  0  0  0  0  0  0  0  0  0
    1.2661    1.7828    0.0000 C   0  0  0  0  0  3  0  0  0  0  0  0
    2.4572    2.5271   -0.0988 C   0  0  0  0  0  0  0  0  0  0  0  0
    2.4583    3.9246    0.0502 C   0  0  0  0  0  0  0  0  0  0  0  0
    1.2606    4.6247    0.2821 C   0  0  0  0  0  0  0  0  0  0  0  0
    0.0522    3.9195    0.3412 C   0  0  0  0  0  0  0  0  0  0  0  0
   -4.4812    0.1035    0.0288 C   0  0  0  0  0  0  0  0  0  0  0  0
   -4.8127   -1.2377    0.3352 C   0  0  0  0  0  0  0  0  0  0  0  0
   -6.1430   -1.6736    0.2925 C   0  0  0  0  0  0  0  0  0  0  0  0
   -7.1704   -0.7780   -0.0442 C   0  0  0  0  0  0  0  0  0  0  0  0
   -6.8545    0.5585   -0.3410 C   0  0  0  0  0  0  0  0  0  0  0  0
   -5.5252    0.9955   -0.3098 C   0  0  0  0  0  0  0  0  0  0  0  0
   -2.0309   -1.2679   -0.3436 H   0  0  0  0  0  0  0  0  0  0  0  0
   -3.0987    2.7836    0.3495 H   0  0  0  0  0  0  0  0  0  0  0  0
    3.4053    2.0124   -0.3178 H   0  0  0  0  0  0  0  0  0  0  0  0
    3.4082    4.4773   -0.0261 H   0  0  0  0  0  0  0  0  0  0  0  0
    1.2697    5.7189    0.3973 H   0  0  0  0  0  0  0  0  0  0  0  0
   -0.8986    4.4557    0.4910 H   0  0  0  0  0  0  0  0  0  0  0  0
   -4.0244   -1.9436    0.6399 H   0  0  0  0  0  0  0  0  0  0  0  0
   -6.3807   -2.7201    0.5363 H   0  0  0  0  0  0  0  0  0  0  0  0
   -8.2156   -1.1202   -0.0740 H   0  0  0  0  0  0  0  0  0  0  0  0
   -7.6528    1.2665   -0.6101 H   0  0  0  0  0  0  0  0  0  0  0  0
   -5.2822    2.0360   -0.5706 H   0  0  0  0  0  0  0  0  0  0  0  0
  1  2  1  0  0  0  0
  1  3  1  0  0  0  0
  2  5  1  0  0  0  0
  3 12  1  1  0  0  0
  3  4  1  0  0  0  0
  4 19  1  0  0  0  0
  5  6  1  0  0  0  0
  5  4  2  0  0  0  0
  6 11  1  0  0  0  0
  7  6  2  0  0  0  0
  8  7  1  0  0  0  0
  8  9  2  0  0  0  0
  9 10  1  0  0  0  0
 10 11  2  0  0  0  0
 10 22  1  0  0  0  0
 11 23  1  0  0  0  0
 12 13  1  0  0  0  0
 13 24  1  0  0  0  0
 14 13  2  0  0  0  0
 14 25  1  0  0  0  0
 15 14  1  0  0  0  0
 16 17  1  0  0  0  0
 16 15  2  0  0  0  0
 17 12  2  0  0  0  0
 18  1  1  0  0  0  0
 20  8  1  0  0  0  0
 21  9  1  0  0  0  0
 26 15  1  0  0  0  0
 27 16  1  0  0  0  0
 28 17  1  0  0  0  0
M  END
