1,4
q = 0.0, confidence = 0.974

 38 39  0  0  0  0  0  0  0  0999 V2000
   -1.3965   -0.4298    0.0679 N   0  0  0  0  0  2  0  0  0  0  0  0
   -0.8702   -1.4577    0.7953 C   0  0  0  0  0  0  0  0  0  0  0  0
    0.5082   -1.6830    0.7937 C   0  0  0  0  0  0  0  0  0  0  0  0
    1.3096   -0.9659   -0.2081 C   0  0  0  0  0  3  0  0  0  0  0  0
    1.0957   -2.6771    1.7602 C   0  0  0  0  0  0  0  0  0  0  0  0
    2.7752   -1.0764   -0.3065 C   0  0  0  0  0  0  0  0  0  0  0  0
    3.6400   -1.0119    0.8187 C   0  0  0  0  0  0  0  0  0  0  0  0
    5.0324   -1.0781    0.6786 C   0  0  0  0  0  0  0  0  0  0  0  0
    5.6204   -1.2101   -0.5903 C   0  0  0  0  0  0  0  0  0  0  0  0
    4.7869   -1.2933   -1.7174 C   0  0  0  0  0  0  0  0  0  0  0  0
    3.3948   -1.2376   -1.5746 C   0  0  0  0  0  0  0  0  0  0  0  0
   -2.8129   -0.4670   -0.2797 C   0  0  0  0  0  0  0  0  0  0  0  0
   -3.7283   -0.1598    0.9239 C   0  0  0  0  0  0  0  0  0  0  0  0
   -5.2083   -0.1513    0.5204 C   0  0  0  0  0  0  0  0  0  0  0  0
   -5.6153   -1.4619   -0.1651 C   0  0  0  0  0  0  0  0  0  0  0  0
   -4.7098   -1.7642   -1.3661 C   0  0  0  0  0  0  0  0  0  0  0  0
   -3.2310   -1.7848   -0.9605 C   0  0  0  0  0  0  0  0  0  0  0  0
   -1.5282   -2.0966    1.4188 H   0  0  0  0  0  0  0  0  0  0  0  0
    0.8120   -1.0704   -1.1911 H   0  0  0  0  0  0  0  0  0  0  0  0
    0.3006   -3.3311    2.1721 H   0  0  0  0  0  0  0  0  0  0  0  0
    1.8621   -3.3082    1.2667 H   0  0  0  0  0  0  0  0  0  0  0  0
    1.6037   -2.2081    2.6319 H   0  0  0  0  0  0  0  0  0  0  0  0
    3.2143   -0.9011    1.8252 H   0  0  0  0  0  0  0  0  0  0  0  0
    5.6683   -1.0234    1.5762 H   0  0  0  0  0  0  0  0  0  0  0  0
    6.7144   -1.2578   -0.6978 H   0  0  0  0  0  0  0  0  0  0  0  0
    5.2253   -1.4180   -2.7200 H   0  0  0  0  0  0  0  0  0  0  0  0
    2.7578   -1.3466   -2.4672 H   0  0  0  0  0  0  0  0  0  0  0  0
   -2.9824    0.3451   -1.0180 H   0  0  0  0  0  0  0  0  0  0  0  0
   -3.4316    0.8168    1.3598 H   0  0  0  0  0  0  0  0  0  0  0  0
   -3.5611   -0.9266    1.7133 H   0  0  0  0  0  0  0  0  0  0  0  0
   -5.3884    0.6955   -0.1803 H   0  0  0  0  0  0  0  0  0  0  0  0
   -5.8469    0.0411    1.4079 H   0  0  0  0  0  0  0  0  0  0  0  0
   -5.5387   -2.2964    0.5681 H   0  0  0  0  0  0  0  0  0  0  0  0
   -6.6789   -1.4205   -0.4806 H   0  0  0  0  0  0  0  0  0  0  0  0
   -4.9919   -2.7303   -1.8347 H   0  0  0  0  0  0  0  0  0  0  0  0
   -4.8652   -0.9841   -2.1455 H   0  0  0  0  0  0  0  0  0  0  0  0
   -2.5765   -1.9648   -1.8395 H   0  0  0  0  0  0  0  0  0  0  0  0
   -3.0514   -2.6302   -0.2610 H   0  0  0  0  0  0  0  0  0  0  0  0
  1  2  1  0  0  0  0
  2 18  1  0  0  0  0
  3  2  2  0  0  0  0
  3  5  1  0  0  0  0
  4  3  1  0  0  0  0
  5 20  1  0  0  0  0
  5 22  1  0  0  0  0
  6  4  1  0  0  0  0
  6  7  1  0  0  0  0
  7 23  1  0  0  0  0
  8  7  2  0  0  0  0
  8 24  1  0  0  0  0
  9  8  1  0  0  0  0
 10 11  1  0  0  0  0
 10  9  2  0  0  0  0
 11  6  2  0  0  0  0
 12  1  1  0  0  0  0
 12 13  1  0  0  0  0
 13 29  1  0  0  0  0
 13 30  1  0  0  0  0
 14 13  1  0  0  0  0
 14 32  1  0  0  0  0
 15 14  1  0  0  0  0
 15 33  1  0  0  0  0
 16 17  1  0  0  0  0
 16 15  1  0  0  0  0
 17 12  1  0  0  0  0
 17 38  1  0  0  0  0
 19  4  1  0  0  0  0
 21  5  1  0  0  0  0
 25  9  1  0  0  0  0
 26 10  1  0  0  0  0
 27 11  1  0  0  0  0
 28 12  1  0  0  0  0
 31 14  1  0  0  0  0
 34 15  1  0  0  0  0
 35 16  1  0  0  0  0
 36 16  1  0  0  0  0
 37 17  1  0  0  0  0
M  END
