1,4
q = 0.0, confidence = 0.948

 35 36  0  0  0  0  0  0  0  0999 V2000
   -1.4855    0.2088    0.4321 N   0  0  0  0  0  2  0  0  0  0  0  0
   -0.7951    0.8433    1.4555 C   0  0  0  0  0  0  0  0  0  0  0  0
    0.5746    1.1174    1.3446 C   0  0  0  0  0  0  0  0  0  0  0  0
    1.2264    0.9172    0.0541 C   0  0  0  0  0  3  0  0  0  0  0  0
   -2.8543    0.4084    0.1800 C   0  0  0  0  0  0  0  0  0  0  0  0
   -3.3232    1.6792   -0.2553 C   0  0  0  0  0  0  0  0  0  0  0  0
   -4.6992    1.8218   -0.5130 C   0  0  0  0  0  0  0  0  0  0  0  0
   -5.5952    0.7534   -0.3533 C   0  0  0  0  0  0  0  0  0  0  0  0
   -5.1204   -0.4952    0.0757 C   0  0  0  0  0  0  0  0  0  0  0  0
   -3.7558   -0.6637    0.3438 C   0  0  0  0  0  0  0  0  0  0  0  0
    1.3486    1.3873    2.6091 C   0  0  0  0  0  0  0  0  0  0  0  0
   -2.3606    2.8167   -0.4699 C   0  0  0  0  0  0  0  0  0  0  0  0
    2.6848    0.9669   -0.1701 C   0  0  0  0  0  0  0  0  0  0  0  0
    3.2159    1.7316   -1.2364 C   0  0  0  0  0  0  0  0  0  0  0  0
    4.5929    1.7520   -1.5009 C   0  0  0  0  0  0  0  0  0  0  0  0
    5.4775    1.0127   -0.7003 C   0  0  0  0  0  0  0  0  0  0  0  0
    4.9663    0.2417    0.3576 C   0  0  0  0  0  0  0  0  0  0  0  0
    3.5900    0.2105    0.6155 C   0  0  0  0  0  0  0  0  0  0  0  0
   -1.3034    0.9721    2.4308 H   0  0  0  0  0  0  0  0  0  0  0  0
    0.6227    1.3250   -0.7837 H   0  0  0  0  0  0  0  0  0  0  0  0
   -5.0721    2.7993   -0.8582 H   0  0  0  0  0  0  0  0  0  0  0  0
   -6.6652    0.8980   -0.5651 H   0  0  0  0  0  0  0  0  0  0  0  0
   -5.8140   -1.3385    0.2123 H   0  0  0  0  0  0  0  0  0  0  0  0
   -3.3600   -1.6237    0.7069 H   0  0  0  0  0  0  0  0  0  0  0  0
    2.2050    2.0615    2.4175 H   0  0  0  0  0  0  0  0  0  0  0  0
    1.7453    0.4463    3.0425 H   0  0  0  0  0  0  0  0  0  0  0  0
    0.6896    1.8445    3.3738 H   0  0  0  0  0  0  0  0  0  0  0  0
   -2.8667    3.6910   -0.9212 H   0  0  0  0  0  0  0  0  0  0  0  0
   -1.5277    2.5111   -1.1377 H   0  0  0  0  0  0  0  0  0  0  0  0
   -1.8854    3.1452    0.4779 H   0  0  0  0  0  0  0  0  0  0  0  0
    2.5296    2.3274   -1.8595 H   0  0  0  0  0  0  0  0  0  0  0  0
    4.9784    2.3568   -2.3363 H   0  0  0  0  0  0  0  0  0  0  0  0
    6.5587    1.0297   -0.9043 H   0  0  0  0  0  0  0  0  0  0  0  0
    5.6477   -0.3572    0.9815 H   0  0  0  0  0  0  0  0  0  0  0  0
    3.1952   -0.4402    1.4100 H   0  0  0  0  0  0  0  0  0  0  0  0
  1  2  1  0  0  0  0
  2 19  1  0  0  0  0
  3  2  2  0  0  0  0
  3 11  1  0  0  0  0
  4  3  1  0  0  0  0
  5 10  1  0  0  0  0
  5  1  1  0  0  0  0
  6  5  2  0  0  0  0
  7  8  2  0  0  0  0
  7  6  1  0  0  0  0
  8  9  1  0  0  0  0
  9 23  1  0  0  0  0
  9 10  2  0  0  0  0
 10 24  1  0  0  0  0
 11 26  1  0  0  0  0
 11 27  1  0  0  0  0
 12  6  1  0  0  0  0
 12 30  1  0  0  0  0
 13  4  1  0  0  0  0
 13 18  1  0  0  0  0
 14 13  2  0  0  0  0
 15 14  1  0  0  0  0
 15 16  2  0  0  0  0
 16 17  1  0  0  0  0
 17 18  2  0  0  0  0
 17 34  1  0  0  0  0
 18 35  1  0  0  0  0
 20  4  1  0  0  0  0
 21  7  1  0  0  0  0
 22  8  1  0  0  0  0
 25 11  1  0  0  0  0
 28 12  1  0  0  0  0
 29 12  1  0  0  0  0
 31 14  1  0  0  0  0
 32 15  1  0  0  0  0
 33 16  1  0  0  0  0
M  END
