4,6
q = -2.0, confidence = 0.646

 38 41  0  0  0  0  0  0  0  0999 V2000
   -0.3561   -2.7878   -0.0981 O   0  0  0  0  0  0  0  0  0  0  0  0
    6.7588   -1.2764   -0.2904 O   0  0  0  0  0  0  0  0  0  0  0  0
    6.5332   -3.4484   -0.2550 O   0  0  0  0  0  0  0  0  0  0  0  0
   -0.1550   -0.4877   -0.1176 N   0  0  0  0  0  0  0  0  0  0  0  0
    6.0795   -2.3030   -0.2695 N   0  0  0  0  0  0  0  0  0  0  0  0
   -1.5960    1.6759   -0.1264 C   0  0  0  0  0  3  0  0  0  0  0  0
   -2.4613    2.7874   -0.2166 C   0  0  0  0  0  0  0  0  0  0  0  0
   -3.5319    2.6676    0.0186 H   0  0  0  0  0  0  0  0  0  0  0  0
   -1.9925    4.0531   -0.6062 C   0  0  0  0  0  0  0  0  0  0  0  0
   -2.6895    4.9042   -0.6658 H   0  0  0  0  0  0  0  0  0  0  0  0
   -0.6380    4.2214   -0.9326 C   0  0  0  0  0  0  0  0  0  0  0  0
   -0.2622    5.2004   -1.2660 H   0  0  0  0  0  0  0  0  0  0  0  0
    0.2448    3.1384   -0.8364 C   0  0  0  0  0  0  0  0  0  0  0  0
    1.2950    3.2877   -1.1114 H   0  0  0  0  0  0  0  0  0  0  0  0
   -0.2098    1.8680   -0.4102 C   0  0  0  0  0  0  0  0  0  0  0  0
    0.6231    0.6532   -0.2804 C   0  0  0  0  0  0  0  0  0  0  0  0
    2.0222    0.5928   -0.3131 C   0  0  0  0  0  0  0  0  0  0  0  0
    2.8950    1.8002   -0.2994 C   0  0  0  0  0  0  0  0  0  0  0  0
    2.9908    2.5906    0.8666 C   0  0  0  0  0  0  0  0  0  0  0  0
    2.3920    2.3126    1.7470 H   0  0  0  0  0  0  0  0  0  0  0  0
    3.8195    3.7206    0.9005 C   0  0  0  0  0  0  0  0  0  0  0  0
    3.8777    4.3285    1.8163 H   0  0  0  0  0  0  0  0  0  0  0  0
    4.5771    4.0743   -0.2279 C   0  0  0  0  0  0  0  0  0  0  0  0
    5.2291    4.9605   -0.2012 H   0  0  0  0  0  0  0  0  0  0  0  0
    4.5057    3.2861   -1.3875 C   0  0  0  0  0  0  0  0  0  0  0  0
    5.1021    3.5528   -2.2734 H   0  0  0  0  0  0  0  0  0  0  0  0
    3.6737    2.1567   -1.4218 C   0  0  0  0  0  0  0  0  0  0  0  0
    3.6098    1.5436   -2.3337 H   0  0  0  0  0  0  0  0  0  0  0  0
    2.6523   -0.7037   -0.2760 C   0  0  0  0  0  0  0  0  0  0  0  0
    4.0646   -0.8748   -0.2764 C   0  0  0  0  0  3  0  0  0  0  0  0
    4.7461   -0.0151   -0.2902 H   0  0  0  0  0  0  0  0  0  0  0  0
    4.6008   -2.1561   -0.2624 C   0  0  0  0  0  0  0  0  0  0  0  0
    3.8050   -3.3218   -0.2387 C   0  0  0  0  0  0  0  0  0  0  0  0
    4.2931   -4.3044   -0.2312 H   0  0  0  0  0  0  0  0  0  0  0  0
    2.4236   -3.1634   -0.2185 C   0  0  0  0  0  0  0  0  0  0  0  0
    1.7406   -4.0246   -0.1866 H   0  0  0  0  0  0  0  0  0  0  0  0
    1.8382   -1.8765   -0.2310 C   0  0  0  0  0  0  0  0  0  0  0  0
    0.3719   -1.7678   -0.1510 C   0  0  0  0  0  0  0  0  0  0  0  0
  2  5  2  0  0  0  0
  5 32  1  0  0  0  0
  5  3  2  0  0  0  0
  7  6  1  0  0  0  0
  7  8  1  0  0  0  0
  9  7  2  0  0  0  0
 10  9  1  0  0  0  0
 11 13  2  0  0  0  0
 11  9  1  0  0  0  0
 12 11  1  0  0  0  0
 13 15  1  0  0  0  0
 14 13  1  0  0  0  0
 15 16  1  0  0  0  0
 15  6  2  0  0  0  0
 16  4  2  0  0  0  0
 17 18  1  0  0  0  0
 17 16  1  0  0  0  0
 17 29  2  0  0  0  0
 18 19  1  0  0  0  0
 19 21  2  0  0  0  0
 19 20  1  0  0  0  0
 21 22  1  0  0  0  0
 23 24  1  0  0  0  0
 23 21  1  0  0  0  0
 25 23  2  0  0  0  0
 26 25  1  0  0  0  0
 27 25  1  0  0  0  0
 27 18  2  0  0  0  0
 28 27  1  0  0  0  0
 29 37  1  0  0  0  0
 30 29  1  0  0  0  0
 30 32  1  0  0  0  0
 31 30  1  0  0  0  0
 32 33  2  0  0  0  0
 33 34  1  0  0  0  0
 33 35  1  0  0  0  0
 35 36  1  0  0  0  0
 37 35  2  0  0  0  0
 37 38  1  0  0  0  0
 38  4  1  0  0  0  0
 38  1  2  0  0  0  0
M  END
