3,19
q = -1.0, confidence = 0.0

 19 20  0  0  0  0  0  0  0  0999 V2000
    2.1086   -4.2009    1.6031 F   0  0  0  0  0  0  0  0  0  0  0  0
   -0.4799   -1.8011    4.7003 F   0  0  0  0  0  0  0  0  0  0  0  0
    1.1931   -1.1008   -1.2333 N   0  0  0  0  0  2  0  0  0  0  0  0
    2.3121   -3.1999   -0.9864 N   0  0  0  0  0  0  0  0  0  0  0  0
    1.5396   -1.0436   -2.5358 C   0  0  0  0  0  3  0  0  0  0  0  0
    1.1874   -0.1531   -3.0808 H   0  0  0  0  0  0  0  0  0  0  0  0
    2.2920   -2.0682   -3.1138 C   0  0  0  0  0  0  0  0  0  0  0  0
    2.5764   -2.0304   -4.1740 H   0  0  0  0  0  0  0  0  0  0  0  0
    2.6626   -3.1336   -2.2755 C   0  0  0  0  0  0  0  0  0  0  0  0
    3.2668   -3.9731   -2.6635 H   0  0  0  0  0  0  0  0  0  0  0  0
    1.5781   -2.1987   -0.4799 C   0  0  0  0  0  0  0  0  0  0  0  0
    1.0909   -2.1533    0.8908 C   0  0  0  0  0  0  0  0  0  0  0  0
    1.3482   -3.1349    1.8791 C   0  0  0  0  0  0  0  0  0  0  0  0
    0.8274   -3.0256    3.1698 C   0  0  0  0  0  0  0  0  0  0  0  0
    1.0338   -3.7938    3.9255 H   0  0  0  0  0  0  0  0  0  0  0  0
    0.0294   -1.9086    3.4609 C   0  0  0  0  0  0  0  0  0  0  0  0
   -0.2533   -0.9115    2.5205 C   0  0  0  0  0  0  0  0  0  0  0  0
   -0.8952   -0.0719    2.8221 H   0  0  0  0  0  0  0  0  0  0  0  0
    0.2766   -1.0131    1.2198 C   0  0  0  0  0  3  0  0  0  0  0  0
  1 13  1  0  0  0  0
  3 11  1  0  0  0  0
  4 11  2  0  0  0  0
  5  3  1  0  0  0  0
  6  5  1  0  0  0  0
  7  5  1  0  0  0  0
  7  9  2  0  0  0  0
  8  7  1  0  0  0  0
  9  4  1  0  0  0  0
 10  9  1  0  0  0  0
 11 12  1  0  0  0  0
 12 19  2  0  0  0  0
 12 13  1  0  0  0  0
 13 14  2  0  0  0  0
 14 16  1  0  0  0  0
 14 15  1  0  0  0  0
 16  2  1  0  0  0  0
 17 18  1  0  0  0  0
 17 16  2  0  0  0  0
 19 17  1  0  0  0  0
M  END
