1,2
q = -1.0, confidence = 0.0

 31 32  0  0  0  0  0  0  0  0999 V2000
   -1.2021   -2.0036   -0.3529 N   0  0  0  0  0  0  0  0  0  0  0  0
    0.8536   -0.3550    0.0107 C   0  0  0  0  0  3  0  0  0  0  0  0
    1.9419    0.5077   -0.3318 C   0  0  0  0  0  0  0  0  0  0  0  0
    1.8064    1.7709   -0.9846 C   0  0  0  0  0  0  0  0  0  0  0  0
    2.9128    2.5584   -1.2704 C   0  0  0  0  0  0  0  0  0  0  0  0
    4.2173    2.1222   -0.9166 C   0  0  0  0  0  0  0  0  0  0  0  0
    4.3924    0.8806   -0.3271 C   0  0  0  0  0  0  0  0  0  0  0  0
    3.2804    0.0326   -0.0431 C   0  0  0  0  0  0  0  0  0  0  0  0
    3.4685   -1.2759    0.4848 C   0  0  0  0  0  0  0  0  0  0  0  0
    2.4094   -2.1520    0.6880 C   0  0  0  0  0  0  0  0  0  0  0  0
    1.0859   -1.6695    0.4295 C   0  0  0  0  0  0  0  0  0  0  0  0
    2.6339   -3.5606    1.1752 C   0  0  0  0  0  0  0  0  0  0  0  0
   -0.1315   -2.5387    0.5630 C   0  0  0  0  0  0  0  0  0  0  0  0
   -0.8862   -2.3289   -1.7702 C   0  0  0  0  0  0  0  0  0  0  0  0
   -2.5109   -2.5941    0.0074 C   0  0  0  0  0  0  0  0  0  0  0  0
    0.8076    2.0948   -1.3065 H   0  0  0  0  0  0  0  0  0  0  0  0
    2.7822    3.5167   -1.7961 H   0  0  0  0  0  0  0  0  0  0  0  0
    5.0877    2.7573   -1.1382 H   0  0  0  0  0  0  0  0  0  0  0  0
    5.4029    0.5165   -0.0850 H   0  0  0  0  0  0  0  0  0  0  0  0
    4.4955   -1.6091    0.7011 H   0  0  0  0  0  0  0  0  0  0  0  0
    2.0610   -3.7758    2.1014 H   0  0  0  0  0  0  0  0  0  0  0  0
    3.7031   -3.7430    1.3920 H   0  0  0  0  0  0  0  0  0  0  0  0
    2.3171   -4.3111    0.4193 H   0  0  0  0  0  0  0  0  0  0  0  0
    0.0623   -3.6051    0.3110 H   0  0  0  0  0  0  0  0  0  0  0  0
   -0.5443   -2.5182    1.5941 H   0  0  0  0  0  0  0  0  0  0  0  0
    0.1244   -1.9608   -2.0180 H   0  0  0  0  0  0  0  0  0  0  0  0
   -1.6240   -1.8410   -2.4333 H   0  0  0  0  0  0  0  0  0  0  0  0
   -0.9302   -3.4297   -1.9219 H   0  0  0  0  0  0  0  0  0  0  0  0
   -2.7810   -2.3096    1.0407 H   0  0  0  0  0  0  0  0  0  0  0  0
   -2.4557   -3.7023   -0.0630 H   0  0  0  0  0  0  0  0  0  0  0  0
   -3.2881   -2.2307   -0.6880 H   0  0  0  0  0  0  0  0  0  0  0  0
  1 15  1  0  0  0  0
  1 13  1  0  0  0  0
  2 11  1  0  0  0  0
  3  8  1  0  0  0  0
  3  2  2  0  0  0  0
  4  3  1  0  0  0  0
  5  4  2  0  0  0  0
  5  6  1  0  0  0  0
  6  7  2  0  0  0  0
  7 19  1  0  0  0  0
  7  8  1  0  0  0  0
  8  9  2  0  0  0  0
  9 10  1  0  0  0  0
  9 20  1  0  0  0  0
 10 12  1  0  0  0  0
 11 13  1  0  0  0  0
 11 10  2  0  0  0  0
 12 22  1  0  0  0  0
 12 21  1  0  0  0  0
 13 25  1  0  0  0  0
 14  1  1  0  0  0  0
 15 29  1  0  0  0  0
 16  4  1  0  0  0  0
 17  5  1  0  0  0  0
 18  6  1  0  0  0  0
 23 12  1  0  0  0  0
 24 13  1  0  0  0  0
 26 14  1  0  0  0  0
 27 14  1  0  0  0  0
 28 14  1  0  0  0  0
 30 15  1  0  0  0  0
 31 15  1  0  0  0  0
M  END
