1,26
q = -1.0, confidence = 0.0

 26 28  0  0  0  0  0  0  0  0999 V2000
   -1.7165   -0.5272    0.8569 N   0  0  0  0  0  2  0  0  0  0  0  0
   -2.2934    0.2999    1.7758 C   0  0  0  0  0  3  0  0  0  0  0  0
   -1.6082    1.0118    2.2570 H   0  0  0  0  0  0  0  0  0  0  0  0
   -3.6373    0.2373    2.0743 C   0  0  0  0  0  0  0  0  0  0  0  0
   -4.0641    0.8963    2.8437 H   0  0  0  0  0  0  0  0  0  0  0  0
   -4.4778   -0.6351    1.3246 C   0  0  0  0  0  0  0  0  0  0  0  0
   -5.8916   -0.6419    1.4898 C   0  0  0  0  0  0  0  0  0  0  0  0
   -6.3332    0.0036    2.2646 H   0  0  0  0  0  0  0  0  0  0  0  0
   -6.6991   -1.4185    0.6718 C   0  0  0  0  0  0  0  0  0  0  0  0
   -7.7918   -1.4083    0.8021 H   0  0  0  0  0  0  0  0  0  0  0  0
   -6.1165   -2.1947   -0.3615 C   0  0  0  0  0  0  0  0  0  0  0  0
   -6.7611   -2.7611   -1.0502 H   0  0  0  0  0  0  0  0  0  0  0  0
   -4.7376   -2.2316   -0.5257 C   0  0  0  0  0  0  0  0  0  0  0  0
   -4.3115   -2.7979   -1.3617 H   0  0  0  0  0  0  0  0  0  0  0  0
   -3.8725   -1.4935    0.3345 C   0  0  0  0  0  0  0  0  0  0  0  0
   -2.4335   -1.4968    0.2145 C   0  0  0  0  0  0  0  0  0  0  0  0
   -1.5844   -2.4307   -0.5281 C   0  0  0  0  0  0  0  0  0  0  0  0
   -1.9788   -3.7096   -0.9975 C   0  0  0  0  0  0  0  0  0  0  0  0
   -2.9976   -4.0798   -0.8253 H   0  0  0  0  0  0  0  0  0  0  0  0
   -1.0566   -4.5503   -1.6258 C   0  0  0  0  0  0  0  0  0  0  0  0
   -1.3725   -5.5441   -1.9766 H   0  0  0  0  0  0  0  0  0  0  0  0
    0.2798   -4.1327   -1.7814 C   0  0  0  0  0  0  0  0  0  0  0  0
    1.0068   -4.7968   -2.2757 H   0  0  0  0  0  0  0  0  0  0  0  0
    0.6978   -2.8937   -1.2805 C   0  0  0  0  0  0  0  0  0  0  0  0
    1.7546   -2.6014   -1.3769 H   0  0  0  0  0  0  0  0  0  0  0  0
   -0.2090   -2.0218   -0.6393 C   0  0  0  0  0  3  0  0  0  0  0  0
  1  2  1  0  0  0  0
  2  4  1  0  0  0  0
  2  3  1  0  0  0  0
  4  5  1  0  0  0  0
  6  7  1  0  0  0  0
  6  4  2  0  0  0  0
  7  8  1  0  0  0  0
  9 10  1  0  0  0  0
  9  7  2  0  0  0  0
 11  9  1  0  0  0  0
 12 11  1  0  0  0  0
 13 11  2  0  0  0  0
 13 15  1  0  0  0  0
 14 13  1  0  0  0  0
 15  6  1  0  0  0  0
 16 15  2  0  0  0  0
 16  1  1  0  0  0  0
 17 16  1  0  0  0  0
 18 19  1  0  0  0  0
 18 17  2  0  0  0  0
 20 18  1  0  0  0  0
 21 20  1  0  0  0  0
 22 20  2  0  0  0  0
 22 24  1  0  0  0  0
 23 22  1  0  0  0  0
 24 26  2  0  0  0  0
 25 24  1  0  0  0  0
 26 17  1  0  0  0  0
M  END
