1,2
q = -1.0, confidence = 0.0

 37 40  0  0  1  0  0  0  0  0999 V2000
   -1.8730   -0.3033   -0.8352 N   0  0  0  0  0  2  0  0  0  0  0  0
    0.3500   -1.6391   -1.3094 C   0  0  0  0  0  3  0  0  0  0  0  0
    1.5382   -2.3783   -1.4711 C   0  0  0  0  0  0  0  0  0  0  0  0
    2.3412   -2.3070   -0.7238 H   0  0  0  0  0  0  0  0  0  0  0  0
    1.7076   -3.2092   -2.5896 C   0  0  0  0  0  0  0  0  0  0  0  0
    2.6450   -3.7757   -2.7063 H   0  0  0  0  0  0  0  0  0  0  0  0
    0.6921   -3.3286   -3.5570 C   0  0  0  0  0  0  0  0  0  0  0  0
    0.8349   -3.9773   -4.4338 H   0  0  0  0  0  0  0  0  0  0  0  0
   -0.5069   -2.6272   -3.3924 C   0  0  0  0  0  0  0  0  0  0  0  0
   -1.3045   -2.7293   -4.1444 H   0  0  0  0  0  0  0  0  0  0  0  0
   -0.6971   -1.7937   -2.2689 C   0  0  0  0  0  0  0  0  0  0  0  0
   -1.9349   -1.0728   -1.9746 C   0  0  1  0  0  3  0  0  0  0  0  0
   -3.1337   -1.1557   -2.7026 C   0  0  0  0  0  0  0  0  0  0  0  0
   -3.1706   -1.7612   -3.6180 H   0  0  0  0  0  0  0  0  0  0  0  0
   -4.2728   -0.4863   -2.2433 C   0  0  0  0  0  0  0  0  0  0  0  0
   -5.2156   -0.5452   -2.8099 H   0  0  0  0  0  0  0  0  0  0  0  0
   -4.2170    0.2438   -1.0482 C   0  0  0  0  0  0  0  0  0  0  0  0
   -2.9814    0.3031   -0.3572 C   0  0  0  0  0  0  0  0  0  0  0  0
   -2.9747    1.0363    0.9516 C   0  0  2  0  0  0  0  0  0  0  0  0
   -1.9865    1.0089    1.4425 H   0  0  0  0  0  0  0  0  0  0  0  0
   -4.2452    0.5869    1.7352 C   0  0  0  0  0  0  0  0  0  0  0  0
   -4.5453   -0.4771    1.6449 H   0  0  0  0  0  0  0  0  0  0  0  0
   -4.1814    0.8514    2.8055 H   0  0  0  0  0  0  0  0  0  0  0  0
   -5.0201    1.6320    0.8915 C   0  0  2  0  0  0  0  0  0  0  0  0
   -5.8894    2.1490    1.3486 H   0  0  0  0  0  0  0  0  0  0  0  0
   -5.3972    0.9885   -0.4519 C   0  0  0  0  0  0  0  0  0  0  0  0
   -6.2478    0.2859   -0.3105 H   0  0  0  0  0  0  0  0  0  0  0  0
   -5.7517    1.7587   -1.1716 H   0  0  0  0  0  0  0  0  0  0  0  0
   -3.6768    2.4430    0.7682 C   0  0  0  0  0  0  0  0  0  0  0  0
   -3.4104    3.2410   -0.5062 C   0  0  0  0  0  0  0  0  0  0  0  0
   -4.0806    4.1252   -0.5504 H   0  0  0  0  0  0  0  0  0  0  0  0
   -3.5605    2.6534   -1.4319 H   0  0  0  0  0  0  0  0  0  0  0  0
   -2.3585    3.5885   -0.5144 H   0  0  0  0  0  0  0  0  0  0  0  0
   -3.4073    3.3431    1.9789 C   0  0  0  0  0  0  0  0  0  0  0  0
   -2.3480    3.6703    1.9656 H   0  0  0  0  0  0  0  0  0  0  0  0
   -3.5949    2.8407    2.9476 H   0  0  0  0  0  0  0  0  0  0  0  0
   -4.0491    4.2476    1.9384 H   0  0  0  0  0  0  0  0  0  0  0  0
  1 18  1  0  0  0  0
  3  2  1  0  0  0  0
  3  4  1  0  0  0  0
  5  3  2  0  0  0  0
  6  5  1  0  0  0  0
  7  9  2  0  0  0  0
  7  5  1  0  0  0  0
  8  7  1  0  0  0  0
  9 11  1  0  0  0  0
 10  9  1  0  0  0  0
 11  2  2  0  0  0  0
 12 11  1  1  0  0  0
 12  1  1  0  0  0  0
 13 15  2  0  0  0  0
 13 12  1  0  0  0  0
 14 13  1  0  0  0  0
 15 17  1  0  0  0  0
 16 15  1  0  0  0  0
 17 26  1  0  0  0  0
 17 18  2  0  0  0  0
 18 19  1  0  0  0  0
 19 20  1  1  0  0  0
 19 21  1  0  0  0  0
 21 23  1  0  0  0  0
 22 21  1  0  0  0  0
 24 25  1  1  0  0  0
 24 21  1  0  0  0  0
 26 27  1  0  0  0  0
 26 24  1  0  0  0  0
 28 26  1  0  0  0  0
 29 24  1  0  0  0  0
 29 19  1  0  0  0  0
 29 34  1  0  0  0  0
 30 29  1  0  0  0  0
 31 30  1  0  0  0  0
 32 30  1  0  0  0  0
 33 30  1  0  0  0  0
 34 36  1  0  0  0  0
 35 34  1  0  0  0  0
 37 34  1  0  0  0  0
M  END
