1,2
q = 0.0, confidence = 0.992

 37 39  0  0  1  0  0  0  0  0999 V2000
   -0.0063   -1.1975   -0.3152 C   0  0  0  0  0  2  0  0  0  0  0  0
    2.4419   -0.4179   -0.4732 N   0  0  0  0  0  2  0  0  0  0  0  0
   -1.1794   -1.9071   -0.3078 N   0  0  0  0  0  0  0  0  0  0  0  0
    2.2812   -1.7379   -0.7520 C   0  0  2  0  0  3  0  0  0  0  0  0
    0.3778   -3.4098   -0.8609 C   0  0  0  0  0  0  0  0  0  0  0  0
    0.9541   -4.2993   -1.1268 H   0  0  0  0  0  0  0  0  0  0  0  0
    0.9470   -2.1498   -0.6780 N   0  0  0  0  0  0  0  0  0  0  0  0
    3.3518   -2.5874   -1.0618 C   0  0  0  0  0  0  0  0  0  0  0  0
    3.1793   -3.6508   -1.2743 H   0  0  0  0  0  0  0  0  0  0  0  0
   -4.5130   -0.4609   -1.1075 C   0  0  0  0  0  0  0  0  0  0  0  0
   -5.1280   -0.2483   -1.9965 H   0  0  0  0  0  0  0  0  0  0  0  0
   -0.9588   -3.2515   -0.6278 C   0  0  0  0  0  0  0  0  0  0  0  0
   -1.7793   -3.9741   -0.6553 H   0  0  0  0  0  0  0  0  0  0  0  0
   -2.4840   -1.3273   -0.1308 C   0  0  0  0  0  0  0  0  0  0  0  0
    3.6929    0.0911   -0.4748 C   0  0  0  0  0  0  0  0  0  0  0  0
    3.7673    1.1545   -0.2114 H   0  0  0  0  0  0  0  0  0  0  0  0
   -4.1952   -0.4041    1.2875 C   0  0  0  0  0  0  0  0  0  0  0  0
   -4.5645   -0.1537    2.2949 H   0  0  0  0  0  0  0  0  0  0  0  0
   -2.7893   -1.4919   -2.6548 C   0  0  0  0  0  0  0  0  0  0  0  0
   -2.9158   -2.5834   -2.8191 H   0  0  0  0  0  0  0  0  0  0  0  0
   -1.7143   -1.2693   -2.8049 H   0  0  0  0  0  0  0  0  0  0  0  0
   -3.3629   -0.9690   -3.4432 H   0  0  0  0  0  0  0  0  0  0  0  0
    4.6415   -2.0436   -1.0805 C   0  0  0  0  0  0  0  0  0  0  0  0
    5.5043   -2.6820   -1.3198 H   0  0  0  0  0  0  0  0  0  0  0  0
   -2.9389   -1.0267    1.1722 C   0  0  0  0  0  0  0  0  0  0  0  0
   -3.2643   -1.0834   -1.2825 C   0  0  0  0  0  0  0  0  0  0  0  0
   -4.9877   -0.0966    0.1658 C   0  0  0  0  0  0  0  0  0  0  0  0
   -6.3020    0.6251    0.3250 C   0  0  0  0  0  0  0  0  0  0  0  0
   -6.8112    0.3438    1.2680 H   0  0  0  0  0  0  0  0  0  0  0  0
   -6.9898    0.4172   -0.5178 H   0  0  0  0  0  0  0  0  0  0  0  0
   -6.1445    1.7248    0.3571 H   0  0  0  0  0  0  0  0  0  0  0  0
   -2.1164   -1.3631    2.3815 C   0  0  0  0  0  0  0  0  0  0  0  0
   -1.1605   -0.7901    2.4145 H   0  0  0  0  0  0  0  0  0  0  0  0
   -1.8171   -2.4315    2.3814 H   0  0  0  0  0  0  0  0  0  0  0  0
   -2.6782   -1.1608    3.3125 H   0  0  0  0  0  0  0  0  0  0  0  0
    4.8158   -0.6833   -0.7802 C   0  0  0  0  0  0  0  0  0  0  0  0
    5.8124   -0.2213   -0.7730 H   0  0  0  0  0  0  0  0  0  0  0  0
  1  3  1  0  0  0  0
  3 14  1  0  0  0  0
  4  7  1  1  0  0  0
  4  2  1  0  0  0  0
  5  7  1  0  0  0  0
  5 12  2  0  0  0  0
  6  5  1  0  0  0  0
  7  1  1  0  0  0  0
  8  4  1  0  0  0  0
  9  8  1  0  0  0  0
 10 27  1  0  0  0  0
 11 10  1  0  0  0  0
 12  3  1  0  0  0  0
 13 12  1  0  0  0  0
 14 25  2  0  0  0  0
 15  2  1  0  0  0  0
 15 16  1  0  0  0  0
 17 18  1  0  0  0  0
 19 26  1  0  0  0  0
 20 19  1  0  0  0  0
 21 19  1  0  0  0  0
 22 19  1  0  0  0  0
 23  8  2  0  0  0  0
 23 36  1  0  0  0  0
 24 23  1  0  0  0  0
 25 17  1  0  0  0  0
 25 32  1  0  0  0  0
 26 10  2  0  0  0  0
 26 14  1  0  0  0  0
 27 28  1  0  0  0  0
 27 17  2  0  0  0  0
 28 31  1  0  0  0  0
 28 29  1  0  0  0  0
 30 28  1  0  0  0  0
 32 33  1  0  0  0  0
 32 35  1  0  0  0  0
 34 32  1  0  0  0  0
 36 37  1  0  0  0  0
 36 15  2  0  0  0  0
M  END
