1,18
q = -1.0, confidence = 0.0

 18 19  0  0  0  0  0  0  0  0999 V2000
   -0.2557    0.3340   -2.0361 N   0  0  0  0  0  2  0  0  0  0  0  0
   -0.9870    1.4482   -2.3230 N   0  0  0  0  0  0  0  0  0  0  0  0
    0.3477   -0.0583   -3.1712 C   0  0  0  0  0  3  0  0  0  0  0  0
    0.9892   -0.9460   -3.1599 H   0  0  0  0  0  0  0  0  0  0  0  0
   -0.0076    0.8228   -4.2184 C   0  0  0  0  0  0  0  0  0  0  0  0
    0.3124    0.7756   -5.2635 H   0  0  0  0  0  0  0  0  0  0  0  0
   -0.8576    1.7688   -3.6436 C   0  0  0  0  0  0  0  0  0  0  0  0
   -1.3769    2.6311   -4.0717 H   0  0  0  0  0  0  0  0  0  0  0  0
   -1.7033    2.0136   -1.2357 C   0  0  0  0  0  0  0  0  0  0  0  0
   -2.4777    3.1748   -1.3709 C   0  0  0  0  0  0  0  0  0  0  0  0
   -2.5611    3.6935   -2.3379 H   0  0  0  0  0  0  0  0  0  0  0  0
   -3.1511    3.6663   -0.2427 C   0  0  0  0  0  0  0  0  0  0  0  0
   -3.7640    4.5758   -0.3255 H   0  0  0  0  0  0  0  0  0  0  0  0
   -3.0453    2.9854    0.9834 C   0  0  0  0  0  0  0  0  0  0  0  0
   -3.5844    3.3648    1.8655 H   0  0  0  0  0  0  0  0  0  0  0  0
   -2.2625    1.8237    1.0927 C   0  0  0  0  0  0  0  0  0  0  0  0
   -2.2002    1.3057    2.0628 H   0  0  0  0  0  0  0  0  0  0  0  0
   -1.5485    1.3036   -0.0089 C   0  0  0  0  0  3  0  0  0  0  0  0
  2  1  1  0  0  0  0
  2  9  1  0  0  0  0
  3  4  1  0  0  0  0
  3  1  1  0  0  0  0
  5  7  2  0  0  0  0
  5  3  1  0  0  0  0
  6  5  1  0  0  0  0
  7  2  1  0  0  0  0
  8  7  1  0  0  0  0
  9 18  1  0  0  0  0
 10  9  2  0  0  0  0
 10 12  1  0  0  0  0
 11 10  1  0  0  0  0
 12 14  2  0  0  0  0
 13 12  1  0  0  0  0
 14 16  1  0  0  0  0
 14 15  1  0  0  0  0
 16 17  1  0  0  0  0
 18 16  2  0  0  0  0
M  END
