2,3
q = -1.0, confidence = 0.002

 27 28  0  0  0  0  0  0  0  0999 V2000
   -6.3761   -1.6143    0.2830 Cl  0  0  0  0  0  0  0  0  0  0  0  0
    0.1296   -2.4513   -0.8365 N   0  0  0  0  0  2  0  0  0  0  0  0
   -2.3761   -1.6207   -0.2726 C   0  0  0  0  0  2  0  0  0  0  0  0
   -3.6905   -1.2225    0.0277 C   0  0  0  0  0  0  0  0  0  0  0  0
   -3.9048   -0.1981    0.3637 H   0  0  0  0  0  0  0  0  0  0  0  0
   -4.7527   -2.1364   -0.1027 C   0  0  0  0  0  0  0  0  0  0  0  0
   -4.5572   -3.4630   -0.5339 C   0  0  0  0  0  0  0  0  0  0  0  0
   -5.4148   -4.1434   -0.6239 H   0  0  0  0  0  0  0  0  0  0  0  0
   -3.2574   -3.8764   -0.8363 C   0  0  0  0  0  0  0  0  0  0  0  0
   -3.0750   -4.9094   -1.1745 H   0  0  0  0  0  0  0  0  0  0  0  0
   -2.1812   -2.9717   -0.7068 C   0  0  0  0  0  0  0  0  0  0  0  0
   -0.8112   -3.3461   -0.9714 C   0  0  0  0  0  0  0  0  0  0  0  0
   -0.5525   -4.3855   -1.2631 H   0  0  0  0  0  0  0  0  0  0  0  0
    1.5142   -2.8670   -0.9853 C   0  0  0  0  0  0  0  0  0  0  0  0
    2.0318   -2.1678   -1.6701 H   0  0  0  0  0  0  0  0  0  0  0  0
    1.5558   -3.8766   -1.4593 H   0  0  0  0  0  0  0  0  0  0  0  0
    2.2585   -2.9142    0.3378 C   0  0  0  0  0  0  0  0  0  0  0  0
    1.6270   -3.3739    1.5099 C   0  0  0  0  0  0  0  0  0  0  0  0
    0.5606   -3.6445    1.4836 H   0  0  0  0  0  0  0  0  0  0  0  0
    2.3434   -3.4751    2.7117 C   0  0  0  0  0  0  0  0  0  0  0  0
    1.8362   -3.8361    3.6197 H   0  0  0  0  0  0  0  0  0  0  0  0
    3.6990   -3.1120    2.7594 C   0  0  0  0  0  0  0  0  0  0  0  0
    4.2591   -3.1850    3.7039 H   0  0  0  0  0  0  0  0  0  0  0  0
    4.3328   -2.6445    1.5981 C   0  0  0  0  0  0  0  0  0  0  0  0
    5.3912   -2.3444    1.6295 H   0  0  0  0  0  0  0  0  0  0  0  0
    3.6158   -2.5450    0.3968 C   0  0  0  0  0  0  0  0  0  0  0  0
    4.1117   -2.1712   -0.5121 H   0  0  0  0  0  0  0  0  0  0  0  0
  3  4  1  0  0  0  0
  4  5  1  0  0  0  0
  6  4  2  0  0  0  0
  6  1  1  0  0  0  0
  7  6  1  0  0  0  0
  8  7  1  0  0  0  0
  9 11  1  0  0  0  0
  9  7  2  0  0  0  0
 10  9  1  0  0  0  0
 11  3  1  0  0  0  0
 12  2  1  0  0  0  0
 12 11  2  0  0  0  0
 13 12  1  0  0  0  0
 14  2  1  0  0  0  0
 14 17  1  0  0  0  0
 15 14  1  0  0  0  0
 16 14  1  0  0  0  0
 17 26  2  0  0  0  0
 17 18  1  0  0  0  0
 18 20  2  0  0  0  0
 19 18  1  0  0  0  0
 20 22  1  0  0  0  0
 20 21  1  0  0  0  0
 22 23  1  0  0  0  0
 24 25  1  0  0  0  0
 24 22  2  0  0  0  0
 26 24  1  0  0  0  0
 27 26  1  0  0  0  0
M  END
