1,12
q = -1.0, confidence = 0.002

 30 32  0  0  0  0  0  0  0  0999 V2000
    2.2554   -2.1304    0.3229 C   0  0  0  0  0  2  0  0  0  0  0  0
    3.5920   -1.9704   -0.1633 C   0  0  0  0  0  0  0  0  0  0  0  0
    4.4460   -3.0820   -0.3150 C   0  0  0  0  0  0  0  0  0  0  0  0
    5.4701   -2.9499   -0.6974 H   0  0  0  0  0  0  0  0  0  0  0  0
    3.9984   -4.3615    0.0341 C   0  0  0  0  0  0  0  0  0  0  0  0
    4.6651   -5.2292   -0.0794 H   0  0  0  0  0  0  0  0  0  0  0  0
    2.6959   -4.5279    0.5405 C   0  0  0  0  0  0  0  0  0  0  0  0
    2.3477   -5.5323    0.8297 H   0  0  0  0  0  0  0  0  0  0  0  0
    1.8339   -3.4283    0.6816 C   0  0  0  0  0  0  0  0  0  0  0  0
    0.8182   -3.5854    1.0754 H   0  0  0  0  0  0  0  0  0  0  0  0
    3.9869   -0.5847   -0.4166 C   0  0  0  0  0  0  0  0  0  0  0  0
    3.0302    0.3406   -0.0547 N   0  0  0  0  0  2  0  0  0  0  0  0
    3.3153    1.6736   -0.0736 C   0  0  0  0  0  0  0  0  0  0  0  0
    4.5275    2.1307   -0.6235 C   0  0  0  0  0  0  0  0  0  0  0  0
    4.7205    3.2118   -0.6400 H   0  0  0  0  0  0  0  0  0  0  0  0
    5.4738    1.2084   -1.0852 C   0  0  0  0  0  0  0  0  0  0  0  0
    6.4238    1.5547   -1.5189 H   0  0  0  0  0  0  0  0  0  0  0  0
    5.2159   -0.1588   -0.9482 C   0  0  0  0  0  0  0  0  0  0  0  0
    5.9569   -0.9074   -1.2585 H   0  0  0  0  0  0  0  0  0  0  0  0
    2.3671    2.6172    0.5597 C   0  0  0  0  0  0  0  0  0  0  0  0
    1.9343    2.3799    1.8824 C   0  0  0  0  0  0  0  0  0  0  0  0
    2.3095    1.4991    2.4247 H   0  0  0  0  0  0  0  0  0  0  0  0
    1.0303    3.2575    2.4912 C   0  0  0  0  0  0  0  0  0  0  0  0
    0.6997    3.0714    3.5246 H   0  0  0  0  0  0  0  0  0  0  0  0
    0.5424    4.3685    1.7831 C   0  0  0  0  0  0  0  0  0  0  0  0
   -0.1816    5.0493    2.2572 H   0  0  0  0  0  0  0  0  0  0  0  0
    0.9734    4.6075    0.4695 C   0  0  0  0  0  0  0  0  0  0  0  0
    0.5689    5.4556   -0.1018 H   0  0  0  0  0  0  0  0  0  0  0  0
    1.8954    3.7453   -0.1361 C   0  0  0  0  0  0  0  0  0  0  0  0
    2.1877    3.9015   -1.1842 H   0  0  0  0  0  0  0  0  0  0  0  0
  1  9  1  0  0  0  0
  2  1  1  0  0  0  0
  3  2  1  0  0  0  0
  3  5  2  0  0  0  0
  4  3  1  0  0  0  0
  5  7  1  0  0  0  0
  6  5  1  0  0  0  0
  7  9  2  0  0  0  0
  7  8  1  0  0  0  0
  9 10  1  0  0  0  0
 11  2  2  0  0  0  0
 11 12  1  0  0  0  0
 13 12  1  0  0  0  0
 13 20  1  0  0  0  0
 14 13  2  0  0  0  0
 15 14  1  0  0  0  0
 16 18  2  0  0  0  0
 16 14  1  0  0  0  0
 17 16  1  0  0  0  0
 18 11  1  0  0  0  0
 19 18  1  0  0  0  0
 20 21  1  0  0  0  0
 21 22  1  0  0  0  0
 21 23  2  0  0  0  0
 23 24  1  0  0  0  0
 25 26  1  0  0  0  0
 25 23  1  0  0  0  0
 27 25  2  0  0  0  0
 28 27  1  0  0  0  0
 29 27  1  0  0  0  0
 29 20  2  0  0  0  0
 30 29  1  0  0  0  0
M  END
