3,4
q = 0.0, confidence = 0.996

 37 38  0  0  1  0  0  0  0  0999 V2000
    3.5408    1.0118   -0.0000 N   0  0  0  0  0  0  0  0  0  0  0  0
    1.5559    1.8930   -0.0001 N   0  0  0  0  0  0  0  0  0  0  0  0
   -0.3568    0.6793   -0.0001 N   0  0  0  0  0  2  0  0  0  0  0  0
    2.2253    0.6669    0.0000 C   0  0  0  0  0  2  0  0  0  0  0  0
    4.6614    0.0777   -0.0000 C   0  0  0  0  0  0  0  0  0  0  0  0
    5.2802    0.2383    0.9045 H   0  0  0  0  0  0  0  0  0  0  0  0
    5.2805    0.2387   -0.9043 H   0  0  0  0  0  0  0  0  0  0  0  0
    4.2461   -0.9522   -0.0002 H   0  0  0  0  0  0  0  0  0  0  0  0
    3.6955    2.4003   -0.0001 C   0  0  0  0  0  0  0  0  0  0  0  0
    4.6849    2.8676   -0.0002 H   0  0  0  0  0  0  0  0  0  0  0  0
    2.4500    2.9634   -0.0001 C   0  0  0  0  0  0  0  0  0  0  0  0
    2.1359    4.0101   -0.0000 H   0  0  0  0  0  0  0  0  0  0  0  0
    0.1586    1.8774   -0.0001 C   0  0  2  0  0  3  0  0  0  0  0  0
   -0.5791    3.1740   -0.0002 C   0  0  0  0  0  0  0  0  0  0  0  0
   -1.6669    2.9852   -0.0010 H   0  0  0  0  0  0  0  0  0  0  0  0
   -0.3160    3.7744   -0.8958 H   0  0  0  0  0  0  0  0  0  0  0  0
   -0.3173    3.7737    0.8962 H   0  0  0  0  0  0  0  0  0  0  0  0
   -1.7741    0.4964   -0.0000 C   0  0  0  0  0  0  0  0  0  0  0  0
   -2.4464    0.3772   -1.2364 C   0  0  0  0  0  0  0  0  0  0  0  0
   -1.6704    0.3694   -2.5250 C   0  0  0  0  0  0  0  0  0  0  0  0
   -1.0458    1.2780   -2.6546 H   0  0  0  0  0  0  0  0  0  0  0  0
   -2.3433    0.2890   -3.3991 H   0  0  0  0  0  0  0  0  0  0  0  0
   -0.9787   -0.5010   -2.5290 H   0  0  0  0  0  0  0  0  0  0  0  0
   -3.8397    0.2010   -1.2076 C   0  0  0  0  0  0  0  0  0  0  0  0
   -4.3780    0.1086   -2.1647 H   0  0  0  0  0  0  0  0  0  0  0  0
   -4.5572    0.1163    0.0001 C   0  0  0  0  0  0  0  0  0  0  0  0
   -6.0468   -0.1185    0.0000 C   0  0  0  0  0  0  0  0  0  0  0  0
   -6.2742   -1.2064   -0.0035 H   0  0  0  0  0  0  0  0  0  0  0  0
   -6.5307    0.3177   -0.8961 H   0  0  0  0  0  0  0  0  0  0  0  0
   -6.5298    0.3118    0.8995 H   0  0  0  0  0  0  0  0  0  0  0  0
   -3.8396    0.2013    1.2077 C   0  0  0  0  0  0  0  0  0  0  0  0
   -4.3779    0.1092    2.1648 H   0  0  0  0  0  0  0  0  0  0  0  0
   -2.4463    0.3776    1.2364 C   0  0  0  0  0  0  0  0  0  0  0  0
   -1.6703    0.3701    2.5249 C   0  0  0  0  0  0  0  0  0  0  0  0
   -1.0452    1.2785    2.6541 H   0  0  0  0  0  0  0  0  0  0  0  0
   -0.9789   -0.5006    2.5294 H   0  0  0  0  0  0  0  0  0  0  0  0
   -2.3431    0.2903    3.3991 H   0  0  0  0  0  0  0  0  0  0  0  0
  1  4  1  0  0  0  0
  2  4  1  0  0  0  0
  3 18  1  0  0  0  0
  5  1  1  0  0  0  0
  5  6  1  0  0  0  0
  7  5  1  0  0  0  0
  8  5  1  0  0  0  0
  9  1  1  0  0  0  0
 10  9  1  0  0  0  0
 11  9  2  0  0  0  0
 11  2  1  0  0  0  0
 11 12  1  0  0  0  0
 13  3  1  6  0  0  0
 13  2  1  0  0  0  0
 14 13  1  0  0  0  0
 14 17  1  0  0  0  0
 15 14  1  0  0  0  0
 16 14  1  0  0  0  0
 18 33  1  0  0  0  0
 19 24  1  0  0  0  0
 19 18  2  0  0  0  0
 20 19  1  0  0  0  0
 21 20  1  0  0  0  0
 22 20  1  0  0  0  0
 23 20  1  0  0  0  0
 24 26  2  0  0  0  0
 25 24  1  0  0  0  0
 26 31  1  0  0  0  0
 27 26  1  0  0  0  0
 27 30  1  0  0  0  0
 28 27  1  0  0  0  0
 29 27  1  0  0  0  0
 31 33  2  0  0  0  0
 31 32  1  0  0  0  0
 33 34  1  0  0  0  0
 34 36  1  0  0  0  0
 34 35  1  0  0  0  0
 34 37  1  0  0  0  0
M  END
