1,13
q = 0.0, confidence = 0.98

 24 25  0  0  1  0  0  0  0  0999 V2000
   -1.6974    0.9413   -0.4066 N   0  0  0  0  0  2  0  0  0  0  0  0
    0.2072    2.0820    0.1223 N   0  0  0  0  0  0  0  0  0  0  0  0
    0.7196    2.9238    0.4065 H   0  0  0  0  0  0  0  0  0  0  0  0
   -1.1622    2.1430   -0.0352 C   0  0  1  0  0  3  0  0  0  0  0  0
   -1.9396    3.2987    0.1555 C   0  0  0  0  0  0  0  0  0  0  0  0
   -1.4623    4.2385    0.4681 H   0  0  0  0  0  0  0  0  0  0  0  0
   -3.3150    3.2180   -0.0707 C   0  0  0  0  0  0  0  0  0  0  0  0
   -3.9507    4.1051    0.0616 H   0  0  0  0  0  0  0  0  0  0  0  0
   -3.8718    1.9876   -0.4719 C   0  0  0  0  0  0  0  0  0  0  0  0
   -4.9478    1.8851   -0.6679 H   0  0  0  0  0  0  0  0  0  0  0  0
   -3.0391    0.8798   -0.6197 C   0  0  0  0  0  0  0  0  0  0  0  0
   -3.4267   -0.1048   -0.9152 H   0  0  0  0  0  0  0  0  0  0  0  0
    0.8334    0.8748   -0.0831 C   0  0  0  0  0  2  0  0  0  0  0  0
    2.3020    0.9198    0.0183 C   0  0  0  0  0  0  0  0  0  0  0  0
    3.0115   -0.2156    0.4783 C   0  0  0  0  0  0  0  0  0  0  0  0
    2.4354   -1.1107    0.7517 H   0  0  0  0  0  0  0  0  0  0  0  0
    4.4054   -0.1918    0.5944 C   0  0  0  0  0  0  0  0  0  0  0  0
    4.9400   -1.0781    0.9672 H   0  0  0  0  0  0  0  0  0  0  0  0
    5.1229    0.9612    0.2325 C   0  0  0  0  0  0  0  0  0  0  0  0
    6.2198    0.9771    0.3147 H   0  0  0  0  0  0  0  0  0  0  0  0
    4.4374    2.0908   -0.2443 C   0  0  0  0  0  0  0  0  0  0  0  0
    4.9971    2.9874   -0.5495 H   0  0  0  0  0  0  0  0  0  0  0  0
    3.0411    2.0749   -0.3455 C   0  0  0  0  0  0  0  0  0  0  0  0
    2.5265    2.9556   -0.7619 H   0  0  0  0  0  0  0  0  0  0  0  0
  1  4  1  0  0  0  0
  2  3  1  0  0  0  0
  4  2  1  6  0  0  0
  4  5  1  0  0  0  0
  5  6  1  0  0  0  0
  7  8  1  0  0  0  0
  7  5  2  0  0  0  0
  9  7  1  0  0  0  0
 10  9  1  0  0  0  0
 11  9  2  0  0  0  0
 11  1  1  0  0  0  0
 12 11  1  0  0  0  0
 13 14  1  0  0  0  0
 13  2  1  0  0  0  0
 14 15  1  0  0  0  0
 15 17  2  0  0  0  0
 15 16  1  0  0  0  0
 17 18  1  0  0  0  0
 19 20  1  0  0  0  0
 19 17  1  0  0  0  0
 21 19  2  0  0  0  0
 22 21  1  0  0  0  0
 23 21  1  0  0  0  0
 23 14  2  0  0  0  0
 24 23  1  0  0  0  0
M  END
