4,5
q = -1.0, confidence = 0.002

 36 37  0  0  1  0  0  0  0  0999 V2000
   -7.1906   -1.0956   -0.2649 Cl  0  0  0  0  0  0  0  0  0  0  0  0
    0.7785   -4.0320    1.1511 O   0  0  0  0  0  0  0  0  0  0  0  0
    1.8636   -2.2550    2.0450 O   0  0  0  0  0  0  0  0  0  0  0  0
   -0.5631   -1.6259   -0.1722 N   0  0  0  0  0  2  0  0  0  0  0  0
   -3.1585   -0.9086   -0.0600 C   0  0  0  0  0  2  0  0  0  0  0  0
   -4.5228   -0.5716   -0.0578 C   0  0  0  0  0  0  0  0  0  0  0  0
   -4.8520    0.4615    0.1231 H   0  0  0  0  0  0  0  0  0  0  0  0
   -5.5027   -1.5561   -0.2817 C   0  0  0  0  0  0  0  0  0  0  0  0
   -5.1740   -2.9048   -0.5158 C   0  0  0  0  0  0  0  0  0  0  0  0
   -5.9687   -3.6444   -0.6823 H   0  0  0  0  0  0  0  0  0  0  0  0
   -3.8235   -3.2610   -0.5301 C   0  0  0  0  0  0  0  0  0  0  0  0
   -3.5336   -4.3082   -0.7130 H   0  0  0  0  0  0  0  0  0  0  0  0
   -2.8288   -2.2820   -0.3128 C   0  0  0  0  0  0  0  0  0  0  0  0
   -1.4210   -2.6029   -0.3255 C   0  0  0  0  0  0  0  0  0  0  0  0
   -1.0765   -3.6500   -0.4140 H   0  0  0  0  0  0  0  0  0  0  0  0
    0.8670   -1.9328   -0.0907 C   0  0  2  0  0  0  0  0  0  0  0  0
    1.3976   -0.9880    0.1101 H   0  0  0  0  0  0  0  0  0  0  0  0
    1.4556   -2.5545   -1.3816 C   0  0  0  0  0  0  0  0  0  0  0  0
    1.0472   -3.5775   -1.5084 H   0  0  0  0  0  0  0  0  0  0  0  0
    1.1161   -1.9380   -2.2359 H   0  0  0  0  0  0  0  0  0  0  0  0
    2.9651   -2.5795   -1.3117 C   0  0  0  0  0  0  0  0  0  0  0  0
    3.7157   -1.4707   -1.7542 C   0  0  0  0  0  0  0  0  0  0  0  0
    3.1986   -0.6205   -2.2238 H   0  0  0  0  0  0  0  0  0  0  0  0
    5.1104   -1.4430   -1.6054 C   0  0  0  0  0  0  0  0  0  0  0  0
    5.6783   -0.5702   -1.9632 H   0  0  0  0  0  0  0  0  0  0  0  0
    5.7783   -2.5243   -1.0082 C   0  0  0  0  0  0  0  0  0  0  0  0
    6.8727   -2.5043   -0.8920 H   0  0  0  0  0  0  0  0  0  0  0  0
    5.0419   -3.6367   -0.5705 C   0  0  0  0  0  0  0  0  0  0  0  0
    5.5581   -4.4933   -0.1105 H   0  0  0  0  0  0  0  0  0  0  0  0
    3.6468   -3.6633   -0.7209 C   0  0  0  0  0  0  0  0  0  0  0  0
    3.0710   -4.5350   -0.3721 H   0  0  0  0  0  0  0  0  0  0  0  0
    1.1470   -2.8713    1.0894 C   0  0  0  0  0  0  0  0  0  0  0  0
    2.2164   -3.0621    3.1762 C   0  0  0  0  0  0  0  0  0  0  0  0
    2.7472   -2.3889    3.8709 H   0  0  0  0  0  0  0  0  0  0  0  0
    2.8753   -3.8972    2.8636 H   0  0  0  0  0  0  0  0  0  0  0  0
    1.3104   -3.4860    3.6526 H   0  0  0  0  0  0  0  0  0  0  0  0
  3 33  1  0  0  0  0
  4 16  1  0  0  0  0
  5  6  1  0  0  0  0
  6  7  1  0  0  0  0
  8  1  1  0  0  0  0
  8  6  2  0  0  0  0
  9  8  1  0  0  0  0
 10  9  1  0  0  0  0
 11  9  2  0  0  0  0
 11 13  1  0  0  0  0
 12 11  1  0  0  0  0
 13  5  1  0  0  0  0
 14 13  2  0  0  0  0
 14  4  1  0  0  0  0
 15 14  1  0  0  0  0
 16 17  1  1  0  0  0
 16 32  1  0  0  0  0
 18 21  1  0  0  0  0
 18 16  1  0  0  0  0
 19 18  1  0  0  0  0
 20 18  1  0  0  0  0
 21 30  1  0  0  0  0
 22 24  1  0  0  0  0
 22 21  2  0  0  0  0
 23 22  1  0  0  0  0
 24 26  2  0  0  0  0
 25 24  1  0  0  0  0
 26 27  1  0  0  0  0
 26 28  1  0  0  0  0
 28 29  1  0  0  0  0
 30 28  2  0  0  0  0
 30 31  1  0  0  0  0
 32  2  2  0  0  0  0
 32  3  1  0  0  0  0
 33 36  1  0  0  0  0
 33 34  1  0  0  0  0
 35 33  1  0  0  0  0
M  END
