7
q = -2.0, confidence = 0.934

 35 35  0  0  1  0  0  0  0  0999 V2000
    2.3229   -0.4038   -0.9922 S   0  0  0  0  0  0  0  0  0  0  0  0
    2.7577   -1.5548    1.3930 F   0  0  0  0  0  0  0  0  0  0  0  0
    2.4362    0.6048    1.5187 F   0  0  0  0  0  0  0  0  0  0  0  0
    4.3355   -0.1722    0.7814 F   0  0  0  0  0  0  0  0  0  0  0  0
    3.1184   -1.4883   -1.6130 O   0  0  0  0  0  0  0  0  0  0  0  0
    2.4821    1.0012   -1.4242 O   0  0  0  0  0  0  0  0  0  0  0  0
    0.7727   -0.8211   -0.8419 N   0  0  0  0  0  2  0  0  0  0  0  0
    3.0116   -0.3724    0.7776 C   0  0  0  0  0  0  0  0  0  0  0  0
    0.4203   -2.2437   -0.9460 C   0  0  0  0  0  0  0  0  0  0  0  0
   -0.3099   -2.6969    0.3419 C   0  0  0  0  0  0  0  0  0  0  0  0
   -1.3270   -1.6490    0.7235 C   0  0  1  0  0  3  0  0  0  0  0  0
   -1.1782   -0.6713    1.7907 C   0  0  1  0  0  3  0  0  0  0  0  0
   -2.2185    0.3387    1.5908 C   0  0  0  0  0  0  0  0  0  0  0  0
   -3.0033   -0.0179    0.4383 C   0  0  0  0  0  0  0  0  0  0  0  0
   -2.4499   -1.2618   -0.1086 C   0  0  2  0  0  3  0  0  0  0  0  0
   -0.2261   -0.7238    2.9420 C   0  0  0  0  0  0  0  0  0  0  0  0
   -2.4191    1.5372    2.4616 C   0  0  0  0  0  0  0  0  0  0  0  0
   -4.1752    0.7020   -0.1416 C   0  0  0  0  0  0  0  0  0  0  0  0
   -3.0115   -1.9831   -1.2913 C   0  0  0  0  0  0  0  0  0  0  0  0
   -0.2556   -2.3716   -1.8191 H   0  0  0  0  0  0  0  0  0  0  0  0
    1.3220   -2.8588   -1.1424 H   0  0  0  0  0  0  0  0  0  0  0  0
   -0.7998   -3.6801    0.1798 H   0  0  0  0  0  0  0  0  0  0  0  0
    0.4233   -2.8189    1.1612 H   0  0  0  0  0  0  0  0  0  0  0  0
    0.6860   -1.2958    2.6957 H   0  0  0  0  0  0  0  0  0  0  0  0
   -0.7062   -1.2022    3.8231 H   0  0  0  0  0  0  0  0  0  0  0  0
    0.0954    0.2906    3.2450 H   0  0  0  0  0  0  0  0  0  0  0  0
   -1.4516    1.9468    2.8092 H   0  0  0  0  0  0  0  0  0  0  0  0
   -3.0108    1.2661    3.3620 H   0  0  0  0  0  0  0  0  0  0  0  0
   -2.9582    2.3410    1.9268 H   0  0  0  0  0  0  0  0  0  0  0  0
   -4.3473    1.6742    0.3564 H   0  0  0  0  0  0  0  0  0  0  0  0
   -5.0989    0.0937   -0.0412 H   0  0  0  0  0  0  0  0  0  0  0  0
   -3.9970    0.8938   -1.2203 H   0  0  0  0  0  0  0  0  0  0  0  0
   -2.9457   -1.3369   -2.1921 H   0  0  0  0  0  0  0  0  0  0  0  0
   -4.0797   -2.2292   -1.1178 H   0  0  0  0  0  0  0  0  0  0  0  0
   -2.4711   -2.9256   -1.4956 H   0  0  0  0  0  0  0  0  0  0  0  0
  1  7  1  0  0  0  0
  1  8  1  0  0  0  0
  5  1  2  0  0  0  0
  6  1  2  0  0  0  0
  8  4  1  0  0  0  0
  8  2  1  0  0  0  0
  8  3  1  0  0  0  0
  9  7  1  0  0  0  0
  9 10  1  0  0  0  0
 10 23  1  0  0  0  0
 11 10  1  6  0  0  0
 11 12  1  0  0  0  0
 12 16  1  1  0  0  0
 13 12  1  0  0  0  0
 13 17  1  0  0  0  0
 14 13  2  0  0  0  0
 15 19  1  1  0  0  0
 15 14  1  0  0  0  0
 15 11  1  0  0  0  0
 16 26  1  0  0  0  0
 16 25  1  0  0  0  0
 17 27  1  0  0  0  0
 17 28  1  0  0  0  0
 18 31  1  0  0  0  0
 18 30  1  0  0  0  0
 18 14  1  0  0  0  0
 19 34  1  0  0  0  0
 20  9  1  0  0  0  0
 21  9  1  0  0  0  0
 22 10  1  0  0  0  0
 24 16  1  0  0  0  0
 29 17  1  0  0  0  0
 32 18  1  0  0  0  0
 33 19  1  0  0  0  0
 35 19  1  0  0  0  0
M  END
