1,2
q = -1.0, confidence = 0.0

 29 30  0  0  0  0  0  0  0  0999 V2000
    1.8034    1.0697   -0.2899 N   0  0  0  0  0  0  0  0  0  0  0  0
    1.4968   -1.6567    0.0626 C   0  0  0  0  0  3  0  0  0  0  0  0
    1.4680   -2.9276    0.6823 C   0  0  0  0  0  0  0  0  0  0  0  0
    0.5212   -3.3147    1.0862 H   0  0  0  0  0  0  0  0  0  0  0  0
    2.6333   -3.7054    0.7979 C   0  0  0  0  0  0  0  0  0  0  0  0
    2.5803   -4.6925    1.2846 H   0  0  0  0  0  0  0  0  0  0  0  0
    3.8622   -3.2316    0.3120 C   0  0  0  0  0  0  0  0  0  0  0  0
    4.7739   -3.8405    0.4095 H   0  0  0  0  0  0  0  0  0  0  0  0
    3.9202   -1.9608   -0.2828 C   0  0  0  0  0  0  0  0  0  0  0  0
    4.8816   -1.5653   -0.6514 H   0  0  0  0  0  0  0  0  0  0  0  0
    2.7543   -1.1880   -0.4079 C   0  0  0  0  0  0  0  0  0  0  0  0
    2.7513    0.1781   -1.0305 C   0  0  0  0  0  0  0  0  0  0  0  0
    2.3659    0.1254   -2.0712 H   0  0  0  0  0  0  0  0  0  0  0  0
    3.7751    0.6085   -1.0803 H   0  0  0  0  0  0  0  0  0  0  0  0
    2.3393    1.4580    1.0467 C   0  0  0  0  0  0  0  0  0  0  0  0
    2.5988    0.5233    1.5803 H   0  0  0  0  0  0  0  0  0  0  0  0
    1.5005    1.9260    1.6028 H   0  0  0  0  0  0  0  0  0  0  0  0
    3.5272    2.4270    0.9857 C   0  0  0  0  0  0  0  0  0  0  0  0
    4.4171    1.9140    0.5614 H   0  0  0  0  0  0  0  0  0  0  0  0
    3.8052    2.7110    2.0219 H   0  0  0  0  0  0  0  0  0  0  0  0
    3.1908    3.6670    0.1475 C   0  0  0  0  0  0  0  0  0  0  0  0
    2.4042    4.2578    0.6700 H   0  0  0  0  0  0  0  0  0  0  0  0
    4.0727    4.3339    0.0542 H   0  0  0  0  0  0  0  0  0  0  0  0
    2.6687    3.2542   -1.2347 C   0  0  0  0  0  0  0  0  0  0  0  0
    3.4860    2.7912   -1.8283 H   0  0  0  0  0  0  0  0  0  0  0  0
    2.3301    4.1390   -1.8133 H   0  0  0  0  0  0  0  0  0  0  0  0
    1.4948    2.2766   -1.0955 C   0  0  0  0  0  0  0  0  0  0  0  0
    0.6554    2.8022   -0.5972 H   0  0  0  0  0  0  0  0  0  0  0  0
    1.1230    1.9337   -2.0816 H   0  0  0  0  0  0  0  0  0  0  0  0
  1 15  1  0  0  0  0
  2  3  1  0  0  0  0
  3  5  2  0  0  0  0
  3  4  1  0  0  0  0
  5  6  1  0  0  0  0
  7  8  1  0  0  0  0
  7  5  1  0  0  0  0
  9  7  2  0  0  0  0
 10  9  1  0  0  0  0
 11  9  1  0  0  0  0
 11  2  2  0  0  0  0
 12 11  1  0  0  0  0
 12  1  1  0  0  0  0
 13 12  1  0  0  0  0
 14 12  1  0  0  0  0
 15 16  1  0  0  0  0
 15 17  1  0  0  0  0
 18 15  1  0  0  0  0
 18 20  1  0  0  0  0
 19 18  1  0  0  0  0
 21 22  1  0  0  0  0
 21 18  1  0  0  0  0
 23 21  1  0  0  0  0
 24 27  1  0  0  0  0
 24 21  1  0  0  0  0
 25 24  1  0  0  0  0
 26 24  1  0  0  0  0
 27 28  1  0  0  0  0
 27  1  1  0  0  0  0
 29 27  1  0  0  0  0
M  END
