5,60
q = -1.0, confidence = 0.004

 77 83  0  0  1  0  0  0  0  0999 V2000
   -1.0829   -1.1758   -0.6824 C   0  0  0  0  0  0  0  0  0  0  0  0
   -1.9139   -0.0202   -0.3462 C   0  0  0  0  0  0  0  0  0  0  0  0
   -1.1866    1.1727   -0.7467 C   0  0  0  0  0  0  0  0  0  0  0  0
    0.0964    0.7915   -1.2625 C   0  0  0  0  0  0  0  0  0  0  0  0
    0.1799   -0.6803   -1.2113 C   0  0  2  0  0  3  0  0  0  0  0  0
   -1.5019   -2.5987   -0.6659 C   0  0  0  0  0  0  0  0  0  0  0  0
   -2.7484   -2.9605   -1.2214 C   0  0  0  0  0  0  0  0  0  0  0  0
   -3.4135   -2.1785   -1.6149 H   0  0  0  0  0  0  0  0  0  0  0  0
   -3.1406   -4.3058   -1.2744 C   0  0  0  0  0  0  0  0  0  0  0  0
   -4.1177   -4.5701   -1.7065 H   0  0  0  0  0  0  0  0  0  0  0  0
   -2.2945   -5.3090   -0.7775 C   0  0  0  0  0  0  0  0  0  0  0  0
   -2.6054   -6.3641   -0.8146 H   0  0  0  0  0  0  0  0  0  0  0  0
   -1.0513   -4.9582   -0.2260 C   0  0  0  0  0  0  0  0  0  0  0  0
   -0.3841   -5.7370    0.1732 H   0  0  0  0  0  0  0  0  0  0  0  0
   -0.6587   -3.6151   -0.1684 C   0  0  0  0  0  0  0  0  0  0  0  0
    0.3073   -3.3394    0.2776 H   0  0  0  0  0  0  0  0  0  0  0  0
   -3.3280   -0.0769    0.0904 C   0  0  0  0  0  0  0  0  0  0  0  0
   -4.3249    0.5733   -0.6701 C   0  0  0  0  0  0  0  0  0  0  0  0
   -4.0343    1.1503   -1.5605 H   0  0  0  0  0  0  0  0  0  0  0  0
   -5.6741    0.4878   -0.2984 C   0  0  0  0  0  0  0  0  0  0  0  0
   -6.4384    1.0037   -0.8994 H   0  0  0  0  0  0  0  0  0  0  0  0
   -6.0486   -0.2520    0.8343 C   0  0  0  0  0  0  0  0  0  0  0  0
   -7.1075   -0.3172    1.1272 H   0  0  0  0  0  0  0  0  0  0  0  0
   -5.0639   -0.9033    1.5951 C   0  0  0  0  0  0  0  0  0  0  0  0
   -5.3473   -1.4796    2.4888 H   0  0  0  0  0  0  0  0  0  0  0  0
   -3.7144   -0.8140    1.2295 C   0  0  0  0  0  0  0  0  0  0  0  0
   -2.9409   -1.3076    1.8349 H   0  0  0  0  0  0  0  0  0  0  0  0
   -1.7076    2.5521   -0.6677 C   0  0  0  0  0  0  0  0  0  0  0  0
   -2.4255    3.0066    0.4601 C   0  0  0  0  0  0  0  0  0  0  0  0
   -2.5368    2.3450    1.3287 H   0  0  0  0  0  0  0  0  0  0  0  0
   -2.9545    4.3035    0.4815 C   0  0  0  0  0  0  0  0  0  0  0  0
   -3.5042    4.6489    1.3701 H   0  0  0  0  0  0  0  0  0  0  0  0
   -2.7801    5.1612   -0.6165 C   0  0  0  0  0  0  0  0  0  0  0  0
   -3.1982    6.1792   -0.5948 H   0  0  0  0  0  0  0  0  0  0  0  0
   -2.0682    4.7162   -1.7421 C   0  0  0  0  0  0  0  0  0  0  0  0
   -1.9289    5.3809   -2.6082 H   0  0  0  0  0  0  0  0  0  0  0  0
   -1.5316    3.4221   -1.7670 C   0  0  0  0  0  0  0  0  0  0  0  0
   -0.9784    3.0724   -2.6507 H   0  0  0  0  0  0  0  0  0  0  0  0
    1.1976    1.6914   -1.6674 C   0  0  0  0  0  0  0  0  0  0  0  0
    1.9172    1.4598   -2.8592 C   0  0  0  0  0  0  0  0  0  0  0  0
    1.6347    0.6174   -3.5078 H   0  0  0  0  0  0  0  0  0  0  0  0
    2.9842    2.2962   -3.2216 C   0  0  0  0  0  0  0  0  0  0  0  0
    3.5349    2.1030   -4.1548 H   0  0  0  0  0  0  0  0  0  0  0  0
    3.3489    3.3718   -2.3981 C   0  0  0  0  0  0  0  0  0  0  0  0
    4.1874    4.0258   -2.6821 H   0  0  0  0  0  0  0  0  0  0  0  0
    2.6401    3.6071   -1.2063 C   0  0  0  0  0  0  0  0  0  0  0  0
    2.9237    4.4457   -0.5517 H   0  0  0  0  0  0  0  0  0  0  0  0
    1.5762    2.7745   -0.8386 C   0  0  0  0  0  0  0  0  0  0  0  0
    1.0409    2.9319    0.1116 H   0  0  0  0  0  0  0  0  0  0  0  0
    1.3127   -1.4924   -1.6924 C   0  0  0  0  0  0  0  0  0  0  0  0
    1.1110   -2.4227   -2.7318 C   0  0  0  0  0  0  0  0  0  0  0  0
    0.0930   -2.5594   -3.1244 H   0  0  0  0  0  0  0  0  0  0  0  0
    2.1810   -3.1444   -3.2744 C   0  0  0  0  0  0  0  0  0  0  0  0
    2.0001   -3.8602   -4.0903 H   0  0  0  0  0  0  0  0  0  0  0  0
    3.4832   -2.9391   -2.7877 C   0  0  0  0  0  0  0  0  0  0  0  0
    4.3307   -3.4929   -3.2180 H   0  0  0  0  0  0  0  0  0  0  0  0
    3.7023   -2.0326   -1.7467 C   0  0  0  0  0  0  0  0  0  0  0  0
    4.7127   -1.8737   -1.3469 H   0  0  0  0  0  0  0  0  0  0  0  0
    2.6255   -1.3192   -1.1702 C   0  0  0  0  0  0  0  0  0  0  0  0
    2.0873   -0.0198    0.9047 N   0  0  0  0  0  2  0  0  0  0  0  0
    2.9113   -0.4630   -0.0127 C   0  0  1  0  0  3  0  0  0  0  0  0
    4.2134   -0.1604    0.1861 O   0  0  0  0  0  0  0  0  0  0  0  0
    4.2693    0.7415    1.3213 C   0  0  0  0  0  0  0  0  0  0  0  0
    4.4760    1.7579    0.9273 H   0  0  0  0  0  0  0  0  0  0  0  0
    5.1058    0.4208    1.9716 H   0  0  0  0  0  0  0  0  0  0  0  0
    2.8810    0.6272    1.9755 C   0  0  2  0  0  0  0  0  0  0  0  0
    2.4286    1.6194    2.1733 H   0  0  0  0  0  0  0  0  0  0  0  0
    2.8154   -0.1848    3.2888 C   0  0  0  0  0  0  0  0  0  0  0  0
    1.7375   -0.2007    3.5531 H   0  0  0  0  0  0  0  0  0  0  0  0
    3.3027   -1.6267    3.1259 C   0  0  0  0  0  0  0  0  0  0  0  0
    2.7295   -2.1612    2.3422 H   0  0  0  0  0  0  0  0  0  0  0  0
    3.1726   -2.1904    4.0711 H   0  0  0  0  0  0  0  0  0  0  0  0
    4.3800   -1.6762    2.8584 H   0  0  0  0  0  0  0  0  0  0  0  0
    3.5497    0.5615    4.4071 C   0  0  0  0  0  0  0  0  0  0  0  0
    4.6398    0.6459    4.2071 H   0  0  0  0  0  0  0  0  0  0  0  0
    3.4370    0.0280    5.3720 H   0  0  0  0  0  0  0  0  0  0  0  0
    3.1436    1.5851    4.5380 H   0  0  0  0  0  0  0  0  0  0  0  0
  1  6  1  0  0  0  0
  1  2  2  0  0  0  0
  2 17  1  0  0  0  0
  3 28  1  0  0  0  0
  3  2  1  0  0  0  0
  4  5  1  0  0  0  0
  4  3  2  0  0  0  0
  5 50  1  6  0  0  0
  5  1  1  0  0  0  0
  6 15  1  0  0  0  0
  7  6  2  0  0  0  0
  8  7  1  0  0  0  0
  9  7  1  0  0  0  0
  9 11  2  0  0  0  0
 10  9  1  0  0  0  0
 11 13  1  0  0  0  0
 12 11  1  0  0  0  0
 13 15  2  0  0  0  0
 13 14  1  0  0  0  0
 15 16  1  0  0  0  0
 17 26  1  0  0  0  0
 18 20  1  0  0  0  0
 18 17  2  0  0  0  0
 19 18  1  0  0  0  0
 20 22  2  0  0  0  0
 21 20  1  0  0  0  0
 22 23  1  0  0  0  0
 22 24  1  0  0  0  0
 24 25  1  0  0  0  0
 26 24  2  0  0  0  0
 26 27  1  0  0  0  0
 28 29  1  0  0  0  0
 29 31  2  0  0  0  0
 29 30  1  0  0  0  0
 31 32  1  0  0  0  0
 33 34  1  0  0  0  0
 33 31  1  0  0  0  0
 35 33  2  0  0  0  0
 36 35  1  0  0  0  0
 37 35  1  0  0  0  0
 37 28  2  0  0  0  0
 38 37  1  0  0  0  0
 39  4  1  0  0  0  0
 39 48  1  0  0  0  0
 40 39  2  0  0  0  0
 41 40  1  0  0  0  0
 42 40  1  0  0  0  0
 42 44  2  0  0  0  0
 43 42  1  0  0  0  0
 44 46  1  0  0  0  0
 45 44  1  0  0  0  0
 46 48  2  0  0  0  0
 46 47  1  0  0  0  0
 48 49  1  0  0  0  0
 50 59  1  0  0  0  0
 51 50  2  0  0  0  0
 52 51  1  0  0  0  0
 53 55  2  0  0  0  0
 53 51  1  0  0  0  0
 54 53  1  0  0  0  0
 55 57  1  0  0  0  0
 56 55  1  0  0  0  0
 57 58  1  0  0  0  0
 57 59  2  0  0  0  0
 60 66  1  0  0  0  0
 61 59  1  1  0  0  0
 61 62  1  0  0  0  0
 61 60  1  0  0  0  0
 62 63  1  0  0  0  0
 63 65  1  0  0  0  0
 63 66  1  0  0  0  0
 64 63  1  0  0  0  0
 66 67  1  1  0  0  0
 66 68  1  0  0  0  0
 68 69  1  0  0  0  0
 68 74  1  0  0  0  0
 70 68  1  0  0  0  0
 70 72  1  0  0  0  0
 71 70  1  0  0  0  0
 73 70  1  0  0  0  0
 74 77  1  0  0  0  0
 74 76  1  0  0  0  0
 75 74  1  0  0  0  0
M  END
