2,12
q = -1.0, confidence = 0.006

 23 24  0  0  0  0  0  0  0  0999 V2000
    0.0002   -1.7203    4.1669 O   0  0  0  0  0  0  0  0  0  0  0  0
    0.0001    2.6463   -0.3081 N   0  0  0  0  0  2  0  0  0  0  0  0
    0.0003    5.3121    0.5164 N   0  0  0  0  0  0  0  0  0  0  0  0
    0.0001    3.6418   -1.2110 C   0  0  0  0  0  0  0  0  0  0  0  0
    0.0000    3.3225   -2.2680 H   0  0  0  0  0  0  0  0  0  0  0  0
    0.0002    4.9772   -0.7874 C   0  0  0  0  0  0  0  0  0  0  0  0
    0.0002    5.7964   -1.5258 H   0  0  0  0  0  0  0  0  0  0  0  0
    0.0003    4.3120    1.4007 C   0  0  0  0  0  0  0  0  0  0  0  0
    0.0004    4.5896    2.4685 H   0  0  0  0  0  0  0  0  0  0  0  0
    0.0002    2.9451    1.0271 C   0  0  0  0  0  0  0  0  0  0  0  0
    0.0002    1.7875    1.9116 C   0  0  0  0  0  0  0  0  0  0  0  0
    0.0001    0.5014    1.2686 C   0  0  0  0  0  2  0  0  0  0  0  0
    0.0001   -0.6371    2.0826 C   0  0  0  0  0  0  0  0  0  0  0  0
   -0.0000   -1.6539    1.6639 H   0  0  0  0  0  0  0  0  0  0  0  0
    0.0002   -0.5373    3.4930 C   0  0  0  0  0  0  0  0  0  0  0  0
    0.0003    0.7297    4.1180 C   0  0  0  0  0  0  0  0  0  0  0  0
    0.0004    0.8293    5.2108 H   0  0  0  0  0  0  0  0  0  0  0  0
    0.0003    1.8775    3.3178 C   0  0  0  0  0  0  0  0  0  0  0  0
    0.0004    2.8621    3.8107 H   0  0  0  0  0  0  0  0  0  0  0  0
    0.0004   -1.6935    5.5814 C   0  0  0  0  0  0  0  0  0  0  0  0
   -0.9034   -1.1863    5.9878 H   0  0  0  0  0  0  0  0  0  0  0  0
    0.9044   -1.1863    5.9875 H   0  0  0  0  0  0  0  0  0  0  0  0
    0.0005   -2.7479    5.9155 H   0  0  0  0  0  0  0  0  0  0  0  0
  1 20  1  0  0  0  0
  2 10  1  0  0  0  0
  3  8  2  0  0  0  0
  4  6  2  0  0  0  0
  4  2  1  0  0  0  0
  5  4  1  0  0  0  0
  6  3  1  0  0  0  0
  7  6  1  0  0  0  0
  8  9  1  0  0  0  0
 10  8  1  0  0  0  0
 10 11  2  0  0  0  0
 11 18  1  0  0  0  0
 12 11  1  0  0  0  0
 12 13  1  0  0  0  0
 13 15  2  0  0  0  0
 14 13  1  0  0  0  0
 15 16  1  0  0  0  0
 15  1  1  0  0  0  0
 16 17  1  0  0  0  0
 18 19  1  0  0  0  0
 18 16  2  0  0  0  0
 20 23  1  0  0  0  0
 20 22  1  0  0  0  0
 20 21  1  0  0  0  0
M  END
