9,11
q = -2.0, confidence = 0.678

 48 49  0  0  0  0  0  0  0  0999 V2000
    2.3092   -1.9186   -0.4069 P   0  0  0  0  0  4  0  0  0  0  0  0
    2.4916    0.5597   -1.9206 S   0  0  0  0  0  0  0  0  0  0  0  0
    1.5319   -0.0058   -2.9222 O   0  0  0  0  0  0  0  0  0  0  0  0
    3.9239    0.3598   -2.2272 O   0  0  0  0  0  0  0  0  0  0  0  0
    0.4205    3.8623    1.7940 O   0  0  0  0  0  0  0  0  0  0  0  0
   -0.6902    1.9421    2.3052 O   0  0  0  0  0  0  0  0  0  0  0  0
    0.4502    4.7057   -1.1226 O   0  0  0  0  0  0  0  0  0  0  0  0
    2.5191    4.6912   -0.1814 O   0  0  0  0  0  0  0  0  0  0  0  0
    2.2165   -0.2753   -0.3855 N   0  0  0  0  0  2  0  0  0  0  0  0
    2.2217    2.1200   -1.5985 N   0  0  0  0  0  0  0  0  0  0  0  0
    0.6624    1.9581    0.3645 C   0  0  0  0  0  2  0  0  0  0  0  0
    1.4662    2.5883   -0.5945 C   0  0  0  0  0  0  0  0  0  0  0  0
    0.1637    2.6917    1.5062 C   0  0  0  0  0  0  0  0  0  0  0  0
   -1.2309    2.6377    3.4240 C   0  0  0  0  0  0  0  0  0  0  0  0
    1.3980    4.1133   -0.6396 C   0  0  0  0  0  0  0  0  0  0  0  0
    2.4770    6.1207   -0.1323 C   0  0  0  0  0  0  0  0  0  0  0  0
    3.4940   -2.5867   -1.6072 C   0  0  0  0  0  0  0  0  0  0  0  0
    2.7776   -2.4440    1.2644 C   0  0  0  0  0  0  0  0  0  0  0  0
    2.8250   -3.8112    1.6047 C   0  0  0  0  0  0  0  0  0  0  0  0
    3.1981   -4.1875    2.9023 C   0  0  0  0  0  0  0  0  0  0  0  0
    3.5158   -3.2036    3.8547 C   0  0  0  0  0  0  0  0  0  0  0  0
    3.4611   -1.8429    3.5129 C   0  0  0  0  0  0  0  0  0  0  0  0
    3.0938   -1.4550    2.2155 C   0  0  0  0  0  0  0  0  0  0  0  0
    0.6444   -2.6099   -0.7352 C   0  0  0  0  0  0  0  0  0  0  0  0
   -0.2647   -2.7479    0.3477 C   0  0  0  0  0  0  0  0  0  0  0  0
   -1.5850   -3.1654    0.0976 C   0  0  0  0  0  0  0  0  0  0  0  0
   -1.9946   -3.4536   -1.2112 C   0  0  0  0  0  0  0  0  0  0  0  0
   -1.0967   -3.3067   -2.2828 C   0  0  0  0  0  0  0  0  0  0  0  0
    0.2147   -2.8733   -2.0547 C   0  0  0  0  0  0  0  0  0  0  0  0
    2.5609   -4.5823    0.8633 H   0  0  0  0  0  0  0  0  0  0  0  0
    3.2389   -5.2531    3.1735 H   0  0  0  0  0  0  0  0  0  0  0  0
    3.8066   -3.5028    4.8732 H   0  0  0  0  0  0  0  0  0  0  0  0
    3.7060   -1.0742    4.2610 H   0  0  0  0  0  0  0  0  0  0  0  0
    3.0358   -0.3963    1.9179 H   0  0  0  0  0  0  0  0  0  0  0  0
    0.0832   -2.5929    1.3804 H   0  0  0  0  0  0  0  0  0  0  0  0
   -2.2895   -3.2679    0.9360 H   0  0  0  0  0  0  0  0  0  0  0  0
   -3.0261   -3.7806   -1.4048 H   0  0  0  0  0  0  0  0  0  0  0  0
   -1.4315   -3.5100   -3.3098 H   0  0  0  0  0  0  0  0  0  0  0  0
    0.8948   -2.7047   -2.9010 H   0  0  0  0  0  0  0  0  0  0  0  0
   -1.9071    1.9230    3.9297 H   0  0  0  0  0  0  0  0  0  0  0  0
   -1.7960    3.5401    3.1084 H   0  0  0  0  0  0  0  0  0  0  0  0
   -0.4304    2.9695    4.1173 H   0  0  0  0  0  0  0  0  0  0  0  0
    2.2693    6.5489   -1.1336 H   0  0  0  0  0  0  0  0  0  0  0  0
    3.4685    6.4459    0.2303 H   0  0  0  0  0  0  0  0  0  0  0  0
    1.6818    6.4503    0.5673 H   0  0  0  0  0  0  0  0  0  0  0  0
    4.4847   -2.1566   -1.3706 H   0  0  0  0  0  0  0  0  0  0  0  0
    3.2068   -2.2374   -2.6170 H   0  0  0  0  0  0  0  0  0  0  0  0
    3.5102   -3.6917   -1.5477 H   0  0  0  0  0  0  0  0  0  0  0  0
  1  9  1  0  0  0  0
  1 18  1  0  0  0  0
  2 10  1  0  0  0  0
  2  9  1  0  0  0  0
  3  2  2  0  0  0  0
  4  2  2  0  0  0  0
  6 14  1  0  0  0  0
  7 15  2  0  0  0  0
  8 16  1  0  0  0  0
 10 12  2  0  0  0  0
 11 13  1  0  0  0  0
 12 11  1  0  0  0  0
 13  5  2  0  0  0  0
 13  6  1  0  0  0  0
 14 40  1  0  0  0  0
 14 42  1  0  0  0  0
 15 12  1  0  0  0  0
 15  8  1  0  0  0  0
 16 44  1  0  0  0  0
 16 45  1  0  0  0  0
 17 48  1  0  0  0  0
 17 46  1  0  0  0  0
 17  1  1  0  0  0  0
 18 19  2  0  0  0  0
 18 23  1  0  0  0  0
 19 20  1  0  0  0  0
 20 31  1  0  0  0  0
 20 21  2  0  0  0  0
 21 32  1  0  0  0  0
 22 21  1  0  0  0  0
 22 33  1  0  0  0  0
 23 22  2  0  0  0  0
 24  1  1  0  0  0  0
 24 25  1  0  0  0  0
 25 35  1  0  0  0  0
 26 25  2  0  0  0  0
 26 36  1  0  0  0  0
 27 26  1  0  0  0  0
 28 29  1  0  0  0  0
 28 27  2  0  0  0  0
 29 24  2  0  0  0  0
 30 19  1  0  0  0  0
 34 23  1  0  0  0  0
 37 27  1  0  0  0  0
 38 28  1  0  0  0  0
 39 29  1  0  0  0  0
 41 14  1  0  0  0  0
 43 16  1  0  0  0  0
 47 17  1  0  0  0  0
M  END
