3,4
q = -1.0, confidence = 0.004

 32 34  0  0  0  0  0  0  0  0999 V2000
    6.6501   -1.5085   -0.4405 O   0  0  0  0  0  0  0  0  0  0  0  0
    7.2173    0.6747   -0.3659 O   0  0  0  0  0  0  0  0  0  0  0  0
    2.0866    0.3047    0.1741 N   0  0  0  0  0  2  0  0  0  0  0  0
    0.3296   -1.7025    0.3868 C   0  0  0  0  0  2  0  0  0  0  0  0
   -0.5650   -2.7706    0.6199 C   0  0  0  0  0  0  0  0  0  0  0  0
   -1.6342   -2.5753    0.7768 H   0  0  0  0  0  0  0  0  0  0  0  0
   -0.1308   -4.1045    0.6576 C   0  0  0  0  0  0  0  0  0  0  0  0
   -0.8642   -4.9048    0.8444 H   0  0  0  0  0  0  0  0  0  0  0  0
    1.2227   -4.4253    0.4553 C   0  0  0  0  0  0  0  0  0  0  0  0
    1.5598   -5.4722    0.4772 H   0  0  0  0  0  0  0  0  0  0  0  0
    2.1396   -3.3946    0.2336 C   0  0  0  0  0  0  0  0  0  0  0  0
    3.2020   -3.6403    0.0861 H   0  0  0  0  0  0  0  0  0  0  0  0
    1.7119   -2.0481    0.2112 C   0  0  0  0  0  0  0  0  0  0  0  0
    2.6420   -0.9275    0.0872 C   0  0  0  0  0  0  0  0  0  0  0  0
    4.0442   -1.0746   -0.0625 C   0  0  0  0  0  0  0  0  0  0  0  0
    4.4686   -2.0751   -0.1989 H   0  0  0  0  0  0  0  0  0  0  0  0
    4.8899    0.0256   -0.0619 C   0  0  0  0  0  0  0  0  0  0  0  0
    4.3278    1.3281    0.1899 C   0  0  0  0  0  0  0  0  0  0  0  0
    5.1002    2.5148    0.3430 C   0  0  0  0  0  0  0  0  0  0  0  0
    6.1866    2.4429    0.2190 H   0  0  0  0  0  0  0  0  0  0  0  0
    4.4917    3.7224    0.6573 C   0  0  0  0  0  0  0  0  0  0  0  0
    5.1082    4.6257    0.7805 H   0  0  0  0  0  0  0  0  0  0  0  0
    3.0901    3.7922    0.8399 C   0  0  0  0  0  0  0  0  0  0  0  0
    2.6162    4.7459    1.1170 H   0  0  0  0  0  0  0  0  0  0  0  0
    2.2995    2.6656    0.6703 C   0  0  0  0  0  0  0  0  0  0  0  0
    1.2110    2.7130    0.7896 H   0  0  0  0  0  0  0  0  0  0  0  0
    2.8878    1.4170    0.3257 C   0  0  0  0  0  0  0  0  0  0  0  0
    6.3576   -0.1886   -0.2978 C   0  0  0  0  0  0  0  0  0  0  0  0
    8.0292   -1.8039   -0.6812 C   0  0  0  0  0  0  0  0  0  0  0  0
    8.3791   -1.3193   -1.6151 H   0  0  0  0  0  0  0  0  0  0  0  0
    8.0956   -2.9028   -0.7671 H   0  0  0  0  0  0  0  0  0  0  0  0
    8.6622   -1.4401    0.1533 H   0  0  0  0  0  0  0  0  0  0  0  0
  1 28  1  0  0  0  0
  2 28  2  0  0  0  0
  3 27  1  0  0  0  0
  4  5  1  0  0  0  0
  5  7  2  0  0  0  0
  5  6  1  0  0  0  0
  7  8  1  0  0  0  0
  9 10  1  0  0  0  0
  9  7  1  0  0  0  0
 11  9  2  0  0  0  0
 12 11  1  0  0  0  0
 13 11  1  0  0  0  0
 13  4  1  0  0  0  0
 14  3  1  0  0  0  0
 14 13  2  0  0  0  0
 15 17  2  0  0  0  0
 15 14  1  0  0  0  0
 16 15  1  0  0  0  0
 17 18  1  0  0  0  0
 18 27  2  0  0  0  0
 18 19  1  0  0  0  0
 19 21  2  0  0  0  0
 20 19  1  0  0  0  0
 21 22  1  0  0  0  0
 21 23  1  0  0  0  0
 23 24  1  0  0  0  0
 25 26  1  0  0  0  0
 25 23  2  0  0  0  0
 27 25  1  0  0  0  0
 28 17  1  0  0  0  0
 29  1  1  0  0  0  0
 29 32  1  0  0  0  0
 30 29  1  0  0  0  0
 31 29  1  0  0  0  0
M  END
