1,12
q = 0.0, confidence = 0.988

 30 32  0  0  0  0  0  0  0  0999 V2000
    0.9006    1.9149   -0.0545 N   0  0  0  0  0  2  0  0  0  0  0  0
    1.8656    2.8521   -0.1964 C   0  0  0  0  0  3  0  0  0  0  0  0
    2.8926    2.4756   -0.2864 H   0  0  0  0  0  0  0  0  0  0  0  0
    1.5726    4.2169   -0.2377 C   0  0  0  0  0  0  0  0  0  0  0  0
    2.3916    4.9407   -0.3501 H   0  0  0  0  0  0  0  0  0  0  0  0
    0.2341    4.6386   -0.1491 C   0  0  0  0  0  0  0  0  0  0  0  0
   -0.0212    5.7074   -0.1871 H   0  0  0  0  0  0  0  0  0  0  0  0
   -0.7759    3.6787   -0.0272 C   0  0  0  0  0  0  0  0  0  0  0  0
   -1.8421    3.9363    0.0234 H   0  0  0  0  0  0  0  0  0  0  0  0
   -0.3860    2.3370    0.0142 C   0  0  0  0  0  0  0  0  0  0  0  0
   -1.2759    1.2583    0.1010 N   0  0  0  0  0  0  0  0  0  0  0  0
   -0.7895   -0.0426    0.0723 C   0  0  0  0  0  3  0  0  0  0  0  0
   -1.9748   -0.7963    0.0278 C   0  0  0  0  0  0  0  0  0  0  0  0
   -2.1771   -2.2657   -0.0652 C   0  0  0  0  0  0  0  0  0  0  0  0
   -1.3223   -2.7800    0.4047 H   0  0  0  0  0  0  0  0  0  0  0  0
   -2.2155   -2.5980   -1.1234 H   0  0  0  0  0  0  0  0  0  0  0  0
   -3.1101   -2.5895    0.4334 H   0  0  0  0  0  0  0  0  0  0  0  0
   -2.6009    1.3876    0.0917 N   0  0  0  0  0  2  0  0  0  0  0  0
   -3.0097    0.1260    0.0457 N   0  0  0  0  0  0  0  0  0  0  0  0
   -4.4230   -0.1293    0.0545 C   0  0  0  0  0  0  0  0  0  0  0  0
   -4.9833   -0.9663   -0.9243 C   0  0  0  0  0  0  0  0  0  0  0  0
   -4.3531   -1.4053   -1.7100 H   0  0  0  0  0  0  0  0  0  0  0  0
   -6.3653   -1.1997   -0.9021 C   0  0  0  0  0  0  0  0  0  0  0  0
   -6.8173   -1.8476   -1.6672 H   0  0  0  0  0  0  0  0  0  0  0  0
   -7.1693   -0.5977    0.0791 C   0  0  0  0  0  0  0  0  0  0  0  0
   -8.2531   -0.7842    0.0896 H   0  0  0  0  0  0  0  0  0  0  0  0
   -6.5945    0.2468    1.0432 C   0  0  0  0  0  0  0  0  0  0  0  0
   -7.2248    0.7211    1.8096 H   0  0  0  0  0  0  0  0  0  0  0  0
   -5.2143    0.4861    1.0386 C   0  0  0  0  0  0  0  0  0  0  0  0
   -4.7449    1.1404    1.7863 H   0  0  0  0  0  0  0  0  0  0  0  0
  1 10  1  0  0  0  0
  2  1  1  0  0  0  0
  3  2  1  0  0  0  0
  4  2  1  0  0  0  0
  4  6  2  0  0  0  0
  5  4  1  0  0  0  0
  6  8  1  0  0  0  0
  7  6  1  0  0  0  0
  8 10  2  0  0  0  0
  8  9  1  0  0  0  0
 10 11  1  0  0  0  0
 12 11  1  0  0  0  0
 13 19  1  0  0  0  0
 13 12  2  0  0  0  0
 14 13  1  0  0  0  0
 14 15  1  0  0  0  0
 14 17  1  0  0  0  0
 16 14  1  0  0  0  0
 18 11  1  0  0  0  0
 19 20  1  0  0  0  0
 19 18  1  0  0  0  0
 20 29  1  0  0  0  0
 21 23  1  0  0  0  0
 21 20  2  0  0  0  0
 22 21  1  0  0  0  0
 23 25  2  0  0  0  0
 24 23  1  0  0  0  0
 25 26  1  0  0  0  0
 25 27  1  0  0  0  0
 27 28  1  0  0  0  0
 29 27  2  0  0  0  0
 29 30  1  0  0  0  0
M  END
