2,19
q = 0.0, confidence = 0.988

 33 36  0  0  1  0  0  0  0  0999 V2000
   -2.0726    1.7573   -0.4164 N   0  0  0  0  0  0  0  0  0  0  0  0
   -0.8582    1.1374   -0.3855 C   0  0  0  0  0  2  0  0  0  0  0  0
    0.0490    2.1830   -0.3579 N   0  0  0  0  0  0  0  0  0  0  0  0
   -0.5944    3.4222   -0.3323 C   0  0  0  0  0  0  0  0  0  0  0  0
   -0.0672    4.3784   -0.3052 H   0  0  0  0  0  0  0  0  0  0  0  0
   -1.9325    3.1481   -0.3680 C   0  0  0  0  0  0  0  0  0  0  0  0
   -2.7984    3.8155   -0.3943 H   0  0  0  0  0  0  0  0  0  0  0  0
   -3.3256    1.0688   -0.4875 C   0  0  0  0  0  0  0  0  0  0  0  0
   -3.5545    0.1640   -1.5369 C   0  0  0  0  0  0  0  0  0  0  0  0
   -2.7723   -0.0056   -2.2901 H   0  0  0  0  0  0  0  0  0  0  0  0
   -4.7717   -0.5274   -1.5870 C   0  0  0  0  0  0  0  0  0  0  0  0
   -4.9523   -1.2476   -2.3984 H   0  0  0  0  0  0  0  0  0  0  0  0
   -5.7522   -0.3064   -0.6069 C   0  0  0  0  0  0  0  0  0  0  0  0
   -6.7044   -0.8557   -0.6485 H   0  0  0  0  0  0  0  0  0  0  0  0
   -5.5152    0.6072    0.4320 C   0  0  0  0  0  0  0  0  0  0  0  0
   -6.2760    0.7710    1.2094 H   0  0  0  0  0  0  0  0  0  0  0  0
   -4.2966    1.2968    0.5001 C   0  0  0  0  0  0  0  0  0  0  0  0
   -4.0793    1.9843    1.3306 H   0  0  0  0  0  0  0  0  0  0  0  0
    1.7109    0.5699   -0.3909 N   0  0  0  0  0  2  0  0  0  0  0  0
    1.4117    1.8779   -0.3302 C   0  0  0  0  0  0  0  0  0  0  0  0
    2.4104    2.8901   -0.2569 C   0  0  0  0  0  0  0  0  0  0  0  0
    2.1169    3.9499   -0.1698 H   0  0  0  0  0  0  0  0  0  0  0  0
    3.6960    2.6090   -0.2685 N   0  0  0  0  0  0  0  0  0  0  0  0
    5.4250    0.9557   -0.4584 C   0  0  0  0  0  0  0  0  0  0  0  0
    6.1483    1.7797   -0.3797 H   0  0  0  0  0  0  0  0  0  0  0  0
    5.8154   -0.3643   -0.6248 C   0  0  0  0  0  0  0  0  0  0  0  0
    6.8831   -0.6240   -0.6754 H   0  0  0  0  0  0  0  0  0  0  0  0
    4.8350   -1.3841   -0.7426 C   0  0  0  0  0  0  0  0  0  0  0  0
    5.1494   -2.4271   -0.8962 H   0  0  0  0  0  0  0  0  0  0  0  0
    3.4802   -1.0885   -0.6679 C   0  0  0  0  0  0  0  0  0  0  0  0
    2.7213   -1.8722   -0.7738 H   0  0  0  0  0  0  0  0  0  0  0  0
    3.0523    0.2493   -0.4763 C   0  0  1  0  0  3  0  0  0  0  0  0
    4.0451    1.2948   -0.3954 C   0  0  0  0  0  0  0  0  0  0  0  0
  1  2  1  0  0  0  0
  1  6  1  0  0  0  0
  2  3  1  0  0  0  0
  3  4  1  0  0  0  0
  3 20  1  0  0  0  0
  4  5  1  0  0  0  0
  6  4  2  0  0  0  0
  7  6  1  0  0  0  0
  8  1  1  0  0  0  0
  8 17  1  0  0  0  0
  9  8  2  0  0  0  0
 10  9  1  0  0  0  0
 11  9  1  0  0  0  0
 11 13  2  0  0  0  0
 12 11  1  0  0  0  0
 13 15  1  0  0  0  0
 14 13  1  0  0  0  0
 15 17  2  0  0  0  0
 15 16  1  0  0  0  0
 17 18  1  0  0  0  0
 19 20  1  0  0  0  0
 20 21  2  0  0  0  0
 21 22  1  0  0  0  0
 23 21  1  0  0  0  0
 24 33  1  0  0  0  0
 24 25  1  0  0  0  0
 26 24  2  0  0  0  0
 27 26  1  0  0  0  0
 28 30  2  0  0  0  0
 28 26  1  0  0  0  0
 29 28  1  0  0  0  0
 31 30  1  0  0  0  0
 32 30  1  6  0  0  0
 32 33  1  0  0  0  0
 32 19  1  0  0  0  0
 33 23  2  0  0  0  0
M  END
