2,8
q = 0.0, confidence = 0.988

 27 29  0  0  1  0  0  0  0  0999 V2000
    1.5667    1.8256    0.0989 N   0  0  0  0  0  0  0  0  0  0  0  0
    0.3767    1.1706    0.2037 C   0  0  0  0  0  2  0  0  0  0  0  0
   -0.5581    2.1916    0.1185 N   0  0  0  0  0  0  0  0  0  0  0  0
    0.0351    3.4457   -0.0245 C   0  0  0  0  0  0  0  0  0  0  0  0
   -0.5626    4.3555   -0.1188 H   0  0  0  0  0  0  0  0  0  0  0  0
    1.3794    3.2107   -0.0332 C   0  0  0  0  0  0  0  0  0  0  0  0
    2.2267    3.8922   -0.1495 H   0  0  0  0  0  0  0  0  0  0  0  0
   -2.1832    0.5504    0.2113 N   0  0  0  0  0  2  0  0  0  0  0  0
   -1.9176    1.8811    0.0994 C   0  0  2  0  0  3  0  0  0  0  0  0
   -2.8004    2.8654   -0.0284 N   0  0  0  0  0  0  0  0  0  0  0  0
   -4.0923    2.5055   -0.0679 C   0  0  0  0  0  0  0  0  0  0  0  0
   -4.8293    3.3193   -0.1745 H   0  0  0  0  0  0  0  0  0  0  0  0
   -4.4930    1.1627    0.0173 C   0  0  0  0  0  0  0  0  0  0  0  0
   -5.5503    0.8692   -0.0258 H   0  0  0  0  0  0  0  0  0  0  0  0
   -3.4881    0.2023    0.1584 C   0  0  0  0  0  0  0  0  0  0  0  0
   -3.7069   -0.8729    0.2303 H   0  0  0  0  0  0  0  0  0  0  0  0
    2.8499    1.1900    0.0229 C   0  0  0  0  0  0  0  0  0  0  0  0
    3.0764    0.2326   -0.9785 C   0  0  0  0  0  0  0  0  0  0  0  0
    2.2595   -0.0304   -1.6710 H   0  0  0  0  0  0  0  0  0  0  0  0
    4.3342   -0.3811   -1.0534 C   0  0  0  0  0  0  0  0  0  0  0  0
    4.5149   -1.1457   -1.8232 H   0  0  0  0  0  0  0  0  0  0  0  0
    5.3532   -0.0266   -0.1553 C   0  0  0  0  0  0  0  0  0  0  0  0
    6.3382   -0.5124   -0.2212 H   0  0  0  0  0  0  0  0  0  0  0  0
    5.1163    0.9436    0.8322 C   0  0  0  0  0  0  0  0  0  0  0  0
    5.9108    1.2170    1.5423 H   0  0  0  0  0  0  0  0  0  0  0  0
    3.8584    1.5554    0.9294 C   0  0  0  0  0  0  0  0  0  0  0  0
    3.6492    2.2978    1.7139 H   0  0  0  0  0  0  0  0  0  0  0  0
  1  2  1  0  0  0  0
  3  2  1  0  0  0  0
  4  3  1  0  0  0  0
  5  4  1  0  0  0  0
  6  4  2  0  0  0  0
  6  1  1  0  0  0  0
  7  6  1  0  0  0  0
  9  3  1  6  0  0  0
  9  8  1  0  0  0  0
 10  9  1  0  0  0  0
 11 10  2  0  0  0  0
 11 13  1  0  0  0  0
 12 11  1  0  0  0  0
 13 15  2  0  0  0  0
 14 13  1  0  0  0  0
 15  8  1  0  0  0  0
 15 16  1  0  0  0  0
 17  1  1  0  0  0  0
 17 26  1  0  0  0  0
 18 17  2  0  0  0  0
 19 18  1  0  0  0  0
 20 18  1  0  0  0  0
 20 22  2  0  0  0  0
 21 20  1  0  0  0  0
 22 24  1  0  0  0  0
 23 22  1  0  0  0  0
 24 26  2  0  0  0  0
 24 25  1  0  0  0  0
 26 27  1  0  0  0  0
M  END
