3,5
q = 0.0, confidence = 0.976

 36 38  0  0  1  0  0  0  0  0999 V2000
    1.2646    1.7927   -0.0001 N   0  0  0  0  0  0  0  0  0  0  0  0
   -0.8829    1.5055    0.0001 N   0  0  0  0  0  0  0  0  0  0  0  0
    2.7549    0.0470   -0.0001 N   0  0  0  0  0  2  0  0  0  0  0  0
    3.5709    2.3068   -0.0001 N   0  0  0  0  0  0  0  0  0  0  0  0
    0.2829    0.8066    0.0000 C   0  0  0  0  0  2  0  0  0  0  0  0
   -0.6359    2.8869    0.0000 C   0  0  0  0  0  0  0  0  0  0  0  0
   -1.4616    3.6044    0.0000 H   0  0  0  0  0  0  0  0  0  0  0  0
    0.7180    3.0735   -0.0001 C   0  0  0  0  0  0  0  0  0  0  0  0
    1.3477    3.9669   -0.0001 H   0  0  0  0  0  0  0  0  0  0  0  0
    2.6043    1.3999   -0.0001 C   0  0  1  0  0  3  0  0  0  0  0  0
    4.8276    1.8254   -0.0002 C   0  0  0  0  0  0  0  0  0  0  0  0
    5.6391    2.5724   -0.0002 H   0  0  0  0  0  0  0  0  0  0  0  0
    5.1035    0.4490   -0.0001 C   0  0  0  0  0  0  0  0  0  0  0  0
    6.1338    0.0681   -0.0002 H   0  0  0  0  0  0  0  0  0  0  0  0
    4.0160   -0.4328   -0.0001 C   0  0  0  0  0  0  0  0  0  0  0  0
    4.0773   -1.5379   -0.0000 H   0  0  0  0  0  0  0  0  0  0  0  0
   -2.2156    0.9526   -0.0000 C   0  0  0  0  0  0  0  0  0  0  0  0
   -2.8356    0.6925    1.2378 C   0  0  0  0  0  0  0  0  0  0  0  0
   -4.1450    0.1858    1.2090 C   0  0  0  0  0  0  0  0  0  0  0  0
   -4.6488   -0.0302    2.1647 H   0  0  0  0  0  0  0  0  0  0  0  0
   -4.8164   -0.0731   -0.0002 C   0  0  0  0  0  0  0  0  0  0  0  0
   -4.1447    0.1854   -1.2094 C   0  0  0  0  0  0  0  0  0  0  0  0
   -4.6481   -0.0309   -2.1651 H   0  0  0  0  0  0  0  0  0  0  0  0
   -2.8353    0.6921   -1.2379 C   0  0  0  0  0  0  0  0  0  0  0  0
   -2.0827    0.8598    2.5296 C   0  0  0  0  0  0  0  0  0  0  0  0
   -2.7565    0.7680    3.4017 H   0  0  0  0  0  0  0  0  0  0  0  0
   -1.5583    1.8348    2.5957 H   0  0  0  0  0  0  0  0  0  0  0  0
   -1.3095    0.0648    2.6068 H   0  0  0  0  0  0  0  0  0  0  0  0
   -6.2036   -0.6637   -0.0003 C   0  0  0  0  0  0  0  0  0  0  0  0
   -6.7778   -0.3623   -0.8984 H   0  0  0  0  0  0  0  0  0  0  0  0
   -6.7776   -0.3630    0.8980 H   0  0  0  0  0  0  0  0  0  0  0  0
   -6.1544   -1.7738   -0.0008 H   0  0  0  0  0  0  0  0  0  0  0  0
   -2.0819    0.8589   -2.5295 C   0  0  0  0  0  0  0  0  0  0  0  0
   -2.7555    0.7669   -3.4019 H   0  0  0  0  0  0  0  0  0  0  0  0
   -1.3088    0.0639   -2.6063 H   0  0  0  0  0  0  0  0  0  0  0  0
   -1.5575    1.8339   -2.5958 H   0  0  0  0  0  0  0  0  0  0  0  0
  1  5  1  0  0  0  0
  4 10  1  0  0  0  0
  5  2  1  0  0  0  0
  6  2  1  0  0  0  0
  7  6  1  0  0  0  0
  8  1  1  0  0  0  0
  8  6  2  0  0  0  0
  9  8  1  0  0  0  0
 10  1  1  6  0  0  0
 10  3  1  0  0  0  0
 11 13  1  0  0  0  0
 11  4  2  0  0  0  0
 12 11  1  0  0  0  0
 13 15  2  0  0  0  0
 14 13  1  0  0  0  0
 15  3  1  0  0  0  0
 15 16  1  0  0  0  0
 17  2  1  0  0  0  0
 17 18  1  0  0  0  0
 18 25  1  0  0  0  0
 19 18  2  0  0  0  0
 19 20  1  0  0  0  0
 21 19  1  0  0  0  0
 22 21  2  0  0  0  0
 23 22  1  0  0  0  0
 24 22  1  0  0  0  0
 24 17  2  0  0  0  0
 25 27  1  0  0  0  0
 25 28  1  0  0  0  0
 25 26  1  0  0  0  0
 29 21  1  0  0  0  0
 29 31  1  0  0  0  0
 30 29  1  0  0  0  0
 32 29  1  0  0  0  0
 33 24  1  0  0  0  0
 34 33  1  0  0  0  0
 35 33  1  0  0  0  0
 36 33  1  0  0  0  0
M  END
