3,5
q = 0.0, confidence = 0.994

 45 47  0  0  1  0  0  0  0  0999 V2000
    0.3966    2.2807    0.3062 N   0  0  0  0  0  0  0  0  0  0  0  0
    2.1435    1.0122    0.2261 N   0  0  0  0  0  0  0  0  0  0  0  0
   -1.7701    1.6096   -0.0951 N   0  0  0  0  0  2  0  0  0  0  0  0
   -1.3105    3.8904    0.5062 N   0  0  0  0  0  0  0  0  0  0  0  0
    0.7877    0.9616    0.0709 C   0  0  0  0  0  2  0  0  0  0  0  0
    2.5788    2.3069    0.5442 C   0  0  0  0  0  0  0  0  0  0  0  0
    3.6390    2.5254    0.7002 H   0  0  0  0  0  0  0  0  0  0  0  0
   -0.9584    2.6363    0.2420 C   0  0  1  0  0  3  0  0  0  0  0  0
   -2.6282    4.1503    0.4320 C   0  0  0  0  0  0  0  0  0  0  0  0
   -2.9377    5.1859    0.6528 H   0  0  0  0  0  0  0  0  0  0  0  0
   -3.5689    3.1671    0.0925 C   0  0  0  0  0  0  0  0  0  0  0  0
   -4.6427    3.3900    0.0350 H   0  0  0  0  0  0  0  0  0  0  0  0
    4.3662   -1.5518   -1.3018 C   0  0  0  0  0  0  0  0  0  0  0  0
    4.7629   -1.8379   -2.2869 H   0  0  0  0  0  0  0  0  0  0  0  0
    1.4762    3.1102    0.5969 C   0  0  0  0  0  0  0  0  0  0  0  0
    1.3372    4.1734    0.8084 H   0  0  0  0  0  0  0  0  0  0  0  0
    3.3685   -0.8429    1.2562 C   0  0  0  0  0  0  0  0  0  0  0  0
    3.0383   -0.1085    0.0925 C   0  0  0  0  0  0  0  0  0  0  0  0
    4.2022   -1.9640    1.0887 C   0  0  0  0  0  0  0  0  0  0  0  0
    4.4714   -2.5717    1.9645 H   0  0  0  0  0  0  0  0  0  0  0  0
   -3.0861    1.8785   -0.1734 C   0  0  0  0  0  0  0  0  0  0  0  0
   -3.7478    1.0470   -0.4574 H   0  0  0  0  0  0  0  0  0  0  0  0
    2.8046   -0.4765    2.6244 C   0  0  0  0  0  0  0  0  0  0  0  0
    2.5062    0.5923    2.5869 H   0  0  0  0  0  0  0  0  0  0  0  0
    4.6867   -2.3206   -0.1763 C   0  0  0  0  0  0  0  0  0  0  0  0
    5.3291   -3.2076   -0.2850 H   0  0  0  0  0  0  0  0  0  0  0  0
    3.5384   -0.4187   -1.1933 C   0  0  0  0  0  0  0  0  0  0  0  0
    3.1658    0.4002   -2.4234 C   0  0  0  0  0  0  0  0  0  0  0  0
    2.7634    1.3718   -2.0683 H   0  0  0  0  0  0  0  0  0  0  0  0
    2.0464   -0.2914   -3.2237 C   0  0  0  0  0  0  0  0  0  0  0  0
    1.7789    0.3111   -4.1158 H   0  0  0  0  0  0  0  0  0  0  0  0
    1.1354   -0.4246   -2.6068 H   0  0  0  0  0  0  0  0  0  0  0  0
    2.3717   -1.2934   -3.5722 H   0  0  0  0  0  0  0  0  0  0  0  0
    1.5342   -1.2922    2.9312 C   0  0  0  0  0  0  0  0  0  0  0  0
    0.7410   -1.1129    2.1790 H   0  0  0  0  0  0  0  0  0  0  0  0
    1.1317   -1.0208    3.9283 H   0  0  0  0  0  0  0  0  0  0  0  0
    1.7575   -2.3790    2.9350 H   0  0  0  0  0  0  0  0  0  0  0  0
    4.3828    0.7103   -3.3089 C   0  0  0  0  0  0  0  0  0  0  0  0
    4.0927    1.3950   -4.1312 H   0  0  0  0  0  0  0  0  0  0  0  0
    4.7942   -0.2057   -3.7802 H   0  0  0  0  0  0  0  0  0  0  0  0
    5.1992    1.1897   -2.7321 H   0  0  0  0  0  0  0  0  0  0  0  0
    3.8435   -0.6155    3.7474 C   0  0  0  0  0  0  0  0  0  0  0  0
    4.7752   -0.0596    3.5191 H   0  0  0  0  0  0  0  0  0  0  0  0
    4.1164   -1.6754    3.9287 H   0  0  0  0  0  0  0  0  0  0  0  0
    3.4308   -0.2226    4.6982 H   0  0  0  0  0  0  0  0  0  0  0  0
  1 15  1  0  0  0  0
  2  6  1  0  0  0  0
  3  8  1  0  0  0  0
  5  2  1  0  0  0  0
  5  1  1  0  0  0  0
  6 15  2  0  0  0  0
  6  7  1  0  0  0  0
  8  1  1  1  0  0  0
  8  4  1  0  0  0  0
  9  4  2  0  0  0  0
  9 10  1  0  0  0  0
 11  9  1  0  0  0  0
 12 11  1  0  0  0  0
 13 27  2  0  0  0  0
 13 25  1  0  0  0  0
 14 13  1  0  0  0  0
 15 16  1  0  0  0  0
 17 23  1  0  0  0  0
 18  2  1  0  0  0  0
 18 17  2  0  0  0  0
 19 17  1  0  0  0  0
 19 20  1  0  0  0  0
 21  3  1  0  0  0  0
 21 11  2  0  0  0  0
 22 21  1  0  0  0  0
 23 34  1  0  0  0  0
 23 42  1  0  0  0  0
 24 23  1  0  0  0  0
 25 19  2  0  0  0  0
 26 25  1  0  0  0  0
 27 18  1  0  0  0  0
 28 29  1  0  0  0  0
 28 27  1  0  0  0  0
 30 32  1  0  0  0  0
 30 28  1  0  0  0  0
 31 30  1  0  0  0  0
 33 30  1  0  0  0  0
 34 37  1  0  0  0  0
 34 36  1  0  0  0  0
 35 34  1  0  0  0  0
 38 41  1  0  0  0  0
 38 28  1  0  0  0  0
 39 38  1  0  0  0  0
 40 38  1  0  0  0  0
 42 44  1  0  0  0  0
 42 45  1  0  0  0  0
 43 42  1  0  0  0  0
M  END
