1,3
q = -2.0, confidence = 0.936

 41 41  0  0  0  0  0  0  0  0999 V2000
   -1.5045    0.0118    0.0024 N   0  0  0  0  0  2  0  0  0  0  0  0
   -1.3373    1.7811    0.0444 Si  0  0  0  0  0  0  0  0  0  0  0  0
    0.5380    1.6653   -0.0343 C   0  0  0  0  0  3  0  0  0  0  0  0
    1.2687    1.3031    1.1508 C   0  0  0  0  0  3  0  0  0  0  0  0
    2.4263    0.5359    1.0998 C   0  0  0  0  0  3  0  0  0  0  0  0
    2.2638    0.4030   -1.2907 C   0  0  0  0  0  3  0  0  0  0  0  0
    1.0997    1.1577   -1.2623 C   0  0  0  0  0  3  0  0  0  0  0  0
    4.0598   -0.9176   -0.1362 C   0  0  0  0  0  0  0  0  0  0  0  0
    4.2477    1.5984   -0.2895 C   0  0  0  0  0  0  0  0  0  0  0  0
   -2.0620    2.6859   -1.4441 C   0  0  0  0  0  0  0  0  0  0  0  0
   -1.9096    2.5755    1.6561 C   0  0  0  0  0  0  0  0  0  0  0  0
   -2.7552   -0.7754   -0.1570 C   0  0  0  0  0  0  0  0  0  0  0  0
   -3.0456   -0.9068   -1.6665 C   0  0  0  0  0  0  0  0  0  0  0  0
   -3.9163   -0.0376    0.5380 C   0  0  0  0  0  0  0  0  0  0  0  0
   -2.6237   -2.1755    0.4676 C   0  0  0  0  0  0  0  0  0  0  0  0
    3.2724    0.4052   -0.1553 C   0  0  0  0  0  0  0  0  0  0  0  0
    0.7906    1.4501    2.1338 H   0  0  0  0  0  0  0  0  0  0  0  0
    2.8231    0.1133    2.0370 H   0  0  0  0  0  0  0  0  0  0  0  0
    2.5344   -0.1203   -2.2221 H   0  0  0  0  0  0  0  0  0  0  0  0
    0.4856    1.1896   -2.1784 H   0  0  0  0  0  0  0  0  0  0  0  0
    4.7638   -0.9409    0.7202 H   0  0  0  0  0  0  0  0  0  0  0  0
    3.3781   -1.7872   -0.0500 H   0  0  0  0  0  0  0  0  0  0  0  0
    4.6509   -1.0342   -1.0672 H   0  0  0  0  0  0  0  0  0  0  0  0
    4.8355    1.5183   -1.2281 H   0  0  0  0  0  0  0  0  0  0  0  0
    3.6941    2.5577   -0.3040 H   0  0  0  0  0  0  0  0  0  0  0  0
    4.9594    1.6170    0.5625 H   0  0  0  0  0  0  0  0  0  0  0  0
   -1.7196    2.2436   -2.4007 H   0  0  0  0  0  0  0  0  0  0  0  0
   -3.1704    2.6599   -1.4373 H   0  0  0  0  0  0  0  0  0  0  0  0
   -1.7467    3.7499   -1.4213 H   0  0  0  0  0  0  0  0  0  0  0  0
   -1.4719    3.5907    1.7540 H   0  0  0  0  0  0  0  0  0  0  0  0
   -3.0124    2.6736    1.6920 H   0  0  0  0  0  0  0  0  0  0  0  0
   -1.5960    1.9724    2.5314 H   0  0  0  0  0  0  0  0  0  0  0  0
   -2.1970   -1.4066   -2.1732 H   0  0  0  0  0  0  0  0  0  0  0  0
   -3.9623   -1.5075   -1.8377 H   0  0  0  0  0  0  0  0  0  0  0  0
   -3.1941    0.0885   -2.1311 H   0  0  0  0  0  0  0  0  0  0  0  0
   -4.0898    0.9638    0.0921 H   0  0  0  0  0  0  0  0  0  0  0  0
   -4.8574   -0.6132    0.4296 H   0  0  0  0  0  0  0  0  0  0  0  0
   -3.7126    0.0883    1.6199 H   0  0  0  0  0  0  0  0  0  0  0  0
   -2.3959   -2.1064    1.5484 H   0  0  0  0  0  0  0  0  0  0  0  0
   -3.5728   -2.7338    0.3395 H   0  0  0  0  0  0  0  0  0  0  0  0
   -1.8163   -2.7578   -0.0165 H   0  0  0  0  0  0  0  0  0  0  0  0
  1  2  1  0  0  0  0
  2 11  1  0  0  0  0
  3  2  1  0  0  0  0
  3  4  1  0  0  0  0
  4 17  1  0  0  0  0
  5  4  1  0  0  0  0
  5 18  1  0  0  0  0
  6  7  1  0  0  0  0
  6 16  1  0  0  0  0
  7  3  1  0  0  0  0
  8 22  1  0  0  0  0
  8 21  1  0  0  0  0
  9 16  1  0  0  0  0
  9 26  1  0  0  0  0
 10 28  1  0  0  0  0
 10 29  1  0  0  0  0
 10  2  1  0  0  0  0
 11 31  1  0  0  0  0
 11 30  1  0  0  0  0
 11 32  1  0  0  0  0
 12  1  1  0  0  0  0
 12 15  1  0  0  0  0
 12 14  1  0  0  0  0
 13 12  1  0  0  0  0
 14 38  1  0  0  0  0
 15 39  1  0  0  0  0
 16  8  1  0  0  0  0
 16  5  1  0  0  0  0
 19  6  1  0  0  0  0
 20  7  1  0  0  0  0
 23  8  1  0  0  0  0
 24  9  1  0  0  0  0
 25  9  1  0  0  0  0
 27 10  1  0  0  0  0
 33 13  1  0  0  0  0
 34 13  1  0  0  0  0
 35 13  1  0  0  0  0
 36 14  1  0  0  0  0
 37 14  1  0  0  0  0
 40 15  1  0  0  0  0
 41 15  1  0  0  0  0
M  END
