3,42
q = -1.0, confidence = 0.022

 42 44  0  0  1  0  0  0  0  0999 V2000
   -4.0291   -3.1395   -0.2933 O   0  0  0  0  0  0  0  0  0  0  0  0
   -5.8139   -1.8173   -0.7541 O   0  0  0  0  0  0  0  0  0  0  0  0
   -0.1467    0.4269   -0.4723 N   0  0  0  0  0  2  0  0  0  0  0  0
   -1.0702    2.4316   -0.8788 N   0  0  0  0  0  0  0  0  0  0  0  0
    0.1124    1.7368   -0.6748 C   0  0  2  0  0  3  0  0  0  0  0  0
   -2.1107    1.5105   -0.8291 C   0  0  0  0  0  0  0  0  0  0  0  0
   -3.5012    1.6431   -0.9829 C   0  0  0  0  0  0  0  0  0  0  0  0
   -3.9734    2.6158   -1.1787 H   0  0  0  0  0  0  0  0  0  0  0  0
   -4.2766    0.4824   -0.8885 C   0  0  0  0  0  0  0  0  0  0  0  0
   -5.3673    0.5406   -1.0002 H   0  0  0  0  0  0  0  0  0  0  0  0
   -3.6825   -0.7875   -0.6577 C   0  0  0  0  0  0  0  0  0  0  0  0
   -2.2900   -0.9188   -0.5173 C   0  0  0  0  0  0  0  0  0  0  0  0
   -1.8411   -1.9095   -0.3782 H   0  0  0  0  0  0  0  0  0  0  0  0
   -1.5099    0.2390   -0.5877 C   0  0  0  0  0  0  0  0  0  0  0  0
   -1.2368    3.8804   -0.9291 C   0  0  0  0  0  0  0  0  0  0  0  0
   -2.2634    4.0744   -1.2951 H   0  0  0  0  0  0  0  0  0  0  0  0
   -0.5524    4.2894   -1.6987 H   0  0  0  0  0  0  0  0  0  0  0  0
   -0.9959    4.5557    0.4299 C   0  0  0  0  0  0  0  0  0  0  0  0
    0.0499    4.3512    0.7401 H   0  0  0  0  0  0  0  0  0  0  0  0
   -1.0620    5.6552    0.2754 H   0  0  0  0  0  0  0  0  0  0  0  0
   -1.9522    4.1256    1.5509 C   0  0  0  0  0  0  0  0  0  0  0  0
   -1.9330    3.0174    1.6438 H   0  0  0  0  0  0  0  0  0  0  0  0
   -1.5466    4.5064    2.5120 H   0  0  0  0  0  0  0  0  0  0  0  0
   -3.3923    4.6137    1.3848 C   0  0  0  0  0  0  0  0  0  0  0  0
   -3.8683    4.2154    0.4660 H   0  0  0  0  0  0  0  0  0  0  0  0
   -3.4386    5.7215    1.3298 H   0  0  0  0  0  0  0  0  0  0  0  0
   -4.0256    4.2941    2.2362 H   0  0  0  0  0  0  0  0  0  0  0  0
   -4.4878   -2.0365   -0.5468 C   0  0  0  0  0  0  0  0  0  0  0  0
   -6.6429   -2.9782   -0.6560 C   0  0  0  0  0  0  0  0  0  0  0  0
   -6.3449   -3.7417   -1.4031 H   0  0  0  0  0  0  0  0  0  0  0  0
   -7.6758   -2.6359   -0.8461 H   0  0  0  0  0  0  0  0  0  0  0  0
   -6.5661   -3.4368    0.3509 H   0  0  0  0  0  0  0  0  0  0  0  0
    1.5067    2.1135   -0.6932 C   0  0  0  0  0  0  0  0  0  0  0  0
    2.0470    3.3982   -0.9411 C   0  0  0  0  0  0  0  0  0  0  0  0
    1.3959    4.2684   -1.0993 H   0  0  0  0  0  0  0  0  0  0  0  0
    3.4314    3.5718   -1.0044 C   0  0  0  0  0  0  0  0  0  0  0  0
    3.8524    4.5698   -1.1964 H   0  0  0  0  0  0  0  0  0  0  0  0
    4.2786    2.4587   -0.8406 C   0  0  0  0  0  0  0  0  0  0  0  0
    5.3702    2.5892   -0.9104 H   0  0  0  0  0  0  0  0  0  0  0  0
    3.7471    1.1848   -0.6007 C   0  0  0  0  0  0  0  0  0  0  0  0
    4.4349    0.3305   -0.5122 H   0  0  0  0  0  0  0  0  0  0  0  0
    2.3545    0.9654   -0.4920 C   0  0  0  0  0  3  0  0  0  0  0  0
  2 29  1  0  0  0  0
  2 28  1  0  0  0  0
  4  6  1  0  0  0  0
  4  5  1  0  0  0  0
  5 33  1  6  0  0  0
  5  3  1  0  0  0  0
  6 14  1  0  0  0  0
  7  9  1  0  0  0  0
  7  6  2  0  0  0  0
  8  7  1  0  0  0  0
  9 11  2  0  0  0  0
 10  9  1  0  0  0  0
 11 28  1  0  0  0  0
 11 12  1  0  0  0  0
 12 13  1  0  0  0  0
 14 12  2  0  0  0  0
 14  3  1  0  0  0  0
 15  4  1  0  0  0  0
 15 18  1  0  0  0  0
 16 15  1  0  0  0  0
 17 15  1  0  0  0  0
 18 19  1  0  0  0  0
 18 21  1  0  0  0  0
 20 18  1  0  0  0  0
 21 22  1  0  0  0  0
 21 23  1  0  0  0  0
 24 21  1  0  0  0  0
 24 27  1  0  0  0  0
 25 24  1  0  0  0  0
 26 24  1  0  0  0  0
 28  1  2  0  0  0  0
 29 32  1  0  0  0  0
 30 29  1  0  0  0  0
 31 29  1  0  0  0  0
 33 42  1  0  0  0  0
 34 33  2  0  0  0  0
 35 34  1  0  0  0  0
 36 34  1  0  0  0  0
 36 38  2  0  0  0  0
 37 36  1  0  0  0  0
 38 40  1  0  0  0  0
 39 38  1  0  0  0  0
 40 41  1  0  0  0  0
 40 42  2  0  0  0  0
M  END
