1,35
q = -1.0, confidence = 0.0

 35 38  0  0  1  0  0  0  0  0999 V2000
   -0.1419   -1.1339   -0.0009 N   0  0  0  0  0  2  0  0  0  0  0  0
   -1.7430   -0.7382   -0.0003 P   0  0  1  0  0  4  0  0  0  0  0  0
   -3.7127    0.6665    1.2342 N   0  0  2  0  0  0  0  0  0  0  0  0
   -3.7134    0.6666   -1.2335 N   0  0  1  0  0  0  0  0  0  0  0  0
   -0.5168   -3.4326   -0.0006 O   0  0  0  0  0  0  0  0  0  0  0  0
   -4.3650   -1.3628    0.0005 N   0  0  2  0  0  0  0  0  0  0  0  0
   -2.3002    0.3188    1.4221 C   0  0  0  0  0  0  0  0  0  0  0  0
   -2.1477   -0.2364    2.3716 H   0  0  0  0  0  0  0  0  0  0  0  0
   -1.6563    1.2216    1.4273 H   0  0  0  0  0  0  0  0  0  0  0  0
   -2.3011    0.3189   -1.4223 C   0  0  0  0  0  0  0  0  0  0  0  0
   -1.6572    1.2218   -1.4277 H   0  0  0  0  0  0  0  0  0  0  0  0
   -2.1491   -0.2361   -2.3720 H   0  0  0  0  0  0  0  0  0  0  0  0
   -3.0701   -2.0470    0.0001 C   0  0  0  0  0  0  0  0  0  0  0  0
   -2.9471   -2.6950   -0.8899 H   0  0  0  0  0  0  0  0  0  0  0  0
   -2.9465   -2.6949    0.8900 H   0  0  0  0  0  0  0  0  0  0  0  0
   -4.5667   -0.5297   -1.1944 C   0  0  0  0  0  0  0  0  0  0  0  0
   -4.3850   -1.1408   -2.1021 H   0  0  0  0  0  0  0  0  0  0  0  0
   -5.6255   -0.1978   -1.2052 H   0  0  0  0  0  0  0  0  0  0  0  0
   -4.5660   -0.5298    1.1955 C   0  0  0  0  0  0  0  0  0  0  0  0
   -5.6248   -0.1978    1.2069 H   0  0  0  0  0  0  0  0  0  0  0  0
   -4.3838   -1.1409    2.1030 H   0  0  0  0  0  0  0  0  0  0  0  0
   -3.9236    1.4413    0.0004 C   0  0  0  0  0  0  0  0  0  0  0  0
   -3.2436    2.3163    0.0003 H   0  0  0  0  0  0  0  0  0  0  0  0
   -4.9713    1.8064    0.0008 H   0  0  0  0  0  0  0  0  0  0  0  0
    0.2698   -2.4807   -0.0005 C   0  0  0  0  0  0  0  0  0  0  0  0
    1.7485   -2.5565   -0.0002 C   0  0  0  0  0  0  0  0  0  0  0  0
    2.4309   -3.7870   -0.0000 C   0  0  0  0  0  0  0  0  0  0  0  0
    1.8402   -4.7167   -0.0002 H   0  0  0  0  0  0  0  0  0  0  0  0
    3.8306   -3.7946    0.0004 C   0  0  0  0  0  0  0  0  0  0  0  0
    4.3814   -4.7474    0.0006 H   0  0  0  0  0  0  0  0  0  0  0  0
    4.5328   -2.5729    0.0007 C   0  0  0  0  0  0  0  0  0  0  0  0
    5.6350   -2.5805    0.0010 H   0  0  0  0  0  0  0  0  0  0  0  0
    3.8520   -1.3423    0.0005 C   0  0  0  0  0  0  0  0  0  0  0  0
    4.4088   -0.3932    0.0008 H   0  0  0  0  0  0  0  0  0  0  0  0
    2.4465   -1.3232    0.0001 C   0  0  0  0  0  3  0  0  0  0  0  0
  1 25  1  0  0  0  0
  2  1  1  6  0  0  0
  2 13  1  0  0  0  0
  2  7  1  0  0  0  0
  3 22  1  6  0  0  0
  3  7  1  0  0  0  0
  4 10  1  1  0  0  0
  4 16  1  0  0  0  0
  4 22  1  0  0  0  0
  5 25  2  0  0  0  0
  6 16  1  6  0  0  0
  6 19  1  0  0  0  0
  7  9  1  0  0  0  0
  7  8  1  0  0  0  0
 10  2  1  0  0  0  0
 11 10  1  0  0  0  0
 12 10  1  0  0  0  0
 13  6  1  0  0  0  0
 13 15  1  0  0  0  0
 14 13  1  0  0  0  0
 17 16  1  0  0  0  0
 18 16  1  0  0  0  0
 19 20  1  0  0  0  0
 19  3  1  0  0  0  0
 19 21  1  0  0  0  0
 22 24  1  0  0  0  0
 23 22  1  0  0  0  0
 25 26  1  0  0  0  0
 26 27  2  0  0  0  0
 26 35  1  0  0  0  0
 27 29  1  0  0  0  0
 28 27  1  0  0  0  0
 29 30  1  0  0  0  0
 29 31  2  0  0  0  0
 31 32  1  0  0  0  0
 33 31  1  0  0  0  0
 33 34  1  0  0  0  0
 35 33  2  0  0  0  0
M  END
