3,6
q = -1.0, confidence = 0.006

 35 36  0  0  1  0  0  0  0  0999 V2000
   -4.0002    1.4588    2.0464 O   0  0  0  0  0  0  0  0  0  0  0  0
   -4.8797    1.6699   -0.0229 O   0  0  0  0  0  0  0  0  0  0  0  0
   -2.1464   -0.2928    1.3284 N   0  0  0  0  0  0  0  0  0  0  0  0
   -2.2230   -1.2606    1.6791 H   0  0  0  0  0  0  0  0  0  0  0  0
   -2.3465    0.3349    2.1272 H   0  0  0  0  0  0  0  0  0  0  0  0
   -0.5044    1.6678    0.1615 C   0  0  0  0  0  3  0  0  0  0  0  0
    0.1771    2.8220    0.5939 C   0  0  0  0  0  0  0  0  0  0  0  0
   -0.2482    4.1008    0.1968 C   0  0  0  0  0  0  0  0  0  0  0  0
   -1.3574    4.2420   -0.6516 C   0  0  0  0  0  0  0  0  0  0  0  0
   -2.0594    3.1003   -1.0686 C   0  0  0  0  0  0  0  0  0  0  0  0
   -1.6506    1.8137   -0.6597 C   0  0  0  0  0  0  0  0  0  0  0  0
   -2.4681    0.5904   -0.9978 C   0  0  0  0  0  0  0  0  0  0  0  0
   -1.8267   -0.2194   -1.4040 H   0  0  0  0  0  0  0  0  0  0  0  0
   -3.2557    0.8131   -1.7420 H   0  0  0  0  0  0  0  0  0  0  0  0
   -3.1620    0.0006    0.2787 C   0  0  2  0  0  0  0  0  0  0  0  0
   -4.0647    1.1015    0.8832 C   0  0  0  0  0  0  0  0  0  0  0  0
   -5.6451    2.7895    0.4548 C   0  0  0  0  0  0  0  0  0  0  0  0
   -3.9136   -1.2812   -0.1102 C   0  0  0  0  0  0  0  0  0  0  0  0
   -5.2640   -1.2761   -0.5118 C   0  0  0  0  0  0  0  0  0  0  0  0
   -5.8933   -2.4633   -0.9173 C   0  0  0  0  0  0  0  0  0  0  0  0
   -5.1840   -3.6728   -0.9371 C   0  0  0  0  0  0  0  0  0  0  0  0
   -3.8359   -3.6844   -0.5496 C   0  0  0  0  0  0  0  0  0  0  0  0
   -3.2019   -2.5013   -0.1428 C   0  0  0  0  0  0  0  0  0  0  0  0
    1.0654    2.7292    1.2372 H   0  0  0  0  0  0  0  0  0  0  0  0
    0.3008    4.9902    0.5440 H   0  0  0  0  0  0  0  0  0  0  0  0
   -1.6807    5.2406   -0.9835 H   0  0  0  0  0  0  0  0  0  0  0  0
   -2.9421    3.2018   -1.7211 H   0  0  0  0  0  0  0  0  0  0  0  0
   -6.2817    3.1031   -0.3908 H   0  0  0  0  0  0  0  0  0  0  0  0
   -4.9638    3.6100    0.7551 H   0  0  0  0  0  0  0  0  0  0  0  0
   -6.2631    2.4998    1.3269 H   0  0  0  0  0  0  0  0  0  0  0  0
   -5.8301   -0.3357   -0.5173 H   0  0  0  0  0  0  0  0  0  0  0  0
   -6.9515   -2.4378   -1.2190 H   0  0  0  0  0  0  0  0  0  0  0  0
   -5.6801   -4.6028   -1.2535 H   0  0  0  0  0  0  0  0  0  0  0  0
   -3.2621   -4.6235   -0.5598 H   0  0  0  0  0  0  0  0  0  0  0  0
   -2.1411   -2.5486    0.1584 H   0  0  0  0  0  0  0  0  0  0  0  0
  2 17  1  0  0  0  0
  2 16  1  0  0  0  0
  3  4  1  0  0  0  0
  3  5  1  0  0  0  0
  6  7  1  0  0  0  0
  7 24  1  0  0  0  0
  8 25  1  0  0  0  0
  8  7  2  0  0  0  0
  9  8  1  0  0  0  0
 10 11  1  0  0  0  0
 10  9  2  0  0  0  0
 11  6  2  0  0  0  0
 12 11  1  0  0  0  0
 12 15  1  0  0  0  0
 13 12  1  0  0  0  0
 14 12  1  0  0  0  0
 15 16  1  1  0  0  0
 15  3  1  0  0  0  0
 16  1  2  0  0  0  0
 17 29  1  0  0  0  0
 17 30  1  0  0  0  0
 18 15  1  0  0  0  0
 19 18  2  0  0  0  0
 20 19  1  0  0  0  0
 21 20  2  0  0  0  0
 21 22  1  0  0  0  0
 22 23  2  0  0  0  0
 23 18  1  0  0  0  0
 23 35  1  0  0  0  0
 26  9  1  0  0  0  0
 27 10  1  0  0  0  0
 28 17  1  0  0  0  0
 31 19  1  0  0  0  0
 32 20  1  0  0  0  0
 33 21  1  0  0  0  0
 34 22  1  0  0  0  0
M  END
