1,12
q = -1.0, confidence = 0.0

 33 35  0  0  0  0  0  0  0  0999 V2000
    1.5617    2.0134    0.6161 N   0  0  0  0  0  2  0  0  0  0  0  0
    2.3133    3.0328    0.1448 C   0  0  0  0  0  3  0  0  0  0  0  0
    3.0351    2.7596   -0.6383 H   0  0  0  0  0  0  0  0  0  0  0  0
    2.1689    4.3388    0.6158 C   0  0  0  0  0  0  0  0  0  0  0  0
    2.8005    5.1375    0.2033 H   0  0  0  0  0  0  0  0  0  0  0  0
    1.2088    4.5968    1.6096 C   0  0  0  0  0  0  0  0  0  0  0  0
    1.0689    5.6146    2.0028 H   0  0  0  0  0  0  0  0  0  0  0  0
    0.4259    3.5435    2.0885 C   0  0  0  0  0  0  0  0  0  0  0  0
   -0.3387    3.7186    2.8571 H   0  0  0  0  0  0  0  0  0  0  0  0
    0.6069    2.2420    1.5819 C   0  0  0  0  0  0  0  0  0  0  0  0
   -0.1696    1.0546    1.9307 C   0  0  0  0  0  0  0  0  0  0  0  0
    0.2366   -0.1420    1.2545 C   0  0  0  0  0  3  0  0  0  0  0  0
   -0.5745   -1.2859    1.4097 C   0  0  0  0  0  0  0  0  0  0  0  0
   -0.3385   -2.2283    0.8939 H   0  0  0  0  0  0  0  0  0  0  0  0
   -1.7358   -1.2125    2.1852 C   0  0  0  0  0  0  0  0  0  0  0  0
   -2.1016   -0.0606    2.9061 C   0  0  0  0  0  0  0  0  0  0  0  0
   -3.0066   -0.0694    3.5296 H   0  0  0  0  0  0  0  0  0  0  0  0
   -1.2999    1.0757    2.7779 C   0  0  0  0  0  0  0  0  0  0  0  0
   -1.5830    1.9971    3.3095 H   0  0  0  0  0  0  0  0  0  0  0  0
   -3.9355   -2.0300    0.6947 C   0  0  0  0  0  0  0  0  0  0  0  0
   -3.4616   -2.1996   -0.6154 C   0  0  0  0  0  0  0  0  0  0  0  0
   -2.4918   -2.6864   -0.7935 H   0  0  0  0  0  0  0  0  0  0  0  0
   -4.2436   -1.7296   -1.6802 C   0  0  0  0  0  0  0  0  0  0  0  0
   -3.8786   -1.8426   -2.7110 H   0  0  0  0  0  0  0  0  0  0  0  0
   -5.4777   -1.1061   -1.4294 C   0  0  0  0  0  0  0  0  0  0  0  0
   -6.0800   -0.7276   -2.2688 H   0  0  0  0  0  0  0  0  0  0  0  0
   -5.9424   -0.9573   -0.1127 C   0  0  0  0  0  0  0  0  0  0  0  0
   -6.9109   -0.4714    0.0792 H   0  0  0  0  0  0  0  0  0  0  0  0
   -5.1702   -1.4230    0.9627 C   0  0  0  0  0  0  0  0  0  0  0  0
   -5.5061   -1.3307    2.0060 H   0  0  0  0  0  0  0  0  0  0  0  0
   -3.7628   -2.5593    3.3050 O   0  0  0  0  0  0  0  0  0  0  0  0
   -2.9110   -2.5804    2.0890 S   0  0  0  0  0  0  0  0  0  0  0  0
   -2.1795   -3.7969    1.6584 O   0  0  0  0  0  0  0  0  0  0  0  0
  1 10  1  0  0  0  0
  2  4  1  0  0  0  0
  2  1  1  0  0  0  0
  3  2  1  0  0  0  0
  4  6  2  0  0  0  0
  5  4  1  0  0  0  0
  6  7  1  0  0  0  0
  6  8  1  0  0  0  0
  8  9  1  0  0  0  0
 10 11  1  0  0  0  0
 10  8  2  0  0  0  0
 11 18  1  0  0  0  0
 12 13  1  0  0  0  0
 12 11  2  0  0  0  0
 13 15  2  0  0  0  0
 14 13  1  0  0  0  0
 15 16  1  0  0  0  0
 16 17  1  0  0  0  0
 18 16  2  0  0  0  0
 18 19  1  0  0  0  0
 20 29  1  0  0  0  0
 20 32  1  0  0  0  0
 21 20  2  0  0  0  0
 22 21  1  0  0  0  0
 23 25  2  0  0  0  0
 23 21  1  0  0  0  0
 24 23  1  0  0  0  0
 25 27  1  0  0  0  0
 26 25  1  0  0  0  0
 27 28  1  0  0  0  0
 27 29  2  0  0  0  0
 29 30  1  0  0  0  0
 32 15  1  0  0  0  0
 32 31  2  0  0  0  0
 33 32  2  0  0  0  0
M  END
