2,3
q = -2.0, confidence = 0.904

 45 46  0  0  1  0  0  0  0  0999 V2000
    1.6008   -1.1081    0.0760 Si  0  0  0  0  0  0  0  0  0  0  0  0
    1.1443    0.5856   -0.1309 N   0  0  0  0  0  2  0  0  0  0  0  0
   -0.2032   -1.6152    0.2264 C   0  0  1  0  0  3  0  0  0  0  0  0
   -0.9796   -1.2143    1.3732 C   0  0  0  0  0  0  0  0  0  0  0  0
   -2.3269   -0.9783    0.9443 C   0  0  0  0  0  0  0  0  0  0  0  0
   -2.3924   -1.2258   -0.4686 C   0  0  0  0  0  0  0  0  0  0  0  0
   -1.0861   -1.6165   -0.9117 C   0  0  0  0  0  0  0  0  0  0  0  0
   -0.4767   -1.0595    2.7782 C   0  0  0  0  0  0  0  0  0  0  0  0
    0.6226   -0.9340    2.8058 H   0  0  0  0  0  0  0  0  0  0  0  0
   -0.7245   -1.9601    3.3802 H   0  0  0  0  0  0  0  0  0  0  0  0
   -0.9295   -0.1806    3.2765 H   0  0  0  0  0  0  0  0  0  0  0  0
   -3.4678   -0.5889    1.8304 C   0  0  0  0  0  0  0  0  0  0  0  0
   -3.1393    0.1075    2.6255 H   0  0  0  0  0  0  0  0  0  0  0  0
   -3.9036   -1.4860    2.3208 H   0  0  0  0  0  0  0  0  0  0  0  0
   -4.2774   -0.0912    1.2634 H   0  0  0  0  0  0  0  0  0  0  0  0
   -3.6114   -1.1383   -1.3314 C   0  0  0  0  0  0  0  0  0  0  0  0
   -3.3728   -0.6863   -2.3136 H   0  0  0  0  0  0  0  0  0  0  0  0
   -4.4033   -0.5236   -0.8630 H   0  0  0  0  0  0  0  0  0  0  0  0
   -4.0342   -2.1497   -1.5138 H   0  0  0  0  0  0  0  0  0  0  0  0
   -0.7216   -1.9620   -2.3251 C   0  0  0  0  0  0  0  0  0  0  0  0
    0.3660   -1.8619   -2.5023 H   0  0  0  0  0  0  0  0  0  0  0  0
   -1.2446   -1.3082   -3.0491 H   0  0  0  0  0  0  0  0  0  0  0  0
   -1.0006   -3.0141   -2.5493 H   0  0  0  0  0  0  0  0  0  0  0  0
    2.7800   -2.0582   -1.0866 C   0  0  0  0  0  0  0  0  0  0  0  0
    2.3416   -3.0409   -1.3603 H   0  0  0  0  0  0  0  0  0  0  0  0
    3.1730   -1.5919   -2.0102 H   0  0  0  0  0  0  0  0  0  0  0  0
    3.7868   -2.1697    0.1051 C   0  0  0  0  0  0  0  0  0  0  0  0
    4.2304   -3.1805    0.2208 H   0  0  0  0  0  0  0  0  0  0  0  0
    4.6336   -1.4676   -0.0380 H   0  0  0  0  0  0  0  0  0  0  0  0
    2.9113   -1.7248    1.3222 C   0  0  0  0  0  0  0  0  0  0  0  0
    3.3968   -1.0347    2.0392 H   0  0  0  0  0  0  0  0  0  0  0  0
    2.5181   -2.5882    1.8994 H   0  0  0  0  0  0  0  0  0  0  0  0
    2.0395    1.7716   -0.1601 C   0  0  0  0  0  0  0  0  0  0  0  0
    1.3433    2.9688   -0.8311 C   0  0  0  0  0  0  0  0  0  0  0  0
    1.0495    2.7252   -1.8700 H   0  0  0  0  0  0  0  0  0  0  0  0
    2.0276    3.8407   -0.8501 H   0  0  0  0  0  0  0  0  0  0  0  0
    0.4325    3.2668   -0.2748 H   0  0  0  0  0  0  0  0  0  0  0  0
    3.3119    1.4280   -0.9558 C   0  0  0  0  0  0  0  0  0  0  0  0
    3.0561    1.1194   -1.9889 H   0  0  0  0  0  0  0  0  0  0  0  0
    3.8826    0.6073   -0.4753 H   0  0  0  0  0  0  0  0  0  0  0  0
    3.9827    2.3088   -1.0116 H   0  0  0  0  0  0  0  0  0  0  0  0
    2.4020    2.1335    1.2942 C   0  0  0  0  0  0  0  0  0  0  0  0
    1.4816    2.3512    1.8710 H   0  0  0  0  0  0  0  0  0  0  0  0
    3.0584    3.0271    1.3246 H   0  0  0  0  0  0  0  0  0  0  0  0
    2.9342    1.2965    1.7889 H   0  0  0  0  0  0  0  0  0  0  0  0
  1  3  1  0  0  0  0
  1 30  1  0  0  0  0
  2  1  1  0  0  0  0
  3  7  1  6  0  0  0
  3  4  1  0  0  0  0
  4  8  1  0  0  0  0
  5  4  2  0  0  0  0
  5 12  1  0  0  0  0
  6  5  1  0  0  0  0
  7  6  2  0  0  0  0
  8  9  1  0  0  0  0
  8 11  1  0  0  0  0
  8 10  1  0  0  0  0
 12 14  1  0  0  0  0
 12 13  1  0  0  0  0
 15 12  1  0  0  0  0
 16 18  1  0  0  0  0
 16  6  1  0  0  0  0
 17 16  1  0  0  0  0
 19 16  1  0  0  0  0
 20  7  1  0  0  0  0
 21 20  1  0  0  0  0
 22 20  1  0  0  0  0
 23 20  1  0  0  0  0
 24  1  1  0  0  0  0
 24 27  1  0  0  0  0
 25 24  1  0  0  0  0
 26 24  1  0  0  0  0
 27 28  1  0  0  0  0
 27 30  1  0  0  0  0
 29 27  1  0  0  0  0
 30 32  1  0  0  0  0
 30 31  1  0  0  0  0
 33  2  1  0  0  0  0
 33 42  1  0  0  0  0
 34 37  1  0  0  0  0
 34 33  1  0  0  0  0
 35 34  1  0  0  0  0
 36 34  1  0  0  0  0
 38 40  1  0  0  0  0
 38 33  1  0  0  0  0
 39 38  1  0  0  0  0
 41 38  1  0  0  0  0
 42 44  1  0  0  0  0
 42 45  1  0  0  0  0
 42 43  1  0  0  0  0
M  END
