2,4
q = -1.0, confidence = 0.0

 47 49  0  0  0  0  0  0  0  0999 V2000
    2.0359   -0.0058    0.0264 P   0  0  0  0  0  4  0  0  0  0  0  0
    0.8544   -0.5818   -0.9553 N   0  0  0  0  0  2  0  0  0  0  0  0
    1.6230    1.7624    0.0876 C   0  0  0  0  0  0  0  0  0  0  0  0
    0.2481    2.0352   -0.1122 C   0  0  0  0  0  3  0  0  0  0  0  0
   -0.1785    3.3717   -0.1397 C   0  0  0  0  0  0  0  0  0  0  0  0
   -1.2446    3.6011   -0.2912 H   0  0  0  0  0  0  0  0  0  0  0  0
    0.7525    4.4097    0.0445 C   0  0  0  0  0  0  0  0  0  0  0  0
    0.4081    5.4552    0.0161 H   0  0  0  0  0  0  0  0  0  0  0  0
    2.1098    4.1286    0.2710 C   0  0  0  0  0  0  0  0  0  0  0  0
    2.8280    4.9483    0.4217 H   0  0  0  0  0  0  0  0  0  0  0  0
    2.5522    2.7973    0.2974 C   0  0  0  0  0  0  0  0  0  0  0  0
    3.6166    2.5678    0.4622 H   0  0  0  0  0  0  0  0  0  0  0  0
    2.0146   -0.6288    1.7496 C   0  0  0  0  0  0  0  0  0  0  0  0
    2.9766   -0.1844    2.6823 C   0  0  0  0  0  0  0  0  0  0  0  0
    3.7878    0.4904    2.3669 H   0  0  0  0  0  0  0  0  0  0  0  0
    2.8981   -0.6010    4.0176 C   0  0  0  0  0  0  0  0  0  0  0  0
    3.6497   -0.2556    4.7435 H   0  0  0  0  0  0  0  0  0  0  0  0
    1.8573   -1.4519    4.4289 C   0  0  0  0  0  0  0  0  0  0  0  0
    1.7956   -1.7743    5.4794 H   0  0  0  0  0  0  0  0  0  0  0  0
    0.8936   -1.8827    3.5051 C   0  0  0  0  0  0  0  0  0  0  0  0
    0.0706   -2.5394    3.8238 H   0  0  0  0  0  0  0  0  0  0  0  0
    0.9654   -1.4730    2.1641 C   0  0  0  0  0  0  0  0  0  0  0  0
    0.1945   -1.8004    1.4500 H   0  0  0  0  0  0  0  0  0  0  0  0
    3.7487   -0.1724   -0.5678 C   0  0  0  0  0  0  0  0  0  0  0  0
    4.1715    0.6343   -1.6459 C   0  0  0  0  0  0  0  0  0  0  0  0
    3.4856    1.3809   -2.0736 H   0  0  0  0  0  0  0  0  0  0  0  0
    5.4596    0.4745   -2.1728 C   0  0  0  0  0  0  0  0  0  0  0  0
    5.7884    1.1049   -3.0126 H   0  0  0  0  0  0  0  0  0  0  0  0
    6.3266   -0.4909   -1.6338 C   0  0  0  0  0  0  0  0  0  0  0  0
    7.3368   -0.6161   -2.0521 H   0  0  0  0  0  0  0  0  0  0  0  0
    5.9071   -1.2960   -0.5628 C   0  0  0  0  0  0  0  0  0  0  0  0
    6.5849   -2.0536   -0.1419 H   0  0  0  0  0  0  0  0  0  0  0  0
    4.6205   -1.1394   -0.0271 C   0  0  0  0  0  0  0  0  0  0  0  0
    4.2884   -1.7739    0.8079 H   0  0  0  0  0  0  0  0  0  0  0  0
    0.8250   -1.8100   -1.8015 C   0  0  0  0  0  0  0  0  0  0  0  0
    2.1060   -1.9051   -2.6546 C   0  0  0  0  0  0  0  0  0  0  0  0
    2.2850   -0.9654   -3.2131 H   0  0  0  0  0  0  0  0  0  0  0  0
    1.9892   -2.7277   -3.3879 H   0  0  0  0  0  0  0  0  0  0  0  0
    3.0039   -2.1297   -2.0489 H   0  0  0  0  0  0  0  0  0  0  0  0
   -0.3671   -1.6563   -2.7655 C   0  0  0  0  0  0  0  0  0  0  0  0
   -1.3207   -1.6213   -2.2077 H   0  0  0  0  0  0  0  0  0  0  0  0
   -0.4052   -2.5213   -3.4567 H   0  0  0  0  0  0  0  0  0  0  0  0
   -0.2614   -0.7300   -3.3646 H   0  0  0  0  0  0  0  0  0  0  0  0
    0.6704   -3.0940   -0.9648 C   0  0  0  0  0  0  0  0  0  0  0  0
    1.5184   -3.2050   -0.2571 H   0  0  0  0  0  0  0  0  0  0  0  0
    0.6670   -3.9847   -1.6259 H   0  0  0  0  0  0  0  0  0  0  0  0
   -0.2806   -3.0759   -0.3990 H   0  0  0  0  0  0  0  0  0  0  0  0
  1  3  1  0  0  0  0
  1 13  1  0  0  0  0
  2  1  1  0  0  0  0
  3 11  1  0  0  0  0
  4  3  2  0  0  0  0
  5  4  1  0  0  0  0
  5  7  2  0  0  0  0
  6  5  1  0  0  0  0
  7  9  1  0  0  0  0
  8  7  1  0  0  0  0
  9 11  2  0  0  0  0
  9 10  1  0  0  0  0
 11 12  1  0  0  0  0
 13 22  2  0  0  0  0
 13 14  1  0  0  0  0
 14 16  2  0  0  0  0
 15 14  1  0  0  0  0
 16 18  1  0  0  0  0
 16 17  1  0  0  0  0
 18 19  1  0  0  0  0
 20 21  1  0  0  0  0
 20 18  2  0  0  0  0
 22 20  1  0  0  0  0
 23 22  1  0  0  0  0
 24 33  1  0  0  0  0
 24  1  1  0  0  0  0
 25 24  2  0  0  0  0
 26 25  1  0  0  0  0
 27 25  1  0  0  0  0
 27 29  2  0  0  0  0
 28 27  1  0  0  0  0
 29 31  1  0  0  0  0
 30 29  1  0  0  0  0
 31 32  1  0  0  0  0
 31 33  2  0  0  0  0
 33 34  1  0  0  0  0
 35 44  1  0  0  0  0
 35  2  1  0  0  0  0
 36 39  1  0  0  0  0
 36 35  1  0  0  0  0
 37 36  1  0  0  0  0
 38 36  1  0  0  0  0
 40 41  1  0  0  0  0
 40 35  1  0  0  0  0
 42 40  1  0  0  0  0
 43 40  1  0  0  0  0
 44 47  1  0  0  0  0
 44 45  1  0  0  0  0
 46 44  1  0  0  0  0
M  END
