1,31
q = 0.0, confidence = 0.986

 45 48  0  0  1  0  0  0  0  0999 V2000
    0.4596    0.5797   -1.4215 N   0  0  0  0  0  2  0  0  0  0  0  0
    1.3286    1.5720   -1.0353 N   0  0  0  0  0  0  0  0  0  0  0  0
    0.9868    1.1207    1.7857 N   0  0  0  0  0  0  0  0  0  0  0  0
   -1.0282    0.5241    2.2633 N   0  0  0  0  0  0  0  0  0  0  0  0
   -1.3935    0.3570   -3.0783 C   0  0  0  0  0  0  0  0  0  0  0  0
   -1.0869   -0.6910   -3.2558 H   0  0  0  0  0  0  0  0  0  0  0  0
   -1.6352    0.8341   -4.0471 H   0  0  0  0  0  0  0  0  0  0  0  0
   -2.3189    0.3299   -2.4679 H   0  0  0  0  0  0  0  0  0  0  0  0
   -0.3133    1.1205   -2.3885 C   0  0  1  0  0  3  0  0  0  0  0  0
    0.0597    2.4731   -2.6046 C   0  0  0  0  0  0  0  0  0  0  0  0
   -0.3913    3.1731   -3.3153 H   0  0  0  0  0  0  0  0  0  0  0  0
    1.1140    2.7374   -1.7366 C   0  0  0  0  0  0  0  0  0  0  0  0
    1.9107    3.9784   -1.5071 C   0  0  0  0  0  0  0  0  0  0  0  0
    1.9879    4.2167   -0.4266 H   0  0  0  0  0  0  0  0  0  0  0  0
    1.4278    4.8314   -2.0183 H   0  0  0  0  0  0  0  0  0  0  0  0
    2.9473    3.8922   -1.8934 H   0  0  0  0  0  0  0  0  0  0  0  0
    2.4442    1.3280   -0.1810 C   0  0  0  0  0  0  0  0  0  0  0  0
    3.7341    1.3135   -0.7375 C   0  0  0  0  0  0  0  0  0  0  0  0
    3.8372    1.4019   -1.8284 H   0  0  0  0  0  0  0  0  0  0  0  0
    4.8594    1.1735    0.0846 C   0  0  0  0  0  0  0  0  0  0  0  0
    5.8637    1.1525   -0.3627 H   0  0  0  0  0  0  0  0  0  0  0  0
    4.6994    1.0420    1.4721 C   0  0  0  0  0  0  0  0  0  0  0  0
    5.5782    0.9178    2.1215 H   0  0  0  0  0  0  0  0  0  0  0  0
    3.4157    1.0288    2.0330 C   0  0  0  0  0  0  0  0  0  0  0  0
    3.2723    0.8747    3.1120 H   0  0  0  0  0  0  0  0  0  0  0  0
    2.2845    1.1658    1.2134 C   0  0  0  0  0  0  0  0  0  0  0  0
    0.5665    1.9532    2.8244 C   0  0  0  0  0  0  0  0  0  0  0  0
    1.2052    2.7362    3.2424 H   0  0  0  0  0  0  0  0  0  0  0  0
   -0.7158    1.5797    3.1114 C   0  0  0  0  0  0  0  0  0  0  0  0
   -1.4326    1.9793    3.8347 H   0  0  0  0  0  0  0  0  0  0  0  0
    0.0107    0.2022    1.4197 C   0  0  0  0  0  2  0  0  0  0  0  0
   -2.3606   -0.0502    2.1694 C   0  0  0  0  0  0  0  0  0  0  0  0
   -2.7950   -0.0978    3.1884 H   0  0  0  0  0  0  0  0  0  0  0  0
   -2.2360   -1.0931    1.8141 H   0  0  0  0  0  0  0  0  0  0  0  0
   -3.2762    0.7178    1.2326 C   0  0  0  0  0  0  0  0  0  0  0  0
   -4.6633    0.4839    1.2819 C   0  0  0  0  0  0  0  0  0  0  0  0
   -5.0705   -0.2205    2.0249 H   0  0  0  0  0  0  0  0  0  0  0  0
   -5.5279    1.1269    0.3854 C   0  0  0  0  0  0  0  0  0  0  0  0
   -6.6096    0.9296    0.4335 H   0  0  0  0  0  0  0  0  0  0  0  0
   -5.0160    2.0167   -0.5731 C   0  0  0  0  0  0  0  0  0  0  0  0
   -5.6946    2.5204   -1.2781 H   0  0  0  0  0  0  0  0  0  0  0  0
   -3.6351    2.2578   -0.6247 C   0  0  0  0  0  0  0  0  0  0  0  0
   -3.2183    2.9495   -1.3729 H   0  0  0  0  0  0  0  0  0  0  0  0
   -2.7698    1.6113    0.2714 C   0  0  0  0  0  0  0  0  0  0  0  0
   -1.6873    1.7903    0.2045 H   0  0  0  0  0  0  0  0  0  0  0  0
  1  2  1  0  0  0  0
  2 17  1  0  0  0  0
  3 27  1  0  0  0  0
  4 29  1  0  0  0  0
  5  8  1  0  0  0  0
  6  5  1  0  0  0  0
  7  5  1  0  0  0  0
  9  5  1  1  0  0  0
  9  1  1  0  0  0  0
 10  9  1  0  0  0  0
 10 12  2  0  0  0  0
 11 10  1  0  0  0  0
 12 13  1  0  0  0  0
 12  2  1  0  0  0  0
 13 14  1  0  0  0  0
 15 13  1  0  0  0  0
 16 13  1  0  0  0  0
 17 26  1  0  0  0  0
 18 17  2  0  0  0  0
 18 20  1  0  0  0  0
 19 18  1  0  0  0  0
 20 22  2  0  0  0  0
 21 20  1  0  0  0  0
 22 24  1  0  0  0  0
 22 23  1  0  0  0  0
 24 25  1  0  0  0  0
 26  3  1  0  0  0  0
 26 24  2  0  0  0  0
 27 29  2  0  0  0  0
 27 28  1  0  0  0  0
 29 30  1  0  0  0  0
 31  3  1  0  0  0  0
 31  4  1  0  0  0  0
 32  4  1  0  0  0  0
 32 33  1  0  0  0  0
 34 32  1  0  0  0  0
 35 36  1  0  0  0  0
 35 32  1  0  0  0  0
 36 37  1  0  0  0  0
 38 39  1  0  0  0  0
 38 36  2  0  0  0  0
 40 38  1  0  0  0  0
 41 40  1  0  0  0  0
 42 40  2  0  0  0  0
 42 44  1  0  0  0  0
 43 42  1  0  0  0  0
 44 35  2  0  0  0  0
 45 44  1  0  0  0  0
M  END
