1,25
q = 0.0, confidence = 0.996

 39 42  0  0  0  0  0  0  0  0999 V2000
    0.6733   -0.0416    1.6604 N   0  0  0  0  0  2  0  0  0  0  0  0
    1.4715   -1.1468    1.6535 N   0  0  0  0  0  0  0  0  0  0  0  0
    0.7617   -1.6181   -1.1307 N   0  0  0  0  0  0  0  0  0  0  0  0
   -1.2070   -0.9490   -1.6964 N   0  0  0  0  0  0  0  0  0  0  0  0
   -0.0345   -0.1142    2.8022 C   0  0  0  0  0  3  0  0  0  0  0  0
   -0.7629    0.6717    3.0294 H   0  0  0  0  0  0  0  0  0  0  0  0
    0.3117   -1.2676    3.5438 C   0  0  0  0  0  0  0  0  0  0  0  0
   -0.0971   -1.5940    4.5048 H   0  0  0  0  0  0  0  0  0  0  0  0
    1.2850   -1.9034    2.7828 C   0  0  0  0  0  0  0  0  0  0  0  0
    1.8494   -2.8292    2.9329 H   0  0  0  0  0  0  0  0  0  0  0  0
    2.4603   -1.3856    0.6559 C   0  0  0  0  0  0  0  0  0  0  0  0
    3.8087   -1.4179    1.0485 C   0  0  0  0  0  0  0  0  0  0  0  0
    4.0566   -1.1858    2.0940 H   0  0  0  0  0  0  0  0  0  0  0  0
    4.8113   -1.7227    0.1193 C   0  0  0  0  0  0  0  0  0  0  0  0
    5.8641   -1.7352    0.4364 H   0  0  0  0  0  0  0  0  0  0  0  0
    4.4684   -1.9883   -1.2141 C   0  0  0  0  0  0  0  0  0  0  0  0
    5.2506   -2.2102   -1.9545 H   0  0  0  0  0  0  0  0  0  0  0  0
    3.1272   -1.9423   -1.6154 C   0  0  0  0  0  0  0  0  0  0  0  0
    2.8469   -2.1124   -2.6647 H   0  0  0  0  0  0  0  0  0  0  0  0
    2.1137   -1.6422   -0.6907 C   0  0  0  0  0  0  0  0  0  0  0  0
    0.1564   -2.6891   -1.7935 C   0  0  0  0  0  0  0  0  0  0  0  0
    0.6604   -3.6489   -1.9365 H   0  0  0  0  0  0  0  0  0  0  0  0
   -1.0950   -2.2631   -2.1366 C   0  0  0  0  0  0  0  0  0  0  0  0
   -1.9169   -2.7835   -2.6368 H   0  0  0  0  0  0  0  0  0  0  0  0
   -0.0702   -0.5082   -1.0653 C   0  0  0  0  0  2  0  0  0  0  0  0
   -2.4443   -0.1850   -1.7888 C   0  0  0  0  0  0  0  0  0  0  0  0
   -2.8441   -0.2750   -2.8187 H   0  0  0  0  0  0  0  0  0  0  0  0
   -2.1623    0.8759   -1.6316 H   0  0  0  0  0  0  0  0  0  0  0  0
   -3.4800   -0.6242   -0.7724 C   0  0  0  0  0  0  0  0  0  0  0  0
   -4.8496   -0.5544   -1.0871 C   0  0  0  0  0  0  0  0  0  0  0  0
   -5.1611   -0.2147   -2.0880 H   0  0  0  0  0  0  0  0  0  0  0  0
   -5.8194   -0.9076   -0.1367 C   0  0  0  0  0  0  0  0  0  0  0  0
   -6.8871   -0.8464   -0.3967 H   0  0  0  0  0  0  0  0  0  0  0  0
   -5.4287   -1.3426    1.1392 C   0  0  0  0  0  0  0  0  0  0  0  0
   -6.1885   -1.6221    1.8847 H   0  0  0  0  0  0  0  0  0  0  0  0
   -4.0635   -1.4204    1.4577 C   0  0  0  0  0  0  0  0  0  0  0  0
   -3.7467   -1.7575    2.4566 H   0  0  0  0  0  0  0  0  0  0  0  0
   -3.0950   -1.0635    0.5094 C   0  0  0  0  0  0  0  0  0  0  0  0
   -2.0268   -1.1127    0.7694 H   0  0  0  0  0  0  0  0  0  0  0  0
  1  5  1  0  0  0  0
  2  1  1  0  0  0  0
  2  9  1  0  0  0  0
  3 25  1  0  0  0  0
  3 20  1  0  0  0  0
  4 25  1  0  0  0  0
  5  6  1  0  0  0  0
  5  7  1  0  0  0  0
  7  8  1  0  0  0  0
  9 10  1  0  0  0  0
  9  7  2  0  0  0  0
 11 12  1  0  0  0  0
 11  2  1  0  0  0  0
 12 13  1  0  0  0  0
 14 15  1  0  0  0  0
 14 12  2  0  0  0  0
 16 14  1  0  0  0  0
 17 16  1  0  0  0  0
 18 16  2  0  0  0  0
 18 20  1  0  0  0  0
 19 18  1  0  0  0  0
 20 11  2  0  0  0  0
 21  3  1  0  0  0  0
 22 21  1  0  0  0  0
 23 21  2  0  0  0  0
 23  4  1  0  0  0  0
 24 23  1  0  0  0  0
 26  4  1  0  0  0  0
 26 28  1  0  0  0  0
 26 29  1  0  0  0  0
 27 26  1  0  0  0  0
 29 38  1  0  0  0  0
 30 29  2  0  0  0  0
 30 32  1  0  0  0  0
 31 30  1  0  0  0  0
 32 34  2  0  0  0  0
 33 32  1  0  0  0  0
 34 36  1  0  0  0  0
 34 35  1  0  0  0  0
 36 37  1  0  0  0  0
 38 39  1  0  0  0  0
 38 36  2  0  0  0  0
M  END
