1,4
q = -1.0, confidence = 0.0

 42 44  0  0  1  0  0  0  0  0999 V2000
   -1.0882    0.7334   -0.4174 N   0  0  0  0  0  2  0  0  0  0  0  0
   -4.0186   -0.7520   -2.0090 O   0  0  0  0  0  0  0  0  0  0  0  0
   -4.7831   -0.9929   -2.5662 H   0  0  0  0  0  0  0  0  0  0  0  0
   -0.1620   -1.8020   -0.2175 C   0  0  0  0  0  3  0  0  0  0  0  0
    0.0461   -2.3576   -1.1555 H   0  0  0  0  0  0  0  0  0  0  0  0
   -1.6810   -1.5589   -0.0127 C   0  0  1  0  0  0  0  0  0  0  0  0
   -2.3020   -2.0806   -0.7731 H   0  0  0  0  0  0  0  0  0  0  0  0
   -1.9582   -2.2060    1.4031 C   0  0  1  0  0  0  0  0  0  0  0  0
   -2.9078   -1.8819    1.8656 H   0  0  0  0  0  0  0  0  0  0  0  0
   -1.7812   -3.7001    1.1769 C   0  0  0  0  0  0  0  0  0  0  0  0
   -2.6037   -4.4233    1.0845 H   0  0  0  0  0  0  0  0  0  0  0  0
   -0.4626   -3.9199    0.9748 C   0  0  0  0  0  0  0  0  0  0  0  0
    0.0198   -4.8615    0.6757 H   0  0  0  0  0  0  0  0  0  0  0  0
    0.2469   -2.5743    1.0832 C   0  0  2  0  0  0  0  0  0  0  0  0
    1.3319   -2.6157    1.2864 H   0  0  0  0  0  0  0  0  0  0  0  0
   -0.6415   -1.8680    2.1337 C   0  0  0  0  0  0  0  0  0  0  0  0
   -0.4393   -0.7788    2.2136 H   0  0  0  0  0  0  0  0  0  0  0  0
   -0.5779   -2.3388    3.1334 H   0  0  0  0  0  0  0  0  0  0  0  0
   -2.0440   -0.1142   -0.1406 C   0  0  1  0  0  3  0  0  0  0  0  0
   -1.3276    2.1698   -0.8092 C   0  0  0  0  0  0  0  0  0  0  0  0
   -1.2538    3.0252    0.4699 C   0  0  0  0  0  0  0  0  0  0  0  0
   -2.1869    2.9252    1.0561 H   0  0  0  0  0  0  0  0  0  0  0  0
   -1.1290    4.0965    0.2155 H   0  0  0  0  0  0  0  0  0  0  0  0
   -0.4179    2.7104    1.1231 H   0  0  0  0  0  0  0  0  0  0  0  0
   -0.2226    2.5251   -1.8256 C   0  0  0  0  0  0  0  0  0  0  0  0
    0.7917    2.2809   -1.4627 H   0  0  0  0  0  0  0  0  0  0  0  0
   -0.2647    3.6055   -2.0649 H   0  0  0  0  0  0  0  0  0  0  0  0
   -0.3793    1.9603   -2.7658 H   0  0  0  0  0  0  0  0  0  0  0  0
   -2.6665    2.4217   -1.5334 C   0  0  0  0  0  0  0  0  0  0  0  0
   -2.8484    1.6586   -2.3153 H   0  0  0  0  0  0  0  0  0  0  0  0
   -2.6026    3.4079   -2.0338 H   0  0  0  0  0  0  0  0  0  0  0  0
   -3.5354    2.4529   -0.8549 H   0  0  0  0  0  0  0  0  0  0  0  0
   -3.4810    0.2007    0.0913 C   0  0  0  0  0  0  0  0  0  0  0  0
   -4.4646   -0.2059   -0.8427 C   0  0  0  0  0  0  0  0  0  0  0  0
   -5.8258    0.0058   -0.5657 C   0  0  0  0  0  0  0  0  0  0  0  0
   -6.5838   -0.2938   -1.3074 H   0  0  0  0  0  0  0  0  0  0  0  0
   -6.2146    0.5995    0.6435 C   0  0  0  0  0  0  0  0  0  0  0  0
   -7.2839    0.7574    0.8479 H   0  0  0  0  0  0  0  0  0  0  0  0
   -5.2504    0.9843    1.5880 C   0  0  0  0  0  0  0  0  0  0  0  0
   -5.5547    1.4367    2.5424 H   0  0  0  0  0  0  0  0  0  0  0  0
   -3.8916    0.7799    1.3086 C   0  0  0  0  0  0  0  0  0  0  0  0
   -3.1280    1.0574    2.0502 H   0  0  0  0  0  0  0  0  0  0  0  0
  2 34  1  0  0  0  0
  3  2  1  0  0  0  0
  4  6  1  0  0  0  0
  4 14  1  0  0  0  0
  5  4  1  0  0  0  0
  6  7  1  6  0  0  0
  6  8  1  0  0  0  0
  8  9  1  1  0  0  0
  8 16  1  0  0  0  0
 10  8  1  0  0  0  0
 11 10  1  0  0  0  0
 12 14  1  0  0  0  0
 12 10  2  0  0  0  0
 13 12  1  0  0  0  0
 14 15  1  1  0  0  0
 14 16  1  0  0  0  0
 16 17  1  0  0  0  0
 16 18  1  0  0  0  0
 19  1  1  1  0  0  0
 19  6  1  0  0  0  0
 19 33  1  0  0  0  0
 20  1  1  0  0  0  0
 20 21  1  0  0  0  0
 21 22  1  0  0  0  0
 21 24  1  0  0  0  0
 23 21  1  0  0  0  0
 25 26  1  0  0  0  0
 25 20  1  0  0  0  0
 27 25  1  0  0  0  0
 28 25  1  0  0  0  0
 29 32  1  0  0  0  0
 29 20  1  0  0  0  0
 30 29  1  0  0  0  0
 31 29  1  0  0  0  0
 33 41  1  0  0  0  0
 34 35  1  0  0  0  0
 34 33  2  0  0  0  0
 35 37  2  0  0  0  0
 36 35  1  0  0  0  0
 37 38  1  0  0  0  0
 37 39  1  0  0  0  0
 39 40  1  0  0  0  0
 41 39  2  0  0  0  0
 41 42  1  0  0  0  0
M  END
