3,13
q = -1.0, confidence = 0.0

 26 27  0  0  1  0  0  0  0  0999 V2000
    0.0685    2.4521   -1.8213 S   0  0  0  0  0  0  0  0  0  0  0  0
    0.1268    3.0702    1.1737 O   0  0  0  0  0  0  0  0  0  0  0  0
   -2.0179    1.5574   -0.4159 N   0  0  0  0  0  2  0  0  0  0  0  0
   -1.5658    2.5718   -1.2054 C   0  0  2  0  0  3  0  0  0  0  0  0
   -2.3868    3.6762   -1.5211 C   0  0  0  0  0  0  0  0  0  0  0  0
   -1.9902    4.4770   -2.1603 H   0  0  0  0  0  0  0  0  0  0  0  0
   -3.6676    3.7468   -0.9740 C   0  0  0  0  0  0  0  0  0  0  0  0
   -4.3188    4.6038   -1.2034 H   0  0  0  0  0  0  0  0  0  0  0  0
   -4.0989    2.7351   -0.0960 C   0  0  0  0  0  0  0  0  0  0  0  0
   -5.0856    2.7702    0.3856 H   0  0  0  0  0  0  0  0  0  0  0  0
   -3.2350    1.6683    0.1582 C   0  0  0  0  0  0  0  0  0  0  0  0
   -3.5165    0.8528    0.8417 H   0  0  0  0  0  0  0  0  0  0  0  0
    0.7666    1.4436   -0.4812 C   0  0  0  0  0  3  0  0  0  0  0  0
    1.6882    0.9723   -0.8656 H   0  0  0  0  0  0  0  0  0  0  0  0
    0.8795    2.1544    0.8318 C   0  0  0  0  0  0  0  0  0  0  0  0
    1.9200    1.6325    1.7938 C   0  0  0  0  0  0  0  0  0  0  0  0
    1.6183    1.6451    3.1708 C   0  0  0  0  0  0  0  0  0  0  0  0
    0.6358    2.0297    3.4821 H   0  0  0  0  0  0  0  0  0  0  0  0
    2.5477    1.1734    4.1057 C   0  0  0  0  0  0  0  0  0  0  0  0
    2.2945    1.1678    5.1770 H   0  0  0  0  0  0  0  0  0  0  0  0
    3.8041    0.7090    3.6786 C   0  0  0  0  0  0  0  0  0  0  0  0
    4.5363    0.3416    4.4138 H   0  0  0  0  0  0  0  0  0  0  0  0
    4.1265    0.7246    2.3124 C   0  0  0  0  0  0  0  0  0  0  0  0
    5.1180    0.3848    1.9752 H   0  0  0  0  0  0  0  0  0  0  0  0
    3.1868    1.1781    1.3735 C   0  0  0  0  0  0  0  0  0  0  0  0
    3.4508    1.2000    0.3059 H   0  0  0  0  0  0  0  0  0  0  0  0
  1 13  1  0  0  0  0
  3 11  1  0  0  0  0
  4  1  1  6  0  0  0
  4  3  1  0  0  0  0
  5  4  1  0  0  0  0
  5  7  2  0  0  0  0
  6  5  1  0  0  0  0
  7  9  1  0  0  0  0
  8  7  1  0  0  0  0
  9 11  2  0  0  0  0
  9 10  1  0  0  0  0
 11 12  1  0  0  0  0
 13 15  1  0  0  0  0
 14 13  1  0  0  0  0
 15  2  2  0  0  0  0
 15 16  1  0  0  0  0
 16 17  1  0  0  0  0
 17 18  1  0  0  0  0
 17 19  2  0  0  0  0
 19 20  1  0  0  0  0
 21 19  1  0  0  0  0
 21 22  1  0  0  0  0
 23 21  2  0  0  0  0
 24 23  1  0  0  0  0
 25 16  2  0  0  0  0
 25 23  1  0  0  0  0
 26 25  1  0  0  0  0
M  END
