1,16
q = -1.0, confidence = 0.016

 32 33  0  0  0  0  0  0  0  0999 V2000
    1.1190    0.6137   -0.5800 C   0  0  0  0  0  2  0  0  0  0  0  0
    2.5110    0.6781   -0.5467 N   0  0  0  0  0  0  0  0  0  0  0  0
    1.6989    4.4619   -0.0468 Cl  0  0  0  0  0  0  0  0  0  0  0  0
    0.7000    1.9353   -0.4343 N   0  0  0  0  0  0  0  0  0  0  0  0
    2.9261    1.9782   -0.3335 C   0  0  0  0  0  0  0  0  0  0  0  0
    4.5621    2.4705   -0.2952 Cl  0  0  0  0  0  0  0  0  0  0  0  0
    1.8034    2.7711   -0.2562 C   0  0  0  0  0  0  0  0  0  0  0  0
   -0.6036    2.4155   -0.4813 C   0  0  0  0  0  3  0  0  0  0  0  0
   -0.7110    3.4675   -0.2035 H   0  0  0  0  0  0  0  0  0  0  0  0
    3.4631   -0.4091   -0.7788 C   0  0  0  0  0  0  0  0  0  0  0  0
    4.2224   -0.0316   -1.4958 H   0  0  0  0  0  0  0  0  0  0  0  0
    2.8990   -1.2315   -1.2529 H   0  0  0  0  0  0  0  0  0  0  0  0
    4.1346   -0.9139    0.4990 C   0  0  0  0  0  0  0  0  0  0  0  0
    4.7076   -0.0912    0.9785 H   0  0  0  0  0  0  0  0  0  0  0  0
    3.3344   -1.2262    1.2005 H   0  0  0  0  0  0  0  0  0  0  0  0
   -1.6264    0.3798   -1.3724 N   0  0  0  0  0  2  0  0  0  0  0  0
   -2.6810   -0.1528   -2.0663 C   0  0  0  0  0  3  0  0  0  0  0  0
   -2.5492   -1.1910   -2.3960 H   0  0  0  0  0  0  0  0  0  0  0  0
   -3.8522    0.5258   -2.3442 C   0  0  0  0  0  0  0  0  0  0  0  0
   -4.6503    0.0250   -2.9081 H   0  0  0  0  0  0  0  0  0  0  0  0
   -3.9852    1.8624   -1.8710 C   0  0  0  0  0  0  0  0  0  0  0  0
   -4.9180    2.4243   -2.0283 H   0  0  0  0  0  0  0  0  0  0  0  0
   -2.9230    2.4434   -1.2217 C   0  0  0  0  0  0  0  0  0  0  0  0
   -2.9759    3.4779   -0.8542 H   0  0  0  0  0  0  0  0  0  0  0  0
   -1.6860    1.7281   -1.0190 C   0  0  0  0  0  0  0  0  0  0  0  0
    5.0514   -2.1065    0.2212 C   0  0  0  0  0  0  0  0  0  0  0  0
    5.8286   -1.8163   -0.5215 H   0  0  0  0  0  0  0  0  0  0  0  0
    4.4459   -2.9067   -0.2573 H   0  0  0  0  0  0  0  0  0  0  0  0
    5.7187   -2.6502    1.4844 C   0  0  0  0  0  0  0  0  0  0  0  0
    6.3764   -3.5145    1.2617 H   0  0  0  0  0  0  0  0  0  0  0  0
    4.9592   -2.9875    2.2199 H   0  0  0  0  0  0  0  0  0  0  0  0
    6.3395   -1.8754    1.9814 H   0  0  0  0  0  0  0  0  0  0  0  0
  1  2  1  0  0  0  0
  1  4  1  0  0  0  0
  2  5  1  0  0  0  0
  4  7  1  0  0  0  0
  5  6  1  0  0  0  0
  5  7  2  0  0  0  0
  7  3  1  0  0  0  0
  8  4  1  0  0  0  0
  8  9  1  0  0  0  0
 10  2  1  0  0  0  0
 10 13  1  0  0  0  0
 11 10  1  0  0  0  0
 12 10  1  0  0  0  0
 13 14  1  0  0  0  0
 13 15  1  0  0  0  0
 16 25  1  0  0  0  0
 17 16  1  0  0  0  0
 18 17  1  0  0  0  0
 19 17  1  0  0  0  0
 19 21  2  0  0  0  0
 20 19  1  0  0  0  0
 21 23  1  0  0  0  0
 22 21  1  0  0  0  0
 23 25  2  0  0  0  0
 23 24  1  0  0  0  0
 25  8  1  0  0  0  0
 26 13  1  0  0  0  0
 26 29  1  0  0  0  0
 27 26  1  0  0  0  0
 28 26  1  0  0  0  0
 29 32  1  0  0  0  0
 29 31  1  0  0  0  0
 30 29  1  0  0  0  0
M  END
