2,3
q = -1.0, confidence = 0.002

 26 28  0  0  1  0  0  0  0  0999 V2000
   -3.6480    1.1408   -2.5479 S   0  0  0  0  0  0  0  0  0  0  0  0
    0.2466    1.7305   -1.4497 C   0  0  0  0  0  3  0  0  0  0  0  0
   -1.9219    0.4611   -0.7225 N   0  0  0  0  0  2  0  0  0  0  0  0
   -4.1974    0.1583   -1.1985 C   0  0  0  0  0  0  0  0  0  0  0  0
   -2.0375    1.1623   -1.8634 C   0  0  2  0  0  3  0  0  0  0  0  0
   -5.4862   -0.3272   -0.9465 C   0  0  0  0  0  0  0  0  0  0  0  0
   -6.3195   -0.1345   -1.6354 H   0  0  0  0  0  0  0  0  0  0  0  0
   -3.1187   -0.0951   -0.3037 C   0  0  0  0  0  0  0  0  0  0  0  0
   -8.0219   -1.1019   -0.2456 F   0  0  0  0  0  0  0  0  0  0  0  0
   -3.3470   -0.8164    0.8859 C   0  0  0  0  0  0  0  0  0  0  0  0
   -2.5131   -0.9691    1.5845 H   0  0  0  0  0  0  0  0  0  0  0  0
    1.4426    3.2978   -2.9037 C   0  0  0  0  0  0  0  0  0  0  0  0
    2.3607    3.8629   -3.1302 H   0  0  0  0  0  0  0  0  0  0  0  0
   -0.8832    1.8851   -2.3255 C   0  0  0  0  0  0  0  0  0  0  0  0
    1.4033    2.4747   -1.7690 C   0  0  0  0  0  0  0  0  0  0  0  0
    2.2918    2.4054   -1.1232 H   0  0  0  0  0  0  0  0  0  0  0  0
   -0.8407    2.7107   -3.4718 C   0  0  0  0  0  0  0  0  0  0  0  0
   -1.7239    2.7985   -4.1252 H   0  0  0  0  0  0  0  0  0  0  0  0
    0.3279    3.4159   -3.7623 C   0  0  0  0  0  0  0  0  0  0  0  0
    0.3785    4.0637   -4.6496 H   0  0  0  0  0  0  0  0  0  0  0  0
   -5.6922   -1.0618    0.2304 C   0  0  0  0  0  0  0  0  0  0  0  0
   -4.6331   -1.2926    1.1404 C   0  0  0  0  0  0  0  0  0  0  0  0
   -4.8347   -1.8476    2.0679 H   0  0  0  0  0  0  0  0  0  0  0  0
   -7.0731   -2.9857    0.3143 F   0  0  0  0  0  0  0  0  0  0  0  0
   -7.4034   -1.4510    1.8229 F   0  0  0  0  0  0  0  0  0  0  0  0
   -7.0521   -1.6454    0.5281 C   0  0  0  0  0  0  0  0  0  0  0  0
  1  5  1  0  0  0  0
  1  4  1  0  0  0  0
  3  8  1  0  0  0  0
  4  6  2  0  0  0  0
  4  8  1  0  0  0  0
  5 14  1  1  0  0  0
  5  3  1  0  0  0  0
  6 21  1  0  0  0  0
  7  6  1  0  0  0  0
  8 10  2  0  0  0  0
  9 26  1  0  0  0  0
 10 22  1  0  0  0  0
 10 11  1  0  0  0  0
 12 15  2  0  0  0  0
 13 12  1  0  0  0  0
 14  2  2  0  0  0  0
 15  2  1  0  0  0  0
 15 16  1  0  0  0  0
 17 14  1  0  0  0  0
 18 17  1  0  0  0  0
 19 17  2  0  0  0  0
 19 12  1  0  0  0  0
 20 19  1  0  0  0  0
 21 26  1  0  0  0  0
 21 22  2  0  0  0  0
 22 23  1  0  0  0  0
 24 26  1  0  0  0  0
 26 25  1  0  0  0  0
M  END
