32,53
q = -1.0, confidence = 0.024

 56 60  0  0  1  0  0  0  0  0999 V2000
    0.4204   -0.7335   -1.2056 C   0  0  1  0  0  0  0  0  0  0  0  0
   -0.6197   -1.7360   -0.8028 C   0  0  1  0  0  3  0  0  0  0  0  0
   -1.6380   -3.6993   -0.5343 C   0  0  0  0  0  0  0  0  0  0  0  0
   -1.2435   -4.2588    0.3395 H   0  0  0  0  0  0  0  0  0  0  0  0
   -2.0597   -4.4093   -1.2702 H   0  0  0  0  0  0  0  0  0  0  0  0
   -2.6201   -2.5637   -0.1209 C   0  0  0  0  0  0  0  0  0  0  0  0
   -3.7637   -2.4086   -1.1326 C   0  0  0  0  0  0  0  0  0  0  0  0
   -4.3756   -1.5166   -0.9002 H   0  0  0  0  0  0  0  0  0  0  0  0
   -4.4236   -3.2992   -1.1052 H   0  0  0  0  0  0  0  0  0  0  0  0
   -3.3666   -2.2955   -2.1611 H   0  0  0  0  0  0  0  0  0  0  0  0
   -3.1405   -2.7500    1.3051 C   0  0  0  0  0  0  0  0  0  0  0  0
   -2.3032   -2.7767    2.0296 H   0  0  0  0  0  0  0  0  0  0  0  0
   -3.7088   -3.6987    1.3854 H   0  0  0  0  0  0  0  0  0  0  0  0
   -3.8171   -1.9221    1.5897 H   0  0  0  0  0  0  0  0  0  0  0  0
    1.8111   -1.2292   -0.8665 C   0  0  0  0  0  0  0  0  0  0  0  0
    3.5908   -2.2332    0.0057 C   0  0  0  0  0  0  0  0  0  0  0  0
    3.9732   -2.2260    1.4899 C   0  0  0  0  0  0  0  0  0  0  0  0
    3.5306   -1.3498    2.0032 H   0  0  0  0  0  0  0  0  0  0  0  0
    5.0758   -2.1927    1.6108 H   0  0  0  0  0  0  0  0  0  0  0  0
    3.5957   -3.1411    1.9876 H   0  0  0  0  0  0  0  0  0  0  0  0
    4.1444   -3.4763   -0.7060 C   0  0  0  0  0  0  0  0  0  0  0  0
    3.7129   -4.3940   -0.2603 H   0  0  0  0  0  0  0  0  0  0  0  0
    5.2492   -3.5260   -0.6163 H   0  0  0  0  0  0  0  0  0  0  0  0
    3.8798   -3.4621   -1.7826 H   0  0  0  0  0  0  0  0  0  0  0  0
    4.0182   -0.9083   -0.7101 C   0  0  0  0  0  0  0  0  0  0  0  0
    4.3639   -0.1299    0.0021 H   0  0  0  0  0  0  0  0  0  0  0  0
    4.7875   -1.0534   -1.4947 H   0  0  0  0  0  0  0  0  0  0  0  0
    0.2846   -0.5622   -2.7382 C   0  0  0  0  0  0  0  0  0  0  0  0
    0.3947   -1.5461   -3.2344 H   0  0  0  0  0  0  0  0  0  0  0  0
    1.0758    0.1121   -3.1086 H   0  0  0  0  0  0  0  0  0  0  0  0
   -0.7079   -0.1400   -2.9869 H   0  0  0  0  0  0  0  0  0  0  0  0
    0.1592    0.5801   -0.3726 C   0  0  0  0  0  3  0  0  0  0  0  0
    0.7134    0.5386    1.0324 C   0  0  0  0  0  0  0  0  0  0  0  0
    0.6036   -0.4407    2.0394 C   0  0  0  0  0  0  0  0  0  0  0  0
    0.0471   -1.3706    1.8634 H   0  0  0  0  0  0  0  0  0  0  0  0
    1.2267   -0.2303    3.2791 C   0  0  0  0  0  0  0  0  0  0  0  0
    1.1388   -0.9960    4.0648 H   0  0  0  0  0  0  0  0  0  0  0  0
    1.9625    0.9460    3.5305 C   0  0  0  0  0  0  0  0  0  0  0  0
    2.4372    1.0948    4.5123 H   0  0  0  0  0  0  0  0  0  0  0  0
    2.0929    1.9239    2.5345 C   0  0  0  0  0  0  0  0  0  0  0  0
    2.6732    2.8401    2.7245 H   0  0  0  0  0  0  0  0  0  0  0  0
    1.4801    1.7159    1.2859 C   0  0  0  0  0  0  0  0  0  0  0  0
    1.4684    2.5413    0.0831 C   0  0  0  0  0  0  0  0  0  0  0  0
    2.0291    3.8089   -0.1531 C   0  0  0  0  0  0  0  0  0  0  0  0
    2.6072    4.3167    0.6345 H   0  0  0  0  0  0  0  0  0  0  0  0
    1.8356    4.4201   -1.3981 C   0  0  0  0  0  0  0  0  0  0  0  0
    2.2692    5.4115   -1.5990 H   0  0  0  0  0  0  0  0  0  0  0  0
    1.0642    3.7780   -2.3872 C   0  0  0  0  0  0  0  0  0  0  0  0
    0.8939    4.2771   -3.3535 H   0  0  0  0  0  0  0  0  0  0  0  0
    0.4888    2.5198   -2.1521 C   0  0  0  0  0  0  0  0  0  0  0  0
   -0.1543    2.0718   -2.9209 H   0  0  0  0  0  0  0  0  0  0  0  0
    0.7003    1.8752   -0.9191 C   0  0  0  0  0  0  0  0  0  0  0  0
   -1.7229   -1.3768   -0.2124 N   0  0  0  0  0  2  0  0  0  0  0  0
    2.1142   -2.2300   -0.1261 N   0  0  0  0  0  0  0  0  0  0  0  0
   -0.5154   -3.0195   -1.1521 O   0  0  0  0  0  0  0  0  0  0  0  0
    2.8088   -0.4292   -1.3394 O   0  0  0  0  0  0  0  0  0  0  0  0
  1 28  1  6  0  0  0
  1 15  1  0  0  0  0
  1 32  1  0  0  0  0
  2  1  1  6  0  0  0
  2 53  1  0  0  0  0
  3  6  1  0  0  0  0
  3  4  1  0  0  0  0
  5  3  1  0  0  0  0
  6 11  1  0  0  0  0
  7  9  1  0  0  0  0
  7  8  1  0  0  0  0
  7  6  1  0  0  0  0
 10  7  1  0  0  0  0
 11 13  1  0  0  0  0
 11 14  1  0  0  0  0
 11 12  1  0  0  0  0
 15 54  2  0  0  0  0
 16 17  1  0  0  0  0
 17 19  1  0  0  0  0
 17 20  1  0  0  0  0
 17 18  1  0  0  0  0
 21 23  1  0  0  0  0
 21 22  1  0  0  0  0
 21 16  1  0  0  0  0
 24 21  1  0  0  0  0
 25 26  1  0  0  0  0
 25 16  1  0  0  0  0
 27 25  1  0  0  0  0
 29 28  1  0  0  0  0
 30 28  1  0  0  0  0
 31 28  1  0  0  0  0
 32 33  1  0  0  0  0
 33 42  2  0  0  0  0
 33 34  1  0  0  0  0
 34 36  2  0  0  0  0
 35 34  1  0  0  0  0
 36 38  1  0  0  0  0
 36 37  1  0  0  0  0
 38 39  1  0  0  0  0
 40 41  1  0  0  0  0
 40 38  2  0  0  0  0
 42 40  1  0  0  0  0
 43 42  1  0  0  0  0
 44 43  1  0  0  0  0
 44 45  1  0  0  0  0
 46 44  2  0  0  0  0
 47 46  1  0  0  0  0
 48 50  2  0  0  0  0
 48 46  1  0  0  0  0
 49 48  1  0  0  0  0
 50 52  1  0  0  0  0
 51 50  1  0  0  0  0
 52 32  1  0  0  0  0
 52 43  2  0  0  0  0
 53  6  1  0  0  0  0
 54 16  1  0  0  0  0
 55  2  1  0  0  0  0
 55  3  1  0  0  0  0
 56 15  1  0  0  0  0
 56 25  1  0  0  0  0
M  END
