1,5
q = 0.0, confidence = 0.986

 28 27  0  0  0  0  0  0  0  0999 V2000
    1.7683    0.3267   -0.0099 N   0  0  0  0  0  2  0  0  0  0  0  0
    2.0997    1.5878    0.0893 C   0  0  0  0  0  3  0  0  0  0  0  0
    1.0636    2.5988   -0.0607 C   0  0  0  0  0  0  0  0  0  0  0  0
   -0.1663    2.0874   -0.7024 C   0  0  0  0  0  3  0  0  0  0  0  0
   -0.1354    1.2999   -1.9065 C   0  0  0  0  0  3  0  0  0  0  0  0
   -1.2544    1.3305   -2.9160 C   0  0  0  0  0  0  0  0  0  0  0  0
    1.2304    3.8592    0.4276 C   0  0  0  0  0  0  0  0  0  0  0  0
    2.8847   -0.6866   -0.0021 C   0  0  0  0  0  0  0  0  0  0  0  0
    4.0512   -0.2546    0.9100 C   0  0  0  0  0  0  0  0  0  0  0  0
    3.3712   -0.8079   -1.4609 C   0  0  0  0  0  0  0  0  0  0  0  0
    2.3657   -2.0418    0.4903 C   0  0  0  0  0  0  0  0  0  0  0  0
    3.1377    1.9007    0.2960 H   0  0  0  0  0  0  0  0  0  0  0  0
   -1.0684    2.6962   -0.5261 H   0  0  0  0  0  0  0  0  0  0  0  0
    0.8573    1.0966   -2.3478 H   0  0  0  0  0  0  0  0  0  0  0  0
    0.4323    4.6126    0.3445 H   0  0  0  0  0  0  0  0  0  0  0  0
    2.1646    4.1597    0.9265 H   0  0  0  0  0  0  0  0  0  0  0  0
   -1.3435    0.3429   -3.4116 H   0  0  0  0  0  0  0  0  0  0  0  0
   -2.2276    1.5739   -2.4470 H   0  0  0  0  0  0  0  0  0  0  0  0
   -1.0618    2.0903   -3.7064 H   0  0  0  0  0  0  0  0  0  0  0  0
    4.7733   -1.0909    0.9814 H   0  0  0  0  0  0  0  0  0  0  0  0
    3.6970   -0.0223    1.9351 H   0  0  0  0  0  0  0  0  0  0  0  0
    4.6132    0.6182    0.5231 H   0  0  0  0  0  0  0  0  0  0  0  0
    4.1853   -1.5580   -1.5232 H   0  0  0  0  0  0  0  0  0  0  0  0
    3.7617    0.1646   -1.8240 H   0  0  0  0  0  0  0  0  0  0  0  0
    2.5344   -1.1304   -2.1106 H   0  0  0  0  0  0  0  0  0  0  0  0
    1.5231   -2.3821   -0.1379 H   0  0  0  0  0  0  0  0  0  0  0  0
    3.1822   -2.7877    0.4223 H   0  0  0  0  0  0  0  0  0  0  0  0
    2.0453   -1.9834    1.5461 H   0  0  0  0  0  0  0  0  0  0  0  0
  1  8  1  0  0  0  0
  1  2  1  0  0  0  0
  2 12  1  0  0  0  0
  3  2  1  0  0  0  0
  3  7  2  0  0  0  0
  4 13  1  0  0  0  0
  4  3  1  0  0  0  0
  5  4  1  0  0  0  0
  6 18  1  0  0  0  0
  6  5  1  0  0  0  0
  7 16  1  0  0  0  0
  8 11  1  0  0  0  0
  8  9  1  0  0  0  0
  9 20  1  0  0  0  0
  9 21  1  0  0  0  0
 10  8  1  0  0  0  0
 11 28  1  0  0  0  0
 14  5  1  0  0  0  0
 15  7  1  0  0  0  0
 17  6  1  0  0  0  0
 19  6  1  0  0  0  0
 22  9  1  0  0  0  0
 23 10  1  0  0  0  0
 24 10  1  0  0  0  0
 25 10  1  0  0  0  0
 26 11  1  0  0  0  0
 27 11  1  0  0  0  0
M  END
