1,20
q = -1.0, confidence = 0.006

 54 58  0  0  1  0  0  0  0  0999 V2000
    0.3824   -0.4661    0.3416 N   0  0  0  0  0  2  0  0  0  0  0  0
    1.6964   -0.2737    0.1616 C   0  0  1  0  0  3  0  0  0  0  0  0
    2.5778   -0.2323    1.2762 C   0  0  0  0  0  0  0  0  0  0  0  0
    2.0497   -0.4132    2.5591 C   0  0  0  0  0  0  0  0  0  0  0  0
    0.6652   -0.5914    2.7251 C   0  0  0  0  0  0  0  0  0  0  0  0
   -0.1447   -0.5944    1.5850 C   0  0  0  0  0  0  0  0  0  0  0  0
    2.2723   -0.1413   -1.2260 C   0  0  0  0  0  0  0  0  0  0  0  0
    3.7925    0.0625   -1.1577 C   0  0  2  0  0  0  0  0  0  0  0  0
    4.4701   -0.9935   -0.2078 C   0  0  0  0  0  0  0  0  0  0  0  0
    4.0313   -0.0134    0.9555 C   0  0  1  0  0  0  0  0  0  0  0  0
    4.1082    1.1427   -0.0870 C   0  0  0  0  0  0  0  0  0  0  0  0
    5.9934   -1.0256   -0.3753 C   0  0  0  0  0  0  0  0  0  0  0  0
    3.9411   -2.4269   -0.2004 C   0  0  0  0  0  0  0  0  0  0  0  0
   -1.6189   -0.7544    1.5364 C   0  0  0  0  0  0  0  0  0  0  0  0
   -2.4473    0.1515    0.7492 C   0  0  0  0  0  0  0  0  0  0  0  0
   -3.8716   -0.0264    0.8644 C   0  0  0  0  0  0  0  0  0  0  0  0
   -4.4353   -0.9640    1.7094 C   0  0  0  0  0  0  0  0  0  0  0  0
   -3.6157   -1.8219    2.4893 C   0  0  0  0  0  0  0  0  0  0  0  0
   -2.2392   -1.7120    2.3947 C   0  0  0  0  0  0  0  0  0  0  0  0
   -1.9016    1.0855   -0.2512 C   0  0  1  0  0  3  0  0  0  0  0  0
   -2.8699    1.6028   -1.1356 O   0  0  0  0  0  0  0  0  0  0  0  0
   -3.4077    2.8732   -0.7820 C   0  0  0  0  0  0  0  0  0  0  0  0
   -0.8028    2.0521    0.0550 C   0  0  0  0  0  0  0  0  0  0  0  0
   -0.4273    2.3912    1.3728 C   0  0  0  0  0  0  0  0  0  0  0  0
    0.6240    3.2888    1.6157 C   0  0  0  0  0  0  0  0  0  0  0  0
    1.2966    3.8984    0.5459 C   0  0  0  0  0  0  0  0  0  0  0  0
    0.8996    3.6079   -0.7720 C   0  0  0  0  0  0  0  0  0  0  0  0
   -0.1337    2.6950   -1.0136 C   0  0  0  0  0  0  0  0  0  0  0  0
    2.7198   -0.4027    3.4326 H   0  0  0  0  0  0  0  0  0  0  0  0
    0.2143   -0.7083    3.7203 H   0  0  0  0  0  0  0  0  0  0  0  0
    1.7895    0.7176   -1.7367 H   0  0  0  0  0  0  0  0  0  0  0  0
    2.0027   -1.0392   -1.8222 H   0  0  0  0  0  0  0  0  0  0  0  0
    4.2246    0.1801   -2.1722 H   0  0  0  0  0  0  0  0  0  0  0  0
    4.6606    0.0282    1.8675 H   0  0  0  0  0  0  0  0  0  0  0  0
    3.3795    1.9694    0.0341 H   0  0  0  0  0  0  0  0  0  0  0  0
    5.1256    1.5623   -0.1834 H   0  0  0  0  0  0  0  0  0  0  0  0
    6.4633   -1.6007    0.4493 H   0  0  0  0  0  0  0  0  0  0  0  0
    6.2635   -1.5259   -1.3282 H   0  0  0  0  0  0  0  0  0  0  0  0
    6.4517   -0.0181   -0.3859 H   0  0  0  0  0  0  0  0  0  0  0  0
    4.4086   -3.0075    0.6219 H   0  0  0  0  0  0  0  0  0  0  0  0
    2.8445   -2.4991   -0.0719 H   0  0  0  0  0  0  0  0  0  0  0  0
    4.1982   -2.9353   -1.1528 H   0  0  0  0  0  0  0  0  0  0  0  0
   -4.5104    0.6159    0.2448 H   0  0  0  0  0  0  0  0  0  0  0  0
   -5.5310   -1.0453    1.7742 H   0  0  0  0  0  0  0  0  0  0  0  0
   -4.0691   -2.5742    3.1512 H   0  0  0  0  0  0  0  0  0  0  0  0
   -1.5864   -2.3784    2.9786 H   0  0  0  0  0  0  0  0  0  0  0  0
   -4.2336    3.0733   -1.4917 H   0  0  0  0  0  0  0  0  0  0  0  0
   -3.8119    2.8817    0.2568 H   0  0  0  0  0  0  0  0  0  0  0  0
   -2.6548    3.6876   -0.8651 H   0  0  0  0  0  0  0  0  0  0  0  0
   -0.9733    1.9488    2.2183 H   0  0  0  0  0  0  0  0  0  0  0  0
    0.9092    3.5237    2.6528 H   0  0  0  0  0  0  0  0  0  0  0  0
    2.1164    4.6077    0.7362 H   0  0  0  0  0  0  0  0  0  0  0  0
    1.4084    4.0916   -1.6201 H   0  0  0  0  0  0  0  0  0  0  0  0
   -0.4344    2.4570   -2.0446 H   0  0  0  0  0  0  0  0  0  0  0  0
  1  6  1  0  0  0  0
  2  1  1  6  0  0  0
  2  3  1  0  0  0  0
  3  4  2  0  0  0  0
  4  5  1  0  0  0  0
  4 29  1  0  0  0  0
  5 30  1  0  0  0  0
  6  5  2  0  0  0  0
  7  8  1  0  0  0  0
  7  2  1  0  0  0  0
  8 33  1  6  0  0  0
  8  9  1  0  0  0  0
  8 11  1  0  0  0  0
  9 13  1  0  0  0  0
  9 10  1  0  0  0  0
 10  3  1  0  0  0  0
 10 34  1  1  0  0  0
 11 35  1  0  0  0  0
 11 10  1  0  0  0  0
 12  9  1  0  0  0  0
 12 37  1  0  0  0  0
 13 41  1  0  0  0  0
 13 40  1  0  0  0  0
 14  6  1  0  0  0  0
 14 19  1  0  0  0  0
 15 16  1  0  0  0  0
 15 14  2  0  0  0  0
 16 17  2  0  0  0  0
 17 44  1  0  0  0  0
 17 18  1  0  0  0  0
 18 45  1  0  0  0  0
 19 18  2  0  0  0  0
 19 46  1  0  0  0  0
 20 21  1  1  0  0  0
 20 23  1  0  0  0  0
 20 15  1  0  0  0  0
 21 22  1  0  0  0  0
 22 48  1  0  0  0  0
 23 24  1  0  0  0  0
 24 25  2  0  0  0  0
 24 50  1  0  0  0  0
 25 51  1  0  0  0  0
 26 52  1  0  0  0  0
 26 25  1  0  0  0  0
 27 26  2  0  0  0  0
 28 27  1  0  0  0  0
 28 23  2  0  0  0  0
 31  7  1  0  0  0  0
 32  7  1  0  0  0  0
 36 11  1  0  0  0  0
 38 12  1  0  0  0  0
 39 12  1  0  0  0  0
 42 13  1  0  0  0  0
 43 16  1  0  0  0  0
 47 22  1  0  0  0  0
 49 22  1  0  0  0  0
 53 27  1  0  0  0  0
 54 28  1  0  0  0  0
M  END
