1,25
q = -1.0, confidence = 0.0

 25 25  0  0  1  0  0  0  0  0999 V2000
   -1.0371    0.7292   -0.1535 C   0  0  0  0  0  3  0  0  0  0  0  0
   -1.2043    2.1080   -0.3822 C   0  0  0  0  0  0  0  0  0  0  0  0
   -2.4507    2.7559   -0.3274 C   0  0  0  0  0  0  0  0  0  0  0  0
   -2.5126    3.8374   -0.5146 H   0  0  0  0  0  0  0  0  0  0  0  0
   -3.6034    2.0197   -0.0394 C   0  0  0  0  0  0  0  0  0  0  0  0
   -4.5881    2.5032    0.0126 H   0  0  0  0  0  0  0  0  0  0  0  0
   -3.4827    0.6389    0.1785 C   0  0  0  0  0  0  0  0  0  0  0  0
   -2.2345   -0.0033    0.1154 C   0  0  0  0  0  0  0  0  0  0  0  0
   -2.0733   -1.4848    0.3802 C   0  0  2  0  0  0  0  0  0  0  0  0
   -2.9763   -2.0397    0.0370 H   0  0  0  0  0  0  0  0  0  0  0  0
   -1.8898   -1.7354    1.8798 C   0  0  0  0  0  0  0  0  0  0  0  0
   -0.9553   -1.2576    2.2388 H   0  0  0  0  0  0  0  0  0  0  0  0
   -1.8751   -2.8122    2.1350 H   0  0  0  0  0  0  0  0  0  0  0  0
   -2.7438   -1.2756    2.4126 H   0  0  0  0  0  0  0  0  0  0  0  0
   -1.2880   -1.9924   -1.8816 C   0  0  0  0  0  0  0  0  0  0  0  0
   -0.3948   -2.2161   -2.4930 H   0  0  0  0  0  0  0  0  0  0  0  0
   -1.7012   -1.0149   -2.1867 H   0  0  0  0  0  0  0  0  0  0  0  0
   -2.0538   -2.7842   -2.0457 H   0  0  0  0  0  0  0  0  0  0  0  0
   -0.3935   -3.2797   -0.0515 C   0  0  0  0  0  0  0  0  0  0  0  0
   -1.2038   -4.0388   -0.1320 H   0  0  0  0  0  0  0  0  0  0  0  0
   -0.0040   -3.2502    0.9791 H   0  0  0  0  0  0  0  0  0  0  0  0
    0.4501   -3.5476   -0.7109 H   0  0  0  0  0  0  0  0  0  0  0  0
    0.1662    3.1654   -0.7906 Cl  0  0  0  0  0  0  0  0  0  0  0  0
   -4.9359   -0.2800    0.5467 Cl  0  0  0  0  0  0  0  0  0  0  0  0
   -0.8991   -1.9484   -0.4502 N   0  0  0  0  0  0  0  0  0  0  0  0
  1  8  1  0  0  0  0
  2  3  1  0  0  0  0
  2  1  2  0  0  0  0
  3  5  2  0  0  0  0
  4  3  1  0  0  0  0
  5  6  1  0  0  0  0
  5  7  1  0  0  0  0
  7 24  1  0  0  0  0
  8  7  2  0  0  0  0
  8  9  1  0  0  0  0
  9 10  1  6  0  0  0
  9 11  1  0  0  0  0
 11 13  1  0  0  0  0
 11 12  1  0  0  0  0
 11 14  1  0  0  0  0
 15 25  1  0  0  0  0
 16 15  1  0  0  0  0
 17 15  1  0  0  0  0
 18 15  1  0  0  0  0
 19 21  1  0  0  0  0
 20 19  1  0  0  0  0
 22 19  1  0  0  0  0
 23  2  1  0  0  0  0
 25 19  1  0  0  0  0
 25  9  1  0  0  0  0
M  END
