3,4
q = -1.0, confidence = 0.464

 37 38  0  0  1  0  0  0  0  0999 V2000
   -1.3071   -1.9893    0.2250 Si  0  0  0  0  0  0  0  0  0  0  0  0
   -2.1138    1.2046    0.2483 Si  0  0  0  0  0  0  0  0  0  0  0  0
   -1.1873   -0.2606    0.4694 N   0  0  0  0  0  2  0  0  0  0  0  0
    0.2563   -2.1267   -0.8475 C   0  0  2  0  0  3  0  0  0  0  0  0
    1.5915   -2.2080   -0.3364 C   0  0  0  0  0  0  0  0  0  0  0  0
    1.8765   -2.6736    0.6150 H   0  0  0  0  0  0  0  0  0  0  0  0
    2.4751   -1.5084   -1.2096 C   0  0  0  0  0  0  0  0  0  0  0  0
    3.5621   -1.4063   -1.0974 H   0  0  0  0  0  0  0  0  0  0  0  0
    1.7024   -1.0005   -2.2963 C   0  0  0  0  0  0  0  0  0  0  0  0
    2.0908   -0.4429   -3.1578 H   0  0  0  0  0  0  0  0  0  0  0  0
    0.3493   -1.3767   -2.0756 C   0  0  0  0  0  0  0  0  0  0  0  0
   -0.5005   -1.0981   -2.7136 H   0  0  0  0  0  0  0  0  0  0  0  0
   -0.6811    2.2194   -0.4661 C   0  0  0  0  0  0  0  0  0  0  0  0
    0.4172    2.6715    0.3406 C   0  0  0  0  0  3  0  0  0  0  0  0
    0.3589    2.9322    1.4044 H   0  0  0  0  0  0  0  0  0  0  0  0
    1.6083    2.6666   -0.4369 C   0  0  0  0  0  0  0  0  0  0  0  0
    2.6086    2.9602   -0.0936 H   0  0  0  0  0  0  0  0  0  0  0  0
    1.2658    2.2248   -1.7491 C   0  0  0  0  0  0  0  0  0  0  0  0
    1.9561    2.1439   -2.5987 H   0  0  0  0  0  0  0  0  0  0  0  0
   -0.1357    1.9610   -1.7701 C   0  0  0  0  0  0  0  0  0  0  0  0
   -0.6983    1.5788   -2.6323 H   0  0  0  0  0  0  0  0  0  0  0  0
   -1.0955   -2.9503    1.8318 C   0  0  0  0  0  0  0  0  0  0  0  0
   -0.1811   -2.6037    2.3545 H   0  0  0  0  0  0  0  0  0  0  0  0
   -1.0113   -4.0421    1.6542 H   0  0  0  0  0  0  0  0  0  0  0  0
   -1.9578   -2.7750    2.5074 H   0  0  0  0  0  0  0  0  0  0  0  0
   -2.8579   -2.5417   -0.6974 C   0  0  0  0  0  0  0  0  0  0  0  0
   -3.7702   -2.3269   -0.1034 H   0  0  0  0  0  0  0  0  0  0  0  0
   -2.8244   -3.6340   -0.8895 H   0  0  0  0  0  0  0  0  0  0  0  0
   -2.9579   -2.0226   -1.6714 H   0  0  0  0  0  0  0  0  0  0  0  0
   -3.5278    1.0375   -0.9924 C   0  0  0  0  0  0  0  0  0  0  0  0
   -3.1629    0.6568   -1.9677 H   0  0  0  0  0  0  0  0  0  0  0  0
   -4.0143    2.0197   -1.1653 H   0  0  0  0  0  0  0  0  0  0  0  0
   -4.3004    0.3322   -0.6237 H   0  0  0  0  0  0  0  0  0  0  0  0
   -2.7553    1.9339    1.8652 C   0  0  0  0  0  0  0  0  0  0  0  0
   -3.4916    1.2484    2.3332 H   0  0  0  0  0  0  0  0  0  0  0  0
   -3.2527    2.9111    1.6954 H   0  0  0  0  0  0  0  0  0  0  0  0
   -1.9321    2.0862    2.5918 H   0  0  0  0  0  0  0  0  0  0  0  0
  1  3  1  0  0  0  0
  1 22  1  0  0  0  0
  2  3  1  0  0  0  0
  2 34  1  0  0  0  0
  4  5  1  0  0  0  0
  4  1  1  1  0  0  0
  5  6  1  0  0  0  0
  7  8  1  0  0  0  0
  7  5  2  0  0  0  0
  9 11  2  0  0  0  0
  9  7  1  0  0  0  0
 10  9  1  0  0  0  0
 11  4  1  0  0  0  0
 12 11  1  0  0  0  0
 13  2  1  0  0  0  0
 13 14  1  0  0  0  0
 14 15  1  0  0  0  0
 16 17  1  0  0  0  0
 16 14  1  0  0  0  0
 18 16  2  0  0  0  0
 19 18  1  0  0  0  0
 20 18  1  0  0  0  0
 20 13  2  0  0  0  0
 21 20  1  0  0  0  0
 22 23  1  0  0  0  0
 22 25  1  0  0  0  0
 24 22  1  0  0  0  0
 26 27  1  0  0  0  0
 26  1  1  0  0  0  0
 28 26  1  0  0  0  0
 29 26  1  0  0  0  0
 30 33  1  0  0  0  0
 30  2  1  0  0  0  0
 31 30  1  0  0  0  0
 32 30  1  0  0  0  0
 34 35  1  0  0  0  0
 34 37  1  0  0  0  0
 36 34  1  0  0  0  0
M  END
