1,5
q = 0.0, confidence = 0.996

 38 38  0  0  1  0  0  0  0  0999 V2000
    1.5569   -0.5905    1.5741 N   0  0  0  0  0  0  0  0  0  0  0  0
    2.8443   -0.9778    0.9756 C   0  0  0  0  0  0  0  0  0  0  0  0
    3.2808   -0.0253   -0.1422 C   0  0  0  0  0  0  0  0  0  0  0  0
    2.5507   -0.2179   -1.4871 C   0  0  0  0  0  0  0  0  0  0  0  0
    1.0369   -0.1056   -1.4227 C   0  0  2  0  0  3  0  0  0  0  0  0
    0.4249    1.2016   -1.3737 C   0  0  1  0  0  3  0  0  0  0  0  0
   -1.0115    1.3191   -1.1635 C   0  0  0  0  0  0  0  0  0  0  0  0
   -1.8165    0.1450   -0.9891 C   0  0  0  0  0  0  0  0  0  0  0  0
   -1.2092   -1.1686   -1.1488 C   0  0  0  0  0  0  0  0  0  0  0  0
    0.2071   -1.3057   -1.3432 C   0  0  0  0  0  0  0  0  0  0  0  0
    1.2375    2.4708   -1.4193 C   0  0  0  0  0  0  0  0  0  0  0  0
   -1.5942    2.7026   -1.0264 C   0  0  0  0  0  0  0  0  0  0  0  0
   -3.2646    0.2198   -0.5746 C   0  0  0  0  0  0  0  0  0  0  0  0
   -2.0715   -2.3960   -0.9963 C   0  0  0  0  0  0  0  0  0  0  0  0
    0.7849   -2.7017   -1.3977 C   0  0  0  0  0  0  0  0  0  0  0  0
    1.6446    0.2647    2.1562 H   0  0  0  0  0  0  0  0  0  0  0  0
    1.1493   -1.3198    2.1842 H   0  0  0  0  0  0  0  0  0  0  0  0
    3.6277   -0.9963    1.7650 H   0  0  0  0  0  0  0  0  0  0  0  0
    2.7557   -2.0150    0.5929 H   0  0  0  0  0  0  0  0  0  0  0  0
    3.1478    1.0178    0.2175 H   0  0  0  0  0  0  0  0  0  0  0  0
    4.3695   -0.1599   -0.3121 H   0  0  0  0  0  0  0  0  0  0  0  0
    2.9359    0.5297   -2.2092 H   0  0  0  0  0  0  0  0  0  0  0  0
    2.8343   -1.1995   -1.9118 H   0  0  0  0  0  0  0  0  0  0  0  0
    1.1148    3.0307   -0.4691 H   0  0  0  0  0  0  0  0  0  0  0  0
    0.9007    3.1258   -2.2487 H   0  0  0  0  0  0  0  0  0  0  0  0
    2.3149    2.2828   -1.5642 H   0  0  0  0  0  0  0  0  0  0  0  0
   -2.6957    2.6996   -1.0790 H   0  0  0  0  0  0  0  0  0  0  0  0
   -1.2207    3.3599   -1.8351 H   0  0  0  0  0  0  0  0  0  0  0  0
   -1.2896    3.1473   -0.0556 H   0  0  0  0  0  0  0  0  0  0  0  0
   -3.4598   -0.5022    0.2408 H   0  0  0  0  0  0  0  0  0  0  0  0
   -3.9455   -0.0102   -1.4220 H   0  0  0  0  0  0  0  0  0  0  0  0
   -3.5268    1.2163   -0.1819 H   0  0  0  0  0  0  0  0  0  0  0  0
   -1.6587   -3.2629   -1.5420 H   0  0  0  0  0  0  0  0  0  0  0  0
   -3.0930   -2.2132   -1.3764 H   0  0  0  0  0  0  0  0  0  0  0  0
   -2.1525   -2.6603    0.0815 H   0  0  0  0  0  0  0  0  0  0  0  0
    1.8873   -2.7109   -1.3780 H   0  0  0  0  0  0  0  0  0  0  0  0
    0.4714   -3.2198   -2.3290 H   0  0  0  0  0  0  0  0  0  0  0  0
    0.4325   -3.3119   -0.5443 H   0  0  0  0  0  0  0  0  0  0  0  0
  1 16  1  0  0  0  0
  1 17  1  0  0  0  0
  2  1  1  0  0  0  0
  2 18  1  0  0  0  0
  3 20  1  0  0  0  0
  3  2  1  0  0  0  0
  4  3  1  0  0  0  0
  5  4  1  1  0  0  0
  5  6  1  0  0  0  0
  5 10  1  0  0  0  0
  6 11  1  1  0  0  0
  6  7  1  0  0  0  0
  7 12  1  0  0  0  0
  7  8  2  0  0  0  0
  8 13  1  0  0  0  0
  9 14  1  0  0  0  0
  9  8  1  0  0  0  0
 10  9  2  0  0  0  0
 11 24  1  0  0  0  0
 12 29  1  0  0  0  0
 13 32  1  0  0  0  0
 13 30  1  0  0  0  0
 14 35  1  0  0  0  0
 15 36  1  0  0  0  0
 15 10  1  0  0  0  0
 15 38  1  0  0  0  0
 19  2  1  0  0  0  0
 21  3  1  0  0  0  0
 22  4  1  0  0  0  0
 23  4  1  0  0  0  0
 25 11  1  0  0  0  0
 26 11  1  0  0  0  0
 27 12  1  0  0  0  0
 28 12  1  0  0  0  0
 31 13  1  0  0  0  0
 33 14  1  0  0  0  0
 34 14  1  0  0  0  0
 37 15  1  0  0  0  0
M  END
