3,4
q = -2.0, confidence = 0.78

 27 28  0  0  0  0  0  0  0  0999 V2000
   -4.4670   -2.7974    0.3827 O   0  0  0  0  0  0  0  0  0  0  0  0
   -5.7857   -0.9420    0.3771 O   0  0  0  0  0  0  0  0  0  0  0  0
   -1.3474    0.0790   -0.1460 N   0  0  0  0  0  0  0  0  0  0  0  0
   -0.0332    2.3194   -0.3167 C   0  0  0  0  0  2  0  0  0  0  0  0
   -1.4582    2.4531   -0.2793 C   0  0  0  0  0  0  0  0  0  0  0  0
   -2.0469    3.7256   -0.4302 C   0  0  0  0  0  0  0  0  0  0  0  0
   -1.2481    4.8527   -0.6702 C   0  0  0  0  0  0  0  0  0  0  0  0
    0.1431    4.7144   -0.7919 C   0  0  0  0  0  0  0  0  0  0  0  0
    0.7423    3.4481   -0.6234 C   0  0  0  0  0  3  0  0  0  0  0  0
   -2.1727    1.2016   -0.1379 C   0  0  0  0  0  0  0  0  0  0  0  0
   -3.5007    0.7944    0.0150 C   0  0  0  0  0  0  0  0  0  0  0  0
   -3.4746   -0.6322    0.1210 C   0  0  0  0  0  0  0  0  0  0  0  0
   -2.1223   -1.0232    0.0250 C   0  0  0  0  0  3  0  0  0  0  0  0
   -4.5745   -1.5786    0.3024 C   0  0  0  0  0  0  0  0  0  0  0  0
   -6.9214   -1.7982    0.5566 C   0  0  0  0  0  0  0  0  0  0  0  0
   -8.1591   -0.9241    0.6141 C   0  0  0  0  0  0  0  0  0  0  0  0
   -3.1429    3.8217   -0.3823 H   0  0  0  0  0  0  0  0  0  0  0  0
   -1.7169    5.8415   -0.7909 H   0  0  0  0  0  0  0  0  0  0  0  0
    0.7704    5.5877   -1.0292 H   0  0  0  0  0  0  0  0  0  0  0  0
    1.8302    3.3660   -0.7715 H   0  0  0  0  0  0  0  0  0  0  0  0
   -4.3917    1.4297    0.0594 H   0  0  0  0  0  0  0  0  0  0  0  0
   -1.7300   -2.0422    0.1068 H   0  0  0  0  0  0  0  0  0  0  0  0
   -6.7899   -2.3961    1.4850 H   0  0  0  0  0  0  0  0  0  0  0  0
   -6.9671   -2.5310   -0.2785 H   0  0  0  0  0  0  0  0  0  0  0  0
   -9.0649   -1.5475    0.7531 H   0  0  0  0  0  0  0  0  0  0  0  0
   -8.2774   -0.3429   -0.3222 H   0  0  0  0  0  0  0  0  0  0  0  0
   -8.0984   -0.2066    1.4568 H   0  0  0  0  0  0  0  0  0  0  0  0
  2 15  1  0  0  0  0
  3 10  2  0  0  0  0
  3 13  1  0  0  0  0
  4  5  1  0  0  0  0
  5 10  1  0  0  0  0
  6 17  1  0  0  0  0
  6  5  2  0  0  0  0
  7  6  1  0  0  0  0
  8  7  2  0  0  0  0
  8  9  1  0  0  0  0
  9  4  1  0  0  0  0
 10 11  1  0  0  0  0
 11 21  1  0  0  0  0
 11 12  2  0  0  0  0
 12 14  1  0  0  0  0
 13 22  1  0  0  0  0
 13 12  1  0  0  0  0
 14  2  1  0  0  0  0
 14  1  2  0  0  0  0
 15 16  1  0  0  0  0
 15 23  1  0  0  0  0
 16 25  1  0  0  0  0
 16 27  1  0  0  0  0
 18  7  1  0  0  0  0
 19  8  1  0  0  0  0
 20  9  1  0  0  0  0
 24 15  1  0  0  0  0
 26 16  1  0  0  0  0
M  END
