3,6
q = -1.0, confidence = 0.0

 23 24  0  0  0  0  0  0  0  0999 V2000
    3.3519    4.0666   -2.2864 Br  0  0  0  0  0  0  0  0  0  0  0  0
   -6.9198   -3.3161   -0.7169 Br  0  0  0  0  0  0  0  0  0  0  0  0
   -1.6773   -0.1920   -1.2308 N   0  0  0  0  0  2  0  0  0  0  0  0
   -1.7406    0.8265   -2.0138 N   0  0  0  0  0  2  0  0  0  0  0  0
   -0.5742    1.5544   -2.0766 C   0  0  0  0  0  0  0  0  0  0  0  0
    0.5420    1.1410   -1.2822 C   0  0  0  0  0  3  0  0  0  0  0  0
    1.7107    1.9148   -1.3563 C   0  0  0  0  0  0  0  0  0  0  0  0
    1.7545    3.0392   -2.2022 C   0  0  0  0  0  0  0  0  0  0  0  0
    0.6528    3.4374   -2.9908 C   0  0  0  0  0  0  0  0  0  0  0  0
   -0.5197    2.6883   -2.9236 C   0  0  0  0  0  0  0  0  0  0  0  0
   -2.8974   -0.9224   -1.1219 C   0  0  0  0  0  0  0  0  0  0  0  0
   -2.8752   -2.3220   -0.9704 C   0  0  0  0  0  0  0  0  0  0  0  0
   -4.0714   -3.0391   -0.8636 C   0  0  0  0  0  0  0  0  0  0  0  0
   -5.2957   -2.3498   -0.8923 C   0  0  0  0  0  0  0  0  0  0  0  0
   -5.3321   -0.9528   -1.0472 C   0  0  0  0  0  0  0  0  0  0  0  0
   -4.1339   -0.2441   -1.1720 C   0  0  0  0  0  0  0  0  0  0  0  0
    2.5977    1.6678   -0.7551 H   0  0  0  0  0  0  0  0  0  0  0  0
    0.7274    4.3225   -3.6367 H   0  0  0  0  0  0  0  0  0  0  0  0
   -1.4075    2.9605   -3.5129 H   0  0  0  0  0  0  0  0  0  0  0  0
   -1.9146   -2.8534   -0.9670 H   0  0  0  0  0  0  0  0  0  0  0  0
   -4.0550   -4.1326   -0.7588 H   0  0  0  0  0  0  0  0  0  0  0  0
   -6.2956   -0.4244   -1.0639 H   0  0  0  0  0  0  0  0  0  0  0  0
   -4.1351    0.8463   -1.3064 H   0  0  0  0  0  0  0  0  0  0  0  0
  1  8  1  0  0  0  0
  3 11  1  0  0  0  0
  4  3  1  0  0  0  0
  5  4  1  0  0  0  0
  5  6  1  0  0  0  0
  7  6  2  0  0  0  0
  7 17  1  0  0  0  0
  8  7  1  0  0  0  0
  9 10  1  0  0  0  0
  9  8  2  0  0  0  0
 10  5  2  0  0  0  0
 11 12  1  0  0  0  0
 12 20  1  0  0  0  0
 12 13  2  0  0  0  0
 13 21  1  0  0  0  0
 14 13  1  0  0  0  0
 14  2  1  0  0  0  0
 15 14  2  0  0  0  0
 16 11  2  0  0  0  0
 16 15  1  0  0  0  0
 18  9  1  0  0  0  0
 19 10  1  0  0  0  0
 22 15  1  0  0  0  0
 23 16  1  0  0  0  0
M  END
