1,18
q = 0.0, confidence = 0.892

 31 30  0  0  0  0  0  0  0  0999 V2000
   -1.5482   -0.7668   -0.4424 C   0  0  0  0  0  3  0  0  0  0  0  0
   -3.3816   -0.9628   -0.1656 Si  0  0  0  0  0  0  0  0  0  0  0  0
   -4.2067    0.6744   -0.6412 C   0  0  0  0  0  0  0  0  0  0  0  0
   -4.0488    0.8980   -1.7163 H   0  0  0  0  0  0  0  0  0  0  0  0
   -3.7806    1.5160   -0.0575 H   0  0  0  0  0  0  0  0  0  0  0  0
   -5.3003    0.6440   -0.4572 H   0  0  0  0  0  0  0  0  0  0  0  0
   -3.7923   -1.3657    1.6406 C   0  0  0  0  0  0  0  0  0  0  0  0
   -4.8831   -1.5467    1.7397 H   0  0  0  0  0  0  0  0  0  0  0  0
   -3.5255   -0.5388    2.3281 H   0  0  0  0  0  0  0  0  0  0  0  0
   -3.2653   -2.2813    1.9777 H   0  0  0  0  0  0  0  0  0  0  0  0
   -4.0256   -2.3545   -1.2761 C   0  0  0  0  0  0  0  0  0  0  0  0
   -5.1237   -2.4775   -1.1732 H   0  0  0  0  0  0  0  0  0  0  0  0
   -3.5421   -3.3172   -1.0127 H   0  0  0  0  0  0  0  0  0  0  0  0
   -3.8000   -2.1432   -2.3411 H   0  0  0  0  0  0  0  0  0  0  0  0
   -0.5122   -1.4531   -0.8332 C   0  0  0  0  0  3  0  0  0  0  0  0
    0.8575   -1.5171   -1.0924 C   0  0  0  0  0  3  0  0  0  0  0  0
    1.2045   -1.7566   -2.1192 H   0  0  0  0  0  0  0  0  0  0  0  0
    1.7094   -1.0896   -0.1075 N   0  0  0  0  0  2  0  0  0  0  0  0
    3.1044   -1.5467   -0.0330 C   0  0  0  0  0  0  0  0  0  0  0  0
    3.1257   -2.9216    0.6671 C   0  0  0  0  0  0  0  0  0  0  0  0
    2.6888   -2.8466    1.6829 H   0  0  0  0  0  0  0  0  0  0  0  0
    4.1601   -3.3126    0.7567 H   0  0  0  0  0  0  0  0  0  0  0  0
    2.5245   -3.6549    0.0926 H   0  0  0  0  0  0  0  0  0  0  0  0
    3.7462   -1.6742   -1.4308 C   0  0  0  0  0  0  0  0  0  0  0  0
    3.2563   -2.4568   -2.0435 H   0  0  0  0  0  0  0  0  0  0  0  0
    4.8146   -1.9537   -1.3373 H   0  0  0  0  0  0  0  0  0  0  0  0
    3.6895   -0.7151   -1.9841 H   0  0  0  0  0  0  0  0  0  0  0  0
    3.9060   -0.5286    0.7929 C   0  0  0  0  0  0  0  0  0  0  0  0
    3.8544    0.4774    0.3299 H   0  0  0  0  0  0  0  0  0  0  0  0
    4.9700   -0.8315    0.8565 H   0  0  0  0  0  0  0  0  0  0  0  0
    3.5114   -0.4504    1.8233 H   0  0  0  0  0  0  0  0  0  0  0  0
  1  2  1  0  0  0  0
  2  7  1  0  0  0  0
  3  6  1  0  0  0  0
  3  2  1  0  0  0  0
  3  5  1  0  0  0  0
  4  3  1  0  0  0  0
  7  8  1  0  0  0  0
  7 10  1  0  0  0  0
  7  9  1  0  0  0  0
 11 12  1  0  0  0  0
 11 13  1  0  0  0  0
 11  2  1  0  0  0  0
 14 11  1  0  0  0  0
 15  1  2  0  0  0  0
 16 15  1  0  0  0  0
 16 18  1  0  0  0  0
 17 16  1  0  0  0  0
 18 19  1  0  0  0  0
 19 20  1  0  0  0  0
 19 28  1  0  0  0  0
 20 22  1  0  0  0  0
 20 21  1  0  0  0  0
 23 20  1  0  0  0  0
 24 26  1  0  0  0  0
 24 19  1  0  0  0  0
 25 24  1  0  0  0  0
 27 24  1  0  0  0  0
 28 30  1  0  0  0  0
 28 31  1  0  0  0  0
 29 28  1  0  0  0  0
M  END
