1,4
q = -1.0, confidence = 0.0

 22 22  0  0  1  0  0  0  0  0999 V2000
    0.1766    1.8301   -0.5225 N   0  0  0  0  0  0  0  0  0  0  0  0
    1.1011    2.3044   -0.4520 H   0  0  0  0  0  0  0  0  0  0  0  0
   -0.0795    1.8124   -1.5205 H   0  0  0  0  0  0  0  0  0  0  0  0
   -1.1648   -0.6956   -0.0377 C   0  0  0  0  0  3  0  0  0  0  0  0
   -1.6216   -1.8611   -0.6680 C   0  0  0  0  0  0  0  0  0  0  0  0
   -0.9014   -2.5660   -1.1073 H   0  0  0  0  0  0  0  0  0  0  0  0
   -3.0012   -2.1287   -0.7110 C   0  0  0  0  0  0  0  0  0  0  0  0
   -3.3616   -3.0424   -1.2081 H   0  0  0  0  0  0  0  0  0  0  0  0
   -3.9103   -1.2408   -0.1171 C   0  0  0  0  0  0  0  0  0  0  0  0
   -4.9898   -1.4525   -0.1447 H   0  0  0  0  0  0  0  0  0  0  0  0
   -3.4416   -0.0846    0.5240 C   0  0  0  0  0  0  0  0  0  0  0  0
   -4.1526    0.6051    1.0072 H   0  0  0  0  0  0  0  0  0  0  0  0
   -2.0620    0.2045    0.5785 C   0  0  0  0  0  0  0  0  0  0  0  0
   -1.5424    1.4483    1.2654 C   0  0  0  0  0  0  0  0  0  0  0  0
   -0.7760    1.1642    2.0183 H   0  0  0  0  0  0  0  0  0  0  0  0
   -2.3578    1.9583    1.8162 H   0  0  0  0  0  0  0  0  0  0  0  0
   -0.9110    2.4705    0.2926 C   0  0  2  0  0  0  0  0  0  0  0  0
   -0.4139    3.2524    0.9030 H   0  0  0  0  0  0  0  0  0  0  0  0
   -1.9400    3.1173   -0.6322 C   0  0  0  0  0  0  0  0  0  0  0  0
   -2.4660    2.3460   -1.2328 H   0  0  0  0  0  0  0  0  0  0  0  0
   -1.4680    3.8481   -1.3196 H   0  0  0  0  0  0  0  0  0  0  0  0
   -2.7039    3.6579   -0.0403 H   0  0  0  0  0  0  0  0  0  0  0  0
  1  2  1  0  0  0  0
  1 17  1  0  0  0  0
  3  1  1  0  0  0  0
  4 13  1  0  0  0  0
  5  4  2  0  0  0  0
  6  5  1  0  0  0  0
  7  5  1  0  0  0  0
  7  9  2  0  0  0  0
  8  7  1  0  0  0  0
  9 11  1  0  0  0  0
 10  9  1  0  0  0  0
 11 13  2  0  0  0  0
 11 12  1  0  0  0  0
 13 14  1  0  0  0  0
 14 16  1  0  0  0  0
 14 15  1  0  0  0  0
 17 18  1  1  0  0  0
 17 14  1  0  0  0  0
 19 22  1  0  0  0  0
 19 17  1  0  0  0  0
 20 19  1  0  0  0  0
 21 19  1  0  0  0  0
M  END
