3,10
q = -1.0, confidence = 0.0

 33 35  0  0  0  0  0  0  0  0999 V2000
   -1.5008   -0.0667    1.6671 P   0  0  1  0  0  0  0  0  0  0  0  0
   -2.4785   -0.0847    2.8197 O   0  0  0  0  0  0  0  0  0  0  0  0
   -1.5805   -0.5031   -1.0646 N   0  0  0  0  0  2  0  0  0  0  0  0
   -2.1732   -0.7709   -2.2541 C   0  0  0  0  0  3  0  0  0  0  0  0
   -3.5106   -1.1749   -2.3286 C   0  0  0  0  0  0  0  0  0  0  0  0
   -4.2597   -1.2927   -1.1472 C   0  0  0  0  0  0  0  0  0  0  0  0
   -3.6455   -0.9901    0.0770 C   0  0  0  0  0  0  0  0  0  0  0  0
   -2.3017   -0.6004    0.0802 C   0  0  0  0  0  0  0  0  0  0  0  0
   -0.8968    1.5804    1.1640 C   0  0  0  0  0  0  0  0  0  0  0  0
   -0.1765    1.7517   -0.0427 C   0  0  0  0  0  3  0  0  0  0  0  0
    0.1055    3.0563   -0.4886 C   0  0  0  0  0  0  0  0  0  0  0  0
   -0.3034    4.1623    0.2802 C   0  0  0  0  0  0  0  0  0  0  0  0
   -0.9985    3.9841    1.4881 C   0  0  0  0  0  0  0  0  0  0  0  0
   -1.3126    2.6901    1.9267 C   0  0  0  0  0  0  0  0  0  0  0  0
   -0.0694   -1.2104    1.7993 C   0  0  0  0  0  0  0  0  0  0  0  0
    1.1014   -0.7931    2.4630 C   0  0  0  0  0  0  0  0  0  0  0  0
    2.1814   -1.6778    2.6147 C   0  0  0  0  0  0  0  0  0  0  0  0
    2.0997   -2.9856    2.1095 C   0  0  0  0  0  0  0  0  0  0  0  0
    0.9163   -3.4232    1.4833 C   0  0  0  0  0  0  0  0  0  0  0  0
   -0.1711   -2.5446    1.3441 C   0  0  0  0  0  0  0  0  0  0  0  0
   -1.5551   -0.6343   -3.1543 H   0  0  0  0  0  0  0  0  0  0  0  0
   -3.9566   -1.3801   -3.3119 H   0  0  0  0  0  0  0  0  0  0  0  0
   -5.3142   -1.6049   -1.1830 H   0  0  0  0  0  0  0  0  0  0  0  0
   -4.1736   -1.0348    1.0421 H   0  0  0  0  0  0  0  0  0  0  0  0
    0.6428    3.2196   -1.4360 H   0  0  0  0  0  0  0  0  0  0  0  0
   -0.0795    5.1788   -0.0783 H   0  0  0  0  0  0  0  0  0  0  0  0
   -1.3113    4.8567    2.0802 H   0  0  0  0  0  0  0  0  0  0  0  0
   -1.8896    2.5154    2.8487 H   0  0  0  0  0  0  0  0  0  0  0  0
    1.1643    0.2324    2.8600 H   0  0  0  0  0  0  0  0  0  0  0  0
    3.0905   -1.3482    3.1408 H   0  0  0  0  0  0  0  0  0  0  0  0
    2.9456   -3.6785    2.2310 H   0  0  0  0  0  0  0  0  0  0  0  0
    0.8299   -4.4660    1.1397 H   0  0  0  0  0  0  0  0  0  0  0  0
   -1.1056   -2.8981    0.8795 H   0  0  0  0  0  0  0  0  0  0  0  0
  1 15  1  0  0  0  0
  1  2  2  1  0  0  0
  3  8  1  0  0  0  0
  4  3  1  0  0  0  0
  5  4  1  0  0  0  0
  5  6  2  0  0  0  0
  6  7  1  0  0  0  0
  7  8  2  0  0  0  0
  7 24  1  0  0  0  0
  8  1  1  0  0  0  0
  9  1  1  0  0  0  0
  9 14  1  0  0  0  0
 10  9  2  0  0  0  0
 11 10  1  0  0  0  0
 11 12  2  0  0  0  0
 12 13  1  0  0  0  0
 13 14  2  0  0  0  0
 13 27  1  0  0  0  0
 14 28  1  0  0  0  0
 15 16  1  0  0  0  0
 16 17  2  0  0  0  0
 16 29  1  0  0  0  0
 17 30  1  0  0  0  0
 18 31  1  0  0  0  0
 18 17  1  0  0  0  0
 19 18  2  0  0  0  0
 20 19  1  0  0  0  0
 20 15  2  0  0  0  0
 21  4  1  0  0  0  0
 22  5  1  0  0  0  0
 23  6  1  0  0  0  0
 25 11  1  0  0  0  0
 26 12  1  0  0  0  0
 32 19  1  0  0  0  0
 33 20  1  0  0  0  0
M  END
