2,5
q = -2.0, confidence = 0.852

 23 23  0  0  0  0  0  0  0  0999 V2000
   -2.2604   -0.9545    0.7793 S   0  0  0  0  0  0  0  0  0  0  0  0
   -0.5736   -1.1736    0.9365 N   0  0  0  0  0  2  0  0  0  0  0  0
    1.1192   -2.5826    1.5340 O   0  0  0  0  0  0  0  0  0  0  0  0
   -2.7901   -1.8260   -0.3169 O   0  0  0  0  0  0  0  0  0  0  0  0
   -1.0394    1.2729   -0.2299 C   0  0  0  0  0  3  0  0  0  0  0  0
   -2.9376   -1.0533    2.0983 O   0  0  0  0  0  0  0  0  0  0  0  0
   -2.2619    0.7512    0.2276 C   0  0  0  0  0  0  0  0  0  0  0  0
   -0.1005   -2.3330    1.5142 C   0  0  0  0  0  0  0  0  0  0  0  0
   -3.4883    1.4604    0.2319 C   0  0  0  0  0  0  0  0  0  0  0  0
   -1.0760   -3.3158    2.1423 C   0  0  0  0  0  0  0  0  0  0  0  0
   -1.5845   -2.8585    3.0124 H   0  0  0  0  0  0  0  0  0  0  0  0
   -0.5004   -4.2055    2.4525 H   0  0  0  0  0  0  0  0  0  0  0  0
   -1.8743   -3.6003    1.4285 H   0  0  0  0  0  0  0  0  0  0  0  0
   -1.0512    2.6181   -0.6567 C   0  0  0  0  0  0  0  0  0  0  0  0
   -0.1322    3.0898   -1.0381 H   0  0  0  0  0  0  0  0  0  0  0  0
   -3.4405    2.7959   -0.2106 C   0  0  0  0  0  0  0  0  0  0  0  0
   -4.3703    3.3857   -0.2210 H   0  0  0  0  0  0  0  0  0  0  0  0
   -2.2355    3.3719   -0.6387 C   0  0  0  0  0  0  0  0  0  0  0  0
   -2.2216    4.4197   -0.9787 H   0  0  0  0  0  0  0  0  0  0  0  0
   -4.7854    0.8342    0.6731 C   0  0  0  0  0  0  0  0  0  0  0  0
   -4.9495   -0.1361    0.1623 H   0  0  0  0  0  0  0  0  0  0  0  0
   -5.6394    1.5030    0.4544 H   0  0  0  0  0  0  0  0  0  0  0  0
   -4.7670    0.6070    1.7575 H   0  0  0  0  0  0  0  0  0  0  0  0
  1  2  1  0  0  0  0
  1  6  2  0  0  0  0
  2  8  1  0  0  0  0
  4  1  2  0  0  0  0
  5  7  1  0  0  0  0
  7  9  2  0  0  0  0
  7  1  1  0  0  0  0
  8  3  2  0  0  0  0
  8 10  1  0  0  0  0
  9 20  1  0  0  0  0
 10 12  1  0  0  0  0
 10 11  1  0  0  0  0
 13 10  1  0  0  0  0
 14 18  1  0  0  0  0
 14  5  2  0  0  0  0
 15 14  1  0  0  0  0
 16  9  1  0  0  0  0
 17 16  1  0  0  0  0
 18 16  2  0  0  0  0
 19 18  1  0  0  0  0
 20 23  1  0  0  0  0
 21 20  1  0  0  0  0
 22 20  1  0  0  0  0
M  END
