2,15
q = -1.0, confidence = 0.002

 29 31  0  0  1  0  0  0  0  0999 V2000
    3.9318   -2.0715   -0.5062 S   0  0  0  0  0  0  0  0  0  0  0  0
    1.9979   -0.4852    0.2116 N   0  0  0  0  0  2  0  0  0  0  0  0
    4.3218   -0.6710    0.4834 C   0  0  0  0  0  0  0  0  0  0  0  0
    5.5757   -0.2596    0.9578 C   0  0  0  0  0  0  0  0  0  0  0  0
    6.4810   -0.8463    0.7450 H   0  0  0  0  0  0  0  0  0  0  0  0
    5.6422    0.9270    1.7016 C   0  0  0  0  0  0  0  0  0  0  0  0
    6.6156    1.2710    2.0816 H   0  0  0  0  0  0  0  0  0  0  0  0
    4.4803    1.6884    1.9553 C   0  0  0  0  0  0  0  0  0  0  0  0
    4.5624    2.6258    2.5257 H   0  0  0  0  0  0  0  0  0  0  0  0
    3.2263    1.2787    1.4910 C   0  0  0  0  0  0  0  0  0  0  0  0
    2.3113    1.8621    1.6617 H   0  0  0  0  0  0  0  0  0  0  0  0
    3.1414    0.0779    0.7587 C   0  0  0  0  0  0  0  0  0  0  0  0
    2.2465   -1.5950   -0.5033 C   0  0  1  0  0  3  0  0  0  0  0  0
    1.1520   -2.1910   -1.2193 C   0  0  0  0  0  0  0  0  0  0  0  0
   -0.0735   -1.4669   -1.0489 C   0  0  0  0  0  3  0  0  0  0  0  0
   -1.1830   -1.9315   -1.7824 C   0  0  0  0  0  0  0  0  0  0  0  0
   -2.1460   -1.4036   -1.6974 H   0  0  0  0  0  0  0  0  0  0  0  0
   -1.1155   -3.0593   -2.6210 C   0  0  0  0  0  0  0  0  0  0  0  0
    0.1130   -3.7777   -2.7591 C   0  0  0  0  0  0  0  0  0  0  0  0
    1.2331   -3.3264   -2.0541 C   0  0  0  0  0  0  0  0  0  0  0  0
    2.1902   -3.8654   -2.1571 H   0  0  0  0  0  0  0  0  0  0  0  0
    0.1975   -4.9900   -3.6504 C   0  0  0  0  0  0  0  0  0  0  0  0
   -0.0608   -4.7477   -4.7036 H   0  0  0  0  0  0  0  0  0  0  0  0
   -0.5099   -5.7861   -3.3333 H   0  0  0  0  0  0  0  0  0  0  0  0
    1.2160   -5.4240   -3.6454 H   0  0  0  0  0  0  0  0  0  0  0  0
   -2.3385   -3.5135   -3.3737 C   0  0  0  0  0  0  0  0  0  0  0  0
   -2.1674   -3.5111   -4.4717 H   0  0  0  0  0  0  0  0  0  0  0  0
   -3.2078   -2.8623   -3.1622 H   0  0  0  0  0  0  0  0  0  0  0  0
   -2.6186   -4.5554   -3.1079 H   0  0  0  0  0  0  0  0  0  0  0  0
  1 13  1  0  0  0  0
  1  3  1  0  0  0  0
  2 12  1  0  0  0  0
  3 12  2  0  0  0  0
  3  4  1  0  0  0  0
  4  6  2  0  0  0  0
  5  4  1  0  0  0  0
  6  8  1  0  0  0  0
  6  7  1  0  0  0  0
  8  9  1  0  0  0  0
 10 11  1  0  0  0  0
 10  8  2  0  0  0  0
 12 10  1  0  0  0  0
 13 14  1  6  0  0  0
 13  2  1  0  0  0  0
 14 15  1  0  0  0  0
 16 17  1  0  0  0  0
 16 15  2  0  0  0  0
 18 16  1  0  0  0  0
 19 18  2  0  0  0  0
 19 20  1  0  0  0  0
 20 14  2  0  0  0  0
 21 20  1  0  0  0  0
 22 25  1  0  0  0  0
 22 24  1  0  0  0  0
 22 19  1  0  0  0  0
 23 22  1  0  0  0  0
 26 28  1  0  0  0  0
 26 29  1  0  0  0  0
 26 18  1  0  0  0  0
 27 26  1  0  0  0  0
M  END
