1,12
q = 0.0, confidence = 1.0

 35 38  0  0  1  0  0  0  0  0999 V2000
   -1.9245   -0.4797   -0.0126 N   0  0  0  0  0  2  0  0  0  0  0  0
   -0.7181    1.5845    0.0388 C   0  0  0  0  0  0  0  0  0  0  0  0
   -1.9647    0.8952   -0.0500 C   0  0  0  0  0  0  0  0  0  0  0  0
   -3.0594   -1.1780   -0.0719 C   0  0  0  0  0  0  0  0  0  0  0  0
   -4.3242   -0.5481   -0.1750 C   0  0  0  0  0  0  0  0  0  0  0  0
   -4.3974    0.8349   -0.2419 C   0  0  0  0  0  0  0  0  0  0  0  0
   -3.2018    1.6068   -0.1910 C   0  0  0  0  0  0  0  0  0  0  0  0
   -3.1597    3.0266   -0.2919 C   0  0  0  0  0  3  0  0  0  0  0  0
   -1.9400    3.6889   -0.2471 C   0  0  0  0  0  0  0  0  0  0  0  0
   -0.7249    2.9759   -0.0784 C   0  0  0  0  0  0  0  0  0  0  0  0
    0.5023    0.7858    0.3136 C   0  0  2  0  0  3  0  0  0  0  0  0
    0.6709    0.0078    1.5376 C   0  0  1  0  0  3  0  0  0  0  0  0
    2.1635   -0.0009    1.8839 C   0  0  0  0  0  0  0  0  0  0  0  0
    2.8307    0.7028    0.7281 C   0  0  0  0  0  0  0  0  0  0  0  0
    1.8468    1.1915   -0.1672 C   0  0  0  0  0  0  0  0  0  0  0  0
    2.2188    1.8906   -1.3264 C   0  0  0  0  0  0  0  0  0  0  0  0
    3.5850    2.0938   -1.5836 C   0  0  0  0  0  0  0  0  0  0  0  0
    4.5624    1.5979   -0.7021 C   0  0  0  0  0  0  0  0  0  0  0  0
    4.1889    0.8925    0.4572 C   0  0  0  0  0  0  0  0  0  0  0  0
   -0.2898   -0.0430    2.6987 C   0  0  0  0  0  0  0  0  0  0  0  0
   -2.9377   -2.2739   -0.0781 H   0  0  0  0  0  0  0  0  0  0  0  0
   -5.2287   -1.1712   -0.2151 H   0  0  0  0  0  0  0  0  0  0  0  0
   -5.3668    1.3477   -0.3408 H   0  0  0  0  0  0  0  0  0  0  0  0
   -4.1014    3.5820   -0.4174 H   0  0  0  0  0  0  0  0  0  0  0  0
   -1.9093    4.7854   -0.3340 H   0  0  0  0  0  0  0  0  0  0  0  0
    0.2275    3.5230   -0.0229 H   0  0  0  0  0  0  0  0  0  0  0  0
    2.5652   -1.0179    2.0774 H   0  0  0  0  0  0  0  0  0  0  0  0
    2.3160    0.5700    2.8288 H   0  0  0  0  0  0  0  0  0  0  0  0
    1.4548    2.2564   -2.0291 H   0  0  0  0  0  0  0  0  0  0  0  0
    3.8939    2.6366   -2.4898 H   0  0  0  0  0  0  0  0  0  0  0  0
    5.6283    1.7599   -0.9225 H   0  0  0  0  0  0  0  0  0  0  0  0
    4.9576    0.5006    1.1412 H   0  0  0  0  0  0  0  0  0  0  0  0
   -0.0679    0.7789    3.4163 H   0  0  0  0  0  0  0  0  0  0  0  0
   -0.1791   -0.9998    3.2487 H   0  0  0  0  0  0  0  0  0  0  0  0
   -1.3476    0.0496    2.3956 H   0  0  0  0  0  0  0  0  0  0  0  0
  3  1  1  0  0  0  0
  3  2  2  0  0  0  0
  4  1  1  0  0  0  0
  5  4  2  0  0  0  0
  6  7  2  0  0  0  0
  6  5  1  0  0  0  0
  7  3  1  0  0  0  0
  8  9  1  0  0  0  0
  8  7  1  0  0  0  0
  9 10  2  0  0  0  0
 10 26  1  0  0  0  0
 10  2  1  0  0  0  0
 11  2  1  1  0  0  0
 11 12  1  0  0  0  0
 12 13  1  0  0  0  0
 12 20  1  1  0  0  0
 13 27  1  0  0  0  0
 13 28  1  0  0  0  0
 14 13  1  0  0  0  0
 15 11  1  0  0  0  0
 15 14  2  0  0  0  0
 16 15  1  0  0  0  0
 17 16  2  0  0  0  0
 17 18  1  0  0  0  0
 18 19  2  0  0  0  0
 19 14  1  0  0  0  0
 19 32  1  0  0  0  0
 20 34  1  0  0  0  0
 20 33  1  0  0  0  0
 21  4  1  0  0  0  0
 22  5  1  0  0  0  0
 23  6  1  0  0  0  0
 24  8  1  0  0  0  0
 25  9  1  0  0  0  0
 29 16  1  0  0  0  0
 30 17  1  0  0  0  0
 31 18  1  0  0  0  0
 35 20  1  0  0  0  0
M  END
