1,43
q = -1.0, confidence = 0.0

 43 43  0  0  1  0  0  0  0  0999 V2000
   -1.0199    0.6274   -0.1050 C   0  0  0  0  0  3  0  0  0  0  0  0
   -1.3323    2.0117   -0.0608 C   0  0  0  0  0  0  0  0  0  0  0  0
   -0.2633    3.0711    0.1856 C   0  0  0  0  0  0  0  0  0  0  0  0
    0.5822    2.8247   -0.4869 H   0  0  0  0  0  0  0  0  0  0  0  0
    0.2771    2.9579    1.6241 C   0  0  0  0  0  0  0  0  0  0  0  0
    0.6495    1.9309    1.8210 H   0  0  0  0  0  0  0  0  0  0  0  0
   -0.5152    3.1869    2.3690 H   0  0  0  0  0  0  0  0  0  0  0  0
    1.1185    3.6631    1.7851 H   0  0  0  0  0  0  0  0  0  0  0  0
   -0.7062    4.5066   -0.1114 C   0  0  0  0  0  0  0  0  0  0  0  0
   -1.4913    4.8611    0.5905 H   0  0  0  0  0  0  0  0  0  0  0  0
   -1.0985    4.6133   -1.1431 H   0  0  0  0  0  0  0  0  0  0  0  0
    0.1565    5.1953   -0.0086 H   0  0  0  0  0  0  0  0  0  0  0  0
   -2.6882    2.3730   -0.2059 C   0  0  0  0  0  0  0  0  0  0  0  0
   -2.9637    3.4375   -0.1934 H   0  0  0  0  0  0  0  0  0  0  0  0
   -3.7063    1.4239   -0.3653 C   0  0  0  0  0  0  0  0  0  0  0  0
   -4.7437    1.7713   -0.4795 H   0  0  0  0  0  0  0  0  0  0  0  0
   -3.4232    0.0476   -0.3633 C   0  0  0  0  0  0  0  0  0  0  0  0
   -4.5422   -0.9901   -0.4395 C   0  0  0  0  0  0  0  0  0  0  0  0
   -4.1253   -1.9098   -0.9038 H   0  0  0  0  0  0  0  0  0  0  0  0
   -5.0245   -1.3625    0.9758 C   0  0  0  0  0  0  0  0  0  0  0  0
   -5.4546   -0.4733    1.4809 H   0  0  0  0  0  0  0  0  0  0  0  0
   -4.1912   -1.7278    1.6104 H   0  0  0  0  0  0  0  0  0  0  0  0
   -5.8044   -2.1518    0.9439 H   0  0  0  0  0  0  0  0  0  0  0  0
   -5.7234   -0.5571   -1.3194 C   0  0  0  0  0  0  0  0  0  0  0  0
   -5.3859   -0.2481   -2.3288 H   0  0  0  0  0  0  0  0  0  0  0  0
   -6.2774    0.2943   -0.8741 H   0  0  0  0  0  0  0  0  0  0  0  0
   -6.4469   -1.3896   -1.4350 H   0  0  0  0  0  0  0  0  0  0  0  0
   -2.0652   -0.3266   -0.2186 C   0  0  0  0  0  0  0  0  0  0  0  0
   -1.6211   -1.7753   -0.1796 C   0  0  1  0  0  0  0  0  0  0  0  0
   -2.4054   -2.4347    0.2586 H   0  0  0  0  0  0  0  0  0  0  0  0
   -1.2771   -2.2852   -1.5830 C   0  0  0  0  0  0  0  0  0  0  0  0
   -0.4182   -1.7130   -1.9913 H   0  0  0  0  0  0  0  0  0  0  0  0
   -2.1449   -2.1005   -2.2445 H   0  0  0  0  0  0  0  0  0  0  0  0
   -1.0543   -3.3703   -1.6163 H   0  0  0  0  0  0  0  0  0  0  0  0
    0.2487   -3.1308    0.7318 C   0  0  0  0  0  0  0  0  0  0  0  0
   -0.4652   -3.9548    0.9621 H   0  0  0  0  0  0  0  0  0  0  0  0
    1.0480   -3.1437    1.4969 H   0  0  0  0  0  0  0  0  0  0  0  0
    0.7001   -3.3097   -0.2587 H   0  0  0  0  0  0  0  0  0  0  0  0
   -0.8936   -1.5683    2.1526 C   0  0  0  0  0  0  0  0  0  0  0  0
   -0.0163   -1.4873    2.8210 H   0  0  0  0  0  0  0  0  0  0  0  0
   -1.5466   -2.4007    2.5034 H   0  0  0  0  0  0  0  0  0  0  0  0
   -1.4573   -0.6201    2.1832 H   0  0  0  0  0  0  0  0  0  0  0  0
   -0.4341   -1.8249    0.7648 N   0  0  0  0  0  0  0  0  0  0  0  0
  1  2  1  0  0  0  0
  2  3  1  0  0  0  0
  3  5  1  0  0  0  0
  4  3  1  0  0  0  0
  5  8  1  0  0  0  0
  5  6  1  0  0  0  0
  5  7  1  0  0  0  0
  9 12  1  0  0  0  0
  9  3  1  0  0  0  0
  9 10  1  0  0  0  0
 11  9  1  0  0  0  0
 13 14  1  0  0  0  0
 13  2  2  0  0  0  0
 15 17  2  0  0  0  0
 15 13  1  0  0  0  0
 16 15  1  0  0  0  0
 17 28  1  0  0  0  0
 18 17  1  0  0  0  0
 18 20  1  0  0  0  0
 19 18  1  0  0  0  0
 20 21  1  0  0  0  0
 20 22  1  0  0  0  0
 23 20  1  0  0  0  0
 24 26  1  0  0  0  0
 24 18  1  0  0  0  0
 25 24  1  0  0  0  0
 27 24  1  0  0  0  0
 28 29  1  0  0  0  0
 28  1  2  0  0  0  0
 29 30  1  1  0  0  0
 29 43  1  0  0  0  0
 31 29  1  0  0  0  0
 32 31  1  0  0  0  0
 33 31  1  0  0  0  0
 34 31  1  0  0  0  0
 35 43  1  0  0  0  0
 35 36  1  0  0  0  0
 35 37  1  0  0  0  0
 38 35  1  0  0  0  0
 39 42  1  0  0  0  0
 39 41  1  0  0  0  0
 39 40  1  0  0  0  0
 43 39  1  0  0  0  0
M  END
