2,5
q = 0.0, confidence = 0.986

 30 29  0  0  0  0  0  0  0  0999 V2000
   -1.1667   -1.6647    1.4431 O   0  0  0  0  0  0  0  0  0  0  0  0
   -0.5196    1.4452    0.6740 N   0  0  0  0  0  0  0  0  0  0  0  0
   -1.9468    1.0199    0.4993 C   0  0  0  0  0  0  0  0  0  0  0  0
   -2.2023    0.1584   -0.7566 C   0  0  0  0  0  0  0  0  0  0  0  0
   -1.0952   -0.8882   -0.8616 C   0  0  0  0  0  3  0  0  0  0  0  0
   -0.6320   -1.6991    0.1963 C   0  0  0  0  0  3  0  0  0  0  0  0
   -0.1849    1.5565    2.1131 C   0  0  0  0  0  0  0  0  0  0  0  0
   -0.2542    2.7536    0.0239 C   0  0  0  0  0  0  0  0  0  0  0  0
   -2.2193    0.9786   -2.0616 C   0  0  0  0  0  0  0  0  0  0  0  0
   -3.5697   -0.5413   -0.5833 C   0  0  0  0  0  0  0  0  0  0  0  0
   -0.4073   -2.3690    2.4310 C   0  0  0  0  0  0  0  0  0  0  0  0
   -0.8945   -1.2931   -1.8679 H   0  0  0  0  0  0  0  0  0  0  0  0
   -0.0024   -2.5778   -0.0367 H   0  0  0  0  0  0  0  0  0  0  0  0
   -2.2061    0.4148    1.3856 H   0  0  0  0  0  0  0  0  0  0  0  0
   -2.6005    1.9202    0.5013 H   0  0  0  0  0  0  0  0  0  0  0  0
   -0.3601    0.5823    2.6038 H   0  0  0  0  0  0  0  0  0  0  0  0
   -0.8176    2.3334    2.5986 H   0  0  0  0  0  0  0  0  0  0  0  0
    0.8854    1.8222    2.1978 H   0  0  0  0  0  0  0  0  0  0  0  0
   -0.5060    2.7055   -1.0480 H   0  0  0  0  0  0  0  0  0  0  0  0
    0.8229    2.9803    0.1267 H   0  0  0  0  0  0  0  0  0  0  0  0
   -0.8714    3.5430    0.5084 H   0  0  0  0  0  0  0  0  0  0  0  0
   -2.9152    1.8386   -1.9867 H   0  0  0  0  0  0  0  0  0  0  0  0
   -2.5556    0.3412   -2.9041 H   0  0  0  0  0  0  0  0  0  0  0  0
   -1.2124    1.3543   -2.3279 H   0  0  0  0  0  0  0  0  0  0  0  0
   -3.7821   -1.1929   -1.4539 H   0  0  0  0  0  0  0  0  0  0  0  0
   -4.3889    0.2043   -0.5129 H   0  0  0  0  0  0  0  0  0  0  0  0
   -3.5858   -1.1678    0.3302 H   0  0  0  0  0  0  0  0  0  0  0  0
   -0.9932   -2.3390    3.3673 H   0  0  0  0  0  0  0  0  0  0  0  0
    0.5796   -1.8826    2.5847 H   0  0  0  0  0  0  0  0  0  0  0  0
   -0.2464   -3.4252    2.1263 H   0  0  0  0  0  0  0  0  0  0  0  0
  1 11  1  0  0  0  0
  2  7  1  0  0  0  0
  3 15  1  0  0  0  0
  3  2  1  0  0  0  0
  3 14  1  0  0  0  0
  4 10  1  0  0  0  0
  4  3  1  0  0  0  0
  5  4  1  0  0  0  0
  5  6  1  0  0  0  0
  6  1  1  0  0  0  0
  7 18  1  0  0  0  0
  7 17  1  0  0  0  0
  7 16  1  0  0  0  0
  8 20  1  0  0  0  0
  8 21  1  0  0  0  0
  8  2  1  0  0  0  0
  9 22  1  0  0  0  0
  9  4  1  0  0  0  0
 10 26  1  0  0  0  0
 10 27  1  0  0  0  0
 11 29  1  0  0  0  0
 11 28  1  0  0  0  0
 12  5  1  0  0  0  0
 13  6  1  0  0  0  0
 19  8  1  0  0  0  0
 23  9  1  0  0  0  0
 24  9  1  0  0  0  0
 25 10  1  0  0  0  0
 30 11  1  0  0  0  0
M  END
