9,10
q = -1.0, confidence = 0.008

 16 16  0  0  1  0  0  0  0  0999 V2000
   -1.8958    1.5707    0.9385 C   0  0  2  0  0  3  0  0  0  0  0  0
   -3.1981    2.1124    1.0212 C   0  0  0  0  0  0  0  0  0  0  0  0
   -3.4089    2.9142    1.7416 H   0  0  0  0  0  0  0  0  0  0  0  0
   -4.1963    1.5929    0.1964 C   0  0  0  0  0  0  0  0  0  0  0  0
   -5.2155    2.0033    0.2453 H   0  0  0  0  0  0  0  0  0  0  0  0
   -3.9138    0.5283   -0.6671 C   0  0  0  0  0  0  0  0  0  0  0  0
   -4.6896    0.0673   -1.2922 H   0  0  0  0  0  0  0  0  0  0  0  0
   -2.5973    0.0421   -0.7027 C   0  0  0  0  0  0  0  0  0  0  0  0
   -0.9417   -1.6152   -1.3625 C   0  0  0  0  0  3  0  0  0  0  0  0
   -1.5865    0.6002    0.0319 N   0  0  0  0  0  2  0  0  0  0  0  0
   -0.8915    1.9942    1.7634 N   0  0  0  0  0  0  0  0  0  0  0  0
   -0.0671    1.3933    1.8228 H   0  0  0  0  0  0  0  0  0  0  0  0
   -1.1262    2.5718    2.5689 H   0  0  0  0  0  0  0  0  0  0  0  0
   -2.2358   -1.0597   -1.4424 N   0  0  0  0  0  0  0  0  0  0  0  0
   -2.9555   -1.5937   -1.9420 H   0  0  0  0  0  0  0  0  0  0  0  0
   -0.7253   -2.7146   -1.8409 O   0  0  0  0  0  0  0  0  0  0  0  0
  1  2  1  0  0  0  0
  1 11  1  1  0  0  0
  2  3  1  0  0  0  0
  4  5  1  0  0  0  0
  4  2  2  0  0  0  0
  6  4  1  0  0  0  0
  7  6  1  0  0  0  0
  8  6  2  0  0  0  0
  8 10  1  0  0  0  0
 10  1  1  0  0  0  0
 11 12  1  0  0  0  0
 11 13  1  0  0  0  0
 14  9  1  0  0  0  0
 14  8  1  0  0  0  0
 15 14  1  0  0  0  0
 16  9  2  0  0  0  0
M  END
