2,5
q = -1.0, confidence = 0.0

 14 14  0  0  1  0  0  0  0  0999 V2000
   -4.3543    0.1495   -0.5966 S   0  0  0  0  0  0  0  0  0  0  0  0
   -0.9176   -1.8334   -0.5261 N   0  0  0  0  0  2  0  0  0  0  0  0
   -2.2246   -1.7292   -0.6583 C   0  0  2  0  0  3  0  0  0  0  0  0
   -2.6887   -0.3805   -0.5657 C   0  0  0  0  0  0  0  0  0  0  0  0
   -1.7522    0.6661   -0.4017 C   0  0  0  0  0  3  0  0  0  0  0  0
   -2.4581    1.9050   -0.2878 C   0  0  0  0  0  0  0  0  0  0  0  0
   -1.9979    2.8877   -0.1418 H   0  0  0  0  0  0  0  0  0  0  0  0
   -3.8398    1.7789   -0.3748 C   0  0  0  0  0  0  0  0  0  0  0  0
   -4.5902    2.5789   -0.3248 H   0  0  0  0  0  0  0  0  0  0  0  0
   -3.1224   -2.9075   -0.8797 C   0  0  0  0  0  0  0  0  0  0  0  0
   -2.5618   -3.8614   -0.8831 H   0  0  0  0  0  0  0  0  0  0  0  0
   -3.6564   -2.8080   -1.8471 H   0  0  0  0  0  0  0  0  0  0  0  0
   -3.8996   -2.9577   -0.0895 H   0  0  0  0  0  0  0  0  0  0  0  0
   -0.5438   -2.7838   -0.6129 H   0  0  0  0  0  0  0  0  0  0  0  0
  1  4  1  0  0  0  0
  1  8  1  0  0  0  0
  3  4  1  0  0  0  0
  3  2  1  1  0  0  0
  4  5  2  0  0  0  0
  5  6  1  0  0  0  0
  6  7  1  0  0  0  0
  8  9  1  0  0  0  0
  8  6  2  0  0  0  0
 10  3  1  0  0  0  0
 10 13  1  0  0  0  0
 11 10  1  0  0  0  0
 12 10  1  0  0  0  0
 14  2  1  0  0  0  0
M  END
