1,11
q = -1.0, confidence = 0.0

 30 32  0  0  0  0  0  0  0  0999 V2000
    0.1487    1.4854   -0.2775 N   0  0  0  0  0  0  0  0  0  0  0  0
   -0.3831    2.5678    0.2994 N   0  0  0  0  0  2  0  0  0  0  0  0
    0.3751    3.6118   -0.0839 C   0  0  0  0  0  0  0  0  0  0  0  0
    1.4422    3.2018   -0.9165 C   0  0  0  0  0  0  0  0  0  0  0  0
    2.2179    3.8186   -1.3810 H   0  0  0  0  0  0  0  0  0  0  0  0
    1.2580    1.8192   -1.0164 C   0  0  0  0  0  0  0  0  0  0  0  0
    2.0469    0.7656   -1.7302 C   0  0  0  0  0  0  0  0  0  0  0  0
    1.4704    0.3154   -2.5663 H   0  0  0  0  0  0  0  0  0  0  0  0
    2.9739    1.1968   -2.1486 H   0  0  0  0  0  0  0  0  0  0  0  0
    2.4140   -0.3152   -0.8017 N   0  0  0  0  0  0  0  0  0  0  0  0
    1.4623   -0.9184   -0.0265 C   0  0  0  0  0  2  0  0  0  0  0  0
    2.1513   -1.7331    0.8408 N   0  0  0  0  0  0  0  0  0  0  0  0
    3.5256   -1.6506    0.6121 C   0  0  0  0  0  0  0  0  0  0  0  0
    4.6195   -2.2738    1.2277 C   0  0  0  0  0  0  0  0  0  0  0  0
    4.4855   -2.9883    2.0521 H   0  0  0  0  0  0  0  0  0  0  0  0
    5.8961   -1.9445    0.7460 C   0  0  0  0  0  0  0  0  0  0  0  0
    6.7806   -2.4124    1.2024 H   0  0  0  0  0  0  0  0  0  0  0  0
    6.0684   -1.0235   -0.3108 C   0  0  0  0  0  0  0  0  0  0  0  0
    7.0848   -0.7893   -0.6598 H   0  0  0  0  0  0  0  0  0  0  0  0
    4.9735   -0.3970   -0.9259 C   0  0  0  0  0  0  0  0  0  0  0  0
    5.1166    0.3213   -1.7453 H   0  0  0  0  0  0  0  0  0  0  0  0
    3.6968   -0.7244   -0.4480 C   0  0  0  0  0  0  0  0  0  0  0  0
    1.5532   -2.4581    1.9477 C   0  0  0  0  0  0  0  0  0  0  0  0
    2.0314   -2.1507    2.8992 H   0  0  0  0  0  0  0  0  0  0  0  0
    1.6719   -3.5536    1.8234 H   0  0  0  0  0  0  0  0  0  0  0  0
    0.4796   -2.1995    1.9884 H   0  0  0  0  0  0  0  0  0  0  0  0
    0.0535    4.9909    0.3962 C   0  0  0  0  0  0  0  0  0  0  0  0
    0.7820    5.9155   -0.2842 F   0  0  0  0  0  0  0  0  0  0  0  0
    0.3284    5.1646    1.7153 F   0  0  0  0  0  0  0  0  0  0  0  0
   -1.2566    5.2987    0.2299 F   0  0  0  0  0  0  0  0  0  0  0  0
  1  2  1  0  0  0  0
  3  2  1  0  0  0  0
  3 27  1  0  0  0  0
  4  3  2  0  0  0  0
  5  4  1  0  0  0  0
  6  4  1  0  0  0  0
  6  1  2  0  0  0  0
  7  6  1  0  0  0  0
  7 10  1  0  0  0  0
  8  7  1  0  0  0  0
  9  7  1  0  0  0  0
 10 22  1  0  0  0  0
 10 11  1  0  0  0  0
 11 12  1  0  0  0  0
 12 23  1  0  0  0  0
 13 12  1  0  0  0  0
 13 14  1  0  0  0  0
 14 15  1  0  0  0  0
 16 17  1  0  0  0  0
 16 14  2  0  0  0  0
 18 16  1  0  0  0  0
 19 18  1  0  0  0  0
 20 22  1  0  0  0  0
 20 18  2  0  0  0  0
 21 20  1  0  0  0  0
 22 13  2  0  0  0  0
 23 26  1  0  0  0  0
 23 24  1  0  0  0  0
 25 23  1  0  0  0  0
 27 29  1  0  0  0  0
 28 27  1  0  0  0  0
 30 27  1  0  0  0  0
M  END
