1,14
q = -1.0, confidence = 0.0

 46 49  0  0  1  0  0  0  0  0999 V2000
    1.7023   -0.0754   -0.8811 N   0  0  0  0  0  2  0  0  0  0  0  0
    2.1091   -0.3016    0.3879 C   0  0  1  0  0  3  0  0  0  0  0  0
    3.3266    0.2084    0.8861 C   0  0  0  0  0  0  0  0  0  0  0  0
    4.0876    0.9869   -0.0108 C   0  0  0  0  0  0  0  0  0  0  0  0
    3.6338    1.2380   -1.3118 C   0  0  0  0  0  0  0  0  0  0  0  0
    2.4157    0.6836   -1.7233 C   0  0  0  0  0  0  0  0  0  0  0  0
    3.7705   -0.0082    2.3072 C   0  0  0  0  0  0  0  0  0  0  0  0
    1.0830   -1.1043    1.1104 C   0  0  0  0  0  0  0  0  0  0  0  0
    1.4897   -2.2397    1.8763 C   0  0  0  0  0  0  0  0  0  0  0  0
    0.5963   -2.9469    2.6617 C   0  0  0  0  0  0  0  0  0  0  0  0
   -0.7580   -2.5267    2.7179 C   0  0  0  0  0  0  0  0  0  0  0  0
   -1.1909   -1.4354    1.9876 C   0  0  0  0  0  0  0  0  0  0  0  0
   -0.3100   -0.6578    1.1513 C   0  0  0  0  0  0  0  0  0  0  0  0
   -0.8263    0.4123    0.2825 C   0  0  0  0  0  3  0  0  0  0  0  0
   -2.3219    0.6674    0.3512 C   0  0  0  0  0  0  0  0  0  0  0  0
   -3.2489    0.2528   -0.6237 C   0  0  0  0  0  0  0  0  0  0  0  0
   -4.6167    0.5479   -0.4955 C   0  0  0  0  0  0  0  0  0  0  0  0
   -5.0878    1.2649    0.6124 C   0  0  0  0  0  0  0  0  0  0  0  0
   -4.1758    1.6971    1.5900 C   0  0  0  0  0  0  0  0  0  0  0  0
   -2.8123    1.4091    1.4533 C   0  0  0  0  0  0  0  0  0  0  0  0
   -0.1103    1.7320    0.1831 C   0  0  0  0  0  0  0  0  0  0  0  0
    0.7235    2.2162    1.2139 C   0  0  0  0  0  0  0  0  0  0  0  0
    1.3490    3.4697    1.1134 C   0  0  0  0  0  0  0  0  0  0  0  0
    1.1391    4.2764   -0.0139 C   0  0  0  0  0  0  0  0  0  0  0  0
    0.2874    3.8205   -1.0358 C   0  0  0  0  0  0  0  0  0  0  0  0
   -0.3291    2.5680   -0.9365 C   0  0  0  0  0  0  0  0  0  0  0  0
    5.0379    1.4246    0.3327 H   0  0  0  0  0  0  0  0  0  0  0  0
    4.2113    1.8671   -2.0033 H   0  0  0  0  0  0  0  0  0  0  0  0
    1.9975    0.8405   -2.7287 H   0  0  0  0  0  0  0  0  0  0  0  0
    4.4297    0.8163    2.6414 H   0  0  0  0  0  0  0  0  0  0  0  0
    2.9068   -0.0728    2.9973 H   0  0  0  0  0  0  0  0  0  0  0  0
    4.3436   -0.9526    2.4194 H   0  0  0  0  0  0  0  0  0  0  0  0
    2.5419   -2.5539    1.8162 H   0  0  0  0  0  0  0  0  0  0  0  0
    0.9318   -3.8250    3.2324 H   0  0  0  0  0  0  0  0  0  0  0  0
   -1.4753   -3.0724    3.3494 H   0  0  0  0  0  0  0  0  0  0  0  0
   -2.2426   -1.1229    2.0431 H   0  0  0  0  0  0  0  0  0  0  0  0
   -2.8972   -0.2987   -1.5042 H   0  0  0  0  0  0  0  0  0  0  0  0
   -5.3168    0.2122   -1.2757 H   0  0  0  0  0  0  0  0  0  0  0  0
   -6.1598    1.4935    0.7125 H   0  0  0  0  0  0  0  0  0  0  0  0
   -4.5291    2.2685    2.4624 H   0  0  0  0  0  0  0  0  0  0  0  0
   -2.0998    1.7644    2.2143 H   0  0  0  0  0  0  0  0  0  0  0  0
    0.8734    1.6026    2.1155 H   0  0  0  0  0  0  0  0  0  0  0  0
    1.9980    3.8205    1.9310 H   0  0  0  0  0  0  0  0  0  0  0  0
    1.6264    5.2601   -0.0929 H   0  0  0  0  0  0  0  0  0  0  0  0
    0.1034    4.4485   -1.9211 H   0  0  0  0  0  0  0  0  0  0  0  0
   -0.9915    2.2164   -1.7415 H   0  0  0  0  0  0  0  0  0  0  0  0
  1  2  1  0  0  0  0
  2  3  1  0  0  0  0
  2  8  1  1  0  0  0
  3  7  1  0  0  0  0
  4 27  1  0  0  0  0
  4  3  2  0  0  0  0
  5  4  1  0  0  0  0
  6  5  2  0  0  0  0
  6  1  1  0  0  0  0
  7 32  1  0  0  0  0
  7 30  1  0  0  0  0
  7 31  1  0  0  0  0
  8 13  2  0  0  0  0
  8  9  1  0  0  0  0
  9 10  2  0  0  0  0
 10 11  1  0  0  0  0
 10 34  1  0  0  0  0
 11 35  1  0  0  0  0
 12 36  1  0  0  0  0
 12 11  2  0  0  0  0
 13 12  1  0  0  0  0
 14 15  1  0  0  0  0
 14 13  1  0  0  0  0
 15 20  1  0  0  0  0
 16 17  1  0  0  0  0
 16 15  2  0  0  0  0
 17 18  2  0  0  0  0
 18 39  1  0  0  0  0
 18 19  1  0  0  0  0
 19 40  1  0  0  0  0
 20 19  2  0  0  0  0
 20 41  1  0  0  0  0
 21 14  1  0  0  0  0
 21 22  1  0  0  0  0
 22 42  1  0  0  0  0
 23 22  2  0  0  0  0
 23 43  1  0  0  0  0
 24 23  1  0  0  0  0
 25 26  1  0  0  0  0
 25 24  2  0  0  0  0
 26 21  2  0  0  0  0
 28  5  1  0  0  0  0
 29  6  1  0  0  0  0
 33  9  1  0  0  0  0
 37 16  1  0  0  0  0
 38 17  1  0  0  0  0
 44 24  1  0  0  0  0
 45 25  1  0  0  0  0
 46 26  1  0  0  0  0
M  END
