1,8
q = -1.0, confidence = 0.0

 16 16  0  0  0  0  0  0  0  0999 V2000
    1.6463   -2.3400   -0.1534 N   0  0  0  0  0  0  0  0  0  0  0  0
    1.8226   -2.4977   -1.1560 H   0  0  0  0  0  0  0  0  0  0  0  0
    1.2951   -3.2280    0.2348 H   0  0  0  0  0  0  0  0  0  0  0  0
    2.9682    3.7569   -0.3814 F   0  0  0  0  0  0  0  0  0  0  0  0
    2.8568   -1.8107    0.5266 C   0  0  0  0  0  0  0  0  0  0  0  0
    3.7773   -2.3522    0.2172 H   0  0  0  0  0  0  0  0  0  0  0  0
    2.7191   -1.9953    1.6136 H   0  0  0  0  0  0  0  0  0  0  0  0
    1.7068    0.3485    0.0007 C   0  0  0  0  0  3  0  0  0  0  0  0
    2.9358   -0.3292    0.2529 C   0  0  0  0  0  0  0  0  0  0  0  0
    4.1488    0.3797    0.2763 C   0  0  0  0  0  0  0  0  0  0  0  0
    5.0953   -0.1539    0.4613 H   0  0  0  0  0  0  0  0  0  0  0  0
    4.1735    1.7668    0.0659 C   0  0  0  0  0  0  0  0  0  0  0  0
    5.1099    2.3417    0.0791 H   0  0  0  0  0  0  0  0  0  0  0  0
    2.9608    2.4220   -0.1750 C   0  0  0  0  0  0  0  0  0  0  0  0
    1.7381    1.7385   -0.2153 C   0  0  0  0  0  0  0  0  0  0  0  0
    0.8267    2.3192   -0.4183 H   0  0  0  0  0  0  0  0  0  0  0  0
  1  3  1  0  0  0  0
  1  5  1  0  0  0  0
  2  1  1  0  0  0  0
  4 14  1  0  0  0  0
  5  7  1  0  0  0  0
  6  5  1  0  0  0  0
  8  9  1  0  0  0  0
  9 10  2  0  0  0  0
  9  5  1  0  0  0  0
 10 11  1  0  0  0  0
 12 13  1  0  0  0  0
 12 10  1  0  0  0  0
 14 12  2  0  0  0  0
 15 14  1  0  0  0  0
 15  8  2  0  0  0  0
 16 15  1  0  0  0  0
M  END
