1,2
q = -1.0, confidence = 0.002

 37 39  0  0  1  0  0  0  0  0999 V2000
   -2.1144    0.1021   -1.0751 N   0  0  0  0  0  2  0  0  0  0  0  0
   -0.7113   -1.7646    0.1821 C   0  0  0  0  0  3  0  0  0  0  0  0
    0.0207   -2.8092    0.7771 C   0  0  0  0  0  0  0  0  0  0  0  0
    1.1141   -2.7421    0.8738 H   0  0  0  0  0  0  0  0  0  0  0  0
   -0.6175   -3.9599    1.2747 C   0  0  0  0  0  0  0  0  0  0  0  0
   -0.0111   -4.7540    1.7387 H   0  0  0  0  0  0  0  0  0  0  0  0
   -2.0122   -4.1048    1.1867 C   0  0  0  0  0  0  0  0  0  0  0  0
   -2.5044   -5.0089    1.5750 H   0  0  0  0  0  0  0  0  0  0  0  0
   -2.7698   -3.0905    0.5906 C   0  0  0  0  0  0  0  0  0  0  0  0
   -3.8615   -3.1946    0.4959 H   0  0  0  0  0  0  0  0  0  0  0  0
   -2.1351   -1.9299    0.0945 C   0  0  0  0  0  0  0  0  0  0  0  0
   -2.8646   -0.8280   -0.5333 C   0  0  1  0  0  3  0  0  0  0  0  0
   -4.3524   -0.7635   -0.4995 C   0  0  0  0  0  0  0  0  0  0  0  0
   -5.0320   -0.7054    0.7359 C   0  0  0  0  0  0  0  0  0  0  0  0
   -4.4506   -0.7054    1.6699 H   0  0  0  0  0  0  0  0  0  0  0  0
   -6.4317   -0.6270    0.7704 C   0  0  0  0  0  0  0  0  0  0  0  0
   -6.9516   -0.5707    1.7388 H   0  0  0  0  0  0  0  0  0  0  0  0
   -7.1677   -0.6209   -0.4255 C   0  0  0  0  0  0  0  0  0  0  0  0
   -8.2663   -0.5627   -0.3969 H   0  0  0  0  0  0  0  0  0  0  0  0
   -6.4990   -0.6941   -1.6580 C   0  0  0  0  0  0  0  0  0  0  0  0
   -7.0718   -0.6992   -2.5976 H   0  0  0  0  0  0  0  0  0  0  0  0
   -5.0990   -0.7629   -1.6967 C   0  0  0  0  0  0  0  0  0  0  0  0
   -4.5716   -0.8264   -2.6606 H   0  0  0  0  0  0  0  0  0  0  0  0
   -2.6090    1.4271   -1.4658 C   0  0  0  0  0  0  0  0  0  0  0  0
   -3.6840    1.3921   -1.7288 H   0  0  0  0  0  0  0  0  0  0  0  0
   -2.0160    1.7456   -2.3457 H   0  0  0  0  0  0  0  0  0  0  0  0
   -2.3872    2.3843   -0.3024 C   0  0  0  0  0  0  0  0  0  0  0  0
   -3.4059    2.5853    0.6506 C   0  0  0  0  0  0  0  0  0  0  0  0
   -4.3852    2.1014    0.5095 H   0  0  0  0  0  0  0  0  0  0  0  0
   -3.1820    3.3955    1.7746 C   0  0  0  0  0  0  0  0  0  0  0  0
   -3.9890    3.5492    2.5077 H   0  0  0  0  0  0  0  0  0  0  0  0
   -1.9328    4.0096    1.9623 C   0  0  0  0  0  0  0  0  0  0  0  0
   -1.7558    4.6414    2.8465 H   0  0  0  0  0  0  0  0  0  0  0  0
   -0.9162    3.8213    1.0121 C   0  0  0  0  0  0  0  0  0  0  0  0
    0.0654    4.3027    1.1433 H   0  0  0  0  0  0  0  0  0  0  0  0
   -1.1400    3.0160   -0.1156 C   0  0  0  0  0  0  0  0  0  0  0  0
   -0.3445    2.8619   -0.8621 H   0  0  0  0  0  0  0  0  0  0  0  0
  2  3  1  0  0  0  0
  3  4  1  0  0  0  0
  3  5  2  0  0  0  0
  5  6  1  0  0  0  0
  7  5  1  0  0  0  0
  7  8  1  0  0  0  0
  9  7  2  0  0  0  0
 10  9  1  0  0  0  0
 11  2  2  0  0  0  0
 11  9  1  0  0  0  0
 12  1  1  1  0  0  0
 12 13  1  0  0  0  0
 12 11  1  0  0  0  0
 13 14  1  0  0  0  0
 14 16  2  0  0  0  0
 14 15  1  0  0  0  0
 16 17  1  0  0  0  0
 18 19  1  0  0  0  0
 18 16  1  0  0  0  0
 20 18  2  0  0  0  0
 21 20  1  0  0  0  0
 22 20  1  0  0  0  0
 22 13  2  0  0  0  0
 23 22  1  0  0  0  0
 24  1  1  0  0  0  0
 24 27  1  0  0  0  0
 25 24  1  0  0  0  0
 26 24  1  0  0  0  0
 27 36  2  0  0  0  0
 27 28  1  0  0  0  0
 28 30  2  0  0  0  0
 29 28  1  0  0  0  0
 30 32  1  0  0  0  0
 30 31  1  0  0  0  0
 32 33  1  0  0  0  0
 34 35  1  0  0  0  0
 34 32  2  0  0  0  0
 36 34  1  0  0  0  0
 37 36  1  0  0  0  0
M  END
