1,27
q = -1.0, confidence = 0.0

 28 29  0  0  0  0  0  0  0  0999 V2000
   -1.6559    0.6919   -0.3180 C   0  0  0  0  0  3  0  0  0  0  0  0
   -1.1486    2.0283   -0.2308 C   0  0  0  0  0  0  0  0  0  0  0  0
   -2.0361    3.1350   -0.2754 C   0  0  0  0  0  0  0  0  0  0  0  0
   -3.4143    2.9404   -0.4034 C   0  0  0  0  0  0  0  0  0  0  0  0
   -4.1014    3.7946   -0.4469 H   0  0  0  0  0  0  0  0  0  0  0  0
   -3.8990    1.6199   -0.4655 C   0  0  0  0  0  0  0  0  0  0  0  0
   -3.0398    0.5031   -0.4131 C   0  0  0  0  0  0  0  0  0  0  0  0
   -3.4879   -0.4998   -0.4491 H   0  0  0  0  0  0  0  0  0  0  0  0
    0.2702    2.1144   -0.0683 C   0  0  0  0  0  3  0  0  0  0  0  0
    0.7923    3.0808    0.0304 H   0  0  0  0  0  0  0  0  0  0  0  0
    2.3555    0.9853    0.0648 C   0  0  0  0  0  0  0  0  0  0  0  0
    3.1234    1.9242   -0.6566 C   0  0  0  0  0  0  0  0  0  0  0  0
    2.6241    2.6281   -1.3388 H   0  0  0  0  0  0  0  0  0  0  0  0
    4.5189    1.9514   -0.5466 C   0  0  0  0  0  0  0  0  0  0  0  0
    5.0863    2.6834   -1.1360 H   0  0  0  0  0  0  0  0  0  0  0  0
    5.1792    1.0327    0.3015 C   0  0  0  0  0  0  0  0  0  0  0  0
    4.4119    0.0758    1.0098 C   0  0  0  0  0  0  0  0  0  0  0  0
    4.9416   -0.6412    1.6531 H   0  0  0  0  0  0  0  0  0  0  0  0
    3.0265    0.0450    0.8809 C   0  0  0  0  0  0  0  0  0  0  0  0
    2.4400   -0.7166    1.4146 H   0  0  0  0  0  0  0  0  0  0  0  0
    7.3441    1.9122   -0.1914 C   0  0  0  0  0  0  0  0  0  0  0  0
    7.2643    1.8063   -1.2953 H   0  0  0  0  0  0  0  0  0  0  0  0
    8.3797    1.6868    0.1196 H   0  0  0  0  0  0  0  0  0  0  0  0
    7.0961    2.9573    0.0951 H   0  0  0  0  0  0  0  0  0  0  0  0
   -1.4186    4.7595   -0.1678 Cl  0  0  0  0  0  0  0  0  0  0  0  0
   -5.6087    1.3620   -0.6157 Cl  0  0  0  0  0  0  0  0  0  0  0  0
    0.9405    0.9779   -0.0110 N   0  0  0  0  0  2  0  0  0  0  0  0
    6.5133    0.9754    0.4842 O   0  0  0  0  0  0  0  0  0  0  0  0
  1  2  1  0  0  0  0
  2  9  1  0  0  0  0
  3  2  2  0  0  0  0
  3 25  1  0  0  0  0
  4  3  1  0  0  0  0
  5  4  1  0  0  0  0
  6  7  1  0  0  0  0
  6  4  2  0  0  0  0
  7  1  2  0  0  0  0
  8  7  1  0  0  0  0
  9 27  1  0  0  0  0
  9 10  1  0  0  0  0
 11 19  1  0  0  0  0
 12 14  1  0  0  0  0
 12 11  2  0  0  0  0
 13 12  1  0  0  0  0
 14 16  2  0  0  0  0
 15 14  1  0  0  0  0
 16 28  1  0  0  0  0
 16 17  1  0  0  0  0
 17 18  1  0  0  0  0
 19 17  2  0  0  0  0
 19 20  1  0  0  0  0
 21 24  1  0  0  0  0
 21 23  1  0  0  0  0
 21 28  1  0  0  0  0
 22 21  1  0  0  0  0
 26  6  1  0  0  0  0
 27 11  1  0  0  0  0
M  END
