2,5
q = 0.0, confidence = 0.996

 37 40  0  0  1  0  0  0  0  0999 V2000
    0.7704    1.7852    0.0394 N   0  0  0  0  0  0  0  0  0  0  0  0
   -1.4792    2.1279    0.0741 N   0  0  0  0  0  2  0  0  0  0  0  0
    2.0683    2.0690   -0.0702 N   0  0  0  0  0  2  0  0  0  0  0  0
    2.6255    0.8640   -0.0962 N   0  0  0  0  0  0  0  0  0  0  0  0
    0.4471    0.4390    0.0974 C   0  0  0  0  0  3  0  0  0  0  0  0
   -0.2636    2.7285   -0.0127 C   0  0  2  0  0  3  0  0  0  0  0  0
    1.7068   -0.1746   -0.0046 C   0  0  0  0  0  0  0  0  0  0  0  0
   -0.0756    4.1037   -0.1719 C   0  0  0  0  0  0  0  0  0  0  0  0
    0.9431    4.5079   -0.2406 H   0  0  0  0  0  0  0  0  0  0  0  0
    2.9916   -2.1861    0.8071 C   0  0  0  0  0  0  0  0  0  0  0  0
    3.5519   -1.5546    1.5127 H   0  0  0  0  0  0  0  0  0  0  0  0
    2.0251   -1.6082   -0.0448 C   0  0  0  0  0  0  0  0  0  0  0  0
   -2.5768    2.9124   -0.0383 C   0  0  0  0  0  0  0  0  0  0  0  0
   -3.5430    2.3913   -0.0100 H   0  0  0  0  0  0  0  0  0  0  0  0
    4.0528    0.7743   -0.2270 C   0  0  0  0  0  0  0  0  0  0  0  0
    1.3023   -2.4236   -0.9465 C   0  0  0  0  0  0  0  0  0  0  0  0
    0.5573   -1.9562   -1.6110 H   0  0  0  0  0  0  0  0  0  0  0  0
    1.5488   -3.8027   -0.9878 C   0  0  0  0  0  0  0  0  0  0  0  0
    0.9934   -4.4348   -1.6970 H   0  0  0  0  0  0  0  0  0  0  0  0
   -1.2198    4.9047   -0.2558 C   0  0  0  0  0  0  0  0  0  0  0  0
   -1.1245    5.9926   -0.3829 H   0  0  0  0  0  0  0  0  0  0  0  0
    3.2283   -3.5666    0.7586 C   0  0  0  0  0  0  0  0  0  0  0  0
    3.9782   -4.0151    1.4269 H   0  0  0  0  0  0  0  0  0  0  0  0
    4.8610    1.5789    0.5921 C   0  0  0  0  0  0  0  0  0  0  0  0
    4.3970    2.2571    1.3216 H   0  0  0  0  0  0  0  0  0  0  0  0
    2.5086   -4.3759   -0.1363 C   0  0  0  0  0  0  0  0  0  0  0  0
    2.6997   -5.4588   -0.1720 H   0  0  0  0  0  0  0  0  0  0  0  0
   -2.4863    4.2977   -0.1942 C   0  0  0  0  0  0  0  0  0  0  0  0
   -3.4071    4.8914   -0.2753 H   0  0  0  0  0  0  0  0  0  0  0  0
    6.2534    1.4946    0.4576 C   0  0  0  0  0  0  0  0  0  0  0  0
    6.8986    2.1180    1.0936 H   0  0  0  0  0  0  0  0  0  0  0  0
    4.6021   -0.1021   -1.1774 C   0  0  0  0  0  0  0  0  0  0  0  0
    3.9481   -0.7056   -1.8213 H   0  0  0  0  0  0  0  0  0  0  0  0
    5.9960   -0.1763   -1.2953 C   0  0  0  0  0  0  0  0  0  0  0  0
    6.4399   -0.8536   -2.0393 H   0  0  0  0  0  0  0  0  0  0  0  0
    6.8207    0.6161   -0.4797 C   0  0  0  0  0  0  0  0  0  0  0  0
    7.9142    0.5516   -0.5788 H   0  0  0  0  0  0  0  0  0  0  0  0
  1  5  1  0  0  0  0
  3  1  1  0  0  0  0
  4  3  1  0  0  0  0
  4  7  1  0  0  0  0
  6  1  1  6  0  0  0
  6  2  1  0  0  0  0
  7  5  2  0  0  0  0
  8  6  1  0  0  0  0
  9  8  1  0  0  0  0
 10 11  1  0  0  0  0
 12  7  1  0  0  0  0
 12 10  2  0  0  0  0
 13 14  1  0  0  0  0
 13  2  1  0  0  0  0
 15  4  1  0  0  0  0
 15 24  1  0  0  0  0
 16 12  1  0  0  0  0
 17 16  1  0  0  0  0
 18 16  2  0  0  0  0
 18 26  1  0  0  0  0
 19 18  1  0  0  0  0
 20 28  1  0  0  0  0
 20  8  2  0  0  0  0
 21 20  1  0  0  0  0
 22 10  1  0  0  0  0
 22 23  1  0  0  0  0
 24 25  1  0  0  0  0
 26 22  2  0  0  0  0
 27 26  1  0  0  0  0
 28 13  2  0  0  0  0
 29 28  1  0  0  0  0
 30 24  2  0  0  0  0
 30 31  1  0  0  0  0
 32 15  2  0  0  0  0
 33 32  1  0  0  0  0
 34 32  1  0  0  0  0
 34 36  2  0  0  0  0
 35 34  1  0  0  0  0
 36 30  1  0  0  0  0
 37 36  1  0  0  0  0
M  END
