3
q = -2.0, confidence = 0.938

 41 42  0  0  1  0  0  0  0  0999 V2000
    3.7671    0.5524   -0.5350 S   0  0  0  0  0  0  0  0  0  0  0  0
   -1.4325    1.4091    0.9867 Si  0  0  0  0  0  0  0  0  0  0  0  0
   -1.6021    0.1173   -0.2224 N   0  0  0  0  0  2  0  0  0  0  0  0
    2.3846    0.2052    0.4636 C   0  0  0  0  0  0  0  0  0  0  0  0
    1.9343   -0.8530    1.3086 C   0  0  0  0  0  0  0  0  0  0  0  0
    0.6874   -0.4063    1.8705 C   0  0  0  0  0  0  0  0  0  0  0  0
    0.3448    0.9019    1.3405 C   0  0  1  0  0  3  0  0  0  0  0  0
    1.4422    1.2862    0.4824 C   0  0  0  0  0  0  0  0  0  0  0  0
    1.8692    2.3776   -0.3554 C   0  0  0  0  0  0  0  0  0  0  0  0
    1.3136    3.3099   -0.5103 H   0  0  0  0  0  0  0  0  0  0  0  0
    3.0826    2.1174   -0.9430 C   0  0  0  0  0  0  0  0  0  0  0  0
    3.6419    2.7661   -1.6291 H   0  0  0  0  0  0  0  0  0  0  0  0
    2.6643   -2.1264    1.5943 C   0  0  0  0  0  0  0  0  0  0  0  0
    3.2688   -2.0344    2.5218 H   0  0  0  0  0  0  0  0  0  0  0  0
    3.3540   -2.3797    0.7659 H   0  0  0  0  0  0  0  0  0  0  0  0
    1.9653   -2.9755    1.7176 H   0  0  0  0  0  0  0  0  0  0  0  0
   -0.1460   -1.2141    2.8248 C   0  0  0  0  0  0  0  0  0  0  0  0
   -0.1717   -0.7308    3.8236 H   0  0  0  0  0  0  0  0  0  0  0  0
    0.2603   -2.2347    2.9458 H   0  0  0  0  0  0  0  0  0  0  0  0
   -1.1913   -1.3197    2.4743 H   0  0  0  0  0  0  0  0  0  0  0  0
   -2.5958    1.3243    2.4716 C   0  0  0  0  0  0  0  0  0  0  0  0
   -3.6271    1.6121    2.1829 H   0  0  0  0  0  0  0  0  0  0  0  0
   -2.2493    2.0447    3.2423 H   0  0  0  0  0  0  0  0  0  0  0  0
   -2.6337    0.3200    2.9332 H   0  0  0  0  0  0  0  0  0  0  0  0
   -1.5085    3.1441    0.2456 C   0  0  0  0  0  0  0  0  0  0  0  0
   -2.5565    3.4844    0.1289 H   0  0  0  0  0  0  0  0  0  0  0  0
   -1.0291    3.1641   -0.7526 H   0  0  0  0  0  0  0  0  0  0  0  0
   -0.9870    3.8684    0.9053 H   0  0  0  0  0  0  0  0  0  0  0  0
   -2.8383   -0.3159   -0.9230 C   0  0  0  0  0  0  0  0  0  0  0  0
   -2.5089   -0.9677   -2.2780 C   0  0  0  0  0  0  0  0  0  0  0  0
   -1.9633   -0.2620   -2.9330 H   0  0  0  0  0  0  0  0  0  0  0  0
   -3.4443   -1.2763   -2.7866 H   0  0  0  0  0  0  0  0  0  0  0  0
   -1.8802   -1.8700   -2.1458 H   0  0  0  0  0  0  0  0  0  0  0  0
   -3.7459    0.9039   -1.1723 C   0  0  0  0  0  0  0  0  0  0  0  0
   -3.2295    1.6580   -1.7987 H   0  0  0  0  0  0  0  0  0  0  0  0
   -4.0529    1.3857   -0.2209 H   0  0  0  0  0  0  0  0  0  0  0  0
   -4.6712    0.5942   -1.6984 H   0  0  0  0  0  0  0  0  0  0  0  0
   -3.5608   -1.3359   -0.0195 C   0  0  0  0  0  0  0  0  0  0  0  0
   -3.8399   -0.8778    0.9507 H   0  0  0  0  0  0  0  0  0  0  0  0
   -2.8981   -2.2016    0.1784 H   0  0  0  0  0  0  0  0  0  0  0  0
   -4.4870   -1.7056   -0.5053 H   0  0  0  0  0  0  0  0  0  0  0  0
  1  4  1  0  0  0  0
  2 21  1  0  0  0  0
  3  2  1  0  0  0  0
  4  8  2  0  0  0  0
  4  5  1  0  0  0  0
  5 13  1  0  0  0  0
  5  6  2  0  0  0  0
  6 17  1  0  0  0  0
  7  2  1  6  0  0  0
  7  6  1  0  0  0  0
  8  7  1  0  0  0  0
  9  8  1  0  0  0  0
 10  9  1  0  0  0  0
 11  1  1  0  0  0  0
 11  9  2  0  0  0  0
 12 11  1  0  0  0  0
 13 16  1  0  0  0  0
 13 14  1  0  0  0  0
 15 13  1  0  0  0  0
 17 19  1  0  0  0  0
 17 18  1  0  0  0  0
 20 17  1  0  0  0  0
 21 24  1  0  0  0  0
 21 23  1  0  0  0  0
 22 21  1  0  0  0  0
 25 28  1  0  0  0  0
 25  2  1  0  0  0  0
 26 25  1  0  0  0  0
 27 25  1  0  0  0  0
 29  3  1  0  0  0  0
 29 38  1  0  0  0  0
 30 33  1  0  0  0  0
 30 29  1  0  0  0  0
 31 30  1  0  0  0  0
 32 30  1  0  0  0  0
 34 29  1  0  0  0  0
 34 36  1  0  0  0  0
 35 34  1  0  0  0  0
 37 34  1  0  0  0  0
 38 40  1  0  0  0  0
 38 39  1  0  0  0  0
 41 38  1  0  0  0  0
M  END
