1,18
q = -2.0, confidence = 0.59

 27 28  0  0  0  0  0  0  0  0999 V2000
    1.5870   -1.0246    0.2635 N   0  0  0  0  0  2  0  0  0  0  0  0
    2.5764   -2.9028    1.2118 O   0  0  0  0  0  0  0  0  0  0  0  0
    1.6846   -2.0545    1.1480 C   0  0  0  0  0  0  0  0  0  0  0  0
    0.5211   -2.1599    2.1803 C   0  0  0  0  0  0  0  0  0  0  0  0
    0.8717   -2.9710    3.1886 F   0  0  0  0  0  0  0  0  0  0  0  0
    0.1660   -0.9665    2.7294 F   0  0  0  0  0  0  0  0  0  0  0  0
   -0.5959   -2.6903    1.6050 F   0  0  0  0  0  0  0  0  0  0  0  0
    2.6324   -0.7892   -0.6589 C   0  0  0  0  0  0  0  0  0  0  0  0
    3.1931   -1.8369   -1.4224 C   0  0  0  0  0  0  0  0  0  0  0  0
    2.8560   -2.8642   -1.2316 H   0  0  0  0  0  0  0  0  0  0  0  0
    4.1810   -1.5771   -2.3809 C   0  0  0  0  0  0  0  0  0  0  0  0
    4.5964   -2.4076   -2.9723 H   0  0  0  0  0  0  0  0  0  0  0  0
    4.6333   -0.2645   -2.5866 C   0  0  0  0  0  0  0  0  0  0  0  0
    5.3968   -0.0496   -3.3493 H   0  0  0  0  0  0  0  0  0  0  0  0
    4.1058    0.7755   -1.8099 C   0  0  0  0  0  3  0  0  0  0  0  0
    4.4576    1.8056   -1.9724 H   0  0  0  0  0  0  0  0  0  0  0  0
    3.1168    0.5432   -0.8310 C   0  0  0  0  0  0  0  0  0  0  0  0
    1.3003    1.6436    0.5582 C   0  0  0  0  0  2  0  0  0  0  0  0
    0.9035    2.6644    1.4440 C   0  0  0  0  0  0  0  0  0  0  0  0
   -0.1172    2.6626    1.8585 H   0  0  0  0  0  0  0  0  0  0  0  0
    1.7849    3.6976    1.8052 C   0  0  0  0  0  0  0  0  0  0  0  0
    1.4538    4.4880    2.4972 H   0  0  0  0  0  0  0  0  0  0  0  0
    3.0876    3.7085    1.2843 C   0  0  0  0  0  0  0  0  0  0  0  0
    3.7933    4.5047    1.5663 H   0  0  0  0  0  0  0  0  0  0  0  0
    3.5006    2.6842    0.4224 C   0  0  0  0  0  0  0  0  0  0  0  0
    4.5396    2.6711    0.0593 H   0  0  0  0  0  0  0  0  0  0  0  0
    2.6265    1.6354    0.0457 C   0  0  0  0  0  0  0  0  0  0  0  0
  1  3  1  0  0  0  0
  3  2  2  0  0  0  0
  3  4  1  0  0  0  0
  4  6  1  0  0  0  0
  4  5  1  0  0  0  0
  7  4  1  0  0  0  0
  8  1  1  0  0  0  0
  9 10  1  0  0  0  0
  9  8  2  0  0  0  0
 11  9  1  0  0  0  0
 12 11  1  0  0  0  0
 13 11  2  0  0  0  0
 13 15  1  0  0  0  0
 14 13  1  0  0  0  0
 15 17  1  0  0  0  0
 16 15  1  0  0  0  0
 17  8  1  0  0  0  0
 17 27  2  0  0  0  0
 18 19  1  0  0  0  0
 19 21  2  0  0  0  0
 19 20  1  0  0  0  0
 21 22  1  0  0  0  0
 23 24  1  0  0  0  0
 23 21  1  0  0  0  0
 25 23  2  0  0  0  0
 26 25  1  0  0  0  0
 27 25  1  0  0  0  0
 27 18  1  0  0  0  0
M  END
