2,3
q = -1.0, confidence = 0.0

 26 26  0  0  1  0  0  0  0  0999 V2000
    2.2588    3.4909   -0.6371 Cl  0  0  0  0  0  0  0  0  0  0  0  0
    3.4650   -0.3322   -0.4234 N   0  0  0  0  0  0  0  0  0  0  0  0
    1.0839    1.0518   -0.0203 C   0  0  0  0  0  2  0  0  0  0  0  0
   -0.1486    1.6911    0.4784 C   0  0  0  0  0  0  0  0  0  0  0  0
   -0.6421    1.4046    1.7737 C   0  0  0  0  0  0  0  0  0  0  0  0
   -0.0879    0.6921    2.4039 H   0  0  0  0  0  0  0  0  0  0  0  0
   -1.8087    2.0156    2.2530 C   0  0  0  0  0  0  0  0  0  0  0  0
   -2.1686    1.7838    3.2673 H   0  0  0  0  0  0  0  0  0  0  0  0
   -2.5187    2.9194    1.4447 C   0  0  0  0  0  0  0  0  0  0  0  0
   -3.4397    3.3921    1.8176 H   0  0  0  0  0  0  0  0  0  0  0  0
   -2.0464    3.2084    0.1544 C   0  0  0  0  0  0  0  0  0  0  0  0
   -2.5962    3.9133   -0.4885 H   0  0  0  0  0  0  0  0  0  0  0  0
   -0.8757    2.6025   -0.3248 C   0  0  0  0  0  0  0  0  0  0  0  0
   -0.5092    2.8318   -1.3356 H   0  0  0  0  0  0  0  0  0  0  0  0
    2.1510    1.7281   -0.5125 C   0  0  1  0  0  3  0  0  0  0  0  0
    3.3699    1.0247   -1.0340 C   0  0  0  0  0  0  0  0  0  0  0  0
    3.2929    0.8996   -2.1354 H   0  0  0  0  0  0  0  0  0  0  0  0
    4.2980    1.6089   -0.8396 H   0  0  0  0  0  0  0  0  0  0  0  0
    4.1536   -0.2747    0.8880 C   0  0  0  0  0  0  0  0  0  0  0  0
    5.2169    0.0288    0.7522 H   0  0  0  0  0  0  0  0  0  0  0  0
    4.1045   -1.2763    1.3548 H   0  0  0  0  0  0  0  0  0  0  0  0
    3.6408    0.4567    1.5396 H   0  0  0  0  0  0  0  0  0  0  0  0
    4.1709   -1.2677   -1.3244 C   0  0  0  0  0  0  0  0  0  0  0  0
    3.6409   -1.3119   -2.2940 H   0  0  0  0  0  0  0  0  0  0  0  0
    4.1514   -2.2764   -0.8715 H   0  0  0  0  0  0  0  0  0  0  0  0
    5.2180   -0.9263   -1.4883 H   0  0  0  0  0  0  0  0  0  0  0  0
  2 19  1  0  0  0  0
  3  4  1  0  0  0  0
  4  5  1  0  0  0  0
  5  7  2  0  0  0  0
  5  6  1  0  0  0  0
  7  8  1  0  0  0  0
  9 10  1  0  0  0  0
  9  7  1  0  0  0  0
 11  9  2  0  0  0  0
 12 11  1  0  0  0  0
 13 11  1  0  0  0  0
 13  4  2  0  0  0  0
 14 13  1  0  0  0  0
 15  1  1  6  0  0  0
 15  3  1  0  0  0  0
 16 18  1  0  0  0  0
 16 15  1  0  0  0  0
 16  2  1  0  0  0  0
 17 16  1  0  0  0  0
 19 21  1  0  0  0  0
 19 22  1  0  0  0  0
 20 19  1  0  0  0  0
 23 25  1  0  0  0  0
 23  2  1  0  0  0  0
 24 23  1  0  0  0  0
 26 23  1  0  0  0  0
M  END
