2,4
q = -1.0, confidence = 0.004

 24 24  0  0  1  0  0  0  0  0999 V2000
    5.6522    1.2269   -0.0718 O   0  0  0  0  0  0  0  0  0  0  0  0
    2.8259    0.9399   -0.0063 N   0  0  0  0  0  2  0  0  0  0  0  0
    3.5181   -0.1843   -0.0012 N   0  0  0  0  0  0  0  0  0  0  0  0
    1.3977   -1.3161    0.0659 C   0  0  0  0  0  2  0  0  0  0  0  0
    0.7214   -2.5463    0.1370 C   0  0  0  0  0  0  0  0  0  0  0  0
    1.4178   -3.7691    0.1699 C   0  0  0  0  0  0  0  0  0  0  0  0
    2.8190   -3.7948    0.1312 C   0  0  0  0  0  0  0  0  0  0  0  0
    3.5571   -2.6011    0.0689 C   0  0  0  0  0  0  0  0  0  0  0  0
    2.8240   -1.3874    0.0432 C   0  0  2  0  0  3  0  0  0  0  0  0
    5.0637   -2.5899    0.0341 C   0  0  0  0  0  0  0  0  0  0  0  0
    3.4527    2.1135   -0.0414 C   0  0  0  0  0  3  0  0  0  0  0  0
    4.8998    2.2327   -0.0737 C   0  0  0  0  0  0  0  0  0  0  0  0
    5.4769    3.6303   -0.1098 C   0  0  0  0  0  0  0  0  0  0  0  0
   -0.3763   -2.5802    0.1640 H   0  0  0  0  0  0  0  0  0  0  0  0
    0.8528   -4.7124    0.2240 H   0  0  0  0  0  0  0  0  0  0  0  0
    3.3581   -4.7547    0.1526 H   0  0  0  0  0  0  0  0  0  0  0  0
    5.4708   -3.6183    0.0604 H   0  0  0  0  0  0  0  0  0  0  0  0
    5.4938   -2.0354    0.8960 H   0  0  0  0  0  0  0  0  0  0  0  0
    5.4533   -2.0968   -0.8826 H   0  0  0  0  0  0  0  0  0  0  0  0
    2.7746    2.9815   -0.0419 H   0  0  0  0  0  0  0  0  0  0  0  0
    5.1473    4.2116    0.7761 H   0  0  0  0  0  0  0  0  0  0  0  0
    6.5799    3.5741   -0.1293 H   0  0  0  0  0  0  0  0  0  0  0  0
    5.1143    4.1789   -1.0037 H   0  0  0  0  0  0  0  0  0  0  0  0
    4.5633   -0.0346   -0.0256 H   0  0  0  0  0  0  0  0  0  0  0  0
  2  3  1  0  0  0  0
  4  5  1  0  0  0  0
  5 14  1  0  0  0  0
  5  6  2  0  0  0  0
  6 15  1  0  0  0  0
  7 16  1  0  0  0  0
  7  6  1  0  0  0  0
  8  7  2  0  0  0  0
  9  3  1  1  0  0  0
  9  4  1  0  0  0  0
  9  8  1  0  0  0  0
 10 17  1  0  0  0  0
 10  8  1  0  0  0  0
 10 18  1  0  0  0  0
 11  2  1  0  0  0  0
 12  1  2  0  0  0  0
 12 11  1  0  0  0  0
 13 12  1  0  0  0  0
 13 21  1  0  0  0  0
 19 10  1  0  0  0  0
 20 11  1  0  0  0  0
 22 13  1  0  0  0  0
 23 13  1  0  0  0  0
 24  3  1  0  0  0  0
M  END
