1,7
q = 0.0, confidence = 1.0

 23 25  0  0  0  0  0  0  0  0999 V2000
    2.3573   -1.2692   -0.7757 N   0  0  0  0  0  2  0  0  0  0  0  0
    1.1790    2.0481    0.9859 N   0  0  0  0  0  0  0  0  0  0  0  0
    2.7476    0.7265    0.3060 N   0  0  0  0  0  0  0  0  0  0  0  0
    4.6092   -0.5837   -0.3292 N   0  0  0  0  0  0  0  0  0  0  0  0
   -0.0272    2.6599    1.3042 C   0  0  0  0  0  0  0  0  0  0  0  0
   -0.9269    2.1161    0.9935 H   0  0  0  0  0  0  0  0  0  0  0  0
    1.3711    0.8686    0.3214 C   0  0  0  0  0  2  0  0  0  0  0  0
    2.4277    2.6350    1.3653 C   0  0  0  0  0  0  0  0  0  0  0  0
    2.7903   -2.3974   -1.3721 C   0  0  0  0  0  3  0  0  0  0  0  0
    1.9923   -3.0530   -1.7640 H   0  0  0  0  0  0  0  0  0  0  0  0
    3.2966   -0.4229   -0.2896 C   0  0  0  0  0  0  0  0  0  0  0  0
    2.4200    3.8793    2.0623 C   0  0  0  0  0  0  0  0  0  0  0  0
    3.3805    4.3296    2.3481 H   0  0  0  0  0  0  0  0  0  0  0  0
   -0.0199    3.8524    1.9748 C   0  0  0  0  0  0  0  0  0  0  0  0
   -0.9803    4.3245    2.2221 H   0  0  0  0  0  0  0  0  0  0  0  0
    3.4158    1.7716    0.9215 C   0  0  0  0  0  0  0  0  0  0  0  0
    4.5061    1.8041    0.9865 H   0  0  0  0  0  0  0  0  0  0  0  0
    1.2168    4.4783    2.3581 C   0  0  0  0  0  0  0  0  0  0  0  0
    1.1935    5.4372    2.8946 H   0  0  0  0  0  0  0  0  0  0  0  0
    4.1629   -2.6605   -1.4650 C   0  0  0  0  0  0  0  0  0  0  0  0
    4.5300   -3.5758   -1.9488 H   0  0  0  0  0  0  0  0  0  0  0  0
    5.0439   -1.7122   -0.9205 C   0  0  0  0  0  0  0  0  0  0  0  0
    6.1365   -1.8571   -0.9587 H   0  0  0  0  0  0  0  0  0  0  0  0
  1 11  1  0  0  0  0
  2  5  1  0  0  0  0
  2  8  1  0  0  0  0
  3  7  1  0  0  0  0
  3 16  1  0  0  0  0
  4 11  2  0  0  0  0
  5 14  2  0  0  0  0
  6  5  1  0  0  0  0
  7  2  1  0  0  0  0
  8 12  1  0  0  0  0
  9  1  1  0  0  0  0
 10  9  1  0  0  0  0
 11  3  1  0  0  0  0
 12 13  1  0  0  0  0
 12 18  2  0  0  0  0
 14 15  1  0  0  0  0
 14 18  1  0  0  0  0
 16 17  1  0  0  0  0
 16  8  2  0  0  0  0
 18 19  1  0  0  0  0
 20  9  1  0  0  0  0
 20 22  2  0  0  0  0
 21 20  1  0  0  0  0
 22  4  1  0  0  0  0
 23 22  1  0  0  0  0
M  END
