2,3
q = -2.0, confidence = 0.95

 51 54  0  0  0  0  0  0  0  0999 V2000
   -0.7802   -0.1653   -1.3666 Si  0  0  0  0  0  0  0  0  0  0  0  0
   -0.8863   -0.4849    0.3930 N   0  0  0  0  0  2  0  0  0  0  0  0
    1.0815    0.1322   -1.3181 C   0  0  0  0  0  3  0  0  0  0  0  0
    1.7389    1.3667   -0.9026 C   0  0  0  0  0  0  0  0  0  0  0  0
    1.3099    2.7237   -0.9310 C   0  0  0  0  0  0  0  0  0  0  0  0
    0.3480    2.9877   -1.3897 H   0  0  0  0  0  0  0  0  0  0  0  0
    2.1279    3.7126   -0.3938 C   0  0  0  0  0  0  0  0  0  0  0  0
    1.7996    4.7625   -0.4285 H   0  0  0  0  0  0  0  0  0  0  0  0
    3.3812    3.3982    0.1977 C   0  0  0  0  0  0  0  0  0  0  0  0
    4.0010    4.2062    0.6143 H   0  0  0  0  0  0  0  0  0  0  0  0
    3.8311    2.0811    0.2481 C   0  0  0  0  0  0  0  0  0  0  0  0
    4.8035    1.8355    0.7014 H   0  0  0  0  0  0  0  0  0  0  0  0
    3.0210    1.0586   -0.2987 C   0  0  0  0  0  0  0  0  0  0  0  0
    3.2141   -0.3754   -0.3930 C   0  0  0  0  0  0  0  0  0  0  0  0
    4.2762   -1.2116    0.0229 C   0  0  0  0  0  0  0  0  0  0  0  0
    5.1629   -0.7808    0.5123 H   0  0  0  0  0  0  0  0  0  0  0  0
    4.1799   -2.5835   -0.1937 C   0  0  0  0  0  0  0  0  0  0  0  0
    4.9985   -3.2479    0.1211 H   0  0  0  0  0  0  0  0  0  0  0  0
    3.0316   -3.1380   -0.8224 C   0  0  0  0  0  0  0  0  0  0  0  0
    2.9827   -4.2252   -0.9869 H   0  0  0  0  0  0  0  0  0  0  0  0
    1.9725   -2.3366   -1.2361 C   0  0  0  0  0  0  0  0  0  0  0  0
    1.0997   -2.7832   -1.7298 H   0  0  0  0  0  0  0  0  0  0  0  0
    2.0448   -0.9271   -1.0475 C   0  0  0  0  0  0  0  0  0  0  0  0
   -1.7402    1.3424   -1.9744 C   0  0  0  0  0  0  0  0  0  0  0  0
   -1.6669    2.1971   -1.2760 H   0  0  0  0  0  0  0  0  0  0  0  0
   -2.8149    1.0963   -2.0875 H   0  0  0  0  0  0  0  0  0  0  0  0
   -1.3477    1.6551   -2.9647 H   0  0  0  0  0  0  0  0  0  0  0  0
   -1.3118   -1.6208   -2.4523 C   0  0  0  0  0  0  0  0  0  0  0  0
   -0.9694   -1.4507   -3.4942 H   0  0  0  0  0  0  0  0  0  0  0  0
   -2.4195   -1.6802   -2.4640 H   0  0  0  0  0  0  0  0  0  0  0  0
   -0.9196   -2.5975   -2.1115 H   0  0  0  0  0  0  0  0  0  0  0  0
   -2.0602   -1.0110    1.1255 C   0  0  0  0  0  0  0  0  0  0  0  0
   -2.1121   -2.5400    0.9403 C   0  0  0  0  0  0  0  0  0  0  0  0
   -2.1982   -2.8248   -0.1248 H   0  0  0  0  0  0  0  0  0  0  0  0
   -2.9625   -2.9877    1.4934 H   0  0  0  0  0  0  0  0  0  0  0  0
   -1.1707   -2.9759    1.3273 H   0  0  0  0  0  0  0  0  0  0  0  0
   -1.9368   -0.7221    2.6370 C   0  0  0  0  0  0  0  0  0  0  0  0
   -1.0512   -1.2382    3.0555 H   0  0  0  0  0  0  0  0  0  0  0  0
   -2.8357   -1.0876    3.1719 H   0  0  0  0  0  0  0  0  0  0  0  0
   -1.8292    0.3594    2.8388 H   0  0  0  0  0  0  0  0  0  0  0  0
   -3.3180   -0.3018    0.5857 C   0  0  0  0  0  0  0  0  0  0  0  0
   -3.4632    1.0876    0.7930 C   0  0  0  0  0  0  0  0  0  0  0  0
   -2.6819    1.6334    1.3427 H   0  0  0  0  0  0  0  0  0  0  0  0
   -4.5658    1.7859    0.2866 C   0  0  0  0  0  0  0  0  0  0  0  0
   -4.6535    2.8693    0.4615 H   0  0  0  0  0  0  0  0  0  0  0  0
   -5.5510    1.1100   -0.4531 C   0  0  0  0  0  0  0  0  0  0  0  0
   -6.4161    1.6570   -0.8576 H   0  0  0  0  0  0  0  0  0  0  0  0
   -5.4211   -0.2689   -0.6688 C   0  0  0  0  0  0  0  0  0  0  0  0
   -6.1868   -0.8125   -1.2435 H   0  0  0  0  0  0  0  0  0  0  0  0
   -4.3175   -0.9679   -0.1491 C   0  0  0  0  0  0  0  0  0  0  0  0
   -4.2428   -2.0497   -0.3264 H   0  0  0  0  0  0  0  0  0  0  0  0
  1  3  1  0  0  0  0
  1  2  1  0  0  0  0
  2 32  1  0  0  0  0
  3 23  1  0  0  0  0
  3  4  1  0  0  0  0
  4 13  1  0  0  0  0
  5  4  2  0  0  0  0
  5  7  1  0  0  0  0
  6  5  1  0  0  0  0
  7  9  2  0  0  0  0
  8  7  1  0  0  0  0
  9 11  1  0  0  0  0
  9 10  1  0  0  0  0
 11 12  1  0  0  0  0
 13 11  2  0  0  0  0
 14 13  1  0  0  0  0
 14 15  1  0  0  0  0
 15 16  1  0  0  0  0
 17 15  2  0  0  0  0
 17 18  1  0  0  0  0
 19 17  1  0  0  0  0
 20 19  1  0  0  0  0
 21 23  1  0  0  0  0
 21 19  2  0  0  0  0
 22 21  1  0  0  0  0
 23 14  2  0  0  0  0
 24  1  1  0  0  0  0
 24 25  1  0  0  0  0
 26 24  1  0  0  0  0
 27 24  1  0  0  0  0
 28 31  1  0  0  0  0
 28  1  1  0  0  0  0
 29 28  1  0  0  0  0
 30 28  1  0  0  0  0
 32 37  1  0  0  0  0
 33 32  1  0  0  0  0
 33 36  1  0  0  0  0
 33 35  1  0  0  0  0
 34 33  1  0  0  0  0
 37 40  1  0  0  0  0
 37 38  1  0  0  0  0
 37 39  1  0  0  0  0
 41 42  1  0  0  0  0
 41 32  1  0  0  0  0
 42 43  1  0  0  0  0
 44 45  1  0  0  0  0
 44 42  2  0  0  0  0
 46 44  1  0  0  0  0
 47 46  1  0  0  0  0
 48 46  2  0  0  0  0
 48 50  1  0  0  0  0
 49 48  1  0  0  0  0
 50 41  2  0  0  0  0
 51 50  1  0  0  0  0
M  END
