1,6
q = 0.0, confidence = 0.992

 30 31  0  0  1  0  0  0  0  0999 V2000
   -1.0871   -0.6006    0.0006 N   0  0  0  0  0  2  0  0  0  0  0  0
   -3.4149   -0.0459    0.3790 C   0  0  0  0  0  0  0  0  0  0  0  0
   -4.1386    0.6513    0.8270 H   0  0  0  0  0  0  0  0  0  0  0  0
    2.0739   -0.1046   -1.8260 C   0  0  0  0  0  0  0  0  0  0  0  0
    2.2855   -0.9067   -2.5482 H   0  0  0  0  0  0  0  0  0  0  0  0
    2.6313    1.0985    0.2451 C   0  0  0  0  0  3  0  0  0  0  0  0
    3.2842    1.2490    1.1160 H   0  0  0  0  0  0  0  0  0  0  0  0
   -2.0426    0.2321    0.5244 C   0  0  2  0  0  3  0  0  0  0  0  0
   -1.5239   -1.6998   -0.6754 C   0  0  0  0  0  0  0  0  0  0  0  0
   -0.7379   -2.3522   -1.0773 H   0  0  0  0  0  0  0  0  0  0  0  0
    0.8720    0.6298   -1.9294 C   0  0  0  0  0  0  0  0  0  0  0  0
    0.1519    0.3945   -2.7265 H   0  0  0  0  0  0  0  0  0  0  0  0
   -2.8686   -2.0205   -0.8594 C   0  0  0  0  0  0  0  0  0  0  0  0
   -3.1312   -2.9308   -1.4169 H   0  0  0  0  0  0  0  0  0  0  0  0
    0.5454    1.6523   -0.9607 C   0  0  0  0  0  0  0  0  0  0  0  0
   -0.7745    2.3806   -1.0701 C   0  0  0  0  0  0  0  0  0  0  0  0
   -1.4539    1.7634   -1.6945 H   0  0  0  0  0  0  0  0  0  0  0  0
   -0.6274    3.3264   -1.6379 H   0  0  0  0  0  0  0  0  0  0  0  0
    2.9593    0.1096   -0.7257 C   0  0  0  0  0  3  0  0  0  0  0  0
    3.8561   -0.5126   -0.6046 H   0  0  0  0  0  0  0  0  0  0  0  0
   -1.6127    1.4949    1.2204 C   0  0  0  0  0  0  0  0  0  0  0  0
   -0.6477    1.2966    1.7224 H   0  0  0  0  0  0  0  0  0  0  0  0
   -2.3548    1.7475    2.0043 H   0  0  0  0  0  0  0  0  0  0  0  0
   -3.8495   -1.1769   -0.3176 C   0  0  0  0  0  0  0  0  0  0  0  0
   -4.9212   -1.3973   -0.4312 H   0  0  0  0  0  0  0  0  0  0  0  0
   -1.4696    2.7010    0.2622 C   0  0  0  0  0  0  0  0  0  0  0  0
   -2.4754    3.1111    0.0300 H   0  0  0  0  0  0  0  0  0  0  0  0
   -0.9322    3.5114    0.7987 H   0  0  0  0  0  0  0  0  0  0  0  0
    1.4585    1.9087    0.0869 C   0  0  0  0  0  0  0  0  0  0  0  0
    1.2234    2.6642    0.8502 H   0  0  0  0  0  0  0  0  0  0  0  0
  1  8  1  0  0  0  0
  2  8  1  0  0  0  0
  2  3  1  0  0  0  0
  4 19  1  0  0  0  0
  5  4  1  0  0  0  0
  6  7  1  0  0  0  0
  8 21  1  6  0  0  0
  9  1  1  0  0  0  0
 10  9  1  0  0  0  0
 11  4  2  0  0  0  0
 11 15  1  0  0  0  0
 12 11  1  0  0  0  0
 13  9  2  0  0  0  0
 13 24  1  0  0  0  0
 14 13  1  0  0  0  0
 15 29  2  0  0  0  0
 16 15  1  0  0  0  0
 16 26  1  0  0  0  0
 17 16  1  0  0  0  0
 18 16  1  0  0  0  0
 19 20  1  0  0  0  0
 19  6  1  0  0  0  0
 21 22  1  0  0  0  0
 21 23  1  0  0  0  0
 24  2  2  0  0  0  0
 25 24  1  0  0  0  0
 26 28  1  0  0  0  0
 26 21  1  0  0  0  0
 27 26  1  0  0  0  0
 29  6  1  0  0  0  0
 29 30  1  0  0  0  0
M  END
