2,8
q = -1.0, confidence = 0.0

 35 37  0  0  1  0  0  0  0  0999 V2000
   -3.7649   -1.2006   -2.3037 O   0  0  0  0  0  0  0  0  0  0  0  0
   -2.1020   -1.1949   -0.8023 N   0  0  0  0  0  2  0  0  0  0  0  0
   -2.6493   -0.6288   -1.8287 C   0  0  2  0  0  3  0  0  0  0  0  0
   -2.1168    0.5996   -2.4967 C   0  0  0  0  0  0  0  0  0  0  0  0
   -2.8909    0.9981   -3.1787 H   0  0  0  0  0  0  0  0  0  0  0  0
   -1.2520    0.2843   -3.1230 H   0  0  0  0  0  0  0  0  0  0  0  0
   -1.6904    1.6302   -1.4640 C   0  0  0  0  0  0  0  0  0  0  0  0
   -0.8349    1.2682   -0.3926 C   0  0  0  0  0  3  0  0  0  0  0  0
   -0.5961    2.2269    0.6154 C   0  0  0  0  0  0  0  0  0  0  0  0
    0.0404    1.9704    1.4757 H   0  0  0  0  0  0  0  0  0  0  0  0
   -1.1409    3.5196    0.5467 C   0  0  0  0  0  0  0  0  0  0  0  0
   -0.9280    4.2440    1.3483 H   0  0  0  0  0  0  0  0  0  0  0  0
   -1.9395    3.8852   -0.5469 C   0  0  0  0  0  0  0  0  0  0  0  0
   -2.3601    4.8995   -0.6202 H   0  0  0  0  0  0  0  0  0  0  0  0
   -2.2193    2.9340   -1.5390 C   0  0  0  0  0  0  0  0  0  0  0  0
   -2.8770    3.2005   -2.3826 H   0  0  0  0  0  0  0  0  0  0  0  0
   -3.9814   -2.4068   -1.5078 C   0  0  0  0  0  0  0  0  0  0  0  0
   -3.8397   -3.2772   -2.1794 H   0  0  0  0  0  0  0  0  0  0  0  0
   -5.0272   -2.3803   -1.1464 H   0  0  0  0  0  0  0  0  0  0  0  0
   -2.9271   -2.3336   -0.3740 C   0  0  2  0  0  0  0  0  0  0  0  0
   -2.2709   -3.2276   -0.3408 H   0  0  0  0  0  0  0  0  0  0  0  0
   -3.4937   -2.1083    1.0482 C   0  0  0  0  0  0  0  0  0  0  0  0
   -4.0527   -3.0227    1.3367 H   0  0  0  0  0  0  0  0  0  0  0  0
   -2.6171   -2.0381    1.7243 H   0  0  0  0  0  0  0  0  0  0  0  0
   -4.3738   -0.8882    1.1673 C   0  0  0  0  0  0  0  0  0  0  0  0
   -3.8012    0.3966    1.2809 C   0  0  0  0  0  0  0  0  0  0  0  0
   -2.7082    0.4998    1.3413 H   0  0  0  0  0  0  0  0  0  0  0  0
   -4.6055    1.5449    1.3025 C   0  0  0  0  0  0  0  0  0  0  0  0
   -4.1278    2.5338    1.3745 H   0  0  0  0  0  0  0  0  0  0  0  0
   -6.0028    1.4285    1.2249 C   0  0  0  0  0  0  0  0  0  0  0  0
   -6.6362    2.3287    1.2427 H   0  0  0  0  0  0  0  0  0  0  0  0
   -6.5890    0.1564    1.1330 C   0  0  0  0  0  0  0  0  0  0  0  0
   -7.6842    0.0545    1.0863 H   0  0  0  0  0  0  0  0  0  0  0  0
   -5.7795   -0.9904    1.1028 C   0  0  0  0  0  0  0  0  0  0  0  0
   -6.2479   -1.9867    1.0420 H   0  0  0  0  0  0  0  0  0  0  0  0
  1  3  1  0  0  0  0
  1 17  1  0  0  0  0
  2 20  1  0  0  0  0
  3  4  1  1  0  0  0
  3  2  1  0  0  0  0
  4  7  1  0  0  0  0
  5  4  1  0  0  0  0
  6  4  1  0  0  0  0
  7  8  1  0  0  0  0
  8  9  2  0  0  0  0
  9 10  1  0  0  0  0
 11  9  1  0  0  0  0
 11 12  1  0  0  0  0
 13 11  2  0  0  0  0
 14 13  1  0  0  0  0
 15  7  2  0  0  0  0
 15 13  1  0  0  0  0
 16 15  1  0  0  0  0
 17 19  1  0  0  0  0
 17 20  1  0  0  0  0
 18 17  1  0  0  0  0
 20 21  1  6  0  0  0
 20 22  1  0  0  0  0
 22 25  1  0  0  0  0
 22 23  1  0  0  0  0
 22 24  1  0  0  0  0
 25 26  1  0  0  0  0
 26 28  2  0  0  0  0
 26 27  1  0  0  0  0
 28 29  1  0  0  0  0
 30 31  1  0  0  0  0
 30 28  1  0  0  0  0
 32 30  2  0  0  0  0
 33 32  1  0  0  0  0
 34 32  1  0  0  0  0
 34 25  2  0  0  0  0
 35 34  1  0  0  0  0
M  END
