2,5
q = -2.0, confidence = 0.736

 37 38  0  0  1  0  0  0  0  0999 V2000
    6.5404   -2.9572   -0.0020 Cl  0  0  0  0  0  0  0  0  0  0  0  0
    0.0336   -0.9067   -0.0623 N   0  0  0  0  0  2  0  0  0  0  0  0
    0.7631   -0.2050   -0.2188 H   0  0  0  0  0  0  0  0  0  0  0  0
   -1.7753   -2.7097   -0.0036 C   0  0  2  0  0  3  0  0  0  0  0  0
   -2.4971   -2.2738   -1.1706 C   0  0  2  0  0  3  0  0  0  0  0  0
   -3.7291   -1.6871   -0.7241 C   0  0  2  0  0  3  0  0  0  0  0  0
   -3.7369   -1.7027    0.7095 C   0  0  0  0  0  0  0  0  0  0  0  0
   -2.5403   -2.3637    1.1537 C   0  0  0  0  0  0  0  0  0  0  0  0
   -2.0661   -2.5519   -2.5789 C   0  0  0  0  0  0  0  0  0  0  0  0
   -2.6051   -1.9292   -3.3180 H   0  0  0  0  0  0  0  0  0  0  0  0
   -2.2616   -3.6132   -2.8437 H   0  0  0  0  0  0  0  0  0  0  0  0
   -0.9776   -2.3832   -2.7015 H   0  0  0  0  0  0  0  0  0  0  0  0
   -4.8861   -1.3085   -1.5976 C   0  0  0  0  0  0  0  0  0  0  0  0
   -5.5707   -0.5950   -1.1004 H   0  0  0  0  0  0  0  0  0  0  0  0
   -5.4838   -2.2141   -1.8391 H   0  0  0  0  0  0  0  0  0  0  0  0
   -4.5728   -0.8664   -2.5628 H   0  0  0  0  0  0  0  0  0  0  0  0
   -4.8214   -1.2014    1.6128 C   0  0  0  0  0  0  0  0  0  0  0  0
   -4.3842   -0.6290    2.4554 H   0  0  0  0  0  0  0  0  0  0  0  0
   -5.4092   -2.0429    2.0385 H   0  0  0  0  0  0  0  0  0  0  0  0
   -5.5291   -0.5359    1.0815 H   0  0  0  0  0  0  0  0  0  0  0  0
   -2.1969   -2.7338    2.5596 C   0  0  0  0  0  0  0  0  0  0  0  0
   -1.1145   -2.9463    2.6526 H   0  0  0  0  0  0  0  0  0  0  0  0
   -2.7532   -3.6490    2.8578 H   0  0  0  0  0  0  0  0  0  0  0  0
   -2.4514   -1.9218    3.2660 H   0  0  0  0  0  0  0  0  0  0  0  0
   -0.3903   -3.2073   -0.0004 C   0  0  0  0  0  0  0  0  0  0  0  0
   -0.1290   -4.2701    0.0840 H   0  0  0  0  0  0  0  0  0  0  0  0
    0.5373   -2.1943   -0.0308 C   0  0  0  0  0  0  0  0  0  0  0  0
    2.0077   -2.3927   -0.0217 C   0  0  0  0  0  0  0  0  0  0  0  0
    2.6005   -3.5307   -0.6119 C   0  0  0  0  0  0  0  0  0  0  0  0
    1.9594   -4.2747   -1.1077 H   0  0  0  0  0  0  0  0  0  0  0  0
    3.9878   -3.7130   -0.6043 C   0  0  0  0  0  0  0  0  0  0  0  0
    4.4440   -4.5962   -1.0730 H   0  0  0  0  0  0  0  0  0  0  0  0
    4.8084   -2.7429   -0.0032 C   0  0  0  0  0  0  0  0  0  0  0  0
    4.2475   -1.6017    0.5919 C   0  0  0  0  0  0  0  0  0  0  0  0
    4.9000   -0.8557    1.0669 H   0  0  0  0  0  0  0  0  0  0  0  0
    2.8571   -1.4364    0.5799 C   0  0  0  0  0  0  0  0  0  0  0  0
    2.4206   -0.5550    1.0745 H   0  0  0  0  0  0  0  0  0  0  0  0
  2 27  1  0  0  0  0
  3  2  1  0  0  0  0
  4 25  1  1  0  0  0
  4  8  1  0  0  0  0
  5  9  1  6  0  0  0
  5  6  1  0  0  0  0
  5  4  1  0  0  0  0
  6 13  1  6  0  0  0
  6  7  1  0  0  0  0
  7  8  2  0  0  0  0
  7 17  1  0  0  0  0
  8 21  1  0  0  0  0
 10  9  1  0  0  0  0
 11  9  1  0  0  0  0
 12  9  1  0  0  0  0
 13 14  1  0  0  0  0
 15 13  1  0  0  0  0
 16 13  1  0  0  0  0
 17 19  1  0  0  0  0
 17 18  1  0  0  0  0
 20 17  1  0  0  0  0
 21 22  1  0  0  0  0
 21 23  1  0  0  0  0
 21 24  1  0  0  0  0
 25 26  1  0  0  0  0
 27 28  1  0  0  0  0
 27 25  2  0  0  0  0
 28 36  1  0  0  0  0
 29 31  1  0  0  0  0
 29 28  2  0  0  0  0
 30 29  1  0  0  0  0
 31 33  2  0  0  0  0
 32 31  1  0  0  0  0
 33  1  1  0  0  0  0
 33 34  1  0  0  0  0
 34 35  1  0  0  0  0
 36 34  2  0  0  0  0
 36 37  1  0  0  0  0
M  END
