2,7
q = -2.0, confidence = 0.944

 53 54  0  0  1  0  0  0  0  0999 V2000
   -2.7653   -0.8918   -0.2771 Si  0  0  0  0  0  0  0  0  0  0  0  0
    2.6176   -0.4746   -0.7753 N   0  0  0  0  0  0  0  0  0  0  0  0
   -0.9365    0.9993   -1.6389 C   0  0  0  0  0  0  0  0  0  0  0  0
   -0.0985    2.1081   -1.2832 C   0  0  0  0  0  0  0  0  0  0  0  0
   -0.4778    2.5529    0.0265 C   0  0  0  0  0  0  0  0  0  0  0  0
   -1.5474    1.7174    0.4794 C   0  0  0  0  0  0  0  0  0  0  0  0
   -1.8535    0.7491   -0.5508 C   0  0  2  0  0  3  0  0  0  0  0  0
   -0.9359    0.3223   -2.9861 C   0  0  0  0  0  0  0  0  0  0  0  0
   -1.9019    0.4753   -3.5110 H   0  0  0  0  0  0  0  0  0  0  0  0
   -0.7803   -0.7747   -2.9306 H   0  0  0  0  0  0  0  0  0  0  0  0
   -0.1444    0.7309   -3.6437 H   0  0  0  0  0  0  0  0  0  0  0  0
    0.8602    2.8264   -2.1916 C   0  0  0  0  0  0  0  0  0  0  0  0
    1.6639    3.3390   -1.6256 H   0  0  0  0  0  0  0  0  0  0  0  0
    0.3407    3.6119   -2.7836 H   0  0  0  0  0  0  0  0  0  0  0  0
    1.3470    2.1533   -2.9261 H   0  0  0  0  0  0  0  0  0  0  0  0
    0.0863    3.7369    0.7592 C   0  0  0  0  0  0  0  0  0  0  0  0
    1.0284    4.0895    0.2963 H   0  0  0  0  0  0  0  0  0  0  0  0
    0.3221    3.4939    1.8146 H   0  0  0  0  0  0  0  0  0  0  0  0
   -0.6218    4.5937    0.7533 H   0  0  0  0  0  0  0  0  0  0  0  0
   -2.2149    1.8547    1.8244 C   0  0  0  0  0  0  0  0  0  0  0  0
   -2.0754    0.9658    2.4762 H   0  0  0  0  0  0  0  0  0  0  0  0
   -3.3091    2.0033    1.7202 H   0  0  0  0  0  0  0  0  0  0  0  0
   -1.8070    2.7198    2.3795 H   0  0  0  0  0  0  0  0  0  0  0  0
   -4.1669   -0.7793    0.9853 C   0  0  0  0  0  0  0  0  0  0  0  0
   -4.9072   -0.0088    0.6878 H   0  0  0  0  0  0  0  0  0  0  0  0
   -3.8090   -0.5325    2.0026 H   0  0  0  0  0  0  0  0  0  0  0  0
   -4.6899   -1.7563    1.0371 H   0  0  0  0  0  0  0  0  0  0  0  0
   -3.4592   -1.6431   -1.8681 C   0  0  0  0  0  0  0  0  0  0  0  0
   -4.1242   -0.9236   -2.3884 H   0  0  0  0  0  0  0  0  0  0  0  0
   -4.0572   -2.5428   -1.6154 H   0  0  0  0  0  0  0  0  0  0  0  0
   -2.6701   -1.9528   -2.5791 H   0  0  0  0  0  0  0  0  0  0  0  0
   -1.3223   -1.9091    0.3961 C   0  0  0  0  0  0  0  0  0  0  0  0
   -0.2164   -2.3524   -0.4043 C   0  0  0  0  0  0  0  0  0  0  0  0
   -0.2425   -2.5115   -1.4925 H   0  0  0  0  0  0  0  0  0  0  0  0
    0.9240   -2.5756    0.4294 C   0  0  0  0  0  0  0  0  0  0  0  0
    0.5356   -2.2671    1.7645 C   0  0  0  0  0  0  0  0  0  0  0  0
    1.1786   -2.3214    2.6524 H   0  0  0  0  0  0  0  0  0  0  0  0
   -0.8271   -1.8494    1.7426 C   0  0  0  0  0  3  0  0  0  0  0  0
   -1.4050   -1.5371    2.6239 H   0  0  0  0  0  0  0  0  0  0  0  0
    2.3232   -2.8835   -0.0386 C   0  0  0  0  0  0  0  0  0  0  0  0
    2.2981   -3.3437   -1.0476 H   0  0  0  0  0  0  0  0  0  0  0  0
    2.8110   -3.6285    0.6239 H   0  0  0  0  0  0  0  0  0  0  0  0
    3.2075   -1.6259   -0.0359 C   0  0  0  0  0  0  0  0  0  0  0  0
    3.3515   -1.2838    1.0101 H   0  0  0  0  0  0  0  0  0  0  0  0
    4.2199   -1.8516   -0.4545 H   0  0  0  0  0  0  0  0  0  0  0  0
    2.4650   -0.7811   -2.2066 C   0  0  0  0  0  0  0  0  0  0  0  0
    2.0646    0.1036   -2.7348 H   0  0  0  0  0  0  0  0  0  0  0  0
    1.7596   -1.6175   -2.3569 H   0  0  0  0  0  0  0  0  0  0  0  0
    3.4444   -1.0546   -2.6670 H   0  0  0  0  0  0  0  0  0  0  0  0
    3.4935    0.7046   -0.6121 C   0  0  0  0  0  0  0  0  0  0  0  0
    3.5655    0.9649    0.4611 H   0  0  0  0  0  0  0  0  0  0  0  0
    3.0602    1.5674   -1.1516 H   0  0  0  0  0  0  0  0  0  0  0  0
    4.5127    0.5078   -1.0204 H   0  0  0  0  0  0  0  0  0  0  0  0
  1 32  1  0  0  0  0
  1 24  1  0  0  0  0
  2 50  1  0  0  0  0
  2 43  1  0  0  0  0
  3  4  2  0  0  0  0
  3  7  1  0  0  0  0
  4  5  1  0  0  0  0
  5  6  2  0  0  0  0
  5 16  1  0  0  0  0
  6 20  1  0  0  0  0
  7  1  1  1  0  0  0
  7  6  1  0  0  0  0
  8 10  1  0  0  0  0
  8  3  1  0  0  0  0
  9  8  1  0  0  0  0
 11  8  1  0  0  0  0
 12 13  1  0  0  0  0
 12  4  1  0  0  0  0
 14 12  1  0  0  0  0
 15 12  1  0  0  0  0
 16 18  1  0  0  0  0
 17 16  1  0  0  0  0
 19 16  1  0  0  0  0
 20 23  1  0  0  0  0
 20 21  1  0  0  0  0
 22 20  1  0  0  0  0
 24 27  1  0  0  0  0
 24 26  1  0  0  0  0
 25 24  1  0  0  0  0
 28 30  1  0  0  0  0
 28  1  1  0  0  0  0
 29 28  1  0  0  0  0
 31 28  1  0  0  0  0
 32 38  1  0  0  0  0
 33 32  2  0  0  0  0
 33 35  1  0  0  0  0
 34 33  1  0  0  0  0
 35 36  2  0  0  0  0
 36 37  1  0  0  0  0
 38 36  1  0  0  0  0
 38 39  1  0  0  0  0
 40 43  1  0  0  0  0
 40 35  1  0  0  0  0
 40 42  1  0  0  0  0
 41 40  1  0  0  0  0
 43 44  1  0  0  0  0
 45 43  1  0  0  0  0
 46  2  1  0  0  0  0
 47 46  1  0  0  0  0
 48 46  1  0  0  0  0
 49 46  1  0  0  0  0
 50 51  1  0  0  0  0
 52 50  1  0  0  0  0
 53 50  1  0  0  0  0
M  END
