17,30
q = -1.0, confidence = 0.0

 30 32  0  0  0  0  0  0  0  0999 V2000
   -6.6599   -0.6751    0.0139 C   0  0  0  0  0  0  0  0  0  0  0  0
   -6.4446    0.5472   -0.6340 C   0  0  0  0  0  0  0  0  0  0  0  0
   -7.2830    1.0415   -1.1455 H   0  0  0  0  0  0  0  0  0  0  0  0
   -5.1594    1.1026   -0.6246 C   0  0  0  0  0  0  0  0  0  0  0  0
   -4.9831    2.0492   -1.1565 H   0  0  0  0  0  0  0  0  0  0  0  0
   -4.0796    0.4560    0.0214 C   0  0  0  0  0  0  0  0  0  0  0  0
   -4.3385   -0.7783    0.6630 C   0  0  0  0  0  0  0  0  0  0  0  0
   -3.5229   -1.2912    1.1936 H   0  0  0  0  0  0  0  0  0  0  0  0
   -5.6178   -1.3465    0.6650 C   0  0  0  0  0  0  0  0  0  0  0  0
   -5.8248   -2.2994    1.1728 H   0  0  0  0  0  0  0  0  0  0  0  0
   -2.7194    1.0474    0.0258 C   0  0  0  0  0  0  0  0  0  0  0  0
   -2.5427    2.4557    0.0491 C   0  0  0  0  0  0  0  0  0  0  0  0
   -3.4224    3.1141    0.0943 H   0  0  0  0  0  0  0  0  0  0  0  0
   -1.2641    3.0146    0.0565 C   0  0  0  0  0  3  0  0  0  0  0  0
   -1.1542    4.1101    0.0856 H   0  0  0  0  0  0  0  0  0  0  0  0
   -0.1268    2.1798    0.0418 C   0  0  0  0  0  0  0  0  0  0  0  0
   -0.2780    0.7578    0.0186 C   0  0  0  0  0  3  0  0  0  0  0  0
   -1.5743    0.2189    0.0089 C   0  0  0  0  0  0  0  0  0  0  0  0
   -1.6869   -0.8747   -0.0391 H   0  0  0  0  0  0  0  0  0  0  0  0
    1.2552    2.6383    0.0490 C   0  0  0  0  0  0  0  0  0  0  0  0
    1.7103    3.9709    0.0745 C   0  0  0  0  0  0  0  0  0  0  0  0
    0.9735    4.7856    0.0912 H   0  0  0  0  0  0  0  0  0  0  0  0
    3.0800    4.2456    0.0786 C   0  0  0  0  0  0  0  0  0  0  0  0
    3.4360    5.2864    0.0988 H   0  0  0  0  0  0  0  0  0  0  0  0
    3.9948    3.1775    0.0562 C   0  0  0  0  0  0  0  0  0  0  0  0
    5.0802    3.3480    0.0582 H   0  0  0  0  0  0  0  0  0  0  0  0
    3.5032    1.8716    0.0310 C   0  0  0  0  0  0  0  0  0  0  0  0
    4.1516    0.9822    0.0122 H   0  0  0  0  0  0  0  0  0  0  0  0
   -7.8934   -1.2156    0.0107 F   0  0  0  0  0  0  0  0  0  0  0  0
    2.1764    1.6097    0.0277 N   0  0  0  0  0  2  0  0  0  0  0  0
  1  9  1  0  0  0  0
  2  4  1  0  0  0  0
  2  1  2  0  0  0  0
  3  2  1  0  0  0  0
  4  6  2  0  0  0  0
  5  4  1  0  0  0  0
  6 11  1  0  0  0  0
  6  7  1  0  0  0  0
  7  9  2  0  0  0  0
  7  8  1  0  0  0  0
  9 10  1  0  0  0  0
 11 12  2  0  0  0  0
 12 14  1  0  0  0  0
 12 13  1  0  0  0  0
 14 15  1  0  0  0  0
 16 20  2  0  0  0  0
 16 14  1  0  0  0  0
 17 16  1  0  0  0  0
 18 17  2  0  0  0  0
 18 11  1  0  0  0  0
 19 18  1  0  0  0  0
 20 21  1  0  0  0  0
 21 23  2  0  0  0  0
 21 22  1  0  0  0  0
 23 24  1  0  0  0  0
 25 26  1  0  0  0  0
 25 23  1  0  0  0  0
 27 25  2  0  0  0  0
 28 27  1  0  0  0  0
 29  1  1  0  0  0  0
 30 27  1  0  0  0  0
 30 20  1  0  0  0  0
M  END
