3,4
q = 0.0, confidence = 1.0

 24 25  0  0  1  0  0  0  0  0999 V2000
   -1.6887    1.8650    0.5552 N   0  0  0  0  0  0  0  0  0  0  0  0
    0.4553    1.8963    0.2892 N   0  0  0  0  0  0  0  0  0  0  0  0
    1.7147   -0.0180    0.2160 N   0  0  0  0  0  2  0  0  0  0  0  0
   -0.6135    1.0343    0.4888 C   0  0  0  0  0  2  0  0  0  0  0  0
   -1.3134    3.1969    0.3718 C   0  0  0  0  0  0  0  0  0  0  0  0
   -2.0441    4.0111    0.3805 H   0  0  0  0  0  0  0  0  0  0  0  0
    0.0427    3.2254    0.2070 C   0  0  0  0  0  0  0  0  0  0  0  0
    0.7255    4.0631    0.0474 H   0  0  0  0  0  0  0  0  0  0  0  0
    1.7234    1.3358    0.1309 C   0  0  1  0  0  3  0  0  0  0  0  0
    2.8857    2.0869   -0.0970 C   0  0  0  0  0  0  0  0  0  0  0  0
    2.8406    3.1820   -0.1608 H   0  0  0  0  0  0  0  0  0  0  0  0
    4.0951    1.4011   -0.2452 C   0  0  0  0  0  0  0  0  0  0  0  0
    5.0261    1.9570   -0.4280 H   0  0  0  0  0  0  0  0  0  0  0  0
    4.0980   -0.0004   -0.1601 C   0  0  0  0  0  0  0  0  0  0  0  0
    5.0240   -0.5802   -0.2742 H   0  0  0  0  0  0  0  0  0  0  0  0
    2.8915   -0.6658    0.0705 C   0  0  0  0  0  0  0  0  0  0  0  0
    2.8496   -1.7619    0.1345 H   0  0  0  0  0  0  0  0  0  0  0  0
   -3.0840    1.4264    0.6464 C   0  0  0  0  0  0  0  0  0  0  0  0
   -3.6389    2.2130    1.1974 H   0  0  0  0  0  0  0  0  0  0  0  0
   -3.1001    0.5163    1.2721 H   0  0  0  0  0  0  0  0  0  0  0  0
   -3.6948    1.1598   -0.7267 C   0  0  0  0  0  0  0  0  0  0  0  0
   -4.7201    0.7570   -0.6112 H   0  0  0  0  0  0  0  0  0  0  0  0
   -3.0826    0.4242   -1.2868 H   0  0  0  0  0  0  0  0  0  0  0  0
   -3.7507    2.0897   -1.3279 H   0  0  0  0  0  0  0  0  0  0  0  0
  1 18  1  0  0  0  0
  2  4  1  0  0  0  0
  4  1  1  0  0  0  0
  5  6  1  0  0  0  0
  5  1  1  0  0  0  0
  7  2  1  0  0  0  0
  7  5  2  0  0  0  0
  8  7  1  0  0  0  0
  9  3  1  0  0  0  0
  9  2  1  6  0  0  0
 10  9  1  0  0  0  0
 11 10  1  0  0  0  0
 12 14  1  0  0  0  0
 12 10  2  0  0  0  0
 13 12  1  0  0  0  0
 14 16  2  0  0  0  0
 15 14  1  0  0  0  0
 16 17  1  0  0  0  0
 16  3  1  0  0  0  0
 18 19  1  0  0  0  0
 18 20  1  0  0  0  0
 21 22  1  0  0  0  0
 21 18  1  0  0  0  0
 23 21  1  0  0  0  0
 24 21  1  0  0  0  0
M  END
