1,5
q = -1.0, confidence = 0.0

 20 19  0  0  1  0  0  0  0  0999 V2000
   -0.2069    1.2392   -0.8979 N   0  0  0  0  0  2  0  0  0  0  0  0
   -0.1124    1.4561   -1.8926 H   0  0  0  0  0  0  0  0  0  0  0  0
    0.7653    1.6655   -0.1133 C   0  0  1  0  0  3  0  0  0  0  0  0
    0.6351    1.3174    1.1990 N   0  0  0  0  0  0  0  0  0  0  0  0
   -0.4785    0.4781    1.4949 C   0  0  0  0  0  2  0  0  0  0  0  0
    1.9013    2.4581   -0.6558 C   0  0  0  0  0  0  0  0  0  0  0  0
    1.5402    3.5797   -1.5982 C   0  0  0  0  0  0  0  0  0  0  0  0
    0.8465    4.3009   -1.1188 H   0  0  0  0  0  0  0  0  0  0  0  0
    1.0320    3.2090   -2.5146 H   0  0  0  0  0  0  0  0  0  0  0  0
    2.4445    4.1257   -1.9245 H   0  0  0  0  0  0  0  0  0  0  0  0
    3.1771    2.1282   -0.3549 C   0  0  0  0  0  0  0  0  0  0  0  0
    3.4229    1.2795    0.2993 H   0  0  0  0  0  0  0  0  0  0  0  0
    4.0175    2.6914   -0.7895 H   0  0  0  0  0  0  0  0  0  0  0  0
    1.4936    1.8011    2.2728 C   0  0  0  0  0  0  0  0  0  0  0  0
    2.1355    0.9845    2.6641 H   0  0  0  0  0  0  0  0  0  0  0  0
    0.8611    2.1803    3.0991 H   0  0  0  0  0  0  0  0  0  0  0  0
    2.1350    2.6190    1.9069 H   0  0  0  0  0  0  0  0  0  0  0  0
   -0.6815   -0.0063    2.7460 C   0  0  0  0  0  3  0  0  0  0  0  0
   -0.0094    0.2005    3.5934 H   0  0  0  0  0  0  0  0  0  0  0  0
   -1.5602   -0.6259    2.9677 H   0  0  0  0  0  0  0  0  0  0  0  0
  2  1  1  0  0  0  0
  3  1  1  6  0  0  0
  3  4  1  0  0  0  0
  4  5  1  0  0  0  0
  4 14  1  0  0  0  0
  5 18  1  0  0  0  0
  6 11  2  0  0  0  0
  6  3  1  0  0  0  0
  7  8  1  0  0  0  0
  7  6  1  0  0  0  0
  9  7  1  0  0  0  0
 10  7  1  0  0  0  0
 11 12  1  0  0  0  0
 13 11  1  0  0  0  0
 14 15  1  0  0  0  0
 14 16  1  0  0  0  0
 17 14  1  0  0  0  0
 18 20  1  0  0  0  0
 18 19  1  0  0  0  0
M  END
