3,8
q = 0.0, confidence = 1.0

 26 27  0  0  1  0  0  0  0  0999 V2000
   -0.1837    2.3399    0.3792 N   0  0  0  0  0  0  0  0  0  0  0  0
   -2.1680    1.4882    0.2508 N   0  0  0  0  0  0  0  0  0  0  0  0
   -0.8607    1.1423    0.2336 C   0  0  0  0  0  2  0  0  0  0  0  0
   -1.0601    3.4173    0.4958 C   0  0  0  0  0  0  0  0  0  0  0  0
   -0.7017    4.4433    0.6152 H   0  0  0  0  0  0  0  0  0  0  0  0
   -2.3103    2.8732    0.4147 C   0  0  0  0  0  0  0  0  0  0  0  0
   -3.2912    3.3545    0.4610 H   0  0  0  0  0  0  0  0  0  0  0  0
    1.6998    1.1065   -0.0645 N   0  0  0  0  0  2  0  0  0  0  0  0
    1.1966    2.3435    0.1934 C   0  0  1  0  0  3  0  0  0  0  0  0
   -3.2811    0.5700   -0.0764 C   0  0  0  0  0  0  0  0  0  0  0  0
   -2.8168   -0.4308   -0.0175 H   0  0  0  0  0  0  0  0  0  0  0  0
    1.8693    3.4840    0.2388 N   0  0  0  0  0  0  0  0  0  0  0  0
    3.1842    3.4108   -0.0207 C   0  0  0  0  0  0  0  0  0  0  0  0
    3.7506    4.3560    0.0230 H   0  0  0  0  0  0  0  0  0  0  0  0
   -4.4047    0.6774    0.9530 C   0  0  0  0  0  0  0  0  0  0  0  0
   -4.0292    0.5427    1.9863 H   0  0  0  0  0  0  0  0  0  0  0  0
   -5.1629   -0.1048    0.7550 H   0  0  0  0  0  0  0  0  0  0  0  0
   -4.9265    1.6540    0.8953 H   0  0  0  0  0  0  0  0  0  0  0  0
    3.8105    2.1962   -0.3474 C   0  0  0  0  0  0  0  0  0  0  0  0
    4.8807    2.1430   -0.5881 H   0  0  0  0  0  0  0  0  0  0  0  0
   -3.7375    0.8033   -1.5186 C   0  0  0  0  0  0  0  0  0  0  0  0
   -4.1812    1.8118   -1.6445 H   0  0  0  0  0  0  0  0  0  0  0  0
   -4.5114    0.0585   -1.7891 H   0  0  0  0  0  0  0  0  0  0  0  0
   -2.8820    0.6956   -2.2140 H   0  0  0  0  0  0  0  0  0  0  0  0
    3.0141    1.0476   -0.3637 C   0  0  0  0  0  0  0  0  0  0  0  0
    3.4152    0.0584   -0.6231 H   0  0  0  0  0  0  0  0  0  0  0  0
  1  4  1  0  0  0  0
  2  6  1  0  0  0  0
  3  2  1  0  0  0  0
  3  1  1  0  0  0  0
  4  5  1  0  0  0  0
  6  7  1  0  0  0  0
  6  4  2  0  0  0  0
  8  9  1  0  0  0  0
  9 12  1  0  0  0  0
  9  1  1  6  0  0  0
 10 11  1  0  0  0  0
 10  2  1  0  0  0  0
 10 15  1  0  0  0  0
 13 14  1  0  0  0  0
 13 12  2  0  0  0  0
 15 16  1  0  0  0  0
 17 15  1  0  0  0  0
 18 15  1  0  0  0  0
 19 13  1  0  0  0  0
 20 19  1  0  0  0  0
 21 10  1  0  0  0  0
 22 21  1  0  0  0  0
 23 21  1  0  0  0  0
 24 21  1  0  0  0  0
 25 19  2  0  0  0  0
 25  8  1  0  0  0  0
 26 25  1  0  0  0  0
M  END
