1,2
q = -1.0, confidence = 0.0

 37 39  0  0  0  0  0  0  0  0999 V2000
    0.1313    1.8686   -0.0817 N   0  0  0  0  0  2  0  0  0  0  0  0
   -2.2025    0.5310   -0.0765 C   0  0  0  0  0  2  0  0  0  0  0  0
   -3.4437   -0.1229   -0.0627 C   0  0  0  0  0  0  0  0  0  0  0  0
   -3.4765   -1.2221   -0.0320 H   0  0  0  0  0  0  0  0  0  0  0  0
   -4.6759    0.5792   -0.0499 C   0  0  0  0  0  0  0  0  0  0  0  0
   -5.9633   -0.1589   -0.0401 C   0  0  0  0  0  0  0  0  0  0  0  0
   -6.1003   -1.3930   -0.7182 C   0  0  0  0  0  0  0  0  0  0  0  0
   -5.2444   -1.7951   -1.2803 H   0  0  0  0  0  0  0  0  0  0  0  0
   -7.3152   -2.0910   -0.7098 C   0  0  0  0  0  0  0  0  0  0  0  0
   -7.3986   -3.0448   -1.2531 H   0  0  0  0  0  0  0  0  0  0  0  0
   -8.4246   -1.5745   -0.0213 C   0  0  0  0  0  0  0  0  0  0  0  0
   -9.3786   -2.1234   -0.0139 H   0  0  0  0  0  0  0  0  0  0  0  0
   -8.3056   -0.3517    0.6587 C   0  0  0  0  0  0  0  0  0  0  0  0
   -9.1654    0.0584    1.2105 H   0  0  0  0  0  0  0  0  0  0  0  0
   -7.0909    0.3468    0.6485 C   0  0  0  0  0  0  0  0  0  0  0  0
   -7.0018    1.2903    1.2077 H   0  0  0  0  0  0  0  0  0  0  0  0
   -4.6581    1.9953   -0.0464 C   0  0  0  0  0  0  0  0  0  0  0  0
   -5.6051    2.5543   -0.0671 H   0  0  0  0  0  0  0  0  0  0  0  0
   -3.4423    2.6812   -0.0545 C   0  0  0  0  0  0  0  0  0  0  0  0
   -3.4276    3.7833   -0.0599 H   0  0  0  0  0  0  0  0  0  0  0  0
   -2.2281    1.9621   -0.0695 C   0  0  0  0  0  0  0  0  0  0  0  0
   -0.9378    2.6154   -0.0789 C   0  0  0  0  0  0  0  0  0  0  0  0
   -0.8606    3.7192   -0.0863 H   0  0  0  0  0  0  0  0  0  0  0  0
    1.4721    2.4552   -0.1091 C   0  0  0  0  0  0  0  0  0  0  0  0
    1.9816    2.0491   -1.0075 H   0  0  0  0  0  0  0  0  0  0  0  0
    2.0311    2.0386    0.7541 H   0  0  0  0  0  0  0  0  0  0  0  0
    1.5524    3.9625   -0.1022 C   0  0  0  0  0  0  0  0  0  0  0  0
    1.6322    4.6701    1.1139 C   0  0  0  0  0  0  0  0  0  0  0  0
    1.6631    4.1084    2.0611 H   0  0  0  0  0  0  0  0  0  0  0  0
    1.6758    6.0722    1.1262 C   0  0  0  0  0  0  0  0  0  0  0  0
    1.7424    6.6108    2.0839 H   0  0  0  0  0  0  0  0  0  0  0  0
    1.6387    6.7872   -0.0818 C   0  0  0  0  0  0  0  0  0  0  0  0
    1.6749    7.8872   -0.0740 H   0  0  0  0  0  0  0  0  0  0  0  0
    1.5592    6.0934   -1.3001 C   0  0  0  0  0  0  0  0  0  0  0  0
    1.5339    6.6486   -2.2503 H   0  0  0  0  0  0  0  0  0  0  0  0
    1.5160    4.6913   -1.3080 C   0  0  0  0  0  0  0  0  0  0  0  0
    1.4529    4.1469   -2.2639 H   0  0  0  0  0  0  0  0  0  0  0  0
  1 22  1  0  0  0  0
  2 21  1  0  0  0  0
  2  3  1  0  0  0  0
  3  5  2  0  0  0  0
  3  4  1  0  0  0  0
  5 17  1  0  0  0  0
  5  6  1  0  0  0  0
  6 15  1  0  0  0  0
  7  9  1  0  0  0  0
  7  6  2  0  0  0  0
  8  7  1  0  0  0  0
  9 11  2  0  0  0  0
 10  9  1  0  0  0  0
 11 12  1  0  0  0  0
 11 13  1  0  0  0  0
 13 14  1  0  0  0  0
 15 13  2  0  0  0  0
 15 16  1  0  0  0  0
 18 17  1  0  0  0  0
 19 17  2  0  0  0  0
 20 19  1  0  0  0  0
 21 19  1  0  0  0  0
 22 21  2  0  0  0  0
 23 22  1  0  0  0  0
 24 27  1  0  0  0  0
 24  1  1  0  0  0  0
 24 26  1  0  0  0  0
 25 24  1  0  0  0  0
 27 28  1  0  0  0  0
 28 30  2  0  0  0  0
 28 29  1  0  0  0  0
 30 31  1  0  0  0  0
 32 33  1  0  0  0  0
 32 30  1  0  0  0  0
 34 32  2  0  0  0  0
 35 34  1  0  0  0  0
 36 34  1  0  0  0  0
 36 27  2  0  0  0  0
 37 36  1  0  0  0  0
M  END
