2,3
q = -1.0, confidence = 0.002

 33 35  0  0  1  0  0  0  0  0999 V2000
   -0.1929    4.6854    0.7438 S   0  0  0  0  0  0  0  0  0  0  0  0
   -1.4031    0.8821   -1.0135 N   0  0  0  0  0  2  0  0  0  0  0  0
   -0.5382    3.1240    0.0948 C   0  0  0  0  0  2  0  0  0  0  0  0
   -1.8385    3.1290   -0.4539 C   0  0  0  0  0  0  0  0  0  0  0  0
   -2.5274    4.3840   -0.3392 C   0  0  0  0  0  0  0  0  0  0  0  0
   -3.5462    4.5735   -0.7065 H   0  0  0  0  0  0  0  0  0  0  0  0
   -1.7538    5.3348    0.2907 C   0  0  0  0  0  0  0  0  0  0  0  0
   -2.0076    6.3782    0.5159 H   0  0  0  0  0  0  0  0  0  0  0  0
   -2.2538    1.8770   -1.0262 C   0  0  0  0  0  0  0  0  0  0  0  0
   -3.2662    1.7417   -1.4552 H   0  0  0  0  0  0  0  0  0  0  0  0
   -1.7946   -0.3997   -1.6340 C   0  0  2  0  0  0  0  0  0  0  0  0
   -1.0890   -1.1487   -1.2317 H   0  0  0  0  0  0  0  0  0  0  0  0
   -1.5505   -0.3262   -3.1427 C   0  0  0  0  0  0  0  0  0  0  0  0
   -0.5045   -0.0114   -3.3249 H   0  0  0  0  0  0  0  0  0  0  0  0
   -2.2131    0.4187   -3.6285 H   0  0  0  0  0  0  0  0  0  0  0  0
   -1.7059   -1.3135   -3.6195 H   0  0  0  0  0  0  0  0  0  0  0  0
   -3.1841   -0.8609   -1.2107 C   0  0  0  0  0  0  0  0  0  0  0  0
   -4.2285   -1.0035   -2.1178 C   0  0  0  0  0  0  0  0  0  0  0  0
   -4.0671   -0.7582   -3.1772 H   0  0  0  0  0  0  0  0  0  0  0  0
   -5.5067   -1.4752   -1.7141 C   0  0  0  0  0  0  0  0  0  0  0  0
   -6.3085   -1.5721   -2.4618 H   0  0  0  0  0  0  0  0  0  0  0  0
   -5.7378   -1.8195   -0.3941 C   0  0  0  0  0  0  0  0  0  0  0  0
   -6.7221   -2.1955   -0.0742 H   0  0  0  0  0  0  0  0  0  0  0  0
   -4.7012   -1.6943    0.5780 C   0  0  0  0  0  0  0  0  0  0  0  0
   -4.9145   -2.0539    1.9417 C   0  0  0  0  0  0  0  0  0  0  0  0
   -5.9051   -2.4356    2.2350 H   0  0  0  0  0  0  0  0  0  0  0  0
   -3.9028   -1.9274    2.8813 C   0  0  0  0  0  0  0  0  0  0  0  0
   -4.0821   -2.2099    3.9298 H   0  0  0  0  0  0  0  0  0  0  0  0
   -2.6352   -1.4223    2.4906 C   0  0  0  0  0  0  0  0  0  0  0  0
   -1.8343   -1.3109    3.2378 H   0  0  0  0  0  0  0  0  0  0  0  0
   -2.3959   -1.0615    1.1722 C   0  0  0  0  0  0  0  0  0  0  0  0
   -1.4176   -0.6385    0.8990 H   0  0  0  0  0  0  0  0  0  0  0  0
   -3.4081   -1.1955    0.1740 C   0  0  0  0  0  0  0  0  0  0  0  0
  3  1  1  0  0  0  0
  4  5  1  0  0  0  0
  4  3  1  0  0  0  0
  5  7  2  0  0  0  0
  6  5  1  0  0  0  0
  7  8  1  0  0  0  0
  7  1  1  0  0  0  0
  9  2  1  0  0  0  0
  9  4  2  0  0  0  0
 10  9  1  0  0  0  0
 11 12  1  1  0  0  0
 11 17  1  0  0  0  0
 11  2  1  0  0  0  0
 13 11  1  0  0  0  0
 14 13  1  0  0  0  0
 15 13  1  0  0  0  0
 16 13  1  0  0  0  0
 17 33  1  0  0  0  0
 18 20  1  0  0  0  0
 18 17  2  0  0  0  0
 19 18  1  0  0  0  0
 20 22  2  0  0  0  0
 21 20  1  0  0  0  0
 22 23  1  0  0  0  0
 22 24  1  0  0  0  0
 24 25  1  0  0  0  0
 25 26  1  0  0  0  0
 25 27  2  0  0  0  0
 27 28  1  0  0  0  0
 29 27  1  0  0  0  0
 29 30  1  0  0  0  0
 31 29  2  0  0  0  0
 32 31  1  0  0  0  0
 33 24  2  0  0  0  0
 33 31  1  0  0  0  0
M  END
