10,11
q = -1.0, confidence = 0.018

 29 30  0  0  1  0  0  0  0  0999 V2000
    1.8756   -0.4662   -2.4486 F   0  0  0  0  0  0  0  0  0  0  0  0
    1.8000   -2.5421   -1.7566 F   0  0  0  0  0  0  0  0  0  0  0  0
    1.4929   -2.0723   -3.8555 F   0  0  0  0  0  0  0  0  0  0  0  0
   -3.4604   -4.1796   -3.8510 F   0  0  0  0  0  0  0  0  0  0  0  0
   -2.8336   -2.8058   -5.4217 F   0  0  0  0  0  0  0  0  0  0  0  0
   -4.6088   -2.3628   -4.2202 F   0  0  0  0  0  0  0  0  0  0  0  0
   -5.0030    3.2140    2.9943 F   0  0  0  0  0  0  0  0  0  0  0  0
   -2.9623    3.0905    3.7746 F   0  0  0  0  0  0  0  0  0  0  0  0
   -4.4386    1.5754    4.3146 F   0  0  0  0  0  0  0  0  0  0  0  0
   -1.8918    0.5220    0.7744 N   0  0  0  0  0  2  0  0  0  0  0  0
   -0.8058   -0.8633   -1.2007 C   0  0  0  0  0  3  0  0  0  0  0  0
   -0.2691   -1.5223   -2.3471 C   0  0  0  0  0  0  0  0  0  0  0  0
   -1.0952   -2.1362   -3.3040 C   0  0  0  0  0  0  0  0  0  0  0  0
   -0.6391   -2.6272   -4.1737 H   0  0  0  0  0  0  0  0  0  0  0  0
   -2.4921   -2.1249   -3.1770 C   0  0  0  0  0  0  0  0  0  0  0  0
   -3.0668   -1.4544   -2.0958 C   0  0  0  0  0  0  0  0  0  0  0  0
   -4.1622   -1.4108   -2.0173 H   0  0  0  0  0  0  0  0  0  0  0  0
   -2.2490   -0.8289   -1.1397 C   0  0  0  0  0  0  0  0  0  0  0  0
   -2.8256   -0.0521   -0.0439 C   0  0  2  0  0  3  0  0  0  0  0  0
   -4.1951    0.1664    0.2048 C   0  0  0  0  0  0  0  0  0  0  0  0
   -4.9477   -0.2856   -0.4540 H   0  0  0  0  0  0  0  0  0  0  0  0
   -4.5890    0.9605    1.2795 C   0  0  0  0  0  0  0  0  0  0  0  0
   -5.6543    1.1474    1.4779 H   0  0  0  0  0  0  0  0  0  0  0  0
   -3.6031    1.5329    2.1057 C   0  0  0  0  0  0  0  0  0  0  0  0
   -2.2592    1.2918    1.8203 C   0  0  0  0  0  0  0  0  0  0  0  0
   -1.4388    1.7130    2.4195 H   0  0  0  0  0  0  0  0  0  0  0  0
    1.2195   -1.6381   -2.6014 C   0  0  0  0  0  0  0  0  0  0  0  0
   -3.3496   -2.8632   -4.1722 C   0  0  0  0  0  0  0  0  0  0  0  0
   -3.9952    2.3641    3.3045 C   0  0  0  0  0  0  0  0  0  0  0  0
  3 27  1  0  0  0  0
  5 28  1  0  0  0  0
  6 28  1  0  0  0  0
  7 29  1  0  0  0  0
 10 25  1  0  0  0  0
 11 18  1  0  0  0  0
 12 11  2  0  0  0  0
 13 15  2  0  0  0  0
 13 12  1  0  0  0  0
 14 13  1  0  0  0  0
 15 16  1  0  0  0  0
 16 17  1  0  0  0  0
 16 18  2  0  0  0  0
 19 18  1  6  0  0  0
 19 20  1  0  0  0  0
 19 10  1  0  0  0  0
 20 22  2  0  0  0  0
 21 20  1  0  0  0  0
 22 23  1  0  0  0  0
 22 24  1  0  0  0  0
 24 29  1  0  0  0  0
 25 24  2  0  0  0  0
 25 26  1  0  0  0  0
 27  1  1  0  0  0  0
 27 12  1  0  0  0  0
 27  2  1  0  0  0  0
 28  4  1  0  0  0  0
 28 15  1  0  0  0  0
 29  8  1  0  0  0  0
 29  9  1  0  0  0  0
M  END
