3,19
q = -1.0, confidence = 0.004

 35 38  0  0  0  0  0  0  0  0999 V2000
   -0.7132    3.7992   -0.1993 S   0  0  0  0  0  0  0  0  0  0  0  0
   -7.2050    0.2171    0.5024 O   0  0  0  0  0  0  0  0  0  0  0  0
   -0.2490   -0.2075   -0.0822 N   0  0  0  0  0  2  0  0  0  0  0  0
   -2.3360    1.0050   -0.0146 N   0  0  0  0  0  0  0  0  0  0  0  0
   -4.3906   -0.0184    0.2395 N   0  0  0  0  0  0  0  0  0  0  0  0
   -0.9947    0.9513   -0.0915 C   0  0  0  0  0  0  0  0  0  0  0  0
   -3.0385   -0.1245    0.0016 C   0  0  0  0  0  0  0  0  0  0  0  0
   -2.3856   -1.3911   -0.2714 C   0  0  0  0  0  0  0  0  0  0  0  0
   -3.0687   -2.5744   -0.6565 C   0  0  0  0  0  0  0  0  0  0  0  0
   -4.1537   -2.5353   -0.8234 H   0  0  0  0  0  0  0  0  0  0  0  0
   -2.3792   -3.7606   -0.8808 C   0  0  0  0  0  0  0  0  0  0  0  0
   -2.9208   -4.6660   -1.1917 H   0  0  0  0  0  0  0  0  0  0  0  0
   -0.9748   -3.7845   -0.7174 C   0  0  0  0  0  0  0  0  0  0  0  0
   -0.4237   -4.7259   -0.8663 H   0  0  0  0  0  0  0  0  0  0  0  0
   -0.2659   -2.6286   -0.4124 C   0  0  0  0  0  0  0  0  0  0  0  0
    0.8274   -2.6451   -0.3156 H   0  0  0  0  0  0  0  0  0  0  0  0
   -0.9446   -1.3921   -0.2323 C   0  0  0  0  0  0  0  0  0  0  0  0
   -0.1981    2.1355   -0.1439 C   0  0  0  0  0  0  0  0  0  0  0  0
    1.1924    1.9841   -0.1495 C   0  0  0  0  0  2  0  0  0  0  0  0
    1.8493    3.2517   -0.2092 C   0  0  0  0  0  0  0  0  0  0  0  0
    2.9398    3.3792   -0.2216 H   0  0  0  0  0  0  0  0  0  0  0  0
    0.9486    4.3062   -0.2433 C   0  0  0  0  0  0  0  0  0  0  0  0
    1.1739    5.3798   -0.2941 H   0  0  0  0  0  0  0  0  0  0  0  0
   -5.1552   -0.9694    1.0495 C   0  0  0  0  0  0  0  0  0  0  0  0
   -4.6680   -1.9590    1.0636 H   0  0  0  0  0  0  0  0  0  0  0  0
   -5.1868   -0.5941    2.1006 H   0  0  0  0  0  0  0  0  0  0  0  0
   -6.5869   -1.0570    0.5222 C   0  0  0  0  0  0  0  0  0  0  0  0
   -7.2011   -1.7040    1.1800 H   0  0  0  0  0  0  0  0  0  0  0  0
   -6.5759   -1.5058   -0.5037 H   0  0  0  0  0  0  0  0  0  0  0  0
   -6.4637    1.1359   -0.2866 C   0  0  0  0  0  0  0  0  0  0  0  0
   -6.9986    2.1050   -0.2359 H   0  0  0  0  0  0  0  0  0  0  0  0
   -6.4405    0.8016   -1.3538 H   0  0  0  0  0  0  0  0  0  0  0  0
   -5.0276    1.2985    0.2139 C   0  0  0  0  0  0  0  0  0  0  0  0
   -5.0280    1.7478    1.2346 H   0  0  0  0  0  0  0  0  0  0  0  0
   -4.4393    1.9678   -0.4399 H   0  0  0  0  0  0  0  0  0  0  0  0
  1 18  1  0  0  0  0
  2 27  1  0  0  0  0
  4  7  2  0  0  0  0
  5 24  1  0  0  0  0
  6  3  1  0  0  0  0
  6  4  1  0  0  0  0
  7  5  1  0  0  0  0
  8 17  1  0  0  0  0
  8  7  1  0  0  0  0
  9  8  2  0  0  0  0
 10  9  1  0  0  0  0
 11 13  2  0  0  0  0
 11  9  1  0  0  0  0
 12 11  1  0  0  0  0
 13 15  1  0  0  0  0
 14 13  1  0  0  0  0
 15 16  1  0  0  0  0
 15 17  2  0  0  0  0
 17  3  1  0  0  0  0
 18  6  2  0  0  0  0
 19 18  1  0  0  0  0
 20 19  1  0  0  0  0
 21 20  1  0  0  0  0
 22 20  2  0  0  0  0
 22  1  1  0  0  0  0
 23 22  1  0  0  0  0
 24 25  1  0  0  0  0
 24 26  1  0  0  0  0
 27 24  1  0  0  0  0
 27 28  1  0  0  0  0
 29 27  1  0  0  0  0
 30 31  1  0  0  0  0
 30 33  1  0  0  0  0
 30  2  1  0  0  0  0
 32 30  1  0  0  0  0
 33  5  1  0  0  0  0
 33 34  1  0  0  0  0
 35 33  1  0  0  0  0
M  END
