1,2
q = -1.0, confidence = 0.0

 26 27  0  0  1  0  0  0  0  0999 V2000
    0.6965    1.5648   -0.2212 N   0  0  0  0  0  2  0  0  0  0  0  0
    0.6160   -0.7505   -1.6703 C   0  0  0  0  0  3  0  0  0  0  0  0
    0.8017    0.1588   -2.2768 H   0  0  0  0  0  0  0  0  0  0  0  0
    1.8098   -1.0937   -0.8642 C   0  0  0  0  0  0  0  0  0  0  0  0
    2.3134   -2.4154   -0.7741 C   0  0  0  0  0  0  0  0  0  0  0  0
    1.8193   -3.2098   -1.3507 H   0  0  0  0  0  0  0  0  0  0  0  0
    3.4404   -2.7294   -0.0014 C   0  0  0  0  0  0  0  0  0  0  0  0
    3.7962   -3.7706    0.0434 H   0  0  0  0  0  0  0  0  0  0  0  0
    4.1220   -1.7227    0.7002 C   0  0  0  0  0  0  0  0  0  0  0  0
    5.0028   -1.9620    1.3139 H   0  0  0  0  0  0  0  0  0  0  0  0
    3.6594   -0.4026    0.6132 C   0  0  0  0  0  0  0  0  0  0  0  0
    4.1719    0.3881    1.1824 H   0  0  0  0  0  0  0  0  0  0  0  0
    2.5168   -0.0744   -0.1439 C   0  0  0  0  0  0  0  0  0  0  0  0
    2.0416    1.3234   -0.1703 C   0  0  2  0  0  3  0  0  0  0  0  0
    2.9448    2.4098   -0.1283 C   0  0  0  0  0  0  0  0  0  0  0  0
    4.0234    2.2028   -0.1330 H   0  0  0  0  0  0  0  0  0  0  0  0
    2.4719    3.7241   -0.1187 C   0  0  0  0  0  0  0  0  0  0  0  0
    3.1770    4.5683   -0.0879 H   0  0  0  0  0  0  0  0  0  0  0  0
    1.0874    3.9447   -0.1787 C   0  0  0  0  0  0  0  0  0  0  0  0
    0.6621    4.9578   -0.1956 H   0  0  0  0  0  0  0  0  0  0  0  0
    0.2385    2.8383   -0.2463 C   0  0  0  0  0  0  0  0  0  0  0  0
   -0.8514    2.9378   -0.3575 H   0  0  0  0  0  0  0  0  0  0  0  0
    0.0020   -1.8263   -2.5441 C   0  0  0  0  0  0  0  0  0  0  0  0
    0.7152   -2.1825   -3.3230 H   0  0  0  0  0  0  0  0  0  0  0  0
   -0.8853   -1.4115   -3.0597 H   0  0  0  0  0  0  0  0  0  0  0  0
   -0.3242   -2.7158   -1.9698 H   0  0  0  0  0  0  0  0  0  0  0  0
  1 14  1  0  0  0  0
  2  4  1  0  0  0  0
  3  2  1  0  0  0  0
  4  5  2  0  0  0  0
  4 13  1  0  0  0  0
  5  7  1  0  0  0  0
  6  5  1  0  0  0  0
  7  8  1  0  0  0  0
  7  9  2  0  0  0  0
  9 10  1  0  0  0  0
 11  9  1  0  0  0  0
 11 12  1  0  0  0  0
 13 11  2  0  0  0  0
 14 13  1  1  0  0  0
 14 15  1  0  0  0  0
 15 17  2  0  0  0  0
 16 15  1  0  0  0  0
 17 18  1  0  0  0  0
 19 17  1  0  0  0  0
 20 19  1  0  0  0  0
 21  1  1  0  0  0  0
 21 19  2  0  0  0  0
 22 21  1  0  0  0  0
 23 26  1  0  0  0  0
 23  2  1  0  0  0  0
 24 23  1  0  0  0  0
 25 23  1  0  0  0  0
M  END
