3,34
q = -1.0, confidence = 0.006

 34 35  0  0  1  0  0  0  0  0999 V2000
    0.2004    2.8908    0.3070 C   0  0  0  0  0  0  0  0  0  0  0  0
    1.2700    2.6660    0.4087 H   0  0  0  0  0  0  0  0  0  0  0  0
   -2.5193   -0.0752   -0.2588 N   0  0  0  0  0  2  0  0  0  0  0  0
   -6.0289   -0.5164   -0.5307 O   0  0  0  0  0  0  0  0  0  0  0  0
   -3.0259    1.1384   -0.1927 C   0  0  0  0  0  0  0  0  0  0  0  0
   -3.6001   -1.0638   -0.3908 C   0  0  1  0  0  0  0  0  0  0  0  0
   -2.4935    3.6152    0.0737 C   0  0  0  0  0  3  0  0  0  0  0  0
   -3.5462    3.9078   -0.0145 H   0  0  0  0  0  0  0  0  0  0  0  0
   -3.6116   -2.0098    0.8591 C   0  0  0  0  0  0  0  0  0  0  0  0
   -2.6005   -2.4711    0.8462 H   0  0  0  0  0  0  0  0  0  0  0  0
   -4.4138    1.1408   -0.2809 N   0  0  0  0  0  0  0  0  0  0  0  0
   -2.1088    2.2590   -0.0176 C   0  0  0  0  0  0  0  0  0  0  0  0
   -4.8602   -0.1887   -0.4154 C   0  0  0  0  0  0  0  0  0  0  0  0
   -0.1834    4.2393    0.4051 C   0  0  0  0  0  0  0  0  0  0  0  0
    0.5865    5.0074    0.5790 H   0  0  0  0  0  0  0  0  0  0  0  0
   -1.5302    4.6087    0.2810 C   0  0  0  0  0  0  0  0  0  0  0  0
   -1.8322    5.6642    0.3502 H   0  0  0  0  0  0  0  0  0  0  0  0
   -4.6639   -3.1178    0.7508 C   0  0  0  0  0  0  0  0  0  0  0  0
   -4.6427   -3.7388    1.6692 H   0  0  0  0  0  0  0  0  0  0  0  0
   -4.4689   -3.7923   -0.1050 H   0  0  0  0  0  0  0  0  0  0  0  0
   -5.6853   -2.7022    0.6378 H   0  0  0  0  0  0  0  0  0  0  0  0
   -3.7652   -1.2197    2.1639 C   0  0  0  0  0  0  0  0  0  0  0  0
   -4.7694   -0.7514    2.2477 H   0  0  0  0  0  0  0  0  0  0  0  0
   -2.9961   -0.4267    2.2551 H   0  0  0  0  0  0  0  0  0  0  0  0
   -3.6471   -1.8965    3.0335 H   0  0  0  0  0  0  0  0  0  0  0  0
   -3.4862   -1.8164   -1.7265 C   0  0  0  0  0  0  0  0  0  0  0  0
   -3.3522   -1.0951   -2.5566 H   0  0  0  0  0  0  0  0  0  0  0  0
   -4.4113   -2.3939   -1.9112 H   0  0  0  0  0  0  0  0  0  0  0  0
   -2.6070   -2.4883   -1.6970 H   0  0  0  0  0  0  0  0  0  0  0  0
   -5.3566    2.2390   -0.2517 C   0  0  0  0  0  0  0  0  0  0  0  0
   -5.3105    2.7921    0.7073 H   0  0  0  0  0  0  0  0  0  0  0  0
   -6.3586    1.7783   -0.3559 H   0  0  0  0  0  0  0  0  0  0  0  0
   -5.1933    2.9422   -1.0922 H   0  0  0  0  0  0  0  0  0  0  0  0
   -0.7320    1.8596    0.0819 C   0  0  0  0  0  3  0  0  0  0  0  0
  1 14  1  0  0  0  0
  1  2  1  0  0  0  0
  3  5  1  0  0  0  0
  4 13  2  0  0  0  0
  5 12  2  0  0  0  0
  6 26  1  6  0  0  0
  6  3  1  0  0  0  0
  6  9  1  0  0  0  0
  7 16  1  0  0  0  0
  8  7  1  0  0  0  0
  9 22  1  0  0  0  0
 10  9  1  0  0  0  0
 11 30  1  0  0  0  0
 11  5  1  0  0  0  0
 12  7  1  0  0  0  0
 12 34  1  0  0  0  0
 13  6  1  0  0  0  0
 13 11  1  0  0  0  0
 14 15  1  0  0  0  0
 16 17  1  0  0  0  0
 16 14  2  0  0  0  0
 18  9  1  0  0  0  0
 18 19  1  0  0  0  0
 20 18  1  0  0  0  0
 21 18  1  0  0  0  0
 22 23  1  0  0  0  0
 22 24  1  0  0  0  0
 22 25  1  0  0  0  0
 26 29  1  0  0  0  0
 27 26  1  0  0  0  0
 28 26  1  0  0  0  0
 30 31  1  0  0  0  0
 32 30  1  0  0  0  0
 33 30  1  0  0  0  0
 34  1  2  0  0  0  0
M  END
