1,4
q = -1.0, confidence = 0.0

 28 28  0  0  0  0  0  0  0  0999 V2000
   -2.9015   -1.1075   -1.1759 N   0  0  0  0  0  0  0  0  0  0  0  0
   -3.3242   -0.4051   -1.7995 H   0  0  0  0  0  0  0  0  0  0  0  0
   -2.7002   -1.9556   -1.7339 H   0  0  0  0  0  0  0  0  0  0  0  0
   -1.5021    1.3237   -0.5020 C   0  0  0  0  0  3  0  0  0  0  0  0
   -2.5026    1.6844    0.4328 C   0  0  0  0  0  0  0  0  0  0  0  0
   -2.9493    3.0234    0.4752 C   0  0  0  0  0  0  0  0  0  0  0  0
   -3.7164    3.3064    1.2158 H   0  0  0  0  0  0  0  0  0  0  0  0
   -2.4358    3.9941   -0.3974 C   0  0  0  0  0  0  0  0  0  0  0  0
   -2.7925    5.0338   -0.3385 H   0  0  0  0  0  0  0  0  0  0  0  0
   -1.4660    3.6272   -1.3427 C   0  0  0  0  0  0  0  0  0  0  0  0
   -1.0512    4.3762   -2.0353 H   0  0  0  0  0  0  0  0  0  0  0  0
   -1.0056    2.3013   -1.3897 C   0  0  0  0  0  0  0  0  0  0  0  0
   -0.2189    2.0339   -2.1132 H   0  0  0  0  0  0  0  0  0  0  0  0
   -3.1221    0.6599    1.3605 C   0  0  0  0  0  0  0  0  0  0  0  0
   -3.5552    1.1881    2.2348 H   0  0  0  0  0  0  0  0  0  0  0  0
   -2.3314   -0.0111    1.7585 H   0  0  0  0  0  0  0  0  0  0  0  0
   -4.2468   -0.1814    0.7170 C   0  0  0  0  0  0  0  0  0  0  0  0
   -4.9400   -0.5261    1.5131 H   0  0  0  0  0  0  0  0  0  0  0  0
   -4.8509    0.4800    0.0569 H   0  0  0  0  0  0  0  0  0  0  0  0
   -3.8535   -1.4526   -0.0726 C   0  0  0  0  0  0  0  0  0  0  0  0
   -5.1237   -2.0546   -0.7018 C   0  0  0  0  0  0  0  0  0  0  0  0
   -5.6037   -1.3370   -1.3995 H   0  0  0  0  0  0  0  0  0  0  0  0
   -5.8666   -2.3126    0.0791 H   0  0  0  0  0  0  0  0  0  0  0  0
   -4.8858   -2.9817   -1.2627 H   0  0  0  0  0  0  0  0  0  0  0  0
   -3.1881   -2.4923    0.8396 C   0  0  0  0  0  0  0  0  0  0  0  0
   -2.8493   -3.3720    0.2584 H   0  0  0  0  0  0  0  0  0  0  0  0
   -3.9046   -2.8248    1.6164 H   0  0  0  0  0  0  0  0  0  0  0  0
   -2.2881   -2.0785    1.3351 H   0  0  0  0  0  0  0  0  0  0  0  0
  1 20  1  0  0  0  0
  2  1  1  0  0  0  0
  3  1  1  0  0  0  0
  4  5  1  0  0  0  0
  5  6  2  0  0  0  0
  5 14  1  0  0  0  0
  6  7  1  0  0  0  0
  8  9  1  0  0  0  0
  8  6  1  0  0  0  0
 10  8  2  0  0  0  0
 11 10  1  0  0  0  0
 12 10  1  0  0  0  0
 12  4  2  0  0  0  0
 13 12  1  0  0  0  0
 14 16  1  0  0  0  0
 14 15  1  0  0  0  0
 17 14  1  0  0  0  0
 17 18  1  0  0  0  0
 19 17  1  0  0  0  0
 20 17  1  0  0  0  0
 20 25  1  0  0  0  0
 21 20  1  0  0  0  0
 21 23  1  0  0  0  0
 22 21  1  0  0  0  0
 24 21  1  0  0  0  0
 25 28  1  0  0  0  0
 25 27  1  0  0  0  0
 26 25  1  0  0  0  0
M  END
