1,5
q = 0.0, confidence = 0.996

 27 29  0  0  1  0  0  0  0  0999 V2000
   -2.2947    0.4351   -0.1320 N   0  0  0  0  0  2  0  0  0  0  0  0
   -0.8183    2.1772   -0.0900 N   0  0  0  0  0  0  0  0  0  0  0  0
    1.2942    1.8682   -0.2826 N   0  0  0  0  0  0  0  0  0  0  0  0
    1.1226    3.2312   -0.1757 N   0  0  0  0  0  0  0  0  0  0  0  0
    0.1324    1.1733   -0.2086 C   0  0  0  0  0  2  0  0  0  0  0  0
   -2.1619    1.7883   -0.0868 C   0  0  1  0  0  3  0  0  0  0  0  0
    2.5991    1.3274   -0.5197 C   0  0  0  0  0  0  0  0  0  0  0  0
   -3.5440   -0.0822   -0.2009 C   0  0  0  0  0  0  0  0  0  0  0  0
   -3.6064   -1.1754   -0.2816 H   0  0  0  0  0  0  0  0  0  0  0  0
   -0.1690    3.4010   -0.0648 C   0  0  0  0  0  0  0  0  0  0  0  0
   -0.6631    4.3742    0.0322 H   0  0  0  0  0  0  0  0  0  0  0  0
    2.7778    0.4373   -1.5920 C   0  0  0  0  0  0  0  0  0  0  0  0
    1.9245    0.1903   -2.2438 H   0  0  0  0  0  0  0  0  0  0  0  0
   -4.6839    0.7235   -0.1820 C   0  0  0  0  0  0  0  0  0  0  0  0
   -5.6768    0.2564   -0.2346 H   0  0  0  0  0  0  0  0  0  0  0  0
   -3.2495    2.6673   -0.0651 C   0  0  0  0  0  0  0  0  0  0  0  0
   -3.0918    3.7537   -0.0313 H   0  0  0  0  0  0  0  0  0  0  0  0
   -4.5360    2.1183   -0.1066 C   0  0  0  0  0  0  0  0  0  0  0  0
   -5.4164    2.7767   -0.0941 H   0  0  0  0  0  0  0  0  0  0  0  0
    3.6603    1.7015    0.3189 C   0  0  0  0  0  0  0  0  0  0  0  0
    3.4885    2.4222    1.1309 H   0  0  0  0  0  0  0  0  0  0  0  0
    4.0501   -0.1143   -1.7998 C   0  0  0  0  0  0  0  0  0  0  0  0
    4.2095   -0.8079   -2.6388 H   0  0  0  0  0  0  0  0  0  0  0  0
    4.9278    1.1462    0.0911 C   0  0  0  0  0  0  0  0  0  0  0  0
    5.7699    1.4300    0.7392 H   0  0  0  0  0  0  0  0  0  0  0  0
    5.1216    0.2339   -0.9596 C   0  0  0  0  0  0  0  0  0  0  0  0
    6.1184   -0.1976   -1.1333 H   0  0  0  0  0  0  0  0  0  0  0  0
  1  6  1  0  0  0  0
  2 10  1  0  0  0  0
  3  5  1  0  0  0  0
  3  4  1  0  0  0  0
  4 10  2  0  0  0  0
  5  2  1  0  0  0  0
  6  2  1  6  0  0  0
  6 16  1  0  0  0  0
  7  3  1  0  0  0  0
  7 20  1  0  0  0  0
  8 14  2  0  0  0  0
  8  1  1  0  0  0  0
  9  8  1  0  0  0  0
 10 11  1  0  0  0  0
 12  7  2  0  0  0  0
 13 12  1  0  0  0  0
 14 18  1  0  0  0  0
 15 14  1  0  0  0  0
 16 17  1  0  0  0  0
 18 19  1  0  0  0  0
 18 16  2  0  0  0  0
 20 21  1  0  0  0  0
 22 12  1  0  0  0  0
 22 26  2  0  0  0  0
 23 22  1  0  0  0  0
 24 20  2  0  0  0  0
 24 25  1  0  0  0  0
 26 24  1  0  0  0  0
 27 26  1  0  0  0  0
M  END
