1,2
q = -1.0, confidence = 0.04

 50 55  0  0  1  0  0  0  0  0999 V2000
    1.6715   -1.0792    0.1488 N   0  0  0  0  0  2  0  0  0  0  0  0
   -0.5865    0.7564    0.2760 C   0  0  0  0  0  3  0  0  0  0  0  0
   -0.6832   -1.7175   -0.2033 C   0  0  0  0  0  0  0  0  0  0  0  0
   -1.4588   -2.8587   -0.4794 C   0  0  0  0  0  0  0  0  0  0  0  0
   -0.9484   -3.8215   -0.6382 H   0  0  0  0  0  0  0  0  0  0  0  0
   -2.8488   -2.8029   -0.5489 C   0  0  0  0  0  0  0  0  0  0  0  0
   -3.3989   -3.7236   -0.7804 H   0  0  0  0  0  0  0  0  0  0  0  0
   -3.5402   -1.6060   -0.2910 C   0  0  2  0  0  3  0  0  0  0  0  0
   -2.7859   -0.4232    0.0395 C   0  0  0  0  0  3  0  0  0  0  0  0
   -1.3297   -0.4452    0.0294 C   0  0  0  0  0  0  0  0  0  0  0  0
   -1.3152    1.8987    0.6406 C   0  0  0  0  0  0  0  0  0  0  0  0
   -0.7898    2.8364    0.8773 H   0  0  0  0  0  0  0  0  0  0  0  0
   -2.7154    1.9112    0.7098 C   0  0  0  0  0  0  0  0  0  0  0  0
   -3.2067    2.8494    1.0026 H   0  0  0  0  0  0  0  0  0  0  0  0
   -3.4824    0.7851    0.3870 C   0  0  0  0  0  0  0  0  0  0  0  0
   -4.9530    0.8224    0.4030 C   0  0  0  0  0  0  0  0  0  0  0  0
   -5.6915   -0.3476    0.0241 C   0  0  0  0  0  0  0  0  0  0  0  0
   -5.0103   -1.5580   -0.3404 C   0  0  0  0  0  0  0  0  0  0  0  0
   -5.7785   -2.6673   -0.7328 C   0  0  0  0  0  0  0  0  0  0  0  0
   -5.2844   -3.6000   -1.0352 H   0  0  0  0  0  0  0  0  0  0  0  0
   -7.1872   -2.6250   -0.7588 C   0  0  0  0  0  0  0  0  0  0  0  0
   -7.7495   -3.5171   -1.0731 H   0  0  0  0  0  0  0  0  0  0  0  0
   -7.8587   -1.4679   -0.3896 C   0  0  0  0  0  3  0  0  0  0  0  0
   -8.9588   -1.4269   -0.4013 H   0  0  0  0  0  0  0  0  0  0  0  0
   -7.1338   -0.3090    0.0066 C   0  0  0  0  0  0  0  0  0  0  0  0
   -7.8085    0.8863    0.3837 C   0  0  0  0  0  0  0  0  0  0  0  0
   -8.9089    0.9037    0.3695 H   0  0  0  0  0  0  0  0  0  0  0  0
   -7.0814    2.0061    0.7608 C   0  0  0  0  0  0  0  0  0  0  0  0
   -7.6002    2.9311    1.0544 H   0  0  0  0  0  0  0  0  0  0  0  0
   -5.6714    1.9733    0.7663 C   0  0  0  0  0  0  0  0  0  0  0  0
   -5.1330    2.8831    1.0635 H   0  0  0  0  0  0  0  0  0  0  0  0
    0.7296   -1.9589   -0.0791 C   0  0  0  0  0  0  0  0  0  0  0  0
    1.0374   -3.0216   -0.1343 H   0  0  0  0  0  0  0  0  0  0  0  0
    3.0092   -1.5494    0.2858 C   0  0  0  0  0  0  0  0  0  0  0  0
    3.7828   -1.1291    1.3880 C   0  0  0  0  0  0  0  0  0  0  0  0
    3.3352   -0.4405    2.1191 H   0  0  0  0  0  0  0  0  0  0  0  0
    5.0925   -1.5891    1.5365 C   0  0  0  0  0  0  0  0  0  0  0  0
    5.6808   -1.2584    2.4074 H   0  0  0  0  0  0  0  0  0  0  0  0
    5.6843   -2.4612    0.5946 C   0  0  0  0  0  0  0  0  0  0  0  0
    4.9046   -2.8589   -0.5073 C   0  0  0  0  0  0  0  0  0  0  0  0
    5.3319   -3.5209   -1.2740 H   0  0  0  0  0  0  0  0  0  0  0  0
    3.5834   -2.4130   -0.6645 C   0  0  0  0  0  0  0  0  0  0  0  0
    3.0013   -2.7080   -1.5503 H   0  0  0  0  0  0  0  0  0  0  0  0
    7.1174   -2.9147    0.7980 C   0  0  0  0  0  0  0  0  0  0  0  0
    7.7591   -2.0083    0.8700 H   0  0  0  0  0  0  0  0  0  0  0  0
    7.1888   -3.3916    1.8009 H   0  0  0  0  0  0  0  0  0  0  0  0
    7.6888   -3.8594   -0.2565 C   0  0  0  0  0  0  0  0  0  0  0  0
    7.1066   -4.8012   -0.3232 H   0  0  0  0  0  0  0  0  0  0  0  0
    8.7344   -4.1320   -0.0124 H   0  0  0  0  0  0  0  0  0  0  0  0
    7.6931   -3.3962   -1.2644 H   0  0  0  0  0  0  0  0  0  0  0  0
  1 34  1  0  0  0  0
  2 11  1  0  0  0  0
  3 32  2  0  0  0  0
  3 10  1  0  0  0  0
  4  3  1  0  0  0  0
  5  4  1  0  0  0  0
  6  4  2  0  0  0  0
  7  6  1  0  0  0  0
  8  6  1  1  0  0  0
  8  9  1  0  0  0  0
  9 15  1  0  0  0  0
 10  9  1  0  0  0  0
 10  2  2  0  0  0  0
 11 13  2  0  0  0  0
 11 12  1  0  0  0  0
 13 14  1  0  0  0  0
 15 16  2  0  0  0  0
 15 13  1  0  0  0  0
 16 30  1  0  0  0  0
 17 16  1  0  0  0  0
 18  8  1  0  0  0  0
 18 17  2  0  0  0  0
 19 18  1  0  0  0  0
 20 19  1  0  0  0  0
 21 19  2  0  0  0  0
 21 23  1  0  0  0  0
 22 21  1  0  0  0  0
 23 25  1  0  0  0  0
 24 23  1  0  0  0  0
 25 17  1  0  0  0  0
 25 26  2  0  0  0  0
 26 28  1  0  0  0  0
 27 26  1  0  0  0  0
 28 30  2  0  0  0  0
 28 29  1  0  0  0  0
 30 31  1  0  0  0  0
 32  1  1  0  0  0  0
 33 32  1  0  0  0  0
 34 35  1  0  0  0  0
 35 37  2  0  0  0  0
 35 36  1  0  0  0  0
 37 38  1  0  0  0  0
 39 44  1  0  0  0  0
 39 37  1  0  0  0  0
 40 39  2  0  0  0  0
 41 40  1  0  0  0  0
 42 40  1  0  0  0  0
 42 34  2  0  0  0  0
 43 42  1  0  0  0  0
 44 45  1  0  0  0  0
 44 46  1  0  0  0  0
 47 49  1  0  0  0  0
 47 44  1  0  0  0  0
 48 47  1  0  0  0  0
 50 47  1  0  0  0  0
M  END
