3,17
q = 0.0, confidence = 0.758

 27 28  0  0  0  0  0  0  0  0999 V2000
   -0.7999   -3.2566   -0.2622 O   0  0  0  0  0  0  0  0  0  0  0  0
    3.1726   -3.9230    0.6080 O   0  0  0  0  0  0  0  0  0  0  0  0
    1.2704   -0.0170   -0.1720 N   0  0  0  0  0  2  0  0  0  0  0  0
    2.0388   -1.1018    0.0554 C   0  0  0  0  0  0  0  0  0  0  0  0
    3.5184   -0.7227    0.1578 C   0  0  0  0  0  0  0  0  0  0  0  0
    3.4381    0.7745   -0.0997 C   0  0  0  0  0  0  0  0  0  0  0  0
    4.4368    1.7425   -0.1765 C   0  0  0  0  0  0  0  0  0  0  0  0
    5.4916    1.4743   -0.0067 H   0  0  0  0  0  0  0  0  0  0  0  0
    4.0803    3.0724   -0.4890 C   0  0  0  0  0  0  0  0  0  0  0  0
    4.8578    3.8482   -0.5536 H   0  0  0  0  0  0  0  0  0  0  0  0
    2.7382    3.4022   -0.7392 C   0  0  0  0  0  0  0  0  0  0  0  0
    2.4735    4.4361   -1.0099 H   0  0  0  0  0  0  0  0  0  0  0  0
    1.7207    2.4322   -0.6623 C   0  0  0  0  0  0  0  0  0  0  0  0
    0.6813    2.6901   -0.8973 H   0  0  0  0  0  0  0  0  0  0  0  0
    2.0812    1.1198   -0.3160 C   0  0  0  0  0  0  0  0  0  0  0  0
    1.3934   -2.3611    0.1243 C   0  0  0  0  0  0  0  0  0  0  0  0
   -0.0487   -2.3009   -0.1208 C   0  0  0  0  0  3  0  0  0  0  0  0
    1.9883   -3.6668    0.3597 C   0  0  0  0  0  0  0  0  0  0  0  0
    1.2284   -4.4981    0.3053 H   0  0  0  0  0  0  0  0  0  0  0  0
    4.0678   -1.0336    1.5684 C   0  0  0  0  0  0  0  0  0  0  0  0
    3.4617   -0.5332    2.3494 H   0  0  0  0  0  0  0  0  0  0  0  0
    5.1100   -0.6634    1.6495 H   0  0  0  0  0  0  0  0  0  0  0  0
    4.0570   -2.1275    1.7334 H   0  0  0  0  0  0  0  0  0  0  0  0
    4.3619   -1.4294   -0.9265 C   0  0  0  0  0  0  0  0  0  0  0  0
    4.3589   -2.5204   -0.7452 H   0  0  0  0  0  0  0  0  0  0  0  0
    5.4063   -1.0593   -0.8832 H   0  0  0  0  0  0  0  0  0  0  0  0
    3.9627   -1.2189   -1.9382 H   0  0  0  0  0  0  0  0  0  0  0  0
  1 17  2  0  0  0  0
  3  4  1  0  0  0  0
  4 16  2  0  0  0  0
  4  5  1  0  0  0  0
  5 20  1  0  0  0  0
  6  5  1  0  0  0  0
  7  6  1  0  0  0  0
  7  8  1  0  0  0  0
  9  7  2  0  0  0  0
 10  9  1  0  0  0  0
 11 13  2  0  0  0  0
 11  9  1  0  0  0  0
 12 11  1  0  0  0  0
 13 15  1  0  0  0  0
 14 13  1  0  0  0  0
 15  3  1  0  0  0  0
 15  6  2  0  0  0  0
 16 18  1  0  0  0  0
 17 16  1  0  0  0  0
 18  2  2  0  0  0  0
 19 18  1  0  0  0  0
 20 22  1  0  0  0  0
 20 23  1  0  0  0  0
 20 21  1  0  0  0  0
 24 26  1  0  0  0  0
 24 25  1  0  0  0  0
 24  5  1  0  0  0  0
 27 24  1  0  0  0  0
M  END
