1,13
q = -2.0, confidence = 0.858

 49 49  0  0  1  0  0  0  0  0999 V2000
   -0.1722    2.0443    0.2811 N   0  0  0  0  0  2  0  0  0  0  0  0
    2.9510    0.2999    0.1560 N   0  0  0  0  0  0  0  0  0  0  0  0
    2.1672   -1.2272   -0.2480 Si  0  0  0  0  0  0  0  0  0  0  0  0
    1.0098    2.4477    1.0181 C   0  0  0  0  0  0  0  0  0  0  0  0
    1.2707    1.6577    1.7386 H   0  0  0  0  0  0  0  0  0  0  0  0
    0.7787    3.3664    1.6085 H   0  0  0  0  0  0  0  0  0  0  0  0
    2.2372    2.7090    0.1300 C   0  0  0  0  0  0  0  0  0  0  0  0
    3.0657    3.0554    0.7845 H   0  0  0  0  0  0  0  0  0  0  0  0
    2.0478    3.5423   -0.5792 H   0  0  0  0  0  0  0  0  0  0  0  0
    2.6596    1.4677   -0.6677 C   0  0  0  0  0  0  0  0  0  0  0  0
    1.8359    1.2144   -1.3692 H   0  0  0  0  0  0  0  0  0  0  0  0
    3.5432    1.7320   -1.3022 H   0  0  0  0  0  0  0  0  0  0  0  0
    0.3304   -1.1899    0.2318 C   0  0  2  0  0  3  0  0  0  0  0  0
   -0.1738   -0.7394    1.5076 C   0  0  0  0  0  0  0  0  0  0  0  0
   -1.5810   -0.9819    1.5593 C   0  0  0  0  0  0  0  0  0  0  0  0
   -1.9586   -1.6411    0.3416 C   0  0  0  0  0  0  0  0  0  0  0  0
   -0.7882   -1.7819   -0.4700 C   0  0  0  0  0  0  0  0  0  0  0  0
   -0.7684    3.1553   -0.4601 C   0  0  0  0  0  0  0  0  0  0  0  0
   -1.6766    2.8415   -1.0133 H   0  0  0  0  0  0  0  0  0  0  0  0
   -0.0646    3.5715   -1.2157 H   0  0  0  0  0  0  0  0  0  0  0  0
   -1.0819    3.9668    0.2371 H   0  0  0  0  0  0  0  0  0  0  0  0
    4.1126    0.4309    1.0099 C   0  0  0  0  0  0  0  0  0  0  0  0
    4.3455   -0.5284    1.5100 H   0  0  0  0  0  0  0  0  0  0  0  0
    3.9723    1.1881    1.8186 H   0  0  0  0  0  0  0  0  0  0  0  0
    5.0240    0.7388    0.4388 H   0  0  0  0  0  0  0  0  0  0  0  0
    2.9589   -2.6116    0.7685 C   0  0  0  0  0  0  0  0  0  0  0  0
    2.8650   -2.4428    1.8600 H   0  0  0  0  0  0  0  0  0  0  0  0
    4.0323   -2.7467    0.5239 H   0  0  0  0  0  0  0  0  0  0  0  0
    2.4371   -3.5625    0.5351 H   0  0  0  0  0  0  0  0  0  0  0  0
    2.4046   -1.5853   -2.0875 C   0  0  0  0  0  0  0  0  0  0  0  0
    1.8317   -0.8780   -2.7197 H   0  0  0  0  0  0  0  0  0  0  0  0
    2.0987   -2.6147   -2.3592 H   0  0  0  0  0  0  0  0  0  0  0  0
    3.4821   -1.4721   -2.3275 H   0  0  0  0  0  0  0  0  0  0  0  0
    0.6369   -0.3352    2.7043 C   0  0  0  0  0  0  0  0  0  0  0  0
    1.6789   -0.0888    2.4324 H   0  0  0  0  0  0  0  0  0  0  0  0
    0.6713   -1.1870    3.4177 H   0  0  0  0  0  0  0  0  0  0  0  0
    0.1992    0.5227    3.2512 H   0  0  0  0  0  0  0  0  0  0  0  0
   -2.4837   -0.6864    2.7168 C   0  0  0  0  0  0  0  0  0  0  0  0
   -3.4882   -0.3747    2.3717 H   0  0  0  0  0  0  0  0  0  0  0  0
   -2.0812    0.1275    3.3498 H   0  0  0  0  0  0  0  0  0  0  0  0
   -2.6040   -1.5838    3.3618 H   0  0  0  0  0  0  0  0  0  0  0  0
   -3.3298   -2.1443    0.0090 C   0  0  0  0  0  0  0  0  0  0  0  0
   -3.5514   -2.0535   -1.0718 H   0  0  0  0  0  0  0  0  0  0  0  0
   -4.1092   -1.5808    0.5537 H   0  0  0  0  0  0  0  0  0  0  0  0
   -3.4242   -3.2178    0.2818 H   0  0  0  0  0  0  0  0  0  0  0  0
   -0.7528   -2.5408   -1.7634 C   0  0  0  0  0  0  0  0  0  0  0  0
   -0.2620   -3.5263   -1.6127 H   0  0  0  0  0  0  0  0  0  0  0  0
   -0.2048   -1.9980   -2.5528 H   0  0  0  0  0  0  0  0  0  0  0  0
   -1.7743   -2.7325   -2.1412 H   0  0  0  0  0  0  0  0  0  0  0  0
  1  4  1  0  0  0  0
  2 22  1  0  0  0  0
  3  2  1  0  0  0  0
  3 26  1  0  0  0  0
  4  6  1  0  0  0  0
  4  5  1  0  0  0  0
  7  8  1  0  0  0  0
  7  4  1  0  0  0  0
  9  7  1  0  0  0  0
 10  7  1  0  0  0  0
 10  2  1  0  0  0  0
 11 10  1  0  0  0  0
 12 10  1  0  0  0  0
 13  3  1  1  0  0  0
 13 14  1  0  0  0  0
 14 15  2  0  0  0  0
 14 34  1  0  0  0  0
 15 38  1  0  0  0  0
 16 15  1  0  0  0  0
 17 13  1  0  0  0  0
 17 16  2  0  0  0  0
 18 21  1  0  0  0  0
 18  1  1  0  0  0  0
 19 18  1  0  0  0  0
 20 18  1  0  0  0  0
 22 23  1  0  0  0  0
 22 24  1  0  0  0  0
 25 22  1  0  0  0  0
 26 27  1  0  0  0  0
 28 26  1  0  0  0  0
 29 26  1  0  0  0  0
 30  3  1  0  0  0  0
 31 30  1  0  0  0  0
 32 30  1  0  0  0  0
 33 30  1  0  0  0  0
 34 37  1  0  0  0  0
 34 36  1  0  0  0  0
 35 34  1  0  0  0  0
 38 40  1  0  0  0  0
 38 41  1  0  0  0  0
 39 38  1  0  0  0  0
 42 45  1  0  0  0  0
 42 16  1  0  0  0  0
 42 44  1  0  0  0  0
 43 42  1  0  0  0  0
 46 47  1  0  0  0  0
 46 17  1  0  0  0  0
 48 46  1  0  0  0  0
 49 46  1  0  0  0  0
M  END
