5,8
q = 0.0, confidence = 1.0

 41 42  0  0  0  0  0  0  0  0999 V2000
    1.9690   -1.2765   -1.2342 N   0  0  0  0  0  0  0  0  0  0  0  0
    2.0493   -1.8552   -2.0803 H   0  0  0  0  0  0  0  0  0  0  0  0
   -0.1855   -2.0191   -1.0808 N   0  0  0  0  0  0  0  0  0  0  0  0
    0.0696   -2.7066   -1.8038 H   0  0  0  0  0  0  0  0  0  0  0  0
    2.5063   -0.5363    1.4855 N   0  0  0  0  0  0  0  0  0  0  0  0
    2.6586    0.0281    2.3421 H   0  0  0  0  0  0  0  0  0  0  0  0
    2.5399   -1.5337    1.7513 H   0  0  0  0  0  0  0  0  0  0  0  0
    0.7597   -1.1935   -0.6267 C   0  0  0  0  0  2  0  0  0  0  0  0
    3.1651   -0.5958   -0.8898 C   0  0  0  0  0  0  0  0  0  0  0  0
    3.4504   -0.2178    0.4380 C   0  0  0  0  0  0  0  0  0  0  0  0
    4.6345    0.4754    0.7188 C   0  0  0  0  0  0  0  0  0  0  0  0
    4.8355    0.7790    1.7582 H   0  0  0  0  0  0  0  0  0  0  0  0
    5.5717    0.7824   -0.2829 C   0  0  0  0  0  0  0  0  0  0  0  0
    6.8324    1.5302    0.0524 C   0  0  0  0  0  0  0  0  0  0  0  0
    6.8907    1.7750    1.1292 H   0  0  0  0  0  0  0  0  0  0  0  0
    6.9007    2.4805   -0.5175 H   0  0  0  0  0  0  0  0  0  0  0  0
    7.7352    0.9418   -0.2145 H   0  0  0  0  0  0  0  0  0  0  0  0
    5.3057    0.3666   -1.6172 C   0  0  0  0  0  0  0  0  0  0  0  0
    6.2846    0.6634   -2.7199 C   0  0  0  0  0  0  0  0  0  0  0  0
    7.2764    0.2111   -2.5101 H   0  0  0  0  0  0  0  0  0  0  0  0
    6.4570    1.7552   -2.8225 H   0  0  0  0  0  0  0  0  0  0  0  0
    5.9348    0.2802   -3.6965 H   0  0  0  0  0  0  0  0  0  0  0  0
    4.1058   -0.3094   -1.8930 C   0  0  0  0  0  0  0  0  0  0  0  0
    3.8856   -0.6084   -2.9303 H   0  0  0  0  0  0  0  0  0  0  0  0
   -1.5483   -2.1884   -0.5489 C   0  0  0  0  0  0  0  0  0  0  0  0
   -1.9761   -1.1745   -0.4188 H   0  0  0  0  0  0  0  0  0  0  0  0
   -1.5504   -2.8936    0.8162 C   0  0  0  0  0  0  0  0  0  0  0  0
   -0.9397   -2.3023    1.5328 H   0  0  0  0  0  0  0  0  0  0  0  0
   -1.0576   -3.8856    0.7066 H   0  0  0  0  0  0  0  0  0  0  0  0
   -2.9837   -3.0688    1.3323 C   0  0  0  0  0  0  0  0  0  0  0  0
   -2.9701   -3.5982    2.3062 H   0  0  0  0  0  0  0  0  0  0  0  0
   -3.4204   -2.0643    1.5330 H   0  0  0  0  0  0  0  0  0  0  0  0
   -3.8587   -3.8158    0.3176 C   0  0  0  0  0  0  0  0  0  0  0  0
   -3.4852   -4.8583    0.2094 H   0  0  0  0  0  0  0  0  0  0  0  0
   -4.8997   -3.8970    0.6908 H   0  0  0  0  0  0  0  0  0  0  0  0
   -3.8395   -3.1268   -1.0527 C   0  0  0  0  0  0  0  0  0  0  0  0
   -4.3276   -2.1298   -0.9729 H   0  0  0  0  0  0  0  0  0  0  0  0
   -4.4321   -3.7028   -1.7917 H   0  0  0  0  0  0  0  0  0  0  0  0
   -2.4079   -2.9387   -1.5735 C   0  0  0  0  0  0  0  0  0  0  0  0
   -1.9517   -3.9380   -1.7637 H   0  0  0  0  0  0  0  0  0  0  0  0
   -2.4092   -2.3909   -2.5397 H   0  0  0  0  0  0  0  0  0  0  0  0
  1  9  1  0  0  0  0
  1  8  1  0  0  0  0
  2  1  1  0  0  0  0
  3  8  1  0  0  0  0
  3 25  1  0  0  0  0
  4  3  1  0  0  0  0
  5  7  1  0  0  0  0
  5  6  1  0  0  0  0
  9 10  1  0  0  0  0
 10 11  2  0  0  0  0
 10  5  1  0  0  0  0
 11 12  1  0  0  0  0
 13 14  1  0  0  0  0
 13 11  1  0  0  0  0
 14 15  1  0  0  0  0
 16 14  1  0  0  0  0
 17 14  1  0  0  0  0
 18 13  2  0  0  0  0
 19 20  1  0  0  0  0
 19 18  1  0  0  0  0
 21 19  1  0  0  0  0
 22 19  1  0  0  0  0
 23 18  1  0  0  0  0
 23  9  2  0  0  0  0
 24 23  1  0  0  0  0
 25 26  1  0  0  0  0
 25 27  1  0  0  0  0
 27 30  1  0  0  0  0
 27 28  1  0  0  0  0
 29 27  1  0  0  0  0
 30 32  1  0  0  0  0
 30 31  1  0  0  0  0
 33 35  1  0  0  0  0
 33 30  1  0  0  0  0
 34 33  1  0  0  0  0
 36 37  1  0  0  0  0
 36 33  1  0  0  0  0
 38 36  1  0  0  0  0
 39 36  1  0  0  0  0
 39 25  1  0  0  0  0
 40 39  1  0  0  0  0
 41 39  1  0  0  0  0
M  END
