4,5
q = -1.0, confidence = 0.0

 41 43  0  0  0  0  0  0  0  0999 V2000
    1.0403    3.0525   -2.7225 O   0  0  0  0  0  0  0  0  0  0  0  0
    0.9730   -2.0503   -1.3666 N   0  0  0  0  0  0  0  0  0  0  0  0
    0.2674   -0.3760   -2.5467 N   0  0  0  0  0  0  0  0  0  0  0  0
    1.0822    1.6656   -0.8564 N   0  0  0  0  0  2  0  0  0  0  0  0
    0.4344   -0.7956   -1.2573 C   0  0  0  0  0  2  0  0  0  0  0  0
    1.1682   -2.3879   -2.7034 C   0  0  0  0  0  0  0  0  0  0  0  0
    1.6081   -3.3426   -3.0054 H   0  0  0  0  0  0  0  0  0  0  0  0
    0.7187   -1.3270   -3.4494 C   0  0  0  0  0  0  0  0  0  0  0  0
    0.6775   -1.1756   -4.5320 H   0  0  0  0  0  0  0  0  0  0  0  0
    1.3669   -2.8973   -0.2366 C   0  0  0  0  0  0  0  0  0  0  0  0
    1.3166   -3.9487   -0.5798 H   0  0  0  0  0  0  0  0  0  0  0  0
    0.5968   -2.7630    0.5468 H   0  0  0  0  0  0  0  0  0  0  0  0
    2.7392   -2.5946    0.3279 C   0  0  0  0  0  0  0  0  0  0  0  0
    2.9860   -1.3643    0.9678 C   0  0  0  0  0  0  0  0  0  0  0  0
    2.1854   -0.6022    0.9917 H   0  0  0  0  0  0  0  0  0  0  0  0
    4.2413   -1.0917    1.5234 C   0  0  0  0  0  0  0  0  0  0  0  0
    4.4255   -0.1169    1.9970 H   0  0  0  0  0  0  0  0  0  0  0  0
    5.2693   -2.0445    1.4388 C   0  0  0  0  0  0  0  0  0  0  0  0
    6.2591   -1.8237    1.8660 H   0  0  0  0  0  0  0  0  0  0  0  0
    5.0369   -3.2687    0.7946 C   0  0  0  0  0  0  0  0  0  0  0  0
    5.8410   -4.0165    0.7196 H   0  0  0  0  0  0  0  0  0  0  0  0
    3.7753   -3.5418    0.2413 C   0  0  0  0  0  0  0  0  0  0  0  0
    3.5920   -4.5069   -0.2587 H   0  0  0  0  0  0  0  0  0  0  0  0
   -0.1768    0.9846   -2.8279 C   0  0  0  0  0  0  0  0  0  0  0  0
   -1.2334    1.1074   -2.5075 H   0  0  0  0  0  0  0  0  0  0  0  0
   -0.1083    1.1756   -3.9130 H   0  0  0  0  0  0  0  0  0  0  0  0
    0.7260    2.0192   -2.1109 C   0  0  0  0  0  0  0  0  0  0  0  0
    2.1425    2.4407   -0.2423 C   0  0  0  0  0  0  0  0  0  0  0  0
    1.9373    2.5517    0.8424 H   0  0  0  0  0  0  0  0  0  0  0  0
    2.1464    3.4581   -0.6984 H   0  0  0  0  0  0  0  0  0  0  0  0
    3.5318    1.8457   -0.4128 C   0  0  0  0  0  0  0  0  0  0  0  0
    3.8175    0.8758   -1.3913 C   0  0  0  0  0  0  0  0  0  0  0  0
    3.0019    0.5102   -2.0315 H   0  0  0  0  0  0  0  0  0  0  0  0
    5.1162    0.3676   -1.5445 C   0  0  0  0  0  0  0  0  0  0  0  0
    5.3146   -0.3987   -2.3098 H   0  0  0  0  0  0  0  0  0  0  0  0
    6.1567    0.8232   -0.7213 C   0  0  0  0  0  0  0  0  0  0  0  0
    7.1750    0.4222   -0.8389 H   0  0  0  0  0  0  0  0  0  0  0  0
    5.8857    1.7938    0.2578 C   0  0  0  0  0  0  0  0  0  0  0  0
    6.6935    2.1595    0.9109 H   0  0  0  0  0  0  0  0  0  0  0  0
    4.5847    2.2952    0.4105 C   0  0  0  0  0  0  0  0  0  0  0  0
    4.3765    3.0537    1.1830 H   0  0  0  0  0  0  0  0  0  0  0  0
  1 27  2  0  0  0  0
  2  5  1  0  0  0  0
  2 10  1  0  0  0  0
  3  5  1  0  0  0  0
  4 28  1  0  0  0  0
  6  2  1  0  0  0  0
  7  6  1  0  0  0  0
  8  6  2  0  0  0  0
  8  3  1  0  0  0  0
  9  8  1  0  0  0  0
 10 13  1  0  0  0  0
 10 12  1  0  0  0  0
 11 10  1  0  0  0  0
 13 14  1  0  0  0  0
 14 15  1  0  0  0  0
 14 16  2  0  0  0  0
 16 17  1  0  0  0  0
 18 16  1  0  0  0  0
 18 19  1  0  0  0  0
 20 18  2  0  0  0  0
 21 20  1  0  0  0  0
 22 13  2  0  0  0  0
 22 20  1  0  0  0  0
 23 22  1  0  0  0  0
 24  3  1  0  0  0  0
 24 25  1  0  0  0  0
 24 27  1  0  0  0  0
 26 24  1  0  0  0  0
 27  4  1  0  0  0  0
 28 29  1  0  0  0  0
 30 28  1  0  0  0  0
 31 28  1  0  0  0  0
 31 40  1  0  0  0  0
 32 31  2  0  0  0  0
 33 32  1  0  0  0  0
 34 32  1  0  0  0  0
 34 36  2  0  0  0  0
 35 34  1  0  0  0  0
 36 38  1  0  0  0  0
 37 36  1  0  0  0  0
 38 40  2  0  0  0  0
 38 39  1  0  0  0  0
 40 41  1  0  0  0  0
M  END
