4,5
q = -1.0, confidence = 0.0

 37 38  0  0  0  0  0  0  0  0999 V2000
    0.1487   -1.3922   -4.0833 O   0  0  0  0  0  0  0  0  0  0  0  0
   -1.5274    2.3779   -0.9073 N   0  0  0  0  0  0  0  0  0  0  0  0
   -0.0771    1.6363   -2.3404 N   0  0  0  0  0  0  0  0  0  0  0  0
   -0.4191   -1.1065   -1.8517 N   0  0  0  0  0  2  0  0  0  0  0  0
   -0.6297    1.3635   -1.1197 C   0  0  0  0  0  2  0  0  0  0  0  0
   -1.5200    3.2720   -1.9770 C   0  0  0  0  0  0  0  0  0  0  0  0
   -2.1660    4.1530   -2.0165 H   0  0  0  0  0  0  0  0  0  0  0  0
   -0.6062    2.7964   -2.8840 C   0  0  0  0  0  0  0  0  0  0  0  0
   -0.2995    3.1803   -3.8614 H   0  0  0  0  0  0  0  0  0  0  0  0
   -2.4527    2.4455    0.2387 C   0  0  0  0  0  0  0  0  0  0  0  0
   -2.3201    1.4690    0.7471 H   0  0  0  0  0  0  0  0  0  0  0  0
   -2.0751    3.5736    1.2013 C   0  0  0  0  0  0  0  0  0  0  0  0
   -1.0559    3.4287    1.6044 H   0  0  0  0  0  0  0  0  0  0  0  0
   -2.7794    3.5927    2.0561 H   0  0  0  0  0  0  0  0  0  0  0  0
   -2.1227    4.5629    0.7013 H   0  0  0  0  0  0  0  0  0  0  0  0
   -3.9005    2.5561   -0.2467 C   0  0  0  0  0  0  0  0  0  0  0  0
   -4.1047    3.5437   -0.7089 H   0  0  0  0  0  0  0  0  0  0  0  0
   -4.5925    2.4410    0.6101 H   0  0  0  0  0  0  0  0  0  0  0  0
   -4.1339    1.7696   -0.9893 H   0  0  0  0  0  0  0  0  0  0  0  0
    0.7919    0.6633   -2.9976 C   0  0  0  0  0  0  0  0  0  0  0  0
    1.7682    0.6190   -2.4705 H   0  0  0  0  0  0  0  0  0  0  0  0
    0.9605    0.9767   -4.0426 H   0  0  0  0  0  0  0  0  0  0  0  0
    0.1295   -0.7393   -3.0270 C   0  0  0  0  0  0  0  0  0  0  0  0
   -1.2331   -2.3145   -1.8529 C   0  0  0  0  0  0  0  0  0  0  0  0
   -0.6230   -3.2295   -1.6761 H   0  0  0  0  0  0  0  0  0  0  0  0
   -1.6593   -2.4416   -2.8743 H   0  0  0  0  0  0  0  0  0  0  0  0
   -2.3293   -2.2510   -0.8127 C   0  0  0  0  0  0  0  0  0  0  0  0
   -2.4695   -3.2577    0.1610 C   0  0  0  0  0  0  0  0  0  0  0  0
   -1.7528   -4.0927    0.1801 H   0  0  0  0  0  0  0  0  0  0  0  0
   -3.4774   -3.1858    1.1356 C   0  0  0  0  0  0  0  0  0  0  0  0
   -3.5530   -3.9761    1.8979 H   0  0  0  0  0  0  0  0  0  0  0  0
   -4.3671   -2.1000    1.1513 C   0  0  0  0  0  0  0  0  0  0  0  0
   -5.1581   -2.0405    1.9147 H   0  0  0  0  0  0  0  0  0  0  0  0
   -4.2407   -1.0893    0.1820 C   0  0  0  0  0  0  0  0  0  0  0  0
   -4.9428   -0.2411    0.1804 H   0  0  0  0  0  0  0  0  0  0  0  0
   -3.2296   -1.1648   -0.7879 C   0  0  0  0  0  0  0  0  0  0  0  0
   -3.1223   -0.3734   -1.5465 H   0  0  0  0  0  0  0  0  0  0  0  0
  1 23  2  0  0  0  0
  2 10  1  0  0  0  0
  3  5  1  0  0  0  0
  5  2  1  0  0  0  0
  6  2  1  0  0  0  0
  7  6  1  0  0  0  0
  8  3  1  0  0  0  0
  8  6  2  0  0  0  0
  9  8  1  0  0  0  0
 10 11  1  0  0  0  0
 10 12  1  0  0  0  0
 12 13  1  0  0  0  0
 12 14  1  0  0  0  0
 15 12  1  0  0  0  0
 16 10  1  0  0  0  0
 16 18  1  0  0  0  0
 17 16  1  0  0  0  0
 19 16  1  0  0  0  0
 20 21  1  0  0  0  0
 20  3  1  0  0  0  0
 22 20  1  0  0  0  0
 23 20  1  0  0  0  0
 23  4  1  0  0  0  0
 24  4  1  0  0  0  0
 24 25  1  0  0  0  0
 24 27  1  0  0  0  0
 26 24  1  0  0  0  0
 27 36  2  0  0  0  0
 27 28  1  0  0  0  0
 28 29  1  0  0  0  0
 28 30  2  0  0  0  0
 30 32  1  0  0  0  0
 30 31  1  0  0  0  0
 32 33  1  0  0  0  0
 34 32  2  0  0  0  0
 35 34  1  0  0  0  0
 36 34  1  0  0  0  0
 37 36  1  0  0  0  0
M  END
