4,5
q = -1.0, confidence = 0.0

 31 32  0  0  0  0  0  0  0  0999 V2000
   -1.3021    3.1620   -2.1971 O   0  0  0  0  0  0  0  0  0  0  0  0
    0.4595    1.7025    2.4731 N   0  0  0  0  0  0  0  0  0  0  0  0
   -1.1745    2.3056    1.1824 N   0  0  0  0  0  0  0  0  0  0  0  0
   -0.1489    1.3738   -1.2672 N   0  0  0  0  0  2  0  0  0  0  0  0
   -0.2136    1.3467    1.3328 C   0  0  0  0  0  2  0  0  0  0  0  0
   -0.0825    2.8625    3.0231 C   0  0  0  0  0  0  0  0  0  0  0  0
    0.3173    3.3228    3.9314 H   0  0  0  0  0  0  0  0  0  0  0  0
   -1.1130    3.2444    2.1998 C   0  0  0  0  0  0  0  0  0  0  0  0
   -1.7896    4.1025    2.2489 H   0  0  0  0  0  0  0  0  0  0  0  0
    1.6072    0.9872    3.0074 C   0  0  0  0  0  0  0  0  0  0  0  0
    1.2965    0.1552    3.6721 H   0  0  0  0  0  0  0  0  0  0  0  0
    2.2405    1.6893    3.5812 H   0  0  0  0  0  0  0  0  0  0  0  0
    2.1969    0.5744    2.1687 H   0  0  0  0  0  0  0  0  0  0  0  0
   -1.9901    2.3600   -0.0296 C   0  0  0  0  0  0  0  0  0  0  0  0
   -2.5612    3.3045   -0.0381 H   0  0  0  0  0  0  0  0  0  0  0  0
   -2.6994    1.5064   -0.0415 H   0  0  0  0  0  0  0  0  0  0  0  0
   -1.0961    2.3336   -1.2953 C   0  0  0  0  0  0  0  0  0  0  0  0
    0.8775    1.4172   -2.2968 C   0  0  0  0  0  0  0  0  0  0  0  0
    0.8432    2.4250   -2.7708 H   0  0  0  0  0  0  0  0  0  0  0  0
    0.6778    0.6879   -3.1133 H   0  0  0  0  0  0  0  0  0  0  0  0
    2.2472    1.1337   -1.7180 C   0  0  0  0  0  0  0  0  0  0  0  0
    3.0919    0.1577   -2.2797 C   0  0  0  0  0  0  0  0  0  0  0  0
    2.7411   -0.4229   -3.1471 H   0  0  0  0  0  0  0  0  0  0  0  0
    4.3518   -0.1145   -1.7213 C   0  0  0  0  0  0  0  0  0  0  0  0
    4.9902   -0.8905   -2.1709 H   0  0  0  0  0  0  0  0  0  0  0  0
    4.7868    0.5845   -0.5840 C   0  0  0  0  0  0  0  0  0  0  0  0
    5.7727    0.3701   -0.1435 H   0  0  0  0  0  0  0  0  0  0  0  0
    3.9536    1.5649   -0.0157 C   0  0  0  0  0  0  0  0  0  0  0  0
    4.2918    2.1290    0.8682 H   0  0  0  0  0  0  0  0  0  0  0  0
    2.6974    1.8348   -0.5785 C   0  0  0  0  0  0  0  0  0  0  0  0
    2.0408    2.5979   -0.1326 H   0  0  0  0  0  0  0  0  0  0  0  0
  1 17  2  0  0  0  0
  2 10  1  0  0  0  0
  2  6  1  0  0  0  0
  3  5  1  0  0  0  0
  3  8  1  0  0  0  0
  5  2  1  0  0  0  0
  6  7  1  0  0  0  0
  8  9  1  0  0  0  0
  8  6  2  0  0  0  0
 10 12  1  0  0  0  0
 10 11  1  0  0  0  0
 13 10  1  0  0  0  0
 14  3  1  0  0  0  0
 15 14  1  0  0  0  0
 16 14  1  0  0  0  0
 17  4  1  0  0  0  0
 17 14  1  0  0  0  0
 18 21  1  0  0  0  0
 18  4  1  0  0  0  0
 19 18  1  0  0  0  0
 20 18  1  0  0  0  0
 21 30  1  0  0  0  0
 22 24  1  0  0  0  0
 22 21  2  0  0  0  0
 23 22  1  0  0  0  0
 24 26  2  0  0  0  0
 25 24  1  0  0  0  0
 26 27  1  0  0  0  0
 26 28  1  0  0  0  0
 28 29  1  0  0  0  0
 30 31  1  0  0  0  0
 30 28  2  0  0  0  0
M  END
