1,11
q = -2.0, confidence = 0.83

 40 44  0  0  0  0  0  0  0  0999 V2000
   -1.3113   -0.1585    0.9877 N   0  0  0  0  0  2  0  0  0  0  0  0
   -1.3119   -0.0591   -1.3981 C   0  0  0  0  0  0  0  0  0  0  0  0
   -1.9707   -0.0253   -2.6326 C   0  0  0  0  0  0  0  0  0  0  0  0
   -3.3777   -0.0369   -2.6759 C   0  0  0  0  0  0  0  0  0  0  0  0
   -4.1110   -0.0714   -1.4798 C   0  0  0  0  0  0  0  0  0  0  0  0
   -3.4798   -0.1151   -0.2233 C   0  0  0  0  0  0  0  0  0  0  0  0
   -4.2480   -0.1133    1.0803 C   0  0  0  0  0  0  0  0  0  0  0  0
   -3.3816    0.4283    2.2234 C   0  0  0  0  0  0  0  0  0  0  0  0
   -2.0378   -0.3075    2.2501 C   0  0  0  0  0  0  0  0  0  0  0  0
   -2.0608   -0.1232   -0.1885 C   0  0  0  0  0  0  0  0  0  0  0  0
    0.1539   -0.0297   -1.1876 C   0  0  0  0  0  3  0  0  0  0  0  0
    0.9962   -1.1790   -0.9685 C   0  0  0  0  0  0  0  0  0  0  0  0
    0.7077   -2.5712   -1.0052 C   0  0  0  0  0  0  0  0  0  0  0  0
    1.7176   -3.4719   -0.6908 C   0  0  0  0  0  0  0  0  0  0  0  0
    3.0186   -3.0296   -0.3099 C   0  0  0  0  0  0  0  0  0  0  0  0
    3.3183   -1.6745   -0.2306 C   0  0  0  0  0  0  0  0  0  0  0  0
    2.3093   -0.7285   -0.5484 C   0  0  0  0  0  0  0  0  0  0  0  0
    2.2975    0.7246   -0.5756 C   0  0  0  0  0  0  0  0  0  0  0  0
    3.2924    1.6962   -0.2887 C   0  0  0  0  0  0  0  0  0  0  0  0
    2.9770    3.0432   -0.4250 C   0  0  0  0  0  0  0  0  0  0  0  0
    1.6736    3.4535   -0.8305 C   0  0  0  0  0  0  0  0  0  0  0  0
    0.6771    2.5285   -1.1153 C   0  0  0  0  0  0  0  0  0  0  0  0
    0.9783    1.1408   -1.0201 C   0  0  0  0  0  0  0  0  0  0  0  0
   -1.3794    0.0172   -3.5599 H   0  0  0  0  0  0  0  0  0  0  0  0
   -3.9012   -0.0049   -3.6428 H   0  0  0  0  0  0  0  0  0  0  0  0
   -5.2127   -0.0544   -1.5153 H   0  0  0  0  0  0  0  0  0  0  0  0
   -4.5751   -1.1491    1.3282 H   0  0  0  0  0  0  0  0  0  0  0  0
   -5.1787    0.4814    0.9709 H   0  0  0  0  0  0  0  0  0  0  0  0
   -3.1953    1.5140    2.0769 H   0  0  0  0  0  0  0  0  0  0  0  0
   -3.8924    0.3100    3.2005 H   0  0  0  0  0  0  0  0  0  0  0  0
   -2.2134   -1.3899    2.4605 H   0  0  0  0  0  0  0  0  0  0  0  0
   -1.4045    0.0739    3.0789 H   0  0  0  0  0  0  0  0  0  0  0  0
   -0.2952   -2.9111   -1.3028 H   0  0  0  0  0  0  0  0  0  0  0  0
    1.5134   -4.5526   -0.7345 H   0  0  0  0  0  0  0  0  0  0  0  0
    3.7921   -3.7750   -0.0729 H   0  0  0  0  0  0  0  0  0  0  0  0
    4.3217   -1.3365    0.0689 H   0  0  0  0  0  0  0  0  0  0  0  0
    4.2986    1.3820    0.0272 H   0  0  0  0  0  0  0  0  0  0  0  0
    3.7401    3.8071   -0.2144 H   0  0  0  0  0  0  0  0  0  0  0  0
    1.4559    4.5287   -0.9187 H   0  0  0  0  0  0  0  0  0  0  0  0
   -0.3277    2.8454   -1.4317 H   0  0  0  0  0  0  0  0  0  0  0  0
  1  9  1  0  0  0  0
  2 11  1  0  0  0  0
  2 10  1  0  0  0  0
  3  2  2  0  0  0  0
  4  3  1  0  0  0  0
  4  5  2  0  0  0  0
  5  6  1  0  0  0  0
  6 10  2  0  0  0  0
  6  7  1  0  0  0  0
  7 27  1  0  0  0  0
  7  8  1  0  0  0  0
  8  9  1  0  0  0  0
  8 30  1  0  0  0  0
  9 31  1  0  0  0  0
  9 32  1  0  0  0  0
 10  1  1  0  0  0  0
 11 23  1  0  0  0  0
 11 12  1  0  0  0  0
 12 17  1  0  0  0  0
 13 12  2  0  0  0  0
 13 14  1  0  0  0  0
 14 15  2  0  0  0  0
 15 16  1  0  0  0  0
 15 35  1  0  0  0  0
 16 36  1  0  0  0  0
 17 16  2  0  0  0  0
 18 17  1  0  0  0  0
 18 19  1  0  0  0  0
 19 37  1  0  0  0  0
 20 19  2  0  0  0  0
 20 38  1  0  0  0  0
 21 20  1  0  0  0  0
 22 23  1  0  0  0  0
 22 21  2  0  0  0  0
 23 18  2  0  0  0  0
 24  3  1  0  0  0  0
 25  4  1  0  0  0  0
 26  5  1  0  0  0  0
 28  7  1  0  0  0  0
 29  8  1  0  0  0  0
 33 13  1  0  0  0  0
 34 14  1  0  0  0  0
 39 21  1  0  0  0  0
 40 22  1  0  0  0  0
M  END
