1,3
q = 0.0, confidence = 0.994

 32 32  0  0  0  0  0  0  0  0999 V2000
    0.0160   -1.4535    0.2605 N   0  0  0  0  0  0  0  0  0  0  0  0
   -0.5581   -0.3366    0.9635 N   0  0  0  0  0  0  0  0  0  0  0  0
    0.3116    0.6794    0.8825 C   0  0  0  0  0  2  0  0  0  0  0  0
   -0.0256    1.9616    1.5802 C   0  0  0  0  0  0  0  0  0  0  0  0
    0.9315    3.1122    1.2767 C   0  0  0  0  0  0  0  0  0  0  0  0
    0.3390   -2.5588    1.1757 C   0  0  0  0  0  0  0  0  0  0  0  0
   -0.7925   -1.9104   -0.8812 C   0  0  0  0  0  0  0  0  0  0  0  0
   -1.8906   -0.4143    1.5590 C   0  0  0  0  0  0  0  0  0  0  0  0
   -3.0385   -0.1041    0.6103 C   0  0  0  0  0  0  0  0  0  0  0  0
   -4.2980   -0.6916    0.8358 C   0  0  0  0  0  0  0  0  0  0  0  0
   -5.3864   -0.3916    0.0032 C   0  0  0  0  0  0  0  0  0  0  0  0
   -5.2259    0.4970   -1.0715 C   0  0  0  0  0  0  0  0  0  0  0  0
   -3.9720    1.0818   -1.3069 C   0  0  0  0  0  0  0  0  0  0  0  0
   -2.8848    0.7855   -0.4706 C   0  0  0  0  0  0  0  0  0  0  0  0
   -0.0238    1.7440    2.6757 H   0  0  0  0  0  0  0  0  0  0  0  0
   -1.0745    2.2590    1.3477 H   0  0  0  0  0  0  0  0  0  0  0  0
    0.6330    4.0279    1.8240 H   0  0  0  0  0  0  0  0  0  0  0  0
    0.9417    3.3414    0.1935 H   0  0  0  0  0  0  0  0  0  0  0  0
    1.9676    2.8531    1.5646 H   0  0  0  0  0  0  0  0  0  0  0  0
    0.8841   -2.1617    2.0501 H   0  0  0  0  0  0  0  0  0  0  0  0
    1.0043   -3.2613    0.6396 H   0  0  0  0  0  0  0  0  0  0  0  0
   -0.5714   -3.1101    1.5075 H   0  0  0  0  0  0  0  0  0  0  0  0
   -1.0521   -1.0518   -1.5227 H   0  0  0  0  0  0  0  0  0  0  0  0
   -1.7235   -2.4269   -0.5558 H   0  0  0  0  0  0  0  0  0  0  0  0
   -0.1708   -2.6133   -1.4673 H   0  0  0  0  0  0  0  0  0  0  0  0
   -1.8996    0.2962    2.4120 H   0  0  0  0  0  0  0  0  0  0  0  0
   -2.0247   -1.4222    2.0045 H   0  0  0  0  0  0  0  0  0  0  0  0
   -4.4282   -1.3958    1.6736 H   0  0  0  0  0  0  0  0  0  0  0  0
   -6.3638   -0.8613    0.1911 H   0  0  0  0  0  0  0  0  0  0  0  0
   -6.0767    0.7284   -1.7297 H   0  0  0  0  0  0  0  0  0  0  0  0
   -3.8325    1.7722   -2.1522 H   0  0  0  0  0  0  0  0  0  0  0  0
   -1.9033    1.2360   -0.6827 H   0  0  0  0  0  0  0  0  0  0  0  0
  1  2  1  0  0  0  0
  1  6  1  0  0  0  0
  2  8  1  0  0  0  0
  3  2  1  0  0  0  0
  3  4  1  0  0  0  0
  4 15  1  0  0  0  0
  5 19  1  0  0  0  0
  5  4  1  0  0  0  0
  5 17  1  0  0  0  0
  6 22  1  0  0  0  0
  6 20  1  0  0  0  0
  7 24  1  0  0  0  0
  7  1  1  0  0  0  0
  8 27  1  0  0  0  0
  8 26  1  0  0  0  0
  9 10  1  0  0  0  0
  9  8  1  0  0  0  0
 10 28  1  0  0  0  0
 11 29  1  0  0  0  0
 11 10  2  0  0  0  0
 12 11  1  0  0  0  0
 13 12  2  0  0  0  0
 13 14  1  0  0  0  0
 14  9  2  0  0  0  0
 16  4  1  0  0  0  0
 18  5  1  0  0  0  0
 21  6  1  0  0  0  0
 23  7  1  0  0  0  0
 25  7  1  0  0  0  0
 30 12  1  0  0  0  0
 31 13  1  0  0  0  0
 32 14  1  0  0  0  0
M  END
