1,5
q = 0.0, confidence = 0.998

 37 39  0  0  0  0  0  0  0  0999 V2000
   -1.1740    1.0230   -0.1891 C   0  0  0  0  0  3  0  0  0  0  0  0
   -0.4568    2.2147   -0.0877 C   0  0  0  0  0  0  0  0  0  0  0  0
    1.0122    2.1987   -0.0531 C   0  0  0  0  0  0  0  0  0  0  0  0
    1.7170    3.2085    0.0288 O   0  0  0  0  0  0  0  0  0  0  0  0
    1.4257    0.8613   -0.2050 N   0  0  0  0  0  2  0  0  0  0  0  0
    2.7181    0.5735   -0.5329 C   0  0  0  0  0  0  0  0  0  0  0  0
    3.8311    1.4644   -0.3557 C   0  0  0  0  0  0  0  0  0  0  0  0
    3.6683    2.4675    0.0513 H   0  0  0  0  0  0  0  0  0  0  0  0
    5.1070    1.0682   -0.7026 C   0  0  0  0  0  3  0  0  0  0  0  0
    5.9748    1.7269   -0.5581 H   0  0  0  0  0  0  0  0  0  0  0  0
    5.3694   -0.1596   -1.2397 N   0  0  0  0  0  0  0  0  0  0  0  0
    6.7397   -0.5691   -1.5676 C   0  0  0  0  0  0  0  0  0  0  0  0
    7.1160   -1.2942   -0.8188 H   0  0  0  0  0  0  0  0  0  0  0  0
    7.3969    0.3178   -1.5739 H   0  0  0  0  0  0  0  0  0  0  0  0
    6.7613   -1.0365   -2.5700 H   0  0  0  0  0  0  0  0  0  0  0  0
    4.3285   -1.0270   -1.4473 C   0  0  0  0  0  0  0  0  0  0  0  0
    4.5860   -1.9853   -1.9197 H   0  0  0  0  0  0  0  0  0  0  0  0
    3.0353   -0.7008   -1.1075 C   0  0  0  0  0  0  0  0  0  0  0  0
    2.2149   -1.3895   -1.3501 H   0  0  0  0  0  0  0  0  0  0  0  0
   -2.4714    1.4635   -0.3282 N   0  0  0  0  0  0  0  0  0  0  0  0
   -3.6476    0.6677   -0.5247 C   0  0  0  0  0  0  0  0  0  0  0  0
   -4.8155    0.9646    0.1951 C   0  0  0  0  0  0  0  0  0  0  0  0
   -4.8279    1.8111    0.8960 H   0  0  0  0  0  0  0  0  0  0  0  0
   -5.9505    0.1653   -0.0018 C   0  0  0  0  0  0  0  0  0  0  0  0
   -6.8728    0.3855    0.5554 H   0  0  0  0  0  0  0  0  0  0  0  0
   -5.9092   -0.9116   -0.9028 C   0  0  0  0  0  0  0  0  0  0  0  0
   -6.8030   -1.5350   -1.0526 H   0  0  0  0  0  0  0  0  0  0  0  0
   -4.7327   -1.1859   -1.6210 C   0  0  0  0  0  0  0  0  0  0  0  0
   -4.7071   -2.0160   -2.3428 H   0  0  0  0  0  0  0  0  0  0  0  0
   -3.5892   -0.3946   -1.4424 C   0  0  0  0  0  0  0  0  0  0  0  0
   -2.6586   -0.5835   -2.0025 H   0  0  0  0  0  0  0  0  0  0  0  0
   -2.5895    2.8061   -0.3016 N   0  0  0  0  0  2  0  0  0  0  0  0
   -1.3546    3.2444   -0.1507 N   0  0  0  0  0  0  0  0  0  0  0  0
   -1.0837    4.6785   -0.0918 C   0  0  0  0  0  0  0  0  0  0  0  0
   -1.4912    5.1635   -0.9977 H   0  0  0  0  0  0  0  0  0  0  0  0
    0.0135    4.7985   -0.0407 H   0  0  0  0  0  0  0  0  0  0  0  0
   -1.5642    5.1080    0.8072 H   0  0  0  0  0  0  0  0  0  0  0  0
  1  2  2  0  0  0  0
  2  3  1  0  0  0  0
  3  4  2  0  0  0  0
  5  3  1  0  0  0  0
  6  7  2  0  0  0  0
  6  5  1  0  0  0  0
  7  8  1  0  0  0  0
  9 10  1  0  0  0  0
  9  7  1  0  0  0  0
 11  9  1  0  0  0  0
 12 11  1  0  0  0  0
 12 13  1  0  0  0  0
 14 12  1  0  0  0  0
 15 12  1  0  0  0  0
 16 11  1  0  0  0  0
 16 18  2  0  0  0  0
 17 16  1  0  0  0  0
 18  6  1  0  0  0  0
 19 18  1  0  0  0  0
 20 32  1  0  0  0  0
 20  1  1  0  0  0  0
 21 20  1  0  0  0  0
 21 22  1  0  0  0  0
 22 23  1  0  0  0  0
 24 22  2  0  0  0  0
 24 25  1  0  0  0  0
 26 24  1  0  0  0  0
 27 26  1  0  0  0  0
 28 30  1  0  0  0  0
 28 26  2  0  0  0  0
 29 28  1  0  0  0  0
 30 21  2  0  0  0  0
 31 30  1  0  0  0  0
 32 33  1  0  0  0  0
 33 34  1  0  0  0  0
 33  2  1  0  0  0  0
 34 36  1  0  0  0  0
 34 37  1  0  0  0  0
 35 34  1  0  0  0  0
M  END
