2,7
q = -2.0, confidence = 0.904

 47 47  0  0  1  0  0  0  0  0999 V2000
   -2.3775   -2.0342   -0.5098 Si  0  0  0  0  0  0  0  0  0  0  0  0
   -1.0379   -1.4725    0.4777 N   0  0  0  0  0  2  0  0  0  0  0  0
   -1.2184   -0.0470   -2.2727 C   0  0  0  0  0  0  0  0  0  0  0  0
   -1.4136    1.3352   -1.9553 C   0  0  0  0  0  0  0  0  0  0  0  0
   -0.1510    2.0065   -2.1045 C   0  0  0  0  0  0  0  0  0  0  0  0
    0.8225    1.0389   -2.5170 C   0  0  0  0  0  0  0  0  0  0  0  0
    0.1628   -0.2342   -2.6044 C   0  0  2  0  0  3  0  0  0  0  0  0
   -2.2442   -1.1429   -2.2100 C   0  0  0  0  0  0  0  0  0  0  0  0
   -2.7324    1.9824   -1.6347 C   0  0  0  0  0  0  0  0  0  0  0  0
    0.0917    3.4844   -1.9735 C   0  0  0  0  0  0  0  0  0  0  0  0
    2.2359    1.3439   -2.9216 C   0  0  0  0  0  0  0  0  0  0  0  0
    0.7694   -1.5405   -3.0371 C   0  0  0  0  0  0  0  0  0  0  0  0
   -4.0940   -1.5842    0.1996 C   0  0  0  0  0  0  0  0  0  0  0  0
   -2.4179   -3.9050   -0.8730 C   0  0  0  0  0  0  0  0  0  0  0  0
   -0.6211   -2.1530    1.7242 C   0  0  0  0  0  0  0  0  0  0  0  0
    0.1755   -1.1516    2.5926 C   0  0  0  0  0  0  0  0  0  0  0  0
   -1.8118   -2.6464    2.5738 C   0  0  0  0  0  0  0  0  0  0  0  0
    0.3002   -3.3526    1.4017 C   0  0  0  0  0  0  0  0  0  0  0  0
   -2.0103   -1.9181   -2.9704 H   0  0  0  0  0  0  0  0  0  0  0  0
   -3.2504   -0.7551   -2.4757 H   0  0  0  0  0  0  0  0  0  0  0  0
   -3.2469    2.3412   -2.5541 H   0  0  0  0  0  0  0  0  0  0  0  0
   -2.6211    2.8675   -0.9743 H   0  0  0  0  0  0  0  0  0  0  0  0
   -3.4307    1.2781   -1.1389 H   0  0  0  0  0  0  0  0  0  0  0  0
    0.1232    3.9864   -2.9663 H   0  0  0  0  0  0  0  0  0  0  0  0
    1.0586    3.7132   -1.4772 H   0  0  0  0  0  0  0  0  0  0  0  0
   -0.7114    3.9861   -1.3958 H   0  0  0  0  0  0  0  0  0  0  0  0
    2.6502    2.2103   -2.3678 H   0  0  0  0  0  0  0  0  0  0  0  0
    2.3018    1.5917   -4.0045 H   0  0  0  0  0  0  0  0  0  0  0  0
    2.9170    0.4895   -2.7412 H   0  0  0  0  0  0  0  0  0  0  0  0
    0.3830   -1.8546   -4.0319 H   0  0  0  0  0  0  0  0  0  0  0  0
    0.5374   -2.3657   -2.3307 H   0  0  0  0  0  0  0  0  0  0  0  0
    1.8706   -1.4772   -3.1181 H   0  0  0  0  0  0  0  0  0  0  0  0
   -4.8920   -1.8429   -0.5285 H   0  0  0  0  0  0  0  0  0  0  0  0
   -4.1667   -0.4942    0.4001 H   0  0  0  0  0  0  0  0  0  0  0  0
   -4.3184   -2.1127    1.1474 H   0  0  0  0  0  0  0  0  0  0  0  0
   -3.2504   -4.1294   -1.5734 H   0  0  0  0  0  0  0  0  0  0  0  0
   -2.5711   -4.5260    0.0328 H   0  0  0  0  0  0  0  0  0  0  0  0
   -1.4743   -4.2335   -1.3559 H   0  0  0  0  0  0  0  0  0  0  0  0
    0.5684   -1.6278    3.5131 H   0  0  0  0  0  0  0  0  0  0  0  0
   -0.4652   -0.3006    2.9039 H   0  0  0  0  0  0  0  0  0  0  0  0
    1.0722   -0.7524    2.0649 H   0  0  0  0  0  0  0  0  0  0  0  0
   -1.4617   -3.1021    3.5232 H   0  0  0  0  0  0  0  0  0  0  0  0
   -2.4036   -3.4140    2.0368 H   0  0  0  0  0  0  0  0  0  0  0  0
   -2.4894   -1.8045    2.8227 H   0  0  0  0  0  0  0  0  0  0  0  0
    0.6661   -3.8544    2.3225 H   0  0  0  0  0  0  0  0  0  0  0  0
    1.1804   -3.0121    0.8194 H   0  0  0  0  0  0  0  0  0  0  0  0
   -0.2356   -4.1038    0.7904 H   0  0  0  0  0  0  0  0  0  0  0  0
  1 13  1  0  0  0  0
  1  2  1  0  0  0  0
  2 15  1  0  0  0  0
  3  8  1  0  0  0  0
  3  4  2  0  0  0  0
  4  9  1  0  0  0  0
  5 10  1  0  0  0  0
  5  4  1  0  0  0  0
  6  5  2  0  0  0  0
  7 12  1  6  0  0  0
  7  6  1  0  0  0  0
  7  3  1  0  0  0  0
  8  1  1  0  0  0  0
  9 23  1  0  0  0  0
  9 22  1  0  0  0  0
 10 25  1  0  0  0  0
 10 26  1  0  0  0  0
 11 29  1  0  0  0  0
 11  6  1  0  0  0  0
 11 27  1  0  0  0  0
 12 31  1  0  0  0  0
 13 34  1  0  0  0  0
 13 35  1  0  0  0  0
 14  1  1  0  0  0  0
 14 37  1  0  0  0  0
 15 17  1  0  0  0  0
 15 16  1  0  0  0  0
 16 40  1  0  0  0  0
 16 39  1  0  0  0  0
 17 44  1  0  0  0  0
 17 42  1  0  0  0  0
 18 15  1  0  0  0  0
 18 45  1  0  0  0  0
 19  8  1  0  0  0  0
 20  8  1  0  0  0  0
 21  9  1  0  0  0  0
 24 10  1  0  0  0  0
 28 11  1  0  0  0  0
 30 12  1  0  0  0  0
 32 12  1  0  0  0  0
 33 13  1  0  0  0  0
 36 14  1  0  0  0  0
 38 14  1  0  0  0  0
 41 16  1  0  0  0  0
 43 17  1  0  0  0  0
 46 18  1  0  0  0  0
 47 18  1  0  0  0  0
M  END
