2,4
q = -1.0, confidence = 0.0

 24 26  0  0  1  0  0  0  0  0999 V2000
   -2.8166   -4.2178    0.0981 Br  0  0  0  0  0  0  0  0  0  0  0  0
    2.8804   -0.4892    0.0277 N   0  0  0  0  0  2  0  0  0  0  0  0
    4.9818   -1.2560   -0.0138 N   0  0  0  0  0  0  0  0  0  0  0  0
    0.4338   -1.5618    0.0307 C   0  0  0  0  0  2  0  0  0  0  0  0
   -0.8567   -2.1328    0.0743 C   0  0  0  0  0  0  0  0  0  0  0  0
   -1.7572   -1.5090    0.1174 H   0  0  0  0  0  0  0  0  0  0  0  0
   -1.0371   -3.5239    0.0536 C   0  0  0  0  0  0  0  0  0  0  0  0
    0.0444   -4.4176   -0.0033 C   0  0  0  0  0  0  0  0  0  0  0  0
   -0.1228   -5.5028   -0.0225 H   0  0  0  0  0  0  0  0  0  0  0  0
    1.3346   -3.8784   -0.0294 C   0  0  0  0  0  0  0  0  0  0  0  0
    2.2015   -4.5571   -0.0655 H   0  0  0  0  0  0  0  0  0  0  0  0
    1.5335   -2.4841   -0.0091 C   0  0  2  0  0  3  0  0  0  0  0  0
    2.8491   -1.8716   -0.0126 C   0  0  0  0  0  0  0  0  0  0  0  0
    4.1505   -2.3628   -0.0389 C   0  0  0  0  0  0  0  0  0  0  0  0
    4.5455   -3.3814   -0.0714 H   0  0  0  0  0  0  0  0  0  0  0  0
    6.3550   -1.1763   -0.0235 C   0  0  0  0  0  3  0  0  0  0  0  0
    6.8962   -2.1313   -0.0562 H   0  0  0  0  0  0  0  0  0  0  0  0
    6.9607    0.0625    0.0076 C   0  0  0  0  0  0  0  0  0  0  0  0
    8.0580    0.1156   -0.0005 H   0  0  0  0  0  0  0  0  0  0  0  0
    6.1705    1.2462    0.0493 C   0  0  0  0  0  0  0  0  0  0  0  0
    6.6632    2.2288    0.0733 H   0  0  0  0  0  0  0  0  0  0  0  0
    4.7847    1.1719    0.0596 C   0  0  0  0  0  0  0  0  0  0  0  0
    4.1140    2.0455    0.0887 H   0  0  0  0  0  0  0  0  0  0  0  0
    4.1734   -0.1007    0.0274 C   0  0  0  0  0  0  0  0  0  0  0  0
  3 24  1  0  0  0  0
  4  5  1  0  0  0  0
  5  6  1  0  0  0  0
  7  5  2  0  0  0  0
  7  1  1  0  0  0  0
  8  7  1  0  0  0  0
  9  8  1  0  0  0  0
 10 12  1  0  0  0  0
 10  8  2  0  0  0  0
 11 10  1  0  0  0  0
 12 13  1  1  0  0  0
 12  4  1  0  0  0  0
 13  2  1  0  0  0  0
 14  3  1  0  0  0  0
 14 13  2  0  0  0  0
 15 14  1  0  0  0  0
 16  3  1  0  0  0  0
 16 18  1  0  0  0  0
 17 16  1  0  0  0  0
 18 20  2  0  0  0  0
 19 18  1  0  0  0  0
 20 22  1  0  0  0  0
 20 21  1  0  0  0  0
 22 23  1  0  0  0  0
 24  2  1  0  0  0  0
 24 22  2  0  0  0  0
M  END
