3,33
q = 0.0, confidence = 0.998

 48 51  0  0  1  0  0  0  0  0999 V2000
   -0.9192    1.1798    0.0016 N   0  0  0  0  0  0  0  0  0  0  0  0
    1.2130    1.4031    0.0014 N   0  0  0  0  0  0  0  0  0  0  0  0
    2.7843   -0.2576   -0.0009 N   0  0  0  0  0  2  0  0  0  0  0  0
   -2.2625    0.6478    0.0013 C   0  0  0  0  0  0  0  0  0  0  0  0
   -2.8865    0.4090   -1.2431 C   0  0  0  0  0  0  0  0  0  0  0  0
   -4.2068   -0.0752   -1.2134 C   0  0  0  0  0  0  0  0  0  0  0  0
   -4.7243   -0.2833   -2.1619 H   0  0  0  0  0  0  0  0  0  0  0  0
   -4.8613   -0.3136    0.0009 C   0  0  0  0  0  0  0  0  0  0  0  0
   -5.8925   -0.6982    0.0007 H   0  0  0  0  0  0  0  0  0  0  0  0
   -4.2049   -0.0813    1.2153 C   0  0  0  0  0  0  0  0  0  0  0  0
   -4.7211   -0.2941    2.1636 H   0  0  0  0  0  0  0  0  0  0  0  0
   -2.8846    0.4027    1.2454 C   0  0  0  0  0  0  0  0  0  0  0  0
   -2.1626    0.5990   -2.5690 C   0  0  0  0  0  0  0  0  0  0  0  0
   -1.1582    1.0162   -2.3514 H   0  0  0  0  0  0  0  0  0  0  0  0
   -1.9453   -0.7581   -3.2627 C   0  0  0  0  0  0  0  0  0  0  0  0
   -1.4377   -1.4699   -2.5818 H   0  0  0  0  0  0  0  0  0  0  0  0
   -1.3307   -0.6322   -4.1775 H   0  0  0  0  0  0  0  0  0  0  0  0
   -2.9128   -1.2097   -3.5658 H   0  0  0  0  0  0  0  0  0  0  0  0
   -2.8878    1.6036   -3.4791 C   0  0  0  0  0  0  0  0  0  0  0  0
   -3.8990    1.2422   -3.7582 H   0  0  0  0  0  0  0  0  0  0  0  0
   -2.3200    1.7563   -4.4195 H   0  0  0  0  0  0  0  0  0  0  0  0
   -3.0091    2.5895   -2.9856 H   0  0  0  0  0  0  0  0  0  0  0  0
   -2.1592    0.5870    2.5713 C   0  0  0  0  0  0  0  0  0  0  0  0
   -1.1535    1.0012    2.3541 H   0  0  0  0  0  0  0  0  0  0  0  0
   -2.8806    1.5920    3.4838 C   0  0  0  0  0  0  0  0  0  0  0  0
   -2.9983    2.5796    2.9927 H   0  0  0  0  0  0  0  0  0  0  0  0
   -2.3123    1.7405    4.4247 H   0  0  0  0  0  0  0  0  0  0  0  0
   -3.8932    1.2337    3.7620 H   0  0  0  0  0  0  0  0  0  0  0  0
   -1.9458   -0.7723    3.2619 C   0  0  0  0  0  0  0  0  0  0  0  0
   -2.9144   -1.2214    3.5651 H   0  0  0  0  0  0  0  0  0  0  0  0
   -1.3300   -0.6502    4.1765 H   0  0  0  0  0  0  0  0  0  0  0  0
   -1.4408   -1.4840    2.5791 H   0  0  0  0  0  0  0  0  0  0  0  0
    0.2305    0.4378    0.0001 C   0  0  0  0  0  2  0  0  0  0  0  0
   -0.6566    2.5532    0.0036 C   0  0  0  0  0  0  0  0  0  0  0  0
   -1.4703    3.2828    0.0050 H   0  0  0  0  0  0  0  0  0  0  0  0
    0.7207    2.7149    0.0035 C   0  0  0  0  0  0  0  0  0  0  0  0
    1.6949    3.7701    0.0050 C   0  0  0  0  0  0  0  0  0  0  0  0
    1.3511    4.8135    0.0066 H   0  0  0  0  0  0  0  0  0  0  0  0
    3.0388    3.4682    0.0043 C   0  0  0  0  0  0  0  0  0  0  0  0
    3.7833    4.2777    0.0054 H   0  0  0  0  0  0  0  0  0  0  0  0
    3.5155    2.0946    0.0023 C   0  0  0  0  0  0  0  0  0  0  0  0
    2.5448    1.0691    0.0009 C   0  0  2  0  0  3  0  0  0  0  0  0
    4.8578    1.6470    0.0016 C   0  0  0  0  0  0  0  0  0  0  0  0
    5.6793    2.3790    0.0026 H   0  0  0  0  0  0  0  0  0  0  0  0
    5.1238    0.2696   -0.0003 C   0  0  0  0  0  0  0  0  0  0  0  0
    6.1591   -0.0993   -0.0008 H   0  0  0  0  0  0  0  0  0  0  0  0
    4.0715   -0.6631   -0.0015 C   0  0  0  0  0  0  0  0  0  0  0  0
    4.2008   -1.7597   -0.0029 H   0  0  0  0  0  0  0  0  0  0  0  0
  1 34  1  0  0  0  0
  2 36  1  0  0  0  0
  4  1  1  0  0  0  0
  4 12  1  0  0  0  0
  5  6  1  0  0  0  0
  5  4  2  0  0  0  0
  6  8  2  0  0  0  0
  7  6  1  0  0  0  0
  8 10  1  0  0  0  0
  9  8  1  0  0  0  0
 10 12  2  0  0  0  0
 10 11  1  0  0  0  0
 12 23  1  0  0  0  0
 13 14  1  0  0  0  0
 13  5  1  0  0  0  0
 15 16  1  0  0  0  0
 15 13  1  0  0  0  0
 17 15  1  0  0  0  0
 18 15  1  0  0  0  0
 19 22  1  0  0  0  0
 19 13  1  0  0  0  0
 20 19  1  0  0  0  0
 21 19  1  0  0  0  0
 23 29  1  0  0  0  0
 23 25  1  0  0  0  0
 24 23  1  0  0  0  0
 25 28  1  0  0  0  0
 25 27  1  0  0  0  0
 26 25  1  0  0  0  0
 29 30  1  0  0  0  0
 29 31  1  0  0  0  0
 32 29  1  0  0  0  0
 33  2  1  0  0  0  0
 33  1  1  0  0  0  0
 34 35  1  0  0  0  0
 36 34  2  0  0  0  0
 36 37  1  0  0  0  0
 37 38  1  0  0  0  0
 39 37  2  0  0  0  0
 39 40  1  0  0  0  0
 41 39  1  0  0  0  0
 42  3  1  1  0  0  0
 42  2  1  0  0  0  0
 42 41  1  0  0  0  0
 43 41  2  0  0  0  0
 43 44  1  0  0  0  0
 45 43  1  0  0  0  0
 46 45  1  0  0  0  0
 47  3  1  0  0  0  0
 47 45  2  0  0  0  0
 48 47  1  0  0  0  0
M  END
