1,14
q = 0.0, confidence = 0.998

 29 30  0  0  1  0  0  0  0  0999 V2000
   -1.1487    1.6707   -0.3807 N   0  0  0  0  0  2  0  0  0  0  0  0
   -2.4825    1.7844   -0.2319 C   0  0  0  0  0  3  0  0  0  0  0  0
   -3.0378    0.8325   -0.1918 H   0  0  0  0  0  0  0  0  0  0  0  0
   -3.1096    3.0318   -0.1407 C   0  0  0  0  0  0  0  0  0  0  0  0
   -4.2009    3.0839   -0.0216 H   0  0  0  0  0  0  0  0  0  0  0  0
   -2.3213    4.1897   -0.1895 C   0  0  0  0  0  0  0  0  0  0  0  0
   -2.7817    5.1862   -0.1103 H   0  0  0  0  0  0  0  0  0  0  0  0
   -0.9329    4.0607   -0.3287 C   0  0  0  0  0  0  0  0  0  0  0  0
   -0.2799    4.9450   -0.3578 H   0  0  0  0  0  0  0  0  0  0  0  0
   -0.3706    2.7784   -0.4262 C   0  0  0  0  0  0  0  0  0  0  0  0
    1.1050    2.5239   -0.5959 C   0  0  0  0  0  0  0  0  0  0  0  0
    1.6835    3.4110   -0.2576 H   0  0  0  0  0  0  0  0  0  0  0  0
    1.2943    2.4215   -1.6861 H   0  0  0  0  0  0  0  0  0  0  0  0
    1.5226    1.2564    0.1502 C   0  0  0  0  0  3  0  0  0  0  0  0
    1.3079    1.3470    1.2305 H   0  0  0  0  0  0  0  0  0  0  0  0
    2.8317    0.7069   -0.1409 C   0  0  2  0  0  3  0  0  0  0  0  0
    3.5001    0.8830   -1.3867 C   0  0  0  0  0  0  0  0  0  0  0  0
    3.0457    1.5546   -2.1235 H   0  0  0  0  0  0  0  0  0  0  0  0
    4.6836    0.2253   -1.6863 C   0  0  0  0  0  0  0  0  0  0  0  0
    5.1630    0.3727   -2.6654 H   0  0  0  0  0  0  0  0  0  0  0  0
    5.2673   -0.6291   -0.7256 C   0  0  0  0  0  0  0  0  0  0  0  0
    6.1959   -1.1813   -0.9184 H   0  0  0  0  0  0  0  0  0  0  0  0
    4.6411   -0.7472    0.5004 C   0  0  0  0  0  0  0  0  0  0  0  0
    5.0459   -1.3686    1.3103 H   0  0  0  0  0  0  0  0  0  0  0  0
    3.4827   -0.0887    0.7957 N   0  0  0  0  0  0  0  0  0  0  0  0
    2.9274   -0.2235    2.1456 C   0  0  0  0  0  0  0  0  0  0  0  0
    2.9525    0.7578    2.6590 H   0  0  0  0  0  0  0  0  0  0  0  0
    3.5322   -0.9523    2.7111 H   0  0  0  0  0  0  0  0  0  0  0  0
    1.8633   -0.5560    2.1155 H   0  0  0  0  0  0  0  0  0  0  0  0
  1  2  1  0  0  0  0
  2  3  1  0  0  0  0
  2  4  1  0  0  0  0
  4  5  1  0  0  0  0
  6  4  2  0  0  0  0
  6  7  1  0  0  0  0
  8  6  1  0  0  0  0
  9  8  1  0  0  0  0
 10  1  1  0  0  0  0
 10  8  2  0  0  0  0
 11 10  1  0  0  0  0
 11 12  1  0  0  0  0
 11 14  1  0  0  0  0
 13 11  1  0  0  0  0
 14 15  1  0  0  0  0
 16 14  1  6  0  0  0
 16 25  1  0  0  0  0
 17 16  1  0  0  0  0
 18 17  1  0  0  0  0
 19 17  2  0  0  0  0
 19 21  1  0  0  0  0
 20 19  1  0  0  0  0
 21 23  2  0  0  0  0
 22 21  1  0  0  0  0
 23 25  1  0  0  0  0
 23 24  1  0  0  0  0
 25 26  1  0  0  0  0
 26 27  1  0  0  0  0
 26 28  1  0  0  0  0
 29 26  1  0  0  0  0
M  END
