5,6
q = -1.0, confidence = 0.0

 42 44  0  0  0  0  0  0  0  0999 V2000
   -6.0012    0.1977   -0.2520 O   0  0  0  0  0  0  0  0  0  0  0  0
    1.1819   -2.9962   -2.6529 O   0  0  0  0  0  0  0  0  0  0  0  0
   -0.2504    2.2109   -2.2037 N   0  0  0  0  0  0  0  0  0  0  0  0
    1.0668    0.5616   -2.6705 N   0  0  0  0  0  0  0  0  0  0  0  0
   -0.1183   -1.6530   -1.2471 N   0  0  0  0  0  2  0  0  0  0  0  0
    0.2711    1.0613   -1.6874 C   0  0  0  0  0  2  0  0  0  0  0  0
    0.2182    2.4255   -3.4951 C   0  0  0  0  0  0  0  0  0  0  0  0
   -0.0796    3.2965   -4.0860 H   0  0  0  0  0  0  0  0  0  0  0  0
    1.0552    1.3784   -3.7922 C   0  0  0  0  0  0  0  0  0  0  0  0
    1.6346    1.1536   -4.6921 H   0  0  0  0  0  0  0  0  0  0  0  0
   -1.2249    3.0565   -1.5119 C   0  0  0  0  0  0  0  0  0  0  0  0
   -1.4169    3.9230   -2.1784 H   0  0  0  0  0  0  0  0  0  0  0  0
   -0.7576    3.4549   -0.5895 H   0  0  0  0  0  0  0  0  0  0  0  0
   -2.5107    2.3272   -1.1815 C   0  0  0  0  0  0  0  0  0  0  0  0
   -3.0335    1.3297   -2.0323 C   0  0  0  0  0  0  0  0  0  0  0  0
   -2.4938    1.0534   -2.9510 H   0  0  0  0  0  0  0  0  0  0  0  0
   -4.2056    0.6472   -1.7066 C   0  0  0  0  0  0  0  0  0  0  0  0
   -4.5962   -0.1560   -2.3469 H   0  0  0  0  0  0  0  0  0  0  0  0
   -4.8944    0.9500   -0.5117 C   0  0  0  0  0  0  0  0  0  0  0  0
   -4.4008    1.9658    0.3315 C   0  0  0  0  0  0  0  0  0  0  0  0
   -4.9108    2.2264    1.2684 H   0  0  0  0  0  0  0  0  0  0  0  0
   -3.2151    2.6403   -0.0087 C   0  0  0  0  0  0  0  0  0  0  0  0
   -2.8127    3.3893    0.6904 H   0  0  0  0  0  0  0  0  0  0  0  0
   -6.7193    0.4543    0.9393 C   0  0  0  0  0  0  0  0  0  0  0  0
   -6.0939    0.2863    1.8454 H   0  0  0  0  0  0  0  0  0  0  0  0
   -7.5680   -0.2544    0.9531 H   0  0  0  0  0  0  0  0  0  0  0  0
   -7.1155    1.4942    0.9705 H   0  0  0  0  0  0  0  0  0  0  0  0
    1.7791   -0.6989   -2.5053 C   0  0  0  0  0  0  0  0  0  0  0  0
    2.5686   -0.5751   -1.7342 H   0  0  0  0  0  0  0  0  0  0  0  0
    2.2665   -0.9629   -3.4602 H   0  0  0  0  0  0  0  0  0  0  0  0
    0.8871   -1.9087   -2.1279 C   0  0  0  0  0  0  0  0  0  0  0  0
   -1.1688   -2.5632   -1.0084 C   0  0  0  0  0  0  0  0  0  0  0  0
   -2.3704   -2.0485   -0.4550 C   0  0  0  0  0  0  0  0  0  0  0  0
   -2.4338   -0.9640   -0.2804 H   0  0  0  0  0  0  0  0  0  0  0  0
   -3.4622   -2.8765   -0.1775 C   0  0  0  0  0  0  0  0  0  0  0  0
   -4.3861   -2.4282    0.2211 H   0  0  0  0  0  0  0  0  0  0  0  0
   -3.3883   -4.2562   -0.4366 C   0  0  0  0  0  0  0  0  0  0  0  0
   -4.2438   -4.9135   -0.2196 H   0  0  0  0  0  0  0  0  0  0  0  0
   -2.2097   -4.7784   -0.9911 C   0  0  0  0  0  0  0  0  0  0  0  0
   -2.1377   -5.8558   -1.2090 H   0  0  0  0  0  0  0  0  0  0  0  0
   -1.1108   -3.9551   -1.2847 C   0  0  0  0  0  0  0  0  0  0  0  0
   -0.2037   -4.3612   -1.7462 H   0  0  0  0  0  0  0  0  0  0  0  0
  1 24  1  0  0  0  0
  2 31  2  0  0  0  0
  3  6  1  0  0  0  0
  3 11  1  0  0  0  0
  4 28  1  0  0  0  0
  4  6  1  0  0  0  0
  5 32  1  0  0  0  0
  7  3  1  0  0  0  0
  8  7  1  0  0  0  0
  9  7  2  0  0  0  0
  9  4  1  0  0  0  0
 10  9  1  0  0  0  0
 11 14  1  0  0  0  0
 11 13  1  0  0  0  0
 12 11  1  0  0  0  0
 14 22  1  0  0  0  0
 15 17  1  0  0  0  0
 15 14  2  0  0  0  0
 16 15  1  0  0  0  0
 17 19  2  0  0  0  0
 18 17  1  0  0  0  0
 19  1  1  0  0  0  0
 19 20  1  0  0  0  0
 20 21  1  0  0  0  0
 22 20  2  0  0  0  0
 22 23  1  0  0  0  0
 24 26  1  0  0  0  0
 24 27  1  0  0  0  0
 24 25  1  0  0  0  0
 28 31  1  0  0  0  0
 28 29  1  0  0  0  0
 30 28  1  0  0  0  0
 31  5  1  0  0  0  0
 32 33  1  0  0  0  0
 33 34  1  0  0  0  0
 33 35  2  0  0  0  0
 35 36  1  0  0  0  0
 37 38  1  0  0  0  0
 37 35  1  0  0  0  0
 39 37  2  0  0  0  0
 40 39  1  0  0  0  0
 41 32  2  0  0  0  0
 41 39  1  0  0  0  0
 42 41  1  0  0  0  0
M  END
