3,10
q = -1.0, confidence = 0.002

 31 32  0  0  1  0  0  0  0  0999 V2000
   -3.9643   -2.5238    0.3755 O   0  0  0  0  0  0  0  0  0  0  0  0
   -2.6684   -2.1765    0.3727 C   0  0  2  0  0  3  0  0  0  0  0  0
   -2.3781   -1.0234    0.8940 N   0  0  0  0  0  2  0  0  0  0  0  0
   -3.6201   -0.3153    1.2224 C   0  0  2  0  0  0  0  0  0  0  0  0
   -3.5558    0.0853    2.2538 H   0  0  0  0  0  0  0  0  0  0  0  0
   -4.6575   -1.4740    1.1191 C   0  0  0  0  0  0  0  0  0  0  0  0
   -4.9308   -1.8938    2.1090 H   0  0  0  0  0  0  0  0  0  0  0  0
   -5.5710   -1.2025    0.5588 H   0  0  0  0  0  0  0  0  0  0  0  0
   -1.6095   -3.0143   -0.2835 C   0  0  0  0  0  0  0  0  0  0  0  0
   -0.2489   -2.4472    0.1977 C   0  0  0  0  0  3  0  0  0  0  0  0
    0.5442   -2.7014   -0.5300 H   0  0  0  0  0  0  0  0  0  0  0  0
    0.0294   -2.8986    1.1769 H   0  0  0  0  0  0  0  0  0  0  0  0
   -1.7838   -4.5034    0.0702 C   0  0  0  0  0  0  0  0  0  0  0  0
   -2.7620   -4.8923   -0.2793 H   0  0  0  0  0  0  0  0  0  0  0  0
   -1.7176   -4.6631    1.1650 H   0  0  0  0  0  0  0  0  0  0  0  0
   -0.9791   -5.0948   -0.4100 H   0  0  0  0  0  0  0  0  0  0  0  0
   -1.7585   -2.8126   -1.8117 C   0  0  0  0  0  0  0  0  0  0  0  0
   -2.7653   -3.1067   -2.1695 H   0  0  0  0  0  0  0  0  0  0  0  0
   -1.0046   -3.4352   -2.3341 H   0  0  0  0  0  0  0  0  0  0  0  0
   -1.5764   -1.7534   -2.0822 H   0  0  0  0  0  0  0  0  0  0  0  0
   -3.9059    0.8443    0.2761 C   0  0  0  0  0  0  0  0  0  0  0  0
   -4.9218    1.7591    0.6129 C   0  0  0  0  0  0  0  0  0  0  0  0
   -5.4609    1.6487    1.5681 H   0  0  0  0  0  0  0  0  0  0  0  0
   -5.2415    2.8207   -0.2452 C   0  0  0  0  0  0  0  0  0  0  0  0
   -6.0337    3.5314    0.0356 H   0  0  0  0  0  0  0  0  0  0  0  0
   -4.5410    2.9859   -1.4510 C   0  0  0  0  0  0  0  0  0  0  0  0
   -4.7841    3.8246   -2.1210 H   0  0  0  0  0  0  0  0  0  0  0  0
   -3.5232    2.0815   -1.7898 C   0  0  0  0  0  0  0  0  0  0  0  0
   -2.9548    2.2099   -2.7238 H   0  0  0  0  0  0  0  0  0  0  0  0
   -3.2102    1.0156   -0.9333 C   0  0  0  0  0  0  0  0  0  0  0  0
   -2.3862    0.3321   -1.1858 H   0  0  0  0  0  0  0  0  0  0  0  0
  1  6  1  0  0  0  0
  2  9  1  6  0  0  0
  2  1  1  0  0  0  0
  2  3  1  0  0  0  0
  3  4  1  0  0  0  0
  4  5  1  1  0  0  0
  6  4  1  0  0  0  0
  6  7  1  0  0  0  0
  8  6  1  0  0  0  0
  9 13  1  0  0  0  0
  9 10  1  0  0  0  0
 10 12  1  0  0  0  0
 11 10  1  0  0  0  0
 13 15  1  0  0  0  0
 14 13  1  0  0  0  0
 16 13  1  0  0  0  0
 17  9  1  0  0  0  0
 18 17  1  0  0  0  0
 19 17  1  0  0  0  0
 20 17  1  0  0  0  0
 21 22  1  0  0  0  0
 21  4  1  0  0  0  0
 22 23  1  0  0  0  0
 24 25  1  0  0  0  0
 24 22  2  0  0  0  0
 26 24  1  0  0  0  0
 27 26  1  0  0  0  0
 28 26  2  0  0  0  0
 28 30  1  0  0  0  0
 29 28  1  0  0  0  0
 30 21  2  0  0  0  0
 31 30  1  0  0  0  0
M  END
