2,3
q = -2.0, confidence = 0.676

 27 29  0  0  0  0  0  0  0  0999 V2000
   -1.9518   -0.2906   -0.2796 N   0  0  0  0  0  0  0  0  0  0  0  0
   -0.8191    0.4031   -0.2641 N   0  0  0  0  0  0  0  0  0  0  0  0
    1.3803    1.7391   -0.2689 C   0  0  0  0  0  3  0  0  0  0  0  0
    2.6232    2.3938   -0.3013 C   0  0  0  0  0  0  0  0  0  0  0  0
    2.7114    3.7886   -0.1288 C   0  0  0  0  0  0  0  0  0  0  0  0
    1.5477    4.5503    0.0683 C   0  0  0  0  0  0  0  0  0  0  0  0
    0.2953    3.9205    0.0877 C   0  0  0  0  0  0  0  0  0  0  0  0
    0.2011    2.5244   -0.0823 C   0  0  0  0  0  0  0  0  0  0  0  0
   -1.0248    1.7480   -0.0874 C   0  0  0  0  0  0  0  0  0  0  0  0
   -2.4117    1.9292    0.0277 C   0  0  0  0  0  0  0  0  0  0  0  0
   -2.9533    0.6200   -0.0986 C   0  0  0  0  0  3  0  0  0  0  0  0
   -4.3578    0.1898   -0.0581 C   0  0  0  0  0  0  0  0  0  0  0  0
   -5.3902    1.0871    0.2998 C   0  0  0  0  0  0  0  0  0  0  0  0
   -6.7272    0.6692    0.3359 C   0  0  0  0  0  0  0  0  0  0  0  0
   -7.0658   -0.6562    0.0187 C   0  0  0  0  0  0  0  0  0  0  0  0
   -6.0490   -1.5586   -0.3376 C   0  0  0  0  0  0  0  0  0  0  0  0
   -4.7130   -1.1422   -0.3780 C   0  0  0  0  0  0  0  0  0  0  0  0
    3.5455    1.8138   -0.4703 H   0  0  0  0  0  0  0  0  0  0  0  0
    3.6962    4.2808   -0.1558 H   0  0  0  0  0  0  0  0  0  0  0  0
    1.6166    5.6407    0.2006 H   0  0  0  0  0  0  0  0  0  0  0  0
   -0.6222    4.5114    0.2349 H   0  0  0  0  0  0  0  0  0  0  0  0
   -2.9483    2.8733    0.1643 H   0  0  0  0  0  0  0  0  0  0  0  0
   -5.1396    2.1259    0.5619 H   0  0  0  0  0  0  0  0  0  0  0  0
   -7.5137    1.3862    0.6184 H   0  0  0  0  0  0  0  0  0  0  0  0
   -8.1161   -0.9840    0.0481 H   0  0  0  0  0  0  0  0  0  0  0  0
   -6.3026   -2.5996   -0.5921 H   0  0  0  0  0  0  0  0  0  0  0  0
   -3.9145   -1.8408   -0.6666 H   0  0  0  0  0  0  0  0  0  0  0  0
  1  2  2  0  0  0  0
  1 11  1  0  0  0  0
  2  9  1  0  0  0  0
  3  8  1  0  0  0  0
  4  3  2  0  0  0  0
  4  5  1  0  0  0  0
  5  6  2  0  0  0  0
  6  7  1  0  0  0  0
  6 20  1  0  0  0  0
  7 21  1  0  0  0  0
  8  7  2  0  0  0  0
  9  8  1  0  0  0  0
  9 10  2  0  0  0  0
 10 22  1  0  0  0  0
 11 12  1  0  0  0  0
 11 10  1  0  0  0  0
 12 13  1  0  0  0  0
 13 14  2  0  0  0  0
 13 23  1  0  0  0  0
 14 24  1  0  0  0  0
 15 25  1  0  0  0  0
 15 14  1  0  0  0  0
 16 15  2  0  0  0  0
 17 16  1  0  0  0  0
 17 12  2  0  0  0  0
 18  4  1  0  0  0  0
 19  5  1  0  0  0  0
 26 16  1  0  0  0  0
 27 17  1  0  0  0  0
M  END
