4,7
q = -2.0, confidence = 0.874

 39 40  0  0  0  0  0  0  0  0999 V2000
    1.4228   -1.8298    0.7168 S   0  0  0  0  0  0  0  0  0  0  0  0
    0.9806   -1.3420    2.0464 O   0  0  0  0  0  0  0  0  0  0  0  0
    1.5889   -3.2931    0.4892 O   0  0  0  0  0  0  0  0  0  0  0  0
    0.3938   -1.2238   -0.4142 N   0  0  0  0  0  2  0  0  0  0  0  0
   -0.4243    0.7228   -2.1013 N   0  0  0  0  0  0  0  0  0  0  0  0
   -1.1246    0.5073   -2.8216 H   0  0  0  0  0  0  0  0  0  0  0  0
   -0.0819    1.6010    0.3907 C   0  0  0  0  0  3  0  0  0  0  0  0
    0.3675    1.8688    1.7022 C   0  0  0  0  0  0  0  0  0  0  0  0
    0.1386    1.1535    2.5063 H   0  0  0  0  0  0  0  0  0  0  0  0
    0.8389   -0.0098   -2.4214 C   0  0  0  0  0  0  0  0  0  0  0  0
    1.6680    0.5423   -1.9359 H   0  0  0  0  0  0  0  0  0  0  0  0
    1.0079   -0.0161   -3.5206 H   0  0  0  0  0  0  0  0  0  0  0  0
    0.7589   -1.4041   -1.8095 C   0  0  0  0  0  0  0  0  0  0  0  0
   -0.0010   -2.0234   -2.3460 H   0  0  0  0  0  0  0  0  0  0  0  0
    1.7325   -1.9268   -1.9261 H   0  0  0  0  0  0  0  0  0  0  0  0
    5.3253   -1.3735   -0.4185 C   0  0  0  0  0  0  0  0  0  0  0  0
    6.1346   -2.0227   -0.7894 H   0  0  0  0  0  0  0  0  0  0  0  0
   -0.2400    2.1973   -2.0060 C   0  0  0  0  0  0  0  0  0  0  0  0
   -1.2470    2.6513   -2.1335 H   0  0  0  0  0  0  0  0  0  0  0  0
    0.4090    2.5731   -2.8284 H   0  0  0  0  0  0  0  0  0  0  0  0
    3.2605    0.2697    0.5368 C   0  0  0  0  0  0  0  0  0  0  0  0
    2.4511    0.9092    0.9155 H   0  0  0  0  0  0  0  0  0  0  0  0
    4.5090    0.8143    0.2192 C   0  0  0  0  0  0  0  0  0  0  0  0
    4.6687    1.8963    0.3536 H   0  0  0  0  0  0  0  0  0  0  0  0
    4.0792   -1.9374   -0.1024 C   0  0  0  0  0  0  0  0  0  0  0  0
    3.8861   -3.0149   -0.2074 H   0  0  0  0  0  0  0  0  0  0  0  0
    0.3071    2.5058   -0.6365 C   0  0  0  0  0  0  0  0  0  0  0  0
    5.5629    0.0065   -0.2658 C   0  0  0  0  0  0  0  0  0  0  0  0
    6.9040    0.6131   -0.5926 C   0  0  0  0  0  0  0  0  0  0  0  0
    7.5881   -0.1267   -1.0513 H   0  0  0  0  0  0  0  0  0  0  0  0
    7.3976    1.0076    0.3208 H   0  0  0  0  0  0  0  0  0  0  0  0
    6.8023    1.4677   -1.2932 H   0  0  0  0  0  0  0  0  0  0  0  0
    1.1203    3.6178   -0.3649 C   0  0  0  0  0  0  0  0  0  0  0  0
    1.4209    4.2941   -1.1824 H   0  0  0  0  0  0  0  0  0  0  0  0
    1.1601    2.9970    1.9800 C   0  0  0  0  0  0  0  0  0  0  0  0
    1.5027    3.1794    3.0109 H   0  0  0  0  0  0  0  0  0  0  0  0
    1.5442    3.8726    0.9502 C   0  0  0  0  0  0  0  0  0  0  0  0
    2.1774    4.7459    1.1680 H   0  0  0  0  0  0  0  0  0  0  0  0
    3.0502   -1.1100    0.3694 C   0  0  0  0  0  0  0  0  0  0  0  0
  1  2  2  0  0  0  0
  3  1  2  0  0  0  0
  4  1  1  0  0  0  0
  5 18  1  0  0  0  0
  6  5  1  0  0  0  0
  7  8  1  0  0  0  0
  8 35  2  0  0  0  0
  8  9  1  0  0  0  0
 10  5  1  0  0  0  0
 10 11  1  0  0  0  0
 10 13  1  0  0  0  0
 12 10  1  0  0  0  0
 13  4  1  0  0  0  0
 14 13  1  0  0  0  0
 15 13  1  0  0  0  0
 16 28  2  0  0  0  0
 16 25  1  0  0  0  0
 17 16  1  0  0  0  0
 18 27  1  0  0  0  0
 19 18  1  0  0  0  0
 20 18  1  0  0  0  0
 21 22  1  0  0  0  0
 23 24  1  0  0  0  0
 23 21  2  0  0  0  0
 25 39  2  0  0  0  0
 26 25  1  0  0  0  0
 27 33  1  0  0  0  0
 27  7  2  0  0  0  0
 28 23  1  0  0  0  0
 29 28  1  0  0  0  0
 29 31  1  0  0  0  0
 30 29  1  0  0  0  0
 32 29  1  0  0  0  0
 33 37  2  0  0  0  0
 34 33  1  0  0  0  0
 35 36  1  0  0  0  0
 37 38  1  0  0  0  0
 37 35  1  0  0  0  0
 39 21  1  0  0  0  0
 39  1  1  0  0  0  0
M  END
