2,3
q = -1.0, confidence = 0.0

 17 17  0  0  0  0  0  0  0  0999 V2000
    4.8563    0.0004    0.6837 Cl  0  0  0  0  0  0  0  0  0  0  0  0
    0.5424    0.0002    1.8155 N   0  0  0  0  0  2  0  0  0  0  0  0
    1.0064    0.0000   -0.7154 C   0  0  0  0  0  3  0  0  0  0  0  0
    2.1580    0.0002    0.1415 C   0  0  0  0  0  0  0  0  0  0  0  0
    1.8222    0.0003    1.5371 C   0  0  0  0  0  3  0  0  0  0  0  0
    2.5834    0.0004    2.3378 H   0  0  0  0  0  0  0  0  0  0  0  0
    3.4699    0.0002   -0.3922 C   0  0  0  0  0  0  0  0  0  0  0  0
    2.5456   -0.0000   -2.6185 C   0  0  0  0  0  0  0  0  0  0  0  0
    2.7007   -0.0001   -3.7094 H   0  0  0  0  0  0  0  0  0  0  0  0
    0.1183    0.0002    3.2032 C   0  0  0  0  0  0  0  0  0  0  0  0
    0.9956    0.0005    3.8835 H   0  0  0  0  0  0  0  0  0  0  0  0
   -0.5307   -0.8746    3.4002 H   0  0  0  0  0  0  0  0  0  0  0  0
   -0.5312    0.8746    3.4000 H   0  0  0  0  0  0  0  0  0  0  0  0
    1.2387   -0.0001   -2.1074 C   0  0  0  0  0  0  0  0  0  0  0  0
    0.3791   -0.0002   -2.7940 H   0  0  0  0  0  0  0  0  0  0  0  0
    3.6738    0.0001   -1.7738 C   0  0  0  0  0  0  0  0  0  0  0  0
    4.6949    0.0002   -2.1786 H   0  0  0  0  0  0  0  0  0  0  0  0
  2 10  1  0  0  0  0
  3  4  1  0  0  0  0
  4  5  1  0  0  0  0
  5  2  1  0  0  0  0
  5  6  1  0  0  0  0
  7  4  2  0  0  0  0
  7  1  1  0  0  0  0
  8 14  1  0  0  0  0
  8 16  2  0  0  0  0
  9  8  1  0  0  0  0
 10 13  1  0  0  0  0
 10 12  1  0  0  0  0
 10 11  1  0  0  0  0
 14  3  2  0  0  0  0
 15 14  1  0  0  0  0
 16  7  1  0  0  0  0
 17 16  1  0  0  0  0
M  END
