2,68
q = -1.0, confidence = 0.146

 70 74  0  0  1  0  0  0  0  0999 V2000
   -3.8365   -0.2775   -0.0941 B   0  0  0  0  0  0  0  0  0  0  0  0
    0.5140   -1.1326   -0.2288 C   0  0  0  0  0  2  0  0  0  0  0  0
    0.0097    0.2077   -0.3035 C   0  0  2  0  0  3  0  0  0  0  0  0
   -1.3651    0.4770   -0.2737 C   0  0  0  0  0  0  0  0  0  0  0  0
   -1.7314    1.5145   -0.3503 H   0  0  0  0  0  0  0  0  0  0  0  0
   -2.3037   -0.5737   -0.1373 C   0  0  0  0  0  0  0  0  0  0  0  0
   -1.7931   -1.8980   -0.0505 C   0  0  0  0  0  0  0  0  0  0  0  0
   -2.5106   -2.7285    0.0568 H   0  0  0  0  0  0  0  0  0  0  0  0
   -0.4211   -2.1802   -0.1091 C   0  0  0  0  0  0  0  0  0  0  0  0
   -0.0556   -3.2173   -0.0557 H   0  0  0  0  0  0  0  0  0  0  0  0
    1.2419    2.5669   -0.5265 C   0  0  0  0  0  0  0  0  0  0  0  0
    0.5341    3.4000   -0.5391 H   0  0  0  0  0  0  0  0  0  0  0  0
    1.0710    1.1923   -0.4194 C   0  0  0  0  0  0  0  0  0  0  0  0
    3.3303    4.0136   -0.6402 C   0  0  0  0  0  0  0  0  0  0  0  0
    2.9053    4.6488   -1.4424 H   0  0  0  0  0  0  0  0  0  0  0  0
    4.3644    3.7446   -0.9334 H   0  0  0  0  0  0  0  0  0  0  0  0
    3.2992    4.7361    0.6920 C   0  0  0  0  0  0  0  0  0  0  0  0
    3.6521    4.0559    1.8747 C   0  0  0  0  0  0  0  0  0  0  0  0
    3.9365    2.9926    1.8275 H   0  0  0  0  0  0  0  0  0  0  0  0
    3.6326    4.7249    3.1056 C   0  0  0  0  0  0  0  0  0  0  0  0
    3.9060    4.1849    4.0246 H   0  0  0  0  0  0  0  0  0  0  0  0
    3.2653    6.0799    3.1674 C   0  0  0  0  0  0  0  0  0  0  0  0
    3.2500    6.6033    4.1352 H   0  0  0  0  0  0  0  0  0  0  0  0
    2.9135    6.7618    1.9934 C   0  0  0  0  0  0  0  0  0  0  0  0
    2.6199    7.8215    2.0358 H   0  0  0  0  0  0  0  0  0  0  0  0
    2.9263    6.0901    0.7605 C   0  0  0  0  0  0  0  0  0  0  0  0
    2.6429    6.6255   -0.1599 H   0  0  0  0  0  0  0  0  0  0  0  0
   -4.3733    1.0476   -0.7720 C   0  0  0  0  0  0  0  0  0  0  0  0
   -5.1674    1.9771   -0.0339 C   0  0  0  0  0  0  0  0  0  0  0  0
   -5.6151    3.1600   -0.6460 C   0  0  0  0  0  0  0  0  0  0  0  0
   -6.2138    3.8719   -0.0531 H   0  0  0  0  0  0  0  0  0  0  0  0
   -5.3345    3.4554   -1.9931 C   0  0  0  0  0  0  0  0  0  0  0  0
   -4.5721    2.5266   -2.7191 C   0  0  0  0  0  0  0  0  0  0  0  0
   -4.3553    2.7264   -3.7821 H   0  0  0  0  0  0  0  0  0  0  0  0
   -4.0790    1.3435   -2.1350 C   0  0  0  0  0  0  0  0  0  0  0  0
   -3.2714    0.4061   -3.0087 C   0  0  0  0  0  0  0  0  0  0  0  0
   -3.5147    0.5565   -4.0790 H   0  0  0  0  0  0  0  0  0  0  0  0
   -3.4436   -0.6598   -2.7645 H   0  0  0  0  0  0  0  0  0  0  0  0
   -2.1807    0.5725   -2.8873 H   0  0  0  0  0  0  0  0  0  0  0  0
   -5.8566    4.7183   -2.6310 C   0  0  0  0  0  0  0  0  0  0  0  0
   -5.5671    5.6171   -2.0476 H   0  0  0  0  0  0  0  0  0  0  0  0
   -6.9664    4.7157   -2.6792 H   0  0  0  0  0  0  0  0  0  0  0  0
   -5.4762    4.8435   -3.6635 H   0  0  0  0  0  0  0  0  0  0  0  0
   -5.5404    1.7239    1.4096 C   0  0  0  0  0  0  0  0  0  0  0  0
   -6.0577    2.5993    1.8480 H   0  0  0  0  0  0  0  0  0  0  0  0
   -4.6530    1.5072    2.0383 H   0  0  0  0  0  0  0  0  0  0  0  0
   -6.2088    0.8443    1.5056 H   0  0  0  0  0  0  0  0  0  0  0  0
   -4.8090   -1.2921    0.6253 C   0  0  0  0  0  0  0  0  0  0  0  0
   -5.9623   -1.8030   -0.0440 C   0  0  0  0  0  0  0  0  0  0  0  0
   -6.8107   -2.7116    0.6119 C   0  0  0  0  0  0  0  0  0  0  0  0
   -7.6872   -3.1062    0.0713 H   0  0  0  0  0  0  0  0  0  0  0  0
   -6.5823   -3.1219    1.9376 C   0  0  0  0  0  0  0  0  0  0  0  0
   -5.4623   -2.5930    2.6001 C   0  0  0  0  0  0  0  0  0  0  0  0
   -5.2752   -2.8799    3.6485 H   0  0  0  0  0  0  0  0  0  0  0  0
   -4.5703   -1.7051    1.9703 C   0  0  0  0  0  0  0  0  0  0  0  0
   -3.3978   -1.1910    2.7797 C   0  0  0  0  0  0  0  0  0  0  0  0
   -2.4737   -1.7680    2.5694 H   0  0  0  0  0  0  0  0  0  0  0  0
   -3.6029   -1.2740    3.8651 H   0  0  0  0  0  0  0  0  0  0  0  0
   -3.1549   -0.1340    2.5564 H   0  0  0  0  0  0  0  0  0  0  0  0
   -6.3012   -1.3965   -1.4607 C   0  0  0  0  0  0  0  0  0  0  0  0
   -7.1582   -1.9807   -1.8483 H   0  0  0  0  0  0  0  0  0  0  0  0
   -5.4497   -1.5507   -2.1539 H   0  0  0  0  0  0  0  0  0  0  0  0
   -6.5619   -0.3205   -1.5227 H   0  0  0  0  0  0  0  0  0  0  0  0
   -7.4969   -4.1120    2.6129 C   0  0  0  0  0  0  0  0  0  0  0  0
   -7.4477   -4.0289    3.7165 H   0  0  0  0  0  0  0  0  0  0  0  0
   -7.2167   -5.1552    2.3500 H   0  0  0  0  0  0  0  0  0  0  0  0
   -8.5515   -3.9738    2.3003 H   0  0  0  0  0  0  0  0  0  0  0  0
    2.3517    0.6585   -0.4404 N   0  0  0  0  0  2  0  0  0  0  0  0
    3.2695    1.5932   -0.5514 N   0  0  0  0  0  2  0  0  0  0  0  0
    2.5966    2.7524   -0.6126 N   0  0  0  0  0  0  0  0  0  0  0  0
  1 48  1  0  0  0  0
  2  9  1  0  0  0  0
  3 13  1  6  0  0  0
  3  4  1  0  0  0  0
  3  2  1  0  0  0  0
  4  6  2  0  0  0  0
  5  4  1  0  0  0  0
  6  1  1  0  0  0  0
  6  7  1  0  0  0  0
  7  8  1  0  0  0  0
  9 10  1  0  0  0  0
  9  7  2  0  0  0  0
 11 13  2  0  0  0  0
 12 11  1  0  0  0  0
 14 70  1  0  0  0  0
 14 17  1  0  0  0  0
 15 14  1  0  0  0  0
 16 14  1  0  0  0  0
 17 26  2  0  0  0  0
 17 18  1  0  0  0  0
 18 20  2  0  0  0  0
 19 18  1  0  0  0  0
 20 22  1  0  0  0  0
 20 21  1  0  0  0  0
 22 23  1  0  0  0  0
 24 25  1  0  0  0  0
 24 22  2  0  0  0  0
 26 24  1  0  0  0  0
 27 26  1  0  0  0  0
 28  1  1  0  0  0  0
 28 29  1  0  0  0  0
 29 44  1  0  0  0  0
 30 31  1  0  0  0  0
 30 29  2  0  0  0  0
 32 30  1  0  0  0  0
 33 35  1  0  0  0  0
 33 32  2  0  0  0  0
 34 33  1  0  0  0  0
 35 28  2  0  0  0  0
 36 39  1  0  0  0  0
 36 38  1  0  0  0  0
 36 35  1  0  0  0  0
 37 36  1  0  0  0  0
 40 41  1  0  0  0  0
 40 32  1  0  0  0  0
 42 40  1  0  0  0  0
 43 40  1  0  0  0  0
 44 47  1  0  0  0  0
 44 45  1  0  0  0  0
 44 46  1  0  0  0  0
 48 55  1  0  0  0  0
 49 50  1  0  0  0  0
 49 48  2  0  0  0  0
 50 52  2  0  0  0  0
 51 50  1  0  0  0  0
 52 53  1  0  0  0  0
 52 64  1  0  0  0  0
 53 54  1  0  0  0  0
 55 53  2  0  0  0  0
 55 56  1  0  0  0  0
 56 58  1  0  0  0  0
 57 56  1  0  0  0  0
 59 56  1  0  0  0  0
 60 49  1  0  0  0  0
 61 60  1  0  0  0  0
 62 60  1  0  0  0  0
 63 60  1  0  0  0  0
 64 65  1  0  0  0  0
 66 64  1  0  0  0  0
 67 64  1  0  0  0  0
 68 13  1  0  0  0  0
 69 68  1  0  0  0  0
 70 69  1  0  0  0  0
 70 11  1  0  0  0  0
M  END
