1,19
q = -1.0, confidence = 0.0

 25 27  0  0  0  0  0  0  0  0999 V2000
    1.7278    0.0114   -1.1638 N   0  0  0  0  0  2  0  0  0  0  0  0
    4.6144   -1.9378    0.0290 N   0  0  0  0  0  0  0  0  0  0  0  0
    4.9435   -3.0116    2.0451 O   0  0  0  0  0  0  0  0  0  0  0  0
    2.1114    0.3844   -2.4037 C   0  0  0  0  0  3  0  0  0  0  0  0
    1.3857    0.9872   -2.9691 H   0  0  0  0  0  0  0  0  0  0  0  0
    3.3623    0.0002   -2.9039 C   0  0  0  0  0  0  0  0  0  0  0  0
    3.6517    0.3148   -3.9162 H   0  0  0  0  0  0  0  0  0  0  0  0
    4.2388   -0.7744   -2.1280 C   0  0  0  0  0  0  0  0  0  0  0  0
    5.2164   -1.0663   -2.5319 H   0  0  0  0  0  0  0  0  0  0  0  0
    3.8375   -1.1698   -0.8322 C   0  0  0  0  0  0  0  0  0  0  0  0
    4.1972   -2.3408    1.3357 C   0  0  0  0  0  0  0  0  0  0  0  0
    2.8429   -1.9085    1.7522 C   0  0  0  0  0  0  0  0  0  0  0  0
    2.3185   -2.2703    3.0080 C   0  0  0  0  0  0  0  0  0  0  0  0
    2.9313   -2.8798    3.6868 H   0  0  0  0  0  0  0  0  0  0  0  0
    1.0251   -1.8458    3.3482 C   0  0  0  0  0  0  0  0  0  0  0  0
    0.6072   -2.1329    4.3263 H   0  0  0  0  0  0  0  0  0  0  0  0
    0.2382   -1.0673    2.4688 C   0  0  0  0  0  0  0  0  0  0  0  0
   -0.7753   -0.7697    2.7818 H   0  0  0  0  0  0  0  0  0  0  0  0
    0.7271   -0.6764    1.2059 C   0  0  0  0  0  3  0  0  0  0  0  0
    2.0462   -1.1264    0.8888 C   0  0  0  0  0  0  0  0  0  0  0  0
    2.5558   -0.7527   -0.3937 C   0  0  0  0  0  0  0  0  0  0  0  0
    5.9365   -2.3712   -0.4021 C   0  0  0  0  0  0  0  0  0  0  0  0
    5.8691   -3.0085   -1.3076 H   0  0  0  0  0  0  0  0  0  0  0  0
    6.3689   -2.9552    0.4296 H   0  0  0  0  0  0  0  0  0  0  0  0
    6.5873   -1.5002   -0.6223 H   0  0  0  0  0  0  0  0  0  0  0  0
  1 21  1  0  0  0  0
  2 11  1  0  0  0  0
  4  1  1  0  0  0  0
  5  4  1  0  0  0  0
  6  4  1  0  0  0  0
  6  8  2  0  0  0  0
  7  6  1  0  0  0  0
  8 10  1  0  0  0  0
  9  8  1  0  0  0  0
 10 21  2  0  0  0  0
 10  2  1  0  0  0  0
 11 12  1  0  0  0  0
 11  3  2  0  0  0  0
 12 13  1  0  0  0  0
 13 15  2  0  0  0  0
 13 14  1  0  0  0  0
 15 16  1  0  0  0  0
 17 18  1  0  0  0  0
 17 15  1  0  0  0  0
 19 17  2  0  0  0  0
 20 19  1  0  0  0  0
 20 12  2  0  0  0  0
 21 20  1  0  0  0  0
 22  2  1  0  0  0  0
 22 24  1  0  0  0  0
 23 22  1  0  0  0  0
 25 22  1  0  0  0  0
M  END
