1,3
q = -1.0, confidence = 0.01

 23 22  0  0  1  0  0  0  0  0999 V2000
   -3.2092    0.7878   -0.1496 N   0  0  0  0  0  2  0  0  0  0  0  0
   -3.9050    1.9786   -0.0829 O   0  0  0  0  0  0  0  0  0  0  0  0
   -1.7627   -1.3101   -0.6931 C   0  0  0  0  0  3  0  0  0  0  0  0
   -1.8805   -1.2329   -1.7974 H   0  0  0  0  0  0  0  0  0  0  0  0
   -1.0685   -2.1443   -0.4769 H   0  0  0  0  0  0  0  0  0  0  0  0
   -3.1284   -1.5786   -0.0213 C   0  0  0  0  0  0  0  0  0  0  0  0
   -2.9208   -1.9518    1.4677 C   0  0  0  0  0  0  0  0  0  0  0  0
   -2.3202   -2.8816    1.5372 H   0  0  0  0  0  0  0  0  0  0  0  0
   -3.8841   -2.1265    1.9899 H   0  0  0  0  0  0  0  0  0  0  0  0
   -2.3707   -1.1460    1.9935 H   0  0  0  0  0  0  0  0  0  0  0  0
   -3.3345    2.9710   -0.9438 C   0  0  0  0  0  0  0  0  0  0  0  0
   -2.2677    3.1403   -0.6856 H   0  0  0  0  0  0  0  0  0  0  0  0
   -3.9216    3.8863   -0.7422 H   0  0  0  0  0  0  0  0  0  0  0  0
   -3.4505    2.6783   -2.0107 H   0  0  0  0  0  0  0  0  0  0  0  0
   -3.9373   -0.2915   -0.0748 C   0  0  1  0  0  3  0  0  0  0  0  0
   -3.8533   -2.7365   -0.7388 C   0  0  0  0  0  0  0  0  0  0  0  0
   -4.0906   -2.4766   -1.7905 H   0  0  0  0  0  0  0  0  0  0  0  0
   -4.7937   -3.0309   -0.2284 H   0  0  0  0  0  0  0  0  0  0  0  0
   -3.1902   -3.6245   -0.7545 H   0  0  0  0  0  0  0  0  0  0  0  0
   -5.4281   -0.2721    0.0317 C   0  0  0  0  0  0  0  0  0  0  0  0
   -5.8208    0.7508   -0.0939 H   0  0  0  0  0  0  0  0  0  0  0  0
   -5.7405   -0.6513    1.0281 H   0  0  0  0  0  0  0  0  0  0  0  0
   -5.8804   -0.9473   -0.7210 H   0  0  0  0  0  0  0  0  0  0  0  0
  1  2  1  0  0  0  0
  3  5  1  0  0  0  0
  3  6  1  0  0  0  0
  4  3  1  0  0  0  0
  6  7  1  0  0  0  0
  7  8  1  0  0  0  0
  7  9  1  0  0  0  0
  7 10  1  0  0  0  0
 11 13  1  0  0  0  0
 11 12  1  0  0  0  0
 11  2  1  0  0  0  0
 14 11  1  0  0  0  0
 15  1  1  1  0  0  0
 15  6  1  0  0  0  0
 15 20  1  0  0  0  0
 16 18  1  0  0  0  0
 16  6  1  0  0  0  0
 17 16  1  0  0  0  0
 19 16  1  0  0  0  0
 20 22  1  0  0  0  0
 21 20  1  0  0  0  0
 23 20  1  0  0  0  0
M  END
