2,12
q = -1.0, confidence = 0.072

 42 41  0  0  1  0  0  0  0  0999 V2000
   -2.1578   -1.9199   -0.8634 Si  0  0  0  0  0  0  0  0  0  0  0  0
   -0.2796    1.5999   -0.5694 N   0  0  0  0  0  2  0  0  0  0  0  0
   -2.0244    0.5648    0.4865 N   0  0  0  0  0  0  0  0  0  0  0  0
    0.3109    2.5224   -1.5731 C   0  0  0  0  0  0  0  0  0  0  0  0
    0.5427    3.9676   -1.0896 C   0  0  0  0  0  0  0  0  0  0  0  0
   -0.4145    2.4691   -2.9236 C   0  0  0  0  0  0  0  0  0  0  0  0
   -1.5370    1.6637   -0.1292 C   0  0  2  0  0  3  0  0  0  0  0  0
   -2.4156    2.8719   -0.3072 C   0  0  0  0  0  0  0  0  0  0  0  0
   -3.1860    0.5250    1.4152 C   0  0  0  0  0  0  0  0  0  0  0  0
   -2.8896    1.2751    2.7200 C   0  0  0  0  0  0  0  0  0  0  0  0
   -4.5424    0.8964    0.7981 C   0  0  0  0  0  0  0  0  0  0  0  0
   -1.2534   -0.6918    0.3250 C   0  0  0  0  0  3  0  0  0  0  0  0
   -1.0927   -3.4387   -1.2370 C   0  0  0  0  0  0  0  0  0  0  0  0
   -3.7291   -2.5900   -0.0290 C   0  0  0  0  0  0  0  0  0  0  0  0
   -2.6468   -1.0069   -2.4463 C   0  0  0  0  0  0  0  0  0  0  0  0
    1.3185    2.0918   -1.7333 H   0  0  0  0  0  0  0  0  0  0  0  0
    1.3772    4.4155   -1.6647 H   0  0  0  0  0  0  0  0  0  0  0  0
   -0.3314    4.6302   -1.2419 H   0  0  0  0  0  0  0  0  0  0  0  0
    0.8144    4.0028   -0.0174 H   0  0  0  0  0  0  0  0  0  0  0  0
   -0.5028    1.4297   -3.2923 H   0  0  0  0  0  0  0  0  0  0  0  0
   -1.4327    2.9014   -2.8648 H   0  0  0  0  0  0  0  0  0  0  0  0
    0.1493    3.0511   -3.6795 H   0  0  0  0  0  0  0  0  0  0  0  0
   -1.8495    3.7360   -0.6788 H   0  0  0  0  0  0  0  0  0  0  0  0
   -3.2329    2.6520   -1.0211 H   0  0  0  0  0  0  0  0  0  0  0  0
   -2.8833    3.1647    0.6500 H   0  0  0  0  0  0  0  0  0  0  0  0
   -3.2522   -0.5504    1.6688 H   0  0  0  0  0  0  0  0  0  0  0  0
   -1.9507    0.9107    3.1806 H   0  0  0  0  0  0  0  0  0  0  0  0
   -2.7938    2.3685    2.5656 H   0  0  0  0  0  0  0  0  0  0  0  0
   -3.7106    1.1155    3.4466 H   0  0  0  0  0  0  0  0  0  0  0  0
   -4.6537    0.4710   -0.2179 H   0  0  0  0  0  0  0  0  0  0  0  0
   -5.3512    0.4764    1.4280 H   0  0  0  0  0  0  0  0  0  0  0  0
   -4.7128    1.9870    0.7406 H   0  0  0  0  0  0  0  0  0  0  0  0
   -1.1996   -1.1686    1.3296 H   0  0  0  0  0  0  0  0  0  0  0  0
   -0.8302   -3.9803   -0.3066 H   0  0  0  0  0  0  0  0  0  0  0  0
   -1.6828   -4.1378   -1.8650 H   0  0  0  0  0  0  0  0  0  0  0  0
   -0.1629   -3.2038   -1.7878 H   0  0  0  0  0  0  0  0  0  0  0  0
   -3.5054   -3.0430    0.9595 H   0  0  0  0  0  0  0  0  0  0  0  0
   -4.5192   -1.8272    0.1121 H   0  0  0  0  0  0  0  0  0  0  0  0
   -4.1616   -3.3917   -0.6635 H   0  0  0  0  0  0  0  0  0  0  0  0
   -1.7882   -0.8232   -3.1196 H   0  0  0  0  0  0  0  0  0  0  0  0
   -3.3865   -1.6124   -3.0090 H   0  0  0  0  0  0  0  0  0  0  0  0
   -3.1224   -0.0312   -2.2182 H   0  0  0  0  0  0  0  0  0  0  0  0
  1 14  1  0  0  0  0
  1 12  1  0  0  0  0
  3  9  1  0  0  0  0
  4  5  1  0  0  0  0
  4  2  1  0  0  0  0
  5 19  1  0  0  0  0
  6 21  1  0  0  0  0
  6  4  1  0  0  0  0
  7  2  1  6  0  0  0
  7  3  1  0  0  0  0
  8  7  1  0  0  0  0
  8 25  1  0  0  0  0
  9 26  1  0  0  0  0
  9 10  1  0  0  0  0
 10 27  1  0  0  0  0
 10 29  1  0  0  0  0
 11  9  1  0  0  0  0
 11 31  1  0  0  0  0
 12  3  1  0  0  0  0
 12 33  1  0  0  0  0
 13  1  1  0  0  0  0
 13 34  1  0  0  0  0
 14 38  1  0  0  0  0
 14 37  1  0  0  0  0
 15 42  1  0  0  0  0
 15  1  1  0  0  0  0
 16  4  1  0  0  0  0
 17  5  1  0  0  0  0
 18  5  1  0  0  0  0
 20  6  1  0  0  0  0
 22  6  1  0  0  0  0
 23  8  1  0  0  0  0
 24  8  1  0  0  0  0
 28 10  1  0  0  0  0
 30 11  1  0  0  0  0
 32 11  1  0  0  0  0
 35 13  1  0  0  0  0
 36 13  1  0  0  0  0
 39 14  1  0  0  0  0
 40 15  1  0  0  0  0
 41 15  1  0  0  0  0
M  END
