2,5
q = -1.0, confidence = 0.0

 38 38  0  0  1  0  0  0  0  0999 V2000
   -2.1674   -0.3560   -1.6040 O   0  0  0  0  0  0  0  0  0  0  0  0
   -1.2049   -0.7991    0.5042 N   0  0  0  0  0  2  0  0  0  0  0  0
   -3.3688   -1.5136   -0.1321 N   0  0  0  0  0  0  0  0  0  0  0  0
   -3.4682   -1.9754    0.7718 H   0  0  0  0  0  0  0  0  0  0  0  0
   -0.4604    1.7892    0.1268 C   0  0  0  0  0  3  0  0  0  0  0  0
   -1.3687    1.9128   -0.9502 C   0  0  0  0  0  0  0  0  0  0  0  0
   -2.2164    3.0349   -1.0311 C   0  0  0  0  0  0  0  0  0  0  0  0
   -2.9143    3.1309   -1.8789 H   0  0  0  0  0  0  0  0  0  0  0  0
   -2.1656    4.0331   -0.0454 C   0  0  0  0  0  0  0  0  0  0  0  0
   -2.8255    4.9102   -0.1141 H   0  0  0  0  0  0  0  0  0  0  0  0
   -1.2683    3.9070    1.0260 C   0  0  0  0  0  0  0  0  0  0  0  0
   -1.2271    4.6857    1.8033 H   0  0  0  0  0  0  0  0  0  0  0  0
   -0.4214    2.7847    1.1186 C   0  0  0  0  0  0  0  0  0  0  0  0
    0.2659    2.6963    1.9754 H   0  0  0  0  0  0  0  0  0  0  0  0
   -1.4016    0.8253   -1.9903 C   0  0  0  0  0  0  0  0  0  0  0  0
   -1.9124    1.1554   -2.9144 H   0  0  0  0  0  0  0  0  0  0  0  0
   -0.3725    0.4954   -2.2481 H   0  0  0  0  0  0  0  0  0  0  0  0
   -2.2019   -0.8618   -0.3667 C   0  0  2  0  0  3  0  0  0  0  0  0
   -1.4991   -1.1443    1.9203 C   0  0  0  0  0  0  0  0  0  0  0  0
   -2.0527   -2.1149    1.9349 H   0  0  0  0  0  0  0  0  0  0  0  0
   -0.2210   -1.3867    2.7236 C   0  0  0  0  0  0  0  0  0  0  0  0
    0.3841   -2.2153    2.3102 H   0  0  0  0  0  0  0  0  0  0  0  0
   -0.4838   -1.6470    3.7676 H   0  0  0  0  0  0  0  0  0  0  0  0
    0.4084   -0.4723    2.7447 H   0  0  0  0  0  0  0  0  0  0  0  0
   -2.3640   -0.0598    2.5800 C   0  0  0  0  0  0  0  0  0  0  0  0
   -1.8080    0.8972    2.6169 H   0  0  0  0  0  0  0  0  0  0  0  0
   -2.6311   -0.3522    3.6146 H   0  0  0  0  0  0  0  0  0  0  0  0
   -3.3022    0.1207    2.0200 H   0  0  0  0  0  0  0  0  0  0  0  0
   -4.5904   -1.3802   -0.9463 C   0  0  0  0  0  0  0  0  0  0  0  0
   -4.2651   -1.3774   -2.0055 H   0  0  0  0  0  0  0  0  0  0  0  0
   -5.3107   -0.0604   -0.6454 C   0  0  0  0  0  0  0  0  0  0  0  0
   -5.6605   -0.0302    0.4074 H   0  0  0  0  0  0  0  0  0  0  0  0
   -6.1960    0.0577   -1.3013 H   0  0  0  0  0  0  0  0  0  0  0  0
   -4.6403    0.8057   -0.8138 H   0  0  0  0  0  0  0  0  0  0  0  0
   -5.4726   -2.6037   -0.7016 C   0  0  0  0  0  0  0  0  0  0  0  0
   -4.9395   -3.5430   -0.9482 H   0  0  0  0  0  0  0  0  0  0  0  0
   -6.3837   -2.5505   -1.3274 H   0  0  0  0  0  0  0  0  0  0  0  0
   -5.8039   -2.6532    0.3578 H   0  0  0  0  0  0  0  0  0  0  0  0
  2 19  1  0  0  0  0
  3  4  1  0  0  0  0
  5 13  1  0  0  0  0
  6  5  2  0  0  0  0
  7  6  1  0  0  0  0
  7  9  2  0  0  0  0
  8  7  1  0  0  0  0
  9 11  1  0  0  0  0
 10  9  1  0  0  0  0
 11 13  2  0  0  0  0
 11 12  1  0  0  0  0
 13 14  1  0  0  0  0
 15  1  1  0  0  0  0
 15  6  1  0  0  0  0
 16 15  1  0  0  0  0
 17 15  1  0  0  0  0
 18  1  1  6  0  0  0
 18  3  1  0  0  0  0
 18  2  1  0  0  0  0
 19 20  1  0  0  0  0
 19 25  1  0  0  0  0
 19 21  1  0  0  0  0
 21 24  1  0  0  0  0
 21 23  1  0  0  0  0
 22 21  1  0  0  0  0
 25 26  1  0  0  0  0
 25 27  1  0  0  0  0
 28 25  1  0  0  0  0
 29 35  1  0  0  0  0
 29 31  1  0  0  0  0
 29  3  1  0  0  0  0
 30 29  1  0  0  0  0
 31 32  1  0  0  0  0
 33 31  1  0  0  0  0
 34 31  1  0  0  0  0
 35 38  1  0  0  0  0
 36 35  1  0  0  0  0
 37 35  1  0  0  0  0
M  END
