1,9
q = -1.0, confidence = 0.0

 42 44  0  0  0  0  0  0  0  0999 V2000
    0.2047    2.4266   -0.1457 N   0  0  0  0  0  0  0  0  0  0  0  0
   -0.9766   -3.0757   -0.5196 C   0  0  0  0  0  0  0  0  0  0  0  0
   -0.1319   -2.9800   -1.2308 H   0  0  0  0  0  0  0  0  0  0  0  0
   -1.2251   -4.1559   -0.4637 H   0  0  0  0  0  0  0  0  0  0  0  0
   -0.4988   -2.6093    0.9290 C   0  0  0  0  0  0  0  0  0  0  0  0
   -0.8574   -3.3555    1.6664 H   0  0  0  0  0  0  0  0  0  0  0  0
    0.6063   -2.6827    0.9511 H   0  0  0  0  0  0  0  0  0  0  0  0
   -1.0388   -1.2494    1.3376 C   0  0  0  0  0  0  0  0  0  0  0  0
   -0.6410   -0.0153    0.7516 C   0  0  0  0  0  3  0  0  0  0  0  0
   -1.6246    1.0186    0.6706 C   0  0  0  0  0  0  0  0  0  0  0  0
   -2.9312    0.8716    1.1947 C   0  0  0  0  0  0  0  0  0  0  0  0
   -3.1465   -0.2149    2.0630 C   0  0  0  0  0  0  0  0  0  0  0  0
   -4.1155   -0.3185    2.5767 H   0  0  0  0  0  0  0  0  0  0  0  0
   -2.2183   -1.2589    2.1177 C   0  0  0  0  0  0  0  0  0  0  0  0
   -2.4809   -2.1777    2.6685 H   0  0  0  0  0  0  0  0  0  0  0  0
   -4.1133    1.6653    0.6723 C   0  0  0  0  0  0  0  0  0  0  0  0
   -3.8816    2.7480    0.5964 H   0  0  0  0  0  0  0  0  0  0  0  0
   -4.9439    1.5779    1.4012 H   0  0  0  0  0  0  0  0  0  0  0  0
   -4.6413    1.1719   -0.7560 C   0  0  0  0  0  0  0  0  0  0  0  0
   -5.7451    1.0778   -0.6977 H   0  0  0  0  0  0  0  0  0  0  0  0
   -4.4284    1.9540   -1.5128 H   0  0  0  0  0  0  0  0  0  0  0  0
   -4.0033   -0.1310   -1.1818 C   0  0  0  0  0  0  0  0  0  0  0  0
   -2.8546   -0.1383   -1.9992 C   0  0  0  0  0  0  0  0  0  0  0  0
   -2.6198    0.7478   -2.6117 H   0  0  0  0  0  0  0  0  0  0  0  0
   -1.9247   -1.1832   -1.9157 C   0  0  0  0  0  0  0  0  0  0  0  0
   -0.9583   -1.0899   -2.4366 H   0  0  0  0  0  0  0  0  0  0  0  0
   -2.1405   -2.2695   -1.0443 C   0  0  0  0  0  0  0  0  0  0  0  0
   -3.4264   -2.3990   -0.4816 C   0  0  0  0  0  0  0  0  0  0  0  0
   -3.6622   -3.2794    0.1374 H   0  0  0  0  0  0  0  0  0  0  0  0
   -4.3420   -1.3414   -0.5436 C   0  0  0  0  0  0  0  0  0  0  0  0
   -5.2765   -1.4043    0.0368 H   0  0  0  0  0  0  0  0  0  0  0  0
   -1.2653    2.1964   -0.1902 C   0  0  0  0  0  0  0  0  0  0  0  0
   -1.5270    1.9783   -1.2473 H   0  0  0  0  0  0  0  0  0  0  0  0
   -1.7996    3.1335    0.0883 H   0  0  0  0  0  0  0  0  0  0  0  0
    0.5733    3.1886    1.0718 C   0  0  0  0  0  0  0  0  0  0  0  0
    0.1473    4.2172    1.0199 H   0  0  0  0  0  0  0  0  0  0  0  0
    1.6750    3.2465    1.1417 H   0  0  0  0  0  0  0  0  0  0  0  0
    0.1709    2.6694    1.9607 H   0  0  0  0  0  0  0  0  0  0  0  0
    0.6845    3.1374   -1.3498 C   0  0  0  0  0  0  0  0  0  0  0  0
    0.2308    4.1529   -1.4045 H   0  0  0  0  0  0  0  0  0  0  0  0
    0.4006    2.5604   -2.2492 H   0  0  0  0  0  0  0  0  0  0  0  0
    1.7870    3.2068   -1.3058 H   0  0  0  0  0  0  0  0  0  0  0  0
  1 35  1  0  0  0  0
  2  4  1  0  0  0  0
  2  5  1  0  0  0  0
  3  2  1  0  0  0  0
  5  7  1  0  0  0  0
  5  8  1  0  0  0  0
  5  6  1  0  0  0  0
  8 14  1  0  0  0  0
  9  8  2  0  0  0  0
 10  9  1  0  0  0  0
 10 11  2  0  0  0  0
 11 12  1  0  0  0  0
 12 14  2  0  0  0  0
 12 13  1  0  0  0  0
 14 15  1  0  0  0  0
 16 11  1  0  0  0  0
 16 18  1  0  0  0  0
 17 16  1  0  0  0  0
 19 20  1  0  0  0  0
 19 16  1  0  0  0  0
 21 19  1  0  0  0  0
 22 19  1  0  0  0  0
 22 30  1  0  0  0  0
 23 25  1  0  0  0  0
 23 22  2  0  0  0  0
 24 23  1  0  0  0  0
 25 27  2  0  0  0  0
 26 25  1  0  0  0  0
 27  2  1  0  0  0  0
 27 28  1  0  0  0  0
 28 29  1  0  0  0  0
 30 28  2  0  0  0  0
 30 31  1  0  0  0  0
 32  1  1  0  0  0  0
 32 34  1  0  0  0  0
 32 10  1  0  0  0  0
 33 32  1  0  0  0  0
 35 37  1  0  0  0  0
 35 38  1  0  0  0  0
 36 35  1  0  0  0  0
 39 42  1  0  0  0  0
 39  1  1  0  0  0  0
 40 39  1  0  0  0  0
 41 39  1  0  0  0  0
M  END
