1,2
q = -1.0, confidence = 0.008

 32 34  0  0  1  0  0  0  0  0999 V2000
    2.0339    0.1554    0.1469 N   0  0  0  0  0  2  0  0  0  0  0  0
    0.3808   -1.1845   -1.3791 C   0  0  0  0  0  3  0  0  0  0  0  0
   -0.5462   -1.9244   -2.1444 C   0  0  0  0  0  0  0  0  0  0  0  0
   -1.6253   -1.7921   -1.9721 H   0  0  0  0  0  0  0  0  0  0  0  0
   -0.1148   -2.8293   -3.1248 C   0  0  0  0  0  0  0  0  0  0  0  0
   -0.8589   -3.3933   -3.7097 H   0  0  0  0  0  0  0  0  0  0  0  0
    1.2587   -3.0278   -3.3693 C   0  0  0  0  0  0  0  0  0  0  0  0
    1.5887   -3.7382   -4.1418 H   0  0  0  0  0  0  0  0  0  0  0  0
    2.2004   -2.3200   -2.6173 C   0  0  0  0  0  0  0  0  0  0  0  0
    3.2744   -2.4795   -2.8021 H   0  0  0  0  0  0  0  0  0  0  0  0
    1.7735   -1.4097   -1.6259 C   0  0  0  0  0  0  0  0  0  0  0  0
    2.6792   -0.6555   -0.7631 C   0  0  2  0  0  3  0  0  0  0  0  0
    4.0818   -0.7133   -0.7729 C   0  0  0  0  0  0  0  0  0  0  0  0
    4.5929   -1.3567   -1.5005 H   0  0  0  0  0  0  0  0  0  0  0  0
    4.8439    0.0421    0.1459 C   0  0  0  0  0  0  0  0  0  0  0  0
    4.1391    0.8534    1.0775 C   0  0  0  0  0  0  0  0  0  0  0  0
    4.6819    1.4549    1.8181 H   0  0  0  0  0  0  0  0  0  0  0  0
    2.7499    0.8770    1.0402 C   0  0  0  0  0  0  0  0  0  0  0  0
    2.1527    1.4801    1.7395 H   0  0  0  0  0  0  0  0  0  0  0  0
    6.2631   -0.0113    0.1423 C   0  0  0  0  0  0  0  0  0  0  0  0
    7.4950   -0.0555    0.1422 C   0  0  0  0  0  0  0  0  0  0  0  0
    8.9173   -0.1078    0.1410 C   0  0  0  0  0  0  0  0  0  0  0  0
    9.6696    0.6638    1.0653 C   0  0  0  0  0  0  0  0  0  0  0  0
    9.1374    1.3038    1.7836 H   0  0  0  0  0  0  0  0  0  0  0  0
   11.0673    0.6081    1.0595 C   0  0  0  0  0  0  0  0  0  0  0  0
   11.6388    1.2111    1.7813 H   0  0  0  0  0  0  0  0  0  0  0  0
   11.7413   -0.2122    0.1389 C   0  0  0  0  0  0  0  0  0  0  0  0
   12.8410   -0.2529    0.1381 H   0  0  0  0  0  0  0  0  0  0  0  0
   11.0073   -0.9804   -0.7807 C   0  0  0  0  0  0  0  0  0  0  0  0
   11.5315   -1.6241   -1.5031 H   0  0  0  0  0  0  0  0  0  0  0  0
    9.6092   -0.9327   -0.7844 C   0  0  0  0  0  0  0  0  0  0  0  0
    9.0301   -1.5319   -1.5018 H   0  0  0  0  0  0  0  0  0  0  0  0
  1 18  1  0  0  0  0
  3  4  1  0  0  0  0
  3  2  2  0  0  0  0
  5  3  1  0  0  0  0
  6  5  1  0  0  0  0
  7  5  2  0  0  0  0
  7  9  1  0  0  0  0
  8  7  1  0  0  0  0
  9 11  2  0  0  0  0
 10  9  1  0  0  0  0
 11  2  1  0  0  0  0
 12 11  1  1  0  0  0
 12  1  1  0  0  0  0
 13 12  1  0  0  0  0
 13 15  2  0  0  0  0
 14 13  1  0  0  0  0
 15 16  1  0  0  0  0
 16 17  1  0  0  0  0
 18 16  2  0  0  0  0
 18 19  1  0  0  0  0
 20 15  1  0  0  0  0
 21 20  3  0  0  0  0
 22 21  1  0  0  0  0
 22 23  1  0  0  0  0
 23 24  1  0  0  0  0
 25 23  2  0  0  0  0
 25 26  1  0  0  0  0
 27 25  1  0  0  0  0
 28 27  1  0  0  0  0
 29 27  2  0  0  0  0
 30 29  1  0  0  0  0
 31 29  1  0  0  0  0
 31 22  2  0  0  0  0
 32 31  1  0  0  0  0
M  END
