3,4
q = 0.0, confidence = 1.0

 30 32  0  0  1  0  0  0  0  0999 V2000
    2.3031   -1.8164    0.8913 N   0  0  0  0  0  0  0  0  0  0  0  0
    2.7865    0.1480    0.0397 N   0  0  0  0  0  0  0  0  0  0  0  0
    1.1607    1.6155   -0.7129 N   0  0  0  0  0  2  0  0  0  0  0  0
    1.7265   -0.6877    0.4101 C   0  0  0  0  0  2  0  0  0  0  0  0
    3.7016   -1.7450    0.8210 C   0  0  0  0  0  0  0  0  0  0  0  0
    4.6763   -2.6824    1.1805 C   0  0  0  0  0  0  0  0  0  0  0  0
    4.4056   -3.6570    1.6093 H   0  0  0  0  0  0  0  0  0  0  0  0
    6.0147   -2.3271    0.9596 C   0  0  0  0  0  0  0  0  0  0  0  0
    6.8133   -3.0337    1.2272 H   0  0  0  0  0  0  0  0  0  0  0  0
    6.3499   -1.0830    0.3888 C   0  0  0  0  0  0  0  0  0  0  0  0
    7.4071   -0.8378    0.2125 H   0  0  0  0  0  0  0  0  0  0  0  0
    5.3697   -0.1438    0.0294 C   0  0  0  0  0  0  0  0  0  0  0  0
    5.6734    0.8010   -0.4342 H   0  0  0  0  0  0  0  0  0  0  0  0
    4.0281   -0.4841    0.2647 C   0  0  0  0  0  0  0  0  0  0  0  0
    2.4840    1.4220   -0.4784 C   0  0  1  0  0  3  0  0  0  0  0  0
    3.4341    2.4263   -0.7155 C   0  0  0  0  0  0  0  0  0  0  0  0
    4.4881    2.2664   -0.4678 H   0  0  0  0  0  0  0  0  0  0  0  0
    3.0248    3.6638   -1.2443 C   0  0  0  0  0  0  0  0  0  0  0  0
    1.6480    3.8355   -1.5067 C   0  0  0  0  0  0  0  0  0  0  0  0
    1.2657    4.7788   -1.9223 H   0  0  0  0  0  0  0  0  0  0  0  0
    0.7582    2.8038   -1.2184 C   0  0  0  0  0  0  0  0  0  0  0  0
   -0.3244    2.9045   -1.3872 H   0  0  0  0  0  0  0  0  0  0  0  0
    1.5919   -2.9791    1.4006 C   0  0  0  0  0  0  0  0  0  0  0  0
    0.5135   -2.7523    1.4263 H   0  0  0  0  0  0  0  0  0  0  0  0
    1.9443   -3.2173    2.4232 H   0  0  0  0  0  0  0  0  0  0  0  0
    1.7708   -3.8543    0.7449 H   0  0  0  0  0  0  0  0  0  0  0  0
    4.0105    4.7624   -1.5171 C   0  0  0  0  0  0  0  0  0  0  0  0
    5.0331    4.4973   -1.1906 H   0  0  0  0  0  0  0  0  0  0  0  0
    3.7097    5.6980   -1.0031 H   0  0  0  0  0  0  0  0  0  0  0  0
    4.0431    4.9944   -2.6020 H   0  0  0  0  0  0  0  0  0  0  0  0
  1 23  1  0  0  0  0
  2 14  1  0  0  0  0
  2  4  1  0  0  0  0
  3 15  1  0  0  0  0
  4  1  1  0  0  0  0
  5  1  1  0  0  0  0
  5  6  1  0  0  0  0
  6  7  1  0  0  0  0
  8  6  2  0  0  0  0
  8  9  1  0  0  0  0
 10  8  1  0  0  0  0
 11 10  1  0  0  0  0
 12 14  1  0  0  0  0
 12 10  2  0  0  0  0
 13 12  1  0  0  0  0
 14  5  2  0  0  0  0
 15  2  1  1  0  0  0
 16 15  1  0  0  0  0
 16 17  1  0  0  0  0
 18 16  2  0  0  0  0
 19 18  1  0  0  0  0
 19 21  2  0  0  0  0
 20 19  1  0  0  0  0
 21  3  1  0  0  0  0
 22 21  1  0  0  0  0
 23 24  1  0  0  0  0
 23 25  1  0  0  0  0
 26 23  1  0  0  0  0
 27 18  1  0  0  0  0
 27 28  1  0  0  0  0
 27 29  1  0  0  0  0
 30 27  1  0  0  0  0
M  END
