2,8
q = -1.0, confidence = 0.0

 28 29  0  0  0  0  0  0  0  0999 V2000
    4.2543    1.6963    0.1178 O   0  0  0  0  0  0  0  0  0  0  0  0
    0.1201    1.2402   -0.0977 N   0  0  0  0  0  2  0  0  0  0  0  0
    1.4109    1.5447   -0.0002 N   0  0  0  0  0  0  0  0  0  0  0  0
    1.8352    2.7060    0.0765 O   0  0  0  0  0  1  0  0  0  0  0  0
    2.2548    0.3861   -0.0414 C   0  0  0  0  0  0  0  0  0  0  0  0
   -0.8148    2.3029   -0.1421 C   0  0  0  0  0  0  0  0  0  0  0  0
    3.6805    0.4821   -0.0173 C   0  0  0  0  0  0  0  0  0  0  0  0
    1.5726   -0.8463   -0.1635 C   0  0  0  0  0  3  0  0  0  0  0  0
   -1.7684    2.2821   -1.1808 C   0  0  0  0  0  0  0  0  0  0  0  0
   -1.6886    1.4900   -1.9423 H   0  0  0  0  0  0  0  0  0  0  0  0
    4.4077   -0.7180   -0.1436 C   0  0  0  0  0  0  0  0  0  0  0  0
    5.5043   -0.7006   -0.1319 H   0  0  0  0  0  0  0  0  0  0  0  0
   -0.8714    3.2997    0.8554 C   0  0  0  0  0  0  0  0  0  0  0  0
   -0.1163    3.3176    1.6523 H   0  0  0  0  0  0  0  0  0  0  0  0
    2.3367   -2.0150   -0.3239 C   0  0  0  0  0  0  0  0  0  0  0  0
    1.8390   -2.9810   -0.4862 H   0  0  0  0  0  0  0  0  0  0  0  0
   -2.7740    3.2565   -1.2171 C   0  0  0  0  0  0  0  0  0  0  0  0
   -3.5121    3.2425   -2.0335 H   0  0  0  0  0  0  0  0  0  0  0  0
    3.7353   -1.9416   -0.3057 C   0  0  0  0  0  0  0  0  0  0  0  0
    4.3309   -2.8603   -0.4271 H   0  0  0  0  0  0  0  0  0  0  0  0
   -2.8431    4.2450   -0.2210 C   0  0  0  0  0  0  0  0  0  0  0  0
   -3.6374    5.0060   -0.2501 H   0  0  0  0  0  0  0  0  0  0  0  0
   -1.8905    4.2613    0.8117 C   0  0  0  0  0  0  0  0  0  0  0  0
   -1.9381    5.0347    1.5934 H   0  0  0  0  0  0  0  0  0  0  0  0
    5.6676    1.7863    0.0969 C   0  0  0  0  0  0  0  0  0  0  0  0
    6.0910    1.4097   -0.8604 H   0  0  0  0  0  0  0  0  0  0  0  0
    6.1309    1.2261    0.9396 H   0  0  0  0  0  0  0  0  0  0  0  0
    5.9066    2.8604    0.2014 H   0  0  0  0  0  0  0  0  0  0  0  0
  2  3  1  0  0  0  0
  3  4  1  0  0  0  0
  5  7  1  0  0  0  0
  5  3  1  0  0  0  0
  6  2  1  0  0  0  0
  6 13  1  0  0  0  0
  7  1  1  0  0  0  0
  8  5  2  0  0  0  0
  9  6  2  0  0  0  0
 10  9  1  0  0  0  0
 11 12  1  0  0  0  0
 11  7  2  0  0  0  0
 13 14  1  0  0  0  0
 15 19  2  0  0  0  0
 15  8  1  0  0  0  0
 16 15  1  0  0  0  0
 17  9  1  0  0  0  0
 17 21  2  0  0  0  0
 18 17  1  0  0  0  0
 19 11  1  0  0  0  0
 20 19  1  0  0  0  0
 21 23  1  0  0  0  0
 22 21  1  0  0  0  0
 23 13  2  0  0  0  0
 23 24  1  0  0  0  0
 25  1  1  0  0  0  0
 25 28  1  0  0  0  0
 25 27  1  0  0  0  0
 26 25  1  0  0  0  0
M  END
