1,3
q = -1.0, confidence = 0.0

 45 48  0  0  1  0  0  0  0  0999 V2000
   -0.3515    0.8915   -0.7181 N   0  0  0  0  0  2  0  0  0  0  0  0
    1.8443    1.4006   -0.7362 N   0  0  0  0  0  0  0  0  0  0  0  0
   -0.2767   -1.5536    0.0315 C   0  0  0  0  0  3  0  0  0  0  0  0
    0.9867   -1.0173   -0.3273 C   0  0  0  0  0  0  0  0  0  0  0  0
    0.8798    0.4138   -0.5965 C   0  0  0  0  0  0  0  0  0  0  0  0
   -0.3338    2.3501   -0.8639 C   0  0  2  0  0  0  0  0  0  0  0  0
   -0.9898    2.6351   -1.7114 H   0  0  0  0  0  0  0  0  0  0  0  0
    1.1538    2.6198   -1.2119 C   0  0  0  0  0  0  0  0  0  0  0  0
    1.3005    2.7420   -2.3059 H   0  0  0  0  0  0  0  0  0  0  0  0
    1.5670    3.5111   -0.7021 H   0  0  0  0  0  0  0  0  0  0  0  0
    3.0578    1.4943   -0.0195 C   0  0  0  0  0  0  0  0  0  0  0  0
    4.0818    2.3333   -0.5109 C   0  0  0  0  0  0  0  0  0  0  0  0
    3.9331    2.8760   -1.4560 H   0  0  0  0  0  0  0  0  0  0  0  0
    5.2895    2.4557    0.1893 C   0  0  0  0  0  0  0  0  0  0  0  0
    6.0792    3.1118   -0.2073 H   0  0  0  0  0  0  0  0  0  0  0  0
    5.4991    1.7383    1.3776 C   0  0  0  0  0  0  0  0  0  0  0  0
    6.4512    1.8291    1.9207 H   0  0  0  0  0  0  0  0  0  0  0  0
    4.4781    0.9088    1.8692 C   0  0  0  0  0  0  0  0  0  0  0  0
    4.6238    0.3503    2.8061 H   0  0  0  0  0  0  0  0  0  0  0  0
    3.2599    0.7931    1.1892 C   0  0  0  0  0  0  0  0  0  0  0  0
    2.4577    0.1594    1.5915 H   0  0  0  0  0  0  0  0  0  0  0  0
   -0.8668    3.0602    0.4055 C   0  0  0  0  0  0  0  0  0  0  0  0
   -1.8921    2.6531    0.5371 H   0  0  0  0  0  0  0  0  0  0  0  0
   -0.9803    4.5701    0.1716 C   0  0  0  0  0  0  0  0  0  0  0  0
   -1.4493    5.0690    1.0434 H   0  0  0  0  0  0  0  0  0  0  0  0
   -1.5980    4.7997   -0.7212 H   0  0  0  0  0  0  0  0  0  0  0  0
    0.0151    5.0424    0.0253 H   0  0  0  0  0  0  0  0  0  0  0  0
   -0.0525    2.7292    1.6598 C   0  0  0  0  0  0  0  0  0  0  0  0
   -0.5102    3.1985    2.5537 H   0  0  0  0  0  0  0  0  0  0  0  0
    0.9924    3.1013    1.5944 H   0  0  0  0  0  0  0  0  0  0  0  0
   -0.0182    1.6360    1.8404 H   0  0  0  0  0  0  0  0  0  0  0  0
    2.1464   -1.8635   -0.4488 C   0  0  0  0  0  3  0  0  0  0  0  0
    3.3871   -1.4580   -1.0217 C   0  0  0  0  0  0  0  0  0  0  0  0
    3.4868   -0.4491   -1.4395 H   0  0  0  0  0  0  0  0  0  0  0  0
    4.4665   -2.3297   -1.0926 C   0  0  0  0  0  0  0  0  0  0  0  0
    5.4095   -1.9869   -1.5451 H   0  0  0  0  0  0  0  0  0  0  0  0
    4.3621   -3.6541   -0.5975 C   0  0  0  0  0  0  0  0  0  0  0  0
    5.2274   -4.3320   -0.6489 H   0  0  0  0  0  0  0  0  0  0  0  0
    3.1549   -4.0956   -0.0757 C   0  0  0  0  0  0  0  0  0  0  0  0
    3.0450   -5.1323    0.2799 H   0  0  0  0  0  0  0  0  0  0  0  0
    2.0227   -3.2336   -0.0068 C   0  0  0  0  0  0  0  0  0  0  0  0
    0.7586   -3.7120    0.4543 C   0  0  0  0  0  0  0  0  0  0  0  0
    0.6905   -4.7599    0.7903 H   0  0  0  0  0  0  0  0  0  0  0  0
   -0.3714   -2.9082    0.4411 C   0  0  0  0  0  0  0  0  0  0  0  0
   -1.3542   -3.3021    0.7405 H   0  0  0  0  0  0  0  0  0  0  0  0
  1  5  1  0  0  0  0
  2  5  1  0  0  0  0
  2 11  1  0  0  0  0
  3 44  2  0  0  0  0
  4  3  1  0  0  0  0
  5  4  2  0  0  0  0
  6  7  1  6  0  0  0
  6  1  1  0  0  0  0
  6 22  1  0  0  0  0
  8  6  1  0  0  0  0
  8  2  1  0  0  0  0
  8 10  1  0  0  0  0
  9  8  1  0  0  0  0
 11 20  1  0  0  0  0
 12 11  2  0  0  0  0
 12 14  1  0  0  0  0
 13 12  1  0  0  0  0
 14 16  2  0  0  0  0
 15 14  1  0  0  0  0
 16 18  1  0  0  0  0
 16 17  1  0  0  0  0
 18 19  1  0  0  0  0
 20 21  1  0  0  0  0
 20 18  2  0  0  0  0
 22 23  1  0  0  0  0
 22 28  1  0  0  0  0
 24 22  1  0  0  0  0
 24 25  1  0  0  0  0
 26 24  1  0  0  0  0
 27 24  1  0  0  0  0
 28 31  1  0  0  0  0
 28 29  1  0  0  0  0
 30 28  1  0  0  0  0
 32  4  1  0  0  0  0
 32 41  1  0  0  0  0
 33 32  1  0  0  0  0
 34 33  1  0  0  0  0
 35 33  2  0  0  0  0
 35 37  1  0  0  0  0
 36 35  1  0  0  0  0
 37 39  2  0  0  0  0
 38 37  1  0  0  0  0
 39 41  1  0  0  0  0
 39 40  1  0  0  0  0
 41 42  2  0  0  0  0
 42 43  1  0  0  0  0
 44 42  1  0  0  0  0
 44 45  1  0  0  0  0
M  END
