2,5
q = 0.0, confidence = 1.0

 48 50  0  0  1  0  0  0  0  0999 V2000
    2.7979   -1.8153   -2.0602 O   0  0  0  0  0  0  0  0  0  0  0  0
    2.0616   -0.3640   -0.4769 N   0  0  0  0  0  2  0  0  0  0  0  0
    0.5201   -1.7554   -1.4599 N   0  0  0  0  0  0  0  0  0  0  0  0
   -1.6002   -1.5810   -1.0664 N   0  0  0  0  0  0  0  0  0  0  0  0
   -0.4061   -1.0265   -0.7232 C   0  0  0  0  0  2  0  0  0  0  0  0
   -1.4219   -2.6269   -1.9846 C   0  0  0  0  0  0  0  0  0  0  0  0
   -2.2744   -3.1920   -2.3728 H   0  0  0  0  0  0  0  0  0  0  0  0
   -0.0842   -2.7414   -2.2417 C   0  0  0  0  0  0  0  0  0  0  0  0
    0.4850   -3.4185   -2.8844 H   0  0  0  0  0  0  0  0  0  0  0  0
    1.8204   -1.3293   -1.3147 C   0  0  1  0  0  3  0  0  0  0  0  0
    3.9253   -0.9067   -1.8035 C   0  0  0  0  0  0  0  0  0  0  0  0
    4.0225   -0.2583   -2.6970 H   0  0  0  0  0  0  0  0  0  0  0  0
    4.8301   -1.5285   -1.6955 H   0  0  0  0  0  0  0  0  0  0  0  0
    3.5311   -0.1252   -0.5153 C   0  0  2  0  0  0  0  0  0  0  0  0
    3.7034    0.9620   -0.6587 H   0  0  0  0  0  0  0  0  0  0  0  0
    4.3204   -0.5740    0.7546 C   0  0  0  0  0  0  0  0  0  0  0  0
    3.8455    0.2169    1.9852 C   0  0  0  0  0  0  0  0  0  0  0  0
    2.7945   -0.0210    2.2348 H   0  0  0  0  0  0  0  0  0  0  0  0
    3.9538    1.3104    1.8278 H   0  0  0  0  0  0  0  0  0  0  0  0
    4.4695   -0.0502    2.8611 H   0  0  0  0  0  0  0  0  0  0  0  0
    5.8068   -0.2431    0.5079 C   0  0  0  0  0  0  0  0  0  0  0  0
    6.3987   -0.4955    1.4095 H   0  0  0  0  0  0  0  0  0  0  0  0
    5.9567    0.8375    0.3024 H   0  0  0  0  0  0  0  0  0  0  0  0
    6.2458   -0.8165   -0.3338 H   0  0  0  0  0  0  0  0  0  0  0  0
    4.1408   -2.0807    1.0098 C   0  0  0  0  0  0  0  0  0  0  0  0
    3.0807   -2.3253    1.2194 H   0  0  0  0  0  0  0  0  0  0  0  0
    4.7333   -2.3834    1.8958 H   0  0  0  0  0  0  0  0  0  0  0  0
    4.4941   -2.7009    0.1605 H   0  0  0  0  0  0  0  0  0  0  0  0
   -2.8807   -1.0701   -0.6454 C   0  0  0  0  0  0  0  0  0  0  0  0
   -3.4272   -1.5095    0.5808 C   0  0  0  0  0  0  0  0  0  0  0  0
   -2.7460   -2.5618    1.4103 C   0  0  0  0  0  0  0  0  0  0  0  0
   -3.3550   -2.8230    2.2952 H   0  0  0  0  0  0  0  0  0  0  0  0
   -1.7442   -2.2276    1.7571 H   0  0  0  0  0  0  0  0  0  0  0  0
   -2.5792   -3.4906    0.8263 H   0  0  0  0  0  0  0  0  0  0  0  0
   -4.6319   -0.9118    0.9948 C   0  0  0  0  0  0  0  0  0  0  0  0
   -5.0754   -1.2330    1.9505 H   0  0  0  0  0  0  0  0  0  0  0  0
   -5.2870    0.0720    0.2273 C   0  0  0  0  0  0  0  0  0  0  0  0
   -6.5893    0.6701    0.6906 C   0  0  0  0  0  0  0  0  0  0  0  0
   -7.4444    0.0455    0.3544 H   0  0  0  0  0  0  0  0  0  0  0  0
   -6.7454    1.6855    0.2782 H   0  0  0  0  0  0  0  0  0  0  0  0
   -6.6447    0.7264    1.7949 H   0  0  0  0  0  0  0  0  0  0  0  0
   -4.7159    0.4497   -1.0040 C   0  0  0  0  0  0  0  0  0  0  0  0
   -5.2221    1.2064   -1.6239 H   0  0  0  0  0  0  0  0  0  0  0  0
   -3.5146   -0.1139   -1.4700 C   0  0  0  0  0  0  0  0  0  0  0  0
   -2.9415    0.2776   -2.8092 C   0  0  0  0  0  0  0  0  0  0  0  0
   -1.8387    0.3861   -2.7848 H   0  0  0  0  0  0  0  0  0  0  0  0
   -3.3785    1.2290   -3.1666 H   0  0  0  0  0  0  0  0  0  0  0  0
   -3.1640   -0.4921   -3.5786 H   0  0  0  0  0  0  0  0  0  0  0  0
  1 11  1  0  0  0  0
  1 10  1  0  0  0  0
  3  5  1  0  0  0  0
  4  5  1  0  0  0  0
  4 29  1  0  0  0  0
  6  4  1  0  0  0  0
  7  6  1  0  0  0  0
  8  6  2  0  0  0  0
  8  3  1  0  0  0  0
  9  8  1  0  0  0  0
 10  3  1  6  0  0  0
 10  2  1  0  0  0  0
 11 13  1  0  0  0  0
 11 14  1  0  0  0  0
 12 11  1  0  0  0  0
 14 15  1  6  0  0  0
 14  2  1  0  0  0  0
 14 16  1  0  0  0  0
 16 25  1  0  0  0  0
 16 17  1  0  0  0  0
 17 18  1  0  0  0  0
 17 20  1  0  0  0  0
 19 17  1  0  0  0  0
 21 16  1  0  0  0  0
 21 22  1  0  0  0  0
 23 21  1  0  0  0  0
 24 21  1  0  0  0  0
 25 26  1  0  0  0  0
 25 27  1  0  0  0  0
 28 25  1  0  0  0  0
 29 30  1  0  0  0  0
 30 35  2  0  0  0  0
 30 31  1  0  0  0  0
 31 33  1  0  0  0  0
 31 32  1  0  0  0  0
 34 31  1  0  0  0  0
 35 36  1  0  0  0  0
 37 38  1  0  0  0  0
 37 35  1  0  0  0  0
 38 41  1  0  0  0  0
 39 38  1  0  0  0  0
 40 38  1  0  0  0  0
 42 37  2  0  0  0  0
 43 42  1  0  0  0  0
 44 42  1  0  0  0  0
 44 29  2  0  0  0  0
 45 46  1  0  0  0  0
 45 44  1  0  0  0  0
 47 45  1  0  0  0  0
 48 45  1  0  0  0  0
M  END
