1,3
q = -1.0, confidence = 0.004

 37 39  0  0  1  0  0  0  0  0999 V2000
   -0.6076   -1.2329    0.0506 N   0  0  0  0  0  2  0  0  0  0  0  0
   -6.1474   -2.0375    0.2552 O   0  0  0  0  0  0  0  0  0  0  0  0
    1.8023   -0.3034   -0.0635 C   0  0  0  0  0  3  0  0  0  0  0  0
    3.0914    0.2062   -0.1906 C   0  0  0  0  0  0  0  0  0  0  0  0
    3.2466    1.2836   -0.3568 H   0  0  0  0  0  0  0  0  0  0  0  0
    4.2469   -0.6263   -0.1368 C   0  0  0  0  0  0  0  0  0  0  0  0
    5.5695   -0.0995   -0.2390 C   0  0  0  0  0  0  0  0  0  0  0  0
    5.6940    0.9875   -0.3660 H   0  0  0  0  0  0  0  0  0  0  0  0
    6.6779   -0.9309   -0.1811 C   0  0  0  0  0  0  0  0  0  0  0  0
    7.6895   -0.5041   -0.2627 H   0  0  0  0  0  0  0  0  0  0  0  0
    6.5197   -2.3362   -0.0196 C   0  0  0  0  0  0  0  0  0  0  0  0
    7.4077   -2.9848    0.0239 H   0  0  0  0  0  0  0  0  0  0  0  0
    5.2501   -2.8834    0.0777 C   0  0  0  0  0  0  0  0  0  0  0  0
    5.1177   -3.9705    0.1981 H   0  0  0  0  0  0  0  0  0  0  0  0
    4.0883   -2.0559    0.0217 C   0  0  0  0  0  0  0  0  0  0  0  0
    2.7744   -2.5837    0.0966 C   0  0  0  0  0  0  0  0  0  0  0  0
    2.6498   -3.6751    0.1814 H   0  0  0  0  0  0  0  0  0  0  0  0
    1.6626   -1.7386    0.0542 C   0  0  0  0  0  0  0  0  0  0  0  0
    0.2865   -2.2044    0.0814 C   0  0  2  0  0  3  0  0  0  0  0  0
   -0.0683   -3.6618    0.0957 C   0  0  0  0  0  0  0  0  0  0  0  0
    0.1670   -4.1164    1.0809 H   0  0  0  0  0  0  0  0  0  0  0  0
    0.5347   -4.2027   -0.6603 H   0  0  0  0  0  0  0  0  0  0  0  0
   -1.1394   -3.8288   -0.1154 H   0  0  0  0  0  0  0  0  0  0  0  0
   -2.0079   -1.4694    0.0786 C   0  0  0  0  0  0  0  0  0  0  0  0
   -2.7933   -1.0931   -1.0265 C   0  0  0  0  0  0  0  0  0  0  0  0
   -2.2833   -0.6511   -1.8975 H   0  0  0  0  0  0  0  0  0  0  0  0
   -4.1818   -1.2787   -1.0065 C   0  0  0  0  0  0  0  0  0  0  0  0
   -4.7691   -0.9865   -1.8873 H   0  0  0  0  0  0  0  0  0  0  0  0
   -4.8080   -1.8282    0.1343 C   0  0  0  0  0  0  0  0  0  0  0  0
   -4.0204   -2.1932    1.2476 C   0  0  0  0  0  0  0  0  0  0  0  0
   -4.5253   -2.6114    2.1303 H   0  0  0  0  0  0  0  0  0  0  0  0
   -2.6339   -2.0183    1.2185 C   0  0  0  0  0  0  0  0  0  0  0  0
   -2.0224   -2.2964    2.0898 H   0  0  0  0  0  0  0  0  0  0  0  0
   -6.9840   -1.6789   -0.8280 C   0  0  0  0  0  0  0  0  0  0  0  0
   -6.9266   -0.5903   -1.0548 H   0  0  0  0  0  0  0  0  0  0  0  0
   -8.0170   -1.9276   -0.5219 H   0  0  0  0  0  0  0  0  0  0  0  0
   -6.7346   -2.2471   -1.7523 H   0  0  0  0  0  0  0  0  0  0  0  0
  1 24  1  0  0  0  0
  3 18  1  0  0  0  0
  4  6  1  0  0  0  0
  4  3  2  0  0  0  0
  5  4  1  0  0  0  0
  6 15  1  0  0  0  0
  7  9  1  0  0  0  0
  7  6  2  0  0  0  0
  8  7  1  0  0  0  0
  9 11  2  0  0  0  0
 10  9  1  0  0  0  0
 11 12  1  0  0  0  0
 11 13  1  0  0  0  0
 13 14  1  0  0  0  0
 15 13  2  0  0  0  0
 15 16  1  0  0  0  0
 16 17  1  0  0  0  0
 18 19  1  0  0  0  0
 18 16  2  0  0  0  0
 19  1  1  6  0  0  0
 19 20  1  0  0  0  0
 20 21  1  0  0  0  0
 22 20  1  0  0  0  0
 23 20  1  0  0  0  0
 24 32  1  0  0  0  0
 25 27  1  0  0  0  0
 25 24  2  0  0  0  0
 26 25  1  0  0  0  0
 27 29  2  0  0  0  0
 28 27  1  0  0  0  0
 29  2  1  0  0  0  0
 29 30  1  0  0  0  0
 30 31  1  0  0  0  0
 32 30  2  0  0  0  0
 32 33  1  0  0  0  0
 34 36  1  0  0  0  0
 34  2  1  0  0  0  0
 35 34  1  0  0  0  0
 37 34  1  0  0  0  0
M  END
