1,2
q = -1.0, confidence = 0.0

 36 37  0  0  0  0  0  0  0  0999 V2000
    0.5561    1.0937    1.5398 N   0  0  0  0  0  2  0  0  0  0  0  0
   -0.8320   -0.8733    0.0167 C   0  0  0  0  0  2  0  0  0  0  0  0
   -0.8994   -2.3498    0.2226 C   0  0  0  0  0  0  0  0  0  0  0  0
   -0.5885   -3.1764   -0.6250 O   0  0  0  0  0  0  0  0  0  0  0  0
   -1.2941   -2.6718    1.4744 O   0  0  0  0  0  0  0  0  0  0  0  0
   -1.1988   -4.0614    1.7978 C   0  0  0  0  0  0  0  0  0  0  0  0
   -1.5813   -4.1630    2.8293 H   0  0  0  0  0  0  0  0  0  0  0  0
   -0.1410   -4.3899    1.7466 H   0  0  0  0  0  0  0  0  0  0  0  0
   -1.8002   -4.6757    1.0970 H   0  0  0  0  0  0  0  0  0  0  0  0
   -1.9574   -0.1193   -0.1765 C   0  0  0  0  0  0  0  0  0  0  0  0
   -4.3431   -0.0396    0.1642 O   0  0  0  0  0  0  0  0  0  0  0  0
   -3.3840   -2.0189   -0.3726 O   0  0  0  0  0  0  0  0  0  0  0  0
   -3.3417   -0.6875   -0.1025 C   0  0  0  0  0  0  0  0  0  0  0  0
   -4.6453   -2.6524   -0.1628 C   0  0  0  0  0  0  0  0  0  0  0  0
   -4.5185   -3.7005   -0.4886 H   0  0  0  0  0  0  0  0  0  0  0  0
   -5.4430   -2.1543   -0.7498 H   0  0  0  0  0  0  0  0  0  0  0  0
   -4.9314   -2.6159    0.9088 H   0  0  0  0  0  0  0  0  0  0  0  0
   -1.9332    1.3326   -0.4957 C   0  0  0  0  0  0  0  0  0  0  0  0
   -2.7225    1.7854   -1.5798 C   0  0  0  0  0  0  0  0  0  0  0  0
   -3.3173    1.0470   -2.1370 H   0  0  0  0  0  0  0  0  0  0  0  0
   -2.7743    3.1319   -1.9543 C   0  0  0  0  0  0  0  0  0  0  0  0
   -3.3958    3.4399   -2.8086 H   0  0  0  0  0  0  0  0  0  0  0  0
   -2.0343    4.0819   -1.2340 C   0  0  0  0  0  0  0  0  0  0  0  0
   -2.0587    5.1453   -1.5150 H   0  0  0  0  0  0  0  0  0  0  0  0
   -1.2659    3.6611   -0.1439 C   0  0  0  0  0  0  0  0  0  0  0  0
   -0.6882    4.4001    0.4324 H   0  0  0  0  0  0  0  0  0  0  0  0
   -1.1980    2.2996    0.2381 C   0  0  0  0  0  0  0  0  0  0  0  0
   -0.4486    2.0117    1.4904 C   0  0  0  0  0  0  0  0  0  0  0  0
   -0.7639    2.7842    2.6311 C   0  0  0  0  0  0  0  0  0  0  0  0
   -1.6110    3.4807    2.5714 H   0  0  0  0  0  0  0  0  0  0  0  0
   -0.0245    2.6498    3.8084 C   0  0  0  0  0  0  0  0  0  0  0  0
   -0.2741    3.2483    4.6975 H   0  0  0  0  0  0  0  0  0  0  0  0
    1.0347    1.7349    3.8237 C   0  0  0  0  0  0  0  0  0  0  0  0
    1.6621    1.5864    4.7138 H   0  0  0  0  0  0  0  0  0  0  0  0
    1.2811    0.9729    2.6794 C   0  0  0  0  0  0  0  0  0  0  0  0
    2.0535    0.1890    2.6579 H   0  0  0  0  0  0  0  0  0  0  0  0
  1 35  1  0  0  0  0
  2  3  1  0  0  0  0
  3  5  1  0  0  0  0
  4  3  2  0  0  0  0
  5  6  1  0  0  0  0
  6  7  1  0  0  0  0
  8  6  1  0  0  0  0
  9  6  1  0  0  0  0
 10 13  1  0  0  0  0
 10  2  1  0  0  0  0
 12 14  1  0  0  0  0
 12 13  1  0  0  0  0
 13 11  2  0  0  0  0
 14 17  1  0  0  0  0
 15 14  1  0  0  0  0
 16 14  1  0  0  0  0
 18 10  2  0  0  0  0
 18 27  1  0  0  0  0
 19 18  1  0  0  0  0
 20 19  1  0  0  0  0
 21 19  2  0  0  0  0
 21 23  1  0  0  0  0
 22 21  1  0  0  0  0
 23 25  2  0  0  0  0
 24 23  1  0  0  0  0
 25 27  1  0  0  0  0
 25 26  1  0  0  0  0
 27 28  2  0  0  0  0
 28  1  1  0  0  0  0
 28 29  1  0  0  0  0
 29 31  2  0  0  0  0
 30 29  1  0  0  0  0
 31 33  1  0  0  0  0
 31 32  1  0  0  0  0
 33 34  1  0  0  0  0
 35 33  2  0  0  0  0
 36 35  1  0  0  0  0
M  END
