1,2
q = -1.0, confidence = 0.0

 33 33  0  0  0  0  0  0  0  0999 V2000
   -0.5505    0.9149    1.9302 N   0  0  0  0  0  2  0  0  0  0  0  0
    0.7969   -0.7644    0.0751 C   0  0  0  0  0  2  0  0  0  0  0  0
    0.8140   -2.2518   -0.0584 C   0  0  0  0  0  0  0  0  0  0  0  0
    0.4584   -2.8591   -1.0591 O   0  0  0  0  0  0  0  0  0  0  0  0
    1.2185   -2.8550    1.0820 O   0  0  0  0  0  0  0  0  0  0  0  0
    1.0620   -4.2768    1.1010 C   0  0  0  0  0  0  0  0  0  0  0  0
    1.4713   -4.6172    2.0691 H   0  0  0  0  0  0  0  0  0  0  0  0
    1.6076   -4.7493    0.2590 H   0  0  0  0  0  0  0  0  0  0  0  0
   -0.0131   -4.5373    1.0258 H   0  0  0  0  0  0  0  0  0  0  0  0
    1.9481   -0.0253    0.0492 C   0  0  0  0  0  0  0  0  0  0  0  0
    3.3038   -0.6657   -0.0215 C   0  0  0  0  0  0  0  0  0  0  0  0
    4.3288   -0.1736    0.4253 O   0  0  0  0  0  0  0  0  0  0  0  0
    3.2844   -1.8710   -0.6489 O   0  0  0  0  0  0  0  0  0  0  0  0
    4.5000   -2.6172   -0.5934 C   0  0  0  0  0  0  0  0  0  0  0  0
    4.3295   -3.5235   -1.2018 H   0  0  0  0  0  0  0  0  0  0  0  0
    4.7412   -2.8976    0.4528 H   0  0  0  0  0  0  0  0  0  0  0  0
    5.3472   -2.0275   -0.9977 H   0  0  0  0  0  0  0  0  0  0  0  0
    2.0131    1.4594    0.0986 C   0  0  0  0  0  0  0  0  0  0  0  0
    2.8800    2.1105   -0.8108 C   0  0  0  0  0  0  0  0  0  0  0  0
    3.4311    1.4969   -1.5381 H   0  0  0  0  0  0  0  0  0  0  0  0
    3.0654    3.4967   -0.8086 C   0  0  0  0  0  0  0  0  0  0  0  0
    3.7413    3.9586   -1.5441 H   0  0  0  0  0  0  0  0  0  0  0  0
    2.4117    4.2887    0.1491 C   0  0  0  0  0  0  0  0  0  0  0  0
    2.5678    5.3770    0.1813 H   0  0  0  0  0  0  0  0  0  0  0  0
    1.5710    3.6691    1.0763 C   0  0  0  0  0  0  0  0  0  0  0  0
    1.0660    4.2746    1.8459 H   0  0  0  0  0  0  0  0  0  0  0  0
    1.3285    2.2730    1.0439 C   0  0  0  0  0  0  0  0  0  0  0  0
    0.3875    1.7969    2.0617 C   0  0  0  0  0  0  0  0  0  0  0  0
    0.4421    2.3324    3.0345 H   0  0  0  0  0  0  0  0  0  0  0  0
   -1.4154    0.6644    3.0757 C   0  0  0  0  0  0  0  0  0  0  0  0
   -1.0898    1.2395    3.9681 H   0  0  0  0  0  0  0  0  0  0  0  0
   -1.4283   -0.4259    3.2747 H   0  0  0  0  0  0  0  0  0  0  0  0
   -2.4556    0.9404    2.8068 H   0  0  0  0  0  0  0  0  0  0  0  0
  1 28  1  0  0  0  0
  1 30  1  0  0  0  0
  3  2  1  0  0  0  0
  3  5  1  0  0  0  0
  4  3  2  0  0  0  0
  5  6  1  0  0  0  0
  6  7  1  0  0  0  0
  8  6  1  0  0  0  0
  9  6  1  0  0  0  0
 10  2  1  0  0  0  0
 10 18  2  0  0  0  0
 11 10  1  0  0  0  0
 11 12  2  0  0  0  0
 13 14  1  0  0  0  0
 13 11  1  0  0  0  0
 14 16  1  0  0  0  0
 15 14  1  0  0  0  0
 17 14  1  0  0  0  0
 18 27  1  0  0  0  0
 19 21  2  0  0  0  0
 19 18  1  0  0  0  0
 20 19  1  0  0  0  0
 21 23  1  0  0  0  0
 22 21  1  0  0  0  0
 23 24  1  0  0  0  0
 23 25  2  0  0  0  0
 25 26  1  0  0  0  0
 27 25  1  0  0  0  0
 27 28  2  0  0  0  0
 28 29  1  0  0  0  0
 30 32  1  0  0  0  0
 30 31  1  0  0  0  0
 33 30  1  0  0  0  0
M  END
