2,24
q = 0.0, confidence = 0.996

 24 25  0  0  1  0  0  0  0  0999 V2000
   -1.9921    1.0850   -0.7051 C   0  0  2  0  0  3  0  0  0  0  0  0
   -0.8386    0.8946   -1.5543 C   0  0  0  0  0  3  0  0  0  0  0  0
   -0.4915    1.8363   -2.0117 H   0  0  0  0  0  0  0  0  0  0  0  0
   -1.0049    0.1364   -2.3463 H   0  0  0  0  0  0  0  0  0  0  0  0
   -2.6473    2.2372   -0.3819 N   0  0  0  0  0  0  0  0  0  0  0  0
   -2.4097    3.5355   -1.0040 C   0  0  0  0  0  0  0  0  0  0  0  0
   -1.3263    3.7335   -1.0728 H   0  0  0  0  0  0  0  0  0  0  0  0
   -2.8743    4.3197   -0.3805 H   0  0  0  0  0  0  0  0  0  0  0  0
   -2.8513    3.5679   -2.0200 H   0  0  0  0  0  0  0  0  0  0  0  0
   -3.6947    1.9590    0.4976 C   0  0  0  0  0  0  0  0  0  0  0  0
   -4.3445    2.7460    0.8914 H   0  0  0  0  0  0  0  0  0  0  0  0
   -3.6978    0.6128    0.7226 C   0  0  0  0  0  0  0  0  0  0  0  0
   -4.3245   -0.0018    1.3734 H   0  0  0  0  0  0  0  0  0  0  0  0
   -2.6441    0.0775   -0.0244 N   0  0  0  0  0  0  0  0  0  0  0  0
   -2.2300   -1.2756   -0.0289 C   0  0  2  0  0  3  0  0  0  0  0  0
   -3.1795   -2.3015    0.0801 C   0  0  0  0  0  0  0  0  0  0  0  0
   -4.2504   -2.0583    0.1089 H   0  0  0  0  0  0  0  0  0  0  0  0
   -2.7359   -3.6286    0.1068 C   0  0  0  0  0  0  0  0  0  0  0  0
   -3.4596   -4.4521    0.1911 H   0  0  0  0  0  0  0  0  0  0  0  0
   -1.3622   -3.8830   -0.0112 C   0  0  0  0  0  0  0  0  0  0  0  0
   -0.9673   -4.9083   -0.0228 H   0  0  0  0  0  0  0  0  0  0  0  0
   -0.4813   -2.8080   -0.1458 C   0  0  0  0  0  0  0  0  0  0  0  0
    0.5962   -2.9472   -0.3106 H   0  0  0  0  0  0  0  0  0  0  0  0
   -0.8974   -1.5149   -0.1239 N   0  0  0  0  0  2  0  0  0  0  0  0
  1  2  1  1  0  0  0
  1  5  1  0  0  0  0
  1 14  1  0  0  0  0
  3  2  1  0  0  0  0
  4  2  1  0  0  0  0
  5 10  1  0  0  0  0
  6  5  1  0  0  0  0
  6  8  1  0  0  0  0
  7  6  1  0  0  0  0
  9  6  1  0  0  0  0
 10 12  2  0  0  0  0
 10 11  1  0  0  0  0
 12 13  1  0  0  0  0
 14 12  1  0  0  0  0
 15 14  1  1  0  0  0
 15 16  1  0  0  0  0
 16 18  2  0  0  0  0
 16 17  1  0  0  0  0
 18 19  1  0  0  0  0
 20 18  1  0  0  0  0
 21 20  1  0  0  0  0
 22 24  1  0  0  0  0
 22 20  2  0  0  0  0
 23 22  1  0  0  0  0
 24 15  1  0  0  0  0
M  END
