1,21
q = -1.0, confidence = 0.0

 21 23  0  0  0  0  0  0  0  0999 V2000
   -0.2661    0.4447   -2.0145 N   0  0  0  0  0  2  0  0  0  0  0  0
   -1.2040    1.3840   -2.3223 N   0  0  0  0  0  0  0  0  0  0  0  0
   -4.5314    4.3265   -0.1584 O   0  0  0  0  0  0  0  0  0  0  0  0
   -3.9811    3.5121    1.9374 O   0  0  0  0  0  0  0  0  0  0  0  0
    0.3010    0.0473   -3.1691 C   0  0  0  0  0  3  0  0  0  0  0  0
    1.0904   -0.7110   -3.1458 H   0  0  0  0  0  0  0  0  0  0  0  0
   -0.2883    0.7444   -4.2461 C   0  0  0  0  0  0  0  0  0  0  0  0
   -0.0504    0.6503   -5.3096 H   0  0  0  0  0  0  0  0  0  0  0  0
   -1.2424    1.5872   -3.6711 C   0  0  0  0  0  0  0  0  0  0  0  0
   -1.9350    2.3063   -4.1175 H   0  0  0  0  0  0  0  0  0  0  0  0
   -1.9250    1.9322   -1.2310 C   0  0  0  0  0  0  0  0  0  0  0  0
   -2.9245    2.9139   -1.4335 C   0  0  0  0  0  0  0  0  0  0  0  0
   -3.1904    3.3100   -2.4225 H   0  0  0  0  0  0  0  0  0  0  0  0
   -3.5613    3.3587   -0.2834 C   0  0  0  0  0  0  0  0  0  0  0  0
   -4.9665    4.2393    1.2010 C   0  0  0  0  0  0  0  0  0  0  0  0
   -5.0718    5.2602    1.6243 H   0  0  0  0  0  0  0  0  0  0  0  0
   -5.9441    3.6952    1.2473 H   0  0  0  0  0  0  0  0  0  0  0  0
   -3.2220    2.8644    0.9896 C   0  0  0  0  0  0  0  0  0  0  0  0
   -2.2318    1.9047    1.1776 C   0  0  0  0  0  0  0  0  0  0  0  0
   -1.9861    1.5474    2.1878 H   0  0  0  0  0  0  0  0  0  0  0  0
   -1.5488    1.4106    0.0364 C   0  0  0  0  0  3  0  0  0  0  0  0
  2  1  1  0  0  0  0
  2 11  1  0  0  0  0
  3 15  1  0  0  0  0
  5  6  1  0  0  0  0
  5  1  1  0  0  0  0
  7  9  2  0  0  0  0
  7  5  1  0  0  0  0
  8  7  1  0  0  0  0
  9  2  1  0  0  0  0
 10  9  1  0  0  0  0
 11 21  1  0  0  0  0
 12 11  2  0  0  0  0
 12 14  1  0  0  0  0
 13 12  1  0  0  0  0
 14  3  1  0  0  0  0
 14 18  2  0  0  0  0
 15 17  1  0  0  0  0
 15 16  1  0  0  0  0
 15  4  1  0  0  0  0
 18 19  1  0  0  0  0
 18  4  1  0  0  0  0
 19 20  1  0  0  0  0
 21 19  2  0  0  0  0
M  END
