9,11
q = 0.0, confidence = 0.988

 30 32  0  0  1  0  0  0  0  0999 V2000
   -1.4291   -3.9500   -0.0728 C   0  0  0  0  0  0  0  0  0  0  0  0
   -2.1162   -3.1110   -0.2703 H   0  0  0  0  0  0  0  0  0  0  0  0
   -1.7082   -4.4478    0.8782 H   0  0  0  0  0  0  0  0  0  0  0  0
   -1.5143   -4.6820   -0.8995 H   0  0  0  0  0  0  0  0  0  0  0  0
    1.0668   -4.2079    0.1171 C   0  0  0  0  0  0  0  0  0  0  0  0
    1.0206   -5.2979    0.2010 H   0  0  0  0  0  0  0  0  0  0  0  0
    2.1479   -3.3730    0.1119 C   0  0  0  0  0  0  0  0  0  0  0  0
    3.2039   -3.6118    0.2327 H   0  0  0  0  0  0  0  0  0  0  0  0
    1.3146    0.1696   -0.0263 N   0  0  0  0  0  2  0  0  0  0  0  0
    1.6486    1.4717    0.0773 N   0  0  0  0  0  0  0  0  0  0  0  0
    0.2391   -2.0926   -0.0748 C   0  0  0  0  0  2  0  0  0  0  0  0
    1.6424   -2.0765   -0.0282 N   0  0  0  0  0  0  0  0  0  0  0  0
    2.2471   -0.8119   -0.0673 C   0  0  1  0  0  3  0  0  0  0  0  0
   -0.0784   -3.4212   -0.0050 N   0  0  0  0  0  0  0  0  0  0  0  0
    3.6475   -0.5160   -0.1552 C   0  0  0  0  0  0  0  0  0  0  0  0
    4.6950   -1.4524   -0.3834 C   0  0  0  0  0  0  0  0  0  0  0  0
    4.4745   -2.5108   -0.5540 H   0  0  0  0  0  0  0  0  0  0  0  0
    6.0189   -1.0296   -0.4566 C   0  0  0  0  0  0  0  0  0  0  0  0
    6.8092   -1.7713   -0.6450 H   0  0  0  0  0  0  0  0  0  0  0  0
    6.3601    0.3348   -0.3095 C   0  0  0  0  0  0  0  0  0  0  0  0
    7.4128    0.6479   -0.3643 H   0  0  0  0  0  0  0  0  0  0  0  0
    5.3562    1.2798   -0.1221 C   0  0  0  0  0  0  0  0  0  0  0  0
    5.5869    2.3504   -0.0357 H   0  0  0  0  0  0  0  0  0  0  0  0
    4.0050    0.8708   -0.0540 C   0  0  0  0  0  0  0  0  0  0  0  0
    2.9215    1.8116    0.0866 C   0  0  0  0  0  0  0  0  0  0  0  0
    2.1839    4.0577    0.2718 C   0  0  0  0  0  0  0  0  0  0  0  0
    2.6719    5.0474    0.3065 H   0  0  0  0  0  0  0  0  0  0  0  0
    1.5678    3.9014    1.1809 H   0  0  0  0  0  0  0  0  0  0  0  0
    1.5254    3.9741   -0.6160 H   0  0  0  0  0  0  0  0  0  0  0  0
    3.2498    3.1033    0.2075 O   0  0  0  0  0  0  0  0  0  0  0  0
  1 14  1  0  0  0  0
  1  3  1  0  0  0  0
  2  1  1  0  0  0  0
  4  1  1  0  0  0  0
  5  6  1  0  0  0  0
  7  5  2  0  0  0  0
  7  8  1  0  0  0  0
  9 10  1  0  0  0  0
 10 25  2  0  0  0  0
 11 12  1  0  0  0  0
 11 14  1  0  0  0  0
 12  7  1  0  0  0  0
 13 12  1  6  0  0  0
 13  9  1  0  0  0  0
 14  5  1  0  0  0  0
 15 13  1  0  0  0  0
 15 24  1  0  0  0  0
 16 15  2  0  0  0  0
 17 16  1  0  0  0  0
 18 16  1  0  0  0  0
 18 20  2  0  0  0  0
 19 18  1  0  0  0  0
 20 22  1  0  0  0  0
 21 20  1  0  0  0  0
 22 24  2  0  0  0  0
 22 23  1  0  0  0  0
 24 25  1  0  0  0  0
 25 30  1  0  0  0  0
 26 27  1  0  0  0  0
 26 28  1  0  0  0  0
 29 26  1  0  0  0  0
 30 26  1  0  0  0  0
M  END
