1,2
q = -1.0, confidence = 0.0

 16 16  0  0  1  0  0  0  0  0999 V2000
    2.0367    1.2239    0.2119 N   0  0  0  0  0  2  0  0  0  0  0  0
    1.6974    0.5297   -1.9329 C   0  0  0  0  0  3  0  0  0  0  0  0
    2.2302   -0.3147   -2.4170 H   0  0  0  0  0  0  0  0  0  0  0  0
    1.2509    1.1605   -2.7323 H   0  0  0  0  0  0  0  0  0  0  0  0
    2.6014    1.3190   -1.0355 C   0  0  1  0  0  3  0  0  0  0  0  0
    3.7479    2.0843   -1.2508 C   0  0  0  0  0  0  0  0  0  0  0  0
    4.1888    2.1375   -2.2562 H   0  0  0  0  0  0  0  0  0  0  0  0
    4.2880    2.7952   -0.1631 C   0  0  0  0  0  0  0  0  0  0  0  0
    5.1888    3.4143   -0.2930 H   0  0  0  0  0  0  0  0  0  0  0  0
    3.6502    2.7376    1.0811 C   0  0  0  0  0  0  0  0  0  0  0  0
    4.0302    3.3190    1.9339 H   0  0  0  0  0  0  0  0  0  0  0  0
    2.4982    1.9420    1.2624 C   0  0  0  0  0  0  0  0  0  0  0  0
    1.7489    1.9122    2.5607 C   0  0  0  0  0  0  0  0  0  0  0  0
    0.7149    1.5561    2.4015 H   0  0  0  0  0  0  0  0  0  0  0  0
    1.7255    2.9225    3.0137 H   0  0  0  0  0  0  0  0  0  0  0  0
    2.2343    1.2340    3.2912 H   0  0  0  0  0  0  0  0  0  0  0  0
  1 12  1  0  0  0  0
  3  2  1  0  0  0  0
  4  2  1  0  0  0  0
  5  2  1  6  0  0  0
  5  1  1  0  0  0  0
  6  5  1  0  0  0  0
  6  8  2  0  0  0  0
  7  6  1  0  0  0  0
  8 10  1  0  0  0  0
  9  8  1  0  0  0  0
 10 12  2  0  0  0  0
 10 11  1  0  0  0  0
 12 13  1  0  0  0  0
 13 15  1  0  0  0  0
 13 16  1  0  0  0  0
 14 13  1  0  0  0  0
M  END
