4,5
q = -2.0, confidence = 0.604

 37 38  0  0  0  0  0  0  0  0999 V2000
   -1.3648   -2.3364   -0.0869 S   0  0  0  0  0  0  0  0  0  0  0  0
   -0.3752   -2.3886   -1.1966 O   0  0  0  0  0  0  0  0  0  0  0  0
   -1.8215   -3.5956    0.5574 O   0  0  0  0  0  0  0  0  0  0  0  0
   -0.7406   -1.3409    1.0838 N   0  0  0  0  0  2  0  0  0  0  0  0
   -0.9079    1.3973    0.6712 C   0  0  0  0  0  3  0  0  0  0  0  0
   -1.2500    2.3258   -0.3432 C   0  0  0  0  0  0  0  0  0  0  0  0
   -2.3000    3.2413   -0.0997 C   0  0  0  0  0  0  0  0  0  0  0  0
   -2.5729    3.9623   -0.8886 H   0  0  0  0  0  0  0  0  0  0  0  0
   -3.0113    3.2284    1.1050 C   0  0  0  0  0  0  0  0  0  0  0  0
   -3.8273    3.9479    1.2737 H   0  0  0  0  0  0  0  0  0  0  0  0
   -2.6958    2.2754    2.0866 C   0  0  0  0  0  0  0  0  0  0  0  0
   -3.2697    2.2392    3.0270 H   0  0  0  0  0  0  0  0  0  0  0  0
   -1.6543    1.3548    1.8756 C   0  0  0  0  0  0  0  0  0  0  0  0
   -1.3628    0.2567    2.8744 C   0  0  0  0  0  0  0  0  0  0  0  0
   -2.0072    0.3601    3.7716 H   0  0  0  0  0  0  0  0  0  0  0  0
   -0.3064    0.3192    3.2177 H   0  0  0  0  0  0  0  0  0  0  0  0
   -1.5989   -1.1292    2.2525 C   0  0  0  0  0  0  0  0  0  0  0  0
   -1.4007   -1.9187    3.0115 H   0  0  0  0  0  0  0  0  0  0  0  0
   -2.6786   -1.2030    1.9859 H   0  0  0  0  0  0  0  0  0  0  0  0
   -2.8388   -1.5116   -0.7129 C   0  0  0  0  0  0  0  0  0  0  0  0
   -2.6989   -0.4637   -1.6370 C   0  0  0  0  0  0  0  0  0  0  0  0
   -1.7059   -0.2400   -2.0500 H   0  0  0  0  0  0  0  0  0  0  0  0
   -3.8255    0.2724   -2.0124 C   0  0  0  0  0  0  0  0  0  0  0  0
   -3.7168    1.0991   -2.7329 H   0  0  0  0  0  0  0  0  0  0  0  0
   -5.1005   -0.0132   -1.4754 C   0  0  0  0  0  0  0  0  0  0  0  0
   -5.2178   -1.0882   -0.5728 C   0  0  0  0  0  0  0  0  0  0  0  0
   -6.2075   -1.3404   -0.1597 H   0  0  0  0  0  0  0  0  0  0  0  0
   -4.0974   -1.8406   -0.1882 C   0  0  0  0  0  0  0  0  0  0  0  0
   -4.1824   -2.6914    0.5032 H   0  0  0  0  0  0  0  0  0  0  0  0
   -6.2916    0.8322   -1.8473 C   0  0  0  0  0  0  0  0  0  0  0  0
   -6.2193    1.8376   -1.3795 H   0  0  0  0  0  0  0  0  0  0  0  0
   -7.2421    0.3743   -1.5113 H   0  0  0  0  0  0  0  0  0  0  0  0
   -6.3532    0.9915   -2.9433 H   0  0  0  0  0  0  0  0  0  0  0  0
   -0.5762    2.3439   -1.6993 C   0  0  0  0  0  0  0  0  0  0  0  0
    0.1218    1.4926   -1.8152 H   0  0  0  0  0  0  0  0  0  0  0  0
   -0.0077    3.2826   -1.8745 H   0  0  0  0  0  0  0  0  0  0  0  0
   -1.3292    2.2783   -2.5120 H   0  0  0  0  0  0  0  0  0  0  0  0
  1  3  2  0  0  0  0
  1  4  1  0  0  0  0
  2  1  2  0  0  0  0
  4 17  1  0  0  0  0
  5 13  1  0  0  0  0
  6  7  1  0  0  0  0
  6  5  2  0  0  0  0
  7  9  2  0  0  0  0
  8  7  1  0  0  0  0
  9 10  1  0  0  0  0
  9 11  1  0  0  0  0
 11 12  1  0  0  0  0
 13 11  2  0  0  0  0
 13 14  1  0  0  0  0
 14 16  1  0  0  0  0
 14 15  1  0  0  0  0
 17 14  1  0  0  0  0
 17 18  1  0  0  0  0
 19 17  1  0  0  0  0
 20 28  1  0  0  0  0
 20  1  1  0  0  0  0
 21 20  2  0  0  0  0
 22 21  1  0  0  0  0
 23 21  1  0  0  0  0
 23 25  2  0  0  0  0
 24 23  1  0  0  0  0
 25 26  1  0  0  0  0
 26 28  2  0  0  0  0
 26 27  1  0  0  0  0
 28 29  1  0  0  0  0
 30 32  1  0  0  0  0
 30 25  1  0  0  0  0
 30 31  1  0  0  0  0
 33 30  1  0  0  0  0
 34  6  1  0  0  0  0
 35 34  1  0  0  0  0
 36 34  1  0  0  0  0
 37 34  1  0  0  0  0
M  END
