2,3
q = -1.0, confidence = 0.002

 27 27  0  0  0  0  0  0  0  0999 V2000
   -0.0019    2.7765   -0.6610 O   0  0  0  0  0  0  0  0  0  0  0  0
    2.8134    1.8016   -0.2707 N   0  0  0  0  0  2  0  0  0  0  0  0
    2.2039   -0.8073   -0.2994 C   0  0  0  0  0  2  0  0  0  0  0  0
    1.9130   -2.1731   -0.4021 C   0  0  0  0  0  0  0  0  0  0  0  0
    0.8778   -2.5356   -0.4642 H   0  0  0  0  0  0  0  0  0  0  0  0
    2.9525   -3.1269   -0.4154 C   0  0  0  0  0  0  0  0  0  0  0  0
    2.6946   -4.1941   -0.4967 H   0  0  0  0  0  0  0  0  0  0  0  0
    4.2979   -2.7397   -0.3199 C   0  0  0  0  0  0  0  0  0  0  0  0
    5.0951   -3.4968   -0.3224 H   0  0  0  0  0  0  0  0  0  0  0  0
    4.6150   -1.3794   -0.2278 C   0  0  0  0  0  0  0  0  0  0  0  0
    5.6645   -1.0525   -0.1625 H   0  0  0  0  0  0  0  0  0  0  0  0
    3.5833   -0.4164   -0.2289 C   0  0  0  0  0  0  0  0  0  0  0  0
    3.8384    1.0067   -0.1713 C   0  0  0  0  0  0  0  0  0  0  0  0
    4.8625    1.4101   -0.0375 H   0  0  0  0  0  0  0  0  0  0  0  0
    2.9096    3.2476   -0.1461 C   0  0  0  0  0  0  0  0  0  0  0  0
    2.8837    3.6995   -1.1637 H   0  0  0  0  0  0  0  0  0  0  0  0
    3.8866    3.5221    0.3074 H   0  0  0  0  0  0  0  0  0  0  0  0
    1.7505    3.8077    0.6956 C   0  0  0  0  0  0  0  0  0  0  0  0
    1.5890    3.1560    1.5810 H   0  0  0  0  0  0  0  0  0  0  0  0
    2.0411    4.8026    1.0912 H   0  0  0  0  0  0  0  0  0  0  0  0
    0.4514    4.0042   -0.0711 C   0  0  0  0  0  0  0  0  0  0  0  0
   -0.3467    4.4021    0.5958 H   0  0  0  0  0  0  0  0  0  0  0  0
    0.6107    4.7431   -0.8902 H   0  0  0  0  0  0  0  0  0  0  0  0
   -0.9458    2.9661   -1.7158 C   0  0  0  0  0  0  0  0  0  0  0  0
   -1.8605    3.4711   -1.3402 H   0  0  0  0  0  0  0  0  0  0  0  0
   -1.2136    1.9672   -2.1043 H   0  0  0  0  0  0  0  0  0  0  0  0
   -0.4952    3.5686   -2.5349 H   0  0  0  0  0  0  0  0  0  0  0  0
  1 21  1  0  0  0  0
  2 13  1  0  0  0  0
  2 15  1  0  0  0  0
  3 12  1  0  0  0  0
  4  3  1  0  0  0  0
  5  4  1  0  0  0  0
  6  4  2  0  0  0  0
  6  8  1  0  0  0  0
  7  6  1  0  0  0  0
  8 10  2  0  0  0  0
  9  8  1  0  0  0  0
 10 11  1  0  0  0  0
 12 10  1  0  0  0  0
 12 13  2  0  0  0  0
 13 14  1  0  0  0  0
 15 17  1  0  0  0  0
 15 18  1  0  0  0  0
 16 15  1  0  0  0  0
 18 20  1  0  0  0  0
 18 19  1  0  0  0  0
 21 22  1  0  0  0  0
 21 18  1  0  0  0  0
 23 21  1  0  0  0  0
 24 25  1  0  0  0  0
 24  1  1  0  0  0  0
 26 24  1  0  0  0  0
 27 24  1  0  0  0  0
M  END
