3,26
q = -1.0, confidence = 0.06

 48 50  0  0  1  0  0  0  0  0999 V2000
    2.6045    2.2947    0.3497 N   0  0  0  0  0  0  0  0  0  0  0  0
    2.0716    2.9729    0.8976 H   0  0  0  0  0  0  0  0  0  0  0  0
    1.7456   -1.8927    0.6501 N   0  0  0  0  0  0  0  0  0  0  0  0
    1.3812   -2.8119    0.9543 H   0  0  0  0  0  0  0  0  0  0  0  0
    2.1703   -1.4286    1.4717 H   0  0  0  0  0  0  0  0  0  0  0  0
   -0.0004    1.7896    0.9093 N   0  0  0  0  0  2  0  0  0  0  0  0
    5.1643   -2.3903   -0.4839 O   0  0  0  0  0  0  0  0  0  0  0  0
    4.3064   -1.7741    1.5251 O   0  0  0  0  0  0  0  0  0  0  0  0
    2.0113    1.1153   -0.0799 C   0  0  0  0  0  0  0  0  0  0  0  0
    2.9476    0.3907   -0.8347 C   0  0  0  0  0  0  0  0  0  0  0  0
    4.1607    1.1648   -0.8393 C   0  0  0  0  0  0  0  0  0  0  0  0
    5.4434    0.9706   -1.4039 C   0  0  0  0  0  0  0  0  0  0  0  0
    5.6624    0.0642   -1.9887 H   0  0  0  0  0  0  0  0  0  0  0  0
    6.4239    1.9458   -1.2070 C   0  0  0  0  0  0  0  0  0  0  0  0
    7.4255    1.8083   -1.6415 H   0  0  0  0  0  0  0  0  0  0  0  0
    6.1491    3.1200   -0.4588 C   0  0  0  0  0  0  0  0  0  0  0  0
    6.9429    3.8701   -0.3236 H   0  0  0  0  0  0  0  0  0  0  0  0
    4.8916    3.3459    0.1087 C   0  0  0  0  0  0  0  0  0  0  0  0
    4.6820    4.2576    0.6873 H   0  0  0  0  0  0  0  0  0  0  0  0
    3.9031    2.3624   -0.0843 C   0  0  0  0  0  0  0  0  0  0  0  0
    2.8071   -2.0825   -0.3581 C   0  0  1  0  0  0  0  0  0  0  0  0
    2.6534   -3.0599   -0.8591 H   0  0  0  0  0  0  0  0  0  0  0  0
    2.7645   -0.9683   -1.4334 C   0  0  0  0  0  0  0  0  0  0  0  0
    3.5548   -1.1734   -2.1813 H   0  0  0  0  0  0  0  0  0  0  0  0
    1.7838   -1.0557   -1.9477 H   0  0  0  0  0  0  0  0  0  0  0  0
    0.6199    0.8375    0.2932 C   0  0  0  0  0  2  0  0  0  0  0  0
    4.1609   -2.0761    0.3537 C   0  0  0  0  0  0  0  0  0  0  0  0
    6.4885   -2.2862    0.0692 C   0  0  0  0  0  0  0  0  0  0  0  0
    6.7239   -1.2256    0.2901 H   0  0  0  0  0  0  0  0  0  0  0  0
    7.1718   -2.6799   -0.7033 H   0  0  0  0  0  0  0  0  0  0  0  0
    6.5697   -2.8755    1.0032 H   0  0  0  0  0  0  0  0  0  0  0  0
   -1.3274    1.7602    1.3374 C   0  0  0  0  0  0  0  0  0  0  0  0
   -2.2431    2.6221    0.6690 C   0  0  0  0  0  0  0  0  0  0  0  0
   -3.5940    2.6018    1.0504 C   0  0  0  0  0  0  0  0  0  0  0  0
   -4.3106    3.2453    0.5158 H   0  0  0  0  0  0  0  0  0  0  0  0
   -4.0354    1.7776    2.0967 C   0  0  0  0  0  0  0  0  0  0  0  0
   -5.0974    1.7698    2.3837 H   0  0  0  0  0  0  0  0  0  0  0  0
   -3.1139    0.9753    2.7831 C   0  0  0  0  0  0  0  0  0  0  0  0
   -3.4511    0.3491    3.6247 H   0  0  0  0  0  0  0  0  0  0  0  0
   -1.7531    0.9453    2.4226 C   0  0  0  0  0  0  0  0  0  0  0  0
   -1.7444    3.4916   -0.4533 C   0  0  0  0  0  0  0  0  0  0  0  0
   -2.5261    4.1942   -0.8011 H   0  0  0  0  0  0  0  0  0  0  0  0
   -1.4103    2.8835   -1.3210 H   0  0  0  0  0  0  0  0  0  0  0  0
   -0.8532    4.0723   -0.1370 H   0  0  0  0  0  0  0  0  0  0  0  0
   -0.7786    0.0651    3.1604 C   0  0  0  0  0  0  0  0  0  0  0  0
   -0.5934   -0.8783    2.5988 H   0  0  0  0  0  0  0  0  0  0  0  0
   -1.1670   -0.2114    4.1596 H   0  0  0  0  0  0  0  0  0  0  0  0
    0.2053    0.5610    3.2832 H   0  0  0  0  0  0  0  0  0  0  0  0
  1  2  1  0  0  0  0
  3  4  1  0  0  0  0
  3  5  1  0  0  0  0
  6 32  1  0  0  0  0
  7 28  1  0  0  0  0
  7 27  1  0  0  0  0
  9 26  1  0  0  0  0
  9  1  1  0  0  0  0
 10  9  2  0  0  0  0
 11 10  1  0  0  0  0
 11 20  1  0  0  0  0
 12 14  1  0  0  0  0
 12 11  2  0  0  0  0
 13 12  1  0  0  0  0
 14 16  2  0  0  0  0
 15 14  1  0  0  0  0
 16 17  1  0  0  0  0
 16 18  1  0  0  0  0
 18 19  1  0  0  0  0
 20 18  2  0  0  0  0
 20  1  1  0  0  0  0
 21 22  1  6  0  0  0
 21 27  1  0  0  0  0
 21  3  1  0  0  0  0
 23 10  1  0  0  0  0
 23 21  1  0  0  0  0
 24 23  1  0  0  0  0
 25 23  1  0  0  0  0
 26  6  1  0  0  0  0
 27  8  2  0  0  0  0
 28 29  1  0  0  0  0
 28 31  1  0  0  0  0
 30 28  1  0  0  0  0
 32 40  1  0  0  0  0
 33 34  1  0  0  0  0
 33 32  2  0  0  0  0
 34 36  2  0  0  0  0
 35 34  1  0  0  0  0
 36 37  1  0  0  0  0
 36 38  1  0  0  0  0
 38 39  1  0  0  0  0
 40 38  2  0  0  0  0
 40 45  1  0  0  0  0
 41 44  1  0  0  0  0
 41 33  1  0  0  0  0
 42 41  1  0  0  0  0
 43 41  1  0  0  0  0
 45 48  1  0  0  0  0
 45 47  1  0  0  0  0
 46 45  1  0  0  0  0
M  END
