1,19
q = -1.0, confidence = 0.004

 42 43  0  0  1  0  0  0  0  0999 V2000
    1.4000    0.3925   -1.8475 N   0  0  0  0  0  2  0  0  0  0  0  0
    0.8749    1.6119    2.7256 C   0  0  0  0  0  0  0  0  0  0  0  0
    0.0508    2.6972    3.4414 C   0  0  0  0  0  0  0  0  0  0  0  0
   -1.0292    2.5549    3.2350 H   0  0  0  0  0  0  0  0  0  0  0  0
    0.3311    3.7019    3.0656 H   0  0  0  0  0  0  0  0  0  0  0  0
    0.2137    2.6730    4.5383 H   0  0  0  0  0  0  0  0  0  0  0  0
   -0.1245    1.5128   -3.0387 C   0  0  0  0  0  0  0  0  0  0  0  0
   -0.7606    1.9560   -3.8111 H   0  0  0  0  0  0  0  0  0  0  0  0
   -3.0002    0.9898   -1.5437 C   0  0  0  0  0  0  0  0  0  0  0  0
   -4.0077    0.7358   -1.1636 H   0  0  0  0  0  0  0  0  0  0  0  0
   -2.2952    0.2153   -1.1830 H   0  0  0  0  0  0  0  0  0  0  0  0
   -3.0247    0.8982   -2.6501 H   0  0  0  0  0  0  0  0  0  0  0  0
    0.6416    4.4360   -0.7281 C   0  0  0  0  0  0  0  0  0  0  0  0
    0.7725    5.5247   -0.5822 H   0  0  0  0  0  0  0  0  0  0  0  0
    1.1470    4.1406   -1.6691 H   0  0  0  0  0  0  0  0  0  0  0  0
    1.1569    3.9033    0.1005 H   0  0  0  0  0  0  0  0  0  0  0  0
   -3.1479    4.5534   -0.1270 C   0  0  0  0  0  0  0  0  0  0  0  0
    0.5338    1.7239    1.2934 N   0  0  0  0  0  0  0  0  0  0  0  0
    1.1040    0.9879    0.3975 C   0  0  0  0  0  3  0  0  0  0  0  0
   -3.5190    3.2735   -0.5739 C   0  0  0  0  0  0  0  0  0  0  0  0
   -4.5737    2.9617   -0.5058 H   0  0  0  0  0  0  0  0  0  0  0  0
   -0.2576    1.8718   -1.7029 N   0  0  0  0  0  0  0  0  0  0  0  0
    0.6967    1.1693   -1.0043 C   0  0  2  0  0  3  0  0  0  0  0  0
    0.9122    0.5909   -3.1109 C   0  0  0  0  0  0  0  0  0  0  0  0
    1.3215    0.0832   -3.9909 H   0  0  0  0  0  0  0  0  0  0  0  0
   -4.1665    5.5124    0.4360 C   0  0  0  0  0  0  0  0  0  0  0  0
   -4.1966    6.4562   -0.1475 H   0  0  0  0  0  0  0  0  0  0  0  0
   -3.9193    5.7913    1.4816 H   0  0  0  0  0  0  0  0  0  0  0  0
   -5.1848    5.0783    0.4323 H   0  0  0  0  0  0  0  0  0  0  0  0
   -2.5795    2.3665   -1.0971 C   0  0  0  0  0  0  0  0  0  0  0  0
   -1.2315    2.7798   -1.1647 C   0  0  0  0  0  0  0  0  0  0  0  0
    0.4692    0.2235    3.2561 C   0  0  0  0  0  0  0  0  0  0  0  0
    1.0215   -0.5788    2.7302 H   0  0  0  0  0  0  0  0  0  0  0  0
   -0.6202    0.0633    3.1100 H   0  0  0  0  0  0  0  0  0  0  0  0
    0.6831    0.1380    4.3406 H   0  0  0  0  0  0  0  0  0  0  0  0
   -0.8110    4.0532   -0.7174 C   0  0  0  0  0  0  0  0  0  0  0  0
   -1.7906    4.9200   -0.2078 C   0  0  0  0  0  0  0  0  0  0  0  0
   -1.4778    5.9151    0.1475 H   0  0  0  0  0  0  0  0  0  0  0  0
    2.3765    1.8607    2.9550 C   0  0  0  0  0  0  0  0  0  0  0  0
    2.9890    1.0816    2.4654 H   0  0  0  0  0  0  0  0  0  0  0  0
    2.6110    1.8613    4.0387 H   0  0  0  0  0  0  0  0  0  0  0  0
    2.6723    2.8433    2.5343 H   0  0  0  0  0  0  0  0  0  0  0  0
  1 23  1  0  0  0  0
  2 39  1  0  0  0  0
  2 32  1  0  0  0  0
  2  3  1  0  0  0  0
  3  6  1  0  0  0  0
  4  3  1  0  0  0  0
  5  3  1  0  0  0  0
  7 22  1  0  0  0  0
  8  7  1  0  0  0  0
  9 11  1  0  0  0  0
  9 10  1  0  0  0  0
  9 30  1  0  0  0  0
 12  9  1  0  0  0  0
 13 36  1  0  0  0  0
 13 14  1  0  0  0  0
 13 16  1  0  0  0  0
 15 13  1  0  0  0  0
 17 26  1  0  0  0  0
 18  2  1  0  0  0  0
 19 18  2  0  0  0  0
 20 21  1  0  0  0  0
 20 17  2  0  0  0  0
 22 31  1  0  0  0  0
 22 23  1  0  0  0  0
 23 19  1  1  0  0  0
 24  7  2  0  0  0  0
 24  1  1  0  0  0  0
 25 24  1  0  0  0  0
 26 28  1  0  0  0  0
 27 26  1  0  0  0  0
 29 26  1  0  0  0  0
 30 20  1  0  0  0  0
 31 30  2  0  0  0  0
 31 36  1  0  0  0  0
 32 35  1  0  0  0  0
 33 32  1  0  0  0  0
 34 32  1  0  0  0  0
 36 37  2  0  0  0  0
 37 17  1  0  0  0  0
 37 38  1  0  0  0  0
 39 41  1  0  0  0  0
 40 39  1  0  0  0  0
 42 39  1  0  0  0  0
M  END
