2
q = -2.0, confidence = 0.97

 60 61  0  0  1  0  0  0  0  0999 V2000
    0.0479   -0.0003    2.1802 Si  0  0  0  0  0  0  0  0  0  0  0  0
   -0.5629   -0.0001    0.5131 N   0  0  0  0  0  2  0  0  0  0  0  0
    1.8280    0.0000    1.5306 C   0  0  2  0  0  3  0  0  0  0  0  0
    2.3950    1.1599    0.8793 C   0  0  0  0  0  0  0  0  0  0  0  0
    2.1745    2.6112    1.1925 C   0  0  0  0  0  0  0  0  0  0  0  0
    1.4276    2.7586    1.9890 H   0  0  0  0  0  0  0  0  0  0  0  0
    1.8451    3.1722    0.2947 H   0  0  0  0  0  0  0  0  0  0  0  0
    3.1252    3.0696    1.5386 H   0  0  0  0  0  0  0  0  0  0  0  0
    3.2775    0.7166   -0.1585 C   0  0  0  0  0  0  0  0  0  0  0  0
    4.1035    1.6106   -1.0281 C   0  0  0  0  0  0  0  0  0  0  0  0
    4.4573    1.0874   -1.9365 H   0  0  0  0  0  0  0  0  0  0  0  0
    4.9984    1.9694   -0.4750 H   0  0  0  0  0  0  0  0  0  0  0  0
    3.5265    2.4969   -1.3550 H   0  0  0  0  0  0  0  0  0  0  0  0
   -1.8418    0.0000   -0.1115 C   0  0  0  0  0  0  0  0  0  0  0  0
   -2.4838    1.2375   -0.4392 C   0  0  0  0  0  0  0  0  0  0  0  0
   -3.7164    1.2066   -1.1151 C   0  0  0  0  0  0  0  0  0  0  0  0
   -5.2907    0.0005   -2.0037 H   0  0  0  0  0  0  0  0  0  0  0  0
   -4.3305    0.0003   -1.4658 C   0  0  0  0  0  0  0  0  0  0  0  0
   -4.2068    2.1583   -1.3705 H   0  0  0  0  0  0  0  0  0  0  0  0
   -1.9238    2.5863   -0.0061 C   0  0  0  0  0  0  0  0  0  0  0  0
   -0.8790    2.4155    0.3222 H   0  0  0  0  0  0  0  0  0  0  0  0
   -2.7335    3.1269    1.1884 C   0  0  0  0  0  0  0  0  0  0  0  0
   -2.2769    4.0541    1.5938 H   0  0  0  0  0  0  0  0  0  0  0  0
   -2.8034    2.3881    2.0097 H   0  0  0  0  0  0  0  0  0  0  0  0
   -3.7703    3.3711    0.8766 H   0  0  0  0  0  0  0  0  0  0  0  0
   -1.8921    3.6243   -1.1389 C   0  0  0  0  0  0  0  0  0  0  0  0
   -1.3744    4.5456   -0.8010 H   0  0  0  0  0  0  0  0  0  0  0  0
   -2.9152    3.9209   -1.4502 H   0  0  0  0  0  0  0  0  0  0  0  0
   -1.3560    3.2358   -2.0246 H   0  0  0  0  0  0  0  0  0  0  0  0
   -0.4189    1.4913    3.2402 C   0  0  0  0  0  0  0  0  0  0  0  0
   -0.4205    2.4553    2.7014 H   0  0  0  0  0  0  0  0  0  0  0  0
    0.2933    1.5623    4.0891 H   0  0  0  0  0  0  0  0  0  0  0  0
   -1.4314    1.3408    3.6669 H   0  0  0  0  0  0  0  0  0  0  0  0
    2.3955   -1.1596    0.8793 C   0  0  0  0  0  0  0  0  0  0  0  0
    3.2778   -0.7159   -0.1585 C   0  0  0  0  0  0  0  0  0  0  0  0
    2.1757   -2.6110    1.1925 C   0  0  0  0  0  0  0  0  0  0  0  0
    1.4291   -2.7587    1.9894 H   0  0  0  0  0  0  0  0  0  0  0  0
    1.8462   -3.1721    0.2949 H   0  0  0  0  0  0  0  0  0  0  0  0
    3.1267   -3.0691    1.5383 H   0  0  0  0  0  0  0  0  0  0  0  0
    4.1041   -1.6096   -1.0281 C   0  0  0  0  0  0  0  0  0  0  0  0
    4.4579   -1.0861   -1.9364 H   0  0  0  0  0  0  0  0  0  0  0  0
    4.9991   -1.9682   -0.4750 H   0  0  0  0  0  0  0  0  0  0  0  0
    3.5274   -2.4960   -1.3552 H   0  0  0  0  0  0  0  0  0  0  0  0
   -0.4185   -1.4925    3.2396 C   0  0  0  0  0  0  0  0  0  0  0  0
   -0.4199   -2.4562    2.7002 H   0  0  0  0  0  0  0  0  0  0  0  0
    0.2938   -1.5638    4.0884 H   0  0  0  0  0  0  0  0  0  0  0  0
   -1.4310   -1.3425    3.6664 H   0  0  0  0  0  0  0  0  0  0  0  0
   -3.7165   -1.2061   -1.1153 C   0  0  0  0  0  0  0  0  0  0  0  0
   -2.4840   -1.2373   -0.4395 C   0  0  0  0  0  0  0  0  0  0  0  0
   -1.9242   -2.5862   -0.0066 C   0  0  0  0  0  0  0  0  0  0  0  0
   -0.8793   -2.4156    0.3217 H   0  0  0  0  0  0  0  0  0  0  0  0
   -2.7340   -3.1269    1.1879 C   0  0  0  0  0  0  0  0  0  0  0  0
   -2.2774   -4.0543    1.5931 H   0  0  0  0  0  0  0  0  0  0  0  0
   -2.8037   -2.3882    2.0092 H   0  0  0  0  0  0  0  0  0  0  0  0
   -3.7708   -3.3708    0.8760 H   0  0  0  0  0  0  0  0  0  0  0  0
   -1.8926   -3.6240   -1.1395 C   0  0  0  0  0  0  0  0  0  0  0  0
   -1.3751   -4.5454   -0.8018 H   0  0  0  0  0  0  0  0  0  0  0  0
   -2.9158   -3.9205   -1.4509 H   0  0  0  0  0  0  0  0  0  0  0  0
   -1.3565   -3.2354   -2.0252 H   0  0  0  0  0  0  0  0  0  0  0  0
   -4.2071   -2.1577   -1.3709 H   0  0  0  0  0  0  0  0  0  0  0  0
  1 44  1  0  0  0  0
  1 30  1  0  0  0  0
  2  1  1  0  0  0  0
  3  1  1  6  0  0  0
  4  5  1  0  0  0  0
  4  3  1  0  0  0  0
  5  8  1  0  0  0  0
  5  6  1  0  0  0  0
  7  5  1  0  0  0  0
  9  4  2  0  0  0  0
 10 12  1  0  0  0  0
 10  9  1  0  0  0  0
 11 10  1  0  0  0  0
 13 10  1  0  0  0  0
 14  2  1  0  0  0  0
 15 14  1  0  0  0  0
 15 20  1  0  0  0  0
 16 15  2  0  0  0  0
 17 18  1  0  0  0  0
 18 48  2  0  0  0  0
 18 16  1  0  0  0  0
 19 16  1  0  0  0  0
 20 21  1  0  0  0  0
 20 22  1  0  0  0  0
 22 23  1  0  0  0  0
 22 24  1  0  0  0  0
 25 22  1  0  0  0  0
 26 27  1  0  0  0  0
 26 20  1  0  0  0  0
 28 26  1  0  0  0  0
 29 26  1  0  0  0  0
 30 33  1  0  0  0  0
 30 32  1  0  0  0  0
 31 30  1  0  0  0  0
 34 36  1  0  0  0  0
 34  3  1  0  0  0  0
 35  9  1  0  0  0  0
 35 34  2  0  0  0  0
 36 39  1  0  0  0  0
 36 37  1  0  0  0  0
 38 36  1  0  0  0  0
 40 42  1  0  0  0  0
 40 35  1  0  0  0  0
 41 40  1  0  0  0  0
 43 40  1  0  0  0  0
 44 47  1  0  0  0  0
 44 46  1  0  0  0  0
 45 44  1  0  0  0  0
 48 49  1  0  0  0  0
 49 14  2  0  0  0  0
 49 50  1  0  0  0  0
 50 51  1  0  0  0  0
 50 52  1  0  0  0  0
 52 53  1  0  0  0  0
 52 54  1  0  0  0  0
 55 52  1  0  0  0  0
 56 57  1  0  0  0  0
 56 50  1  0  0  0  0
 58 56  1  0  0  0  0
 59 56  1  0  0  0  0
 60 48  1  0  0  0  0
M  END
