2,3
q = -2.0, confidence = 0.83

 43 42  0  0  0  0  0  0  0  0999 V2000
    1.4106   -0.4132    0.1990 B   0  0  0  0  0  0  0  0  0  0  0  0
    0.8625    0.8848   -0.0258 N   0  0  0  0  0  2  0  0  0  0  0  0
    0.2527   -1.5424    0.2145 C   0  0  0  0  0  3  0  0  0  0  0  0
    0.2258   -2.0001   -0.8053 H   0  0  0  0  0  0  0  0  0  0  0  0
    0.3047   -2.7169    1.2257 C   0  0  0  0  0  0  0  0  0  0  0  0
   -1.0757   -3.4040    1.3012 C   0  0  0  0  0  0  0  0  0  0  0  0
   -1.4231   -3.6980    0.2909 H   0  0  0  0  0  0  0  0  0  0  0  0
   -1.0264   -4.3159    1.9327 H   0  0  0  0  0  0  0  0  0  0  0  0
   -1.8501   -2.7395    1.7284 H   0  0  0  0  0  0  0  0  0  0  0  0
    1.3108   -3.7848    0.7362 C   0  0  0  0  0  0  0  0  0  0  0  0
    2.3377   -3.3815    0.6534 H   0  0  0  0  0  0  0  0  0  0  0  0
    1.3408   -4.6439    1.4387 H   0  0  0  0  0  0  0  0  0  0  0  0
    1.0186   -4.1730   -0.2611 H   0  0  0  0  0  0  0  0  0  0  0  0
    0.7407   -2.2386    2.6241 C   0  0  0  0  0  0  0  0  0  0  0  0
    1.7734   -1.8354    2.6093 H   0  0  0  0  0  0  0  0  0  0  0  0
    0.0826   -1.4380    3.0159 H   0  0  0  0  0  0  0  0  0  0  0  0
    0.7197   -3.0757    3.3520 H   0  0  0  0  0  0  0  0  0  0  0  0
    1.5591    2.1390   -0.2067 C   0  0  0  0  0  0  0  0  0  0  0  0
    1.1452    2.6297   -1.1159 H   0  0  0  0  0  0  0  0  0  0  0  0
    2.6385    1.9497   -0.3997 H   0  0  0  0  0  0  0  0  0  0  0  0
    1.4474    3.1130    0.9839 C   0  0  0  0  0  0  0  0  0  0  0  0
    0.3651    3.3083    1.1541 H   0  0  0  0  0  0  0  0  0  0  0  0
    2.0426    2.5238    2.2668 C   0  0  0  0  0  0  0  0  0  0  0  0
    1.8784    3.1943    3.1347 H   0  0  0  0  0  0  0  0  0  0  0  0
    1.6060    1.5333    2.5092 H   0  0  0  0  0  0  0  0  0  0  0  0
    3.1385    2.3786    2.1593 H   0  0  0  0  0  0  0  0  0  0  0  0
    2.1081    4.4477    0.6221 C   0  0  0  0  0  0  0  0  0  0  0  0
    2.0177    5.1794    1.4501 H   0  0  0  0  0  0  0  0  0  0  0  0
    3.1909    4.3093    0.4164 H   0  0  0  0  0  0  0  0  0  0  0  0
    1.6500    4.8971   -0.2822 H   0  0  0  0  0  0  0  0  0  0  0  0
    2.9871   -0.6521    0.2977 C   0  0  0  0  0  0  0  0  0  0  0  0
    3.2256   -1.6115    0.8001 H   0  0  0  0  0  0  0  0  0  0  0  0
    3.4385    0.1461    0.9272 H   0  0  0  0  0  0  0  0  0  0  0  0
    3.6854   -0.6389   -1.0890 C   0  0  0  0  0  0  0  0  0  0  0  0
    3.5179    0.3635   -1.5445 H   0  0  0  0  0  0  0  0  0  0  0  0
    5.1997   -0.8289   -0.9308 C   0  0  0  0  0  0  0  0  0  0  0  0
    5.7204   -0.7695   -1.9090 H   0  0  0  0  0  0  0  0  0  0  0  0
    5.6394   -0.0596   -0.2633 H   0  0  0  0  0  0  0  0  0  0  0  0
    5.4267   -1.8232   -0.4900 H   0  0  0  0  0  0  0  0  0  0  0  0
    3.0993   -1.6771   -2.0553 C   0  0  0  0  0  0  0  0  0  0  0  0
    3.6387   -1.6667   -3.0241 H   0  0  0  0  0  0  0  0  0  0  0  0
    3.1778   -2.7028   -1.6374 H   0  0  0  0  0  0  0  0  0  0  0  0
    2.0286   -1.4861   -2.2710 H   0  0  0  0  0  0  0  0  0  0  0  0
  1  3  1  0  0  0  0
  1 31  1  0  0  0  0
  2  1  1  0  0  0  0
  3  5  1  0  0  0  0
  4  3  1  0  0  0  0
  5  6  1  0  0  0  0
  5 14  1  0  0  0  0
  6  9  1  0  0  0  0
  6  8  1  0  0  0  0
  7  6  1  0  0  0  0
 10  5  1  0  0  0  0
 10 12  1  0  0  0  0
 11 10  1  0  0  0  0
 13 10  1  0  0  0  0
 14 16  1  0  0  0  0
 14 17  1  0  0  0  0
 15 14  1  0  0  0  0
 18  2  1  0  0  0  0
 18 21  1  0  0  0  0
 19 18  1  0  0  0  0
 20 18  1  0  0  0  0
 21 22  1  0  0  0  0
 21 23  1  0  0  0  0
 23 25  1  0  0  0  0
 23 24  1  0  0  0  0
 26 23  1  0  0  0  0
 27 21  1  0  0  0  0
 27 28  1  0  0  0  0
 29 27  1  0  0  0  0
 30 27  1  0  0  0  0
 31 32  1  0  0  0  0
 31 33  1  0  0  0  0
 34 36  1  0  0  0  0
 34 31  1  0  0  0  0
 35 34  1  0  0  0  0
 36 39  1  0  0  0  0
 36 38  1  0  0  0  0
 37 36  1  0  0  0  0
 40 42  1  0  0  0  0
 40 34  1  0  0  0  0
 41 40  1  0  0  0  0
 43 40  1  0  0  0  0
M  END
