1,14
q = -1.0, confidence = 0.0

 22 23  0  0  1  0  0  0  0  0999 V2000
    1.0783   -0.3947   -0.6188 N   0  0  0  0  0  2  0  0  0  0  0  0
    2.9073   -1.7121   -1.3711 N   0  0  0  0  0  0  0  0  0  0  0  0
    3.3023    0.3341   -0.1719 N   0  0  0  0  0  0  0  0  0  0  0  0
    0.7295   -2.1911   -2.0595 N   0  0  0  0  0  0  0  0  0  0  0  0
    1.1811   -2.8111   -2.7342 H   0  0  0  0  0  0  0  0  0  0  0  0
   -0.0972   -1.6598   -2.3891 H   0  0  0  0  0  0  0  0  0  0  0  0
    5.0170   -1.1534   -0.6061 N   0  0  0  0  0  0  0  0  0  0  0  0
    5.3730   -1.9670   -1.1024 H   0  0  0  0  0  0  0  0  0  0  0  0
    5.6529   -0.4547   -0.2279 H   0  0  0  0  0  0  0  0  0  0  0  0
    1.5983   -1.4290   -1.3435 C   0  0  1  0  0  3  0  0  0  0  0  0
    3.7010   -0.8411   -0.7124 C   0  0  0  0  0  0  0  0  0  0  0  0
    1.9821    0.5297   -0.1611 C   0  0  0  0  0  0  0  0  0  0  0  0
    1.3535    1.7665    0.2769 C   0  0  0  0  0  0  0  0  0  0  0  0
   -0.0675    1.7868    0.1463 C   0  0  0  0  0  3  0  0  0  0  0  0
   -0.7132    3.0137    0.4121 C   0  0  0  0  0  0  0  0  0  0  0  0
   -1.8024    3.1016    0.2787 H   0  0  0  0  0  0  0  0  0  0  0  0
    0.0165    4.1365    0.8350 C   0  0  0  0  0  0  0  0  0  0  0  0
   -0.5147    5.0804    1.0385 H   0  0  0  0  0  0  0  0  0  0  0  0
    1.4162    4.0783    0.9988 C   0  0  0  0  0  0  0  0  0  0  0  0
    1.9718    4.9665    1.3350 H   0  0  0  0  0  0  0  0  0  0  0  0
    2.0899    2.8897    0.7078 C   0  0  0  0  0  0  0  0  0  0  0  0
    3.1844    2.8053    0.7882 H   0  0  0  0  0  0  0  0  0  0  0  0
  1 12  1  0  0  0  0
  2 10  1  0  0  0  0
  2 11  2  0  0  0  0
  3 12  2  0  0  0  0
  5  4  1  0  0  0  0
  6  4  1  0  0  0  0
  7  9  1  0  0  0  0
  8  7  1  0  0  0  0
 10  4  1  1  0  0  0
 10  1  1  0  0  0  0
 11  7  1  0  0  0  0
 11  3  1  0  0  0  0
 12 13  1  0  0  0  0
 13 21  1  0  0  0  0
 14 13  2  0  0  0  0
 14 15  1  0  0  0  0
 15 17  2  0  0  0  0
 16 15  1  0  0  0  0
 17 19  1  0  0  0  0
 17 18  1  0  0  0  0
 19 20  1  0  0  0  0
 21 22  1  0  0  0  0
 21 19  2  0  0  0  0
M  END
