4,5
q = -2.0, confidence = 0.944

 52 54  0  0  0  0  0  0  0  0999 V2000
    2.2351   -0.4610   -1.3671 Si  0  0  0  0  0  0  0  0  0  0  0  0
   -2.5706    4.3880   -0.0572 O   0  0  0  0  0  0  0  0  0  0  0  0
   -3.8826   -3.5300    0.2462 O   0  0  0  0  0  0  0  0  0  0  0  0
    2.3367   -0.1886    0.3890 N   0  0  0  0  0  2  0  0  0  0  0  0
    0.3692   -0.2253   -1.4334 C   0  0  0  0  0  3  0  0  0  0  0  0
   -0.2625    1.0611   -1.1679 C   0  0  0  0  0  0  0  0  0  0  0  0
    0.2119    2.3992   -1.3084 C   0  0  0  0  0  0  0  0  0  0  0  0
    1.2028    2.5937   -1.7388 H   0  0  0  0  0  0  0  0  0  0  0  0
   -0.5952    3.4589   -0.9327 C   0  0  0  0  0  0  0  0  0  0  0  0
   -0.2591    4.4995   -1.0481 H   0  0  0  0  0  0  0  0  0  0  0  0
   -1.8982    3.2487   -0.3808 C   0  0  0  0  0  0  0  0  0  0  0  0
   -2.3951    1.9538   -0.2133 C   0  0  0  0  0  0  0  0  0  0  0  0
   -3.3908    1.7669    0.2097 H   0  0  0  0  0  0  0  0  0  0  0  0
   -1.5760    0.8629   -0.5961 C   0  0  0  0  0  0  0  0  0  0  0  0
   -1.8106   -0.5650   -0.5408 C   0  0  0  0  0  0  0  0  0  0  0  0
   -2.9289   -1.3018   -0.0784 C   0  0  0  0  0  0  0  0  0  0  0  0
   -3.8027   -0.7726    0.3239 H   0  0  0  0  0  0  0  0  0  0  0  0
   -2.8836   -2.6967   -0.1558 C   0  0  0  0  0  0  0  0  0  0  0  0
   -1.7343   -3.3559   -0.6943 C   0  0  0  0  0  0  0  0  0  0  0  0
   -1.7588   -4.4542   -0.7400 H   0  0  0  0  0  0  0  0  0  0  0  0
   -0.6350   -2.6440   -1.1415 C   0  0  0  0  0  0  0  0  0  0  0  0
    0.2302   -3.1779   -1.5565 H   0  0  0  0  0  0  0  0  0  0  0  0
   -0.6392   -1.2193   -1.0828 C   0  0  0  0  0  0  0  0  0  0  0  0
   -5.0451   -2.9511    0.8040 C   0  0  0  0  0  0  0  0  0  0  0  0
   -4.8143   -2.3632    1.7213 H   0  0  0  0  0  0  0  0  0  0  0  0
   -5.7176   -3.7872    1.0712 H   0  0  0  0  0  0  0  0  0  0  0  0
   -5.5652   -2.2848    0.0789 H   0  0  0  0  0  0  0  0  0  0  0  0
   -3.8517    4.2574    0.5248 C   0  0  0  0  0  0  0  0  0  0  0  0
   -3.8132    3.6917    1.4834 H   0  0  0  0  0  0  0  0  0  0  0  0
   -4.5676    3.7465   -0.1586 H   0  0  0  0  0  0  0  0  0  0  0  0
   -4.2145    5.2826    0.7246 H   0  0  0  0  0  0  0  0  0  0  0  0
    3.1991    0.7834   -2.4218 C   0  0  0  0  0  0  0  0  0  0  0  0
    3.1165    1.8203   -2.0435 H   0  0  0  0  0  0  0  0  0  0  0  0
    2.8218    0.7622   -3.4653 H   0  0  0  0  0  0  0  0  0  0  0  0
    4.2761    0.5188   -2.4466 H   0  0  0  0  0  0  0  0  0  0  0  0
    2.7684   -2.1984   -1.8956 C   0  0  0  0  0  0  0  0  0  0  0  0
    3.8728   -2.2654   -1.9621 H   0  0  0  0  0  0  0  0  0  0  0  0
    2.3529   -2.4472   -2.8942 H   0  0  0  0  0  0  0  0  0  0  0  0
    2.4263   -2.9621   -1.1701 H   0  0  0  0  0  0  0  0  0  0  0  0
    3.5389   -0.0022    1.2255 C   0  0  0  0  0  0  0  0  0  0  0  0
    3.9120    1.4950    1.2342 C   0  0  0  0  0  0  0  0  0  0  0  0
    4.1462    1.8462    0.2094 H   0  0  0  0  0  0  0  0  0  0  0  0
    4.7984    1.6845    1.8746 H   0  0  0  0  0  0  0  0  0  0  0  0
    3.0639    2.0974    1.6156 H   0  0  0  0  0  0  0  0  0  0  0  0
    3.2568   -0.4715    2.6654 C   0  0  0  0  0  0  0  0  0  0  0  0
    2.4240    0.1046    3.1152 H   0  0  0  0  0  0  0  0  0  0  0  0
    4.1502   -0.3303    3.3071 H   0  0  0  0  0  0  0  0  0  0  0  0
    2.9800   -1.5438    2.6792 H   0  0  0  0  0  0  0  0  0  0  0  0
    4.7163   -0.8261    0.6675 C   0  0  0  0  0  0  0  0  0  0  0  0
    4.4609   -1.9038    0.6349 H   0  0  0  0  0  0  0  0  0  0  0  0
    5.6163   -0.7033    1.3036 H   0  0  0  0  0  0  0  0  0  0  0  0
    4.9873   -0.4994   -0.3574 H   0  0  0  0  0  0  0  0  0  0  0  0
  1  4  1  0  0  0  0
  2 28  1  0  0  0  0
  3 24  1  0  0  0  0
  4 40  1  0  0  0  0
  5  1  1  0  0  0  0
  5  6  1  0  0  0  0
  5 23  1  0  0  0  0
  6 14  1  0  0  0  0
  7  6  2  0  0  0  0
  7  9  1  0  0  0  0
  8  7  1  0  0  0  0
  9 11  2  0  0  0  0
 10  9  1  0  0  0  0
 11 12  1  0  0  0  0
 11  2  1  0  0  0  0
 12 13  1  0  0  0  0
 14 15  1  0  0  0  0
 14 12  2  0  0  0  0
 15 16  1  0  0  0  0
 16 17  1  0  0  0  0
 18 16  2  0  0  0  0
 18  3  1  0  0  0  0
 19 18  1  0  0  0  0
 20 19  1  0  0  0  0
 21 23  1  0  0  0  0
 21 19  2  0  0  0  0
 22 21  1  0  0  0  0
 23 15  2  0  0  0  0
 24 26  1  0  0  0  0
 24 25  1  0  0  0  0
 27 24  1  0  0  0  0
 28 31  1  0  0  0  0
 28 29  1  0  0  0  0
 30 28  1  0  0  0  0
 32 33  1  0  0  0  0
 32  1  1  0  0  0  0
 34 32  1  0  0  0  0
 35 32  1  0  0  0  0
 36  1  1  0  0  0  0
 36 39  1  0  0  0  0
 37 36  1  0  0  0  0
 38 36  1  0  0  0  0
 40 41  1  0  0  0  0
 40 45  1  0  0  0  0
 41 44  1  0  0  0  0
 41 43  1  0  0  0  0
 42 41  1  0  0  0  0
 45 48  1  0  0  0  0
 45 46  1  0  0  0  0
 45 47  1  0  0  0  0
 49 40  1  0  0  0  0
 49 51  1  0  0  0  0
 50 49  1  0  0  0  0
 52 49  1  0  0  0  0
M  END
