4
q = -2.0, confidence = 0.962

 64 69  0  0  1  0  0  0  0  0999 V2000
   -0.9197   -0.6410    2.0171 Si  0  0  0  0  0  0  0  0  0  0  0  0
    4.8391   -3.3267   -1.0030 O   0  0  0  0  0  0  0  0  0  0  0  0
    3.2154    4.4959   -0.1762 O   0  0  0  0  0  0  0  0  0  0  0  0
   -1.4247   -0.3302    0.3388 N   0  0  0  0  0  2  0  0  0  0  0  0
    0.8997   -0.3039    1.6732 C   0  0  0  0  0  3  0  0  0  0  0  0
    1.8547   -1.2314    1.0773 C   0  0  0  0  0  0  0  0  0  0  0  0
    1.9380   -2.6549    1.0925 C   0  0  0  0  0  0  0  0  0  0  0  0
    1.2157   -3.2451    1.6718 H   0  0  0  0  0  0  0  0  0  0  0  0
    2.9462   -3.2939    0.3923 C   0  0  0  0  0  0  0  0  0  0  0  0
    3.0378   -4.3896    0.3982 H   0  0  0  0  0  0  0  0  0  0  0  0
    3.9114   -2.5599   -0.3662 C   0  0  0  0  0  0  0  0  0  0  0  0
    3.8654   -1.1636   -0.4095 C   0  0  0  0  0  0  0  0  0  0  0  0
    4.5993   -0.5777   -0.9781 H   0  0  0  0  0  0  0  0  0  0  0  0
    2.8410   -0.5009    0.3108 C   0  0  0  0  0  0  0  0  0  0  0  0
    2.5512    0.9098    0.4611 C   0  0  0  0  0  0  0  0  0  0  0  0
    3.2073    2.0531   -0.0586 C   0  0  0  0  0  0  0  0  0  0  0  0
    4.0932    1.9317   -0.6954 H   0  0  0  0  0  0  0  0  0  0  0  0
    2.6920    3.3138    0.2526 C   0  0  0  0  0  0  0  0  0  0  0  0
    1.5329    3.4382    1.0818 C   0  0  0  0  0  0  0  0  0  0  0  0
    1.1750    4.4553    1.2978 H   0  0  0  0  0  0  0  0  0  0  0  0
    0.8858    2.3270    1.5936 C   0  0  0  0  0  0  0  0  0  0  0  0
    0.0041    2.4559    2.2347 H   0  0  0  0  0  0  0  0  0  0  0  0
    1.3886    1.0214    1.3142 C   0  0  0  0  0  0  0  0  0  0  0  0
    5.8194   -2.6716   -1.7821 C   0  0  0  0  0  0  0  0  0  0  0  0
    5.3632   -2.0810   -2.6089 H   0  0  0  0  0  0  0  0  0  0  0  0
    6.4600   -3.4623   -2.2146 H   0  0  0  0  0  0  0  0  0  0  0  0
    6.4500   -1.9898   -1.1673 H   0  0  0  0  0  0  0  0  0  0  0  0
    4.3408    4.4499   -1.0296 C   0  0  0  0  0  0  0  0  0  0  0  0
    5.2163    3.9694   -0.5363 H   0  0  0  0  0  0  0  0  0  0  0  0
    4.5959    5.4978   -1.2737 H   0  0  0  0  0  0  0  0  0  0  0  0
    4.1206    3.8998   -1.9727 H   0  0  0  0  0  0  0  0  0  0  0  0
   -1.2396   -2.4200    2.5768 C   0  0  0  0  0  0  0  0  0  0  0  0
   -2.2999   -2.5497    2.8733 H   0  0  0  0  0  0  0  0  0  0  0  0
   -0.6078   -2.6775    3.4521 H   0  0  0  0  0  0  0  0  0  0  0  0
   -1.0265   -3.1389    1.7617 H   0  0  0  0  0  0  0  0  0  0  0  0
   -1.6767    0.5186    3.3105 C   0  0  0  0  0  0  0  0  0  0  0  0
   -1.7311    1.5690    2.9659 H   0  0  0  0  0  0  0  0  0  0  0  0
   -1.0714    0.4879    4.2404 H   0  0  0  0  0  0  0  0  0  0  0  0
   -2.7065    0.1949    3.5658 H   0  0  0  0  0  0  0  0  0  0  0  0
   -2.7787   -0.1758   -0.1961 C   0  0  1  0  0  0  0  0  0  0  0  0
   -2.8369   -0.5912   -1.6866 C   0  0  0  0  0  0  0  0  0  0  0  0
   -2.5153   -1.6498   -1.7761 H   0  0  0  0  0  0  0  0  0  0  0  0
   -2.1100    0.0187   -2.2632 H   0  0  0  0  0  0  0  0  0  0  0  0
   -4.2536   -0.4005   -2.2590 C   0  0  1  0  0  0  0  0  0  0  0  0
   -4.2574   -0.7009   -3.3285 H   0  0  0  0  0  0  0  0  0  0  0  0
   -5.2439   -1.2777   -1.4706 C   0  0  0  0  0  0  0  0  0  0  0  0
   -6.2698   -1.1650   -1.8826 H   0  0  0  0  0  0  0  0  0  0  0  0
   -4.9689   -2.3495   -1.5729 H   0  0  0  0  0  0  0  0  0  0  0  0
   -5.2208   -0.8646    0.0129 C   0  0  1  0  0  0  0  0  0  0  0  0
   -5.9261   -1.5005    0.5898 H   0  0  0  0  0  0  0  0  0  0  0  0
   -3.7980   -1.0518    0.5745 C   0  0  0  0  0  0  0  0  0  0  0  0
   -3.7826   -0.7740    1.6509 H   0  0  0  0  0  0  0  0  0  0  0  0
   -3.4872   -2.1158    0.5043 H   0  0  0  0  0  0  0  0  0  0  0  0
   -5.6322    0.6150    0.1415 C   0  0  0  0  0  0  0  0  0  0  0  0
   -5.6387    0.9177    1.2111 H   0  0  0  0  0  0  0  0  0  0  0  0
   -6.6658    0.7574   -0.2410 H   0  0  0  0  0  0  0  0  0  0  0  0
   -4.6454    1.4946   -0.6505 C   0  0  1  0  0  0  0  0  0  0  0  0
   -4.9383    2.5624   -0.5572 H   0  0  0  0  0  0  0  0  0  0  0  0
   -3.2262    1.3051   -0.0839 C   0  0  0  0  0  0  0  0  0  0  0  0
   -2.4920    1.9369   -0.6269 H   0  0  0  0  0  0  0  0  0  0  0  0
   -3.1904    1.6124    0.9827 H   0  0  0  0  0  0  0  0  0  0  0  0
   -4.6628    1.0799   -2.1342 C   0  0  0  0  0  0  0  0  0  0  0  0
   -3.9637    1.7187   -2.7158 H   0  0  0  0  0  0  0  0  0  0  0  0
   -5.6762    1.2341   -2.5637 H   0  0  0  0  0  0  0  0  0  0  0  0
  1 32  1  0  0  0  0
  1 36  1  0  0  0  0
  2 11  1  0  0  0  0
  3 18  1  0  0  0  0
  4  1  1  0  0  0  0
  5  1  1  0  0  0  0
  6  7  1  0  0  0  0
  6  5  1  0  0  0  0
  7  8  1  0  0  0  0
  9 10  1  0  0  0  0
  9  7  2  0  0  0  0
 11  9  1  0  0  0  0
 12 11  2  0  0  0  0
 12 14  1  0  0  0  0
 13 12  1  0  0  0  0
 14 15  1  0  0  0  0
 14  6  2  0  0  0  0
 15 23  1  0  0  0  0
 16 18  1  0  0  0  0
 16 15  2  0  0  0  0
 17 16  1  0  0  0  0
 18 19  2  0  0  0  0
 19 20  1  0  0  0  0
 19 21  1  0  0  0  0
 21 22  1  0  0  0  0
 23 21  2  0  0  0  0
 23  5  1  0  0  0  0
 24 27  1  0  0  0  0
 24  2  1  0  0  0  0
 25 24  1  0  0  0  0
 26 24  1  0  0  0  0
 28 29  1  0  0  0  0
 28  3  1  0  0  0  0
 30 28  1  0  0  0  0
 31 28  1  0  0  0  0
 32 33  1  0  0  0  0
 32 34  1  0  0  0  0
 35 32  1  0  0  0  0
 36 39  1  0  0  0  0
 36 38  1  0  0  0  0
 37 36  1  0  0  0  0
 40 59  1  0  0  0  0
 40  4  1  1  0  0  0
 40 51  1  0  0  0  0
 41 40  1  0  0  0  0
 42 41  1  0  0  0  0
 43 41  1  0  0  0  0
 44 45  1  6  0  0  0
 44 62  1  0  0  0  0
 44 41  1  0  0  0  0
 44 46  1  0  0  0  0
 46 49  1  0  0  0  0
 47 46  1  0  0  0  0
 48 46  1  0  0  0  0
 49 54  1  0  0  0  0
 49 51  1  0  0  0  0
 49 50  1  1  0  0  0
 51 52  1  0  0  0  0
 53 51  1  0  0  0  0
 54 55  1  0  0  0  0
 56 54  1  0  0  0  0
 57 58  1  1  0  0  0
 57 59  1  0  0  0  0
 57 54  1  0  0  0  0
 59 61  1  0  0  0  0
 60 59  1  0  0  0  0
 62 57  1  0  0  0  0
 63 62  1  0  0  0  0
 64 62  1  0  0  0  0
M  END
