1,4
q = -1.0, confidence = 0.002

 33 34  0  0  1  0  0  0  0  0999 V2000
    0.6904    1.4312   -0.0176 N   0  0  0  0  0  2  0  0  0  0  0  0
   -0.0116    2.5447    0.0956 C   0  0  2  0  0  3  0  0  0  0  0  0
   -1.4515    2.3620    0.1417 C   0  0  0  0  0  0  0  0  0  0  0  0
   -1.8672    1.0037   -0.0188 C   0  0  0  0  0  3  0  0  0  0  0  0
   -3.2496    0.7595   -0.1631 C   0  0  0  0  0  0  0  0  0  0  0  0
   -4.1847    1.7983   -0.0586 C   0  0  0  0  0  0  0  0  0  0  0  0
   -3.7662    3.1250    0.1650 C   0  0  0  0  0  0  0  0  0  0  0  0
   -2.4008    3.4063    0.2457 C   0  0  0  0  0  0  0  0  0  0  0  0
    0.6171    3.9129    0.1082 C   0  0  0  0  0  0  0  0  0  0  0  0
    2.1495    1.5141   -0.1779 C   0  0  0  0  0  0  0  0  0  0  0  0
    2.8633    1.4013    1.1820 C   0  0  0  0  0  0  0  0  0  0  0  0
    4.3841    1.5277    1.0263 C   0  0  0  0  0  0  0  0  0  0  0  0
    4.9375    0.5208    0.0092 C   0  0  0  0  0  0  0  0  0  0  0  0
    4.2125    0.6364   -1.3381 C   0  0  0  0  0  0  0  0  0  0  0  0
    2.6937    0.4926   -1.1839 C   0  0  0  0  0  0  0  0  0  0  0  0
   -3.6047   -0.2575   -0.3817 H   0  0  0  0  0  0  0  0  0  0  0  0
   -5.2583    1.5744   -0.1634 H   0  0  0  0  0  0  0  0  0  0  0  0
   -4.5053    3.9354    0.2497 H   0  0  0  0  0  0  0  0  0  0  0  0
   -2.0719    4.4485    0.3775 H   0  0  0  0  0  0  0  0  0  0  0  0
    1.4654    3.9750    0.8169 H   0  0  0  0  0  0  0  0  0  0  0  0
   -0.1180    4.6852    0.3928 H   0  0  0  0  0  0  0  0  0  0  0  0
    1.0048    4.1789   -0.8978 H   0  0  0  0  0  0  0  0  0  0  0  0
    2.3946    2.5160   -0.5927 H   0  0  0  0  0  0  0  0  0  0  0  0
    2.6014    0.4206    1.6292 H   0  0  0  0  0  0  0  0  0  0  0  0
    2.4724    2.1725    1.8785 H   0  0  0  0  0  0  0  0  0  0  0  0
    4.6289    2.5593    0.6856 H   0  0  0  0  0  0  0  0  0  0  0  0
    4.8789    1.4025    2.0124 H   0  0  0  0  0  0  0  0  0  0  0  0
    4.8057   -0.5101    0.4069 H   0  0  0  0  0  0  0  0  0  0  0  0
    6.0303    0.6668   -0.1206 H   0  0  0  0  0  0  0  0  0  0  0  0
    4.4469    1.6255   -1.7936 H   0  0  0  0  0  0  0  0  0  0  0  0
    4.5911   -0.1261   -2.0503 H   0  0  0  0  0  0  0  0  0  0  0  0
    2.1633    0.6123   -2.1488 H   0  0  0  0  0  0  0  0  0  0  0  0
    2.4366   -0.5254   -0.8291 H   0  0  0  0  0  0  0  0  0  0  0  0
  2  1  1  6  0  0  0
  2  9  1  0  0  0  0
  2  3  1  0  0  0  0
  3  8  1  0  0  0  0
  4  3  2  0  0  0  0
  5  6  2  0  0  0  0
  5  4  1  0  0  0  0
  6  7  1  0  0  0  0
  7  8  2  0  0  0  0
  7 18  1  0  0  0  0
  8 19  1  0  0  0  0
  9 21  1  0  0  0  0
  9 20  1  0  0  0  0
 10  1  1  0  0  0  0
 10 11  1  0  0  0  0
 11 24  1  0  0  0  0
 11 25  1  0  0  0  0
 12 11  1  0  0  0  0
 12 27  1  0  0  0  0
 13 28  1  0  0  0  0
 13 12  1  0  0  0  0
 14 15  1  0  0  0  0
 14 13  1  0  0  0  0
 15 33  1  0  0  0  0
 15 10  1  0  0  0  0
 16  5  1  0  0  0  0
 17  6  1  0  0  0  0
 22  9  1  0  0  0  0
 23 10  1  0  0  0  0
 26 12  1  0  0  0  0
 29 13  1  0  0  0  0
 30 14  1  0  0  0  0
 31 14  1  0  0  0  0
 32 15  1  0  0  0  0
M  END
