1,6
q = -2.0, confidence = 0.716

 18 19  0  0  1  0  0  0  0  0999 V2000
   -0.7235    1.3117    0.0210 N   0  0  0  0  0  2  0  0  0  0  0  0
   -1.7649    1.7691   -0.9412 C   0  0  1  0  0  0  0  0  0  0  0  0
   -1.3678    1.6224   -1.9808 H   0  0  0  0  0  0  0  0  0  0  0  0
   -2.9566    0.8086   -0.8199 C   0  0  1  0  0  0  0  0  0  0  0  0
   -3.7222    0.9182   -1.6101 H   0  0  0  0  0  0  0  0  0  0  0  0
   -2.5970   -0.5618   -0.2720 C   0  0  0  0  0  3  0  0  0  0  0  0
   -3.1902   -1.3991   -0.6865 H   0  0  0  0  0  0  0  0  0  0  0  0
   -3.4053    0.4138    0.5621 C   0  0  0  0  0  0  0  0  0  0  0  0
   -2.9248    0.9283    1.4128 H   0  0  0  0  0  0  0  0  0  0  0  0
   -4.4812    0.2211    0.7107 H   0  0  0  0  0  0  0  0  0  0  0  0
   -2.1519    3.2238   -0.7856 C   0  0  0  0  0  0  0  0  0  0  0  0
   -2.8346    3.6344   -1.5469 H   0  0  0  0  0  0  0  0  0  0  0  0
   -1.7224    3.9832    0.2549 C   0  0  0  0  0  0  0  0  0  0  0  0
   -2.0556    5.0297    0.3494 H   0  0  0  0  0  0  0  0  0  0  0  0
   -0.8022    3.4347    1.2298 C   0  0  0  0  0  0  0  0  0  0  0  0
   -0.4414    4.0278    2.0803 H   0  0  0  0  0  0  0  0  0  0  0  0
   -0.3584    2.1459    1.0460 C   0  0  0  0  0  0  0  0  0  0  0  0
    0.3780    1.7226    1.7500 H   0  0  0  0  0  0  0  0  0  0  0  0
  1 17  1  0  0  0  0
  2  3  1  6  0  0  0
  2  4  1  0  0  0  0
  2 11  1  0  0  0  0
  2  1  1  0  0  0  0
  4  5  1  6  0  0  0
  4  6  1  0  0  0  0
  4  8  1  0  0  0  0
  6  8  1  0  0  0  0
  7  6  1  0  0  0  0
  8 10  1  0  0  0  0
  8  9  1  0  0  0  0
 11 13  2  0  0  0  0
 12 11  1  0  0  0  0
 13 14  1  0  0  0  0
 13 15  1  0  0  0  0
 15 16  1  0  0  0  0
 17 15  2  0  0  0  0
 17 18  1  0  0  0  0
M  END
