1,42
q = -1.0, confidence = 0.01

 56 58  0  0  1  0  0  0  0  0999 V2000
   -0.4421    0.8797   -0.1357 N   0  0  0  0  0  2  0  0  0  0  0  0
   -2.7338    0.8064   -0.7064 N   0  0  0  0  0  0  0  0  0  0  0  0
   -2.7089    1.8269   -0.8000 H   0  0  0  0  0  0  0  0  0  0  0  0
   -1.4969   -1.1563   -0.6464 N   0  0  0  0  0  0  0  0  0  0  0  0
   -2.3656   -1.5490   -1.0130 H   0  0  0  0  0  0  0  0  0  0  0  0
   -1.5169    0.2004   -0.4842 C   0  0  2  0  0  3  0  0  0  0  0  0
   -0.5910    2.2509    0.2244 C   0  0  0  0  0  0  0  0  0  0  0  0
   -0.8136    3.2311   -0.7612 C   0  0  0  0  0  0  0  0  0  0  0  0
   -0.8096    2.9286   -1.8187 H   0  0  0  0  0  0  0  0  0  0  0  0
   -0.9880    4.5741   -0.4025 C   0  0  0  0  0  0  0  0  0  0  0  0
   -1.1571    5.3285   -1.1868 H   0  0  0  0  0  0  0  0  0  0  0  0
   -0.9144    4.9728    0.9453 C   0  0  0  0  0  0  0  0  0  0  0  0
   -0.6642    3.9810    1.9147 C   0  0  0  0  0  0  0  0  0  0  0  0
   -0.5933    4.2762    2.9748 H   0  0  0  0  0  0  0  0  0  0  0  0
   -0.4974    2.6237    1.5887 C   0  0  0  0  0  0  0  0  0  0  0  0
   -1.0484    6.4221    1.3412 C   0  0  0  0  0  0  0  0  0  0  0  0
   -0.0499    6.8999    1.4428 H   0  0  0  0  0  0  0  0  0  0  0  0
   -1.5615    6.5349    2.3173 H   0  0  0  0  0  0  0  0  0  0  0  0
   -1.6124    7.0025    0.5849 H   0  0  0  0  0  0  0  0  0  0  0  0
   -0.1897    1.5932    2.6402 C   0  0  0  0  0  0  0  0  0  0  0  0
   -0.9164    0.7560    2.6303 H   0  0  0  0  0  0  0  0  0  0  0  0
   -0.1762    2.0397    3.6526 H   0  0  0  0  0  0  0  0  0  0  0  0
    0.7984    1.1271    2.4381 H   0  0  0  0  0  0  0  0  0  0  0  0
   -3.9847    0.1306   -0.6541 C   0  0  0  0  0  0  0  0  0  0  0  0
   -4.8010    0.0991   -1.7990 C   0  0  0  0  0  0  0  0  0  0  0  0
   -4.4428    0.5928   -2.7149 H   0  0  0  0  0  0  0  0  0  0  0  0
   -6.0411   -0.5516   -1.7753 C   0  0  0  0  0  0  0  0  0  0  0  0
   -6.6694   -0.5605   -2.6795 H   0  0  0  0  0  0  0  0  0  0  0  0
   -6.4844   -1.2060   -0.6101 C   0  0  0  0  0  0  0  0  0  0  0  0
   -5.6580   -1.1576    0.5314 C   0  0  0  0  0  0  0  0  0  0  0  0
   -6.0037   -1.6404    1.4604 H   0  0  0  0  0  0  0  0  0  0  0  0
   -4.4197   -0.4917    0.5487 C   0  0  0  0  0  0  0  0  0  0  0  0
   -7.7943   -1.9518   -0.5785 C   0  0  0  0  0  0  0  0  0  0  0  0
   -7.6304   -3.0476   -0.6637 H   0  0  0  0  0  0  0  0  0  0  0  0
   -8.4568   -1.6511   -1.4130 H   0  0  0  0  0  0  0  0  0  0  0  0
   -8.3370   -1.7815    0.3730 H   0  0  0  0  0  0  0  0  0  0  0  0
   -3.5905   -0.4205    1.8033 C   0  0  0  0  0  0  0  0  0  0  0  0
   -4.1877   -0.7002    2.6913 H   0  0  0  0  0  0  0  0  0  0  0  0
   -3.1877    0.6011    1.9533 H   0  0  0  0  0  0  0  0  0  0  0  0
   -2.7127   -1.1007    1.7615 H   0  0  0  0  0  0  0  0  0  0  0  0
   -0.6356   -2.0565    0.0278 C   0  0  2  0  0  3  0  0  0  0  0  0
    0.6716   -1.6723    0.4108 C   0  0  0  0  0  2  0  0  0  0  0  0
    1.4272   -2.6144    1.1384 C   0  0  0  0  0  0  0  0  0  0  0  0
    2.4468   -2.3564    1.4654 H   0  0  0  0  0  0  0  0  0  0  0  0
    0.9512   -3.9038    1.4477 C   0  0  0  0  0  0  0  0  0  0  0  0
   -0.3318   -4.2610    0.9949 C   0  0  0  0  0  0  0  0  0  0  0  0
   -0.7210   -5.2718    1.2001 H   0  0  0  0  0  0  0  0  0  0  0  0
   -1.1449   -3.3572    0.2921 C   0  0  0  0  0  0  0  0  0  0  0  0
    1.7899   -4.8666    2.2521 C   0  0  0  0  0  0  0  0  0  0  0  0
    1.5847   -4.7700    3.3409 H   0  0  0  0  0  0  0  0  0  0  0  0
    2.8729   -4.6787    2.1089 H   0  0  0  0  0  0  0  0  0  0  0  0
    1.5846   -5.9205    1.9765 H   0  0  0  0  0  0  0  0  0  0  0  0
   -2.5223   -3.7632   -0.1773 C   0  0  0  0  0  0  0  0  0  0  0  0
   -3.3253   -3.1189    0.2424 H   0  0  0  0  0  0  0  0  0  0  0  0
   -2.7487   -4.8050    0.1186 H   0  0  0  0  0  0  0  0  0  0  0  0
   -2.6198   -3.7153   -1.2854 H   0  0  0  0  0  0  0  0  0  0  0  0
  1  7  1  0  0  0  0
  2 24  1  0  0  0  0
  2  6  1  0  0  0  0
  3  2  1  0  0  0  0
  4  6  1  0  0  0  0
  5  4  1  0  0  0  0
  6  1  1  1  0  0  0
  7 15  1  0  0  0  0
  8 10  1  0  0  0  0
  8  7  2  0  0  0  0
  9  8  1  0  0  0  0
 10 12  2  0  0  0  0
 11 10  1  0  0  0  0
 12 16  1  0  0  0  0
 12 13  1  0  0  0  0
 13 14  1  0  0  0  0
 15 13  2  0  0  0  0
 15 20  1  0  0  0  0
 16 17  1  0  0  0  0
 16 18  1  0  0  0  0
 19 16  1  0  0  0  0
 20 22  1  0  0  0  0
 21 20  1  0  0  0  0
 23 20  1  0  0  0  0
 24 32  1  0  0  0  0
 25 27  1  0  0  0  0
 25 24  2  0  0  0  0
 26 25  1  0  0  0  0
 27 29  2  0  0  0  0
 28 27  1  0  0  0  0
 29 33  1  0  0  0  0
 29 30  1  0  0  0  0
 30 32  2  0  0  0  0
 30 31  1  0  0  0  0
 32 37  1  0  0  0  0
 33 36  1  0  0  0  0
 34 33  1  0  0  0  0
 35 33  1  0  0  0  0
 37 39  1  0  0  0  0
 37 38  1  0  0  0  0
 40 37  1  0  0  0  0
 41  4  1  6  0  0  0
 41 48  1  0  0  0  0
 41 42  1  0  0  0  0
 42 43  1  0  0  0  0
 43 45  2  0  0  0  0
 43 44  1  0  0  0  0
 45 49  1  0  0  0  0
 46 47  1  0  0  0  0
 46 45  1  0  0  0  0
 48 46  2  0  0  0  0
 49 50  1  0  0  0  0
 51 49  1  0  0  0  0
 52 49  1  0  0  0  0
 53 55  1  0  0  0  0
 53 54  1  0  0  0  0
 53 48  1  0  0  0  0
 56 53  1  0  0  0  0
M  END
