1,36
q = -1.0, confidence = 0.0

 47 49  0  0  1  0  0  0  0  0999 V2000
    0.6347    0.7884   -0.0744 N   0  0  0  0  0  2  0  0  0  0  0  0
    2.9052    0.8968   -0.7198 N   0  0  0  0  0  0  0  0  0  0  0  0
    2.7971    1.9130   -0.8023 H   0  0  0  0  0  0  0  0  0  0  0  0
    1.8333   -1.1534   -0.6454 N   0  0  0  0  0  0  0  0  0  0  0  0
    2.7212   -1.4642   -1.0439 H   0  0  0  0  0  0  0  0  0  0  0  0
    1.7470    0.1957   -0.4640 C   0  0  2  0  0  3  0  0  0  0  0  0
    0.6851    2.1785    0.2401 C   0  0  0  0  0  0  0  0  0  0  0  0
    0.8074    3.1346   -0.7880 C   0  0  0  0  0  0  0  0  0  0  0  0
    0.8047    2.7903   -1.8332 H   0  0  0  0  0  0  0  0  0  0  0  0
    0.8799    4.5012   -0.4826 C   0  0  0  0  0  0  0  0  0  0  0  0
    0.9680    5.2404   -1.2929 H   0  0  0  0  0  0  0  0  0  0  0  0
    0.8075    4.9160    0.8547 C   0  0  0  0  0  0  0  0  0  0  0  0
    0.8552    5.9860    1.1071 H   0  0  0  0  0  0  0  0  0  0  0  0
    0.6524    3.9632    1.8729 C   0  0  0  0  0  0  0  0  0  0  0  0
    0.5747    4.2930    2.9211 H   0  0  0  0  0  0  0  0  0  0  0  0
    0.5848    2.5852    1.5947 C   0  0  0  0  0  0  0  0  0  0  0  0
    0.3633    1.5697    2.6809 C   0  0  0  0  0  0  0  0  0  0  0  0
    0.3695    2.0415    3.6818 H   0  0  0  0  0  0  0  0  0  0  0  0
    1.1245    0.7638    2.6620 H   0  0  0  0  0  0  0  0  0  0  0  0
   -0.6159    1.0631    2.5335 H   0  0  0  0  0  0  0  0  0  0  0  0
    4.2079    0.3243   -0.7146 C   0  0  0  0  0  0  0  0  0  0  0  0
    4.9828    0.3762   -1.8893 C   0  0  0  0  0  0  0  0  0  0  0  0
    4.5490    0.8466   -2.7843 H   0  0  0  0  0  0  0  0  0  0  0  0
    6.2733   -0.1695   -1.9153 C   0  0  0  0  0  0  0  0  0  0  0  0
    6.8724   -0.1215   -2.8368 H   0  0  0  0  0  0  0  0  0  0  0  0
    6.7847   -0.7871   -0.7644 C   0  0  0  0  0  0  0  0  0  0  0  0
    7.7927   -1.2282   -0.7743 H   0  0  0  0  0  0  0  0  0  0  0  0
    6.0142   -0.8344    0.4071 C   0  0  0  0  0  0  0  0  0  0  0  0
    6.4298   -1.3013    1.3140 H   0  0  0  0  0  0  0  0  0  0  0  0
    4.7237   -0.2731    0.4690 C   0  0  0  0  0  0  0  0  0  0  0  0
    3.9257   -0.2885    1.7454 C   0  0  0  0  0  0  0  0  0  0  0  0
    3.4301    0.6882    1.9154 H   0  0  0  0  0  0  0  0  0  0  0  0
    4.5716   -0.5143    2.6145 H   0  0  0  0  0  0  0  0  0  0  0  0
    3.1174   -1.0507    1.7218 H   0  0  0  0  0  0  0  0  0  0  0  0
    1.0516   -2.1586   -0.0292 C   0  0  2  0  0  3  0  0  0  0  0  0
   -0.2828   -1.9227    0.3807 C   0  0  0  0  0  2  0  0  0  0  0  0
   -0.9427   -2.9780    1.0509 C   0  0  0  0  0  0  0  0  0  0  0  0
   -1.9746   -2.8340    1.4013 H   0  0  0  0  0  0  0  0  0  0  0  0
   -0.3252   -4.2176    1.2675 C   0  0  0  0  0  0  0  0  0  0  0  0
   -0.8709   -5.0206    1.7866 H   0  0  0  0  0  0  0  0  0  0  0  0
    0.9786   -4.4390    0.8039 C   0  0  0  0  0  0  0  0  0  0  0  0
    1.4639   -5.4166    0.9512 H   0  0  0  0  0  0  0  0  0  0  0  0
    1.6911   -3.4191    0.1544 C   0  0  0  0  0  0  0  0  0  0  0  0
    3.1000   -3.6553   -0.3367 C   0  0  0  0  0  0  0  0  0  0  0  0
    3.4252   -4.6887   -0.1128 H   0  0  0  0  0  0  0  0  0  0  0  0
    3.8399   -2.9694    0.1301 H   0  0  0  0  0  0  0  0  0  0  0  0
    3.1900   -3.5234   -1.4386 H   0  0  0  0  0  0  0  0  0  0  0  0
  1  7  1  0  0  0  0
  2 21  1  0  0  0  0
  2  6  1  0  0  0  0
  3  2  1  0  0  0  0
  4  6  1  0  0  0  0
  5  4  1  0  0  0  0
  6  1  1  6  0  0  0
  7 16  1  0  0  0  0
  8 10  1  0  0  0  0
  8  7  2  0  0  0  0
  9  8  1  0  0  0  0
 10 12  2  0  0  0  0
 11 10  1  0  0  0  0
 12 13  1  0  0  0  0
 12 14  1  0  0  0  0
 14 15  1  0  0  0  0
 16 14  2  0  0  0  0
 16 17  1  0  0  0  0
 17 18  1  0  0  0  0
 19 17  1  0  0  0  0
 20 17  1  0  0  0  0
 21 30  1  0  0  0  0
 22 21  2  0  0  0  0
 23 22  1  0  0  0  0
 24 22  1  0  0  0  0
 24 26  2  0  0  0  0
 25 24  1  0  0  0  0
 26 28  1  0  0  0  0
 27 26  1  0  0  0  0
 28 30  2  0  0  0  0
 28 29  1  0  0  0  0
 30 31  1  0  0  0  0
 31 32  1  0  0  0  0
 31 33  1  0  0  0  0
 34 31  1  0  0  0  0
 35  4  1  1  0  0  0
 35 43  1  0  0  0  0
 35 36  1  0  0  0  0
 36 37  1  0  0  0  0
 37 39  2  0  0  0  0
 37 38  1  0  0  0  0
 39 40  1  0  0  0  0
 41 42  1  0  0  0  0
 41 39  1  0  0  0  0
 43 41  2  0  0  0  0
 44 45  1  0  0  0  0
 44 46  1  0  0  0  0
 44 43  1  0  0  0  0
 47 44  1  0  0  0  0
M  END
