1,11
q = -1.0, confidence = 0.0

 24 25  0  0  0  0  0  0  0  0999 V2000
   -1.9002    0.1456    0.7499 N   0  0  0  0  0  2  0  0  0  0  0  0
   -2.3168    0.8623    1.8148 C   0  0  0  0  0  3  0  0  0  0  0  0
   -3.6472    0.8449    2.2367 C   0  0  0  0  0  0  0  0  0  0  0  0
   -4.5733    0.0578    1.5246 C   0  0  0  0  0  0  0  0  0  0  0  0
   -4.1572   -0.6849    0.4148 C   0  0  0  0  0  0  0  0  0  0  0  0
   -5.0832   -1.5513   -0.4066 C   0  0  0  0  0  0  0  0  0  0  0  0
   -4.3406   -2.7472   -1.0186 C   0  0  0  0  0  0  0  0  0  0  0  0
   -3.1318   -2.2872   -1.8479 C   0  0  0  0  0  0  0  0  0  0  0  0
   -2.2093   -1.3922   -1.0450 C   0  0  0  0  0  0  0  0  0  0  0  0
   -2.7872   -0.6333    0.0411 C   0  0  0  0  0  0  0  0  0  0  0  0
   -0.8448   -1.2148   -1.2201 C   0  0  0  0  0  3  0  0  0  0  0  0
   -0.0417   -1.9514   -2.2460 C   0  0  0  0  0  0  0  0  0  0  0  0
   -1.5378    1.4506    2.3220 H   0  0  0  0  0  0  0  0  0  0  0  0
   -3.9501    1.4368    3.1113 H   0  0  0  0  0  0  0  0  0  0  0  0
   -5.6285    0.0205    1.8393 H   0  0  0  0  0  0  0  0  0  0  0  0
   -5.5215   -0.9372   -1.2270 H   0  0  0  0  0  0  0  0  0  0  0  0
   -5.9389   -1.8848    0.2164 H   0  0  0  0  0  0  0  0  0  0  0  0
   -5.0340   -3.3442   -1.6458 H   0  0  0  0  0  0  0  0  0  0  0  0
   -3.9918   -3.4136   -0.1996 H   0  0  0  0  0  0  0  0  0  0  0  0
   -3.5005   -1.7449   -2.7498 H   0  0  0  0  0  0  0  0  0  0  0  0
   -2.5798   -3.1688   -2.2324 H   0  0  0  0  0  0  0  0  0  0  0  0
    0.4118   -1.2375   -2.9673 H   0  0  0  0  0  0  0  0  0  0  0  0
    0.8127   -2.4676   -1.7570 H   0  0  0  0  0  0  0  0  0  0  0  0
   -0.6222   -2.6980   -2.8257 H   0  0  0  0  0  0  0  0  0  0  0  0
  1  2  1  0  0  0  0
  2  3  1  0  0  0  0
  2 13  1  0  0  0  0
  3 14  1  0  0  0  0
  4 15  1  0  0  0  0
  4  3  2  0  0  0  0
  5  4  1  0  0  0  0
  6 17  1  0  0  0  0
  6  5  1  0  0  0  0
  7  6  1  0  0  0  0
  7 19  1  0  0  0  0
  8  9  1  0  0  0  0
  8  7  1  0  0  0  0
  9 10  1  0  0  0  0
 10  5  2  0  0  0  0
 10  1  1  0  0  0  0
 11  9  2  0  0  0  0
 12 23  1  0  0  0  0
 12 11  1  0  0  0  0
 16  6  1  0  0  0  0
 18  7  1  0  0  0  0
 20  8  1  0  0  0  0
 21  8  1  0  0  0  0
 22 12  1  0  0  0  0
 24 12  1  0  0  0  0
M  END
