3,9
q = -1.0, confidence = 0.0

 36 38  0  0  0  0  0  0  0  0999 V2000
    1.1557   -1.6533   -0.9471 O   0  0  0  0  0  0  0  0  0  0  0  0
    1.9473    0.5090   -1.0495 N   0  0  0  0  0  0  0  0  0  0  0  0
   -2.7342    0.8804    0.4185 N   0  0  0  0  0  2  0  0  0  0  0  0
   -1.8347    1.8997    0.2407 C   0  0  0  0  0  0  0  0  0  0  0  0
    0.9036   -0.4444   -0.8192 C   0  0  0  0  0  0  0  0  0  0  0  0
    1.7956    1.8709   -0.8570 C   0  0  0  0  0  0  0  0  0  0  0  0
    0.5762    2.3650   -0.4420 C   0  0  0  0  0  0  0  0  0  0  0  0
    0.4771    3.4470   -0.2869 H   0  0  0  0  0  0  0  0  0  0  0  0
   -0.3855    0.0966   -0.4258 C   0  0  0  0  0  2  0  0  0  0  0  0
   -0.5149    1.4681   -0.2225 C   0  0  0  0  0  0  0  0  0  0  0  0
   -2.2032    3.2348    0.5047 C   0  0  0  0  0  0  0  0  0  0  0  0
   -1.4672    4.0355    0.3538 H   0  0  0  0  0  0  0  0  0  0  0  0
    4.2239   -0.2243   -0.3142 C   0  0  0  0  0  0  0  0  0  0  0  0
    3.8582   -0.9440    0.8428 C   0  0  0  0  0  0  0  0  0  0  0  0
    2.8581   -1.3996    0.8984 H   0  0  0  0  0  0  0  0  0  0  0  0
    3.2413   -0.0633   -1.4575 C   0  0  0  0  0  0  0  0  0  0  0  0
    3.6790    0.5554   -2.2628 H   0  0  0  0  0  0  0  0  0  0  0  0
    2.9894   -1.0612   -1.8685 H   0  0  0  0  0  0  0  0  0  0  0  0
    5.5195    0.3205   -0.3960 C   0  0  0  0  0  0  0  0  0  0  0  0
    5.8178    0.8776   -1.2991 H   0  0  0  0  0  0  0  0  0  0  0  0
   -3.4932    3.5281    0.9524 C   0  0  0  0  0  0  0  0  0  0  0  0
   -3.7887    4.5671    1.1606 H   0  0  0  0  0  0  0  0  0  0  0  0
   -3.9790    1.1700    0.8513 C   0  0  0  0  0  0  0  0  0  0  0  0
   -4.6628    0.3190    0.9786 H   0  0  0  0  0  0  0  0  0  0  0  0
   -4.4011    2.4732    1.1309 C   0  0  0  0  0  0  0  0  0  0  0  0
   -5.4277    2.6467    1.4823 H   0  0  0  0  0  0  0  0  0  0  0  0
    2.9699    2.7727   -1.1064 C   0  0  0  0  0  0  0  0  0  0  0  0
    3.8410    2.4932   -0.4800 H   0  0  0  0  0  0  0  0  0  0  0  0
    2.6950    3.8182   -0.8774 H   0  0  0  0  0  0  0  0  0  0  0  0
    3.3040    2.7338   -2.1646 H   0  0  0  0  0  0  0  0  0  0  0  0
    4.7691   -1.0992    1.8967 C   0  0  0  0  0  0  0  0  0  0  0  0
    4.4715   -1.6641    2.7933 H   0  0  0  0  0  0  0  0  0  0  0  0
    6.0585   -0.5479    1.8090 C   0  0  0  0  0  0  0  0  0  0  0  0
    6.7715   -0.6728    2.6382 H   0  0  0  0  0  0  0  0  0  0  0  0
    6.4343    0.1585    0.6569 C   0  0  0  0  0  0  0  0  0  0  0  0
    7.4436    0.5903    0.5766 H   0  0  0  0  0  0  0  0  0  0  0  0
  1  5  2  0  0  0  0
  2  6  1  0  0  0  0
  2  5  1  0  0  0  0
  3 23  1  0  0  0  0
  4  3  1  0  0  0  0
  4 11  1  0  0  0  0
  5  9  1  0  0  0  0
  6  7  2  0  0  0  0
  7  8  1  0  0  0  0
  7 10  1  0  0  0  0
  9 10  1  0  0  0  0
 10  4  2  0  0  0  0
 11 21  2  0  0  0  0
 12 11  1  0  0  0  0
 13 14  1  0  0  0  0
 14 15  1  0  0  0  0
 14 31  2  0  0  0  0
 16  2  1  0  0  0  0
 16 13  1  0  0  0  0
 17 16  1  0  0  0  0
 18 16  1  0  0  0  0
 19 13  2  0  0  0  0
 19 35  1  0  0  0  0
 20 19  1  0  0  0  0
 21 25  1  0  0  0  0
 21 22  1  0  0  0  0
 23 24  1  0  0  0  0
 23 25  2  0  0  0  0
 25 26  1  0  0  0  0
 27 29  1  0  0  0  0
 27  6  1  0  0  0  0
 27 28  1  0  0  0  0
 30 27  1  0  0  0  0
 31 32  1  0  0  0  0
 33 31  1  0  0  0  0
 33 34  1  0  0  0  0
 35 33  2  0  0  0  0
 36 35  1  0  0  0  0
M  END
