2,4
q = -1.0, confidence = 0.002

 26 28  0  0  0  0  0  0  0  0999 V2000
    0.9692   -2.1530    0.0000 C   0  0  0  0  0  0  0  0  0  0  0  0
   -1.3030   -1.3352   -0.0000 C   0  0  0  0  0  2  0  0  0  0  0  0
   -0.4463   -2.4734    0.0000 C   0  0  0  0  0  0  0  0  0  0  0  0
    1.2743   -0.8190    0.0000 N   0  0  0  0  0  2  0  0  0  0  0  0
   -3.1993   -2.8348   -0.0001 C   0  0  0  0  0  0  0  0  0  0  0  0
    3.3123   -2.7965    0.0000 C   0  0  0  0  0  0  0  0  0  0  0  0
    4.1054   -3.5598   -0.0000 H   0  0  0  0  0  0  0  0  0  0  0  0
   -4.5338   -3.0197   -0.0002 F   0  0  0  0  0  0  0  0  0  0  0  0
    1.9837   -3.1509    0.0000 C   0  0  0  0  0  0  0  0  0  0  0  0
    1.6821   -4.2060    0.0000 H   0  0  0  0  0  0  0  0  0  0  0  0
   -0.9865   -3.7798    0.0000 C   0  0  0  0  0  0  0  0  0  0  0  0
   -0.3290   -4.6620    0.0001 H   0  0  0  0  0  0  0  0  0  0  0  0
   -2.6962   -1.5311   -0.0001 C   0  0  0  0  0  0  0  0  0  0  0  0
   -3.3858   -0.6759   -0.0001 H   0  0  0  0  0  0  0  0  0  0  0  0
   -2.3691   -3.9702   -0.0000 C   0  0  0  0  0  0  0  0  0  0  0  0
   -2.8202   -4.9719   -0.0000 H   0  0  0  0  0  0  0  0  0  0  0  0
    5.3580    0.3432   -0.0000 C   0  0  0  0  0  0  0  0  0  0  0  0
    6.4121    0.6577   -0.0000 H   0  0  0  0  0  0  0  0  0  0  0  0
    4.3225    1.3090    0.0000 C   0  0  0  0  0  0  0  0  0  0  0  0
    4.5772    2.3801    0.0000 H   0  0  0  0  0  0  0  0  0  0  0  0
    2.9829    0.9377    0.0000 C   0  0  0  0  0  0  0  0  0  0  0  0
    2.1986    1.7049    0.0000 H   0  0  0  0  0  0  0  0  0  0  0  0
    3.6657   -1.4196   -0.0000 C   0  0  0  0  0  0  0  0  0  0  0  0
    2.6110   -0.4331    0.0000 C   0  0  0  0  0  0  0  0  0  0  0  0
    5.0252   -1.0028   -0.0000 C   0  0  0  0  0  0  0  0  0  0  0  0
    5.8065   -1.7785   -0.0000 H   0  0  0  0  0  0  0  0  0  0  0  0
  1  4  1  0  0  0  0
  2  3  1  0  0  0  0
  3 11  1  0  0  0  0
  3  1  2  0  0  0  0
  5 13  2  0  0  0  0
  5 15  1  0  0  0  0
  6  9  2  0  0  0  0
  7  6  1  0  0  0  0
  8  5  1  0  0  0  0
  9 10  1  0  0  0  0
  9  1  1  0  0  0  0
 11 12  1  0  0  0  0
 13  2  1  0  0  0  0
 14 13  1  0  0  0  0
 15 16  1  0  0  0  0
 15 11  2  0  0  0  0
 17 19  1  0  0  0  0
 18 17  1  0  0  0  0
 19 20  1  0  0  0  0
 19 21  2  0  0  0  0
 21 22  1  0  0  0  0
 23  6  1  0  0  0  0
 23 24  2  0  0  0  0
 24 21  1  0  0  0  0
 24  4  1  0  0  0  0
 25 17  2  0  0  0  0
 25 23  1  0  0  0  0
 26 25  1  0  0  0  0
M  END
