1,2
q = -1.0, confidence = 0.0

 27 28  0  0  1  0  0  0  0  0999 V2000
    0.4066   -0.8310    0.0697 N   0  0  0  0  0  2  0  0  0  0  0  0
   -0.0184    1.6210   -0.2128 C   0  0  0  0  0  3  0  0  0  0  0  0
   -0.2831    3.0051   -0.3765 C   0  0  0  0  0  0  0  0  0  0  0  0
   -1.3266    3.3534   -0.3454 H   0  0  0  0  0  0  0  0  0  0  0  0
    0.7305    3.9453   -0.6011 C   0  0  0  0  0  0  0  0  0  0  0  0
    0.4780    5.0108   -0.7244 H   0  0  0  0  0  0  0  0  0  0  0  0
    2.0794    3.5425   -0.6943 C   0  0  0  0  0  0  0  0  0  0  0  0
    2.8938    4.2520   -0.8973 H   0  0  0  0  0  0  0  0  0  0  0  0
    2.3742    2.1923   -0.5331 C   0  0  0  0  0  0  0  0  0  0  0  0
    1.3738    1.2298   -0.2609 C   0  0  0  0  0  0  0  0  0  0  0  0
    3.7351    0.2977    1.9810 C   0  0  0  0  0  0  0  0  0  0  0  0
    1.5671   -0.1901   -0.0700 C   0  0  2  0  0  3  0  0  0  0  0  0
    2.8368   -0.9606   -0.0608 C   0  0  0  0  0  0  0  0  0  0  0  0
    2.9859   -1.9936   -1.0151 C   0  0  0  0  0  0  0  0  0  0  0  0
    2.1951   -2.1316   -1.7692 H   0  0  0  0  0  0  0  0  0  0  0  0
    4.1232   -2.8111   -1.0351 C   0  0  0  0  0  0  0  0  0  0  0  0
    4.2229   -3.6000   -1.7962 H   0  0  0  0  0  0  0  0  0  0  0  0
    5.1324   -2.6076   -0.0830 C   0  0  0  0  0  0  0  0  0  0  0  0
    6.0331   -3.2403   -0.0822 H   0  0  0  0  0  0  0  0  0  0  0  0
    4.9861   -1.5964    0.8781 C   0  0  0  0  0  0  0  0  0  0  0  0
    5.7712   -1.4535    1.6380 H   0  0  0  0  0  0  0  0  0  0  0  0
    3.8534   -0.7606    0.9146 C   0  0  0  0  0  0  0  0  0  0  0  0
    3.6705    1.8025   -0.6554 F   0  0  0  0  0  0  0  0  0  0  0  0
    4.3224    0.0272    2.8800 H   0  0  0  0  0  0  0  0  0  0  0  0
    4.1112    1.2726    1.6099 H   0  0  0  0  0  0  0  0  0  0  0  0
    2.6813    0.4564    2.2823 H   0  0  0  0  0  0  0  0  0  0  0  0
    0.5586   -1.8394    0.2194 H   0  0  0  0  0  0  0  0  0  0  0  0
  1 27  1  0  0  0  0
  3  4  1  0  0  0  0
  3  2  2  0  0  0  0
  5  3  1  0  0  0  0
  6  5  1  0  0  0  0
  7  5  2  0  0  0  0
  7  9  1  0  0  0  0
  8  7  1  0  0  0  0
  9 10  2  0  0  0  0
 10  2  1  0  0  0  0
 10 12  1  0  0  0  0
 11 26  1  0  0  0  0
 11 24  1  0  0  0  0
 12 13  1  0  0  0  0
 12  1  1  6  0  0  0
 13 22  1  0  0  0  0
 14 13  2  0  0  0  0
 15 14  1  0  0  0  0
 16 14  1  0  0  0  0
 16 18  2  0  0  0  0
 17 16  1  0  0  0  0
 18 19  1  0  0  0  0
 18 20  1  0  0  0  0
 20 22  2  0  0  0  0
 20 21  1  0  0  0  0
 22 11  1  0  0  0  0
 23  9  1  0  0  0  0
 25 11  1  0  0  0  0
M  END
