1,13
q = -2.0, confidence = 0.862

 64 69  0  0  1  0  0  0  0  0999 V2000
   -0.4116   -2.3607   -0.4972 N   0  0  0  0  0  2  0  0  0  0  0  0
   -0.0507   -3.3966    0.2863 N   0  0  0  0  0  0  0  0  0  0  0  0
    2.1094   -1.0186    0.6903 N   0  0  0  0  0  0  0  0  0  0  0  0
    2.0762   -2.2956    1.1619 N   0  0  0  0  0  0  0  0  0  0  0  0
   -0.6760   -0.8517    1.6928 N   0  0  0  0  0  0  0  0  0  0  0  0
   -0.1279   -1.9376    2.3079 N   0  0  0  0  0  0  0  0  0  0  0  0
   -1.5459   -2.6541   -1.1713 C   0  0  1  0  0  3  0  0  0  0  0  0
   -1.8918   -3.9969   -0.8584 C   0  0  0  0  0  0  0  0  0  0  0  0
   -2.7399   -4.5751   -1.2370 H   0  0  0  0  0  0  0  0  0  0  0  0
   -0.9407   -4.4107    0.0796 C   0  0  0  0  0  0  0  0  0  0  0  0
   -0.8394   -5.3541    0.6272 H   0  0  0  0  0  0  0  0  0  0  0  0
   -2.1532   -1.4884   -1.7991 C   0  0  0  0  0  0  0  0  0  0  0  0
   -1.5097   -0.2425   -1.4646 C   0  0  0  0  0  3  0  0  0  0  0  0
   -2.1170    0.9290   -1.9534 C   0  0  0  0  0  0  0  0  0  0  0  0
   -1.6913    1.9149   -1.7081 H   0  0  0  0  0  0  0  0  0  0  0  0
   -3.2898    0.9117   -2.7399 C   0  0  0  0  0  0  0  0  0  0  0  0
   -3.8830   -0.3275   -3.0552 C   0  0  0  0  0  0  0  0  0  0  0  0
   -4.7972   -0.3551   -3.6683 H   0  0  0  0  0  0  0  0  0  0  0  0
   -3.3183   -1.5203   -2.5846 C   0  0  0  0  0  0  0  0  0  0  0  0
   -3.7913   -2.4864   -2.8216 H   0  0  0  0  0  0  0  0  0  0  0  0
   -3.8844    2.2099   -3.2286 C   0  0  0  0  0  0  0  0  0  0  0  0
   -4.0262    2.9274   -2.3927 H   0  0  0  0  0  0  0  0  0  0  0  0
   -4.8654    2.0559   -3.7189 H   0  0  0  0  0  0  0  0  0  0  0  0
   -3.2160    2.7084   -3.9626 H   0  0  0  0  0  0  0  0  0  0  0  0
    3.4193   -0.6854    0.5654 C   0  0  0  0  0  0  0  0  0  0  0  0
    4.2316   -1.7848    0.9387 C   0  0  0  0  0  0  0  0  0  0  0  0
    5.3249   -1.8117    0.9698 H   0  0  0  0  0  0  0  0  0  0  0  0
    3.3343   -2.7787    1.3221 C   0  0  0  0  0  0  0  0  0  0  0  0
    3.4943   -3.7865    1.7195 H   0  0  0  0  0  0  0  0  0  0  0  0
    3.8854    0.6648    0.1903 C   0  0  0  0  0  0  0  0  0  0  0  0
    3.5777    1.7791    0.9994 C   0  0  0  0  0  0  0  0  0  0  0  0
    2.9827    1.6285    1.9121 H   0  0  0  0  0  0  0  0  0  0  0  0
    4.0268    3.0585    0.6526 C   0  0  0  0  0  0  0  0  0  0  0  0
    3.7698    3.9151    1.2958 H   0  0  0  0  0  0  0  0  0  0  0  0
    4.8052    3.2711   -0.5043 C   0  0  0  0  0  0  0  0  0  0  0  0
    5.1363    2.1490   -1.2910 C   0  0  0  0  0  0  0  0  0  0  0  0
    5.7531    2.2861   -2.1933 H   0  0  0  0  0  0  0  0  0  0  0  0
    4.6897    0.8653   -0.9504 C   0  0  0  0  0  0  0  0  0  0  0  0
    4.9474    0.0034   -1.5842 H   0  0  0  0  0  0  0  0  0  0  0  0
    5.2483    4.6580   -0.8957 C   0  0  0  0  0  0  0  0  0  0  0  0
    5.4937    5.2741   -0.0077 H   0  0  0  0  0  0  0  0  0  0  0  0
    4.4429    5.1906   -1.4462 H   0  0  0  0  0  0  0  0  0  0  0  0
    6.1364    4.6334   -1.5569 H   0  0  0  0  0  0  0  0  0  0  0  0
   -1.4183   -0.1965    2.6192 C   0  0  0  0  0  0  0  0  0  0  0  0
   -1.3096   -0.8642    3.8661 C   0  0  0  0  0  0  0  0  0  0  0  0
   -1.8154   -0.5979    4.7990 H   0  0  0  0  0  0  0  0  0  0  0  0
   -0.4944   -1.9652    3.6158 C   0  0  0  0  0  0  0  0  0  0  0  0
   -0.1597   -2.7809    4.2652 H   0  0  0  0  0  0  0  0  0  0  0  0
   -2.2677    0.9617    2.2945 C   0  0  0  0  0  0  0  0  0  0  0  0
   -3.1436    0.9178    1.1891 C   0  0  0  0  0  0  0  0  0  0  0  0
   -3.1785    0.0150    0.5648 H   0  0  0  0  0  0  0  0  0  0  0  0
   -3.9519    2.0166    0.8788 C   0  0  0  0  0  0  0  0  0  0  0  0
   -4.6177    1.9590    0.0033 H   0  0  0  0  0  0  0  0  0  0  0  0
   -3.9266    3.1897    1.6617 C   0  0  0  0  0  0  0  0  0  0  0  0
   -3.0639    3.2190    2.7768 C   0  0  0  0  0  0  0  0  0  0  0  0
   -3.0222    4.1247    3.4028 H   0  0  0  0  0  0  0  0  0  0  0  0
   -2.2498    2.1235    3.0938 C   0  0  0  0  0  0  0  0  0  0  0  0
   -1.5670    2.1750    3.9558 H   0  0  0  0  0  0  0  0  0  0  0  0
   -4.8162    4.3604    1.3269 C   0  0  0  0  0  0  0  0  0  0  0  0
   -5.8564    4.1855    1.6774 H   0  0  0  0  0  0  0  0  0  0  0  0
   -4.8711    4.5287    0.2322 H   0  0  0  0  0  0  0  0  0  0  0  0
   -4.4610    5.2953    1.8028 H   0  0  0  0  0  0  0  0  0  0  0  0
    0.7488   -2.9804    1.5502 B   0  0  0  0  0  0  0  0  0  0  0  0
    0.9642   -3.9472    2.2637 H   0  0  0  0  0  0  0  0  0  0  0  0
  1  2  1  0  0  0  0
  2 63  1  0  0  0  0
  3  4  1  0  0  0  0
  4 28  1  0  0  0  0
  4 63  1  0  0  0  0
  5  6  1  0  0  0  0
  5 44  2  0  0  0  0
  6 47  1  0  0  0  0
  7 12  1  1  0  0  0
  7  8  1  0  0  0  0
  7  1  1  0  0  0  0
  8 10  2  0  0  0  0
  9  8  1  0  0  0  0
 10  2  1  0  0  0  0
 10 11  1  0  0  0  0
 12 13  1  0  0  0  0
 14 15  1  0  0  0  0
 14 13  2  0  0  0  0
 16 14  1  0  0  0  0
 17 16  2  0  0  0  0
 17 19  1  0  0  0  0
 18 17  1  0  0  0  0
 19 12  2  0  0  0  0
 20 19  1  0  0  0  0
 21 16  1  0  0  0  0
 21 22  1  0  0  0  0
 23 21  1  0  0  0  0
 24 21  1  0  0  0  0
 25  3  2  0  0  0  0
 25 26  1  0  0  0  0
 26 27  1  0  0  0  0
 26 28  2  0  0  0  0
 28 29  1  0  0  0  0
 30 25  1  0  0  0  0
 30 31  1  0  0  0  0
 31 32  1  0  0  0  0
 33 31  2  0  0  0  0
 33 34  1  0  0  0  0
 35 33  1  0  0  0  0
 36 38  1  0  0  0  0
 36 35  2  0  0  0  0
 37 36  1  0  0  0  0
 38 30  2  0  0  0  0
 39 38  1  0  0  0  0
 40 35  1  0  0  0  0
 40 41  1  0  0  0  0
 42 40  1  0  0  0  0
 43 40  1  0  0  0  0
 44 45  1  0  0  0  0
 45 46  1  0  0  0  0
 47 45  2  0  0  0  0
 47 48  1  0  0  0  0
 49 44  1  0  0  0  0
 49 57  1  0  0  0  0
 50 49  2  0  0  0  0
 51 50  1  0  0  0  0
 52 50  1  0  0  0  0
 52 54  2  0  0  0  0
 53 52  1  0  0  0  0
 54 55  1  0  0  0  0
 55 57  2  0  0  0  0
 55 56  1  0  0  0  0
 57 58  1  0  0  0  0
 59 54  1  0  0  0  0
 59 60  1  0  0  0  0
 59 62  1  0  0  0  0
 61 59  1  0  0  0  0
 63 64  1  0  0  0  0
 63  6  1  0  0  0  0
M  END
