8,23
 OpenBabel05122313053D

 36 37  0  0  1  0  0  0  0  0999 V2000
   -1.4002    1.3910    1.4833 S   0  0  0  0  0  0  0  0  0  0  0  0
    0.9647    2.6586    1.7412 F   0  0  0  0  0  0  0  0  0  0  0  0
   -0.6937    3.6317    2.7755 F   0  0  0  0  0  0  0  0  0  0  0  0
   -0.5416    3.7494    0.5980 F   0  0  0  0  0  0  0  0  0  0  0  0
   -1.1130    0.6079    2.7082 O   0  0  0  0  0  0  0  0  0  0  0  0
   -2.7540    1.9305    1.2282 O   0  0  0  0  0  0  0  0  0  0  0  0
   -0.5489   -1.1128   -1.8163 N   0  0  0  0  0  0  0  0  0  0  0  0
   -0.8234    0.6288    0.1784 N   0  0  0  0  0  2  0  0  0  0  0  0
   -0.3471    2.9598    1.6686 C   0  0  0  0  0  0  0  0  0  0  0  0
   -1.7225   -0.1838   -1.8833 C   0  0  2  0  0  0  0  0  0  0  0  0
   -1.2465    1.1076   -1.1368 C   0  0  2  0  0  0  0  0  0  0  0  0
   -2.9545   -0.8073   -1.2752 C   0  0  0  0  0  0  0  0  0  0  0  0
   -2.9006   -1.5067   -0.0497 C   0  0  0  0  0  0  0  0  0  0  0  0
   -4.0701   -2.0376    0.5142 C   0  0  0  0  0  0  0  0  0  0  0  0
   -5.3059   -1.8742   -0.1298 C   0  0  0  0  0  0  0  0  0  0  0  0
   -5.3684   -1.1779   -1.3472 C   0  0  0  0  0  0  0  0  0  0  0  0
   -4.1994   -0.6513   -1.9147 C   0  0  0  0  0  0  0  0  0  0  0  0
   -0.0113    1.6513   -1.8209 C   0  0  0  0  0  0  0  0  0  0  0  0
   -0.0106    2.7070   -2.7428 C   0  0  0  0  0  0  0  0  0  0  0  0
    1.1969    3.1030   -3.3427 C   0  0  0  0  0  0  0  0  0  0  0  0
    2.3824    2.4224   -3.0234 C   0  0  0  0  0  0  0  0  0  0  0  0
    2.3732    1.3592   -2.1006 C   0  0  0  0  0  0  0  0  0  0  0  0
    1.1804    0.9575   -1.4684 C   0  0  0  0  0  3  0  0  0  0  0  0
    0.0195   -1.0260   -2.6681 H   0  0  0  0  0  0  0  0  0  0  0  0
   -0.8697   -2.0880   -1.7475 H   0  0  0  0  0  0  0  0  0  0  0  0
   -1.9293    0.0765   -2.9409 H   0  0  0  0  0  0  0  0  0  0  0  0
   -2.0850    1.8284   -1.0765 H   0  0  0  0  0  0  0  0  0  0  0  0
   -1.9409   -1.6090    0.4764 H   0  0  0  0  0  0  0  0  0  0  0  0
   -4.0139   -2.5709    1.4753 H   0  0  0  0  0  0  0  0  0  0  0  0
   -6.2226   -2.2863    0.3187 H   0  0  0  0  0  0  0  0  0  0  0  0
   -6.3334   -1.0441   -1.8591 H   0  0  0  0  0  0  0  0  0  0  0  0
   -4.2517   -0.1049   -2.8701 H   0  0  0  0  0  0  0  0  0  0  0  0
   -0.9502    3.2310   -2.9826 H   0  0  0  0  0  0  0  0  0  0  0  0
    1.2126    3.9418   -4.0550 H   0  0  0  0  0  0  0  0  0  0  0  0
    3.3310    2.7229   -3.4963 H   0  0  0  0  0  0  0  0  0  0  0  0
    3.3205    0.8447   -1.8823 H   0  0  0  0  0  0  0  0  0  0  0  0
  1  9  1  0  0  0  0
  1  5  2  0  0  0  0
  4  9  1  0  0  0  0
  6  1  2  0  0  0  0
  7 25  1  0  0  0  0
  8  1  1  0  0  0  0
  9  2  1  0  0  0  0
  9  3  1  0  0  0  0
 10 26  1  6  0  0  0
 10  7  1  0  0  0  0
 10 12  1  0  0  0  0
 10 11  1  0  0  0  0
 11 27  1  1  0  0  0
 11  8  1  0  0  0  0
 12 13  1  0  0  0  0
 13 28  1  0  0  0  0
 13 14  2  0  0  0  0
 14 29  1  0  0  0  0
 15 30  1  0  0  0  0
 15 14  1  0  0  0  0
 16 15  2  0  0  0  0
 17 16  1  0  0  0  0
 17 12  2  0  0  0  0
 18 23  1  0  0  0  0
 18 11  1  0  0  0  0
 19 18  2  0  0  0  0
 20 21  2  0  0  0  0
 20 19  1  0  0  0  0
 21 22  1  0  0  0  0
 22 36  1  0  0  0  0
 22 23  2  0  0  0  0
 24  7  1  0  0  0  0
 31 16  1  0  0  0  0
 32 17  1  0  0  0  0
 33 19  1  0  0  0  0
 34 20  1  0  0  0  0
 35 21  1  0  0  0  0
M  END
