3,4
 OpenBabel05122313053D

 31 33  0  0  1  0  0  0  0  0999 V2000
   -0.2824    2.1595    0.7967 N   0  0  0  0  0  0  0  0  0  0  0  0
   -1.8364    0.6699    1.0798 N   0  0  0  0  0  0  0  0  0  0  0  0
    1.6112    1.6195   -0.3660 N   0  0  0  0  0  2  0  0  0  0  0  0
   -0.5395    0.7981    0.6913 C   0  0  0  0  0  2  0  0  0  0  0  0
   -1.3980    2.8504    1.2736 C   0  0  0  0  0  0  0  0  0  0  0  0
   -1.4146    3.9312    1.4352 H   0  0  0  0  0  0  0  0  0  0  0  0
   -2.3700    1.9082    1.4491 C   0  0  0  0  0  0  0  0  0  0  0  0
   -3.4081    2.0085    1.7796 H   0  0  0  0  0  0  0  0  0  0  0  0
   -2.6511   -0.5479    0.9332 C   0  0  0  0  0  0  0  0  0  0  0  0
   -2.8713   -0.9595    1.9383 H   0  0  0  0  0  0  0  0  0  0  0  0
   -2.0084   -1.2621    0.3889 H   0  0  0  0  0  0  0  0  0  0  0  0
   -3.9337   -0.2817    0.1791 C   0  0  0  0  0  0  0  0  0  0  0  0
   -3.8904    0.0394   -1.1934 C   0  0  0  0  0  0  0  0  0  0  0  0
   -2.9177    0.0784   -1.7117 H   0  0  0  0  0  0  0  0  0  0  0  0
   -5.0791    0.3030   -1.8871 C   0  0  0  0  0  0  0  0  0  0  0  0
   -5.0417    0.5491   -2.9590 H   0  0  0  0  0  0  0  0  0  0  0  0
   -6.3158    0.2470   -1.2214 C   0  0  0  0  0  0  0  0  0  0  0  0
   -7.2469    0.4520   -1.7708 H   0  0  0  0  0  0  0  0  0  0  0  0
   -6.3634   -0.0751    0.1432 C   0  0  0  0  0  0  0  0  0  0  0  0
   -7.3296   -0.1252    0.6669 H   0  0  0  0  0  0  0  0  0  0  0  0
   -5.1740   -0.3368    0.8421 C   0  0  0  0  0  0  0  0  0  0  0  0
   -5.2120   -0.5951    1.9130 H   0  0  0  0  0  0  0  0  0  0  0  0
    0.8830    2.6260    0.1905 C   0  0  1  0  0  3  0  0  0  0  0  0
    2.7006    1.9494   -1.0993 C   0  0  0  0  0  0  0  0  0  0  0  0
    3.2220    1.1147   -1.5842 H   0  0  0  0  0  0  0  0  0  0  0  0
    3.1318    3.2686   -1.2448 C   0  0  0  0  0  0  0  0  0  0  0  0
    4.0241    3.4828   -1.8486 H   0  0  0  0  0  0  0  0  0  0  0  0
    2.4057    4.2966   -0.6202 C   0  0  0  0  0  0  0  0  0  0  0  0
    2.7238    5.3451   -0.7114 H   0  0  0  0  0  0  0  0  0  0  0  0
    1.2534    3.9741    0.1035 C   0  0  0  0  0  0  0  0  0  0  0  0
    0.6418    4.7520    0.5792 H   0  0  0  0  0  0  0  0  0  0  0  0
  1  5  1  0  0  0  0
  2  7  1  0  0  0  0
  3 23  1  0  0  0  0
  4  1  1  0  0  0  0
  4  2  1  0  0  0  0
  5  6  1  0  0  0  0
  5  7  2  0  0  0  0
  7  8  1  0  0  0  0
  9  2  1  0  0  0  0
  9 10  1  0  0  0  0
 11  9  1  0  0  0  0
 12 21  1  0  0  0  0
 12  9  1  0  0  0  0
 13 12  2  0  0  0  0
 14 13  1  0  0  0  0
 15 17  2  0  0  0  0
 15 13  1  0  0  0  0
 16 15  1  0  0  0  0
 17 19  1  0  0  0  0
 18 17  1  0  0  0  0
 19 20  1  0  0  0  0
 19 21  2  0  0  0  0
 21 22  1  0  0  0  0
 23  1  1  6  0  0  0
 24  3  1  0  0  0  0
 25 24  1  0  0  0  0
 26 24  2  0  0  0  0
 26 28  1  0  0  0  0
 27 26  1  0  0  0  0
 28 30  2  0  0  0  0
 29 28  1  0  0  0  0
 30 23  1  0  0  0  0
 30 31  1  0  0  0  0
M  END
