1,7
 OpenBabel05122313053D

 19 19  0  0  1  0  0  0  0  0999 V2000
    2.6248   -1.0660    0.4245 N   0  0  0  0  0  0  0  0  0  0  0  0
    2.7486   -1.0761    1.4487 H   0  0  0  0  0  0  0  0  0  0  0  0
    2.6502   -2.0515    0.1156 H   0  0  0  0  0  0  0  0  0  0  0  0
    3.6980   -0.2367   -0.2248 C   0  0  2  0  0  0  0  0  0  0  0  0
    4.6595   -0.4089    0.3087 H   0  0  0  0  0  0  0  0  0  0  0  0
    3.2610    1.2076   -0.0996 C   0  0  0  0  0  0  0  0  0  0  0  0
    1.8558    1.4395   -0.0148 C   0  0  0  0  0  3  0  0  0  0  0  0
    1.4222    2.7815    0.0375 C   0  0  0  0  0  0  0  0  0  0  0  0
    0.3490    3.0201    0.1224 H   0  0  0  0  0  0  0  0  0  0  0  0
    2.3370    3.8482   -0.0005 C   0  0  0  0  0  0  0  0  0  0  0  0
    1.9678    4.8852    0.0411 H   0  0  0  0  0  0  0  0  0  0  0  0
    3.7158    3.5987   -0.0790 C   0  0  0  0  0  0  0  0  0  0  0  0
    4.4324    4.4335   -0.0987 H   0  0  0  0  0  0  0  0  0  0  0  0
    4.1752    2.2722   -0.1253 C   0  0  0  0  0  0  0  0  0  0  0  0
    5.2571    2.0667   -0.1838 H   0  0  0  0  0  0  0  0  0  0  0  0
    3.8508   -0.6715   -1.6845 C   0  0  0  0  0  0  0  0  0  0  0  0
    2.8882   -0.5376   -2.2182 H   0  0  0  0  0  0  0  0  0  0  0  0
    4.1616   -1.7346   -1.7639 H   0  0  0  0  0  0  0  0  0  0  0  0
    4.6172   -0.0485   -2.1835 H   0  0  0  0  0  0  0  0  0  0  0  0
  1  2  1  0  0  0  0
  3  1  1  0  0  0  0
  4  6  1  0  0  0  0
  4  5  1  1  0  0  0
  4  1  1  0  0  0  0
  6  7  1  0  0  0  0
  7  8  2  0  0  0  0
  8  9  1  0  0  0  0
 10  8  1  0  0  0  0
 10 11  1  0  0  0  0
 12 10  2  0  0  0  0
 13 12  1  0  0  0  0
 14  6  2  0  0  0  0
 14 12  1  0  0  0  0
 15 14  1  0  0  0  0
 16  4  1  0  0  0  0
 17 16  1  0  0  0  0
 18 16  1  0  0  0  0
 19 16  1  0  0  0  0
M  END
