1,2
 OpenBabel05122313053D

 31 32  0  0  1  0  0  0  0  0999 V2000
   -1.9977    2.1698    0.8237 N   0  0  0  0  0  0  0  0  0  0  0  0
   -1.4214   -0.3346   -0.0342 C   0  0  0  0  0  3  0  0  0  0  0  0
   -1.1427   -1.7344   -0.0616 C   0  0  0  0  0  0  0  0  0  0  0  0
   -0.1178   -2.1017    0.1043 H   0  0  0  0  0  0  0  0  0  0  0  0
   -2.1492   -2.6654   -0.2699 C   0  0  0  0  0  0  0  0  0  0  0  0
   -1.9147   -3.7421   -0.2853 H   0  0  0  0  0  0  0  0  0  0  0  0
   -3.4996   -2.2576   -0.4645 C   0  0  0  0  0  0  0  0  0  0  0  0
   -4.5427   -3.2013   -0.6933 C   0  0  0  0  0  0  0  0  0  0  0  0
   -4.2836   -4.2717   -0.7203 H   0  0  0  0  0  0  0  0  0  0  0  0
   -5.8541   -2.7909   -0.8797 C   0  0  0  0  0  0  0  0  0  0  0  0
   -6.6485   -3.5315   -1.0571 H   0  0  0  0  0  0  0  0  0  0  0  0
   -6.1707   -1.4072   -0.8419 C   0  0  0  0  0  0  0  0  0  0  0  0
   -7.2115   -1.0813   -0.9915 H   0  0  0  0  0  0  0  0  0  0  0  0
   -5.1791   -0.4622   -0.6188 C   0  0  0  0  0  0  0  0  0  0  0  0
   -5.4514    0.6031   -0.5999 H   0  0  0  0  0  0  0  0  0  0  0  0
   -3.8159   -0.8473   -0.4214 C   0  0  0  0  0  0  0  0  0  0  0  0
   -2.7540    0.0866   -0.1880 C   0  0  0  0  0  0  0  0  0  0  0  0
   -2.9908    1.5821   -0.1512 C   0  0  2  0  0  0  0  0  0  0  0  0
   -4.0077    1.8229    0.2386 H   0  0  0  0  0  0  0  0  0  0  0  0
   -2.8529    2.1692   -1.5605 C   0  0  0  0  0  0  0  0  0  0  0  0
   -1.8072    2.0564   -1.9143 H   0  0  0  0  0  0  0  0  0  0  0  0
   -3.1487    3.2345   -1.6189 H   0  0  0  0  0  0  0  0  0  0  0  0
   -3.5059    1.5963   -2.2465 H   0  0  0  0  0  0  0  0  0  0  0  0
   -2.3687    1.8054    2.2104 C   0  0  0  0  0  0  0  0  0  0  0  0
   -1.5667    2.1393    2.8945 H   0  0  0  0  0  0  0  0  0  0  0  0
   -2.4846    0.7097    2.2899 H   0  0  0  0  0  0  0  0  0  0  0  0
   -3.3264    2.2983    2.4978 H   0  0  0  0  0  0  0  0  0  0  0  0
   -1.8921    3.6378    0.7302 C   0  0  0  0  0  0  0  0  0  0  0  0
   -2.8799    4.1111    0.9374 H   0  0  0  0  0  0  0  0  0  0  0  0
   -1.5374    3.9363   -0.2701 H   0  0  0  0  0  0  0  0  0  0  0  0
   -1.1377    3.9805    1.4612 H   0  0  0  0  0  0  0  0  0  0  0  0
  1 24  1  0  0  0  0
  3  2  1  0  0  0  0
  3  4  1  0  0  0  0
  5  3  2  0  0  0  0
  6  5  1  0  0  0  0
  7 16  1  0  0  0  0
  7  5  1  0  0  0  0
  8  7  2  0  0  0  0
  9  8  1  0  0  0  0
 10 12  2  0  0  0  0
 10  8  1  0  0  0  0
 11 10  1  0  0  0  0
 12 14  1  0  0  0  0
 13 12  1  0  0  0  0
 14 15  1  0  0  0  0
 14 16  2  0  0  0  0
 16 17  1  0  0  0  0
 17 18  1  0  0  0  0
 17  2  2  0  0  0  0
 18 19  1  1  0  0  0
 18  1  1  0  0  0  0
 20 18  1  0  0  0  0
 21 20  1  0  0  0  0
 22 20  1  0  0  0  0
 23 20  1  0  0  0  0
 24 26  1  0  0  0  0
 24 27  1  0  0  0  0
 24 25  1  0  0  0  0
 28  1  1  0  0  0  0
 28 29  1  0  0  0  0
 28 31  1  0  0  0  0
 30 28  1  0  0  0  0
M  END
