2,3
 OpenBabel05122313053D

 24 25  0  0  0  0  0  0  0  0999 V2000
   -5.3814   -1.1124   -0.1384 F   0  0  0  0  0  0  0  0  0  0  0  0
    0.7645   -1.4970   -0.0293 N   0  0  0  0  0  2  0  0  0  0  0  0
   -1.7426   -0.8537   -0.0379 C   0  0  0  0  0  3  0  0  0  0  0  0
   -3.1003   -0.4949   -0.1327 C   0  0  0  0  0  0  0  0  0  0  0  0
   -3.4179    0.5465   -0.2851 H   0  0  0  0  0  0  0  0  0  0  0  0
   -4.0882   -1.4833   -0.0621 C   0  0  0  0  0  0  0  0  0  0  0  0
   -3.7963   -2.8539    0.0783 C   0  0  0  0  0  0  0  0  0  0  0  0
   -4.6193   -3.5803    0.1227 H   0  0  0  0  0  0  0  0  0  0  0  0
   -0.0364   -2.5372    0.0566 C   0  0  0  0  0  3  0  0  0  0  0  0
    0.3801   -3.5607    0.0718 H   0  0  0  0  0  0  0  0  0  0  0  0
   -1.4399   -2.2546    0.0736 C   0  0  0  0  0  0  0  0  0  0  0  0
   -2.4566   -3.2364    0.1321 C   0  0  0  0  0  0  0  0  0  0  0  0
   -2.1892   -4.3021    0.2108 H   0  0  0  0  0  0  0  0  0  0  0  0
    2.1728   -1.6419   -0.0693 C   0  0  0  0  0  0  0  0  0  0  0  0
    2.8580   -2.3022    0.9707 C   0  0  0  0  0  0  0  0  0  0  0  0
    2.2869   -2.7135    1.8167 H   0  0  0  0  0  0  0  0  0  0  0  0
    4.2580   -2.4026    0.9291 C   0  0  0  0  0  0  0  0  0  0  0  0
    4.7909   -2.9103    1.7475 H   0  0  0  0  0  0  0  0  0  0  0  0
    4.9745   -1.8524   -0.1446 C   0  0  0  0  0  0  0  0  0  0  0  0
    6.0715   -1.9311   -0.1738 H   0  0  0  0  0  0  0  0  0  0  0  0
    4.2842   -1.1973   -1.1808 C   0  0  0  0  0  0  0  0  0  0  0  0
    4.8419   -0.7708   -2.0287 H   0  0  0  0  0  0  0  0  0  0  0  0
    2.8898   -1.0808   -1.1470 C   0  0  0  0  0  0  0  0  0  0  0  0
    2.3190   -0.5751   -1.9420 H   0  0  0  0  0  0  0  0  0  0  0  0
  1  6  1  0  0  0  0
  2  9  1  0  0  0  0
  3 11  1  0  0  0  0
  4  6  1  0  0  0  0
  4  3  2  0  0  0  0
  5  4  1  0  0  0  0
  6  7  2  0  0  0  0
  7  8  1  0  0  0  0
  7 12  1  0  0  0  0
  9 10  1  0  0  0  0
  9 11  1  0  0  0  0
 11 12  2  0  0  0  0
 12 13  1  0  0  0  0
 14  2  1  0  0  0  0
 14 15  1  0  0  0  0
 15 16  1  0  0  0  0
 17 15  2  0  0  0  0
 17 18  1  0  0  0  0
 19 17  1  0  0  0  0
 20 19  1  0  0  0  0
 21 23  1  0  0  0  0
 21 19  2  0  0  0  0
 22 21  1  0  0  0  0
 23 14  2  0  0  0  0
 24 23  1  0  0  0  0
M  END
