4,23
 OpenBabel05122313053D

 32 34  0  0  0  0  0  0  0  0999 V2000
   -5.3067   -0.1802   -0.4440 F   0  0  0  0  0  0  0  0  0  0  0  0
   -5.3943   -1.4894    1.2975 F   0  0  0  0  0  0  0  0  0  0  0  0
   -5.5907   -2.3322   -0.7025 F   0  0  0  0  0  0  0  0  0  0  0  0
    1.4328   -0.8439   -0.0033 N   0  0  0  0  0  2  0  0  0  0  0  0
    0.7886   -2.0471   -0.0154 C   0  0  0  0  0  0  0  0  0  0  0  0
    1.4979   -3.2751   -0.0178 C   0  0  0  0  0  0  0  0  0  0  0  0
    0.9183   -4.2078   -0.0282 H   0  0  0  0  0  0  0  0  0  0  0  0
    2.8789   -3.3251   -0.0069 C   0  0  0  0  0  0  0  0  0  0  0  0
    4.9998   -2.0125    0.0207 C   0  0  0  0  0  0  0  0  0  0  0  0
    5.5700   -2.9517    0.0196 H   0  0  0  0  0  0  0  0  0  0  0  0
    5.6714   -0.7986    0.0349 C   0  0  0  0  0  0  0  0  0  0  0  0
    6.7713   -0.7736    0.0451 H   0  0  0  0  0  0  0  0  0  0  0  0
    4.9276    0.4041    0.0361 C   0  0  0  0  0  0  0  0  0  0  0  0
    5.4511    1.3724    0.0473 H   0  0  0  0  0  0  0  0  0  0  0  0
    3.5386    0.3883    0.0234 C   0  0  0  0  0  0  0  0  0  0  0  0
    2.9780    1.3315    0.0234 H   0  0  0  0  0  0  0  0  0  0  0  0
    2.8235   -0.8391    0.0088 C   0  0  0  0  0  0  0  0  0  0  0  0
    3.5781   -2.0719    0.0075 C   0  0  0  0  0  0  0  0  0  0  0  0
    3.6100   -4.6374   -0.0096 C   0  0  0  0  0  0  0  0  0  0  0  0
    4.2731   -4.7290   -0.8949 H   0  0  0  0  0  0  0  0  0  0  0  0
    2.9034   -5.4881   -0.0217 H   0  0  0  0  0  0  0  0  0  0  0  0
    4.2575   -4.7413    0.8859 H   0  0  0  0  0  0  0  0  0  0  0  0
   -1.1845   -0.6558   -0.0167 C   0  0  0  0  0  2  0  0  0  0  0  0
   -0.6657   -1.9792   -0.0238 C   0  0  0  0  0  0  0  0  0  0  0  0
   -1.5333   -3.0943   -0.0409 C   0  0  0  0  0  0  0  0  0  0  0  0
   -1.1335   -4.1192   -0.0535 H   0  0  0  0  0  0  0  0  0  0  0  0
   -2.9152   -2.9047   -0.0465 C   0  0  0  0  0  0  0  0  0  0  0  0
   -3.5977   -3.7656   -0.0686 H   0  0  0  0  0  0  0  0  0  0  0  0
   -3.4347   -1.5922   -0.0340 C   0  0  0  0  0  0  0  0  0  0  0  0
   -2.5820   -0.4790   -0.0218 C   0  0  0  0  0  0  0  0  0  0  0  0
   -2.9982    0.5375   -0.0227 H   0  0  0  0  0  0  0  0  0  0  0  0
   -4.9304   -1.3941    0.0235 C   0  0  0  0  0  0  0  0  0  0  0  0
  1 32  1  0  0  0  0
  3 32  1  0  0  0  0
  4 17  1  0  0  0  0
  5  4  1  0  0  0  0
  6  5  1  0  0  0  0
  6  8  2  0  0  0  0
  7  6  1  0  0  0  0
  8 18  1  0  0  0  0
  9 11  1  0  0  0  0
 10  9  1  0  0  0  0
 11 13  2  0  0  0  0
 11 12  1  0  0  0  0
 13 14  1  0  0  0  0
 15 16  1  0  0  0  0
 15 13  1  0  0  0  0
 17 15  2  0  0  0  0
 18 17  1  0  0  0  0
 18  9  2  0  0  0  0
 19  8  1  0  0  0  0
 19 22  1  0  0  0  0
 20 19  1  0  0  0  0
 21 19  1  0  0  0  0
 24 23  1  0  0  0  0
 24  5  2  0  0  0  0
 25 24  1  0  0  0  0
 26 25  1  0  0  0  0
 27 25  2  0  0  0  0
 27 29  1  0  0  0  0
 28 27  1  0  0  0  0
 29 30  2  0  0  0  0
 29 32  1  0  0  0  0
 30 23  1  0  0  0  0
 31 30  1  0  0  0  0
 32  2  1  0  0  0  0
M  END
