2,5
 OpenBabel05122313053D

 21 22  0  0  1  0  0  0  0  0999 V2000
   -1.0548   -0.8713   -0.0467 N   0  0  0  0  0  0  0  0  0  0  0  0
   -0.3282    0.2851    0.0015 N   0  0  0  0  0  2  0  0  0  0  0  0
   -1.1005    1.3279    0.0387 N   0  0  0  0  0  0  0  0  0  0  0  0
    1.3029   -1.0767   -1.7212 C   0  0  0  0  0  3  0  0  0  0  0  0
    1.0884   -1.8490   -0.5291 C   0  0  0  0  0  3  0  0  0  0  0  0
   -0.3163   -2.1244   -0.0362 C   0  0  0  0  0  0  0  0  0  0  0  0
   -2.3852   -0.5577   -0.0292 C   0  0  2  0  0  3  0  0  0  0  0  0
   -3.5671   -1.3213   -0.0561 C   0  0  0  0  0  0  0  0  0  0  0  0
   -4.7653   -0.6026   -0.0286 C   0  0  0  0  0  0  0  0  0  0  0  0
   -4.7925    0.8183    0.0232 C   0  0  0  0  0  0  0  0  0  0  0  0
   -3.6196    1.5731    0.0501 C   0  0  0  0  0  0  0  0  0  0  0  0
   -2.3974    0.8687    0.0252 C   0  0  0  0  0  0  0  0  0  0  0  0
    2.1961   -1.2751   -2.3334 H   0  0  0  0  0  0  0  0  0  0  0  0
    0.4431   -0.6951   -2.2977 H   0  0  0  0  0  0  0  0  0  0  0  0
    1.8095   -2.6356   -0.2557 H   0  0  0  0  0  0  0  0  0  0  0  0
   -0.8691   -2.8427   -0.6837 H   0  0  0  0  0  0  0  0  0  0  0  0
   -0.3079   -2.5330    0.9978 H   0  0  0  0  0  0  0  0  0  0  0  0
   -3.5513   -2.4194   -0.0946 H   0  0  0  0  0  0  0  0  0  0  0  0
   -5.7181   -1.1524   -0.0471 H   0  0  0  0  0  0  0  0  0  0  0  0
   -5.7661    1.3297    0.0424 H   0  0  0  0  0  0  0  0  0  0  0  0
   -3.6281    2.6711    0.0891 H   0  0  0  0  0  0  0  0  0  0  0  0
  1  6  1  0  0  0  0
  1  7  1  0  0  0  0
  1  2  1  0  0  0  0
  2  3  1  0  0  0  0
  4  5  1  0  0  0  0
  5 15  1  0  0  0  0
  5  6  1  0  0  0  0
  6 17  1  0  0  0  0
  7  8  1  6  0  0  0
  7 12  1  0  0  0  0
  8  9  2  0  0  0  0
  9 10  1  0  0  0  0
 10 20  1  0  0  0  0
 10 11  2  0  0  0  0
 11 21  1  0  0  0  0
 12  3  2  0  0  0  0
 12 11  1  0  0  0  0
 13  4  1  0  0  0  0
 14  4  1  0  0  0  0
 16  6  1  0  0  0  0
 18  8  1  0  0  0  0
 19  9  1  0  0  0  0
M  END
