1,3
 OpenBabel05122313053D

 19 19  0  0  1  0  0  0  0  0999 V2000
   -0.3684    1.9177   -0.6351 N   0  0  0  0  0  2  0  0  0  0  0  0
   -2.5273    1.6001    0.1627 N   0  0  0  0  0  0  0  0  0  0  0  0
   -1.4777   -0.6232   -0.1892 C   0  0  0  0  0  3  0  0  0  0  0  0
   -1.7216   -2.0046   -0.3453 C   0  0  0  0  0  0  0  0  0  0  0  0
   -0.8848   -2.6525   -0.6463 H   0  0  0  0  0  0  0  0  0  0  0  0
   -2.9877   -2.5766   -0.1427 C   0  0  0  0  0  0  0  0  0  0  0  0
   -3.1272   -3.6610   -0.2731 H   0  0  0  0  0  0  0  0  0  0  0  0
   -4.0714   -1.7619    0.2204 C   0  0  0  0  0  0  0  0  0  0  0  0
   -5.0688   -2.1923    0.3948 H   0  0  0  0  0  0  0  0  0  0  0  0
   -3.8765   -0.3813    0.3335 C   0  0  0  0  0  0  0  0  0  0  0  0
   -4.7261    0.2779    0.5830 H   0  0  0  0  0  0  0  0  0  0  0  0
   -2.6019    0.1848    0.1074 C   0  0  0  0  0  0  0  0  0  0  0  0
   -1.5381    2.3986   -0.3192 C   0  0  2  0  0  3  0  0  0  0  0  0
   -1.8904    3.8553   -0.4908 C   0  0  0  0  0  0  0  0  0  0  0  0
   -2.4123    4.2451    0.4071 H   0  0  0  0  0  0  0  0  0  0  0  0
   -2.5641    3.9944   -1.3618 H   0  0  0  0  0  0  0  0  0  0  0  0
   -0.9818    4.4642   -0.6511 H   0  0  0  0  0  0  0  0  0  0  0  0
    0.2631    2.6004   -1.0646 H   0  0  0  0  0  0  0  0  0  0  0  0
   -3.4006    2.0689    0.4023 H   0  0  0  0  0  0  0  0  0  0  0  0
  2 19  1  0  0  0  0
  3 12  1  0  0  0  0
  4  3  2  0  0  0  0
  4  6  1  0  0  0  0
  5  4  1  0  0  0  0
  6  8  2  0  0  0  0
  7  6  1  0  0  0  0
  8 10  1  0  0  0  0
  8  9  1  0  0  0  0
 10 11  1  0  0  0  0
 12  2  1  0  0  0  0
 12 10  2  0  0  0  0
 13  1  1  6  0  0  0
 13  2  1  0  0  0  0
 14 13  1  0  0  0  0
 14 15  1  0  0  0  0
 16 14  1  0  0  0  0
 17 14  1  0  0  0  0
 18  1  1  0  0  0  0
M  END
