1,2
 OpenBabel05122313053D

 31 32  0  0  1  0  0  0  0  0999 V2000
   -2.2554   -1.4298    1.9303 N   0  0  0  0  0  0  0  0  0  0  0  0
   -1.9146    0.3354   -0.1069 C   0  0  0  0  0  3  0  0  0  0  0  0
   -1.8640    1.5546   -0.8464 C   0  0  0  0  0  0  0  0  0  0  0  0
   -2.9469    1.9887   -1.5958 C   0  0  0  0  0  0  0  0  0  0  0  0
   -4.1508    1.2299   -1.6535 C   0  0  0  0  0  0  0  0  0  0  0  0
   -5.2659    1.6516   -2.4343 C   0  0  0  0  0  0  0  0  0  0  0  0
   -6.4347    0.9067   -2.4778 C   0  0  0  0  0  0  0  0  0  0  0  0
   -6.5300   -0.2977   -1.7320 C   0  0  0  0  0  0  0  0  0  0  0  0
   -5.4636   -0.7353   -0.9590 C   0  0  0  0  0  0  0  0  0  0  0  0
   -4.2423    0.0055   -0.8894 C   0  0  0  0  0  0  0  0  0  0  0  0
   -3.1105   -0.4032   -0.1098 C   0  0  0  0  0  0  0  0  0  0  0  0
   -3.1218   -1.6731    0.7186 C   0  0  1  0  0  0  0  0  0  0  0  0
   -2.6391   -2.8592   -0.1248 C   0  0  0  0  0  0  0  0  0  0  0  0
   -1.9235   -2.6647    2.6623 C   0  0  0  0  0  0  0  0  0  0  0  0
   -2.9268   -0.4894    2.8550 C   0  0  0  0  0  0  0  0  0  0  0  0
   -0.9611    2.1842   -0.8084 H   0  0  0  0  0  0  0  0  0  0  0  0
   -2.8917    2.9353   -2.1574 H   0  0  0  0  0  0  0  0  0  0  0  0
   -5.1793    2.5882   -3.0078 H   0  0  0  0  0  0  0  0  0  0  0  0
   -7.2867    1.2444   -3.0870 H   0  0  0  0  0  0  0  0  0  0  0  0
   -7.4574   -0.8898   -1.7676 H   0  0  0  0  0  0  0  0  0  0  0  0
   -5.5627   -1.6746   -0.3959 H   0  0  0  0  0  0  0  0  0  0  0  0
   -4.1485   -1.8987    1.0920 H   0  0  0  0  0  0  0  0  0  0  0  0
   -2.7633   -3.8343    0.3846 H   0  0  0  0  0  0  0  0  0  0  0  0
   -1.5716   -2.7205   -0.3945 H   0  0  0  0  0  0  0  0  0  0  0  0
   -3.2249   -2.8883   -1.0635 H   0  0  0  0  0  0  0  0  0  0  0  0
   -1.3348   -3.3461    2.0257 H   0  0  0  0  0  0  0  0  0  0  0  0
   -2.8517   -3.1777    3.0066 H   0  0  0  0  0  0  0  0  0  0  0  0
   -1.2897   -2.4007    3.5280 H   0  0  0  0  0  0  0  0  0  0  0  0
   -3.2087    0.4308    2.3129 H   0  0  0  0  0  0  0  0  0  0  0  0
   -2.2289   -0.2279    3.6721 H   0  0  0  0  0  0  0  0  0  0  0  0
   -3.8417   -0.9553    3.2897 H   0  0  0  0  0  0  0  0  0  0  0  0
  1 14  1  0  0  0  0
  1 15  1  0  0  0  0
  3 16  1  0  0  0  0
  3  2  2  0  0  0  0
  4  3  1  0  0  0  0
  5  4  2  0  0  0  0
  5 10  1  0  0  0  0
  6  5  1  0  0  0  0
  7  6  2  0  0  0  0
  7  8  1  0  0  0  0
  8  9  2  0  0  0  0
  9 10  1  0  0  0  0
  9 21  1  0  0  0  0
 10 11  2  0  0  0  0
 11  2  1  0  0  0  0
 11 12  1  0  0  0  0
 12 22  1  1  0  0  0
 12  1  1  0  0  0  0
 13 23  1  0  0  0  0
 13 12  1  0  0  0  0
 14 27  1  0  0  0  0
 14 28  1  0  0  0  0
 15 31  1  0  0  0  0
 15 30  1  0  0  0  0
 17  4  1  0  0  0  0
 18  6  1  0  0  0  0
 19  7  1  0  0  0  0
 20  8  1  0  0  0  0
 24 13  1  0  0  0  0
 25 13  1  0  0  0  0
 26 14  1  0  0  0  0
 29 15  1  0  0  0  0
M  END
