1,2
 OpenBabel05122313053D

 33 35  0  0  0  0  0  0  0  0999 V2000
    0.7064    1.5032   -0.0321 N   0  0  0  0  0  2  0  0  0  0  0  0
   -0.9544    0.4710   -1.9161 C   0  0  0  0  0  3  0  0  0  0  0  0
   -0.5689    1.4876   -2.1260 H   0  0  0  0  0  0  0  0  0  0  0  0
   -0.9922   -0.1032   -2.8615 H   0  0  0  0  0  0  0  0  0  0  0  0
   -2.2650    0.4581   -1.2157 C   0  0  0  0  0  0  0  0  0  0  0  0
   -3.2508   -0.4362   -1.6673 C   0  0  0  0  0  0  0  0  0  0  0  0
   -3.0116   -1.0658   -2.5384 H   0  0  0  0  0  0  0  0  0  0  0  0
   -4.5201   -0.5457   -1.0599 C   0  0  0  0  0  0  0  0  0  0  0  0
   -5.2547   -1.2656   -1.4521 H   0  0  0  0  0  0  0  0  0  0  0  0
   -4.8444    0.2837   -0.0001 C   0  0  0  0  0  0  0  0  0  0  0  0
   -5.8417    0.2504    0.4637 H   0  0  0  0  0  0  0  0  0  0  0  0
   -3.8919    1.2218    0.4966 C   0  0  0  0  0  0  0  0  0  0  0  0
   -4.2821    2.1083    1.5415 C   0  0  0  0  0  0  0  0  0  0  0  0
   -5.3038    2.0221    1.9429 H   0  0  0  0  0  0  0  0  0  0  0  0
   -3.4151    3.0741    2.0258 C   0  0  0  0  0  0  0  0  0  0  0  0
   -3.7314    3.7748    2.8120 H   0  0  0  0  0  0  0  0  0  0  0  0
   -2.1063    3.1335    1.5124 C   0  0  0  0  0  0  0  0  0  0  0  0
   -1.4035    3.8746    1.9238 H   0  0  0  0  0  0  0  0  0  0  0  0
   -1.6345    2.2348    0.5348 C   0  0  0  0  0  0  0  0  0  0  0  0
   -2.5599    1.2917   -0.0688 C   0  0  0  0  0  0  0  0  0  0  0  0
   -0.1980    2.3891    0.3108 C   0  0  0  0  0  3  0  0  0  0  0  0
    0.1950    3.3937    0.5598 H   0  0  0  0  0  0  0  0  0  0  0  0
    2.0262    1.9828   -0.3138 C   0  0  0  0  0  0  0  0  0  0  0  0
    2.1860    3.1352   -1.1147 C   0  0  0  0  0  0  0  0  0  0  0  0
    1.2999    3.6267   -1.5432 H   0  0  0  0  0  0  0  0  0  0  0  0
    3.4707    3.6182   -1.4009 C   0  0  0  0  0  0  0  0  0  0  0  0
    3.5855    4.5084   -2.0376 H   0  0  0  0  0  0  0  0  0  0  0  0
    4.6011    2.9604   -0.8931 C   0  0  0  0  0  0  0  0  0  0  0  0
    5.6092    3.3381   -1.1207 H   0  0  0  0  0  0  0  0  0  0  0  0
    4.4375    1.8088   -0.1042 C   0  0  0  0  0  0  0  0  0  0  0  0
    5.3181    1.2850    0.2975 H   0  0  0  0  0  0  0  0  0  0  0  0
    3.1608    1.3107    0.1815 C   0  0  0  0  0  0  0  0  0  0  0  0
    3.0204    0.4090    0.7971 H   0  0  0  0  0  0  0  0  0  0  0  0
  1 21  1  0  0  0  0
  2  5  1  0  0  0  0
  3  2  1  0  0  0  0
  4  2  1  0  0  0  0
  5 20  1  0  0  0  0
  6  5  2  0  0  0  0
  6  8  1  0  0  0  0
  7  6  1  0  0  0  0
  8 10  2  0  0  0  0
  9  8  1  0  0  0  0
 10 11  1  0  0  0  0
 10 12  1  0  0  0  0
 12 13  1  0  0  0  0
 13 14  1  0  0  0  0
 13 15  2  0  0  0  0
 15 16  1  0  0  0  0
 17 18  1  0  0  0  0
 17 15  1  0  0  0  0
 19 17  2  0  0  0  0
 20 12  2  0  0  0  0
 20 19  1  0  0  0  0
 21 19  1  0  0  0  0
 21 22  1  0  0  0  0
 23  1  1  0  0  0  0
 23 32  1  0  0  0  0
 24 23  2  0  0  0  0
 25 24  1  0  0  0  0
 26 24  1  0  0  0  0
 26 28  2  0  0  0  0
 27 26  1  0  0  0  0
 28 30  1  0  0  0  0
 29 28  1  0  0  0  0
 30 32  2  0  0  0  0
 30 31  1  0  0  0  0
 32 33  1  0  0  0  0
M  END
