4,7
 OpenBabel05122313053D

 36 37  0  0  0  0  0  0  0  0999 V2000
    2.5702   -2.5658    0.0154 O   0  0  0  0  0  0  0  0  0  0  0  0
   -5.5303   -0.3880    0.1247 O   0  0  0  0  0  0  0  0  0  0  0  0
   -1.9036   -3.6405   -0.0379 O   0  0  0  0  0  0  0  0  0  0  0  0
    0.6554   -0.4091   -0.1266 N   0  0  0  0  0  2  0  0  0  0  0  0
    2.0094   -0.3381   -0.1544 N   0  0  0  0  0  0  0  0  0  0  0  0
    2.3018    0.6613   -0.2218 H   0  0  0  0  0  0  0  0  0  0  0  0
   -1.9261    0.0378   -0.0180 C   0  0  0  0  0  2  0  0  0  0  0  0
   -3.2899    0.3107    0.0399 C   0  0  0  0  0  0  0  0  0  0  0  0
   -3.6896    1.3335    0.0615 H   0  0  0  0  0  0  0  0  0  0  0  0
   -4.2214   -0.7569    0.0710 C   0  0  0  0  0  0  0  0  0  0  0  0
   -3.7957   -2.1016    0.0460 C   0  0  0  0  0  0  0  0  0  0  0  0
   -4.5240   -2.9183    0.0706 H   0  0  0  0  0  0  0  0  0  0  0  0
   -2.4156   -2.3819   -0.0115 C   0  0  0  0  0  0  0  0  0  0  0  0
   -1.4726   -1.3215   -0.0439 C   0  0  0  0  0  0  0  0  0  0  0  0
   -0.0526   -1.5233   -0.0999 C   0  0  0  0  0  0  0  0  0  0  0  0
    0.4532   -2.4983   -0.1127 H   0  0  0  0  0  0  0  0  0  0  0  0
    2.9072   -1.3779   -0.0281 C   0  0  0  0  0  0  0  0  0  0  0  0
    4.3450   -0.9423    0.0405 C   0  0  0  0  0  0  0  0  0  0  0  0
    5.3161   -1.9545   -0.1025 C   0  0  0  0  0  0  0  0  0  0  0  0
    4.9638   -2.9848   -0.2577 H   0  0  0  0  0  0  0  0  0  0  0  0
    6.6794   -1.6431   -0.0422 C   0  0  0  0  0  0  0  0  0  0  0  0
    7.4300   -2.4396   -0.1599 H   0  0  0  0  0  0  0  0  0  0  0  0
    7.0880   -0.3156    0.1701 C   0  0  0  0  0  0  0  0  0  0  0  0
    8.1596   -0.0687    0.2190 H   0  0  0  0  0  0  0  0  0  0  0  0
    6.1262    0.6956    0.3252 C   0  0  0  0  0  0  0  0  0  0  0  0
    6.4406    1.7353    0.5016 H   0  0  0  0  0  0  0  0  0  0  0  0
    4.7592    0.3894    0.2635 C   0  0  0  0  0  0  0  0  0  0  0  0
    4.0273    1.2010    0.4038 H   0  0  0  0  0  0  0  0  0  0  0  0
   -6.5226   -1.3955    0.1574 C   0  0  0  0  0  0  0  0  0  0  0  0
   -6.4943   -2.0358   -0.7528 H   0  0  0  0  0  0  0  0  0  0  0  0
   -7.4973   -0.8749    0.1989 H   0  0  0  0  0  0  0  0  0  0  0  0
   -6.4233   -2.0470    1.0547 H   0  0  0  0  0  0  0  0  0  0  0  0
   -2.7894   -4.7428   -0.0011 C   0  0  0  0  0  0  0  0  0  0  0  0
   -3.3980   -4.7535    0.9308 H   0  0  0  0  0  0  0  0  0  0  0  0
   -2.1588   -5.6504   -0.0289 H   0  0  0  0  0  0  0  0  0  0  0  0
   -3.4753   -4.7519   -0.8777 H   0  0  0  0  0  0  0  0  0  0  0  0
  2 29  1  0  0  0  0
  3 13  1  0  0  0  0
  3 33  1  0  0  0  0
  4 15  1  0  0  0  0
  5  4  1  0  0  0  0
  5 17  1  0  0  0  0
  6  5  1  0  0  0  0
  7  8  1  0  0  0  0
  8  9  1  0  0  0  0
  8 10  2  0  0  0  0
 10  2  1  0  0  0  0
 11 12  1  0  0  0  0
 11 10  1  0  0  0  0
 13 11  2  0  0  0  0
 14  7  1  0  0  0  0
 14 13  1  0  0  0  0
 15 14  2  0  0  0  0
 16 15  1  0  0  0  0
 17  1  2  0  0  0  0
 17 18  1  0  0  0  0
 18 27  1  0  0  0  0
 19 21  1  0  0  0  0
 19 18  2  0  0  0  0
 20 19  1  0  0  0  0
 21 23  2  0  0  0  0
 22 21  1  0  0  0  0
 23 24  1  0  0  0  0
 23 25  1  0  0  0  0
 25 26  1  0  0  0  0
 27 25  2  0  0  0  0
 27 28  1  0  0  0  0
 29 31  1  0  0  0  0
 29 32  1  0  0  0  0
 30 29  1  0  0  0  0
 33 34  1  0  0  0  0
 35 33  1  0  0  0  0
 36 33  1  0  0  0  0
M  END
