16,31
 OpenBabel05122313053D

 44 46  0  0  1  0  0  0  0  0999 V2000
   -1.1614   -2.4457   -1.0050 S   0  0  0  0  0  0  0  0  0  0  0  0
   -2.6787   -2.5387   -0.0895 C   0  0  0  0  0  0  0  0  0  0  0  0
   -3.1438   -1.2935    0.2748 C   0  0  0  0  0  0  0  0  0  0  0  0
   -4.0664   -1.1558    0.8547 H   0  0  0  0  0  0  0  0  0  0  0  0
   -2.2847   -0.2333   -0.1644 C   0  0  0  0  0  0  0  0  0  0  0  0
   -2.2003    1.2081   -0.1428 C   0  0  0  0  0  0  0  0  0  0  0  0
   -3.0254    2.2065    0.4305 C   0  0  0  0  0  0  0  0  0  0  0  0
   -3.9359    1.9229    0.9794 H   0  0  0  0  0  0  0  0  0  0  0  0
   -2.6691    3.5438    0.2811 C   0  0  0  0  0  0  0  0  0  0  0  0
   -3.3042    4.3299    0.7165 H   0  0  0  0  0  0  0  0  0  0  0  0
   -1.4942    3.9122   -0.4303 C   0  0  0  0  0  0  0  0  0  0  0  0
   -1.2418    4.9781   -0.5347 H   0  0  0  0  0  0  0  0  0  0  0  0
   -0.6621    2.9533   -0.9982 C   0  0  0  0  0  0  0  0  0  0  0  0
    0.2383    3.2528   -1.5522 H   0  0  0  0  0  0  0  0  0  0  0  0
   -0.9982    1.5759   -0.8812 C   0  0  0  0  0  0  0  0  0  0  0  0
   -0.2963    0.3746   -1.3295 C   0  0  2  0  0  3  0  0  0  0  0  0
   -1.1556   -0.7007   -0.9045 C   0  0  0  0  0  0  0  0  0  0  0  0
   -3.2750   -3.8795    0.2022 C   0  0  0  0  0  0  0  0  0  0  0  0
   -2.5968   -4.5091    0.8158 H   0  0  0  0  0  0  0  0  0  0  0  0
   -3.4968   -4.4458   -0.7267 H   0  0  0  0  0  0  0  0  0  0  0  0
   -4.2224   -3.7571    0.7615 H   0  0  0  0  0  0  0  0  0  0  0  0
    1.5615    0.1182   -1.4848 Si  0  0  0  0  0  0  0  0  0  0  0  0
    1.9390   -1.4222   -2.5116 C   0  0  0  0  0  0  0  0  0  0  0  0
    3.0288   -1.6241   -2.5512 H   0  0  0  0  0  0  0  0  0  0  0  0
    1.5814   -1.2765   -3.5521 H   0  0  0  0  0  0  0  0  0  0  0  0
    1.4403   -2.3206   -2.0969 H   0  0  0  0  0  0  0  0  0  0  0  0
    2.4539    1.6096   -2.2256 C   0  0  0  0  0  0  0  0  0  0  0  0
    2.4166    2.4781   -1.5391 H   0  0  0  0  0  0  0  0  0  0  0  0
    1.9845    1.8995   -3.1884 H   0  0  0  0  0  0  0  0  0  0  0  0
    3.5196    1.3778   -2.4227 H   0  0  0  0  0  0  0  0  0  0  0  0
    1.8038   -0.0807    0.2656 N   0  0  0  0  0  2  0  0  0  0  0  0
    3.0173   -0.5518    0.9665 C   0  0  0  0  0  0  0  0  0  0  0  0
    2.9893   -2.0931    1.0305 C   0  0  0  0  0  0  0  0  0  0  0  0
    2.0755   -2.4382    1.5533 H   0  0  0  0  0  0  0  0  0  0  0  0
    3.8761   -2.4883    1.5681 H   0  0  0  0  0  0  0  0  0  0  0  0
    2.9807   -2.5282    0.0114 H   0  0  0  0  0  0  0  0  0  0  0  0
    4.2824   -0.0874    0.2180 C   0  0  0  0  0  0  0  0  0  0  0  0
    4.3255   -0.5128   -0.8057 H   0  0  0  0  0  0  0  0  0  0  0  0
    5.1961   -0.4182    0.7521 H   0  0  0  0  0  0  0  0  0  0  0  0
    4.3093    1.0176    0.1391 H   0  0  0  0  0  0  0  0  0  0  0  0
    3.0590    0.0252    2.3940 C   0  0  0  0  0  0  0  0  0  0  0  0
    3.0690    1.1324    2.3681 H   0  0  0  0  0  0  0  0  0  0  0  0
    3.9646   -0.3225    2.9311 H   0  0  0  0  0  0  0  0  0  0  0  0
    2.1760   -0.2970    2.9803 H   0  0  0  0  0  0  0  0  0  0  0  0
  1 17  1  0  0  0  0
  1  2  1  0  0  0  0
  2 18  1  0  0  0  0
  2  3  2  0  0  0  0
  3  4  1  0  0  0  0
  5  6  1  0  0  0  0
  5  3  1  0  0  0  0
  6  7  1  0  0  0  0
  7  8  1  0  0  0  0
  9  7  2  0  0  0  0
  9 10  1  0  0  0  0
 11  9  1  0  0  0  0
 12 11  1  0  0  0  0
 13 15  1  0  0  0  0
 13 11  2  0  0  0  0
 14 13  1  0  0  0  0
 15  6  2  0  0  0  0
 16 22  1  1  0  0  0
 16 17  1  0  0  0  0
 16 15  1  0  0  0  0
 17  5  2  0  0  0  0
 18 21  1  0  0  0  0
 18 19  1  0  0  0  0
 20 18  1  0  0  0  0
 22 31  1  0  0  0  0
 23 26  1  0  0  0  0
 23 22  1  0  0  0  0
 24 23  1  0  0  0  0
 25 23  1  0  0  0  0
 27 28  1  0  0  0  0
 27 22  1  0  0  0  0
 29 27  1  0  0  0  0
 30 27  1  0  0  0  0
 31 32  1  0  0  0  0
 32 33  1  0  0  0  0
 32 41  1  0  0  0  0
 33 34  1  0  0  0  0
 33 35  1  0  0  0  0
 36 33  1  0  0  0  0
 37 39  1  0  0  0  0
 37 32  1  0  0  0  0
 38 37  1  0  0  0  0
 40 37  1  0  0  0  0
 41 43  1  0  0  0  0
 41 44  1  0  0  0  0
 42 41  1  0  0  0  0
M  END
