1,4
 OpenBabel05122313053D

 40 40  0  0  0  0  0  0  0  0999 V2000
    0.3981   -1.8012    0.7975 N   0  0  0  0  0  0  0  0  0  0  0  0
   -0.1070   -2.3532    0.0707 H   0  0  0  0  0  0  0  0  0  0  0  0
   -0.0273   -2.0507    1.7047 H   0  0  0  0  0  0  0  0  0  0  0  0
   -0.6995   -0.1202   -1.4112 C   0  0  0  0  0  3  0  0  0  0  0  0
   -1.0948    0.8499   -1.7683 H   0  0  0  0  0  0  0  0  0  0  0  0
    0.4850   -0.5967   -2.2604 C   0  0  0  0  0  0  0  0  0  0  0  0
    0.5524   -1.6972   -2.1680 H   0  0  0  0  0  0  0  0  0  0  0  0
    0.2599   -0.3958   -3.3319 H   0  0  0  0  0  0  0  0  0  0  0  0
    1.7967    0.0570   -1.9027 C   0  0  0  0  0  0  0  0  0  0  0  0
    2.7308   -0.5684   -1.0352 C   0  0  0  0  0  0  0  0  0  0  0  0
    3.9167    0.1247   -0.7094 C   0  0  0  0  0  0  0  0  0  0  0  0
    4.6523   -0.3631   -0.0506 H   0  0  0  0  0  0  0  0  0  0  0  0
    4.1909    1.4009   -1.2185 C   0  0  0  0  0  0  0  0  0  0  0  0
    5.1254    1.9138   -0.9452 H   0  0  0  0  0  0  0  0  0  0  0  0
    3.2780    2.0046   -2.0961 C   0  0  0  0  0  0  0  0  0  0  0  0
    3.4880    2.9973   -2.5227 H   0  0  0  0  0  0  0  0  0  0  0  0
    2.0979    1.3288   -2.4317 C   0  0  0  0  0  0  0  0  0  0  0  0
    1.3819    1.7927   -3.1295 H   0  0  0  0  0  0  0  0  0  0  0  0
    2.5365   -1.9763   -0.5138 C   0  0  0  0  0  0  0  0  0  0  0  0
    3.5384   -2.4418   -0.4149 H   0  0  0  0  0  0  0  0  0  0  0  0
    1.9934   -2.5912   -1.2605 H   0  0  0  0  0  0  0  0  0  0  0  0
    1.8478   -2.1778    0.8641 C   0  0  0  0  0  0  0  0  0  0  0  0
    2.5413   -1.3552    1.9523 C   0  0  0  0  0  0  0  0  0  0  0  0
    2.5003   -0.2745    1.7211 H   0  0  0  0  0  0  0  0  0  0  0  0
    3.6014   -1.6660    2.0405 H   0  0  0  0  0  0  0  0  0  0  0  0
    2.0469   -1.4944    2.9330 H   0  0  0  0  0  0  0  0  0  0  0  0
    1.9106   -3.6777    1.2119 C   0  0  0  0  0  0  0  0  0  0  0  0
    1.4188   -3.8760    2.1863 H   0  0  0  0  0  0  0  0  0  0  0  0
    2.9614   -4.0204    1.2894 H   0  0  0  0  0  0  0  0  0  0  0  0
    1.4067   -4.2906    0.4363 H   0  0  0  0  0  0  0  0  0  0  0  0
   -1.7750   -1.1319   -1.3008 C   0  0  0  0  0  0  0  0  0  0  0  0
   -1.5994   -2.3503   -1.1648 O   0  0  0  0  0  0  0  0  0  0  0  0
   -3.0272   -0.5929   -1.3437 O   0  0  0  0  0  0  0  0  0  0  0  0
   -4.1189   -1.4967   -1.0849 C   0  0  0  0  0  0  0  0  0  0  0  0
   -4.0795   -1.8071   -0.0171 H   0  0  0  0  0  0  0  0  0  0  0  0
   -3.9803   -2.4155   -1.6912 H   0  0  0  0  0  0  0  0  0  0  0  0
   -5.4113   -0.7779   -1.4149 C   0  0  0  0  0  0  0  0  0  0  0  0
   -5.5366    0.1292   -0.7907 H   0  0  0  0  0  0  0  0  0  0  0  0
   -6.2761   -1.4455   -1.2300 H   0  0  0  0  0  0  0  0  0  0  0  0
   -5.4318   -0.4704   -2.4794 H   0  0  0  0  0  0  0  0  0  0  0  0
  1 22  1  0  0  0  0
  1  3  1  0  0  0  0
  2  1  1  0  0  0  0
  4 31  1  0  0  0  0
  5  4  1  0  0  0  0
  6  7  1  0  0  0  0
  6  9  1  0  0  0  0
  6  4  1  0  0  0  0
  8  6  1  0  0  0  0
  9 10  1  0  0  0  0
 10 11  2  0  0  0  0
 10 19  1  0  0  0  0
 11 12  1  0  0  0  0
 13 14  1  0  0  0  0
 13 11  1  0  0  0  0
 15 13  2  0  0  0  0
 16 15  1  0  0  0  0
 17 15  1  0  0  0  0
 17  9  2  0  0  0  0
 18 17  1  0  0  0  0
 19 20  1  0  0  0  0
 19 22  1  0  0  0  0
 21 19  1  0  0  0  0
 22 27  1  0  0  0  0
 22 23  1  0  0  0  0
 23 25  1  0  0  0  0
 23 26  1  0  0  0  0
 24 23  1  0  0  0  0
 27 29  1  0  0  0  0
 27 28  1  0  0  0  0
 30 27  1  0  0  0  0
 31 32  2  0  0  0  0
 33 31  1  0  0  0  0
 33 34  1  0  0  0  0
 34 35  1  0  0  0  0
 36 34  1  0  0  0  0
 37 39  1  0  0  0  0
 37 34  1  0  0  0  0
 37 38  1  0  0  0  0
 40 37  1  0  0  0  0
M  END
