1,2
 OpenBabel05122313053D

 14 14  0  0  1  0  0  0  0  0999 V2000
   -0.6018    1.8338    0.3453 N   0  0  0  0  0  2  0  0  0  0  0  0
   -0.3215    0.6322   -2.0075 C   0  0  0  0  0  3  0  0  0  0  0  0
   -0.2351    0.0910   -2.9694 H   0  0  0  0  0  0  0  0  0  0  0  0
   -0.5161    1.9885   -2.0291 C   0  0  0  0  0  0  0  0  0  0  0  0
   -0.5795    2.5805   -2.9559 H   0  0  0  0  0  0  0  0  0  0  0  0
   -0.6684    2.6600   -0.7541 C   0  0  1  0  0  3  0  0  0  0  0  0
   -0.9005    4.0442   -0.5866 C   0  0  0  0  0  0  0  0  0  0  0  0
   -0.9374    4.6894   -1.4760 H   0  0  0  0  0  0  0  0  0  0  0  0
   -1.0868    4.5686    0.6941 C   0  0  0  0  0  0  0  0  0  0  0  0
   -1.2661    5.6451    0.8335 H   0  0  0  0  0  0  0  0  0  0  0  0
   -1.0526    3.7013    1.8020 C   0  0  0  0  0  0  0  0  0  0  0  0
   -1.2078    4.0689    2.8256 H   0  0  0  0  0  0  0  0  0  0  0  0
   -0.8091    2.3438    1.5757 C   0  0  0  0  0  0  0  0  0  0  0  0
   -0.7704    1.6255    2.4085 H   0  0  0  0  0  0  0  0  0  0  0  0
  1 13  1  0  0  0  0
  3  2  1  0  0  0  0
  4  2  2  0  0  0  0
  5  4  1  0  0  0  0
  6  4  1  6  0  0  0
  6  7  1  0  0  0  0
  6  1  1  0  0  0  0
  7  9  2  0  0  0  0
  8  7  1  0  0  0  0
  9 10  1  0  0  0  0
  9 11  1  0  0  0  0
 11 12  1  0  0  0  0
 13 11  2  0  0  0  0
 13 14  1  0  0  0  0
M  END
