2
 OpenBabel05122313053D

 41 41  0  0  1  0  0  0  0  0999 V2000
   -0.0006    2.4192    1.3297 Si  0  0  0  0  0  0  0  0  0  0  0  0
   -0.0000    1.7872   -0.3323 N   0  0  0  0  0  2  0  0  0  0  0  0
   -0.0004    0.6941    2.1116 C   0  0  1  0  0  3  0  0  0  0  0  0
   -1.1649   -0.1667    2.0830 C   0  0  0  0  0  0  0  0  0  0  0  0
   -0.7205   -1.5249    2.0139 C   0  0  0  0  0  0  0  0  0  0  0  0
    0.7208   -1.5246    2.0139 C   0  0  0  0  0  0  0  0  0  0  0  0
    1.1645   -0.1662    2.0831 C   0  0  0  0  0  0  0  0  0  0  0  0
   -2.6058    0.2712    2.0770 C   0  0  0  0  0  0  0  0  0  0  0  0
   -3.2893   -0.5969    2.1180 H   0  0  0  0  0  0  0  0  0  0  0  0
   -2.8787    0.8372    1.1618 H   0  0  0  0  0  0  0  0  0  0  0  0
   -2.8255    0.9251    2.9444 H   0  0  0  0  0  0  0  0  0  0  0  0
   -1.5722   -2.7580    2.0728 C   0  0  0  0  0  0  0  0  0  0  0  0
   -1.6201   -3.1548    3.1102 H   0  0  0  0  0  0  0  0  0  0  0  0
   -1.1662   -3.5721    1.4387 H   0  0  0  0  0  0  0  0  0  0  0  0
   -2.6080   -2.5618    1.7392 H   0  0  0  0  0  0  0  0  0  0  0  0
    1.5730   -2.7574    2.0728 C   0  0  0  0  0  0  0  0  0  0  0  0
    2.6087   -2.5608    1.7391 H   0  0  0  0  0  0  0  0  0  0  0  0
    1.1673   -3.5716    1.4387 H   0  0  0  0  0  0  0  0  0  0  0  0
    1.6212   -3.1541    3.1102 H   0  0  0  0  0  0  0  0  0  0  0  0
    2.6053    0.2724    2.0770 C   0  0  0  0  0  0  0  0  0  0  0  0
    2.8248    0.9262    2.9446 H   0  0  0  0  0  0  0  0  0  0  0  0
    2.8779    0.8387    1.1620 H   0  0  0  0  0  0  0  0  0  0  0  0
    3.2892   -0.5954    2.1178 H   0  0  0  0  0  0  0  0  0  0  0  0
   -1.5185    3.4519    1.7967 C   0  0  0  0  0  0  0  0  0  0  0  0
   -1.3924    4.4990    1.4528 H   0  0  0  0  0  0  0  0  0  0  0  0
   -1.6309    3.4739    2.9011 H   0  0  0  0  0  0  0  0  0  0  0  0
   -2.4561    3.0582    1.3622 H   0  0  0  0  0  0  0  0  0  0  0  0
    1.5163    3.4528    1.7976 C   0  0  0  0  0  0  0  0  0  0  0  0
    2.4546    3.0595    1.3641 H   0  0  0  0  0  0  0  0  0  0  0  0
    1.6277    3.4752    2.9021 H   0  0  0  0  0  0  0  0  0  0  0  0
    1.3900    4.4998    1.4535 H   0  0  0  0  0  0  0  0  0  0  0  0
    0.0002    2.5623   -1.5792 C   0  0  0  0  0  0  0  0  0  0  0  0
    0.0005    1.8363   -2.4247 H   0  0  0  0  0  0  0  0  0  0  0  0
    1.2647    3.4224   -1.7264 C   0  0  0  0  0  0  0  0  0  0  0  0
    1.2879    4.2305   -0.9667 H   0  0  0  0  0  0  0  0  0  0  0  0
    1.3064    3.8998   -2.7270 H   0  0  0  0  0  0  0  0  0  0  0  0
    2.1783    2.8099   -1.5923 H   0  0  0  0  0  0  0  0  0  0  0  0
   -1.2643    3.4222   -1.7271 C   0  0  0  0  0  0  0  0  0  0  0  0
   -2.1779    2.8095   -1.5935 H   0  0  0  0  0  0  0  0  0  0  0  0
   -1.3055    3.8996   -2.7277 H   0  0  0  0  0  0  0  0  0  0  0  0
   -1.2880    4.2303   -0.9673 H   0  0  0  0  0  0  0  0  0  0  0  0
  1 24  1  0  0  0  0
  1 28  1  0  0  0  0
  2  1  1  0  0  0  0
  3  1  1  6  0  0  0
  4  3  1  0  0  0  0
  5  6  1  0  0  0  0
  5 12  1  0  0  0  0
  5  4  2  0  0  0  0
  6 16  1  0  0  0  0
  6  7  2  0  0  0  0
  7  3  1  0  0  0  0
  8  4  1  0  0  0  0
  8  9  1  0  0  0  0
  8 11  1  0  0  0  0
 10  8  1  0  0  0  0
 12 13  1  0  0  0  0
 14 12  1  0  0  0  0
 15 12  1  0  0  0  0
 16 19  1  0  0  0  0
 17 16  1  0  0  0  0
 18 16  1  0  0  0  0
 20  7  1  0  0  0  0
 20 23  1  0  0  0  0
 20 21  1  0  0  0  0
 22 20  1  0  0  0  0
 24 26  1  0  0  0  0
 25 24  1  0  0  0  0
 27 24  1  0  0  0  0
 28 30  1  0  0  0  0
 29 28  1  0  0  0  0
 31 28  1  0  0  0  0
 32  2  1  0  0  0  0
 33 32  1  0  0  0  0
 34 37  1  0  0  0  0
 34 32  1  0  0  0  0
 34 35  1  0  0  0  0
 36 34  1  0  0  0  0
 38 39  1  0  0  0  0
 38 32  1  0  0  0  0
 38 41  1  0  0  0  0
 40 38  1  0  0  0  0
M  END
