4,5
 OpenBabel05122313053D

 27 28  0  0  0  0  0  0  0  0999 V2000
   -2.3639   -3.8810   -0.0489 F   0  0  0  0  0  0  0  0  0  0  0  0
   -5.0009   -4.0091   -0.1680 F   0  0  0  0  0  0  0  0  0  0  0  0
   -6.5551   -1.7796   -0.1104 F   0  0  0  0  0  0  0  0  0  0  0  0
   -1.2442    0.9949    0.1811 N   0  0  0  0  0  2  0  0  0  0  0  0
   -2.3488   -1.4787    0.1399 C   0  0  0  0  0  2  0  0  0  0  0  0
   -3.0154   -2.7048    0.0136 C   0  0  0  0  0  0  0  0  0  0  0  0
   -4.4222   -2.8071   -0.0642 C   0  0  0  0  0  0  0  0  0  0  0  0
   -5.2199   -1.6499   -0.0359 C   0  0  0  0  0  0  0  0  0  0  0  0
   -4.6162   -0.3995    0.0582 C   0  0  0  0  0  0  0  0  0  0  0  0
   -3.2070   -0.3292    0.1353 C   0  0  0  0  0  0  0  0  0  0  0  0
   -2.5461    0.9577    0.1860 C   0  0  0  0  0  0  0  0  0  0  0  0
   -0.5305    2.2717    0.3154 C   0  0  0  0  0  0  0  0  0  0  0  0
   -2.7014    5.3624    0.9585 C   0  0  0  0  0  0  0  0  0  0  0  0
   -2.9371    5.8138   -0.3494 C   0  0  0  0  0  0  0  0  0  0  0  0
   -2.3789    5.1223   -1.4375 C   0  0  0  0  0  0  0  0  0  0  0  0
   -2.5555    5.4766   -2.4646 H   0  0  0  0  0  0  0  0  0  0  0  0
   -1.5915    3.9836   -1.2164 C   0  0  0  0  0  0  0  0  0  0  0  0
   -1.3495    3.5196    0.0929 C   0  0  0  0  0  0  0  0  0  0  0  0
   -1.9128    4.2218    1.1763 C   0  0  0  0  0  0  0  0  0  0  0  0
   -5.2434    0.5039    0.0616 H   0  0  0  0  0  0  0  0  0  0  0  0
   -0.0714    2.2842    1.3263 H   0  0  0  0  0  0  0  0  0  0  0  0
   -3.1435    1.8885    0.2296 H   0  0  0  0  0  0  0  0  0  0  0  0
    0.3188    2.2514   -0.3966 H   0  0  0  0  0  0  0  0  0  0  0  0
   -1.1498    3.4424   -2.0687 H   0  0  0  0  0  0  0  0  0  0  0  0
   -3.5540    6.7087   -0.5220 H   0  0  0  0  0  0  0  0  0  0  0  0
   -3.1324    5.9030    1.8149 H   0  0  0  0  0  0  0  0  0  0  0  0
   -1.7254    3.8676    2.2026 H   0  0  0  0  0  0  0  0  0  0  0  0
  1  6  1  0  0  0  0
  2  7  1  0  0  0  0
  3  8  1  0  0  0  0
  4 11  1  0  0  0  0
  4 12  1  0  0  0  0
  6  5  1  0  0  0  0
  7  8  1  0  0  0  0
  7  6  2  0  0  0  0
  8  9  2  0  0  0  0
  9 20  1  0  0  0  0
  9 10  1  0  0  0  0
 10  5  1  0  0  0  0
 10 11  2  0  0  0  0
 11 22  1  0  0  0  0
 12 21  1  0  0  0  0
 13 19  1  0  0  0  0
 13 26  1  0  0  0  0
 14 13  2  0  0  0  0
 15 17  2  0  0  0  0
 15 14  1  0  0  0  0
 16 15  1  0  0  0  0
 17 18  1  0  0  0  0
 18 12  1  0  0  0  0
 18 19  2  0  0  0  0
 19 27  1  0  0  0  0
 23 12  1  0  0  0  0
 24 17  1  0  0  0  0
 25 14  1  0  0  0  0
M  END
