1,4
 OpenBabel05122313053D

 29 30  0  0  1  0  0  0  0  0999 V2000
    0.0841   -1.1868    0.7371 N   0  0  0  0  0  2  0  0  0  0  0  0
    1.6032   -0.4556   -0.9717 C   0  0  1  0  0  0  0  0  0  0  0  0
    2.0506   -1.0013   -1.8336 H   0  0  0  0  0  0  0  0  0  0  0  0
    0.4409    0.5775   -1.3655 C   0  0  0  0  0  3  0  0  0  0  0  0
    0.1268    0.5280   -2.4294 H   0  0  0  0  0  0  0  0  0  0  0  0
    1.4268    1.6632   -1.0490 C   0  0  0  0  0  0  0  0  0  0  0  0
    1.6384    3.0487   -1.0681 C   0  0  0  0  0  0  0  0  0  0  0  0
    0.8991    3.7625   -1.4660 H   0  0  0  0  0  0  0  0  0  0  0  0
    2.8716    3.5084   -0.5560 C   0  0  0  0  0  0  0  0  0  0  0  0
    3.0787    4.5901   -0.5406 H   0  0  0  0  0  0  0  0  0  0  0  0
    3.8509    2.6213   -0.0671 C   0  0  0  0  0  0  0  0  0  0  0  0
    4.7962    3.0278    0.3243 H   0  0  0  0  0  0  0  0  0  0  0  0
    3.6527    1.2206   -0.0896 C   0  0  0  0  0  0  0  0  0  0  0  0
    4.4412    0.5394    0.2634 H   0  0  0  0  0  0  0  0  0  0  0  0
    2.4324    0.7795   -0.5989 C   0  0  0  0  0  0  0  0  0  0  0  0
    1.1990   -1.4130    0.1525 C   0  0  0  0  0  0  0  0  0  0  0  0
    2.0889   -2.6286    0.4797 C   0  0  0  0  0  0  0  0  0  0  0  0
    3.5800   -2.2448    0.4993 C   0  0  0  0  0  0  0  0  0  0  0  0
    3.7884   -1.4955    1.2888 H   0  0  0  0  0  0  0  0  0  0  0  0
    3.9165   -1.8255   -0.4697 H   0  0  0  0  0  0  0  0  0  0  0  0
    4.1996   -3.1408    0.7102 H   0  0  0  0  0  0  0  0  0  0  0  0
    1.8382   -3.6743   -0.6333 C   0  0  0  0  0  0  0  0  0  0  0  0
    2.4449   -4.5846   -0.4454 H   0  0  0  0  0  0  0  0  0  0  0  0
    2.1156   -3.2869   -1.6346 H   0  0  0  0  0  0  0  0  0  0  0  0
    0.7708   -3.9740   -0.6623 H   0  0  0  0  0  0  0  0  0  0  0  0
    1.6864   -3.2234    1.8371 C   0  0  0  0  0  0  0  0  0  0  0  0
    2.2895   -4.1280    2.0570 H   0  0  0  0  0  0  0  0  0  0  0  0
    0.6140   -3.4971    1.8464 H   0  0  0  0  0  0  0  0  0  0  0  0
    1.8456   -2.4899    2.6527 H   0  0  0  0  0  0  0  0  0  0  0  0
  2  3  1  6  0  0  0
  2 15  1  0  0  0  0
  2 16  1  0  0  0  0
  4  6  1  0  0  0  0
  4  2  1  0  0  0  0
  5  4  1  0  0  0  0
  6 15  1  0  0  0  0
  7  6  2  0  0  0  0
  7  9  1  0  0  0  0
  8  7  1  0  0  0  0
  9 10  1  0  0  0  0
  9 11  2  0  0  0  0
 11 12  1  0  0  0  0
 13 11  1  0  0  0  0
 13 14  1  0  0  0  0
 15 13  2  0  0  0  0
 16 17  1  0  0  0  0
 16  1  2  0  0  0  0
 17 18  1  0  0  0  0
 17 26  1  0  0  0  0
 18 21  1  0  0  0  0
 18 19  1  0  0  0  0
 20 18  1  0  0  0  0
 22 23  1  0  0  0  0
 22 17  1  0  0  0  0
 24 22  1  0  0  0  0
 25 22  1  0  0  0  0
 26 28  1  0  0  0  0
 26 27  1  0  0  0  0
 26 29  1  0  0  0  0
M  END
