1,2
 OpenBabel05122313053D

 26 28  0  0  1  0  0  0  0  0999 V2000
   -2.4870   -0.6386   -0.7902 N   0  0  0  0  0  2  0  0  0  0  0  0
   -0.9421    0.0404   -2.7809 C   0  0  0  0  0  3  0  0  0  0  0  0
   -4.4623   -1.8692   -1.9541 S   0  0  0  0  0  0  0  0  0  0  0  0
   -5.0943   -0.5040    4.5660 F   0  0  0  0  0  0  0  0  0  0  0  0
   -2.9793   -0.0484    4.2466 F   0  0  0  0  0  0  0  0  0  0  0  0
   -3.6158   -2.1031    4.6185 F   0  0  0  0  0  0  0  0  0  0  0  0
   -0.0726    0.4087   -3.8301 C   0  0  0  0  0  0  0  0  0  0  0  0
    0.8362    0.9862   -3.6030 H   0  0  0  0  0  0  0  0  0  0  0  0
   -0.3562    0.0547   -5.1574 C   0  0  0  0  0  0  0  0  0  0  0  0
    0.3393    0.3548   -5.9570 H   0  0  0  0  0  0  0  0  0  0  0  0
   -1.5188   -0.6747   -5.4897 C   0  0  0  0  0  0  0  0  0  0  0  0
   -1.7244   -0.9409   -6.5366 H   0  0  0  0  0  0  0  0  0  0  0  0
   -2.4055   -1.0539   -4.4812 C   0  0  0  0  0  0  0  0  0  0  0  0
   -3.3173   -1.6236   -4.7227 H   0  0  0  0  0  0  0  0  0  0  0  0
   -2.1199   -0.6997   -3.1424 C   0  0  0  0  0  0  0  0  0  0  0  0
   -2.9292   -1.0268   -1.9985 C   0  0  1  0  0  3  0  0  0  0  0  0
   -4.5027   -1.6891   -0.2073 C   0  0  0  0  0  0  0  0  0  0  0  0
   -5.4855   -2.1217    0.6964 C   0  0  0  0  0  0  0  0  0  0  0  0
   -6.3834   -2.6513    0.3480 H   0  0  0  0  0  0  0  0  0  0  0  0
   -5.2951   -1.8560    2.0561 C   0  0  0  0  0  0  0  0  0  0  0  0
   -6.0533   -2.1749    2.7854 H   0  0  0  0  0  0  0  0  0  0  0  0
   -4.1391   -1.1744    2.5051 C   0  0  0  0  0  0  0  0  0  0  0  0
   -3.1573   -0.7409    1.6098 C   0  0  0  0  0  0  0  0  0  0  0  0
   -2.2537   -0.2156    1.9440 H   0  0  0  0  0  0  0  0  0  0  0  0
   -3.3428   -0.9972    0.2405 C   0  0  0  0  0  0  0  0  0  0  0  0
   -3.9521   -0.9500    3.9892 C   0  0  0  0  0  0  0  0  0  0  0  0
  1 25  1  0  0  0  0
  3 17  1  0  0  0  0
  7  8  1  0  0  0  0
  7  2  2  0  0  0  0
  9  7  1  0  0  0  0
 10  9  1  0  0  0  0
 11  9  2  0  0  0  0
 11 13  1  0  0  0  0
 12 11  1  0  0  0  0
 13 15  2  0  0  0  0
 14 13  1  0  0  0  0
 15  2  1  0  0  0  0
 16 15  1  6  0  0  0
 16  3  1  0  0  0  0
 16  1  1  0  0  0  0
 17 25  2  0  0  0  0
 17 18  1  0  0  0  0
 18 20  2  0  0  0  0
 19 18  1  0  0  0  0
 20 22  1  0  0  0  0
 20 21  1  0  0  0  0
 22 26  1  0  0  0  0
 23 24  1  0  0  0  0
 23 22  2  0  0  0  0
 25 23  1  0  0  0  0
 26  5  1  0  0  0  0
 26  4  1  0  0  0  0
 26  6  1  0  0  0  0
M  END
