2,3
 OpenBabel05122313053D

 37 39  0  0  1  0  0  0  0  0999 V2000
   -2.1780    0.3865   -1.3250 Se  0  0  0  0  0  0  0  0  0  0  0  0
    0.4026    1.5864    0.0774 N   0  0  0  0  0  2  0  0  0  0  0  0
    1.9643   -0.8550    0.1210 C   0  0  0  0  0  3  0  0  0  0  0  0
    3.0232    0.0915    0.3137 C   0  0  2  0  0  3  0  0  0  0  0  0
   -4.2395    0.9347    0.6839 C   0  0  0  0  0  0  0  0  0  0  0  0
   -4.4383    1.8591    0.1206 H   0  0  0  0  0  0  0  0  0  0  0  0
   -1.7385    2.2846   -0.9694 C   0  0  0  0  0  0  0  0  0  0  0  0
   -1.2518    2.6315   -1.9028 H   0  0  0  0  0  0  0  0  0  0  0  0
   -2.6678    2.8668   -0.8215 H   0  0  0  0  0  0  0  0  0  0  0  0
   -3.0167   -1.1643    0.9670 C   0  0  0  0  0  0  0  0  0  0  0  0
   -2.2365   -1.8614    0.6173 H   0  0  0  0  0  0  0  0  0  0  0  0
    4.3707   -0.3945    0.5603 C   0  0  0  0  0  0  0  0  0  0  0  0
    2.2497   -2.2157    0.2903 C   0  0  0  0  0  0  0  0  0  0  0  0
    1.4402   -2.9468    0.1527 H   0  0  0  0  0  0  0  0  0  0  0  0
   -4.7842   -0.5527    2.5325 C   0  0  0  0  0  0  0  0  0  0  0  0
   -5.3871   -0.7821    3.4240 H   0  0  0  0  0  0  0  0  0  0  0  0
    1.5536    2.1656    0.2695 C   0  0  0  0  0  0  0  0  0  0  0  0
    1.5503    3.2596    0.4535 H   0  0  0  0  0  0  0  0  0  0  0  0
   -5.0030    0.6399    1.8248 C   0  0  0  0  0  0  0  0  0  0  0  0
   -5.7811    1.3453    2.1540 H   0  0  0  0  0  0  0  0  0  0  0  0
   -0.8087    2.4032    0.2278 C   0  0  0  0  0  0  0  0  0  0  0  0
   -1.3450    2.0603    1.1399 H   0  0  0  0  0  0  0  0  0  0  0  0
   -0.5303    3.4701    0.3877 H   0  0  0  0  0  0  0  0  0  0  0  0
    5.2522    1.8974    0.6420 C   0  0  0  0  0  0  0  0  0  0  0  0
    6.0974    2.5924    0.7515 H   0  0  0  0  0  0  0  0  0  0  0  0
   -3.7991   -1.4529    2.0963 C   0  0  0  0  0  0  0  0  0  0  0  0
   -3.6260   -2.3920    2.6435 H   0  0  0  0  0  0  0  0  0  0  0  0
    5.4509    0.5240    0.6944 C   0  0  0  0  0  0  0  0  0  0  0  0
    6.4611    0.1154    0.8564 H   0  0  0  0  0  0  0  0  0  0  0  0
    2.8459    1.5264    0.3197 C   0  0  0  0  0  0  0  0  0  0  0  0
    3.9443    2.3902    0.4810 C   0  0  0  0  0  0  0  0  0  0  0  0
    3.7653    3.4770    0.4939 H   0  0  0  0  0  0  0  0  0  0  0  0
   -3.2387    0.0377    0.2706 C   0  0  0  0  0  0  0  0  0  0  0  0
    4.6094   -1.7916    0.6831 C   0  0  0  0  0  0  0  0  0  0  0  0
    5.6365   -2.1400    0.8723 H   0  0  0  0  0  0  0  0  0  0  0  0
    3.5559   -2.6829    0.5772 C   0  0  0  0  0  0  0  0  0  0  0  0
    3.7270   -3.7648    0.6911 H   0  0  0  0  0  0  0  0  0  0  0  0
  1  7  1  0  0  0  0
  1 33  1  0  0  0  0
  2 21  1  0  0  0  0
  2 17  1  0  0  0  0
  3 13  2  0  0  0  0
  4  3  1  1  0  0  0
  4 30  1  0  0  0  0
  4 12  1  0  0  0  0
  5 19  1  0  0  0  0
  6  5  1  0  0  0  0
  7  9  1  0  0  0  0
  7 21  1  0  0  0  0
  8  7  1  0  0  0  0
 10 26  2  0  0  0  0
 11 10  1  0  0  0  0
 12 34  1  0  0  0  0
 12 28  2  0  0  0  0
 13 36  1  0  0  0  0
 14 13  1  0  0  0  0
 15 16  1  0  0  0  0
 17 30  2  0  0  0  0
 17 18  1  0  0  0  0
 19 20  1  0  0  0  0
 19 15  2  0  0  0  0
 21 23  1  0  0  0  0
 21 22  1  0  0  0  0
 24 28  1  0  0  0  0
 24 25  1  0  0  0  0
 26 15  1  0  0  0  0
 26 27  1  0  0  0  0
 28 29  1  0  0  0  0
 30 31  1  0  0  0  0
 31 32  1  0  0  0  0
 31 24  2  0  0  0  0
 33  5  2  0  0  0  0
 33 10  1  0  0  0  0
 34 35  1  0  0  0  0
 36 34  2  0  0  0  0
 36 37  1  0  0  0  0
M  END
