1,8
 OpenBabel05122313053D

 24 23  0  0  0  0  0  0  0  0999 V2000
    3.2005   -1.0068   -0.2389 N   0  0  0  0  0  0  0  0  0  0  0  0
    3.1915    1.4733   -0.0387 N   0  3  0  0  0  0  0  0  0  0  0  0
    3.3175   -1.9496   -1.3905 C   0  0  0  0  0  0  0  0  0  0  0  0
    3.6744   -1.6969    0.9920 C   0  0  0  0  0  0  0  0  0  0  0  0
    3.9256    0.2383   -0.5206 C   0  0  0  0  0  0  0  0  0  0  0  0
    3.1717    1.5772    1.4579 C   0  0  0  0  0  0  0  0  0  0  0  0
    3.8846    2.6794   -0.5998 C   0  0  0  0  0  0  0  0  0  0  0  0
    1.7344    1.3784   -0.5516 C   0  0  0  0  0  3  0  0  0  0  0  0
    4.3761   -2.2527   -1.5444 H   0  0  0  0  0  0  0  0  0  0  0  0
    2.9178   -1.4706   -2.3031 H   0  0  0  0  0  0  0  0  0  0  0  0
    2.6962   -2.8344   -1.1571 H   0  0  0  0  0  0  0  0  0  0  0  0
    3.6303   -1.0203    1.8616 H   0  0  0  0  0  0  0  0  0  0  0  0
    4.7169   -2.0571    0.8532 H   0  0  0  0  0  0  0  0  0  0  0  0
    2.9931   -2.5484    1.1791 H   0  0  0  0  0  0  0  0  0  0  0  0
    4.0134    0.3618   -1.6155 H   0  0  0  0  0  0  0  0  0  0  0  0
    4.9415    0.2452   -0.0722 H   0  0  0  0  0  0  0  0  0  0  0  0
    2.7254    2.5510    1.7270 H   0  0  0  0  0  0  0  0  0  0  0  0
    4.2023    1.5093    1.8523 H   0  0  0  0  0  0  0  0  0  0  0  0
    2.5251    0.7705    1.8487 H   0  0  0  0  0  0  0  0  0  0  0  0
    3.3114    3.5749   -0.3014 H   0  0  0  0  0  0  0  0  0  0  0  0
    3.9047    2.6059   -1.7018 H   0  0  0  0  0  0  0  0  0  0  0  0
    4.9156    2.7431   -0.2038 H   0  0  0  0  0  0  0  0  0  0  0  0
    1.2094    2.2395   -0.0937 H   0  0  0  0  0  0  0  0  0  0  0  0
    1.7995    1.5604   -1.6468 H   0  0  0  0  0  0  0  0  0  0  0  0
  1  4  1  0  0  0  0
  2  6  1  0  0  0  0
  3 11  1  0  0  0  0
  3  1  1  0  0  0  0
  4 14  1  0  0  0  0
  4 12  1  0  0  0  0
  5  1  1  0  0  0  0
  5 16  1  0  0  0  0
  5  2  1  0  0  0  0
  6 17  1  0  0  0  0
  6 19  1  0  0  0  0
  6 18  1  0  0  0  0
  7 20  1  0  0  0  0
  7 22  1  0  0  0  0
  7  2  1  0  0  0  0
  8 23  1  0  0  0  0
  8  2  1  0  0  0  0
  9  3  1  0  0  0  0
 10  3  1  0  0  0  0
 13  4  1  0  0  0  0
 15  5  1  0  0  0  0
 21  7  1  0  0  0  0
 24  8  1  0  0  0  0
M  CHG  1   2   1
M  END
