1
 OpenBabel05122313053D

 42 43  0  0  1  0  0  0  0  0999 V2000
    0.3366    0.9248   -0.4075 N   0  0  0  0  0  2  0  0  0  0  0  0
    0.6000   -0.3024    1.5484 C   0  0  1  0  0  3  0  0  0  0  0  0
   -0.4986    0.0756    2.4019 C   0  0  0  0  0  0  0  0  0  0  0  0
   -1.3594   -1.0495    2.5086 C   0  0  0  0  0  0  0  0  0  0  0  0
   -2.2865   -1.0935    3.0950 H   0  0  0  0  0  0  0  0  0  0  0  0
   -0.7748   -2.1354    1.7821 C   0  0  0  0  0  0  0  0  0  0  0  0
   -1.1684   -3.1591    1.7244 H   0  0  0  0  0  0  0  0  0  0  0  0
    0.4624   -1.6991    1.2191 C   0  0  0  0  0  0  0  0  0  0  0  0
   -0.6926    1.4200    3.0453 C   0  0  0  0  0  0  0  0  0  0  0  0
    0.2060    1.7063    3.6302 H   0  0  0  0  0  0  0  0  0  0  0  0
   -1.5504    1.4012    3.7448 H   0  0  0  0  0  0  0  0  0  0  0  0
   -0.8737    2.2340    2.3146 H   0  0  0  0  0  0  0  0  0  0  0  0
    1.3852   -2.5761    0.4171 C   0  0  0  0  0  0  0  0  0  0  0  0
    1.4937   -2.2552   -0.6358 H   0  0  0  0  0  0  0  0  0  0  0  0
    1.0067   -3.6169    0.4142 H   0  0  0  0  0  0  0  0  0  0  0  0
    2.4059   -2.5756    0.8497 H   0  0  0  0  0  0  0  0  0  0  0  0
    1.3070    0.7458    0.6761 C   0  0  1  0  0  0  0  0  0  0  0  0
    1.4136    1.6765    1.2871 H   0  0  0  0  0  0  0  0  0  0  0  0
    2.7213    0.3221    0.2798 C   0  0  0  0  0  0  0  0  0  0  0  0
    3.7383    0.3397    1.2535 C   0  0  0  0  0  0  0  0  0  0  0  0
    3.5032    0.6925    2.2713 H   0  0  0  0  0  0  0  0  0  0  0  0
    5.0361   -0.0940    0.9462 C   0  0  0  0  0  0  0  0  0  0  0  0
    5.8188   -0.0743    1.7202 H   0  0  0  0  0  0  0  0  0  0  0  0
    5.3377   -0.5503   -0.3482 C   0  0  0  0  0  0  0  0  0  0  0  0
    6.3560   -0.8887   -0.5931 H   0  0  0  0  0  0  0  0  0  0  0  0
    4.3311   -0.5676   -1.3261 C   0  0  0  0  0  0  0  0  0  0  0  0
    4.5571   -0.9230   -2.3435 H   0  0  0  0  0  0  0  0  0  0  0  0
    3.0338   -0.1356   -1.0107 C   0  0  0  0  0  0  0  0  0  0  0  0
    2.2324   -0.1558   -1.7639 H   0  0  0  0  0  0  0  0  0  0  0  0
    0.2560    2.2268   -1.1117 C   0  0  0  0  0  0  0  0  0  0  0  0
   -0.4322    3.2829   -0.2152 C   0  0  0  0  0  0  0  0  0  0  0  0
   -1.4448    2.9321    0.0705 H   0  0  0  0  0  0  0  0  0  0  0  0
   -0.5310    4.2553   -0.7400 H   0  0  0  0  0  0  0  0  0  0  0  0
    0.1531    3.4661    0.7090 H   0  0  0  0  0  0  0  0  0  0  0  0
   -0.6066    2.0078   -2.3667 C   0  0  0  0  0  0  0  0  0  0  0  0
   -0.1326    1.2723   -3.0461 H   0  0  0  0  0  0  0  0  0  0  0  0
   -0.7526    2.9559   -2.9222 H   0  0  0  0  0  0  0  0  0  0  0  0
   -1.6129    1.6277   -2.0917 H   0  0  0  0  0  0  0  0  0  0  0  0
    1.6349    2.7684   -1.5387 C   0  0  0  0  0  0  0  0  0  0  0  0
    2.3114    2.9068   -0.6721 H   0  0  0  0  0  0  0  0  0  0  0  0
    1.5139    3.7552   -2.0303 H   0  0  0  0  0  0  0  0  0  0  0  0
    2.1381    2.0899   -2.2528 H   0  0  0  0  0  0  0  0  0  0  0  0
  1 17  1  0  0  0  0
  2 17  1  6  0  0  0
  2  3  1  0  0  0  0
  3  4  2  0  0  0  0
  3  9  1  0  0  0  0
  4  5  1  0  0  0  0
  6  4  1  0  0  0  0
  7  6  1  0  0  0  0
  8  2  1  0  0  0  0
  8  6  2  0  0  0  0
  9 10  1  0  0  0  0
  9 11  1  0  0  0  0
 12  9  1  0  0  0  0
 13 16  1  0  0  0  0
 13  8  1  0  0  0  0
 14 13  1  0  0  0  0
 15 13  1  0  0  0  0
 17 18  1  1  0  0  0
 19 17  1  0  0  0  0
 19 20  1  0  0  0  0
 20 21  1  0  0  0  0
 22 20  2  0  0  0  0
 22 23  1  0  0  0  0
 24 22  1  0  0  0  0
 25 24  1  0  0  0  0
 26 28  1  0  0  0  0
 26 24  2  0  0  0  0
 27 26  1  0  0  0  0
 28 19  2  0  0  0  0
 29 28  1  0  0  0  0
 30  1  1  0  0  0  0
 30 31  1  0  0  0  0
 31 32  1  0  0  0  0
 31 34  1  0  0  0  0
 33 31  1  0  0  0  0
 35 38  1  0  0  0  0
 35 30  1  0  0  0  0
 36 35  1  0  0  0  0
 37 35  1  0  0  0  0
 39 30  1  0  0  0  0
 39 40  1  0  0  0  0
 41 39  1  0  0  0  0
 42 39  1  0  0  0  0
M  END
