2,17
 OpenBabel05122313053D

 45 46  0  0  1  0  0  0  0  0999 V2000
   -2.7871    1.6433   -0.4787 N   0  0  0  0  0  0  0  0  0  0  0  0
    0.6948    1.2785   -0.2466 N   0  0  0  0  0  2  0  0  0  0  0  0
    2.7847    1.8785   -1.4069 C   0  0  0  0  0  0  0  0  0  0  0  0
    2.3861    2.5710    0.9412 C   0  0  0  0  0  0  0  0  0  0  0  0
    2.3007    1.2148   -2.6649 C   0  0  0  0  0  0  0  0  0  0  0  0
    2.0267    0.1542   -2.4875 H   0  0  0  0  0  0  0  0  0  0  0  0
    3.0636    1.2697   -3.4640 H   0  0  0  0  0  0  0  0  0  0  0  0
    1.3657    1.6804   -3.0388 H   0  0  0  0  0  0  0  0  0  0  0  0
   -0.4237    1.9557   -0.3896 C   0  0  1  0  0  3  0  0  0  0  0  0
   -1.6426    1.1722   -0.0957 C   0  0  0  0  0  0  0  0  0  0  0  0
   -3.9933    1.0010   -0.1626 C   0  0  0  0  0  0  0  0  0  0  0  0
   -4.5625    1.1364    1.1334 C   0  0  0  0  0  0  0  0  0  0  0  0
   -4.6821    0.3051   -1.1943 C   0  0  0  0  0  0  0  0  0  0  0  0
    3.6767    3.1333    0.9707 C   0  0  0  0  0  0  0  0  0  0  0  0
    4.0235    3.6217    1.8949 H   0  0  0  0  0  0  0  0  0  0  0  0
    1.9655    1.9305   -0.2522 C   0  0  0  0  0  0  0  0  0  0  0  0
   -1.3480   -0.1000    0.6383 C   0  0  0  0  0  3  0  0  0  0  0  0
   -2.1649   -0.8343    0.4999 H   0  0  0  0  0  0  0  0  0  0  0  0
   -1.2494    0.1202    1.7261 H   0  0  0  0  0  0  0  0  0  0  0  0
   -0.5166    3.3908   -0.7789 C   0  0  0  0  0  0  0  0  0  0  0  0
   -0.7238    4.0246    0.1103 H   0  0  0  0  0  0  0  0  0  0  0  0
   -1.3976    3.5014   -1.4424 H   0  0  0  0  0  0  0  0  0  0  0  0
    0.4055    3.7567   -1.2664 H   0  0  0  0  0  0  0  0  0  0  0  0
   -4.0511    0.1960   -2.5551 C   0  0  0  0  0  0  0  0  0  0  0  0
   -4.7448   -0.2598   -3.2876 H   0  0  0  0  0  0  0  0  0  0  0  0
   -3.1190   -0.4078   -2.5227 H   0  0  0  0  0  0  0  0  0  0  0  0
   -3.7448    1.1981   -2.9232 H   0  0  0  0  0  0  0  0  0  0  0  0
    4.0576    2.4753   -1.3333 C   0  0  0  0  0  0  0  0  0  0  0  0
    4.7048    2.4486   -2.2238 H   0  0  0  0  0  0  0  0  0  0  0  0
   -6.4991   -0.1557    0.3792 C   0  0  0  0  0  0  0  0  0  0  0  0
   -7.4796   -0.6082    0.5911 H   0  0  0  0  0  0  0  0  0  0  0  0
   -5.8186    0.5520    1.3791 C   0  0  0  0  0  0  0  0  0  0  0  0
   -6.2668    0.6620    2.3798 H   0  0  0  0  0  0  0  0  0  0  0  0
   -3.8392    1.9119    2.2042 C   0  0  0  0  0  0  0  0  0  0  0  0
   -2.9479    1.3639    2.5797 H   0  0  0  0  0  0  0  0  0  0  0  0
   -4.4990    2.1085    3.0711 H   0  0  0  0  0  0  0  0  0  0  0  0
   -3.4693    2.8836    1.8160 H   0  0  0  0  0  0  0  0  0  0  0  0
    4.5090    3.0871   -0.1558 C   0  0  0  0  0  0  0  0  0  0  0  0
    5.5134    3.5348   -0.1174 H   0  0  0  0  0  0  0  0  0  0  0  0
    1.4668    2.6640    2.1324 C   0  0  0  0  0  0  0  0  0  0  0  0
    2.0333    2.8750    3.0594 H   0  0  0  0  0  0  0  0  0  0  0  0
    0.8880    1.7303    2.2724 H   0  0  0  0  0  0  0  0  0  0  0  0
    0.7272    3.4831    2.0045 H   0  0  0  0  0  0  0  0  0  0  0  0
   -5.9277   -0.2732   -0.8964 C   0  0  0  0  0  0  0  0  0  0  0  0
   -6.4583   -0.8224   -1.6906 H   0  0  0  0  0  0  0  0  0  0  0  0
  1 11  1  0  0  0  0
  1 10  2  0  0  0  0
  3 28  2  0  0  0  0
  3 16  1  0  0  0  0
  4 14  1  0  0  0  0
  4 40  1  0  0  0  0
  5  6  1  0  0  0  0
  5  3  1  0  0  0  0
  7  5  1  0  0  0  0
  8  5  1  0  0  0  0
  9  2  1  1  0  0  0
  9 10  1  0  0  0  0
 10 17  1  0  0  0  0
 11 12  1  0  0  0  0
 12 32  2  0  0  0  0
 12 34  1  0  0  0  0
 13 44  1  0  0  0  0
 13 11  2  0  0  0  0
 14 15  1  0  0  0  0
 16  2  1  0  0  0  0
 16  4  2  0  0  0  0
 17 19  1  0  0  0  0
 18 17  1  0  0  0  0
 20  9  1  0  0  0  0
 20 21  1  0  0  0  0
 22 20  1  0  0  0  0
 23 20  1  0  0  0  0
 24 26  1  0  0  0  0
 24 13  1  0  0  0  0
 25 24  1  0  0  0  0
 27 24  1  0  0  0  0
 28 38  1  0  0  0  0
 29 28  1  0  0  0  0
 30 31  1  0  0  0  0
 30 32  1  0  0  0  0
 32 33  1  0  0  0  0
 34 35  1  0  0  0  0
 34 36  1  0  0  0  0
 37 34  1  0  0  0  0
 38 39  1  0  0  0  0
 38 14  2  0  0  0  0
 40 42  1  0  0  0  0
 40 41  1  0  0  0  0
 43 40  1  0  0  0  0
 44 30  2  0  0  0  0
 45 44  1  0  0  0  0
M  END
