1,20
 OpenBabel05122313053D

 28 29  0  0  0  0  0  0  0  0999 V2000
   -0.3841    1.5407    0.0004 N   0  0  0  0  0  2  0  0  0  0  0  0
    1.7162    0.4981   -0.0002 N   0  0  0  0  0  0  0  0  0  0  0  0
    5.2440   -0.5537    0.0006 N   0  0  0  0  0  0  0  0  0  0  0  0
   -1.2006    2.6192    0.0005 C   0  0  0  0  0  3  0  0  0  0  0  0
   -2.2824    2.3909    0.0012 H   0  0  0  0  0  0  0  0  0  0  0  0
   -0.6997    3.9250   -0.0002 C   0  0  0  0  0  0  0  0  0  0  0  0
   -1.3984    4.7730   -0.0001 H   0  0  0  0  0  0  0  0  0  0  0  0
    0.6867    4.1166   -0.0012 C   0  0  0  0  0  0  0  0  0  0  0  0
    1.1189    5.1278   -0.0019 H   0  0  0  0  0  0  0  0  0  0  0  0
    1.5327    2.9992   -0.0013 C   0  0  0  0  0  0  0  0  0  0  0  0
    2.6185    3.1489   -0.0022 H   0  0  0  0  0  0  0  0  0  0  0  0
    0.9567    1.7223   -0.0003 C   0  0  0  0  0  0  0  0  0  0  0  0
    3.0885    0.5533    0.0003 C   0  0  0  0  0  0  0  0  0  0  0  0
    3.5380    1.5471    0.0011 H   0  0  0  0  0  0  0  0  0  0  0  0
    3.8784   -0.6123    0.0001 C   0  0  0  0  0  0  0  0  0  0  0  0
    3.1620   -1.8515   -0.0004 C   0  0  0  0  0  0  0  0  0  0  0  0
    3.7058   -2.8051   -0.0005 H   0  0  0  0  0  0  0  0  0  0  0  0
    1.7767   -1.8621   -0.0007 C   0  0  0  0  0  0  0  0  0  0  0  0
    1.2513   -2.8256   -0.0010 H   0  0  0  0  0  0  0  0  0  0  0  0
    0.9938   -0.6854   -0.0006 C   0  0  0  0  0  2  0  0  0  0  0  0
    5.9080    0.7382    0.0020 C   0  0  0  0  0  0  0  0  0  0  0  0
    5.6488    1.3372   -0.8999 H   0  0  0  0  0  0  0  0  0  0  0  0
    7.0014    0.5898    0.0028 H   0  0  0  0  0  0  0  0  0  0  0  0
    5.6474    1.3359    0.9044 H   0  0  0  0  0  0  0  0  0  0  0  0
    6.0267   -1.7822   -0.0001 C   0  0  0  0  0  0  0  0  0  0  0  0
    5.8286   -2.4014    0.9014 H   0  0  0  0  0  0  0  0  0  0  0  0
    7.0999   -1.5246   -0.0014 H   0  0  0  0  0  0  0  0  0  0  0  0
    5.8267   -2.4014   -0.9013 H   0  0  0  0  0  0  0  0  0  0  0  0
  1  4  1  0  0  0  0
  2 13  1  0  0  0  0
  3 21  1  0  0  0  0
  4  5  1  0  0  0  0
  6  7  1  0  0  0  0
  6  4  1  0  0  0  0
  8  6  2  0  0  0  0
  9  8  1  0  0  0  0
 10  8  1  0  0  0  0
 10 12  2  0  0  0  0
 11 10  1  0  0  0  0
 12  2  1  0  0  0  0
 12  1  1  0  0  0  0
 13 14  1  0  0  0  0
 15 13  2  0  0  0  0
 15  3  1  0  0  0  0
 16 15  1  0  0  0  0
 17 16  1  0  0  0  0
 18 20  1  0  0  0  0
 18 16  2  0  0  0  0
 19 18  1  0  0  0  0
 20  2  1  0  0  0  0
 21 23  1  0  0  0  0
 21 24  1  0  0  0  0
 22 21  1  0  0  0  0
 25  3  1  0  0  0  0
 25 26  1  0  0  0  0
 27 25  1  0  0  0  0
 28 25  1  0  0  0  0
M  END
