2,22
 OpenBabel05122313053D

 22 23  0  0  0  0  0  0  0  0999 V2000
   -2.6702   -2.4935    0.4928 N   0  0  0  0  0  0  0  0  0  0  0  0
   -0.5174   -1.6874   -0.0777 N   0  0  0  0  0  2  0  0  0  0  0  0
    0.0186   -2.8398    0.0569 N   0  0  0  0  0  2  0  0  0  0  0  0
   -3.9889   -2.5393    0.2578 C   0  0  0  0  0  0  0  0  0  0  0  0
   -4.5831   -3.1748    0.9385 H   0  0  0  0  0  0  0  0  0  0  0  0
   -4.6169   -1.8311   -0.7809 C   0  0  0  0  0  0  0  0  0  0  0  0
   -5.7049   -1.9046   -0.9252 H   0  0  0  0  0  0  0  0  0  0  0  0
   -3.8228   -1.0339   -1.6196 C   0  0  0  0  0  0  0  0  0  0  0  0
   -4.2698   -0.4673   -2.4499 H   0  0  0  0  0  0  0  0  0  0  0  0
   -2.4459   -0.9620   -1.3821 C   0  0  0  0  0  0  0  0  0  0  0  0
   -1.7581   -0.3692   -2.0056 H   0  0  0  0  0  0  0  0  0  0  0  0
   -1.9364   -1.7174   -0.3088 C   0  0  0  0  0  0  0  0  0  0  0  0
    1.4005   -2.7772    0.0828 C   0  0  0  0  0  0  0  0  0  0  0  0
    2.1445   -3.9751    0.1403 C   0  0  0  0  0  0  0  0  0  0  0  0
    1.6127   -4.9254    0.2932 H   0  0  0  0  0  0  0  0  0  0  0  0
    3.5308   -3.9140   -0.0282 C   0  0  0  0  0  0  0  0  0  0  0  0
    4.1377   -4.8304    0.0126 H   0  0  0  0  0  0  0  0  0  0  0  0
    4.1402   -2.6718   -0.2897 C   0  0  0  0  0  0  0  0  0  0  0  0
    5.2260   -2.6291   -0.4703 H   0  0  0  0  0  0  0  0  0  0  0  0
    3.3873   -1.4811   -0.3369 C   0  0  0  0  0  0  0  0  0  0  0  0
    3.9044   -0.5425   -0.5861 H   0  0  0  0  0  0  0  0  0  0  0  0
    2.0050   -1.4936   -0.0983 C   0  0  0  0  0  3  0  0  0  0  0  0
  2  3  1  0  0  0  0
  3 13  1  0  0  0  0
  4  1  1  0  0  0  0
  4  5  1  0  0  0  0
  6  4  2  0  0  0  0
  7  6  1  0  0  0  0
  8 10  2  0  0  0  0
  8  6  1  0  0  0  0
  9  8  1  0  0  0  0
 10 12  1  0  0  0  0
 11 10  1  0  0  0  0
 12  2  1  0  0  0  0
 12  1  2  0  0  0  0
 13 14  1  0  0  0  0
 14 15  1  0  0  0  0
 16 17  1  0  0  0  0
 16 14  2  0  0  0  0
 18 16  1  0  0  0  0
 19 18  1  0  0  0  0
 20 18  2  0  0  0  0
 20 22  1  0  0  0  0
 21 20  1  0  0  0  0
 22 13  2  0  0  0  0
M  END
