2,3
 OpenBabel05122313053D

 32 32  0  0  1  0  0  0  0  0999 V2000
    4.5775    0.7636   -0.2085 Si  0  0  0  0  0  0  0  0  0  0  0  0
    3.3892   -0.5992   -0.2194 N   0  0  0  0  0  2  0  0  0  0  0  0
    3.9045    1.4809   -1.8110 C   0  0  1  0  0  3  0  0  0  0  0  0
    4.0205    0.7395   -3.0371 C   0  0  0  0  0  0  0  0  0  0  0  0
    4.8220    0.0287   -3.2785 H   0  0  0  0  0  0  0  0  0  0  0  0
    2.8826    1.0002   -3.8457 C   0  0  0  0  0  0  0  0  0  0  0  0
    2.6802    0.5700   -4.8344 H   0  0  0  0  0  0  0  0  0  0  0  0
    2.0396    1.9091   -3.1427 C   0  0  0  0  0  0  0  0  0  0  0  0
    1.0798    2.3071   -3.4892 H   0  0  0  0  0  0  0  0  0  0  0  0
    2.6600    2.2011   -1.8950 C   0  0  0  0  0  0  0  0  0  0  0  0
    2.2306    2.8345   -1.1074 H   0  0  0  0  0  0  0  0  0  0  0  0
    6.3779    0.2517   -0.4395 C   0  0  0  0  0  0  0  0  0  0  0  0
    6.9782    1.1645   -0.6367 H   0  0  0  0  0  0  0  0  0  0  0  0
    6.5022   -0.4342   -1.3007 H   0  0  0  0  0  0  0  0  0  0  0  0
    6.8000   -0.2418    0.4580 H   0  0  0  0  0  0  0  0  0  0  0  0
    4.3646    1.9889    1.2029 C   0  0  0  0  0  0  0  0  0  0  0  0
    4.7804    2.9707    0.8947 H   0  0  0  0  0  0  0  0  0  0  0  0
    4.8916    1.6675    2.1217 H   0  0  0  0  0  0  0  0  0  0  0  0
    3.2950    2.1206    1.4563 H   0  0  0  0  0  0  0  0  0  0  0  0
    3.5230   -1.7360    0.7391 C   0  0  0  0  0  0  0  0  0  0  0  0
    4.4806   -2.7701    0.1083 C   0  0  0  0  0  0  0  0  0  0  0  0
    4.0852   -3.1234   -0.8642 H   0  0  0  0  0  0  0  0  0  0  0  0
    4.5983   -3.6477    0.7759 H   0  0  0  0  0  0  0  0  0  0  0  0
    5.4831   -2.3357   -0.0684 H   0  0  0  0  0  0  0  0  0  0  0  0
    2.1775   -2.4133    1.0372 C   0  0  0  0  0  0  0  0  0  0  0  0
    1.7128   -2.8644    0.1408 H   0  0  0  0  0  0  0  0  0  0  0  0
    1.4568   -1.7036    1.4827 H   0  0  0  0  0  0  0  0  0  0  0  0
    2.3236   -3.2375    1.7625 H   0  0  0  0  0  0  0  0  0  0  0  0
    4.0983   -1.2489    2.0853 C   0  0  0  0  0  0  0  0  0  0  0  0
    3.4438   -0.4857    2.5479 H   0  0  0  0  0  0  0  0  0  0  0  0
    5.1146   -0.8203    1.9717 H   0  0  0  0  0  0  0  0  0  0  0  0
    4.1839   -2.0980    2.7920 H   0  0  0  0  0  0  0  0  0  0  0  0
  1 16  1  0  0  0  0
  2  1  1  0  0  0  0
  2 20  1  0  0  0  0
  3  1  1  1  0  0  0
  4  3  1  0  0  0  0
  5  4  1  0  0  0  0
  6  8  1  0  0  0  0
  6  4  2  0  0  0  0
  7  6  1  0  0  0  0
  8 10  2  0  0  0  0
  9  8  1  0  0  0  0
 10  3  1  0  0  0  0
 10 11  1  0  0  0  0
 12  1  1  0  0  0  0
 12 15  1  0  0  0  0
 13 12  1  0  0  0  0
 14 12  1  0  0  0  0
 16 19  1  0  0  0  0
 16 18  1  0  0  0  0
 17 16  1  0  0  0  0
 20 25  1  0  0  0  0
 20 29  1  0  0  0  0
 21 20  1  0  0  0  0
 21 23  1  0  0  0  0
 22 21  1  0  0  0  0
 24 21  1  0  0  0  0
 25 27  1  0  0  0  0
 25 28  1  0  0  0  0
 26 25  1  0  0  0  0
 29 30  1  0  0  0  0
 29 32  1  0  0  0  0
 31 29  1  0  0  0  0
M  END
