1,6
 OpenBabel05122313053D

 41 43  0  0  0  0  0  0  0  0999 V2000
    1.8727    2.3129    0.9269 N   0  0  0  0  0  0  0  0  0  0  0  0
    1.4366    3.1051    1.4262 H   0  0  0  0  0  0  0  0  0  0  0  0
    2.3958    1.7321    1.5963 H   0  0  0  0  0  0  0  0  0  0  0  0
    0.6208   -1.5675    0.7509 N   0  0  0  0  0  2  0  0  0  0  0  0
    3.4380   -1.9461    0.5312 S   0  0  0  0  0  0  0  0  0  0  0  0
    1.1222   -0.4734    0.2881 C   0  0  0  0  0  2  0  0  0  0  0  0
    2.5623   -0.5054   -0.0141 C   0  0  0  0  0  0  0  0  0  0  0  0
    3.3832    0.4041   -0.6773 C   0  0  0  0  0  0  0  0  0  0  0  0
    4.7570   -0.0426   -0.7318 C   0  0  0  0  0  0  0  0  0  0  0  0
    5.8828    0.6009   -1.3018 C   0  0  0  0  0  0  0  0  0  0  0  0
    5.7696    1.5808   -1.7903 H   0  0  0  0  0  0  0  0  0  0  0  0
    7.1358   -0.0113   -1.2427 C   0  0  0  0  0  0  0  0  0  0  0  0
    8.0097    0.4896   -1.6852 H   0  0  0  0  0  0  0  0  0  0  0  0
    7.2944   -1.2719   -0.6207 C   0  0  0  0  0  0  0  0  0  0  0  0
    8.2897   -1.7401   -0.5846 H   0  0  0  0  0  0  0  0  0  0  0  0
    6.2016   -1.9328   -0.0510 C   0  0  0  0  0  0  0  0  0  0  0  0
    6.3250   -2.9140    0.4309 H   0  0  0  0  0  0  0  0  0  0  0  0
    4.9379   -1.3165   -0.1067 C   0  0  0  0  0  0  0  0  0  0  0  0
    2.9196    1.7208   -1.2391 C   0  0  0  0  0  0  0  0  0  0  0  0
    1.9382    1.5905   -1.7440 H   0  0  0  0  0  0  0  0  0  0  0  0
    3.6340    2.0863   -2.0036 H   0  0  0  0  0  0  0  0  0  0  0  0
    2.7496    2.8007   -0.1606 C   0  0  0  0  0  0  0  0  0  0  0  0
    3.7369    3.1103    0.2461 H   0  0  0  0  0  0  0  0  0  0  0  0
    2.2580    3.6910   -0.5994 H   0  0  0  0  0  0  0  0  0  0  0  0
   -0.7048   -1.7946    1.1060 C   0  0  0  0  0  0  0  0  0  0  0  0
   -1.2833   -1.2124    2.2681 C   0  0  0  0  0  0  0  0  0  0  0  0
   -2.6331   -1.4943    2.5502 C   0  0  0  0  0  0  0  0  0  0  0  0
   -3.0890   -1.0499    3.4494 H   0  0  0  0  0  0  0  0  0  0  0  0
   -3.3971   -2.3221    1.7159 C   0  0  0  0  0  0  0  0  0  0  0  0
   -4.4558   -2.5133    1.9461 H   0  0  0  0  0  0  0  0  0  0  0  0
   -2.8009   -2.9191    0.5945 C   0  0  0  0  0  0  0  0  0  0  0  0
   -3.3916   -3.5853   -0.0542 H   0  0  0  0  0  0  0  0  0  0  0  0
   -1.4525   -2.6843    0.2828 C   0  0  0  0  0  0  0  0  0  0  0  0
   -0.7852   -3.3030   -0.9153 C   0  0  0  0  0  0  0  0  0  0  0  0
   -1.4174   -4.0878   -1.3736 H   0  0  0  0  0  0  0  0  0  0  0  0
    0.1955   -3.7403   -0.6355 H   0  0  0  0  0  0  0  0  0  0  0  0
   -0.5594   -2.5408   -1.6921 H   0  0  0  0  0  0  0  0  0  0  0  0
   -0.4735   -0.3132    3.1644 C   0  0  0  0  0  0  0  0  0  0  0  0
    0.5592   -0.6960    3.2940 H   0  0  0  0  0  0  0  0  0  0  0  0
   -0.9453   -0.2114    4.1607 H   0  0  0  0  0  0  0  0  0  0  0  0
   -0.3855    0.7072    2.7267 H   0  0  0  0  0  0  0  0  0  0  0  0
  1  2  1  0  0  0  0
  1  3  1  0  0  0  0
  4 25  1  0  0  0  0
  6  4  1  0  0  0  0
  7  6  1  0  0  0  0
  7  5  1  0  0  0  0
  8  7  2  0  0  0  0
  9  8  1  0  0  0  0
  9 18  1  0  0  0  0
 10 12  1  0  0  0  0
 10  9  2  0  0  0  0
 11 10  1  0  0  0  0
 12 14  2  0  0  0  0
 13 12  1  0  0  0  0
 14 15  1  0  0  0  0
 14 16  1  0  0  0  0
 16 17  1  0  0  0  0
 18 16  2  0  0  0  0
 18  5  1  0  0  0  0
 19  8  1  0  0  0  0
 19 22  1  0  0  0  0
 20 19  1  0  0  0  0
 21 19  1  0  0  0  0
 22 23  1  0  0  0  0
 22  1  1  0  0  0  0
 24 22  1  0  0  0  0
 25 26  1  0  0  0  0
 26 27  2  0  0  0  0
 26 38  1  0  0  0  0
 27 28  1  0  0  0  0
 29 30  1  0  0  0  0
 29 27  1  0  0  0  0
 31 29  2  0  0  0  0
 32 31  1  0  0  0  0
 33 31  1  0  0  0  0
 33 25  2  0  0  0  0
 34 36  1  0  0  0  0
 34 33  1  0  0  0  0
 35 34  1  0  0  0  0
 37 34  1  0  0  0  0
 38 39  1  0  0  0  0
 38 40  1  0  0  0  0
 41 38  1  0  0  0  0
M  END
