1,5
 OpenBabel05122313053D

 41 43  0  0  1  0  0  0  0  0999 V2000
   -0.1501   -0.0664    0.1884 N   0  0  0  0  0  2  0  0  0  0  0  0
    1.7680   -1.9722   -0.8675 C   0  0  1  0  0  3  0  0  0  0  0  0
    1.7414   -0.9326   -1.8669 C   0  0  0  0  0  0  0  0  0  0  0  0
    2.7398    0.0605   -1.9074 C   0  0  0  0  0  0  0  0  0  0  0  0
    3.7784    0.0719   -0.9156 C   0  0  0  0  0  3  0  0  0  0  0  0
    3.8428   -0.9754    0.0454 C   0  0  0  0  0  0  0  0  0  0  0  0
    2.8501   -2.0027    0.0493 C   0  0  0  0  0  0  0  0  0  0  0  0
    0.5990   -2.9108   -0.6831 C   0  0  0  0  0  0  0  0  0  0  0  0
   -0.2765   -2.4780    0.5135 C   0  0  0  0  0  0  0  0  0  0  0  0
   -0.9234   -1.1234    0.3297 C   0  0  2  0  0  3  0  0  0  0  0  0
   -2.4106   -1.0817    0.2889 C   0  0  0  0  0  0  0  0  0  0  0  0
   -3.1680   -0.1448    1.0301 C   0  0  0  0  0  0  0  0  0  0  0  0
   -4.5671   -0.1549    0.9771 C   0  0  0  0  0  0  0  0  0  0  0  0
   -5.2432   -1.0918    0.1789 C   0  0  0  0  0  0  0  0  0  0  0  0
   -4.5059   -2.0349   -0.5542 C   0  0  0  0  0  0  0  0  0  0  0  0
   -3.1065   -2.0383   -0.4890 C   0  0  0  0  0  0  0  0  0  0  0  0
   -0.7565    1.1933   -0.1286 C   0  0  0  0  0  0  0  0  0  0  0  0
   -0.8002    2.2232    0.8307 C   0  0  0  0  0  0  0  0  0  0  0  0
   -1.3826    3.4541    0.5066 C   0  0  0  0  0  0  0  0  0  0  0  0
   -1.9201    3.6735   -0.7733 C   0  0  0  0  0  0  0  0  0  0  0  0
   -1.8727    2.6464   -1.7285 C   0  0  0  0  0  0  0  0  0  0  0  0
   -1.2984    1.4079   -1.4093 C   0  0  0  0  0  0  0  0  0  0  0  0
    0.8891   -0.8772   -2.5602 H   0  0  0  0  0  0  0  0  0  0  0  0
    2.6684    0.8793   -2.6371 H   0  0  0  0  0  0  0  0  0  0  0  0
    4.5188    0.8831   -0.9012 H   0  0  0  0  0  0  0  0  0  0  0  0
    4.6261   -0.9655    0.8157 H   0  0  0  0  0  0  0  0  0  0  0  0
    2.8726   -2.7762    0.8324 H   0  0  0  0  0  0  0  0  0  0  0  0
    0.9621   -3.9448   -0.5060 H   0  0  0  0  0  0  0  0  0  0  0  0
   -0.0147   -2.9408   -1.6068 H   0  0  0  0  0  0  0  0  0  0  0  0
    0.3690   -2.4226    1.4178 H   0  0  0  0  0  0  0  0  0  0  0  0
   -1.0569   -3.2363    0.7154 H   0  0  0  0  0  0  0  0  0  0  0  0
   -2.6545    0.5907    1.6623 H   0  0  0  0  0  0  0  0  0  0  0  0
   -5.1356    0.5783    1.5690 H   0  0  0  0  0  0  0  0  0  0  0  0
   -6.3427   -1.0915    0.1340 H   0  0  0  0  0  0  0  0  0  0  0  0
   -5.0241   -2.7760   -1.1815 H   0  0  0  0  0  0  0  0  0  0  0  0
   -2.5416   -2.7813   -1.0727 H   0  0  0  0  0  0  0  0  0  0  0  0
   -0.3650    2.0445    1.8244 H   0  0  0  0  0  0  0  0  0  0  0  0
   -1.4118    4.2534    1.2623 H   0  0  0  0  0  0  0  0  0  0  0  0
   -2.3700    4.6450   -1.0260 H   0  0  0  0  0  0  0  0  0  0  0  0
   -2.2896    2.8073   -2.7344 H   0  0  0  0  0  0  0  0  0  0  0  0
   -1.2662    0.5945   -2.1487 H   0  0  0  0  0  0  0  0  0  0  0  0
  2  8  1  1  0  0  0
  2  7  1  0  0  0  0
  3  2  1  0  0  0  0
  4  3  2  0  0  0  0
  4  5  1  0  0  0  0
  5 25  1  0  0  0  0
  5  6  1  0  0  0  0
  6  7  2  0  0  0  0
  6 26  1  0  0  0  0
  7 27  1  0  0  0  0
  8 28  1  0  0  0  0
  8  9  1  0  0  0  0
  9 31  1  0  0  0  0
  9 30  1  0  0  0  0
 10  1  1  6  0  0  0
 10  9  1  0  0  0  0
 11 10  1  0  0  0  0
 11 12  1  0  0  0  0
 12 32  1  0  0  0  0
 13 12  2  0  0  0  0
 13 33  1  0  0  0  0
 14 13  1  0  0  0  0
 15 16  1  0  0  0  0
 15 14  2  0  0  0  0
 16 11  2  0  0  0  0
 17  1  1  0  0  0  0
 17 18  1  0  0  0  0
 18 37  1  0  0  0  0
 19 18  2  0  0  0  0
 19 38  1  0  0  0  0
 20 19  1  0  0  0  0
 21 22  1  0  0  0  0
 21 20  2  0  0  0  0
 22 17  2  0  0  0  0
 23  3  1  0  0  0  0
 24  4  1  0  0  0  0
 29  8  1  0  0  0  0
 34 14  1  0  0  0  0
 35 15  1  0  0  0  0
 36 16  1  0  0  0  0
 39 20  1  0  0  0  0
 40 21  1  0  0  0  0
 41 22  1  0  0  0  0
M  END
