18,21
 OpenBabel05122313053D

 22 23  0  0  0  0  0  0  0  0999 V2000
    2.8976    0.1931    0.2595 C   0  0  0  0  0  3  0  0  0  0  0  0
    2.5843   -0.8319    0.4924 H   0  0  0  0  0  0  0  0  0  0  0  0
    4.2481    0.4820    0.0686 C   0  0  0  0  0  0  0  0  0  0  0  0
    4.6629    1.7905   -0.2268 C   0  0  0  0  0  0  0  0  0  0  0  0
    5.7275    1.9946   -0.4016 H   0  0  0  0  0  0  0  0  0  0  0  0
    3.6861    2.7791   -0.2722 C   0  0  0  0  0  0  0  0  0  0  0  0
    3.9627    3.8200   -0.4826 H   0  0  0  0  0  0  0  0  0  0  0  0
    2.3264    2.4643   -0.0457 C   0  0  0  0  0  0  0  0  0  0  0  0
    1.2338    3.4179    0.0398 C   0  0  0  0  0  0  0  0  0  0  0  0
    1.4006    4.8178   -0.0811 C   0  0  0  0  0  0  0  0  0  0  0  0
    2.3883    5.2462   -0.3091 H   0  0  0  0  0  0  0  0  0  0  0  0
    0.3052    5.6648    0.0904 C   0  0  0  0  0  0  0  0  0  0  0  0
    0.4291    6.7535   -0.0039 H   0  0  0  0  0  0  0  0  0  0  0  0
   -0.9596    5.1172    0.3859 C   0  0  0  0  0  0  0  0  0  0  0  0
   -1.8220    5.7872    0.5291 H   0  0  0  0  0  0  0  0  0  0  0  0
   -1.1348    3.7292    0.4910 C   0  0  0  0  0  0  0  0  0  0  0  0
   -2.1373    3.3311    0.7091 H   0  0  0  0  0  0  0  0  0  0  0  0
   -0.0504    2.8523    0.3086 C   0  0  0  0  0  3  0  0  0  0  0  0
    6.4105   -0.3226    0.0020 O   0  0  0  0  0  0  0  0  0  0  0  0
    4.7910   -1.7463    0.3860 O   0  0  0  0  0  0  0  0  0  0  0  0
    1.9524    1.1474    0.1628 N   0  0  0  0  0  2  0  0  0  0  0  0
    5.2248   -0.6138    0.1598 N   0  0  0  0  0  0  0  0  0  0  0  0
  1  2  1  0  0  0  0
  3 22  1  0  0  0  0
  3  1  1  0  0  0  0
  4  3  2  0  0  0  0
  5  4  1  0  0  0  0
  6  4  1  0  0  0  0
  6  8  2  0  0  0  0
  7  6  1  0  0  0  0
  8  9  1  0  0  0  0
  8 21  1  0  0  0  0
  9 18  1  0  0  0  0
 10  9  2  0  0  0  0
 10 12  1  0  0  0  0
 11 10  1  0  0  0  0
 12 14  2  0  0  0  0
 13 12  1  0  0  0  0
 14 16  1  0  0  0  0
 14 15  1  0  0  0  0
 16 17  1  0  0  0  0
 18 16  2  0  0  0  0
 19 22  2  0  0  0  0
 21  1  1  0  0  0  0
 22 20  2  0  0  0  0
M  END
