2,3
 OpenBabel05122313053D

 28 29  0  0  1  0  0  0  0  0999 V2000
   -4.1905    1.0983   -0.5047 O   0  0  0  0  0  0  0  0  0  0  0  0
   -2.3314   -0.1651   -0.4631 N   0  0  0  0  0  2  0  0  0  0  0  0
   -0.6243    1.7241    0.1199 C   0  0  0  0  0  2  0  0  0  0  0  0
    0.2873    2.7189    0.5220 C   0  0  0  0  0  0  0  0  0  0  0  0
    1.3444    2.4675    0.7002 H   0  0  0  0  0  0  0  0  0  0  0  0
   -0.1282    4.0506    0.7163 C   0  0  0  0  0  0  0  0  0  0  0  0
    0.6106    4.8056    1.0307 H   0  0  0  0  0  0  0  0  0  0  0  0
   -1.4679    4.4332    0.5237 C   0  0  0  0  0  0  0  0  0  0  0  0
   -1.7745    5.4786    0.6773 H   0  0  0  0  0  0  0  0  0  0  0  0
   -2.4106    3.4671    0.1486 C   0  0  0  0  0  0  0  0  0  0  0  0
   -3.4711    3.7274    0.0086 H   0  0  0  0  0  0  0  0  0  0  0  0
   -1.9862    2.1394   -0.0389 C   0  0  0  0  0  0  0  0  0  0  0  0
   -2.8598    1.0259   -0.3553 C   0  0  0  0  0  0  0  0  0  0  0  0
   -4.6253   -0.2495   -0.8678 C   0  0  0  0  0  0  0  0  0  0  0  0
   -4.9280   -0.2250   -1.9344 H   0  0  0  0  0  0  0  0  0  0  0  0
   -5.5072   -0.4969   -0.2460 H   0  0  0  0  0  0  0  0  0  0  0  0
   -3.3955   -1.1630   -0.6081 C   0  0  2  0  0  0  0  0  0  0  0  0
   -3.1703   -1.8062   -1.4831 H   0  0  0  0  0  0  0  0  0  0  0  0
   -3.4898   -2.0775    0.6372 C   0  0  0  0  0  0  0  0  0  0  0  0
   -2.4887   -2.5589    0.6887 H   0  0  0  0  0  0  0  0  0  0  0  0
   -4.5410   -3.1697    0.4192 C   0  0  0  0  0  0  0  0  0  0  0  0
   -4.5521   -3.8782    1.2717 H   0  0  0  0  0  0  0  0  0  0  0  0
   -4.3327   -3.7546   -0.5001 H   0  0  0  0  0  0  0  0  0  0  0  0
   -5.5677   -2.7511    0.3322 H   0  0  0  0  0  0  0  0  0  0  0  0
   -3.7216   -1.2926    1.9309 C   0  0  0  0  0  0  0  0  0  0  0  0
   -3.7236   -1.9766    2.8033 H   0  0  0  0  0  0  0  0  0  0  0  0
   -4.6970   -0.7594    1.9335 H   0  0  0  0  0  0  0  0  0  0  0  0
   -2.9197   -0.5450    2.0956 H   0  0  0  0  0  0  0  0  0  0  0  0
  1 13  1  0  0  0  0
  2 13  1  0  0  0  0
  3  4  1  0  0  0  0
  4  5  1  0  0  0  0
  4  6  2  0  0  0  0
  6  7  1  0  0  0  0
  8  9  1  0  0  0  0
  8  6  1  0  0  0  0
 10  8  2  0  0  0  0
 11 10  1  0  0  0  0
 12  3  1  0  0  0  0
 12 10  1  0  0  0  0
 13 12  2  0  0  0  0
 14 17  1  0  0  0  0
 14  1  1  0  0  0  0
 14 16  1  0  0  0  0
 15 14  1  0  0  0  0
 17 18  1  6  0  0  0
 17  2  1  0  0  0  0
 17 19  1  0  0  0  0
 19 20  1  0  0  0  0
 19 25  1  0  0  0  0
 21 19  1  0  0  0  0
 21 22  1  0  0  0  0
 23 21  1  0  0  0  0
 24 21  1  0  0  0  0
 25 27  1  0  0  0  0
 25 28  1  0  0  0  0
 25 26  1  0  0  0  0
M  END
