3,4
 OpenBabel05122313053D

 24 26  0  0  1  0  0  0  0  0999 V2000
   -1.7055   -1.7377   -0.2221 N   0  0  0  0  0  0  0  0  0  0  0  0
   -1.9117    0.4374    0.0116 N   0  0  0  0  0  0  0  0  0  0  0  0
   -0.0198    1.7142    0.0516 N   0  0  0  0  0  2  0  0  0  0  0  0
   -0.9471   -0.5936   -0.1316 C   0  0  0  0  0  2  0  0  0  0  0  0
   -3.0677   -1.4867   -0.1246 C   0  0  0  0  0  0  0  0  0  0  0  0
   -4.1736   -2.3423   -0.1548 C   0  0  0  0  0  0  0  0  0  0  0  0
   -5.4488   -1.7645   -0.0181 C   0  0  0  0  0  0  0  0  0  0  0  0
   -5.6013   -0.3773    0.1508 C   0  0  0  0  0  0  0  0  0  0  0  0
   -4.4889    0.4862    0.1817 C   0  0  0  0  0  0  0  0  0  0  0  0
   -3.2155   -0.0788    0.0343 C   0  0  0  0  0  0  0  0  0  0  0  0
   -1.3921    1.7242    0.0595 C   0  0  1  0  0  3  0  0  0  0  0  0
   -2.1351    2.9143    0.0903 C   0  0  0  0  0  0  0  0  0  0  0  0
   -1.4498    4.1343    0.1121 C   0  0  0  0  0  0  0  0  0  0  0  0
   -0.0446    4.1293    0.0758 C   0  0  0  0  0  0  0  0  0  0  0  0
    0.6242    2.9063    0.0267 C   0  0  0  0  0  0  0  0  0  0  0  0
   -1.2810   -2.6488   -0.3826 H   0  0  0  0  0  0  0  0  0  0  0  0
   -4.0473   -3.4271   -0.2819 H   0  0  0  0  0  0  0  0  0  0  0  0
   -6.3385   -2.4108   -0.0415 H   0  0  0  0  0  0  0  0  0  0  0  0
   -6.6089    0.0491    0.2627 H   0  0  0  0  0  0  0  0  0  0  0  0
   -4.6374    1.5629    0.3248 H   0  0  0  0  0  0  0  0  0  0  0  0
   -3.2297    2.8870    0.0721 H   0  0  0  0  0  0  0  0  0  0  0  0
   -2.0112    5.0794    0.1361 H   0  0  0  0  0  0  0  0  0  0  0  0
    0.5332    5.0638    0.0673 H   0  0  0  0  0  0  0  0  0  0  0  0
    1.7184    2.8442   -0.0411 H   0  0  0  0  0  0  0  0  0  0  0  0
  1  4  1  0  0  0  0
  1  5  1  0  0  0  0
  2 10  1  0  0  0  0
  3 11  1  0  0  0  0
  4  2  1  0  0  0  0
  5 10  1  0  0  0  0
  6  5  2  0  0  0  0
  6  7  1  0  0  0  0
  7  8  2  0  0  0  0
  8  9  1  0  0  0  0
  8 19  1  0  0  0  0
  9 20  1  0  0  0  0
 10  9  2  0  0  0  0
 11  2  1  6  0  0  0
 11 12  1  0  0  0  0
 12 13  2  0  0  0  0
 13 22  1  0  0  0  0
 14 13  1  0  0  0  0
 15  3  1  0  0  0  0
 15 14  2  0  0  0  0
 16  1  1  0  0  0  0
 17  6  1  0  0  0  0
 18  7  1  0  0  0  0
 21 12  1  0  0  0  0
 23 14  1  0  0  0  0
 24 15  1  0  0  0  0
M  END
