1,20
 OpenBabel05122313053D

 33 35  0  0  1  0  0  0  0  0999 V2000
   -0.4417    1.2975    0.1547 C   0  0  0  0  0  3  0  0  0  0  0  0
    4.4388    1.1789    0.9234 C   0  0  0  0  0  0  0  0  0  0  0  0
    5.2310    1.4027    1.6514 H   0  0  0  0  0  0  0  0  0  0  0  0
   -1.3489    2.3493    0.1579 N   0  0  0  0  0  0  0  0  0  0  0  0
    0.4725    3.3248    0.3170 N   0  0  0  0  0  0  0  0  0  0  0  0
    0.7876    1.9795    0.2451 C   0  0  0  0  0  0  0  0  0  0  0  0
    3.1682    1.7512    1.0600 C   0  0  0  0  0  0  0  0  0  0  0  0
    2.9602    2.4095    1.9165 H   0  0  0  0  0  0  0  0  0  0  0  0
    2.1512    1.4481    0.1296 C   0  0  0  0  0  0  0  0  0  0  0  0
    2.4254    0.5807   -0.9527 C   0  0  0  0  0  0  0  0  0  0  0  0
    1.6273    0.3572   -1.6793 H   0  0  0  0  0  0  0  0  0  0  0  0
    1.3908    4.4538    0.4130 C   0  0  0  0  0  0  0  0  0  0  0  0
    0.8858    5.3413   -0.0057 H   0  0  0  0  0  0  0  0  0  0  0  0
    2.3032    4.2189   -0.1640 H   0  0  0  0  0  0  0  0  0  0  0  0
    1.6604    4.6421    1.4700 H   0  0  0  0  0  0  0  0  0  0  0  0
    4.7018    0.3064   -0.1458 C   0  0  0  0  0  0  0  0  0  0  0  0
    3.6991    0.0202   -1.0897 C   0  0  0  0  0  0  0  0  0  0  0  0
    3.9215   -0.6437   -1.9379 H   0  0  0  0  0  0  0  0  0  0  0  0
   -0.8246    3.5713    0.2629 N   0  0  0  0  0  2  0  0  0  0  0  0
   -2.9281    0.7573   -0.2356 N   0  0  0  0  0  2  0  0  0  0  0  0
   -2.7045    2.0870   -0.0870 C   0  0  2  0  0  3  0  0  0  0  0  0
   -3.6920    3.0672   -0.2130 C   0  0  0  0  0  0  0  0  0  0  0  0
   -3.4291    4.1252   -0.0817 H   0  0  0  0  0  0  0  0  0  0  0  0
    6.0462   -0.3851   -0.2570 C   0  0  0  0  0  0  0  0  0  0  0  0
    6.4340   -0.5000   -1.5448 F   0  0  0  0  0  0  0  0  0  0  0  0
    7.0084    0.2785    0.4165 F   0  0  0  0  0  0  0  0  0  0  0  0
    5.9724   -1.6371    0.2581 F   0  0  0  0  0  0  0  0  0  0  0  0
   -4.1759    0.3593   -0.5738 C   0  0  0  0  0  0  0  0  0  0  0  0
   -4.3092   -0.7179   -0.7361 H   0  0  0  0  0  0  0  0  0  0  0  0
   -5.2279    1.2670   -0.7171 C   0  0  0  0  0  0  0  0  0  0  0  0
   -6.2263    0.8963   -0.9873 H   0  0  0  0  0  0  0  0  0  0  0  0
   -4.9870    2.6387   -0.5257 C   0  0  0  0  0  0  0  0  0  0  0  0
   -5.7993    3.3715   -0.6359 H   0  0  0  0  0  0  0  0  0  0  0  0
  1  4  1  0  0  0  0
  1  6  2  0  0  0  0
  2  7  1  0  0  0  0
  2  3  1  0  0  0  0
  4 19  1  0  0  0  0
  5 12  1  0  0  0  0
  6  5  1  0  0  0  0
  7  8  1  0  0  0  0
  9  6  1  0  0  0  0
  9  7  2  0  0  0  0
 10  9  1  0  0  0  0
 11 10  1  0  0  0  0
 12 15  1  0  0  0  0
 13 12  1  0  0  0  0
 14 12  1  0  0  0  0
 16  2  2  0  0  0  0
 17 10  2  0  0  0  0
 17 16  1  0  0  0  0
 18 17  1  0  0  0  0
 19  5  1  0  0  0  0
 20 21  1  0  0  0  0
 21  4  1  6  0  0  0
 22 21  1  0  0  0  0
 22 23  1  0  0  0  0
 24 16  1  0  0  0  0
 24 27  1  0  0  0  0
 24 26  1  0  0  0  0
 25 24  1  0  0  0  0
 28 20  1  0  0  0  0
 29 28  1  0  0  0  0
 30 28  2  0  0  0  0
 30 32  1  0  0  0  0
 31 30  1  0  0  0  0
 32 22  2  0  0  0  0
 33 32  1  0  0  0  0
M  END
