1,11
 OpenBabel05122313053D

 19 20  0  0  1  0  0  0  0  0999 V2000
   -1.9683    0.8468   -0.2753 N   0  0  0  0  0  2  0  0  0  0  0  0
   -2.2853    2.1233   -0.4960 C   0  0  0  0  0  0  0  0  0  0  0  0
   -3.6185    2.6032   -0.4780 C   0  0  0  0  0  0  0  0  0  0  0  0
   -4.6527    1.7215   -0.2012 C   0  0  0  0  0  0  0  0  0  0  0  0
   -5.3405   -0.6376    0.3318 C   0  0  0  0  0  0  0  0  0  0  0  0
   -4.9540   -1.9557    0.5399 C   0  0  0  0  0  0  0  0  0  0  0  0
   -3.5964   -2.3493    0.4140 C   0  0  0  0  0  0  0  0  0  0  0  0
   -2.5987   -1.4271    0.0916 C   0  0  0  0  0  0  0  0  0  0  0  0
   -2.9846   -0.0617   -0.0614 C   0  0  1  0  0  3  0  0  0  0  0  0
   -4.3598    0.3462    0.0218 C   0  0  0  0  0  0  0  0  0  0  0  0
   -1.1576   -1.7684   -0.1479 C   0  0  0  0  0  3  0  0  0  0  0  0
   -1.4490    2.8100   -0.6997 H   0  0  0  0  0  0  0  0  0  0  0  0
   -3.8100    3.6688   -0.6692 H   0  0  0  0  0  0  0  0  0  0  0  0
   -5.6968    2.0680   -0.1535 H   0  0  0  0  0  0  0  0  0  0  0  0
   -6.3963   -0.3367    0.4103 H   0  0  0  0  0  0  0  0  0  0  0  0
   -5.7119   -2.7133    0.7918 H   0  0  0  0  0  0  0  0  0  0  0  0
   -3.3224   -3.4066    0.5543 H   0  0  0  0  0  0  0  0  0  0  0  0
   -0.7975   -2.5360    0.5662 H   0  0  0  0  0  0  0  0  0  0  0  0
   -1.0260   -2.1694   -1.1790 H   0  0  0  0  0  0  0  0  0  0  0  0
  2  3  2  0  0  0  0
  2  1  1  0  0  0  0
  3  4  1  0  0  0  0
  4 14  1  0  0  0  0
  4 10  2  0  0  0  0
  5 15  1  0  0  0  0
  5  6  2  0  0  0  0
  6 16  1  0  0  0  0
  7  6  1  0  0  0  0
  7 17  1  0  0  0  0
  8  7  2  0  0  0  0
  9  1  1  1  0  0  0
  9 10  1  0  0  0  0
  9  8  1  0  0  0  0
 10  5  1  0  0  0  0
 11  8  1  0  0  0  0
 11 18  1  0  0  0  0
 12  2  1  0  0  0  0
 13  3  1  0  0  0  0
 19 11  1  0  0  0  0
M  END
