1,4
 OpenBabel05122313053D

 34 35  0  0  1  0  0  0  0  0999 V2000
   -1.6335    1.4321   -0.5673 N   0  0  0  0  0  2  0  0  0  0  0  0
   -0.2041    2.6572    0.8572 N   0  0  0  0  0  0  0  0  0  0  0  0
   -0.0909    3.5389    1.3578 H   0  0  0  0  0  0  0  0  0  0  0  0
    1.0134    0.6798    0.0110 C   0  0  0  0  0  3  0  0  0  0  0  0
    1.0065    1.9711    0.5813 C   0  0  0  0  0  0  0  0  0  0  0  0
    2.2170    2.6237    0.8934 C   0  0  0  0  0  0  0  0  0  0  0  0
    2.1955    3.6279    1.3506 H   0  0  0  0  0  0  0  0  0  0  0  0
    3.4436    2.0128    0.6164 C   0  0  0  0  0  0  0  0  0  0  0  0
    4.3704    2.5456    0.8772 H   0  0  0  0  0  0  0  0  0  0  0  0
    3.4954    0.7475   -0.0092 C   0  0  0  0  0  0  0  0  0  0  0  0
    2.2693    0.1187   -0.3019 C   0  0  0  0  0  0  0  0  0  0  0  0
    2.2645   -0.8598   -0.8002 H   0  0  0  0  0  0  0  0  0  0  0  0
    4.8548    0.1060   -0.3400 C   0  0  0  0  0  0  0  0  0  0  0  0
    5.6581   -0.0873    0.9660 C   0  0  0  0  0  0  0  0  0  0  0  0
    5.1150   -0.7536    1.6673 H   0  0  0  0  0  0  0  0  0  0  0  0
    5.8352    0.8750    1.4864 H   0  0  0  0  0  0  0  0  0  0  0  0
    6.6476   -0.5436    0.7531 H   0  0  0  0  0  0  0  0  0  0  0  0
    4.6988   -1.2652   -1.0205 C   0  0  0  0  0  0  0  0  0  0  0  0
    4.1706   -1.9907   -0.3689 H   0  0  0  0  0  0  0  0  0  0  0  0
    5.6983   -1.6878   -1.2492 H   0  0  0  0  0  0  0  0  0  0  0  0
    4.1365   -1.1909   -1.9725 H   0  0  0  0  0  0  0  0  0  0  0  0
    5.6381    1.0349   -1.2952 C   0  0  0  0  0  0  0  0  0  0  0  0
    5.8155    2.0316   -0.8442 H   0  0  0  0  0  0  0  0  0  0  0  0
    5.0792    1.1874   -2.2403 H   0  0  0  0  0  0  0  0  0  0  0  0
    6.6269    0.5955   -1.5440 H   0  0  0  0  0  0  0  0  0  0  0  0
   -1.3758    2.5575    0.1566 C   0  0  2  0  0  3  0  0  0  0  0  0
   -2.3196    3.6198    0.1835 C   0  0  0  0  0  0  0  0  0  0  0  0
   -2.1128    4.5042    0.8047 H   0  0  0  0  0  0  0  0  0  0  0  0
   -3.4647    3.5444   -0.6026 C   0  0  0  0  0  0  0  0  0  0  0  0
   -4.1936    4.3686   -0.5907 H   0  0  0  0  0  0  0  0  0  0  0  0
   -3.6580    2.4234   -1.4353 C   0  0  0  0  0  0  0  0  0  0  0  0
   -4.5229    2.3419   -2.1071 H   0  0  0  0  0  0  0  0  0  0  0  0
   -2.7149    1.4002   -1.3878 C   0  0  0  0  0  0  0  0  0  0  0  0
   -2.7805    0.4966   -2.0128 H   0  0  0  0  0  0  0  0  0  0  0  0
  1 26  1  0  0  0  0
  2  3  1  0  0  0  0
  4  5  1  0  0  0  0
  5  2  1  0  0  0  0
  5  6  2  0  0  0  0
  6  7  1  0  0  0  0
  8  9  1  0  0  0  0
  8  6  1  0  0  0  0
 10  8  2  0  0  0  0
 11 10  1  0  0  0  0
 11  4  2  0  0  0  0
 12 11  1  0  0  0  0
 13 10  1  0  0  0  0
 13 14  1  0  0  0  0
 14 16  1  0  0  0  0
 14 15  1  0  0  0  0
 17 14  1  0  0  0  0
 18 19  1  0  0  0  0
 18 13  1  0  0  0  0
 20 18  1  0  0  0  0
 21 18  1  0  0  0  0
 22 23  1  0  0  0  0
 22 13  1  0  0  0  0
 24 22  1  0  0  0  0
 25 22  1  0  0  0  0
 26 27  1  0  0  0  0
 26  2  1  1  0  0  0
 27 28  1  0  0  0  0
 29 30  1  0  0  0  0
 29 27  2  0  0  0  0
 31 33  2  0  0  0  0
 31 29  1  0  0  0  0
 32 31  1  0  0  0  0
 33  1  1  0  0  0  0
 34 33  1  0  0  0  0
M  END
