3,4
 OpenBabel05122313053D

 27 28  0  0  0  0  0  0  0  0999 V2000
   -5.8724    0.0206    1.0012 Br  0  0  0  0  0  0  0  0  0  0  0  0
    0.8533    6.3875   -1.2221 Cl  0  0  0  0  0  0  0  0  0  0  0  0
   -1.3364    0.2794    0.8222 N   0  0  0  0  0  2  0  0  0  0  0  0
   -2.4024   -1.2446   -1.1202 C   0  0  0  0  0  2  0  0  0  0  0  0
   -4.3837   -2.2296   -2.1779 C   0  0  0  0  0  0  0  0  0  0  0  0
   -4.8179   -2.8643   -2.9672 H   0  0  0  0  0  0  0  0  0  0  0  0
   -2.9916   -2.0551   -2.1084 C   0  0  0  0  0  0  0  0  0  0  0  0
   -2.3560   -2.5642   -2.8477 H   0  0  0  0  0  0  0  0  0  0  0  0
   -5.2453   -1.6089   -1.2567 C   0  0  0  0  0  0  0  0  0  0  0  0
   -6.3335   -1.7486   -1.3108 H   0  0  0  0  0  0  0  0  0  0  0  0
   -4.6857   -0.8064   -0.2581 C   0  0  0  0  0  0  0  0  0  0  0  0
   -3.2854   -0.6141   -0.1748 C   0  0  0  0  0  0  0  0  0  0  0  0
   -2.6416    0.2265    0.8085 C   0  0  0  0  0  0  0  0  0  0  0  0
   -3.2395    0.8428    1.5077 H   0  0  0  0  0  0  0  0  0  0  0  0
   -0.6984    1.2715    1.6690 C   0  0  0  0  0  0  0  0  0  0  0  0
    0.2282    0.8384    2.1018 H   0  0  0  0  0  0  0  0  0  0  0  0
   -1.3629    1.5293    2.5267 H   0  0  0  0  0  0  0  0  0  0  0  0
   -0.3423    2.5471    0.9232 C   0  0  0  0  0  0  0  0  0  0  0  0
    0.4317    3.5254    1.5762 C   0  0  0  0  0  0  0  0  0  0  0  0
    0.7870    3.3452    2.6031 H   0  0  0  0  0  0  0  0  0  0  0  0
    0.7793    4.7186    0.9344 C   0  0  0  0  0  0  0  0  0  0  0  0
    1.3973    5.4736    1.4397 H   0  0  0  0  0  0  0  0  0  0  0  0
    0.3546    4.9344   -0.3865 C   0  0  0  0  0  0  0  0  0  0  0  0
   -0.4279    3.9818   -1.0526 C   0  0  0  0  0  0  0  0  0  0  0  0
   -0.7502    4.1637   -2.0873 H   0  0  0  0  0  0  0  0  0  0  0  0
   -0.7730    2.7926   -0.3931 C   0  0  0  0  0  0  0  0  0  0  0  0
   -1.3623    2.0329   -0.9266 H   0  0  0  0  0  0  0  0  0  0  0  0
  2 23  1  0  0  0  0
  3 15  1  0  0  0  0
  4 12  1  0  0  0  0
  5  7  2  0  0  0  0
  5  9  1  0  0  0  0
  6  5  1  0  0  0  0
  7  4  1  0  0  0  0
  8  7  1  0  0  0  0
  9 11  2  0  0  0  0
 10  9  1  0  0  0  0
 11 12  1  0  0  0  0
 11  1  1  0  0  0  0
 12 13  2  0  0  0  0
 13  3  1  0  0  0  0
 13 14  1  0  0  0  0
 15 16  1  0  0  0  0
 15 17  1  0  0  0  0
 18 19  1  0  0  0  0
 18 15  1  0  0  0  0
 19 20  1  0  0  0  0
 21 22  1  0  0  0  0
 21 19  2  0  0  0  0
 23 21  1  0  0  0  0
 24 26  1  0  0  0  0
 24 23  2  0  0  0  0
 25 24  1  0  0  0  0
 26 18  2  0  0  0  0
 27 26  1  0  0  0  0
M  END
