2,3
 OpenBabel05122313053D

 45 47  0  0  0  0  0  0  0  0999 V2000
   -1.5212   -0.2847   -0.1447 Si  0  0  0  0  0  0  0  0  0  0  0  0
    0.0424    1.8497   -0.9567 N   0  0  0  0  0  0  0  0  0  0  0  0
   -0.1794   -1.1692   -1.0914 C   0  0  0  0  0  3  0  0  0  0  0  0
   -0.4421   -1.2455   -2.1710 H   0  0  0  0  0  0  0  0  0  0  0  0
    0.0675   -2.1867   -0.7298 H   0  0  0  0  0  0  0  0  0  0  0  0
   -1.1638   -0.1718    1.7107 C   0  0  0  0  0  0  0  0  0  0  0  0
   -2.0278    0.5469    2.5700 C   0  0  0  0  0  0  0  0  0  0  0  0
   -2.9447    1.0067    2.1647 H   0  0  0  0  0  0  0  0  0  0  0  0
   -1.7384    0.6906    3.9359 C   0  0  0  0  0  0  0  0  0  0  0  0
   -2.4219    1.2578    4.5869 H   0  0  0  0  0  0  0  0  0  0  0  0
   -0.5761    0.1111    4.4715 C   0  0  0  0  0  0  0  0  0  0  0  0
   -0.3470    0.2234    5.5425 H   0  0  0  0  0  0  0  0  0  0  0  0
    0.2909   -0.6121    3.6368 C   0  0  0  0  0  0  0  0  0  0  0  0
    1.2041   -1.0704    4.0464 H   0  0  0  0  0  0  0  0  0  0  0  0
   -0.0018   -0.7495    2.2700 C   0  0  0  0  0  0  0  0  0  0  0  0
    0.6977   -1.2986    1.6206 H   0  0  0  0  0  0  0  0  0  0  0  0
   -3.2844   -0.9404   -0.4011 C   0  0  0  0  0  0  0  0  0  0  0  0
   -3.8784   -0.8802   -1.6840 C   0  0  0  0  0  0  0  0  0  0  0  0
   -3.3260   -0.4297   -2.5257 H   0  0  0  0  0  0  0  0  0  0  0  0
   -5.1634   -1.3919   -1.9176 C   0  0  0  0  0  0  0  0  0  0  0  0
   -5.6057   -1.3313   -2.9242 H   0  0  0  0  0  0  0  0  0  0  0  0
   -5.8838   -1.9841   -0.8672 C   0  0  0  0  0  0  0  0  0  0  0  0
   -6.8922   -2.3875   -1.0474 H   0  0  0  0  0  0  0  0  0  0  0  0
   -5.3103   -2.0626    0.4114 C   0  0  0  0  0  0  0  0  0  0  0  0
   -5.8681   -2.5303    1.2376 H   0  0  0  0  0  0  0  0  0  0  0  0
   -4.0248   -1.5458    0.6396 C   0  0  0  0  0  0  0  0  0  0  0  0
   -3.5874   -1.6150    1.6484 H   0  0  0  0  0  0  0  0  0  0  0  0
   -1.3946    1.4432   -0.9591 C   0  0  0  0  0  0  0  0  0  0  0  0
   -1.7107    1.3066   -2.0147 H   0  0  0  0  0  0  0  0  0  0  0  0
   -2.0571    2.2260   -0.5337 H   0  0  0  0  0  0  0  0  0  0  0  0
    0.4022    2.5868    0.2942 C   0  0  0  0  0  0  0  0  0  0  0  0
    1.5087    2.6631    0.3157 H   0  0  0  0  0  0  0  0  0  0  0  0
    0.1065    1.9592    1.1555 H   0  0  0  0  0  0  0  0  0  0  0  0
   -0.2150    3.9882    0.3856 C   0  0  0  0  0  0  0  0  0  0  0  0
   -1.3182    3.9162    0.5017 H   0  0  0  0  0  0  0  0  0  0  0  0
    0.1573    4.4707    1.3128 H   0  0  0  0  0  0  0  0  0  0  0  0
    0.1277    4.8294   -0.8499 C   0  0  0  0  0  0  0  0  0  0  0  0
    1.2207    5.0407   -0.8547 H   0  0  0  0  0  0  0  0  0  0  0  0
   -0.3830    5.8139   -0.8125 H   0  0  0  0  0  0  0  0  0  0  0  0
   -0.2394    4.0719   -2.1319 C   0  0  0  0  0  0  0  0  0  0  0  0
   -1.3438    3.9744   -2.2156 H   0  0  0  0  0  0  0  0  0  0  0  0
    0.0940    4.6267   -3.0335 H   0  0  0  0  0  0  0  0  0  0  0  0
    0.4046    2.6809   -2.1413 C   0  0  0  0  0  0  0  0  0  0  0  0
    0.1349    2.1074   -3.0498 H   0  0  0  0  0  0  0  0  0  0  0  0
    1.5118    2.7802   -2.1364 H   0  0  0  0  0  0  0  0  0  0  0  0
  1  6  1  0  0  0  0
  2 31  1  0  0  0  0
  3  5  1  0  0  0  0
  3  1  1  0  0  0  0
  4  3  1  0  0  0  0
  6 15  2  0  0  0  0
  6  7  1  0  0  0  0
  7  9  2  0  0  0  0
  8  7  1  0  0  0  0
  9 11  1  0  0  0  0
  9 10  1  0  0  0  0
 11 12  1  0  0  0  0
 13 14  1  0  0  0  0
 13 11  2  0  0  0  0
 15 13  1  0  0  0  0
 16 15  1  0  0  0  0
 17  1  1  0  0  0  0
 17 26  1  0  0  0  0
 18 17  2  0  0  0  0
 19 18  1  0  0  0  0
 20 18  1  0  0  0  0
 20 22  2  0  0  0  0
 21 20  1  0  0  0  0
 22 24  1  0  0  0  0
 23 22  1  0  0  0  0
 24 26  2  0  0  0  0
 24 25  1  0  0  0  0
 26 27  1  0  0  0  0
 28  2  1  0  0  0  0
 28 30  1  0  0  0  0
 28  1  1  0  0  0  0
 29 28  1  0  0  0  0
 31 32  1  0  0  0  0
 31 34  1  0  0  0  0
 31 33  1  0  0  0  0
 34 35  1  0  0  0  0
 34 36  1  0  0  0  0
 37 39  1  0  0  0  0
 37 34  1  0  0  0  0
 38 37  1  0  0  0  0
 40 37  1  0  0  0  0
 41 40  1  0  0  0  0
 42 40  1  0  0  0  0
 43 45  1  0  0  0  0
 43 40  1  0  0  0  0
 43  2  1  0  0  0  0
 44 43  1  0  0  0  0
M  END
