3,6
 OpenBabel05122313053D

 26 28  0  0  1  0  0  0  0  0999 V2000
    2.0074   -2.1441    2.9774 S   0  0  0  0  0  0  0  0  0  0  0  0
    0.6735   -1.1836    2.3315 C   0  0  1  0  0  3  0  0  0  0  0  0
    0.9850   -0.5780    1.1926 N   0  0  0  0  0  2  0  0  0  0  0  0
    2.2785   -0.8678    0.7959 C   0  0  0  0  0  0  0  0  0  0  0  0
    2.7619   -0.3399   -0.4142 C   0  0  0  0  0  0  0  0  0  0  0  0
    1.8363    0.4685   -1.1406 C   0  0  0  0  0  3  0  0  0  0  0  0
    2.3057    0.9671   -2.3620 C   0  0  0  0  0  0  0  0  0  0  0  0
    1.6533    1.5854   -2.9980 H   0  0  0  0  0  0  0  0  0  0  0  0
    3.6270    0.6719   -2.8031 C   0  0  0  0  0  0  0  0  0  0  0  0
    3.9623    1.0843   -3.7685 H   0  0  0  0  0  0  0  0  0  0  0  0
    4.5130   -0.1216   -2.0697 C   0  0  0  0  0  0  0  0  0  0  0  0
    5.5248   -0.3360   -2.4398 H   0  0  0  0  0  0  0  0  0  0  0  0
    4.0825   -0.6625   -0.8279 C   0  0  0  0  0  0  0  0  0  0  0  0
    4.8669   -1.5215    0.0414 C   0  0  0  0  0  0  0  0  0  0  0  0
    4.3586   -2.0399    1.2430 C   0  0  0  0  0  0  0  0  0  0  0  0
    4.9662   -2.6942    1.8794 H   0  0  0  0  0  0  0  0  0  0  0  0
    3.0269   -1.7027    1.6172 C   0  0  0  0  0  0  0  0  0  0  0  0
   -0.6380   -1.1097    3.0345 C   0  0  0  0  0  0  0  0  0  0  0  0
   -0.8651   -0.0664    3.3346 H   0  0  0  0  0  0  0  0  0  0  0  0
   -0.6396   -1.7440    3.9400 H   0  0  0  0  0  0  0  0  0  0  0  0
   -1.4560   -1.4448    2.3645 H   0  0  0  0  0  0  0  0  0  0  0  0
    6.9657   -2.6147    0.3532 C   0  0  0  0  0  0  0  0  0  0  0  0
    7.1592   -2.1889    1.3638 H   0  0  0  0  0  0  0  0  0  0  0  0
    7.9221   -2.6872   -0.1968 H   0  0  0  0  0  0  0  0  0  0  0  0
    6.5377   -3.6356    0.4739 H   0  0  0  0  0  0  0  0  0  0  0  0
    6.1222   -1.7804   -0.4139 O   0  0  0  0  0  0  0  0  0  0  0  0
  2  1  1  0  0  0  0
  2 18  1  6  0  0  0
  3  2  1  0  0  0  0
  4  3  1  0  0  0  0
  4 17  1  0  0  0  0
  5  4  2  0  0  0  0
  6  5  1  0  0  0  0
  7  6  2  0  0  0  0
  8  7  1  0  0  0  0
  9  7  1  0  0  0  0
  9 11  2  0  0  0  0
 10  9  1  0  0  0  0
 11 13  1  0  0  0  0
 12 11  1  0  0  0  0
 13  5  1  0  0  0  0
 13 14  2  0  0  0  0
 14 15  1  0  0  0  0
 15 17  2  0  0  0  0
 15 16  1  0  0  0  0
 17  1  1  0  0  0  0
 18 19  1  0  0  0  0
 18 20  1  0  0  0  0
 21 18  1  0  0  0  0
 22 25  1  0  0  0  0
 22 23  1  0  0  0  0
 24 22  1  0  0  0  0
 26 14  1  0  0  0  0
 26 22  1  0  0  0  0
M  END
