1,2
q = -2.0, confidence = 0.818

 25 26  0  0  1  0  0  0  0  0999 V2000
    0.6418   -1.4860   -0.5160 N   0  0  0  0  0  2  0  0  0  0  0  0
    0.9890    0.9667   -0.0255 C   0  0  0  0  0  3  0  0  0  0  0  0
    1.0511    2.3578    0.2235 C   0  0  0  0  0  0  0  0  0  0  0  0
    2.2754    3.0374    0.2167 C   0  0  0  0  0  0  0  0  0  0  0  0
    3.4684    2.3426   -0.0425 C   0  0  0  0  0  0  0  0  0  0  0  0
    3.4569    0.9583   -0.2978 C   0  0  0  0  0  0  0  0  0  0  0  0
    2.2138    0.2853   -0.2800 C   0  0  0  0  0  0  0  0  0  0  0  0
    2.0664   -1.1908   -0.5374 C   0  0  1  0  0  0  0  0  0  0  0  0
    2.8191   -2.0947    0.4689 C   0  0  0  0  0  0  0  0  0  0  0  0
    4.3351   -2.1797    0.2662 C   0  0  0  0  0  0  0  0  0  0  0  0
    5.1129   -0.8712    0.4413 C   0  0  0  0  0  0  0  0  0  0  0  0
    4.7558    0.2316   -0.5736 C   0  0  0  0  0  0  0  0  0  0  0  0
    0.4406   -2.4778   -0.6900 H   0  0  0  0  0  0  0  0  0  0  0  0
    0.1294    2.9236    0.4241 H   0  0  0  0  0  0  0  0  0  0  0  0
    2.3050    4.1214    0.4120 H   0  0  0  0  0  0  0  0  0  0  0  0
    4.4295    2.8815   -0.0531 H   0  0  0  0  0  0  0  0  0  0  0  0
    2.4729   -1.4237   -1.5563 H   0  0  0  0  0  0  0  0  0  0  0  0
    2.5747   -1.7439    1.4945 H   0  0  0  0  0  0  0  0  0  0  0  0
    2.3985   -3.1207    0.3782 H   0  0  0  0  0  0  0  0  0  0  0  0
    4.7409   -2.9378    0.9700 H   0  0  0  0  0  0  0  0  0  0  0  0
    4.5369   -2.5780   -0.7548 H   0  0  0  0  0  0  0  0  0  0  0  0
    4.9648   -0.4767    1.4704 H   0  0  0  0  0  0  0  0  0  0  0  0
    6.1965   -1.0990    0.3489 H   0  0  0  0  0  0  0  0  0  0  0  0
    4.7260   -0.2222   -1.5917 H   0  0  0  0  0  0  0  0  0  0  0  0
    5.5747    0.9793   -0.5993 H   0  0  0  0  0  0  0  0  0  0  0  0
  2  3  1  0  0  0  0
  3 14  1  0  0  0  0
  4  3  2  0  0  0  0
  4 15  1  0  0  0  0
  5  4  1  0  0  0  0
  6  7  1  0  0  0  0
  6  5  2  0  0  0  0
  7  2  2  0  0  0  0
  8 17  1  6  0  0  0
  8  1  1  0  0  0  0
  8  7  1  0  0  0  0
  8  9  1  0  0  0  0
  9 18  1  0  0  0  0
 10 11  1  0  0  0  0
 10  9  1  0  0  0  0
 10 20  1  0  0  0  0
 11 22  1  0  0  0  0
 12  6  1  0  0  0  0
 12 11  1  0  0  0  0
 13  1  1  0  0  0  0
 16  5  1  0  0  0  0
 19  9  1  0  0  0  0
 21 10  1  0  0  0  0
 23 11  1  0  0  0  0
 24 12  1  0  0  0  0
 25 12  1  0  0  0  0
M  END
