1,18
 OpenBabel05122313053D

 22 22  0  0  1  0  0  0  0  0999 V2000
   -0.9072   -2.3569   -0.2990 N   0  0  0  0  0  0  0  0  0  0  0  0
   -1.0078   -2.5458   -1.3081 H   0  0  0  0  0  0  0  0  0  0  0  0
   -0.2907   -3.0959    0.0782 H   0  0  0  0  0  0  0  0  0  0  0  0
   -2.0808   -2.5765    1.8662 C   0  0  0  0  0  0  0  0  0  0  0  0
   -1.4222   -1.7985    2.3025 H   0  0  0  0  0  0  0  0  0  0  0  0
   -1.6375   -3.5748    2.0656 H   0  0  0  0  0  0  0  0  0  0  0  0
   -3.0645   -2.5267    2.3709 H   0  0  0  0  0  0  0  0  0  0  0  0
   -2.2551   -2.3251    0.3664 C   0  0  1  0  0  0  0  0  0  0  0  0
   -2.8898   -3.1309   -0.0655 H   0  0  0  0  0  0  0  0  0  0  0  0
   -2.8386   -0.9602    0.0690 C   0  0  0  0  0  0  0  0  0  0  0  0
   -4.2181   -0.7088    0.0523 C   0  0  0  0  0  0  0  0  0  0  0  0
   -4.9312   -1.5315    0.2281 H   0  0  0  0  0  0  0  0  0  0  0  0
   -4.6977    0.5888   -0.1848 C   0  0  0  0  0  0  0  0  0  0  0  0
   -5.7827    0.7785   -0.1935 H   0  0  0  0  0  0  0  0  0  0  0  0
   -3.8027    1.6502   -0.4255 C   0  0  0  0  0  0  0  0  0  0  0  0
   -2.4164    1.3824   -0.4093 C   0  0  0  0  0  0  0  0  0  0  0  0
   -1.7241    2.2157   -0.6142 H   0  0  0  0  0  0  0  0  0  0  0  0
   -1.9061    0.0945   -0.1520 C   0  0  0  0  0  3  0  0  0  0  0  0
   -4.3114    3.0368   -0.7378 C   0  0  0  0  0  0  0  0  0  0  0  0
   -4.4152    3.1877   -1.8344 H   0  0  0  0  0  0  0  0  0  0  0  0
   -3.6174    3.8187   -0.3692 H   0  0  0  0  0  0  0  0  0  0  0  0
   -5.3077    3.2194   -0.2883 H   0  0  0  0  0  0  0  0  0  0  0  0
  1  3  1  0  0  0  0
  1  8  1  0  0  0  0
  2  1  1  0  0  0  0
  4  6  1  0  0  0  0
  4  5  1  0  0  0  0
  4  7  1  0  0  0  0
  8  9  1  6  0  0  0
  8  4  1  0  0  0  0
 10  8  1  0  0  0  0
 11 10  1  0  0  0  0
 11 12  1  0  0  0  0
 13 11  2  0  0  0  0
 14 13  1  0  0  0  0
 15 16  2  0  0  0  0
 15 13  1  0  0  0  0
 16 18  1  0  0  0  0
 17 16  1  0  0  0  0
 18 10  2  0  0  0  0
 19 15  1  0  0  0  0
 19 21  1  0  0  0  0
 19 22  1  0  0  0  0
 20 19  1  0  0  0  0
M  END
