3,5
 OpenBabel05122313053D

 31 32  0  0  0  0  0  0  0  0999 V2000
   -5.6660   -1.6183   -0.0742 O   0  0  0  0  0  0  0  0  0  0  0  0
    5.9589   -1.9923   -0.5491 O   0  0  0  0  0  0  0  0  0  0  0  0
    0.4124   -1.5498    0.0002 N   0  0  0  0  0  2  0  0  0  0  0  0
   -0.2465   -2.6468    0.1652 N   0  0  0  0  0  0  0  0  0  0  0  0
   -2.0774   -1.1044   -0.0693 C   0  0  0  0  0  2  0  0  0  0  0  0
   -1.6034   -2.4408    0.1569 C   0  0  0  0  0  0  0  0  0  0  0  0
   -2.5131   -3.5095    0.3117 C   0  0  0  0  0  0  0  0  0  0  0  0
   -3.8867   -3.2669    0.2432 C   0  0  0  0  0  0  0  0  0  0  0  0
   -4.3540   -1.9458    0.0152 C   0  0  0  0  0  0  0  0  0  0  0  0
   -3.4437   -0.8667   -0.1358 C   0  0  0  0  0  0  0  0  0  0  0  0
    1.8193   -1.6837   -0.0922 C   0  0  0  0  0  0  0  0  0  0  0  0
    2.5291   -0.8629   -0.9960 C   0  0  0  0  0  0  0  0  0  0  0  0
    3.9099   -0.9981   -1.1333 C   0  0  0  0  0  0  0  0  0  0  0  0
    4.6151   -1.9460   -0.3575 C   0  0  0  0  0  0  0  0  0  0  0  0
    3.9067   -2.7679    0.5485 C   0  0  0  0  0  0  0  0  0  0  0  0
    2.5184   -2.6398    0.6693 C   0  0  0  0  0  0  0  0  0  0  0  0
    6.7161   -2.9349    0.1882 C   0  0  0  0  0  0  0  0  0  0  0  0
   -6.6418   -2.6364    0.0607 C   0  0  0  0  0  0  0  0  0  0  0  0
   -2.1250   -4.5240    0.4846 H   0  0  0  0  0  0  0  0  0  0  0  0
   -4.5906   -4.1002    0.3638 H   0  0  0  0  0  0  0  0  0  0  0  0
   -3.8341    0.1484   -0.3018 H   0  0  0  0  0  0  0  0  0  0  0  0
    1.9720   -0.1344   -1.6033 H   0  0  0  0  0  0  0  0  0  0  0  0
    4.4759   -0.3784   -1.8432 H   0  0  0  0  0  0  0  0  0  0  0  0
    4.4307   -3.5092    1.1663 H   0  0  0  0  0  0  0  0  0  0  0  0
    1.9511   -3.2805    1.3584 H   0  0  0  0  0  0  0  0  0  0  0  0
    6.6425   -2.7590    1.2848 H   0  0  0  0  0  0  0  0  0  0  0  0
    7.7680   -2.8053   -0.1264 H   0  0  0  0  0  0  0  0  0  0  0  0
    6.3998   -3.9798   -0.0278 H   0  0  0  0  0  0  0  0  0  0  0  0
   -7.6246   -2.1419   -0.0487 H   0  0  0  0  0  0  0  0  0  0  0  0
   -6.5378   -3.4152   -0.7270 H   0  0  0  0  0  0  0  0  0  0  0  0
   -6.5920   -3.1268    1.0583 H   0  0  0  0  0  0  0  0  0  0  0  0
  1  9  1  0  0  0  0
  1 18  1  0  0  0  0
  2 14  1  0  0  0  0
  2 17  1  0  0  0  0
  3  4  1  0  0  0  0
  5  6  1  0  0  0  0
  6  4  2  0  0  0  0
  6  7  1  0  0  0  0
  7 19  1  0  0  0  0
  8  7  2  0  0  0  0
  8 20  1  0  0  0  0
  9  8  1  0  0  0  0
 10  5  1  0  0  0  0
 10  9  2  0  0  0  0
 11  3  1  0  0  0  0
 11 16  1  0  0  0  0
 12 11  2  0  0  0  0
 13 12  1  0  0  0  0
 13 14  2  0  0  0  0
 14 15  1  0  0  0  0
 15 16  2  0  0  0  0
 15 24  1  0  0  0  0
 16 25  1  0  0  0  0
 17 26  1  0  0  0  0
 18 31  1  0  0  0  0
 21 10  1  0  0  0  0
 22 12  1  0  0  0  0
 23 13  1  0  0  0  0
 27 17  1  0  0  0  0
 28 17  1  0  0  0  0
 29 18  1  0  0  0  0
 30 18  1  0  0  0  0
M  END
