1,6
 OpenBabel05122313053D

 21 22  0  0  1  0  0  0  0  0999 V2000
   -0.1321    1.5150    0.1813 C   0  0  0  0  0  2  0  0  0  0  0  0
   -1.9548    2.9112    0.0974 C   0  0  0  0  0  0  0  0  0  0  0  0
   -3.0078    3.2000    0.0670 H   0  0  0  0  0  0  0  0  0  0  0  0
   -1.5157    1.5887    0.1577 N   0  0  0  0  0  0  0  0  0  0  0  0
    0.2693    2.8119    0.1469 N   0  0  0  0  0  0  0  0  0  0  0  0
   -1.4954   -0.7245    0.1486 N   0  0  0  0  0  2  0  0  0  0  0  0
   -0.8221    3.6777    0.0887 C   0  0  0  0  0  0  0  0  0  0  0  0
   -0.7040    4.7646    0.0491 H   0  0  0  0  0  0  0  0  0  0  0  0
   -4.2931   -0.8780    0.0762 C   0  0  0  0  0  0  0  0  0  0  0  0
   -5.3909   -0.9356    0.0454 H   0  0  0  0  0  0  0  0  0  0  0  0
   -2.2566    0.3991    0.1313 C   0  0  1  0  0  3  0  0  0  0  0  0
   -2.1217   -1.9221    0.1280 C   0  0  0  0  0  0  0  0  0  0  0  0
   -1.4648   -2.8032    0.1341 H   0  0  0  0  0  0  0  0  0  0  0  0
   -3.6584    0.3677    0.0972 C   0  0  0  0  0  0  0  0  0  0  0  0
   -4.2392    1.2991    0.0832 H   0  0  0  0  0  0  0  0  0  0  0  0
    1.6675    3.2157    0.0849 C   0  0  0  0  0  0  0  0  0  0  0  0
    2.2430    2.6837    0.8637 H   0  0  0  0  0  0  0  0  0  0  0  0
    1.7394    4.3055    0.2515 H   0  0  0  0  0  0  0  0  0  0  0  0
    2.0926    2.9588   -0.9047 H   0  0  0  0  0  0  0  0  0  0  0  0
   -3.5122   -2.0447    0.0927 C   0  0  0  0  0  0  0  0  0  0  0  0
   -3.9703   -3.0429    0.0741 H   0  0  0  0  0  0  0  0  0  0  0  0
  2  4  1  0  0  0  0
  3  2  1  0  0  0  0
  4  1  1  0  0  0  0
  5  1  1  0  0  0  0
  7  2  2  0  0  0  0
  7  5  1  0  0  0  0
  8  7  1  0  0  0  0
  9 20  1  0  0  0  0
  9 14  2  0  0  0  0
 10  9  1  0  0  0  0
 11  6  1  0  0  0  0
 11  4  1  1  0  0  0
 12 13  1  0  0  0  0
 12  6  1  0  0  0  0
 14 11  1  0  0  0  0
 15 14  1  0  0  0  0
 16  5  1  0  0  0  0
 16 18  1  0  0  0  0
 16 17  1  0  0  0  0
 19 16  1  0  0  0  0
 20 12  2  0  0  0  0
 21 20  1  0  0  0  0
M  END
