2,3
 OpenBabel05122313053D

 40 42  0  0  0  0  0  0  0  0999 V2000
   -4.0666    0.3336    2.6330 F   0  0  0  0  0  0  0  0  0  0  0  0
   -0.3900    0.2378    1.7325 N   0  0  0  0  0  2  0  0  0  0  0  0
    0.1386    1.2788   -0.7900 C   0  0  0  0  0  2  0  0  0  0  0  0
    1.3616    1.7899   -1.2632 C   0  0  0  0  0  0  0  0  0  0  0  0
    2.2453    1.1314   -1.2784 H   0  0  0  0  0  0  0  0  0  0  0  0
    1.5095    3.1239   -1.6947 C   0  0  0  0  0  0  0  0  0  0  0  0
    2.8551    3.6265   -2.1535 C   0  0  0  0  0  0  0  0  0  0  0  0
    2.8219    4.6965   -2.4370 H   0  0  0  0  0  0  0  0  0  0  0  0
    3.2229    3.0529   -3.0301 H   0  0  0  0  0  0  0  0  0  0  0  0
    3.6159    3.5052   -1.3534 H   0  0  0  0  0  0  0  0  0  0  0  0
    0.3762    3.9592   -1.6691 C   0  0  0  0  0  0  0  0  0  0  0  0
    0.4610    5.0068   -1.9985 H   0  0  0  0  0  0  0  0  0  0  0  0
   -0.8561    3.4690   -1.2195 C   0  0  0  0  0  0  0  0  0  0  0  0
   -1.7311    4.1376   -1.1928 H   0  0  0  0  0  0  0  0  0  0  0  0
   -0.9927    2.1379   -0.7621 C   0  0  0  0  0  0  0  0  0  0  0  0
   -2.3327    1.6857   -0.2959 C   0  0  0  0  0  0  0  0  0  0  0  0
   -2.5505    1.1139    0.9942 C   0  0  0  0  0  0  0  0  0  0  0  0
   -3.8749    0.8393    1.3964 C   0  0  0  0  0  0  0  0  0  0  0  0
   -4.9810    1.0515    0.5732 C   0  0  0  0  0  0  0  0  0  0  0  0
   -5.9838    0.7887    0.9371 H   0  0  0  0  0  0  0  0  0  0  0  0
   -4.7562    1.5920   -0.7008 C   0  0  0  0  0  0  0  0  0  0  0  0
   -5.6079    1.7658   -1.3755 H   0  0  0  0  0  0  0  0  0  0  0  0
   -3.4571    1.9136   -1.1185 C   0  0  0  0  0  0  0  0  0  0  0  0
   -3.2924    2.3456   -2.1160 H   0  0  0  0  0  0  0  0  0  0  0  0
   -1.4950    0.8632    1.9837 C   0  0  0  0  0  0  0  0  0  0  0  0
   -1.6831    1.1860    3.0275 H   0  0  0  0  0  0  0  0  0  0  0  0
    0.6229    0.0696    2.7837 C   0  0  0  0  0  0  0  0  0  0  0  0
    0.6965   -1.0225    2.9693 H   0  0  0  0  0  0  0  0  0  0  0  0
    0.2814    0.5798    3.7102 H   0  0  0  0  0  0  0  0  0  0  0  0
    1.9563    0.6119    2.3119 C   0  0  0  0  0  0  0  0  0  0  0  0
    2.1527    1.9994    2.1869 C   0  0  0  0  0  0  0  0  0  0  0  0
    1.3432    2.6928    2.4649 H   0  0  0  0  0  0  0  0  0  0  0  0
    3.3595    2.5040    1.6822 C   0  0  0  0  0  0  0  0  0  0  0  0
    3.4985    3.5910    1.5810 H   0  0  0  0  0  0  0  0  0  0  0  0
    4.3830    1.6226    1.2977 C   0  0  0  0  0  0  0  0  0  0  0  0
    5.3306    2.0177    0.9003 H   0  0  0  0  0  0  0  0  0  0  0  0
    4.1938    0.2364    1.4204 C   0  0  0  0  0  0  0  0  0  0  0  0
    4.9921   -0.4586    1.1183 H   0  0  0  0  0  0  0  0  0  0  0  0
    2.9836   -0.2675    1.9211 C   0  0  0  0  0  0  0  0  0  0  0  0
    2.8140   -1.3533    1.9923 H   0  0  0  0  0  0  0  0  0  0  0  0
  2 25  1  0  0  0  0
  2 27  1  0  0  0  0
  3 15  1  0  0  0  0
  4  3  1  0  0  0  0
  5  4  1  0  0  0  0
  6 11  1  0  0  0  0
  6  4  2  0  0  0  0
  7  6  1  0  0  0  0
  7 10  1  0  0  0  0
  8  7  1  0  0  0  0
  9  7  1  0  0  0  0
 11 13  2  0  0  0  0
 12 11  1  0  0  0  0
 13 14  1  0  0  0  0
 13 15  1  0  0  0  0
 15 16  2  0  0  0  0
 16 17  1  0  0  0  0
 17 18  1  0  0  0  0
 17 25  2  0  0  0  0
 18  1  1  0  0  0  0
 19 20  1  0  0  0  0
 19 18  2  0  0  0  0
 21 19  1  0  0  0  0
 22 21  1  0  0  0  0
 23 21  2  0  0  0  0
 23 16  1  0  0  0  0
 24 23  1  0  0  0  0
 25 26  1  0  0  0  0
 27 28  1  0  0  0  0
 27 29  1  0  0  0  0
 30 27  1  0  0  0  0
 31 30  1  0  0  0  0
 31 32  1  0  0  0  0
 33 31  2  0  0  0  0
 34 33  1  0  0  0  0
 35 37  2  0  0  0  0
 35 33  1  0  0  0  0
 36 35  1  0  0  0  0
 37 39  1  0  0  0  0
 38 37  1  0  0  0  0
 39 40  1  0  0  0  0
 39 30  2  0  0  0  0
M  END
