2,5
 OpenBabel05122313053D

 15 15  0  0  0  0  0  0  0  0999 V2000
   -1.6276   -2.4114    0.0006 O   0  0  0  0  0  0  0  0  0  0  0  0
   -1.6970    1.5354   -0.0002 N   0  0  0  0  0  0  0  0  0  0  0  0
   -1.5992    2.1493    0.8244 H   0  0  0  0  0  0  0  0  0  0  0  0
   -1.5990    2.1489   -0.8250 H   0  0  0  0  0  0  0  0  0  0  0  0
   -1.6965   -1.1966    0.0003 C   0  0  0  0  0  3  0  0  0  0  0  0
   -3.0219   -0.4947   -0.0000 C   0  0  0  0  0  0  0  0  0  0  0  0
   -3.0153    0.9085   -0.0002 C   0  0  0  0  0  0  0  0  0  0  0  0
   -4.2079    1.6394   -0.0004 C   0  0  0  0  0  0  0  0  0  0  0  0
   -4.1965    2.7400   -0.0006 H   0  0  0  0  0  0  0  0  0  0  0  0
   -5.4270    0.9402   -0.0004 C   0  0  0  0  0  0  0  0  0  0  0  0
   -6.3725    1.5025   -0.0006 H   0  0  0  0  0  0  0  0  0  0  0  0
   -5.4468   -0.4668   -0.0002 C   0  0  0  0  0  0  0  0  0  0  0  0
   -6.4091   -0.9993   -0.0003 H   0  0  0  0  0  0  0  0  0  0  0  0
   -4.2480   -1.1895   -0.0000 C   0  0  0  0  0  0  0  0  0  0  0  0
   -4.2351   -2.2889    0.0001 H   0  0  0  0  0  0  0  0  0  0  0  0
  2  3  1  0  0  0  0
  4  2  1  0  0  0  0
  5  1  2  0  0  0  0
  6  5  1  0  0  0  0
  7  2  1  0  0  0  0
  7  6  2  0  0  0  0
  8  7  1  0  0  0  0
  9  8  1  0  0  0  0
 10  8  2  0  0  0  0
 10 12  1  0  0  0  0
 11 10  1  0  0  0  0
 12 14  2  0  0  0  0
 13 12  1  0  0  0  0
 14  6  1  0  0  0  0
 14 15  1  0  0  0  0
M  END
