3,4
 OpenBabel05122313053D

 44 45  0  0  1  0  0  0  0  0999 V2000
    1.1772    0.8392   -0.0882 C   0  0  1  0  0  0  0  0  0  0  0  0
    2.5432    0.9584    0.4072 N   0  0  0  0  0  0  0  0  0  0  0  0
    0.3807   -0.3480    0.5138 C   0  0  0  0  0  3  0  0  0  0  0  0
   -0.9564    1.9509    0.0315 N   0  0  0  0  0  2  0  0  0  0  0  0
    0.7475   -1.7095   -0.0309 C   0  0  0  0  0  0  0  0  0  0  0  0
   -1.2889    4.3090    0.2810 C   0  0  0  0  0  0  0  0  0  0  0  0
   -1.9876    5.1545    0.3481 H   0  0  0  0  0  0  0  0  0  0  0  0
    3.9623    0.3567   -1.5014 C   0  0  0  0  0  0  0  0  0  0  0  0
    4.2101   -0.8309    0.6491 C   0  0  0  0  0  0  0  0  0  0  0  0
    3.5603    0.1523   -0.1504 C   0  0  0  0  0  0  0  0  0  0  0  0
    0.3898    2.1129    0.1018 C   0  0  2  0  0  3  0  0  0  0  0  0
   -1.7856    3.0147    0.1154 C   0  0  0  0  0  0  0  0  0  0  0  0
   -2.8584    2.7826    0.0349 H   0  0  0  0  0  0  0  0  0  0  0  0
    0.9483    3.3860    0.2745 C   0  0  0  0  0  0  0  0  0  0  0  0
    2.0423    3.4594    0.3471 H   0  0  0  0  0  0  0  0  0  0  0  0
    0.1020    4.4955    0.3673 C   0  0  0  0  0  0  0  0  0  0  0  0
    0.5207    5.5034    0.5086 H   0  0  0  0  0  0  0  0  0  0  0  0
    5.2353   -1.6034    0.0756 C   0  0  0  0  0  0  0  0  0  0  0  0
    5.7312   -2.3670    0.6955 H   0  0  0  0  0  0  0  0  0  0  0  0
    3.7689   -1.0868    2.0686 C   0  0  0  0  0  0  0  0  0  0  0  0
    3.7107   -0.1642    2.6838 H   0  0  0  0  0  0  0  0  0  0  0  0
    4.4692   -1.7760    2.5774 H   0  0  0  0  0  0  0  0  0  0  0  0
    2.7640   -1.5610    2.0881 H   0  0  0  0  0  0  0  0  0  0  0  0
    5.6128   -1.4358   -1.2633 C   0  0  0  0  0  0  0  0  0  0  0  0
    6.4097   -2.0576   -1.6978 H   0  0  0  0  0  0  0  0  0  0  0  0
    3.3465    1.4455   -2.3429 C   0  0  0  0  0  0  0  0  0  0  0  0
    2.4016    1.1257   -2.8362 H   0  0  0  0  0  0  0  0  0  0  0  0
    4.0358    1.7564   -3.1517 H   0  0  0  0  0  0  0  0  0  0  0  0
    3.1007    2.3329   -1.7257 H   0  0  0  0  0  0  0  0  0  0  0  0
    4.9756   -0.4588   -2.0385 C   0  0  0  0  0  0  0  0  0  0  0  0
    5.2838   -0.2991   -3.0841 H   0  0  0  0  0  0  0  0  0  0  0  0
    0.6473    0.8268    2.5647 O   0  0  0  0  0  0  0  0  0  0  0  0
    0.2400   -0.2037    2.0067 C   0  0  0  0  0  0  0  0  0  0  0  0
   -0.4122   -1.3003    2.8201 C   0  0  0  0  0  0  0  0  0  0  0  0
    0.3795   -2.0010    3.1553 H   0  0  0  0  0  0  0  0  0  0  0  0
   -1.1332   -1.8947    2.2311 H   0  0  0  0  0  0  0  0  0  0  0  0
   -0.8852   -0.8444    3.7107 H   0  0  0  0  0  0  0  0  0  0  0  0
    0.9433   -1.8413   -1.5356 C   0  0  0  0  0  0  0  0  0  0  0  0
    1.9930   -1.5837   -1.7923 H   0  0  0  0  0  0  0  0  0  0  0  0
    0.2670   -1.1817   -2.1139 H   0  0  0  0  0  0  0  0  0  0  0  0
    0.7758   -2.8971   -1.8162 H   0  0  0  0  0  0  0  0  0  0  0  0
    0.8912   -2.6886    0.6965 O   0  0  0  0  0  0  0  0  0  0  0  0
    2.5080    0.9318    1.4322 H   0  0  0  0  0  0  0  0  0  0  0  0
    1.2206    0.6816   -1.1846 H   0  0  0  0  0  0  0  0  0  0  0  0
  1 44  1  6  0  0  0
  1  2  1  0  0  0  0
  1  3  1  0  0  0  0
  2 43  1  0  0  0  0
  3 33  1  0  0  0  0
  4 11  1  0  0  0  0
  4 12  1  0  0  0  0
  5  3  1  0  0  0  0
  5 42  2  0  0  0  0
  6  7  1  0  0  0  0
  6 16  1  0  0  0  0
  8 10  1  0  0  0  0
  9 20  1  0  0  0  0
 10  2  1  0  0  0  0
 10  9  2  0  0  0  0
 11  1  1  6  0  0  0
 11 14  1  0  0  0  0
 12  6  2  0  0  0  0
 13 12  1  0  0  0  0
 14 15  1  0  0  0  0
 14 16  2  0  0  0  0
 16 17  1  0  0  0  0
 18  9  1  0  0  0  0
 18 19  1  0  0  0  0
 20 23  1  0  0  0  0
 20 22  1  0  0  0  0
 20 21  1  0  0  0  0
 24 18  2  0  0  0  0
 25 24  1  0  0  0  0
 26 29  1  0  0  0  0
 26  8  1  0  0  0  0
 27 26  1  0  0  0  0
 28 26  1  0  0  0  0
 30  8  2  0  0  0  0
 30 24  1  0  0  0  0
 31 30  1  0  0  0  0
 33 32  2  0  0  0  0
 33 34  1  0  0  0  0
 34 35  1  0  0  0  0
 34 37  1  0  0  0  0
 36 34  1  0  0  0  0
 38  5  1  0  0  0  0
 39 38  1  0  0  0  0
 40 38  1  0  0  0  0
 41 38  1  0  0  0  0
M  END
