1,4
 OpenBabel05122313053D

 21 22  0  0  1  0  0  0  0  0999 V2000
    0.9803   -1.1435   -0.2266 N   0  0  0  0  0  2  0  0  0  0  0  0
    1.9934    0.9795    0.0047 C   0  0  0  0  0  0  0  0  0  0  0  0
    2.1643   -0.4667   -0.0471 C   0  0  2  0  0  3  0  0  0  0  0  0
    0.6396    1.4103   -0.1718 C   0  0  0  0  0  3  0  0  0  0  0  0
    0.9562   -2.4716   -0.4383 C   0  0  0  0  0  0  0  0  0  0  0  0
   -0.0335   -2.9025   -0.6438 H   0  0  0  0  0  0  0  0  0  0  0  0
    3.0355    1.9334    0.1258 C   0  0  0  0  0  0  0  0  0  0  0  0
    4.0750    1.6165    0.2765 H   0  0  0  0  0  0  0  0  0  0  0  0
    0.3886    2.7868   -0.3160 C   0  0  0  0  0  0  0  0  0  0  0  0
   -0.6321    3.1341   -0.5329 H   0  0  0  0  0  0  0  0  0  0  0  0
    3.3737   -1.2282    0.0107 C   0  0  0  0  0  0  0  0  0  0  0  0
    2.1098   -3.2593   -0.4073 C   0  0  0  0  0  0  0  0  0  0  0  0
    2.0442   -4.3422   -0.5775 H   0  0  0  0  0  0  0  0  0  0  0  0
    1.4273    3.7216   -0.2040 C   0  0  0  0  0  0  0  0  0  0  0  0
    1.2078    4.7957   -0.3129 H   0  0  0  0  0  0  0  0  0  0  0  0
    3.3321   -2.6288   -0.1617 C   0  0  0  0  0  0  0  0  0  0  0  0
    4.2696   -3.2007   -0.1146 H   0  0  0  0  0  0  0  0  0  0  0  0
    2.7484    3.2969    0.0368 C   0  0  0  0  0  0  0  0  0  0  0  0
    3.5602    4.0328    0.1314 H   0  0  0  0  0  0  0  0  0  0  0  0
    5.7458   -0.2422    0.4407 N   0  0  0  0  0  0  0  0  0  0  0  0
    4.6599   -0.6448    0.2429 C   0  0  0  0  0  0  0  0  0  0  0  0
  1  3  1  0  0  0  0
  2  7  1  0  0  0  0
  3  2  1  6  0  0  0
  3 11  1  0  0  0  0
  4  2  2  0  0  0  0
  5 12  2  0  0  0  0
  5  1  1  0  0  0  0
  6  5  1  0  0  0  0
  7  8  1  0  0  0  0
  9 14  2  0  0  0  0
  9  4  1  0  0  0  0
 10  9  1  0  0  0  0
 11 21  1  0  0  0  0
 12 16  1  0  0  0  0
 13 12  1  0  0  0  0
 14 18  1  0  0  0  0
 15 14  1  0  0  0  0
 16 17  1  0  0  0  0
 16 11  2  0  0  0  0
 18  7  2  0  0  0  0
 18 19  1  0  0  0  0
 21 20  3  0  0  0  0
M  END
