1,4
 OpenBabel05122313053D

 43 44  0  0  1  0  0  0  0  0999 V2000
   -0.3186    0.4605    0.1300 N   0  0  0  0  0  2  0  0  0  0  0  0
   -1.2813   -0.6163    0.0088 B   0  0  0  0  0  0  0  0  0  0  0  0
   -2.7034   -0.5531    0.0815 N   0  0  0  0  0  0  0  0  0  0  0  0
   -0.4064   -1.9615   -0.1155 C   0  0  2  0  0  3  0  0  0  0  0  0
    0.3351   -2.4560    1.0167 C   0  0  0  0  0  0  0  0  0  0  0  0
    0.0439   -2.3132    2.0670 H   0  0  0  0  0  0  0  0  0  0  0  0
    1.5436   -3.0630    0.5699 C   0  0  0  0  0  0  0  0  0  0  0  0
    2.3107   -3.5322    1.1993 H   0  0  0  0  0  0  0  0  0  0  0  0
    1.5554   -2.9850   -0.8564 C   0  0  0  0  0  0  0  0  0  0  0  0
    2.3424   -3.3836   -1.5098 H   0  0  0  0  0  0  0  0  0  0  0  0
    0.3596   -2.3322   -1.2715 C   0  0  0  0  0  0  0  0  0  0  0  0
    0.1119   -2.0614   -2.3070 H   0  0  0  0  0  0  0  0  0  0  0  0
   -0.4210    1.8497   -0.0175 C   0  0  0  0  0  0  0  0  0  0  0  0
   -0.9271    2.4314   -1.2094 C   0  0  0  0  0  0  0  0  0  0  0  0
   -1.2807    1.7618   -2.0081 H   0  0  0  0  0  0  0  0  0  0  0  0
   -0.9664    3.8220   -1.3730 C   0  0  0  0  0  0  0  0  0  0  0  0
   -1.3656    4.2463   -2.3077 H   0  0  0  0  0  0  0  0  0  0  0  0
   -0.4919    4.6744   -0.3611 C   0  0  0  0  0  0  0  0  0  0  0  0
   -0.5201    5.7662   -0.4937 H   0  0  0  0  0  0  0  0  0  0  0  0
    0.0228    4.1135    0.8192 C   0  0  0  0  0  0  0  0  0  0  0  0
    0.3993    4.7681    1.6208 H   0  0  0  0  0  0  0  0  0  0  0  0
    0.0593    2.7225    0.9918 C   0  0  0  0  0  0  0  0  0  0  0  0
    0.4584    2.2815    1.9174 H   0  0  0  0  0  0  0  0  0  0  0  0
   -3.5670   -1.7370   -0.1290 C   0  0  0  0  0  0  0  0  0  0  0  0
   -4.6119   -1.3706   -0.0453 H   0  0  0  0  0  0  0  0  0  0  0  0
   -3.3903   -2.8098    0.9553 C   0  0  0  0  0  0  0  0  0  0  0  0
   -3.5114   -2.3716    1.9654 H   0  0  0  0  0  0  0  0  0  0  0  0
   -2.3861   -3.2726    0.8980 H   0  0  0  0  0  0  0  0  0  0  0  0
   -4.1452   -3.6140    0.8344 H   0  0  0  0  0  0  0  0  0  0  0  0
   -3.4208   -2.3167   -1.5424 C   0  0  0  0  0  0  0  0  0  0  0  0
   -3.5766   -1.5285   -2.3056 H   0  0  0  0  0  0  0  0  0  0  0  0
   -4.1648   -3.1211   -1.7163 H   0  0  0  0  0  0  0  0  0  0  0  0
   -2.4124   -2.7497   -1.6918 H   0  0  0  0  0  0  0  0  0  0  0  0
   -3.4066    0.6977    0.4219 C   0  0  0  0  0  0  0  0  0  0  0  0
   -2.6181    1.4589    0.5680 H   0  0  0  0  0  0  0  0  0  0  0  0
   -4.1681    0.5931    1.7524 C   0  0  0  0  0  0  0  0  0  0  0  0
   -3.4886    0.2751    2.5682 H   0  0  0  0  0  0  0  0  0  0  0  0
   -5.0069   -0.1320    1.7011 H   0  0  0  0  0  0  0  0  0  0  0  0
   -4.6002    1.5767    2.0267 H   0  0  0  0  0  0  0  0  0  0  0  0
   -4.3078    1.1995   -0.7153 C   0  0  0  0  0  0  0  0  0  0  0  0
   -3.7282    1.3181   -1.6517 H   0  0  0  0  0  0  0  0  0  0  0  0
   -4.7459    2.1848   -0.4575 H   0  0  0  0  0  0  0  0  0  0  0  0
   -5.1501    0.5051   -0.9166 H   0  0  0  0  0  0  0  0  0  0  0  0
  2  3  1  0  0  0  0
  2  1  1  0  0  0  0
  3 34  1  0  0  0  0
  4  2  1  1  0  0  0
  4  5  1  0  0  0  0
  5  6  1  0  0  0  0
  7  5  2  0  0  0  0
  7  8  1  0  0  0  0
  9  7  1  0  0  0  0
 10  9  1  0  0  0  0
 11  9  2  0  0  0  0
 11  4  1  0  0  0  0
 12 11  1  0  0  0  0
 13  1  1  0  0  0  0
 13 22  1  0  0  0  0
 14 13  2  0  0  0  0
 15 14  1  0  0  0  0
 16 14  1  0  0  0  0
 16 18  2  0  0  0  0
 17 16  1  0  0  0  0
 18 20  1  0  0  0  0
 19 18  1  0  0  0  0
 20 22  2  0  0  0  0
 20 21  1  0  0  0  0
 22 23  1  0  0  0  0
 24 25  1  0  0  0  0
 24  3  1  0  0  0  0
 24 26  1  0  0  0  0
 26 27  1  0  0  0  0
 28 26  1  0  0  0  0
 29 26  1  0  0  0  0
 30 24  1  0  0  0  0
 31 30  1  0  0  0  0
 32 30  1  0  0  0  0
 33 30  1  0  0  0  0
 34 35  1  0  0  0  0
 34 36  1  0  0  0  0
 36 39  1  0  0  0  0
 36 37  1  0  0  0  0
 38 36  1  0  0  0  0
 40 42  1  0  0  0  0
 40 34  1  0  0  0  0
 41 40  1  0  0  0  0
 43 40  1  0  0  0  0
M  END
