2,13
 OpenBabel05122313053D

 21 22  0  0  0  0  0  0  0  0999 V2000
    3.5419    0.3290   -0.0160 N   0  0  0  0  0  0  0  0  0  0  0  0
    2.3576    0.9995   -0.0253 N   0  0  0  0  0  2  0  0  0  0  0  0
    2.6356    2.3155   -0.0296 C   0  0  0  0  0  3  0  0  0  0  0  0
    1.8113    3.0369   -0.0436 H   0  0  0  0  0  0  0  0  0  0  0  0
    4.0410    2.5087   -0.0213 C   0  0  0  0  0  0  0  0  0  0  0  0
    4.5785    1.2162   -0.0132 C   0  0  0  0  0  0  0  0  0  0  0  0
    5.6180    0.8742   -0.0073 H   0  0  0  0  0  0  0  0  0  0  0  0
    4.7861    3.8083   -0.0219 C   0  0  0  0  0  0  0  0  0  0  0  0
    4.5327    4.4221   -0.9106 H   0  0  0  0  0  0  0  0  0  0  0  0
    5.8801    3.6412   -0.0301 H   0  0  0  0  0  0  0  0  0  0  0  0
    4.5457    4.4163    0.8745 H   0  0  0  0  0  0  0  0  0  0  0  0
    3.4425   -1.0837   -0.0284 C   0  0  0  0  0  0  0  0  0  0  0  0
    2.1022   -1.5591   -0.0457 C   0  0  0  0  0  2  0  0  0  0  0  0
    1.9230   -2.9543   -0.0774 C   0  0  0  0  0  3  0  0  0  0  0  0
    0.8986   -3.3560   -0.1060 H   0  0  0  0  0  0  0  0  0  0  0  0
    3.0278   -3.8233   -0.0818 C   0  0  0  0  0  0  0  0  0  0  0  0
    2.8648   -4.9120   -0.1071 H   0  0  0  0  0  0  0  0  0  0  0  0
    4.3396   -3.3177   -0.0565 C   0  0  0  0  0  0  0  0  0  0  0  0
    5.1996   -4.0035   -0.0594 H   0  0  0  0  0  0  0  0  0  0  0  0
    4.5580   -1.9318   -0.0315 C   0  0  0  0  0  0  0  0  0  0  0  0
    5.5812   -1.5275   -0.0163 H   0  0  0  0  0  0  0  0  0  0  0  0
  1  6  1  0  0  0  0
  2  1  1  0  0  0  0
  3  2  1  0  0  0  0
  3  5  1  0  0  0  0
  4  3  1  0  0  0  0
  5  6  2  0  0  0  0
  6  7  1  0  0  0  0
  8  5  1  0  0  0  0
  8 11  1  0  0  0  0
  9  8  1  0  0  0  0
 10  8  1  0  0  0  0
 12  1  1  0  0  0  0
 13 12  1  0  0  0  0
 14 13  1  0  0  0  0
 15 14  1  0  0  0  0
 16 14  1  0  0  0  0
 16 18  2  0  0  0  0
 17 16  1  0  0  0  0
 18 20  1  0  0  0  0
 19 18  1  0  0  0  0
 20 12  2  0  0  0  0
 20 21  1  0  0  0  0
M  END
