5,12
 OpenBabel05122313053D

 43 45  0  0  0  0  0  0  0  0999 V2000
   -1.2126    1.4031    0.3839 N   0  0  0  0  0  0  0  0  0  0  0  0
   -1.2162    2.7679    0.6719 C   0  0  0  0  0  0  0  0  0  0  0  0
   -2.0532    3.2379    1.1953 H   0  0  0  0  0  0  0  0  0  0  0  0
    0.6364    2.2223   -0.3892 N   0  0  0  0  0  0  0  0  0  0  0  0
    2.5567    0.0659    0.0162 N   0  0  0  0  0  2  0  0  0  0  0  0
   -3.1126   -1.1792    2.2906 C   0  0  0  0  0  0  0  0  0  0  0  0
   -2.9607   -1.8743    3.1307 H   0  0  0  0  0  0  0  0  0  0  0  0
   -2.0419   -0.3615    1.8825 C   0  0  0  0  0  0  0  0  0  0  0  0
   -2.2734    0.5174    0.7986 C   0  0  0  0  0  0  0  0  0  0  0  0
   -4.3584   -1.1132    1.6576 C   0  0  0  0  0  0  0  0  0  0  0  0
   -5.1826   -1.7585    1.9974 H   0  0  0  0  0  0  0  0  0  0  0  0
   -0.0618    1.0520   -0.2685 C   0  0  0  0  0  2  0  0  0  0  0  0
   -4.5589   -0.2227    0.5966 C   0  0  0  0  0  0  0  0  0  0  0  0
   -5.5396   -0.1729    0.0985 H   0  0  0  0  0  0  0  0  0  0  0  0
   -3.5222    0.6111    0.1399 C   0  0  0  0  0  0  0  0  0  0  0  0
   -0.7183   -0.4554    2.6153 C   0  0  0  0  0  0  0  0  0  0  0  0
   -0.9060   -0.2438    3.6911 H   0  0  0  0  0  0  0  0  0  0  0  0
   -0.0276    0.3359    2.2635 H   0  0  0  0  0  0  0  0  0  0  0  0
    3.3570   -0.7674    0.7220 C   0  0  0  0  0  3  0  0  0  0  0  0
    3.0192   -1.8159    0.7525 H   0  0  0  0  0  0  0  0  0  0  0  0
   -0.0447    3.2871    0.1882 C   0  0  0  0  0  0  0  0  0  0  0  0
    0.3458    4.3089    0.1914 H   0  0  0  0  0  0  0  0  0  0  0  0
    4.1047    1.8660    0.4103 C   0  0  0  0  0  0  0  0  0  0  0  0
    4.3701    2.9221    0.2572 H   0  0  0  0  0  0  0  0  0  0  0  0
    4.9365    1.0105    1.1469 C   0  0  0  0  0  0  0  0  0  0  0  0
    5.8707    1.3859    1.5903 H   0  0  0  0  0  0  0  0  0  0  0  0
    1.9818    2.2344   -0.9531 C   0  0  0  0  0  0  0  0  0  0  0  0
    2.3456    3.2773   -0.9848 H   0  0  0  0  0  0  0  0  0  0  0  0
    1.9273    1.8420   -1.9911 H   0  0  0  0  0  0  0  0  0  0  0  0
   -0.0338   -1.8242    2.4812 C   0  0  0  0  0  0  0  0  0  0  0  0
    0.9204   -1.8392    3.0468 H   0  0  0  0  0  0  0  0  0  0  0  0
    0.1899   -2.0608    1.4201 H   0  0  0  0  0  0  0  0  0  0  0  0
   -0.6723   -2.6394    2.8768 H   0  0  0  0  0  0  0  0  0  0  0  0
   -3.7718    1.5236   -1.0447 C   0  0  0  0  0  0  0  0  0  0  0  0
   -2.9285    2.2292   -1.1750 H   0  0  0  0  0  0  0  0  0  0  0  0
   -4.6642    2.1487   -0.8204 H   0  0  0  0  0  0  0  0  0  0  0  0
   -3.9933    0.7622   -2.3608 C   0  0  0  0  0  0  0  0  0  0  0  0
   -4.1874    1.4692   -3.1926 H   0  0  0  0  0  0  0  0  0  0  0  0
   -4.8621    0.0768   -2.2894 H   0  0  0  0  0  0  0  0  0  0  0  0
   -3.1016    0.1514   -2.6034 H   0  0  0  0  0  0  0  0  0  0  0  0
    2.9187    1.3649   -0.1432 C   0  0  0  0  0  0  0  0  0  0  0  0
    4.5512   -0.3268    1.3032 C   0  0  0  0  0  0  0  0  0  0  0  0
    5.1683   -1.0399    1.8679 H   0  0  0  0  0  0  0  0  0  0  0  0
  1  2  1  0  0  0  0
  1  9  1  0  0  0  0
  2  3  1  0  0  0  0
  4 12  1  0  0  0  0
  4 21  1  0  0  0  0
  5 19  1  0  0  0  0
  6  7  1  0  0  0  0
  8  6  1  0  0  0  0
  8 16  1  0  0  0  0
  9  8  2  0  0  0  0
 10 11  1  0  0  0  0
 10  6  2  0  0  0  0
 12  1  1  0  0  0  0
 13 10  1  0  0  0  0
 14 13  1  0  0  0  0
 15 13  2  0  0  0  0
 15  9  1  0  0  0  0
 16 17  1  0  0  0  0
 18 16  1  0  0  0  0
 19 20  1  0  0  0  0
 19 42  1  0  0  0  0
 21 22  1  0  0  0  0
 21  2  2  0  0  0  0
 23 25  1  0  0  0  0
 24 23  1  0  0  0  0
 25 42  2  0  0  0  0
 25 26  1  0  0  0  0
 27  4  1  0  0  0  0
 27 41  1  0  0  0  0
 28 27  1  0  0  0  0
 29 27  1  0  0  0  0
 30 16  1  0  0  0  0
 30 33  1  0  0  0  0
 30 31  1  0  0  0  0
 32 30  1  0  0  0  0
 34 36  1  0  0  0  0
 34 15  1  0  0  0  0
 35 34  1  0  0  0  0
 37 39  1  0  0  0  0
 37 34  1  0  0  0  0
 38 37  1  0  0  0  0
 40 37  1  0  0  0  0
 41  5  1  0  0  0  0
 41 23  2  0  0  0  0
 42 43  1  0  0  0  0
M  END
