1,31
 OpenBabel05122313053D

 33 34  0  0  0  0  0  0  0  0999 V2000
    2.5848    1.1575   -0.2613 N   0  0  0  0  0  2  0  0  0  0  0  0
    3.7317    0.3256   -0.1909 C   0  0  0  0  0  0  0  0  0  0  0  0
    3.6614   -0.9622   -0.7594 C   0  0  0  0  0  0  0  0  0  0  0  0
    2.7164   -1.2923   -1.2171 H   0  0  0  0  0  0  0  0  0  0  0  0
    4.7827   -1.7991   -0.7331 C   0  0  0  0  0  0  0  0  0  0  0  0
    4.7216   -2.7967   -1.1938 H   0  0  0  0  0  0  0  0  0  0  0  0
    5.9711   -1.3756   -0.1143 C   0  0  0  0  0  0  0  0  0  0  0  0
    6.8451   -2.0429   -0.0792 H   0  0  0  0  0  0  0  0  0  0  0  0
    6.0305   -0.1044    0.4782 C   0  0  0  0  0  0  0  0  0  0  0  0
    6.9473    0.2232    0.9914 H   0  0  0  0  0  0  0  0  0  0  0  0
    4.9186    0.7480    0.4413 C   0  0  0  0  0  0  0  0  0  0  0  0
    4.9506    1.7266    0.9423 H   0  0  0  0  0  0  0  0  0  0  0  0
    2.7030    2.4212   -0.5493 C   0  0  0  0  0  3  0  0  0  0  0  0
    3.7223    2.8290   -0.7012 H   0  0  0  0  0  0  0  0  0  0  0  0
    1.5699    3.3175   -0.7143 C   0  0  0  0  0  0  0  0  0  0  0  0
    1.7208    4.7054   -0.4405 C   0  0  0  0  0  0  0  0  0  0  0  0
    3.0387    5.2731    0.0288 C   0  0  0  0  0  0  0  0  0  0  0  0
    3.3736    4.8075    0.9787 H   0  0  0  0  0  0  0  0  0  0  0  0
    2.9614    6.3636    0.1986 H   0  0  0  0  0  0  0  0  0  0  0  0
    3.8487    5.1096   -0.7134 H   0  0  0  0  0  0  0  0  0  0  0  0
    0.6043    5.5470   -0.5704 C   0  0  0  0  0  0  0  0  0  0  0  0
    0.7132    6.6174   -0.3334 H   0  0  0  0  0  0  0  0  0  0  0  0
   -0.6475    5.0562   -0.9914 C   0  0  0  0  0  0  0  0  0  0  0  0
   -1.8438    5.9663   -1.0940 C   0  0  0  0  0  0  0  0  0  0  0  0
   -1.5472    7.0215   -1.2528 H   0  0  0  0  0  0  0  0  0  0  0  0
   -2.4440    5.9317   -0.1587 H   0  0  0  0  0  0  0  0  0  0  0  0
   -2.5167    5.6637   -1.9208 H   0  0  0  0  0  0  0  0  0  0  0  0
   -0.7599    3.6892   -1.3018 C   0  0  0  0  0  0  0  0  0  0  0  0
   -1.7108    3.2984   -1.6936 H   0  0  0  0  0  0  0  0  0  0  0  0
    0.3180    2.7918   -1.1742 C   0  0  0  0  0  0  0  0  0  0  0  0
    0.1465    1.3682   -1.5660 C   0  0  0  0  0  3  0  0  0  0  0  0
    0.8980    1.0375   -2.3143 H   0  0  0  0  0  0  0  0  0  0  0  0
   -0.8735    1.1841   -1.9401 H   0  0  0  0  0  0  0  0  0  0  0  0
  1  2  1  0  0  0  0
  2 11  1  0  0  0  0
  3  5  1  0  0  0  0
  3  2  2  0  0  0  0
  4  3  1  0  0  0  0
  5  7  2  0  0  0  0
  6  5  1  0  0  0  0
  7  8  1  0  0  0  0
  7  9  1  0  0  0  0
  9 10  1  0  0  0  0
 11  9  2  0  0  0  0
 11 12  1  0  0  0  0
 13  1  1  0  0  0  0
 14 13  1  0  0  0  0
 15 13  1  0  0  0  0
 15 16  1  0  0  0  0
 16 17  1  0  0  0  0
 17 19  1  0  0  0  0
 17 18  1  0  0  0  0
 20 17  1  0  0  0  0
 21 16  2  0  0  0  0
 21 22  1  0  0  0  0
 23 21  1  0  0  0  0
 24 23  1  0  0  0  0
 24 26  1  0  0  0  0
 25 24  1  0  0  0  0
 27 24  1  0  0  0  0
 28 30  1  0  0  0  0
 28 23  2  0  0  0  0
 29 28  1  0  0  0  0
 30 15  2  0  0  0  0
 31 30  1  0  0  0  0
 32 31  1  0  0  0  0
 33 31  1  0  0  0  0
M  END
