21,36
 OpenBabel05122313053D

 36 39  0  0  0  0  0  0  0  0999 V2000
   -4.4776    0.7530   -0.0882 C   0  0  0  0  0  0  0  0  0  0  0  0
   -5.4969    1.7204   -0.0493 C   0  0  0  0  0  0  0  0  0  0  0  0
   -5.2456    2.7909    0.0003 H   0  0  0  0  0  0  0  0  0  0  0  0
   -6.8360    1.3042   -0.0720 C   0  0  0  0  0  0  0  0  0  0  0  0
   -7.6415    2.0529   -0.0401 H   0  0  0  0  0  0  0  0  0  0  0  0
   -7.1637   -0.0677   -0.1314 C   0  0  0  0  0  0  0  0  0  0  0  0
   -8.2212   -0.3724   -0.1433 H   0  0  0  0  0  0  0  0  0  0  0  0
   -6.1670   -1.0553   -0.1721 C   0  0  0  0  0  0  0  0  0  0  0  0
   -6.4343   -2.1213   -0.2113 H   0  0  0  0  0  0  0  0  0  0  0  0
   -4.8279   -0.6339   -0.1558 C   0  0  0  0  0  0  0  0  0  0  0  0
   -3.5950   -2.8443   -0.1983 C   0  0  0  0  0  0  0  0  0  0  0  0
   -2.6964   -3.1444   -0.7756 H   0  0  0  0  0  0  0  0  0  0  0  0
   -4.4693   -3.2238   -0.7664 H   0  0  0  0  0  0  0  0  0  0  0  0
   -3.5577   -3.4448    1.2086 C   0  0  0  0  0  0  0  0  0  0  0  0
   -2.6701   -3.0847    1.7658 H   0  0  0  0  0  0  0  0  0  0  0  0
   -3.5106   -4.5513    1.1595 H   0  0  0  0  0  0  0  0  0  0  0  0
   -4.4615   -3.1617    1.7842 H   0  0  0  0  0  0  0  0  0  0  0  0
   -2.5601   -0.5472   -0.1325 C   0  0  0  0  0  0  0  0  0  0  0  0
   -1.1923   -0.8727   -0.1188 C   0  0  0  0  0  0  0  0  0  0  0  0
   -0.8372   -1.9132   -0.1501 H   0  0  0  0  0  0  0  0  0  0  0  0
   -0.2614    0.1738   -0.0572 C   0  0  0  0  0  2  0  0  0  0  0  0
   -0.7208    1.5403   -0.0064 C   0  0  0  0  0  0  0  0  0  0  0  0
   -2.0951    1.8526   -0.0130 C   0  0  0  0  0  0  0  0  0  0  0  0
   -2.4409    2.8971    0.0307 H   0  0  0  0  0  0  0  0  0  0  0  0
   -3.0273    0.8105   -0.0731 C   0  0  0  0  0  0  0  0  0  0  0  0
    0.3469    2.5256    0.0536 C   0  0  0  0  0  0  0  0  0  0  0  0
    0.2084    3.9281    0.1091 C   0  0  0  0  0  0  0  0  0  0  0  0
   -0.7997    4.3646    0.1094 H   0  0  0  0  0  0  0  0  0  0  0  0
    1.3384    4.7456    0.1623 C   0  0  0  0  0  0  0  0  0  0  0  0
    1.2279    5.8395    0.2055 H   0  0  0  0  0  0  0  0  0  0  0  0
    2.6163    4.1559    0.1598 C   0  0  0  0  0  0  0  0  0  0  0  0
    3.5319    4.7617    0.2004 H   0  0  0  0  0  0  0  0  0  0  0  0
    2.7116    2.7654    0.1041 C   0  0  0  0  0  0  0  0  0  0  0  0
    3.6710    2.2257    0.0986 H   0  0  0  0  0  0  0  0  0  0  0  0
   -3.6583   -1.3942   -0.2005 N   0  0  0  0  0  0  0  0  0  0  0  0
    1.6141    1.9762    0.0529 N   0  0  0  0  0  2  0  0  0  0  0  0
  1 25  1  0  0  0  0
  1  2  1  0  0  0  0
  2  3  1  0  0  0  0
  4  2  2  0  0  0  0
  4  5  1  0  0  0  0
  6  4  1  0  0  0  0
  7  6  1  0  0  0  0
  8 10  1  0  0  0  0
  8  6  2  0  0  0  0
  9  8  1  0  0  0  0
 10  1  2  0  0  0  0
 11 14  1  0  0  0  0
 12 11  1  0  0  0  0
 13 11  1  0  0  0  0
 14 15  1  0  0  0  0
 14 17  1  0  0  0  0
 16 14  1  0  0  0  0
 18 19  2  0  0  0  0
 18 25  1  0  0  0  0
 19 21  1  0  0  0  0
 20 19  1  0  0  0  0
 21 22  1  0  0  0  0
 22 26  2  0  0  0  0
 23 22  1  0  0  0  0
 23 24  1  0  0  0  0
 25 23  2  0  0  0  0
 26 27  1  0  0  0  0
 27 28  1  0  0  0  0
 27 29  2  0  0  0  0
 29 30  1  0  0  0  0
 31 29  1  0  0  0  0
 31 32  1  0  0  0  0
 33 31  2  0  0  0  0
 34 33  1  0  0  0  0
 35 11  1  0  0  0  0
 35 10  1  0  0  0  0
 35 18  1  0  0  0  0
 36 26  1  0  0  0  0
 36 33  1  0  0  0  0
M  END
