1,13
 OpenBabel05122313053D

 36 39  0  0  0  0  0  0  0  0999 V2000
   -1.6406    1.8993   -0.0614 N   0  0  0  0  0  2  0  0  0  0  0  0
    4.3814    0.7804   -0.2138 N   0  0  0  0  0  0  0  0  0  0  0  0
   -2.7391    2.6885   -0.0508 C   0  0  0  0  0  0  0  0  0  0  0  0
   -3.6971    2.1477   -0.0096 H   0  0  0  0  0  0  0  0  0  0  0  0
   -2.6466    4.0803   -0.0896 C   0  0  0  0  0  0  0  0  0  0  0  0
   -3.5637    4.6852   -0.0793 H   0  0  0  0  0  0  0  0  0  0  0  0
   -1.3718    4.6724   -0.1414 C   0  0  0  0  0  0  0  0  0  0  0  0
   -1.2640    5.7669   -0.1732 H   0  0  0  0  0  0  0  0  0  0  0  0
   -0.2401    3.8540   -0.1524 C   0  0  0  0  0  0  0  0  0  0  0  0
    0.7665    4.2921   -0.1934 H   0  0  0  0  0  0  0  0  0  0  0  0
   -0.3759    2.4518   -0.1117 C   0  0  0  0  0  0  0  0  0  0  0  0
    0.6956    1.4654   -0.1171 C   0  0  0  0  0  0  0  0  0  0  0  0
    0.2402    0.1011   -0.0686 C   0  0  0  0  0  3  0  0  0  0  0  0
    1.1844   -0.9365   -0.0636 C   0  0  0  0  0  0  0  0  0  0  0  0
    0.8416   -1.9814   -0.0235 H   0  0  0  0  0  0  0  0  0  0  0  0
    2.5570   -0.6276   -0.1066 C   0  0  0  0  0  0  0  0  0  0  0  0
    2.9865    0.7415   -0.1619 C   0  0  0  0  0  0  0  0  0  0  0  0
    2.0684    1.7953   -0.1617 C   0  0  0  0  0  0  0  0  0  0  0  0
    2.4031    2.8428   -0.1907 H   0  0  0  0  0  0  0  0  0  0  0  0
    5.1872    1.9850   -0.1876 C   0  0  0  0  0  0  0  0  0  0  0  0
    4.6573    2.7629   -0.7767 H   0  0  0  0  0  0  0  0  0  0  0  0
    6.1292    1.7775   -0.7362 H   0  0  0  0  0  0  0  0  0  0  0  0
    5.4852    2.4878    1.2272 C   0  0  0  0  0  0  0  0  0  0  0  0
    4.5469    2.7136    1.7721 H   0  0  0  0  0  0  0  0  0  0  0  0
    6.0982    3.4110    1.1947 H   0  0  0  0  0  0  0  0  0  0  0  0
    6.0396    1.7242    1.8082 H   0  0  0  0  0  0  0  0  0  0  0  0
    4.8676   -0.5211   -0.1599 C   0  0  0  0  0  3  0  0  0  0  0  0
    3.7619   -1.4324   -0.1056 C   0  0  0  0  0  0  0  0  0  0  0  0
    4.0060   -2.8176   -0.0616 C   0  0  0  0  0  0  0  0  0  0  0  0
    3.1641   -3.5254   -0.0224 H   0  0  0  0  0  0  0  0  0  0  0  0
    5.3287   -3.2778   -0.0656 C   0  0  0  0  0  0  0  0  0  0  0  0
    5.5336   -4.3580   -0.0296 H   0  0  0  0  0  0  0  0  0  0  0  0
    6.4081   -2.3658   -0.1114 C   0  0  0  0  0  0  0  0  0  0  0  0
    7.4399   -2.7493   -0.1083 H   0  0  0  0  0  0  0  0  0  0  0  0
    6.1965   -0.9805   -0.1566 C   0  0  0  0  0  0  0  0  0  0  0  0
    7.0469   -0.2836   -0.1843 H   0  0  0  0  0  0  0  0  0  0  0  0
  1  3  1  0  0  0  0
  2 20  1  0  0  0  0
  2 17  1  0  0  0  0
  2 27  1  0  0  0  0
  3  4  1  0  0  0  0
  5  6  1  0  0  0  0
  5  3  2  0  0  0  0
  7  5  1  0  0  0  0
  8  7  1  0  0  0  0
  9  7  2  0  0  0  0
  9 11  1  0  0  0  0
 10  9  1  0  0  0  0
 11  1  1  0  0  0  0
 12 11  2  0  0  0  0
 12 13  1  0  0  0  0
 13 14  2  0  0  0  0
 14 15  1  0  0  0  0
 16 28  2  0  0  0  0
 16 14  1  0  0  0  0
 17 18  2  0  0  0  0
 17 16  1  0  0  0  0
 18 12  1  0  0  0  0
 19 18  1  0  0  0  0
 20 23  1  0  0  0  0
 21 20  1  0  0  0  0
 22 20  1  0  0  0  0
 23 24  1  0  0  0  0
 23 26  1  0  0  0  0
 25 23  1  0  0  0  0
 27 35  1  0  0  0  0
 27 28  1  0  0  0  0
 28 29  1  0  0  0  0
 29 30  1  0  0  0  0
 31 29  2  0  0  0  0
 31 32  1  0  0  0  0
 33 34  1  0  0  0  0
 33 31  1  0  0  0  0
 35 33  2  0  0  0  0
 36 35  1  0  0  0  0
M  END
