3,5
 OpenBabel05122313053D

 27 29  0  0  1  0  0  0  0  0999 V2000
    3.5533    2.1408   -1.5488 S   0  0  0  0  0  0  0  0  0  0  0  0
   -2.7507    4.4266    0.0767 O   0  0  0  0  0  0  0  0  0  0  0  0
    1.8667    0.3445   -0.7085 N   0  0  0  0  0  2  0  0  0  0  0  0
    0.7860    2.4612   -0.8547 C   0  0  0  0  0  0  0  0  0  0  0  0
   -0.3262    1.7268   -0.3039 C   0  0  0  0  0  3  0  0  0  0  0  0
   -1.4877    2.4512   -0.0029 C   0  0  0  0  0  0  0  0  0  0  0  0
   -2.3733    1.9621    0.4279 H   0  0  0  0  0  0  0  0  0  0  0  0
   -1.5696    3.8384   -0.2525 C   0  0  0  0  0  0  0  0  0  0  0  0
   -0.4725    4.5428   -0.8130 C   0  0  0  0  0  0  0  0  0  0  0  0
   -0.5297    5.6203   -1.0124 H   0  0  0  0  0  0  0  0  0  0  0  0
    0.7004    3.8455   -1.1072 C   0  0  0  0  0  0  0  0  0  0  0  0
    1.5603    4.3856   -1.5357 H   0  0  0  0  0  0  0  0  0  0  0  0
    1.9507    1.6442   -1.0395 C   0  0  1  0  0  3  0  0  0  0  0  0
    4.1451    0.5110   -1.2503 C   0  0  0  0  0  0  0  0  0  0  0  0
    5.4500    0.0174   -1.3915 C   0  0  0  0  0  0  0  0  0  0  0  0
    6.2619    0.6625   -1.7574 H   0  0  0  0  0  0  0  0  0  0  0  0
    5.6915   -1.3185   -1.0401 C   0  0  0  0  0  0  0  0  0  0  0  0
    6.7083   -1.7265   -1.1389 H   0  0  0  0  0  0  0  0  0  0  0  0
    4.6503   -2.1373   -0.5509 C   0  0  0  0  0  0  0  0  0  0  0  0
    4.8692   -3.1770   -0.2648 H   0  0  0  0  0  0  0  0  0  0  0  0
    3.3446   -1.6526   -0.4181 C   0  0  0  0  0  0  0  0  0  0  0  0
    2.5213   -2.2649   -0.0251 H   0  0  0  0  0  0  0  0  0  0  0  0
    3.0834   -0.3174   -0.7853 C   0  0  0  0  0  0  0  0  0  0  0  0
   -2.9094    5.8147   -0.1448 C   0  0  0  0  0  0  0  0  0  0  0  0
   -2.1765    6.4157    0.4390 H   0  0  0  0  0  0  0  0  0  0  0  0
   -3.9312    6.0702    0.1922 H   0  0  0  0  0  0  0  0  0  0  0  0
   -2.8085    6.0786   -1.2215 H   0  0  0  0  0  0  0  0  0  0  0  0
  1 14  1  0  0  0  0
  1 13  1  0  0  0  0
  4  5  1  0  0  0  0
  5  6  2  0  0  0  0
  6  7  1  0  0  0  0
  8  6  1  0  0  0  0
  8  2  1  0  0  0  0
  9  8  2  0  0  0  0
 10  9  1  0  0  0  0
 11  4  2  0  0  0  0
 11  9  1  0  0  0  0
 12 11  1  0  0  0  0
 13  4  1  1  0  0  0
 13  3  1  0  0  0  0
 14 23  1  0  0  0  0
 15 14  2  0  0  0  0
 15 17  1  0  0  0  0
 16 15  1  0  0  0  0
 17 19  2  0  0  0  0
 18 17  1  0  0  0  0
 19 21  1  0  0  0  0
 19 20  1  0  0  0  0
 21 22  1  0  0  0  0
 23  3  1  0  0  0  0
 23 21  2  0  0  0  0
 24  2  1  0  0  0  0
 24 26  1  0  0  0  0
 24 25  1  0  0  0  0
 27 24  1  0  0  0  0
M  END
