1,24
 OpenBabel05122313053D

 24 25  0  0  1  0  0  0  0  0999 V2000
    0.7278    1.8876   -0.2056 C   0  0  1  0  0  3  0  0  0  0  0  0
    0.9523    1.5958    1.1884 C   0  0  0  0  0  3  0  0  0  0  0  0
    0.2422    1.7650    2.0070 H   0  0  0  0  0  0  0  0  0  0  0  0
    2.2561    1.0157    1.2983 C   0  0  0  0  0  0  0  0  0  0  0  0
    2.7252    0.6655    2.2259 H   0  0  0  0  0  0  0  0  0  0  0  0
    2.8506    0.9698   -0.0019 C   0  0  0  0  0  0  0  0  0  0  0  0
    3.8482    0.5855   -0.2430 H   0  0  0  0  0  0  0  0  0  0  0  0
    1.8996    1.5100   -0.9340 C   0  0  0  0  0  3  0  0  0  0  0  0
    2.0385    1.6123   -2.0171 H   0  0  0  0  0  0  0  0  0  0  0  0
   -0.5449    2.4048   -0.7852 C   0  0  0  0  0  0  0  0  0  0  0  0
   -0.5995    2.1323   -1.8617 H   0  0  0  0  0  0  0  0  0  0  0  0
   -0.6265    3.5077   -0.7089 H   0  0  0  0  0  0  0  0  0  0  0  0
   -1.7742    1.8396   -0.0889 C   0  0  0  0  0  0  0  0  0  0  0  0
   -2.6573    2.5837    0.3250 O   0  0  0  0  0  0  0  0  0  0  0  0
   -1.9544    0.3452   -0.0100 C   0  0  1  0  0  3  0  0  0  0  0  0
   -3.2975   -0.0689    0.1372 C   0  0  0  0  0  0  0  0  0  0  0  0
   -4.0407    0.7289    0.2747 H   0  0  0  0  0  0  0  0  0  0  0  0
   -3.6418   -1.4154    0.0884 C   0  0  0  0  0  0  0  0  0  0  0  0
   -4.6854   -1.7441    0.1971 H   0  0  0  0  0  0  0  0  0  0  0  0
   -2.5977   -2.3343   -0.1242 C   0  0  0  0  0  0  0  0  0  0  0  0
   -2.7845   -3.4148   -0.2042 H   0  0  0  0  0  0  0  0  0  0  0  0
   -1.2896   -1.8744   -0.2187 C   0  0  0  0  0  0  0  0  0  0  0  0
   -0.4669   -2.5881   -0.3521 H   0  0  0  0  0  0  0  0  0  0  0  0
   -0.9214   -0.5578   -0.1281 N   0  0  0  0  0  2  0  0  0  0  0  0
  1 10  1  6  0  0  0
  1  2  1  0  0  0  0
  2  4  1  0  0  0  0
  2  3  1  0  0  0  0
  4  5  1  0  0  0  0
  6  4  2  0  0  0  0
  7  6  1  0  0  0  0
  8  1  1  0  0  0  0
  8  6  1  0  0  0  0
  9  8  1  0  0  0  0
 10 12  1  0  0  0  0
 10 13  1  0  0  0  0
 11 10  1  0  0  0  0
 13 14  2  0  0  0  0
 15 13  1  6  0  0  0
 15 16  1  0  0  0  0
 16 17  1  0  0  0  0
 18 16  2  0  0  0  0
 18 19  1  0  0  0  0
 20 18  1  0  0  0  0
 21 20  1  0  0  0  0
 22 24  1  0  0  0  0
 22 20  2  0  0  0  0
 23 22  1  0  0  0  0
 24 15  1  0  0  0  0
M  END
