3,23
 OpenBabel05122313053D

 23 24  0  0  0  0  0  0  0  0999 V2000
   -3.4712    4.4175   -0.0756 F   0  0  0  0  0  0  0  0  0  0  0  0
   -5.7238    0.2856    0.0271 F   0  0  0  0  0  0  0  0  0  0  0  0
   -1.8187   -1.5451   -0.0366 N   0  0  0  0  0  2  0  0  0  0  0  0
   -1.4671   -2.8500   -0.0651 C   0  0  0  0  0  0  0  0  0  0  0  0
   -0.3821   -3.0359   -0.0960 H   0  0  0  0  0  0  0  0  0  0  0  0
   -2.4047   -3.8897   -0.0609 C   0  0  0  0  0  0  0  0  0  0  0  0
   -3.7667   -3.5185   -0.0260 C   0  0  0  0  0  0  0  0  0  0  0  0
   -4.5465   -4.2962   -0.0194 H   0  0  0  0  0  0  0  0  0  0  0  0
   -4.1348   -2.1728   -0.0037 C   0  0  0  0  0  0  0  0  0  0  0  0
   -5.1887   -1.8741    0.0187 H   0  0  0  0  0  0  0  0  0  0  0  0
   -3.1447   -1.1684   -0.0123 C   0  0  0  0  0  0  0  0  0  0  0  0
   -1.9657   -5.3285   -0.0932 C   0  0  0  0  0  0  0  0  0  0  0  0
   -0.8626   -5.4158   -0.1207 H   0  0  0  0  0  0  0  0  0  0  0  0
   -2.3709   -5.8518   -0.9841 H   0  0  0  0  0  0  0  0  0  0  0  0
   -2.3300   -5.8795    0.7987 H   0  0  0  0  0  0  0  0  0  0  0  0
   -3.3276    0.2763   -0.0096 C   0  0  0  0  0  0  0  0  0  0  0  0
   -4.5559    0.9699   -0.0001 C   0  0  0  0  0  3  0  0  0  0  0  0
   -4.6247    2.3630   -0.0192 C   0  0  0  0  0  0  0  0  0  0  0  0
   -5.5924    2.8799   -0.0118 H   0  0  0  0  0  0  0  0  0  0  0  0
   -3.4144    3.0734   -0.0519 C   0  0  0  0  0  0  0  0  0  0  0  0
   -2.1666    2.4410   -0.0610 C   0  0  0  0  0  0  0  0  0  0  0  0
   -1.2477    3.0425   -0.0944 H   0  0  0  0  0  0  0  0  0  0  0  0
   -2.1108    1.0377   -0.0355 C   0  0  0  0  0  3  0  0  0  0  0  0
  1 20  1  0  0  0  0
  3 11  1  0  0  0  0
  4  6  2  0  0  0  0
  4  3  1  0  0  0  0
  5  4  1  0  0  0  0
  6  7  1  0  0  0  0
  7  8  1  0  0  0  0
  7  9  2  0  0  0  0
  9 10  1  0  0  0  0
 11 16  2  0  0  0  0
 11  9  1  0  0  0  0
 12  6  1  0  0  0  0
 12 15  1  0  0  0  0
 13 12  1  0  0  0  0
 14 12  1  0  0  0  0
 16 17  1  0  0  0  0
 17  2  1  0  0  0  0
 18 19  1  0  0  0  0
 18 17  1  0  0  0  0
 20 18  2  0  0  0  0
 21 20  1  0  0  0  0
 21 23  2  0  0  0  0
 22 21  1  0  0  0  0
 23 16  1  0  0  0  0
M  END
