1,2
 OpenBabel05122313053D

 14 14  0  0  0  0  0  0  0  0999 V2000
    3.1164   -0.3132    0.0202 N   0  0  0  0  0  2  0  0  0  0  0  0
    1.4217   -0.4271   -1.9852 C   0  0  0  0  0  2  0  0  0  0  0  0
    0.6685   -0.4161   -2.7954 H   0  0  0  0  0  0  0  0  0  0  0  0
    2.7541   -0.5716   -2.3064 C   0  0  0  0  0  0  0  0  0  0  0  0
    3.1220   -0.7052   -3.3358 H   0  0  0  0  0  0  0  0  0  0  0  0
    3.6937   -0.5309   -1.2116 C   0  0  0  0  0  0  0  0  0  0  0  0
    5.0975   -0.6693   -1.3083 C   0  0  0  0  0  0  0  0  0  0  0  0
    5.5482   -0.8473   -2.2952 H   0  0  0  0  0  0  0  0  0  0  0  0
    5.8854   -0.5778   -0.1598 C   0  0  0  0  0  0  0  0  0  0  0  0
    6.9792   -0.6794   -0.2293 H   0  0  0  0  0  0  0  0  0  0  0  0
    5.2688   -0.3564    1.0870 C   0  0  0  0  0  0  0  0  0  0  0  0
    5.8543   -0.2766    2.0133 H   0  0  0  0  0  0  0  0  0  0  0  0
    3.8769   -0.2363    1.1279 C   0  0  0  0  0  0  0  0  0  0  0  0
    3.3272   -0.0697    2.0678 H   0  0  0  0  0  0  0  0  0  0  0  0
  1 13  1  0  0  0  0
  3  2  1  0  0  0  0
  4  2  1  0  0  0  0
  4  6  2  0  0  0  0
  5  4  1  0  0  0  0
  6  1  1  0  0  0  0
  7  6  1  0  0  0  0
  7  9  2  0  0  0  0
  8  7  1  0  0  0  0
  9 11  1  0  0  0  0
 10  9  1  0  0  0  0
 11 13  2  0  0  0  0
 11 12  1  0  0  0  0
 13 14  1  0  0  0  0
M  END
