1,32
 OpenBabel05122313053D

 38 41  0  0  1  0  0  0  0  0999 V2000
   -2.1204   -0.2224   -0.6002 N   0  0  0  0  0  2  0  0  0  0  0  0
    0.5270    0.5515   -0.6363 N   0  0  0  0  0  0  0  0  0  0  0  0
   -2.7863    1.7025   -1.8860 C   0  0  0  0  0  0  0  0  0  0  0  0
   -2.4986    2.5580   -2.5146 H   0  0  0  0  0  0  0  0  0  0  0  0
   -1.8021    0.8325   -1.4078 C   0  0  2  0  0  3  0  0  0  0  0  0
    1.8735    0.0739   -0.9902 C   0  0  0  0  0  0  0  0  0  0  0  0
    2.3599   -0.9712   -0.1606 C   0  0  0  0  0  0  0  0  0  0  0  0
    2.6192    0.5908   -2.0533 C   0  0  0  0  0  0  0  0  0  0  0  0
    2.2248    1.4143   -2.6665 H   0  0  0  0  0  0  0  0  0  0  0  0
   -0.3383    0.9541   -1.7726 C   0  0  0  0  0  0  0  0  0  0  0  0
   -0.1106    0.2363   -2.5884 H   0  0  0  0  0  0  0  0  0  0  0  0
   -0.1114    1.9715   -2.1556 H   0  0  0  0  0  0  0  0  0  0  0  0
    1.5031   -1.4588    0.9412 C   0  0  0  0  0  3  0  0  0  0  0  0
    1.7453   -2.4592    1.3370 H   0  0  0  0  0  0  0  0  0  0  0  0
   -3.4142   -0.4557   -0.2814 C   0  0  0  0  0  0  0  0  0  0  0  0
   -3.5718   -1.3343    0.3669 H   0  0  0  0  0  0  0  0  0  0  0  0
    0.8086    3.7244    1.4431 C   0  0  0  0  0  0  0  0  0  0  0  0
    0.7906    4.8185    1.3293 H   0  0  0  0  0  0  0  0  0  0  0  0
   -4.4464    0.3670   -0.7442 C   0  0  0  0  0  0  0  0  0  0  0  0
   -5.4855    0.1445   -0.4619 H   0  0  0  0  0  0  0  0  0  0  0  0
    3.8738    0.0268   -2.3471 C   0  0  0  0  0  0  0  0  0  0  0  0
    4.4589    0.4081   -3.1969 H   0  0  0  0  0  0  0  0  0  0  0  0
   -4.1318    1.4690   -1.5531 C   0  0  0  0  0  0  0  0  0  0  0  0
   -4.9201    2.1440   -1.9174 H   0  0  0  0  0  0  0  0  0  0  0  0
    0.6741    1.5173    0.4687 C   0  0  0  0  0  0  0  0  0  0  0  0
    3.6196   -1.5174   -0.4784 C   0  0  0  0  0  0  0  0  0  0  0  0
    4.0083   -2.3450    0.1342 H   0  0  0  0  0  0  0  0  0  0  0  0
    0.6853    2.9038    0.3053 C   0  0  0  0  0  0  0  0  0  0  0  0
    0.5811    3.3574   -0.6907 H   0  0  0  0  0  0  0  0  0  0  0  0
    4.3645   -1.0291   -1.5637 C   0  0  0  0  0  0  0  0  0  0  0  0
    5.3400   -1.4795   -1.8013 H   0  0  0  0  0  0  0  0  0  0  0  0
    0.7547   -0.5707    1.8128 C   0  0  0  0  0  3  0  0  0  0  0  0
    0.4639   -0.9811    2.7956 H   0  0  0  0  0  0  0  0  0  0  0  0
    0.8168    0.9111    1.7410 C   0  0  0  0  0  0  0  0  0  0  0  0
    0.9377    3.1475    2.7144 C   0  0  0  0  0  0  0  0  0  0  0  0
    1.0214    3.7913    3.6028 H   0  0  0  0  0  0  0  0  0  0  0  0
    0.9484    1.7498    2.8622 C   0  0  0  0  0  0  0  0  0  0  0  0
    1.0400    1.2959    3.8607 H   0  0  0  0  0  0  0  0  0  0  0  0
  1 15  1  0  0  0  0
  2 25  1  0  0  0  0
  3 23  2  0  0  0  0
  3  5  1  0  0  0  0
  4  3  1  0  0  0  0
  5 10  1  6  0  0  0
  5  1  1  0  0  0  0
  6  2  1  0  0  0  0
  6  7  1  0  0  0  0
  7 13  1  0  0  0  0
  8  6  2  0  0  0  0
  9  8  1  0  0  0  0
 10  2  1  0  0  0  0
 11 10  1  0  0  0  0
 12 10  1  0  0  0  0
 13 14  1  0  0  0  0
 13 32  1  0  0  0  0
 15 16  1  0  0  0  0
 17 35  1  0  0  0  0
 18 17  1  0  0  0  0
 19 20  1  0  0  0  0
 19 15  2  0  0  0  0
 21  8  1  0  0  0  0
 21 30  2  0  0  0  0
 22 21  1  0  0  0  0
 23 19  1  0  0  0  0
 24 23  1  0  0  0  0
 25 34  2  0  0  0  0
 26  7  2  0  0  0  0
 26 27  1  0  0  0  0
 28 25  1  0  0  0  0
 28 17  2  0  0  0  0
 29 28  1  0  0  0  0
 30 26  1  0  0  0  0
 31 30  1  0  0  0  0
 32 33  1  0  0  0  0
 34 32  1  0  0  0  0
 34 37  1  0  0  0  0
 35 37  2  0  0  0  0
 35 36  1  0  0  0  0
 37 38  1  0  0  0  0
M  END
