1,2
q = -1.0, confidence = 0.0

 24 25  0  0  1  0  0  0  0  0999 V2000
   -0.0249    1.6260   -0.1760 N   0  0  0  0  0  2  0  0  0  0  0  0
   -0.9318   -0.7282    0.0004 C   0  0  0  0  0  3  0  0  0  0  0  0
   -1.2731   -1.7742    0.1081 H   0  0  0  0  0  0  0  0  0  0  0  0
   -1.9307    0.2293   -0.0963 C   0  0  0  0  0  0  0  0  0  0  0  0
   -3.3722   -0.1091   -0.0459 C   0  0  0  0  0  0  0  0  0  0  0  0
   -4.2740    0.5747    0.8063 C   0  0  0  0  0  0  0  0  0  0  0  0
   -3.8973    1.3922    1.4398 H   0  0  0  0  0  0  0  0  0  0  0  0
   -5.6244    0.2049    0.8806 C   0  0  0  0  0  0  0  0  0  0  0  0
   -6.3013    0.7501    1.5569 H   0  0  0  0  0  0  0  0  0  0  0  0
   -6.1123   -0.8638    0.1109 C   0  0  0  0  0  0  0  0  0  0  0  0
   -7.1725   -1.1536    0.1700 H   0  0  0  0  0  0  0  0  0  0  0  0
   -5.2319   -1.5586   -0.7344 C   0  0  0  0  0  0  0  0  0  0  0  0
   -5.6019   -2.3953   -1.3474 H   0  0  0  0  0  0  0  0  0  0  0  0
   -3.8841   -1.1829   -0.8134 C   0  0  0  0  0  0  0  0  0  0  0  0
   -3.2033   -1.7161   -1.4951 H   0  0  0  0  0  0  0  0  0  0  0  0
   -1.4208    1.5714   -0.2251 C   0  0  2  0  0  3  0  0  0  0  0  0
   -2.1998    2.7331   -0.4399 C   0  0  0  0  0  0  0  0  0  0  0  0
   -3.2906    2.6221   -0.5127 H   0  0  0  0  0  0  0  0  0  0  0  0
   -1.5978    3.9820   -0.5714 C   0  0  0  0  0  0  0  0  0  0  0  0
   -2.2006    4.8862   -0.7416 H   0  0  0  0  0  0  0  0  0  0  0  0
   -0.1906    4.0450   -0.4845 C   0  0  0  0  0  0  0  0  0  0  0  0
    0.3530    4.9970   -0.5704 H   0  0  0  0  0  0  0  0  0  0  0  0
    0.5255    2.8664   -0.2973 C   0  0  0  0  0  0  0  0  0  0  0  0
    1.6189    2.9202   -0.2452 H   0  0  0  0  0  0  0  0  0  0  0  0
  2  3  1  0  0  0  0
  4  5  1  0  0  0  0
  4  2  2  0  0  0  0
  5  6  1  0  0  0  0
  6  8  2  0  0  0  0
  6  7  1  0  0  0  0
  8  9  1  0  0  0  0
 10 11  1  0  0  0  0
 10  8  1  0  0  0  0
 12 10  2  0  0  0  0
 13 12  1  0  0  0  0
 14 12  1  0  0  0  0
 14  5  2  0  0  0  0
 15 14  1  0  0  0  0
 16  1  1  0  0  0  0
 16  4  1  6  0  0  0
 17 16  1  0  0  0  0
 18 17  1  0  0  0  0
 19 21  1  0  0  0  0
 19 17  2  0  0  0  0
 20 19  1  0  0  0  0
 21 23  2  0  0  0  0
 22 21  1  0  0  0  0
 23 24  1  0  0  0  0
 23  1  1  0  0  0  0
M  END
