2,3
 OpenBabel05122313053D

 54 56  0  0  1  0  0  0  0  0999 V2000
   -0.0238   -1.0437   -1.2676 Si  0  0  0  0  0  0  0  0  0  0  0  0
   -0.0235   -0.7307    0.4792 N   0  0  0  0  0  2  0  0  0  0  0  0
    1.6882   -0.2488   -1.4400 C   0  0  1  0  0  3  0  0  0  0  0  0
    1.8647    1.1762   -1.2740 C   0  0  0  0  0  0  0  0  0  0  0  0
    3.1183    1.4077   -0.6286 C   0  0  0  0  0  0  0  0  0  0  0  0
    3.7462    0.1307   -0.4072 C   0  0  0  0  0  0  0  0  0  0  0  0
    2.8771   -0.8814   -0.9171 C   0  0  0  0  0  0  0  0  0  0  0  0
    0.8810    2.2458   -1.6602 C   0  0  0  0  0  0  0  0  0  0  0  0
    3.7366    2.7354   -0.3103 C   0  0  0  0  0  0  0  0  0  0  0  0
    5.1105   -0.0656    0.1816 C   0  0  0  0  0  0  0  0  0  0  0  0
    3.1469   -2.3596   -0.8723 C   0  0  0  0  0  0  0  0  0  0  0  0
   -0.1104   -2.8806   -1.7150 C   0  0  0  0  0  0  0  0  0  0  0  0
   -1.3740   -0.1950   -2.2800 C   0  0  0  0  0  0  0  0  0  0  0  0
   -1.0355   -1.1124    1.4751 C   0  0  2  0  0  0  0  0  0  0  0  0
   -0.7610   -2.5175    2.0270 C   0  0  0  0  0  0  0  0  0  0  0  0
   -2.4329   -0.9341    0.8781 C   0  0  0  0  0  0  0  0  0  0  0  0
   -3.2141   -2.0288    0.5190 C   0  0  0  0  0  0  0  0  0  0  0  0
   -4.4692   -1.8725   -0.1271 C   0  0  0  0  0  0  0  0  0  0  0  0
   -4.9513   -0.6084   -0.4184 C   0  0  0  0  0  0  0  0  0  0  0  0
   -4.6672    1.8606   -0.3715 C   0  0  0  0  0  0  0  0  0  0  0  0
   -3.9193    2.9821   -0.0487 C   0  0  0  0  0  0  0  0  0  0  0  0
   -2.6675    2.8308    0.6038 C   0  0  0  0  0  0  0  0  0  0  0  0
   -2.1843    1.5685    0.9185 C   0  0  0  0  0  0  0  0  0  0  0  0
   -2.9228    0.3912    0.5951 C   0  0  0  0  0  0  0  0  0  0  0  0
   -4.1965    0.5490   -0.0663 C   0  0  0  0  0  0  0  0  0  0  0  0
    0.6003    2.1548   -2.7286 H   0  0  0  0  0  0  0  0  0  0  0  0
    1.3076    3.2549   -1.5070 H   0  0  0  0  0  0  0  0  0  0  0  0
   -0.0569    2.1922   -1.0706 H   0  0  0  0  0  0  0  0  0  0  0  0
    2.9747    3.5250   -0.1687 H   0  0  0  0  0  0  0  0  0  0  0  0
    4.4147    3.0651   -1.1273 H   0  0  0  0  0  0  0  0  0  0  0  0
    4.3428    2.6919    0.6161 H   0  0  0  0  0  0  0  0  0  0  0  0
    5.3161    0.6666    0.9874 H   0  0  0  0  0  0  0  0  0  0  0  0
    5.9008    0.0690   -0.5887 H   0  0  0  0  0  0  0  0  0  0  0  0
    5.2333   -1.0759    0.6153 H   0  0  0  0  0  0  0  0  0  0  0  0
    4.1726   -2.5702   -0.5158 H   0  0  0  0  0  0  0  0  0  0  0  0
    3.0369   -2.8103   -1.8791 H   0  0  0  0  0  0  0  0  0  0  0  0
    2.4490   -2.8931   -0.1961 H   0  0  0  0  0  0  0  0  0  0  0  0
    0.5457   -3.5156   -1.0917 H   0  0  0  0  0  0  0  0  0  0  0  0
    0.1673   -3.0325   -2.7792 H   0  0  0  0  0  0  0  0  0  0  0  0
   -1.1553   -3.2320   -1.5879 H   0  0  0  0  0  0  0  0  0  0  0  0
   -2.3269   -0.7540   -2.1834 H   0  0  0  0  0  0  0  0  0  0  0  0
   -1.0809   -0.1980   -3.3512 H   0  0  0  0  0  0  0  0  0  0  0  0
   -1.5640    0.8487   -1.9715 H   0  0  0  0  0  0  0  0  0  0  0  0
   -0.9598   -0.4105    2.3398 H   0  0  0  0  0  0  0  0  0  0  0  0
   -0.7641   -3.2762    1.2194 H   0  0  0  0  0  0  0  0  0  0  0  0
   -1.5109   -2.8099    2.7898 H   0  0  0  0  0  0  0  0  0  0  0  0
    0.2422   -2.5382    2.4933 H   0  0  0  0  0  0  0  0  0  0  0  0
   -2.8556   -3.0459    0.7302 H   0  0  0  0  0  0  0  0  0  0  0  0
   -5.0537   -2.7655   -0.3963 H   0  0  0  0  0  0  0  0  0  0  0  0
   -5.9199   -0.4769   -0.9255 H   0  0  0  0  0  0  0  0  0  0  0  0
   -5.6405    1.9642   -0.8765 H   0  0  0  0  0  0  0  0  0  0  0  0
   -4.2931    3.9876   -0.2950 H   0  0  0  0  0  0  0  0  0  0  0  0
   -2.0726    3.7201    0.8629 H   0  0  0  0  0  0  0  0  0  0  0  0
   -1.2051    1.4754    1.4020 H   0  0  0  0  0  0  0  0  0  0  0  0
  1  2  1  0  0  0  0
  2 14  1  0  0  0  0
  3  4  1  0  0  0  0
  3  1  1  1  0  0  0
  3  7  1  0  0  0  0
  4  5  2  0  0  0  0
  5  6  1  0  0  0  0
  5  9  1  0  0  0  0
  6 10  1  0  0  0  0
  7 11  1  0  0  0  0
  7  6  2  0  0  0  0
  8 27  1  0  0  0  0
  8  4  1  0  0  0  0
  8 28  1  0  0  0  0
  9 29  1  0  0  0  0
  9 31  1  0  0  0  0
 10 34  1  0  0  0  0
 10 32  1  0  0  0  0
 11 35  1  0  0  0  0
 11 37  1  0  0  0  0
 12 40  1  0  0  0  0
 12  1  1  0  0  0  0
 12 38  1  0  0  0  0
 13 41  1  0  0  0  0
 13 43  1  0  0  0  0
 13  1  1  0  0  0  0
 14 15  1  0  0  0  0
 14 44  1  1  0  0  0
 15 47  1  0  0  0  0
 15 46  1  0  0  0  0
 16 14  1  0  0  0  0
 17 48  1  0  0  0  0
 17 16  2  0  0  0  0
 18 17  1  0  0  0  0
 19 18  2  0  0  0  0
 19 25  1  0  0  0  0
 20 25  2  0  0  0  0
 20 21  1  0  0  0  0
 21 22  2  0  0  0  0
 22 53  1  0  0  0  0
 22 23  1  0  0  0  0
 23 54  1  0  0  0  0
 24 16  1  0  0  0  0
 24 23  2  0  0  0  0
 25 24  1  0  0  0  0
 26  8  1  0  0  0  0
 30  9  1  0  0  0  0
 33 10  1  0  0  0  0
 36 11  1  0  0  0  0
 39 12  1  0  0  0  0
 42 13  1  0  0  0  0
 45 15  1  0  0  0  0
 49 18  1  0  0  0  0
 50 19  1  0  0  0  0
 51 20  1  0  0  0  0
 52 21  1  0  0  0  0
M  END
