2,4
 OpenBabel05122313053D

 54 58  0  0  1  0  0  0  0  0999 V2000
   -0.1896   -1.1488   -1.2352 Si  0  0  0  0  0  0  0  0  0  0  0  0
   -0.3250   -0.9223    0.5286 N   0  0  0  0  0  2  0  0  0  0  0  0
    2.7408   -0.6105   -0.9981 C   0  0  0  0  0  0  0  0  0  0  0  0
    1.4027   -0.1372   -1.3248 C   0  0  0  0  0  3  0  0  0  0  0  0
    1.4139    1.2894   -1.0282 C   0  0  0  0  0  0  0  0  0  0  0  0
    2.6814    1.6574   -0.4276 C   0  0  0  0  0  0  0  0  0  0  0  0
    3.5111    0.4674   -0.4075 C   0  0  0  0  0  0  0  0  0  0  0  0
    3.3368   -1.9001   -1.0916 C   0  0  0  0  0  0  0  0  0  0  0  0
    4.6355   -2.0896   -0.6310 C   0  0  0  0  0  0  0  0  0  0  0  0
    5.3812   -1.0255   -0.0539 C   0  0  0  0  0  0  0  0  0  0  0  0
    4.8290    0.2469    0.0606 C   0  0  0  0  0  0  0  0  0  0  0  0
    0.3964    2.2819   -1.1263 C   0  0  0  0  0  0  0  0  0  0  0  0
    0.6604    3.5774   -0.6952 C   0  0  0  0  0  0  0  0  0  0  0  0
    1.9172    3.9335   -0.1328 C   0  0  0  0  0  0  0  0  0  0  0  0
    2.9241    2.9836    0.0065 C   0  0  0  0  0  0  0  0  0  0  0  0
    0.0209   -2.9717   -1.6886 C   0  0  0  0  0  0  0  0  0  0  0  0
    0.3760   -3.0915   -2.7331 H   0  0  0  0  0  0  0  0  0  0  0  0
   -0.9620   -3.4809   -1.6073 H   0  0  0  0  0  0  0  0  0  0  0  0
    0.7278   -3.4860   -1.0093 H   0  0  0  0  0  0  0  0  0  0  0  0
   -1.5934   -0.4574   -2.2896 C   0  0  0  0  0  0  0  0  0  0  0  0
   -2.4778   -1.1239   -2.2361 H   0  0  0  0  0  0  0  0  0  0  0  0
   -1.2566   -0.4082   -3.3463 H   0  0  0  0  0  0  0  0  0  0  0  0
   -1.9212    0.5510   -1.9765 H   0  0  0  0  0  0  0  0  0  0  0  0
   -1.3855   -1.3718    1.4423 C   0  0  2  0  0  0  0  0  0  0  0  0
   -1.1242   -2.8011    1.9331 C   0  0  0  0  0  0  0  0  0  0  0  0
   -1.0786   -3.5192    1.0904 H   0  0  0  0  0  0  0  0  0  0  0  0
   -1.9111   -3.1352    2.6389 H   0  0  0  0  0  0  0  0  0  0  0  0
   -0.1478   -2.8397    2.4511 H   0  0  0  0  0  0  0  0  0  0  0  0
   -2.7527   -1.1685    0.7883 C   0  0  0  0  0  0  0  0  0  0  0  0
   -3.5246   -2.2469    0.3664 C   0  0  0  0  0  0  0  0  0  0  0  0
   -4.7573   -2.0627   -0.3146 C   0  0  0  0  0  0  0  0  0  0  0  0
   -5.2244   -0.7868   -0.5773 C   0  0  0  0  0  0  0  0  0  0  0  0
   -4.4772    0.3547   -0.1622 C   0  0  0  0  0  0  0  0  0  0  0  0
   -4.9341    1.6774   -0.4377 C   0  0  0  0  0  0  0  0  0  0  0  0
   -4.1934    2.7843   -0.0524 C   0  0  0  0  0  0  0  0  0  0  0  0
   -2.9631    2.6056    0.6326 C   0  0  0  0  0  0  0  0  0  0  0  0
   -2.4927    1.3319    0.9197 C   0  0  0  0  0  0  0  0  0  0  0  0
   -3.2259    0.1692    0.5349 C   0  0  0  0  0  0  0  0  0  0  0  0
    2.7801   -2.7318   -1.5441 H   0  0  0  0  0  0  0  0  0  0  0  0
    5.0997   -3.0838   -0.7175 H   0  0  0  0  0  0  0  0  0  0  0  0
    6.4063   -1.2128    0.2992 H   0  0  0  0  0  0  0  0  0  0  0  0
    5.4066    1.0739    0.5009 H   0  0  0  0  0  0  0  0  0  0  0  0
   -0.5811    2.0330   -1.5579 H   0  0  0  0  0  0  0  0  0  0  0  0
   -0.1225    4.3452   -0.7924 H   0  0  0  0  0  0  0  0  0  0  0  0
    2.0904    4.9694    0.1948 H   0  0  0  0  0  0  0  0  0  0  0  0
    3.8957    3.2537    0.4472 H   0  0  0  0  0  0  0  0  0  0  0  0
   -1.3592   -0.7156    2.3435 H   0  0  0  0  0  0  0  0  0  0  0  0
   -3.1767   -3.2722    0.5545 H   0  0  0  0  0  0  0  0  0  0  0  0
   -5.3364   -2.9428   -0.6330 H   0  0  0  0  0  0  0  0  0  0  0  0
   -6.1759   -0.6333   -1.1100 H   0  0  0  0  0  0  0  0  0  0  0  0
   -5.8903    1.8022   -0.9698 H   0  0  0  0  0  0  0  0  0  0  0  0
   -4.5564    3.7990   -0.2757 H   0  0  0  0  0  0  0  0  0  0  0  0
   -2.3699    3.4821    0.9353 H   0  0  0  0  0  0  0  0  0  0  0  0
   -1.5252    1.2213    1.4239 H   0  0  0  0  0  0  0  0  0  0  0  0
  1  2  1  0  0  0  0
  2 24  1  0  0  0  0
  3  7  1  0  0  0  0
  4  1  1  0  0  0  0
  4  5  1  0  0  0  0
  4  3  1  0  0  0  0
  5  6  1  0  0  0  0
  6  7  1  0  0  0  0
  6 15  2  0  0  0  0
  7 11  2  0  0  0  0
  8  3  2  0  0  0  0
  8  9  1  0  0  0  0
  9 10  2  0  0  0  0
 10 11  1  0  0  0  0
 10 41  1  0  0  0  0
 11 42  1  0  0  0  0
 12  5  2  0  0  0  0
 12 13  1  0  0  0  0
 13 14  2  0  0  0  0
 14 15  1  0  0  0  0
 14 45  1  0  0  0  0
 15 46  1  0  0  0  0
 16 18  1  0  0  0  0
 16  1  1  0  0  0  0
 16 19  1  0  0  0  0
 17 16  1  0  0  0  0
 20 21  1  0  0  0  0
 20 23  1  0  0  0  0
 20  1  1  0  0  0  0
 22 20  1  0  0  0  0
 24 25  1  0  0  0  0
 24 47  1  1  0  0  0
 25 28  1  0  0  0  0
 25 27  1  0  0  0  0
 26 25  1  0  0  0  0
 29 24  1  0  0  0  0
 30 48  1  0  0  0  0
 30 29  2  0  0  0  0
 31 30  1  0  0  0  0
 32 31  2  0  0  0  0
 32 33  1  0  0  0  0
 33 38  1  0  0  0  0
 34 33  2  0  0  0  0
 34 35  1  0  0  0  0
 35 36  2  0  0  0  0
 36 37  1  0  0  0  0
 36 53  1  0  0  0  0
 37 54  1  0  0  0  0
 38 29  1  0  0  0  0
 38 37  2  0  0  0  0
 39  8  1  0  0  0  0
 40  9  1  0  0  0  0
 43 12  1  0  0  0  0
 44 13  1  0  0  0  0
 49 31  1  0  0  0  0
 50 32  1  0  0  0  0
 51 34  1  0  0  0  0
 52 35  1  0  0  0  0
M  END
