2,3
 OpenBabel05122313053D

 35 37  0  0  0  0  0  0  0  0999 V2000
    5.0533   -2.2402   -0.0849 S   0  0  0  0  0  0  0  0  0  0  0  0
   -3.4905   -0.8311   -0.0162 N   0  0  0  0  0  2  0  0  0  0  0  0
   -0.9916   -1.5344   -0.0544 C   0  0  0  0  0  2  0  0  0  0  0  0
    5.6134   -0.5487    0.0316 C   0  0  0  0  0  0  0  0  0  0  0  0
    1.1045   -2.5897    0.8403 C   0  0  0  0  0  0  0  0  0  0  0  0
    0.4991   -3.0937    1.6089 H   0  0  0  0  0  0  0  0  0  0  0  0
   -4.4030   -3.0598    0.1022 C   0  0  0  0  0  0  0  0  0  0  0  0
   -4.2314   -4.1444    0.1520 H   0  0  0  0  0  0  0  0  0  0  0  0
    2.4993   -2.7279    0.8494 C   0  0  0  0  0  0  0  0  0  0  0  0
    2.9955   -3.3360    1.6203 H   0  0  0  0  0  0  0  0  0  0  0  0
   -3.2858   -2.1982    0.0453 C   0  0  0  0  0  0  0  0  0  0  0  0
    0.4622   -1.7517   -0.0999 C   0  0  0  0  0  0  0  0  0  0  0  0
    1.2617   -1.0964   -1.0692 C   0  0  0  0  0  0  0  0  0  0  0  0
    0.7721   -0.4534   -1.8138 H   0  0  0  0  0  0  0  0  0  0  0  0
    2.6456   -1.2690   -1.0959 C   0  0  0  0  0  0  0  0  0  0  0  0
    3.2541   -0.7676   -1.8631 H   0  0  0  0  0  0  0  0  0  0  0  0
   -1.8977   -2.5739    0.0272 C   0  0  0  0  0  0  0  0  0  0  0  0
   -1.6086   -3.6366    0.0254 H   0  0  0  0  0  0  0  0  0  0  0  0
   -4.7386   -0.3169   -0.0208 C   0  0  0  0  0  0  0  0  0  0  0  0
   -4.7903    0.7820   -0.0639 H   0  0  0  0  0  0  0  0  0  0  0  0
    3.2792   -2.0583   -0.1122 C   0  0  0  0  0  0  0  0  0  0  0  0
   -5.8700   -1.1342    0.0319 C   0  0  0  0  0  0  0  0  0  0  0  0
   -6.8694   -0.6785    0.0238 H   0  0  0  0  0  0  0  0  0  0  0  0
    5.3555    1.7896    0.6548 C   0  0  0  0  0  0  0  0  0  0  0  0
    4.7301    2.5971    1.0666 H   0  0  0  0  0  0  0  0  0  0  0  0
    4.8260    0.4947    0.5627 C   0  0  0  0  0  0  0  0  0  0  0  0
    3.7982    0.2925    0.8973 H   0  0  0  0  0  0  0  0  0  0  0  0
   -5.6949   -2.5298    0.0949 C   0  0  0  0  0  0  0  0  0  0  0  0
   -6.5675   -3.1987    0.1386 H   0  0  0  0  0  0  0  0  0  0  0  0
    6.9327   -0.2784   -0.3904 C   0  0  0  0  0  0  0  0  0  0  0  0
    7.5438   -1.0886   -0.8171 H   0  0  0  0  0  0  0  0  0  0  0  0
    7.4557    1.0174   -0.2769 C   0  0  0  0  0  0  0  0  0  0  0  0
    8.4861    1.2148   -0.6106 H   0  0  0  0  0  0  0  0  0  0  0  0
    6.6701    2.0599    0.2404 C   0  0  0  0  0  0  0  0  0  0  0  0
    7.0793    3.0781    0.3183 H   0  0  0  0  0  0  0  0  0  0  0  0
  1  4  1  0  0  0  0
  2 11  1  0  0  0  0
  3 17  1  0  0  0  0
  4 26  1  0  0  0  0
  5  9  1  0  0  0  0
  5  6  1  0  0  0  0
  7  8  1  0  0  0  0
  9 10  1  0  0  0  0
 11  7  1  0  0  0  0
 12  3  1  0  0  0  0
 12  5  2  0  0  0  0
 13 12  1  0  0  0  0
 14 13  1  0  0  0  0
 15 13  2  0  0  0  0
 15 21  1  0  0  0  0
 16 15  1  0  0  0  0
 17 11  2  0  0  0  0
 18 17  1  0  0  0  0
 19  2  1  0  0  0  0
 19 22  2  0  0  0  0
 20 19  1  0  0  0  0
 21  1  1  0  0  0  0
 21  9  2  0  0  0  0
 22 28  1  0  0  0  0
 23 22  1  0  0  0  0
 24 25  1  0  0  0  0
 26 24  2  0  0  0  0
 26 27  1  0  0  0  0
 28  7  2  0  0  0  0
 28 29  1  0  0  0  0
 30 32  1  0  0  0  0
 30  4  2  0  0  0  0
 31 30  1  0  0  0  0
 32 34  2  0  0  0  0
 33 32  1  0  0  0  0
 34 35  1  0  0  0  0
 34 24  1  0  0  0  0
M  END
