3,4
 OpenBabel05122313053D

 37 39  0  0  0  0  0  0  0  0999 V2000
    1.0104    2.4122   -0.3408 C   0  0  0  0  0  0  0  0  0  0  0  0
    0.2318    3.1777   -0.4851 H   0  0  0  0  0  0  0  0  0  0  0  0
    3.2374    1.7363    0.0500 N   0  0  0  0  0  2  0  0  0  0  0  0
    0.7454    1.0592   -0.2454 C   0  0  0  0  0  2  0  0  0  0  0  0
    2.3850    2.8016   -0.1755 C   0  0  0  0  0  0  0  0  0  0  0  0
   -2.4474   -0.8912    0.4103 C   0  0  0  0  0  0  0  0  0  0  0  0
   -2.8495   -1.6405    1.1076 H   0  0  0  0  0  0  0  0  0  0  0  0
   -3.2522   -0.4197   -0.6385 C   0  0  0  0  0  0  0  0  0  0  0  0
   -2.7674    0.5044   -1.5754 C   0  0  0  0  0  0  0  0  0  0  0  0
   -3.4108    0.8188   -2.4101 H   0  0  0  0  0  0  0  0  0  0  0  0
   -0.6248    0.5373   -0.3837 C   0  0  0  0  0  0  0  0  0  0  0  0
   -1.4597    0.9833   -1.4383 C   0  0  0  0  0  0  0  0  0  0  0  0
   -1.0554    1.6938   -2.1747 H   0  0  0  0  0  0  0  0  0  0  0  0
   -1.1376   -0.4177    0.5285 C   0  0  0  0  0  0  0  0  0  0  0  0
   -0.4889   -0.7810    1.3365 H   0  0  0  0  0  0  0  0  0  0  0  0
   -4.9345   -1.0487   -0.8098 S   0  0  0  0  0  0  0  0  0  0  0  0
    2.9108    4.1111   -0.2110 C   0  0  0  0  0  0  0  0  0  0  0  0
    2.2253    4.9512   -0.3911 H   0  0  0  0  0  0  0  0  0  0  0  0
    4.2784    4.3192   -0.0197 C   0  0  0  0  0  0  0  0  0  0  0  0
    4.6925    5.3383   -0.0467 H   0  0  0  0  0  0  0  0  0  0  0  0
    5.1205    3.2141    0.2071 C   0  0  0  0  0  0  0  0  0  0  0  0
    6.2013    3.3356    0.3622 H   0  0  0  0  0  0  0  0  0  0  0  0
    4.5599    1.9351    0.2336 C   0  0  0  0  0  0  0  0  0  0  0  0
    5.1505    1.0209    0.3988 H   0  0  0  0  0  0  0  0  0  0  0  0
   -5.9175    0.0855    0.2048 C   0  0  0  0  0  0  0  0  0  0  0  0
   -4.9841   -2.3785   -0.1524 O   0  0  0  0  0  0  0  0  0  0  0  0
   -5.3474   -0.8445   -2.2206 O   0  0  0  0  0  0  0  0  0  0  0  0
   -6.1484   -0.2314    1.5510 C   0  0  0  0  0  0  0  0  0  0  0  0
   -5.7427   -1.1668    1.9633 H   0  0  0  0  0  0  0  0  0  0  0  0
   -6.4509    1.2397   -0.3869 C   0  0  0  0  0  0  0  0  0  0  0  0
   -6.2771    1.4298   -1.4560 H   0  0  0  0  0  0  0  0  0  0  0  0
   -6.9145    0.6485    2.3298 C   0  0  0  0  0  0  0  0  0  0  0  0
   -7.1079    0.4154    3.3878 H   0  0  0  0  0  0  0  0  0  0  0  0
   -7.2150    2.1114    0.4027 C   0  0  0  0  0  0  0  0  0  0  0  0
   -7.6434    3.0210   -0.0447 H   0  0  0  0  0  0  0  0  0  0  0  0
   -7.4417    1.8188    1.7583 C   0  0  0  0  0  0  0  0  0  0  0  0
   -8.0427    2.5056    2.3734 H   0  0  0  0  0  0  0  0  0  0  0  0
  1  4  1  0  0  0  0
  1  5  2  0  0  0  0
  2  1  1  0  0  0  0
  3 23  1  0  0  0  0
  5  3  1  0  0  0  0
  6 14  1  0  0  0  0
  6  7  1  0  0  0  0
  8  6  2  0  0  0  0
  9 12  2  0  0  0  0
  9  8  1  0  0  0  0
 10  9  1  0  0  0  0
 11  4  1  0  0  0  0
 11 14  2  0  0  0  0
 12 11  1  0  0  0  0
 13 12  1  0  0  0  0
 14 15  1  0  0  0  0
 16  8  1  0  0  0  0
 16 26  2  0  0  0  0
 16 25  1  0  0  0  0
 17  5  1  0  0  0  0
 17 19  2  0  0  0  0
 18 17  1  0  0  0  0
 19 21  1  0  0  0  0
 20 19  1  0  0  0  0
 21 23  2  0  0  0  0
 21 22  1  0  0  0  0
 23 24  1  0  0  0  0
 25 28  1  0  0  0  0
 27 16  2  0  0  0  0
 28 29  1  0  0  0  0
 28 32  2  0  0  0  0
 30 25  2  0  0  0  0
 30 34  1  0  0  0  0
 31 30  1  0  0  0  0
 32 33  1  0  0  0  0
 34 36  2  0  0  0  0
 35 34  1  0  0  0  0
 36 32  1  0  0  0  0
 36 37  1  0  0  0  0
M  END
