2,3
 OpenBabel05122313053D

 15 15  0  0  1  0  0  0  0  0999 V2000
    1.7516    2.8191   -0.4747 O   0  0  0  0  0  0  0  0  0  0  0  0
    1.6329   -0.6036   -0.2133 N   0  0  0  0  0  2  0  0  0  0  0  0
    0.4604    1.2171   -1.7782 C   0  0  0  0  0  3  0  0  0  0  0  0
    0.7534    0.5188   -2.5836 H   0  0  0  0  0  0  0  0  0  0  0  0
   -0.1986    2.0305   -2.1265 H   0  0  0  0  0  0  0  0  0  0  0  0
    1.5505    1.6737   -0.9028 C   0  0  0  0  0  0  0  0  0  0  0  0
    2.3859    0.5060   -0.4038 C   0  0  1  0  0  3  0  0  0  0  0  0
    3.7545    0.5228   -0.1152 C   0  0  0  0  0  0  0  0  0  0  0  0
    4.3119    1.4631   -0.2311 H   0  0  0  0  0  0  0  0  0  0  0  0
    4.3578   -0.6700    0.3121 C   0  0  0  0  0  0  0  0  0  0  0  0
    5.4346   -0.7009    0.5376 H   0  0  0  0  0  0  0  0  0  0  0  0
    3.5741   -1.8287    0.4452 C   0  0  0  0  0  0  0  0  0  0  0  0
    4.0182   -2.7834    0.7608 H   0  0  0  0  0  0  0  0  0  0  0  0
    2.1990   -1.7578    0.1804 C   0  0  0  0  0  0  0  0  0  0  0  0
    1.5225   -2.6200    0.2823 H   0  0  0  0  0  0  0  0  0  0  0  0
  2 14  1  0  0  0  0
  3  6  1  0  0  0  0
  4  3  1  0  0  0  0
  5  3  1  0  0  0  0
  6  1  2  0  0  0  0
  7  6  1  1  0  0  0
  7  2  1  0  0  0  0
  7  8  1  0  0  0  0
  8 10  2  0  0  0  0
  9  8  1  0  0  0  0
 10 12  1  0  0  0  0
 10 11  1  0  0  0  0
 12 13  1  0  0  0  0
 14 15  1  0  0  0  0
 14 12  2  0  0  0  0
M  END
