1,2
 OpenBabel05122313053D

 16 17  0  0  1  0  0  0  0  0999 V2000
    0.6718    0.2438    0.0492 N   0  0  0  0  0  2  0  0  0  0  0  0
   -1.7827    2.0456   -0.4695 C   0  0  0  0  0  3  0  0  0  0  0  0
    2.0033   -0.1173   -0.0150 C   0  0  0  0  0  0  0  0  0  0  0  0
   -2.5679    2.7048   -1.0721 O   0  0  0  0  0  0  0  0  0  0  0  0
    1.9899    2.4785    0.3851 S   0  0  0  0  0  0  0  0  0  0  0  0
    4.2847    0.8128    0.1281 C   0  0  0  0  0  0  0  0  0  0  0  0
    4.9808    1.6520    0.2577 H   0  0  0  0  0  0  0  0  0  0  0  0
    2.8940    0.9844    0.1544 C   0  0  0  0  0  0  0  0  0  0  0  0
    2.5172   -1.4116   -0.2142 C   0  0  0  0  0  0  0  0  0  0  0  0
    1.8270   -2.2578   -0.3427 H   0  0  0  0  0  0  0  0  0  0  0  0
    0.5024    1.5426    0.2350 C   0  0  2  0  0  3  0  0  0  0  0  0
    6.4895   -0.7514   -0.1171 Cl  0  0  0  0  0  0  0  0  0  0  0  0
    4.7692   -0.4887   -0.0745 C   0  0  0  0  0  0  0  0  0  0  0  0
    3.9014   -1.5923   -0.2443 C   0  0  0  0  0  0  0  0  0  0  0  0
    4.3322   -2.5908   -0.3989 H   0  0  0  0  0  0  0  0  0  0  0  0
   -0.7694    2.0305    0.3557 N   0  0  0  0  0  2  0  0  0  0  0  0
  1 11  1  0  0  0  0
  2 16  1  0  0  0  0
  3  1  1  0  0  0  0
  3  8  1  0  0  0  0
  4  2  2  0  0  0  0
  6  8  2  0  0  0  0
  6  7  1  0  0  0  0
  8  5  1  0  0  0  0
  9  3  2  0  0  0  0
 10  9  1  0  0  0  0
 11 16  1  1  0  0  0
 11  5  1  0  0  0  0
 12 13  1  0  0  0  0
 13  6  1  0  0  0  0
 14  9  1  0  0  0  0
 14 13  2  0  0  0  0
 15 14  1  0  0  0  0
M  END
