1,44
 OpenBabel05122313053D

 45 47  0  0  0  0  0  0  0  0999 V2000
   -0.1505   -0.3238    0.2360 N   0  0  0  0  0  2  0  0  0  0  0  0
   -0.5463   -0.7929    1.4942 C   0  0  0  0  0  0  0  0  0  0  0  0
    0.2929   -1.7428    2.1390 C   0  0  0  0  0  0  0  0  0  0  0  0
    1.1459   -2.1623    1.5833 H   0  0  0  0  0  0  0  0  0  0  0  0
    0.0168   -2.2018    3.4311 C   0  0  0  0  0  0  0  0  0  0  0  0
    0.6905   -2.9381    3.8961 H   0  0  0  0  0  0  0  0  0  0  0  0
   -1.1269   -1.7564    4.1151 C   0  0  0  0  0  0  0  0  0  0  0  0
   -1.3525   -2.1234    5.1273 H   0  0  0  0  0  0  0  0  0  0  0  0
   -1.9905   -0.8553    3.4734 C   0  0  0  0  0  0  0  0  0  0  0  0
   -2.9031   -0.5106    3.9840 H   0  0  0  0  0  0  0  0  0  0  0  0
   -1.7128   -0.3750    2.1863 C   0  0  0  0  0  0  0  0  0  0  0  0
   -2.4030    0.3368    1.7209 H   0  0  0  0  0  0  0  0  0  0  0  0
   -1.1308    0.2407   -0.7246 C   0  0  0  0  0  0  0  0  0  0  0  0
   -2.2803   -0.7775   -0.9008 C   0  0  0  0  0  0  0  0  0  0  0  0
   -1.9362   -2.0711   -1.3488 C   0  0  0  0  0  0  0  0  0  0  0  0
   -0.8810   -2.3051   -1.5580 H   0  0  0  0  0  0  0  0  0  0  0  0
   -2.9116   -3.0610   -1.4945 C   0  0  0  0  0  0  0  0  0  0  0  0
   -2.6135   -4.0636   -1.8408 H   0  0  0  0  0  0  0  0  0  0  0  0
   -4.2682   -2.8029   -1.1989 C   0  0  0  0  0  0  0  0  0  0  0  0
   -4.6021   -1.5146   -0.7451 C   0  0  0  0  0  0  0  0  0  0  0  0
   -5.6502   -1.2849   -0.4945 H   0  0  0  0  0  0  0  0  0  0  0  0
   -3.6255   -0.5162   -0.5949 C   0  0  0  0  0  0  0  0  0  0  0  0
   -3.9258    0.4750   -0.2260 H   0  0  0  0  0  0  0  0  0  0  0  0
   -5.3112   -3.8793   -1.3613 C   0  0  0  0  0  0  0  0  0  0  0  0
   -6.3150   -3.5271   -1.0541 H   0  0  0  0  0  0  0  0  0  0  0  0
   -5.0636   -4.7746   -0.7535 H   0  0  0  0  0  0  0  0  0  0  0  0
   -5.3792   -4.2194   -2.4162 H   0  0  0  0  0  0  0  0  0  0  0  0
   -1.5912    1.6691   -0.3672 C   0  0  0  0  0  0  0  0  0  0  0  0
   -2.5095    2.3590   -1.1898 C   0  0  0  0  0  0  0  0  0  0  0  0
   -2.9523    1.8536   -2.0611 H   0  0  0  0  0  0  0  0  0  0  0  0
   -2.8728    3.6828   -0.9156 C   0  0  0  0  0  0  0  0  0  0  0  0
   -3.5919    4.1919   -1.5773 H   0  0  0  0  0  0  0  0  0  0  0  0
   -2.3344    4.3777    0.1881 C   0  0  0  0  0  0  0  0  0  0  0  0
   -1.4126    3.6899    0.9985 C   0  0  0  0  0  0  0  0  0  0  0  0
   -0.9688    4.2027    1.8672 H   0  0  0  0  0  0  0  0  0  0  0  0
   -1.0449    2.3643    0.7240 C   0  0  0  0  0  0  0  0  0  0  0  0
   -0.3186    1.8535    1.3680 H   0  0  0  0  0  0  0  0  0  0  0  0
   -2.7492    5.7954    0.4894 C   0  0  0  0  0  0  0  0  0  0  0  0
   -3.7881    5.8349    0.8816 H   0  0  0  0  0  0  0  0  0  0  0  0
   -2.7273    6.4281   -0.4214 H   0  0  0  0  0  0  0  0  0  0  0  0
   -2.0904    6.2618    1.2474 H   0  0  0  0  0  0  0  0  0  0  0  0
   -0.4316    0.3924   -2.0853 C   0  0  0  0  0  0  0  0  0  0  0  0
   -1.1091    0.7391   -2.8895 H   0  0  0  0  0  0  0  0  0  0  0  0
    0.8865    0.1624   -2.2989 C   0  0  0  0  0  3  0  0  0  0  0  0
    1.3033    0.3228   -3.3080 H   0  0  0  0  0  0  0  0  0  0  0  0
  1  2  1  0  0  0  0
  2  3  2  0  0  0  0
  2 11  1  0  0  0  0
  3  5  1  0  0  0  0
  4  3  1  0  0  0  0
  5  6  1  0  0  0  0
  5  7  2  0  0  0  0
  7  8  1  0  0  0  0
  9 10  1  0  0  0  0
  9  7  1  0  0  0  0
 11  9  2  0  0  0  0
 12 11  1  0  0  0  0
 13 28  1  0  0  0  0
 13  1  1  0  0  0  0
 14 13  1  0  0  0  0
 14 22  1  0  0  0  0
 15 14  2  0  0  0  0
 16 15  1  0  0  0  0
 17 15  1  0  0  0  0
 17 19  2  0  0  0  0
 18 17  1  0  0  0  0
 19 20  1  0  0  0  0
 20 22  2  0  0  0  0
 20 21  1  0  0  0  0
 22 23  1  0  0  0  0
 24 19  1  0  0  0  0
 24 25  1  0  0  0  0
 24 26  1  0  0  0  0
 27 24  1  0  0  0  0
 28 36  1  0  0  0  0
 29 31  1  0  0  0  0
 29 28  2  0  0  0  0
 30 29  1  0  0  0  0
 31 33  2  0  0  0  0
 32 31  1  0  0  0  0
 33 38  1  0  0  0  0
 33 34  1  0  0  0  0
 34 35  1  0  0  0  0
 36 34  2  0  0  0  0
 36 37  1  0  0  0  0
 38 39  1  0  0  0  0
 38 41  1  0  0  0  0
 40 38  1  0  0  0  0
 42 13  1  0  0  0  0
 43 42  1  0  0  0  0
 44 42  2  0  0  0  0
 45 44  1  0  0  0  0
M  END
