1,4
 OpenBabel05122313053D

 47 49  0  0  1  0  0  0  0  0999 V2000
   -0.6802   -0.0287   -0.1243 N   0  0  0  0  0  2  0  0  0  0  0  0
    1.4771   -3.2209    0.2059 N   0  0  0  0  0  0  0  0  0  0  0  0
   -0.4736   -2.2661    0.1263 N   0  0  0  0  0  0  0  0  0  0  0  0
    0.8869   -1.9973    0.2147 C   0  0  0  0  0  2  0  0  0  0  0  0
    2.9104   -3.4614    0.1600 C   0  0  0  0  0  0  0  0  0  0  0  0
    3.3988   -2.5626   -0.2505 H   0  0  0  0  0  0  0  0  0  0  0  0
    3.1149   -4.3139   -0.5132 H   0  0  0  0  0  0  0  0  0  0  0  0
    3.3105   -3.6880    1.1678 H   0  0  0  0  0  0  0  0  0  0  0  0
    0.5162   -4.2319    0.1152 C   0  0  0  0  0  0  0  0  0  0  0  0
    0.7931   -5.2905    0.0986 H   0  0  0  0  0  0  0  0  0  0  0  0
   -0.7122   -3.6402    0.0515 C   0  0  0  0  0  0  0  0  0  0  0  0
   -1.7132   -4.0638   -0.0579 H   0  0  0  0  0  0  0  0  0  0  0  0
   -1.3257   -1.1726   -0.0439 C   0  0  1  0  0  3  0  0  0  0  0  0
   -2.7809   -1.3779   -0.0897 C   0  0  0  0  0  0  0  0  0  0  0  0
   -3.4226   -2.2046    0.8617 C   0  0  0  0  0  0  0  0  0  0  0  0
   -2.8379   -2.6892    1.6580 H   0  0  0  0  0  0  0  0  0  0  0  0
   -4.8113   -2.3744    0.8274 C   0  0  0  0  0  0  0  0  0  0  0  0
   -5.2965   -3.0080    1.5854 H   0  0  0  0  0  0  0  0  0  0  0  0
   -5.6018   -1.7413   -0.1545 C   0  0  0  0  0  0  0  0  0  0  0  0
   -4.9485   -0.9212   -1.1023 C   0  0  0  0  0  0  0  0  0  0  0  0
   -5.5416   -0.4203   -1.8828 H   0  0  0  0  0  0  0  0  0  0  0  0
   -3.5658   -0.7334   -1.0732 C   0  0  0  0  0  0  0  0  0  0  0  0
   -3.0830   -0.0976   -1.8269 H   0  0  0  0  0  0  0  0  0  0  0  0
   -7.0918   -1.9366   -0.2079 C   0  0  0  0  0  0  0  0  0  0  0  0
   -7.6217   -0.9644   -0.2695 H   0  0  0  0  0  0  0  0  0  0  0  0
   -7.4697   -2.4837    0.6761 H   0  0  0  0  0  0  0  0  0  0  0  0
   -7.3798   -2.5129   -1.1124 H   0  0  0  0  0  0  0  0  0  0  0  0
   -1.3993    1.2082   -0.0471 C   0  0  0  0  0  0  0  0  0  0  0  0
   -1.9870    1.5755    1.1902 C   0  0  0  0  0  0  0  0  0  0  0  0
   -2.6398    2.8212    1.2666 C   0  0  0  0  0  0  0  0  0  0  0  0
   -3.0913    3.1188    2.2264 H   0  0  0  0  0  0  0  0  0  0  0  0
   -2.7429    3.6844    0.1629 C   0  0  0  0  0  0  0  0  0  0  0  0
   -2.1557    3.2738   -1.0504 C   0  0  0  0  0  0  0  0  0  0  0  0
   -2.2305    3.9287   -1.9333 H   0  0  0  0  0  0  0  0  0  0  0  0
   -1.4698    2.0560   -1.1818 C   0  0  0  0  0  0  0  0  0  0  0  0
   -0.8394    1.6718   -2.4911 C   0  0  0  0  0  0  0  0  0  0  0  0
    0.2669    1.7375   -2.4439 H   0  0  0  0  0  0  0  0  0  0  0  0
   -1.1900    2.3292   -3.3082 H   0  0  0  0  0  0  0  0  0  0  0  0
   -1.0393    0.6176   -2.7680 H   0  0  0  0  0  0  0  0  0  0  0  0
   -1.9593    0.6706    2.3955 C   0  0  0  0  0  0  0  0  0  0  0  0
   -2.0008    1.2584    3.3324 H   0  0  0  0  0  0  0  0  0  0  0  0
   -1.0550    0.0327    2.4246 H   0  0  0  0  0  0  0  0  0  0  0  0
   -2.8393   -0.0067    2.3983 H   0  0  0  0  0  0  0  0  0  0  0  0
   -3.4676    5.0015    0.2589 C   0  0  0  0  0  0  0  0  0  0  0  0
   -2.8396    5.8367   -0.1123 H   0  0  0  0  0  0  0  0  0  0  0  0
   -3.7671    5.2319    1.2988 H   0  0  0  0  0  0  0  0  0  0  0  0
   -4.3871    4.9942   -0.3632 H   0  0  0  0  0  0  0  0  0  0  0  0
  1 28  1  0  0  0  0
  2  4  1  0  0  0  0
  3  4  1  0  0  0  0
  5  2  1  0  0  0  0
  5  8  1  0  0  0  0
  6  5  1  0  0  0  0
  7  5  1  0  0  0  0
  9  2  1  0  0  0  0
 10  9  1  0  0  0  0
 11  9  2  0  0  0  0
 11  3  1  0  0  0  0
 12 11  1  0  0  0  0
 13  1  1  1  0  0  0
 13  3  1  0  0  0  0
 14 13  1  0  0  0  0
 14 15  1  0  0  0  0
 15 16  1  0  0  0  0
 17 15  2  0  0  0  0
 17 18  1  0  0  0  0
 19 17  1  0  0  0  0
 20 22  1  0  0  0  0
 20 19  2  0  0  0  0
 21 20  1  0  0  0  0
 22 14  2  0  0  0  0
 23 22  1  0  0  0  0
 24 19  1  0  0  0  0
 24 26  1  0  0  0  0
 25 24  1  0  0  0  0
 27 24  1  0  0  0  0
 28 29  1  0  0  0  0
 29 30  2  0  0  0  0
 29 40  1  0  0  0  0
 30 31  1  0  0  0  0
 32 44  1  0  0  0  0
 32 30  1  0  0  0  0
 33 32  2  0  0  0  0
 34 33  1  0  0  0  0
 35 33  1  0  0  0  0
 35 28  2  0  0  0  0
 36 37  1  0  0  0  0
 36 35  1  0  0  0  0
 38 36  1  0  0  0  0
 39 36  1  0  0  0  0
 40 43  1  0  0  0  0
 40 42  1  0  0  0  0
 40 41  1  0  0  0  0
 44 46  1  0  0  0  0
 45 44  1  0  0  0  0
 47 44  1  0  0  0  0
M  END
