3,6
 OpenBabel05122313053D

 46 47  0  0  1  0  0  0  0  0999 V2000
    0.0360    2.2600    0.0293 Si  0  0  0  0  0  0  0  0  0  0  0  0
   -1.9620    0.2287   -0.0519 C   0  0  0  0  0  0  0  0  0  0  0  0
   -0.6247    0.6080   -0.0586 N   0  0  0  0  0  2  0  0  0  0  0  0
   -3.0145    1.1747   -0.2258 C   0  0  0  0  0  0  0  0  0  0  0  0
   -2.7631    2.2334   -0.3866 H   0  0  0  0  0  0  0  0  0  0  0  0
    1.7976    1.6443   -0.2359 C   0  0  2  0  0  3  0  0  0  0  0  0
   -4.3547    0.7917   -0.2146 C   0  0  0  0  0  0  0  0  0  0  0  0
   -5.1274    1.5627   -0.3568 H   0  0  0  0  0  0  0  0  0  0  0  0
   -3.6936   -1.4989    0.1489 C   0  0  0  0  0  0  0  0  0  0  0  0
   -3.9549   -2.5586    0.3042 H   0  0  0  0  0  0  0  0  0  0  0  0
   -4.7379   -0.5592   -0.0299 C   0  0  0  0  0  0  0  0  0  0  0  0
    2.0881    0.9688   -1.4907 C   0  0  0  0  0  0  0  0  0  0  0  0
    2.6689    1.0782    0.7636 C   0  0  0  0  0  0  0  0  0  0  0  0
    3.7145   -0.9587   -2.2262 C   0  0  0  0  0  0  0  0  0  0  0  0
    3.2060   -0.9492   -3.2081 H   0  0  0  0  0  0  0  0  0  0  0  0
    3.7134   -2.0068   -1.8645 H   0  0  0  0  0  0  0  0  0  0  0  0
    4.7750   -0.6720   -2.3953 H   0  0  0  0  0  0  0  0  0  0  0  0
    3.0594   -0.0387   -1.2399 C   0  0  0  0  0  0  0  0  0  0  0  0
    1.4847    1.2975   -2.8290 C   0  0  0  0  0  0  0  0  0  0  0  0
    1.6650    2.3603   -3.0897 H   0  0  0  0  0  0  0  0  0  0  0  0
    0.3871    1.1390   -2.8583 H   0  0  0  0  0  0  0  0  0  0  0  0
    1.9303    0.6820   -3.6335 H   0  0  0  0  0  0  0  0  0  0  0  0
   -6.1329   -1.0098   -0.0118 C   0  0  0  0  0  0  0  0  0  0  0  0
   -6.2581   -2.0969    0.1434 H   0  0  0  0  0  0  0  0  0  0  0  0
   -0.3445    3.0601    1.6994 C   0  0  0  0  0  0  0  0  0  0  0  0
   -1.4210    3.3267    1.7334 H   0  0  0  0  0  0  0  0  0  0  0  0
    0.2395    3.9919    1.8459 H   0  0  0  0  0  0  0  0  0  0  0  0
   -0.1446    2.3783    2.5480 H   0  0  0  0  0  0  0  0  0  0  0  0
   -2.3499   -1.1244    0.1461 C   0  0  0  0  0  0  0  0  0  0  0  0
   -1.5624   -1.8735    0.2998 H   0  0  0  0  0  0  0  0  0  0  0  0
    2.8130    1.5216    2.1900 C   0  0  0  0  0  0  0  0  0  0  0  0
    3.0082    0.6736    2.8753 H   0  0  0  0  0  0  0  0  0  0  0  0
    1.9129    2.0489    2.5508 H   0  0  0  0  0  0  0  0  0  0  0  0
    3.6660    2.2271    2.2917 H   0  0  0  0  0  0  0  0  0  0  0  0
    3.4195    0.0290    0.1545 C   0  0  0  0  0  0  0  0  0  0  0  0
    4.5348   -0.7604    0.7741 C   0  0  0  0  0  0  0  0  0  0  0  0
    5.5207   -0.3605    0.4488 H   0  0  0  0  0  0  0  0  0  0  0  0
    4.5149   -1.8276    0.4724 H   0  0  0  0  0  0  0  0  0  0  0  0
    4.5141   -0.7195    1.8791 H   0  0  0  0  0  0  0  0  0  0  0  0
   -0.5402    3.4725   -1.3118 C   0  0  0  0  0  0  0  0  0  0  0  0
   -0.8236    2.9688   -2.2551 H   0  0  0  0  0  0  0  0  0  0  0  0
    0.2795    4.1864   -1.5369 H   0  0  0  0  0  0  0  0  0  0  0  0
   -1.4116    4.0633   -0.9627 H   0  0  0  0  0  0  0  0  0  0  0  0
   -7.2499   -0.2618   -0.1601 C   0  0  0  0  0  0  0  0  0  0  0  0
   -7.2136    0.8279   -0.3185 H   0  0  0  0  0  0  0  0  0  0  0  0
   -8.2480   -0.7230   -0.1274 H   0  0  0  0  0  0  0  0  0  0  0  0
  1 25  1  0  0  0  0
  2 29  1  0  0  0  0
  3  2  1  0  0  0  0
  3  1  1  0  0  0  0
  4  7  1  0  0  0  0
  4  2  2  0  0  0  0
  5  4  1  0  0  0  0
  6  1  1  1  0  0  0
  6 13  1  0  0  0  0
  7 11  2  0  0  0  0
  8  7  1  0  0  0  0
  9 10  1  0  0  0  0
 11 23  1  0  0  0  0
 11  9  1  0  0  0  0
 12 18  2  0  0  0  0
 12  6  1  0  0  0  0
 13 31  1  0  0  0  0
 14 16  1  0  0  0  0
 14 18  1  0  0  0  0
 15 14  1  0  0  0  0
 17 14  1  0  0  0  0
 18 35  1  0  0  0  0
 19 12  1  0  0  0  0
 20 19  1  0  0  0  0
 21 19  1  0  0  0  0
 22 19  1  0  0  0  0
 23 24  1  0  0  0  0
 25 26  1  0  0  0  0
 25 27  1  0  0  0  0
 25 28  1  0  0  0  0
 29  9  2  0  0  0  0
 29 30  1  0  0  0  0
 31 34  1  0  0  0  0
 31 33  1  0  0  0  0
 31 32  1  0  0  0  0
 35 13  2  0  0  0  0
 35 36  1  0  0  0  0
 36 39  1  0  0  0  0
 37 36  1  0  0  0  0
 38 36  1  0  0  0  0
 40 43  1  0  0  0  0
 40  1  1  0  0  0  0
 41 40  1  0  0  0  0
 42 40  1  0  0  0  0
 44 46  1  0  0  0  0
 44 23  2  0  0  0  0
 45 44  1  0  0  0  0
M  END
