3,14
 OpenBabel05122313053D

 14 14  0  0  0  0  0  0  0  0999 V2000
   -3.7392   -0.6560   -0.1610 C   0  0  0  0  0  0  0  0  0  0  0  0
    1.8001    2.7661   -0.5291 Cl  0  0  0  0  0  0  0  0  0  0  0  0
    0.4580    1.7287   -0.1322 N   0  0  0  0  0  2  0  0  0  0  0  0
   -0.9432    3.5822    0.0950 O   0  0  0  0  0  0  0  0  0  0  0  0
   -4.6735   -1.6215   -0.2873 F   0  0  0  0  0  0  0  0  0  0  0  0
   -1.8125    1.3156    0.0574 C   0  0  0  0  0  0  0  0  0  0  0  0
   -3.1656    1.6446    0.2423 C   0  0  0  0  0  0  0  0  0  0  0  0
   -3.4216    2.6971    0.4410 H   0  0  0  0  0  0  0  0  0  0  0  0
   -4.1465    0.6491    0.1475 C   0  0  0  0  0  0  0  0  0  0  0  0
   -5.2158    0.8640    0.2830 H   0  0  0  0  0  0  0  0  0  0  0  0
   -0.7521    2.3698    0.0222 C   0  0  0  0  0  0  0  0  0  0  0  0
   -2.3906   -1.0020   -0.3521 C   0  0  0  0  0  0  0  0  0  0  0  0
   -2.1600   -2.0422   -0.6182 H   0  0  0  0  0  0  0  0  0  0  0  0
   -1.4141   -0.0069   -0.2129 C   0  0  0  0  0  3  0  0  0  0  0  0
  1  9  1  0  0  0  0
  2  3  1  0  0  0  0
  3 11  1  0  0  0  0
  5  1  1  0  0  0  0
  6  7  1  0  0  0  0
  7  8  1  0  0  0  0
  9  7  2  0  0  0  0
  9 10  1  0  0  0  0
 11  6  1  0  0  0  0
 11  4  2  0  0  0  0
 12 14  1  0  0  0  0
 12  1  2  0  0  0  0
 13 12  1  0  0  0  0
 14  6  2  0  0  0  0
M  END
