1,11
 OpenBabel05122313053D

 37 39  0  0  1  0  0  0  0  0999 V2000
   -1.1942   -0.8784    0.0002 N   0  0  0  0  0  2  0  0  0  0  0  0
   -2.4372    1.1630   -0.0000 C   0  0  0  0  0  0  0  0  0  0  0  0
   -2.4321   -0.2601    0.0001 C   0  0  2  0  0  3  0  0  0  0  0  0
   -1.1452   -2.2153    0.0003 C   0  0  0  0  0  0  0  0  0  0  0  0
   -2.3143   -3.0149    0.0004 C   0  0  0  0  0  0  0  0  0  0  0  0
   -3.5671   -2.4217    0.0003 C   0  0  0  0  0  0  0  0  0  0  0  0
   -3.6578   -0.9999    0.0002 C   0  0  0  0  0  0  0  0  0  0  0  0
   -4.8788   -0.2655    0.0001 C   0  0  0  0  0  0  0  0  0  0  0  0
   -4.8717    1.1239   -0.0000 C   0  0  0  0  0  0  0  0  0  0  0  0
   -3.6485    1.8461   -0.0001 C   0  0  0  0  0  0  0  0  0  0  0  0
   -1.0764    1.7513   -0.0001 C   0  0  2  0  0  3  0  0  0  0  0  0
   -0.2615    1.9102   -1.1832 C   0  0  2  0  0  3  0  0  0  0  0  0
    1.0924    2.1576   -0.7185 C   0  0  0  0  0  0  0  0  0  0  0  0
    1.0924    2.1577    0.7183 C   0  0  0  0  0  0  0  0  0  0  0  0
   -0.2615    1.9103    1.1831 C   0  0  1  0  0  3  0  0  0  0  0  0
   -0.7308    1.8804   -2.5993 C   0  0  0  0  0  0  0  0  0  0  0  0
    2.2669    2.4814   -1.5822 C   0  0  0  0  0  0  0  0  0  0  0  0
    2.2669    2.4816    1.5821 C   0  0  0  0  0  0  0  0  0  0  0  0
   -0.7308    1.8805    2.5991 C   0  0  0  0  0  0  0  0  0  0  0  0
   -0.1407   -2.6621    0.0004 H   0  0  0  0  0  0  0  0  0  0  0  0
   -2.2008   -4.1082    0.0005 H   0  0  0  0  0  0  0  0  0  0  0  0
   -4.4863   -3.0272    0.0004 H   0  0  0  0  0  0  0  0  0  0  0  0
   -5.8297   -0.8200    0.0002 H   0  0  0  0  0  0  0  0  0  0  0  0
   -5.8232    1.6760   -0.0001 H   0  0  0  0  0  0  0  0  0  0  0  0
   -3.6556    2.9461   -0.0002 H   0  0  0  0  0  0  0  0  0  0  0  0
   -1.7535    1.4629   -2.6690 H   0  0  0  0  0  0  0  0  0  0  0  0
   -0.0596    1.2541   -3.2217 H   0  0  0  0  0  0  0  0  0  0  0  0
   -0.7490    2.9049   -3.0286 H   0  0  0  0  0  0  0  0  0  0  0  0
    2.1546    2.0586   -2.5971 H   0  0  0  0  0  0  0  0  0  0  0  0
    3.2061    2.0812   -1.1564 H   0  0  0  0  0  0  0  0  0  0  0  0
    2.3730    3.5853   -1.6681 H   0  0  0  0  0  0  0  0  0  0  0  0
    3.2062    2.0818    1.1561 H   0  0  0  0  0  0  0  0  0  0  0  0
    2.3726    3.5855    1.6682 H   0  0  0  0  0  0  0  0  0  0  0  0
    2.1548    2.0586    2.5969 H   0  0  0  0  0  0  0  0  0  0  0  0
   -1.7535    1.4629    2.6689 H   0  0  0  0  0  0  0  0  0  0  0  0
   -0.0595    1.2544    3.2216 H   0  0  0  0  0  0  0  0  0  0  0  0
   -0.7491    2.9051    3.0284 H   0  0  0  0  0  0  0  0  0  0  0  0
  1  4  1  0  0  0  0
  3  2  1  1  0  0  0
  3  1  1  0  0  0  0
  3  7  1  0  0  0  0
  4 20  1  0  0  0  0
  4  5  2  0  0  0  0
  5 21  1  0  0  0  0
  6  5  1  0  0  0  0
  6 22  1  0  0  0  0
  7  6  2  0  0  0  0
  8 23  1  0  0  0  0
  8  7  1  0  0  0  0
  9  8  2  0  0  0  0
 10  2  2  0  0  0  0
 10  9  1  0  0  0  0
 11  2  1  1  0  0  0
 11 15  1  0  0  0  0
 12 16  1  1  0  0  0
 12 13  1  0  0  0  0
 12 11  1  0  0  0  0
 13 14  2  0  0  0  0
 14 15  1  0  0  0  0
 14 18  1  0  0  0  0
 15 19  1  6  0  0  0
 17 30  1  0  0  0  0
 17 13  1  0  0  0  0
 18 33  1  0  0  0  0
 18 34  1  0  0  0  0
 19 35  1  0  0  0  0
 19 37  1  0  0  0  0
 19 36  1  0  0  0  0
 24  9  1  0  0  0  0
 25 10  1  0  0  0  0
 26 16  1  0  0  0  0
 27 16  1  0  0  0  0
 28 16  1  0  0  0  0
 29 17  1  0  0  0  0
 31 17  1  0  0  0  0
 32 18  1  0  0  0  0
M  END
