3,6
 OpenBabel05122313053D

 20 21  0  0  1  0  0  0  0  0999 V2000
   -5.4285    1.0897   -1.8837 F   0  0  0  0  0  0  0  0  0  0  0  0
   -2.7577   -1.4916    2.1498 F   0  0  0  0  0  0  0  0  0  0  0  0
   -1.1265    1.0259   -1.6547 N   0  0  0  0  0  2  0  0  0  0  0  0
   -3.3161    0.5295   -0.8777 C   0  0  0  0  0  0  0  0  0  0  0  0
   -5.4284   -1.5540    2.0186 F   0  0  0  0  0  0  0  0  0  0  0  0
   -2.6048   -0.1256    0.1824 C   0  0  0  0  0  3  0  0  0  0  0  0
   -2.4754    1.1716   -1.8856 C   0  0  2  0  0  3  0  0  0  0  0  0
   -3.3524   -0.8284    1.1331 C   0  0  0  0  0  0  0  0  0  0  0  0
   -4.7564   -0.8735    1.0781 C   0  0  0  0  0  0  0  0  0  0  0  0
   -0.2297    1.5070   -2.5415 C   0  0  0  0  0  0  0  0  0  0  0  0
    0.8255    1.3223   -2.3004 H   0  0  0  0  0  0  0  0  0  0  0  0
   -5.4604   -0.2202    0.0607 C   0  0  0  0  0  0  0  0  0  0  0  0
   -6.5563   -0.2553    0.0207 H   0  0  0  0  0  0  0  0  0  0  0  0
   -4.7272    0.4712   -0.9036 C   0  0  0  0  0  0  0  0  0  0  0  0
   -1.9794    2.3742   -3.9421 C   0  0  0  0  0  0  0  0  0  0  0  0
   -2.3213    2.9114   -4.8391 H   0  0  0  0  0  0  0  0  0  0  0  0
   -2.9114    1.8630   -3.0367 C   0  0  0  0  0  0  0  0  0  0  0  0
   -3.9861    1.9836   -3.2060 H   0  0  0  0  0  0  0  0  0  0  0  0
   -0.6099    2.1874   -3.6975 C   0  0  0  0  0  0  0  0  0  0  0  0
    0.1596    2.5598   -4.3873 H   0  0  0  0  0  0  0  0  0  0  0  0
  1 14  1  0  0  0  0
  4  6  1  0  0  0  0
  6  8  2  0  0  0  0
  7  3  1  0  0  0  0
  7  4  1  6  0  0  0
  8  2  1  0  0  0  0
  9  8  1  0  0  0  0
  9  5  1  0  0  0  0
 10 11  1  0  0  0  0
 10  3  1  0  0  0  0
 12  9  2  0  0  0  0
 13 12  1  0  0  0  0
 14  4  2  0  0  0  0
 14 12  1  0  0  0  0
 15 19  1  0  0  0  0
 15 17  2  0  0  0  0
 16 15  1  0  0  0  0
 17  7  1  0  0  0  0
 18 17  1  0  0  0  0
 19 10  2  0  0  0  0
 20 19  1  0  0  0  0
M  END
