1,5
 OpenBabel05122313053D

 36 36  0  0  1  0  0  0  0  0999 V2000
   -2.1949   -0.0374   -0.1826 N   0  0  0  0  0  0  0  0  0  0  0  0
    0.1851    0.1228   -1.8418 C   0  0  2  0  0  3  0  0  0  0  0  0
    0.9163   -1.0552   -1.4358 C   0  0  0  0  0  0  0  0  0  0  0  0
    1.9625   -0.6117   -0.5220 C   0  0  0  0  0  0  0  0  0  0  0  0
    1.8977    0.8340   -0.4266 C   0  0  2  0  0  3  0  0  0  0  0  0
    0.8121    1.3008   -1.2819 C   0  0  1  0  0  3  0  0  0  0  0  0
    0.7408   -2.4601   -1.9347 C   0  0  0  0  0  0  0  0  0  0  0  0
   -0.2599   -2.6258   -2.3789 H   0  0  0  0  0  0  0  0  0  0  0  0
    0.8720   -3.2043   -1.1248 H   0  0  0  0  0  0  0  0  0  0  0  0
    1.4878   -2.6965   -2.7246 H   0  0  0  0  0  0  0  0  0  0  0  0
    3.0316   -1.4921    0.0533 C   0  0  0  0  0  0  0  0  0  0  0  0
    3.8474   -1.6622   -0.6832 H   0  0  0  0  0  0  0  0  0  0  0  0
    2.6288   -2.4812    0.3453 H   0  0  0  0  0  0  0  0  0  0  0  0
    3.4802   -1.0399    0.9578 H   0  0  0  0  0  0  0  0  0  0  0  0
    2.8870    1.7206    0.2695 C   0  0  0  0  0  0  0  0  0  0  0  0
    3.3715    1.1954    1.1140 H   0  0  0  0  0  0  0  0  0  0  0  0
    2.4015    2.6267    0.6805 H   0  0  0  0  0  0  0  0  0  0  0  0
    3.6862    2.0518   -0.4294 H   0  0  0  0  0  0  0  0  0  0  0  0
    0.5099    2.7381   -1.5869 C   0  0  0  0  0  0  0  0  0  0  0  0
    1.2170    3.1430   -2.3443 H   0  0  0  0  0  0  0  0  0  0  0  0
    0.5911    3.3757   -0.6851 H   0  0  0  0  0  0  0  0  0  0  0  0
   -0.5100    2.8741   -1.9985 H   0  0  0  0  0  0  0  0  0  0  0  0
   -1.1757    0.0932   -2.5066 C   0  0  0  0  0  0  0  0  0  0  0  0
   -1.4887    1.1213   -2.7760 H   0  0  0  0  0  0  0  0  0  0  0  0
   -1.1491   -0.4764   -3.4595 H   0  0  0  0  0  0  0  0  0  0  0  0
   -2.2145   -0.5711   -1.5879 C   0  0  0  0  0  0  0  0  0  0  0  0
   -3.2459   -0.4726   -2.0040 H   0  0  0  0  0  0  0  0  0  0  0  0
   -1.9926   -1.6520   -1.5029 H   0  0  0  0  0  0  0  0  0  0  0  0
   -2.7485    1.3377   -0.1520 C   0  0  0  0  0  0  0  0  0  0  0  0
   -3.7883    1.3502   -0.5558 H   0  0  0  0  0  0  0  0  0  0  0  0
   -2.1139    2.0169   -0.7464 H   0  0  0  0  0  0  0  0  0  0  0  0
   -2.7495    1.7024    0.8901 H   0  0  0  0  0  0  0  0  0  0  0  0
   -3.0479   -0.9025    0.6653 C   0  0  0  0  0  0  0  0  0  0  0  0
   -4.1014   -0.8988    0.2985 H   0  0  0  0  0  0  0  0  0  0  0  0
   -3.0157   -0.5277    1.7037 H   0  0  0  0  0  0  0  0  0  0  0  0
   -2.6524   -1.9334    0.6548 H   0  0  0  0  0  0  0  0  0  0  0  0
  1 29  1  0  0  0  0
  1 33  1  0  0  0  0
  2 23  1  1  0  0  0
  2  3  1  0  0  0  0
  2  6  1  0  0  0  0
  3  4  2  0  0  0  0
  4  5  1  0  0  0  0
  4 11  1  0  0  0  0
  5 15  1  6  0  0  0
  6 19  1  6  0  0  0
  6  5  1  0  0  0  0
  7  3  1  0  0  0  0
  7  9  1  0  0  0  0
  8  7  1  0  0  0  0
 10  7  1  0  0  0  0
 11 13  1  0  0  0  0
 11 14  1  0  0  0  0
 12 11  1  0  0  0  0
 15 17  1  0  0  0  0
 15 16  1  0  0  0  0
 18 15  1  0  0  0  0
 19 21  1  0  0  0  0
 20 19  1  0  0  0  0
 22 19  1  0  0  0  0
 23 26  1  0  0  0  0
 24 23  1  0  0  0  0
 25 23  1  0  0  0  0
 26 28  1  0  0  0  0
 26  1  1  0  0  0  0
 27 26  1  0  0  0  0
 29 32  1  0  0  0  0
 30 29  1  0  0  0  0
 31 29  1  0  0  0  0
 33 35  1  0  0  0  0
 34 33  1  0  0  0  0
 36 33  1  0  0  0  0
M  END
