4,40
 OpenBabel05122313053D

 40 41  0  0  1  0  0  0  0  0999 V2000
    0.0105    2.0156   -1.0028 C   0  0  0  0  0  0  0  0  0  0  0  0
    0.3938    1.3318   -2.1928 C   0  0  0  0  0  0  0  0  0  0  0  0
   -0.2824    0.8699   -2.9171 H   0  0  0  0  0  0  0  0  0  0  0  0
    1.8217    1.2920   -2.2741 C   0  0  0  0  0  3  0  0  0  0  0  0
    2.4011    0.8116   -3.0698 H   0  0  0  0  0  0  0  0  0  0  0  0
    2.3333    1.9481   -1.1306 C   0  0  0  0  0  0  0  0  0  0  0  0
    3.3896    2.1099   -0.8956 H   0  0  0  0  0  0  0  0  0  0  0  0
    1.2290    2.3562   -0.3251 C   0  0  0  0  0  0  0  0  0  0  0  0
    1.3073    2.9046    0.6186 H   0  0  0  0  0  0  0  0  0  0  0  0
   -1.4104    2.4314   -0.6193 C   0  0  0  0  0  0  0  0  0  0  0  0
   -2.3595    2.1054   -1.7917 C   0  0  0  0  0  0  0  0  0  0  0  0
   -1.9783    2.5539   -2.7294 H   0  0  0  0  0  0  0  0  0  0  0  0
   -3.3687    2.5216   -1.6148 H   0  0  0  0  0  0  0  0  0  0  0  0
   -2.4649    1.0150   -1.9544 H   0  0  0  0  0  0  0  0  0  0  0  0
   -1.3802    3.9688   -0.4500 C   0  0  0  0  0  0  0  0  0  0  0  0
   -0.6865    4.2959    0.3472 H   0  0  0  0  0  0  0  0  0  0  0  0
   -2.3854    4.3766   -0.2253 H   0  0  0  0  0  0  0  0  0  0  0  0
   -1.0362    4.4345   -1.3946 H   0  0  0  0  0  0  0  0  0  0  0  0
   -1.9590    1.7078    0.7209 C   0  0  0  0  0  0  0  0  0  0  0  0
   -3.4261    2.0988    0.9728 C   0  0  0  0  0  0  0  0  0  0  0  0
   -3.7482    1.7664    1.9784 H   0  0  0  0  0  0  0  0  0  0  0  0
   -4.1266    1.6661    0.2363 H   0  0  0  0  0  0  0  0  0  0  0  0
   -3.5431    3.2000    0.9556 H   0  0  0  0  0  0  0  0  0  0  0  0
   -1.1453    2.1142    1.9613 C   0  0  0  0  0  0  0  0  0  0  0  0
   -1.2033    3.2047    2.1452 H   0  0  0  0  0  0  0  0  0  0  0  0
   -0.0874    1.8198    1.8546 H   0  0  0  0  0  0  0  0  0  0  0  0
   -1.5466    1.6021    2.8579 H   0  0  0  0  0  0  0  0  0  0  0  0
   -1.7448    0.1941    0.4493 C   0  0  1  0  0  3  0  0  0  0  0  0
   -2.8408   -0.8044    0.2109 C   0  0  0  0  0  0  0  0  0  0  0  0
   -3.9776   -0.9447    1.0360 C   0  0  0  0  0  0  0  0  0  0  0  0
   -4.1206   -0.2817    1.8992 H   0  0  0  0  0  0  0  0  0  0  0  0
   -4.9167   -1.9587    0.7900 C   0  0  0  0  0  0  0  0  0  0  0  0
   -5.7910   -2.0613    1.4511 H   0  0  0  0  0  0  0  0  0  0  0  0
   -4.7423   -2.8395   -0.2876 C   0  0  0  0  0  0  0  0  0  0  0  0
   -5.4857   -3.6273   -0.4836 H   0  0  0  0  0  0  0  0  0  0  0  0
   -3.6054   -2.7182   -1.1057 C   0  0  0  0  0  0  0  0  0  0  0  0
   -3.4513   -3.4140   -1.9447 H   0  0  0  0  0  0  0  0  0  0  0  0
   -2.6561   -1.7216   -0.8532 C   0  0  0  0  0  0  0  0  0  0  0  0
   -1.7405   -1.6475   -1.4626 H   0  0  0  0  0  0  0  0  0  0  0  0
   -0.5510   -0.2068    0.2431 N   0  0  0  0  0  1  0  0  0  0  0  0
  1 10  1  0  0  0  0
  1  8  1  0  0  0  0
  2  1  2  0  0  0  0
  3  2  1  0  0  0  0
  4  2  1  0  0  0  0
  4  6  1  0  0  0  0
  5  4  1  0  0  0  0
  6  7  1  0  0  0  0
  6  8  2  0  0  0  0
  8  9  1  0  0  0  0
 10 15  1  0  0  0  0
 10 19  1  0  0  0  0
 11 13  1  0  0  0  0
 11 10  1  0  0  0  0
 12 11  1  0  0  0  0
 14 11  1  0  0  0  0
 15 17  1  0  0  0  0
 15 16  1  0  0  0  0
 18 15  1  0  0  0  0
 19 20  1  0  0  0  0
 19 24  1  0  0  0  0
 20 21  1  0  0  0  0
 22 20  1  0  0  0  0
 23 20  1  0  0  0  0
 24 25  1  0  0  0  0
 24 27  1  0  0  0  0
 26 24  1  0  0  0  0
 28 40  1  6  0  0  0
 28 19  1  0  0  0  0
 29 28  1  0  0  0  0
 29 30  1  0  0  0  0
 30 31  1  0  0  0  0
 32 30  2  0  0  0  0
 32 33  1  0  0  0  0
 34 32  1  0  0  0  0
 35 34  1  0  0  0  0
 36 38  1  0  0  0  0
 36 34  2  0  0  0  0
 37 36  1  0  0  0  0
 38 29  2  0  0  0  0
 39 38  1  0  0  0  0
M  END
