8,29
 OpenBabel05122313053D

 42 42  0  0  1  0  0  0  0  0999 V2000
   -0.8866   -1.9967   -0.5267 C   0  0  0  0  0  0  0  0  0  0  0  0
    0.1279   -2.4745    0.3697 C   0  0  0  0  0  0  0  0  0  0  0  0
    0.0001   -2.6729    1.4389 H   0  0  0  0  0  0  0  0  0  0  0  0
    1.3197   -2.7332   -0.3754 C   0  0  0  0  0  0  0  0  0  0  0  0
    2.2542   -3.1354    0.0310 H   0  0  0  0  0  0  0  0  0  0  0  0
    1.0750   -2.3839   -1.7268 C   0  0  0  0  0  0  0  0  0  0  0  0
    1.7895   -2.4345   -2.5566 H   0  0  0  0  0  0  0  0  0  0  0  0
   -0.2774   -1.9283   -1.8191 C   0  0  0  0  0  3  0  0  0  0  0  0
   -0.7484   -1.5692   -2.7389 H   0  0  0  0  0  0  0  0  0  0  0  0
   -2.3701   -1.7744   -0.2201 C   0  0  0  0  0  0  0  0  0  0  0  0
   -3.0973   -1.5094   -1.5541 C   0  0  0  0  0  0  0  0  0  0  0  0
   -2.7118   -0.6025   -2.0576 H   0  0  0  0  0  0  0  0  0  0  0  0
   -4.1860   -1.3845   -1.4080 H   0  0  0  0  0  0  0  0  0  0  0  0
   -2.9538   -2.3639   -2.2434 H   0  0  0  0  0  0  0  0  0  0  0  0
   -2.9037   -3.1132    0.3447 C   0  0  0  0  0  0  0  0  0  0  0  0
   -2.6433   -3.9352   -0.3509 H   0  0  0  0  0  0  0  0  0  0  0  0
   -4.0057   -3.1016    0.4525 H   0  0  0  0  0  0  0  0  0  0  0  0
   -2.4608   -3.3640    1.3278 H   0  0  0  0  0  0  0  0  0  0  0  0
   -2.6659   -0.5630    0.8047 C   0  0  0  0  0  0  0  0  0  0  0  0
   -4.1683   -0.5363    1.1581 C   0  0  0  0  0  0  0  0  0  0  0  0
   -4.4116   -1.3895    1.8210 H   0  0  0  0  0  0  0  0  0  0  0  0
   -4.8403   -0.5999    0.2851 H   0  0  0  0  0  0  0  0  0  0  0  0
   -4.4278    0.3796    1.7200 H   0  0  0  0  0  0  0  0  0  0  0  0
   -1.9354   -0.7468    2.1514 C   0  0  0  0  0  0  0  0  0  0  0  0
   -2.2358    0.0587    2.8511 H   0  0  0  0  0  0  0  0  0  0  0  0
   -0.8418   -0.6885    2.0263 H   0  0  0  0  0  0  0  0  0  0  0  0
   -2.1957   -1.7136    2.6258 H   0  0  0  0  0  0  0  0  0  0  0  0
   -2.0666    0.7263    0.1392 C   0  0  2  0  0  3  0  0  0  0  0  0
   -0.8077    0.7276   -0.0597 N   0  0  0  0  0  1  0  0  0  0  0  0
   -2.8665    2.0091   -0.2604 C   0  0  0  0  0  0  0  0  0  0  0  0
   -4.1658    1.7593   -1.0538 C   0  0  0  0  0  0  0  0  0  0  0  0
   -4.9349    1.2116   -0.4829 H   0  0  0  0  0  0  0  0  0  0  0  0
   -3.9680    1.2075   -1.9927 H   0  0  0  0  0  0  0  0  0  0  0  0
   -4.6048    2.7385   -1.3352 H   0  0  0  0  0  0  0  0  0  0  0  0
   -3.1918    2.7883    1.0378 C   0  0  0  0  0  0  0  0  0  0  0  0
   -3.6808    3.7513    0.7821 H   0  0  0  0  0  0  0  0  0  0  0  0
   -2.2658    3.0194    1.6018 H   0  0  0  0  0  0  0  0  0  0  0  0
   -3.8748    2.2379    1.7133 H   0  0  0  0  0  0  0  0  0  0  0  0
   -1.9578    2.8972   -1.1336 C   0  0  0  0  0  0  0  0  0  0  0  0
   -2.5055    3.8164   -1.4251 H   0  0  0  0  0  0  0  0  0  0  0  0
   -1.6367    2.3666   -2.0512 H   0  0  0  0  0  0  0  0  0  0  0  0
   -1.0368    3.1877   -0.5970 H   0  0  0  0  0  0  0  0  0  0  0  0
  1 10  1  0  0  0  0
  1  2  2  0  0  0  0
  2  3  1  0  0  0  0
  4  5  1  0  0  0  0
  4  2  1  0  0  0  0
  6  4  2  0  0  0  0
  7  6  1  0  0  0  0
  8  6  1  0  0  0  0
  8  1  1  0  0  0  0
  9  8  1  0  0  0  0
 10 15  1  0  0  0  0
 10 19  1  0  0  0  0
 11 13  1  0  0  0  0
 11 10  1  0  0  0  0
 12 11  1  0  0  0  0
 14 11  1  0  0  0  0
 15 17  1  0  0  0  0
 15 18  1  0  0  0  0
 16 15  1  0  0  0  0
 19 20  1  0  0  0  0
 19 24  1  0  0  0  0
 20 23  1  0  0  0  0
 20 21  1  0  0  0  0
 22 20  1  0  0  0  0
 24 27  1  0  0  0  0
 24 25  1  0  0  0  0
 26 24  1  0  0  0  0
 28 29  1  1  0  0  0
 28 19  1  0  0  0  0
 30 28  1  0  0  0  0
 30 35  1  0  0  0  0
 31 32  1  0  0  0  0
 31 30  1  0  0  0  0
 33 31  1  0  0  0  0
 34 31  1  0  0  0  0
 35 37  1  0  0  0  0
 35 38  1  0  0  0  0
 36 35  1  0  0  0  0
 39 42  1  0  0  0  0
 39 30  1  0  0  0  0
 40 39  1  0  0  0  0
 41 39  1  0  0  0  0
M  END
