1,16
 OpenBabel05122313053D

 31 32  0  0  0  0  0  0  0  0999 V2000
    0.9689    0.2597   -1.8782 N   0  0  0  0  0  2  0  0  0  0  0  0
    2.0720   -0.4230   -1.8840 C   0  0  0  0  0  3  0  0  0  0  0  0
    2.6956   -0.3489   -2.8014 H   0  0  0  0  0  0  0  0  0  0  0  0
    2.6518   -1.2437   -0.8255 C   0  0  0  0  0  0  0  0  0  0  0  0
    4.0692   -1.2882   -0.8130 C   0  0  0  0  0  0  0  0  0  0  0  0
    4.6196   -0.6834   -1.5519 H   0  0  0  0  0  0  0  0  0  0  0  0
    4.7768   -2.0651    0.1063 C   0  0  0  0  0  0  0  0  0  0  0  0
    5.8765   -2.0620    0.1088 H   0  0  0  0  0  0  0  0  0  0  0  0
    4.0562   -2.8757    1.0026 C   0  0  0  0  0  0  0  0  0  0  0  0
    4.5894   -3.5179    1.7203 H   0  0  0  0  0  0  0  0  0  0  0  0
    2.6602   -2.8823    0.9685 C   0  0  0  0  0  0  0  0  0  0  0  0
    2.1025   -3.5408    1.6528 H   0  0  0  0  0  0  0  0  0  0  0  0
    1.9091   -2.0578    0.0883 C   0  0  0  0  0  0  0  0  0  0  0  0
    0.4566   -2.2006    0.1197 C   0  0  0  0  0  0  0  0  0  0  0  0
    0.1437   -3.2164    0.4324 H   0  0  0  0  0  0  0  0  0  0  0  0
   -0.5513   -1.2889   -0.0659 C   0  0  0  0  0  3  0  0  0  0  0  0
    0.6296    0.9988   -3.0882 C   0  0  0  0  0  0  0  0  0  0  0  0
    0.6646    2.0861   -2.8705 H   0  0  0  0  0  0  0  0  0  0  0  0
   -0.4220    0.7764   -3.3569 H   0  0  0  0  0  0  0  0  0  0  0  0
    1.3239    0.7573   -3.9205 H   0  0  0  0  0  0  0  0  0  0  0  0
   -1.9366   -1.8116   -0.0463 C   0  0  0  0  0  0  0  0  0  0  0  0
   -2.2425   -3.0275   -0.7079 C   0  0  0  0  0  0  0  0  0  0  0  0
   -1.4505   -3.5349   -1.2790 H   0  0  0  0  0  0  0  0  0  0  0  0
   -3.5346   -3.5691   -0.6736 C   0  0  0  0  0  0  0  0  0  0  0  0
   -3.7465   -4.5077   -1.2089 H   0  0  0  0  0  0  0  0  0  0  0  0
   -4.5569   -2.9143    0.0311 C   0  0  0  0  0  0  0  0  0  0  0  0
   -5.5726   -3.3377    0.0589 H   0  0  0  0  0  0  0  0  0  0  0  0
   -4.2748   -1.7027    0.6837 C   0  0  0  0  0  0  0  0  0  0  0  0
   -5.0711   -1.1708    1.2272 H   0  0  0  0  0  0  0  0  0  0  0  0
   -2.9896   -1.1525    0.6286 C   0  0  0  0  0  0  0  0  0  0  0  0
   -2.7846   -0.1902    1.1088 H   0  0  0  0  0  0  0  0  0  0  0  0
  2  1  1  0  0  0  0
  2  4  1  0  0  0  0
  3  2  1  0  0  0  0
  4  5  2  0  0  0  0
  4 13  1  0  0  0  0
  5  7  1  0  0  0  0
  6  5  1  0  0  0  0
  7  8  1  0  0  0  0
  7  9  2  0  0  0  0
  9 10  1  0  0  0  0
 11  9  1  0  0  0  0
 11 12  1  0  0  0  0
 13 14  1  0  0  0  0
 13 11  2  0  0  0  0
 14 15  1  0  0  0  0
 16 21  1  0  0  0  0
 16 14  2  0  0  0  0
 17 18  1  0  0  0  0
 17  1  1  0  0  0  0
 19 17  1  0  0  0  0
 20 17  1  0  0  0  0
 21 30  1  0  0  0  0
 22 24  1  0  0  0  0
 22 21  2  0  0  0  0
 23 22  1  0  0  0  0
 24 26  2  0  0  0  0
 25 24  1  0  0  0  0
 26 27  1  0  0  0  0
 26 28  1  0  0  0  0
 28 29  1  0  0  0  0
 30 28  2  0  0  0  0
 30 31  1  0  0  0  0
M  END
