1,3
 OpenBabel05122313053D

 42 45  0  0  0  0  0  0  0  0999 V2000
   -0.8814    0.8338    1.7384 N   0  0  0  0  0  2  0  0  0  0  0  0
   -0.1540    1.9838    1.7699 N   0  0  0  0  0  0  0  0  0  0  0  0
    0.8323   -0.4816    0.0263 C   0  0  0  0  0  2  0  0  0  0  0  0
    1.6911    0.5827   -0.1572 C   0  0  0  0  0  0  0  0  0  0  0  0
    1.2549    1.9949   -0.2789 C   0  0  0  0  0  0  0  0  0  0  0  0
    0.3599    2.6427    0.6128 C   0  0  0  0  0  0  0  0  0  0  0  0
   -1.2713    0.5829    3.0015 C   0  0  0  0  0  3  0  0  0  0  0  0
   -1.8260   -0.3425    3.1966 H   0  0  0  0  0  0  0  0  0  0  0  0
   -0.7952    1.5920    3.8660 C   0  0  0  0  0  0  0  0  0  0  0  0
   -0.9332    1.6602    4.9492 H   0  0  0  0  0  0  0  0  0  0  0  0
   -0.0889    2.4675    3.0491 C   0  0  0  0  0  0  0  0  0  0  0  0
    0.4745    3.3806    3.2648 H   0  0  0  0  0  0  0  0  0  0  0  0
    0.0356    4.0068    0.4736 C   0  0  0  0  0  0  0  0  0  0  0  0
   -0.6744    4.4576    1.1829 H   0  0  0  0  0  0  0  0  0  0  0  0
    0.6088    4.7747   -0.5458 C   0  0  0  0  0  0  0  0  0  0  0  0
    0.3515    5.8393   -0.6452 H   0  0  0  0  0  0  0  0  0  0  0  0
    1.5089    4.1644   -1.4352 C   0  0  0  0  0  0  0  0  0  0  0  0
    1.9715    4.7501   -2.2439 H   0  0  0  0  0  0  0  0  0  0  0  0
    1.8200    2.8080   -1.2953 C   0  0  0  0  0  3  0  0  0  0  0  0
    2.5393    2.3384   -1.9825 H   0  0  0  0  0  0  0  0  0  0  0  0
    1.4168   -1.8262    0.2712 C   0  0  0  0  0  0  0  0  0  0  0  0
    1.1671   -2.9247   -0.5779 C   0  0  0  0  0  0  0  0  0  0  0  0
    0.5079   -2.7859   -1.4441 H   0  0  0  0  0  0  0  0  0  0  0  0
    1.7479   -4.1749   -0.3334 C   0  0  0  0  0  0  0  0  0  0  0  0
    1.5477   -5.0130   -1.0191 H   0  0  0  0  0  0  0  0  0  0  0  0
    2.5725   -4.3644    0.7875 C   0  0  0  0  0  0  0  0  0  0  0  0
    3.0210   -5.3496    0.9872 H   0  0  0  0  0  0  0  0  0  0  0  0
    2.8116   -3.2872    1.6555 C   0  0  0  0  0  0  0  0  0  0  0  0
    3.4487   -3.4248    2.5429 H   0  0  0  0  0  0  0  0  0  0  0  0
    2.2463   -2.0322    1.3967 C   0  0  0  0  0  0  0  0  0  0  0  0
    2.4394   -1.1872    2.0739 H   0  0  0  0  0  0  0  0  0  0  0  0
    3.1704    0.3995   -0.3206 C   0  0  0  0  0  0  0  0  0  0  0  0
    3.7090   -0.5193   -1.2486 C   0  0  0  0  0  0  0  0  0  0  0  0
    3.0234   -1.1238   -1.8593 H   0  0  0  0  0  0  0  0  0  0  0  0
    5.0948   -0.6737   -1.3890 C   0  0  0  0  0  0  0  0  0  0  0  0
    5.4903   -1.3986   -2.1171 H   0  0  0  0  0  0  0  0  0  0  0  0
    5.9763    0.0910   -0.6078 C   0  0  0  0  0  0  0  0  0  0  0  0
    7.0646   -0.0334   -0.7157 H   0  0  0  0  0  0  0  0  0  0  0  0
    5.4573    1.0192    0.3094 C   0  0  0  0  0  0  0  0  0  0  0  0
    6.1387    1.6250    0.9268 H   0  0  0  0  0  0  0  0  0  0  0  0
    4.0709    1.1751    0.4451 C   0  0  0  0  0  0  0  0  0  0  0  0
    3.6685    1.9035    1.1665 H   0  0  0  0  0  0  0  0  0  0  0  0
  1  2  1  0  0  0  0
  1  7  1  0  0  0  0
  2 11  1  0  0  0  0
  3 21  1  0  0  0  0
  4  3  1  0  0  0  0
  5  4  2  0  0  0  0
  5  6  1  0  0  0  0
  6  2  1  0  0  0  0
  7  8  1  0  0  0  0
  7  9  1  0  0  0  0
  9 10  1  0  0  0  0
 11 12  1  0  0  0  0
 11  9  2  0  0  0  0
 13  6  2  0  0  0  0
 13 14  1  0  0  0  0
 15 13  1  0  0  0  0
 16 15  1  0  0  0  0
 17 19  1  0  0  0  0
 17 15  2  0  0  0  0
 18 17  1  0  0  0  0
 19  5  1  0  0  0  0
 20 19  1  0  0  0  0
 21 30  1  0  0  0  0
 22 24  1  0  0  0  0
 22 21  2  0  0  0  0
 23 22  1  0  0  0  0
 24 26  2  0  0  0  0
 25 24  1  0  0  0  0
 26 27  1  0  0  0  0
 26 28  1  0  0  0  0
 28 29  1  0  0  0  0
 30 28  2  0  0  0  0
 30 31  1  0  0  0  0
 32  4  1  0  0  0  0
 32 41  1  0  0  0  0
 33 32  2  0  0  0  0
 34 33  1  0  0  0  0
 35 33  1  0  0  0  0
 35 37  2  0  0  0  0
 36 35  1  0  0  0  0
 37 39  1  0  0  0  0
 38 37  1  0  0  0  0
 39 41  2  0  0  0  0
 39 40  1  0  0  0  0
 41 42  1  0  0  0  0
M  END
