2,5
 OpenBabel05122313053D

 51 52  0  0  1  0  0  0  0  0999 V2000
   -0.5957    1.4982   -1.3430 Si  0  0  0  0  0  0  0  0  0  0  0  0
   -0.6654    0.8164    0.2974 N   0  0  0  0  0  2  0  0  0  0  0  0
    2.2978    0.8829   -1.3271 C   0  0  0  0  0  0  0  0  0  0  0  0
    3.0226   -0.3261   -1.1140 C   0  0  0  0  0  0  0  0  0  0  0  0
    0.9681    0.5391   -1.7764 C   0  0  1  0  0  3  0  0  0  0  0  0
   -2.9751    0.0313    0.6060 C   0  0  0  0  0  0  0  0  0  0  0  0
   -1.8465    0.9146    1.1832 C   0  0  0  0  0  0  0  0  0  0  0  0
    0.9159   -0.9080   -1.8832 C   0  0  0  0  0  0  0  0  0  0  0  0
   -0.3774    3.3853   -1.4116 C   0  0  0  0  0  0  0  0  0  0  0  0
   -1.3648    3.8900   -1.4076 H   0  0  0  0  0  0  0  0  0  0  0  0
    0.1429    3.6772   -2.3474 H   0  0  0  0  0  0  0  0  0  0  0  0
    0.2047    3.7795   -0.5560 H   0  0  0  0  0  0  0  0  0  0  0  0
    2.1714   -1.4308   -1.4625 C   0  0  0  0  0  0  0  0  0  0  0  0
    4.4757   -0.4675   -0.7712 C   0  0  0  0  0  0  0  0  0  0  0  0
    5.0665   -0.7232   -1.6788 H   0  0  0  0  0  0  0  0  0  0  0  0
    4.6586   -1.2793   -0.0381 H   0  0  0  0  0  0  0  0  0  0  0  0
    4.9021    0.4642   -0.3553 H   0  0  0  0  0  0  0  0  0  0  0  0
    2.8680    2.2609   -1.1576 C   0  0  0  0  0  0  0  0  0  0  0  0
    3.2507    2.6457   -2.1278 H   0  0  0  0  0  0  0  0  0  0  0  0
    3.7141    2.2694   -0.4435 H   0  0  0  0  0  0  0  0  0  0  0  0
    2.1196    2.9874   -0.7964 H   0  0  0  0  0  0  0  0  0  0  0  0
   -4.2588    0.5102    0.2862 C   0  0  0  0  0  0  0  0  0  0  0  0
   -4.5165    1.5645    0.4576 H   0  0  0  0  0  0  0  0  0  0  0  0
   -2.7016   -1.3331    0.3727 C   0  0  0  0  0  0  0  0  0  0  0  0
   -1.7002   -1.7123    0.6184 H   0  0  0  0  0  0  0  0  0  0  0  0
    2.6506   -2.8507   -1.5054 C   0  0  0  0  0  0  0  0  0  0  0  0
    3.4237   -2.9755   -2.2945 H   0  0  0  0  0  0  0  0  0  0  0  0
    1.8373   -3.5671   -1.7234 H   0  0  0  0  0  0  0  0  0  0  0  0
    3.1169   -3.1564   -0.5472 H   0  0  0  0  0  0  0  0  0  0  0  0
   -2.0826    1.1120   -2.4491 C   0  0  0  0  0  0  0  0  0  0  0  0
   -2.9327    1.7732   -2.1850 H   0  0  0  0  0  0  0  0  0  0  0  0
   -2.4367    0.0687   -2.3642 H   0  0  0  0  0  0  0  0  0  0  0  0
   -1.8132    1.3121   -3.5078 H   0  0  0  0  0  0  0  0  0  0  0  0
   -1.5157    0.4025    2.5996 C   0  0  0  0  0  0  0  0  0  0  0  0
   -1.2015   -0.6550    2.5653 H   0  0  0  0  0  0  0  0  0  0  0  0
   -2.4049    0.4817    3.2562 H   0  0  0  0  0  0  0  0  0  0  0  0
   -0.6894    0.9921    3.0423 H   0  0  0  0  0  0  0  0  0  0  0  0
   -0.2451   -1.7156   -2.3956 C   0  0  0  0  0  0  0  0  0  0  0  0
   -0.5494   -1.3692   -3.4040 H   0  0  0  0  0  0  0  0  0  0  0  0
   -1.1426   -1.6458   -1.7480 H   0  0  0  0  0  0  0  0  0  0  0  0
    0.0182   -2.7875   -2.4831 H   0  0  0  0  0  0  0  0  0  0  0  0
   -2.2843    2.3880    1.3010 C   0  0  0  0  0  0  0  0  0  0  0  0
   -1.4409    2.9965    1.6800 H   0  0  0  0  0  0  0  0  0  0  0  0
   -3.1310    2.5029    2.0068 H   0  0  0  0  0  0  0  0  0  0  0  0
   -2.5946    2.8103    0.3251 H   0  0  0  0  0  0  0  0  0  0  0  0
   -3.6667   -2.1868   -0.1753 C   0  0  0  0  0  0  0  0  0  0  0  0
   -3.4225   -3.2465   -0.3495 H   0  0  0  0  0  0  0  0  0  0  0  0
   -5.2310   -0.3412   -0.2683 C   0  0  0  0  0  0  0  0  0  0  0  0
   -6.2251    0.0607   -0.5183 H   0  0  0  0  0  0  0  0  0  0  0  0
   -4.9400   -1.6913   -0.5060 C   0  0  0  0  0  0  0  0  0  0  0  0
   -5.7007   -2.3560   -0.9429 H   0  0  0  0  0  0  0  0  0  0  0  0
  1  2  1  0  0  0  0
  2  7  1  0  0  0  0
  3 18  1  0  0  0  0
  3  4  2  0  0  0  0
  4 14  1  0  0  0  0
  5  1  1  1  0  0  0
  5  3  1  0  0  0  0
  6  7  1  0  0  0  0
  7 42  1  0  0  0  0
  7 34  1  0  0  0  0
  8  5  1  0  0  0  0
  8 13  2  0  0  0  0
  9 10  1  0  0  0  0
  9  1  1  0  0  0  0
  9 12  1  0  0  0  0
 11  9  1  0  0  0  0
 13  4  1  0  0  0  0
 14 17  1  0  0  0  0
 14 16  1  0  0  0  0
 15 14  1  0  0  0  0
 18 21  1  0  0  0  0
 18 20  1  0  0  0  0
 19 18  1  0  0  0  0
 22 23  1  0  0  0  0
 22  6  2  0  0  0  0
 24  6  1  0  0  0  0
 24 25  1  0  0  0  0
 26 13  1  0  0  0  0
 26 29  1  0  0  0  0
 27 26  1  0  0  0  0
 28 26  1  0  0  0  0
 30 32  1  0  0  0  0
 30 31  1  0  0  0  0
 30  1  1  0  0  0  0
 33 30  1  0  0  0  0
 34 37  1  0  0  0  0
 34 36  1  0  0  0  0
 35 34  1  0  0  0  0
 38  8  1  0  0  0  0
 38 40  1  0  0  0  0
 39 38  1  0  0  0  0
 41 38  1  0  0  0  0
 42 43  1  0  0  0  0
 42 44  1  0  0  0  0
 45 42  1  0  0  0  0
 46 24  2  0  0  0  0
 47 46  1  0  0  0  0
 48 22  1  0  0  0  0
 49 48  1  0  0  0  0
 50 48  2  0  0  0  0
 50 46  1  0  0  0  0
 51 50  1  0  0  0  0
M  END
