1,10
 OpenBabel05122313053D

 14 14  0  0  0  0  0  0  0  0999 V2000
   -1.3332    0.0004    0.5814 C   0  0  0  0  0  3  0  0  0  0  0  0
   -2.4494   -0.0012   -0.3501 C   0  0  0  0  0  0  0  0  0  0  0  0
   -3.7925   -0.0011    0.0807 C   0  0  0  0  0  0  0  0  0  0  0  0
   -4.1293    0.0007    1.4308 C   0  0  0  0  0  0  0  0  0  0  0  0
   -5.1839    0.0007    1.7381 H   0  0  0  0  0  0  0  0  0  0  0  0
   -3.0671    0.0025    2.3593 C   0  0  0  0  0  0  0  0  0  0  0  0
   -3.3029    0.0040    3.4359 H   0  0  0  0  0  0  0  0  0  0  0  0
   -1.7257    0.0024    1.9487 C   0  0  0  0  0  0  0  0  0  0  0  0
   -0.9675    0.0039    2.7444 H   0  0  0  0  0  0  0  0  0  0  0  0
   -0.7421   -0.0019   -1.8740 N   0  0  0  0  0  2  0  0  0  0  0  0
   -0.3543   -0.0027   -2.8275 H   0  0  0  0  0  0  0  0  0  0  0  0
   -2.0439   -0.0024   -1.7257 C   0  0  0  0  0  3  0  0  0  0  0  0
   -2.7455   -0.0036   -2.5779 H   0  0  0  0  0  0  0  0  0  0  0  0
   -4.7753   -0.0027   -0.8530 F   0  0  0  0  0  0  0  0  0  0  0  0
  1  8  1  0  0  0  0
  2  3  1  0  0  0  0
  2  1  2  0  0  0  0
  3  4  2  0  0  0  0
  4  5  1  0  0  0  0
  4  6  1  0  0  0  0
  6  7  1  0  0  0  0
  8  6  2  0  0  0  0
  8  9  1  0  0  0  0
 10 12  1  0  0  0  0
 11 10  1  0  0  0  0
 12  2  1  0  0  0  0
 13 12  1  0  0  0  0
 14  3  1  0  0  0  0
M  END
