2,3
 OpenBabel05122313053D

 36 38  0  0  1  0  0  0  0  0999 V2000
   -0.5275    2.2060    0.3386 Si  0  0  0  0  0  0  0  0  0  0  0  0
   -1.0998    0.5560    0.0254 N   0  0  0  0  0  2  0  0  0  0  0  0
    1.1720    1.6211    0.8799 C   0  0  1  0  0  3  0  0  0  0  0  0
    1.2921    0.8969    2.1135 C   0  0  0  0  0  0  0  0  0  0  0  0
    0.6296    1.0277    2.9796 H   0  0  0  0  0  0  0  0  0  0  0  0
    2.2936   -0.0996    2.0065 C   0  0  0  0  0  0  0  0  0  0  0  0
    2.5987   -0.8040    2.7906 H   0  0  0  0  0  0  0  0  0  0  0  0
    2.9419    0.0741    0.7301 C   0  0  0  0  0  0  0  0  0  0  0  0
    4.0620   -0.5602    0.1292 C   0  0  0  0  0  0  0  0  0  0  0  0
    4.6084   -1.3493    0.6686 H   0  0  0  0  0  0  0  0  0  0  0  0
    4.4676   -0.1507   -1.1366 C   0  0  0  0  0  0  0  0  0  0  0  0
    5.3456   -0.6202   -1.6061 H   0  0  0  0  0  0  0  0  0  0  0  0
    3.7670    0.8694   -1.8398 C   0  0  0  0  0  0  0  0  0  0  0  0
    4.1155    1.1678   -2.8402 H   0  0  0  0  0  0  0  0  0  0  0  0
    2.6632    1.5041   -1.2786 C   0  0  0  0  0  0  0  0  0  0  0  0
    2.1416    2.3053   -1.8216 H   0  0  0  0  0  0  0  0  0  0  0  0
    2.2438    1.1387    0.0292 C   0  0  0  0  0  0  0  0  0  0  0  0
   -1.3932    3.0783    1.7756 C   0  0  0  0  0  0  0  0  0  0  0  0
   -1.5379    2.3898    2.6325 H   0  0  0  0  0  0  0  0  0  0  0  0
   -2.3887    3.4742    1.4922 H   0  0  0  0  0  0  0  0  0  0  0  0
   -0.7727    3.9318    2.1196 H   0  0  0  0  0  0  0  0  0  0  0  0
   -0.5558    3.2862   -1.2075 C   0  0  0  0  0  0  0  0  0  0  0  0
   -1.5974    3.5582   -1.4729 H   0  0  0  0  0  0  0  0  0  0  0  0
   -0.1203    2.7483   -2.0728 H   0  0  0  0  0  0  0  0  0  0  0  0
    0.0148    4.2246   -1.0505 H   0  0  0  0  0  0  0  0  0  0  0  0
   -2.3771    0.1486   -0.3589 C   0  0  0  0  0  0  0  0  0  0  0  0
   -2.6305   -1.1910   -0.7639 C   0  0  0  0  0  0  0  0  0  0  0  0
   -1.7873   -1.8945   -0.7897 H   0  0  0  0  0  0  0  0  0  0  0  0
   -3.9144   -1.6058   -1.1345 C   0  0  0  0  0  0  0  0  0  0  0  0
   -4.0732   -2.6519   -1.4408 H   0  0  0  0  0  0  0  0  0  0  0  0
   -4.9931   -0.7049   -1.1310 C   0  0  0  0  0  0  0  0  0  0  0  0
   -6.0006   -1.0347   -1.4252 H   0  0  0  0  0  0  0  0  0  0  0  0
   -4.7594    0.6272   -0.7535 C   0  0  0  0  0  0  0  0  0  0  0  0
   -5.5879    1.3529   -0.7487 H   0  0  0  0  0  0  0  0  0  0  0  0
   -3.4782    1.0484   -0.3757 C   0  0  0  0  0  0  0  0  0  0  0  0
   -3.3237    2.0952   -0.0739 H   0  0  0  0  0  0  0  0  0  0  0  0
  1 18  1  0  0  0  0
  2  1  1  0  0  0  0
  3  1  1  6  0  0  0
  3  4  1  0  0  0  0
  4  5  1  0  0  0  0
  6  4  2  0  0  0  0
  6  7  1  0  0  0  0
  8  6  1  0  0  0  0
  9 10  1  0  0  0  0
  9  8  1  0  0  0  0
 11  9  2  0  0  0  0
 12 11  1  0  0  0  0
 13 15  2  0  0  0  0
 13 11  1  0  0  0  0
 14 13  1  0  0  0  0
 15 17  1  0  0  0  0
 16 15  1  0  0  0  0
 17  8  2  0  0  0  0
 17  3  1  0  0  0  0
 18 21  1  0  0  0  0
 18 19  1  0  0  0  0
 20 18  1  0  0  0  0
 22 25  1  0  0  0  0
 22  1  1  0  0  0  0
 23 22  1  0  0  0  0
 24 22  1  0  0  0  0
 26  2  1  0  0  0  0
 27 26  2  0  0  0  0
 28 27  1  0  0  0  0
 29 31  2  0  0  0  0
 29 27  1  0  0  0  0
 30 29  1  0  0  0  0
 31 33  1  0  0  0  0
 32 31  1  0  0  0  0
 33 34  1  0  0  0  0
 33 35  2  0  0  0  0
 35 26  1  0  0  0  0
 35 36  1  0  0  0  0
M  END
