1,28
 OpenBabel05122313053D

 42 44  0  0  0  0  0  0  0  0999 V2000
    0.8043    0.9277   -1.1014 N   0  0  0  0  0  2  0  0  0  0  0  0
   -1.6479    2.0980   -1.5317 N   0  0  0  0  0  0  0  0  0  0  0  0
   -2.8171    0.2815   -1.8019 N   0  0  0  0  0  0  0  0  0  0  0  0
    1.7657    0.2473   -1.8357 C   0  0  0  0  0  0  0  0  0  0  0  0
    1.6461   -1.1645   -1.9636 C   0  0  0  0  0  0  0  0  0  0  0  0
    0.7928   -1.6631   -1.4826 H   0  0  0  0  0  0  0  0  0  0  0  0
    2.5629   -1.9187   -2.6978 C   0  0  0  0  0  0  0  0  0  0  0  0
    2.4254   -3.0115   -2.7525 H   0  0  0  0  0  0  0  0  0  0  0  0
    3.6437   -1.3171   -3.3768 C   0  0  0  0  0  0  0  0  0  0  0  0
    3.7308    0.0871   -3.3028 C   0  0  0  0  0  0  0  0  0  0  0  0
    4.5386    0.6039   -3.8475 H   0  0  0  0  0  0  0  0  0  0  0  0
    2.8252    0.8575   -2.5626 C   0  0  0  0  0  0  0  0  0  0  0  0
    2.9338    1.9497   -2.5664 H   0  0  0  0  0  0  0  0  0  0  0  0
    4.6585   -2.1384   -4.1315 C   0  0  0  0  0  0  0  0  0  0  0  0
    5.4597   -2.5214   -3.4608 H   0  0  0  0  0  0  0  0  0  0  0  0
    5.1576   -1.5448   -4.9238 H   0  0  0  0  0  0  0  0  0  0  0  0
    4.1940   -3.0240   -4.6120 H   0  0  0  0  0  0  0  0  0  0  0  0
    0.7195    2.3019   -1.0121 C   0  0  0  0  0  0  0  0  0  0  0  0
    1.8087    3.1683   -0.7136 C   0  0  0  0  0  0  0  0  0  0  0  0
    2.7956    2.7205   -0.5396 H   0  0  0  0  0  0  0  0  0  0  0  0
    1.6302    4.5475   -0.5677 C   0  0  0  0  0  0  0  0  0  0  0  0
    2.4983    5.1752   -0.3133 H   0  0  0  0  0  0  0  0  0  0  0  0
    0.3584    5.1345   -0.7043 C   0  0  0  0  0  0  0  0  0  0  0  0
    0.2203    6.2171   -0.5717 H   0  0  0  0  0  0  0  0  0  0  0  0
   -0.7400    4.3136   -0.9929 C   0  0  0  0  0  0  0  0  0  0  0  0
   -1.7490    4.7430   -1.0908 H   0  0  0  0  0  0  0  0  0  0  0  0
   -0.5608    2.9330   -1.1561 C   0  0  0  0  0  0  0  0  0  0  0  0
   -1.7292    0.7837   -1.1367 C   0  0  0  0  0  2  0  0  0  0  0  0
   -2.6717    2.4093   -2.4231 C   0  0  0  0  0  0  0  0  0  0  0  0
   -2.7690    3.3986   -2.8778 H   0  0  0  0  0  0  0  0  0  0  0  0
   -3.4025    1.2631   -2.5977 C   0  0  0  0  0  0  0  0  0  0  0  0
   -4.2737    1.0704   -3.2293 H   0  0  0  0  0  0  0  0  0  0  0  0
   -3.1573   -1.1522   -1.8248 C   0  0  0  0  0  0  0  0  0  0  0  0
   -2.6767   -1.5569   -0.9124 H   0  0  0  0  0  0  0  0  0  0  0  0
   -2.5191   -1.8264   -3.0431 C   0  0  0  0  0  0  0  0  0  0  0  0
   -1.4232   -1.6631   -3.0477 H   0  0  0  0  0  0  0  0  0  0  0  0
   -2.9373   -1.4251   -3.9893 H   0  0  0  0  0  0  0  0  0  0  0  0
   -2.7070   -2.9181   -3.0183 H   0  0  0  0  0  0  0  0  0  0  0  0
   -4.6661   -1.3707   -1.7280 C   0  0  0  0  0  0  0  0  0  0  0  0
   -5.2005   -1.0090   -2.6305 H   0  0  0  0  0  0  0  0  0  0  0  0
   -5.0887   -0.8594   -0.8404 H   0  0  0  0  0  0  0  0  0  0  0  0
   -4.8791   -2.4532   -1.6336 H   0  0  0  0  0  0  0  0  0  0  0  0
  1 18  1  0  0  0  0
  2 27  1  0  0  0  0
  2 28  1  0  0  0  0
  3 28  1  0  0  0  0
  4  1  1  0  0  0  0
  5  4  1  0  0  0  0
  5  6  1  0  0  0  0
  7  5  2  0  0  0  0
  8  7  1  0  0  0  0
  9 10  2  0  0  0  0
  9  7  1  0  0  0  0
 10 12  1  0  0  0  0
 11 10  1  0  0  0  0
 12  4  2  0  0  0  0
 13 12  1  0  0  0  0
 14 15  1  0  0  0  0
 14  9  1  0  0  0  0
 16 14  1  0  0  0  0
 17 14  1  0  0  0  0
 18 19  1  0  0  0  0
 19 21  2  0  0  0  0
 19 20  1  0  0  0  0
 21 22  1  0  0  0  0
 23 24  1  0  0  0  0
 23 21  1  0  0  0  0
 25 23  2  0  0  0  0
 26 25  1  0  0  0  0
 27 18  2  0  0  0  0
 27 25  1  0  0  0  0
 29  2  1  0  0  0  0
 30 29  1  0  0  0  0
 31 29  2  0  0  0  0
 31  3  1  0  0  0  0
 32 31  1  0  0  0  0
 33  3  1  0  0  0  0
 33 39  1  0  0  0  0
 33 34  1  0  0  0  0
 35 38  1  0  0  0  0
 35 33  1  0  0  0  0
 36 35  1  0  0  0  0
 37 35  1  0  0  0  0
 39 42  1  0  0  0  0
 39 41  1  0  0  0  0
 40 39  1  0  0  0  0
M  END
