2,13
 OpenBabel05122313053D

 42 46  0  0  0  0  0  0  0  0999 V2000
    0.2294    4.4730   -0.2081 O   0  0  0  0  0  0  0  0  0  0  0  0
   -0.3541   -1.6803   -0.7477 N   0  0  0  0  0  2  0  0  0  0  0  0
   -0.4993   -2.9434   -1.2047 C   0  0  0  0  0  0  0  0  0  0  0  0
   -1.5030   -3.3756   -1.0645 H   0  0  0  0  0  0  0  0  0  0  0  0
    0.5538   -3.6290   -1.8098 C   0  0  0  0  0  0  0  0  0  0  0  0
    0.4021   -4.6589   -2.1603 H   0  0  0  0  0  0  0  0  0  0  0  0
    1.7780   -2.9583   -1.9765 C   0  0  0  0  0  0  0  0  0  0  0  0
    2.6213   -3.4493   -2.4851 H   0  0  0  0  0  0  0  0  0  0  0  0
    1.9233   -1.6585   -1.4942 C   0  0  0  0  0  0  0  0  0  0  0  0
    2.8649   -1.1145   -1.6288 H   0  0  0  0  0  0  0  0  0  0  0  0
    0.8479   -1.0168   -0.8369 C   0  0  0  0  0  0  0  0  0  0  0  0
    0.8168    0.3486   -0.3287 C   0  0  0  0  0  0  0  0  0  0  0  0
   -0.4989    0.8577   -0.1313 C   0  0  0  0  0  3  0  0  0  0  0  0
   -0.7048    2.2462   -0.0076 C   0  0  0  0  0  0  0  0  0  0  0  0
   -1.7245    2.6199    0.1642 H   0  0  0  0  0  0  0  0  0  0  0  0
    0.3675    3.1256   -0.1674 C   0  0  0  0  0  0  0  0  0  0  0  0
    1.7167    2.6395   -0.2732 C   0  0  0  0  0  0  0  0  0  0  0  0
    2.8007    3.5442   -0.4792 C   0  0  0  0  0  0  0  0  0  0  0  0
    2.5726    4.6137   -0.5810 H   0  0  0  0  0  0  0  0  0  0  0  0
    4.0884    3.0707   -0.5981 C   0  0  0  0  0  0  0  0  0  0  0  0
    4.9190    3.7509   -0.8408 H   0  0  0  0  0  0  0  0  0  0  0  0
    4.3843    1.7010   -0.3161 C   0  0  0  0  0  0  0  0  0  0  0  0
    5.7439    1.2412   -0.3319 C   0  0  0  0  0  0  0  0  0  0  0  0
    6.5236    1.9412   -0.6703 H   0  0  0  0  0  0  0  0  0  0  0  0
    6.0709   -0.0334    0.0619 C   0  0  0  0  0  0  0  0  0  0  0  0
    7.1127   -0.3870    0.0191 H   0  0  0  0  0  0  0  0  0  0  0  0
    5.0729   -0.8971    0.6216 C   0  0  0  0  0  0  0  0  0  0  0  0
    5.4323   -2.1506    1.1903 C   0  0  0  0  0  0  0  0  0  0  0  0
    6.4828   -2.4742    1.1209 H   0  0  0  0  0  0  0  0  0  0  0  0
    4.4958   -2.9346    1.8519 C   0  0  0  0  0  0  0  0  0  0  0  0
    4.7900   -3.8983    2.2944 H   0  0  0  0  0  0  0  0  0  0  0  0
    3.1694   -2.4621    1.9912 C   0  0  0  0  0  0  0  0  0  0  0  0
    2.4351   -3.0441    2.5684 H   0  0  0  0  0  0  0  0  0  0  0  0
    2.7847   -1.2582    1.4113 C   0  0  0  0  0  0  0  0  0  0  0  0
    1.7575   -0.8984    1.5546 H   0  0  0  0  0  0  0  0  0  0  0  0
    3.7005   -0.4605    0.6666 C   0  0  0  0  0  3  0  0  0  0  0  0
    3.3293    0.7963    0.0281 C   0  0  0  0  0  0  0  0  0  0  0  0
    1.9563    1.2250   -0.1904 C   0  0  0  0  0  0  0  0  0  0  0  0
   -1.0776    5.0176   -0.0935 C   0  0  0  0  0  0  0  0  0  0  0  0
   -0.9624    6.1148   -0.1611 H   0  0  0  0  0  0  0  0  0  0  0  0
   -1.5485    4.7520    0.8773 H   0  0  0  0  0  0  0  0  0  0  0  0
   -1.7410    4.6613   -0.9111 H   0  0  0  0  0  0  0  0  0  0  0  0
  1 16  1  0  0  0  0
  1 39  1  0  0  0  0
  3  4  1  0  0  0  0
  3  2  1  0  0  0  0
  5  3  2  0  0  0  0
  6  5  1  0  0  0  0
  7  5  1  0  0  0  0
  7  9  2  0  0  0  0
  8  7  1  0  0  0  0
  9 11  1  0  0  0  0
 10  9  1  0  0  0  0
 11  2  1  0  0  0  0
 11 12  2  0  0  0  0
 12 38  1  0  0  0  0
 12 13  1  0  0  0  0
 13 14  2  0  0  0  0
 14 15  1  0  0  0  0
 16 14  1  0  0  0  0
 17 38  1  0  0  0  0
 17 16  2  0  0  0  0
 18 17  1  0  0  0  0
 19 18  1  0  0  0  0
 20 18  2  0  0  0  0
 20 22  1  0  0  0  0
 21 20  1  0  0  0  0
 22 37  1  0  0  0  0
 23 22  2  0  0  0  0
 23 25  1  0  0  0  0
 24 23  1  0  0  0  0
 25 27  2  0  0  0  0
 26 25  1  0  0  0  0
 27 36  1  0  0  0  0
 27 28  1  0  0  0  0
 28 30  2  0  0  0  0
 29 28  1  0  0  0  0
 30 32  1  0  0  0  0
 30 31  1  0  0  0  0
 32 33  1  0  0  0  0
 34 35  1  0  0  0  0
 34 32  2  0  0  0  0
 36 34  1  0  0  0  0
 37 36  1  0  0  0  0
 38 37  2  0  0  0  0
 39 41  1  0  0  0  0
 40 39  1  0  0  0  0
 42 39  1  0  0  0  0
M  END
