3,29
 OpenBabel05122313053D

 41 42  0  0  0  0  0  0  0  0999 V2000
   -0.5205   -3.4409   -1.5007 O   0  0  0  0  0  0  0  0  0  0  0  0
    1.2985   -3.0929   -0.1899 O   0  0  0  0  0  0  0  0  0  0  0  0
   -2.5753   -0.7348   -1.2274 N   0  0  0  0  0  0  0  0  0  0  0  0
   -3.0483    0.9185    1.3628 C   0  0  0  0  0  0  0  0  0  0  0  0
   -3.0273   -0.1616    1.5527 H   0  0  0  0  0  0  0  0  0  0  0  0
   -2.9372    1.8015    2.4491 C   0  0  0  0  0  0  0  0  0  0  0  0
   -2.8167    1.3926    3.4639 H   0  0  0  0  0  0  0  0  0  0  0  0
   -2.9840    3.1894    2.2486 C   0  0  0  0  0  0  0  0  0  0  0  0
   -2.9015    3.8780    3.1033 H   0  0  0  0  0  0  0  0  0  0  0  0
   -3.1272    3.6905    0.9449 C   0  0  0  0  0  0  0  0  0  0  0  0
   -3.1559    4.7766    0.7676 H   0  0  0  0  0  0  0  0  0  0  0  0
   -3.2108    2.8090   -0.1421 C   0  0  0  0  0  0  0  0  0  0  0  0
   -3.2801    3.2103   -1.1648 H   0  0  0  0  0  0  0  0  0  0  0  0
   -3.1825    1.4108    0.0470 C   0  0  0  0  0  0  0  0  0  0  0  0
   -3.3494    0.5427   -1.1841 C   0  0  0  0  0  0  0  0  0  0  0  0
   -4.4297    0.3179   -1.3450 H   0  0  0  0  0  0  0  0  0  0  0  0
   -3.0073    1.1270   -2.0600 H   0  0  0  0  0  0  0  0  0  0  0  0
   -2.5932   -1.2787   -2.6141 C   0  0  0  0  0  0  0  0  0  0  0  0
   -2.0947   -0.5508   -3.2828 H   0  0  0  0  0  0  0  0  0  0  0  0
   -3.6390   -1.4484   -2.9535 H   0  0  0  0  0  0  0  0  0  0  0  0
   -2.0375   -2.2340   -2.6132 H   0  0  0  0  0  0  0  0  0  0  0  0
   -3.0971   -1.7465   -0.2914 C   0  0  0  0  0  0  0  0  0  0  0  0
   -4.4585   -2.0857   -0.2578 C   0  0  0  0  0  0  0  0  0  0  0  0
   -4.9294   -2.9880    0.7076 C   0  0  0  0  0  0  0  0  0  0  0  0
   -6.0006   -3.2361    0.7464 H   0  0  0  0  0  0  0  0  0  0  0  0
   -4.0363   -3.5523    1.6321 C   0  0  0  0  0  0  0  0  0  0  0  0
   -2.6723   -3.2349    1.5681 C   0  0  0  0  0  0  0  0  0  0  0  0
   -2.1820   -2.3401    0.5958 C   0  0  0  0  0  0  0  0  0  0  0  0
   -0.7208   -2.0341    0.4751 C   0  0  0  0  0  3  0  0  0  0  0  0
   -0.2100   -2.0378    1.4535 H   0  0  0  0  0  0  0  0  0  0  0  0
   -0.0205   -2.9163   -0.5116 C   0  0  0  0  0  0  0  0  0  0  0  0
    2.0799   -3.8566   -1.1288 C   0  0  0  0  0  0  0  0  0  0  0  0
    2.1624   -3.2817   -2.0760 H   0  0  0  0  0  0  0  0  0  0  0  0
    1.5385   -4.7959   -1.3664 H   0  0  0  0  0  0  0  0  0  0  0  0
    3.4388   -4.1104   -0.5090 C   0  0  0  0  0  0  0  0  0  0  0  0
    4.0686   -4.6986   -1.2057 H   0  0  0  0  0  0  0  0  0  0  0  0
    3.3436   -4.6827    0.4358 H   0  0  0  0  0  0  0  0  0  0  0  0
    3.9640   -3.1592   -0.2948 H   0  0  0  0  0  0  0  0  0  0  0  0
   -5.1656   -1.6274   -0.9644 H   0  0  0  0  0  0  0  0  0  0  0  0
   -4.4042   -4.2460    2.4031 H   0  0  0  0  0  0  0  0  0  0  0  0
   -1.9627   -3.6850    2.2798 H   0  0  0  0  0  0  0  0  0  0  0  0
  1 31  2  0  0  0  0
  3 15  1  0  0  0  0
  3 22  1  0  0  0  0
  4  5  1  0  0  0  0
  4  6  1  0  0  0  0
  6  7  1  0  0  0  0
  8  6  2  0  0  0  0
  8  9  1  0  0  0  0
 10  8  1  0  0  0  0
 11 10  1  0  0  0  0
 12 14  1  0  0  0  0
 12 10  2  0  0  0  0
 13 12  1  0  0  0  0
 14  4  2  0  0  0  0
 15 14  1  0  0  0  0
 16 15  1  0  0  0  0
 17 15  1  0  0  0  0
 18 21  1  0  0  0  0
 18  3  1  0  0  0  0
 19 18  1  0  0  0  0
 20 18  1  0  0  0  0
 22 23  2  0  0  0  0
 22 28  1  0  0  0  0
 23 24  1  0  0  0  0
 24 25  1  0  0  0  0
 24 26  2  0  0  0  0
 26 40  1  0  0  0  0
 27 26  1  0  0  0  0
 27 41  1  0  0  0  0
 28 27  2  0  0  0  0
 29 28  1  0  0  0  0
 29 30  1  0  0  0  0
 31  2  1  0  0  0  0
 31 29  1  0  0  0  0
 32 35  1  0  0  0  0
 32  2  1  0  0  0  0
 33 32  1  0  0  0  0
 34 32  1  0  0  0  0
 35 38  1  0  0  0  0
 35 37  1  0  0  0  0
 36 35  1  0  0  0  0
 39 23  1  0  0  0  0
M  END
