6,7
 OpenBabel05122313053D

 26 27  0  0  1  0  0  0  0  0999 V2000
    5.7277   -1.8227    0.5343 S   0  0  0  0  0  0  0  0  0  0  0  0
    3.4822   -1.7662    2.6955 F   0  0  0  0  0  0  0  0  0  0  0  0
    4.4805   -0.3968   -1.7298 F   0  0  0  0  0  0  0  0  0  0  0  0
    5.9331   -2.4505    1.8536 O   0  0  0  0  0  0  0  0  0  0  0  0
    6.6694   -0.8098    0.0143 O   0  0  0  0  0  0  0  0  0  0  0  0
    0.6436    1.5211   -1.7377 N   0  0  0  0  0  2  0  0  0  0  0  0
    1.5224    0.2267    0.3724 C   0  0  0  0  0  3  0  0  0  0  0  0
    1.9219   -0.4753    1.5213 C   0  0  0  0  0  0  0  0  0  0  0  0
    1.2810   -0.5484    2.4108 H   0  0  0  0  0  0  0  0  0  0  0  0
    3.1645   -1.1140    1.5770 C   0  0  0  0  0  0  0  0  0  0  0  0
    4.0598   -1.0882    0.4830 C   0  0  0  0  0  0  0  0  0  0  0  0
    3.6487   -0.3890   -0.6650 C   0  0  0  0  0  0  0  0  0  0  0  0
    2.4071    0.2681   -0.7563 C   0  0  0  0  0  0  0  0  0  0  0  0
    1.9086    0.9994   -1.9187 C   0  0  1  0  0  3  0  0  0  0  0  0
    2.5743    1.2034   -3.1467 C   0  0  0  0  0  0  0  0  0  0  0  0
    3.5816    0.7959   -3.2783 H   0  0  0  0  0  0  0  0  0  0  0  0
    1.9538    1.9203   -4.1721 C   0  0  0  0  0  0  0  0  0  0  0  0
    2.4767    2.0787   -5.1267 H   0  0  0  0  0  0  0  0  0  0  0  0
    0.6638    2.4344   -3.9674 C   0  0  0  0  0  0  0  0  0  0  0  0
    0.1360    3.0048   -4.7438 H   0  0  0  0  0  0  0  0  0  0  0  0
    0.0487    2.2138   -2.7355 C   0  0  0  0  0  0  0  0  0  0  0  0
   -0.9571    2.5980   -2.5197 H   0  0  0  0  0  0  0  0  0  0  0  0
    5.6059   -3.1539   -0.6880 C   0  0  0  0  0  0  0  0  0  0  0  0
    5.3502   -2.7183   -1.6701 H   0  0  0  0  0  0  0  0  0  0  0  0
    4.8509   -3.8830   -0.3425 H   0  0  0  0  0  0  0  0  0  0  0  0
    6.6135   -3.6110   -0.7093 H   0  0  0  0  0  0  0  0  0  0  0  0
  1  4  2  0  0  0  0
  3 12  1  0  0  0  0
  5  1  2  0  0  0  0
  7  8  1  0  0  0  0
  8 10  2  0  0  0  0
  8  9  1  0  0  0  0
 10  2  1  0  0  0  0
 11  1  1  0  0  0  0
 11 10  1  0  0  0  0
 12 11  2  0  0  0  0
 13 12  1  0  0  0  0
 13  7  2  0  0  0  0
 14  6  1  0  0  0  0
 14 13  1  6  0  0  0
 15 14  1  0  0  0  0
 16 15  1  0  0  0  0
 17 19  1  0  0  0  0
 17 15  2  0  0  0  0
 18 17  1  0  0  0  0
 19 21  2  0  0  0  0
 20 19  1  0  0  0  0
 21 22  1  0  0  0  0
 21  6  1  0  0  0  0
 23 25  1  0  0  0  0
 23  1  1  0  0  0  0
 24 23  1  0  0  0  0
 26 23  1  0  0  0  0
M  END
