1,2
 OpenBabel05122313053D

 18 18  0  0  1  0  0  0  0  0999 V2000
   -0.7674    1.8836   -0.3980 N   0  0  0  0  0  2  0  0  0  0  0  0
    1.4373    0.5639   -1.6260 C   0  0  0  0  0  2  0  0  0  0  0  0
    2.0717    1.8940   -1.3786 C   0  0  0  0  0  0  0  0  0  0  0  0
    1.5647    2.6309   -0.1394 C   0  0  0  0  0  0  0  0  0  0  0  0
    0.0889    2.9002   -0.0923 C   0  0  2  0  0  3  0  0  0  0  0  0
   -0.3956    4.1568    0.3114 C   0  0  0  0  0  0  0  0  0  0  0  0
   -1.7719    4.3880    0.4213 C   0  0  0  0  0  0  0  0  0  0  0  0
   -2.6420    3.3392    0.0980 C   0  0  0  0  0  0  0  0  0  0  0  0
   -2.1065    2.1201   -0.3193 C   0  0  0  0  0  0  0  0  0  0  0  0
    2.0033   -0.1146   -2.3060 H   0  0  0  0  0  0  0  0  0  0  0  0
    1.9308    2.5133   -2.2972 H   0  0  0  0  0  0  0  0  0  0  0  0
    3.1710    1.7447   -1.2816 H   0  0  0  0  0  0  0  0  0  0  0  0
    1.8125    1.9975    0.7355 H   0  0  0  0  0  0  0  0  0  0  0  0
    2.1090    3.5859   -0.0036 H   0  0  0  0  0  0  0  0  0  0  0  0
    0.3305    4.9501    0.5415 H   0  0  0  0  0  0  0  0  0  0  0  0
   -2.1543    5.3682    0.7429 H   0  0  0  0  0  0  0  0  0  0  0  0
   -3.7340    3.4514    0.1524 H   0  0  0  0  0  0  0  0  0  0  0  0
   -2.7544    1.2880   -0.6198 H   0  0  0  0  0  0  0  0  0  0  0  0
  1  9  1  0  0  0  0
  1  5  1  0  0  0  0
  2  3  1  0  0  0  0
  3 12  1  0  0  0  0
  3  4  1  0  0  0  0
  4 14  1  0  0  0  0
  4 13  1  0  0  0  0
  5  4  1  1  0  0  0
  5  6  1  0  0  0  0
  6  7  2  0  0  0  0
  6 15  1  0  0  0  0
  7 16  1  0  0  0  0
  8 17  1  0  0  0  0
  8  7  1  0  0  0  0
  9  8  2  0  0  0  0
 10  2  1  0  0  0  0
 11  3  1  0  0  0  0
 18  9  1  0  0  0  0
M  END
