1,8
 OpenBabel05122313053D

 32 33  0  0  0  0  0  0  0  0999 V2000
    1.5511    1.6142   -0.0002 N   0  0  0  0  0  2  0  0  0  0  0  0
   -0.7423    1.7497   -0.0002 N   0  0  0  0  0  0  0  0  0  0  0  0
    2.8021    2.1310   -0.0002 C   0  0  0  0  0  3  0  0  0  0  0  0
    3.0267    3.5091    0.0001 C   0  0  0  0  0  0  0  0  0  0  0  0
    1.9261    4.3802    0.0004 C   0  0  0  0  0  0  0  0  0  0  0  0
    0.6291    3.8493    0.0004 C   0  0  0  0  0  0  0  0  0  0  0  0
    0.4858    2.4585   -0.0000 C   0  0  0  0  0  0  0  0  0  0  0  0
   -0.5985    0.3678   -0.0002 C   0  0  0  0  0  2  0  0  0  0  0  0
   -1.7765   -0.3949   -0.0001 C   0  0  0  0  0  0  0  0  0  0  0  0
   -3.0556    0.1793   -0.0001 C   0  0  0  0  0  0  0  0  0  0  0  0
   -3.1218    1.6049   -0.0004 C   0  0  0  0  0  0  0  0  0  0  0  0
   -1.9725    2.3613   -0.0004 C   0  0  0  0  0  0  0  0  0  0  0  0
   -4.3402   -0.6461    0.0001 C   0  0  0  0  0  0  0  0  0  0  0  0
   -4.0536   -2.1566   -0.0001 C   0  0  0  0  0  0  0  0  0  0  0  0
   -5.1550   -0.2870    1.2671 C   0  0  0  0  0  0  0  0  0  0  0  0
   -5.1560   -0.2868   -1.2662 C   0  0  0  0  0  0  0  0  0  0  0  0
    3.6083    1.3825   -0.0004 H   0  0  0  0  0  0  0  0  0  0  0  0
    4.0573    3.8900    0.0000 H   0  0  0  0  0  0  0  0  0  0  0  0
    2.0712    5.4700    0.0007 H   0  0  0  0  0  0  0  0  0  0  0  0
   -0.2437    4.5144    0.0007 H   0  0  0  0  0  0  0  0  0  0  0  0
   -1.6377   -1.4830   -0.0001 H   0  0  0  0  0  0  0  0  0  0  0  0
   -4.0862    2.1298   -0.0005 H   0  0  0  0  0  0  0  0  0  0  0  0
   -1.9889    3.4581   -0.0006 H   0  0  0  0  0  0  0  0  0  0  0  0
   -5.0100   -2.7146    0.0000 H   0  0  0  0  0  0  0  0  0  0  0  0
   -3.4872   -2.4702   -0.8998 H   0  0  0  0  0  0  0  0  0  0  0  0
   -3.4868   -2.4705    0.8992 H   0  0  0  0  0  0  0  0  0  0  0  0
   -6.0944   -0.8749    1.2815 H   0  0  0  0  0  0  0  0  0  0  0  0
   -5.4342    0.7848    1.2988 H   0  0  0  0  0  0  0  0  0  0  0  0
   -4.5883   -0.5237    2.1895 H   0  0  0  0  0  0  0  0  0  0  0  0
   -4.5899   -0.5233   -2.1891 H   0  0  0  0  0  0  0  0  0  0  0  0
   -5.4353    0.7850   -1.2974 H   0  0  0  0  0  0  0  0  0  0  0  0
   -6.0952   -0.8748   -1.2801 H   0  0  0  0  0  0  0  0  0  0  0  0
  1  3  1  0  0  0  0
  1  7  1  0  0  0  0
  2  8  1  0  0  0  0
  2  7  1  0  0  0  0
  3  4  1  0  0  0  0
  4  5  2  0  0  0  0
  5 19  1  0  0  0  0
  6  5  1  0  0  0  0
  6 20  1  0  0  0  0
  7  6  2  0  0  0  0
  8  9  1  0  0  0  0
  9 21  1  0  0  0  0
 10  9  2  0  0  0  0
 10 13  1  0  0  0  0
 11 10  1  0  0  0  0
 12 11  2  0  0  0  0
 12  2  1  0  0  0  0
 13 15  1  0  0  0  0
 14 24  1  0  0  0  0
 14 13  1  0  0  0  0
 14 26  1  0  0  0  0
 15 27  1  0  0  0  0
 15 28  1  0  0  0  0
 15 29  1  0  0  0  0
 16 13  1  0  0  0  0
 17  3  1  0  0  0  0
 18  4  1  0  0  0  0
 22 11  1  0  0  0  0
 23 12  1  0  0  0  0
 25 14  1  0  0  0  0
 30 16  1  0  0  0  0
 31 16  1  0  0  0  0
 32 16  1  0  0  0  0
M  END
