1,30
 OpenBabel05122313053D

 32 33  0  0  1  0  0  0  0  0999 V2000
   -1.2871   -1.0551    0.0058 N   0  0  0  0  0  2  0  0  0  0  0  0
   -2.6517   -1.1268    0.0786 C   0  0  1  0  0  3  0  0  0  0  0  0
   -3.2929   -2.3508    0.3129 C   0  0  0  0  0  0  0  0  0  0  0  0
   -4.3891   -2.3818    0.3746 H   0  0  0  0  0  0  0  0  0  0  0  0
   -2.5285   -3.5141    0.4695 C   0  0  0  0  0  0  0  0  0  0  0  0
   -3.0150   -4.4816    0.6650 H   0  0  0  0  0  0  0  0  0  0  0  0
   -1.1398   -3.4338    0.3326 C   0  0  0  0  0  0  0  0  0  0  0  0
   -0.5087   -4.3319    0.3807 H   0  0  0  0  0  0  0  0  0  0  0  0
   -0.5325   -2.1903    0.0719 C   0  0  0  0  0  0  0  0  0  0  0  0
    0.9223   -2.1000   -0.1864 C   0  0  0  0  0  0  0  0  0  0  0  0
    1.4030   -1.3776   -1.3004 C   0  0  0  0  0  0  0  0  0  0  0  0
    0.6890   -0.8856   -1.9773 H   0  0  0  0  0  0  0  0  0  0  0  0
    2.7760   -1.2632   -1.5382 C   0  0  0  0  0  0  0  0  0  0  0  0
    3.1678   -0.6950   -2.3935 H   0  0  0  0  0  0  0  0  0  0  0  0
    4.9930   -1.7185   -0.8390 F   0  0  0  0  0  0  0  0  0  0  0  0
    3.6680   -1.8701   -0.6459 C   0  0  0  0  0  0  0  0  0  0  0  0
    3.2226   -2.6191    0.4494 C   0  0  0  0  0  0  0  0  0  0  0  0
    3.9577   -3.0774    1.1257 H   0  0  0  0  0  0  0  0  0  0  0  0
    1.8447   -2.7352    0.6687 C   0  0  0  0  0  0  0  0  0  0  0  0
    1.4808   -3.2885    1.5474 H   0  0  0  0  0  0  0  0  0  0  0  0
   -3.3676    0.2052   -0.0778 C   0  0  0  0  0  0  0  0  0  0  0  0
   -3.5794    0.8101    1.3316 C   0  0  0  0  0  0  0  0  0  0  0  0
   -2.6083    0.9467    1.8487 H   0  0  0  0  0  0  0  0  0  0  0  0
   -4.2302    0.1630    1.9550 H   0  0  0  0  0  0  0  0  0  0  0  0
   -4.0592    1.8059    1.2411 H   0  0  0  0  0  0  0  0  0  0  0  0
   -4.7334    0.0470   -0.7739 C   0  0  0  0  0  0  0  0  0  0  0  0
   -4.6329   -0.4688   -1.7500 H   0  0  0  0  0  0  0  0  0  0  0  0
   -5.1651    1.0506   -0.9618 H   0  0  0  0  0  0  0  0  0  0  0  0
   -5.4654   -0.5139   -0.1555 H   0  0  0  0  0  0  0  0  0  0  0  0
   -2.4238    1.1022   -0.9098 C   0  0  0  0  0  3  0  0  0  0  0  0
   -2.7138    2.1715   -0.8576 H   0  0  0  0  0  0  0  0  0  0  0  0
   -2.4072    0.7819   -1.9753 H   0  0  0  0  0  0  0  0  0  0  0  0
  1  9  1  0  0  0  0
  1  2  1  0  0  0  0
  2 21  1  1  0  0  0
  2  3  1  0  0  0  0
  3  4  1  0  0  0  0
  3  5  2  0  0  0  0
  5  6  1  0  0  0  0
  7  8  1  0  0  0  0
  7  5  1  0  0  0  0
  9  7  2  0  0  0  0
 10  9  1  0  0  0  0
 10 19  1  0  0  0  0
 11 10  2  0  0  0  0
 12 11  1  0  0  0  0
 13 11  1  0  0  0  0
 13 16  2  0  0  0  0
 14 13  1  0  0  0  0
 15 16  1  0  0  0  0
 16 17  1  0  0  0  0
 17 19  2  0  0  0  0
 17 18  1  0  0  0  0
 19 20  1  0  0  0  0
 21 22  1  0  0  0  0
 22 23  1  0  0  0  0
 22 24  1  0  0  0  0
 25 22  1  0  0  0  0
 26 29  1  0  0  0  0
 26 21  1  0  0  0  0
 27 26  1  0  0  0  0
 28 26  1  0  0  0  0
 30 31  1  0  0  0  0
 30 21  1  0  0  0  0
 32 30  1  0  0  0  0
M  END
