2,7
 OpenBabel05122313053D

 21 22  0  0  0  0  0  0  0  0999 V2000
    2.7040   -3.1693   -0.5311 S   0  0  0  0  0  0  0  0  0  0  0  0
   -0.7520   -1.2301    0.0223 N   0  0  0  0  0  2  0  0  0  0  0  0
    3.7244   -1.8564   -1.0198 C   0  0  0  0  0  0  0  0  0  0  0  0
    4.7745   -2.0614   -1.2670 H   0  0  0  0  0  0  0  0  0  0  0  0
    3.0669   -0.6334   -1.0485 C   0  0  0  0  0  0  0  0  0  0  0  0
    3.5662    0.2927   -1.3657 H   0  0  0  0  0  0  0  0  0  0  0  0
    1.6975   -0.7212   -0.6529 C   0  0  0  0  0  3  0  0  0  0  0  0
    1.3623   -2.0594   -0.3496 C   0  0  0  0  0  0  0  0  0  0  0  0
    0.0123   -2.3110   -0.0082 C   0  0  0  0  0  3  0  0  0  0  0  0
   -0.4165   -3.3085    0.1909 H   0  0  0  0  0  0  0  0  0  0  0  0
   -2.1198   -1.3065    0.3711 C   0  0  0  0  0  0  0  0  0  0  0  0
   -2.5315   -1.9734    1.5446 C   0  0  0  0  0  0  0  0  0  0  0  0
   -1.7740   -2.4324    2.1978 H   0  0  0  0  0  0  0  0  0  0  0  0
   -3.8922   -2.0152    1.8864 C   0  0  0  0  0  0  0  0  0  0  0  0
   -4.2043   -2.5285    2.8088 H   0  0  0  0  0  0  0  0  0  0  0  0
   -4.8475   -1.3948    1.0673 C   0  0  0  0  0  0  0  0  0  0  0  0
   -5.9130   -1.4255    1.3398 H   0  0  0  0  0  0  0  0  0  0  0  0
   -4.4345   -0.7312   -0.1027 C   0  0  0  0  0  0  0  0  0  0  0  0
   -5.1806   -0.2538   -0.7565 H   0  0  0  0  0  0  0  0  0  0  0  0
   -3.0802   -0.6791   -0.4527 C   0  0  0  0  0  0  0  0  0  0  0  0
   -2.7287   -0.1871   -1.3728 H   0  0  0  0  0  0  0  0  0  0  0  0
  1  8  1  0  0  0  0
  2 11  1  0  0  0  0
  3  1  1  0  0  0  0
  4  3  1  0  0  0  0
  5  3  2  0  0  0  0
  5  7  1  0  0  0  0
  6  5  1  0  0  0  0
  7  8  2  0  0  0  0
  8  9  1  0  0  0  0
  9  2  1  0  0  0  0
  9 10  1  0  0  0  0
 11 12  1  0  0  0  0
 12 14  2  0  0  0  0
 12 13  1  0  0  0  0
 14 15  1  0  0  0  0
 16 17  1  0  0  0  0
 16 14  1  0  0  0  0
 18 16  2  0  0  0  0
 19 18  1  0  0  0  0
 20 18  1  0  0  0  0
 20 11  2  0  0  0  0
 21 20  1  0  0  0  0
M  END
