1,14
 OpenBabel05122313053D

 23 24  0  0  0  0  0  0  0  0999 V2000
    0.5889    0.8201   -1.2185 N   0  0  0  0  0  2  0  0  0  0  0  0
    1.7243    1.1782   -1.6844 N   0  0  0  0  0  2  0  0  0  0  0  0
   -0.4907    1.7144   -1.4583 C   0  0  0  0  0  0  0  0  0  0  0  0
   -1.7579    1.1894   -1.7718 C   0  0  0  0  0  0  0  0  0  0  0  0
   -2.8310    2.0600   -2.0001 C   0  0  0  0  0  0  0  0  0  0  0  0
   -2.6483    3.4491   -1.8987 C   0  0  0  0  0  0  0  0  0  0  0  0
   -1.3807    3.9680   -1.5816 C   0  0  0  0  0  0  0  0  0  0  0  0
   -0.2978    3.1078   -1.3670 C   0  0  0  0  0  0  0  0  0  0  0  0
    2.7448    0.3043   -1.3718 C   0  0  0  0  0  0  0  0  0  0  0  0
    4.0428    0.5861   -1.8663 C   0  0  0  0  0  0  0  0  0  0  0  0
    5.0893   -0.2816   -1.5625 C   0  0  0  0  0  0  0  0  0  0  0  0
    4.8302   -1.4230   -0.7721 C   0  0  0  0  0  0  0  0  0  0  0  0
    3.5424   -1.7004   -0.2844 C   0  0  0  0  0  0  0  0  0  0  0  0
    2.4533   -0.8478   -0.5634 C   0  0  0  0  0  3  0  0  0  0  0  0
   -1.8881    0.1014   -1.8500 H   0  0  0  0  0  0  0  0  0  0  0  0
   -3.8183    1.6453   -2.2521 H   0  0  0  0  0  0  0  0  0  0  0  0
   -3.4966    4.1302   -2.0639 H   0  0  0  0  0  0  0  0  0  0  0  0
   -1.2366    5.0555   -1.4933 H   0  0  0  0  0  0  0  0  0  0  0  0
    0.7012    3.4870   -1.1114 H   0  0  0  0  0  0  0  0  0  0  0  0
    4.1884    1.4888   -2.4776 H   0  0  0  0  0  0  0  0  0  0  0  0
    6.1055   -0.0833   -1.9337 H   0  0  0  0  0  0  0  0  0  0  0  0
    5.6556   -2.1122   -0.5323 H   0  0  0  0  0  0  0  0  0  0  0  0
    3.3938   -2.6008    0.3306 H   0  0  0  0  0  0  0  0  0  0  0  0
  2  9  1  0  0  0  0
  2  1  1  0  0  0  0
  3  8  1  0  0  0  0
  3  1  1  0  0  0  0
  4  3  2  0  0  0  0
  5  6  2  0  0  0  0
  5  4  1  0  0  0  0
  6  7  1  0  0  0  0
  7 18  1  0  0  0  0
  7  8  2  0  0  0  0
  8 19  1  0  0  0  0
  9 14  1  0  0  0  0
 10 11  1  0  0  0  0
 10  9  2  0  0  0  0
 11 12  2  0  0  0  0
 12 22  1  0  0  0  0
 12 13  1  0  0  0  0
 13 23  1  0  0  0  0
 14 13  2  0  0  0  0
 15  4  1  0  0  0  0
 16  5  1  0  0  0  0
 17  6  1  0  0  0  0
 20 10  1  0  0  0  0
 21 11  1  0  0  0  0
M  END
