1,2
 OpenBabel05122313053D

 17 17  0  0  1  0  0  0  0  0999 V2000
   -1.6824   -2.0422   -0.0074 N   0  0  0  0  0  1  0  0  0  0  0  0
   -2.4551    0.4272   -0.0890 C   0  0  0  0  0  3  0  0  0  0  0  0
   -2.6871    1.8073   -0.0502 C   0  0  0  0  0  0  0  0  0  0  0  0
   -1.8399    2.5093   -0.0234 H   0  0  0  0  0  0  0  0  0  0  0  0
   -4.0157    2.2795   -0.0407 C   0  0  0  0  0  0  0  0  0  0  0  0
   -4.2045    3.3642   -0.0141 H   0  0  0  0  0  0  0  0  0  0  0  0
   -5.0982    1.3844   -0.0633 C   0  0  0  0  0  0  0  0  0  0  0  0
   -6.1293    1.7687   -0.0542 H   0  0  0  0  0  0  0  0  0  0  0  0
   -4.8682   -0.0015   -0.0989 C   0  0  0  0  0  0  0  0  0  0  0  0
   -5.7170   -0.7035   -0.1161 H   0  0  0  0  0  0  0  0  0  0  0  0
   -3.5468   -0.4782   -0.1090 C   0  0  0  0  0  0  0  0  0  0  0  0
   -3.0905   -1.9079   -0.1359 C   0  0  2  0  0  0  0  0  0  0  0  0
   -3.1091   -2.2569   -1.2220 H   0  0  0  0  0  0  0  0  0  0  0  0
   -3.8871   -2.9592    0.6544 C   0  0  0  0  0  0  0  0  0  0  0  0
   -3.4243   -3.9572    0.5405 H   0  0  0  0  0  0  0  0  0  0  0  0
   -4.9360   -3.0016    0.3032 H   0  0  0  0  0  0  0  0  0  0  0  0
   -3.8869   -2.6836    1.7270 H   0  0  0  0  0  0  0  0  0  0  0  0
  2  3  1  0  0  0  0
  3  5  2  0  0  0  0
  3  4  1  0  0  0  0
  5  6  1  0  0  0  0
  7  8  1  0  0  0  0
  7  5  1  0  0  0  0
  9  7  2  0  0  0  0
 10  9  1  0  0  0  0
 11  9  1  0  0  0  0
 11  2  2  0  0  0  0
 12 13  1  6  0  0  0
 12 11  1  0  0  0  0
 12  1  1  0  0  0  0
 12 14  1  0  0  0  0
 14 17  1  0  0  0  0
 15 14  1  0  0  0  0
 16 14  1  0  0  0  0
M  END
