5,44
 OpenBabel05122313053D

 55 59  0  0  0  0  0  0  0  0999 V2000
   -6.7770   -2.2696    0.2514 O   0  0  0  0  0  0  0  0  0  0  0  0
   -6.1670   -4.3570    0.0417 O   0  0  0  0  0  0  0  0  0  0  0  0
    0.5433   -2.2383   -0.6001 O   0  0  0  0  0  0  0  0  0  0  0  0
   -5.9326   -3.1487    0.0813 N   0  0  0  0  0  0  0  0  0  0  0  0
   -0.2441   -0.1749   -0.5943 N   0  0  0  0  0  0  0  0  0  0  0  0
   -0.5094   -1.5010   -0.5453 C   0  0  0  0  0  0  0  0  0  0  0  0
   -1.8788   -1.9381   -0.4105 C   0  0  0  0  0  3  0  0  0  0  0  0
   -2.2172   -3.3137   -0.4434 C   0  0  0  0  0  0  0  0  0  0  0  0
   -1.4071   -4.0430   -0.5891 H   0  0  0  0  0  0  0  0  0  0  0  0
   -3.5356   -3.7215   -0.2967 C   0  0  0  0  0  0  0  0  0  0  0  0
   -3.8405   -4.7750   -0.3238 H   0  0  0  0  0  0  0  0  0  0  0  0
   -4.5180   -2.7252   -0.0941 C   0  0  0  0  0  0  0  0  0  0  0  0
   -4.2263   -1.3694   -0.0420 C   0  0  0  0  0  0  0  0  0  0  0  0
   -5.0440   -0.6604    0.1384 H   0  0  0  0  0  0  0  0  0  0  0  0
   -2.8851   -0.9269   -0.2118 C   0  0  0  0  0  0  0  0  0  0  0  0
   -2.5046    0.4651   -0.1149 C   0  0  0  0  0  0  0  0  0  0  0  0
   -3.5073    1.5119    0.2241 C   0  0  0  0  0  0  0  0  0  0  0  0
   -3.3892    2.2594    1.4160 C   0  0  0  0  0  0  0  0  0  0  0  0
   -2.5522    2.0481    2.0980 H   0  0  0  0  0  0  0  0  0  0  0  0
   -4.3189    3.2598    1.7298 C   0  0  0  0  0  0  0  0  0  0  0  0
   -4.2091    3.8324    2.6633 H   0  0  0  0  0  0  0  0  0  0  0  0
   -5.3890    3.5279    0.8610 C   0  0  0  0  0  0  0  0  0  0  0  0
   -6.1203    4.3120    1.1087 H   0  0  0  0  0  0  0  0  0  0  0  0
   -5.5225    2.7878   -0.3242 C   0  0  0  0  0  0  0  0  0  0  0  0
   -6.3578    2.9914   -1.0114 H   0  0  0  0  0  0  0  0  0  0  0  0
   -4.5892    1.7896   -0.6407 C   0  0  0  0  0  0  0  0  0  0  0  0
   -4.6871    1.2229   -1.5795 H   0  0  0  0  0  0  0  0  0  0  0  0
   -1.1508    0.7879   -0.2833 C   0  0  0  0  0  0  0  0  0  0  0  0
   -0.5774    2.1430   -0.0853 C   0  0  0  0  0  0  0  0  0  0  0  0
   -1.0873    3.2438   -0.8034 C   0  0  0  0  0  0  0  0  0  0  0  0
   -1.9037    3.0739   -1.5206 H   0  0  0  0  0  0  0  0  0  0  0  0
   -0.5797    4.5334   -0.6089 C   0  0  0  0  0  0  0  0  0  0  0  0
   -0.9863    5.3796   -1.1824 H   0  0  0  0  0  0  0  0  0  0  0  0
    0.4432    4.7328    0.3313 C   0  0  0  0  0  0  0  0  0  0  0  0
    0.8511    5.7407    0.5032 H   0  0  0  0  0  0  0  0  0  0  0  0
    0.9446    3.6451    1.0592 C   0  0  0  0  0  0  0  0  0  0  0  0
    1.7371    3.8160    1.8039 H   0  0  0  0  0  0  0  0  0  0  0  0
    0.4685    2.3260    0.8656 C   0  0  0  0  0  0  0  0  0  0  0  0
    1.0292    1.2460    1.7461 C   0  0  0  0  0  0  0  0  0  0  0  0
    0.8490    1.5243    3.2299 C   0  0  0  0  0  0  0  0  0  0  0  0
    1.1317    0.6524    3.8478 H   0  0  0  0  0  0  0  0  0  0  0  0
   -0.2136    1.7710    3.4428 H   0  0  0  0  0  0  0  0  0  0  0  0
    1.4434    2.3956    3.5810 H   0  0  0  0  0  0  0  0  0  0  0  0
    1.6704    0.1368    1.2711 C   0  0  0  0  0  3  0  0  0  0  0  0
    2.4401   -0.7985    2.1206 C   0  0  0  0  0  0  0  0  0  0  0  0
    2.2641   -2.2037    2.0433 C   0  0  0  0  0  0  0  0  0  0  0  0
    1.4995   -2.6026    1.3605 H   0  0  0  0  0  0  0  0  0  0  0  0
    3.0597   -3.0719    2.8016 C   0  0  0  0  0  0  0  0  0  0  0  0
    2.8960   -4.1584    2.7283 H   0  0  0  0  0  0  0  0  0  0  0  0
    4.0648   -2.5701    3.6467 C   0  0  0  0  0  0  0  0  0  0  0  0
    4.6934   -3.2568    4.2338 H   0  0  0  0  0  0  0  0  0  0  0  0
    4.2593   -1.1827    3.7319 C   0  0  0  0  0  0  0  0  0  0  0  0
    5.0436   -0.7739    4.3880 H   0  0  0  0  0  0  0  0  0  0  0  0
    3.4564   -0.3098    2.9827 C   0  0  0  0  0  0  0  0  0  0  0  0
    3.6162    0.7767    3.0538 H   0  0  0  0  0  0  0  0  0  0  0  0
  2  4  2  0  0  0  0
  3  6  2  0  0  0  0
  4  1  2  0  0  0  0
  5  6  1  0  0  0  0
  5 28  2  0  0  0  0
  6  7  1  0  0  0  0
  7 15  1  0  0  0  0
  8  7  1  0  0  0  0
  8 10  2  0  0  0  0
  9  8  1  0  0  0  0
 10 12  1  0  0  0  0
 11 10  1  0  0  0  0
 12 13  2  0  0  0  0
 12  4  1  0  0  0  0
 13 14  1  0  0  0  0
 15 16  2  0  0  0  0
 15 13  1  0  0  0  0
 16 17  1  0  0  0  0
 17 18  1  0  0  0  0
 18 20  2  0  0  0  0
 18 19  1  0  0  0  0
 20 21  1  0  0  0  0
 22 23  1  0  0  0  0
 22 20  1  0  0  0  0
 24 22  2  0  0  0  0
 25 24  1  0  0  0  0
 26 24  1  0  0  0  0
 26 17  2  0  0  0  0
 27 26  1  0  0  0  0
 28 16  1  0  0  0  0
 28 29  1  0  0  0  0
 29 38  1  0  0  0  0
 30 32  1  0  0  0  0
 30 29  2  0  0  0  0
 31 30  1  0  0  0  0
 32 34  2  0  0  0  0
 33 32  1  0  0  0  0
 34 35  1  0  0  0  0
 34 36  1  0  0  0  0
 36 37  1  0  0  0  0
 38 36  2  0  0  0  0
 38 39  1  0  0  0  0
 39 40  1  0  0  0  0
 40 42  1  0  0  0  0
 40 43  1  0  0  0  0
 40 41  1  0  0  0  0
 44 39  2  0  0  0  0
 44 45  1  0  0  0  0
 45 54  1  0  0  0  0
 46 45  2  0  0  0  0
 46 48  1  0  0  0  0
 47 46  1  0  0  0  0
 48 50  2  0  0  0  0
 49 48  1  0  0  0  0
 50 52  1  0  0  0  0
 50 51  1  0  0  0  0
 52 53  1  0  0  0  0
 54 55  1  0  0  0  0
 54 52  2  0  0  0  0
M  END
