4,5
 OpenBabel05122313053D

 27 29  0  0  1  0  0  0  0  0999 V2000
   -3.0636   -2.4436   -1.9715 O   0  0  0  0  0  0  0  0  0  0  0  0
   -4.7989    2.2744    1.8814 O   0  0  0  0  0  0  0  0  0  0  0  0
   -4.1663    2.7318    1.2821 H   0  0  0  0  0  0  0  0  0  0  0  0
   -1.7676   -1.1893   -0.6279 N   0  0  0  0  0  2  0  0  0  0  0  0
    0.5182   -2.3928   -1.0937 C   0  0  0  0  0  3  0  0  0  0  0  0
    1.7391   -3.0757   -1.2686 C   0  0  0  0  0  0  0  0  0  0  0  0
    2.6425   -2.7315   -0.7429 H   0  0  0  0  0  0  0  0  0  0  0  0
    1.8332   -4.1888   -2.1199 C   0  0  0  0  0  0  0  0  0  0  0  0
    2.8040   -4.6960   -2.2391 H   0  0  0  0  0  0  0  0  0  0  0  0
    0.7120   -4.6673   -2.8285 C   0  0  0  0  0  0  0  0  0  0  0  0
    0.8073   -5.5386   -3.4932 H   0  0  0  0  0  0  0  0  0  0  0  0
   -0.5211   -4.0284   -2.6773 C   0  0  0  0  0  0  0  0  0  0  0  0
   -1.4157   -4.3823   -3.2121 H   0  0  0  0  0  0  0  0  0  0  0  0
   -0.6094   -2.9137   -1.8168 C   0  0  0  0  0  0  0  0  0  0  0  0
   -1.8105   -2.1934   -1.5107 C   0  0  1  0  0  3  0  0  0  0  0  0
   -3.0773   -0.7543   -0.4605 C   0  0  0  0  0  0  0  0  0  0  0  0
   -3.6584    0.2232    0.3567 C   0  0  0  0  0  0  0  0  0  0  0  0
   -3.0581    0.8063    1.0589 H   0  0  0  0  0  0  0  0  0  0  0  0
   -5.0395    0.4353    0.2508 C   0  0  0  0  0  0  0  0  0  0  0  0
   -5.8189   -0.3418   -0.6444 C   0  0  0  0  0  0  0  0  0  0  0  0
   -6.9016   -0.1515   -0.7151 H   0  0  0  0  0  0  0  0  0  0  0  0
   -5.2561   -1.3537   -1.4409 C   0  0  0  0  0  0  0  0  0  0  0  0
   -5.8622   -1.9646   -2.1237 H   0  0  0  0  0  0  0  0  0  0  0  0
   -3.8794   -1.5354   -1.3207 C   0  0  0  0  0  0  0  0  0  0  0  0
   -5.6933    1.5093    1.1083 C   0  0  0  0  0  0  0  0  0  0  0  0
   -6.3342    2.1473    0.4493 H   0  0  0  0  0  0  0  0  0  0  0  0
   -6.3895    1.0239    1.8277 H   0  0  0  0  0  0  0  0  0  0  0  0
  1 15  1  0  0  0  0
  1 24  1  0  0  0  0
  3  2  1  0  0  0  0
  4 16  1  0  0  0  0
  6  5  1  0  0  0  0
  6  7  1  0  0  0  0
  8  6  2  0  0  0  0
  9  8  1  0  0  0  0
 10 12  2  0  0  0  0
 10  8  1  0  0  0  0
 11 10  1  0  0  0  0
 12 14  1  0  0  0  0
 13 12  1  0  0  0  0
 14  5  2  0  0  0  0
 15 14  1  1  0  0  0
 15  4  1  0  0  0  0
 16 17  1  0  0  0  0
 17 18  1  0  0  0  0
 19 17  2  0  0  0  0
 19 25  1  0  0  0  0
 20 19  1  0  0  0  0
 21 20  1  0  0  0  0
 22 24  1  0  0  0  0
 22 20  2  0  0  0  0
 23 22  1  0  0  0  0
 24 16  2  0  0  0  0
 25 27  1  0  0  0  0
 25  2  1  0  0  0  0
 26 25  1  0  0  0  0
M  END
