1,3
 OpenBabel05122313053D

 22 23  0  0  1  0  0  0  0  0999 V2000
   -2.9510   -0.9435    0.2261 N   0  0  0  0  0  2  0  0  0  0  0  0
   -3.4014    1.0810   -0.9243 N   0  0  0  0  0  0  0  0  0  0  0  0
   -1.3656    1.4651    0.4265 C   0  0  0  0  0  2  0  0  0  0  0  0
   -0.6134    2.3564    1.2100 C   0  0  0  0  0  0  0  0  0  0  0  0
   -0.9220    3.7238    1.2440 C   0  0  0  0  0  0  0  0  0  0  0  0
   -1.9938    4.2113    0.4798 C   0  0  0  0  0  0  0  0  0  0  0  0
   -2.7895    3.3252   -0.2515 C   0  0  0  0  0  0  0  0  0  0  0  0
   -2.5031    1.9405   -0.2554 C   0  0  2  0  0  3  0  0  0  0  0  0
   -3.7992   -0.1644   -0.4972 C   0  0  2  0  0  3  0  0  0  0  0  0
   -5.1029   -0.6339   -0.8039 C   0  0  0  0  0  0  0  0  0  0  0  0
   -5.5274   -1.8578   -0.3031 C   0  0  0  0  0  0  0  0  0  0  0  0
   -4.6572   -2.6172    0.5060 C   0  0  0  0  0  0  0  0  0  0  0  0
   -3.3766   -2.1330    0.7330 C   0  0  0  0  0  0  0  0  0  0  0  0
   -4.1088    1.5653   -1.4797 H   0  0  0  0  0  0  0  0  0  0  0  0
    0.2524    1.9967    1.7842 H   0  0  0  0  0  0  0  0  0  0  0  0
   -0.3123    4.4063    1.8533 H   0  0  0  0  0  0  0  0  0  0  0  0
   -2.2316    5.2851    0.4746 H   0  0  0  0  0  0  0  0  0  0  0  0
   -3.6663    3.6965   -0.8062 H   0  0  0  0  0  0  0  0  0  0  0  0
   -5.7704   -0.0034   -1.4091 H   0  0  0  0  0  0  0  0  0  0  0  0
   -6.5423   -2.2186   -0.5263 H   0  0  0  0  0  0  0  0  0  0  0  0
   -4.9581   -3.5822    0.9344 H   0  0  0  0  0  0  0  0  0  0  0  0
   -2.6212   -2.7097    1.2854 H   0  0  0  0  0  0  0  0  0  0  0  0
  1 13  1  0  0  0  0
  3  4  1  0  0  0  0
  4  5  2  0  0  0  0
  4 15  1  0  0  0  0
  5 16  1  0  0  0  0
  6  5  1  0  0  0  0
  7  6  2  0  0  0  0
  8  2  1  1  0  0  0
  8  7  1  0  0  0  0
  8  3  1  0  0  0  0
  9  2  1  1  0  0  0
  9  1  1  0  0  0  0
 10  9  1  0  0  0  0
 10 11  2  0  0  0  0
 11 12  1  0  0  0  0
 12 13  2  0  0  0  0
 12 21  1  0  0  0  0
 13 22  1  0  0  0  0
 14  2  1  0  0  0  0
 17  6  1  0  0  0  0
 18  7  1  0  0  0  0
 19 10  1  0  0  0  0
 20 11  1  0  0  0  0
M  END
