5,10
 OpenBabel05122313053D

 32 32  0  0  0  0  0  0  0  0999 V2000
   -1.5057   -2.2083   -0.3616 S   0  0  0  0  0  0  0  0  0  0  0  0
   -2.3356   -3.2174    0.3502 O   0  0  0  0  0  0  0  0  0  0  0  0
   -1.1566   -2.4745   -1.7842 O   0  0  0  0  0  0  0  0  0  0  0  0
    0.4558    0.1448    2.3058 N   0  0  0  0  0  0  0  0  0  0  0  0
   -0.0784   -1.8933    0.4775 N   0  0  0  0  0  2  0  0  0  0  0  0
   -0.4650   -0.9632    2.7098 C   0  0  0  0  0  0  0  0  0  0  0  0
   -0.1439   -2.2129    1.9022 C   0  0  0  0  0  0  0  0  0  0  0  0
   -0.0570    1.4329    2.8116 C   0  0  0  0  0  0  0  0  0  0  0  0
    1.8004   -0.0905    2.8727 C   0  0  0  0  0  0  0  0  0  0  0  0
   -1.4270    0.4738   -0.0144 C   0  0  0  0  0  3  0  0  0  0  0  0
   -2.3026   -0.6051   -0.2584 C   0  0  0  0  0  0  0  0  0  0  0  0
   -3.6913   -0.4649   -0.3819 C   0  0  0  0  0  0  0  0  0  0  0  0
   -4.2492    0.8148   -0.2793 C   0  0  0  0  0  0  0  0  0  0  0  0
   -3.4245    1.9387   -0.0471 C   0  0  0  0  0  0  0  0  0  0  0  0
   -2.0321    1.7476    0.0836 C   0  0  0  0  0  0  0  0  0  0  0  0
   -4.0298    3.3168    0.0647 C   0  0  0  0  0  0  0  0  0  0  0  0
   -0.3867   -1.1256    3.8099 H   0  0  0  0  0  0  0  0  0  0  0  0
   -1.4948   -0.6299    2.4772 H   0  0  0  0  0  0  0  0  0  0  0  0
   -0.9176   -2.9871    2.0876 H   0  0  0  0  0  0  0  0  0  0  0  0
    0.8300   -2.6502    2.2192 H   0  0  0  0  0  0  0  0  0  0  0  0
    0.6205    2.2476    2.4940 H   0  0  0  0  0  0  0  0  0  0  0  0
   -1.0612    1.6177    2.3916 H   0  0  0  0  0  0  0  0  0  0  0  0
   -0.1148    1.4195    3.9241 H   0  0  0  0  0  0  0  0  0  0  0  0
    2.2140   -1.0380    2.4871 H   0  0  0  0  0  0  0  0  0  0  0  0
    2.4712    0.7344    2.5771 H   0  0  0  0  0  0  0  0  0  0  0  0
    1.7511   -0.1330    3.9852 H   0  0  0  0  0  0  0  0  0  0  0  0
   -4.3184   -1.3545   -0.5476 H   0  0  0  0  0  0  0  0  0  0  0  0
   -5.3384    0.9484   -0.3768 H   0  0  0  0  0  0  0  0  0  0  0  0
   -1.4033    2.6336    0.2709 H   0  0  0  0  0  0  0  0  0  0  0  0
   -3.2550    4.0920    0.2249 H   0  0  0  0  0  0  0  0  0  0  0  0
   -4.5938    3.5857   -0.8530 H   0  0  0  0  0  0  0  0  0  0  0  0
   -4.7496    3.3771    0.9082 H   0  0  0  0  0  0  0  0  0  0  0  0
  1 11  1  0  0  0  0
  1  2  2  0  0  0  0
  1  5  1  0  0  0  0
  3  1  2  0  0  0  0
  4  6  1  0  0  0  0
  4  8  1  0  0  0  0
  4  9  1  0  0  0  0
  5  7  1  0  0  0  0
  6 17  1  0  0  0  0
  7 19  1  0  0  0  0
  7 20  1  0  0  0  0
  7  6  1  0  0  0  0
  8 23  1  0  0  0  0
  9 26  1  0  0  0  0
 10 15  1  0  0  0  0
 11 10  2  0  0  0  0
 12 13  2  0  0  0  0
 12 11  1  0  0  0  0
 13 14  1  0  0  0  0
 14 16  1  0  0  0  0
 14 15  2  0  0  0  0
 15 29  1  0  0  0  0
 16 30  1  0  0  0  0
 16 32  1  0  0  0  0
 18  6  1  0  0  0  0
 21  8  1  0  0  0  0
 22  8  1  0  0  0  0
 24  9  1  0  0  0  0
 25  9  1  0  0  0  0
 27 12  1  0  0  0  0
 28 13  1  0  0  0  0
 31 16  1  0  0  0  0
M  END
