1,2
 OpenBabel05122313053D

 22 23  0  0  1  0  0  0  0  0999 V2000
    0.9705    1.3401   -0.6285 N   0  0  0  0  0  2  0  0  0  0  0  0
   -1.3199    0.3300    0.0275 C   0  0  0  0  0  3  0  0  0  0  0  0
   -2.5638   -0.2600    0.3113 C   0  0  0  0  0  0  0  0  0  0  0  0
   -2.7142   -1.3486    0.2622 H   0  0  0  0  0  0  0  0  0  0  0  0
   -3.6835    0.5214    0.6620 C   0  0  0  0  0  0  0  0  0  0  0  0
   -3.5876    1.9309    0.7117 C   0  0  0  0  0  0  0  0  0  0  0  0
   -4.4711    2.5289    0.9867 H   0  0  0  0  0  0  0  0  0  0  0  0
   -2.3775    2.5480    0.3980 C   0  0  0  0  0  0  0  0  0  0  0  0
   -2.3039    3.6463    0.4147 H   0  0  0  0  0  0  0  0  0  0  0  0
   -1.2556    1.7599    0.0532 C   0  0  0  0  0  0  0  0  0  0  0  0
    0.0333    2.3050   -0.3495 C   0  0  2  0  0  3  0  0  0  0  0  0
    0.3566    3.6690   -0.4965 C   0  0  0  0  0  0  0  0  0  0  0  0
   -0.4040    4.4275   -0.2672 H   0  0  0  0  0  0  0  0  0  0  0  0
    1.6243    4.0444   -0.9441 C   0  0  0  0  0  0  0  0  0  0  0  0
    1.8822    5.1074   -1.0603 H   0  0  0  0  0  0  0  0  0  0  0  0
    2.5553    3.0406   -1.2628 C   0  0  0  0  0  0  0  0  0  0  0  0
    3.5575    3.2822   -1.6429 H   0  0  0  0  0  0  0  0  0  0  0  0
    2.1833    1.7050   -1.1007 C   0  0  0  0  0  0  0  0  0  0  0  0
    2.8604    0.8804   -1.3614 H   0  0  0  0  0  0  0  0  0  0  0  0
   -4.9718   -0.1412    0.9813 C   0  0  0  0  0  0  0  0  0  0  0  0
   -5.8113    0.5790    1.2308 H   0  0  0  0  0  0  0  0  0  0  0  0
   -5.1566   -1.3480    0.9903 O   0  0  0  0  0  0  0  0  0  0  0  0
  1 11  1  0  0  0  0
  2 10  2  0  0  0  0
  2  3  1  0  0  0  0
  3  5  2  0  0  0  0
  4  3  1  0  0  0  0
  5  6  1  0  0  0  0
  5 20  1  0  0  0  0
  6  7  1  0  0  0  0
  8  9  1  0  0  0  0
  8  6  2  0  0  0  0
 10  8  1  0  0  0  0
 11 10  1  6  0  0  0
 12 11  1  0  0  0  0
 12 13  1  0  0  0  0
 14 12  2  0  0  0  0
 15 14  1  0  0  0  0
 16 18  2  0  0  0  0
 16 14  1  0  0  0  0
 17 16  1  0  0  0  0
 18  1  1  0  0  0  0
 19 18  1  0  0  0  0
 20 22  2  0  0  0  0
 20 21  1  0  0  0  0
M  END
