1,11
 OpenBabel05122313053D

 25 25  0  0  1  0  0  0  0  0999 V2000
    1.6171    0.0066   -0.1630 N   0  0  0  0  0  2  0  0  0  0  0  0
    2.2723   -1.1856   -0.1979 C   0  0  2  0  0  3  0  0  0  0  0  0
    3.6458   -1.2230   -0.4750 C   0  0  0  0  0  0  0  0  0  0  0  0
    4.3311   -0.0237   -0.7112 C   0  0  0  0  0  0  0  0  0  0  0  0
    3.6354    1.1914   -0.6551 C   0  0  0  0  0  0  0  0  0  0  0  0
    2.2618    1.1846   -0.3750 C   0  0  0  0  0  0  0  0  0  0  0  0
    1.4003    2.4161   -0.3053 C   0  0  0  0  0  0  0  0  0  0  0  0
    0.1871    2.2149    0.5831 C   0  0  0  0  0  3  0  0  0  0  0  0
    0.2913    1.6239    1.8481 C   0  0  0  0  0  3  0  0  0  0  0  0
    1.4140   -2.3939    0.0535 C   0  0  0  0  0  0  0  0  0  0  0  0
    0.1949   -2.0534    0.8921 C   0  0  0  0  0  3  0  0  0  0  0  0
    0.2930   -1.2643    2.0613 C   0  0  0  0  0  3  0  0  0  0  0  0
    4.1678   -2.1898   -0.4958 H   0  0  0  0  0  0  0  0  0  0  0  0
    5.4098   -0.0349   -0.9259 H   0  0  0  0  0  0  0  0  0  0  0  0
    4.1492    2.1489   -0.8192 H   0  0  0  0  0  0  0  0  0  0  0  0
    1.0802    2.6809   -1.3368 H   0  0  0  0  0  0  0  0  0  0  0  0
    2.0009    3.2832    0.0449 H   0  0  0  0  0  0  0  0  0  0  0  0
   -0.6767    2.8567    0.3610 H   0  0  0  0  0  0  0  0  0  0  0  0
   -0.4828    1.7898    2.6099 H   0  0  0  0  0  0  0  0  0  0  0  0
    1.2753    1.3207    2.2373 H   0  0  0  0  0  0  0  0  0  0  0  0
    1.0911   -2.8031   -0.9293 H   0  0  0  0  0  0  0  0  0  0  0  0
    2.0121   -3.2019    0.5281 H   0  0  0  0  0  0  0  0  0  0  0  0
   -0.6445   -2.7584    0.7950 H   0  0  0  0  0  0  0  0  0  0  0  0
   -0.4765   -1.3313    2.8453 H   0  0  0  0  0  0  0  0  0  0  0  0
    1.2816   -0.9331    2.4162 H   0  0  0  0  0  0  0  0  0  0  0  0
  2  1  1  0  0  0  0
  2 10  1  6  0  0  0
  3  2  1  0  0  0  0
  4  5  1  0  0  0  0
  4  3  2  0  0  0  0
  5  6  2  0  0  0  0
  6  7  1  0  0  0  0
  6  1  1  0  0  0  0
  7 17  1  0  0  0  0
  7  8  1  0  0  0  0
  8  9  1  0  0  0  0
  9 20  1  0  0  0  0
  9 19  1  0  0  0  0
 10 22  1  0  0  0  0
 10 11  1  0  0  0  0
 11 12  1  0  0  0  0
 12 25  1  0  0  0  0
 12 24  1  0  0  0  0
 13  3  1  0  0  0  0
 14  4  1  0  0  0  0
 15  5  1  0  0  0  0
 16  7  1  0  0  0  0
 18  8  1  0  0  0  0
 21 10  1  0  0  0  0
 23 11  1  0  0  0  0
M  END
