1,14
 OpenBabel05122313053D

 39 41  0  0  1  0  0  0  0  0999 V2000
    0.2602   -0.1671    1.5829 C   0  0  0  0  0  2  0  0  0  0  0  0
    0.0508    0.3603    2.8247 N   0  0  0  0  0  0  0  0  0  0  0  0
    1.2177    0.3421    3.5847 C   0  0  0  0  0  0  0  0  0  0  0  0
    2.1936   -0.2106    2.8030 C   0  0  0  0  0  0  0  0  0  0  0  0
    1.5943   -0.5053    1.5752 N   0  0  0  0  0  0  0  0  0  0  0  0
   -1.2052    0.9465    3.2740 C   0  0  0  0  0  0  0  0  0  0  0  0
    2.2908   -1.1021    0.4768 C   0  0  0  0  0  0  0  0  0  0  0  0
    2.3562   -0.4728   -0.7931 C   0  0  0  0  0  0  0  0  0  0  0  0
    3.1622   -1.0522   -1.7955 C   0  0  0  0  0  0  0  0  0  0  0  0
    3.8562   -2.2459   -1.5626 C   0  0  0  0  0  0  0  0  0  0  0  0
    3.7679   -2.8705   -0.3102 C   0  0  0  0  0  0  0  0  0  0  0  0
    2.9927   -2.2950    0.7069 C   0  0  0  0  0  0  0  0  0  0  0  0
    1.6417    0.7771   -1.1201 C   0  0  2  0  0  3  0  0  0  0  0  0
    0.3866    1.0418   -0.8962 N   0  0  0  0  0  2  0  0  0  0  0  0
    0.1086    2.4179   -1.3566 C   0  0  2  0  0  0  0  0  0  0  0  0
    1.4112    2.7845   -2.1127 C   0  0  0  0  0  0  0  0  0  0  0  0
    2.3420    1.7142   -1.7794 O   0  0  0  0  0  0  0  0  0  0  0  0
   -0.2747    3.3374   -0.1724 C   0  0  0  0  0  0  0  0  0  0  0  0
    0.8383    3.4563    0.8735 C   0  0  0  0  0  0  0  0  0  0  0  0
   -0.7329    4.7069   -0.6854 C   0  0  0  0  0  0  0  0  0  0  0  0
    1.2574    0.7317    4.6064 H   0  0  0  0  0  0  0  0  0  0  0  0
    3.2538   -0.3980    2.9954 H   0  0  0  0  0  0  0  0  0  0  0  0
    3.2339   -0.5488   -2.7700 H   0  0  0  0  0  0  0  0  0  0  0  0
    4.4706   -2.6862   -2.3610 H   0  0  0  0  0  0  0  0  0  0  0  0
    4.3075   -3.8093   -0.1175 H   0  0  0  0  0  0  0  0  0  0  0  0
    2.9251   -2.7710    1.6959 H   0  0  0  0  0  0  0  0  0  0  0  0
   -0.7514    2.3883   -2.0571 H   0  0  0  0  0  0  0  0  0  0  0  0
    1.8672    3.7397   -1.7902 H   0  0  0  0  0  0  0  0  0  0  0  0
    1.2925    2.7953   -3.2141 H   0  0  0  0  0  0  0  0  0  0  0  0
   -1.1456    2.8324    0.3058 H   0  0  0  0  0  0  0  0  0  0  0  0
   -1.6076    0.3920    4.1440 H   0  0  0  0  0  0  0  0  0  0  0  0
    1.7295    3.9826    0.4727 H   0  0  0  0  0  0  0  0  0  0  0  0
    1.1669    2.4656    1.2458 H   0  0  0  0  0  0  0  0  0  0  0  0
   -1.9221    0.8980    2.4344 H   0  0  0  0  0  0  0  0  0  0  0  0
    0.0937    5.2527   -1.1873 H   0  0  0  0  0  0  0  0  0  0  0  0
   -1.0471    2.0051    3.5584 H   0  0  0  0  0  0  0  0  0  0  0  0
   -1.0793    5.3444    0.1514 H   0  0  0  0  0  0  0  0  0  0  0  0
    0.4878    4.0442    1.7449 H   0  0  0  0  0  0  0  0  0  0  0  0
   -1.5679    4.6172   -1.4097 H   0  0  0  0  0  0  0  0  0  0  0  0
  1  2  1  0  0  0  0
  2  6  1  0  0  0  0
  2  3  1  0  0  0  0
  3 21  1  0  0  0  0
  4 22  1  0  0  0  0
  4  3  2  0  0  0  0
  5  1  1  0  0  0  0
  5  4  1  0  0  0  0
  6 36  1  0  0  0  0
  6 31  1  0  0  0  0
  7 12  1  0  0  0  0
  7  5  1  0  0  0  0
  8  7  2  0  0  0  0
  9 10  2  0  0  0  0
  9  8  1  0  0  0  0
 10 11  1  0  0  0  0
 11 25  1  0  0  0  0
 11 12  2  0  0  0  0
 12 26  1  0  0  0  0
 13 14  1  0  0  0  0
 13  8  1  6  0  0  0
 15 27  1  6  0  0  0
 15 14  1  0  0  0  0
 15 18  1  0  0  0  0
 16 28  1  0  0  0  0
 16 17  1  0  0  0  0
 16 15  1  0  0  0  0
 17 13  1  0  0  0  0
 18 30  1  0  0  0  0
 18 19  1  0  0  0  0
 19 33  1  0  0  0  0
 19 38  1  0  0  0  0
 20 18  1  0  0  0  0
 20 37  1  0  0  0  0
 23  9  1  0  0  0  0
 24 10  1  0  0  0  0
 29 16  1  0  0  0  0
 32 19  1  0  0  0  0
 34  6  1  0  0  0  0
 35 20  1  0  0  0  0
 39 20  1  0  0  0  0
M  END
