1,5
 OpenBabel05122313053D

 41 42  0  0  0  0  0  0  0  0999 V2000
   -1.3419   -0.9457    0.2645 N   0  0  0  0  0  2  0  0  0  0  0  0
   -0.9251   -2.2345    0.9245 C   0  0  0  0  0  0  0  0  0  0  0  0
    0.5503   -2.3556    0.7133 C   0  0  0  0  0  0  0  0  0  0  0  0
    0.9980   -3.3234    1.0132 H   0  0  0  0  0  0  0  0  0  0  0  0
    1.2925   -1.3650    0.1472 C   0  0  0  0  0  3  0  0  0  0  0  0
    2.7436   -1.6593   -0.0465 C   0  0  0  0  0  0  0  0  0  0  0  0
    3.4493   -1.2740   -1.2095 C   0  0  0  0  0  0  0  0  0  0  0  0
    2.9174   -0.7256   -1.9966 H   0  0  0  0  0  0  0  0  0  0  0  0
    4.8045   -1.5964   -1.3833 C   0  0  0  0  0  0  0  0  0  0  0  0
    5.3182   -1.2855   -2.3064 H   0  0  0  0  0  0  0  0  0  0  0  0
    5.5027   -2.3075   -0.3966 C   0  0  0  0  0  0  0  0  0  0  0  0
    6.5679   -2.5504   -0.5297 H   0  0  0  0  0  0  0  0  0  0  0  0
    4.8210   -2.7072    0.7651 C   0  0  0  0  0  0  0  0  0  0  0  0
    5.3510   -3.2652    1.5527 H   0  0  0  0  0  0  0  0  0  0  0  0
    3.4677   -2.3910    0.9321 C   0  0  0  0  0  0  0  0  0  0  0  0
    2.9564   -2.6937    1.8588 H   0  0  0  0  0  0  0  0  0  0  0  0
   -2.7501   -0.9362   -0.0548 C   0  0  0  0  0  0  0  0  0  0  0  0
   -3.7169   -0.4774    0.8770 C   0  0  0  0  0  0  0  0  0  0  0  0
   -5.0850   -0.6126    0.5656 C   0  0  0  0  0  0  0  0  0  0  0  0
   -5.8313   -0.2563    1.2938 H   0  0  0  0  0  0  0  0  0  0  0  0
   -5.5008   -1.1667   -0.6477 C   0  0  0  0  0  0  0  0  0  0  0  0
   -6.5729   -1.2755   -0.8715 H   0  0  0  0  0  0  0  0  0  0  0  0
   -4.5389   -1.5477   -1.5923 C   0  0  0  0  0  0  0  0  0  0  0  0
   -4.8560   -1.9386   -2.5721 H   0  0  0  0  0  0  0  0  0  0  0  0
   -3.1638   -1.4247   -1.3292 C   0  0  0  0  0  0  0  0  0  0  0  0
   -1.2396   -2.2168    2.4399 C   0  0  0  0  0  0  0  0  0  0  0  0
   -2.3325   -2.2253    2.6133 H   0  0  0  0  0  0  0  0  0  0  0  0
   -0.8038   -1.3265    2.9274 H   0  0  0  0  0  0  0  0  0  0  0  0
   -0.8148   -3.1205    2.9213 H   0  0  0  0  0  0  0  0  0  0  0  0
   -1.6056   -3.4951    0.3364 C   0  0  0  0  0  0  0  0  0  0  0  0
   -2.7008   -3.4759    0.4886 H   0  0  0  0  0  0  0  0  0  0  0  0
   -1.2011   -4.3851    0.8582 H   0  0  0  0  0  0  0  0  0  0  0  0
   -1.3979   -3.6128   -0.7416 H   0  0  0  0  0  0  0  0  0  0  0  0
   -3.3317    0.2393    2.1453 C   0  0  0  0  0  0  0  0  0  0  0  0
   -3.8544    1.2162    2.2018 H   0  0  0  0  0  0  0  0  0  0  0  0
   -2.2454    0.4247    2.1751 H   0  0  0  0  0  0  0  0  0  0  0  0
   -3.6056   -0.3287    3.0585 H   0  0  0  0  0  0  0  0  0  0  0  0
   -2.1796   -1.7145   -2.4329 C   0  0  0  0  0  0  0  0  0  0  0  0
   -1.1869   -2.0278   -2.0649 H   0  0  0  0  0  0  0  0  0  0  0  0
   -2.0081   -0.7880   -3.0214 H   0  0  0  0  0  0  0  0  0  0  0  0
   -2.5675   -2.4876   -3.1245 H   0  0  0  0  0  0  0  0  0  0  0  0
  1  2  1  0  0  0  0
  2 26  1  0  0  0  0
  3  2  1  0  0  0  0
  3  4  1  0  0  0  0
  5  3  2  0  0  0  0
  6  5  1  0  0  0  0
  6 15  1  0  0  0  0
  7  6  2  0  0  0  0
  8  7  1  0  0  0  0
  9  7  1  0  0  0  0
  9 11  2  0  0  0  0
 10  9  1  0  0  0  0
 11 13  1  0  0  0  0
 12 11  1  0  0  0  0
 13 15  2  0  0  0  0
 13 14  1  0  0  0  0
 15 16  1  0  0  0  0
 17  1  1  0  0  0  0
 17 18  1  0  0  0  0
 18 34  1  0  0  0  0
 19 18  2  0  0  0  0
 19 20  1  0  0  0  0
 21 19  1  0  0  0  0
 22 21  1  0  0  0  0
 23 25  1  0  0  0  0
 23 21  2  0  0  0  0
 24 23  1  0  0  0  0
 25 17  2  0  0  0  0
 26 27  1  0  0  0  0
 26 29  1  0  0  0  0
 26 28  1  0  0  0  0
 30 31  1  0  0  0  0
 30 32  1  0  0  0  0
 30  2  1  0  0  0  0
 33 30  1  0  0  0  0
 34 36  1  0  0  0  0
 34 35  1  0  0  0  0
 34 37  1  0  0  0  0
 38 39  1  0  0  0  0
 38 25  1  0  0  0  0
 40 38  1  0  0  0  0
 41 38  1  0  0  0  0
M  END
