2,5
 OpenBabel05122313053D

 42 43  0  0  0  0  0  0  0  0999 V2000
   -3.6086   -1.2185    0.0285 F   0  0  0  0  0  0  0  0  0  0  0  0
    0.7514    0.9420   -0.2023 N   0  0  0  0  0  2  0  0  0  0  0  0
    2.7998    1.1473   -1.5405 C   0  0  0  0  0  0  0  0  0  0  0  0
   -2.0695    4.0097   -0.6274 F   0  0  0  0  0  0  0  0  0  0  0  0
   -1.7522    0.3264   -0.1236 C   0  0  0  0  0  3  0  0  0  0  0  0
   -4.7398    3.3187   -0.5438 F   0  0  0  0  0  0  0  0  0  0  0  0
   -0.0472    1.9939   -0.3685 C   0  0  0  0  0  3  0  0  0  0  0  0
    0.3614    3.0020   -0.5451 H   0  0  0  0  0  0  0  0  0  0  0  0
    2.1417    1.2543   -0.2827 C   0  0  0  0  0  0  0  0  0  0  0  0
   -5.4277    0.6872   -0.2292 F   0  0  0  0  0  0  0  0  0  0  0  0
    2.8320    1.6954    0.8813 C   0  0  0  0  0  0  0  0  0  0  0  0
   -2.4288    2.7208   -0.4576 C   0  0  0  0  0  0  0  0  0  0  0  0
    4.1981    2.0146    0.7617 C   0  0  0  0  0  0  0  0  0  0  0  0
    4.7532    2.3538    1.6487 H   0  0  0  0  0  0  0  0  0  0  0  0
   -1.4401    1.7196   -0.3216 C   0  0  0  0  0  0  0  0  0  0  0  0
    2.0955    1.8149    2.2127 C   0  0  0  0  0  0  0  0  0  0  0  0
    1.2945    1.0435    2.1723 H   0  0  0  0  0  0  0  0  0  0  0  0
   -3.1301    0.0575   -0.1058 C   0  0  0  0  0  0  0  0  0  0  0  0
    4.8624    1.9095   -0.4677 C   0  0  0  0  0  0  0  0  0  0  0  0
    5.9300    2.1668   -0.5402 H   0  0  0  0  0  0  0  0  0  0  0  0
    4.1662    1.4786   -1.6054 C   0  0  0  0  0  0  0  0  0  0  0  0
    4.6962    1.4001   -2.5661 H   0  0  0  0  0  0  0  0  0  0  0  0
    2.8773   -0.0332   -3.8161 C   0  0  0  0  0  0  0  0  0  0  0  0
    3.5725    0.6626   -4.3305 H   0  0  0  0  0  0  0  0  0  0  0  0
    2.2290   -0.4718   -4.6022 H   0  0  0  0  0  0  0  0  0  0  0  0
    3.4827   -0.8496   -3.3775 H   0  0  0  0  0  0  0  0  0  0  0  0
    2.9809    1.5439    3.4381 C   0  0  0  0  0  0  0  0  0  0  0  0
    3.5513    0.5995    3.3507 H   0  0  0  0  0  0  0  0  0  0  0  0
    2.3564    1.4842    4.3529 H   0  0  0  0  0  0  0  0  0  0  0  0
    3.7103    2.3637    3.6047 H   0  0  0  0  0  0  0  0  0  0  0  0
    1.4135    3.1875    2.3784 C   0  0  0  0  0  0  0  0  0  0  0  0
    2.1673    4.0020    2.3610 H   0  0  0  0  0  0  0  0  0  0  0  0
    0.8805    3.2400    3.3507 H   0  0  0  0  0  0  0  0  0  0  0  0
    0.6758    3.3878    1.5802 H   0  0  0  0  0  0  0  0  0  0  0  0
   -4.1305    1.0325   -0.2413 C   0  0  0  0  0  0  0  0  0  0  0  0
    1.2742    1.8612   -3.4430 C   0  0  0  0  0  0  0  0  0  0  0  0
    0.5715    2.3599   -2.7505 H   0  0  0  0  0  0  0  0  0  0  0  0
    0.6880    1.4966   -4.3123 H   0  0  0  0  0  0  0  0  0  0  0  0
    1.9924    2.6228   -3.8123 H   0  0  0  0  0  0  0  0  0  0  0  0
   -3.7818    2.3892   -0.4146 C   0  0  0  0  0  0  0  0  0  0  0  0
    2.0203    0.6922   -2.7699 C   0  0  0  0  0  0  0  0  0  0  0  0
    1.2503   -0.0115   -2.3785 H   0  0  0  0  0  0  0  0  0  0  0  0
  3  9  1  0  0  0  0
  4 12  1  0  0  0  0
  5 18  1  0  0  0  0
  6 40  1  0  0  0  0
  7 15  1  0  0  0  0
  7  2  1  0  0  0  0
  8  7  1  0  0  0  0
  9  2  1  0  0  0  0
  9 11  2  0  0  0  0
 11 16  1  0  0  0  0
 12 40  2  0  0  0  0
 12 15  1  0  0  0  0
 13 11  1  0  0  0  0
 13 14  1  0  0  0  0
 15  5  2  0  0  0  0
 16 31  1  0  0  0  0
 16 27  1  0  0  0  0
 17 16  1  0  0  0  0
 18  1  1  0  0  0  0
 19 13  2  0  0  0  0
 20 19  1  0  0  0  0
 21  3  2  0  0  0  0
 21 19  1  0  0  0  0
 22 21  1  0  0  0  0
 23 26  1  0  0  0  0
 23 41  1  0  0  0  0
 24 23  1  0  0  0  0
 25 23  1  0  0  0  0
 27 30  1  0  0  0  0
 27 29  1  0  0  0  0
 28 27  1  0  0  0  0
 31 33  1  0  0  0  0
 32 31  1  0  0  0  0
 34 31  1  0  0  0  0
 35 10  1  0  0  0  0
 35 18  2  0  0  0  0
 36 41  1  0  0  0  0
 36 37  1  0  0  0  0
 38 36  1  0  0  0  0
 39 36  1  0  0  0  0
 40 35  1  0  0  0  0
 41 42  1  0  0  0  0
 41  3  1  0  0  0  0
M  END
