1,8
 OpenBabel05122313053D

 23 24  0  0  0  0  0  0  0  0999 V2000
   -2.3358   -0.4001   -0.1029 C   0  0  0  0  0  2  0  0  0  0  0  0
   -2.4945   -1.8114    0.1434 C   0  0  0  0  0  0  0  0  0  0  0  0
   -3.7840   -2.4158    0.1437 C   0  0  0  0  0  0  0  0  0  0  0  0
   -4.9020   -1.6279   -0.1134 C   0  0  0  0  0  0  0  0  0  0  0  0
   -4.7477   -0.2421   -0.3629 C   0  0  0  0  0  0  0  0  0  0  0  0
   -3.4830    0.3690   -0.3503 C   0  0  0  0  0  0  0  0  0  0  0  0
   -1.2791   -2.5072    0.3471 C   0  0  0  0  0  0  0  0  0  0  0  0
   -0.1323   -1.8000    0.2459 N   0  0  0  0  0  2  0  0  0  0  0  0
    1.0511   -2.4495    0.3530 C   0  0  0  0  0  3  0  0  0  0  0  0
    2.3131   -1.9703   -0.0687 C   0  0  0  0  0  0  0  0  0  0  0  0
    3.4997   -2.4381    0.6394 C   0  0  0  0  0  0  0  0  0  0  0  0
    4.7605   -2.0203    0.1888 C   0  0  0  0  0  3  0  0  0  0  0  0
    4.6171   -1.2300   -0.8456 C   0  0  0  0  0  3  0  0  0  0  0  0
    3.7175   -0.6824   -1.6232 C   0  0  0  0  0  3  0  0  0  0  0  0
    2.4363   -1.1038   -1.2347 C   0  0  0  0  0  0  0  0  0  0  0  0
   -3.8864   -3.4940    0.3434 H   0  0  0  0  0  0  0  0  0  0  0  0
   -5.9061   -2.0771   -0.1224 H   0  0  0  0  0  0  0  0  0  0  0  0
   -5.6417    0.3684   -0.5681 H   0  0  0  0  0  0  0  0  0  0  0  0
   -3.3759    1.4502   -0.5253 H   0  0  0  0  0  0  0  0  0  0  0  0
   -1.2285   -3.5966    0.5304 H   0  0  0  0  0  0  0  0  0  0  0  0
    0.9964   -3.4741    0.7745 H   0  0  0  0  0  0  0  0  0  0  0  0
    3.3579   -2.9944    1.5815 H   0  0  0  0  0  0  0  0  0  0  0  0
    1.5360   -0.9252   -1.8446 H   0  0  0  0  0  0  0  0  0  0  0  0
  1  2  1  0  0  0  0
  2  3  1  0  0  0  0
  2  7  2  0  0  0  0
  3 16  1  0  0  0  0
  4  3  2  0  0  0  0
  5  6  2  0  0  0  0
  5  4  1  0  0  0  0
  6  1  1  0  0  0  0
  7 20  1  0  0  0  0
  8  7  1  0  0  0  0
  8  9  1  0  0  0  0
  9 21  1  0  0  0  0
 10  9  1  0  0  0  0
 10 11  1  0  0  0  0
 11 22  1  0  0  0  0
 12 11  2  0  0  0  0
 13 12  1  0  0  0  0
 14 15  1  0  0  0  0
 14 13  2  0  0  0  0
 15 10  2  0  0  0  0
 17  4  1  0  0  0  0
 18  5  1  0  0  0  0
 19  6  1  0  0  0  0
 23 15  1  0  0  0  0
M  END
