1,3
q = -2.0, confidence = 0.838

 32 33  0  0  1  0  0  0  0  0999 V2000
    1.5831   -0.6368    0.1590 N   0  0  0  0  0  2  0  0  0  0  0  0
   -0.5271   -1.0203    1.5756 C   0  0  1  0  0  3  0  0  0  0  0  0
   -0.3792    0.2280    2.2508 C   0  0  0  0  0  3  0  0  0  0  0  0
    0.4191    0.4691    2.9651 H   0  0  0  0  0  0  0  0  0  0  0  0
   -1.3173    1.1624    1.7316 C   0  0  0  0  0  3  0  0  0  0  0  0
   -1.4043    2.2165    2.0174 H   0  0  0  0  0  0  0  0  0  0  0  0
   -2.1406    0.4733    0.7745 C   0  0  0  0  0  0  0  0  0  0  0  0
   -3.2292    0.8965   -0.0420 C   0  0  0  0  0  0  0  0  0  0  0  0
   -3.6000    1.9298    0.0245 H   0  0  0  0  0  0  0  0  0  0  0  0
   -3.8040   -0.0185   -0.9084 C   0  0  0  0  0  0  0  0  0  0  0  0
   -4.6487    0.2892   -1.5426 H   0  0  0  0  0  0  0  0  0  0  0  0
   -3.3190   -1.3588   -1.0053 C   0  0  0  0  0  0  0  0  0  0  0  0
   -3.8025   -2.0503   -1.7114 H   0  0  0  0  0  0  0  0  0  0  0  0
   -2.2547   -1.7994   -0.2361 C   0  0  0  0  0  0  0  0  0  0  0  0
   -1.8849   -2.8320   -0.3212 H   0  0  0  0  0  0  0  0  0  0  0  0
   -1.6506   -0.8918    0.6800 C   0  0  0  0  0  0  0  0  0  0  0  0
    0.4367   -2.1728    1.6308 C   0  0  0  0  0  0  0  0  0  0  0  0
    0.0833   -2.9721    0.9499 H   0  0  0  0  0  0  0  0  0  0  0  0
    0.5001   -2.6128    2.6481 H   0  0  0  0  0  0  0  0  0  0  0  0
    1.8109   -1.6634    1.1650 C   0  0  0  0  0  0  0  0  0  0  0  0
    2.3847   -1.2419    2.0257 H   0  0  0  0  0  0  0  0  0  0  0  0
    2.4300   -2.4987    0.7661 H   0  0  0  0  0  0  0  0  0  0  0  0
    2.6504   -0.3511   -0.8135 C   0  0  0  0  0  0  0  0  0  0  0  0
    2.3084    0.5453   -1.3815 H   0  0  0  0  0  0  0  0  0  0  0  0
    3.9626    0.0340   -0.1198 C   0  0  0  0  0  0  0  0  0  0  0  0
    3.7901    0.8775    0.5776 H   0  0  0  0  0  0  0  0  0  0  0  0
    4.7162    0.3512   -0.8678 H   0  0  0  0  0  0  0  0  0  0  0  0
    4.3899   -0.8187    0.4471 H   0  0  0  0  0  0  0  0  0  0  0  0
    2.7955   -1.4899   -1.8309 C   0  0  0  0  0  0  0  0  0  0  0  0
    3.1265   -2.4316   -1.3458 H   0  0  0  0  0  0  0  0  0  0  0  0
    3.5478   -1.2285   -2.6018 H   0  0  0  0  0  0  0  0  0  0  0  0
    1.8258   -1.6693   -2.3351 H   0  0  0  0  0  0  0  0  0  0  0  0
  1 20  1  0  0  0  0
  2 17  1  6  0  0  0
  2  3  1  0  0  0  0
  3  4  1  0  0  0  0
  5  6  1  0  0  0  0
  5  3  1  0  0  0  0
  7  5  1  0  0  0  0
  8  9  1  0  0  0  0
  8  7  2  0  0  0  0
 10  8  1  0  0  0  0
 11 10  1  0  0  0  0
 12 10  2  0  0  0  0
 12 14  1  0  0  0  0
 13 12  1  0  0  0  0
 14 16  2  0  0  0  0
 15 14  1  0  0  0  0
 16  7  1  0  0  0  0
 16  2  1  0  0  0  0
 17 19  1  0  0  0  0
 18 17  1  0  0  0  0
 20 17  1  0  0  0  0
 20 21  1  0  0  0  0
 22 20  1  0  0  0  0
 23 25  1  0  0  0  0
 23  1  1  0  0  0  0
 24 23  1  0  0  0  0
 25 28  1  0  0  0  0
 25 26  1  0  0  0  0
 27 25  1  0  0  0  0
 29 30  1  0  0  0  0
 29 23  1  0  0  0  0
 31 29  1  0  0  0  0
 32 29  1  0  0  0  0
M  END
