2,8
 OpenBabel05122313053D

 29 30  0  0  0  0  0  0  0  0999 V2000
   -3.7068   -0.1783   -0.4826 N   0  0  0  0  0  0  0  0  0  0  0  0
   -1.6121   -0.0824   -0.1888 N   0  0  0  0  0  2  0  0  0  0  0  0
   -4.9998   -0.8397   -0.6947 C   0  0  0  0  0  0  0  0  0  0  0  0
   -4.8295   -1.6057   -1.4755 H   0  0  0  0  0  0  0  0  0  0  0  0
   -5.6814   -0.0758   -1.1165 H   0  0  0  0  0  0  0  0  0  0  0  0
   -2.0907    1.2075   -0.0162 C   0  0  0  0  0  0  0  0  0  0  0  0
    0.3731    3.8305    0.5397 N   0  0  0  0  0  2  0  0  0  0  0  0
    0.2801    1.5651    0.3256 C   0  0  0  0  0  3  0  0  0  0  0  0
   -2.5860   -0.9107   -0.4641 N   0  0  0  0  0  2  0  0  0  0  0  0
   -3.4661    1.1393   -0.2086 C   0  0  0  0  0  0  0  0  0  0  0  0
   -4.2622    1.8887   -0.1837 H   0  0  0  0  0  0  0  0  0  0  0  0
    1.0589    2.6850    0.4871 N   0  0  0  0  0  0  0  0  0  0  0  0
   -1.9380    4.4835    0.3997 C   0  0  0  0  0  0  0  0  0  0  0  0
   -1.4522    5.4688    0.5040 H   0  0  0  0  0  0  0  0  0  0  0  0
   -2.6313    4.3160    1.2464 H   0  0  0  0  0  0  0  0  0  0  0  0
   -2.4932    4.4415   -0.5574 H   0  0  0  0  0  0  0  0  0  0  0  0
    2.5230    2.7604    0.4244 C   0  0  0  0  0  0  0  0  0  0  0  0
    2.8897    1.8242    0.8811 H   0  0  0  0  0  0  0  0  0  0  0  0
    2.8289    3.6092    1.0652 H   0  0  0  0  0  0  0  0  0  0  0  0
   -0.8948    3.4688    0.4019 N   0  0  0  0  0  0  0  0  0  0  0  0
   -5.5569   -1.4556    0.5846 C   0  0  0  0  0  0  0  0  0  0  0  0
   -6.5223   -1.9520    0.3665 H   0  0  0  0  0  0  0  0  0  0  0  0
   -5.7342   -0.6870    1.3626 H   0  0  0  0  0  0  0  0  0  0  0  0
   -4.8628   -2.2172    0.9900 H   0  0  0  0  0  0  0  0  0  0  0  0
   -1.0178    2.1169    0.2666 C   0  0  0  0  0  0  0  0  0  0  0  0
    3.0121    2.9071   -1.0129 C   0  0  0  0  0  0  0  0  0  0  0  0
    4.1190    2.8823   -1.0319 H   0  0  0  0  0  0  0  0  0  0  0  0
    2.6805    3.8721   -1.4435 H   0  0  0  0  0  0  0  0  0  0  0  0
    2.6173    2.0855   -1.6442 H   0  0  0  0  0  0  0  0  0  0  0  0
  1  9  1  0  0  0  0
  1 10  1  0  0  0  0
  2  6  1  0  0  0  0
  3  1  1  0  0  0  0
  3 21  1  0  0  0  0
  4  3  1  0  0  0  0
  5  3  1  0  0  0  0
  6 25  1  0  0  0  0
  8 12  1  0  0  0  0
  9  2  1  0  0  0  0
 10 11  1  0  0  0  0
 10  6  2  0  0  0  0
 12  7  1  0  0  0  0
 13 20  1  0  0  0  0
 13 14  1  0  0  0  0
 13 15  1  0  0  0  0
 16 13  1  0  0  0  0
 17 12  1  0  0  0  0
 17 18  1  0  0  0  0
 17 19  1  0  0  0  0
 20  7  1  0  0  0  0
 21 24  1  0  0  0  0
 21 23  1  0  0  0  0
 22 21  1  0  0  0  0
 25  8  2  0  0  0  0
 25 20  1  0  0  0  0
 26 17  1  0  0  0  0
 27 26  1  0  0  0  0
 28 26  1  0  0  0  0
 29 26  1  0  0  0  0
M  END
