1,3
 OpenBabel05122313053D

 31 32  0  0  1  0  0  0  0  0999 V2000
    2.5022   -1.3050    0.4358 N   0  0  0  0  0  2  0  0  0  0  0  0
    3.2178   -2.4755    0.2602 O   0  0  0  0  0  0  0  0  0  0  0  0
    1.1076    0.8635    1.2099 C   0  0  0  0  0  3  0  0  0  0  0  0
    0.4553    1.7565    1.1330 H   0  0  0  0  0  0  0  0  0  0  0  0
    1.2613    0.6349    2.2870 H   0  0  0  0  0  0  0  0  0  0  0  0
    2.4468    1.0871    0.5220 C   0  0  1  0  0  0  0  0  0  0  0  0
    3.1951   -0.2139    0.3753 C   0  0  2  0  0  3  0  0  0  0  0  0
    4.6742    0.0460    0.1348 C   0  0  0  0  0  0  0  0  0  0  0  0
    4.6270    1.6213    0.0985 C   0  0  1  0  0  0  0  0  0  0  0  0
    5.6317    2.0678    0.2386 H   0  0  0  0  0  0  0  0  0  0  0  0
    3.8922    2.1143   -1.1719 C   0  0  0  0  0  0  0  0  0  0  0  0
    4.3098    1.6941   -2.1061 H   0  0  0  0  0  0  0  0  0  0  0  0
    3.9904    3.2158   -1.2476 H   0  0  0  0  0  0  0  0  0  0  0  0
    2.4126    1.7001   -0.9163 C   0  0  0  0  0  0  0  0  0  0  0  0
    1.7232    2.5685   -0.9238 H   0  0  0  0  0  0  0  0  0  0  0  0
    2.0164    0.9710   -1.6504 H   0  0  0  0  0  0  0  0  0  0  0  0
    3.5689    1.9496    1.1747 C   0  0  0  0  0  0  0  0  0  0  0  0
    3.3036    3.0254    1.2135 H   0  0  0  0  0  0  0  0  0  0  0  0
    3.8284    1.6107    2.1967 H   0  0  0  0  0  0  0  0  0  0  0  0
    5.1855   -0.6055   -1.1620 C   0  0  0  0  0  0  0  0  0  0  0  0
    5.2512   -1.7026   -1.0395 H   0  0  0  0  0  0  0  0  0  0  0  0
    6.1946   -0.2145   -1.4081 H   0  0  0  0  0  0  0  0  0  0  0  0
    4.5179   -0.4114   -2.0228 H   0  0  0  0  0  0  0  0  0  0  0  0
    5.5244   -0.4594    1.3207 C   0  0  0  0  0  0  0  0  0  0  0  0
    5.4104   -1.5550    1.4295 H   0  0  0  0  0  0  0  0  0  0  0  0
    5.2343    0.0136    2.2784 H   0  0  0  0  0  0  0  0  0  0  0  0
    6.5946   -0.2341    1.1353 H   0  0  0  0  0  0  0  0  0  0  0  0
    2.5521   -3.5874    0.8687 C   0  0  0  0  0  0  0  0  0  0  0  0
    3.1509   -4.4698    0.5755 H   0  0  0  0  0  0  0  0  0  0  0  0
    1.5162   -3.6776    0.4782 H   0  0  0  0  0  0  0  0  0  0  0  0
    2.5525   -3.4870    1.9765 H   0  0  0  0  0  0  0  0  0  0  0  0
  2  1  1  0  0  0  0
  2 28  1  0  0  0  0
  3  5  1  0  0  0  0
  4  3  1  0  0  0  0
  6 17  1  0  0  0  0
  6  3  1  1  0  0  0
  7  1  1  6  0  0  0
  7  6  1  0  0  0  0
  8  7  1  0  0  0  0
  8 24  1  0  0  0  0
  9  8  1  0  0  0  0
  9 10  1  1  0  0  0
  9 17  1  0  0  0  0
 11 14  1  0  0  0  0
 11  9  1  0  0  0  0
 12 11  1  0  0  0  0
 13 11  1  0  0  0  0
 14  6  1  0  0  0  0
 15 14  1  0  0  0  0
 16 14  1  0  0  0  0
 17 18  1  0  0  0  0
 17 19  1  0  0  0  0
 20 21  1  0  0  0  0
 20  8  1  0  0  0  0
 22 20  1  0  0  0  0
 23 20  1  0  0  0  0
 24 25  1  0  0  0  0
 24 26  1  0  0  0  0
 27 24  1  0  0  0  0
 28 31  1  0  0  0  0
 29 28  1  0  0  0  0
 30 28  1  0  0  0  0
M  END
