2,3
 OpenBabel05122313053D

 27 28  0  0  1  0  0  0  0  0999 V2000
   -3.8313   -0.0637    0.8460 S   0  0  0  0  0  0  0  0  0  0  0  0
   -0.0429    1.2945   -0.8225 N   0  0  0  0  0  2  0  0  0  0  0  0
   -2.2747    0.3354    0.2058 C   0  0  0  0  0  2  0  0  0  0  0  0
   -2.2642    1.6984   -0.1773 C   0  0  0  0  0  0  0  0  0  0  0  0
   -3.5047    2.3847    0.0538 C   0  0  0  0  0  0  0  0  0  0  0  0
   -3.6846    3.4440   -0.1796 H   0  0  0  0  0  0  0  0  0  0  0  0
   -4.4552    1.5552    0.6069 C   0  0  0  0  0  0  0  0  0  0  0  0
   -5.4870    1.7975    0.8900 H   0  0  0  0  0  0  0  0  0  0  0  0
   -1.0168    2.1651   -0.7197 C   0  0  0  0  0  0  0  0  0  0  0  0
   -0.8869    3.2194   -1.0262 H   0  0  0  0  0  0  0  0  0  0  0  0
    1.2947    1.6443   -1.2846 C   0  0  2  0  0  0  0  0  0  0  0  0
    1.5408    0.9119   -2.0872 H   0  0  0  0  0  0  0  0  0  0  0  0
    2.3092    1.4122   -0.1652 C   0  0  0  0  0  0  0  0  0  0  0  0
    1.9606    1.6033    1.1856 C   0  0  0  0  0  0  0  0  0  0  0  0
    0.9244    1.8662    1.4439 H   0  0  0  0  0  0  0  0  0  0  0  0
    2.9186    1.4360    2.1991 C   0  0  0  0  0  0  0  0  0  0  0  0
    2.6293    1.5845    3.2506 H   0  0  0  0  0  0  0  0  0  0  0  0
    4.2357    1.0731    1.8755 C   0  0  0  0  0  0  0  0  0  0  0  0
    4.9850    0.9390    2.6705 H   0  0  0  0  0  0  0  0  0  0  0  0
    4.5895    0.8734    0.5304 C   0  0  0  0  0  0  0  0  0  0  0  0
    5.6173    0.5799    0.2674 H   0  0  0  0  0  0  0  0  0  0  0  0
    3.6309    1.0393   -0.4797 C   0  0  0  0  0  0  0  0  0  0  0  0
    3.9069    0.8660   -1.5322 H   0  0  0  0  0  0  0  0  0  0  0  0
    1.4513    3.0558   -1.8674 C   0  0  0  0  0  0  0  0  0  0  0  0
    0.7515    3.2262   -2.7105 H   0  0  0  0  0  0  0  0  0  0  0  0
    2.4835    3.1855   -2.2454 H   0  0  0  0  0  0  0  0  0  0  0  0
    1.2825    3.8351   -1.0973 H   0  0  0  0  0  0  0  0  0  0  0  0
  2  9  1  0  0  0  0
  3  1  1  0  0  0  0
  4  5  1  0  0  0  0
  4  3  1  0  0  0  0
  5  7  2  0  0  0  0
  6  5  1  0  0  0  0
  7  1  1  0  0  0  0
  7  8  1  0  0  0  0
  9  4  2  0  0  0  0
 10  9  1  0  0  0  0
 11 12  1  6  0  0  0
 11  2  1  0  0  0  0
 11 13  1  0  0  0  0
 13 14  1  0  0  0  0
 14 15  1  0  0  0  0
 14 16  2  0  0  0  0
 16 17  1  0  0  0  0
 18 16  1  0  0  0  0
 18 19  1  0  0  0  0
 20 18  2  0  0  0  0
 21 20  1  0  0  0  0
 22 13  2  0  0  0  0
 22 20  1  0  0  0  0
 23 22  1  0  0  0  0
 24 11  1  0  0  0  0
 24 27  1  0  0  0  0
 25 24  1  0  0  0  0
 26 24  1  0  0  0  0
M  END
