2,29
 OpenBabel05122313053D

 29 30  0  0  0  0  0  0  0  0999 V2000
    4.3995    1.6042   -0.8903 O   0  0  0  0  0  0  0  0  0  0  0  0
    2.8989   -0.4667    1.1894 N   0  0  0  0  0  0  0  0  0  0  0  0
    4.0754    2.5066   -1.8592 C   0  0  0  0  0  0  0  0  0  0  0  0
    4.7320    2.5234   -2.7349 H   0  0  0  0  0  0  0  0  0  0  0  0
    2.9598    3.2237   -1.4922 C   0  0  0  0  0  0  0  0  0  0  0  0
    2.4798    4.0211   -2.0707 H   0  0  0  0  0  0  0  0  0  0  0  0
    2.5685    2.7236   -0.2059 C   0  0  0  0  0  0  0  0  0  0  0  0
    1.7227    3.0213    0.4251 H   0  0  0  0  0  0  0  0  0  0  0  0
    3.4723    1.7346    0.1212 C   0  0  0  0  0  0  0  0  0  0  0  0
    3.6056    0.8470    1.3075 C   0  0  0  0  0  0  0  0  0  0  0  0
    3.1483    1.3620    2.1736 H   0  0  0  0  0  0  0  0  0  0  0  0
    4.6829    0.6537    1.5197 H   0  0  0  0  0  0  0  0  0  0  0  0
    2.9625   -1.1779    2.4828 C   0  0  0  0  0  0  0  0  0  0  0  0
    2.4702   -2.1625    2.3786 H   0  0  0  0  0  0  0  0  0  0  0  0
    2.4240   -0.5809    3.2428 H   0  0  0  0  0  0  0  0  0  0  0  0
    4.0208   -1.3275    2.7995 H   0  0  0  0  0  0  0  0  0  0  0  0
    3.4552   -1.3020    0.0862 C   0  0  0  0  0  0  0  0  0  0  0  0
    4.4363   -1.7363    0.3900 H   0  0  0  0  0  0  0  0  0  0  0  0
    3.6510   -0.6227   -0.7674 H   0  0  0  0  0  0  0  0  0  0  0  0
    2.4507   -2.3503   -0.3022 C   0  0  0  0  0  0  0  0  0  0  0  0
    2.8266   -3.6349   -0.7319 C   0  0  0  0  0  0  0  0  0  0  0  0
    3.8950   -3.9008   -0.7869 H   0  0  0  0  0  0  0  0  0  0  0  0
    1.8488   -4.5799   -1.0802 C   0  0  0  0  0  0  0  0  0  0  0  0
    2.1461   -5.5843   -1.4180 H   0  0  0  0  0  0  0  0  0  0  0  0
    0.4922   -4.2388   -0.9733 C   0  0  0  0  0  0  0  0  0  0  0  0
   -0.2849   -4.9778   -1.2246 H   0  0  0  0  0  0  0  0  0  0  0  0
    0.1134   -2.9567   -0.5383 C   0  0  0  0  0  0  0  0  0  0  0  0
   -0.9599   -2.7288   -0.4550 H   0  0  0  0  0  0  0  0  0  0  0  0
    1.0786   -1.9830   -0.2098 C   0  0  0  0  0  3  0  0  0  0  0  0
  1  9  1  0  0  0  0
  2 10  1  0  0  0  0
  2 13  1  0  0  0  0
  3  5  2  0  0  0  0
  3  1  1  0  0  0  0
  4  3  1  0  0  0  0
  5  7  1  0  0  0  0
  6  5  1  0  0  0  0
  7  9  2  0  0  0  0
  7  8  1  0  0  0  0
  9 10  1  0  0  0  0
 10 12  1  0  0  0  0
 10 11  1  0  0  0  0
 13 16  1  0  0  0  0
 13 15  1  0  0  0  0
 14 13  1  0  0  0  0
 17 18  1  0  0  0  0
 17  2  1  0  0  0  0
 19 17  1  0  0  0  0
 20 29  1  0  0  0  0
 20 17  1  0  0  0  0
 21 20  2  0  0  0  0
 22 21  1  0  0  0  0
 23 25  2  0  0  0  0
 23 21  1  0  0  0  0
 24 23  1  0  0  0  0
 25 27  1  0  0  0  0
 26 25  1  0  0  0  0
 27 28  1  0  0  0  0
 27 29  2  0  0  0  0
M  END
