1,14
 OpenBabel05122313053D

 44 46  0  0  1  0  0  0  0  0999 V2000
   -0.7622   -0.1247    0.1235 N   0  0  0  0  0  2  0  0  0  0  0  0
    0.4004    2.5585   -0.1127 N   0  0  0  0  0  0  0  0  0  0  0  0
    2.3621    2.3774   -1.0120 N   0  0  0  0  0  0  0  0  0  0  0  0
   -1.4767    0.9577    0.2622 C   0  0  2  0  0  3  0  0  0  0  0  0
   -0.8281    2.2948    0.6870 C   0  0  0  0  0  0  0  0  0  0  0  0
   -1.8162    3.4577    0.5007 C   0  0  0  0  0  0  0  0  0  0  0  0
   -1.3842    4.3955    0.8980 H   0  0  0  0  0  0  0  0  0  0  0  0
   -2.7376    3.2505    1.0722 H   0  0  0  0  0  0  0  0  0  0  0  0
   -2.1062    3.6049   -0.5569 H   0  0  0  0  0  0  0  0  0  0  0  0
   -0.4665    2.2066    2.1854 C   0  0  0  0  0  0  0  0  0  0  0  0
    0.0143    3.1509    2.5088 H   0  0  0  0  0  0  0  0  0  0  0  0
    0.2292    1.3725    2.3758 H   0  0  0  0  0  0  0  0  0  0  0  0
   -1.3838    2.0531    2.7864 H   0  0  0  0  0  0  0  0  0  0  0  0
    1.4320    1.6587   -0.2981 C   0  0  0  0  0  2  0  0  0  0  0  0
    1.9308    3.6691   -1.2639 C   0  0  0  0  0  0  0  0  0  0  0  0
    2.5325    4.3939   -1.8201 H   0  0  0  0  0  0  0  0  0  0  0  0
    0.6931    3.7907   -0.6983 C   0  0  0  0  0  0  0  0  0  0  0  0
    0.0243    4.6510   -0.6719 H   0  0  0  0  0  0  0  0  0  0  0  0
    3.6321    1.8504   -1.4909 C   0  0  0  0  0  0  0  0  0  0  0  0
    4.2641    1.5214   -0.6467 H   0  0  0  0  0  0  0  0  0  0  0  0
    4.1536    2.6454   -2.0546 H   0  0  0  0  0  0  0  0  0  0  0  0
    3.4628    0.9814   -2.1540 H   0  0  0  0  0  0  0  0  0  0  0  0
   -2.9647    0.9259    0.0976 C   0  0  0  0  0  0  0  0  0  0  0  0
   -3.8022    0.6180    1.1893 C   0  0  0  0  0  0  0  0  0  0  0  0
   -3.3559    0.3827    2.1670 H   0  0  0  0  0  0  0  0  0  0  0  0
   -5.1952    0.5957    1.0287 C   0  0  0  0  0  0  0  0  0  0  0  0
   -5.8382    0.3476    1.8865 H   0  0  0  0  0  0  0  0  0  0  0  0
   -5.7661    0.8782   -0.2219 C   0  0  0  0  0  0  0  0  0  0  0  0
   -6.8590    0.8558   -0.3474 H   0  0  0  0  0  0  0  0  0  0  0  0
   -4.9379    1.1812   -1.3138 C   0  0  0  0  0  0  0  0  0  0  0  0
   -5.3786    1.3936   -2.2995 H   0  0  0  0  0  0  0  0  0  0  0  0
   -3.5449    1.2069   -1.1561 C   0  0  0  0  0  0  0  0  0  0  0  0
   -2.8955    1.4340   -2.0151 H   0  0  0  0  0  0  0  0  0  0  0  0
   -1.4732   -1.3386   -0.1987 C   0  0  0  0  0  0  0  0  0  0  0  0
   -1.9064   -2.1815    0.8392 C   0  0  0  0  0  0  0  0  0  0  0  0
   -1.6927   -1.9023    1.8811 H   0  0  0  0  0  0  0  0  0  0  0  0
   -2.5661   -3.3782    0.5308 C   0  0  0  0  0  0  0  0  0  0  0  0
   -2.8919   -4.0412    1.3462 H   0  0  0  0  0  0  0  0  0  0  0  0
   -2.7999   -3.7360   -0.8065 C   0  0  0  0  0  0  0  0  0  0  0  0
   -3.3114   -4.6801   -1.0450 H   0  0  0  0  0  0  0  0  0  0  0  0
   -2.3673   -2.8875   -1.8377 C   0  0  0  0  0  0  0  0  0  0  0  0
   -2.5398   -3.1620   -2.8892 H   0  0  0  0  0  0  0  0  0  0  0  0
   -1.7052   -1.6883   -1.5399 C   0  0  0  0  0  0  0  0  0  0  0  0
   -1.3476   -1.0257   -2.3404 H   0  0  0  0  0  0  0  0  0  0  0  0
  2  5  1  0  0  0  0
  3 14  1  0  0  0  0
  4  1  1  1  0  0  0
  4  5  1  0  0  0  0
  5 10  1  0  0  0  0
  6  5  1  0  0  0  0
  6  7  1  0  0  0  0
  6  8  1  0  0  0  0
  9  6  1  0  0  0  0
 10 12  1  0  0  0  0
 10 11  1  0  0  0  0
 10 13  1  0  0  0  0
 14  2  1  0  0  0  0
 15  3  1  0  0  0  0
 15 17  2  0  0  0  0
 16 15  1  0  0  0  0
 17 18  1  0  0  0  0
 17  2  1  0  0  0  0
 19  3  1  0  0  0  0
 19 20  1  0  0  0  0
 21 19  1  0  0  0  0
 22 19  1  0  0  0  0
 23  4  1  0  0  0  0
 23 24  1  0  0  0  0
 24 25  1  0  0  0  0
 26 24  2  0  0  0  0
 26 27  1  0  0  0  0
 28 26  1  0  0  0  0
 29 28  1  0  0  0  0
 30 32  1  0  0  0  0
 30 28  2  0  0  0  0
 31 30  1  0  0  0  0
 32 23  2  0  0  0  0
 33 32  1  0  0  0  0
 34  1  1  0  0  0  0
 34 35  1  0  0  0  0
 35 36  1  0  0  0  0
 37 35  2  0  0  0  0
 37 38  1  0  0  0  0
 39 37  1  0  0  0  0
 40 39  1  0  0  0  0
 41 43  1  0  0  0  0
 41 39  2  0  0  0  0
 42 41  1  0  0  0  0
 43 34  2  0  0  0  0
 44 43  1  0  0  0  0
M  END
