1,2
 OpenBabel05122313053D

 26 26  0  0  0  0  0  0  0  0999 V2000
    3.1203   -0.0686    0.1140 N   0  0  0  0  0  2  0  0  0  0  0  0
    1.2783    1.8874   -0.2480 C   0  0  0  0  0  3  0  0  0  0  0  0
    2.0202    2.4744    0.8065 C   0  0  0  0  0  0  0  0  0  0  0  0
    2.3077    3.8527    0.7706 C   0  0  0  0  0  0  0  0  0  0  0  0
    2.8694    4.3109    1.6019 H   0  0  0  0  0  0  0  0  0  0  0  0
    1.8911    4.6426   -0.3139 C   0  0  0  0  0  0  0  0  0  0  0  0
    2.1180    5.7197   -0.3298 H   0  0  0  0  0  0  0  0  0  0  0  0
    1.1965    4.0494   -1.3790 C   0  0  0  0  0  0  0  0  0  0  0  0
    0.8773    4.6578   -2.2397 H   0  0  0  0  0  0  0  0  0  0  0  0
    0.8869    2.6780   -1.3423 C   0  0  0  0  0  0  0  0  0  0  0  0
    0.3124    2.2346   -2.1702 H   0  0  0  0  0  0  0  0  0  0  0  0
    3.5838    0.5733    1.3461 C   0  0  0  0  0  0  0  0  0  0  0  0
    4.5360    1.1137    1.1580 H   0  0  0  0  0  0  0  0  0  0  0  0
    3.7931   -0.2206    2.0976 H   0  0  0  0  0  0  0  0  0  0  0  0
    2.5443    1.5686    1.9001 C   0  0  0  0  0  0  0  0  0  0  0  0
    1.7034    0.9960    2.3482 H   0  0  0  0  0  0  0  0  0  0  0  0
    3.0209    2.1515    2.7148 H   0  0  0  0  0  0  0  0  0  0  0  0
    3.9569   -0.5612   -0.7429 C   0  0  0  0  0  3  0  0  0  0  0  0
    5.4452   -0.5794   -0.4958 C   0  0  0  0  0  0  0  0  0  0  0  0
    5.8524    0.4538   -0.4582 H   0  0  0  0  0  0  0  0  0  0  0  0
    5.9756   -1.1276   -1.2952 H   0  0  0  0  0  0  0  0  0  0  0  0
    5.6823   -1.0559    0.4771 H   0  0  0  0  0  0  0  0  0  0  0  0
    3.4595   -1.1476   -2.0269 C   0  0  0  0  0  0  0  0  0  0  0  0
    2.3860   -0.9232   -2.1748 H   0  0  0  0  0  0  0  0  0  0  0  0
    3.5773   -2.2518   -2.0058 H   0  0  0  0  0  0  0  0  0  0  0  0
    4.0570   -0.7593   -2.8781 H   0  0  0  0  0  0  0  0  0  0  0  0
  1 12  1  0  0  0  0
  2  3  1  0  0  0  0
  3 15  1  0  0  0  0
  4  3  2  0  0  0  0
  4  5  1  0  0  0  0
  6  4  1  0  0  0  0
  7  6  1  0  0  0  0
  8 10  1  0  0  0  0
  8  6  2  0  0  0  0
  9  8  1  0  0  0  0
 10  2  2  0  0  0  0
 11 10  1  0  0  0  0
 12 15  1  0  0  0  0
 12 14  1  0  0  0  0
 13 12  1  0  0  0  0
 15 16  1  0  0  0  0
 15 17  1  0  0  0  0
 18 19  1  0  0  0  0
 18  1  1  0  0  0  0
 19 20  1  0  0  0  0
 19 22  1  0  0  0  0
 21 19  1  0  0  0  0
 23 25  1  0  0  0  0
 23 18  1  0  0  0  0
 24 23  1  0  0  0  0
 26 23  1  0  0  0  0
M  END
