1,3
 OpenBabel05122313053D

 15 14  0  0  0  0  0  0  0  0999 V2000
    1.7290   -0.6755   -1.1902 N   0  0  0  0  0  0  0  0  0  0  0  0
    2.5082   -1.2148    0.0125 C   0  0  0  0  0  0  0  0  0  0  0  0
    1.7085   -0.5376    1.1489 C   0  0  0  0  0  3  0  0  0  0  0  0
    2.3602   -2.7368    0.0233 C   0  0  0  0  0  0  0  0  0  0  0  0
    3.9868   -0.8348   -0.0735 C   0  0  0  0  0  0  0  0  0  0  0  0
    2.2429    0.0734   -1.6733 H   0  0  0  0  0  0  0  0  0  0  0  0
    1.5333   -1.4023   -1.8943 H   0  0  0  0  0  0  0  0  0  0  0  0
    1.4409   -1.2386    1.9645 H   0  0  0  0  0  0  0  0  0  0  0  0
    2.2571    0.3124    1.6029 H   0  0  0  0  0  0  0  0  0  0  0  0
    1.2953   -3.0336    0.0544 H   0  0  0  0  0  0  0  0  0  0  0  0
    2.8369   -3.1965   -0.8673 H   0  0  0  0  0  0  0  0  0  0  0  0
    2.8522   -3.1557    0.9218 H   0  0  0  0  0  0  0  0  0  0  0  0
    4.1326    0.2613   -0.1326 H   0  0  0  0  0  0  0  0  0  0  0  0
    4.5149   -1.1894    0.8333 H   0  0  0  0  0  0  0  0  0  0  0  0
    4.4780   -1.3011   -0.9527 H   0  0  0  0  0  0  0  0  0  0  0  0
  1  2  1  0  0  0  0
  2  4  1  0  0  0  0
  2  3  1  0  0  0  0
  3  9  1  0  0  0  0
  3  8  1  0  0  0  0
  4 10  1  0  0  0  0
  4 12  1  0  0  0  0
  5  2  1  0  0  0  0
  5 14  1  0  0  0  0
  6  1  1  0  0  0  0
  7  1  1  0  0  0  0
 11  4  1  0  0  0  0
 13  5  1  0  0  0  0
 15  5  1  0  0  0  0
M  END
