3,6
 OpenBabel05122313053D

 21 21  0  0  1  0  0  0  0  0999 V2000
    3.6416   -0.8636    0.1115 O   0  0  0  0  0  0  0  0  0  0  0  0
    2.3853   -0.3896    0.0998 C   0  0  2  0  0  3  0  0  0  0  0  0
    1.2940   -1.1131    0.0457 N   0  0  0  0  0  2  0  0  0  0  0  0
    1.3795   -2.1269   -0.0628 H   0  0  0  0  0  0  0  0  0  0  0  0
    2.1899    1.0494    0.1305 C   0  0  0  0  0  0  0  0  0  0  0  0
    0.8179    1.4265    0.0055 C   0  0  0  0  0  3  0  0  0  0  0  0
    0.5510    2.8105   -0.0691 C   0  0  0  0  0  0  0  0  0  0  0  0
   -0.4802    3.1599   -0.2279 H   0  0  0  0  0  0  0  0  0  0  0  0
    1.5843    3.7545    0.0284 C   0  0  0  0  0  0  0  0  0  0  0  0
    1.3422    4.8281   -0.0265 H   0  0  0  0  0  0  0  0  0  0  0  0
    2.9280    3.3535    0.1794 C   0  0  0  0  0  0  0  0  0  0  0  0
    3.7270    4.1066    0.2492 H   0  0  0  0  0  0  0  0  0  0  0  0
    3.2355    1.9911    0.2158 C   0  0  0  0  0  0  0  0  0  0  0  0
    4.2759    1.6422    0.3004 H   0  0  0  0  0  0  0  0  0  0  0  0
    5.3344   -2.5443    0.0222 C   0  0  0  0  0  0  0  0  0  0  0  0
    5.8310   -2.0354   -0.8269 H   0  0  0  0  0  0  0  0  0  0  0  0
    5.5284   -3.6316   -0.0596 H   0  0  0  0  0  0  0  0  0  0  0  0
    5.7885   -2.1772    0.9634 H   0  0  0  0  0  0  0  0  0  0  0  0
    3.8428   -2.2793    0.0057 C   0  0  0  0  0  0  0  0  0  0  0  0
    3.3329   -2.7884    0.8564 H   0  0  0  0  0  0  0  0  0  0  0  0
    3.3774   -2.6447   -0.9384 H   0  0  0  0  0  0  0  0  0  0  0  0
  2  3  1  6  0  0  0
  2  1  1  0  0  0  0
  2  5  1  0  0  0  0
  4  3  1  0  0  0  0
  5 13  1  0  0  0  0
  6  5  2  0  0  0  0
  7  6  1  0  0  0  0
  7  9  2  0  0  0  0
  8  7  1  0  0  0  0
  9 11  1  0  0  0  0
 10  9  1  0  0  0  0
 11 13  2  0  0  0  0
 11 12  1  0  0  0  0
 13 14  1  0  0  0  0
 15 18  1  0  0  0  0
 16 15  1  0  0  0  0
 17 15  1  0  0  0  0
 19 15  1  0  0  0  0
 19  1  1  0  0  0  0
 19 20  1  0  0  0  0
 21 19  1  0  0  0  0
M  END
