1,13
 OpenBabel05122313053D

 24 25  0  0  0  0  0  0  0  0999 V2000
   -0.3824   -0.6403    1.8005 N   0  0  0  0  0  2  0  0  0  0  0  0
   -1.5604   -1.0822    2.2745 C   0  0  0  0  0  3  0  0  0  0  0  0
   -2.1291   -1.7496    1.6110 H   0  0  0  0  0  0  0  0  0  0  0  0
   -2.0433   -0.7200    3.5360 C   0  0  0  0  0  0  0  0  0  0  0  0
   -3.0126   -1.1040    3.8817 H   0  0  0  0  0  0  0  0  0  0  0  0
   -1.2624    0.1404    4.3279 C   0  0  0  0  0  0  0  0  0  0  0  0
   -1.6129    0.4522    5.3236 H   0  0  0  0  0  0  0  0  0  0  0  0
   -0.0364    0.5951    3.8408 C   0  0  0  0  0  0  0  0  0  0  0  0
    0.5994    1.2673    4.4340 H   0  0  0  0  0  0  0  0  0  0  0  0
    0.4055    0.1892    2.5597 C   0  0  0  0  0  0  0  0  0  0  0  0
    1.6533    0.5869    1.9519 C   0  0  0  0  0  0  0  0  0  0  0  0
    2.3202    1.2668    2.5089 H   0  0  0  0  0  0  0  0  0  0  0  0
    1.9429    0.1495    0.6827 C   0  0  0  0  0  3  0  0  0  0  0  0
    3.1952    0.5576    0.0232 C   0  0  0  0  0  0  0  0  0  0  0  0
    3.1719    1.1911   -1.2424 C   0  0  0  0  0  0  0  0  0  0  0  0
    2.2001    1.3775   -1.7235 H   0  0  0  0  0  0  0  0  0  0  0  0
    4.3602    1.6102   -1.8530 C   0  0  0  0  0  0  0  0  0  0  0  0
    4.3206    2.1140   -2.8309 H   0  0  0  0  0  0  0  0  0  0  0  0
    5.5980    1.3862   -1.2263 C   0  0  0  0  0  0  0  0  0  0  0  0
    6.5317    1.7022   -1.7159 H   0  0  0  0  0  0  0  0  0  0  0  0
    5.6362    0.7546    0.0267 C   0  0  0  0  0  0  0  0  0  0  0  0
    6.6018    0.5708    0.5227 H   0  0  0  0  0  0  0  0  0  0  0  0
    4.4466    0.3538    0.6518 C   0  0  0  0  0  0  0  0  0  0  0  0
    4.4755   -0.1471    1.6316 H   0  0  0  0  0  0  0  0  0  0  0  0
  1  2  1  0  0  0  0
  1 10  1  0  0  0  0
  2  4  1  0  0  0  0
  3  2  1  0  0  0  0
  4  5  1  0  0  0  0
  4  6  2  0  0  0  0
  6  7  1  0  0  0  0
  8  6  1  0  0  0  0
  8  9  1  0  0  0  0
 10  8  2  0  0  0  0
 11 12  1  0  0  0  0
 11 10  1  0  0  0  0
 13 11  2  0  0  0  0
 14 23  1  0  0  0  0
 14 13  1  0  0  0  0
 15 14  2  0  0  0  0
 16 15  1  0  0  0  0
 17 15  1  0  0  0  0
 17 19  2  0  0  0  0
 18 17  1  0  0  0  0
 19 21  1  0  0  0  0
 20 19  1  0  0  0  0
 21 22  1  0  0  0  0
 21 23  2  0  0  0  0
 23 24  1  0  0  0  0
M  END
