2,4
 OpenBabel05122313053D

 41 42  0  0  1  0  0  0  0  0999 V2000
    0.8417    2.0596   -0.1450 Si  0  0  0  0  0  0  0  0  0  0  0  0
    1.1231    0.2922   -0.1255 N   0  0  0  0  0  2  0  0  0  0  0  0
    3.4159    0.6732   -0.0516 N   0  0  0  0  0  0  0  0  0  0  0  0
   -1.0234    1.7618   -0.3618 C   0  0  2  0  0  3  0  0  0  0  0  0
   -1.9676    1.4572    0.6844 C   0  0  0  0  0  0  0  0  0  0  0  0
   -2.9210    0.5273    0.1699 C   0  0  0  0  0  0  0  0  0  0  0  0
   -2.6138    0.2826   -1.2161 C   0  0  0  0  0  0  0  0  0  0  0  0
   -1.4688    1.0578   -1.5532 C   0  0  0  0  0  0  0  0  0  0  0  0
   -2.0037    2.0347    2.0698 C   0  0  0  0  0  0  0  0  0  0  0  0
   -2.2804    1.2810    2.8333 H   0  0  0  0  0  0  0  0  0  0  0  0
   -2.7585    2.8487    2.1276 H   0  0  0  0  0  0  0  0  0  0  0  0
   -1.0333    2.4722    2.3598 H   0  0  0  0  0  0  0  0  0  0  0  0
   -4.1529    0.0237    0.8627 C   0  0  0  0  0  0  0  0  0  0  0  0
   -5.0491    0.5873    0.5204 H   0  0  0  0  0  0  0  0  0  0  0  0
   -4.0933    0.1410    1.9609 H   0  0  0  0  0  0  0  0  0  0  0  0
   -4.3532   -1.0454    0.6449 H   0  0  0  0  0  0  0  0  0  0  0  0
   -3.4660   -0.5554   -2.1220 C   0  0  0  0  0  0  0  0  0  0  0  0
   -4.4485   -0.0684   -2.3046 H   0  0  0  0  0  0  0  0  0  0  0  0
   -3.6736   -1.5509   -1.6801 H   0  0  0  0  0  0  0  0  0  0  0  0
   -2.9912   -0.7245   -3.1062 H   0  0  0  0  0  0  0  0  0  0  0  0
   -0.8370    1.1440   -2.9159 C   0  0  0  0  0  0  0  0  0  0  0  0
   -1.4248    0.5848   -3.6688 H   0  0  0  0  0  0  0  0  0  0  0  0
    0.1982    0.7454   -2.9357 H   0  0  0  0  0  0  0  0  0  0  0  0
   -0.7833    2.1979   -3.2563 H   0  0  0  0  0  0  0  0  0  0  0  0
    1.3472    2.9025    1.4674 C   0  0  0  0  0  0  0  0  0  0  0  0
    1.0556    2.3161    2.3598 H   0  0  0  0  0  0  0  0  0  0  0  0
    0.9114    3.9192    1.5523 H   0  0  0  0  0  0  0  0  0  0  0  0
    2.4518    2.9885    1.4678 H   0  0  0  0  0  0  0  0  0  0  0  0
    1.6335    3.0086   -1.5724 C   0  0  0  0  0  0  0  0  0  0  0  0
    2.6764    3.2609   -1.2992 H   0  0  0  0  0  0  0  0  0  0  0  0
    1.0728    3.9475   -1.7640 H   0  0  0  0  0  0  0  0  0  0  0  0
    1.6621    2.4245   -2.5108 H   0  0  0  0  0  0  0  0  0  0  0  0
    2.3992   -0.2285   -0.1061 C   0  0  0  0  0  0  0  0  0  0  0  0
    2.6575   -1.6283   -0.1326 C   0  0  0  0  0  0  0  0  0  0  0  0
    1.8068   -2.3207   -0.1764 H   0  0  0  0  0  0  0  0  0  0  0  0
    3.9795   -2.0714   -0.1126 C   0  0  0  0  0  0  0  0  0  0  0  0
    4.1979   -3.1508   -0.1370 H   0  0  0  0  0  0  0  0  0  0  0  0
    5.0272   -1.1326   -0.0581 C   0  0  0  0  0  0  0  0  0  0  0  0
    6.0817   -1.4433   -0.0380 H   0  0  0  0  0  0  0  0  0  0  0  0
    4.6786    0.2256   -0.0280 C   0  0  0  0  0  0  0  0  0  0  0  0
    5.4661    1.0002    0.0176 H   0  0  0  0  0  0  0  0  0  0  0  0
  1  2  1  0  0  0  0
  1 25  1  0  0  0  0
  2 33  1  0  0  0  0
  3 40  1  0  0  0  0
  4  1  1  1  0  0  0
  4  5  1  0  0  0  0
  5  9  1  0  0  0  0
  6  5  2  0  0  0  0
  6 13  1  0  0  0  0
  7  6  1  0  0  0  0
  8  7  2  0  0  0  0
  8  4  1  0  0  0  0
  9 11  1  0  0  0  0
  9 12  1  0  0  0  0
  9 10  1  0  0  0  0
 13 15  1  0  0  0  0
 14 13  1  0  0  0  0
 16 13  1  0  0  0  0
 17 19  1  0  0  0  0
 17  7  1  0  0  0  0
 18 17  1  0  0  0  0
 20 17  1  0  0  0  0
 21  8  1  0  0  0  0
 22 21  1  0  0  0  0
 23 21  1  0  0  0  0
 24 21  1  0  0  0  0
 25 28  1  0  0  0  0
 25 27  1  0  0  0  0
 25 26  1  0  0  0  0
 29 30  1  0  0  0  0
 29  1  1  0  0  0  0
 31 29  1  0  0  0  0
 32 29  1  0  0  0  0
 33  3  2  0  0  0  0
 34 36  2  0  0  0  0
 34 33  1  0  0  0  0
 35 34  1  0  0  0  0
 36 38  1  0  0  0  0
 37 36  1  0  0  0  0
 38 39  1  0  0  0  0
 38 40  2  0  0  0  0
 40 41  1  0  0  0  0
M  END
