2,9
 OpenBabel05122313053D

 40 41  0  0  1  0  0  0  0  0999 V2000
    0.8787    2.0774   -0.1610 Si  0  0  0  0  0  0  0  0  0  0  0  0
    1.1847    0.3174   -0.0765 N   0  0  0  0  0  2  0  0  0  0  0  0
    3.4762    0.6983    0.0877 N   0  0  0  0  0  0  0  0  0  0  0  0
    2.6010   -1.5512    0.0859 N   0  0  0  0  0  0  0  0  0  0  0  0
   -0.9658    1.7645   -0.4736 C   0  0  2  0  0  3  0  0  0  0  0  0
   -1.9633    1.5617    0.5408 C   0  0  2  0  0  3  0  0  0  0  0  0
   -2.9042    0.5925    0.0595 C   0  0  0  0  0  0  0  0  0  0  0  0
   -2.5217    0.2167   -1.2736 C   0  0  0  0  0  0  0  0  0  0  0  0
   -1.3465    0.9491   -1.6124 C   0  0  1  0  0  3  0  0  0  0  0  0
   -2.0251    2.2708    1.8659 C   0  0  0  0  0  0  0  0  0  0  0  0
   -3.0368    2.2035    2.3114 H   0  0  0  0  0  0  0  0  0  0  0  0
   -1.7849    3.3444    1.7421 H   0  0  0  0  0  0  0  0  0  0  0  0
   -1.3133    1.8610    2.6093 H   0  0  0  0  0  0  0  0  0  0  0  0
   -4.1852    0.1395    0.6997 C   0  0  0  0  0  0  0  0  0  0  0  0
   -5.0493    0.3652    0.0391 H   0  0  0  0  0  0  0  0  0  0  0  0
   -4.3721    0.6465    1.6653 H   0  0  0  0  0  0  0  0  0  0  0  0
   -4.2033   -0.9540    0.8870 H   0  0  0  0  0  0  0  0  0  0  0  0
   -3.3076   -0.7148   -2.1467 C   0  0  0  0  0  0  0  0  0  0  0  0
   -4.2055   -0.2095   -2.5657 H   0  0  0  0  0  0  0  0  0  0  0  0
   -3.6653   -1.5979   -1.5811 H   0  0  0  0  0  0  0  0  0  0  0  0
   -2.7093   -1.0875   -2.9994 H   0  0  0  0  0  0  0  0  0  0  0  0
   -0.6527    0.9097   -2.9454 C   0  0  0  0  0  0  0  0  0  0  0  0
   -1.0672    0.1189   -3.5982 H   0  0  0  0  0  0  0  0  0  0  0  0
    0.4363    0.7300   -2.8525 H   0  0  0  0  0  0  0  0  0  0  0  0
   -0.7783    1.8790   -3.4723 H   0  0  0  0  0  0  0  0  0  0  0  0
    1.2571    2.9345    1.4752 C   0  0  0  0  0  0  0  0  0  0  0  0
    0.8678    2.3608    2.3378 H   0  0  0  0  0  0  0  0  0  0  0  0
    0.8367    3.9602    1.5134 H   0  0  0  0  0  0  0  0  0  0  0  0
    2.3588    2.9998    1.5766 H   0  0  0  0  0  0  0  0  0  0  0  0
    1.7506    3.0174   -1.5452 C   0  0  0  0  0  0  0  0  0  0  0  0
    2.8218    3.1242   -1.2862 H   0  0  0  0  0  0  0  0  0  0  0  0
    1.3018    4.0279   -1.6471 H   0  0  0  0  0  0  0  0  0  0  0  0
    1.6811    2.5117   -2.5262 H   0  0  0  0  0  0  0  0  0  0  0  0
    2.4393   -0.1961    0.0364 C   0  0  0  0  0  0  0  0  0  0  0  0
    4.7117    0.2022    0.1647 C   0  0  0  0  0  0  0  0  0  0  0  0
    5.5355    0.9394    0.2040 H   0  0  0  0  0  0  0  0  0  0  0  0
    4.9798   -1.1766    0.2004 C   0  0  0  0  0  0  0  0  0  0  0  0
    6.0022   -1.5737    0.2621 H   0  0  0  0  0  0  0  0  0  0  0  0
    3.8522   -2.0121    0.1656 C   0  0  0  0  0  0  0  0  0  0  0  0
    3.9654   -3.1117    0.2075 H   0  0  0  0  0  0  0  0  0  0  0  0
  1  2  1  0  0  0  0
  1 26  1  0  0  0  0
  2 34  1  0  0  0  0
  3 35  1  0  0  0  0
  4 39  2  0  0  0  0
  5  1  1  1  0  0  0
  5  6  1  0  0  0  0
  6 10  1  6  0  0  0
  7  6  1  0  0  0  0
  7 14  1  0  0  0  0
  8  7  2  0  0  0  0
  9 22  1  6  0  0  0
  9  8  1  0  0  0  0
  9  5  1  0  0  0  0
 10 11  1  0  0  0  0
 10 13  1  0  0  0  0
 12 10  1  0  0  0  0
 14 17  1  0  0  0  0
 14 16  1  0  0  0  0
 15 14  1  0  0  0  0
 18 20  1  0  0  0  0
 18  8  1  0  0  0  0
 19 18  1  0  0  0  0
 21 18  1  0  0  0  0
 22 24  1  0  0  0  0
 23 22  1  0  0  0  0
 25 22  1  0  0  0  0
 26 28  1  0  0  0  0
 26 29  1  0  0  0  0
 26 27  1  0  0  0  0
 30 31  1  0  0  0  0
 30  1  1  0  0  0  0
 32 30  1  0  0  0  0
 33 30  1  0  0  0  0
 34  4  1  0  0  0  0
 34  3  2  0  0  0  0
 35 37  2  0  0  0  0
 35 36  1  0  0  0  0
 37 38  1  0  0  0  0
 39 37  1  0  0  0  0
 39 40  1  0  0  0  0
M  END
