4,18
 OpenBabel05122313053D

 27 28  0  0  0  0  0  0  0  0999 V2000
   -3.2645   -2.8774   -2.8571 Cl  0  0  0  0  0  0  0  0  0  0  0  0
    3.8010    2.1556   -1.5024 Cl  0  0  0  0  0  0  0  0  0  0  0  0
    3.1579   -2.9970    0.4251 Cl  0  0  0  0  0  0  0  0  0  0  0  0
   -2.6313   -0.0795    0.0476 C   0  0  0  0  0  3  0  0  0  0  0  0
   -3.9561    0.2173    0.4180 C   0  0  0  0  0  0  0  0  0  0  0  0
   -5.0426   -0.4044   -0.2241 C   0  0  0  0  0  0  0  0  0  0  0  0
   -4.8293   -1.3507   -1.2411 C   0  0  0  0  0  0  0  0  0  0  0  0
   -3.5156   -1.6799   -1.5981 C   0  0  0  0  0  0  0  0  0  0  0  0
   -2.4036   -1.0710   -0.9639 C   0  0  0  0  0  0  0  0  0  0  0  0
   -1.0236   -1.3957   -1.2598 C   0  0  0  0  0  3  0  0  0  0  0  0
    2.0679   -0.1832   -0.6745 C   0  0  0  0  0  0  0  0  0  0  0  0
    3.4972   -0.4201   -0.5492 C   0  0  0  0  0  0  0  0  0  0  0  0
    4.4072    0.6256   -0.9001 C   0  0  0  0  0  0  0  0  0  0  0  0
    5.7962    0.4954   -0.7993 C   0  0  0  0  0  0  0  0  0  0  0  0
    6.3434   -0.7080   -0.3354 C   0  0  0  0  0  0  0  0  0  0  0  0
    5.4985   -1.7648    0.0254 C   0  0  0  0  0  0  0  0  0  0  0  0
    4.1076   -1.6231   -0.0785 C   0  0  0  0  0  0  0  0  0  0  0  0
   -0.1135   -0.7844   -0.5353 N   0  0  0  0  0  2  0  0  0  0  0  0
    1.1664   -1.1232   -0.5872 N   0  0  0  0  0  0  0  0  0  0  0  0
    5.9037   -2.7149    0.3995 H   0  0  0  0  0  0  0  0  0  0  0  0
    7.4341   -0.8218   -0.2522 H   0  0  0  0  0  0  0  0  0  0  0  0
   -5.6691   -1.8399   -1.7531 H   0  0  0  0  0  0  0  0  0  0  0  0
    1.7625    0.8605   -0.8570 H   0  0  0  0  0  0  0  0  0  0  0  0
    6.4352    1.3406   -1.0883 H   0  0  0  0  0  0  0  0  0  0  0  0
   -6.0743   -0.1467    0.0631 H   0  0  0  0  0  0  0  0  0  0  0  0
   -4.1504    0.9628    1.2060 H   0  0  0  0  0  0  0  0  0  0  0  0
   -0.7440   -2.1239   -2.0405 H   0  0  0  0  0  0  0  0  0  0  0  0
  1  8  1  0  0  0  0
  2 13  1  0  0  0  0
  4  5  1  0  0  0  0
  5 26  1  0  0  0  0
  6 25  1  0  0  0  0
  6  5  2  0  0  0  0
  7  6  1  0  0  0  0
  8  7  2  0  0  0  0
  8  9  1  0  0  0  0
  9  4  2  0  0  0  0
 10  9  1  0  0  0  0
 10 18  1  0  0  0  0
 11 19  2  0  0  0  0
 11 12  1  0  0  0  0
 12 17  1  0  0  0  0
 13 14  1  0  0  0  0
 13 12  2  0  0  0  0
 14 15  2  0  0  0  0
 15 21  1  0  0  0  0
 15 16  1  0  0  0  0
 16 20  1  0  0  0  0
 17 16  2  0  0  0  0
 17  3  1  0  0  0  0
 19 18  1  0  0  0  0
 22  7  1  0  0  0  0
 23 11  1  0  0  0  0
 24 14  1  0  0  0  0
 27 10  1  0  0  0  0
M  END
