1,11
 OpenBabel05122313053D

 24 25  0  0  1  0  0  0  0  0999 V2000
   -1.4372   -1.3182    1.1393 C   0  0  0  0  0  3  0  0  0  0  0  0
   -2.5064   -1.8851    0.3916 C   0  0  0  0  0  0  0  0  0  0  0  0
   -3.4046   -2.8033    0.9631 C   0  0  0  0  0  0  0  0  0  0  0  0
   -4.2398   -3.2205    0.3912 H   0  0  0  0  0  0  0  0  0  0  0  0
   -3.2274   -3.1863    2.3016 C   0  0  0  0  0  0  0  0  0  0  0  0
   -3.9251   -3.9072    2.7518 H   0  0  0  0  0  0  0  0  0  0  0  0
   -2.1722   -2.6534    3.0562 C   0  0  0  0  0  0  0  0  0  0  0  0
   -2.0353   -2.9594    4.1043 H   0  0  0  0  0  0  0  0  0  0  0  0
   -1.2871   -1.7277    2.4764 C   0  0  0  0  0  0  0  0  0  0  0  0
   -0.4640   -1.3149    3.0788 H   0  0  0  0  0  0  0  0  0  0  0  0
   -1.6990   -0.4239   -1.2832 N   0  0  0  0  0  2  0  0  0  0  0  0
   -2.5937   -1.4140   -0.9461 N   0  0  0  0  0  0  0  0  0  0  0  0
   -4.3948   -2.8234   -2.0666 C   0  0  0  0  0  0  0  0  0  0  0  0
   -4.0034   -3.8075   -1.7383 H   0  0  0  0  0  0  0  0  0  0  0  0
   -4.7706   -2.9336   -3.0999 H   0  0  0  0  0  0  0  0  0  0  0  0
   -5.2596   -2.5699   -1.4196 H   0  0  0  0  0  0  0  0  0  0  0  0
   -3.3419   -1.7679   -2.0438 C   0  0  2  0  0  3  0  0  0  0  0  0
   -2.9009   -0.9604   -3.0953 C   0  0  0  0  0  0  0  0  0  0  0  0
   -3.2834   -0.9735   -4.1207 H   0  0  0  0  0  0  0  0  0  0  0  0
   -1.8715   -0.1340   -2.5904 C   0  0  0  0  0  0  0  0  0  0  0  0
   -1.0424    0.8769   -3.3068 C   0  0  0  0  0  0  0  0  0  0  0  0
   -1.2455    1.9025   -2.9365 H   0  0  0  0  0  0  0  0  0  0  0  0
   -1.2748    0.8570   -4.3871 H   0  0  0  0  0  0  0  0  0  0  0  0
    0.0406    0.6703   -3.1609 H   0  0  0  0  0  0  0  0  0  0  0  0
  1  9  1  0  0  0  0
  2  3  1  0  0  0  0
  2  1  2  0  0  0  0
  3  5  2  0  0  0  0
  4  3  1  0  0  0  0
  5  6  1  0  0  0  0
  5  7  1  0  0  0  0
  7  8  1  0  0  0  0
  9  7  2  0  0  0  0
  9 10  1  0  0  0  0
 11 12  1  0  0  0  0
 12  2  1  0  0  0  0
 13 14  1  0  0  0  0
 13 16  1  0  0  0  0
 15 13  1  0  0  0  0
 17 13  1  6  0  0  0
 17 12  1  0  0  0  0
 18 20  2  0  0  0  0
 18 17  1  0  0  0  0
 19 18  1  0  0  0  0
 20 11  1  0  0  0  0
 21 24  1  0  0  0  0
 21 22  1  0  0  0  0
 21 20  1  0  0  0  0
 23 21  1  0  0  0  0
M  END
