1,4
 OpenBabel05122313053D

 21 21  0  0  1  0  0  0  0  0999 V2000
   -2.6532   -2.0423    0.1068 N   0  0  0  0  0  2  0  0  0  0  0  0
   -2.3122   -3.1676    0.8537 O   0  0  0  0  0  0  0  0  0  0  0  0
   -1.8376   -2.7895    1.6236 H   0  0  0  0  0  0  0  0  0  0  0  0
   -3.1092    0.6152    0.2911 C   0  0  0  0  0  3  0  0  0  0  0  0
   -4.1791    0.2767   -0.5659 C   0  0  0  0  0  0  0  0  0  0  0  0
   -5.3732    1.0205   -0.5144 C   0  0  0  0  0  0  0  0  0  0  0  0
   -6.2010    0.7673   -1.1961 H   0  0  0  0  0  0  0  0  0  0  0  0
   -5.5205    2.0721    0.4036 C   0  0  0  0  0  0  0  0  0  0  0  0
   -6.4600    2.6431    0.4373 H   0  0  0  0  0  0  0  0  0  0  0  0
   -4.4788    2.3709    1.2928 C   0  0  0  0  0  0  0  0  0  0  0  0
   -4.6007    3.1684    2.0417 H   0  0  0  0  0  0  0  0  0  0  0  0
   -3.2751    1.6433    1.2374 C   0  0  0  0  0  0  0  0  0  0  0  0
   -2.4708    1.8818    1.9515 H   0  0  0  0  0  0  0  0  0  0  0  0
   -4.0584   -0.9352   -1.4765 C   0  0  0  0  0  0  0  0  0  0  0  0
   -5.0120   -1.1295   -2.0024 H   0  0  0  0  0  0  0  0  0  0  0  0
   -3.2877   -0.7663   -2.2616 H   0  0  0  0  0  0  0  0  0  0  0  0
   -3.6813   -2.1644   -0.6776 C   0  0  2  0  0  3  0  0  0  0  0  0
   -4.5052   -3.4040   -0.7717 C   0  0  0  0  0  0  0  0  0  0  0  0
   -4.1502   -4.2010   -0.0977 H   0  0  0  0  0  0  0  0  0  0  0  0
   -4.5013   -3.7752   -1.8182 H   0  0  0  0  0  0  0  0  0  0  0  0
   -5.5606   -3.1554   -0.5326 H   0  0  0  0  0  0  0  0  0  0  0  0
  1  2  1  0  0  0  0
  2  3  1  0  0  0  0
  4 12  1  0  0  0  0
  5  6  1  0  0  0  0
  5  4  2  0  0  0  0
  6  8  2  0  0  0  0
  7  6  1  0  0  0  0
  8  9  1  0  0  0  0
  8 10  1  0  0  0  0
 10 11  1  0  0  0  0
 12 10  2  0  0  0  0
 12 13  1  0  0  0  0
 14 17  1  0  0  0  0
 14  5  1  0  0  0  0
 15 14  1  0  0  0  0
 16 14  1  0  0  0  0
 17  1  1  1  0  0  0
 18 17  1  0  0  0  0
 18 21  1  0  0  0  0
 18 19  1  0  0  0  0
 20 18  1  0  0  0  0
M  END
