1,10
 OpenBabel05122313053D

 23 24  0  0  0  0  0  0  0  0999 V2000
    0.7670   -1.7491    0.8557 N   0  0  0  0  0  2  0  0  0  0  0  0
   -0.0175   -2.1148    1.7991 N   0  0  0  0  0  2  0  0  0  0  0  0
   -5.5365   -0.4347    0.6464 Cl  0  0  0  0  0  0  0  0  0  0  0  0
    2.7229   -1.8772    2.3297 C   0  0  0  0  0  0  0  0  0  0  0  0
    4.1060   -2.0195    2.4804 C   0  0  0  0  0  0  0  0  0  0  0  0
    4.9249   -2.2369    1.3575 C   0  0  0  0  0  0  0  0  0  0  0  0
    4.3531   -2.3193    0.0768 C   0  0  0  0  0  0  0  0  0  0  0  0
    2.9702   -2.1714   -0.0935 C   0  0  0  0  0  0  0  0  0  0  0  0
    2.1596   -1.9454    1.0379 C   0  0  0  0  0  0  0  0  0  0  0  0
   -1.5968   -1.1060    0.3031 C   0  0  0  0  0  3  0  0  0  0  0  0
   -2.9056   -0.6982    0.0264 C   0  0  0  0  0  0  0  0  0  0  0  0
   -3.9106   -0.9594    0.9752 C   0  0  0  0  0  0  0  0  0  0  0  0
   -3.6519   -1.6409    2.1897 C   0  0  0  0  0  0  0  0  0  0  0  0
   -2.3539   -2.0627    2.4657 C   0  0  0  0  0  0  0  0  0  0  0  0
   -1.3268   -1.7859    1.5330 C   0  0  0  0  0  0  0  0  0  0  0  0
    2.0616   -1.6912    3.1864 H   0  0  0  0  0  0  0  0  0  0  0  0
    4.5524   -1.9512    3.4839 H   0  0  0  0  0  0  0  0  0  0  0  0
    6.0127   -2.3450    1.4830 H   0  0  0  0  0  0  0  0  0  0  0  0
    4.9869   -2.5082   -0.8022 H   0  0  0  0  0  0  0  0  0  0  0  0
    2.5067   -2.2538   -1.0863 H   0  0  0  0  0  0  0  0  0  0  0  0
   -3.1584   -0.1963   -0.9160 H   0  0  0  0  0  0  0  0  0  0  0  0
   -4.4768   -1.8292    2.8898 H   0  0  0  0  0  0  0  0  0  0  0  0
   -2.1061   -2.5935    3.3960 H   0  0  0  0  0  0  0  0  0  0  0  0
  1  9  1  0  0  0  0
  1  2  1  0  0  0  0
  3 12  1  0  0  0  0
  4  5  1  0  0  0  0
  4 16  1  0  0  0  0
  5 17  1  0  0  0  0
  6 18  1  0  0  0  0
  6  5  2  0  0  0  0
  7  6  1  0  0  0  0
  8  7  2  0  0  0  0
  8  9  1  0  0  0  0
  9  4  2  0  0  0  0
 10 15  1  0  0  0  0
 11 10  2  0  0  0  0
 11 12  1  0  0  0  0
 12 13  2  0  0  0  0
 13 14  1  0  0  0  0
 13 22  1  0  0  0  0
 14 23  1  0  0  0  0
 15  2  1  0  0  0  0
 15 14  2  0  0  0  0
 19  7  1  0  0  0  0
 20  8  1  0  0  0  0
 21 11  1  0  0  0  0
M  END
