3,5
 OpenBabel05122313053D

 29 31  0  0  1  0  0  0  0  0999 V2000
   -3.4930    4.1909   -1.0043 Cl  0  0  0  0  0  0  0  0  0  0  0  0
    4.7127    2.1854    0.3214 O   0  0  0  0  0  0  0  0  0  0  0  0
    1.0589   -0.4218   -0.1139 N   0  0  0  0  0  2  0  0  0  0  0  0
    3.3586    2.2449    0.1762 N   0  0  0  0  0  0  0  0  0  0  0  0
   -0.9845    1.0772   -0.4378 C   0  0  0  0  0  3  0  0  0  0  0  0
   -2.1269    1.8533   -0.7126 C   0  0  0  0  0  0  0  0  0  0  0  0
   -3.0900    1.3859   -0.9587 H   0  0  0  0  0  0  0  0  0  0  0  0
   -2.0481    3.2552   -0.6963 C   0  0  0  0  0  0  0  0  0  0  0  0
   -0.8400    3.9388   -0.4403 C   0  0  0  0  0  0  0  0  0  0  0  0
   -0.8233    5.0370   -0.4398 H   0  0  0  0  0  0  0  0  0  0  0  0
    0.3150    3.1921   -0.2140 C   0  0  0  0  0  0  0  0  0  0  0  0
    1.2825    3.6854   -0.0435 H   0  0  0  0  0  0  0  0  0  0  0  0
    0.2498    1.7790   -0.2175 C   0  0  0  0  0  0  0  0  0  0  0  0
    1.3587    0.8860   -0.0691 C   0  0  2  0  0  3  0  0  0  0  0  0
    2.8135    1.0604    0.0838 C   0  0  0  0  0  0  0  0  0  0  0  0
    3.3719   -0.2995    0.0886 C   0  0  0  0  0  0  0  0  0  0  0  0
    4.6693   -0.8199    0.1711 C   0  0  0  0  0  0  0  0  0  0  0  0
    5.5288   -0.1480    0.2874 H   0  0  0  0  0  0  0  0  0  0  0  0
    4.8366   -2.2167    0.0888 C   0  0  0  0  0  0  0  0  0  0  0  0
    5.8474   -2.6467    0.1484 H   0  0  0  0  0  0  0  0  0  0  0  0
    3.7289   -3.0643   -0.0863 C   0  0  0  0  0  0  0  0  0  0  0  0
    3.8859   -4.1503   -0.1715 H   0  0  0  0  0  0  0  0  0  0  0  0
    2.4194   -2.5512   -0.1671 C   0  0  0  0  0  0  0  0  0  0  0  0
    1.5516   -3.2001   -0.3397 H   0  0  0  0  0  0  0  0  0  0  0  0
    2.2515   -1.1696   -0.0600 C   0  0  0  0  0  0  0  0  0  0  0  0
    5.2613    3.5013    0.3964 C   0  0  0  0  0  0  0  0  0  0  0  0
    6.3514    3.3633    0.5175 H   0  0  0  0  0  0  0  0  0  0  0  0
    4.8487    4.0515    1.2674 H   0  0  0  0  0  0  0  0  0  0  0  0
    5.0515    4.0694   -0.5334 H   0  0  0  0  0  0  0  0  0  0  0  0
  1  8  1  0  0  0  0
  2 26  1  0  0  0  0
  3 14  1  0  0  0  0
  3 25  1  0  0  0  0
  4  2  1  0  0  0  0
  5 13  1  0  0  0  0
  6  8  1  0  0  0  0
  6  5  2  0  0  0  0
  7  6  1  0  0  0  0
  8  9  2  0  0  0  0
  9 10  1  0  0  0  0
  9 11  1  0  0  0  0
 11 12  1  0  0  0  0
 13 11  2  0  0  0  0
 14 13  1  6  0  0  0
 14 15  1  0  0  0  0
 15 16  1  0  0  0  0
 15  4  2  0  0  0  0
 16 17  1  0  0  0  0
 17 18  1  0  0  0  0
 19 20  1  0  0  0  0
 19 17  2  0  0  0  0
 21 19  1  0  0  0  0
 22 21  1  0  0  0  0
 23 21  2  0  0  0  0
 23 25  1  0  0  0  0
 24 23  1  0  0  0  0
 25 16  2  0  0  0  0
 26 27  1  0  0  0  0
 26 28  1  0  0  0  0
 29 26  1  0  0  0  0
M  END
