2,3
 OpenBabel05122313053D

 48 49  0  0  1  0  0  0  0  0999 V2000
   -0.4315    2.0540   -0.0019 Si  0  0  0  0  0  0  0  0  0  0  0  0
   -0.8689    0.3457   -0.0003 N   0  0  0  0  0  2  0  0  0  0  0  0
    1.3950    1.5498   -0.0019 C   0  0  2  0  0  3  0  0  0  0  0  0
    1.9984    0.9370   -1.1622 C   0  0  0  0  0  0  0  0  0  0  0  0
    1.7009    1.2467   -2.6039 C   0  0  0  0  0  0  0  0  0  0  0  0
    0.7690    0.7582   -2.9542 H   0  0  0  0  0  0  0  0  0  0  0  0
    2.5167    0.8840   -3.2574 H   0  0  0  0  0  0  0  0  0  0  0  0
    1.5975    2.3374   -2.7604 H   0  0  0  0  0  0  0  0  0  0  0  0
    2.9307   -0.0560   -0.7196 C   0  0  0  0  0  0  0  0  0  0  0  0
    3.7897   -0.9075   -1.6038 C   0  0  0  0  0  0  0  0  0  0  0  0
    4.6881   -0.3457   -1.9388 H   0  0  0  0  0  0  0  0  0  0  0  0
    3.2356   -1.2430   -2.5011 H   0  0  0  0  0  0  0  0  0  0  0  0
    4.1431   -1.8138   -1.0762 H   0  0  0  0  0  0  0  0  0  0  0  0
    2.9313   -0.0543    0.7182 C   0  0  0  0  0  0  0  0  0  0  0  0
    3.7909   -0.9036    1.6040 C   0  0  0  0  0  0  0  0  0  0  0  0
    4.1449   -1.8106    1.0781 H   0  0  0  0  0  0  0  0  0  0  0  0
    3.2370   -1.2376    2.5019 H   0  0  0  0  0  0  0  0  0  0  0  0
    4.6890   -0.3405    1.9379 H   0  0  0  0  0  0  0  0  0  0  0  0
    1.9995    0.9399    1.1592 C   0  0  0  0  0  0  0  0  0  0  0  0
    1.7038    1.2533    2.6005 C   0  0  0  0  0  0  0  0  0  0  0  0
    2.5228    0.8967    3.2534 H   0  0  0  0  0  0  0  0  0  0  0  0
    0.7750    0.7615    2.9545 H   0  0  0  0  0  0  0  0  0  0  0  0
    1.5956    2.3440    2.7535 H   0  0  0  0  0  0  0  0  0  0  0  0
   -1.0056    3.0058    1.5235 C   0  0  0  0  0  0  0  0  0  0  0  0
   -2.0752    3.2795    1.4139 H   0  0  0  0  0  0  0  0  0  0  0  0
   -0.4278    3.9473    1.6340 H   0  0  0  0  0  0  0  0  0  0  0  0
   -0.8957    2.4164    2.4525 H   0  0  0  0  0  0  0  0  0  0  0  0
   -1.0062    3.0033   -1.5286 C   0  0  0  0  0  0  0  0  0  0  0  0
   -0.8980    2.4120   -2.4567 H   0  0  0  0  0  0  0  0  0  0  0  0
   -0.4276    3.9440   -1.6417 H   0  0  0  0  0  0  0  0  0  0  0  0
   -2.0754    3.2783   -1.4185 H   0  0  0  0  0  0  0  0  0  0  0  0
   -2.1068   -0.4189    0.0004 C   0  0  0  0  0  0  0  0  0  0  0  0
   -1.8368   -1.5044    0.0014 H   0  0  0  0  0  0  0  0  0  0  0  0
   -5.0516   -0.7558    0.0009 C   0  0  0  0  0  0  0  0  0  0  0  0
   -5.9613   -1.3922    0.0016 H   0  0  0  0  0  0  0  0  0  0  0  0
   -5.4085    0.2993   -0.0000 H   0  0  0  0  0  0  0  0  0  0  0  0
   -2.9358   -0.1711    1.2724 C   0  0  0  0  0  0  0  0  0  0  0  0
   -4.2236   -1.0046    1.2688 C   0  0  0  0  0  0  0  0  0  0  0  0
   -3.9553   -2.0833    1.3257 H   0  0  0  0  0  0  0  0  0  0  0  0
   -4.8231   -0.7854    2.1770 H   0  0  0  0  0  0  0  0  0  0  0  0
   -2.9360   -0.1735   -1.2719 C   0  0  0  0  0  0  0  0  0  0  0  0
   -4.2237   -1.0070   -1.2666 C   0  0  0  0  0  0  0  0  0  0  0  0
   -4.8234   -0.7895   -2.1751 H   0  0  0  0  0  0  0  0  0  0  0  0
   -3.9555   -2.0858   -1.3214 H   0  0  0  0  0  0  0  0  0  0  0  0
   -2.3082   -0.4078   -2.1563 H   0  0  0  0  0  0  0  0  0  0  0  0
   -2.3080   -0.4037    2.1572 H   0  0  0  0  0  0  0  0  0  0  0  0
   -3.1883    0.9097   -1.3266 H   0  0  0  0  0  0  0  0  0  0  0  0
   -3.1882    0.9122    1.3251 H   0  0  0  0  0  0  0  0  0  0  0  0
  1  2  1  0  0  0  0
  1 24  1  0  0  0  0
  2 32  1  0  0  0  0
  3  1  1  1  0  0  0
  3 19  1  0  0  0  0
  4  9  2  0  0  0  0
  4  3  1  0  0  0  0
  5  4  1  0  0  0  0
  6  5  1  0  0  0  0
  7  5  1  0  0  0  0
  8  5  1  0  0  0  0
  9 14  1  0  0  0  0
 10 13  1  0  0  0  0
 10  9  1  0  0  0  0
 11 10  1  0  0  0  0
 12 10  1  0  0  0  0
 14 19  2  0  0  0  0
 14 15  1  0  0  0  0
 15 18  1  0  0  0  0
 15 17  1  0  0  0  0
 16 15  1  0  0  0  0
 19 20  1  0  0  0  0
 20 23  1  0  0  0  0
 20 22  1  0  0  0  0
 20 21  1  0  0  0  0
 24 26  1  0  0  0  0
 24 27  1  0  0  0  0
 25 24  1  0  0  0  0
 28 31  1  0  0  0  0
 28  1  1  0  0  0  0
 29 28  1  0  0  0  0
 30 28  1  0  0  0  0
 32 33  1  0  0  0  0
 32 37  1  0  0  0  0
 34 35  1  0  0  0  0
 34 38  1  0  0  0  0
 36 34  1  0  0  0  0
 37 48  1  0  0  0  0
 37 46  1  0  0  0  0
 38 37  1  0  0  0  0
 38 39  1  0  0  0  0
 38 40  1  0  0  0  0
 41 42  1  0  0  0  0
 41 32  1  0  0  0  0
 42 34  1  0  0  0  0
 43 42  1  0  0  0  0
 44 42  1  0  0  0  0
 45 41  1  0  0  0  0
 47 41  1  0  0  0  0
M  END
