3,5
 OpenBabel05122313053D

 26 27  0  0  1  0  0  0  0  0999 V2000
    2.7734    1.2276   -0.1307 N   0  0  0  0  0  0  0  0  0  0  0  0
    3.7296    1.5628   -0.2485 H   0  0  0  0  0  0  0  0  0  0  0  0
    1.4537   -0.6744    0.0154 N   0  0  0  0  0  2  0  0  0  0  0  0
    1.4216   -1.6931    0.1441 H   0  0  0  0  0  0  0  0  0  0  0  0
    0.3787    1.9592   -0.1927 C   0  0  0  0  0  2  0  0  0  0  0  0
   -0.4624    3.1004   -0.1585 C   0  0  0  0  0  3  0  0  0  0  0  0
   -1.5514    2.9504   -0.1970 H   0  0  0  0  0  0  0  0  0  0  0  0
    0.0244    4.4139   -0.0971 C   0  0  0  0  0  0  0  0  0  0  0  0
   -0.6829    5.2577   -0.0811 H   0  0  0  0  0  0  0  0  0  0  0  0
    1.4080    4.6470   -0.0649 C   0  0  0  0  0  0  0  0  0  0  0  0
    1.8111    5.6699   -0.0218 H   0  0  0  0  0  0  0  0  0  0  0  0
    2.2747    3.5539   -0.0821 C   0  0  0  0  0  0  0  0  0  0  0  0
    3.3659    3.7150   -0.0430 H   0  0  0  0  0  0  0  0  0  0  0  0
    1.7772    2.2288   -0.1364 C   0  0  0  0  0  0  0  0  0  0  0  0
    2.6339   -0.1193   -0.0220 C   0  0  2  0  0  3  0  0  0  0  0  0
    3.8854   -0.9211    0.0538 C   0  0  0  0  0  0  0  0  0  0  0  0
    5.0230   -0.4373    0.7361 C   0  0  0  0  0  0  0  0  0  0  0  0
    4.9834    0.5379    1.2460 H   0  0  0  0  0  0  0  0  0  0  0  0
    6.1899   -1.2106    0.8081 C   0  0  0  0  0  0  0  0  0  0  0  0
    7.0659   -0.8264    1.3521 H   0  0  0  0  0  0  0  0  0  0  0  0
    6.2352   -2.4762    0.2026 C   0  0  0  0  0  0  0  0  0  0  0  0
    7.1516   -3.0827    0.2596 H   0  0  0  0  0  0  0  0  0  0  0  0
    5.1063   -2.9664   -0.4743 C   0  0  0  0  0  0  0  0  0  0  0  0
    5.1378   -3.9548   -0.9568 H   0  0  0  0  0  0  0  0  0  0  0  0
    3.9390   -2.1961   -0.5499 C   0  0  0  0  0  0  0  0  0  0  0  0
    3.0634   -2.5719   -1.1012 H   0  0  0  0  0  0  0  0  0  0  0  0
  1 15  1  0  0  0  0
  2  1  1  0  0  0  0
  3  4  1  0  0  0  0
  5  6  1  0  0  0  0
  5 14  1  0  0  0  0
  6  8  1  0  0  0  0
  7  6  1  0  0  0  0
  8  9  1  0  0  0  0
  8 10  2  0  0  0  0
 10 11  1  0  0  0  0
 12 10  1  0  0  0  0
 12 13  1  0  0  0  0
 14  1  1  0  0  0  0
 14 12  2  0  0  0  0
 15  3  1  1  0  0  0
 15 16  1  0  0  0  0
 16 17  1  0  0  0  0
 17 19  2  0  0  0  0
 17 18  1  0  0  0  0
 19 20  1  0  0  0  0
 21 22  1  0  0  0  0
 21 19  1  0  0  0  0
 23 21  2  0  0  0  0
 24 23  1  0  0  0  0
 25 23  1  0  0  0  0
 25 16  2  0  0  0  0
 26 25  1  0  0  0  0
M  END
