1,23
 OpenBabel05122313053D

 37 39  0  0  1  0  0  0  0  0999 V2000
   -1.3982    2.5485   -0.9568 N   0  0  0  0  0  0  0  0  0  0  0  0
   -1.8232    2.2850   -2.3584 C   0  0  0  0  0  0  0  0  0  0  0  0
   -1.0816    2.7495   -3.0358 H   0  0  0  0  0  0  0  0  0  0  0  0
   -2.8179    2.7532   -2.5463 H   0  0  0  0  0  0  0  0  0  0  0  0
   -1.8393    0.7698   -2.5588 C   0  0  2  0  0  0  0  0  0  0  0  0
   -2.2284    0.5401   -3.5802 H   0  0  0  0  0  0  0  0  0  0  0  0
   -2.7334    0.1956   -1.4965 C   0  0  0  0  0  0  0  0  0  0  0  0
   -3.2167   -1.1062   -1.4470 N   0  0  0  0  0  0  0  0  0  0  0  0
   -3.8441   -1.2963   -0.2219 C   0  0  0  0  0  0  0  0  0  0  0  0
   -4.4580   -2.4435    0.3077 C   0  0  0  0  0  0  0  0  0  0  0  0
   -4.5112   -3.3819   -0.2634 H   0  0  0  0  0  0  0  0  0  0  0  0
   -4.9910   -2.3573    1.6014 C   0  0  0  0  0  0  0  0  0  0  0  0
   -5.4760   -3.2404    2.0439 H   0  0  0  0  0  0  0  0  0  0  0  0
   -4.9075   -1.1586    2.3509 C   0  0  0  0  0  0  0  0  0  0  0  0
   -5.3286   -1.1288    3.3671 H   0  0  0  0  0  0  0  0  0  0  0  0
   -4.2937   -0.0163    1.8240 C   0  0  0  0  0  0  0  0  0  0  0  0
   -4.2228    0.9064    2.4195 H   0  0  0  0  0  0  0  0  0  0  0  0
   -3.7537   -0.0682    0.5206 C   0  0  0  0  0  0  0  0  0  0  0  0
   -3.0374    0.8577   -0.3145 C   0  0  0  0  0  0  0  0  0  0  0  0
   -2.5271    2.2370   -0.0324 C   0  0  0  0  0  0  0  0  0  0  0  0
   -3.3211    3.0148   -0.1623 H   0  0  0  0  0  0  0  0  0  0  0  0
   -2.1381    2.3174    1.0044 H   0  0  0  0  0  0  0  0  0  0  0  0
   -0.4009    0.2639   -2.3717 C   0  0  0  0  0  3  0  0  0  0  0  0
    0.2868    0.6987   -3.1309 H   0  0  0  0  0  0  0  0  0  0  0  0
   -0.3445   -0.8372   -2.4399 H   0  0  0  0  0  0  0  0  0  0  0  0
   -3.0050   -2.1400   -2.4358 C   0  0  0  0  0  0  0  0  0  0  0  0
   -2.2015   -2.8446   -2.1292 H   0  0  0  0  0  0  0  0  0  0  0  0
   -2.7100   -1.6812   -3.3969 H   0  0  0  0  0  0  0  0  0  0  0  0
   -3.9394   -2.7136   -2.5999 H   0  0  0  0  0  0  0  0  0  0  0  0
   -0.9478    3.9524   -0.7730 C   0  0  0  0  0  0  0  0  0  0  0  0
   -1.7550    4.6482   -1.1020 H   0  0  0  0  0  0  0  0  0  0  0  0
   -0.7900    4.0824    0.3194 H   0  0  0  0  0  0  0  0  0  0  0  0
    0.3394    4.2384   -1.4863 C   0  0  0  0  0  0  0  0  0  0  0  0
    1.1974    3.6284   -1.1473 H   0  0  0  0  0  0  0  0  0  0  0  0
    0.4967    5.1679   -2.4444 C   0  0  0  0  0  0  0  0  0  0  0  0
   -0.3488    5.7859   -2.7919 H   0  0  0  0  0  0  0  0  0  0  0  0
    1.4780    5.3571   -2.9065 H   0  0  0  0  0  0  0  0  0  0  0  0
  1 30  1  0  0  0  0
  1 20  1  0  0  0  0
  2  1  1  0  0  0  0
  3  2  1  0  0  0  0
  4  2  1  0  0  0  0
  5  6  1  6  0  0  0
  5 23  1  0  0  0  0
  5  2  1  0  0  0  0
  5  7  1  0  0  0  0
  7  8  1  0  0  0  0
  7 19  2  0  0  0  0
  8  9  1  0  0  0  0
  9 10  2  0  0  0  0
  9 18  1  0  0  0  0
 10 12  1  0  0  0  0
 11 10  1  0  0  0  0
 12 13  1  0  0  0  0
 12 14  2  0  0  0  0
 14 15  1  0  0  0  0
 16 14  1  0  0  0  0
 16 17  1  0  0  0  0
 18 16  2  0  0  0  0
 19 20  1  0  0  0  0
 19 18  1  0  0  0  0
 20 22  1  0  0  0  0
 21 20  1  0  0  0  0
 24 23  1  0  0  0  0
 25 23  1  0  0  0  0
 26 27  1  0  0  0  0
 26  8  1  0  0  0  0
 28 26  1  0  0  0  0
 29 26  1  0  0  0  0
 30 32  1  0  0  0  0
 31 30  1  0  0  0  0
 33 34  1  0  0  0  0
 33 30  1  0  0  0  0
 35 33  2  0  0  0  0
 36 35  1  0  0  0  0
 37 35  1  0  0  0  0
M  END
