3,5
 OpenBabel05122313053D

 34 35  0  0  0  0  0  0  0  0999 V2000
   -4.8862   -1.3553   -0.0821 O   0  0  0  0  0  0  0  0  0  0  0  0
   -4.0940   -1.8961   -0.3543 H   0  0  0  0  0  0  0  0  0  0  0  0
   -0.6698    1.2426    0.0548 N   0  0  0  0  0  2  0  0  0  0  0  0
   -4.4854   -0.1153    0.2328 C   0  0  0  0  0  0  0  0  0  0  0  0
   -3.1471    0.3552    0.1712 C   0  0  0  0  0  2  0  0  0  0  0  0
   -2.9171    1.7162    0.5489 C   0  0  0  0  0  0  0  0  0  0  0  0
   -3.9441    2.5914    0.9713 C   0  0  0  0  0  0  0  0  0  0  0  0
   -3.7070    3.6290    1.2507 H   0  0  0  0  0  0  0  0  0  0  0  0
   -5.2529    2.1021    1.0217 C   0  0  0  0  0  0  0  0  0  0  0  0
   -6.0817    2.7497    1.3442 H   0  0  0  0  0  0  0  0  0  0  0  0
   -5.5102    0.7753    0.6582 C   0  0  0  0  0  0  0  0  0  0  0  0
   -6.5323    0.3680    0.6895 H   0  0  0  0  0  0  0  0  0  0  0  0
   -1.5455    2.1296    0.4601 C   0  0  0  0  0  0  0  0  0  0  0  0
   -1.2131    3.1547    0.7124 H   0  0  0  0  0  0  0  0  0  0  0  0
    0.7071    1.5869   -0.0533 C   0  0  0  0  0  0  0  0  0  0  0  0
    1.5326    1.5305    1.0967 C   0  0  0  0  0  0  0  0  0  0  0  0
    2.8863    1.8694    0.9505 C   0  0  0  0  0  0  0  0  0  0  0  0
    3.5400    1.8172    1.8360 H   0  0  0  0  0  0  0  0  0  0  0  0
    3.4316    2.2581   -0.2878 C   0  0  0  0  0  0  0  0  0  0  0  0
    2.5794    2.3050   -1.4046 C   0  0  0  0  0  0  0  0  0  0  0  0
    2.9874    2.6052   -2.3835 H   0  0  0  0  0  0  0  0  0  0  0  0
    1.2162    1.9698   -1.3153 C   0  0  0  0  0  0  0  0  0  0  0  0
    0.9613    1.1442    2.4354 C   0  0  0  0  0  0  0  0  0  0  0  0
    1.7622    0.8328    3.1322 H   0  0  0  0  0  0  0  0  0  0  0  0
    0.2318    0.3164    2.3430 H   0  0  0  0  0  0  0  0  0  0  0  0
    0.4162    1.9919    2.9033 H   0  0  0  0  0  0  0  0  0  0  0  0
    4.8979    2.5885   -0.4035 C   0  0  0  0  0  0  0  0  0  0  0  0
    5.1850    3.4096    0.2857 H   0  0  0  0  0  0  0  0  0  0  0  0
    5.1702    2.8968   -1.4313 H   0  0  0  0  0  0  0  0  0  0  0  0
    5.5241    1.7117   -0.1345 H   0  0  0  0  0  0  0  0  0  0  0  0
    0.3046    2.0268   -2.5133 C   0  0  0  0  0  0  0  0  0  0  0  0
   -0.3041    1.1013   -2.6051 H   0  0  0  0  0  0  0  0  0  0  0  0
    0.8758    2.1777   -3.4490 H   0  0  0  0  0  0  0  0  0  0  0  0
   -0.4293    2.8561   -2.4272 H   0  0  0  0  0  0  0  0  0  0  0  0
  1  4  1  0  0  0  0
  2  1  1  0  0  0  0
  3 13  1  0  0  0  0
  4 11  2  0  0  0  0
  5  4  1  0  0  0  0
  5  6  1  0  0  0  0
  6  7  1  0  0  0  0
  7  9  2  0  0  0  0
  7  8  1  0  0  0  0
  9 10  1  0  0  0  0
 11 12  1  0  0  0  0
 11  9  1  0  0  0  0
 13  6  2  0  0  0  0
 13 14  1  0  0  0  0
 15  3  1  0  0  0  0
 15 16  1  0  0  0  0
 16 23  1  0  0  0  0
 17 16  2  0  0  0  0
 17 18  1  0  0  0  0
 19 17  1  0  0  0  0
 20 22  1  0  0  0  0
 20 19  2  0  0  0  0
 21 20  1  0  0  0  0
 22 15  2  0  0  0  0
 23 26  1  0  0  0  0
 23 24  1  0  0  0  0
 25 23  1  0  0  0  0
 27 19  1  0  0  0  0
 27 30  1  0  0  0  0
 27 28  1  0  0  0  0
 29 27  1  0  0  0  0
 31 34  1  0  0  0  0
 31 22  1  0  0  0  0
 32 31  1  0  0  0  0
 33 31  1  0  0  0  0
M  END
