2,52
 OpenBabel05122313053D

 68 70  0  0  1  0  0  0  0  0999 V2000
   -1.3046    0.5644    0.2633 P   0  0  0  0  0  4  0  0  0  0  0  0
   -0.9975   -1.0322    0.0093 N   0  0  0  0  0  2  0  0  0  0  0  0
   -3.0671    0.9839    0.1970 C   0  0  0  0  0  0  0  0  0  0  0  0
   -3.9005    0.1989   -0.6294 C   0  0  0  0  0  0  0  0  0  0  0  0
   -3.4784   -0.6696   -1.1586 H   0  0  0  0  0  0  0  0  0  0  0  0
   -5.2596    0.5185   -0.7414 C   0  0  0  0  0  0  0  0  0  0  0  0
   -5.9165   -0.0933   -1.3773 H   0  0  0  0  0  0  0  0  0  0  0  0
   -5.7849    1.6135   -0.0333 C   0  0  0  0  0  0  0  0  0  0  0  0
   -6.8539    1.8588   -0.1201 H   0  0  0  0  0  0  0  0  0  0  0  0
   -4.9555    2.3893    0.7930 C   0  0  0  0  0  0  0  0  0  0  0  0
   -5.3735    3.2386    1.3534 H   0  0  0  0  0  0  0  0  0  0  0  0
   -3.5935    2.0777    0.9145 C   0  0  0  0  0  0  0  0  0  0  0  0
   -2.9439    2.6758    1.5714 H   0  0  0  0  0  0  0  0  0  0  0  0
   -0.5854    1.3455    1.7417 C   0  0  0  0  0  0  0  0  0  0  0  0
   -0.5486    0.6703    2.9821 C   0  0  0  0  0  0  0  0  0  0  0  0
   -0.9819   -0.3353    3.0855 H   0  0  0  0  0  0  0  0  0  0  0  0
    0.0631    1.2860    4.0835 C   0  0  0  0  0  0  0  0  0  0  0  0
    0.0988    0.7585    5.0481 H   0  0  0  0  0  0  0  0  0  0  0  0
    0.6264    2.5671    3.9598 C   0  0  0  0  0  0  0  0  0  0  0  0
    1.1051    3.0425    4.8289 H   0  0  0  0  0  0  0  0  0  0  0  0
    0.5804    3.2419    2.7292 C   0  0  0  0  0  0  0  0  0  0  0  0
    1.0221    4.2447    2.6283 H   0  0  0  0  0  0  0  0  0  0  0  0
   -0.0206    2.6336    1.6182 C   0  0  0  0  0  0  0  0  0  0  0  0
   -0.0403    3.1581    0.6511 H   0  0  0  0  0  0  0  0  0  0  0  0
   -1.2241   -2.1081    0.8827 C   0  0  0  0  0  0  0  0  0  0  0  0
   -2.3285   -2.1102    1.7743 C   0  0  0  0  0  0  0  0  0  0  0  0
   -3.0276   -1.2602    1.7834 H   0  0  0  0  0  0  0  0  0  0  0  0
   -2.5481   -3.1950    2.6327 C   0  0  0  0  0  0  0  0  0  0  0  0
   -3.4120   -3.1727    3.3144 H   0  0  0  0  0  0  0  0  0  0  0  0
   -1.6909   -4.3081    2.6187 C   0  0  0  0  0  0  0  0  0  0  0  0
   -1.8718   -5.1592    3.2907 H   0  0  0  0  0  0  0  0  0  0  0  0
   -0.6044   -4.3184    1.7314 C   0  0  0  0  0  0  0  0  0  0  0  0
    0.0792   -5.1807    1.7077 H   0  0  0  0  0  0  0  0  0  0  0  0
   -0.3692   -3.2328    0.8751 C   0  0  0  0  0  0  0  0  0  0  0  0
    0.4934   -3.2313    0.1961 H   0  0  0  0  0  0  0  0  0  0  0  0
   -0.4949    1.1572   -1.2303 C   0  0  0  0  0  3  0  0  0  0  0  0
   -1.1816    1.6594   -1.9337 H   0  0  0  0  0  0  0  0  0  0  0  0
    0.9039    1.3161   -1.5214 C   0  0  2  0  0  3  0  0  0  0  0  0
    1.2814    2.2948   -2.6146 C   0  0  0  0  0  0  0  0  0  0  0  0
    0.5028    2.2927   -3.4042 H   0  0  0  0  0  0  0  0  0  0  0  0
    2.2342    1.9825   -3.0901 H   0  0  0  0  0  0  0  0  0  0  0  0
    1.4220    3.7208   -2.0432 C   0  0  0  0  0  0  0  0  0  0  0  0
    1.5944    4.4195   -2.8893 H   0  0  0  0  0  0  0  0  0  0  0  0
    0.4466    4.0261   -1.6002 H   0  0  0  0  0  0  0  0  0  0  0  0
    2.5360    3.8887   -1.0041 C   0  0  0  0  0  0  0  0  0  0  0  0
    3.5114    3.6291   -1.4721 H   0  0  0  0  0  0  0  0  0  0  0  0
    2.3956    3.1561   -0.1787 H   0  0  0  0  0  0  0  0  0  0  0  0
    2.5986    5.3004   -0.4207 C   0  0  0  0  0  0  0  0  0  0  0  0
    3.4183    5.3999    0.3178 H   0  0  0  0  0  0  0  0  0  0  0  0
    1.6500    5.5672    0.0920 H   0  0  0  0  0  0  0  0  0  0  0  0
    2.7670    6.0606   -1.2108 H   0  0  0  0  0  0  0  0  0  0  0  0
    1.9429    0.5017   -0.9434 C   0  0  0  0  0  3  0  0  0  0  0  0
    2.9074    0.5540   -1.4801 H   0  0  0  0  0  0  0  0  0  0  0  0
    1.7785   -0.5130    0.0389 C   0  0  0  0  0  3  0  0  0  0  0  0
    1.1146   -0.3292    0.8963 H   0  0  0  0  0  0  0  0  0  0  0  0
    2.9366   -1.4263    0.3559 C   0  0  0  0  0  0  0  0  0  0  0  0
    3.5317   -1.6286   -0.5608 H   0  0  0  0  0  0  0  0  0  0  0  0
    2.5489   -2.4052    0.7070 H   0  0  0  0  0  0  0  0  0  0  0  0
    3.8428   -0.8328    1.4494 C   0  0  0  0  0  0  0  0  0  0  0  0
    4.2350    0.1506    1.1051 H   0  0  0  0  0  0  0  0  0  0  0  0
    3.2269   -0.6104    2.3495 H   0  0  0  0  0  0  0  0  0  0  0  0
    5.0090   -1.7470    1.8375 C   0  0  0  0  0  0  0  0  0  0  0  0
    5.6145   -1.9699    0.9310 H   0  0  0  0  0  0  0  0  0  0  0  0
    4.6042   -2.7264    2.1761 H   0  0  0  0  0  0  0  0  0  0  0  0
    5.9037   -1.1518    2.9246 C   0  0  0  0  0  0  0  0  0  0  0  0
    6.7367   -1.8344    3.1847 H   0  0  0  0  0  0  0  0  0  0  0  0
    5.3315   -0.9537    3.8546 H   0  0  0  0  0  0  0  0  0  0  0  0
    6.3503   -0.1894    2.5988 H   0  0  0  0  0  0  0  0  0  0  0  0
  1 14  1  0  0  0  0
  2  1  1  0  0  0  0
  2 25  1  0  0  0  0
  3  1  1  0  0  0  0
  3 12  1  0  0  0  0
  4  3  2  0  0  0  0
  5  4  1  0  0  0  0
  6  4  1  0  0  0  0
  6  8  2  0  0  0  0
  7  6  1  0  0  0  0
  8 10  1  0  0  0  0
  9  8  1  0  0  0  0
 10 12  2  0  0  0  0
 10 11  1  0  0  0  0
 12 13  1  0  0  0  0
 14 15  1  0  0  0  0
 15 16  1  0  0  0  0
 15 17  2  0  0  0  0
 17 18  1  0  0  0  0
 19 17  1  0  0  0  0
 19 20  1  0  0  0  0
 21 19  2  0  0  0  0
 22 21  1  0  0  0  0
 23 14  2  0  0  0  0
 23 21  1  0  0  0  0
 24 23  1  0  0  0  0
 25 26  1  0  0  0  0
 26 27  1  0  0  0  0
 26 28  2  0  0  0  0
 28 29  1  0  0  0  0
 30 28  1  0  0  0  0
 30 31  1  0  0  0  0
 32 30  2  0  0  0  0
 33 32  1  0  0  0  0
 34 25  2  0  0  0  0
 34 32  1  0  0  0  0
 35 34  1  0  0  0  0
 36  1  1  0  0  0  0
 37 36  1  0  0  0  0
 38 36  1  6  0  0  0
 38 52  1  0  0  0  0
 39 42  1  0  0  0  0
 39 38  1  0  0  0  0
 40 39  1  0  0  0  0
 41 39  1  0  0  0  0
 42 44  1  0  0  0  0
 42 45  1  0  0  0  0
 43 42  1  0  0  0  0
 45 48  1  0  0  0  0
 45 47  1  0  0  0  0
 46 45  1  0  0  0  0
 48 50  1  0  0  0  0
 48 49  1  0  0  0  0
 51 48  1  0  0  0  0
 52 54  1  0  0  0  0
 53 52  1  0  0  0  0
 54 56  1  0  0  0  0
 54 55  1  0  0  0  0
 56 58  1  0  0  0  0
 56 59  1  0  0  0  0
 57 56  1  0  0  0  0
 59 62  1  0  0  0  0
 59 61  1  0  0  0  0
 60 59  1  0  0  0  0
 62 64  1  0  0  0  0
 62 65  1  0  0  0  0
 63 62  1  0  0  0  0
 65 66  1  0  0  0  0
 65 67  1  0  0  0  0
 68 65  1  0  0  0  0
M  END
