7,15
 OpenBabel05122313053D

 40 40  0  0  1  0  0  0  0  0999 V2000
    2.7032   -1.1500    0.6882 O   0  0  0  0  0  0  0  0  0  0  0  0
    1.4091   -1.8050    2.4350 O   0  0  0  0  0  0  0  0  0  0  0  0
    3.0206    1.8222   -0.2385 O   0  0  0  0  0  0  0  0  0  0  0  0
    2.3737    0.5739   -2.0117 O   0  0  0  0  0  0  0  0  0  0  0  0
    0.2248    3.2596   -0.3259 O   0  0  0  0  0  0  0  0  0  0  0  0
   -0.2057    2.1164    1.5824 O   0  0  0  0  0  0  0  0  0  0  0  0
   -2.0171    0.1306    0.4485 N   0  0  0  0  0  2  0  0  0  0  0  0
   -3.4341    0.2904   -0.0313 C   0  0  0  0  0  0  0  0  0  0  0  0
   -3.8386   -0.8938   -0.9212 C   0  0  0  0  0  0  0  0  0  0  0  0
   -3.4611    1.6126   -0.8256 C   0  0  0  0  0  0  0  0  0  0  0  0
   -4.4367    0.3791    1.1346 C   0  0  0  0  0  0  0  0  0  0  0  0
   -1.7136    0.4665    1.6541 C   0  0  0  0  0  3  0  0  0  0  0  0
   -0.2616    0.7115    1.9887 C   0  0  2  0  0  0  0  0  0  0  0  0
    0.0779    0.6189    3.4623 C   0  0  0  0  0  0  0  0  0  0  0  0
    0.6645   -0.0244    0.9935 C   0  0  2  0  0  3  0  0  0  0  0  0
    1.5969   -1.0692    1.4775 C   0  0  0  0  0  0  0  0  0  0  0  0
    3.5803   -2.2480    0.9544 C   0  0  0  0  0  0  0  0  0  0  0  0
    0.8777    0.9022   -0.1039 C   0  0  2  0  0  3  0  0  0  0  0  0
    2.1467    1.0429   -0.9126 C   0  0  0  0  0  0  0  0  0  0  0  0
    4.2633    2.0672   -0.9069 C   0  0  0  0  0  0  0  0  0  0  0  0
    0.2824    2.2206    0.2861 C   0  0  0  0  0  0  0  0  0  0  0  0
   -3.1834   -0.9951   -1.8038 H   0  0  0  0  0  0  0  0  0  0  0  0
   -4.8736   -0.7362   -1.2822 H   0  0  0  0  0  0  0  0  0  0  0  0
   -3.8141   -1.8467   -0.3582 H   0  0  0  0  0  0  0  0  0  0  0  0
   -4.4903    1.8056   -1.1877 H   0  0  0  0  0  0  0  0  0  0  0  0
   -2.7907    1.5823   -1.7030 H   0  0  0  0  0  0  0  0  0  0  0  0
   -3.1467    2.4605   -0.1853 H   0  0  0  0  0  0  0  0  0  0  0  0
   -4.3121    1.2973    1.7414 H   0  0  0  0  0  0  0  0  0  0  0  0
   -4.3680   -0.5051    1.8000 H   0  0  0  0  0  0  0  0  0  0  0  0
   -5.4612    0.4077    0.7175 H   0  0  0  0  0  0  0  0  0  0  0  0
   -2.4742    0.7835    2.3891 H   0  0  0  0  0  0  0  0  0  0  0  0
   -0.0031   -0.4282    3.8050 H   0  0  0  0  0  0  0  0  0  0  0  0
   -0.6005    1.2712    4.0461 H   0  0  0  0  0  0  0  0  0  0  0  0
    1.1184    0.9563    3.6277 H   0  0  0  0  0  0  0  0  0  0  0  0
    4.3959   -2.1709    0.2139 H   0  0  0  0  0  0  0  0  0  0  0  0
    3.0473   -3.2132    0.8368 H   0  0  0  0  0  0  0  0  0  0  0  0
    3.9815   -2.1927    1.9860 H   0  0  0  0  0  0  0  0  0  0  0  0
    4.8410    2.7352   -0.2439 H   0  0  0  0  0  0  0  0  0  0  0  0
    4.0921    2.5485   -1.8905 H   0  0  0  0  0  0  0  0  0  0  0  0
    4.8094    1.1165   -1.0731 H   0  0  0  0  0  0  0  0  0  0  0  0
  1 17  1  0  0  0  0
  1 16  1  0  0  0  0
  4 19  2  0  0  0  0
  5 21  2  0  0  0  0
  6 13  1  0  0  0  0
  7 12  1  0  0  0  0
  8  7  1  0  0  0  0
  8 11  1  0  0  0  0
  9 24  1  0  0  0  0
  9  8  1  0  0  0  0
 10 27  1  0  0  0  0
 10  8  1  0  0  0  0
 11 28  1  0  0  0  0
 11 29  1  0  0  0  0
 12 31  1  0  0  0  0
 13 12  1  6  0  0  0
 13 14  1  0  0  0  0
 14 34  1  0  0  0  0
 14 32  1  0  0  0  0
 14 33  1  0  0  0  0
 15 16  1  1  0  0  0
 15 13  1  0  0  0  0
 16  2  2  0  0  0  0
 17 37  1  0  0  0  0
 18 19  1  1  0  0  0
 18 21  1  0  0  0  0
 18 15  1  0  0  0  0
 19  3  1  0  0  0  0
 20 38  1  0  0  0  0
 20  3  1  0  0  0  0
 21  6  1  0  0  0  0
 22  9  1  0  0  0  0
 23  9  1  0  0  0  0
 25 10  1  0  0  0  0
 26 10  1  0  0  0  0
 30 11  1  0  0  0  0
 35 17  1  0  0  0  0
 36 17  1  0  0  0  0
 39 20  1  0  0  0  0
 40 20  1  0  0  0  0
M  END
