3,5
 OpenBabel05122313053D

 36 38  0  0  0  0  0  0  0  0999 V2000
  -10.5790    0.6477   -0.0002 O   0  0  0  0  0  0  0  0  0  0  0  0
  -10.3852   -1.5314   -0.0001 O   0  0  0  0  0  0  0  0  0  0  0  0
    1.0046   -0.3664   -0.0001 N   0  0  0  0  0  2  0  0  0  0  0  0
   -9.9182   -0.3916   -0.0001 N   0  0  0  0  0  0  0  0  0  0  0  0
    2.4024    1.8209    0.0000 C   0  0  0  0  0  2  0  0  0  0  0  0
    3.2303    2.9599    0.0001 C   0  0  0  0  0  0  0  0  0  0  0  0
    4.3228    2.8264    0.0001 H   0  0  0  0  0  0  0  0  0  0  0  0
    2.6684    4.2458    0.0001 C   0  0  0  0  0  0  0  0  0  0  0  0
    3.3278    5.1283    0.0002 H   0  0  0  0  0  0  0  0  0  0  0  0
    1.2703    4.4237    0.0001 C   0  0  0  0  0  0  0  0  0  0  0  0
    0.8413    5.4367    0.0001 H   0  0  0  0  0  0  0  0  0  0  0  0
    0.4289    3.3065    0.0000 C   0  0  0  0  0  0  0  0  0  0  0  0
   -0.6636    3.4470   -0.0000 H   0  0  0  0  0  0  0  0  0  0  0  0
    0.9850    2.0096   -0.0000 C   0  0  0  0  0  0  0  0  0  0  0  0
    0.2146    0.7695   -0.0001 C   0  0  0  0  0  0  0  0  0  0  0  0
   -1.1799    0.6446   -0.0003 C   0  0  0  0  0  0  0  0  0  0  0  0
   -1.7813    1.5634   -0.0004 H   0  0  0  0  0  0  0  0  0  0  0  0
   -1.8031   -0.6227   -0.0004 C   0  0  0  0  0  0  0  0  0  0  0  0
   -0.9502   -1.7567   -0.0004 C   0  0  0  0  0  0  0  0  0  0  0  0
   -1.3713   -2.7723   -0.0005 H   0  0  0  0  0  0  0  0  0  0  0  0
    0.4309   -1.5916   -0.0002 C   0  0  0  0  0  0  0  0  0  0  0  0
    1.1370   -2.4360   -0.0002 H   0  0  0  0  0  0  0  0  0  0  0  0
   -3.2492   -0.8143   -0.0005 C   0  0  0  0  0  0  0  0  0  0  0  0
   -3.5728   -1.8685   -0.0012 H   0  0  0  0  0  0  0  0  0  0  0  0
   -4.1968    0.1654    0.0004 C   0  0  0  0  0  0  0  0  0  0  0  0
   -3.8683    1.2183    0.0012 H   0  0  0  0  0  0  0  0  0  0  0  0
   -5.6446   -0.0198    0.0003 C   0  0  0  0  0  0  0  0  0  0  0  0
   -6.4796    1.1281    0.0004 C   0  0  0  0  0  0  0  0  0  0  0  0
   -6.0150    2.1261    0.0006 H   0  0  0  0  0  0  0  0  0  0  0  0
   -7.8715    1.0178    0.0003 C   0  0  0  0  0  0  0  0  0  0  0  0
   -8.5306    1.8959    0.0003 H   0  0  0  0  0  0  0  0  0  0  0  0
   -8.4438   -0.2608    0.0001 C   0  0  0  0  0  0  0  0  0  0  0  0
   -7.6549   -1.4222   -0.0000 C   0  0  0  0  0  0  0  0  0  0  0  0
   -8.1538   -2.4003   -0.0001 H   0  0  0  0  0  0  0  0  0  0  0  0
   -6.2668   -1.2969    0.0001 C   0  0  0  0  0  0  0  0  0  0  0  0
   -5.6520   -2.2084    0.0001 H   0  0  0  0  0  0  0  0  0  0  0  0
  1  4  2  0  0  0  0
  2  4  2  0  0  0  0
  4 32  1  0  0  0  0
  5  6  1  0  0  0  0
  6  7  1  0  0  0  0
  6  8  2  0  0  0  0
  8  9  1  0  0  0  0
 10 11  1  0  0  0  0
 10  8  1  0  0  0  0
 12 10  2  0  0  0  0
 13 12  1  0  0  0  0
 14 12  1  0  0  0  0
 14  5  1  0  0  0  0
 15  3  1  0  0  0  0
 15 14  2  0  0  0  0
 16 15  1  0  0  0  0
 17 16  1  0  0  0  0
 18 16  2  0  0  0  0
 19 18  1  0  0  0  0
 19 21  2  0  0  0  0
 20 19  1  0  0  0  0
 21 22  1  0  0  0  0
 21  3  1  0  0  0  0
 23 18  1  0  0  0  0
 23 25  2  0  0  0  0
 24 23  1  0  0  0  0
 25 26  1  0  0  0  0
 27 25  1  0  0  0  0
 27 28  1  0  0  0  0
 28 29  1  0  0  0  0
 30 31  1  0  0  0  0
 30 28  2  0  0  0  0
 32 30  1  0  0  0  0
 33 32  2  0  0  0  0
 33 35  1  0  0  0  0
 34 33  1  0  0  0  0
 35 36  1  0  0  0  0
 35 27  2  0  0  0  0
M  END
