3,4
 OpenBabel05122313053D

 36 37  0  0  1  0  0  0  0  0999 V2000
    2.0211   -1.8952   -1.3002 O   0  0  0  0  0  0  0  0  0  0  0  0
    2.4101   -3.0896    0.5940 O   0  0  0  0  0  0  0  0  0  0  0  0
    0.7144    0.1059    0.2790 N   0  0  0  0  0  2  0  0  0  0  0  0
   -1.0797    1.9041   -0.2090 C   0  0  0  0  0  3  0  0  0  0  0  0
   -2.0705    2.8941   -0.3517 C   0  0  0  0  0  0  0  0  0  0  0  0
   -3.1263    2.6453   -0.1699 H   0  0  0  0  0  0  0  0  0  0  0  0
   -1.7287    4.2074   -0.7117 C   0  0  0  0  0  0  0  0  0  0  0  0
   -2.5246    4.9602   -0.8303 H   0  0  0  0  0  0  0  0  0  0  0  0
   -0.3841    4.5774   -0.9181 C   0  0  0  0  0  0  0  0  0  0  0  0
   -0.1312    5.6071   -1.2112 H   0  0  0  0  0  0  0  0  0  0  0  0
    0.6257    3.6320   -0.7231 C   0  0  0  0  0  0  0  0  0  0  0  0
    1.6840    3.9088   -0.8469 H   0  0  0  0  0  0  0  0  0  0  0  0
    0.2837    2.3104   -0.3514 C   0  0  0  0  0  0  0  0  0  0  0  0
    1.2446    1.2796   -0.0020 C   0  0  1  0  0  3  0  0  0  0  0  0
    2.7013    1.5593    0.1121 C   0  0  0  0  0  0  0  0  0  0  0  0
    3.1652    2.5060    1.0519 C   0  0  0  0  0  0  0  0  0  0  0  0
    2.4395    3.0200    1.6998 H   0  0  0  0  0  0  0  0  0  0  0  0
    4.5372    2.7711    1.1679 C   0  0  0  0  0  0  0  0  0  0  0  0
    4.8902    3.5025    1.9107 H   0  0  0  0  0  0  0  0  0  0  0  0
    5.4573    2.1065    0.3409 C   0  0  0  0  0  0  0  0  0  0  0  0
    6.5333    2.3197    0.4308 H   0  0  0  0  0  0  0  0  0  0  0  0
    5.0008    1.1718   -0.6023 C   0  0  0  0  0  0  0  0  0  0  0  0
    5.7178    0.6544   -1.2581 H   0  0  0  0  0  0  0  0  0  0  0  0
    3.6309    0.8951   -0.7178 C   0  0  0  0  0  0  0  0  0  0  0  0
    3.2642    0.1650   -1.4542 H   0  0  0  0  0  0  0  0  0  0  0  0
    1.4869   -0.9503    0.8901 C   0  0  0  0  0  0  0  0  0  0  0  0
    0.8645   -1.4316    1.6722 H   0  0  0  0  0  0  0  0  0  0  0  0
    2.3916   -0.5551    1.4044 H   0  0  0  0  0  0  0  0  0  0  0  0
    1.9790   -2.0047   -0.0869 C   0  0  0  0  0  0  0  0  0  0  0  0
    3.0181   -4.1453   -0.1875 C   0  0  0  0  0  0  0  0  0  0  0  0
    2.4578   -4.2525   -1.1384 H   0  0  0  0  0  0  0  0  0  0  0  0
    2.8776   -5.0581    0.4230 H   0  0  0  0  0  0  0  0  0  0  0  0
    4.4880   -3.8614   -0.4475 C   0  0  0  0  0  0  0  0  0  0  0  0
    4.6063   -2.9590   -1.0785 H   0  0  0  0  0  0  0  0  0  0  0  0
    4.9511   -4.7160   -0.9805 H   0  0  0  0  0  0  0  0  0  0  0  0
    5.0366   -3.7067    0.5027 H   0  0  0  0  0  0  0  0  0  0  0  0
  1 29  2  0  0  0  0
  3 26  1  0  0  0  0
  5  4  2  0  0  0  0
  5  6  1  0  0  0  0
  7  5  1  0  0  0  0
  8  7  1  0  0  0  0
  9 11  1  0  0  0  0
  9  7  2  0  0  0  0
 10  9  1  0  0  0  0
 11 13  2  0  0  0  0
 12 11  1  0  0  0  0
 13  4  1  0  0  0  0
 13 14  1  0  0  0  0
 14 15  1  0  0  0  0
 14  3  1  1  0  0  0
 15 16  1  0  0  0  0
 16 18  2  0  0  0  0
 16 17  1  0  0  0  0
 18 19  1  0  0  0  0
 20 21  1  0  0  0  0
 20 18  1  0  0  0  0
 22 20  2  0  0  0  0
 23 22  1  0  0  0  0
 24 22  1  0  0  0  0
 24 15  2  0  0  0  0
 25 24  1  0  0  0  0
 26 28  1  0  0  0  0
 26 27  1  0  0  0  0
 29  2  1  0  0  0  0
 29 26  1  0  0  0  0
 30 32  1  0  0  0  0
 30  2  1  0  0  0  0
 31 30  1  0  0  0  0
 33 30  1  0  0  0  0
 33 36  1  0  0  0  0
 34 33  1  0  0  0  0
 35 33  1  0  0  0  0
M  END
