1,35
 OpenBabel05122313053D

 35 36  0  0  1  0  0  0  0  0999 V2000
    0.5961   -1.1067    0.2848 N   0  0  0  0  0  0  0  0  0  0  0  0
    0.6226   -2.1188    0.4771 H   0  0  0  0  0  0  0  0  0  0  0  0
    1.5937   -0.9026   -0.8372 C   0  0  2  0  0  0  0  0  0  0  0  0
    1.5044    0.1622   -1.1157 H   0  0  0  0  0  0  0  0  0  0  0  0
    1.2394   -1.7770   -2.0366 C   0  0  0  0  0  0  0  0  0  0  0  0
    0.2044   -1.5899   -2.3780 H   0  0  0  0  0  0  0  0  0  0  0  0
    1.3333   -2.8566   -1.7988 H   0  0  0  0  0  0  0  0  0  0  0  0
    1.9390   -1.5667   -2.8678 H   0  0  0  0  0  0  0  0  0  0  0  0
    3.0296   -1.1333   -0.3855 C   0  0  0  0  0  0  0  0  0  0  0  0
    3.9208   -0.0445   -0.3089 C   0  0  0  0  0  0  0  0  0  0  0  0
    3.5654    0.9633   -0.5785 H   0  0  0  0  0  0  0  0  0  0  0  0
    5.2489   -0.2339    0.1038 C   0  0  0  0  0  0  0  0  0  0  0  0
    5.9337    0.6257    0.1554 H   0  0  0  0  0  0  0  0  0  0  0  0
    5.7013   -1.5161    0.4501 C   0  0  0  0  0  0  0  0  0  0  0  0
    6.7415   -1.6666    0.7748 H   0  0  0  0  0  0  0  0  0  0  0  0
    4.8225   -2.6093    0.3754 C   0  0  0  0  0  0  0  0  0  0  0  0
    5.1742   -3.6180    0.6388 H   0  0  0  0  0  0  0  0  0  0  0  0
    3.4978   -2.4187   -0.0436 C   0  0  0  0  0  0  0  0  0  0  0  0
    2.8278   -3.2917   -0.1080 H   0  0  0  0  0  0  0  0  0  0  0  0
    1.0156   -0.4458    1.5871 C   0  0  2  0  0  0  0  0  0  0  0  0
    1.9558    0.1060    1.3864 H   0  0  0  0  0  0  0  0  0  0  0  0
    1.3056   -1.5236    2.6377 C   0  0  0  0  0  0  0  0  0  0  0  0
    2.1324   -2.1877    2.3157 H   0  0  0  0  0  0  0  0  0  0  0  0
    0.3960   -2.1294    2.8344 H   0  0  0  0  0  0  0  0  0  0  0  0
    1.5985   -1.0556    3.5965 H   0  0  0  0  0  0  0  0  0  0  0  0
   -0.0440    0.5178    2.0510 C   0  0  0  0  0  0  0  0  0  0  0  0
    0.2181    1.4074    3.1104 C   0  0  0  0  0  0  0  0  0  0  0  0
    1.2233    1.4359    3.5616 H   0  0  0  0  0  0  0  0  0  0  0  0
   -0.7836    2.2616    3.5907 C   0  0  0  0  0  0  0  0  0  0  0  0
   -0.5695    2.9596    4.4133 H   0  0  0  0  0  0  0  0  0  0  0  0
   -2.0652    2.2069    3.0193 C   0  0  0  0  0  0  0  0  0  0  0  0
   -2.8685    2.8576    3.3974 H   0  0  0  0  0  0  0  0  0  0  0  0
   -2.3254    1.3234    1.9578 C   0  0  0  0  0  0  0  0  0  0  0  0
   -3.3373    1.3091    1.5249 H   0  0  0  0  0  0  0  0  0  0  0  0
   -1.3182    0.4790    1.4390 C   0  0  0  0  0  3  0  0  0  0  0  0
  1  2  1  0  0  0  0
  1 20  1  0  0  0  0
  3  4  1  6  0  0  0
  3  9  1  0  0  0  0
  3  1  1  0  0  0  0
  5  7  1  0  0  0  0
  5  3  1  0  0  0  0
  6  5  1  0  0  0  0
  8  5  1  0  0  0  0
  9 10  2  0  0  0  0
  9 18  1  0  0  0  0
 10 12  1  0  0  0  0
 11 10  1  0  0  0  0
 12 13  1  0  0  0  0
 12 14  2  0  0  0  0
 14 15  1  0  0  0  0
 16 14  1  0  0  0  0
 16 17  1  0  0  0  0
 18 16  2  0  0  0  0
 19 18  1  0  0  0  0
 20 21  1  6  0  0  0
 20 26  1  0  0  0  0
 20 22  1  0  0  0  0
 22 24  1  0  0  0  0
 22 25  1  0  0  0  0
 23 22  1  0  0  0  0
 26 27  1  0  0  0  0
 27 28  1  0  0  0  0
 27 29  2  0  0  0  0
 29 30  1  0  0  0  0
 31 32  1  0  0  0  0
 31 29  1  0  0  0  0
 33 31  2  0  0  0  0
 34 33  1  0  0  0  0
 35 33  1  0  0  0  0
 35 26  2  0  0  0  0
M  END
