3,4
 OpenBabel05122313053D

 59 62  0  0  1  0  0  0  0  0999 V2000
   -2.5661   -1.3662    0.4099 N   0  0  0  0  0  0  0  0  0  0  0  0
   -1.0667   -2.8668   -0.0054 N   0  0  0  0  0  0  0  0  0  0  0  0
    1.5613   -1.5026    0.2223 N   0  0  0  0  0  2  0  0  0  0  0  0
   -1.3011   -1.5238   -0.0855 C   0  0  0  0  0  2  0  0  0  0  0  0
   -3.1028   -2.5906    0.7905 C   0  0  0  0  0  0  0  0  0  0  0  0
   -4.1088   -2.6709    1.2126 H   0  0  0  0  0  0  0  0  0  0  0  0
   -2.1512   -3.5439    0.5310 C   0  0  0  0  0  0  0  0  0  0  0  0
   -2.1619   -4.6289    0.6725 H   0  0  0  0  0  0  0  0  0  0  0  0
    0.2012   -3.4410   -0.4468 C   0  0  0  0  0  0  0  0  0  0  0  0
    0.3214   -3.2327   -1.5314 H   0  0  0  0  0  0  0  0  0  0  0  0
    0.1630   -4.5348   -0.3010 H   0  0  0  0  0  0  0  0  0  0  0  0
    1.3636   -2.8499    0.3189 C   0  0  2  0  0  3  0  0  0  0  0  0
    2.1923   -3.6674    1.0924 C   0  0  0  0  0  0  0  0  0  0  0  0
    1.9973   -4.7480    1.1399 H   0  0  0  0  0  0  0  0  0  0  0  0
    3.2578   -3.0921    1.7983 C   0  0  0  0  0  0  0  0  0  0  0  0
    3.9167   -3.7119    2.4241 H   0  0  0  0  0  0  0  0  0  0  0  0
    3.4591   -1.7164    1.6915 C   0  0  0  0  0  0  0  0  0  0  0  0
    4.2774   -1.2163    2.2272 H   0  0  0  0  0  0  0  0  0  0  0  0
    2.6070   -0.9264    0.8923 C   0  0  0  0  0  0  0  0  0  0  0  0
    2.8927    0.5277    0.7550 C   0  0  0  0  0  0  0  0  0  0  0  0
    4.0456    0.9152    0.0131 C   0  0  0  0  0  0  0  0  0  0  0  0
    4.3394    2.2815   -0.1000 C   0  0  0  0  0  0  0  0  0  0  0  0
    5.2133    2.5852   -0.6979 H   0  0  0  0  0  0  0  0  0  0  0  0
    3.5513    3.2721    0.5191 C   0  0  0  0  0  0  0  0  0  0  0  0
    2.4383    2.8560    1.2693 C   0  0  0  0  0  0  0  0  0  0  0  0
    1.8186    3.6130    1.7756 H   0  0  0  0  0  0  0  0  0  0  0  0
    2.0889    1.5006    1.4022 C   0  0  0  0  0  0  0  0  0  0  0  0
    4.9181   -0.1018   -0.6832 C   0  0  0  0  0  0  0  0  0  0  0  0
    4.3238   -0.8516   -1.2439 H   0  0  0  0  0  0  0  0  0  0  0  0
    5.5499   -0.6669    0.0336 H   0  0  0  0  0  0  0  0  0  0  0  0
    5.6000    0.3911   -1.4010 H   0  0  0  0  0  0  0  0  0  0  0  0
    3.9058    4.7285    0.3799 C   0  0  0  0  0  0  0  0  0  0  0  0
    3.1823    5.3813    0.9035 H   0  0  0  0  0  0  0  0  0  0  0  0
    3.9332    5.0312   -0.6872 H   0  0  0  0  0  0  0  0  0  0  0  0
    4.9146    4.9337    0.7942 H   0  0  0  0  0  0  0  0  0  0  0  0
    0.8736    1.1221    2.2098 C   0  0  0  0  0  0  0  0  0  0  0  0
    0.6739    1.8674    3.0034 H   0  0  0  0  0  0  0  0  0  0  0  0
    0.9747    0.1284    2.6887 H   0  0  0  0  0  0  0  0  0  0  0  0
   -0.0243    1.0825    1.5560 H   0  0  0  0  0  0  0  0  0  0  0  0
   -3.2615   -0.1085    0.5312 C   0  0  0  0  0  0  0  0  0  0  0  0
   -4.0849    0.3113   -0.5387 C   0  0  0  0  0  0  0  0  0  0  0  0
   -4.7250    1.5540   -0.4097 C   0  0  0  0  0  0  0  0  0  0  0  0
   -5.3579    1.9090   -1.2382 H   0  0  0  0  0  0  0  0  0  0  0  0
   -4.5787    2.3559    0.7398 C   0  0  0  0  0  0  0  0  0  0  0  0
   -3.7848    1.8717    1.7955 C   0  0  0  0  0  0  0  0  0  0  0  0
   -3.6834    2.4733    2.7125 H   0  0  0  0  0  0  0  0  0  0  0  0
   -3.1212    0.6333    1.7242 C   0  0  0  0  0  0  0  0  0  0  0  0
   -4.2948   -0.5495   -1.7581 C   0  0  0  0  0  0  0  0  0  0  0  0
   -4.6731    0.0512   -2.6057 H   0  0  0  0  0  0  0  0  0  0  0  0
   -5.0421   -1.3464   -1.5560 H   0  0  0  0  0  0  0  0  0  0  0  0
   -3.3667   -1.0575   -2.0859 H   0  0  0  0  0  0  0  0  0  0  0  0
   -5.2542    3.6993    0.8243 C   0  0  0  0  0  0  0  0  0  0  0  0
   -6.3149    3.6384    0.5086 H   0  0  0  0  0  0  0  0  0  0  0  0
   -4.7608    4.4300    0.1491 H   0  0  0  0  0  0  0  0  0  0  0  0
   -5.2207    4.1139    1.8495 H   0  0  0  0  0  0  0  0  0  0  0  0
   -2.3640    0.0946    2.9109 C   0  0  0  0  0  0  0  0  0  0  0  0
   -1.5137   -0.5495    2.6189 H   0  0  0  0  0  0  0  0  0  0  0  0
   -3.0332   -0.5202    3.5505 H   0  0  0  0  0  0  0  0  0  0  0  0
   -1.9757    0.9149    3.5432 H   0  0  0  0  0  0  0  0  0  0  0  0
  1 40  1  0  0  0  0
  1  5  1  0  0  0  0
  2  7  1  0  0  0  0
  3 12  1  0  0  0  0
  3 19  1  0  0  0  0
  4  2  1  0  0  0  0
  4  1  1  0  0  0  0
  5  6  1  0  0  0  0
  7  8  1  0  0  0  0
  7  5  2  0  0  0  0
  9 11  1  0  0  0  0
  9  2  1  0  0  0  0
 10  9  1  0  0  0  0
 12  9  1  1  0  0  0
 12 13  1  0  0  0  0
 13 14  1  0  0  0  0
 13 15  2  0  0  0  0
 15 16  1  0  0  0  0
 17 15  1  0  0  0  0
 17 18  1  0  0  0  0
 19 17  2  0  0  0  0
 20 19  1  0  0  0  0
 20 27  1  0  0  0  0
 21 20  2  0  0  0  0
 22 21  1  0  0  0  0
 22 24  2  0  0  0  0
 23 22  1  0  0  0  0
 24 25  1  0  0  0  0
 25 27  2  0  0  0  0
 25 26  1  0  0  0  0
 27 36  1  0  0  0  0
 28 21  1  0  0  0  0
 28 30  1  0  0  0  0
 29 28  1  0  0  0  0
 31 28  1  0  0  0  0
 32 24  1  0  0  0  0
 32 35  1  0  0  0  0
 32 33  1  0  0  0  0
 34 32  1  0  0  0  0
 36 38  1  0  0  0  0
 36 37  1  0  0  0  0
 39 36  1  0  0  0  0
 40 47  1  0  0  0  0
 41 42  1  0  0  0  0
 41 40  2  0  0  0  0
 42 44  2  0  0  0  0
 43 42  1  0  0  0  0
 44 52  1  0  0  0  0
 44 45  1  0  0  0  0
 45 46  1  0  0  0  0
 47 45  2  0  0  0  0
 47 56  1  0  0  0  0
 48 50  1  0  0  0  0
 48 41  1  0  0  0  0
 49 48  1  0  0  0  0
 51 48  1  0  0  0  0
 52 55  1  0  0  0  0
 53 52  1  0  0  0  0
 54 52  1  0  0  0  0
 56 59  1  0  0  0  0
 56 58  1  0  0  0  0
 57 56  1  0  0  0  0
M  END
