2,4
 OpenBabel05122313053D

 24 23  0  0  0  0  0  0  0  0999 V2000
    4.4223    0.1504   -0.3544 Si  0  0  0  0  0  0  0  0  0  0  0  0
    0.7557   -0.1288    1.2669 N   0  0  0  0  0  2  0  0  0  0  0  0
    2.0725   -0.1486    1.1032 N   0  0  0  0  0  0  0  0  0  0  0  0
   -1.3208   -0.4586    2.3264 C   0  0  0  0  0  3  0  0  0  0  0  0
    0.1670   -0.7034    2.4039 C   0  0  0  0  0  0  0  0  0  0  0  0
    0.8241   -1.4358    3.3500 C   0  0  0  0  0  0  0  0  0  0  0  0
    2.5684    0.1068   -0.0804 C   0  0  0  0  0  0  0  0  0  0  0  0
    4.8222   -0.8904   -1.8925 C   0  0  0  0  0  0  0  0  0  0  0  0
    5.2793   -0.5393    1.1794 C   0  0  0  0  0  0  0  0  0  0  0  0
    4.9780    1.9373   -0.6836 C   0  0  0  0  0  0  0  0  0  0  0  0
   -1.9107   -1.3093    2.7061 H   0  0  0  0  0  0  0  0  0  0  0  0
   -1.6155    0.4402    2.8937 H   0  0  0  0  0  0  0  0  0  0  0  0
    0.2751   -1.8268    4.2176 H   0  0  0  0  0  0  0  0  0  0  0  0
    1.9149   -1.5623    3.2959 H   0  0  0  0  0  0  0  0  0  0  0  0
    1.8564    0.3115   -0.9194 H   0  0  0  0  0  0  0  0  0  0  0  0
    4.2703   -0.5146   -2.7795 H   0  0  0  0  0  0  0  0  0  0  0  0
    4.5354   -1.9514   -1.7400 H   0  0  0  0  0  0  0  0  0  0  0  0
    5.9050   -0.8608   -2.1338 H   0  0  0  0  0  0  0  0  0  0  0  0
    5.0020   -1.6018    1.3329 H   0  0  0  0  0  0  0  0  0  0  0  0
    6.3836   -0.4719    1.1003 H   0  0  0  0  0  0  0  0  0  0  0  0
    4.9519    0.0199    2.0787 H   0  0  0  0  0  0  0  0  0  0  0  0
    6.0683    1.9930   -0.8847 H   0  0  0  0  0  0  0  0  0  0  0  0
    4.7557    2.5842    0.1897 H   0  0  0  0  0  0  0  0  0  0  0  0
    4.4505    2.3633   -1.5625 H   0  0  0  0  0  0  0  0  0  0  0  0
  1  7  1  0  0  0  0
  1  9  1  0  0  0  0
  2  5  1  0  0  0  0
  3  2  1  0  0  0  0
  4  5  1  0  0  0  0
  4 11  1  0  0  0  0
  4 12  1  0  0  0  0
  5  6  2  0  0  0  0
  6 13  1  0  0  0  0
  7  3  2  0  0  0  0
  8 17  1  0  0  0  0
  8  1  1  0  0  0  0
  9 19  1  0  0  0  0
  9 21  1  0  0  0  0
 10  1  1  0  0  0  0
 10 23  1  0  0  0  0
 14  6  1  0  0  0  0
 15  7  1  0  0  0  0
 16  8  1  0  0  0  0
 18  8  1  0  0  0  0
 20  9  1  0  0  0  0
 22 10  1  0  0  0  0
 24 10  1  0  0  0  0
M  END
