7,9
 OpenBabel05122313053D

 43 44  0  0  0  0  0  0  0  0999 V2000
   -3.5085   -1.7981   -0.8742 F   0  0  0  0  0  0  0  0  0  0  0  0
   -1.8203   -1.8875   -2.2613 F   0  0  0  0  0  0  0  0  0  0  0  0
   -2.3397   -3.6163   -1.0453 F   0  0  0  0  0  0  0  0  0  0  0  0
   -2.9529   -1.3246    1.7313 F   0  0  0  0  0  0  0  0  0  0  0  0
   -0.8740   -1.5010    2.3764 F   0  0  0  0  0  0  0  0  0  0  0  0
   -1.9908   -3.2686    1.7643 F   0  0  0  0  0  0  0  0  0  0  0  0
    0.9648   -0.4691   -0.2870 N   0  0  0  0  0  2  0  0  0  0  0  0
   -0.0607   -2.5460   -0.0879 N   0  0  0  0  0  0  0  0  0  0  0  0
   -1.2511   -1.7678    0.0404 C   0  0  0  0  0  3  0  0  0  0  0  0
    1.0308   -1.8453   -0.1812 C   0  0  0  0  0  0  0  0  0  0  0  0
   -2.2324   -2.2729   -1.0301 C   0  0  0  0  0  0  0  0  0  0  0  0
   -1.7788   -1.9645    1.4723 C   0  0  0  0  0  0  0  0  0  0  0  0
    2.1213    0.3507   -0.2322 C   0  0  0  0  0  0  0  0  0  0  0  0
    2.4934    1.0879   -1.3906 C   0  0  0  0  0  0  0  0  0  0  0  0
    3.6274    1.9150   -1.3381 C   0  0  0  0  0  0  0  0  0  0  0  0
    3.9245    2.4665   -2.2461 H   0  0  0  0  0  0  0  0  0  0  0  0
    4.4030    2.0443   -0.1677 C   0  0  0  0  0  0  0  0  0  0  0  0
    3.9963    1.3287    0.9722 C   0  0  0  0  0  0  0  0  0  0  0  0
    4.5757    1.4298    1.9050 H   0  0  0  0  0  0  0  0  0  0  0  0
    2.8650    0.4898    0.9687 C   0  0  0  0  0  0  0  0  0  0  0  0
    2.3271   -2.5929   -0.1902 C   0  0  0  0  0  0  0  0  0  0  0  0
    3.4384   -2.2205   -0.9746 C   0  0  0  0  0  0  0  0  0  0  0  0
    3.3848   -1.3379   -1.6242 H   0  0  0  0  0  0  0  0  0  0  0  0
    4.6164   -2.9817   -0.9427 C   0  0  0  0  0  0  0  0  0  0  0  0
    5.4727   -2.6811   -1.5655 H   0  0  0  0  0  0  0  0  0  0  0  0
    4.7045   -4.1195   -0.1264 C   0  0  0  0  0  0  0  0  0  0  0  0
    5.6335   -4.7097   -0.0984 H   0  0  0  0  0  0  0  0  0  0  0  0
    3.5974   -4.5064    0.6472 C   0  0  0  0  0  0  0  0  0  0  0  0
    3.6532   -5.4042    1.2818 H   0  0  0  0  0  0  0  0  0  0  0  0
    2.4171   -3.7539    0.6099 C   0  0  0  0  0  0  0  0  0  0  0  0
    1.5319   -4.0470    1.1924 H   0  0  0  0  0  0  0  0  0  0  0  0
    1.6822    0.9566   -2.6514 C   0  0  0  0  0  0  0  0  0  0  0  0
    2.1380    1.5207   -3.4878 H   0  0  0  0  0  0  0  0  0  0  0  0
    0.6446    1.3247   -2.5014 H   0  0  0  0  0  0  0  0  0  0  0  0
    1.5727   -0.1059   -2.9515 H   0  0  0  0  0  0  0  0  0  0  0  0
    5.6358    2.9138   -0.1510 C   0  0  0  0  0  0  0  0  0  0  0  0
    6.4782    2.4274   -0.6883 H   0  0  0  0  0  0  0  0  0  0  0  0
    5.9787    3.1172    0.8824 H   0  0  0  0  0  0  0  0  0  0  0  0
    5.4581    3.8875   -0.6523 H   0  0  0  0  0  0  0  0  0  0  0  0
    2.4399   -0.2380    2.2142 C   0  0  0  0  0  0  0  0  0  0  0  0
    2.7303   -1.3095    2.1726 H   0  0  0  0  0  0  0  0  0  0  0  0
    1.3376   -0.2266    2.3255 H   0  0  0  0  0  0  0  0  0  0  0  0
    2.9061    0.2025    3.1166 H   0  0  0  0  0  0  0  0  0  0  0  0
  2 11  1  0  0  0  0
  3 11  1  0  0  0  0
  7 13  1  0  0  0  0
  7 10  1  0  0  0  0
  8  9  1  0  0  0  0
  9 12  1  0  0  0  0
 10  8  2  0  0  0  0
 11  1  1  0  0  0  0
 11  9  1  0  0  0  0
 12  4  1  0  0  0  0
 12  6  1  0  0  0  0
 12  5  1  0  0  0  0
 13 20  1  0  0  0  0
 14 15  1  0  0  0  0
 14 13  2  0  0  0  0
 15 17  2  0  0  0  0
 16 15  1  0  0  0  0
 17 36  1  0  0  0  0
 17 18  1  0  0  0  0
 18 19  1  0  0  0  0
 20 18  2  0  0  0  0
 20 40  1  0  0  0  0
 21 10  1  0  0  0  0
 21 30  1  0  0  0  0
 22 24  1  0  0  0  0
 22 21  2  0  0  0  0
 23 22  1  0  0  0  0
 24 26  2  0  0  0  0
 25 24  1  0  0  0  0
 26 27  1  0  0  0  0
 26 28  1  0  0  0  0
 28 29  1  0  0  0  0
 30 28  2  0  0  0  0
 30 31  1  0  0  0  0
 32 34  1  0  0  0  0
 32 14  1  0  0  0  0
 33 32  1  0  0  0  0
 35 32  1  0  0  0  0
 36 38  1  0  0  0  0
 37 36  1  0  0  0  0
 39 36  1  0  0  0  0
 40 42  1  0  0  0  0
 40 43  1  0  0  0  0
 41 40  1  0  0  0  0
M  END
