2,3
 OpenBabel05122313053D

 38 39  0  0  0  0  0  0  0  0999 V2000
   -1.6981    1.6511   -0.0690 Si  0  0  0  0  0  0  0  0  0  0  0  0
   -1.5879   -0.1279    0.0533 N   0  0  0  0  0  2  0  0  0  0  0  0
    0.1764    1.8100   -0.1714 C   0  0  0  0  0  3  0  0  0  0  0  0
    0.8936    1.3021   -1.3057 C   0  0  0  0  0  3  0  0  0  0  0  0
    2.1954    0.8672   -0.8796 C   0  0  0  0  0  0  0  0  0  0  0  0
    3.2903    0.2771   -1.5738 C   0  0  0  0  0  0  0  0  0  0  0  0
    4.4107   -0.0946   -0.8482 C   0  0  0  0  0  0  0  0  0  0  0  0
    4.4757    0.0841    0.5688 C   0  0  0  0  0  0  0  0  0  0  0  0
    3.4214    0.6391    1.2763 C   0  0  0  0  0  0  0  0  0  0  0  0
    2.2633    1.0526    0.5579 C   0  0  0  0  0  0  0  0  0  0  0  0
    1.0046    1.6035    0.9792 C   0  0  0  0  0  3  0  0  0  0  0  0
   -2.3628    2.4911    1.4799 C   0  0  0  0  0  0  0  0  0  0  0  0
   -2.5522    2.2780   -1.6261 C   0  0  0  0  0  0  0  0  0  0  0  0
   -2.7083   -1.1048   -0.0083 C   0  0  0  0  0  0  0  0  0  0  0  0
   -3.9344   -0.5258    0.7217 C   0  0  0  0  0  0  0  0  0  0  0  0
   -3.0471   -1.3633   -1.4901 C   0  0  0  0  0  0  0  0  0  0  0  0
   -2.3054   -2.4280    0.6668 C   0  0  0  0  0  0  0  0  0  0  0  0
    0.5074    1.2328   -2.3307 H   0  0  0  0  0  0  0  0  0  0  0  0
    3.2355    0.1192   -2.6604 H   0  0  0  0  0  0  0  0  0  0  0  0
    5.2681   -0.5499   -1.3665 H   0  0  0  0  0  0  0  0  0  0  0  0
    5.3810   -0.2388    1.1046 H   0  0  0  0  0  0  0  0  0  0  0  0
    3.4659    0.7582    2.3683 H   0  0  0  0  0  0  0  0  0  0  0  0
    0.7202    1.8048    2.0196 H   0  0  0  0  0  0  0  0  0  0  0  0
   -2.1054    3.5705    1.4611 H   0  0  0  0  0  0  0  0  0  0  0  0
   -3.4639    2.4025    1.5596 H   0  0  0  0  0  0  0  0  0  0  0  0
   -1.9165    2.0411    2.3891 H   0  0  0  0  0  0  0  0  0  0  0  0
   -2.4001    3.3735   -1.7182 H   0  0  0  0  0  0  0  0  0  0  0  0
   -3.6440    2.0879   -1.6003 H   0  0  0  0  0  0  0  0  0  0  0  0
   -2.1401    1.7913   -2.5321 H   0  0  0  0  0  0  0  0  0  0  0  0
   -4.2940    0.4062    0.2381 H   0  0  0  0  0  0  0  0  0  0  0  0
   -4.7719   -1.2517    0.7005 H   0  0  0  0  0  0  0  0  0  0  0  0
   -3.6954   -0.3043    1.7808 H   0  0  0  0  0  0  0  0  0  0  0  0
   -3.3901   -0.4360   -1.9901 H   0  0  0  0  0  0  0  0  0  0  0  0
   -2.1518   -1.7383   -2.0236 H   0  0  0  0  0  0  0  0  0  0  0  0
   -3.8535   -2.1197   -1.5782 H   0  0  0  0  0  0  0  0  0  0  0  0
   -3.1503   -3.1446    0.6269 H   0  0  0  0  0  0  0  0  0  0  0  0
   -1.4414   -2.8916    0.1506 H   0  0  0  0  0  0  0  0  0  0  0  0
   -2.0262   -2.2640    1.7250 H   0  0  0  0  0  0  0  0  0  0  0  0
  1  2  1  0  0  0  0
  1 12  1  0  0  0  0
  3  1  1  0  0  0  0
  3 11  1  0  0  0  0
  4  5  1  0  0  0  0
  4  3  1  0  0  0  0
  5 10  1  0  0  0  0
  6  5  2  0  0  0  0
  6  7  1  0  0  0  0
  7  8  2  0  0  0  0
  8 21  1  0  0  0  0
  8  9  1  0  0  0  0
  9 22  1  0  0  0  0
 10 11  1  0  0  0  0
 10  9  2  0  0  0  0
 11 23  1  0  0  0  0
 12 25  1  0  0  0  0
 12 26  1  0  0  0  0
 13 28  1  0  0  0  0
 13  1  1  0  0  0  0
 14  2  1  0  0  0  0
 14 17  1  0  0  0  0
 14 15  1  0  0  0  0
 15 32  1  0  0  0  0
 16 14  1  0  0  0  0
 17 38  1  0  0  0  0
 18  4  1  0  0  0  0
 19  6  1  0  0  0  0
 20  7  1  0  0  0  0
 24 12  1  0  0  0  0
 27 13  1  0  0  0  0
 29 13  1  0  0  0  0
 30 15  1  0  0  0  0
 31 15  1  0  0  0  0
 33 16  1  0  0  0  0
 34 16  1  0  0  0  0
 35 16  1  0  0  0  0
 36 17  1  0  0  0  0
 37 17  1  0  0  0  0
M  END
