1,37
 OpenBabel05122313053D

 37 38  0  0  1  0  0  0  0  0999 V2000
   -0.7591    0.5712    0.1511 C   0  0  0  0  0  3  0  0  0  0  0  0
   -1.2523    1.9109    0.3207 C   0  0  0  0  0  0  0  0  0  0  0  0
   -0.3412    3.0754    0.6048 C   0  0  0  0  0  0  0  0  0  0  0  0
   -0.9237    3.9941    0.8111 H   0  0  0  0  0  0  0  0  0  0  0  0
    0.3537    3.2579   -0.2373 H   0  0  0  0  0  0  0  0  0  0  0  0
    0.3102    2.8642    1.4774 H   0  0  0  0  0  0  0  0  0  0  0  0
   -2.6280    2.1219    0.2368 C   0  0  0  0  0  0  0  0  0  0  0  0
   -3.0178    3.1460    0.3615 H   0  0  0  0  0  0  0  0  0  0  0  0
   -3.5633    1.0755    0.0039 C   0  0  0  0  0  0  0  0  0  0  0  0
   -4.9635    1.3238   -0.0891 C   0  0  0  0  0  0  0  0  0  0  0  0
   -5.3151    2.3638    0.0121 H   0  0  0  0  0  0  0  0  0  0  0  0
   -5.8847    0.3035   -0.3028 C   0  0  0  0  0  0  0  0  0  0  0  0
   -7.3643    0.5730   -0.4061 C   0  0  0  0  0  0  0  0  0  0  0  0
   -7.5939    1.6485   -0.2784 H   0  0  0  0  0  0  0  0  0  0  0  0
   -7.9329    0.0096    0.3638 H   0  0  0  0  0  0  0  0  0  0  0  0
   -7.7647    0.2551   -1.3922 H   0  0  0  0  0  0  0  0  0  0  0  0
   -5.3913   -1.0298   -0.4270 C   0  0  0  0  0  0  0  0  0  0  0  0
   -6.1062   -1.8510   -0.5971 H   0  0  0  0  0  0  0  0  0  0  0  0
   -4.0362   -1.3107   -0.3405 C   0  0  0  0  0  0  0  0  0  0  0  0
   -3.7013   -2.3532   -0.4494 H   0  0  0  0  0  0  0  0  0  0  0  0
   -3.0777   -0.2741   -0.1241 C   0  0  0  0  0  0  0  0  0  0  0  0
   -1.6654   -0.4845   -0.0283 C   0  0  0  0  0  0  0  0  0  0  0  0
   -1.0596   -1.8652   -0.1460 C   0  0  1  0  0  0  0  0  0  0  0  0
   -1.7377   -2.6436    0.2767 H   0  0  0  0  0  0  0  0  0  0  0  0
   -0.7639   -2.2123   -1.6086 C   0  0  0  0  0  0  0  0  0  0  0  0
    0.0013   -1.5186   -2.0143 H   0  0  0  0  0  0  0  0  0  0  0  0
   -1.6917   -2.0645   -2.1935 H   0  0  0  0  0  0  0  0  0  0  0  0
   -0.4364   -3.2606   -1.7563 H   0  0  0  0  0  0  0  0  0  0  0  0
    1.0314   -3.0427    0.4949 C   0  0  0  0  0  0  0  0  0  0  0  0
    1.8774   -3.0283    1.2080 H   0  0  0  0  0  0  0  0  0  0  0  0
    1.4310   -3.0472   -0.5332 H   0  0  0  0  0  0  0  0  0  0  0  0
    0.4505   -3.9782    0.6650 H   0  0  0  0  0  0  0  0  0  0  0  0
   -0.2080   -1.8232    2.1510 C   0  0  0  0  0  0  0  0  0  0  0  0
   -0.7129   -2.7756    2.4333 H   0  0  0  0  0  0  0  0  0  0  0  0
   -0.8958   -0.9775    2.3218 H   0  0  0  0  0  0  0  0  0  0  0  0
    0.6923   -1.6875    2.7787 H   0  0  0  0  0  0  0  0  0  0  0  0
    0.1874   -1.8555    0.7203 N   0  0  0  0  0  0  0  0  0  0  0  0
  1  2  1  0  0  0  0
  2  3  1  0  0  0  0
  3  4  1  0  0  0  0
  3  6  1  0  0  0  0
  5  3  1  0  0  0  0
  7  2  2  0  0  0  0
  7  8  1  0  0  0  0
  9  7  1  0  0  0  0
 10  9  1  0  0  0  0
 10 11  1  0  0  0  0
 12 10  2  0  0  0  0
 13 12  1  0  0  0  0
 13 14  1  0  0  0  0
 13 15  1  0  0  0  0
 16 13  1  0  0  0  0
 17 19  2  0  0  0  0
 17 12  1  0  0  0  0
 18 17  1  0  0  0  0
 19 21  1  0  0  0  0
 20 19  1  0  0  0  0
 21 22  1  0  0  0  0
 21  9  2  0  0  0  0
 22  1  2  0  0  0  0
 23 22  1  0  0  0  0
 23 24  1  1  0  0  0
 23 37  1  0  0  0  0
 25 23  1  0  0  0  0
 26 25  1  0  0  0  0
 27 25  1  0  0  0  0
 28 25  1  0  0  0  0
 29 32  1  0  0  0  0
 29 37  1  0  0  0  0
 29 30  1  0  0  0  0
 31 29  1  0  0  0  0
 33 35  1  0  0  0  0
 33 34  1  0  0  0  0
 33 36  1  0  0  0  0
 37 33  1  0  0  0  0
M  END
