1,25
 OpenBabel05122313053D

 37 39  0  0  1  0  0  0  0  0999 V2000
    0.4675    0.0976   -0.1701 C   0  0  0  0  0  3  0  0  0  0  0  0
    1.2572    1.2684   -0.4654 C   0  0  0  0  0  0  0  0  0  0  0  0
    0.6944    2.4683   -0.9857 C   0  0  0  0  0  0  0  0  0  0  0  0
   -0.3777    2.4849   -1.2221 H   0  0  0  0  0  0  0  0  0  0  0  0
    1.4774    3.5873   -1.2472 C   0  0  0  0  0  0  0  0  0  0  0  0
    1.0203    4.4953   -1.6690 H   0  0  0  0  0  0  0  0  0  0  0  0
    2.8668    3.5427   -0.9962 C   0  0  0  0  0  0  0  0  0  0  0  0
    3.4937    4.4252   -1.1917 H   0  0  0  0  0  0  0  0  0  0  0  0
    3.4514    2.3660   -0.5399 C   0  0  0  0  0  0  0  0  0  0  0  0
    4.5401    2.3421   -0.3979 H   0  0  0  0  0  0  0  0  0  0  0  0
    2.6864    1.1958   -0.2863 C   0  0  0  0  0  0  0  0  0  0  0  0
    3.3081   -0.0678    0.0975 C   0  0  0  0  0  0  0  0  0  0  0  0
    4.7051   -0.1908    0.3195 C   0  0  0  0  0  0  0  0  0  0  0  0
    5.3483    0.6966    0.2513 H   0  0  0  0  0  0  0  0  0  0  0  0
    5.2921   -1.4158    0.6214 C   0  0  0  0  0  0  0  0  0  0  0  0
    6.3777   -1.4762    0.7878 H   0  0  0  0  0  0  0  0  0  0  0  0
    4.4969   -2.5790    0.7089 C   0  0  0  0  0  0  0  0  0  0  0  0
    4.9601   -3.5499    0.9392 H   0  0  0  0  0  0  0  0  0  0  0  0
    3.1236   -2.4931    0.5085 C   0  0  0  0  0  0  0  0  0  0  0  0
    2.5164   -3.4058    0.5920 H   0  0  0  0  0  0  0  0  0  0  0  0
    2.4976   -1.2487    0.2143 C   0  0  0  0  0  0  0  0  0  0  0  0
    1.0659   -1.1287    0.0643 C   0  0  0  0  0  0  0  0  0  0  0  0
    0.1387   -2.3152    0.1827 C   0  0  2  0  0  0  0  0  0  0  0  0
    0.5941   -3.2255   -0.2700 H   0  0  0  0  0  0  0  0  0  0  0  0
   -1.0827   -1.9779   -0.6713 N   0  0  0  0  0  0  0  0  0  0  0  0
   -0.2184   -2.6130    1.6418 C   0  0  0  0  0  0  0  0  0  0  0  0
   -0.7849   -3.5552    1.7700 H   0  0  0  0  0  0  0  0  0  0  0  0
   -0.7918   -1.7706    2.0807 H   0  0  0  0  0  0  0  0  0  0  0  0
    0.7212   -2.7069    2.2184 H   0  0  0  0  0  0  0  0  0  0  0  0
   -2.1968   -2.9256   -0.4390 C   0  0  0  0  0  0  0  0  0  0  0  0
   -2.5819   -2.8348    0.5903 H   0  0  0  0  0  0  0  0  0  0  0  0
   -1.8485   -3.9673   -0.6113 H   0  0  0  0  0  0  0  0  0  0  0  0
   -3.0129   -2.7027   -1.1492 H   0  0  0  0  0  0  0  0  0  0  0  0
   -0.7205   -2.0313   -2.1164 C   0  0  0  0  0  0  0  0  0  0  0  0
    0.1654   -1.4020   -2.3048 H   0  0  0  0  0  0  0  0  0  0  0  0
   -1.5678   -1.6575   -2.7200 H   0  0  0  0  0  0  0  0  0  0  0  0
   -0.5000   -3.0808   -2.4090 H   0  0  0  0  0  0  0  0  0  0  0  0
  1 22  1  0  0  0  0
  2 11  1  0  0  0  0
  2  1  2  0  0  0  0
  3  2  1  0  0  0  0
  4  3  1  0  0  0  0
  5  7  1  0  0  0  0
  5  3  2  0  0  0  0
  6  5  1  0  0  0  0
  7  9  2  0  0  0  0
  8  7  1  0  0  0  0
  9 10  1  0  0  0  0
  9 11  1  0  0  0  0
 11 12  2  0  0  0  0
 12 21  1  0  0  0  0
 12 13  1  0  0  0  0
 13 15  2  0  0  0  0
 14 13  1  0  0  0  0
 15 17  1  0  0  0  0
 15 16  1  0  0  0  0
 17 18  1  0  0  0  0
 19 20  1  0  0  0  0
 19 17  2  0  0  0  0
 21 19  1  0  0  0  0
 22 23  1  0  0  0  0
 22 21  2  0  0  0  0
 23 24  1  6  0  0  0
 23 26  1  0  0  0  0
 25 30  1  0  0  0  0
 25 23  1  0  0  0  0
 26 27  1  0  0  0  0
 26 28  1  0  0  0  0
 26 29  1  0  0  0  0
 30 31  1  0  0  0  0
 32 30  1  0  0  0  0
 33 30  1  0  0  0  0
 34 25  1  0  0  0  0
 35 34  1  0  0  0  0
 36 34  1  0  0  0  0
 37 34  1  0  0  0  0
M  END
