3,4
 OpenBabel05122313053D

 19 19  0  0  1  0  0  0  0  0999 V2000
    0.5319    0.1775   -3.1028 O   0  0  0  0  0  0  0  0  0  0  0  0
    1.8119    1.9281   -0.2652 N   0  0  0  0  0  0  0  0  0  0  0  0
    1.4592    0.9247    0.5852 N   0  0  0  0  0  2  0  0  0  0  0  0
    0.8446    0.3822   -1.9305 C   0  0  0  0  0  3  0  0  0  0  0  0
    1.5104    1.7681   -1.6666 C   0  0  0  0  0  0  0  0  0  0  0  0
    2.4319    1.8452   -2.2820 H   0  0  0  0  0  0  0  0  0  0  0  0
    0.8043    2.5570   -2.0024 H   0  0  0  0  0  0  0  0  0  0  0  0
    2.7105    4.2568   -0.3158 C   0  0  0  0  0  0  0  0  0  0  0  0
    3.4776    4.0588   -1.0932 H   0  0  0  0  0  0  0  0  0  0  0  0
    3.1285    4.9875    0.4006 H   0  0  0  0  0  0  0  0  0  0  0  0
    1.8417    4.7288   -0.8223 H   0  0  0  0  0  0  0  0  0  0  0  0
    2.3049    3.0111    0.3961 C   0  0  1  0  0  3  0  0  0  0  0  0
    2.2724    2.6780    1.7522 C   0  0  0  0  0  0  0  0  0  0  0  0
    2.5909    3.3064    2.5902 H   0  0  0  0  0  0  0  0  0  0  0  0
    1.7305    1.3709    1.8351 C   0  0  0  0  0  0  0  0  0  0  0  0
    1.4212    0.6144    3.0854 C   0  0  0  0  0  0  0  0  0  0  0  0
    0.3869    0.2179    3.0689 H   0  0  0  0  0  0  0  0  0  0  0  0
    1.5335    1.2834    3.9598 H   0  0  0  0  0  0  0  0  0  0  0  0
    2.0805   -0.2668    3.2082 H   0  0  0  0  0  0  0  0  0  0  0  0
  1  4  2  0  0  0  0
  2 12  1  0  0  0  0
  2  3  1  0  0  0  0
  3 15  1  0  0  0  0
  4  5  1  0  0  0  0
  5  2  1  0  0  0  0
  6  5  1  0  0  0  0
  7  5  1  0  0  0  0
  8 10  1  0  0  0  0
  9  8  1  0  0  0  0
 11  8  1  0  0  0  0
 12  8  1  1  0  0  0
 12 13  1  0  0  0  0
 13 15  2  0  0  0  0
 13 14  1  0  0  0  0
 15 16  1  0  0  0  0
 16 19  1  0  0  0  0
 16 18  1  0  0  0  0
 17 16  1  0  0  0  0
M  END
