2,3
 OpenBabel05122313053D

 19 20  0  0  1  0  0  0  0  0999 V2000
   -3.1402    2.1986   -0.1751 O   0  0  0  0  0  0  0  0  0  0  0  0
   -0.9952    1.5654    0.0459 N   0  0  0  0  0  2  0  0  0  0  0  0
   -1.3695   -0.9998   -0.2840 C   0  0  0  0  0  3  0  0  0  0  0  0
   -1.5549   -2.3892   -0.3840 C   0  0  0  0  0  0  0  0  0  0  0  0
   -2.8274   -2.9259   -0.6545 C   0  0  0  0  0  0  0  0  0  0  0  0
   -3.9520   -2.0939   -0.8134 C   0  0  0  0  0  0  0  0  0  0  0  0
   -3.8097   -0.7088   -0.6835 C   0  0  0  0  0  0  0  0  0  0  0  0
   -2.5303   -0.1810   -0.4170 C   0  0  0  0  0  0  0  0  0  0  0  0
   -2.2379    1.2165   -0.1979 C   0  0  1  0  0  3  0  0  0  0  0  0
   -2.4001    3.4439    0.0244 C   0  0  0  0  0  0  0  0  0  0  0  0
   -0.9575    2.9915    0.3680 C   0  0  0  0  0  0  0  0  0  0  0  0
   -2.4613    4.0212   -0.9200 H   0  0  0  0  0  0  0  0  0  0  0  0
   -0.6984    3.1340    1.4398 H   0  0  0  0  0  0  0  0  0  0  0  0
   -0.7055   -3.0748   -0.2432 H   0  0  0  0  0  0  0  0  0  0  0  0
   -2.9450   -4.0175   -0.7386 H   0  0  0  0  0  0  0  0  0  0  0  0
   -4.9377   -2.5321   -1.0262 H   0  0  0  0  0  0  0  0  0  0  0  0
   -4.6736   -0.0341   -0.7792 H   0  0  0  0  0  0  0  0  0  0  0  0
   -2.9025    4.0118    0.8293 H   0  0  0  0  0  0  0  0  0  0  0  0
   -0.1927    3.5239   -0.2321 H   0  0  0  0  0  0  0  0  0  0  0  0
  1 10  1  0  0  0  0
  2 11  1  0  0  0  0
  4  3  1  0  0  0  0
  4 14  1  0  0  0  0
  5  4  2  0  0  0  0
  6  7  2  0  0  0  0
  6  5  1  0  0  0  0
  7  8  1  0  0  0  0
  8  3  2  0  0  0  0
  9  8  1  1  0  0  0
  9  1  1  0  0  0  0
  9  2  1  0  0  0  0
 10 11  1  0  0  0  0
 10 18  1  0  0  0  0
 11 13  1  0  0  0  0
 12 10  1  0  0  0  0
 15  5  1  0  0  0  0
 16  6  1  0  0  0  0
 17  7  1  0  0  0  0
 19 11  1  0  0  0  0
M  END
