5,6
 OpenBabel05122313053D

 27 27  0  0  0  0  0  0  0  0999 V2000
    3.2814    2.3836   -0.6245 C   0  0  0  0  0  0  0  0  0  0  0  0
    4.0639    1.6103   -0.5695 H   0  0  0  0  0  0  0  0  0  0  0  0
    0.9674    3.0642   -0.2108 C   0  0  0  0  0  0  0  0  0  0  0  0
    1.9877    2.0759   -0.1455 C   0  0  0  0  0  0  0  0  0  0  0  0
   -0.2825    2.6946    0.4335 N   0  0  0  0  0  0  0  0  0  0  0  0
    1.6039    0.7336    0.2635 C   0  0  0  0  0  2  0  0  0  0  0  0
    2.4223    0.0291    0.5001 H   0  0  0  0  0  0  0  0  0  0  0  0
    1.2188    4.2987   -0.8181 C   0  0  0  0  0  0  0  0  0  0  0  0
    0.4259    5.0553   -0.8953 H   0  0  0  0  0  0  0  0  0  0  0  0
   -1.4959    3.2331   -0.2405 C   0  0  0  0  0  0  0  0  0  0  0  0
   -1.3553    3.0398   -1.3207 H   0  0  0  0  0  0  0  0  0  0  0  0
   -1.5657    4.3336   -0.0932 H   0  0  0  0  0  0  0  0  0  0  0  0
    3.5347    3.6279   -1.2177 C   0  0  0  0  0  0  0  0  0  0  0  0
    4.5354    3.8568   -1.6143 H   0  0  0  0  0  0  0  0  0  0  0  0
   -0.2170    3.0771    1.8869 C   0  0  0  0  0  0  0  0  0  0  0  0
    0.6847    2.5834    2.2950 H   0  0  0  0  0  0  0  0  0  0  0  0
   -1.0686    2.5823    2.3888 H   0  0  0  0  0  0  0  0  0  0  0  0
    2.5030    4.5746   -1.3274 C   0  0  0  0  0  0  0  0  0  0  0  0
    2.6969    5.5460   -1.8071 H   0  0  0  0  0  0  0  0  0  0  0  0
   -2.7775    2.5580    0.2313 C   0  0  0  0  0  0  0  0  0  0  0  0
   -2.9579    2.6816    1.3172 H   0  0  0  0  0  0  0  0  0  0  0  0
   -2.7626    1.4720    0.0061 H   0  0  0  0  0  0  0  0  0  0  0  0
   -3.6431    2.9946   -0.3064 H   0  0  0  0  0  0  0  0  0  0  0  0
   -0.1922    4.5722    2.1921 C   0  0  0  0  0  0  0  0  0  0  0  0
   -1.1197    5.0924    1.8786 H   0  0  0  0  0  0  0  0  0  0  0  0
    0.6700    5.0851    1.7209 H   0  0  0  0  0  0  0  0  0  0  0  0
   -0.1005    4.7069    3.2886 H   0  0  0  0  0  0  0  0  0  0  0  0
  1  2  1  0  0  0  0
  1  4  1  0  0  0  0
  3  4  2  0  0  0  0
  3  5  1  0  0  0  0
  4  6  1  0  0  0  0
  5 15  1  0  0  0  0
  6  7  1  0  0  0  0
  8  3  1  0  0  0  0
  9  8  1  0  0  0  0
 10 12  1  0  0  0  0
 10 20  1  0  0  0  0
 10  5  1  0  0  0  0
 11 10  1  0  0  0  0
 13  1  2  0  0  0  0
 14 13  1  0  0  0  0
 15 24  1  0  0  0  0
 15 16  1  0  0  0  0
 15 17  1  0  0  0  0
 18 13  1  0  0  0  0
 18  8  2  0  0  0  0
 19 18  1  0  0  0  0
 20 21  1  0  0  0  0
 22 20  1  0  0  0  0
 23 20  1  0  0  0  0
 24 27  1  0  0  0  0
 25 24  1  0  0  0  0
 26 24  1  0  0  0  0
M  END
