2,5
 OpenBabel05122313053D

 42 45  0  0  1  0  0  0  0  0999 V2000
    2.3361    1.2716   -1.0748 N   0  0  0  0  0  0  0  0  0  0  0  0
   -1.4906    0.7877   -0.1235 N   0  0  0  0  0  2  0  0  0  0  0  0
   -3.3255   -0.5717    0.2863 N   0  0  0  0  0  0  0  0  0  0  0  0
    0.3701    2.0616   -0.6281 N   0  0  0  0  0  0  0  0  0  0  0  0
    1.0780    0.8636   -0.7227 C   0  0  0  0  0  2  0  0  0  0  0  0
   -2.8459    0.6784    0.1488 C   0  0  2  0  0  3  0  0  0  0  0  0
   -5.1073   -2.1748    0.6537 C   0  0  0  0  0  0  0  0  0  0  0  0
   -4.2629   -2.8564    0.8622 H   0  0  0  0  0  0  0  0  0  0  0  0
   -5.5591   -2.4861   -0.3131 H   0  0  0  0  0  0  0  0  0  0  0  0
   -5.8907   -2.2813    1.4297 H   0  0  0  0  0  0  0  0  0  0  0  0
   -1.7505    3.2162   -0.2174 C   0  0  0  0  0  0  0  0  0  0  0  0
   -1.2748    4.1919   -0.3766 H   0  0  0  0  0  0  0  0  0  0  0  0
   -3.0963    3.1240    0.0838 C   0  0  0  0  0  0  0  0  0  0  0  0
   -3.7041    4.0352    0.1699 H   0  0  0  0  0  0  0  0  0  0  0  0
   -4.6164   -0.7570    0.5527 C   0  0  0  0  0  0  0  0  0  0  0  0
   -6.0042    2.8154    0.7293 C   0  0  0  0  0  0  0  0  0  0  0  0
   -7.0306    2.4788    0.9664 H   0  0  0  0  0  0  0  0  0  0  0  0
   -6.0510    3.4233   -0.1983 H   0  0  0  0  0  0  0  0  0  0  0  0
   -5.6713    3.4938    1.5421 H   0  0  0  0  0  0  0  0  0  0  0  0
   -3.6844    1.8430    0.2710 C   0  0  0  0  0  0  0  0  0  0  0  0
   -5.5167    0.3370    0.7138 C   0  0  0  0  0  0  0  0  0  0  0  0
   -6.5738    0.1371    0.9478 H   0  0  0  0  0  0  0  0  0  0  0  0
   -0.9901    2.0251   -0.3151 C   0  0  0  0  0  0  0  0  0  0  0  0
    5.7766    1.0189   -0.3771 C   0  0  0  0  0  0  0  0  0  0  0  0
    6.0581    1.3345   -1.3950 H   0  0  0  0  0  0  0  0  0  0  0  0
    6.3473    0.7256    1.9670 C   0  0  0  0  0  0  0  0  0  0  0  0
    7.0713    0.8135    2.7913 H   0  0  0  0  0  0  0  0  0  0  0  0
    6.7027    1.1329    0.6726 C   0  0  0  0  0  0  0  0  0  0  0  0
    7.7060    1.5410    0.4767 H   0  0  0  0  0  0  0  0  0  0  0  0
   -5.0721    1.6453    0.5731 C   0  0  0  0  0  0  0  0  0  0  0  0
    4.4926    0.4937   -0.1438 C   0  0  0  0  0  0  0  0  0  0  0  0
    4.1441    0.0827    1.1589 C   0  0  0  0  0  0  0  0  0  0  0  0
    3.1439   -0.3347    1.3463 H   0  0  0  0  0  0  0  0  0  0  0  0
    2.4211    2.6580   -1.1714 C   0  0  0  0  0  0  0  0  0  0  0  0
    3.3581    3.1664   -1.4183 H   0  0  0  0  0  0  0  0  0  0  0  0
    3.4832    0.3802   -1.2659 C   0  0  0  0  0  0  0  0  0  0  0  0
    3.9534    0.6242   -2.2397 H   0  0  0  0  0  0  0  0  0  0  0  0
    3.0740   -0.6444   -1.3288 H   0  0  0  0  0  0  0  0  0  0  0  0
    1.1838    3.1666   -0.8971 C   0  0  0  0  0  0  0  0  0  0  0  0
    0.8320    4.2004   -0.8772 H   0  0  0  0  0  0  0  0  0  0  0  0
    5.0660    0.2002    2.2071 C   0  0  0  0  0  0  0  0  0  0  0  0
    4.7822   -0.1278    3.2185 H   0  0  0  0  0  0  0  0  0  0  0  0
  1  5  1  0  0  0  0
  3 15  2  0  0  0  0
  4 23  1  0  0  0  0
  5  4  1  0  0  0  0
  6  2  1  6  0  0  0
  6 20  1  0  0  0  0
  6  3  1  0  0  0  0
  7  8  1  0  0  0  0
  7 10  1  0  0  0  0
  9  7  1  0  0  0  0
 11 13  1  0  0  0  0
 12 11  1  0  0  0  0
 13 14  1  0  0  0  0
 13 20  2  0  0  0  0
 15  7  1  0  0  0  0
 15 21  1  0  0  0  0
 16 17  1  0  0  0  0
 16 19  1  0  0  0  0
 18 16  1  0  0  0  0
 20 30  1  0  0  0  0
 21 22  1  0  0  0  0
 23 11  2  0  0  0  0
 23  2  1  0  0  0  0
 24 31  2  0  0  0  0
 24 28  1  0  0  0  0
 25 24  1  0  0  0  0
 26 41  1  0  0  0  0
 26 27  1  0  0  0  0
 28 26  2  0  0  0  0
 29 28  1  0  0  0  0
 30 21  2  0  0  0  0
 30 16  1  0  0  0  0
 31 32  1  0  0  0  0
 32 33  1  0  0  0  0
 32 41  2  0  0  0  0
 34  1  1  0  0  0  0
 34 39  2  0  0  0  0
 35 34  1  0  0  0  0
 36  1  1  0  0  0  0
 36 31  1  0  0  0  0
 37 36  1  0  0  0  0
 38 36  1  0  0  0  0
 39 40  1  0  0  0  0
 39  4  1  0  0  0  0
 41 42  1  0  0  0  0
M  END
