1,4
 OpenBabel05122313053D

 62 64  0  0  1  0  0  0  0  0999 V2000
    1.5636    0.2196    0.5278 N   0  0  0  0  0  2  0  0  0  0  0  0
   -0.1906    0.9421    1.7762 N   0  0  0  0  0  0  0  0  0  0  0  0
   -2.2871    0.7082    1.2712 N   0  0  0  0  0  0  0  0  0  0  0  0
   -1.0384    0.4406    0.7810 C   0  0  0  0  0  2  0  0  0  0  0  0
    1.2020    0.8192    1.6167 C   0  0  2  0  0  3  0  0  0  0  0  0
    2.0870    1.3804    2.6831 C   0  0  0  0  0  0  0  0  0  0  0  0
    3.1412    1.1492    2.4484 H   0  0  0  0  0  0  0  0  0  0  0  0
    1.8336    0.9534    3.6750 H   0  0  0  0  0  0  0  0  0  0  0  0
    1.9736    2.4828    2.7493 H   0  0  0  0  0  0  0  0  0  0  0  0
    4.8321   -1.4393   -0.0273 C   0  0  0  0  0  0  0  0  0  0  0  0
    5.2869   -2.4354    0.0800 H   0  0  0  0  0  0  0  0  0  0  0  0
    3.4829   -1.2594    0.3222 C   0  0  0  0  0  0  0  0  0  0  0  0
    2.9314    0.0388    0.1865 C   0  0  0  0  0  0  0  0  0  0  0  0
   -2.2287    1.3513    2.5128 C   0  0  0  0  0  0  0  0  0  0  0  0
   -3.1370    1.6396    3.0501 H   0  0  0  0  0  0  0  0  0  0  0  0
    5.5982   -0.3769   -0.5233 C   0  0  0  0  0  0  0  0  0  0  0  0
    6.6529   -0.5372   -0.7939 H   0  0  0  0  0  0  0  0  0  0  0  0
   -0.9095    1.5015    2.8339 C   0  0  0  0  0  0  0  0  0  0  0  0
   -0.4353    1.9516    3.7093 H   0  0  0  0  0  0  0  0  0  0  0  0
   -3.5226    0.3619    0.6221 C   0  0  0  0  0  0  0  0  0  0  0  0
    2.9999    2.4476   -0.6917 C   0  0  0  0  0  0  0  0  0  0  0  0
    2.0705    2.5229   -0.0905 H   0  0  0  0  0  0  0  0  0  0  0  0
   -5.9323   -0.3132   -0.6366 C   0  0  0  0  0  0  0  0  0  0  0  0
   -5.2750   -1.2334    0.2016 C   0  0  0  0  0  0  0  0  0  0  0  0
   -5.7130   -2.2323    0.3567 H   0  0  0  0  0  0  0  0  0  0  0  0
    5.0145    0.8839   -0.7003 C   0  0  0  0  0  0  0  0  0  0  0  0
    5.6117    1.7029   -1.1284 H   0  0  0  0  0  0  0  0  0  0  0  0
   -4.1394    1.3157   -0.2129 C   0  0  0  0  0  0  0  0  0  0  0  0
   -5.3494    0.9535   -0.8292 C   0  0  0  0  0  0  0  0  0  0  0  0
   -5.8455    1.6825   -1.4897 H   0  0  0  0  0  0  0  0  0  0  0  0
   -4.0633   -0.9217    0.8418 C   0  0  0  0  0  0  0  0  0  0  0  0
    3.6703    1.1203   -0.3588 C   0  0  0  0  0  0  0  0  0  0  0  0
    2.6334   -2.4030    0.8579 C   0  0  0  0  0  0  0  0  0  0  0  0
    1.5735   -2.0974    0.7228 H   0  0  0  0  0  0  0  0  0  0  0  0
   -7.2072   -0.6915   -1.3470 C   0  0  0  0  0  0  0  0  0  0  0  0
   -7.7953   -1.4303   -0.7680 H   0  0  0  0  0  0  0  0  0  0  0  0
   -6.9837   -1.1523   -2.3332 H   0  0  0  0  0  0  0  0  0  0  0  0
   -7.8478    0.1918   -1.5376 H   0  0  0  0  0  0  0  0  0  0  0  0
   -3.3315   -1.9289    1.6884 C   0  0  0  0  0  0  0  0  0  0  0  0
   -2.3617   -2.1973    1.2167 H   0  0  0  0  0  0  0  0  0  0  0  0
   -3.9248   -2.8538    1.8126 H   0  0  0  0  0  0  0  0  0  0  0  0
   -3.0945   -1.5301    2.6964 H   0  0  0  0  0  0  0  0  0  0  0  0
   -3.4860    2.6479   -0.4695 C   0  0  0  0  0  0  0  0  0  0  0  0
   -4.1107    3.2791   -1.1286 H   0  0  0  0  0  0  0  0  0  0  0  0
   -2.4979    2.5074   -0.9576 H   0  0  0  0  0  0  0  0  0  0  0  0
   -3.2995    3.2087    0.4698 H   0  0  0  0  0  0  0  0  0  0  0  0
    2.8770   -2.6069    2.3638 C   0  0  0  0  0  0  0  0  0  0  0  0
    2.2171   -3.4019    2.7689 H   0  0  0  0  0  0  0  0  0  0  0  0
    2.6843   -1.6776    2.9394 H   0  0  0  0  0  0  0  0  0  0  0  0
    3.9286   -2.9041    2.5604 H   0  0  0  0  0  0  0  0  0  0  0  0
    2.8198   -3.6996    0.0610 C   0  0  0  0  0  0  0  0  0  0  0  0
    2.1220   -4.4788    0.4304 H   0  0  0  0  0  0  0  0  0  0  0  0
    3.8475   -4.1083    0.1546 H   0  0  0  0  0  0  0  0  0  0  0  0
    2.6013   -3.5169   -1.0094 H   0  0  0  0  0  0  0  0  0  0  0  0
    2.5693    2.4395   -2.1718 C   0  0  0  0  0  0  0  0  0  0  0  0
    1.9500    1.5481   -2.3991 H   0  0  0  0  0  0  0  0  0  0  0  0
    3.4599    2.4055   -2.8332 H   0  0  0  0  0  0  0  0  0  0  0  0
    1.9903    3.3533   -2.4198 H   0  0  0  0  0  0  0  0  0  0  0  0
    3.8618    3.6710   -0.3513 C   0  0  0  0  0  0  0  0  0  0  0  0
    4.1811    3.6672    0.7113 H   0  0  0  0  0  0  0  0  0  0  0  0
    3.2966    4.6066   -0.5389 H   0  0  0  0  0  0  0  0  0  0  0  0
    4.7775    3.7171   -0.9759 H   0  0  0  0  0  0  0  0  0  0  0  0
  2 18  1  0  0  0  0
  3 14  1  0  0  0  0
  4  3  1  0  0  0  0
  4  2  1  0  0  0  0
  5  1  1  6  0  0  0
  5  2  1  0  0  0  0
  5  6  1  0  0  0  0
  6  9  1  0  0  0  0
  6  8  1  0  0  0  0
  7  6  1  0  0  0  0
 10 11  1  0  0  0  0
 10 12  1  0  0  0  0
 12 33  1  0  0  0  0
 13 12  2  0  0  0  0
 13  1  1  0  0  0  0
 14 18  2  0  0  0  0
 14 15  1  0  0  0  0
 16 10  2  0  0  0  0
 17 16  1  0  0  0  0
 18 19  1  0  0  0  0
 20 31  1  0  0  0  0
 20  3  1  0  0  0  0
 21 32  1  0  0  0  0
 21 59  1  0  0  0  0
 21 22  1  0  0  0  0
 23 24  1  0  0  0  0
 24 25  1  0  0  0  0
 24 31  2  0  0  0  0
 26 16  1  0  0  0  0
 26 32  2  0  0  0  0
 27 26  1  0  0  0  0
 28 20  2  0  0  0  0
 29 23  2  0  0  0  0
 29 28  1  0  0  0  0
 30 29  1  0  0  0  0
 31 39  1  0  0  0  0
 32 13  1  0  0  0  0
 33 47  1  0  0  0  0
 34 33  1  0  0  0  0
 35 36  1  0  0  0  0
 35 23  1  0  0  0  0
 37 35  1  0  0  0  0
 38 35  1  0  0  0  0
 39 41  1  0  0  0  0
 39 42  1  0  0  0  0
 40 39  1  0  0  0  0
 43 28  1  0  0  0  0
 43 46  1  0  0  0  0
 44 43  1  0  0  0  0
 45 43  1  0  0  0  0
 47 50  1  0  0  0  0
 47 48  1  0  0  0  0
 47 49  1  0  0  0  0
 51 53  1  0  0  0  0
 51 52  1  0  0  0  0
 51 33  1  0  0  0  0
 54 51  1  0  0  0  0
 55 21  1  0  0  0  0
 56 55  1  0  0  0  0
 57 55  1  0  0  0  0
 58 55  1  0  0  0  0
 59 60  1  0  0  0  0
 61 59  1  0  0  0  0
 62 59  1  0  0  0  0
M  END
