1,2
 OpenBabel05122313053D

 27 28  0  0  0  0  0  0  0  0999 V2000
   -0.5868    0.6964    0.9899 N   0  0  0  0  0  2  0  0  0  0  0  0
    1.5732    1.3418   -0.5210 C   0  0  0  0  0  3  0  0  0  0  0  0
    2.6861    1.7110   -1.2941 C   0  0  0  0  0  0  0  0  0  0  0  0
    3.2668    2.9850   -1.1518 C   0  0  0  0  0  0  0  0  0  0  0  0
    2.7475    3.9228   -0.2403 C   0  0  0  0  0  0  0  0  0  0  0  0
    1.6318    3.5835    0.5321 C   0  0  0  0  0  0  0  0  0  0  0  0
    1.0442    2.3060    0.3950 C   0  0  0  0  0  0  0  0  0  0  0  0
   -0.1176    1.8957    1.1623 C   0  0  0  0  0  3  0  0  0  0  0  0
   -1.8096    0.2598    1.6690 C   0  0  0  0  0  0  0  0  0  0  0  0
   -3.0490    0.6690    0.8924 C   0  0  0  0  0  0  0  0  0  0  0  0
   -3.6932    1.8896    1.1742 C   0  0  0  0  0  0  0  0  0  0  0  0
   -4.8094    2.2967    0.4281 C   0  0  0  0  0  0  0  0  0  0  0  0
   -5.2914    1.4846   -0.6109 C   0  0  0  0  0  0  0  0  0  0  0  0
   -4.6558    0.2650   -0.8940 C   0  0  0  0  0  0  0  0  0  0  0  0
   -3.5402   -0.1434   -0.1480 C   0  0  0  0  0  0  0  0  0  0  0  0
    3.1131    1.0021   -2.0186 H   0  0  0  0  0  0  0  0  0  0  0  0
    4.1401    3.2518   -1.7680 H   0  0  0  0  0  0  0  0  0  0  0  0
    3.2107    4.9156   -0.1415 H   0  0  0  0  0  0  0  0  0  0  0  0
    1.2039    4.3064    1.2453 H   0  0  0  0  0  0  0  0  0  0  0  0
   -0.5980    2.6020    1.8711 H   0  0  0  0  0  0  0  0  0  0  0  0
   -1.8463    0.6987    2.6903 H   0  0  0  0  0  0  0  0  0  0  0  0
   -1.7625   -0.8446    1.7445 H   0  0  0  0  0  0  0  0  0  0  0  0
   -3.3237    2.5258    1.9951 H   0  0  0  0  0  0  0  0  0  0  0  0
   -5.3084    3.2494    0.6626 H   0  0  0  0  0  0  0  0  0  0  0  0
   -6.1666    1.8021   -1.1981 H   0  0  0  0  0  0  0  0  0  0  0  0
   -5.0308   -0.3769   -1.7057 H   0  0  0  0  0  0  0  0  0  0  0  0
   -3.0277   -1.0938   -0.3703 H   0  0  0  0  0  0  0  0  0  0  0  0
  1  8  1  0  0  0  0
  1  9  1  0  0  0  0
  2  7  1  0  0  0  0
  3  4  1  0  0  0  0
  3  2  2  0  0  0  0
  4  5  2  0  0  0  0
  5 18  1  0  0  0  0
  5  6  1  0  0  0  0
  6 19  1  0  0  0  0
  7  6  2  0  0  0  0
  7  8  1  0  0  0  0
  8 20  1  0  0  0  0
  9 22  1  0  0  0  0
  9 21  1  0  0  0  0
 10 11  1  0  0  0  0
 10  9  1  0  0  0  0
 11 23  1  0  0  0  0
 12 24  1  0  0  0  0
 12 11  2  0  0  0  0
 13 12  1  0  0  0  0
 14 13  2  0  0  0  0
 14 15  1  0  0  0  0
 15 10  2  0  0  0  0
 16  3  1  0  0  0  0
 17  4  1  0  0  0  0
 25 13  1  0  0  0  0
 26 14  1  0  0  0  0
 27 15  1  0  0  0  0
M  END
