1
 OpenBabel05122313053D

 22 23  0  0  0  0  0  0  0  0999 V2000
    0.8800    1.5273   -0.6722 N   0  0  0  0  0  2  0  0  0  0  0  0
    0.9445    2.4190   -1.6821 C   0  0  0  0  0  3  0  0  0  0  0  0
    0.8140    2.0295   -2.7026 H   0  0  0  0  0  0  0  0  0  0  0  0
    1.1389    3.7789   -1.4113 C   0  0  0  0  0  0  0  0  0  0  0  0
    1.1850    4.4950   -2.2435 H   0  0  0  0  0  0  0  0  0  0  0  0
    1.2567    4.2094   -0.0779 C   0  0  0  0  0  0  0  0  0  0  0  0
    1.3935    5.2772    0.1473 H   0  0  0  0  0  0  0  0  0  0  0  0
    1.2139    3.2668    0.9645 C   0  0  0  0  0  0  0  0  0  0  0  0
    1.3234    3.5645    2.0169 H   0  0  0  0  0  0  0  0  0  0  0  0
    1.0500    1.9213    0.6249 C   0  0  0  0  0  0  0  0  0  0  0  0
    1.0641    0.6609    1.3993 C   0  0  0  0  0  3  0  0  0  0  0  0
    0.5706    0.5705    2.3778 H   0  0  0  0  0  0  0  0  0  0  0  0
    2.1485   -0.2198    1.0663 C   0  0  0  0  0  3  0  0  0  0  0  0
    2.6999   -1.2215    2.0854 C   0  0  0  0  0  0  0  0  0  0  0  0
    2.8048   -2.2506    1.6894 H   0  0  0  0  0  0  0  0  0  0  0  0
    2.1703   -1.2761    3.0570 H   0  0  0  0  0  0  0  0  0  0  0  0
    4.0394   -0.4298    2.0189 C   0  0  0  0  0  0  0  0  0  0  0  0
    4.1273    0.3005    2.8461 H   0  0  0  0  0  0  0  0  0  0  0  0
    4.9683   -1.0289    1.9688 H   0  0  0  0  0  0  0  0  0  0  0  0
    3.5715    0.2449    0.6968 C   0  0  0  0  0  0  0  0  0  0  0  0
    3.7235    1.3363    0.5841 H   0  0  0  0  0  0  0  0  0  0  0  0
    3.9873   -0.2588   -0.1972 H   0  0  0  0  0  0  0  0  0  0  0  0
  1 10  1  0  0  0  0
  2  4  1  0  0  0  0
  2  1  1  0  0  0  0
  3  2  1  0  0  0  0
  4  6  2  0  0  0  0
  5  4  1  0  0  0  0
  6  7  1  0  0  0  0
  6  8  1  0  0  0  0
  8  9  1  0  0  0  0
 10  8  2  0  0  0  0
 10 11  1  0  0  0  0
 11 12  1  0  0  0  0
 13 11  1  0  0  0  0
 13 14  1  0  0  0  0
 14 16  1  0  0  0  0
 15 14  1  0  0  0  0
 17 14  1  0  0  0  0
 17 18  1  0  0  0  0
 19 17  1  0  0  0  0
 20 13  1  0  0  0  0
 20 17  1  0  0  0  0
 21 20  1  0  0  0  0
 22 20  1  0  0  0  0
M  END
