2,3
 OpenBabel05122313053D

 48 49  0  0  1  0  0  0  0  0999 V2000
    2.6811   -1.4548   -0.0126 O   0  0  0  0  0  0  0  0  0  0  0  0
    1.5918    1.0229   -0.1385 N   0  0  0  0  0  2  0  0  0  0  0  0
   -1.1903    0.1320   -0.2666 C   0  0  0  0  0  3  0  0  0  0  0  0
   -2.2552   -0.6221    0.1140 N   0  0  0  0  0  0  0  0  0  0  0  0
   -2.0643   -1.6380    0.1233 H   0  0  0  0  0  0  0  0  0  0  0  0
   -1.3383    1.4337   -0.7232 C   0  0  0  0  0  0  0  0  0  0  0  0
   -2.3603    1.7775   -0.9586 H   0  0  0  0  0  0  0  0  0  0  0  0
   -0.3520    2.4523   -0.9306 C   0  0  0  0  0  0  0  0  0  0  0  0
   -0.6226    3.5810   -1.3816 O   0  0  0  0  0  0  0  0  0  0  0  0
    1.0993    2.2305   -0.5140 C   0  0  1  0  0  3  0  0  0  0  0  0
    1.9249    3.3697   -0.5333 C   0  0  0  0  0  0  0  0  0  0  0  0
    1.4444    4.3015   -0.8636 H   0  0  0  0  0  0  0  0  0  0  0  0
    3.2611    3.2718   -0.1488 C   0  0  0  0  0  0  0  0  0  0  0  0
    3.9156    4.1563   -0.1466 H   0  0  0  0  0  0  0  0  0  0  0  0
    3.7571    2.0175    0.2322 C   0  0  0  0  0  0  0  0  0  0  0  0
    4.8014    1.8690    0.5400 H   0  0  0  0  0  0  0  0  0  0  0  0
    2.9022    0.9102    0.2145 C   0  0  0  0  0  0  0  0  0  0  0  0
    3.4493   -0.4496    0.6875 C   0  0  0  0  0  0  0  0  0  0  0  0
    5.1526   -0.6209   -0.9967 C   0  0  0  0  0  0  0  0  0  0  0  0
    4.7503   -1.5250   -1.4992 H   0  0  0  0  0  0  0  0  0  0  0  0
    6.2571   -0.6375   -1.0424 H   0  0  0  0  0  0  0  0  0  0  0  0
    4.7787    0.2751   -1.5378 H   0  0  0  0  0  0  0  0  0  0  0  0
    4.8129   -0.5928    0.3909 O   0  0  0  0  0  0  0  0  0  0  0  0
    3.3095   -0.5678    2.2055 C   0  0  0  0  0  0  0  0  0  0  0  0
    3.7662   -1.5101    2.5613 H   0  0  0  0  0  0  0  0  0  0  0  0
    2.2386   -0.5398    2.4851 H   0  0  0  0  0  0  0  0  0  0  0  0
    3.8326    0.2760    2.6918 H   0  0  0  0  0  0  0  0  0  0  0  0
    2.9652   -2.8225    0.3310 C   0  0  0  0  0  0  0  0  0  0  0  0
    4.0612   -2.9839    0.3368 H   0  0  0  0  0  0  0  0  0  0  0  0
    2.4760   -3.4365   -0.4446 H   0  0  0  0  0  0  0  0  0  0  0  0
    2.5291   -3.0898    1.3140 H   0  0  0  0  0  0  0  0  0  0  0  0
   -3.6050   -0.1990    0.2397 C   0  0  0  0  0  0  0  0  0  0  0  0
   -3.9687    0.8099    1.1690 C   0  0  0  0  0  0  0  0  0  0  0  0
   -5.3305    1.1585    1.2598 C   0  0  0  0  0  0  0  0  0  0  0  0
   -5.6291    1.9391    1.9770 H   0  0  0  0  0  0  0  0  0  0  0  0
   -6.3005    0.5191    0.4782 C   0  0  0  0  0  0  0  0  0  0  0  0
   -7.3589    0.8061    0.5704 H   0  0  0  0  0  0  0  0  0  0  0  0
   -5.9229   -0.4946   -0.4139 C   0  0  0  0  0  0  0  0  0  0  0  0
   -6.6829   -1.0024   -1.0283 H   0  0  0  0  0  0  0  0  0  0  0  0
   -4.5757   -0.8695   -0.5509 C   0  0  0  0  0  0  0  0  0  0  0  0
   -4.1497   -1.9408   -1.5218 C   0  0  0  0  0  0  0  0  0  0  0  0
   -5.0081   -2.2996   -2.1205 H   0  0  0  0  0  0  0  0  0  0  0  0
   -3.7056   -2.8210   -1.0090 H   0  0  0  0  0  0  0  0  0  0  0  0
   -3.3682   -1.5676   -2.2157 H   0  0  0  0  0  0  0  0  0  0  0  0
   -2.9487    1.4679    2.0579 C   0  0  0  0  0  0  0  0  0  0  0  0
   -2.1830    0.7409    2.3960 H   0  0  0  0  0  0  0  0  0  0  0  0
   -3.4320    1.9183    2.9460 H   0  0  0  0  0  0  0  0  0  0  0  0
   -2.3973    2.2692    1.5212 H   0  0  0  0  0  0  0  0  0  0  0  0
  1 28  1  0  0  0  0
  1 18  1  0  0  0  0
  2 17  1  0  0  0  0
  3  4  1  0  0  0  0
  4  5  1  0  0  0  0
  4 32  1  0  0  0  0
  6  3  2  0  0  0  0
  7  6  1  0  0  0  0
  8  6  1  0  0  0  0
  9  8  2  0  0  0  0
 10  8  1  1  0  0  0
 10  2  1  0  0  0  0
 11 10  1  0  0  0  0
 11 13  2  0  0  0  0
 12 11  1  0  0  0  0
 13 14  1  0  0  0  0
 13 15  1  0  0  0  0
 15 16  1  0  0  0  0
 17 15  2  0  0  0  0
 17 18  1  0  0  0  0
 18 24  1  0  0  0  0
 19 23  1  0  0  0  0
 20 19  1  0  0  0  0
 21 19  1  0  0  0  0
 22 19  1  0  0  0  0
 23 18  1  0  0  0  0
 24 26  1  0  0  0  0
 24 25  1  0  0  0  0
 24 27  1  0  0  0  0
 28 29  1  0  0  0  0
 28 31  1  0  0  0  0
 30 28  1  0  0  0  0
 32 33  1  0  0  0  0
 33 34  2  0  0  0  0
 33 45  1  0  0  0  0
 34 35  1  0  0  0  0
 36 37  1  0  0  0  0
 36 34  1  0  0  0  0
 38 36  2  0  0  0  0
 39 38  1  0  0  0  0
 40 38  1  0  0  0  0
 40 32  2  0  0  0  0
 41 43  1  0  0  0  0
 41 40  1  0  0  0  0
 42 41  1  0  0  0  0
 44 41  1  0  0  0  0
 45 46  1  0  0  0  0
 45 47  1  0  0  0  0
 48 45  1  0  0  0  0
M  END
