1,6
 OpenBabel05122313053D

 19 19  0  0  0  0  0  0  0  0999 V2000
    0.2731    2.1811   -0.4461 N   0  0  0  0  0  0  0  0  0  0  0  0
    1.0117    2.8030   -0.0894 H   0  0  0  0  0  0  0  0  0  0  0  0
    0.2336    2.2481   -1.4908 H   0  0  0  0  0  0  0  0  0  0  0  0
   -0.9657    2.5330    0.1679 N   0  0  0  0  0  0  0  0  0  0  0  0
   -5.1217   -2.8750   -0.0390 N   0  0  0  0  0  0  0  0  0  0  0  0
   -1.3040    0.1593   -0.0613 C   0  0  0  0  0  3  0  0  0  0  0  0
   -2.1674   -0.9339   -0.1323 C   0  0  0  0  0  0  0  0  0  0  0  0
   -1.7689   -1.9389   -0.3321 H   0  0  0  0  0  0  0  0  0  0  0  0
   -3.5713   -0.7803    0.0310 C   0  0  0  0  0  0  0  0  0  0  0  0
   -4.1075    0.5103    0.2323 C   0  0  0  0  0  0  0  0  0  0  0  0
   -5.1925    0.6385    0.3499 H   0  0  0  0  0  0  0  0  0  0  0  0
   -3.2624    1.6251    0.2571 C   0  0  0  0  0  0  0  0  0  0  0  0
   -3.7008    2.6250    0.3840 H   0  0  0  0  0  0  0  0  0  0  0  0
   -1.8689    1.4546    0.1199 C   0  0  0  0  0  0  0  0  0  0  0  0
   -1.4127    3.8819   -0.1194 C   0  0  0  0  0  0  0  0  0  0  0  0
   -0.5725    4.5867    0.0410 H   0  0  0  0  0  0  0  0  0  0  0  0
   -2.2160    4.1650    0.5867 H   0  0  0  0  0  0  0  0  0  0  0  0
   -1.7959    4.0071   -1.1618 H   0  0  0  0  0  0  0  0  0  0  0  0
   -4.4278   -1.9260   -0.0120 C   0  0  0  0  0  0  0  0  0  0  0  0
  1  2  1  0  0  0  0
  1  4  1  0  0  0  0
  3  1  1  0  0  0  0
  5 19  3  0  0  0  0
  6 14  1  0  0  0  0
  7  6  2  0  0  0  0
  7  9  1  0  0  0  0
  8  7  1  0  0  0  0
  9 10  2  0  0  0  0
 10 12  1  0  0  0  0
 10 11  1  0  0  0  0
 12 13  1  0  0  0  0
 14  4  1  0  0  0  0
 14 12  2  0  0  0  0
 15 16  1  0  0  0  0
 15  4  1  0  0  0  0
 15 17  1  0  0  0  0
 18 15  1  0  0  0  0
 19  9  1  0  0  0  0
M  END
