3,20
 OpenBabel05122313053D

 28 29  0  0  0  0  0  0  0  0999 V2000
    4.1831   -3.4320   -1.1211 F   0  0  0  0  0  0  0  0  0  0  0  0
   -0.0574   -5.3515   -1.7925 F   0  0  0  0  0  0  0  0  0  0  0  0
    2.1181    0.2133   -0.0644 N   0  0  0  0  0  2  0  0  0  0  0  0
    6.2910    0.6932    0.2312 N   0  0  0  0  0  0  0  0  0  0  0  0
    2.6620    1.3856    0.3278 C   0  0  0  0  0  3  0  0  0  0  0  0
    1.9482    2.1894    0.5556 H   0  0  0  0  0  0  0  0  0  0  0  0
    4.0292    1.5998    0.4472 C   0  0  0  0  0  0  0  0  0  0  0  0
    4.3786    2.5866    0.7717 H   0  0  0  0  0  0  0  0  0  0  0  0
    4.9288    0.5395    0.1386 C   0  0  0  0  0  0  0  0  0  0  0  0
    4.3487   -0.6886   -0.2708 C   0  0  0  0  0  0  0  0  0  0  0  0
    4.9722   -1.5484   -0.5244 H   0  0  0  0  0  0  0  0  0  0  0  0
    2.9580   -0.8402   -0.3669 C   0  0  0  0  0  0  0  0  0  0  0  0
    2.2434   -2.0535   -0.7628 C   0  0  0  0  0  0  0  0  0  0  0  0
    2.8320   -3.2871   -1.1142 C   0  0  0  0  0  0  0  0  0  0  0  0
    2.0806   -4.4082   -1.4662 C   0  0  0  0  0  0  0  0  0  0  0  0
    2.5689   -5.3530   -1.7351 H   0  0  0  0  0  0  0  0  0  0  0  0
    0.6846   -4.2753   -1.4597 C   0  0  0  0  0  0  0  0  0  0  0  0
    0.0453   -3.0803   -1.1221 C   0  0  0  0  0  0  0  0  0  0  0  0
   -1.0530   -3.0511   -1.1374 H   0  0  0  0  0  0  0  0  0  0  0  0
    0.8105   -1.9489   -0.7753 C   0  0  0  0  0  3  0  0  0  0  0  0
    7.1676   -0.4133   -0.1064 C   0  0  0  0  0  0  0  0  0  0  0  0
    6.9863   -1.2992    0.5416 H   0  0  0  0  0  0  0  0  0  0  0  0
    8.2185   -0.1013    0.0294 H   0  0  0  0  0  0  0  0  0  0  0  0
    7.0392   -0.7393   -1.1625 H   0  0  0  0  0  0  0  0  0  0  0  0
    6.8497    1.9666    0.6414 C   0  0  0  0  0  0  0  0  0  0  0  0
    6.5719    2.7895   -0.0549 H   0  0  0  0  0  0  0  0  0  0  0  0
    7.9519    1.8945    0.6572 H   0  0  0  0  0  0  0  0  0  0  0  0
    6.5140    2.2602    1.6613 H   0  0  0  0  0  0  0  0  0  0  0  0
  1 14  1  0  0  0  0
  2 17  1  0  0  0  0
  3  5  1  0  0  0  0
  4 25  1  0  0  0  0
  5  7  1  0  0  0  0
  5  6  1  0  0  0  0
  7  8  1  0  0  0  0
  9  4  1  0  0  0  0
  9  7  2  0  0  0  0
 10  9  1  0  0  0  0
 11 10  1  0  0  0  0
 12 10  2  0  0  0  0
 12  3  1  0  0  0  0
 13 12  1  0  0  0  0
 14 13  2  0  0  0  0
 15 17  2  0  0  0  0
 15 14  1  0  0  0  0
 16 15  1  0  0  0  0
 17 18  1  0  0  0  0
 18 20  2  0  0  0  0
 19 18  1  0  0  0  0
 20 13  1  0  0  0  0
 21 23  1  0  0  0  0
 21  4  1  0  0  0  0
 21 22  1  0  0  0  0
 24 21  1  0  0  0  0
 25 27  1  0  0  0  0
 25 28  1  0  0  0  0
 26 25  1  0  0  0  0
M  END
