1,5
 OpenBabel05122313053D

 23 25  0  0  0  0  0  0  0  0999 V2000
    1.4697    0.5145   -0.0009 N   0  0  0  0  0  2  0  0  0  0  0  0
    1.8841    1.8392   -0.0005 C   0  0  0  0  0  0  0  0  0  0  0  0
    0.3905   -3.3831   -0.0002 C   0  0  0  0  0  0  0  0  0  0  0  0
   -0.6801   -3.6440   -0.0003 H   0  0  0  0  0  0  0  0  0  0  0  0
    0.7861   -2.0316   -0.0002 C   0  0  0  0  0  2  0  0  0  0  0  0
    2.4917   -0.3510    0.0000 C   0  0  0  0  0  0  0  0  0  0  0  0
    2.1937   -1.7632    0.0000 C   0  0  0  0  0  0  0  0  0  0  0  0
    4.0681    0.4034    0.0016 S   0  0  0  0  0  0  0  0  0  0  0  0
    3.3024    1.9833    0.0009 C   0  0  0  0  0  0  0  0  0  0  0  0
    1.0702    2.9889   -0.0018 C   0  0  0  0  0  0  0  0  0  0  0  0
   -0.0219    2.8821   -0.0031 H   0  0  0  0  0  0  0  0  0  0  0  0
    3.9140    3.2455    0.0013 C   0  0  0  0  0  0  0  0  0  0  0  0
    5.0091    3.3431    0.0024 H   0  0  0  0  0  0  0  0  0  0  0  0
    2.7251   -4.1288    0.0001 C   0  0  0  0  0  0  0  0  0  0  0  0
    3.4605   -4.9466    0.0002 H   0  0  0  0  0  0  0  0  0  0  0  0
    1.3454   -4.4141   -0.0000 C   0  0  0  0  0  0  0  0  0  0  0  0
    1.0084   -5.4628   -0.0000 H   0  0  0  0  0  0  0  0  0  0  0  0
    3.1530   -2.7979    0.0002 C   0  0  0  0  0  0  0  0  0  0  0  0
    4.2286   -2.5572    0.0003 H   0  0  0  0  0  0  0  0  0  0  0  0
    3.0876    4.3767    0.0002 C   0  0  0  0  0  0  0  0  0  0  0  0
    3.5433    5.3779    0.0005 H   0  0  0  0  0  0  0  0  0  0  0  0
    1.6817    4.2458   -0.0013 C   0  0  0  0  0  0  0  0  0  0  0  0
    1.0535    5.1488   -0.0023 H   0  0  0  0  0  0  0  0  0  0  0  0
  1  2  1  0  0  0  0
  1  6  1  0  0  0  0
  2  9  1  0  0  0  0
  3 16  2  0  0  0  0
  4  3  1  0  0  0  0
  5  3  1  0  0  0  0
  5  7  1  0  0  0  0
  6  7  2  0  0  0  0
  6  8  1  0  0  0  0
  7 18  1  0  0  0  0
  9 12  2  0  0  0  0
  9  8  1  0  0  0  0
 10 22  1  0  0  0  0
 10  2  2  0  0  0  0
 11 10  1  0  0  0  0
 12 13  1  0  0  0  0
 14 18  2  0  0  0  0
 14 15  1  0  0  0  0
 16 14  1  0  0  0  0
 17 16  1  0  0  0  0
 18 19  1  0  0  0  0
 20 21  1  0  0  0  0
 20 12  1  0  0  0  0
 22 20  2  0  0  0  0
 23 22  1  0  0  0  0
M  END
