1,3
 OpenBabel05122313053D

 40 40  0  0  1  0  0  0  0  0999 V2000
    2.0508   -0.4366    0.0517 C   0  0  0  0  0  3  0  0  0  0  0  0
    2.3010    0.9552   -0.4246 C   0  0  1  0  0  3  0  0  0  0  0  0
    1.2010    1.5550   -0.9712 N   0  0  0  0  0  2  0  0  0  0  0  0
    1.2433    2.8191   -1.4395 C   0  0  0  0  0  0  0  0  0  0  0  0
   -0.0262    3.3830   -2.0163 C   0  0  0  0  0  0  0  0  0  0  0  0
    2.4325    3.5708   -1.3783 C   0  0  0  0  0  0  0  0  0  0  0  0
    3.5810    2.9778   -0.8321 C   0  0  0  0  0  0  0  0  0  0  0  0
    3.5253    1.6635   -0.3564 C   0  0  0  0  0  0  0  0  0  0  0  0
    2.6839   -0.8729    1.7764 Si  0  0  0  0  0  0  0  0  0  0  0  0
    2.0310   -2.5795    2.2954 C   0  0  0  0  0  0  0  0  0  0  0  0
    2.0664    0.4392    3.0019 C   0  0  0  0  0  0  0  0  0  0  0  0
    4.5774   -0.9376    1.9833 C   0  0  0  0  0  0  0  0  0  0  0  0
    2.4359   -1.6538   -1.3555 Si  0  0  0  0  0  0  0  0  0  0  0  0
    1.5973   -3.3326   -1.0818 C   0  0  0  0  0  0  0  0  0  0  0  0
    1.8294   -0.9102   -2.9965 C   0  0  0  0  0  0  0  0  0  0  0  0
    4.3010   -1.9564   -1.5693 C   0  0  0  0  0  0  0  0  0  0  0  0
   -0.2516    2.9103   -2.9945 H   0  0  0  0  0  0  0  0  0  0  0  0
    0.0468    4.4759   -2.1698 H   0  0  0  0  0  0  0  0  0  0  0  0
   -0.8864    3.1654   -1.3535 H   0  0  0  0  0  0  0  0  0  0  0  0
    2.4497    4.6049   -1.7517 H   0  0  0  0  0  0  0  0  0  0  0  0
    4.5230    3.5457   -0.7775 H   0  0  0  0  0  0  0  0  0  0  0  0
    4.4131    1.1766    0.0686 H   0  0  0  0  0  0  0  0  0  0  0  0
    0.9735   -2.7357    2.0041 H   0  0  0  0  0  0  0  0  0  0  0  0
    2.6294   -3.3942    1.8404 H   0  0  0  0  0  0  0  0  0  0  0  0
    2.1014   -2.6905    3.3972 H   0  0  0  0  0  0  0  0  0  0  0  0
    2.4908    1.4322    2.7482 H   0  0  0  0  0  0  0  0  0  0  0  0
    0.9623    0.5286    2.9784 H   0  0  0  0  0  0  0  0  0  0  0  0
    2.3757    0.1911    4.0383 H   0  0  0  0  0  0  0  0  0  0  0  0
    5.0561   -1.6345    1.2674 H   0  0  0  0  0  0  0  0  0  0  0  0
    5.0481    0.0587    1.8560 H   0  0  0  0  0  0  0  0  0  0  0  0
    4.8226   -1.2850    3.0093 H   0  0  0  0  0  0  0  0  0  0  0  0
    2.0907   -3.9140   -0.2787 H   0  0  0  0  0  0  0  0  0  0  0  0
    0.5315   -3.2087   -0.8065 H   0  0  0  0  0  0  0  0  0  0  0  0
    1.6390   -3.9359   -2.0121 H   0  0  0  0  0  0  0  0  0  0  0  0
    0.7670   -0.5973   -2.9572 H   0  0  0  0  0  0  0  0  0  0  0  0
    2.4253   -0.0129   -3.2616 H   0  0  0  0  0  0  0  0  0  0  0  0
    1.9408   -1.6488   -3.8171 H   0  0  0  0  0  0  0  0  0  0  0  0
    4.8582   -0.9983   -1.6238 H   0  0  0  0  0  0  0  0  0  0  0  0
    4.7211   -2.5487   -0.7315 H   0  0  0  0  0  0  0  0  0  0  0  0
    4.4972   -2.5150   -2.5084 H   0  0  0  0  0  0  0  0  0  0  0  0
  1  9  1  0  0  0  0
  2  8  1  0  0  0  0
  2  1  1  1  0  0  0
  3  2  1  0  0  0  0
  4  6  2  0  0  0  0
  4  3  1  0  0  0  0
  5  4  1  0  0  0  0
  5 19  1  0  0  0  0
  6  7  1  0  0  0  0
  7 21  1  0  0  0  0
  7  8  2  0  0  0  0
  8 22  1  0  0  0  0
  9 12  1  0  0  0  0
  9 10  1  0  0  0  0
  9 11  1  0  0  0  0
 10 25  1  0  0  0  0
 11 28  1  0  0  0  0
 12 31  1  0  0  0  0
 13 14  1  0  0  0  0
 13  1  1  0  0  0  0
 14 33  1  0  0  0  0
 14 32  1  0  0  0  0
 15 35  1  0  0  0  0
 15 13  1  0  0  0  0
 16 13  1  0  0  0  0
 16 39  1  0  0  0  0
 17  5  1  0  0  0  0
 18  5  1  0  0  0  0
 20  6  1  0  0  0  0
 23 10  1  0  0  0  0
 24 10  1  0  0  0  0
 26 11  1  0  0  0  0
 27 11  1  0  0  0  0
 29 12  1  0  0  0  0
 30 12  1  0  0  0  0
 34 14  1  0  0  0  0
 36 15  1  0  0  0  0
 37 15  1  0  0  0  0
 38 16  1  0  0  0  0
 40 16  1  0  0  0  0
M  END
