1,12
 OpenBabel05122313053D

 30 32  0  0  0  0  0  0  0  0999 V2000
    0.0630   -1.2969    1.6847 C   0  0  0  0  0  2  0  0  0  0  0  0
   -0.8456   -0.9442    2.6998 C   0  0  0  0  0  0  0  0  0  0  0  0
   -1.2856    0.0582    2.7641 H   0  0  0  0  0  0  0  0  0  0  0  0
   -1.1999   -1.8755    3.6843 C   0  0  0  0  0  0  0  0  0  0  0  0
   -2.0772   -1.5065    4.6383 F   0  0  0  0  0  0  0  0  0  0  0  0
   -0.6789   -3.1769    3.7135 C   0  0  0  0  0  0  0  0  0  0  0  0
   -1.0000   -3.8768    4.4970 H   0  0  0  0  0  0  0  0  0  0  0  0
    0.2801   -3.5201    2.7552 C   0  0  0  0  0  0  0  0  0  0  0  0
    0.7467   -4.5158    2.8025 H   0  0  0  0  0  0  0  0  0  0  0  0
    0.6781   -2.5913    1.7709 C   0  0  0  0  0  0  0  0  0  0  0  0
    1.8314   -2.8036    0.8932 C   0  0  0  0  0  0  0  0  0  0  0  0
    2.2673   -1.6648    0.2592 N   0  0  0  0  0  2  0  0  0  0  0  0
    2.5252   -4.0168    0.7279 C   0  0  0  0  0  0  0  0  0  0  0  0
    2.1433   -4.9313    1.2005 H   0  0  0  0  0  0  0  0  0  0  0  0
    3.6930   -4.0384   -0.0398 C   0  0  0  0  0  0  0  0  0  0  0  0
    4.2413   -4.9805   -0.1901 H   0  0  0  0  0  0  0  0  0  0  0  0
    4.1891   -2.8407   -0.5671 C   0  0  0  0  0  0  0  0  0  0  0  0
    5.1590   -2.8041   -1.0808 H   0  0  0  0  0  0  0  0  0  0  0  0
    3.4666   -1.6445   -0.3816 C   0  0  0  0  0  0  0  0  0  0  0  0
    4.0481   -0.3453   -0.7765 C   0  0  0  0  0  0  0  0  0  0  0  0
    4.7582   -0.2011   -1.9866 C   0  0  0  0  0  0  0  0  0  0  0  0
    4.8190   -1.0472   -2.6866 H   0  0  0  0  0  0  0  0  0  0  0  0
    5.3299    1.0250   -2.3392 C   0  0  0  0  0  0  0  0  0  0  0  0
    5.8595    1.1638   -3.2921 H   0  0  0  0  0  0  0  0  0  0  0  0
    5.2030    2.1072   -1.4593 C   0  0  0  0  0  0  0  0  0  0  0  0
    5.7519    3.2892   -1.7905 F   0  0  0  0  0  0  0  0  0  0  0  0
    4.5264    1.9874   -0.2392 C   0  0  0  0  0  0  0  0  0  0  0  0
    4.4627    2.8604    0.4255 H   0  0  0  0  0  0  0  0  0  0  0  0
    3.9452    0.7609    0.0952 C   0  0  0  0  0  0  0  0  0  0  0  0
    3.3970    0.6538    1.0430 H   0  0  0  0  0  0  0  0  0  0  0  0
  1 10  1  0  0  0  0
  1  2  1  0  0  0  0
  2  3  1  0  0  0  0
  2  4  2  0  0  0  0
  4  6  1  0  0  0  0
  4  5  1  0  0  0  0
  6  7  1  0  0  0  0
  8  9  1  0  0  0  0
  8  6  2  0  0  0  0
 10  8  1  0  0  0  0
 11 10  2  0  0  0  0
 12 11  1  0  0  0  0
 13 11  1  0  0  0  0
 13 14  1  0  0  0  0
 15 13  2  0  0  0  0
 16 15  1  0  0  0  0
 17 19  2  0  0  0  0
 17 15  1  0  0  0  0
 18 17  1  0  0  0  0
 19 12  1  0  0  0  0
 20 19  1  0  0  0  0
 20 29  1  0  0  0  0
 21 20  2  0  0  0  0
 22 21  1  0  0  0  0
 23 21  1  0  0  0  0
 23 25  2  0  0  0  0
 24 23  1  0  0  0  0
 25 27  1  0  0  0  0
 26 25  1  0  0  0  0
 27 29  2  0  0  0  0
 27 28  1  0  0  0  0
 29 30  1  0  0  0  0
M  END
