1,3
 OpenBabel05122313053D

 29 30  0  0  0  0  0  0  0  0999 V2000
   -1.3764    1.0728   -0.0690 N   0  0  0  0  0  2  0  0  0  0  0  0
   -1.0515    2.2897    0.1294 N   0  0  0  0  0  0  0  0  0  0  0  0
    1.2551    1.4799    0.0384 C   0  0  0  0  0  2  0  0  0  0  0  0
    0.3043    2.5429    0.1599 C   0  0  0  0  0  0  0  0  0  0  0  0
    0.7379    3.8857    0.2416 C   0  0  0  0  0  0  0  0  0  0  0  0
    2.1012    4.1764    0.1645 C   0  0  0  0  0  0  0  0  0  0  0  0
    3.0490    3.1451   -0.0139 C   0  0  0  0  0  0  0  0  0  0  0  0
    2.6058    1.7959   -0.0732 C   0  0  0  0  0  0  0  0  0  0  0  0
    4.5170    3.4447   -0.1409 C   0  0  0  0  0  0  0  0  0  0  0  0
   -2.7573    0.7740   -0.0874 C   0  0  0  0  0  0  0  0  0  0  0  0
   -3.6859    1.6043    0.5852 C   0  0  0  0  0  0  0  0  0  0  0  0
   -5.0449    1.3040    0.5315 C   0  0  0  0  0  0  0  0  0  0  0  0
   -5.5238    0.1843   -0.1914 C   0  0  0  0  0  0  0  0  0  0  0  0
   -4.5830   -0.6240   -0.8602 C   0  0  0  0  0  0  0  0  0  0  0  0
   -3.2126   -0.3474   -0.8092 C   0  0  0  0  0  0  0  0  0  0  0  0
   -6.9938   -0.1369   -0.2168 C   0  0  0  0  0  0  0  0  0  0  0  0
   -0.0198    4.6759    0.3430 H   0  0  0  0  0  0  0  0  0  0  0  0
    2.4424    5.2213    0.2203 H   0  0  0  0  0  0  0  0  0  0  0  0
    3.3480    1.0001   -0.2588 H   0  0  0  0  0  0  0  0  0  0  0  0
    4.7185    4.5322   -0.1738 H   0  0  0  0  0  0  0  0  0  0  0  0
    5.0822    3.0150    0.7131 H   0  0  0  0  0  0  0  0  0  0  0  0
    4.9364    2.9792   -1.0566 H   0  0  0  0  0  0  0  0  0  0  0  0
   -3.3114    2.4730    1.1434 H   0  0  0  0  0  0  0  0  0  0  0  0
   -5.7611    1.9471    1.0671 H   0  0  0  0  0  0  0  0  0  0  0  0
   -4.9306   -1.4973   -1.4331 H   0  0  0  0  0  0  0  0  0  0  0  0
   -2.4888   -0.9970   -1.3176 H   0  0  0  0  0  0  0  0  0  0  0  0
   -7.2315   -0.9149   -0.9670 H   0  0  0  0  0  0  0  0  0  0  0  0
   -7.3335   -0.5101    0.7731 H   0  0  0  0  0  0  0  0  0  0  0  0
   -7.6009    0.7634   -0.4431 H   0  0  0  0  0  0  0  0  0  0  0  0
  1  2  1  0  0  0  0
  2  4  2  0  0  0  0
  3  4  1  0  0  0  0
  4  5  1  0  0  0  0
  5 17  1  0  0  0  0
  6 18  1  0  0  0  0
  6  5  2  0  0  0  0
  7  6  1  0  0  0  0
  8  7  2  0  0  0  0
  8  3  1  0  0  0  0
  9  7  1  0  0  0  0
  9 21  1  0  0  0  0
 10  1  1  0  0  0  0
 10 11  1  0  0  0  0
 11 23  1  0  0  0  0
 12 11  2  0  0  0  0
 12 24  1  0  0  0  0
 13 12  1  0  0  0  0
 14 15  1  0  0  0  0
 14 13  2  0  0  0  0
 15 10  2  0  0  0  0
 16 13  1  0  0  0  0
 16 28  1  0  0  0  0
 19  8  1  0  0  0  0
 20  9  1  0  0  0  0
 22  9  1  0  0  0  0
 25 14  1  0  0  0  0
 26 15  1  0  0  0  0
 27 16  1  0  0  0  0
 29 16  1  0  0  0  0
M  END
