3,4
 OpenBabel05122313053D

 24 25  0  0  0  0  0  0  0  0999 V2000
   -2.7498    2.4084    0.8461 Cl  0  0  0  0  0  0  0  0  0  0  0  0
    1.2402    4.3150   -1.2547 Cl  0  0  0  0  0  0  0  0  0  0  0  0
   -0.8615    0.4505   -0.6618 N   0  0  0  0  0  2  0  0  0  0  0  0
    1.6719    0.5076    0.1725 C   0  0  0  0  0  3  0  0  0  0  0  0
    2.9961    0.5677    0.6579 C   0  0  0  0  0  0  0  0  0  0  0  0
    3.7543    1.7434    0.5509 C   0  0  0  0  0  0  0  0  0  0  0  0
    3.2191    2.9014   -0.0450 C   0  0  0  0  0  0  0  0  0  0  0  0
    1.9060    2.8659   -0.5234 C   0  0  0  0  0  0  0  0  0  0  0  0
    1.1167    1.6914   -0.4201 C   0  0  0  0  0  0  0  0  0  0  0  0
   -0.2666    1.6035   -0.8296 C   0  0  0  0  0  3  0  0  0  0  0  0
   -2.2357    0.2939   -0.8651 C   0  0  0  0  0  0  0  0  0  0  0  0
   -3.2192    1.1064   -0.2373 C   0  0  0  0  0  0  0  0  0  0  0  0
   -4.5882    0.8590   -0.4114 C   0  0  0  0  0  0  0  0  0  0  0  0
   -5.0104   -0.2021   -1.2245 C   0  0  0  0  0  0  0  0  0  0  0  0
   -4.0563   -1.0285   -1.8403 C   0  0  0  0  0  0  0  0  0  0  0  0
   -2.6928   -0.7936   -1.6458 C   0  0  0  0  0  0  0  0  0  0  0  0
   -0.7867    2.4853   -1.2459 H   0  0  0  0  0  0  0  0  0  0  0  0
    3.4459   -0.3214    1.1284 H   0  0  0  0  0  0  0  0  0  0  0  0
   -4.3769   -1.8765   -2.4634 H   0  0  0  0  0  0  0  0  0  0  0  0
   -1.9343   -1.4519   -2.0864 H   0  0  0  0  0  0  0  0  0  0  0  0
    3.8083    3.8239   -0.1349 H   0  0  0  0  0  0  0  0  0  0  0  0
    4.7863    1.7688    0.9356 H   0  0  0  0  0  0  0  0  0  0  0  0
   -5.3139    1.5068    0.1002 H   0  0  0  0  0  0  0  0  0  0  0  0
   -6.0859   -0.3876   -1.3618 H   0  0  0  0  0  0  0  0  0  0  0  0
  2  8  1  0  0  0  0
  4  5  1  0  0  0  0
  5 18  1  0  0  0  0
  6  5  2  0  0  0  0
  6 22  1  0  0  0  0
  7  6  1  0  0  0  0
  8  9  1  0  0  0  0
  8  7  2  0  0  0  0
  9  4  2  0  0  0  0
 10  3  1  0  0  0  0
 10  9  1  0  0  0  0
 11  3  1  0  0  0  0
 11 12  1  0  0  0  0
 12  1  1  0  0  0  0
 13 12  2  0  0  0  0
 13 23  1  0  0  0  0
 14 13  1  0  0  0  0
 15 16  1  0  0  0  0
 15 14  2  0  0  0  0
 16 11  2  0  0  0  0
 17 10  1  0  0  0  0
 19 15  1  0  0  0  0
 20 16  1  0  0  0  0
 21  7  1  0  0  0  0
 24 14  1  0  0  0  0
M  END
