3,9
 OpenBabel05122313053D

 22 23  0  0  1  0  0  0  0  0999 V2000
    1.7678    2.0956    0.3274 S   0  0  0  0  0  0  0  0  0  0  0  0
    3.5105   -0.2610   -0.0939 S   0  0  0  0  0  0  0  0  0  0  0  0
    0.8679   -0.4735   -0.1208 N   0  0  0  0  0  2  0  0  0  0  0  0
   -0.9494    1.8617   -0.2651 C   0  0  0  0  0  0  0  0  0  0  0  0
   -1.9291    1.3301   -1.1611 C   0  0  0  0  0  0  0  0  0  0  0  0
   -1.8908    1.3771   -2.2560 H   0  0  0  0  0  0  0  0  0  0  0  0
   -2.9576    0.7108   -0.3661 C   0  0  0  0  0  3  0  0  0  0  0  0
   -3.8539    0.2085   -0.7481 H   0  0  0  0  0  0  0  0  0  0  0  0
   -2.6051    0.8759    1.0102 C   0  0  0  0  0  3  0  0  0  0  0  0
   -3.1909    0.5202    1.8666 H   0  0  0  0  0  0  0  0  0  0  0  0
   -1.3698    1.6054    1.0839 C   0  0  0  0  0  3  0  0  0  0  0  0
   -0.8333    1.8995    1.9924 H   0  0  0  0  0  0  0  0  0  0  0  0
    0.2993    2.5606   -0.6836 C   0  0  0  0  0  0  0  0  0  0  0  0
    0.2287    3.6575   -0.5265 H   0  0  0  0  0  0  0  0  0  0  0  0
    0.5291    2.3833   -1.7524 H   0  0  0  0  0  0  0  0  0  0  0  0
    1.8551    0.3773    0.0202 C   0  0  1  0  0  3  0  0  0  0  0  0
    1.3954   -1.8139   -0.4684 C   0  0  0  0  0  0  0  0  0  0  0  0
    1.3836   -1.9078   -1.5766 H   0  0  0  0  0  0  0  0  0  0  0  0
    0.7259   -2.5914   -0.0587 H   0  0  0  0  0  0  0  0  0  0  0  0
    2.8130   -1.9501    0.0874 C   0  0  0  0  0  0  0  0  0  0  0  0
    3.4305   -2.6701   -0.4813 H   0  0  0  0  0  0  0  0  0  0  0  0
    2.8182   -2.2271    1.1613 H   0  0  0  0  0  0  0  0  0  0  0  0
  2 16  1  0  0  0  0
  2 20  1  0  0  0  0
  3 16  1  0  0  0  0
  4 11  1  0  0  0  0
  5  7  1  0  0  0  0
  5  4  2  0  0  0  0
  6  5  1  0  0  0  0
  7  9  1  0  0  0  0
  8  7  1  0  0  0  0
  9 11  1  0  0  0  0
  9 10  1  0  0  0  0
 11 12  1  0  0  0  0
 13 14  1  0  0  0  0
 13  4  1  0  0  0  0
 13  1  1  0  0  0  0
 15 13  1  0  0  0  0
 16  1  1  1  0  0  0
 17  3  1  0  0  0  0
 17 19  1  0  0  0  0
 17 20  1  0  0  0  0
 18 17  1  0  0  0  0
 20 22  1  0  0  0  0
 21 20  1  0  0  0  0
M  END
