3,5
q = 0.0, confidence = 0.996

 26 28  0  0  1  0  0  0  0  0999 V2000
   -1.6805   -1.6593    0.1107 N   0  0  0  0  0  0  0  0  0  0  0  0
   -1.5611    0.5228    0.1312 N   0  0  0  0  0  0  0  0  0  0  0  0
    0.4370    1.6873    0.2012 N   0  0  0  0  0  2  0  0  0  0  0  0
   -1.6518    2.8718    0.0936 N   0  0  0  0  0  0  0  0  0  0  0  0
   -0.7872   -0.6389    0.1404 C   0  0  0  0  0  2  0  0  0  0  0  0
   -2.9997   -1.1841    0.0634 C   0  0  0  0  0  0  0  0  0  0  0  0
   -4.2224   -1.8626    0.0109 C   0  0  0  0  0  0  0  0  0  0  0  0
   -4.2709   -2.9601   -0.0037 H   0  0  0  0  0  0  0  0  0  0  0  0
   -5.3855   -1.0761   -0.0277 C   0  0  0  0  0  0  0  0  0  0  0  0
   -6.3668   -1.5708   -0.0714 H   0  0  0  0  0  0  0  0  0  0  0  0
   -5.3189    0.3324   -0.0144 C   0  0  0  0  0  0  0  0  0  0  0  0
   -6.2511    0.9152   -0.0481 H   0  0  0  0  0  0  0  0  0  0  0  0
   -4.0917    1.0149    0.0378 C   0  0  0  0  0  0  0  0  0  0  0  0
   -4.0216    2.1085    0.0445 H   0  0  0  0  0  0  0  0  0  0  0  0
   -2.9342    0.2286    0.0763 C   0  0  0  0  0  0  0  0  0  0  0  0
   -0.9230    1.7594    0.1370 C   0  0  2  0  0  3  0  0  0  0  0  0
    1.0993    2.8623    0.2104 C   0  0  0  0  0  0  0  0  0  0  0  0
    2.1964    2.8002    0.2504 H   0  0  0  0  0  0  0  0  0  0  0  0
    0.4209    4.0833    0.1635 C   0  0  0  0  0  0  0  0  0  0  0  0
    0.9687    5.0349    0.1689 H   0  0  0  0  0  0  0  0  0  0  0  0
   -0.9793    4.0323    0.1042 C   0  0  0  0  0  0  0  0  0  0  0  0
   -1.5856    4.9530    0.0623 H   0  0  0  0  0  0  0  0  0  0  0  0
   -1.3434   -3.0709    0.0969 C   0  0  0  0  0  0  0  0  0  0  0  0
   -0.2544   -3.1789    0.2214 H   0  0  0  0  0  0  0  0  0  0  0  0
   -1.6453   -3.5266   -0.8672 H   0  0  0  0  0  0  0  0  0  0  0  0
   -1.8629   -3.5909    0.9259 H   0  0  0  0  0  0  0  0  0  0  0  0
  1  5  1  0  0  0  0
  2  5  1  0  0  0  0
  3 17  1  0  0  0  0
  4 21  2  0  0  0  0
  4 16  1  0  0  0  0
  6 15  1  0  0  0  0
  6  1  1  0  0  0  0
  7  6  2  0  0  0  0
  8  7  1  0  0  0  0
  9 11  2  0  0  0  0
  9  7  1  0  0  0  0
 10  9  1  0  0  0  0
 11 13  1  0  0  0  0
 12 11  1  0  0  0  0
 13 14  1  0  0  0  0
 13 15  2  0  0  0  0
 15  2  1  0  0  0  0
 16  2  1  1  0  0  0
 16  3  1  0  0  0  0
 17 18  1  0  0  0  0
 19 20  1  0  0  0  0
 19 17  2  0  0  0  0
 21 19  1  0  0  0  0
 22 21  1  0  0  0  0
 23  1  1  0  0  0  0
 23 24  1  0  0  0  0
 23 26  1  0  0  0  0
 25 23  1  0  0  0  0
M  END
