11,23
 OpenBabel05122313053D

 23 24  0  0  0  0  0  0  0  0999 V2000
    0.4984    2.7602    0.0001 C   0  0  0  0  0  0  0  0  0  0  0  0
   -0.5901    2.9552    0.0001 H   0  0  0  0  0  0  0  0  0  0  0  0
    1.4625    3.7703    0.0001 C   0  0  0  0  0  0  0  0  0  0  0  0
    1.1475    4.8226    0.0002 H   0  0  0  0  0  0  0  0  0  0  0  0
    2.8108    3.3932    0.0001 C   0  0  0  0  0  0  0  0  0  0  0  0
    3.6065    4.1533    0.0001 H   0  0  0  0  0  0  0  0  0  0  0  0
    3.1521    2.0372    0.0000 C   0  0  0  0  0  0  0  0  0  0  0  0
    4.2048    1.7509    0.0000 H   0  0  0  0  0  0  0  0  0  0  0  0
    2.1517    1.0387    0.0000 C   0  0  0  0  0  0  0  0  0  0  0  0
    2.3348   -0.4217   -0.0000 C   0  0  0  0  0  0  0  0  0  0  0  0
    1.1274   -1.1880    0.0001 C   0  0  0  0  0  2  0  0  0  0  0  0
    1.1512   -2.5837    0.0001 C   0  0  0  0  0  0  0  0  0  0  0  0
    0.2064   -3.1462    0.0002 H   0  0  0  0  0  0  0  0  0  0  0  0
    2.3853   -3.2492    0.0001 C   0  0  0  0  0  0  0  0  0  0  0  0
    2.4144   -4.3497    0.0002 H   0  0  0  0  0  0  0  0  0  0  0  0
    3.5773   -2.5171   -0.0000 C   0  0  0  0  0  0  0  0  0  0  0  0
    4.5410   -3.0490   -0.0001 H   0  0  0  0  0  0  0  0  0  0  0  0
    3.5920   -1.1097   -0.0001 C   0  0  0  0  0  0  0  0  0  0  0  0
    4.9466   -0.4424   -0.0003 C   0  0  0  0  0  0  0  0  0  0  0  0
    5.1057    0.1930   -0.8961 H   0  0  0  0  0  0  0  0  0  0  0  0
    5.7436   -1.2093   -0.0004 H   0  0  0  0  0  0  0  0  0  0  0  0
    5.1060    0.1929    0.8956 H   0  0  0  0  0  0  0  0  0  0  0  0
    0.8414    1.4589    0.0001 N   0  0  0  0  0  2  0  0  0  0  0  0
  1  3  2  0  0  0  0
  1  2  1  0  0  0  0
  3  4  1  0  0  0  0
  5  6  1  0  0  0  0
  5  3  1  0  0  0  0
  7  5  2  0  0  0  0
  8  7  1  0  0  0  0
  9  7  1  0  0  0  0
  9 23  1  0  0  0  0
 10  9  2  0  0  0  0
 10 11  1  0  0  0  0
 11 12  1  0  0  0  0
 12 13  1  0  0  0  0
 14 12  2  0  0  0  0
 14 15  1  0  0  0  0
 16 14  1  0  0  0  0
 17 16  1  0  0  0  0
 18 16  2  0  0  0  0
 18 10  1  0  0  0  0
 19 18  1  0  0  0  0
 19 22  1  0  0  0  0
 20 19  1  0  0  0  0
 21 19  1  0  0  0  0
 23  1  1  0  0  0  0
M  END
