1,25
 OpenBabel05122313053D

 25 27  0  0  0  0  0  0  0  0999 V2000
    0.5433    1.5363   -0.5916 N   0  0  0  0  0  2  0  0  0  0  0  0
    2.3140    2.9473    0.2106 N   0  0  0  0  0  0  0  0  0  0  0  0
    2.5263    0.6371    0.2968 N   0  0  0  0  0  0  0  0  0  0  0  0
   -0.0387    2.6074   -1.1724 C   0  0  0  0  0  3  0  0  0  0  0  0
   -0.9730    2.3847   -1.7122 H   0  0  0  0  0  0  0  0  0  0  0  0
    0.5073    3.8894   -1.0689 C   0  0  0  0  0  0  0  0  0  0  0  0
    0.0191    4.7564   -1.5323 H   0  0  0  0  0  0  0  0  0  0  0  0
    1.6740    4.0042   -0.2921 C   0  0  0  0  0  0  0  0  0  0  0  0
    2.1131    4.9935   -0.0696 H   0  0  0  0  0  0  0  0  0  0  0  0
    1.7861    1.7248   -0.0278 C   0  0  0  0  0  0  0  0  0  0  0  0
    2.2616   -0.7005   -0.1018 C   0  0  0  0  0  0  0  0  0  0  0  0
    3.4547   -1.4479   -0.0474 C   0  0  0  0  0  0  0  0  0  0  0  0
    4.5940   -0.5556    0.3955 C   0  0  0  0  0  0  0  0  0  0  0  0
    5.2797   -0.3483   -0.4552 H   0  0  0  0  0  0  0  0  0  0  0  0
    5.2090   -1.0031    1.2016 H   0  0  0  0  0  0  0  0  0  0  0  0
    3.8836    0.7360    0.8656 C   0  0  0  0  0  0  0  0  0  0  0  0
    3.8084    0.7833    1.9743 H   0  0  0  0  0  0  0  0  0  0  0  0
    4.3598    1.6738    0.5275 H   0  0  0  0  0  0  0  0  0  0  0  0
    3.4415   -2.7930   -0.4297 C   0  0  0  0  0  0  0  0  0  0  0  0
    4.3607   -3.3976   -0.3999 H   0  0  0  0  0  0  0  0  0  0  0  0
    2.2237   -3.3491   -0.8665 C   0  0  0  0  0  0  0  0  0  0  0  0
    2.1915   -4.4012   -1.1902 H   0  0  0  0  0  0  0  0  0  0  0  0
    1.0434   -2.5827   -0.8920 C   0  0  0  0  0  0  0  0  0  0  0  0
    0.1081   -3.0459   -1.2432 H   0  0  0  0  0  0  0  0  0  0  0  0
    1.0154   -1.2305   -0.4791 C   0  0  0  0  0  3  0  0  0  0  0  0
  1 10  1  0  0  0  0
  3 16  1  0  0  0  0
  4  6  1  0  0  0  0
  4  1  1  0  0  0  0
  5  4  1  0  0  0  0
  6  8  2  0  0  0  0
  7  6  1  0  0  0  0
  8  9  1  0  0  0  0
  8  2  1  0  0  0  0
 10  2  2  0  0  0  0
 10  3  1  0  0  0  0
 11 12  1  0  0  0  0
 11  3  1  0  0  0  0
 12 13  1  0  0  0  0
 13 16  1  0  0  0  0
 13 15  1  0  0  0  0
 14 13  1  0  0  0  0
 16 17  1  0  0  0  0
 18 16  1  0  0  0  0
 19 20  1  0  0  0  0
 19 12  2  0  0  0  0
 21 19  1  0  0  0  0
 22 21  1  0  0  0  0
 23 21  2  0  0  0  0
 23 25  1  0  0  0  0
 24 23  1  0  0  0  0
 25 11  2  0  0  0  0
M  END
