2,7
 OpenBabel05122313053D

 29 29  0  0  1  0  0  0  0  0999 V2000
    0.7266    3.2516   -1.9589 Cl  0  0  0  0  0  0  0  0  0  0  0  0
    0.1330    0.8651   -0.7026 C   0  0  0  0  0  2  0  0  0  0  0  0
   -0.2996    2.0541   -1.1716 C   0  0  2  0  0  3  0  0  0  0  0  0
   -1.7514    2.4201   -1.0861 C   0  0  0  0  0  0  0  0  0  0  0  0
   -2.2649    2.1914   -2.0443 H   0  0  0  0  0  0  0  0  0  0  0  0
   -1.8979    3.5063   -0.8881 H   0  0  0  0  0  0  0  0  0  0  0  0
   -2.3980    1.6015   -0.0129 N   0  0  0  0  0  0  0  0  0  0  0  0
   -2.2048    2.2383    1.3136 C   0  0  0  0  0  0  0  0  0  0  0  0
   -1.1266    2.3967    1.4915 H   0  0  0  0  0  0  0  0  0  0  0  0
   -2.6063    1.5640    2.0922 H   0  0  0  0  0  0  0  0  0  0  0  0
   -2.7400    3.2149    1.3494 H   0  0  0  0  0  0  0  0  0  0  0  0
   -3.8412    1.4358   -0.2902 C   0  0  0  0  0  0  0  0  0  0  0  0
   -4.2784    0.7751    0.4802 H   0  0  0  0  0  0  0  0  0  0  0  0
   -3.9695    0.9487   -1.2744 H   0  0  0  0  0  0  0  0  0  0  0  0
   -4.3449    2.4288   -0.2971 H   0  0  0  0  0  0  0  0  0  0  0  0
    1.5232    0.3878   -0.7286 C   0  0  0  0  0  0  0  0  0  0  0  0
    1.9397   -0.4667   -1.7754 C   0  0  0  0  0  0  0  0  0  0  0  0
    1.2176   -0.6962   -2.5730 H   0  0  0  0  0  0  0  0  0  0  0  0
    3.2247   -1.0190   -1.8035 C   0  0  0  0  0  0  0  0  0  0  0  0
    3.5169   -1.6804   -2.6333 H   0  0  0  0  0  0  0  0  0  0  0  0
    4.1367   -0.7294   -0.7763 C   0  0  0  0  0  0  0  0  0  0  0  0
    5.1490   -1.1596   -0.7893 H   0  0  0  0  0  0  0  0  0  0  0  0
    3.7504    0.1181    0.2693 C   0  0  0  0  0  0  0  0  0  0  0  0
    4.4553    0.3570    1.0773 H   0  0  0  0  0  0  0  0  0  0  0  0
    2.4585    0.6731    0.3040 C   0  0  0  0  0  0  0  0  0  0  0  0
    2.0757    1.5543    1.4731 C   0  0  0  0  0  0  0  0  0  0  0  0
    1.6694    2.7884    1.0981 F   0  0  0  0  0  0  0  0  0  0  0  0
    3.1024    1.7217    2.3410 F   0  0  0  0  0  0  0  0  0  0  0  0
    1.0452    1.0142    2.1994 F   0  0  0  0  0  0  0  0  0  0  0  0
  3  1  1  6  0  0  0
  3  4  1  0  0  0  0
  3  2  1  0  0  0  0
  4  6  1  0  0  0  0
  4  7  1  0  0  0  0
  5  4  1  0  0  0  0
  7  8  1  0  0  0  0
  8 11  1  0  0  0  0
  8  9  1  0  0  0  0
  8 10  1  0  0  0  0
 12  7  1  0  0  0  0
 12 13  1  0  0  0  0
 14 12  1  0  0  0  0
 15 12  1  0  0  0  0
 16  2  1  0  0  0  0
 16 25  1  0  0  0  0
 17 16  2  0  0  0  0
 18 17  1  0  0  0  0
 19 17  1  0  0  0  0
 19 21  2  0  0  0  0
 20 19  1  0  0  0  0
 21 23  1  0  0  0  0
 22 21  1  0  0  0  0
 23 25  2  0  0  0  0
 23 24  1  0  0  0  0
 25 26  1  0  0  0  0
 26 29  1  0  0  0  0
 26 28  1  0  0  0  0
 27 26  1  0  0  0  0
M  END
