3,15
 OpenBabel05122313053D

 38 40  0  0  1  0  0  0  0  0999 V2000
   -1.5927    2.2157   -1.0395 O   0  0  0  0  0  0  0  0  0  0  0  0
    3.3648   -0.5659    1.5839 O   0  0  0  0  0  0  0  0  0  0  0  0
   -0.2898    0.4916   -0.0999 N   0  0  0  0  0  2  0  0  0  0  0  0
    4.5197    0.5853   -0.0344 N   0  0  0  0  0  0  0  0  0  0  0  0
    0.9267    0.0506    0.3078 C   0  0  0  0  0  3  0  0  0  0  0  0
    2.0965    0.7780    0.0756 C   0  0  0  0  0  0  0  0  0  0  0  0
    1.9871    2.0121   -0.6013 C   0  0  0  0  0  0  0  0  0  0  0  0
    0.7342    2.4831   -0.9788 C   0  0  0  0  0  0  0  0  0  0  0  0
   -0.4075    1.7059   -0.6904 C   0  0  0  0  0  0  0  0  0  0  0  0
   -2.7757    2.0047   -0.3113 C   0  0  1  0  0  3  0  0  0  0  0  0
   -3.5964    3.1398   -0.2055 C   0  0  0  0  0  0  0  0  0  0  0  0
   -4.7951    3.0495    0.5104 C   0  0  0  0  0  0  0  0  0  0  0  0
   -5.1578    1.8339    1.1128 C   0  0  0  0  0  0  0  0  0  0  0  0
   -4.3362    0.7040    0.9791 C   0  0  0  0  0  0  0  0  0  0  0  0
   -3.1348    0.7735    0.2505 C   0  0  0  0  0  2  0  0  0  0  0  0
    3.3781    0.1960    0.6185 C   0  0  0  0  0  0  0  0  0  0  0  0
    5.8352    0.1043    0.3397 C   0  0  0  0  0  0  0  0  0  0  0  0
    6.4836   -0.8558   -0.6870 C   0  0  0  0  0  0  0  0  0  0  0  0
    8.0134   -0.7363   -0.4523 C   0  0  0  0  0  0  0  0  0  0  0  0
    8.1964    0.4020    0.5889 C   0  0  0  0  0  0  0  0  0  0  0  0
    6.8925    1.2063    0.5222 C   0  0  0  0  0  0  0  0  0  0  0  0
    0.9612   -0.9388    0.7865 H   0  0  0  0  0  0  0  0  0  0  0  0
    2.8778    2.6310   -0.7901 H   0  0  0  0  0  0  0  0  0  0  0  0
    0.5848    3.4556   -1.4657 H   0  0  0  0  0  0  0  0  0  0  0  0
   -3.2698    4.0757   -0.6813 H   0  0  0  0  0  0  0  0  0  0  0  0
   -5.4432    3.9336    0.6018 H   0  0  0  0  0  0  0  0  0  0  0  0
   -6.0959    1.7560    1.6825 H   0  0  0  0  0  0  0  0  0  0  0  0
   -4.6416   -0.2583    1.4132 H   0  0  0  0  0  0  0  0  0  0  0  0
    5.6836   -0.4262    1.3023 H   0  0  0  0  0  0  0  0  0  0  0  0
    6.0955   -1.8875   -0.5817 H   0  0  0  0  0  0  0  0  0  0  0  0
    6.2163   -0.5188   -1.7117 H   0  0  0  0  0  0  0  0  0  0  0  0
    8.4549   -1.6861   -0.0922 H   0  0  0  0  0  0  0  0  0  0  0  0
    8.5329   -0.4911   -1.4001 H   0  0  0  0  0  0  0  0  0  0  0  0
    8.3038   -0.0282    1.6066 H   0  0  0  0  0  0  0  0  0  0  0  0
    9.0986    1.0175    0.4044 H   0  0  0  0  0  0  0  0  0  0  0  0
    6.8886    1.8727   -0.3706 H   0  0  0  0  0  0  0  0  0  0  0  0
    6.7048    1.8389    1.4125 H   0  0  0  0  0  0  0  0  0  0  0  0
    4.4344    1.0801   -0.9242 H   0  0  0  0  0  0  0  0  0  0  0  0
  1  9  1  0  0  0  0
  3  5  1  0  0  0  0
  4 17  1  0  0  0  0
  4 16  1  0  0  0  0
  5 22  1  0  0  0  0
  6  5  1  0  0  0  0
  6 16  1  0  0  0  0
  7  6  2  0  0  0  0
  8  9  2  0  0  0  0
  8  7  1  0  0  0  0
  9  3  1  0  0  0  0
 10  1  1  6  0  0  0
 10 11  1  0  0  0  0
 10 15  1  0  0  0  0
 11 12  2  0  0  0  0
 12 26  1  0  0  0  0
 12 13  1  0  0  0  0
 13 27  1  0  0  0  0
 14 13  2  0  0  0  0
 14 28  1  0  0  0  0
 15 14  1  0  0  0  0
 16  2  2  0  0  0  0
 17 21  1  0  0  0  0
 17 29  1  0  0  0  0
 18 30  1  0  0  0  0
 18 19  1  0  0  0  0
 18 17  1  0  0  0  0
 19 32  1  0  0  0  0
 19 20  1  0  0  0  0
 20 34  1  0  0  0  0
 21 20  1  0  0  0  0
 21 37  1  0  0  0  0
 23  7  1  0  0  0  0
 24  8  1  0  0  0  0
 25 11  1  0  0  0  0
 31 18  1  0  0  0  0
 33 19  1  0  0  0  0
 35 20  1  0  0  0  0
 36 21  1  0  0  0  0
 38  4  1  0  0  0  0
M  END
