1,4
 OpenBabel05122313053D

 32 34  0  0  0  0  0  0  0  0999 V2000
    0.1031    1.3436   -0.8388 N   0  0  0  0  0  0  0  0  0  0  0  0
    0.0615    0.9493   -1.7856 H   0  0  0  0  0  0  0  0  0  0  0  0
   -2.1956    0.6747   -0.2356 C   0  0  0  0  0  0  0  0  0  0  0  0
   -1.6136   -0.5657    0.1209 C   0  0  0  0  0  3  0  0  0  0  0  0
   -2.5328   -1.6175    0.4697 C   0  0  0  0  0  0  0  0  0  0  0  0
   -2.1204   -2.5962    0.7671 H   0  0  0  0  0  0  0  0  0  0  0  0
   -3.9068   -1.4517    0.4520 C   0  0  0  0  0  0  0  0  0  0  0  0
   -4.5749   -2.2851    0.7265 H   0  0  0  0  0  0  0  0  0  0  0  0
   -5.9003   -0.0044    0.0712 C   0  0  0  0  0  0  0  0  0  0  0  0
   -6.5502   -0.8554    0.3319 H   0  0  0  0  0  0  0  0  0  0  0  0
   -6.4537    1.2270   -0.2589 C   0  0  0  0  0  0  0  0  0  0  0  0
   -7.5457    1.3637   -0.2661 H   0  0  0  0  0  0  0  0  0  0  0  0
   -5.5990    2.3119   -0.5805 C   0  0  0  0  0  0  0  0  0  0  0  0
   -6.0325    3.2918   -0.8351 H   0  0  0  0  0  0  0  0  0  0  0  0
   -4.2184    2.1517   -0.5746 C   0  0  0  0  0  0  0  0  0  0  0  0
   -3.5842    3.0162   -0.8203 H   0  0  0  0  0  0  0  0  0  0  0  0
   -3.6130    0.8952   -0.2536 C   0  0  0  0  0  0  0  0  0  0  0  0
   -4.4922   -0.2013    0.0888 C   0  0  0  0  0  0  0  0  0  0  0  0
   -1.2663    1.8315   -0.5113 C   0  0  0  0  0  0  0  0  0  0  0  0
   -1.6234    2.4879   -1.3368 H   0  0  0  0  0  0  0  0  0  0  0  0
   -1.1871    2.4854    0.3819 H   0  0  0  0  0  0  0  0  0  0  0  0
    1.1537    2.3127   -0.8227 C   0  0  0  0  0  0  0  0  0  0  0  0
    2.0317    2.3992   -1.9220 C   0  0  0  0  0  0  0  0  0  0  0  0
    1.8829    1.7280   -2.7829 H   0  0  0  0  0  0  0  0  0  0  0  0
    3.0835    3.3264   -1.9227 C   0  0  0  0  0  0  0  0  0  0  0  0
    3.7599    3.3779   -2.7892 H   0  0  0  0  0  0  0  0  0  0  0  0
    3.2650    4.1919   -0.8318 C   0  0  0  0  0  0  0  0  0  0  0  0
    4.0848    4.9250   -0.8343 H   0  0  0  0  0  0  0  0  0  0  0  0
    2.3888    4.1098    0.2626 C   0  0  0  0  0  0  0  0  0  0  0  0
    2.5237    4.7769    1.1273 H   0  0  0  0  0  0  0  0  0  0  0  0
    1.3451    3.1740    0.2756 C   0  0  0  0  0  0  0  0  0  0  0  0
    0.6804    3.1049    1.1472 H   0  0  0  0  0  0  0  0  0  0  0  0
  1 22  1  0  0  0  0
  1 19  1  0  0  0  0
  2  1  1  0  0  0  0
  3  4  1  0  0  0  0
  4  5  2  0  0  0  0
  5  6  1  0  0  0  0
  7  5  1  0  0  0  0
  7  8  1  0  0  0  0
  9 18  1  0  0  0  0
  9 10  1  0  0  0  0
 11  9  2  0  0  0  0
 12 11  1  0  0  0  0
 13 15  2  0  0  0  0
 13 11  1  0  0  0  0
 14 13  1  0  0  0  0
 15 17  1  0  0  0  0
 16 15  1  0  0  0  0
 17  3  2  0  0  0  0
 17 18  1  0  0  0  0
 18  7  2  0  0  0  0
 19  3  1  0  0  0  0
 19 21  1  0  0  0  0
 20 19  1  0  0  0  0
 22 31  1  0  0  0  0
 23 22  2  0  0  0  0
 24 23  1  0  0  0  0
 25 23  1  0  0  0  0
 25 27  2  0  0  0  0
 26 25  1  0  0  0  0
 27 29  1  0  0  0  0
 28 27  1  0  0  0  0
 29 31  2  0  0  0  0
 29 30  1  0  0  0  0
 31 32  1  0  0  0  0
M  END
