1,8
 OpenBabel05122313053D

 54 59  0  0  0  0  0  0  0  0999 V2000
    0.6345    0.1557   -1.0937 N   0  0  0  0  0  0  0  0  0  0  0  0
    1.5212   -0.9973   -1.5323 C   0  0  0  0  0  0  0  0  0  0  0  0
    2.0874   -0.6462   -2.4206 H   0  0  0  0  0  0  0  0  0  0  0  0
    2.5190   -1.4057   -0.4798 C   0  0  0  0  0  0  0  0  0  0  0  0
    2.0574   -1.7306    0.8180 C   0  0  0  0  0  0  0  0  0  0  0  0
    0.6330   -1.7092    1.1583 C   0  0  0  0  0  3  0  0  0  0  0  0
    0.4615   -1.8826    2.2332 H   0  0  0  0  0  0  0  0  0  0  0  0
   -0.4542   -2.1231    0.3137 C   0  0  0  0  0  3  0  0  0  0  0  0
   -1.3273   -2.5355    0.8493 H   0  0  0  0  0  0  0  0  0  0  0  0
   -0.3619   -2.6079   -1.0672 C   0  0  0  0  0  0  0  0  0  0  0  0
    0.6169   -2.1231   -1.9732 C   0  0  0  0  0  0  0  0  0  0  0  0
    3.0076   -2.0737    1.8060 C   0  0  0  0  0  0  0  0  0  0  0  0
    2.6568   -2.3173    2.8212 H   0  0  0  0  0  0  0  0  0  0  0  0
    4.3726   -2.1328    1.5064 C   0  0  0  0  0  0  0  0  0  0  0  0
    4.8180   -1.8357    0.2080 C   0  0  0  0  0  0  0  0  0  0  0  0
    3.8892   -1.4700   -0.7755 C   0  0  0  0  0  0  0  0  0  0  0  0
   -1.2745   -3.5856   -1.5278 C   0  0  0  0  0  0  0  0  0  0  0  0
   -2.0442   -3.9620   -0.8359 H   0  0  0  0  0  0  0  0  0  0  0  0
   -1.1935   -4.0974   -2.8279 C   0  0  0  0  0  0  0  0  0  0  0  0
   -0.2002   -3.6329   -3.7061 C   0  0  0  0  0  0  0  0  0  0  0  0
    0.6940   -2.6421   -3.2763 C   0  0  0  0  0  0  0  0  0  0  0  0
    1.4628   -2.2577   -3.9652 H   0  0  0  0  0  0  0  0  0  0  0  0
    1.3417    1.4809   -1.2839 C   0  0  0  0  0  0  0  0  0  0  0  0
    1.8352    1.4421   -2.2784 H   0  0  0  0  0  0  0  0  0  0  0  0
    0.3201    2.5905   -1.3213 C   0  0  0  0  0  0  0  0  0  0  0  0
   -0.5488    2.7740   -0.2139 C   0  0  0  0  0  0  0  0  0  0  0  0
   -0.4743    1.9400    0.9881 C   0  0  0  0  0  3  0  0  0  0  0  0
    0.6843    1.3181    1.5609 C   0  0  0  0  0  3  0  0  0  0  0  0
    2.0696    1.5319    1.1240 C   0  0  0  0  0  0  0  0  0  0  0  0
    2.4111    1.6803   -0.2420 C   0  0  0  0  0  0  0  0  0  0  0  0
   -1.5528    3.7662   -0.3098 C   0  0  0  0  0  0  0  0  0  0  0  0
   -2.2401    3.9092    0.5387 H   0  0  0  0  0  0  0  0  0  0  0  0
   -1.6702    4.5748   -1.4462 C   0  0  0  0  0  0  0  0  0  0  0  0
   -0.7881    4.4029   -2.5256 C   0  0  0  0  0  0  0  0  0  0  0  0
    0.1973    3.4072   -2.4585 C   0  0  0  0  0  0  0  0  0  0  0  0
    3.1021    1.6156    2.0847 C   0  0  0  0  0  0  0  0  0  0  0  0
    2.8529    1.4791    3.1485 H   0  0  0  0  0  0  0  0  0  0  0  0
    4.4202    1.8957    1.7080 C   0  0  0  0  0  0  0  0  0  0  0  0
    4.7372    2.0921    0.3541 C   0  0  0  0  0  0  0  0  0  0  0  0
    5.7706    2.3159    0.0520 H   0  0  0  0  0  0  0  0  0  0  0  0
    3.7313    1.9758   -0.6142 C   0  0  0  0  0  0  0  0  0  0  0  0
    3.9780    2.0921   -1.6814 H   0  0  0  0  0  0  0  0  0  0  0  0
   -0.1088    0.1531   -1.8071 H   0  0  0  0  0  0  0  0  0  0  0  0
    5.0946   -2.4119    2.2881 H   0  0  0  0  0  0  0  0  0  0  0  0
    5.8901   -1.8739   -0.0343 H   0  0  0  0  0  0  0  0  0  0  0  0
    4.2353   -1.2083   -1.7877 H   0  0  0  0  0  0  0  0  0  0  0  0
   -1.9057   -4.8680   -3.1585 H   0  0  0  0  0  0  0  0  0  0  0  0
   -0.1298   -4.0331   -4.7282 H   0  0  0  0  0  0  0  0  0  0  0  0
   -1.2973    2.1372    1.6962 H   0  0  0  0  0  0  0  0  0  0  0  0
    0.6136    1.1359    2.6457 H   0  0  0  0  0  0  0  0  0  0  0  0
   -2.4517    5.3481   -1.4894 H   0  0  0  0  0  0  0  0  0  0  0  0
   -0.8728    5.0359   -3.4210 H   0  0  0  0  0  0  0  0  0  0  0  0
    0.8840    3.2551   -3.3065 H   0  0  0  0  0  0  0  0  0  0  0  0
    5.2056    1.9649    2.4751 H   0  0  0  0  0  0  0  0  0  0  0  0
  2  1  1  0  0  0  0
  2  4  1  0  0  0  0
  3  2  1  0  0  0  0
  4  5  1  0  0  0  0
  5  6  1  0  0  0  0
  5 12  2  0  0  0  0
  6  7  1  0  0  0  0
  8  9  1  0  0  0  0
  8  6  1  0  0  0  0
 10  8  1  0  0  0  0
 11  2  1  0  0  0  0
 11 10  2  0  0  0  0
 12 13  1  0  0  0  0
 14 12  1  0  0  0  0
 14 44  1  0  0  0  0
 15 14  2  0  0  0  0
 16  4  2  0  0  0  0
 16 15  1  0  0  0  0
 17 10  1  0  0  0  0
 17 18  1  0  0  0  0
 19 17  2  0  0  0  0
 20 21  2  0  0  0  0
 20 19  1  0  0  0  0
 21 11  1  0  0  0  0
 22 21  1  0  0  0  0
 23  1  1  0  0  0  0
 23 30  1  0  0  0  0
 24 23  1  0  0  0  0
 25 23  1  0  0  0  0
 25 26  1  0  0  0  0
 26 27  1  0  0  0  0
 27 28  1  0  0  0  0
 27 49  1  0  0  0  0
 28 50  1  0  0  0  0
 29 28  1  0  0  0  0
 29 36  1  0  0  0  0
 30 29  2  0  0  0  0
 31 26  2  0  0  0  0
 31 32  1  0  0  0  0
 33 31  1  0  0  0  0
 34 35  1  0  0  0  0
 34 33  2  0  0  0  0
 35 25  2  0  0  0  0
 36 37  1  0  0  0  0
 38 36  2  0  0  0  0
 38 54  1  0  0  0  0
 39 38  1  0  0  0  0
 40 39  1  0  0  0  0
 41 30  1  0  0  0  0
 41 39  2  0  0  0  0
 42 41  1  0  0  0  0
 43  1  1  0  0  0  0
 45 15  1  0  0  0  0
 46 16  1  0  0  0  0
 47 19  1  0  0  0  0
 48 20  1  0  0  0  0
 51 33  1  0  0  0  0
 52 34  1  0  0  0  0
 53 35  1  0  0  0  0
M  END
