1,3
 OpenBabel05122313053D

 24 25  0  0  0  0  0  0  0  0999 V2000
   -2.3224    0.6730   -0.1234 N   0  0  0  0  0  2  0  0  0  0  0  0
   -4.6601    0.5288   -0.2002 O   0  0  0  0  0  0  0  0  0  0  0  0
   -1.9735   -1.8703    0.1023 C   0  0  0  0  0  3  0  0  0  0  0  0
   -1.6838   -3.2327    0.3104 C   0  0  0  0  0  0  0  0  0  0  0  0
   -0.6410   -3.5674    0.4260 H   0  0  0  0  0  0  0  0  0  0  0  0
   -2.7387   -4.1644    0.3567 C   0  0  0  0  0  0  0  0  0  0  0  0
   -2.5111   -5.2306    0.5183 H   0  0  0  0  0  0  0  0  0  0  0  0
   -4.0775   -3.7533    0.1974 C   0  0  0  0  0  0  0  0  0  0  0  0
   -4.8884   -4.4968    0.2328 H   0  0  0  0  0  0  0  0  0  0  0  0
   -4.3692   -2.3949    0.0065 C   0  0  0  0  0  0  0  0  0  0  0  0
   -5.3999   -2.0201   -0.0980 H   0  0  0  0  0  0  0  0  0  0  0  0
   -3.3166   -1.4652   -0.0322 C   0  0  0  0  0  0  0  0  0  0  0  0
   -3.5383    0.0055   -0.1291 C   0  0  0  0  0  0  0  0  0  0  0  0
   -2.2695    2.0713   -0.2090 C   0  0  0  0  0  0  0  0  0  0  0  0
   -3.2244    2.9135    0.4242 C   0  0  0  0  0  0  0  0  0  0  0  0
   -4.0583    2.4552    0.9692 H   0  0  0  0  0  0  0  0  0  0  0  0
   -3.1236    4.3058    0.3172 C   0  0  0  0  0  0  0  0  0  0  0  0
   -3.8760    4.9363    0.8168 H   0  0  0  0  0  0  0  0  0  0  0  0
   -2.0864    4.9047   -0.4199 C   0  0  0  0  0  0  0  0  0  0  0  0
   -2.0188    6.0000   -0.5016 H   0  0  0  0  0  0  0  0  0  0  0  0
   -1.1415    4.0828   -1.0517 C   0  0  0  0  0  0  0  0  0  0  0  0
   -0.3126    4.5256   -1.6250 H   0  0  0  0  0  0  0  0  0  0  0  0
   -1.2312    2.6888   -0.9456 C   0  0  0  0  0  0  0  0  0  0  0  0
   -0.4738    2.0515   -1.4181 H   0  0  0  0  0  0  0  0  0  0  0  0
  2 13  2  0  0  0  0
  3  4  1  0  0  0  0
  4  6  2  0  0  0  0
  4  5  1  0  0  0  0
  6  7  1  0  0  0  0
  8  9  1  0  0  0  0
  8  6  1  0  0  0  0
 10  8  2  0  0  0  0
 11 10  1  0  0  0  0
 12 10  1  0  0  0  0
 12  3  2  0  0  0  0
 13  1  1  0  0  0  0
 13 12  1  0  0  0  0
 14  1  1  0  0  0  0
 14 15  1  0  0  0  0
 15 16  1  0  0  0  0
 17 15  2  0  0  0  0
 17 18  1  0  0  0  0
 19 17  1  0  0  0  0
 20 19  1  0  0  0  0
 21 23  1  0  0  0  0
 21 19  2  0  0  0  0
 22 21  1  0  0  0  0
 23 14  2  0  0  0  0
 24 23  1  0  0  0  0
M  END
