3,4
 OpenBabel05122313053D

 41 41  0  0  0  0  0  0  0  0999 V2000
    3.2919    0.3459   -0.1229 Si  0  0  0  0  0  0  0  0  0  0  0  0
   -1.6001    1.7554    0.0354 Si  0  0  0  0  0  0  0  0  0  0  0  0
   -1.6635   -0.0277    0.0074 N   0  0  0  0  0  2  0  0  0  0  0  0
    0.2822    1.7380   -0.0348 C   0  0  0  0  0  3  0  0  0  0  0  0
    0.9816    1.4687    1.1950 C   0  0  0  0  0  3  0  0  0  0  0  0
    2.1683    0.7466    1.3203 C   0  0  0  0  0  3  0  0  0  0  0  0
    1.9952    0.5464   -1.4615 C   0  0  0  0  0  3  0  0  0  0  0  0
    0.8316    1.2960   -1.2935 C   0  0  0  0  0  3  0  0  0  0  0  0
    3.9365   -1.4249   -0.0305 C   0  0  0  0  0  0  0  0  0  0  0  0
    4.7459    1.5430   -0.3052 C   0  0  0  0  0  0  0  0  0  0  0  0
   -2.3820    2.6017   -1.4593 C   0  0  0  0  0  0  0  0  0  0  0  0
   -2.2367    2.5259    1.6354 C   0  0  0  0  0  0  0  0  0  0  0  0
   -2.8783   -0.8735   -0.1481 C   0  0  0  0  0  0  0  0  0  0  0  0
   -3.1576   -1.0290   -1.6573 C   0  0  0  0  0  0  0  0  0  0  0  0
   -4.0739   -0.1829    0.5368 C   0  0  0  0  0  0  0  0  0  0  0  0
   -2.6888   -2.2606    0.4893 C   0  0  0  0  0  0  0  0  0  0  0  0
    0.4315    1.7071    2.1243 H   0  0  0  0  0  0  0  0  0  0  0  0
    2.4425    0.4602    2.3508 H   0  0  0  0  0  0  0  0  0  0  0  0
    2.1461    0.1218   -2.4696 H   0  0  0  0  0  0  0  0  0  0  0  0
    0.1720    1.4117   -2.1739 H   0  0  0  0  0  0  0  0  0  0  0  0
    3.1040   -2.1444    0.0963 H   0  0  0  0  0  0  0  0  0  0  0  0
    4.6346   -1.5430    0.8238 H   0  0  0  0  0  0  0  0  0  0  0  0
    4.4871   -1.6907   -0.9564 H   0  0  0  0  0  0  0  0  0  0  0  0
    4.3911    2.5912   -0.3634 H   0  0  0  0  0  0  0  0  0  0  0  0
    5.3263    1.3194   -1.2247 H   0  0  0  0  0  0  0  0  0  0  0  0
    5.4364    1.4560    0.5596 H   0  0  0  0  0  0  0  0  0  0  0  0
   -2.1207    3.6805   -1.4496 H   0  0  0  0  0  0  0  0  0  0  0  0
   -3.4874    2.5208   -1.4374 H   0  0  0  0  0  0  0  0  0  0  0  0
   -2.0308    2.1681   -2.4164 H   0  0  0  0  0  0  0  0  0  0  0  0
   -1.9320    1.9307    2.5189 H   0  0  0  0  0  0  0  0  0  0  0  0
   -3.3422    2.5950    1.6392 H   0  0  0  0  0  0  0  0  0  0  0  0
   -1.8298    3.5526    1.7462 H   0  0  0  0  0  0  0  0  0  0  0  0
   -3.3512   -0.0454   -2.1298 H   0  0  0  0  0  0  0  0  0  0  0  0
   -4.0456   -1.6725   -1.8242 H   0  0  0  0  0  0  0  0  0  0  0  0
   -2.2865   -1.4936   -2.1590 H   0  0  0  0  0  0  0  0  0  0  0  0
   -3.8809   -0.0384    1.6183 H   0  0  0  0  0  0  0  0  0  0  0  0
   -4.9862   -0.8033    0.4303 H   0  0  0  0  0  0  0  0  0  0  0  0
   -4.2935    0.8048    0.0813 H   0  0  0  0  0  0  0  0  0  0  0  0
   -2.4727   -2.1727    1.5711 H   0  0  0  0  0  0  0  0  0  0  0  0
   -1.8531   -2.8106    0.0166 H   0  0  0  0  0  0  0  0  0  0  0  0
   -3.6126   -2.8595    0.3597 H   0  0  0  0  0  0  0  0  0  0  0  0
  1  9  1  0  0  0  0
  1  6  1  0  0  0  0
  2 12  1  0  0  0  0
  3  2  1  0  0  0  0
  4  2  1  0  0  0  0
  4  5  1  0  0  0  0
  5  6  1  0  0  0  0
  5 17  1  0  0  0  0
  6 18  1  0  0  0  0
  7  8  1  0  0  0  0
  7  1  1  0  0  0  0
  8  4  1  0  0  0  0
  9 21  1  0  0  0  0
  9 22  1  0  0  0  0
 10  1  1  0  0  0  0
 10 26  1  0  0  0  0
 11 27  1  0  0  0  0
 11 28  1  0  0  0  0
 11  2  1  0  0  0  0
 12 31  1  0  0  0  0
 12 32  1  0  0  0  0
 12 30  1  0  0  0  0
 13  3  1  0  0  0  0
 13 16  1  0  0  0  0
 13 15  1  0  0  0  0
 14 13  1  0  0  0  0
 15 36  1  0  0  0  0
 16 39  1  0  0  0  0
 19  7  1  0  0  0  0
 20  8  1  0  0  0  0
 23  9  1  0  0  0  0
 24 10  1  0  0  0  0
 25 10  1  0  0  0  0
 29 11  1  0  0  0  0
 33 14  1  0  0  0  0
 34 14  1  0  0  0  0
 35 14  1  0  0  0  0
 37 15  1  0  0  0  0
 38 15  1  0  0  0  0
 40 16  1  0  0  0  0
 41 16  1  0  0  0  0
M  END
