1,17
 OpenBabel05122313053D

 30 33  0  0  1  0  0  0  0  0999 V2000
   -1.8100   -0.1949   -0.2119 N   0  0  0  0  0  2  0  0  0  0  0  0
   -3.8354    0.6823    0.0674 N   0  0  0  0  0  0  0  0  0  0  0  0
   -4.5510    1.3255    0.4047 H   0  0  0  0  0  0  0  0  0  0  0  0
   -1.9360    2.1290    0.7472 C   0  0  0  0  0  0  0  0  0  0  0  0
   -2.7495    3.2719    0.7667 C   0  0  0  0  0  0  0  0  0  0  0  0
   -3.6996    3.2793    0.2099 H   0  0  0  0  0  0  0  0  0  0  0  0
   -2.3800    4.4246    1.4902 C   0  0  0  0  0  0  0  0  0  0  0  0
   -3.0286    5.3123    1.4765 H   0  0  0  0  0  0  0  0  0  0  0  0
   -1.2189    4.4074    2.2477 C   0  0  0  0  0  0  0  0  0  0  0  0
   -0.9455    5.2758    2.8667 H   0  0  0  0  0  0  0  0  0  0  0  0
    0.8077    3.2638    3.0748 C   0  0  0  0  0  0  0  0  0  0  0  0
    1.0170    4.1372    3.7103 H   0  0  0  0  0  0  0  0  0  0  0  0
    1.6431    2.1612    3.0765 C   0  0  0  0  0  0  0  0  0  0  0  0
    2.5249    2.1311    3.7345 H   0  0  0  0  0  0  0  0  0  0  0  0
    1.3949    1.0830    2.1900 C   0  0  0  0  0  0  0  0  0  0  0  0
    2.1298    0.2634    2.1787 H   0  0  0  0  0  0  0  0  0  0  0  0
    0.2956    1.0506    1.3238 C   0  0  0  0  0  3  0  0  0  0  0  0
   -0.6555    2.1269    1.4180 C   0  0  0  0  0  0  0  0  0  0  0  0
   -0.3532    3.2752    2.2504 C   0  0  0  0  0  0  0  0  0  0  0  0
   -2.4850    0.9021    0.1837 C   0  0  1  0  0  3  0  0  0  0  0  0
   -2.7557   -1.1658   -0.5739 C   0  0  0  0  0  0  0  0  0  0  0  0
   -2.6168   -2.4940   -1.0208 C   0  0  0  0  0  0  0  0  0  0  0  0
   -1.6196   -2.9130   -1.2118 H   0  0  0  0  0  0  0  0  0  0  0  0
   -3.7903   -3.2153   -1.2651 C   0  0  0  0  0  0  0  0  0  0  0  0
   -3.7131   -4.2525   -1.6226 H   0  0  0  0  0  0  0  0  0  0  0  0
   -5.0736   -2.6463   -1.0789 C   0  0  0  0  0  0  0  0  0  0  0  0
   -5.9679   -3.2514   -1.2878 H   0  0  0  0  0  0  0  0  0  0  0  0
   -5.2285   -1.3274   -0.6384 C   0  0  0  0  0  0  0  0  0  0  0  0
   -6.2221   -0.8805   -0.4919 H   0  0  0  0  0  0  0  0  0  0  0  0
   -4.0513   -0.6059   -0.3895 C   0  0  0  0  0  0  0  0  0  0  0  0
  1 20  1  0  0  0  0
  2 20  1  0  0  0  0
  2  3  1  0  0  0  0
  4  5  2  0  0  0  0
  4 18  1  0  0  0  0
  5  7  1  0  0  0  0
  6  5  1  0  0  0  0
  7  9  2  0  0  0  0
  8  7  1  0  0  0  0
  9 19  1  0  0  0  0
  9 10  1  0  0  0  0
 11 13  1  0  0  0  0
 11 12  1  0  0  0  0
 13 14  1  0  0  0  0
 15 13  2  0  0  0  0
 16 15  1  0  0  0  0
 17 18  2  0  0  0  0
 17 15  1  0  0  0  0
 18 19  1  0  0  0  0
 19 11  2  0  0  0  0
 20  4  1  1  0  0  0
 21 30  1  0  0  0  0
 21  1  1  0  0  0  0
 22 21  2  0  0  0  0
 23 22  1  0  0  0  0
 24 26  2  0  0  0  0
 24 22  1  0  0  0  0
 25 24  1  0  0  0  0
 26 28  1  0  0  0  0
 27 26  1  0  0  0  0
 28 29  1  0  0  0  0
 28 30  2  0  0  0  0
 30  2  1  0  0  0  0
M  END
