4,26
 OpenBabel05122313053D

 41 43  0  0  0  0  0  0  0  0999 V2000
   -2.5838    0.7938    0.9224 Se  0  0  0  0  0  0  0  0  0  0  0  0
    2.3439   -1.4657    0.0158 N   0  0  0  0  0  0  0  0  0  0  0  0
    2.6212    0.7073    0.1521 N   0  0  0  0  0  0  0  0  0  0  0  0
    0.0145    1.7321   -0.4982 N   0  0  0  0  0  2  0  0  0  0  0  0
    1.1131    3.6941   -1.0442 O   0  0  0  0  0  0  0  0  0  0  0  0
    3.8487    0.1900   -0.2586 C   0  0  0  0  0  0  0  0  0  0  0  0
    3.6667   -1.2119   -0.3483 C   0  0  0  0  0  0  0  0  0  0  0  0
   -3.3344   -0.4394   -0.3878 C   0  0  0  0  0  0  0  0  0  0  0  0
    5.0822    0.7859   -0.5571 C   0  0  0  0  0  0  0  0  0  0  0  0
    5.2295    1.8726   -0.4878 H   0  0  0  0  0  0  0  0  0  0  0  0
   -2.3288    2.3879   -0.2360 C   0  0  0  0  0  0  0  0  0  0  0  0
   -3.2917    2.6334   -0.7240 H   0  0  0  0  0  0  0  0  0  0  0  0
   -2.0861    3.1935    0.4856 H   0  0  0  0  0  0  0  0  0  0  0  0
   -3.0384   -1.8078   -0.2472 C   0  0  0  0  0  0  0  0  0  0  0  0
   -2.3547   -2.1421    0.5511 H   0  0  0  0  0  0  0  0  0  0  0  0
    1.0676    2.5843   -0.4931 C   0  0  0  0  0  0  0  0  0  0  0  0
    4.7073   -2.0627   -0.7465 C   0  0  0  0  0  0  0  0  0  0  0  0
    4.5636   -3.1494   -0.8226 H   0  0  0  0  0  0  0  0  0  0  0  0
    2.2950    2.1177    0.3182 C   0  0  0  0  0  0  0  0  0  0  0  0
    3.1510    2.7227   -0.0261 H   0  0  0  0  0  0  0  0  0  0  0  0
    2.1263    2.3306    1.3951 H   0  0  0  0  0  0  0  0  0  0  0  0
    6.1233   -0.0666   -0.9534 C   0  0  0  0  0  0  0  0  0  0  0  0
    7.1048    0.3652   -1.1983 H   0  0  0  0  0  0  0  0  0  0  0  0
    5.9402   -1.4646   -1.0467 C   0  0  0  0  0  0  0  0  0  0  0  0
    6.7819   -2.0979   -1.3631 H   0  0  0  0  0  0  0  0  0  0  0  0
    1.7070   -0.2940    0.3176 C   0  0  0  0  0  2  0  0  0  0  0  0
   -3.6089   -2.7268   -1.1408 C   0  0  0  0  0  0  0  0  0  0  0  0
   -3.3759   -3.7971   -1.0319 H   0  0  0  0  0  0  0  0  0  0  0  0
   -4.1978    0.0063   -1.4028 C   0  0  0  0  0  0  0  0  0  0  0  0
   -4.4503    1.0712   -1.5075 H   0  0  0  0  0  0  0  0  0  0  0  0
   -1.1838    2.1499   -1.2106 C   0  0  0  0  0  0  0  0  0  0  0  0
   -1.4841    1.3803   -1.9559 H   0  0  0  0  0  0  0  0  0  0  0  0
   -0.9521    3.0937   -1.7524 H   0  0  0  0  0  0  0  0  0  0  0  0
   -4.4602   -2.2907   -2.1689 C   0  0  0  0  0  0  0  0  0  0  0  0
   -4.8984   -3.0162   -2.8706 H   0  0  0  0  0  0  0  0  0  0  0  0
    1.7412   -2.7888   -0.0017 C   0  0  0  0  0  0  0  0  0  0  0  0
    2.4137   -3.5052    0.5090 H   0  0  0  0  0  0  0  0  0  0  0  0
    1.5776   -3.1234   -1.0463 H   0  0  0  0  0  0  0  0  0  0  0  0
    0.7840   -2.7421    0.5519 H   0  0  0  0  0  0  0  0  0  0  0  0
   -4.7519   -0.9244   -2.2968 C   0  0  0  0  0  0  0  0  0  0  0  0
   -5.4215   -0.5725   -3.0963 H   0  0  0  0  0  0  0  0  0  0  0  0
  2 26  1  0  0  0  0
  3 26  1  0  0  0  0
  3 19  1  0  0  0  0
  4 16  1  0  0  0  0
  5 16  2  0  0  0  0
  6  3  1  0  0  0  0
  7  6  1  0  0  0  0
  7  2  1  0  0  0  0
  8 14  1  0  0  0  0
  8  1  1  0  0  0  0
  9 10  1  0  0  0  0
  9  6  2  0  0  0  0
 11 13  1  0  0  0  0
 11  1  1  0  0  0  0
 12 11  1  0  0  0  0
 14 15  1  0  0  0  0
 16 19  1  0  0  0  0
 17  7  2  0  0  0  0
 18 17  1  0  0  0  0
 19 21  1  0  0  0  0
 20 19  1  0  0  0  0
 22  9  1  0  0  0  0
 23 22  1  0  0  0  0
 24 22  2  0  0  0  0
 24 17  1  0  0  0  0
 25 24  1  0  0  0  0
 27 28  1  0  0  0  0
 27 14  2  0  0  0  0
 29  8  2  0  0  0  0
 30 29  1  0  0  0  0
 31  4  1  0  0  0  0
 31 11  1  0  0  0  0
 32 31  1  0  0  0  0
 33 31  1  0  0  0  0
 34 27  1  0  0  0  0
 35 34  1  0  0  0  0
 36  2  1  0  0  0  0
 36 37  1  0  0  0  0
 36 39  1  0  0  0  0
 38 36  1  0  0  0  0
 40 34  2  0  0  0  0
 40 29  1  0  0  0  0
 41 40  1  0  0  0  0
M  END
