2,16
q = 0.0, confidence = 0.998

 34 37  0  0  1  0  0  0  0  0999 V2000
    3.1354   -2.2026    0.2895 S   0  0  0  0  0  0  0  0  0  0  0  0
    1.6709   -0.0588   -0.1046 N   0  0  0  0  0  2  0  0  0  0  0  0
    0.4368   -1.9719   -0.3720 N   0  0  0  0  0  0  0  0  0  0  0  0
   -1.6838   -1.8793   -0.8134 N   0  0  0  0  0  0  0  0  0  0  0  0
    2.9392    0.4210    0.2393 C   0  0  0  0  0  0  0  0  0  0  0  0
    3.3442    1.7606    0.3856 C   0  0  0  0  0  0  0  0  0  0  0  0
    2.6265    2.5740    0.2322 H   0  0  0  0  0  0  0  0  0  0  0  0
    4.6680    2.0323    0.7446 C   0  0  0  0  0  0  0  0  0  0  0  0
    4.9891    3.0774    0.8614 H   0  0  0  0  0  0  0  0  0  0  0  0
    5.5957    0.9923    0.9641 C   0  0  0  0  0  0  0  0  0  0  0  0
    6.6314    1.2335    1.2436 H   0  0  0  0  0  0  0  0  0  0  0  0
    5.2131   -0.3488    0.8400 C   0  0  0  0  0  0  0  0  0  0  0  0
    5.9297   -1.1623    1.0210 H   0  0  0  0  0  0  0  0  0  0  0  0
    3.8847   -0.6170    0.4831 C   0  0  0  0  0  0  0  0  0  0  0  0
    1.6548   -1.3902   -0.0941 C   0  0  2  0  0  3  0  0  0  0  0  0
   -0.5952   -1.0741   -0.6402 C   0  0  0  0  0  2  0  0  0  0  0  0
   -0.0040   -3.2940   -0.3783 C   0  0  0  0  0  0  0  0  0  0  0  0
    0.6520   -4.1487   -0.1891 H   0  0  0  0  0  0  0  0  0  0  0  0
   -1.3415   -3.2237   -0.6541 C   0  0  0  0  0  0  0  0  0  0  0  0
   -2.0838   -4.0220   -0.7521 H   0  0  0  0  0  0  0  0  0  0  0  0
   -3.0540   -1.4233   -1.0497 C   0  0  0  0  0  0  0  0  0  0  0  0
   -3.6599   -2.3327   -1.2395 H   0  0  0  0  0  0  0  0  0  0  0  0
   -3.0747   -0.8373   -1.9903 H   0  0  0  0  0  0  0  0  0  0  0  0
   -3.6406   -0.6232    0.0982 C   0  0  0  0  0  0  0  0  0  0  0  0
   -3.2029   -0.8013    1.4235 C   0  0  0  0  0  0  0  0  0  0  0  0
   -2.4026   -1.5220    1.6502 H   0  0  0  0  0  0  0  0  0  0  0  0
   -3.7755   -0.0552    2.4650 C   0  0  0  0  0  0  0  0  0  0  0  0
   -3.4247   -0.2023    3.4974 H   0  0  0  0  0  0  0  0  0  0  0  0
   -4.7926    0.8737    2.1929 C   0  0  0  0  0  0  0  0  0  0  0  0
   -5.2394    1.4594    3.0098 H   0  0  0  0  0  0  0  0  0  0  0  0
   -5.2408    1.0481    0.8736 C   0  0  0  0  0  0  0  0  0  0  0  0
   -6.0397    1.7711    0.6519 H   0  0  0  0  0  0  0  0  0  0  0  0
   -4.6668    0.3038   -0.1676 C   0  0  0  0  0  0  0  0  0  0  0  0
   -5.0228    0.4487   -1.2006 H   0  0  0  0  0  0  0  0  0  0  0  0
  1 14  1  0  0  0  0
  2 15  1  0  0  0  0
  2  5  1  0  0  0  0
  4 19  1  0  0  0  0
  4 16  1  0  0  0  0
  5  6  2  0  0  0  0
  5 14  1  0  0  0  0
  6  8  1  0  0  0  0
  7  6  1  0  0  0  0
  8  9  1  0  0  0  0
  8 10  2  0  0  0  0
 10 11  1  0  0  0  0
 12 10  1  0  0  0  0
 12 13  1  0  0  0  0
 14 12  2  0  0  0  0
 15  3  1  1  0  0  0
 15  1  1  0  0  0  0
 16  3  1  0  0  0  0
 17  3  1  0  0  0  0
 17 18  1  0  0  0  0
 19 17  2  0  0  0  0
 20 19  1  0  0  0  0
 21  4  1  0  0  0  0
 21 24  1  0  0  0  0
 22 21  1  0  0  0  0
 23 21  1  0  0  0  0
 24 25  1  0  0  0  0
 25 26  1  0  0  0  0
 25 27  2  0  0  0  0
 27 28  1  0  0  0  0
 29 27  1  0  0  0  0
 29 30  1  0  0  0  0
 31 29  2  0  0  0  0
 32 31  1  0  0  0  0
 33 24  2  0  0  0  0
 33 31  1  0  0  0  0
 34 33  1  0  0  0  0
M  END
