1,2
 OpenBabel05122313053D

 23 24  0  0  1  0  0  0  0  0999 V2000
    0.8885    1.3549   -0.0446 N   0  0  0  0  0  2  0  0  0  0  0  0
    0.3084   -1.1473   -0.0474 C   0  0  0  0  0  3  0  0  0  0  0  0
   -0.1278   -2.4834   -0.0480 C   0  0  0  0  0  0  0  0  0  0  0  0
    0.8178   -3.5137    0.0003 C   0  0  0  0  0  0  0  0  0  0  0  0
    2.1706   -3.1913    0.0233 C   0  0  0  0  0  3  0  0  0  0  0  0
    2.6057   -1.8982    0.0206 N   0  0  0  0  0  0  0  0  0  0  0  0
    1.7006   -0.8547    0.0077 C   0  0  0  0  0  0  0  0  0  0  0  0
    2.0307    0.5874    0.0534 C   0  0  2  0  0  3  0  0  0  0  0  0
    3.2694    1.2369    0.2180 C   0  0  0  0  0  0  0  0  0  0  0  0
    3.3301    2.6377    0.2747 C   0  0  0  0  0  0  0  0  0  0  0  0
    2.1528    3.3845    0.1732 C   0  0  0  0  0  0  0  0  0  0  0  0
    0.9420    2.6986    0.0186 C   0  0  0  0  0  0  0  0  0  0  0  0
    4.0652   -1.6961    0.0127 C   0  0  0  0  0  0  0  0  0  0  0  0
   -1.2099   -2.6880   -0.0919 H   0  0  0  0  0  0  0  0  0  0  0  0
    0.5229   -4.5728    0.0054 H   0  0  0  0  0  0  0  0  0  0  0  0
    2.9556   -3.9584    0.0368 H   0  0  0  0  0  0  0  0  0  0  0  0
   -0.0290    3.2136   -0.0477 H   0  0  0  0  0  0  0  0  0  0  0  0
    2.1561    4.4824    0.2188 H   0  0  0  0  0  0  0  0  0  0  0  0
    4.3022    3.1349    0.4055 H   0  0  0  0  0  0  0  0  0  0  0  0
    4.2004    0.6757    0.3186 H   0  0  0  0  0  0  0  0  0  0  0  0
    4.5558   -2.6768   -0.1023 H   0  0  0  0  0  0  0  0  0  0  0  0
    4.3548   -1.0540   -0.8388 H   0  0  0  0  0  0  0  0  0  0  0  0
    4.3961   -1.2455    0.9671 H   0  0  0  0  0  0  0  0  0  0  0  0
  1 12  1  0  0  0  0
  1  8  1  0  0  0  0
  2  7  2  0  0  0  0
  3  2  1  0  0  0  0
  3  4  2  0  0  0  0
  4 15  1  0  0  0  0
  4  5  1  0  0  0  0
  5 16  1  0  0  0  0
  6  5  1  0  0  0  0
  7  6  1  0  0  0  0
  8  7  1  1  0  0  0
  8  9  1  0  0  0  0
  9 10  2  0  0  0  0
  9 20  1  0  0  0  0
 10 19  1  0  0  0  0
 11 18  1  0  0  0  0
 11 10  1  0  0  0  0
 12 11  2  0  0  0  0
 13  6  1  0  0  0  0
 13 23  1  0  0  0  0
 14  3  1  0  0  0  0
 17 12  1  0  0  0  0
 21 13  1  0  0  0  0
 22 13  1  0  0  0  0
M  END
