6,9
 OpenBabel05122313053D

 38 39  0  0  1  0  0  0  0  0999 V2000
   -5.4772   -0.5518   -0.2085 O   0  0  0  0  0  0  0  0  0  0  0  0
   -1.2832    1.5917    0.0383 N   0  0  0  0  0  0  0  0  0  0  0  0
   -0.1837    1.8350    0.0440 H   0  0  0  0  0  0  0  0  0  0  0  0
   -2.7189   -0.2306   -0.1373 N   0  0  0  0  0  0  0  0  0  0  0  0
   -3.6015    0.3064   -0.1975 H   0  0  0  0  0  0  0  0  0  0  0  0
   -1.7446   -2.3476   -0.0978 N   0  0  0  0  0  2  0  0  0  0  0  0
   -2.2008   -3.6308   -0.1220 N   0  0  0  0  0  0  0  0  0  0  0  0
   -1.5418   -4.4081   -0.0940 H   0  0  0  0  0  0  0  0  0  0  0  0
   -1.4594    0.2971   -0.0215 C   0  0  0  0  0  2  0  0  0  0  0  0
   -2.2626    2.6268    0.0172 C   0  0  0  0  0  0  0  0  0  0  0  0
   -3.2682    2.7058    1.0157 C   0  0  0  0  0  0  0  0  0  0  0  0
   -3.3523    1.7346    2.1675 C   0  0  0  0  0  0  0  0  0  0  0  0
   -4.0560    0.9009    1.9558 H   0  0  0  0  0  0  0  0  0  0  0  0
   -3.7294    2.2466    3.0734 H   0  0  0  0  0  0  0  0  0  0  0  0
   -2.3684    1.2871    2.4094 H   0  0  0  0  0  0  0  0  0  0  0  0
   -4.1901    3.7689    0.9261 C   0  0  0  0  0  0  0  0  0  0  0  0
   -4.9778    3.8512    1.6906 H   0  0  0  0  0  0  0  0  0  0  0  0
   -4.1060    4.7209   -0.0949 C   0  0  0  0  0  0  0  0  0  0  0  0
   -4.8374    5.5412   -0.1423 H   0  0  0  0  0  0  0  0  0  0  0  0
   -3.0792    4.6421   -1.0474 C   0  0  0  0  0  0  0  0  0  0  0  0
   -3.0040    5.4004   -1.8416 H   0  0  0  0  0  0  0  0  0  0  0  0
   -2.1350    3.6039   -1.0068 C   0  0  0  0  0  0  0  0  0  0  0  0
   -1.0127    3.5226   -2.0097 C   0  0  0  0  0  0  0  0  0  0  0  0
   -0.0281    3.7312   -1.5381 H   0  0  0  0  0  0  0  0  0  0  0  0
   -1.1531    4.2602   -2.8215 H   0  0  0  0  0  0  0  0  0  0  0  0
   -0.9380    2.5141   -2.4657 H   0  0  0  0  0  0  0  0  0  0  0  0
   -2.8516   -1.5934   -0.1534 C   0  0  1  0  0  3  0  0  0  0  0  0
   -4.0329   -2.3877   -0.2111 C   0  0  0  0  0  0  0  0  0  0  0  0
   -5.3791   -1.7839   -0.2436 C   0  0  0  0  0  0  0  0  0  0  0  0
   -6.5965   -2.6732   -0.3128 C   0  0  0  0  0  0  0  0  0  0  0  0
   -7.5050   -2.0459   -0.3364 H   0  0  0  0  0  0  0  0  0  0  0  0
   -6.6404   -3.3502    0.5653 H   0  0  0  0  0  0  0  0  0  0  0  0
   -6.5664   -3.3133   -1.2186 H   0  0  0  0  0  0  0  0  0  0  0  0
   -3.5539   -3.7203   -0.1920 C   0  0  0  0  0  0  0  0  0  0  0  0
   -4.2522   -5.0371   -0.2295 C   0  0  0  0  0  0  0  0  0  0  0  0
   -4.8632   -5.1395   -1.1482 H   0  0  0  0  0  0  0  0  0  0  0  0
   -4.9374   -5.1513    0.6340 H   0  0  0  0  0  0  0  0  0  0  0  0
   -3.5324   -5.8776   -0.2046 H   0  0  0  0  0  0  0  0  0  0  0  0
  2  3  1  0  0  0  0
  4  9  1  0  0  0  0
  5  4  1  0  0  0  0
  7  6  1  0  0  0  0
  7  8  1  0  0  0  0
  9  2  1  0  0  0  0
 10  2  1  0  0  0  0
 10 11  1  0  0  0  0
 11 12  1  0  0  0  0
 12 15  1  0  0  0  0
 12 14  1  0  0  0  0
 13 12  1  0  0  0  0
 16 11  2  0  0  0  0
 16 17  1  0  0  0  0
 18 16  1  0  0  0  0
 19 18  1  0  0  0  0
 20 22  1  0  0  0  0
 20 18  2  0  0  0  0
 21 20  1  0  0  0  0
 22 10  2  0  0  0  0
 23 24  1  0  0  0  0
 23 22  1  0  0  0  0
 25 23  1  0  0  0  0
 26 23  1  0  0  0  0
 27  4  1  1  0  0  0
 27  6  1  0  0  0  0
 28 34  2  0  0  0  0
 28 27  1  0  0  0  0
 29 28  1  0  0  0  0
 29  1  2  0  0  0  0
 30 29  1  0  0  0  0
 30 32  1  0  0  0  0
 31 30  1  0  0  0  0
 33 30  1  0  0  0  0
 34  7  1  0  0  0  0
 35 38  1  0  0  0  0
 35 34  1  0  0  0  0
 35 37  1  0  0  0  0
 36 35  1  0  0  0  0
M  END
