2,3
 OpenBabel05122313053D

 48 49  0  0  1  0  0  0  0  0999 V2000
   -1.6299   -0.7357    0.0799 Si  0  0  0  0  0  0  0  0  0  0  0  0
   -0.8736    0.8555   -0.1188 N   0  0  0  0  0  2  0  0  0  0  0  0
    0.0658   -1.5352    0.2552 C   0  0  1  0  0  3  0  0  0  0  0  0
    0.9438   -1.7254   -0.8725 C   0  0  0  0  0  0  0  0  0  0  0  0
    2.2962   -1.5614   -0.4266 C   0  0  0  0  0  0  0  0  0  0  0  0
    2.2689   -1.2694    0.9786 C   0  0  0  0  0  0  0  0  0  0  0  0
    0.8989   -1.2464    1.3990 C   0  0  0  0  0  0  0  0  0  0  0  0
    0.5381   -2.0320   -2.2845 C   0  0  0  0  0  0  0  0  0  0  0  0
   -0.3571   -1.4606   -2.5938 H   0  0  0  0  0  0  0  0  0  0  0  0
    0.2986   -3.1115   -2.3939 H   0  0  0  0  0  0  0  0  0  0  0  0
    1.3471   -1.7864   -2.9966 H   0  0  0  0  0  0  0  0  0  0  0  0
    3.5169   -1.7054   -1.2807 C   0  0  0  0  0  0  0  0  0  0  0  0
    4.4140   -1.2871   -0.7868 H   0  0  0  0  0  0  0  0  0  0  0  0
    3.3912   -1.1774   -2.2464 H   0  0  0  0  0  0  0  0  0  0  0  0
    3.7205   -2.7754   -1.4986 H   0  0  0  0  0  0  0  0  0  0  0  0
    3.4589   -1.0637    1.8626 C   0  0  0  0  0  0  0  0  0  0  0  0
    3.2823   -0.2493    2.5915 H   0  0  0  0  0  0  0  0  0  0  0  0
    4.3600   -0.7955    1.2795 H   0  0  0  0  0  0  0  0  0  0  0  0
    3.6888   -1.9900    2.4313 H   0  0  0  0  0  0  0  0  0  0  0  0
    0.4309   -0.9466    2.7935 C   0  0  0  0  0  0  0  0  0  0  0  0
   -0.4633   -0.2941    2.7988 H   0  0  0  0  0  0  0  0  0  0  0  0
    1.2153   -0.4317    3.3783 H   0  0  0  0  0  0  0  0  0  0  0  0
    0.1637   -1.8837    3.3271 H   0  0  0  0  0  0  0  0  0  0  0  0
   -2.9026   -1.0235    1.4781 C   0  0  0  0  0  0  0  0  0  0  0  0
   -2.4642   -1.4239    2.4123 H   0  0  0  0  0  0  0  0  0  0  0  0
   -3.3821   -0.0556    1.7392 H   0  0  0  0  0  0  0  0  0  0  0  0
   -3.9328   -1.9808    0.8393 C   0  0  0  0  0  0  0  0  0  0  0  0
   -3.5425   -3.0223    0.8792 H   0  0  0  0  0  0  0  0  0  0  0  0
   -4.8950   -1.9877    1.3935 H   0  0  0  0  0  0  0  0  0  0  0  0
   -4.1363   -1.5823   -0.6365 C   0  0  0  0  0  0  0  0  0  0  0  0
   -4.6739   -0.6091   -0.6779 H   0  0  0  0  0  0  0  0  0  0  0  0
   -4.7808   -2.3148   -1.1665 H   0  0  0  0  0  0  0  0  0  0  0  0
   -2.7506   -1.4391   -1.3013 C   0  0  0  0  0  0  0  0  0  0  0  0
   -2.7672   -0.8398   -2.2327 H   0  0  0  0  0  0  0  0  0  0  0  0
   -2.3534   -2.4421   -1.5692 H   0  0  0  0  0  0  0  0  0  0  0  0
   -1.5380    2.1844   -0.1586 C   0  0  0  0  0  0  0  0  0  0  0  0
   -2.8845    2.0601   -0.8954 C   0  0  0  0  0  0  0  0  0  0  0  0
   -3.5685    1.3560   -0.3786 H   0  0  0  0  0  0  0  0  0  0  0  0
   -2.7328    1.7025   -1.9332 H   0  0  0  0  0  0  0  0  0  0  0  0
   -3.3940    3.0436   -0.9394 H   0  0  0  0  0  0  0  0  0  0  0  0
   -0.6645    3.2147   -0.8970 C   0  0  0  0  0  0  0  0  0  0  0  0
    0.3064    3.3592   -0.3829 H   0  0  0  0  0  0  0  0  0  0  0  0
   -1.1802    4.1956   -0.9257 H   0  0  0  0  0  0  0  0  0  0  0  0
   -0.4603    2.8901   -1.9352 H   0  0  0  0  0  0  0  0  0  0  0  0
   -1.7678    2.6544    1.2923 C   0  0  0  0  0  0  0  0  0  0  0  0
   -0.8001    2.7146    1.8283 H   0  0  0  0  0  0  0  0  0  0  0  0
   -2.4264    1.9509    1.8399 H   0  0  0  0  0  0  0  0  0  0  0  0
   -2.2440    3.6560    1.3098 H   0  0  0  0  0  0  0  0  0  0  0  0
  1  3  1  0  0  0  0
  1 24  1  0  0  0  0
  2  1  1  0  0  0  0
  3  4  1  6  0  0  0
  3  7  1  0  0  0  0
  4  5  2  0  0  0  0
  5  6  1  0  0  0  0
  6  7  2  0  0  0  0
  6 16  1  0  0  0  0
  7 20  1  0  0  0  0
  8  4  1  0  0  0  0
  9  8  1  0  0  0  0
 10  8  1  0  0  0  0
 11  8  1  0  0  0  0
 12 13  1  0  0  0  0
 12  5  1  0  0  0  0
 14 12  1  0  0  0  0
 15 12  1  0  0  0  0
 16 19  1  0  0  0  0
 16 17  1  0  0  0  0
 18 16  1  0  0  0  0
 20 21  1  0  0  0  0
 20 23  1  0  0  0  0
 20 22  1  0  0  0  0
 24 26  1  0  0  0  0
 24 25  1  0  0  0  0
 27 28  1  0  0  0  0
 27 29  1  0  0  0  0
 27 24  1  0  0  0  0
 30 27  1  0  0  0  0
 31 30  1  0  0  0  0
 32 30  1  0  0  0  0
 33 30  1  0  0  0  0
 33  1  1  0  0  0  0
 34 33  1  0  0  0  0
 35 33  1  0  0  0  0
 36  2  1  0  0  0  0
 36 45  1  0  0  0  0
 37 38  1  0  0  0  0
 37 36  1  0  0  0  0
 39 37  1  0  0  0  0
 40 37  1  0  0  0  0
 41 42  1  0  0  0  0
 41 36  1  0  0  0  0
 43 41  1  0  0  0  0
 44 41  1  0  0  0  0
 45 48  1  0  0  0  0
 45 46  1  0  0  0  0
 45 47  1  0  0  0  0
M  END
