2,3
 OpenBabel05122313053D

 51 52  0  0  1  0  0  0  0  0999 V2000
   -1.6481   -0.0954   -0.0040 Si  0  0  0  0  0  0  0  0  0  0  0  0
   -0.4676    1.2160   -0.1630 N   0  0  0  0  0  2  0  0  0  0  0  0
   -0.2572   -1.3535    0.2174 C   0  0  1  0  0  3  0  0  0  0  0  0
    0.5699   -1.7909   -0.8807 C   0  0  0  0  0  0  0  0  0  0  0  0
    1.9025   -1.9901   -0.3948 C   0  0  0  0  0  0  0  0  0  0  0  0
    1.9120   -1.7004    1.0114 C   0  0  0  0  0  0  0  0  0  0  0  0
    0.5871   -1.3091    1.3899 C   0  0  0  0  0  0  0  0  0  0  0  0
    0.1421   -2.0028   -2.3066 C   0  0  0  0  0  0  0  0  0  0  0  0
   -0.7930   -2.5948   -2.3522 H   0  0  0  0  0  0  0  0  0  0  0  0
    0.9203   -2.5488   -2.8718 H   0  0  0  0  0  0  0  0  0  0  0  0
   -0.0301   -1.0472   -2.8407 H   0  0  0  0  0  0  0  0  0  0  0  0
    3.0669   -2.4615   -1.2097 C   0  0  0  0  0  0  0  0  0  0  0  0
    4.0290   -2.2508   -0.7056 H   0  0  0  0  0  0  0  0  0  0  0  0
    3.0929   -1.9609   -2.1968 H   0  0  0  0  0  0  0  0  0  0  0  0
    3.0113   -3.5584   -1.3784 H   0  0  0  0  0  0  0  0  0  0  0  0
    3.0874   -1.8321    1.9293 C   0  0  0  0  0  0  0  0  0  0  0  0
    4.0439   -1.7842    1.3751 H   0  0  0  0  0  0  0  0  0  0  0  0
    3.0587   -2.8051    2.4651 H   0  0  0  0  0  0  0  0  0  0  0  0
    3.1036   -1.0227    2.6839 H   0  0  0  0  0  0  0  0  0  0  0  0
    0.1743   -0.8993    2.7755 C   0  0  0  0  0  0  0  0  0  0  0  0
   -0.6183   -1.5720    3.1630 H   0  0  0  0  0  0  0  0  0  0  0  0
   -0.2201    0.1355    2.8045 H   0  0  0  0  0  0  0  0  0  0  0  0
    1.0298   -0.9401    3.4740 H   0  0  0  0  0  0  0  0  0  0  0  0
   -2.8916   -0.0421    1.4271 C   0  0  0  0  0  0  0  0  0  0  0  0
   -2.4063    0.1068    2.4108 H   0  0  0  0  0  0  0  0  0  0  0  0
   -3.5576    0.8358    1.2699 H   0  0  0  0  0  0  0  0  0  0  0  0
   -3.7312   -1.3391    1.4092 C   0  0  0  0  0  0  0  0  0  0  0  0
   -3.0625   -2.2132    1.5817 H   0  0  0  0  0  0  0  0  0  0  0  0
   -4.4470   -1.3354    2.2596 H   0  0  0  0  0  0  0  0  0  0  0  0
   -4.5087   -1.5591    0.1004 C   0  0  0  0  0  0  0  0  0  0  0  0
   -5.2059   -0.7037   -0.0529 H   0  0  0  0  0  0  0  0  0  0  0  0
   -5.1500   -2.4592    0.2093 H   0  0  0  0  0  0  0  0  0  0  0  0
   -3.6328   -1.7172   -1.1542 C   0  0  0  0  0  0  0  0  0  0  0  0
   -4.2831   -1.9638   -2.0214 H   0  0  0  0  0  0  0  0  0  0  0  0
   -2.9659   -2.5992   -1.0172 H   0  0  0  0  0  0  0  0  0  0  0  0
   -2.7824   -0.4689   -1.4750 C   0  0  0  0  0  0  0  0  0  0  0  0
   -3.4505    0.4075   -1.6207 H   0  0  0  0  0  0  0  0  0  0  0  0
   -2.2203   -0.5907   -2.4207 H   0  0  0  0  0  0  0  0  0  0  0  0
   -0.7361    2.6772   -0.1873 C   0  0  0  0  0  0  0  0  0  0  0  0
   -2.0357    2.9465   -0.9691 C   0  0  0  0  0  0  0  0  0  0  0  0
   -2.9105    2.4717   -0.4786 H   0  0  0  0  0  0  0  0  0  0  0  0
   -1.9589    2.5582   -2.0043 H   0  0  0  0  0  0  0  0  0  0  0  0
   -2.2367    4.0354   -1.0210 H   0  0  0  0  0  0  0  0  0  0  0  0
    0.4162    3.4370   -0.8685 C   0  0  0  0  0  0  0  0  0  0  0  0
    1.3681    3.2979   -0.3190 H   0  0  0  0  0  0  0  0  0  0  0  0
    0.1937    4.5229   -0.8896 H   0  0  0  0  0  0  0  0  0  0  0  0
    0.5629    3.0836   -1.9071 H   0  0  0  0  0  0  0  0  0  0  0  0
   -0.8877    3.1612    1.2691 C   0  0  0  0  0  0  0  0  0  0  0  0
   -1.7307    2.6452    1.7714 H   0  0  0  0  0  0  0  0  0  0  0  0
   -1.0819    4.2529    1.3033 H   0  0  0  0  0  0  0  0  0  0  0  0
    0.0404    2.9512    1.8365 H   0  0  0  0  0  0  0  0  0  0  0  0
  1  3  1  0  0  0  0
  1 24  1  0  0  0  0
  2  1  1  0  0  0  0
  3  4  1  6  0  0  0
  3  7  1  0  0  0  0
  4  5  2  0  0  0  0
  5  6  1  0  0  0  0
  6  7  2  0  0  0  0
  6 16  1  0  0  0  0
  7 20  1  0  0  0  0
  8  4  1  0  0  0  0
  9  8  1  0  0  0  0
 10  8  1  0  0  0  0
 11  8  1  0  0  0  0
 12 13  1  0  0  0  0
 12  5  1  0  0  0  0
 14 12  1  0  0  0  0
 15 12  1  0  0  0  0
 16 18  1  0  0  0  0
 16 19  1  0  0  0  0
 17 16  1  0  0  0  0
 20 22  1  0  0  0  0
 20 21  1  0  0  0  0
 20 23  1  0  0  0  0
 24 25  1  0  0  0  0
 26 24  1  0  0  0  0
 27 24  1  0  0  0  0
 27 28  1  0  0  0  0
 27 29  1  0  0  0  0
 30 32  1  0  0  0  0
 30 27  1  0  0  0  0
 31 30  1  0  0  0  0
 33 35  1  0  0  0  0
 33 30  1  0  0  0  0
 34 33  1  0  0  0  0
 36 33  1  0  0  0  0
 36  1  1  0  0  0  0
 37 36  1  0  0  0  0
 38 36  1  0  0  0  0
 39  2  1  0  0  0  0
 39 48  1  0  0  0  0
 40 41  1  0  0  0  0
 40 39  1  0  0  0  0
 42 40  1  0  0  0  0
 43 40  1  0  0  0  0
 44 45  1  0  0  0  0
 44 39  1  0  0  0  0
 46 44  1  0  0  0  0
 47 44  1  0  0  0  0
 48 50  1  0  0  0  0
 48 49  1  0  0  0  0
 48 51  1  0  0  0  0
M  END
