1,2
 OpenBabel05122313053D

 36 38  0  0  0  0  0  0  0  0999 V2000
    0.5849   -0.1863   -1.0891 N   0  0  0  0  0  0  0  0  0  0  0  0
   -0.1977   -0.9768    1.2762 C   0  0  0  0  0  3  0  0  0  0  0  0
   -0.6636   -1.6843    2.4024 C   0  0  0  0  0  0  0  0  0  0  0  0
    0.2173   -2.1042    3.4123 C   0  0  0  0  0  0  0  0  0  0  0  0
    1.5942   -1.8470    3.3037 C   0  0  0  0  0  0  0  0  0  0  0  0
    2.0831   -1.1811    2.1704 C   0  0  0  0  0  0  0  0  0  0  0  0
    1.1967   -0.7457    1.1684 C   0  0  0  0  0  0  0  0  0  0  0  0
    1.6821   -0.0032   -0.0741 C   0  0  0  0  0  0  0  0  0  0  0  0
    1.8288    1.5090    0.1645 C   0  0  0  0  0  0  0  0  0  0  0  0
    1.7683    2.0695    1.4519 C   0  0  0  0  0  0  0  0  0  0  0  0
    1.9102    3.4543    1.6389 C   0  0  0  0  0  0  0  0  0  0  0  0
    2.1052    4.3036    0.5405 C   0  0  0  0  0  0  0  0  0  0  0  0
    2.1711    3.7560   -0.7514 C   0  0  0  0  0  0  0  0  0  0  0  0
    2.0410    2.3717   -0.9331 C   0  0  0  0  0  0  0  0  0  0  0  0
    2.9826   -0.6371   -0.6039 C   0  0  0  0  0  0  0  0  0  0  0  0
    4.2179    0.0357   -0.6046 C   0  0  0  0  0  0  0  0  0  0  0  0
    5.3819   -0.6058   -1.0627 C   0  0  0  0  0  0  0  0  0  0  0  0
    5.3259   -1.9271   -1.5260 C   0  0  0  0  0  0  0  0  0  0  0  0
    4.0988   -2.6124   -1.5149 C   0  0  0  0  0  0  0  0  0  0  0  0
    2.9410   -1.9775   -1.0493 C   0  0  0  0  0  0  0  0  0  0  0  0
    0.6465   -1.1270   -1.5222 H   0  0  0  0  0  0  0  0  0  0  0  0
    0.6674    0.5090   -1.8413 H   0  0  0  0  0  0  0  0  0  0  0  0
   -1.7321   -1.9358    2.4826 H   0  0  0  0  0  0  0  0  0  0  0  0
   -0.1731   -2.6551    4.2828 H   0  0  0  0  0  0  0  0  0  0  0  0
    2.2884   -2.1840    4.0881 H   0  0  0  0  0  0  0  0  0  0  0  0
    3.1644   -1.0039    2.0557 H   0  0  0  0  0  0  0  0  0  0  0  0
    1.6002    1.4088    2.3140 H   0  0  0  0  0  0  0  0  0  0  0  0
    1.8587    3.8720    2.6561 H   0  0  0  0  0  0  0  0  0  0  0  0
    2.2104    5.3890    0.6881 H   0  0  0  0  0  0  0  0  0  0  0  0
    2.3353    4.4090   -1.6221 H   0  0  0  0  0  0  0  0  0  0  0  0
    2.1367    1.9580   -1.9506 H   0  0  0  0  0  0  0  0  0  0  0  0
    4.2769    1.0704   -0.2386 H   0  0  0  0  0  0  0  0  0  0  0  0
    6.3394   -0.0628   -1.0547 H   0  0  0  0  0  0  0  0  0  0  0  0
    6.2368   -2.4274   -1.8881 H   0  0  0  0  0  0  0  0  0  0  0  0
    4.0440   -3.6556   -1.8613 H   0  0  0  0  0  0  0  0  0  0  0  0
    1.9927   -2.5402   -1.0121 H   0  0  0  0  0  0  0  0  0  0  0  0
  1  8  1  0  0  0  0
  2  3  1  0  0  0  0
  3 23  1  0  0  0  0
  3  4  2  0  0  0  0
  4 24  1  0  0  0  0
  5  4  1  0  0  0  0
  5 25  1  0  0  0  0
  6  5  2  0  0  0  0
  7  2  2  0  0  0  0
  7  6  1  0  0  0  0
  8  9  1  0  0  0  0
  8  7  1  0  0  0  0
  9 10  1  0  0  0  0
 10 11  2  0  0  0  0
 10 27  1  0  0  0  0
 11 28  1  0  0  0  0
 12 29  1  0  0  0  0
 12 11  1  0  0  0  0
 13 12  2  0  0  0  0
 14 13  1  0  0  0  0
 14  9  2  0  0  0  0
 15  8  1  0  0  0  0
 16 15  1  0  0  0  0
 16 32  1  0  0  0  0
 17 33  1  0  0  0  0
 17 16  2  0  0  0  0
 18 19  2  0  0  0  0
 18 17  1  0  0  0  0
 19 20  1  0  0  0  0
 20 36  1  0  0  0  0
 20 15  2  0  0  0  0
 21  1  1  0  0  0  0
 22  1  1  0  0  0  0
 26  6  1  0  0  0  0
 30 13  1  0  0  0  0
 31 14  1  0  0  0  0
 34 18  1  0  0  0  0
 35 19  1  0  0  0  0
M  END
