1,16
 OpenBabel05122313053D

 22 23  0  0  0  0  0  0  0  0999 V2000
   -1.2502    0.2427   -0.0000 N   0  0  0  0  0  2  0  0  0  0  0  0
   -1.6830    1.5603   -0.0000 C   0  0  0  0  0  0  0  0  0  0  0  0
   -2.1326   -0.7741   -0.0000 C   0  0  0  0  0  0  0  0  0  0  0  0
   -1.7217   -1.7948   -0.0000 H   0  0  0  0  0  0  0  0  0  0  0  0
   -0.7695    3.9288   -0.0000 C   0  0  0  0  0  3  0  0  0  0  0  0
   -1.7784    4.3699   -0.0000 H   0  0  0  0  0  0  0  0  0  0  0  0
   -0.5988    2.5245   -0.0000 C   0  0  0  0  0  0  0  0  0  0  0  0
   -3.0680    1.8335   -0.0000 C   0  0  0  0  0  0  0  0  0  0  0  0
   -3.4059    2.8784   -0.0000 H   0  0  0  0  0  0  0  0  0  0  0  0
   -4.4388   -1.6622    0.0000 N   0  0  0  0  0  0  0  0  0  0  0  0
   -3.9527   -2.7935   -0.0003 O   0  0  0  0  0  0  0  0  0  0  0  0
   -3.9949    0.7940    0.0000 C   0  0  0  0  0  0  0  0  0  0  0  0
   -5.0798    0.9634    0.0001 H   0  0  0  0  0  0  0  0  0  0  0  0
    0.3509    4.7615   -0.0000 C   0  0  0  0  0  0  0  0  0  0  0  0
    0.2260    5.8543   -0.0000 H   0  0  0  0  0  0  0  0  0  0  0  0
    0.7115    1.9417   -0.0000 C   0  0  0  0  0  3  0  0  0  0  0  0
    1.8249    2.8052   -0.0000 C   0  0  0  0  0  0  0  0  0  0  0  0
    2.8363    2.3714   -0.0000 H   0  0  0  0  0  0  0  0  0  0  0  0
   -3.5051   -0.5226    0.0000 C   0  0  0  0  0  0  0  0  0  0  0  0
    1.6443    4.1955   -0.0000 C   0  0  0  0  0  0  0  0  0  0  0  0
    2.5243    4.8583   -0.0000 H   0  0  0  0  0  0  0  0  0  0  0  0
   -5.6421   -1.3989    0.0003 O   0  0  0  0  0  0  0  0  0  0  0  0
  1  2  1  0  0  0  0
  2  8  1  0  0  0  0
  3  1  1  0  0  0  0
  3 19  2  0  0  0  0
  4  3  1  0  0  0  0
  5 14  1  0  0  0  0
  5  7  1  0  0  0  0
  6  5  1  0  0  0  0
  7  2  2  0  0  0  0
  7 16  1  0  0  0  0
  8 12  2  0  0  0  0
  9  8  1  0  0  0  0
 10 22  2  0  0  0  0
 11 10  2  0  0  0  0
 12 13  1  0  0  0  0
 14 20  2  0  0  0  0
 15 14  1  0  0  0  0
 16 17  2  0  0  0  0
 17 18  1  0  0  0  0
 19 10  1  0  0  0  0
 19 12  1  0  0  0  0
 20 21  1  0  0  0  0
 20 17  1  0  0  0  0
M  END
