1,2
 OpenBabel05122313053D

 23 24  0  0  1  0  0  0  0  0999 V2000
   -0.5972    1.8111   -0.1136 N   0  0  0  0  0  2  0  0  0  0  0  0
    0.7813   -0.3944   -0.1955 C   0  0  0  0  0  3  0  0  0  0  0  0
    1.4872   -1.5997   -0.3826 C   0  0  0  0  0  0  0  0  0  0  0  0
    0.9388   -2.5256   -0.6089 H   0  0  0  0  0  0  0  0  0  0  0  0
    2.8842   -1.6377   -0.3097 C   0  0  0  0  0  0  0  0  0  0  0  0
    3.4200   -2.5876   -0.4568 H   0  0  0  0  0  0  0  0  0  0  0  0
    3.6191   -0.4574   -0.0666 C   0  0  0  0  0  0  0  0  0  0  0  0
    2.9466    0.7627    0.0613 C   0  0  0  0  0  0  0  0  0  0  0  0
    3.5313    1.6832    0.2037 H   0  0  0  0  0  0  0  0  0  0  0  0
    1.5404    0.7996   -0.0163 C   0  0  0  0  0  0  0  0  0  0  0  0
    0.7509    2.0268    0.0031 C   0  0  1  0  0  3  0  0  0  0  0  0
    1.2508    3.3425    0.0817 C   0  0  0  0  0  0  0  0  0  0  0  0
    2.3334    3.5026    0.1765 H   0  0  0  0  0  0  0  0  0  0  0  0
    0.3719    4.4261    0.0235 C   0  0  0  0  0  0  0  0  0  0  0  0
    0.7547    5.4556    0.0853 H   0  0  0  0  0  0  0  0  0  0  0  0
   -1.0033    4.1815   -0.1357 C   0  0  0  0  0  0  0  0  0  0  0  0
   -1.7306    5.0015   -0.2127 H   0  0  0  0  0  0  0  0  0  0  0  0
   -1.4417    2.8572   -0.2091 C   0  0  0  0  0  0  0  0  0  0  0  0
   -2.5014    2.6068   -0.3573 H   0  0  0  0  0  0  0  0  0  0  0  0
    5.1150   -0.5261    0.0838 C   0  0  0  0  0  0  0  0  0  0  0  0
    5.7056    0.6815   -0.1018 F   0  0  0  0  0  0  0  0  0  0  0  0
    5.4763   -0.9521    1.3251 F   0  0  0  0  0  0  0  0  0  0  0  0
    5.6729   -1.3924   -0.7983 F   0  0  0  0  0  0  0  0  0  0  0  0
  1 11  1  0  0  0  0
  2 10  1  0  0  0  0
  3  5  1  0  0  0  0
  3  2  2  0  0  0  0
  4  3  1  0  0  0  0
  5  7  2  0  0  0  0
  6  5  1  0  0  0  0
  7  8  1  0  0  0  0
  7 20  1  0  0  0  0
  8  9  1  0  0  0  0
 10  8  2  0  0  0  0
 11 10  1  6  0  0  0
 11 12  1  0  0  0  0
 12 13  1  0  0  0  0
 14 12  2  0  0  0  0
 14 15  1  0  0  0  0
 16 14  1  0  0  0  0
 17 16  1  0  0  0  0
 18 16  2  0  0  0  0
 18  1  1  0  0  0  0
 19 18  1  0  0  0  0
 20 22  1  0  0  0  0
 21 20  1  0  0  0  0
 23 20  1  0  0  0  0
M  END
