1,2
 OpenBabel05122313053D

 36 37  0  0  0  0  0  0  0  0999 V2000
    0.3447   -1.2305    0.9598 N   0  0  0  0  0  2  0  0  0  0  0  0
    2.6292   -0.4091   -0.2867 C   0  0  0  0  0  3  0  0  0  0  0  0
    3.6920   -0.2182   -1.1852 C   0  0  0  0  0  0  0  0  0  0  0  0
    3.6293    0.5450   -1.9734 H   0  0  0  0  0  0  0  0  0  0  0  0
    4.8575   -1.0001   -1.0977 C   0  0  0  0  0  0  0  0  0  0  0  0
    5.6808   -0.8254   -1.8078 H   0  0  0  0  0  0  0  0  0  0  0  0
    4.9701   -2.0005   -0.1220 C   0  0  0  0  0  0  0  0  0  0  0  0
    5.8795   -2.6165   -0.0565 H   0  0  0  0  0  0  0  0  0  0  0  0
    3.9037   -2.2216    0.7623 C   0  0  0  0  0  0  0  0  0  0  0  0
    3.9710   -3.0161    1.5232 H   0  0  0  0  0  0  0  0  0  0  0  0
    2.7423   -1.4355    0.6823 C   0  0  0  0  0  0  0  0  0  0  0  0
    1.5856   -1.6287    1.6267 C   0  0  0  0  0  0  0  0  0  0  0  0
    1.6951   -0.9109    2.4737 H   0  0  0  0  0  0  0  0  0  0  0  0
    1.5225   -2.6629    2.0305 H   0  0  0  0  0  0  0  0  0  0  0  0
   -0.7085   -1.9514    1.1037 C   0  0  0  0  0  3  0  0  0  0  0  0
   -0.6203   -2.9032    1.6805 H   0  0  0  0  0  0  0  0  0  0  0  0
   -2.0519   -1.5739    0.6040 C   0  0  0  0  0  0  0  0  0  0  0  0
   -2.5749   -2.1818   -0.5646 C   0  0  0  0  0  0  0  0  0  0  0  0
   -3.8583   -1.8059   -0.9978 C   0  0  0  0  0  0  0  0  0  0  0  0
   -4.2646   -2.2643   -1.9141 H   0  0  0  0  0  0  0  0  0  0  0  0
   -4.6384   -0.8734   -0.2858 C   0  0  0  0  0  0  0  0  0  0  0  0
   -4.1111   -0.3318    0.9001 C   0  0  0  0  0  0  0  0  0  0  0  0
   -4.7161    0.3796    1.4848 H   0  0  0  0  0  0  0  0  0  0  0  0
   -2.8273   -0.6662    1.3696 C   0  0  0  0  0  0  0  0  0  0  0  0
   -1.7724   -3.2179   -1.3107 C   0  0  0  0  0  0  0  0  0  0  0  0
   -2.3240   -3.5993   -2.1910 H   0  0  0  0  0  0  0  0  0  0  0  0
   -1.5339   -4.0859   -0.6600 H   0  0  0  0  0  0  0  0  0  0  0  0
   -0.8045   -2.8084   -1.6620 H   0  0  0  0  0  0  0  0  0  0  0  0
   -5.9939   -0.4525   -0.7953 C   0  0  0  0  0  0  0  0  0  0  0  0
   -6.6520   -0.1102    0.0272 H   0  0  0  0  0  0  0  0  0  0  0  0
   -6.5052   -1.2776   -1.3295 H   0  0  0  0  0  0  0  0  0  0  0  0
   -5.9028    0.3911   -1.5137 H   0  0  0  0  0  0  0  0  0  0  0  0
   -2.2996   -0.1022    2.6648 C   0  0  0  0  0  0  0  0  0  0  0  0
   -3.0217    0.6065    3.1124 H   0  0  0  0  0  0  0  0  0  0  0  0
   -1.3350    0.4313    2.5283 H   0  0  0  0  0  0  0  0  0  0  0  0
   -2.1174   -0.9113    3.4039 H   0  0  0  0  0  0  0  0  0  0  0  0
  1 15  1  0  0  0  0
  1 12  1  0  0  0  0
  2 11  1  0  0  0  0
  3  5  1  0  0  0  0
  3  2  2  0  0  0  0
  4  3  1  0  0  0  0
  5  7  2  0  0  0  0
  6  5  1  0  0  0  0
  7  8  1  0  0  0  0
  7  9  1  0  0  0  0
  9 10  1  0  0  0  0
 11  9  2  0  0  0  0
 11 12  1  0  0  0  0
 12 14  1  0  0  0  0
 12 13  1  0  0  0  0
 15 16  1  0  0  0  0
 17 15  1  0  0  0  0
 17 24  1  0  0  0  0
 18 17  2  0  0  0  0
 19 18  1  0  0  0  0
 19 21  2  0  0  0  0
 20 19  1  0  0  0  0
 21 22  1  0  0  0  0
 22 24  2  0  0  0  0
 22 23  1  0  0  0  0
 24 33  1  0  0  0  0
 25 27  1  0  0  0  0
 25 18  1  0  0  0  0
 26 25  1  0  0  0  0
 28 25  1  0  0  0  0
 29 21  1  0  0  0  0
 29 30  1  0  0  0  0
 31 29  1  0  0  0  0
 32 29  1  0  0  0  0
 33 34  1  0  0  0  0
 33 36  1  0  0  0  0
 35 33  1  0  0  0  0
M  END
