1,17
 OpenBabel05122313053D

 29 31  0  0  1  0  0  0  0  0999 V2000
   -2.2944   -0.3101   -0.4613 C   0  0  0  0  0  2  0  0  0  0  0  0
   -3.2246    0.3504   -1.2786 C   0  0  0  0  0  3  0  0  0  0  0  0
   -2.9925    1.3394   -1.6986 H   0  0  0  0  0  0  0  0  0  0  0  0
   -4.4728   -0.2322   -1.5710 C   0  0  0  0  0  0  0  0  0  0  0  0
   -5.1817    0.3063   -2.2186 H   0  0  0  0  0  0  0  0  0  0  0  0
   -4.8218   -1.4794   -1.0284 C   0  0  0  0  0  0  0  0  0  0  0  0
   -5.8067   -1.9221   -1.2357 H   0  0  0  0  0  0  0  0  0  0  0  0
   -3.8954   -2.1636   -0.2417 C   0  0  0  0  0  0  0  0  0  0  0  0
   -4.1356   -3.1622    0.1553 H   0  0  0  0  0  0  0  0  0  0  0  0
   -2.6060   -1.6189    0.0221 C   0  0  0  0  0  0  0  0  0  0  0  0
   -1.6381   -2.4880    0.6453 C   0  0  0  0  0  0  0  0  0  0  0  0
   -1.9753   -3.4552    1.0498 H   0  0  0  0  0  0  0  0  0  0  0  0
   -0.2850   -2.2744    0.6256 C   0  0  0  0  0  0  0  0  0  0  0  0
    0.7512   -3.2560    0.9723 C   0  0  0  0  0  0  0  0  0  0  0  0
    0.7585   -4.3375    1.4839 O   0  0  0  0  0  0  0  0  0  0  0  0
    1.9719   -2.6277    0.4880 O   0  0  0  0  0  0  0  0  0  0  0  0
    0.3445   -1.1459    0.0867 N   0  0  0  0  0  2  0  0  0  0  0  0
    1.6407   -1.4238   -0.0126 C   0  0  2  0  0  3  0  0  0  0  0  0
    2.6935   -0.6150   -0.6098 C   0  0  0  0  0  0  0  0  0  0  0  0
    2.3880    0.3740   -1.5750 C   0  0  0  0  0  0  0  0  0  0  0  0
    1.3435    0.5267   -1.8866 H   0  0  0  0  0  0  0  0  0  0  0  0
    3.4152    1.1343   -2.1424 C   0  0  0  0  0  0  0  0  0  0  0  0
    3.1773    1.8930   -2.9024 H   0  0  0  0  0  0  0  0  0  0  0  0
    4.7511    0.9135   -1.7606 C   0  0  0  0  0  0  0  0  0  0  0  0
    5.5572    1.5080   -2.2165 H   0  0  0  0  0  0  0  0  0  0  0  0
    5.0617   -0.0823   -0.8173 C   0  0  0  0  0  0  0  0  0  0  0  0
    6.1085   -0.2677   -0.5345 H   0  0  0  0  0  0  0  0  0  0  0  0
    4.0414   -0.8531   -0.2477 C   0  0  0  0  0  0  0  0  0  0  0  0
    4.2736   -1.6433    0.4805 H   0  0  0  0  0  0  0  0  0  0  0  0
  1 10  1  0  0  0  0
  2  1  1  0  0  0  0
  3  2  1  0  0  0  0
  4  2  1  0  0  0  0
  4  6  2  0  0  0  0
  5  4  1  0  0  0  0
  6  8  1  0  0  0  0
  7  6  1  0  0  0  0
  8 10  2  0  0  0  0
  8  9  1  0  0  0  0
 10 11  1  0  0  0  0
 11 12  1  0  0  0  0
 13 11  2  0  0  0  0
 13 14  1  0  0  0  0
 14 15  2  0  0  0  0
 16 14  1  0  0  0  0
 17 13  1  0  0  0  0
 18 19  1  6  0  0  0
 18 17  1  0  0  0  0
 18 16  1  0  0  0  0
 19 28  1  0  0  0  0
 20 19  2  0  0  0  0
 21 20  1  0  0  0  0
 22 24  2  0  0  0  0
 22 20  1  0  0  0  0
 23 22  1  0  0  0  0
 24 26  1  0  0  0  0
 25 24  1  0  0  0  0
 26 27  1  0  0  0  0
 26 28  2  0  0  0  0
 28 29  1  0  0  0  0
M  END
