1,16
 OpenBabel05122313053D

 35 38  0  0  1  0  0  0  0  0999 V2000
   -1.8343    0.9472    0.4450 N   0  0  0  0  0  2  0  0  0  0  0  0
   -2.8455    0.3273   -0.2381 C   0  0  0  0  0  0  0  0  0  0  0  0
   -4.1605    0.8786   -0.2041 C   0  0  0  0  0  0  0  0  0  0  0  0
   -4.9371    0.4148   -0.8216 H   0  0  0  0  0  0  0  0  0  0  0  0
   -4.4721    2.0081    0.5301 C   0  0  0  0  0  0  0  0  0  0  0  0
   -3.4102    2.6560    1.2489 C   0  0  0  0  0  0  0  0  0  0  0  0
   -3.6146    3.8419    2.0071 C   0  0  0  0  0  0  0  0  0  0  0  0
   -4.6297    4.2559    2.0853 H   0  0  0  0  0  0  0  0  0  0  0  0
   -2.5565    4.4871    2.6342 C   0  0  0  0  0  0  0  0  0  0  0  0
   -2.7333    5.4056    3.2135 H   0  0  0  0  0  0  0  0  0  0  0  0
   -1.2485    3.9607    2.5128 C   0  0  0  0  0  0  0  0  0  0  0  0
   -0.4023    4.4768    2.9915 H   0  0  0  0  0  0  0  0  0  0  0  0
   -1.0120    2.7959    1.7940 C   0  0  0  0  0  0  0  0  0  0  0  0
    0.0022    2.3855    1.7152 H   0  0  0  0  0  0  0  0  0  0  0  0
   -2.0814    2.1057    1.1577 C   0  0  2  0  0  3  0  0  0  0  0  0
   -1.0095   -0.8544   -1.2346 C   0  0  0  0  0  3  0  0  0  0  0  0
   -2.4229   -0.7697   -1.1033 C   0  0  0  0  0  0  0  0  0  0  0  0
   -3.2771   -1.6543   -1.8657 C   0  0  0  0  0  0  0  0  0  0  0  0
   -4.6533   -1.9079   -1.5863 C   0  0  0  0  0  0  0  0  0  0  0  0
   -5.1163   -1.4686   -0.6937 H   0  0  0  0  0  0  0  0  0  0  0  0
   -5.4147   -2.7645   -2.3755 C   0  0  0  0  0  0  0  0  0  0  0  0
   -6.4698   -2.9438   -2.1172 H   0  0  0  0  0  0  0  0  0  0  0  0
   -4.8402   -3.4235   -3.4888 C   0  0  0  0  0  0  0  0  0  0  0  0
   -5.4523   -4.0883   -4.1165 H   0  0  0  0  0  0  0  0  0  0  0  0
   -3.4874   -3.2545   -3.7511 C   0  0  0  0  0  0  0  0  0  0  0  0
   -3.0081   -3.7981   -4.5808 H   0  0  0  0  0  0  0  0  0  0  0  0
   -2.6769   -2.4066   -2.9455 C   0  0  0  0  0  0  0  0  0  0  0  0
   -1.2656   -2.3272   -3.1604 C   0  0  0  0  0  0  0  0  0  0  0  0
   -0.8332   -2.8893   -4.0040 H   0  0  0  0  0  0  0  0  0  0  0  0
   -0.4492   -1.6137   -2.3025 C   0  0  0  0  0  0  0  0  0  0  0  0
    0.6424   -1.6208   -2.4398 H   0  0  0  0  0  0  0  0  0  0  0  0
   -5.8708    2.5590    0.5418 C   0  0  0  0  0  0  0  0  0  0  0  0
   -5.9005    3.6007    0.1594 H   0  0  0  0  0  0  0  0  0  0  0  0
   -6.2852    2.5865    1.5715 H   0  0  0  0  0  0  0  0  0  0  0  0
   -6.5471    1.9451   -0.0820 H   0  0  0  0  0  0  0  0  0  0  0  0
  2  3  2  0  0  0  0
  2  1  1  0  0  0  0
  3  5  1  0  0  0  0
  4  3  1  0  0  0  0
  5 32  1  0  0  0  0
  5  6  2  0  0  0  0
  6  7  1  0  0  0  0
  7  8  1  0  0  0  0
  7  9  2  0  0  0  0
  9 10  1  0  0  0  0
 11  9  1  0  0  0  0
 11 12  1  0  0  0  0
 13 11  2  0  0  0  0
 14 13  1  0  0  0  0
 15  1  1  6  0  0  0
 15  6  1  0  0  0  0
 15 13  1  0  0  0  0
 16 17  1  0  0  0  0
 17  2  1  0  0  0  0
 18 19  1  0  0  0  0
 18 17  2  0  0  0  0
 19 20  1  0  0  0  0
 21 22  1  0  0  0  0
 21 19  2  0  0  0  0
 23 21  1  0  0  0  0
 24 23  1  0  0  0  0
 25 23  2  0  0  0  0
 25 27  1  0  0  0  0
 26 25  1  0  0  0  0
 27 18  1  0  0  0  0
 28 27  2  0  0  0  0
 28 30  1  0  0  0  0
 29 28  1  0  0  0  0
 30 16  2  0  0  0  0
 31 30  1  0  0  0  0
 32 34  1  0  0  0  0
 33 32  1  0  0  0  0
 35 32  1  0  0  0  0
M  END
