2,3
 OpenBabel05122313053D

 27 27  0  0  0  0  0  0  0  0999 V2000
   -0.1103    2.2561   -0.2929 N   0  0  0  0  0  0  0  0  0  0  0  0
    2.1037    1.6422   -0.1183 N   0  0  0  0  0  2  0  0  0  0  0  0
   -0.3928    0.9143   -0.1811 C   0  0  0  0  0  2  0  0  0  0  0  0
   -1.8141    0.5323   -0.1340 C   0  0  0  0  0  0  0  0  0  0  0  0
   -2.6972    1.0448    0.8471 C   0  0  0  0  0  0  0  0  0  0  0  0
   -2.3287    1.7742    1.5846 H   0  0  0  0  0  0  0  0  0  0  0  0
   -4.0203    0.5937    0.9279 C   0  0  0  0  0  0  0  0  0  0  0  0
   -4.6787    0.9895    1.7176 H   0  0  0  0  0  0  0  0  0  0  0  0
   -4.5258   -0.3594    0.0213 C   0  0  0  0  0  0  0  0  0  0  0  0
   -3.6465   -0.8589   -0.9642 C   0  0  0  0  0  0  0  0  0  0  0  0
   -4.0119   -1.6074   -1.6851 H   0  0  0  0  0  0  0  0  0  0  0  0
   -2.3146   -0.4429   -1.0300 C   0  0  0  0  0  0  0  0  0  0  0  0
   -1.6359   -0.8667   -1.7841 H   0  0  0  0  0  0  0  0  0  0  0  0
   -5.9435   -0.8605    0.1165 C   0  0  0  0  0  0  0  0  0  0  0  0
   -6.4276   -0.9033   -0.8804 H   0  0  0  0  0  0  0  0  0  0  0  0
   -5.9730   -1.8911    0.5310 H   0  0  0  0  0  0  0  0  0  0  0  0
   -6.5622   -0.2201    0.7746 H   0  0  0  0  0  0  0  0  0  0  0  0
    1.2326    2.5929   -0.2613 C   0  0  0  0  0  3  0  0  0  0  0  0
    1.4972    3.6608   -0.3688 H   0  0  0  0  0  0  0  0  0  0  0  0
   -1.0846    3.3371   -0.4997 C   0  0  0  0  0  0  0  0  0  0  0  0
   -1.9929    2.9223   -0.9699 H   0  0  0  0  0  0  0  0  0  0  0  0
   -1.3715    3.8170    0.4574 H   0  0  0  0  0  0  0  0  0  0  0  0
   -0.6489    4.1044   -1.1675 H   0  0  0  0  0  0  0  0  0  0  0  0
    3.5162    1.9761   -0.0926 C   0  0  0  0  0  0  0  0  0  0  0  0
    4.0380    1.4263   -0.9015 H   0  0  0  0  0  0  0  0  0  0  0  0
    3.7028    3.0660   -0.2114 H   0  0  0  0  0  0  0  0  0  0  0  0
    3.9583    1.6328    0.8642 H   0  0  0  0  0  0  0  0  0  0  0  0
  1 18  1  0  0  0  0
  1  3  1  0  0  0  0
  2 24  1  0  0  0  0
  3  4  1  0  0  0  0
  4  5  1  0  0  0  0
  5  7  2  0  0  0  0
  5  6  1  0  0  0  0
  7  8  1  0  0  0  0
  9 14  1  0  0  0  0
  9  7  1  0  0  0  0
 10  9  2  0  0  0  0
 11 10  1  0  0  0  0
 12 10  1  0  0  0  0
 12  4  2  0  0  0  0
 13 12  1  0  0  0  0
 14 16  1  0  0  0  0
 14 17  1  0  0  0  0
 15 14  1  0  0  0  0
 18  2  1  0  0  0  0
 19 18  1  0  0  0  0
 20  1  1  0  0  0  0
 20 22  1  0  0  0  0
 21 20  1  0  0  0  0
 23 20  1  0  0  0  0
 24 27  1  0  0  0  0
 25 24  1  0  0  0  0
 26 24  1  0  0  0  0
M  END
