2,8
 OpenBabel05122313053D

 60 59  0  0  1  0  0  0  0  0999 V2000
   -0.1847   -2.2097   -1.7740 Si  0  0  0  0  0  0  0  0  0  0  0  0
    0.4935    0.2807    1.2950 N   0  0  0  0  0  2  0  0  0  0  0  0
   -1.5471    2.0916   -1.0967 N   0  0  0  0  0  2  0  0  0  0  0  0
   -2.8198   -0.6644    0.6085 N   0  0  0  0  0  0  0  0  0  0  0  0
   -0.6323    0.2496    0.4332 C   0  0  1  0  0  3  0  0  0  0  0  0
   -1.5791   -0.9448    0.3780 C   0  0  0  0  0  0  0  0  0  0  0  0
   -0.9014   -2.2327    0.0298 C   0  0  0  0  0  0  0  0  0  0  0  0
    1.0247   -0.7934   -2.0143 C   0  0  0  0  0  3  0  0  0  0  0  0
    0.2382    0.4407    2.7523 C   0  0  0  0  0  0  0  0  0  0  0  0
    1.4521    1.1453    3.3841 C   0  0  0  0  0  0  0  0  0  0  0  0
    0.0084   -0.9376    3.4102 C   0  0  0  0  0  0  0  0  0  0  0  0
   -1.0027    1.3195    2.9974 C   0  0  0  0  0  0  0  0  0  0  0  0
   -1.1265    1.3043   -0.2603 C   0  0  0  0  0  2  0  0  0  0  0  0
   -2.6887    3.0282   -0.9759 C   0  0  0  0  0  0  0  0  0  0  0  0
   -3.7625    2.4861   -1.9365 C   0  0  0  0  0  0  0  0  0  0  0  0
   -2.1928    4.4071   -1.4349 C   0  0  0  0  0  0  0  0  0  0  0  0
   -3.2289    3.0736    0.4602 C   0  0  0  0  0  0  0  0  0  0  0  0
   -3.9315   -1.6277    0.6936 C   0  0  0  0  0  0  0  0  0  0  0  0
   -4.1430   -2.4494   -0.5929 C   0  0  0  0  0  0  0  0  0  0  0  0
   -5.1953   -0.7747    0.9311 C   0  0  0  0  0  0  0  0  0  0  0  0
   -3.7271   -2.5510    1.9135 C   0  0  0  0  0  0  0  0  0  0  0  0
    0.5824   -3.9304   -2.0249 C   0  0  0  0  0  0  0  0  0  0  0  0
   -1.6159   -2.0135   -3.0053 C   0  0  0  0  0  0  0  0  0  0  0  0
   -1.5320   -3.1270    0.1822 H   0  0  0  0  0  0  0  0  0  0  0  0
   -0.0048   -2.3304    0.6746 H   0  0  0  0  0  0  0  0  0  0  0  0
    0.4331    0.0296   -2.4711 H   0  0  0  0  0  0  0  0  0  0  0  0
    1.7758   -1.0980   -2.7766 H   0  0  0  0  0  0  0  0  0  0  0  0
    1.3270    1.2270    4.4826 H   0  0  0  0  0  0  0  0  0  0  0  0
    1.5597    2.1682    2.9723 H   0  0  0  0  0  0  0  0  0  0  0  0
    2.3951    0.6024    3.1874 H   0  0  0  0  0  0  0  0  0  0  0  0
   -0.8919   -1.4243    2.9858 H   0  0  0  0  0  0  0  0  0  0  0  0
   -0.1451   -0.8391    4.5049 H   0  0  0  0  0  0  0  0  0  0  0  0
    0.8713   -1.6105    3.2414 H   0  0  0  0  0  0  0  0  0  0  0  0
   -1.1528    1.4695    4.0855 H   0  0  0  0  0  0  0  0  0  0  0  0
   -1.9170    0.8594    2.5734 H   0  0  0  0  0  0  0  0  0  0  0  0
   -0.8738    2.3160    2.5287 H   0  0  0  0  0  0  0  0  0  0  0  0
   -4.6414    3.1612   -1.9454 H   0  0  0  0  0  0  0  0  0  0  0  0
   -4.0914    1.4795   -1.6097 H   0  0  0  0  0  0  0  0  0  0  0  0
   -3.3637    2.4078   -2.9670 H   0  0  0  0  0  0  0  0  0  0  0  0
   -3.0247    5.1389   -1.4150 H   0  0  0  0  0  0  0  0  0  0  0  0
   -1.7908    4.3570   -2.4660 H   0  0  0  0  0  0  0  0  0  0  0  0
   -1.3883    4.7773   -0.7682 H   0  0  0  0  0  0  0  0  0  0  0  0
   -4.1230    3.7260    0.5167 H   0  0  0  0  0  0  0  0  0  0  0  0
   -2.4648    3.4751    1.1554 H   0  0  0  0  0  0  0  0  0  0  0  0
   -3.4999    2.0518    0.7949 H   0  0  0  0  0  0  0  0  0  0  0  0
   -5.0799   -3.0381   -0.5178 H   0  0  0  0  0  0  0  0  0  0  0  0
   -3.3169   -3.1569   -0.7888 H   0  0  0  0  0  0  0  0  0  0  0  0
   -4.2313   -1.7779   -1.4697 H   0  0  0  0  0  0  0  0  0  0  0  0
   -6.0966   -1.4100    1.0495 H   0  0  0  0  0  0  0  0  0  0  0  0
   -5.3600   -0.0876    0.0767 H   0  0  0  0  0  0  0  0  0  0  0  0
   -5.0733   -0.1556    1.8418 H   0  0  0  0  0  0  0  0  0  0  0  0
   -2.8447   -3.2090    1.7944 H   0  0  0  0  0  0  0  0  0  0  0  0
   -4.6164   -3.1957    2.0658 H   0  0  0  0  0  0  0  0  0  0  0  0
   -3.5796   -1.9445    2.8297 H   0  0  0  0  0  0  0  0  0  0  0  0
   -0.2096   -4.7078   -2.0071 H   0  0  0  0  0  0  0  0  0  0  0  0
    1.3228   -4.1910   -1.2426 H   0  0  0  0  0  0  0  0  0  0  0  0
    1.0908   -3.9943   -3.0094 H   0  0  0  0  0  0  0  0  0  0  0  0
   -2.3377   -2.8540   -2.9731 H   0  0  0  0  0  0  0  0  0  0  0  0
   -1.2061   -1.9503   -4.0347 H   0  0  0  0  0  0  0  0  0  0  0  0
   -2.1691   -1.0721   -2.8075 H   0  0  0  0  0  0  0  0  0  0  0  0
  1  7  1  0  0  0  0
  2  9  1  0  0  0  0
  3 14  1  0  0  0  0
  3 13  1  0  0  0  0
  4 18  1  0  0  0  0
  5 13  1  1  0  0  0
  5  2  1  0  0  0  0
  6  5  1  0  0  0  0
  6  4  2  0  0  0  0
  7 24  1  0  0  0  0
  7  6  1  0  0  0  0
  7 25  1  0  0  0  0
  8  1  1  0  0  0  0
  9 12  1  0  0  0  0
  9 10  1  0  0  0  0
  9 11  1  0  0  0  0
 10 28  1  0  0  0  0
 11 32  1  0  0  0  0
 12 34  1  0  0  0  0
 14 17  1  0  0  0  0
 15 38  1  0  0  0  0
 15 14  1  0  0  0  0
 16 40  1  0  0  0  0
 16 14  1  0  0  0  0
 16 42  1  0  0  0  0
 17 43  1  0  0  0  0
 17 45  1  0  0  0  0
 17 44  1  0  0  0  0
 18 20  1  0  0  0  0
 18 21  1  0  0  0  0
 19 46  1  0  0  0  0
 19 18  1  0  0  0  0
 20 49  1  0  0  0  0
 20 51  1  0  0  0  0
 21 53  1  0  0  0  0
 21 54  1  0  0  0  0
 22 55  1  0  0  0  0
 22  1  1  0  0  0  0
 22 56  1  0  0  0  0
 23 58  1  0  0  0  0
 23 60  1  0  0  0  0
 23  1  1  0  0  0  0
 26  8  1  0  0  0  0
 27  8  1  0  0  0  0
 29 10  1  0  0  0  0
 30 10  1  0  0  0  0
 31 11  1  0  0  0  0
 33 11  1  0  0  0  0
 35 12  1  0  0  0  0
 36 12  1  0  0  0  0
 37 15  1  0  0  0  0
 39 15  1  0  0  0  0
 41 16  1  0  0  0  0
 47 19  1  0  0  0  0
 48 19  1  0  0  0  0
 50 20  1  0  0  0  0
 52 21  1  0  0  0  0
 57 22  1  0  0  0  0
 59 23  1  0  0  0  0
M  END
