3,4
 OpenBabel05122313053D

 20 21  0  0  1  0  0  0  0  0999 V2000
   -5.4236    0.6873   -1.4380 O   0  5  0  0  0  0  0  0  0  0  0  0
   -4.6948   -0.1798   -0.8615 N   0  3  0  0  0  0  0  0  0  0  0  0
   -1.2375    1.0628   -1.1176 N   0  0  0  0  0  2  0  0  0  0  0  0
   -2.5349   -1.0810   -0.1219 C   0  0  0  0  0  3  0  0  0  0  0  0
   -3.1852   -2.1820    0.4461 C   0  0  0  0  0  0  0  0  0  0  0  0
   -2.6235   -2.9592    0.9787 H   0  0  0  0  0  0  0  0  0  0  0  0
   -4.5835   -2.2674    0.3526 C   0  0  0  0  0  0  0  0  0  0  0  0
   -5.1314   -3.1142    0.7924 H   0  0  0  0  0  0  0  0  0  0  0  0
   -5.3083   -1.2797   -0.2938 C   0  0  0  0  0  0  0  0  0  0  0  0
   -6.3982   -1.2637   -0.4147 H   0  0  0  0  0  0  0  0  0  0  0  0
   -3.2949   -0.0738   -0.7736 C   0  0  0  0  0  0  0  0  0  0  0  0
   -2.5923    1.0822   -1.3318 C   0  0  2  0  0  3  0  0  0  0  0  0
   -3.1753    2.1518   -2.0520 C   0  0  0  0  0  0  0  0  0  0  0  0
   -4.2619    2.1320   -2.1861 H   0  0  0  0  0  0  0  0  0  0  0  0
   -2.3617    3.1678   -2.5606 C   0  0  0  0  0  0  0  0  0  0  0  0
   -2.8141    4.0005   -3.1202 H   0  0  0  0  0  0  0  0  0  0  0  0
   -0.9762    3.1095   -2.3599 C   0  0  0  0  0  0  0  0  0  0  0  0
   -0.2942    3.8790   -2.7478 H   0  0  0  0  0  0  0  0  0  0  0  0
   -0.4619    2.0322   -1.6318 C   0  0  0  0  0  0  0  0  0  0  0  0
    0.6150    1.9491   -1.4362 H   0  0  0  0  0  0  0  0  0  0  0  0
  1  2  1  0  0  0  0
  2 11  2  0  0  0  0
  2  9  1  0  0  0  0
  4  5  2  0  0  0  0
  5  6  1  0  0  0  0
  7  5  1  0  0  0  0
  7  8  1  0  0  0  0
  9  7  2  0  0  0  0
 10  9  1  0  0  0  0
 11  4  1  0  0  0  0
 12  3  1  0  0  0  0
 12 11  1  6  0  0  0
 13 12  1  0  0  0  0
 14 13  1  0  0  0  0
 15 17  1  0  0  0  0
 15 13  2  0  0  0  0
 16 15  1  0  0  0  0
 17 19  2  0  0  0  0
 18 17  1  0  0  0  0
 19 20  1  0  0  0  0
 19  3  1  0  0  0  0
M  CHG  2   1  -1   2   1
M  END
