1,2
 OpenBabel05122313053D

 18 19  0  0  0  0  0  0  0  0999 V2000
   -0.1373    2.6414    0.1392 N   0  0  0  0  0  2  0  0  0  0  0  0
   -1.6841    0.5781   -0.2288 C   0  0  0  0  0  2  0  0  0  0  0  0
   -2.3289   -0.3011   -0.4010 H   0  0  0  0  0  0  0  0  0  0  0  0
   -2.3265    1.8790   -0.2549 C   0  0  0  0  0  0  0  0  0  0  0  0
   -3.6882    2.1457   -0.4543 C   0  0  0  0  0  0  0  0  0  0  0  0
   -4.3858    1.3087   -0.6138 H   0  0  0  0  0  0  0  0  0  0  0  0
   -4.1613    3.4826   -0.4477 C   0  0  0  0  0  0  0  0  0  0  0  0
   -5.2340    3.6725   -0.6053 H   0  0  0  0  0  0  0  0  0  0  0  0
   -3.2993    4.5590   -0.2465 C   0  0  0  0  0  3  0  0  0  0  0  0
   -3.6830    5.5907   -0.2448 H   0  0  0  0  0  0  0  0  0  0  0  0
   -1.9047    4.3349   -0.0396 C   0  0  0  0  0  0  0  0  0  0  0  0
   -0.9226    5.3443    0.1757 C   0  0  0  0  0  0  0  0  0  0  0  0
   -1.2218    6.4039    0.1919 H   0  0  0  0  0  0  0  0  0  0  0  0
    0.4036    4.9737    0.3623 C   0  0  0  0  0  0  0  0  0  0  0  0
    1.1848    5.7288    0.5296 H   0  0  0  0  0  0  0  0  0  0  0  0
    0.7640    3.6027    0.3372 C   0  0  0  0  0  0  0  0  0  0  0  0
    1.8060    3.2762    0.4801 H   0  0  0  0  0  0  0  0  0  0  0  0
   -1.4456    2.9854   -0.0478 C   0  0  0  0  0  0  0  0  0  0  0  0
  1 16  1  0  0  0  0
  3  2  1  0  0  0  0
  4  2  1  0  0  0  0
  4 18  2  0  0  0  0
  5  7  2  0  0  0  0
  5  4  1  0  0  0  0
  6  5  1  0  0  0  0
  7  9  1  0  0  0  0
  8  7  1  0  0  0  0
  9 10  1  0  0  0  0
  9 11  1  0  0  0  0
 11 12  2  0  0  0  0
 12 13  1  0  0  0  0
 12 14  1  0  0  0  0
 14 15  1  0  0  0  0
 16 14  2  0  0  0  0
 16 17  1  0  0  0  0
 18 11  1  0  0  0  0
 18  1  1  0  0  0  0
M  END
