1,19
 OpenBabel05122313053D

 19 20  0  0  0  0  0  0  0  0999 V2000
   -0.1053    0.9937   -1.8282 N   0  0  0  0  0  2  0  0  0  0  0  0
   -0.2066    0.4799   -3.0749 C   0  0  0  0  0  3  0  0  0  0  0  0
   -0.0504   -0.6041   -3.1598 H   0  0  0  0  0  0  0  0  0  0  0  0
   -0.4903    1.2696   -4.1889 C   0  0  0  0  0  0  0  0  0  0  0  0
   -0.5609    0.8034   -5.1811 H   0  0  0  0  0  0  0  0  0  0  0  0
   -0.6829    2.6483   -4.0019 C   0  0  0  0  0  0  0  0  0  0  0  0
   -0.9126    3.3032   -4.8554 H   0  0  0  0  0  0  0  0  0  0  0  0
   -0.5818    3.1849   -2.7170 C   0  0  0  0  0  0  0  0  0  0  0  0
   -0.7284    4.2550   -2.5348 H   0  0  0  0  0  0  0  0  0  0  0  0
   -0.2875    2.3456   -1.6208 C   0  0  0  0  0  0  0  0  0  0  0  0
   -0.1366    2.7428   -0.2282 C   0  0  0  0  0  0  0  0  0  0  0  0
   -0.2547    4.0452    0.3027 C   0  0  0  0  0  0  0  0  0  0  0  0
   -0.5414    5.0789   -0.5162 F   0  0  0  0  0  0  0  0  0  0  0  0
   -0.1029    4.3625    1.5706 N   0  0  0  0  0  0  0  0  0  0  0  0
    0.1826    3.3699    2.4045 C   0  0  0  0  0  0  0  0  0  0  0  0
    0.3362    3.7194    3.6883 F   0  0  0  0  0  0  0  0  0  0  0  0
    0.3342    2.0259    2.0458 C   0  0  0  0  0  0  0  0  0  0  0  0
    0.5706    1.2850    2.8206 H   0  0  0  0  0  0  0  0  0  0  0  0
    0.1657    1.6857    0.6923 C   0  0  0  0  0  3  0  0  0  0  0  0
  1 10  1  0  0  0  0
  2  1  1  0  0  0  0
  3  2  1  0  0  0  0
  4  6  2  0  0  0  0
  4  2  1  0  0  0  0
  5  4  1  0  0  0  0
  6  8  1  0  0  0  0
  7  6  1  0  0  0  0
  8  9  1  0  0  0  0
  8 10  2  0  0  0  0
 10 11  1  0  0  0  0
 11 12  2  0  0  0  0
 11 19  1  0  0  0  0
 12 14  1  0  0  0  0
 13 12  1  0  0  0  0
 14 15  2  0  0  0  0
 15 16  1  0  0  0  0
 17 15  1  0  0  0  0
 17 18  1  0  0  0  0
 19 17  2  0  0  0  0
M  END
