3,5
 OpenBabel05122313053D

 22 22  0  0  0  0  0  0  0  0999 V2000
   -2.5384   -2.6683   -1.3332 O   0  0  0  0  0  0  0  0  0  0  0  0
    1.3192   -3.7669    0.5431 O   0  0  0  0  0  0  0  0  0  0  0  0
   -1.7188   -0.7464   -0.2345 N   0  0  0  0  0  2  0  0  0  0  0  0
   -1.6513   -1.9927   -0.8178 C   0  0  0  0  0  0  0  0  0  0  0  0
   -0.1788   -2.3537   -0.6528 C   0  0  0  0  0  3  0  0  0  0  0  0
    0.2088   -3.2196    0.4962 C   0  0  0  0  0  0  0  0  0  0  0  0
   -0.8037   -3.4174    1.6087 C   0  0  0  0  0  0  0  0  0  0  0  0
   -2.8603    0.0245   -0.0207 C   0  0  0  0  0  0  0  0  0  0  0  0
   -2.8742    0.9510    1.0530 C   0  0  0  0  0  0  0  0  0  0  0  0
   -3.9945    1.7577    1.2927 C   0  0  0  0  0  0  0  0  0  0  0  0
   -5.1345    1.6467    0.4793 C   0  0  0  0  0  0  0  0  0  0  0  0
   -5.1403    0.7079   -0.5673 C   0  0  0  0  0  0  0  0  0  0  0  0
   -4.0241   -0.0980   -0.8243 C   0  0  0  0  0  0  0  0  0  0  0  0
    0.3498   -2.6459   -1.5816 H   0  0  0  0  0  0  0  0  0  0  0  0
   -0.3411   -3.9758    2.4421 H   0  0  0  0  0  0  0  0  0  0  0  0
   -1.1978   -2.4437    1.9604 H   0  0  0  0  0  0  0  0  0  0  0  0
   -1.6731   -3.9820    1.2120 H   0  0  0  0  0  0  0  0  0  0  0  0
   -1.9928    0.9971    1.7118 H   0  0  0  0  0  0  0  0  0  0  0  0
   -3.9831    2.4672    2.1350 H   0  0  0  0  0  0  0  0  0  0  0  0
   -6.0176    2.2750    0.6691 H   0  0  0  0  0  0  0  0  0  0  0  0
   -6.0351    0.5998   -1.2001 H   0  0  0  0  0  0  0  0  0  0  0  0
   -4.0315   -0.8486   -1.6246 H   0  0  0  0  0  0  0  0  0  0  0  0
  1  4  2  0  0  0  0
  3  8  1  0  0  0  0
  4  5  1  0  0  0  0
  4  3  1  0  0  0  0
  5  6  1  0  0  0  0
  6  2  2  0  0  0  0
  6  7  1  0  0  0  0
  7 16  1  0  0  0  0
  7 15  1  0  0  0  0
  8  9  1  0  0  0  0
  9 10  2  0  0  0  0
  9 18  1  0  0  0  0
 10 19  1  0  0  0  0
 11 20  1  0  0  0  0
 11 10  1  0  0  0  0
 12 11  2  0  0  0  0
 13 12  1  0  0  0  0
 13  8  2  0  0  0  0
 14  5  1  0  0  0  0
 17  7  1  0  0  0  0
 21 12  1  0  0  0  0
 22 13  1  0  0  0  0
M  END
