2,21
 OpenBabel05122313053D

 29 30  0  0  1  0  0  0  0  0999 V2000
   -1.4128    1.9517    0.7983 N   0  0  0  0  0  0  0  0  0  0  0  0
   -0.3081    1.1867    0.6144 C   0  0  0  0  0  2  0  0  0  0  0  0
    0.7148    2.1161    0.4842 N   0  0  0  0  0  0  0  0  0  0  0  0
    0.2487    3.4269    0.5712 C   0  0  0  0  0  0  0  0  0  0  0  0
    0.9222    4.2830    0.4864 H   0  0  0  0  0  0  0  0  0  0  0  0
   -1.0986    3.3152    0.7654 C   0  0  0  0  0  0  0  0  0  0  0  0
   -1.8647    4.0863    0.8895 H   0  0  0  0  0  0  0  0  0  0  0  0
   -2.7823    1.4376    0.8493 C   0  0  0  0  0  0  0  0  0  0  0  0
   -3.3581    2.0875    1.5411 H   0  0  0  0  0  0  0  0  0  0  0  0
   -2.7325    0.4299    1.3010 H   0  0  0  0  0  0  0  0  0  0  0  0
   -3.4279    1.4048   -0.5410 C   0  0  0  0  0  0  0  0  0  0  0  0
   -3.2907    2.4030   -1.0105 H   0  0  0  0  0  0  0  0  0  0  0  0
   -2.8592    0.6896   -1.1750 H   0  0  0  0  0  0  0  0  0  0  0  0
   -4.9224    1.0591   -0.5166 C   0  0  0  0  0  0  0  0  0  0  0  0
   -5.3080    1.1558   -1.5536 H   0  0  0  0  0  0  0  0  0  0  0  0
   -5.4659    1.8300    0.0761 H   0  0  0  0  0  0  0  0  0  0  0  0
   -5.2582   -0.3350    0.0184 C   0  0  0  0  0  0  0  0  0  0  0  0
   -4.7258   -1.1249   -0.5475 H   0  0  0  0  0  0  0  0  0  0  0  0
   -6.3459   -0.5359   -0.0534 H   0  0  0  0  0  0  0  0  0  0  0  0
   -4.9738   -0.4579    1.0837 H   0  0  0  0  0  0  0  0  0  0  0  0
    2.1320    0.3297    0.1044 N   0  0  0  0  0  2  0  0  0  0  0  0
    2.0083    1.6826    0.2003 C   0  0  1  0  0  3  0  0  0  0  0  0
    2.9710    2.5855    0.0471 N   0  0  0  0  0  0  0  0  0  0  0  0
    4.1919    2.1116   -0.2430 C   0  0  0  0  0  0  0  0  0  0  0  0
    4.9936    2.8579   -0.3738 H   0  0  0  0  0  0  0  0  0  0  0  0
    4.4444    0.7372   -0.3781 C   0  0  0  0  0  0  0  0  0  0  0  0
    5.4433    0.3521   -0.6224 H   0  0  0  0  0  0  0  0  0  0  0  0
    3.3662   -0.1320   -0.1934 C   0  0  0  0  0  0  0  0  0  0  0  0
    3.4667   -1.2231   -0.2859 H   0  0  0  0  0  0  0  0  0  0  0  0
  1  8  1  0  0  0  0
  2  1  1  0  0  0  0
  3  4  1  0  0  0  0
  3  2  1  0  0  0  0
  4  6  2  0  0  0  0
  5  4  1  0  0  0  0
  6  1  1  0  0  0  0
  6  7  1  0  0  0  0
  8 10  1  0  0  0  0
  8  9  1  0  0  0  0
 11 14  1  0  0  0  0
 11  8  1  0  0  0  0
 12 11  1  0  0  0  0
 13 11  1  0  0  0  0
 14 17  1  0  0  0  0
 14 16  1  0  0  0  0
 15 14  1  0  0  0  0
 17 20  1  0  0  0  0
 18 17  1  0  0  0  0
 19 17  1  0  0  0  0
 21 22  1  0  0  0  0
 22  3  1  6  0  0  0
 23 22  1  0  0  0  0
 24 23  2  0  0  0  0
 25 24  1  0  0  0  0
 26 24  1  0  0  0  0
 26 28  2  0  0  0  0
 27 26  1  0  0  0  0
 28 21  1  0  0  0  0
 29 28  1  0  0  0  0
M  END
