1,3
 OpenBabel05122313053D

 22 22  0  0  0  0  0  0  0  0999 V2000
   -2.6551   -2.1854   -0.1164 N   0  0  0  0  0  0  0  0  0  0  0  0
   -2.1540   -3.0816    0.0103 H   0  0  0  0  0  0  0  0  0  0  0  0
   -2.1716    0.5892   -0.2565 C   0  0  0  0  0  3  0  0  0  0  0  0
   -3.2312    0.5765    0.6846 C   0  0  0  0  0  0  0  0  0  0  0  0
   -4.2425    1.5552    0.6064 C   0  0  0  0  0  0  0  0  0  0  0  0
   -5.0563    1.5510    1.3506 H   0  0  0  0  0  0  0  0  0  0  0  0
   -4.2242    2.5289   -0.4051 C   0  0  0  0  0  0  0  0  0  0  0  0
   -5.0173    3.2908   -0.4509 H   0  0  0  0  0  0  0  0  0  0  0  0
   -3.1952    2.5177   -1.3591 C   0  0  0  0  0  0  0  0  0  0  0  0
   -3.1766    3.2689   -2.1642 H   0  0  0  0  0  0  0  0  0  0  0  0
   -2.1731    1.5559   -1.2801 C   0  0  0  0  0  0  0  0  0  0  0  0
   -1.3589    1.5784   -2.0207 H   0  0  0  0  0  0  0  0  0  0  0  0
   -3.2798   -0.5371    1.7055 C   0  0  0  0  0  0  0  0  0  0  0  0
   -4.0754   -0.3568    2.4582 H   0  0  0  0  0  0  0  0  0  0  0  0
   -2.3112   -0.5818    2.2494 H   0  0  0  0  0  0  0  0  0  0  0  0
   -3.5321   -1.9119    1.0545 C   0  0  0  0  0  0  0  0  0  0  0  0
   -3.3652   -2.7109    1.8054 H   0  0  0  0  0  0  0  0  0  0  0  0
   -4.5921   -1.9795    0.7293 H   0  0  0  0  0  0  0  0  0  0  0  0
   -3.3569   -2.2089   -1.4111 C   0  0  0  0  0  0  0  0  0  0  0  0
   -4.1925   -2.9443   -1.4076 H   0  0  0  0  0  0  0  0  0  0  0  0
   -2.6352   -2.4841   -2.2034 H   0  0  0  0  0  0  0  0  0  0  0  0
   -3.7611   -1.2033   -1.6329 H   0  0  0  0  0  0  0  0  0  0  0  0
  1  2  1  0  0  0  0
  1 16  1  0  0  0  0
  3  4  1  0  0  0  0
  4 13  1  0  0  0  0
  5  4  2  0  0  0  0
  5  6  1  0  0  0  0
  7  5  1  0  0  0  0
  8  7  1  0  0  0  0
  9 11  1  0  0  0  0
  9  7  2  0  0  0  0
 10  9  1  0  0  0  0
 11  3  2  0  0  0  0
 12 11  1  0  0  0  0
 13 15  1  0  0  0  0
 13 14  1  0  0  0  0
 16 13  1  0  0  0  0
 16 17  1  0  0  0  0
 18 16  1  0  0  0  0
 19 20  1  0  0  0  0
 19  1  1  0  0  0  0
 21 19  1  0  0  0  0
 22 19  1  0  0  0  0
M  END
