2,27
 OpenBabel05122313053D

 27 29  0  0  0  0  0  0  0  0999 V2000
    1.4808   -4.8529   -2.0169 F   0  0  0  0  0  0  0  0  0  0  0  0
   -2.0152   -0.0568   -0.3315 N   0  0  0  0  0  2  0  0  0  0  0  0
   -2.4754   -1.2485   -0.7844 N   0  0  0  0  0  0  0  0  0  0  0  0
   -3.7905   -1.3290   -0.8398 N   0  0  0  0  0  2  0  0  0  0  0  0
   -3.1158    0.6800   -0.0848 C   0  0  0  0  0  0  0  0  0  0  0  0
   -3.0319    1.7032    0.2898 H   0  0  0  0  0  0  0  0  0  0  0  0
   -4.2384   -0.1243   -0.4047 C   0  0  0  0  0  0  0  0  0  0  0  0
   -5.6689    0.1901   -0.3171 C   0  0  0  0  0  0  0  0  0  0  0  0
   -6.1091    1.4603    0.1156 C   0  0  0  0  0  0  0  0  0  0  0  0
   -5.3759    2.2335    0.3901 H   0  0  0  0  0  0  0  0  0  0  0  0
   -7.4773    1.7495    0.1962 C   0  0  0  0  0  0  0  0  0  0  0  0
   -7.8048    2.7442    0.5342 H   0  0  0  0  0  0  0  0  0  0  0  0
   -8.4270    0.7763   -0.1540 C   0  0  0  0  0  0  0  0  0  0  0  0
   -9.5016    1.0048   -0.0906 H   0  0  0  0  0  0  0  0  0  0  0  0
   -7.9975   -0.4896   -0.5863 C   0  0  0  0  0  0  0  0  0  0  0  0
   -8.7364   -1.2570   -0.8629 H   0  0  0  0  0  0  0  0  0  0  0  0
   -6.6314   -0.7830   -0.6682 C   0  0  0  0  0  0  0  0  0  0  0  0
   -6.2860   -1.7707   -1.0053 H   0  0  0  0  0  0  0  0  0  0  0  0
   -1.5081   -2.2201   -1.1209 C   0  0  0  0  0  0  0  0  0  0  0  0
   -1.8613   -3.4861   -1.6058 C   0  0  0  0  0  0  0  0  0  0  0  0
   -2.9205   -3.7482   -1.7358 H   0  0  0  0  0  0  0  0  0  0  0  0
   -0.8360   -4.3879   -1.9135 C   0  0  0  0  0  0  0  0  0  0  0  0
   -1.0469   -5.3951   -2.2976 H   0  0  0  0  0  0  0  0  0  0  0  0
    0.4949   -3.9831   -1.7213 C   0  0  0  0  0  0  0  0  0  0  0  0
    0.8386   -2.7141   -1.2349 C   0  0  0  0  0  0  0  0  0  0  0  0
    1.9050   -2.4743   -1.1105 H   0  0  0  0  0  0  0  0  0  0  0  0
   -0.1695   -1.7843   -0.9187 C   0  0  0  0  0  3  0  0  0  0  0  0
  1 24  1  0  0  0  0
  2  5  1  0  0  0  0
  3  2  1  0  0  0  0
  4  3  1  0  0  0  0
  4  7  1  0  0  0  0
  5  6  1  0  0  0  0
  7  8  1  0  0  0  0
  7  5  2  0  0  0  0
  8  9  1  0  0  0  0
  9 11  2  0  0  0  0
  9 10  1  0  0  0  0
 11 12  1  0  0  0  0
 13 14  1  0  0  0  0
 13 11  1  0  0  0  0
 15 13  2  0  0  0  0
 16 15  1  0  0  0  0
 17 15  1  0  0  0  0
 17  8  2  0  0  0  0
 18 17  1  0  0  0  0
 19 27  1  0  0  0  0
 19  3  1  0  0  0  0
 20 19  2  0  0  0  0
 21 20  1  0  0  0  0
 22 24  2  0  0  0  0
 22 20  1  0  0  0  0
 23 22  1  0  0  0  0
 24 25  1  0  0  0  0
 25 26  1  0  0  0  0
 25 27  2  0  0  0  0
M  END
