1,7
 OpenBabel05122313053D

 38 39  0  0  0  0  0  0  0  0999 V2000
   -0.6288    0.4625    0.3701 N   0  0  0  0  0  2  0  0  0  0  0  0
    4.2326    1.7495   -1.3907 C   0  0  0  0  0  0  0  0  0  0  0  0
    4.6072    1.8815   -0.3611 H   0  0  0  0  0  0  0  0  0  0  0  0
    4.9758    1.7823   -2.2015 H   0  0  0  0  0  0  0  0  0  0  0  0
    2.9157    1.5558   -1.6438 C   0  0  0  0  0  0  0  0  0  0  0  0
    2.6140    1.4520   -2.7051 H   0  0  0  0  0  0  0  0  0  0  0  0
    1.8196    1.4553   -0.6615 C   0  0  0  0  0  3  0  0  0  0  0  0
    2.1260    1.9634    0.2724 H   0  0  0  0  0  0  0  0  0  0  0  0
    0.4664    2.0262   -1.1153 C   0  0  0  0  0  0  0  0  0  0  0  0
    0.1163    1.5134   -2.0388 H   0  0  0  0  0  0  0  0  0  0  0  0
    0.5749    3.0989   -1.3965 H   0  0  0  0  0  0  0  0  0  0  0  0
   -0.6406    1.8777   -0.0432 C   0  0  0  0  0  0  0  0  0  0  0  0
   -0.3955    2.8528    1.1482 C   0  0  0  0  0  0  0  0  0  0  0  0
   -1.0162    2.5152    2.0051 H   0  0  0  0  0  0  0  0  0  0  0  0
    0.6575    2.8361    1.4920 H   0  0  0  0  0  0  0  0  0  0  0  0
   -0.8632    4.2379    0.6635 C   0  0  0  0  0  0  0  0  0  0  0  0
   -1.3184    4.8266    1.4849 H   0  0  0  0  0  0  0  0  0  0  0  0
   -0.0054    4.8352    0.2939 H   0  0  0  0  0  0  0  0  0  0  0  0
   -1.8748    3.9594   -0.4896 C   0  0  0  0  0  0  0  0  0  0  0  0
   -2.8607    4.4314   -0.3076 H   0  0  0  0  0  0  0  0  0  0  0  0
   -1.5008    4.3827   -1.4437 H   0  0  0  0  0  0  0  0  0  0  0  0
   -1.9888    2.4258   -0.5846 C   0  0  0  0  0  0  0  0  0  0  0  0
   -2.2102    2.0666   -1.6092 H   0  0  0  0  0  0  0  0  0  0  0  0
   -2.8129    2.0649    0.0638 H   0  0  0  0  0  0  0  0  0  0  0  0
   -1.6926   -0.0268    1.2142 C   0  0  0  0  0  0  0  0  0  0  0  0
   -2.0057    0.7347    1.9731 H   0  0  0  0  0  0  0  0  0  0  0  0
   -1.3005   -0.8723    1.8327 H   0  0  0  0  0  0  0  0  0  0  0  0
   -2.9537   -0.5576    0.5308 C   0  0  0  0  0  0  0  0  0  0  0  0
   -3.0533   -0.6742   -0.8662 C   0  0  0  0  0  0  0  0  0  0  0  0
   -2.2056   -0.3354   -1.4776 H   0  0  0  0  0  0  0  0  0  0  0  0
   -4.2105   -1.1987   -1.4642 C   0  0  0  0  0  0  0  0  0  0  0  0
   -4.2701   -1.2787   -2.5608 H   0  0  0  0  0  0  0  0  0  0  0  0
   -5.2889   -1.6159   -0.6697 C   0  0  0  0  0  0  0  0  0  0  0  0
   -6.1971   -2.0266   -1.1364 H   0  0  0  0  0  0  0  0  0  0  0  0
   -5.2017   -1.5005    0.7281 C   0  0  0  0  0  0  0  0  0  0  0  0
   -6.0438   -1.8207    1.3611 H   0  0  0  0  0  0  0  0  0  0  0  0
   -4.0441   -0.9760    1.3199 C   0  0  0  0  0  0  0  0  0  0  0  0
   -3.9837   -0.8863    2.4176 H   0  0  0  0  0  0  0  0  0  0  0  0
  1 25  1  0  0  0  0
  2  3  1  0  0  0  0
  4  2  1  0  0  0  0
  5  2  2  0  0  0  0
  5  7  1  0  0  0  0
  6  5  1  0  0  0  0
  7  8  1  0  0  0  0
  9  7  1  0  0  0  0
  9 12  1  0  0  0  0
 10  9  1  0  0  0  0
 11  9  1  0  0  0  0
 12  1  1  0  0  0  0
 12 13  1  0  0  0  0
 13 15  1  0  0  0  0
 13 14  1  0  0  0  0
 16 13  1  0  0  0  0
 16 17  1  0  0  0  0
 18 16  1  0  0  0  0
 19 20  1  0  0  0  0
 19 16  1  0  0  0  0
 21 19  1  0  0  0  0
 22 19  1  0  0  0  0
 22 12  1  0  0  0  0
 22 24  1  0  0  0  0
 23 22  1  0  0  0  0
 25 27  1  0  0  0  0
 25 26  1  0  0  0  0
 28 25  1  0  0  0  0
 28 37  1  0  0  0  0
 29 28  2  0  0  0  0
 30 29  1  0  0  0  0
 31 29  1  0  0  0  0
 31 33  2  0  0  0  0
 32 31  1  0  0  0  0
 33 35  1  0  0  0  0
 34 33  1  0  0  0  0
 35 37  2  0  0  0  0
 35 36  1  0  0  0  0
 37 38  1  0  0  0  0
M  END
