1,3
 OpenBabel05122313053D

 32 34  0  0  0  0  0  0  0  0999 V2000
   -1.9114   -0.1714    1.1797 N   0  0  0  0  0  2  0  0  0  0  0  0
   -2.9573   -0.7802    0.5656 N   0  0  0  0  0  0  0  0  0  0  0  0
   -0.1022   -1.2915   -0.6831 C   0  0  0  0  0  2  0  0  0  0  0  0
   -0.9928   -2.1767   -1.2378 N   0  0  0  0  0  0  0  0  0  0  0  0
   -3.7918   -1.3563    1.4785 C   0  0  0  0  0  3  0  0  0  0  0  0
   -4.7052   -1.8746    1.1661 H   0  0  0  0  0  0  0  0  0  0  0  0
   -3.2558   -1.1117    2.7404 C   0  0  0  0  0  0  0  0  0  0  0  0
   -3.6691   -1.4165    3.7066 H   0  0  0  0  0  0  0  0  0  0  0  0
   -2.0796   -0.3664    2.5001 C   0  0  0  0  0  0  0  0  0  0  0  0
   -1.3539    0.0398    3.2140 H   0  0  0  0  0  0  0  0  0  0  0  0
   -3.0466   -0.7433   -0.8853 C   0  0  0  0  0  0  0  0  0  0  0  0
   -2.5607    0.2101   -1.1930 H   0  0  0  0  0  0  0  0  0  0  0  0
   -4.1149   -0.7082   -1.1751 H   0  0  0  0  0  0  0  0  0  0  0  0
   -2.3921   -1.9280   -1.5952 C   0  0  0  0  0  0  0  0  0  0  0  0
   -2.9513   -2.8582   -1.3701 H   0  0  0  0  0  0  0  0  0  0  0  0
   -2.4727   -1.7539   -2.6898 H   0  0  0  0  0  0  0  0  0  0  0  0
   -0.3988   -3.4182   -1.4611 C   0  0  0  0  0  0  0  0  0  0  0  0
   -0.9440   -4.2586   -1.9014 H   0  0  0  0  0  0  0  0  0  0  0  0
    0.8913   -3.3233   -1.0223 C   0  0  0  0  0  0  0  0  0  0  0  0
    1.6912   -4.0673   -0.9698 H   0  0  0  0  0  0  0  0  0  0  0  0
    1.0526   -2.0256   -0.5429 N   0  0  0  0  0  0  0  0  0  0  0  0
    2.2481   -1.5526    0.0901 C   0  0  0  0  0  0  0  0  0  0  0  0
    3.4856   -1.7158   -0.5533 C   0  0  0  0  0  0  0  0  0  0  0  0
    3.5333   -2.1974   -1.5412 H   0  0  0  0  0  0  0  0  0  0  0  0
    4.6489   -1.2301    0.0628 C   0  0  0  0  0  0  0  0  0  0  0  0
    5.6196   -1.3495   -0.4401 H   0  0  0  0  0  0  0  0  0  0  0  0
    4.5728   -0.5832    1.3068 C   0  0  0  0  0  0  0  0  0  0  0  0
    5.4869   -0.2010    1.7843 H   0  0  0  0  0  0  0  0  0  0  0  0
    3.3312   -0.4350    1.9464 C   0  0  0  0  0  0  0  0  0  0  0  0
    3.2725    0.0527    2.9308 H   0  0  0  0  0  0  0  0  0  0  0  0
    2.1635   -0.9255    1.3447 C   0  0  0  0  0  0  0  0  0  0  0  0
    1.1862   -0.8381    1.8411 H   0  0  0  0  0  0  0  0  0  0  0  0
  1  9  1  0  0  0  0
  2  1  1  0  0  0  0
  2  5  1  0  0  0  0
  3 21  1  0  0  0  0
  4  3  1  0  0  0  0
  5  7  1  0  0  0  0
  6  5  1  0  0  0  0
  7  8  1  0  0  0  0
  9  7  2  0  0  0  0
  9 10  1  0  0  0  0
 11  2  1  0  0  0  0
 12 11  1  0  0  0  0
 13 11  1  0  0  0  0
 14 15  1  0  0  0  0
 14  4  1  0  0  0  0
 14 11  1  0  0  0  0
 16 14  1  0  0  0  0
 17  4  1  0  0  0  0
 17 19  2  0  0  0  0
 18 17  1  0  0  0  0
 19 20  1  0  0  0  0
 19 21  1  0  0  0  0
 21 22  1  0  0  0  0
 22 31  1  0  0  0  0
 23 25  1  0  0  0  0
 23 22  2  0  0  0  0
 24 23  1  0  0  0  0
 25 27  2  0  0  0  0
 26 25  1  0  0  0  0
 27 28  1  0  0  0  0
 27 29  1  0  0  0  0
 29 30  1  0  0  0  0
 31 32  1  0  0  0  0
 31 29  2  0  0  0  0
M  END
