2,28
 OpenBabel05122313053D

 42 44  0  0  1  0  0  0  0  0999 V2000
    3.6816    5.3332    0.9501 F   0  0  0  0  0  0  0  0  0  0  0  0
    1.2698   -0.5060   -0.3050 N   0  0  0  0  0  2  0  0  0  0  0  0
    2.5482   -1.0342   -0.3272 C   0  0  0  0  0  0  0  0  0  0  0  0
    2.8683   -2.1531    0.4980 C   0  0  0  0  0  0  0  0  0  0  0  0
    2.0958   -2.5565    1.1665 H   0  0  0  0  0  0  0  0  0  0  0  0
    4.1371   -2.7414    0.4839 C   0  0  0  0  0  0  0  0  0  0  0  0
    4.3358   -3.6047    1.1383 H   0  0  0  0  0  0  0  0  0  0  0  0
    5.1547   -2.2327   -0.3403 C   0  0  0  0  0  0  0  0  0  0  0  0
    6.1555   -2.6886   -0.3454 H   0  0  0  0  0  0  0  0  0  0  0  0
    4.8683   -1.1187   -1.1459 C   0  0  0  0  0  0  0  0  0  0  0  0
    5.6521   -0.6947   -1.7932 H   0  0  0  0  0  0  0  0  0  0  0  0
    3.6003   -0.5250   -1.1459 C   0  0  0  0  0  0  0  0  0  0  0  0
    3.4290    0.3516   -1.7827 H   0  0  0  0  0  0  0  0  0  0  0  0
    1.0300    0.7204   -1.0545 C   0  0  2  0  0  0  0  0  0  0  0  0
    1.3580    0.5869   -2.1215 H   0  0  0  0  0  0  0  0  0  0  0  0
    1.7941    1.9376   -0.5163 C   0  0  0  0  0  0  0  0  0  0  0  0
    2.0688    2.0689    0.8567 C   0  0  0  0  0  0  0  0  0  0  0  0
    1.7895    1.2487    1.5322 H   0  0  0  0  0  0  0  0  0  0  0  0
    2.7063    3.2105    1.3609 C   0  0  0  0  0  0  0  0  0  0  0  0
    2.9344    3.3206    2.4308 H   0  0  0  0  0  0  0  0  0  0  0  0
    3.0666    4.2324    0.4740 C   0  0  0  0  0  0  0  0  0  0  0  0
    2.8088    4.1318   -0.8982 C   0  0  0  0  0  0  0  0  0  0  0  0
    3.1146    4.9498   -1.5662 H   0  0  0  0  0  0  0  0  0  0  0  0
    2.1742    2.9789   -1.3832 C   0  0  0  0  0  0  0  0  0  0  0  0
    1.9756    2.8861   -2.4635 H   0  0  0  0  0  0  0  0  0  0  0  0
   -0.4426    1.0556   -1.0782 C   0  0  0  0  0  0  0  0  0  0  0  0
   -0.6877    2.0363   -1.5328 H   0  0  0  0  0  0  0  0  0  0  0  0
   -1.4130    0.2590   -0.5665 C   0  0  0  0  0  3  0  0  0  0  0  0
   -2.8081    0.7331   -0.4836 C   0  0  0  0  0  0  0  0  0  0  0  0
   -3.0796    2.0811   -0.1322 C   0  0  0  0  0  0  0  0  0  0  0  0
   -2.2338    2.7532    0.0792 H   0  0  0  0  0  0  0  0  0  0  0  0
   -4.3888    2.5613   -0.0210 C   0  0  0  0  0  0  0  0  0  0  0  0
   -4.5544    3.6135    0.2627 H   0  0  0  0  0  0  0  0  0  0  0  0
   -5.5007    1.7240   -0.2500 C   0  0  0  0  0  0  0  0  0  0  0  0
   -5.2390    0.3802   -0.5826 C   0  0  0  0  0  0  0  0  0  0  0  0
   -6.0840   -0.3052   -0.7578 H   0  0  0  0  0  0  0  0  0  0  0  0
   -3.9293   -0.1062   -0.6891 C   0  0  0  0  0  0  0  0  0  0  0  0
   -3.7764   -1.1646   -0.9370 H   0  0  0  0  0  0  0  0  0  0  0  0
   -6.9087    2.2537   -0.1513 C   0  0  0  0  0  0  0  0  0  0  0  0
   -7.0361    2.9132    0.7310 H   0  0  0  0  0  0  0  0  0  0  0  0
   -7.6505    1.4346   -0.0783 H   0  0  0  0  0  0  0  0  0  0  0  0
   -7.1723    2.8598   -1.0450 H   0  0  0  0  0  0  0  0  0  0  0  0
  3  2  1  0  0  0  0
  3  4  1  0  0  0  0
  4  5  1  0  0  0  0
  6  4  2  0  0  0  0
  6  7  1  0  0  0  0
  8  6  1  0  0  0  0
  9  8  1  0  0  0  0
 10 12  1  0  0  0  0
 10  8  2  0  0  0  0
 11 10  1  0  0  0  0
 12  3  2  0  0  0  0
 13 12  1  0  0  0  0
 14 15  1  6  0  0  0
 14 16  1  0  0  0  0
 14  2  1  0  0  0  0
 16 17  1  0  0  0  0
 17 19  2  0  0  0  0
 17 18  1  0  0  0  0
 19 20  1  0  0  0  0
 21  1  1  0  0  0  0
 21 19  1  0  0  0  0
 22 21  2  0  0  0  0
 23 22  1  0  0  0  0
 24 22  1  0  0  0  0
 24 16  2  0  0  0  0
 25 24  1  0  0  0  0
 26 14  1  0  0  0  0
 26 28  2  0  0  0  0
 27 26  1  0  0  0  0
 28 29  1  0  0  0  0
 29 30  1  0  0  0  0
 30 32  2  0  0  0  0
 30 31  1  0  0  0  0
 32 33  1  0  0  0  0
 34 39  1  0  0  0  0
 34 32  1  0  0  0  0
 35 34  2  0  0  0  0
 36 35  1  0  0  0  0
 37 35  1  0  0  0  0
 37 29  2  0  0  0  0
 38 37  1  0  0  0  0
 39 41  1  0  0  0  0
 39 40  1  0  0  0  0
 42 39  1  0  0  0  0
M  END
