1,3
 OpenBabel05122313053D

 32 32  0  0  1  0  0  0  0  0999 V2000
    1.2822    0.9217    0.8179 N   0  0  0  0  0  2  0  0  0  0  0  0
    0.9920    1.8060    1.2489 H   0  0  0  0  0  0  0  0  0  0  0  0
    1.8683   -0.6609   -1.6432 C   0  0  2  0  0  3  0  0  0  0  0  0
    2.7408    0.3690   -2.2963 C   0  0  0  0  0  0  0  0  0  0  0  0
    2.9770    1.2019   -1.6063 H   0  0  0  0  0  0  0  0  0  0  0  0
    2.2539    0.7986   -3.1931 H   0  0  0  0  0  0  0  0  0  0  0  0
    3.7037   -0.0780   -2.6267 H   0  0  0  0  0  0  0  0  0  0  0  0
    2.0731   -1.2389   -0.3474 C   0  0  1  0  0  3  0  0  0  0  0  0
    3.0581   -0.7259    0.6577 C   0  0  0  0  0  0  0  0  0  0  0  0
    3.9082   -0.2585    0.1222 H   0  0  0  0  0  0  0  0  0  0  0  0
    3.4841   -1.5485    1.2673 H   0  0  0  0  0  0  0  0  0  0  0  0
    2.3873    0.3457    1.5827 C   0  0  0  0  0  0  0  0  0  0  0  0
    1.8664   -0.3072    2.8822 C   0  0  0  0  0  0  0  0  0  0  0  0
    1.0679   -1.0363    2.6504 H   0  0  0  0  0  0  0  0  0  0  0  0
    1.4194    0.4644    3.5426 H   0  0  0  0  0  0  0  0  0  0  0  0
    2.6754   -0.8171    3.4474 H   0  0  0  0  0  0  0  0  0  0  0  0
    3.4122    1.4359    1.9502 C   0  0  0  0  0  0  0  0  0  0  0  0
    3.7817    1.9441    1.0363 H   0  0  0  0  0  0  0  0  0  0  0  0
    4.2832    1.0111    2.4912 H   0  0  0  0  0  0  0  0  0  0  0  0
    2.9512    2.2019    2.6090 H   0  0  0  0  0  0  0  0  0  0  0  0
    1.0804   -2.2478   -0.1456 C   0  0  2  0  0  3  0  0  0  0  0  0
    1.0074   -3.2371    0.9769 C   0  0  0  0  0  0  0  0  0  0  0  0
   -0.0168   -3.3461    1.3961 H   0  0  0  0  0  0  0  0  0  0  0  0
    1.6859   -2.9804    1.8106 H   0  0  0  0  0  0  0  0  0  0  0  0
    1.2888   -4.2489    0.6121 H   0  0  0  0  0  0  0  0  0  0  0  0
    0.2423   -2.2876   -1.3074 C   0  0  0  0  0  0  0  0  0  0  0  0
   -0.8809   -3.2543   -1.5220 C   0  0  0  0  0  0  0  0  0  0  0  0
   -0.5100   -4.3017   -1.5159 H   0  0  0  0  0  0  0  0  0  0  0  0
   -1.3878   -3.0835   -2.4900 H   0  0  0  0  0  0  0  0  0  0  0  0
   -1.6415   -3.1652   -0.7184 H   0  0  0  0  0  0  0  0  0  0  0  0
    0.7348   -1.3139   -2.2197 C   0  0  0  0  0  0  0  0  0  0  0  0
    0.3329   -1.1328   -3.2239 H   0  0  0  0  0  0  0  0  0  0  0  0
  1  2  1  0  0  0  0
  1 12  1  0  0  0  0
  3  4  1  6  0  0  0
  3  8  1  0  0  0  0
  4  5  1  0  0  0  0
  6  4  1  0  0  0  0
  7  4  1  0  0  0  0
  8 21  1  0  0  0  0
  8  9  1  1  0  0  0
  9 11  1  0  0  0  0
  9 12  1  0  0  0  0
 10  9  1  0  0  0  0
 12 17  1  0  0  0  0
 12 13  1  0  0  0  0
 13 16  1  0  0  0  0
 13 15  1  0  0  0  0
 14 13  1  0  0  0  0
 17 19  1  0  0  0  0
 17 20  1  0  0  0  0
 18 17  1  0  0  0  0
 21 22  1  6  0  0  0
 22 23  1  0  0  0  0
 22 24  1  0  0  0  0
 25 22  1  0  0  0  0
 26 21  1  0  0  0  0
 27 28  1  0  0  0  0
 27 26  1  0  0  0  0
 27 30  1  0  0  0  0
 29 27  1  0  0  0  0
 31  3  1  0  0  0  0
 31 26  2  0  0  0  0
 32 31  1  0  0  0  0
M  END
