2,11
 OpenBabel05122313053D

 35 38  0  0  1  0  0  0  0  0999 V2000
    4.6522    3.5310   -0.5272 Br  0  0  0  0  0  0  0  0  0  0  0  0
    0.7043    0.9322   -1.0113 C   0  0  0  0  0  3  0  0  0  0  0  0
    1.8201    0.4511   -0.2450 C   0  0  0  0  0  0  0  0  0  0  0  0
    2.9969    1.2317   -0.0997 C   0  0  0  0  0  0  0  0  0  0  0  0
    3.8311    0.8902    0.5250 H   0  0  0  0  0  0  0  0  0  0  0  0
    3.0805    2.4673   -0.7397 C   0  0  0  0  0  0  0  0  0  0  0  0
    2.0202    2.9462   -1.5341 C   0  0  0  0  0  0  0  0  0  0  0  0
    2.1050    3.9215   -2.0351 H   0  0  0  0  0  0  0  0  0  0  0  0
    0.8549    2.1813   -1.6581 C   0  0  0  0  0  0  0  0  0  0  0  0
    0.0293    2.5851   -2.2626 H   0  0  0  0  0  0  0  0  0  0  0  0
    0.2992   -1.1988    0.5435 N   0  0  0  0  0  2  0  0  0  0  0  0
    1.5917   -0.7917    0.4940 C   0  0  0  0  0  0  0  0  0  0  0  0
    2.5871   -1.5539    1.2268 C   0  0  0  0  0  0  0  0  0  0  0  0
    2.2326   -2.3821    2.1985 N   0  0  0  0  0  0  0  0  0  0  0  0
    0.9095   -2.6125    2.4148 C   0  0  0  0  0  0  0  0  0  0  0  0
    0.5089   -3.4294    3.5082 C   0  0  0  0  0  0  0  0  0  0  0  0
    1.2986   -3.8006    4.1770 H   0  0  0  0  0  0  0  0  0  0  0  0
   -0.8302   -3.7433    3.6915 C   0  0  0  0  0  0  0  0  0  0  0  0
   -1.1389   -4.3772    4.5363 H   0  0  0  0  0  0  0  0  0  0  0  0
   -1.8053   -3.2552    2.7826 C   0  0  0  0  0  0  0  0  0  0  0  0
   -2.8664   -3.5029    2.9365 H   0  0  0  0  0  0  0  0  0  0  0  0
   -1.4448   -2.4551    1.7067 C   0  0  0  0  0  0  0  0  0  0  0  0
   -2.1949   -2.0567    1.0140 H   0  0  0  0  0  0  0  0  0  0  0  0
   -0.0843   -2.0975    1.5078 C   0  0  1  0  0  3  0  0  0  0  0  0
    4.0296   -1.5282    0.8728 C   0  0  0  0  0  0  0  0  0  0  0  0
    4.4388   -1.5150   -0.4795 C   0  0  0  0  0  0  0  0  0  0  0  0
    3.6790   -1.4860   -1.2752 H   0  0  0  0  0  0  0  0  0  0  0  0
    5.8007   -1.5502   -0.8033 C   0  0  0  0  0  0  0  0  0  0  0  0
    6.1098   -1.5426   -1.8594 H   0  0  0  0  0  0  0  0  0  0  0  0
    6.7687   -1.5949    0.2141 C   0  0  0  0  0  0  0  0  0  0  0  0
    7.8387   -1.6101   -0.0432 H   0  0  0  0  0  0  0  0  0  0  0  0
    6.3673   -1.6267    1.5599 C   0  0  0  0  0  0  0  0  0  0  0  0
    7.1226   -1.6689    2.3595 H   0  0  0  0  0  0  0  0  0  0  0  0
    5.0054   -1.6058    1.8882 C   0  0  0  0  0  0  0  0  0  0  0  0
    4.6717   -1.6482    2.9351 H   0  0  0  0  0  0  0  0  0  0  0  0
  2  3  1  0  0  0  0
  3  4  2  0  0  0  0
  3 12  1  0  0  0  0
  4  5  1  0  0  0  0
  6  1  1  0  0  0  0
  6  4  1  0  0  0  0
  7  6  2  0  0  0  0
  8  7  1  0  0  0  0
  9  7  1  0  0  0  0
  9  2  2  0  0  0  0
 10  9  1  0  0  0  0
 12 11  1  0  0  0  0
 12 13  2  0  0  0  0
 13 14  1  0  0  0  0
 14 15  2  0  0  0  0
 15 16  1  0  0  0  0
 16 18  2  0  0  0  0
 16 17  1  0  0  0  0
 18 19  1  0  0  0  0
 20 21  1  0  0  0  0
 20 18  1  0  0  0  0
 22 20  2  0  0  0  0
 23 22  1  0  0  0  0
 24 11  1  1  0  0  0
 24 22  1  0  0  0  0
 24 15  1  0  0  0  0
 25 13  1  0  0  0  0
 25 34  1  0  0  0  0
 26 25  2  0  0  0  0
 27 26  1  0  0  0  0
 28 26  1  0  0  0  0
 28 30  2  0  0  0  0
 29 28  1  0  0  0  0
 30 32  1  0  0  0  0
 31 30  1  0  0  0  0
 32 34  2  0  0  0  0
 32 33  1  0  0  0  0
 34 35  1  0  0  0  0
M  END
