2,17
 OpenBabel05122313053D

 26 28  0  0  0  0  0  0  0  0999 V2000
    0.1225    4.1934    3.1949 F   0  0  0  0  0  0  0  0  0  0  0  0
    1.6274   -0.2384   -1.2250 N   0  0  0  0  0  2  0  0  0  0  0  0
    2.8997   -0.3221   -0.6876 C   0  0  0  0  0  0  0  0  0  0  0  0
    1.4107   -0.5523   -2.5147 C   0  0  0  0  0  0  0  0  0  0  0  0
    2.4172   -1.0808   -3.3453 C   0  0  0  0  0  0  0  0  0  0  0  0
    3.6621   -1.3426   -2.7979 C   0  0  0  0  0  0  0  0  0  0  0  0
    3.9353   -0.9779   -1.4501 C   0  0  0  0  0  0  0  0  0  0  0  0
    5.1982   -1.2405   -0.8500 C   0  0  0  0  0  3  0  0  0  0  0  0
    5.4280   -0.8427    0.4572 C   0  0  0  0  0  0  0  0  0  0  0  0
    4.4510   -0.1028    1.1578 C   0  0  0  0  0  0  0  0  0  0  0  0
    3.2003    0.2319    0.6111 C   0  0  0  0  0  0  0  0  0  0  0  0
    2.3328    1.2218    1.2957 C   0  0  0  0  0  0  0  0  0  0  0  0
    2.9550    2.1921    2.1250 C   0  0  0  0  0  0  0  0  0  0  0  0
    2.2294    3.1894    2.7803 C   0  0  0  0  0  0  0  0  0  0  0  0
    0.8429    3.2297    2.5834 C   0  0  0  0  0  0  0  0  0  0  0  0
    0.1944    2.3124    1.7564 C   0  0  0  0  0  0  0  0  0  0  0  0
    0.9178    1.2869    1.1026 C   0  0  0  0  0  3  0  0  0  0  0  0
    0.3756   -0.4337   -2.8629 H   0  0  0  0  0  0  0  0  0  0  0  0
    2.1794   -1.3220   -4.3906 H   0  0  0  0  0  0  0  0  0  0  0  0
    4.4548   -1.8261   -3.3893 H   0  0  0  0  0  0  0  0  0  0  0  0
    5.9679   -1.7637   -1.4368 H   0  0  0  0  0  0  0  0  0  0  0  0
    6.3857   -1.0722    0.9482 H   0  0  0  0  0  0  0  0  0  0  0  0
    4.6825    0.2381    2.1763 H   0  0  0  0  0  0  0  0  0  0  0  0
    4.0494    2.1941    2.2325 H   0  0  0  0  0  0  0  0  0  0  0  0
    2.7182    3.9459    3.4097 H   0  0  0  0  0  0  0  0  0  0  0  0
   -0.8919    2.4106    1.6181 H   0  0  0  0  0  0  0  0  0  0  0  0
  2  3  1  0  0  0  0
  3 11  2  0  0  0  0
  4  2  1  0  0  0  0
  5  6  1  0  0  0  0
  5  4  2  0  0  0  0
  6  7  2  0  0  0  0
  7  8  1  0  0  0  0
  7  3  1  0  0  0  0
  8  9  1  0  0  0  0
  9 22  1  0  0  0  0
  9 10  2  0  0  0  0
 10 23  1  0  0  0  0
 11 10  1  0  0  0  0
 11 12  1  0  0  0  0
 12 13  1  0  0  0  0
 13 24  1  0  0  0  0
 13 14  2  0  0  0  0
 14 25  1  0  0  0  0
 15 14  1  0  0  0  0
 15  1  1  0  0  0  0
 16 15  2  0  0  0  0
 17 12  2  0  0  0  0
 17 16  1  0  0  0  0
 18  4  1  0  0  0  0
 19  5  1  0  0  0  0
 20  6  1  0  0  0  0
 21  8  1  0  0  0  0
 26 16  1  0  0  0  0
M  END
