1,2
 OpenBabel05122313053D

 28 29  0  0  0  0  0  0  0  0999 V2000
   -0.0894    2.6729    0.0237 N   0  0  0  0  0  0  0  0  0  0  0  0
    1.8979    0.8988   -0.2743 C   0  0  0  0  0  2  0  0  0  0  0  0
    2.7425    0.1912   -0.3328 H   0  0  0  0  0  0  0  0  0  0  0  0
    2.2334    2.2988   -0.4714 C   0  0  0  0  0  0  0  0  0  0  0  0
    3.5365    2.7475   -0.7890 C   0  0  0  0  0  0  0  0  0  0  0  0
    4.3509    2.0088   -0.8540 H   0  0  0  0  0  0  0  0  0  0  0  0
    3.7710    4.1049   -1.0402 C   0  0  0  0  0  0  0  0  0  0  0  0
    4.7820    4.4517   -1.3022 H   0  0  0  0  0  0  0  0  0  0  0  0
    2.7105    5.0251   -0.9689 C   0  0  0  0  0  0  0  0  0  0  0  0
    2.8928    6.0912   -1.1723 H   0  0  0  0  0  0  0  0  0  0  0  0
    1.4123    4.5974   -0.6325 C   0  0  0  0  0  0  0  0  0  0  0  0
    0.5967    5.3317   -0.5687 H   0  0  0  0  0  0  0  0  0  0  0  0
    1.1801    3.2429   -0.3721 C   0  0  0  0  0  0  0  0  0  0  0  0
   -1.3015    3.2819   -0.5702 C   0  0  0  0  0  0  0  0  0  0  0  0
   -1.3108    3.0077   -1.6428 H   0  0  0  0  0  0  0  0  0  0  0  0
   -1.2562    4.3907   -0.4914 H   0  0  0  0  0  0  0  0  0  0  0  0
   -2.5565    2.8013    0.1188 C   0  0  0  0  0  0  0  0  0  0  0  0
   -3.4650    1.9526   -0.5398 C   0  0  0  0  0  0  0  0  0  0  0  0
   -3.2226    1.5851   -1.5481 H   0  0  0  0  0  0  0  0  0  0  0  0
   -4.6561    1.5643    0.0921 C   0  0  0  0  0  0  0  0  0  0  0  0
   -5.3681    0.9206   -0.4423 H   0  0  0  0  0  0  0  0  0  0  0  0
   -4.9342    1.9862    1.4006 C   0  0  0  0  0  0  0  0  0  0  0  0
   -5.8664    1.6739    1.8962 H   0  0  0  0  0  0  0  0  0  0  0  0
   -4.0186    2.8094    2.0766 C   0  0  0  0  0  0  0  0  0  0  0  0
   -4.2270    3.1418    3.1049 H   0  0  0  0  0  0  0  0  0  0  0  0
   -2.8447    3.2228    1.4331 C   0  0  0  0  0  0  0  0  0  0  0  0
   -2.1427    3.8897    1.9601 H   0  0  0  0  0  0  0  0  0  0  0  0
   -0.1599    2.6944    1.0606 H   0  0  0  0  0  0  0  0  0  0  0  0
  1 28  1  0  0  0  0
  3  2  1  0  0  0  0
  4 13  1  0  0  0  0
  4  2  1  0  0  0  0
  5  4  2  0  0  0  0
  6  5  1  0  0  0  0
  7  9  2  0  0  0  0
  7  5  1  0  0  0  0
  8  7  1  0  0  0  0
  9 11  1  0  0  0  0
 10  9  1  0  0  0  0
 11 12  1  0  0  0  0
 11 13  2  0  0  0  0
 13  1  1  0  0  0  0
 14 16  1  0  0  0  0
 14  1  1  0  0  0  0
 14 17  1  0  0  0  0
 15 14  1  0  0  0  0
 17 26  1  0  0  0  0
 18 20  1  0  0  0  0
 18 17  2  0  0  0  0
 19 18  1  0  0  0  0
 20 22  2  0  0  0  0
 21 20  1  0  0  0  0
 22 23  1  0  0  0  0
 22 24  1  0  0  0  0
 24 25  1  0  0  0  0
 26 27  1  0  0  0  0
 26 24  2  0  0  0  0
M  END
