1,17
 OpenBabel05122313053D

 31 34  0  0  1  0  0  0  0  0999 V2000
   -1.9534   -0.4312    0.1852 N   0  0  0  0  0  2  0  0  0  0  0  0
   -3.1232    3.0559   -0.2265 N   0  0  0  0  0  2  0  0  0  0  0  0
   -3.1222   -1.0746    0.2239 C   0  0  0  0  0  0  0  0  0  0  0  0
   -3.0553   -2.1742    0.2568 H   0  0  0  0  0  0  0  0  0  0  0  0
   -4.3585   -0.3850    0.1636 C   0  0  0  0  0  0  0  0  0  0  0  0
   -5.2918   -0.9644    0.2064 H   0  0  0  0  0  0  0  0  0  0  0  0
   -4.3752    0.9955    0.0248 C   0  0  0  0  0  0  0  0  0  0  0  0
   -5.3088    1.5715   -0.0556 H   0  0  0  0  0  0  0  0  0  0  0  0
   -1.9328    3.6386   -0.2951 C   0  0  0  0  0  0  0  0  0  0  0  0
   -1.9331    4.7311   -0.4629 H   0  0  0  0  0  0  0  0  0  0  0  0
   -0.6854    2.9687   -0.1547 C   0  0  0  0  0  0  0  0  0  0  0  0
    0.2536    3.5396   -0.1920 H   0  0  0  0  0  0  0  0  0  0  0  0
   -0.6700    1.5921    0.0663 C   0  0  0  0  0  0  0  0  0  0  0  0
   -1.9398    0.9378    0.0855 C   0  0  0  0  0  0  0  0  0  0  0  0
   -3.1415    1.7053   -0.0352 C   0  0  0  0  0  0  0  0  0  0  0  0
    0.5294    0.7783    0.3533 C   0  0  2  0  0  3  0  0  0  0  0  0
    0.6287   -0.0184    1.5659 C   0  0  0  0  0  3  0  0  0  0  0  0
   -0.1647   -0.0077    2.3318 H   0  0  0  0  0  0  0  0  0  0  0  0
    2.0826   -0.0479    2.0163 C   0  0  0  0  0  0  0  0  0  0  0  0
    2.1876    0.5271    2.9649 H   0  0  0  0  0  0  0  0  0  0  0  0
    2.4615   -1.0686    2.2354 H   0  0  0  0  0  0  0  0  0  0  0  0
    2.8254    0.6375    0.8913 C   0  0  0  0  0  0  0  0  0  0  0  0
    4.2009    0.7922    0.6932 C   0  0  0  0  0  0  0  0  0  0  0  0
    4.9218    0.3846    1.4186 H   0  0  0  0  0  0  0  0  0  0  0  0
    4.6534    1.4825   -0.4464 C   0  0  0  0  0  0  0  0  0  0  0  0
    5.7335    1.6166   -0.6091 H   0  0  0  0  0  0  0  0  0  0  0  0
    3.7391    1.9980   -1.3829 C   0  0  0  0  0  0  0  0  0  0  0  0
    4.1112    2.5271   -2.2732 H   0  0  0  0  0  0  0  0  0  0  0  0
    2.3564    1.8308   -1.2005 C   0  0  0  0  0  0  0  0  0  0  0  0
    1.6431    2.2088   -1.9483 H   0  0  0  0  0  0  0  0  0  0  0  0
    1.9045    1.1488   -0.0593 C   0  0  0  0  0  0  0  0  0  0  0  0
  1  3  1  0  0  0  0
  2 15  1  0  0  0  0
  3  4  1  0  0  0  0
  5  6  1  0  0  0  0
  5  3  2  0  0  0  0
  7  5  1  0  0  0  0
  8  7  1  0  0  0  0
  9  2  1  0  0  0  0
  9 11  2  0  0  0  0
 10  9  1  0  0  0  0
 11 13  1  0  0  0  0
 12 11  1  0  0  0  0
 13 14  2  0  0  0  0
 14  1  1  0  0  0  0
 15  7  2  0  0  0  0
 15 14  1  0  0  0  0
 16 13  1  1  0  0  0
 16 17  1  0  0  0  0
 17 19  1  0  0  0  0
 17 18  1  0  0  0  0
 19 21  1  0  0  0  0
 19 20  1  0  0  0  0
 22 19  1  0  0  0  0
 23 22  1  0  0  0  0
 23 24  1  0  0  0  0
 25 23  2  0  0  0  0
 26 25  1  0  0  0  0
 27 29  2  0  0  0  0
 27 25  1  0  0  0  0
 28 27  1  0  0  0  0
 29 31  1  0  0  0  0
 30 29  1  0  0  0  0
 31 16  1  0  0  0  0
 31 22  2  0  0  0  0
M  END
