1,3
 OpenBabel05122313053D

 33 35  0  0  1  0  0  0  0  0999 V2000
   -1.4571   -0.4851    1.5389 N   0  0  0  0  0  2  0  0  0  0  0  0
   -4.9102   -1.3595    0.7819 O   0  0  0  0  0  0  0  0  0  0  0  0
   -1.2040    0.0129   -1.0294 C   0  0  0  0  0  3  0  0  0  0  0  0
   -0.9404    0.1362   -2.3925 C   0  0  0  0  0  0  0  0  0  0  0  0
    0.0605    0.4439   -2.7333 H   0  0  0  0  0  0  0  0  0  0  0  0
   -1.9351   -0.1097   -3.3796 C   0  0  0  0  0  0  0  0  0  0  0  0
   -1.6833    0.0276   -4.7775 C   0  0  0  0  0  0  0  0  0  0  0  0
   -0.6737    0.3241   -5.1035 H   0  0  0  0  0  0  0  0  0  0  0  0
   -2.6843   -0.2041   -5.7098 C   0  0  0  0  0  0  0  0  0  0  0  0
   -2.4713   -0.0924   -6.7843 H   0  0  0  0  0  0  0  0  0  0  0  0
   -3.9885   -0.5868   -5.2884 C   0  0  0  0  0  0  0  0  0  0  0  0
   -4.7742   -0.7676   -6.0376 H   0  0  0  0  0  0  0  0  0  0  0  0
   -4.2642   -0.7327   -3.9371 C   0  0  0  0  0  0  0  0  0  0  0  0
   -5.2698   -1.0321   -3.6005 H   0  0  0  0  0  0  0  0  0  0  0  0
   -3.2570   -0.5034   -2.9525 C   0  0  0  0  0  0  0  0  0  0  0  0
   -3.5144   -0.6679   -1.5659 C   0  0  0  0  0  0  0  0  0  0  0  0
   -4.5154   -0.9878   -1.2584 H   0  0  0  0  0  0  0  0  0  0  0  0
   -2.5141   -0.4431   -0.6121 C   0  0  0  0  0  0  0  0  0  0  0  0
   -2.6198   -0.7048    0.8259 C   0  0  1  0  0  3  0  0  0  0  0  0
   -3.7658   -1.2264    1.5007 C   0  0  0  0  0  0  0  0  0  0  0  0
   -3.6668   -1.5848    2.8515 C   0  0  0  0  0  0  0  0  0  0  0  0
   -4.5261   -2.0045    3.3897 H   0  0  0  0  0  0  0  0  0  0  0  0
   -2.4453   -1.4178    3.5082 C   0  0  0  0  0  0  0  0  0  0  0  0
   -2.3367   -1.7148    4.5605 H   0  0  0  0  0  0  0  0  0  0  0  0
   -1.3453   -0.8553    2.8475 C   0  0  0  0  0  0  0  0  0  0  0  0
   -6.0601   -1.8860    1.4174 C   0  0  0  0  0  0  0  0  0  0  0  0
   -5.8918   -2.9221    1.7867 H   0  0  0  0  0  0  0  0  0  0  0  0
   -6.8561   -1.9022    0.6504 H   0  0  0  0  0  0  0  0  0  0  0  0
   -6.3900   -1.2493    2.2683 H   0  0  0  0  0  0  0  0  0  0  0  0
   -0.0578   -0.6547    3.5882 C   0  0  0  0  0  0  0  0  0  0  0  0
    0.8205   -0.8612    2.9504 H   0  0  0  0  0  0  0  0  0  0  0  0
   -0.0339   -1.3131    4.4769 H   0  0  0  0  0  0  0  0  0  0  0  0
    0.0310    0.3941    3.9357 H   0  0  0  0  0  0  0  0  0  0  0  0
  1 25  1  0  0  0  0
  2 26  1  0  0  0  0
  2 20  1  0  0  0  0
  3 18  1  0  0  0  0
  4  3  2  0  0  0  0
  5  4  1  0  0  0  0
  6 15  1  0  0  0  0
  6  4  1  0  0  0  0
  7  6  2  0  0  0  0
  8  7  1  0  0  0  0
  9 11  2  0  0  0  0
  9  7  1  0  0  0  0
 10  9  1  0  0  0  0
 11 13  1  0  0  0  0
 12 11  1  0  0  0  0
 13 14  1  0  0  0  0
 13 15  2  0  0  0  0
 15 16  1  0  0  0  0
 16 17  1  0  0  0  0
 16 18  2  0  0  0  0
 19 18  1  6  0  0  0
 19 20  1  0  0  0  0
 19  1  1  0  0  0  0
 20 21  2  0  0  0  0
 21 22  1  0  0  0  0
 21 23  1  0  0  0  0
 23 24  1  0  0  0  0
 25 23  2  0  0  0  0
 25 30  1  0  0  0  0
 26 27  1  0  0  0  0
 26 29  1  0  0  0  0
 28 26  1  0  0  0  0
 30 33  1  0  0  0  0
 30 32  1  0  0  0  0
 31 30  1  0  0  0  0
M  END
