7,9
 OpenBabel05122313053D

 29 30  0  0  1  0  0  0  0  0999 V2000
    4.1514   -2.8462   -0.3561 S   0  0  0  0  0  0  0  0  0  0  0  0
    5.4557   -3.5659    0.3007 F   0  0  0  0  0  0  0  0  0  0  0  0
    3.4787   -4.3293   -0.5222 F   0  0  0  0  0  0  0  0  0  0  0  0
    3.5216   -2.7393    1.1692 F   0  0  0  0  0  0  0  0  0  0  0  0
    4.9094   -1.4028   -0.1310 F   0  0  0  0  0  0  0  0  0  0  0  0
    4.8638   -2.9944   -1.8224 F   0  0  0  0  0  0  0  0  0  0  0  0
   -1.1107    0.9712   -1.7128 N   0  0  0  0  0  2  0  0  0  0  0  0
   -0.8218   -0.1830   -2.4136 N   0  0  0  0  0  0  0  0  0  0  0  0
    0.9985   -0.2908   -0.8912 C   0  0  0  0  0  3  0  0  0  0  0  0
    0.3716   -0.8498   -2.0362 C   0  0  0  0  0  0  0  0  0  0  0  0
    0.9069   -1.9640   -2.7052 C   0  0  0  0  0  0  0  0  0  0  0  0
    0.4356   -2.3848   -3.5989 H   0  0  0  0  0  0  0  0  0  0  0  0
    2.0712   -2.5705   -2.2101 C   0  0  0  0  0  0  0  0  0  0  0  0
    2.4848   -3.4554   -2.7090 H   0  0  0  0  0  0  0  0  0  0  0  0
    2.6826   -2.0294   -1.0745 C   0  0  0  0  0  0  0  0  0  0  0  0
    2.1779   -0.8947   -0.4294 C   0  0  0  0  0  0  0  0  0  0  0  0
    2.6993   -0.5024    0.4520 H   0  0  0  0  0  0  0  0  0  0  0  0
   -1.8194   -0.4532   -3.3201 C   0  0  2  0  0  3  0  0  0  0  0  0
   -2.7450    0.5856   -3.2043 C   0  0  0  0  0  0  0  0  0  0  0  0
   -3.6670    0.6933   -3.7840 H   0  0  0  0  0  0  0  0  0  0  0  0
   -2.2793    1.4519   -2.1917 C   0  0  0  0  0  0  0  0  0  0  0  0
   -1.8895   -1.6629   -4.1865 C   0  0  0  0  0  0  0  0  0  0  0  0
   -2.8488   -1.6555   -4.7343 H   0  0  0  0  0  0  0  0  0  0  0  0
   -1.8531   -2.5902   -3.5791 H   0  0  0  0  0  0  0  0  0  0  0  0
   -1.0735   -1.7018   -4.9364 H   0  0  0  0  0  0  0  0  0  0  0  0
   -2.9316    2.6828   -1.6581 C   0  0  0  0  0  0  0  0  0  0  0  0
   -3.3084    2.5247   -0.6273 H   0  0  0  0  0  0  0  0  0  0  0  0
   -3.7914    2.9596   -2.2943 H   0  0  0  0  0  0  0  0  0  0  0  0
   -2.2307    3.5396   -1.6319 H   0  0  0  0  0  0  0  0  0  0  0  0
  1  5  1  0  0  0  0
  1  2  1  0  0  0  0
  1  4  1  0  0  0  0
  3  1  1  0  0  0  0
  6  1  1  0  0  0  0
  8 10  1  0  0  0  0
  8  7  1  0  0  0  0
  9 16  1  0  0  0  0
 10  9  2  0  0  0  0
 11 13  2  0  0  0  0
 11 10  1  0  0  0  0
 12 11  1  0  0  0  0
 13 15  1  0  0  0  0
 14 13  1  0  0  0  0
 15 16  2  0  0  0  0
 15  1  1  0  0  0  0
 16 17  1  0  0  0  0
 18 22  1  1  0  0  0
 18 19  1  0  0  0  0
 18  8  1  0  0  0  0
 19 21  2  0  0  0  0
 20 19  1  0  0  0  0
 21  7  1  0  0  0  0
 21 26  1  0  0  0  0
 22 24  1  0  0  0  0
 23 22  1  0  0  0  0
 25 22  1  0  0  0  0
 26 29  1  0  0  0  0
 26 27  1  0  0  0  0
 28 26  1  0  0  0  0
M  END
