1,13
 OpenBabel05122313053D

 34 36  0  0  0  0  0  0  0  0999 V2000
   -1.4999    1.9888    0.8972 N   0  0  0  0  0  2  0  0  0  0  0  0
    0.0960    2.9957   -1.4402 N   0  0  0  0  0  0  0  0  0  0  0  0
    1.8217    1.7614   -1.8317 N   0  0  0  0  0  0  0  0  0  0  0  0
   -1.9337    1.7952    2.1659 C   0  0  0  0  0  3  0  0  0  0  0  0
   -1.8084    0.7768    2.5623 H   0  0  0  0  0  0  0  0  0  0  0  0
   -2.5142    2.8070    2.9367 C   0  0  0  0  0  0  0  0  0  0  0  0
   -2.8519    2.5821    3.9581 H   0  0  0  0  0  0  0  0  0  0  0  0
   -2.6478    4.0861    2.3834 C   0  0  0  0  0  0  0  0  0  0  0  0
   -3.0915    4.9113    2.9596 H   0  0  0  0  0  0  0  0  0  0  0  0
   -2.2019    4.2904    1.0715 C   0  0  0  0  0  0  0  0  0  0  0  0
   -2.2913    5.2773    0.5948 H   0  0  0  0  0  0  0  0  0  0  0  0
   -1.6436    3.2224    0.3505 C   0  0  0  0  0  0  0  0  0  0  0  0
    0.5809    1.7229   -1.2454 C   0  0  0  0  0  2  0  0  0  0  0  0
    2.1027    3.0186   -2.3545 C   0  0  0  0  0  0  0  0  0  0  0  0
    3.0489    3.2429   -2.8560 H   0  0  0  0  0  0  0  0  0  0  0  0
    1.0098    3.8033   -2.1096 C   0  0  0  0  0  0  0  0  0  0  0  0
    0.8035    4.8474   -2.3635 H   0  0  0  0  0  0  0  0  0  0  0  0
    2.7492    0.6399   -1.9427 C   0  0  0  0  0  0  0  0  0  0  0  0
    3.2138    0.6973   -2.9490 H   0  0  0  0  0  0  0  0  0  0  0  0
    2.1448   -0.2858   -1.9242 H   0  0  0  0  0  0  0  0  0  0  0  0
    3.8276    0.5831   -0.8795 C   0  0  0  0  0  0  0  0  0  0  0  0
    4.0276    1.6071    0.0616 C   0  0  0  0  0  0  0  0  0  0  0  0
    3.3734    2.4918    0.0610 H   0  0  0  0  0  0  0  0  0  0  0  0
    5.0596    1.5079    1.0095 C   0  0  0  0  0  0  0  0  0  0  0  0
    5.2078    2.3188    1.7384 H   0  0  0  0  0  0  0  0  0  0  0  0
    5.8957    0.3829    1.0295 C   0  0  0  0  0  0  0  0  0  0  0  0
    6.7052    0.3074    1.7707 H   0  0  0  0  0  0  0  0  0  0  0  0
    5.6954   -0.6481    0.0957 C   0  0  0  0  0  0  0  0  0  0  0  0
    6.3422   -1.5381    0.1066 H   0  0  0  0  0  0  0  0  0  0  0  0
    4.6702   -0.5475   -0.8527 C   0  0  0  0  0  0  0  0  0  0  0  0
    4.5168   -1.3588   -1.5818 H   0  0  0  0  0  0  0  0  0  0  0  0
   -1.2587    3.4132   -1.0971 C   0  0  0  0  0  0  0  0  0  0  0  0
   -1.9797    2.8511   -1.7281 H   0  0  0  0  0  0  0  0  0  0  0  0
   -1.3594    4.4799   -1.3646 H   0  0  0  0  0  0  0  0  0  0  0  0
  1  4  1  0  0  0  0
  2 13  1  0  0  0  0
  2 32  1  0  0  0  0
  3 13  1  0  0  0  0
  4  5  1  0  0  0  0
  4  6  1  0  0  0  0
  6  7  1  0  0  0  0
  8  6  2  0  0  0  0
  8  9  1  0  0  0  0
 10  8  1  0  0  0  0
 11 10  1  0  0  0  0
 12  1  1  0  0  0  0
 12 10  2  0  0  0  0
 14 16  2  0  0  0  0
 14  3  1  0  0  0  0
 15 14  1  0  0  0  0
 16  2  1  0  0  0  0
 17 16  1  0  0  0  0
 18 20  1  0  0  0  0
 18  3  1  0  0  0  0
 18 21  1  0  0  0  0
 19 18  1  0  0  0  0
 21 30  2  0  0  0  0
 21 22  1  0  0  0  0
 22 24  2  0  0  0  0
 23 22  1  0  0  0  0
 24 26  1  0  0  0  0
 24 25  1  0  0  0  0
 26 27  1  0  0  0  0
 28 29  1  0  0  0  0
 28 26  2  0  0  0  0
 30 28  1  0  0  0  0
 31 30  1  0  0  0  0
 32 12  1  0  0  0  0
 33 32  1  0  0  0  0
 34 32  1  0  0  0  0
M  END
