1,11
 OpenBabel05122313053D

 23 24  0  0  0  0  0  0  0  0999 V2000
   -1.9500    0.5673   -0.4690 N   0  0  0  0  0  2  0  0  0  0  0  0
   -2.9360   -0.3149   -0.2003 C   0  0  0  0  0  3  0  0  0  0  0  0
   -2.6423   -1.2389    0.3136 H   0  0  0  0  0  0  0  0  0  0  0  0
   -4.2651   -0.0836   -0.5566 C   0  0  0  0  0  0  0  0  0  0  0  0
   -4.5878    1.1112   -1.2314 C   0  0  0  0  0  0  0  0  0  0  0  0
   -5.6238    1.3137   -1.5391 H   0  0  0  0  0  0  0  0  0  0  0  0
   -3.5712    2.0214   -1.5052 C   0  0  0  0  0  0  0  0  0  0  0  0
   -3.7932    2.9594   -2.0307 H   0  0  0  0  0  0  0  0  0  0  0  0
   -2.2413    1.7523   -1.1154 C   0  0  0  0  0  0  0  0  0  0  0  0
   -1.0930    2.6227   -1.3130 C   0  0  0  0  0  0  0  0  0  0  0  0
    0.1458    2.1094   -0.8121 C   0  0  0  0  0  3  0  0  0  0  0  0
    1.2901    2.9244   -0.9464 C   0  0  0  0  0  0  0  0  0  0  0  0
    2.2620    2.5751   -0.5663 H   0  0  0  0  0  0  0  0  0  0  0  0
    1.2143    4.1814   -1.5624 C   0  0  0  0  0  0  0  0  0  0  0  0
    2.1235    4.7961   -1.6571 H   0  0  0  0  0  0  0  0  0  0  0  0
   -0.0103    4.6688   -2.0620 C   0  0  0  0  0  0  0  0  0  0  0  0
   -0.0594    5.6551   -2.5464 H   0  0  0  0  0  0  0  0  0  0  0  0
   -1.1622    3.8903   -1.9354 C   0  0  0  0  0  0  0  0  0  0  0  0
   -2.1198    4.2710   -2.3232 H   0  0  0  0  0  0  0  0  0  0  0  0
   -5.3389   -1.0757   -0.1915 C   0  0  0  0  0  0  0  0  0  0  0  0
   -6.1015   -0.6195    0.8346 F   0  0  0  0  0  0  0  0  0  0  0  0
   -6.1749   -1.3011   -1.2319 F   0  0  0  0  0  0  0  0  0  0  0  0
   -4.8203   -2.2660    0.1911 F   0  0  0  0  0  0  0  0  0  0  0  0
  1  2  1  0  0  0  0
  2  3  1  0  0  0  0
  4  2  1  0  0  0  0
  4 20  1  0  0  0  0
  5  4  2  0  0  0  0
  6  5  1  0  0  0  0
  7  5  1  0  0  0  0
  7  9  2  0  0  0  0
  8  7  1  0  0  0  0
  9  1  1  0  0  0  0
 10  9  1  0  0  0  0
 10 11  1  0  0  0  0
 12 11  2  0  0  0  0
 12 13  1  0  0  0  0
 14 12  1  0  0  0  0
 15 14  1  0  0  0  0
 16 18  1  0  0  0  0
 16 14  2  0  0  0  0
 17 16  1  0  0  0  0
 18 10  2  0  0  0  0
 19 18  1  0  0  0  0
 20 23  1  0  0  0  0
 20 21  1  0  0  0  0
 22 20  1  0  0  0  0
M  END
