2,13
 OpenBabel05122313053D

 50 52  0  0  1  0  0  0  0  0999 V2000
   -3.5999    0.8957   -0.3991 Si  0  0  0  0  0  0  0  0  0  0  0  0
    2.3979   -0.2832   -0.1304 N   0  0  0  0  0  2  0  0  0  0  0  0
    1.0053    1.7113   -0.1092 C   0  0  0  0  0  0  0  0  0  0  0  0
    2.3030    1.0849   -0.1434 C   0  0  0  0  0  0  0  0  0  0  0  0
    3.5832   -0.8785   -0.2379 C   0  0  0  0  0  0  0  0  0  0  0  0
    4.7957   -0.1536   -0.3306 C   0  0  0  0  0  0  0  0  0  0  0  0
    4.7469    1.2302   -0.2930 C   0  0  0  0  0  0  0  0  0  0  0  0
    3.4921    1.8965   -0.1997 C   0  0  0  0  0  0  0  0  0  0  0  0
    3.3757    3.3149   -0.1658 C   0  0  0  0  0  3  0  0  0  0  0  0
    2.1232    3.9052   -0.0960 C   0  0  0  0  0  0  0  0  0  0  0  0
    0.9521    3.1075   -0.0818 C   0  0  0  0  0  0  0  0  0  0  0  0
   -0.2094    0.8806   -0.1044 C   0  0  0  0  0  0  0  0  0  0  0  0
   -0.4590   -0.2039   -1.0682 C   0  0  1  0  0  3  0  0  0  0  0  0
   -1.5950   -0.9107   -0.6535 C   0  0  1  0  0  3  0  0  0  0  0  0
   -2.1915   -0.1958    0.5153 C   0  0  1  0  0  0  0  0  0  0  0  0
   -1.1996    0.8632    0.8714 C   0  0  0  0  0  0  0  0  0  0  0  0
    0.2165   -0.3689   -2.4040 C   0  0  0  0  0  0  0  0  0  0  0  0
   -2.1873   -2.0710   -1.3887 C   0  0  0  0  0  0  0  0  0  0  0  0
   -2.8491   -0.9934    1.6441 C   0  0  0  0  0  0  0  0  0  0  0  0
   -1.1807    1.5758    2.1844 C   0  0  0  0  0  0  0  0  0  0  0  0
   -4.2015    2.2803    0.7420 C   0  0  0  0  0  0  0  0  0  0  0  0
   -5.0838   -0.2235   -0.7559 C   0  0  0  0  0  0  0  0  0  0  0  0
   -2.9515    1.6348   -2.0103 C   0  0  0  0  0  0  0  0  0  0  0  0
    3.5596   -1.9823   -0.2636 H   0  0  0  0  0  0  0  0  0  0  0  0
    5.7480   -0.6953   -0.4173 H   0  0  0  0  0  0  0  0  0  0  0  0
    5.6684    1.8315   -0.3410 H   0  0  0  0  0  0  0  0  0  0  0  0
    4.2904    3.9258   -0.2031 H   0  0  0  0  0  0  0  0  0  0  0  0
    2.0301    5.0013   -0.0733 H   0  0  0  0  0  0  0  0  0  0  0  0
   -0.0359    3.5921   -0.0719 H   0  0  0  0  0  0  0  0  0  0  0  0
    0.6140   -1.3976   -2.5292 H   0  0  0  0  0  0  0  0  0  0  0  0
    1.0561    0.3407   -2.5272 H   0  0  0  0  0  0  0  0  0  0  0  0
   -0.5067   -0.1815   -3.2262 H   0  0  0  0  0  0  0  0  0  0  0  0
   -2.6220   -1.7697   -2.3683 H   0  0  0  0  0  0  0  0  0  0  0  0
   -1.3910   -2.8164   -1.5990 H   0  0  0  0  0  0  0  0  0  0  0  0
   -2.9795   -2.5747   -0.8035 H   0  0  0  0  0  0  0  0  0  0  0  0
   -3.5580   -1.7446    1.2455 H   0  0  0  0  0  0  0  0  0  0  0  0
   -3.4118   -0.3404    2.3408 H   0  0  0  0  0  0  0  0  0  0  0  0
   -2.0583   -1.5159    2.2202 H   0  0  0  0  0  0  0  0  0  0  0  0
   -2.1931    1.8353    2.5461 H   0  0  0  0  0  0  0  0  0  0  0  0
   -0.5698    2.4974    2.1532 H   0  0  0  0  0  0  0  0  0  0  0  0
   -0.7205    0.8911    2.9313 H   0  0  0  0  0  0  0  0  0  0  0  0
   -4.5074    1.9037    1.7388 H   0  0  0  0  0  0  0  0  0  0  0  0
   -3.4323    3.0642    0.8861 H   0  0  0  0  0  0  0  0  0  0  0  0
   -5.0922    2.7557    0.2803 H   0  0  0  0  0  0  0  0  0  0  0  0
   -5.5112   -0.6439    0.1764 H   0  0  0  0  0  0  0  0  0  0  0  0
   -5.8758    0.3827   -1.2435 H   0  0  0  0  0  0  0  0  0  0  0  0
   -4.8343   -1.0623   -1.4333 H   0  0  0  0  0  0  0  0  0  0  0  0
   -2.8138    0.8606   -2.7907 H   0  0  0  0  0  0  0  0  0  0  0  0
   -3.6849    2.3757   -2.3908 H   0  0  0  0  0  0  0  0  0  0  0  0
   -1.9840    2.1533   -1.8619 H   0  0  0  0  0  0  0  0  0  0  0  0
  1 15  1  0  0  0  0
  1 21  1  0  0  0  0
  3 12  1  0  0  0  0
  3 11  1  0  0  0  0
  4  2  1  0  0  0  0
  4  3  2  0  0  0  0
  5  2  1  0  0  0  0
  6  7  1  0  0  0  0
  6  5  2  0  0  0  0
  7  8  2  0  0  0  0
  8  9  1  0  0  0  0
  8  4  1  0  0  0  0
  9 10  1  0  0  0  0
 10 11  2  0  0  0  0
 10 28  1  0  0  0  0
 11 29  1  0  0  0  0
 12 16  2  0  0  0  0
 13 17  1  6  0  0  0
 13 14  1  0  0  0  0
 13 12  1  0  0  0  0
 14 18  1  6  0  0  0
 14 15  1  0  0  0  0
 15 16  1  0  0  0  0
 15 19  1  1  0  0  0
 16 20  1  0  0  0  0
 18 35  1  0  0  0  0
 19 38  1  0  0  0  0
 19 37  1  0  0  0  0
 20 39  1  0  0  0  0
 20 41  1  0  0  0  0
 21 43  1  0  0  0  0
 21 42  1  0  0  0  0
 22  1  1  0  0  0  0
 22 45  1  0  0  0  0
 23 50  1  0  0  0  0
 23  1  1  0  0  0  0
 24  5  1  0  0  0  0
 25  6  1  0  0  0  0
 26  7  1  0  0  0  0
 27  9  1  0  0  0  0
 30 17  1  0  0  0  0
 31 17  1  0  0  0  0
 32 17  1  0  0  0  0
 33 18  1  0  0  0  0
 34 18  1  0  0  0  0
 36 19  1  0  0  0  0
 40 20  1  0  0  0  0
 44 21  1  0  0  0  0
 46 22  1  0  0  0  0
 47 22  1  0  0  0  0
 48 23  1  0  0  0  0
 49 23  1  0  0  0  0
M  END
