1,43
 OpenBabel05122313053D

 43 43  0  0  1  0  0  0  0  0999 V2000
   -1.5826    0.3785   -0.4696 C   0  0  0  0  0  3  0  0  0  0  0  0
   -1.5569    1.7298   -0.8949 C   0  0  0  0  0  0  0  0  0  0  0  0
   -0.4155    2.2685   -1.7460 C   0  0  0  0  0  0  0  0  0  0  0  0
    0.5172    1.8199   -1.3467 H   0  0  0  0  0  0  0  0  0  0  0  0
   -0.5537    1.7511   -3.1902 C   0  0  0  0  0  0  0  0  0  0  0  0
   -0.5770    0.6414   -3.2053 H   0  0  0  0  0  0  0  0  0  0  0  0
    0.2993    2.0867   -3.8162 H   0  0  0  0  0  0  0  0  0  0  0  0
   -1.4906    2.1207   -3.6571 H   0  0  0  0  0  0  0  0  0  0  0  0
   -0.2477    3.7893   -1.7068 C   0  0  0  0  0  0  0  0  0  0  0  0
   -1.0879    4.3125   -2.2096 H   0  0  0  0  0  0  0  0  0  0  0  0
    0.6813    4.0848   -2.2352 H   0  0  0  0  0  0  0  0  0  0  0  0
   -0.1804    4.1630   -0.6661 H   0  0  0  0  0  0  0  0  0  0  0  0
   -2.6802    2.5283   -0.5965 C   0  0  0  0  0  0  0  0  0  0  0  0
   -2.6820    3.5895   -0.8875 H   0  0  0  0  0  0  0  0  0  0  0  0
   -3.8043    2.0076    0.0565 C   0  0  0  0  0  0  0  0  0  0  0  0
   -4.6466    2.6778    0.2836 H   0  0  0  0  0  0  0  0  0  0  0  0
   -3.8927    0.6386    0.3762 C   0  0  0  0  0  0  0  0  0  0  0  0
   -5.1790    0.0506    0.9531 C   0  0  0  0  0  0  0  0  0  0  0  0
   -4.9120   -0.8779    1.5013 H   0  0  0  0  0  0  0  0  0  0  0  0
   -5.8701    0.9734    1.9673 C   0  0  0  0  0  0  0  0  0  0  0  0
   -5.1727    1.2901    2.7685 H   0  0  0  0  0  0  0  0  0  0  0  0
   -6.7288    0.4554    2.4409 H   0  0  0  0  0  0  0  0  0  0  0  0
   -6.2695    1.8896    1.4862 H   0  0  0  0  0  0  0  0  0  0  0  0
   -6.1444   -0.3412   -0.1818 C   0  0  0  0  0  0  0  0  0  0  0  0
   -6.4438    0.5568   -0.7606 H   0  0  0  0  0  0  0  0  0  0  0  0
   -7.0645   -0.8170    0.2167 H   0  0  0  0  0  0  0  0  0  0  0  0
   -5.6717   -1.0482   -0.8935 H   0  0  0  0  0  0  0  0  0  0  0  0
   -2.7730   -0.1713    0.0724 C   0  0  0  0  0  0  0  0  0  0  0  0
   -2.7669   -1.6808    0.2354 C   0  0  2  0  0  0  0  0  0  0  0  0
   -3.7992   -2.0940    0.1512 H   0  0  0  0  0  0  0  0  0  0  0  0
   -2.1881   -2.0957    1.5935 C   0  0  0  0  0  0  0  0  0  0  0  0
   -1.1137   -1.8224    1.6520 H   0  0  0  0  0  0  0  0  0  0  0  0
   -2.2967   -3.1778    1.8005 H   0  0  0  0  0  0  0  0  0  0  0  0
   -2.7244   -1.5440    2.3898 H   0  0  0  0  0  0  0  0  0  0  0  0
   -1.6858   -3.6725   -0.7903 C   0  0  0  0  0  0  0  0  0  0  0  0
   -2.6345   -4.2548   -0.7197 H   0  0  0  0  0  0  0  0  0  0  0  0
   -1.0676   -3.8557    0.1043 H   0  0  0  0  0  0  0  0  0  0  0  0
   -1.0988   -4.0034   -1.6654 H   0  0  0  0  0  0  0  0  0  0  0  0
   -2.6937   -2.0133   -2.2036 C   0  0  0  0  0  0  0  0  0  0  0  0
   -2.0437   -2.3292   -3.0408 H   0  0  0  0  0  0  0  0  0  0  0  0
   -2.9366   -0.9419   -2.3173 H   0  0  0  0  0  0  0  0  0  0  0  0
   -3.6369   -2.6080   -2.2314 H   0  0  0  0  0  0  0  0  0  0  0  0
   -1.9751   -2.2350   -0.9316 N   0  0  0  0  0  0  0  0  0  0  0  0
  1 28  1  0  0  0  0
  2 13  1  0  0  0  0
  2  1  2  0  0  0  0
  3  9  1  0  0  0  0
  3  4  1  0  0  0  0
  3  2  1  0  0  0  0
  5  3  1  0  0  0  0
  6  5  1  0  0  0  0
  7  5  1  0  0  0  0
  8  5  1  0  0  0  0
  9 12  1  0  0  0  0
 10  9  1  0  0  0  0
 11  9  1  0  0  0  0
 13 15  2  0  0  0  0
 14 13  1  0  0  0  0
 15 16  1  0  0  0  0
 15 17  1  0  0  0  0
 17 18  1  0  0  0  0
 18 19  1  0  0  0  0
 18 20  1  0  0  0  0
 20 22  1  0  0  0  0
 20 21  1  0  0  0  0
 23 20  1  0  0  0  0
 24 26  1  0  0  0  0
 24 18  1  0  0  0  0
 25 24  1  0  0  0  0
 27 24  1  0  0  0  0
 28 29  1  0  0  0  0
 28 17  2  0  0  0  0
 29 30  1  6  0  0  0
 29 31  1  0  0  0  0
 31 32  1  0  0  0  0
 31 33  1  0  0  0  0
 31 34  1  0  0  0  0
 35 36  1  0  0  0  0
 35 37  1  0  0  0  0
 38 35  1  0  0  0  0
 39 43  1  0  0  0  0
 40 39  1  0  0  0  0
 41 39  1  0  0  0  0
 42 39  1  0  0  0  0
 43 35  1  0  0  0  0
 43 29  1  0  0  0  0
M  END
