2,23
 OpenBabel05122313053D

 37 39  0  0  0  0  0  0  0  0999 V2000
    2.1333    1.8334    0.5829 N   0  0  0  0  0  0  0  0  0  0  0  0
    0.7334    1.3583   -1.1904 N   0  0  0  0  0  2  0  0  0  0  0  0
    0.2585   -1.0103   -2.5756 N   0  0  0  0  0  0  0  0  0  0  0  0
    1.3096   -2.3865   -1.2712 N   0  0  0  0  0  0  0  0  0  0  0  0
    0.4129    2.4342   -3.2511 O   0  0  0  0  0  0  0  0  0  0  0  0
    2.9380    2.6520    1.2739 C   0  0  0  0  0  0  0  0  0  0  0  0
    3.3615    2.2390    2.2083 H   0  0  0  0  0  0  0  0  0  0  0  0
    3.2505    3.9583    0.8739 C   0  0  0  0  0  0  0  0  0  0  0  0
    3.9149    4.5893    1.4817 H   0  0  0  0  0  0  0  0  0  0  0  0
    2.6756    4.4209   -0.3220 C   0  0  0  0  0  0  0  0  0  0  0  0
    2.8813    5.4415   -0.6815 H   0  0  0  0  0  0  0  0  0  0  0  0
    1.8264    3.5901   -1.0563 C   0  0  0  0  0  0  0  0  0  0  0  0
    1.3516    3.9042   -1.9928 H   0  0  0  0  0  0  0  0  0  0  0  0
    1.5675    2.2802   -0.5678 C   0  0  0  0  0  0  0  0  0  0  0  0
    0.2990    1.4782   -2.4749 C   0  0  0  0  0  0  0  0  0  0  0  0
   -0.4326    0.2101   -2.9784 C   0  0  0  0  0  0  0  0  0  0  0  0
   -1.4615    0.2096   -2.5608 H   0  0  0  0  0  0  0  0  0  0  0  0
   -0.4764    0.2581   -4.0802 H   0  0  0  0  0  0  0  0  0  0  0  0
    0.8292   -1.9709   -3.3968 C   0  0  0  0  0  0  0  0  0  0  0  0
    0.7088   -1.9597   -4.4840 H   0  0  0  0  0  0  0  0  0  0  0  0
    1.4981   -2.8415   -2.5735 C   0  0  0  0  0  0  0  0  0  0  0  0
    2.0951   -3.7294   -2.7999 H   0  0  0  0  0  0  0  0  0  0  0  0
    0.5566   -1.2425   -1.2619 C   0  0  0  0  0  2  0  0  0  0  0  0
    1.9838   -2.9477   -0.0990 C   0  0  0  0  0  0  0  0  0  0  0  0
    1.9678   -4.0520   -0.1877 H   0  0  0  0  0  0  0  0  0  0  0  0
    1.3705   -2.6668    0.7783 H   0  0  0  0  0  0  0  0  0  0  0  0
    3.4039   -2.4431    0.0590 C   0  0  0  0  0  0  0  0  0  0  0  0
    4.4940   -3.3304    0.0060 C   0  0  0  0  0  0  0  0  0  0  0  0
    4.3152   -4.4073   -0.1478 H   0  0  0  0  0  0  0  0  0  0  0  0
    5.8069   -2.8529    0.1512 C   0  0  0  0  0  0  0  0  0  0  0  0
    6.6532   -3.5555    0.1094 H   0  0  0  0  0  0  0  0  0  0  0  0
    6.0364   -1.4821    0.3435 C   0  0  0  0  0  0  0  0  0  0  0  0
    7.0650   -1.1058    0.4527 H   0  0  0  0  0  0  0  0  0  0  0  0
    4.9495   -0.5926    0.3942 C   0  0  0  0  0  0  0  0  0  0  0  0
    5.1153    0.4857    0.5422 H   0  0  0  0  0  0  0  0  0  0  0  0
    3.6382   -1.0672    0.2558 C   0  0  0  0  0  0  0  0  0  0  0  0
    2.7998   -0.3487    0.2988 H   0  0  0  0  0  0  0  0  0  0  0  0
  1  6  1  0  0  0  0
  2 14  1  0  0  0  0
  3 23  1  0  0  0  0
  4 23  1  0  0  0  0
  4 24  1  0  0  0  0
  5 15  2  0  0  0  0
  6  7  1  0  0  0  0
  8  6  2  0  0  0  0
  8  9  1  0  0  0  0
 10  8  1  0  0  0  0
 11 10  1  0  0  0  0
 12 14  1  0  0  0  0
 12 10  2  0  0  0  0
 13 12  1  0  0  0  0
 14  1  2  0  0  0  0
 15  2  1  0  0  0  0
 16  3  1  0  0  0  0
 16 17  1  0  0  0  0
 16 15  1  0  0  0  0
 18 16  1  0  0  0  0
 19  3  1  0  0  0  0
 19 21  2  0  0  0  0
 20 19  1  0  0  0  0
 21  4  1  0  0  0  0
 22 21  1  0  0  0  0
 24 27  1  0  0  0  0
 24 26  1  0  0  0  0
 25 24  1  0  0  0  0
 27 36  1  0  0  0  0
 28 27  2  0  0  0  0
 28 30  1  0  0  0  0
 29 28  1  0  0  0  0
 30 32  2  0  0  0  0
 31 30  1  0  0  0  0
 32 34  1  0  0  0  0
 32 33  1  0  0  0  0
 34 35  1  0  0  0  0
 36 37  1  0  0  0  0
 36 34  2  0  0  0  0
M  END
