2
 OpenBabel05122313053D

 47 48  0  0  1  0  0  0  0  0999 V2000
    1.4786    0.3317    1.9930 Si  0  0  0  0  0  0  0  0  0  0  0  0
    1.9103    0.1817    0.2742 N   0  0  0  0  0  2  0  0  0  0  0  0
   -2.1350    0.7863    0.1890 C   0  0  0  0  0  0  0  0  0  0  0  0
   -1.0742    1.2771    1.0017 C   0  0  0  0  0  0  0  0  0  0  0  0
   -0.7671    2.3331    1.0300 H   0  0  0  0  0  0  0  0  0  0  0  0
   -0.3751    0.2033    1.6580 C   0  0  1  0  0  3  0  0  0  0  0  0
   -1.1017   -1.0045    1.3042 C   0  0  0  0  0  0  0  0  0  0  0  0
   -0.9052   -2.3782    1.6381 C   0  0  0  0  0  0  0  0  0  0  0  0
   -0.0931   -2.6694    2.3183 H   0  0  0  0  0  0  0  0  0  0  0  0
   -1.7723   -3.3294    1.1211 C   0  0  0  0  0  0  0  0  0  0  0  0
   -1.6370   -4.3878    1.3895 H   0  0  0  0  0  0  0  0  0  0  0  0
   -2.8391   -2.9682    0.2459 C   0  0  0  0  0  0  0  0  0  0  0  0
   -3.5023   -3.7552   -0.1427 H   0  0  0  0  0  0  0  0  0  0  0  0
   -3.0494   -1.6483   -0.1224 C   0  0  0  0  0  0  0  0  0  0  0  0
   -3.8711   -1.3736   -0.8003 H   0  0  0  0  0  0  0  0  0  0  0  0
   -2.1810   -0.6448    0.3964 C   0  0  0  0  0  0  0  0  0  0  0  0
   -3.1223    1.5913   -0.6073 C   0  0  0  0  0  0  0  0  0  0  0  0
   -3.3388    1.0701   -1.5639 H   0  0  0  0  0  0  0  0  0  0  0  0
   -2.6601    2.5613   -0.8862 H   0  0  0  0  0  0  0  0  0  0  0  0
   -4.4458    1.8414    0.1465 C   0  0  0  0  0  0  0  0  0  0  0  0
   -5.1464    2.3560   -0.5457 H   0  0  0  0  0  0  0  0  0  0  0  0
   -4.9164    0.8636    0.3884 H   0  0  0  0  0  0  0  0  0  0  0  0
   -4.2816    2.6635    1.4244 C   0  0  0  0  0  0  0  0  0  0  0  0
   -5.2571    2.8378    1.9210 H   0  0  0  0  0  0  0  0  0  0  0  0
   -3.8330    3.6563    1.2091 H   0  0  0  0  0  0  0  0  0  0  0  0
   -3.6211    2.1525    2.1548 H   0  0  0  0  0  0  0  0  0  0  0  0
    2.1136   -1.0611    3.1006 C   0  0  0  0  0  0  0  0  0  0  0  0
    2.0896   -2.0370    2.5771 H   0  0  0  0  0  0  0  0  0  0  0  0
    1.4832   -1.1347    4.0110 H   0  0  0  0  0  0  0  0  0  0  0  0
    3.1571   -0.8765    3.4248 H   0  0  0  0  0  0  0  0  0  0  0  0
    1.9102    1.9986    2.7653 C   0  0  0  0  0  0  0  0  0  0  0  0
    3.0061    2.1072    2.8978 H   0  0  0  0  0  0  0  0  0  0  0  0
    1.4382    2.0874    3.7659 H   0  0  0  0  0  0  0  0  0  0  0  0
    1.5594    2.8421    2.1380 H   0  0  0  0  0  0  0  0  0  0  0  0
    3.2584    0.2974   -0.3381 C   0  0  0  0  0  0  0  0  0  0  0  0
    3.2478   -0.3609   -1.7308 C   0  0  0  0  0  0  0  0  0  0  0  0
    2.9993   -1.4381   -1.6637 H   0  0  0  0  0  0  0  0  0  0  0  0
    4.2365   -0.2595   -2.2214 H   0  0  0  0  0  0  0  0  0  0  0  0
    2.5090    0.1300   -2.4010 H   0  0  0  0  0  0  0  0  0  0  0  0
    3.6185    1.7901   -0.4865 C   0  0  0  0  0  0  0  0  0  0  0  0
    3.6445    2.2920    0.5007 H   0  0  0  0  0  0  0  0  0  0  0  0
    2.8666    2.3064   -1.1162 H   0  0  0  0  0  0  0  0  0  0  0  0
    4.6145    1.9124   -0.9595 H   0  0  0  0  0  0  0  0  0  0  0  0
    4.3090   -0.4070    0.5389 C   0  0  0  0  0  0  0  0  0  0  0  0
    4.0456   -1.4725    0.6912 H   0  0  0  0  0  0  0  0  0  0  0  0
    4.3932    0.0776    1.5335 H   0  0  0  0  0  0  0  0  0  0  0  0
    5.3096   -0.3609    0.0633 H   0  0  0  0  0  0  0  0  0  0  0  0
  1 31  1  0  0  0  0
  1 27  1  0  0  0  0
  2  1  1  0  0  0  0
  3 16  1  0  0  0  0
  3  4  2  0  0  0  0
  4  5  1  0  0  0  0
  4  6  1  0  0  0  0
  6  1  1  6  0  0  0
  7  8  1  0  0  0  0
  7  6  1  0  0  0  0
  8  9  1  0  0  0  0
 10 11  1  0  0  0  0
 10  8  2  0  0  0  0
 12 10  1  0  0  0  0
 13 12  1  0  0  0  0
 14 12  2  0  0  0  0
 14 16  1  0  0  0  0
 15 14  1  0  0  0  0
 16  7  2  0  0  0  0
 17 20  1  0  0  0  0
 17  3  1  0  0  0  0
 18 17  1  0  0  0  0
 19 17  1  0  0  0  0
 20 22  1  0  0  0  0
 20 23  1  0  0  0  0
 21 20  1  0  0  0  0
 23 24  1  0  0  0  0
 23 26  1  0  0  0  0
 25 23  1  0  0  0  0
 27 30  1  0  0  0  0
 27 29  1  0  0  0  0
 28 27  1  0  0  0  0
 31 32  1  0  0  0  0
 31 33  1  0  0  0  0
 34 31  1  0  0  0  0
 35  2  1  0  0  0  0
 35 44  1  0  0  0  0
 36 37  1  0  0  0  0
 36 35  1  0  0  0  0
 38 36  1  0  0  0  0
 39 36  1  0  0  0  0
 40 35  1  0  0  0  0
 40 41  1  0  0  0  0
 42 40  1  0  0  0  0
 43 40  1  0  0  0  0
 44 45  1  0  0  0  0
 44 46  1  0  0  0  0
 47 44  1  0  0  0  0
M  END
