4,5
 OpenBabel05122313053D

 27 27  0  0  1  0  0  0  0  0999 V2000
   -1.4427    0.1325   -0.9906 S   0  0  0  0  0  0  0  0  0  0  0  0
   -1.0694    1.5418   -1.2817 O   0  0  0  0  0  0  0  0  0  0  0  0
   -1.3019   -0.8778   -2.0764 O   0  0  0  0  0  0  0  0  0  0  0  0
   -0.7052   -0.3156    0.4448 N   0  0  0  0  0  2  0  0  0  0  0  0
    0.3969   -2.3071    0.4779 C   0  0  0  0  0  3  0  0  0  0  0  0
   -3.1872    0.1256   -0.5111 C   0  0  0  0  0  0  0  0  0  0  0  0
   -3.6127    0.8751    0.5982 C   0  0  0  0  0  0  0  0  0  0  0  0
   -4.9708    0.8888    0.9326 C   0  0  0  0  0  0  0  0  0  0  0  0
   -5.4633   -0.5705   -0.9372 C   0  0  0  0  0  0  0  0  0  0  0  0
   -0.9823   -1.7500    0.8018 C   0  0  1  0  0  0  0  0  0  0  0  0
   -4.1033   -0.5983   -1.2827 C   0  0  0  0  0  0  0  0  0  0  0  0
   -5.9200    0.1693    0.1710 C   0  0  0  0  0  0  0  0  0  0  0  0
   -1.4107   -1.8475    2.2595 C   0  0  0  0  0  0  0  0  0  0  0  0
   -7.3805    0.2023    0.5438 C   0  0  0  0  0  0  0  0  0  0  0  0
    0.8916   -2.8753    1.2942 H   0  0  0  0  0  0  0  0  0  0  0  0
    0.4361   -2.8444   -0.4911 H   0  0  0  0  0  0  0  0  0  0  0  0
   -1.7799   -2.1817    0.1556 H   0  0  0  0  0  0  0  0  0  0  0  0
   -2.8747    1.4268    1.1984 H   0  0  0  0  0  0  0  0  0  0  0  0
   -5.3084    1.4701    1.8057 H   0  0  0  0  0  0  0  0  0  0  0  0
   -6.1876   -1.1400   -1.5409 H   0  0  0  0  0  0  0  0  0  0  0  0
   -3.7315   -1.1765   -2.1412 H   0  0  0  0  0  0  0  0  0  0  0  0
   -1.5587   -2.9071    2.5541 H   0  0  0  0  0  0  0  0  0  0  0  0
   -2.3592   -1.2988    2.4273 H   0  0  0  0  0  0  0  0  0  0  0  0
   -0.6351   -1.4048    2.9184 H   0  0  0  0  0  0  0  0  0  0  0  0
   -7.9855   -0.4523   -0.1126 H   0  0  0  0  0  0  0  0  0  0  0  0
   -7.7907    1.2313    0.4669 H   0  0  0  0  0  0  0  0  0  0  0  0
   -7.5370   -0.1261    1.5924 H   0  0  0  0  0  0  0  0  0  0  0  0
  1  6  1  0  0  0  0
  1  4  1  0  0  0  0
  2  1  2  0  0  0  0
  3  1  2  0  0  0  0
  4 10  1  0  0  0  0
  5 10  1  0  0  0  0
  5 15  1  0  0  0  0
  6  7  1  0  0  0  0
  7  8  2  0  0  0  0
  7 18  1  0  0  0  0
  8 19  1  0  0  0  0
  9 12  2  0  0  0  0
 10 17  1  6  0  0  0
 10 13  1  0  0  0  0
 11  9  1  0  0  0  0
 11  6  2  0  0  0  0
 12 14  1  0  0  0  0
 12  8  1  0  0  0  0
 13 23  1  0  0  0  0
 13 22  1  0  0  0  0
 13 24  1  0  0  0  0
 14 27  1  0  0  0  0
 16  5  1  0  0  0  0
 20  9  1  0  0  0  0
 21 11  1  0  0  0  0
 25 14  1  0  0  0  0
 26 14  1  0  0  0  0
M  END
