1,23
 OpenBabel05122313053D

 34 36  0  0  0  0  0  0  0  0999 V2000
   -2.2138    0.4182    0.1874 N   0  0  0  0  0  2  0  0  0  0  0  0
   -2.8071   -0.7576    0.1382 C   0  0  0  0  0  0  0  0  0  0  0  0
   -4.2866   -0.9039    0.0378 C   0  0  0  0  0  0  0  0  0  0  0  0
   -4.8578   -1.6371   -1.0242 C   0  0  0  0  0  0  0  0  0  0  0  0
   -4.2013   -2.0950   -1.7793 H   0  0  0  0  0  0  0  0  0  0  0  0
   -6.2505   -1.7616   -1.1308 C   0  0  0  0  0  0  0  0  0  0  0  0
   -6.6854   -2.3238   -1.9710 H   0  0  0  0  0  0  0  0  0  0  0  0
   -7.0860   -1.1706   -0.1703 C   0  0  0  0  0  0  0  0  0  0  0  0
   -8.1788   -1.2713   -0.2525 H   0  0  0  0  0  0  0  0  0  0  0  0
   -6.5234   -0.4496    0.8957 C   0  0  0  0  0  0  0  0  0  0  0  0
   -7.1736    0.0139    1.6529 H   0  0  0  0  0  0  0  0  0  0  0  0
   -5.1337   -0.3104    0.9976 C   0  0  0  0  0  0  0  0  0  0  0  0
   -4.6943    0.2659    1.8242 H   0  0  0  0  0  0  0  0  0  0  0  0
   -1.9274   -1.9200    0.2306 C   0  0  0  0  0  0  0  0  0  0  0  0
   -2.4247   -3.2391    0.3493 C   0  0  0  0  0  3  0  0  0  0  0  0
   -3.5107   -3.4138    0.3417 H   0  0  0  0  0  0  0  0  0  0  0  0
   -1.5428   -4.3138    0.4980 C   0  0  0  0  0  0  0  0  0  0  0  0
   -1.9286   -5.3399    0.5905 H   0  0  0  0  0  0  0  0  0  0  0  0
   -0.1619   -4.0620    0.5444 C   0  0  0  0  0  0  0  0  0  0  0  0
    0.5458   -4.8965    0.6730 H   0  0  0  0  0  0  0  0  0  0  0  0
    0.3349   -2.7513    0.4346 C   0  0  0  0  0  0  0  0  0  0  0  0
    1.4244   -2.6178    0.4815 H   0  0  0  0  0  0  0  0  0  0  0  0
   -0.5186   -1.6427    0.2673 C   0  0  0  0  0  3  0  0  0  0  0  0
   -2.9377    1.6306    0.0346 C   0  0  0  0  0  0  0  0  0  0  0  0
   -3.6568    1.8909   -1.1483 C   0  0  0  0  0  0  0  0  0  0  0  0
   -3.6466    1.1476   -1.9581 H   0  0  0  0  0  0  0  0  0  0  0  0
   -4.3687    3.0896   -1.2844 C   0  0  0  0  0  0  0  0  0  0  0  0
   -4.9264    3.2874   -2.2124 H   0  0  0  0  0  0  0  0  0  0  0  0
   -4.3693    4.0334   -0.2448 C   0  0  0  0  0  0  0  0  0  0  0  0
   -4.9305    4.9737   -0.3527 H   0  0  0  0  0  0  0  0  0  0  0  0
   -3.6376    3.7787    0.9265 C   0  0  0  0  0  0  0  0  0  0  0  0
   -3.6198    4.5213    1.7385 H   0  0  0  0  0  0  0  0  0  0  0  0
   -2.9087    2.5907    1.0641 C   0  0  0  0  0  0  0  0  0  0  0  0
   -2.3120    2.3889    1.9634 H   0  0  0  0  0  0  0  0  0  0  0  0
  2  1  1  0  0  0  0
  2 14  2  0  0  0  0
  3  2  1  0  0  0  0
  3 12  1  0  0  0  0
  4  3  2  0  0  0  0
  5  4  1  0  0  0  0
  6  4  1  0  0  0  0
  6  8  2  0  0  0  0
  7  6  1  0  0  0  0
  8 10  1  0  0  0  0
  9  8  1  0  0  0  0
 10 12  2  0  0  0  0
 10 11  1  0  0  0  0
 12 13  1  0  0  0  0
 14 23  1  0  0  0  0
 14 15  1  0  0  0  0
 15 17  1  0  0  0  0
 16 15  1  0  0  0  0
 17 19  2  0  0  0  0
 17 18  1  0  0  0  0
 19 20  1  0  0  0  0
 21 22  1  0  0  0  0
 21 19  1  0  0  0  0
 23 21  2  0  0  0  0
 24  1  1  0  0  0  0
 24 33  1  0  0  0  0
 25 24  2  0  0  0  0
 26 25  1  0  0  0  0
 27 25  1  0  0  0  0
 27 29  2  0  0  0  0
 28 27  1  0  0  0  0
 29 31  1  0  0  0  0
 30 29  1  0  0  0  0
 31 33  2  0  0  0  0
 31 32  1  0  0  0  0
 33 34  1  0  0  0  0
M  END
