3,40
 OpenBabel05122313053D

 40 43  0  0  0  0  0  0  0  0999 V2000
   -2.5273   -1.8813   -0.7631 O   0  0  0  0  0  0  0  0  0  0  0  0
   -4.1878    0.6523   -1.8367 O   0  0  0  0  0  0  0  0  0  0  0  0
    0.9441    0.4726   -0.1811 C   0  0  0  0  0  2  0  0  0  0  0  0
   -0.1912   -0.3237   -0.3960 C   0  0  0  0  0  0  0  0  0  0  0  0
   -0.0991   -1.4161   -0.4916 H   0  0  0  0  0  0  0  0  0  0  0  0
   -1.4746    0.2555   -0.4886 C   0  0  0  0  0  0  0  0  0  0  0  0
   -1.6356    1.6584   -0.3645 C   0  0  0  0  0  0  0  0  0  0  0  0
   -2.6324    2.1107   -0.4546 H   0  0  0  0  0  0  0  0  0  0  0  0
   -0.5190    2.4676   -0.1518 C   0  0  0  0  0  0  0  0  0  0  0  0
   -0.6494    3.5572   -0.0619 H   0  0  0  0  0  0  0  0  0  0  0  0
    0.7653    1.8883   -0.0594 C   0  0  0  0  0  0  0  0  0  0  0  0
    2.0023    2.6314    0.1595 C   0  0  0  0  0  0  0  0  0  0  0  0
    2.1397    4.0233    0.3125 C   0  0  0  0  0  0  0  0  0  0  0  0
    1.2431    4.6566    0.2699 H   0  0  0  0  0  0  0  0  0  0  0  0
    3.4033    4.5858    0.5148 C   0  0  0  0  0  0  0  0  0  0  0  0
    3.5131    5.6738    0.6341 H   0  0  0  0  0  0  0  0  0  0  0  0
    4.5278    3.7435    0.5628 C   0  0  0  0  0  0  0  0  0  0  0  0
    5.5395    4.1424    0.7193 H   0  0  0  0  0  0  0  0  0  0  0  0
    4.3479    2.3680    0.4065 C   0  0  0  0  0  0  0  0  0  0  0  0
    5.1759    1.6429    0.4313 H   0  0  0  0  0  0  0  0  0  0  0  0
   -2.6356   -0.6616   -0.6570 C   0  0  0  0  0  0  0  0  0  0  0  0
   -4.0448   -0.0542   -0.8370 C   0  0  0  0  0  0  0  0  0  0  0  0
   -5.1135   -0.4380    0.1228 C   0  0  0  0  0  0  0  0  0  0  0  0
   -4.7253   -1.0992    1.2955 C   0  0  0  0  0  0  0  0  0  0  0  0
   -3.6678   -1.3595    1.4418 H   0  0  0  0  0  0  0  0  0  0  0  0
   -5.6578   -1.4481    2.2975 C   0  0  0  0  0  0  0  0  0  0  0  0
   -5.3146   -1.9649    3.2058 H   0  0  0  0  0  0  0  0  0  0  0  0
   -6.9985   -1.1403    2.1263 C   0  0  0  0  0  0  0  0  0  0  0  0
   -7.7367   -1.4092    2.8983 H   0  0  0  0  0  0  0  0  0  0  0  0
   -7.4544   -0.4730    0.9527 C   0  0  0  0  0  0  0  0  0  0  0  0
   -8.8360   -0.1653    0.7817 C   0  0  0  0  0  0  0  0  0  0  0  0
   -9.5408   -0.4554    1.5766 H   0  0  0  0  0  0  0  0  0  0  0  0
   -9.2844    0.4817   -0.3587 C   0  0  0  0  0  0  0  0  0  0  0  0
  -10.3532    0.7136   -0.4814 H   0  0  0  0  0  0  0  0  0  0  0  0
   -8.3586    0.8428   -1.3704 C   0  0  0  0  0  0  0  0  0  0  0  0
   -8.7161    1.3553   -2.2767 H   0  0  0  0  0  0  0  0  0  0  0  0
   -7.0051    0.5590   -1.2374 C   0  0  0  0  0  0  0  0  0  0  0  0
   -6.2903    0.8452   -2.0177 H   0  0  0  0  0  0  0  0  0  0  0  0
   -6.5076   -0.1057   -0.0772 C   0  0  0  0  0  0  0  0  0  0  0  0
    3.1234    1.8282    0.2110 N   0  0  0  0  0  2  0  0  0  0  0  0
  1 21  2  0  0  0  0
  2 22  2  0  0  0  0
  3 11  1  0  0  0  0
  4  3  1  0  0  0  0
  5  4  1  0  0  0  0
  6  4  2  0  0  0  0
  6  7  1  0  0  0  0
  7  9  2  0  0  0  0
  8  7  1  0  0  0  0
  9 10  1  0  0  0  0
  9 11  1  0  0  0  0
 11 12  2  0  0  0  0
 12 40  1  0  0  0  0
 12 13  1  0  0  0  0
 13 15  2  0  0  0  0
 14 13  1  0  0  0  0
 15 17  1  0  0  0  0
 15 16  1  0  0  0  0
 17 18  1  0  0  0  0
 19 20  1  0  0  0  0
 19 17  2  0  0  0  0
 21  6  1  0  0  0  0
 22 21  1  0  0  0  0
 22 23  1  0  0  0  0
 23 24  1  0  0  0  0
 24 25  1  0  0  0  0
 24 26  2  0  0  0  0
 26 27  1  0  0  0  0
 28 26  1  0  0  0  0
 28 29  1  0  0  0  0
 30 28  2  0  0  0  0
 31 30  1  0  0  0  0
 31 32  1  0  0  0  0
 33 31  2  0  0  0  0
 34 33  1  0  0  0  0
 35 37  2  0  0  0  0
 35 33  1  0  0  0  0
 36 35  1  0  0  0  0
 37 39  1  0  0  0  0
 38 37  1  0  0  0  0
 39 23  2  0  0  0  0
 39 30  1  0  0  0  0
 40 19  1  0  0  0  0
M  END
