5,10
 OpenBabel05122313053D

 16 15  0  0  0  0  0  0  0  0999 V2000
   -2.5435    1.0102    1.8223 O   0  0  0  0  0  0  0  0  0  0  0  0
   -2.8168   -1.1548    1.9006 O   0  0  0  0  0  0  0  0  0  0  0  0
   -2.5606    2.0002   -0.6891 O   0  0  0  0  0  0  0  0  0  0  0  0
   -3.4697    0.4354   -1.8942 O   0  0  0  0  0  0  0  0  0  0  0  0
    0.0627   -1.9658   -0.5978 N   0  0  0  0  0  0  0  0  0  0  0  0
   -2.5374   -0.1093    1.3113 N   0  0  0  0  0  0  0  0  0  0  0  0
   -2.7603    0.8107   -0.9648 N   0  0  0  0  0  0  0  0  0  0  0  0
   -1.2309   -2.6114   -0.2676 C   0  0  0  0  0  0  0  0  0  0  0  0
   -2.3518   -1.6611   -0.6812 C   0  0  0  0  0  0  0  0  0  0  0  0
   -2.0885   -0.2605   -0.1300 C   0  0  0  0  0  3  0  0  0  0  0  0
    0.2639   -1.9806   -1.6098 H   0  0  0  0  0  0  0  0  0  0  0  0
    0.8997   -2.3807   -0.1404 H   0  0  0  0  0  0  0  0  0  0  0  0
   -1.2586   -2.7775    0.8262 H   0  0  0  0  0  0  0  0  0  0  0  0
   -1.3282   -3.5980   -0.7688 H   0  0  0  0  0  0  0  0  0  0  0  0
   -3.3417   -2.0485   -0.3666 H   0  0  0  0  0  0  0  0  0  0  0  0
   -2.3767   -1.5721   -1.7849 H   0  0  0  0  0  0  0  0  0  0  0  0
  4  7  2  0  0  0  0
  5  8  1  0  0  0  0
  5 12  1  0  0  0  0
  6  1  2  0  0  0  0
  6  2  2  0  0  0  0
  7  3  2  0  0  0  0
  7 10  1  0  0  0  0
  8 13  1  0  0  0  0
  9 15  1  0  0  0  0
  9  8  1  0  0  0  0
  9 10  1  0  0  0  0
 10  6  1  0  0  0  0
 11  5  1  0  0  0  0
 14  8  1  0  0  0  0
 16  9  1  0  0  0  0
M  END
