2,5
 OpenBabel05122313053D

 42 44  0  0  1  0  0  0  0  0999 V2000
   -0.6542    1.3452   -0.9637 Si  0  0  0  0  0  0  0  0  0  0  0  0
   -0.5649    0.1548    0.3483 N   0  0  0  0  0  2  0  0  0  0  0  0
   -0.8022    3.1261   -0.3674 C   0  0  0  0  0  0  0  0  0  0  0  0
   -1.9647    0.9729   -2.2592 C   0  0  0  0  0  0  0  0  0  0  0  0
    1.0580    0.8005   -1.5433 C   0  0  2  0  0  3  0  0  0  0  0  0
    1.2149   -0.4481   -2.2336 C   0  0  0  0  0  0  0  0  0  0  0  0
    2.4327   -1.0717   -1.8570 C   0  0  0  0  0  0  0  0  0  0  0  0
    3.1341   -0.1726   -0.9804 C   0  0  0  0  0  0  0  0  0  0  0  0
    4.3920   -0.2629   -0.3199 C   0  0  0  0  0  0  0  0  0  0  0  0
    4.7729    0.7671    0.5249 C   0  0  0  0  0  0  0  0  0  0  0  0
    3.9297    1.8978    0.7426 C   0  0  0  0  0  0  0  0  0  0  0  0
    2.6988    2.0142    0.1155 C   0  0  0  0  0  0  0  0  0  0  0  0
    2.2788    0.9863   -0.7782 C   0  0  0  0  0  0  0  0  0  0  0  0
   -1.4950   -0.1420    1.4495 C   0  0  1  0  0  0  0  0  0  0  0  0
   -1.2682    0.8161    2.6221 C   0  0  0  0  0  0  0  0  0  0  0  0
   -2.9115   -0.1636    0.8827 C   0  0  0  0  0  0  0  0  0  0  0  0
   -3.8063    0.9116    1.0387 C   0  0  0  0  0  0  0  0  0  0  0  0
   -5.0621    0.8951    0.4077 C   0  0  0  0  0  0  0  0  0  0  0  0
   -5.4396   -0.1998   -0.3837 C   0  0  0  0  0  0  0  0  0  0  0  0
   -4.5564   -1.2828   -0.5364 C   0  0  0  0  0  0  0  0  0  0  0  0
   -3.3037   -1.2636    0.0900 C   0  0  0  0  0  0  0  0  0  0  0  0
   -0.5604    3.8339   -1.1871 H   0  0  0  0  0  0  0  0  0  0  0  0
   -1.8446    3.3245   -0.0437 H   0  0  0  0  0  0  0  0  0  0  0  0
   -0.1320    3.3345    0.4889 H   0  0  0  0  0  0  0  0  0  0  0  0
   -1.9269   -0.0889   -2.5719 H   0  0  0  0  0  0  0  0  0  0  0  0
   -2.9791    1.1645   -1.8550 H   0  0  0  0  0  0  0  0  0  0  0  0
   -1.8156    1.6134   -3.1532 H   0  0  0  0  0  0  0  0  0  0  0  0
    0.4437   -0.9231   -2.8546 H   0  0  0  0  0  0  0  0  0  0  0  0
    2.7860   -2.0552   -2.1896 H   0  0  0  0  0  0  0  0  0  0  0  0
    5.0389   -1.1381   -0.4792 H   0  0  0  0  0  0  0  0  0  0  0  0
    5.7416    0.7160    1.0442 H   0  0  0  0  0  0  0  0  0  0  0  0
    4.2692    2.6926    1.4235 H   0  0  0  0  0  0  0  0  0  0  0  0
    2.0628    2.8947    0.2816 H   0  0  0  0  0  0  0  0  0  0  0  0
   -1.2712   -1.1721    1.8097 H   0  0  0  0  0  0  0  0  0  0  0  0
   -1.4245    1.8718    2.3233 H   0  0  0  0  0  0  0  0  0  0  0  0
   -1.9542    0.5836    3.4612 H   0  0  0  0  0  0  0  0  0  0  0  0
   -0.2246    0.7126    2.9763 H   0  0  0  0  0  0  0  0  0  0  0  0
   -3.5259    1.7751    1.6596 H   0  0  0  0  0  0  0  0  0  0  0  0
   -5.7511    1.7435    0.5405 H   0  0  0  0  0  0  0  0  0  0  0  0
   -6.4236   -0.2135   -0.8766 H   0  0  0  0  0  0  0  0  0  0  0  0
   -4.8475   -2.1487   -1.1506 H   0  0  0  0  0  0  0  0  0  0  0  0
   -2.5998   -2.1000   -0.0448 H   0  0  0  0  0  0  0  0  0  0  0  0
  1  3  1  0  0  0  0
  1  2  1  0  0  0  0
  2 14  1  0  0  0  0
  3 23  1  0  0  0  0
  3 24  1  0  0  0  0
  4 26  1  0  0  0  0
  4  1  1  0  0  0  0
  5  1  1  1  0  0  0
  5 13  1  0  0  0  0
  6  7  2  0  0  0  0
  6  5  1  0  0  0  0
  7  8  1  0  0  0  0
  8 13  2  0  0  0  0
  8  9  1  0  0  0  0
  9 10  2  0  0  0  0
 10 11  1  0  0  0  0
 10 31  1  0  0  0  0
 11 32  1  0  0  0  0
 12 33  1  0  0  0  0
 12 11  2  0  0  0  0
 13 12  1  0  0  0  0
 14 34  1  1  0  0  0
 14 15  1  0  0  0  0
 15 37  1  0  0  0  0
 15 36  1  0  0  0  0
 16 17  1  0  0  0  0
 16 14  1  0  0  0  0
 17 38  1  0  0  0  0
 18 39  1  0  0  0  0
 18 17  2  0  0  0  0
 19 18  1  0  0  0  0
 20 19  2  0  0  0  0
 20 21  1  0  0  0  0
 21 16  2  0  0  0  0
 22  3  1  0  0  0  0
 25  4  1  0  0  0  0
 27  4  1  0  0  0  0
 28  6  1  0  0  0  0
 29  7  1  0  0  0  0
 30  9  1  0  0  0  0
 35 15  1  0  0  0  0
 40 19  1  0  0  0  0
 41 20  1  0  0  0  0
 42 21  1  0  0  0  0
M  END
