5,6
 OpenBabel05122313053D

 34 35  0  0  0  0  0  0  0  0999 V2000
   -1.7601    1.4173   -1.6608 S   0  0  0  0  0  0  0  0  0  0  0  0
   -1.7480    2.6958   -0.9230 O   0  0  0  0  0  0  0  0  0  0  0  0
   -1.8855    1.3697   -3.1307 O   0  0  0  0  0  0  0  0  0  0  0  0
    4.6651   -3.1570   -0.6767 O   0  0  0  0  0  0  0  0  0  0  0  0
   -0.2584    0.5794   -1.2503 N   0  0  0  0  0  2  0  0  0  0  0  0
    1.7774   -0.8512   -0.5030 C   0  0  0  0  0  3  0  0  0  0  0  0
   -2.9799    0.3371   -0.9309 C   0  0  0  0  0  0  0  0  0  0  0  0
    1.5280   -0.7630   -1.9126 C   0  0  0  0  0  0  0  0  0  0  0  0
    3.6319   -2.3628   -1.0088 C   0  0  0  0  0  0  0  0  0  0  0  0
    0.3835    0.0051   -2.2556 C   0  0  0  0  0  3  0  0  0  0  0  0
    0.0027    0.1274   -3.2858 H   0  0  0  0  0  0  0  0  0  0  0  0
    2.8192   -1.6804   -0.0668 C   0  0  0  0  0  0  0  0  0  0  0  0
    3.0148   -1.8056    1.0059 H   0  0  0  0  0  0  0  0  0  0  0  0
    3.3912   -2.2395   -2.4062 C   0  0  0  0  0  0  0  0  0  0  0  0
    4.0474   -2.7866   -3.0969 H   0  0  0  0  0  0  0  0  0  0  0  0
   -3.4476   -0.7536   -1.6813 C   0  0  0  0  0  0  0  0  0  0  0  0
   -3.0845   -0.9114   -2.7073 H   0  0  0  0  0  0  0  0  0  0  0  0
   -3.4534    0.5961    0.3629 C   0  0  0  0  0  0  0  0  0  0  0  0
   -3.0985    1.4811    0.9081 H   0  0  0  0  0  0  0  0  0  0  0  0
   -4.3971   -0.2752    0.9222 C   0  0  0  0  0  0  0  0  0  0  0  0
   -4.7815   -0.0771    1.9349 H   0  0  0  0  0  0  0  0  0  0  0  0
   -4.8843   -1.3879    0.2023 C   0  0  0  0  0  0  0  0  0  0  0  0
    2.3431   -1.4531   -2.8517 C   0  0  0  0  0  0  0  0  0  0  0  0
    2.1352   -1.3641   -3.9291 H   0  0  0  0  0  0  0  0  0  0  0  0
   -4.3961   -1.6071   -1.1069 C   0  0  0  0  0  0  0  0  0  0  0  0
   -4.7831   -2.4555   -1.6931 H   0  0  0  0  0  0  0  0  0  0  0  0
    4.9966   -3.3505    0.6928 C   0  0  0  0  0  0  0  0  0  0  0  0
    4.1602   -3.8241    1.2508 H   0  0  0  0  0  0  0  0  0  0  0  0
    5.2699   -2.3915    1.1837 H   0  0  0  0  0  0  0  0  0  0  0  0
    5.8702   -4.0263    0.7054 H   0  0  0  0  0  0  0  0  0  0  0  0
   -5.9327   -2.2926    0.7922 C   0  0  0  0  0  0  0  0  0  0  0  0
   -5.9152   -2.2809    1.8992 H   0  0  0  0  0  0  0  0  0  0  0  0
   -5.8195   -3.3384    0.4446 H   0  0  0  0  0  0  0  0  0  0  0  0
   -6.9469   -1.9620    0.4809 H   0  0  0  0  0  0  0  0  0  0  0  0
  1  5  1  0  0  0  0
  1  7  1  0  0  0  0
  1  2  2  0  0  0  0
  3  1  2  0  0  0  0
  4 27  1  0  0  0  0
  6 12  1  0  0  0  0
  7 18  1  0  0  0  0
  8  6  2  0  0  0  0
  9  4  1  0  0  0  0
  9 12  2  0  0  0  0
 10  8  1  0  0  0  0
 10  5  1  0  0  0  0
 11 10  1  0  0  0  0
 12 13  1  0  0  0  0
 14  9  1  0  0  0  0
 15 14  1  0  0  0  0
 16 25  1  0  0  0  0
 16  7  2  0  0  0  0
 17 16  1  0  0  0  0
 18 19  1  0  0  0  0
 18 20  2  0  0  0  0
 20 21  1  0  0  0  0
 22 31  1  0  0  0  0
 22 20  1  0  0  0  0
 23 14  2  0  0  0  0
 23  8  1  0  0  0  0
 24 23  1  0  0  0  0
 25 22  2  0  0  0  0
 26 25  1  0  0  0  0
 27 30  1  0  0  0  0
 27 29  1  0  0  0  0
 27 28  1  0  0  0  0
 31 32  1  0  0  0  0
 33 31  1  0  0  0  0
 34 31  1  0  0  0  0
M  END
