4,10
 OpenBabel05122313053D

 46 48  0  0  1  0  0  0  0  0999 V2000
   -1.0745   -0.3862   -1.5760 S   0  0  0  0  0  0  0  0  0  0  0  0
   -0.3645   -1.7132   -1.5152 O   0  0  0  0  0  0  0  0  0  0  0  0
   -1.3469    0.2706   -2.8678 O   0  0  0  0  0  0  0  0  0  0  0  0
   -0.0216    0.4473   -0.5875 N   0  0  0  0  0  2  0  0  0  0  0  0
    1.8558    1.1608    0.9515 C   0  0  0  0  0  0  0  0  0  0  0  0
    3.0256    0.8089    0.1998 C   0  0  0  0  0  0  0  0  0  0  0  0
    3.5758   -0.3803    0.7916 C   0  0  0  0  0  0  0  0  0  0  0  0
    2.7208   -0.7582    1.8659 C   0  0  0  0  0  0  0  0  0  0  0  0
    2.8479   -1.6522    2.4870 H   0  0  0  0  0  0  0  0  0  0  0  0
    1.6488    0.1781    1.9780 C   0  0  1  0  0  3  0  0  0  0  0  0
    3.5849    1.5661   -0.9619 C   0  0  0  0  0  0  0  0  0  0  0  0
    2.8290    2.2519   -1.3905 H   0  0  0  0  0  0  0  0  0  0  0  0
    3.9227    0.8754   -1.7588 H   0  0  0  0  0  0  0  0  0  0  0  0
    4.4567    2.1785   -0.6467 H   0  0  0  0  0  0  0  0  0  0  0  0
    4.8519   -1.0515    0.3978 C   0  0  0  0  0  0  0  0  0  0  0  0
    4.9155   -2.0718    0.8212 H   0  0  0  0  0  0  0  0  0  0  0  0
    5.7202   -0.4686    0.7729 H   0  0  0  0  0  0  0  0  0  0  0  0
    4.9401   -1.1308   -0.7031 H   0  0  0  0  0  0  0  0  0  0  0  0
    0.5248    0.1570    2.9659 C   0  0  0  0  0  0  0  0  0  0  0  0
    0.2963   -0.8809    3.2739 H   0  0  0  0  0  0  0  0  0  0  0  0
   -0.3926    0.6090    2.5392 H   0  0  0  0  0  0  0  0  0  0  0  0
    0.7883    0.7412    3.8732 H   0  0  0  0  0  0  0  0  0  0  0  0
    0.9044    2.2376    0.6006 C   0  0  0  0  0  0  0  0  0  0  0  0
   -0.1239    1.8101   -0.2751 C   0  0  0  0  0  0  0  0  0  0  0  0
   -1.0975    2.7212   -0.7301 C   0  0  0  0  0  0  0  0  0  0  0  0
   -1.8723    2.4036   -1.4394 H   0  0  0  0  0  0  0  0  0  0  0  0
   -1.0368    4.0501   -0.2821 C   0  0  0  0  0  0  0  0  0  0  0  0
   -1.7931    4.7672   -0.6357 H   0  0  0  0  0  0  0  0  0  0  0  0
   -0.0272    4.4778    0.5958 C   0  0  0  0  0  0  0  0  0  0  0  0
    0.0041    5.5243    0.9327 H   0  0  0  0  0  0  0  0  0  0  0  0
    0.9508    3.5679    1.0351 C   0  0  0  0  0  0  0  0  0  0  0  0
    1.7544    3.8900    1.7142 H   0  0  0  0  0  0  0  0  0  0  0  0
   -2.6186   -0.5203   -0.6813 C   0  0  0  0  0  0  0  0  0  0  0  0
   -3.7593    0.1141   -1.1908 C   0  0  0  0  0  0  0  0  0  0  0  0
   -3.6980    0.6584   -2.1441 H   0  0  0  0  0  0  0  0  0  0  0  0
   -4.9606    0.0226   -0.4738 C   0  0  0  0  0  0  0  0  0  0  0  0
   -5.8630    0.5163   -0.8666 H   0  0  0  0  0  0  0  0  0  0  0  0
   -5.0347   -0.6937    0.7374 C   0  0  0  0  0  0  0  0  0  0  0  0
   -3.8662   -1.3322    1.2135 C   0  0  0  0  0  0  0  0  0  0  0  0
   -3.9088   -1.9092    2.1506 H   0  0  0  0  0  0  0  0  0  0  0  0
   -2.6581   -1.2587    0.5147 C   0  0  0  0  0  0  0  0  0  0  0  0
   -1.7569   -1.7777    0.8762 H   0  0  0  0  0  0  0  0  0  0  0  0
   -6.3243   -0.7939    1.5092 C   0  0  0  0  0  0  0  0  0  0  0  0
   -6.6498   -1.8508    1.6044 H   0  0  0  0  0  0  0  0  0  0  0  0
   -7.1408   -0.2282    1.0216 H   0  0  0  0  0  0  0  0  0  0  0  0
   -6.2038   -0.4033    2.5409 H   0  0  0  0  0  0  0  0  0  0  0  0
  1  2  2  0  0  0  0
  1 33  1  0  0  0  0
  1  4  1  0  0  0  0
  3  1  2  0  0  0  0
  4 24  1  0  0  0  0
  5 10  1  0  0  0  0
  6  7  1  0  0  0  0
  6  5  2  0  0  0  0
  7  8  2  0  0  0  0
  8 10  1  0  0  0  0
  8  9  1  0  0  0  0
 10 19  1  1  0  0  0
 11 14  1  0  0  0  0
 11  6  1  0  0  0  0
 12 11  1  0  0  0  0
 13 11  1  0  0  0  0
 15 17  1  0  0  0  0
 15  7  1  0  0  0  0
 15 16  1  0  0  0  0
 18 15  1  0  0  0  0
 19 20  1  0  0  0  0
 19 22  1  0  0  0  0
 21 19  1  0  0  0  0
 23  5  1  0  0  0  0
 23 31  1  0  0  0  0
 24 23  2  0  0  0  0
 25 27  2  0  0  0  0
 25 24  1  0  0  0  0
 26 25  1  0  0  0  0
 27 29  1  0  0  0  0
 28 27  1  0  0  0  0
 29 30  1  0  0  0  0
 29 31  2  0  0  0  0
 31 32  1  0  0  0  0
 33 41  1  0  0  0  0
 34 33  2  0  0  0  0
 34 36  1  0  0  0  0
 35 34  1  0  0  0  0
 36 38  2  0  0  0  0
 37 36  1  0  0  0  0
 38 39  1  0  0  0  0
 38 43  1  0  0  0  0
 39 40  1  0  0  0  0
 41 42  1  0  0  0  0
 41 39  2  0  0  0  0
 43 44  1  0  0  0  0
 43 46  1  0  0  0  0
 45 43  1  0  0  0  0
M  END
