1,3
q = -1.0, confidence = 0.002

 28 29  0  0  1  0  0  0  0  0999 V2000
    1.0167    1.7994   -0.1058 N   0  0  0  0  0  2  0  0  0  0  0  0
   -4.7846   -0.5823   -0.0181 N   0  0  0  0  0  0  0  0  0  0  0  0
   -1.1963    0.4328   -0.0138 C   0  0  0  0  0  3  0  0  0  0  0  0
   -2.3545   -0.3508   -0.0867 C   0  0  0  0  0  0  0  0  0  0  0  0
   -2.2478   -1.4244   -0.2821 H   0  0  0  0  0  0  0  0  0  0  0  0
   -3.6547    0.2121    0.0504 C   0  0  0  0  0  0  0  0  0  0  0  0
   -3.7626    1.6225    0.2560 C   0  0  0  0  0  0  0  0  0  0  0  0
   -4.7443    2.0984    0.3694 H   0  0  0  0  0  0  0  0  0  0  0  0
   -2.6191    2.4145    0.2869 C   0  0  0  0  0  0  0  0  0  0  0  0
   -2.7349    3.5023    0.4167 H   0  0  0  0  0  0  0  0  0  0  0  0
   -1.3337    1.8473    0.1429 C   0  0  0  0  0  0  0  0  0  0  0  0
   -0.0962    2.5914    0.0686 C   0  0  2  0  0  3  0  0  0  0  0  0
    0.0533    3.9968    0.1253 C   0  0  0  0  0  0  0  0  0  0  0  0
   -0.8384    4.6230    0.2660 H   0  0  0  0  0  0  0  0  0  0  0  0
    1.3145    4.5746   -0.0072 C   0  0  0  0  0  0  0  0  0  0  0  0
    1.4314    5.6678    0.0388 H   0  0  0  0  0  0  0  0  0  0  0  0
    2.4322    3.7431   -0.2180 C   0  0  0  0  0  0  0  0  0  0  0  0
    3.4425    4.1535   -0.3514 H   0  0  0  0  0  0  0  0  0  0  0  0
    2.2320    2.3637   -0.2708 C   0  0  0  0  0  0  0  0  0  0  0  0
    3.0594    1.6649   -0.4575 H   0  0  0  0  0  0  0  0  0  0  0  0
   -6.1011    0.0085    0.1042 C   0  0  0  0  0  0  0  0  0  0  0  0
   -6.2389    0.5258    1.0805 H   0  0  0  0  0  0  0  0  0  0  0  0
   -6.8669   -0.7851    0.0335 H   0  0  0  0  0  0  0  0  0  0  0  0
   -6.3072    0.7529   -0.6987 H   0  0  0  0  0  0  0  0  0  0  0  0
   -4.6533   -2.0030   -0.2652 C   0  0  0  0  0  0  0  0  0  0  0  0
   -4.1514   -2.2177   -1.2358 H   0  0  0  0  0  0  0  0  0  0  0  0
   -5.6563   -2.4661   -0.2890 H   0  0  0  0  0  0  0  0  0  0  0  0
   -4.0622   -2.5119    0.5307 H   0  0  0  0  0  0  0  0  0  0  0  0
  1 12  1  0  0  0  0
  2  6  1  0  0  0  0
  2 21  1  0  0  0  0
  3 11  1  0  0  0  0
  4  3  2  0  0  0  0
  4  6  1  0  0  0  0
  5  4  1  0  0  0  0
  6  7  2  0  0  0  0
  7  9  1  0  0  0  0
  7  8  1  0  0  0  0
  9 10  1  0  0  0  0
 11  9  2  0  0  0  0
 12 13  1  0  0  0  0
 12 11  1  6  0  0  0
 13 14  1  0  0  0  0
 15 16  1  0  0  0  0
 15 13  2  0  0  0  0
 17 15  1  0  0  0  0
 18 17  1  0  0  0  0
 19 17  2  0  0  0  0
 19  1  1  0  0  0  0
 20 19  1  0  0  0  0
 21 22  1  0  0  0  0
 23 21  1  0  0  0  0
 24 21  1  0  0  0  0
 25  2  1  0  0  0  0
 25 28  1  0  0  0  0
 26 25  1  0  0  0  0
 27 25  1  0  0  0  0
M  END
