2,6
 OpenBabel05122313053D

 26 28  0  0  1  0  0  0  0  0999 V2000
   -1.6836   -3.3363   -0.0420 S   0  0  0  0  0  0  0  0  0  0  0  0
   -1.4893   -0.7392   -0.1361 N   0  0  0  0  0  2  0  0  0  0  0  0
    5.1239    0.2192   -1.3209 F   0  0  0  0  0  0  0  0  0  0  0  0
    5.2731   -0.4306    0.7542 F   0  0  0  0  0  0  0  0  0  0  0  0
    5.6176   -1.8595   -0.8599 F   0  0  0  0  0  0  0  0  0  0  0  0
    1.0681   -0.3432   -0.3335 C   0  0  0  0  0  3  0  0  0  0  0  0
    2.4450   -0.0996   -0.4982 C   0  0  0  0  0  0  0  0  0  0  0  0
    2.8127    0.9241   -0.6584 H   0  0  0  0  0  0  0  0  0  0  0  0
    3.3790   -1.1491   -0.4638 C   0  0  0  0  0  0  0  0  0  0  0  0
    2.9662   -2.4909   -0.3236 C   0  0  0  0  0  0  0  0  0  0  0  0
    3.7128   -3.2962   -0.3105 H   0  0  0  0  0  0  0  0  0  0  0  0
    1.6041   -2.7734   -0.2224 C   0  0  0  0  0  0  0  0  0  0  0  0
    1.2597   -3.8168   -0.1425 H   0  0  0  0  0  0  0  0  0  0  0  0
    0.6721   -1.7134   -0.2227 C   0  0  0  0  0  0  0  0  0  0  0  0
   -0.7560   -1.8559   -0.1372 C   0  0  2  0  0  3  0  0  0  0  0  0
   -2.8515   -0.9997   -0.1074 C   0  0  0  0  0  0  0  0  0  0  0  0
   -3.8982   -0.0599   -0.1655 C   0  0  0  0  0  0  0  0  0  0  0  0
   -3.6501    1.0027   -0.2761 H   0  0  0  0  0  0  0  0  0  0  0  0
   -5.2190   -0.5148   -0.1170 C   0  0  0  0  0  0  0  0  0  0  0  0
   -6.0429    0.2123   -0.1684 H   0  0  0  0  0  0  0  0  0  0  0  0
   -5.5132   -1.8923   -0.0170 C   0  0  0  0  0  0  0  0  0  0  0  0
   -6.5607   -2.2261    0.0197 H   0  0  0  0  0  0  0  0  0  0  0  0
   -4.4867   -2.8450    0.0196 C   0  0  0  0  0  0  0  0  0  0  0  0
   -4.7129   -3.9193    0.0787 H   0  0  0  0  0  0  0  0  0  0  0  0
   -3.1611   -2.3893   -0.0322 C   0  0  0  0  0  0  0  0  0  0  0  0
    4.8490   -0.8103   -0.4844 C   0  0  0  0  0  0  0  0  0  0  0  0
  1 25  1  0  0  0  0
  2 16  1  0  0  0  0
  3 26  1  0  0  0  0
  5 26  1  0  0  0  0
  6 14  1  0  0  0  0
  7  9  1  0  0  0  0
  7  6  2  0  0  0  0
  8  7  1  0  0  0  0
  9 10  2  0  0  0  0
 10 11  1  0  0  0  0
 10 12  1  0  0  0  0
 12 13  1  0  0  0  0
 14 12  2  0  0  0  0
 15 14  1  6  0  0  0
 15  2  1  0  0  0  0
 15  1  1  0  0  0  0
 16 25  1  0  0  0  0
 17 19  1  0  0  0  0
 17 16  2  0  0  0  0
 18 17  1  0  0  0  0
 19 21  2  0  0  0  0
 20 19  1  0  0  0  0
 21 23  1  0  0  0  0
 21 22  1  0  0  0  0
 23 24  1  0  0  0  0
 25 23  2  0  0  0  0
 26  9  1  0  0  0  0
 26  4  1  0  0  0  0
M  END
