3,4
 OpenBabel05122313053D

 30 31  0  0  1  0  0  0  0  0999 V2000
   -1.4584    2.4661   -0.7462 N   0  0  0  0  0  0  0  0  0  0  0  0
    0.5117    2.8066    0.0893 N   0  0  0  0  0  0  0  0  0  0  0  0
   -2.1654   -0.2413    0.0899 N   0  0  0  0  0  2  0  0  0  0  0  0
   -0.3107    1.7970   -0.3792 C   0  0  0  0  0  2  0  0  0  0  0  0
   -1.3632    3.8301   -0.5177 C   0  0  0  0  0  0  0  0  0  0  0  0
   -2.1725    4.5270   -0.7556 H   0  0  0  0  0  0  0  0  0  0  0  0
   -0.1152    4.0474    0.0024 C   0  0  0  0  0  0  0  0  0  0  0  0
    0.3730    4.9772    0.3064 H   0  0  0  0  0  0  0  0  0  0  0  0
    1.8782    2.6220    0.6054 C   0  0  0  0  0  0  0  0  0  0  0  0
    2.0371    1.5292    0.5702 H   0  0  0  0  0  0  0  0  0  0  0  0
    2.8990    3.3044   -0.3099 C   0  0  0  0  0  0  0  0  0  0  0  0
    2.7942    4.4092   -0.2838 H   0  0  0  0  0  0  0  0  0  0  0  0
    2.7785    2.9639   -1.3552 H   0  0  0  0  0  0  0  0  0  0  0  0
    3.9277    3.0526    0.0148 H   0  0  0  0  0  0  0  0  0  0  0  0
    1.9921    3.0935    2.0577 C   0  0  0  0  0  0  0  0  0  0  0  0
    1.8332    4.1882    2.1483 H   0  0  0  0  0  0  0  0  0  0  0  0
    3.0061    2.8704    2.4445 H   0  0  0  0  0  0  0  0  0  0  0  0
    1.2589    2.5728    2.7025 H   0  0  0  0  0  0  0  0  0  0  0  0
   -2.6141    1.7530   -1.2769 C   0  0  0  0  0  0  0  0  0  0  0  0
   -3.4221    2.4827   -1.4663 H   0  0  0  0  0  0  0  0  0  0  0  0
   -2.3000    1.2653   -2.2295 H   0  0  0  0  0  0  0  0  0  0  0  0
   -3.0923    0.6739   -0.3385 C   0  0  1  0  0  3  0  0  0  0  0  0
   -2.5952   -1.2227    0.9352 C   0  0  0  0  0  0  0  0  0  0  0  0
   -1.8212   -1.9256    1.2693 H   0  0  0  0  0  0  0  0  0  0  0  0
   -3.9211   -1.3523    1.3492 C   0  0  0  0  0  0  0  0  0  0  0  0
   -4.1918   -2.1781    2.0227 H   0  0  0  0  0  0  0  0  0  0  0  0
   -4.8743   -0.4274    0.9000 C   0  0  0  0  0  0  0  0  0  0  0  0
   -5.9286   -0.4982    1.2046 H   0  0  0  0  0  0  0  0  0  0  0  0
   -4.4354    0.6006    0.0534 C   0  0  0  0  0  0  0  0  0  0  0  0
   -5.1372    1.3618   -0.3187 H   0  0  0  0  0  0  0  0  0  0  0  0
  1  5  1  0  0  0  0
  1  4  1  0  0  0  0
  2  9  1  0  0  0  0
  3 23  1  0  0  0  0
  4  2  1  0  0  0  0
  5  7  2  0  0  0  0
  6  5  1  0  0  0  0
  7  2  1  0  0  0  0
  7  8  1  0  0  0  0
  9 15  1  0  0  0  0
 10  9  1  0  0  0  0
 11 12  1  0  0  0  0
 11 14  1  0  0  0  0
 11  9  1  0  0  0  0
 13 11  1  0  0  0  0
 15 16  1  0  0  0  0
 15 17  1  0  0  0  0
 15 18  1  0  0  0  0
 19  1  1  0  0  0  0
 20 19  1  0  0  0  0
 21 19  1  0  0  0  0
 22 19  1  6  0  0  0
 22 29  1  0  0  0  0
 22  3  1  0  0  0  0
 23 24  1  0  0  0  0
 23 25  2  0  0  0  0
 25 26  1  0  0  0  0
 27 28  1  0  0  0  0
 27 25  1  0  0  0  0
 29 27  2  0  0  0  0
 30 29  1  0  0  0  0
M  END
