2,3
 OpenBabel05122313053D

 75 78  0  0  0  0  0  0  0  0999 V2000
   -0.0055   -1.3271   -1.4686 Si  0  0  0  0  0  0  0  0  0  0  0  0
   -0.3048   -1.6236    0.2705 N   0  0  0  0  0  2  0  0  0  0  0  0
    0.6532    0.4136   -1.1898 C   0  0  0  0  0  3  0  0  0  0  0  0
   -0.1983    1.5116   -0.7518 C   0  0  0  0  0  0  0  0  0  0  0  0
   -1.5974    1.7208   -0.9027 C   0  0  0  0  0  0  0  0  0  0  0  0
   -2.1754    1.0065   -1.4986 H   0  0  0  0  0  0  0  0  0  0  0  0
   -2.2202    2.8288   -0.3269 C   0  0  0  0  0  0  0  0  0  0  0  0
   -1.4272    3.7456    0.4352 C   0  0  0  0  0  0  0  0  0  0  0  0
   -1.9115    4.6188    0.8963 H   0  0  0  0  0  0  0  0  0  0  0  0
   -0.0603    3.5709    0.6138 C   0  0  0  0  0  0  0  0  0  0  0  0
    0.5202    4.2932    1.2075 H   0  0  0  0  0  0  0  0  0  0  0  0
    0.5726    2.4480    0.0331 C   0  0  0  0  0  0  0  0  0  0  0  0
    1.9414    1.9741    0.0530 C   0  0  0  0  0  0  0  0  0  0  0  0
    3.1139    2.4709    0.6677 C   0  0  0  0  0  0  0  0  0  0  0  0
    3.0831    3.4013    1.2549 H   0  0  0  0  0  0  0  0  0  0  0  0
    4.3045    1.7685    0.5230 C   0  0  0  0  0  0  0  0  0  0  0  0
    5.2108    2.1607    1.0080 H   0  0  0  0  0  0  0  0  0  0  0  0
    4.3865    0.5546   -0.2301 C   0  0  0  0  0  0  0  0  0  0  0  0
    3.2330    0.0679   -0.8464 C   0  0  0  0  0  0  0  0  0  0  0  0
    3.2680   -0.8537   -1.4368 H   0  0  0  0  0  0  0  0  0  0  0  0
    1.9942    0.7568   -0.7274 C   0  0  0  0  0  0  0  0  0  0  0  0
    5.7338   -0.1825   -0.3138 C   0  0  0  0  0  0  0  0  0  0  0  0
    6.7903    0.7454   -0.9550 C   0  0  0  0  0  0  0  0  0  0  0  0
    7.7734    0.2335   -1.0085 H   0  0  0  0  0  0  0  0  0  0  0  0
    6.9293    1.6781   -0.3732 H   0  0  0  0  0  0  0  0  0  0  0  0
    6.4932    1.0309   -1.9844 H   0  0  0  0  0  0  0  0  0  0  0  0
    5.6404   -1.4670   -1.1549 C   0  0  0  0  0  0  0  0  0  0  0  0
    4.9166   -2.1885   -0.7249 H   0  0  0  0  0  0  0  0  0  0  0  0
    6.6292   -1.9668   -1.1883 H   0  0  0  0  0  0  0  0  0  0  0  0
    5.3370   -1.2555   -2.2001 H   0  0  0  0  0  0  0  0  0  0  0  0
    6.1796   -0.5702    1.1156 C   0  0  0  0  0  0  0  0  0  0  0  0
    5.4246   -1.2212    1.6006 H   0  0  0  0  0  0  0  0  0  0  0  0
    6.3169    0.3202    1.7606 H   0  0  0  0  0  0  0  0  0  0  0  0
    7.1453   -1.1161    1.0848 H   0  0  0  0  0  0  0  0  0  0  0  0
   -3.7332    3.0743   -0.4572 C   0  0  0  0  0  0  0  0  0  0  0  0
   -3.9937    4.5076   -0.9718 C   0  0  0  0  0  0  0  0  0  0  0  0
   -3.5910    5.2793   -0.2868 H   0  0  0  0  0  0  0  0  0  0  0  0
   -5.0842    4.6871   -1.0700 H   0  0  0  0  0  0  0  0  0  0  0  0
   -3.5286    4.6615   -1.9665 H   0  0  0  0  0  0  0  0  0  0  0  0
   -4.3982    2.0878   -1.4329 C   0  0  0  0  0  0  0  0  0  0  0  0
   -3.9682    2.1700   -2.4516 H   0  0  0  0  0  0  0  0  0  0  0  0
   -5.4825    2.3064   -1.5067 H   0  0  0  0  0  0  0  0  0  0  0  0
   -4.2947    1.0363   -1.1002 H   0  0  0  0  0  0  0  0  0  0  0  0
   -4.3757    2.9002    0.9391 C   0  0  0  0  0  0  0  0  0  0  0  0
   -4.1961    1.8785    1.3313 H   0  0  0  0  0  0  0  0  0  0  0  0
   -5.4722    3.0654    0.8880 H   0  0  0  0  0  0  0  0  0  0  0  0
   -3.9578    3.6165    1.6743 H   0  0  0  0  0  0  0  0  0  0  0  0
    1.3039   -2.4661   -2.2296 C   0  0  0  0  0  0  0  0  0  0  0  0
    1.7613   -1.9785   -3.1154 H   0  0  0  0  0  0  0  0  0  0  0  0
    0.8541   -3.4213   -2.5668 H   0  0  0  0  0  0  0  0  0  0  0  0
    2.1088   -2.7053   -1.5075 H   0  0  0  0  0  0  0  0  0  0  0  0
   -1.5662   -1.4447   -2.5263 C   0  0  0  0  0  0  0  0  0  0  0  0
   -1.8231   -2.5104   -2.6947 H   0  0  0  0  0  0  0  0  0  0  0  0
   -1.3963   -0.9703   -3.5150 H   0  0  0  0  0  0  0  0  0  0  0  0
   -2.4438   -0.9730   -2.0452 H   0  0  0  0  0  0  0  0  0  0  0  0
   -1.0098   -2.7888    0.8363 C   0  0  0  0  0  0  0  0  0  0  0  0
   -0.3865   -4.0831    0.2797 C   0  0  0  0  0  0  0  0  0  0  0  0
   -0.5436   -4.1824   -0.8122 H   0  0  0  0  0  0  0  0  0  0  0  0
   -0.8116   -4.9818    0.7687 H   0  0  0  0  0  0  0  0  0  0  0  0
    0.7036   -4.0714    0.4725 H   0  0  0  0  0  0  0  0  0  0  0  0
   -0.8584   -2.8153    2.3732 C   0  0  0  0  0  0  0  0  0  0  0  0
    0.2114   -2.8922    2.6514 H   0  0  0  0  0  0  0  0  0  0  0  0
   -1.4006   -3.6824    2.7993 H   0  0  0  0  0  0  0  0  0  0  0  0
   -1.2770   -1.8986    2.8287 H   0  0  0  0  0  0  0  0  0  0  0  0
   -2.5142   -2.6739    0.5052 C   0  0  0  0  0  0  0  0  0  0  0  0
   -3.1797   -1.4565    0.7647 C   0  0  0  0  0  0  0  0  0  0  0  0
   -2.6015   -0.6039    1.1524 H   0  0  0  0  0  0  0  0  0  0  0  0
   -4.5510   -1.3153    0.5159 C   0  0  0  0  0  0  0  0  0  0  0  0
   -5.0498   -0.3599    0.7398 H   0  0  0  0  0  0  0  0  0  0  0  0
   -5.2889   -2.3854   -0.0191 C   0  0  0  0  0  0  0  0  0  0  0  0
   -6.3645   -2.2726   -0.2232 H   0  0  0  0  0  0  0  0  0  0  0  0
   -4.6389   -3.5968   -0.2889 C   0  0  0  0  0  0  0  0  0  0  0  0
   -5.2020   -4.4440   -0.7098 H   0  0  0  0  0  0  0  0  0  0  0  0
   -3.2659   -3.7405   -0.0226 C   0  0  0  0  0  0  0  0  0  0  0  0
   -2.7843   -4.7047   -0.2368 H   0  0  0  0  0  0  0  0  0  0  0  0
  1  3  1  0  0  0  0
  1  2  1  0  0  0  0
  2 56  1  0  0  0  0
  3  4  1  0  0  0  0
  3 21  1  0  0  0  0
  4 12  1  0  0  0  0
  5  4  2  0  0  0  0
  5  7  1  0  0  0  0
  6  5  1  0  0  0  0
  7  8  2  0  0  0  0
  8 10  1  0  0  0  0
  8  9  1  0  0  0  0
 10 11  1  0  0  0  0
 12 13  1  0  0  0  0
 12 10  2  0  0  0  0
 13 14  1  0  0  0  0
 14 15  1  0  0  0  0
 16 14  2  0  0  0  0
 16 17  1  0  0  0  0
 18 16  1  0  0  0  0
 19 21  1  0  0  0  0
 19 18  2  0  0  0  0
 20 19  1  0  0  0  0
 21 13  2  0  0  0  0
 22 18  1  0  0  0  0
 22 31  1  0  0  0  0
 23 25  1  0  0  0  0
 23 22  1  0  0  0  0
 24 23  1  0  0  0  0
 26 23  1  0  0  0  0
 27 28  1  0  0  0  0
 27 22  1  0  0  0  0
 29 27  1  0  0  0  0
 30 27  1  0  0  0  0
 31 32  1  0  0  0  0
 31 33  1  0  0  0  0
 34 31  1  0  0  0  0
 35  7  1  0  0  0  0
 35 44  1  0  0  0  0
 36 35  1  0  0  0  0
 36 37  1  0  0  0  0
 38 36  1  0  0  0  0
 39 36  1  0  0  0  0
 40 43  1  0  0  0  0
 40 35  1  0  0  0  0
 41 40  1  0  0  0  0
 42 40  1  0  0  0  0
 44 45  1  0  0  0  0
 44 47  1  0  0  0  0
 46 44  1  0  0  0  0
 48 51  1  0  0  0  0
 48  1  1  0  0  0  0
 49 48  1  0  0  0  0
 50 48  1  0  0  0  0
 52 55  1  0  0  0  0
 52  1  1  0  0  0  0
 53 52  1  0  0  0  0
 54 52  1  0  0  0  0
 56 61  1  0  0  0  0
 57 60  1  0  0  0  0
 57 59  1  0  0  0  0
 57 56  1  0  0  0  0
 58 57  1  0  0  0  0
 61 62  1  0  0  0  0
 61 63  1  0  0  0  0
 61 64  1  0  0  0  0
 65 66  1  0  0  0  0
 65 56  1  0  0  0  0
 66 67  1  0  0  0  0
 68 69  1  0  0  0  0
 68 66  2  0  0  0  0
 70 68  1  0  0  0  0
 71 70  1  0  0  0  0
 72 74  1  0  0  0  0
 72 70  2  0  0  0  0
 73 72  1  0  0  0  0
 74 65  2  0  0  0  0
 75 74  1  0  0  0  0
M  END
