1,13
 OpenBabel05122313053D

 27 28  0  0  1  0  0  0  0  0999 V2000
   -1.1897    0.3529   -0.0391 N   0  0  0  0  0  2  0  0  0  0  0  0
    1.7275    0.0128   -1.9708 C   0  0  0  0  0  0  0  0  0  0  0  0
    1.6801    0.7037   -2.8243 H   0  0  0  0  0  0  0  0  0  0  0  0
   -1.7887    1.4910   -0.4861 C   0  0  0  0  0  3  0  0  0  0  0  0
   -1.1116    2.3196   -0.7300 H   0  0  0  0  0  0  0  0  0  0  0  0
    0.7105   -1.8138   -0.6300 C   0  0  1  0  0  3  0  0  0  0  0  0
    0.7117   -0.9439   -1.7796 C   0  0  0  0  0  0  0  0  0  0  0  0
   -0.1387   -0.9809   -2.4773 H   0  0  0  0  0  0  0  0  0  0  0  0
   -3.1688    1.6424   -0.6226 C   0  0  0  0  0  0  0  0  0  0  0  0
   -3.5689    2.5993   -0.9872 H   0  0  0  0  0  0  0  0  0  0  0  0
    2.8141   -0.7381    0.1224 C   0  0  0  0  0  0  0  0  0  0  0  0
    3.5986   -0.6282    0.8836 H   0  0  0  0  0  0  0  0  0  0  0  0
    2.7574    0.1619   -0.9785 C   0  0  0  0  0  3  0  0  0  0  0  0
    3.5117    0.9538   -1.0824 H   0  0  0  0  0  0  0  0  0  0  0  0
    1.7934   -1.7209    0.2858 C   0  0  0  0  0  0  0  0  0  0  0  0
    1.7968   -2.3604    1.1820 H   0  0  0  0  0  0  0  0  0  0  0  0
   -2.0049   -0.7010    0.2884 C   0  0  0  0  0  0  0  0  0  0  0  0
   -4.0080    0.5730   -0.2811 C   0  0  0  0  0  0  0  0  0  0  0  0
   -5.1017    0.6523   -0.3655 H   0  0  0  0  0  0  0  0  0  0  0  0
   -3.4037   -0.6031    0.1758 C   0  0  0  0  0  0  0  0  0  0  0  0
   -4.0142   -1.4728    0.4595 H   0  0  0  0  0  0  0  0  0  0  0  0
   -1.3867   -1.9933    0.7587 C   0  0  0  0  0  0  0  0  0  0  0  0
   -2.2011   -2.6840    1.0573 H   0  0  0  0  0  0  0  0  0  0  0  0
   -0.7742   -1.7911    1.6632 H   0  0  0  0  0  0  0  0  0  0  0  0
   -0.4893   -2.6705   -0.3012 C   0  0  0  0  0  0  0  0  0  0  0  0
   -0.1608   -3.6565    0.0887 H   0  0  0  0  0  0  0  0  0  0  0  0
   -1.0822   -2.8687   -1.2177 H   0  0  0  0  0  0  0  0  0  0  0  0
  1 17  1  0  0  0  0
  2  7  2  0  0  0  0
  2 13  1  0  0  0  0
  3  2  1  0  0  0  0
  4  1  1  0  0  0  0
  5  4  1  0  0  0  0
  6 25  1  1  0  0  0
  6 15  1  0  0  0  0
  7  6  1  0  0  0  0
  8  7  1  0  0  0  0
  9  4  1  0  0  0  0
  9 18  2  0  0  0  0
 10  9  1  0  0  0  0
 11 15  2  0  0  0  0
 11 12  1  0  0  0  0
 13 11  1  0  0  0  0
 14 13  1  0  0  0  0
 15 16  1  0  0  0  0
 17 22  1  0  0  0  0
 18 20  1  0  0  0  0
 19 18  1  0  0  0  0
 20 17  2  0  0  0  0
 20 21  1  0  0  0  0
 22 23  1  0  0  0  0
 22 24  1  0  0  0  0
 25 26  1  0  0  0  0
 25 22  1  0  0  0  0
 27 25  1  0  0  0  0
M  END
