1,3
 OpenBabel05122313053D

 14 14  0  0  0  0  0  0  0  0999 V2000
    0.1966    0.3422   -2.0553 N   0  0  0  0  0  2  0  0  0  0  0  0
    0.3087   -0.2763   -2.8643 H   0  0  0  0  0  0  0  0  0  0  0  0
    0.0113    1.7851    0.1021 C   0  0  0  0  0  3  0  0  0  0  0  0
   -0.1164    2.6250    1.2421 C   0  0  0  0  0  0  0  0  0  0  0  0
   -0.2655    2.1699    2.2341 H   0  0  0  0  0  0  0  0  0  0  0  0
   -0.0459    4.0230    1.1600 C   0  0  0  0  0  0  0  0  0  0  0  0
   -0.1491    4.6253    2.0776 H   0  0  0  0  0  0  0  0  0  0  0  0
    0.1618    4.6733   -0.0763 C   0  0  0  0  0  0  0  0  0  0  0  0
    0.2193    5.7710   -0.1269 H   0  0  0  0  0  0  0  0  0  0  0  0
    0.2910    3.8994   -1.2294 C   0  0  0  0  0  0  0  0  0  0  0  0
    0.4520    4.3785   -2.2095 H   0  0  0  0  0  0  0  0  0  0  0  0
    0.2131    2.4878   -1.1443 C   0  0  0  0  0  0  0  0  0  0  0  0
    0.3322    1.6281   -2.2900 C   0  0  0  0  0  3  0  0  0  0  0  0
    0.5191    2.0142   -3.3093 H   0  0  0  0  0  0  0  0  0  0  0  0
  2  1  1  0  0  0  0
  3  4  1  0  0  0  0
  4  5  1  0  0  0  0
  6  4  2  0  0  0  0
  6  7  1  0  0  0  0
  8  6  1  0  0  0  0
  9  8  1  0  0  0  0
 10 12  1  0  0  0  0
 10  8  2  0  0  0  0
 11 10  1  0  0  0  0
 12  3  2  0  0  0  0
 13  1  1  0  0  0  0
 13 12  1  0  0  0  0
 14 13  1  0  0  0  0
M  END
