1,11
 OpenBabel05122313053D

 28 28  0  0  0  0  0  0  0  0999 V2000
    1.3363   -0.3606   -0.0164 N   0  0  0  0  0  2  0  0  0  0  0  0
    2.3449    0.5544    0.0558 C   0  0  0  0  0  0  0  0  0  0  0  0
    1.9340    1.8961    0.2899 C   0  0  0  0  0  0  0  0  0  0  0  0
    2.8603    2.9262    0.4614 C   0  0  0  0  0  0  0  0  0  0  0  0
    4.2385    2.6515    0.3701 C   0  0  0  0  0  0  0  0  0  0  0  0
    4.6552    1.3362    0.1006 C   0  0  0  0  0  0  0  0  0  0  0  0
    3.7485    0.2741   -0.0614 C   0  0  0  0  0  0  0  0  0  0  0  0
    4.1959   -1.1633   -0.2750 C   0  0  0  0  0  0  0  0  0  0  0  0
    5.5623   -1.3103   -0.9537 C   0  0  0  0  0  0  0  0  0  0  0  0
    4.1604   -1.9388    1.0578 C   0  0  0  0  0  0  0  0  0  0  0  0
    0.4497    2.1157    0.2747 C   0  0  0  0  0  3  0  0  0  0  0  0
   -0.2999    1.9845    1.4818 C   0  0  0  0  0  3  0  0  0  0  0  0
   -0.2068    2.1965   -0.9980 C   0  0  0  0  0  3  0  0  0  0  0  0
    1.6236   -1.2786   -0.3550 H   0  0  0  0  0  0  0  0  0  0  0  0
    2.5035    3.9523    0.6460 H   0  0  0  0  0  0  0  0  0  0  0  0
    4.9788    3.4555    0.4934 H   0  0  0  0  0  0  0  0  0  0  0  0
    5.7338    1.1304    0.0166 H   0  0  0  0  0  0  0  0  0  0  0  0
    3.4500   -1.6400   -0.9571 H   0  0  0  0  0  0  0  0  0  0  0  0
    5.6059   -0.7453   -1.9063 H   0  0  0  0  0  0  0  0  0  0  0  0
    5.7808   -2.3762   -1.1706 H   0  0  0  0  0  0  0  0  0  0  0  0
    6.3807   -0.9375   -0.3035 H   0  0  0  0  0  0  0  0  0  0  0  0
    3.1913   -1.7919    1.5756 H   0  0  0  0  0  0  0  0  0  0  0  0
    4.3208   -3.0281    0.9105 H   0  0  0  0  0  0  0  0  0  0  0  0
    4.9524   -1.5614    1.7370 H   0  0  0  0  0  0  0  0  0  0  0  0
    0.2694    1.8171    2.4094 H   0  0  0  0  0  0  0  0  0  0  0  0
   -1.2306    2.5584    1.6173 H   0  0  0  0  0  0  0  0  0  0  0  0
    0.4564    2.1950   -1.8790 H   0  0  0  0  0  0  0  0  0  0  0  0
   -1.1258    2.7854   -1.1248 H   0  0  0  0  0  0  0  0  0  0  0  0
  1  2  1  0  0  0  0
  2  3  1  0  0  0  0
  3  4  2  0  0  0  0
  4 15  1  0  0  0  0
  5  4  1  0  0  0  0
  5 16  1  0  0  0  0
  6  5  2  0  0  0  0
  7  2  2  0  0  0  0
  7  6  1  0  0  0  0
  8  7  1  0  0  0  0
  8 10  1  0  0  0  0
  9 21  1  0  0  0  0
  9  8  1  0  0  0  0
 10 22  1  0  0  0  0
 10 24  1  0  0  0  0
 11  3  1  0  0  0  0
 11 12  1  0  0  0  0
 12 26  1  0  0  0  0
 12 25  1  0  0  0  0
 13 11  1  0  0  0  0
 14  1  1  0  0  0  0
 17  6  1  0  0  0  0
 18  8  1  0  0  0  0
 19  9  1  0  0  0  0
 20  9  1  0  0  0  0
 23 10  1  0  0  0  0
 27 13  1  0  0  0  0
 28 13  1  0  0  0  0
M  END
