1,3
 OpenBabel05122313053D

 29 29  0  0  0  0  0  0  0  0999 V2000
    1.0243    0.7178   -0.0051 N   0  0  0  0  0  2  0  0  0  0  0  0
   -2.1139    0.4637   -1.1650 C   0  0  0  0  0  0  0  0  0  0  0  0
   -2.6200   -0.7220   -0.5534 C   0  0  0  0  0  3  0  0  0  0  0  0
   -2.5414   -0.5546    0.8556 C   0  0  0  0  0  0  0  0  0  0  0  0
   -1.9745    0.7270    1.1146 C   0  0  0  0  0  0  0  0  0  0  0  0
   -1.7299    1.3744   -0.1387 C   0  0  0  0  0  0  0  0  0  0  0  0
   -1.1955    2.7628   -0.3261 C   0  0  0  0  0  0  0  0  0  0  0  0
    0.1194    3.0063    0.4209 C   0  0  0  0  0  0  0  0  0  0  0  0
    1.2598    2.1447   -0.1064 C   0  0  0  0  0  0  0  0  0  0  0  0
    2.2402   -0.1275   -0.0348 C   0  0  0  0  0  0  0  0  0  0  0  0
    3.0724    0.0177    1.2452 C   0  0  0  0  0  0  0  0  0  0  0  0
    3.0459    0.0599   -1.3256 C   0  0  0  0  0  0  0  0  0  0  0  0
   -1.9921    0.6295   -2.2423 H   0  0  0  0  0  0  0  0  0  0  0  0
   -2.9493   -1.6245   -1.0809 H   0  0  0  0  0  0  0  0  0  0  0  0
   -2.8030   -1.3039    1.6104 H   0  0  0  0  0  0  0  0  0  0  0  0
   -1.7444    1.1332    2.1069 H   0  0  0  0  0  0  0  0  0  0  0  0
   -1.9619    3.4870    0.0257 H   0  0  0  0  0  0  0  0  0  0  0  0
   -1.0538    2.9584   -1.4096 H   0  0  0  0  0  0  0  0  0  0  0  0
    0.4122    4.0722    0.3227 H   0  0  0  0  0  0  0  0  0  0  0  0
   -0.0166    2.8131    1.5065 H   0  0  0  0  0  0  0  0  0  0  0  0
    1.4615    2.4226   -1.1698 H   0  0  0  0  0  0  0  0  0  0  0  0
    2.1862    2.4046    0.4539 H   0  0  0  0  0  0  0  0  0  0  0  0
    1.8830   -1.1882   -0.0463 H   0  0  0  0  0  0  0  0  0  0  0  0
    3.9182   -0.6980    1.2351 H   0  0  0  0  0  0  0  0  0  0  0  0
    2.4449   -0.1983    2.1315 H   0  0  0  0  0  0  0  0  0  0  0  0
    3.5001    1.0367    1.3433 H   0  0  0  0  0  0  0  0  0  0  0  0
    3.8720   -0.6769   -1.3722 H   0  0  0  0  0  0  0  0  0  0  0  0
    3.4954    1.0723   -1.3811 H   0  0  0  0  0  0  0  0  0  0  0  0
    2.3940   -0.0961   -2.2073 H   0  0  0  0  0  0  0  0  0  0  0  0
  2  3  1  0  0  0  0
  2  6  2  0  0  0  0
  3  4  1  0  0  0  0
  4  5  2  0  0  0  0
  4 15  1  0  0  0  0
  5 16  1  0  0  0  0
  6  5  1  0  0  0  0
  7  6  1  0  0  0  0
  7 17  1  0  0  0  0
  7  8  1  0  0  0  0
  8 20  1  0  0  0  0
  9  1  1  0  0  0  0
  9  8  1  0  0  0  0
  9 22  1  0  0  0  0
 10  1  1  0  0  0  0
 10 11  1  0  0  0  0
 11 26  1  0  0  0  0
 11 25  1  0  0  0  0
 12 10  1  0  0  0  0
 13  2  1  0  0  0  0
 14  3  1  0  0  0  0
 18  7  1  0  0  0  0
 19  8  1  0  0  0  0
 21  9  1  0  0  0  0
 23 10  1  0  0  0  0
 24 11  1  0  0  0  0
 27 12  1  0  0  0  0
 28 12  1  0  0  0  0
 29 12  1  0  0  0  0
M  END
