1
 OpenBabel05122313053D

 44 46  0  0  0  0  0  0  0  0999 V2000
    1.7306    0.2657   -0.1026 N   0  0  0  0  0  2  0  0  0  0  0  0
    2.4965   -0.2532    1.4099 Si  0  0  0  0  0  0  0  0  0  0  0  0
   -0.2964   -0.2893    1.8334 C   0  0  0  0  0  3  0  0  0  0  0  0
   -1.1819    0.8290    1.6179 C   0  0  0  0  0  0  0  0  0  0  0  0
   -1.0807    2.2016    1.9943 C   0  0  0  0  0  0  0  0  0  0  0  0
   -2.0938    3.0775    1.6305 C   0  0  0  0  0  0  0  0  0  0  0  0
   -3.2175    2.6450    0.8667 C   0  0  0  0  0  0  0  0  0  0  0  0
   -3.3337    1.3251    0.4539 C   0  0  0  0  0  0  0  0  0  0  0  0
   -2.3187    0.3973    0.8156 C   0  0  0  0  0  0  0  0  0  0  0  0
   -2.1607   -1.0264    0.5786 C   0  0  0  0  0  0  0  0  0  0  0  0
   -2.9654   -1.9818   -0.1007 C   0  0  0  0  0  0  0  0  0  0  0  0
   -2.5641   -3.3103   -0.1183 C   0  0  0  0  0  0  0  0  0  0  0  0
   -1.3620   -3.7207    0.5293 C   0  0  0  0  0  0  0  0  0  0  0  0
   -0.5474   -2.8148    1.1939 C   0  0  0  0  0  0  0  0  0  0  0  0
   -0.9343   -1.4422    1.2469 C   0  0  0  0  0  0  0  0  0  0  0  0
    0.9960   -0.2694    2.5964 C   0  0  0  0  0  0  0  0  0  0  0  0
    3.2407   -1.9910    1.2817 C   0  0  0  0  0  0  0  0  0  0  0  0
    3.8325    0.9312    2.0342 C   0  0  0  0  0  0  0  0  0  0  0  0
    2.4255    0.6497   -1.3491 C   0  0  0  0  0  0  0  0  0  0  0  0
    3.4566   -0.3872   -1.8085 C   0  0  0  0  0  0  0  0  0  0  0  0
    3.0046    2.0682   -1.2793 C   0  0  0  0  0  0  0  0  0  0  0  0
   -0.2187    2.5496    2.5825 H   0  0  0  0  0  0  0  0  0  0  0  0
   -2.0288    4.1337    1.9322 H   0  0  0  0  0  0  0  0  0  0  0  0
   -3.9957    3.3729    0.5949 H   0  0  0  0  0  0  0  0  0  0  0  0
   -4.1963    0.9942   -0.1432 H   0  0  0  0  0  0  0  0  0  0  0  0
   -3.8937   -1.6660   -0.5996 H   0  0  0  0  0  0  0  0  0  0  0  0
   -3.1771   -4.0593   -0.6402 H   0  0  0  0  0  0  0  0  0  0  0  0
   -1.0746   -4.7825    0.4970 H   0  0  0  0  0  0  0  0  0  0  0  0
    0.3731   -3.1472    1.6954 H   0  0  0  0  0  0  0  0  0  0  0  0
    1.0619   -1.1403    3.2832 H   0  0  0  0  0  0  0  0  0  0  0  0
    1.0418    0.6344    3.2384 H   0  0  0  0  0  0  0  0  0  0  0  0
    4.1861   -1.9952    0.7036 H   0  0  0  0  0  0  0  0  0  0  0  0
    2.5372   -2.6856    0.7802 H   0  0  0  0  0  0  0  0  0  0  0  0
    3.4630   -2.3909    2.2934 H   0  0  0  0  0  0  0  0  0  0  0  0
    4.7250    0.9306    1.3759 H   0  0  0  0  0  0  0  0  0  0  0  0
    4.1676    0.6236    3.0471 H   0  0  0  0  0  0  0  0  0  0  0  0
    3.4513    1.9703    2.0977 H   0  0  0  0  0  0  0  0  0  0  0  0
    1.6471    0.6804   -2.1649 H   0  0  0  0  0  0  0  0  0  0  0  0
    3.0017   -1.3952   -1.8664 H   0  0  0  0  0  0  0  0  0  0  0  0
    4.3137   -0.4259   -1.1044 H   0  0  0  0  0  0  0  0  0  0  0  0
    3.8576   -0.1261   -2.8082 H   0  0  0  0  0  0  0  0  0  0  0  0
    2.2159    2.7945   -1.0026 H   0  0  0  0  0  0  0  0  0  0  0  0
    3.4270    2.3701   -2.2592 H   0  0  0  0  0  0  0  0  0  0  0  0
    3.8150    2.1244   -0.5256 H   0  0  0  0  0  0  0  0  0  0  0  0
  1  2  1  0  0  0  0
  2 18  1  0  0  0  0
  2 16  1  0  0  0  0
  3 16  1  0  0  0  0
  4  3  1  0  0  0  0
  4  5  1  0  0  0  0
  5 22  1  0  0  0  0
  6 23  1  0  0  0  0
  6  5  2  0  0  0  0
  7  6  1  0  0  0  0
  8  9  1  0  0  0  0
  8  7  2  0  0  0  0
  9  4  2  0  0  0  0
 10  9  1  0  0  0  0
 10 15  1  0  0  0  0
 11 10  2  0  0  0  0
 12 11  1  0  0  0  0
 12 13  2  0  0  0  0
 13 14  1  0  0  0  0
 14 15  2  0  0  0  0
 14 29  1  0  0  0  0
 15  3  1  0  0  0  0
 16 31  1  0  0  0  0
 16 30  1  0  0  0  0
 17  2  1  0  0  0  0
 17 34  1  0  0  0  0
 18 37  1  0  0  0  0
 18 36  1  0  0  0  0
 19 21  1  0  0  0  0
 19  1  1  0  0  0  0
 20 19  1  0  0  0  0
 20 40  1  0  0  0  0
 21 42  1  0  0  0  0
 21 44  1  0  0  0  0
 24  7  1  0  0  0  0
 25  8  1  0  0  0  0
 26 11  1  0  0  0  0
 27 12  1  0  0  0  0
 28 13  1  0  0  0  0
 32 17  1  0  0  0  0
 33 17  1  0  0  0  0
 35 18  1  0  0  0  0
 38 19  1  0  0  0  0
 39 20  1  0  0  0  0
 41 20  1  0  0  0  0
 43 21  1  0  0  0  0
M  END
