3,4
 OpenBabel05122313053D

 30 32  0  0  1  0  0  0  0  0999 V2000
    1.5902   -1.2446    0.5357 N   0  0  0  0  0  0  0  0  0  0  0  0
    1.1226    0.8794    0.2660 N   0  0  0  0  0  0  0  0  0  0  0  0
   -1.0579    1.5953    0.2274 N   0  0  0  0  0  2  0  0  0  0  0  0
    0.5457   -0.3784    0.4720 C   0  0  0  0  0  2  0  0  0  0  0  0
    2.8088   -0.5897    0.3288 C   0  0  0  0  0  0  0  0  0  0  0  0
    4.1164   -1.0866    0.2818 C   0  0  0  0  0  0  0  0  0  0  0  0
    4.3249   -2.1581    0.4048 H   0  0  0  0  0  0  0  0  0  0  0  0
    5.1503   -0.1639    0.0611 C   0  0  0  0  0  0  0  0  0  0  0  0
    6.1903   -0.5182    0.0157 H   0  0  0  0  0  0  0  0  0  0  0  0
    4.8738    1.2061   -0.1083 C   0  0  0  0  0  0  0  0  0  0  0  0
    5.7014    1.9085   -0.2842 H   0  0  0  0  0  0  0  0  0  0  0  0
    3.5607    1.7043   -0.0631 C   0  0  0  0  0  0  0  0  0  0  0  0
    3.3878    2.7764   -0.2056 H   0  0  0  0  0  0  0  0  0  0  0  0
    2.5211    0.7883    0.1585 C   0  0  0  0  0  0  0  0  0  0  0  0
    0.2478    1.9605    0.1351 C   0  0  1  0  0  3  0  0  0  0  0  0
    0.6442    3.2933   -0.0639 C   0  0  0  0  0  0  0  0  0  0  0  0
    1.7023    3.5619   -0.1253 H   0  0  0  0  0  0  0  0  0  0  0  0
   -0.3445    4.2749   -0.1800 C   0  0  0  0  0  0  0  0  0  0  0  0
   -0.0580    5.3245   -0.3394 H   0  0  0  0  0  0  0  0  0  0  0  0
   -1.6932    3.9016   -0.0907 C   0  0  0  0  0  0  0  0  0  0  0  0
   -2.5034    4.6381   -0.1791 H   0  0  0  0  0  0  0  0  0  0  0  0
   -2.0010    2.5555    0.1155 C   0  0  0  0  0  0  0  0  0  0  0  0
   -3.0438    2.2178    0.1881 H   0  0  0  0  0  0  0  0  0  0  0  0
    1.4773   -2.6980    0.6592 C   0  0  0  0  0  0  0  0  0  0  0  0
    0.5741   -2.9048    1.2587 H   0  0  0  0  0  0  0  0  0  0  0  0
    2.3455   -3.0441    1.2564 H   0  0  0  0  0  0  0  0  0  0  0  0
    1.4102   -3.3914   -0.6993 C   0  0  0  0  0  0  0  0  0  0  0  0
    1.2526   -4.4786   -0.5594 H   0  0  0  0  0  0  0  0  0  0  0  0
    2.3469   -3.2450   -1.2737 H   0  0  0  0  0  0  0  0  0  0  0  0
    0.5716   -2.9833   -1.2987 H   0  0  0  0  0  0  0  0  0  0  0  0
  1 24  1  0  0  0  0
  2  4  1  0  0  0  0
  4  1  1  0  0  0  0
  5  1  1  0  0  0  0
  6  5  1  0  0  0  0
  6  7  1  0  0  0  0
  8  6  2  0  0  0  0
  9  8  1  0  0  0  0
 10 12  2  0  0  0  0
 10  8  1  0  0  0  0
 11 10  1  0  0  0  0
 12 14  1  0  0  0  0
 13 12  1  0  0  0  0
 14  2  1  0  0  0  0
 14  5  2  0  0  0  0
 15  3  1  0  0  0  0
 15  2  1  1  0  0  0
 16 15  1  0  0  0  0
 17 16  1  0  0  0  0
 18 20  1  0  0  0  0
 18 16  2  0  0  0  0
 19 18  1  0  0  0  0
 20 22  2  0  0  0  0
 21 20  1  0  0  0  0
 22 23  1  0  0  0  0
 22  3  1  0  0  0  0
 24 26  1  0  0  0  0
 24 25  1  0  0  0  0
 27 28  1  0  0  0  0
 27 24  1  0  0  0  0
 29 27  1  0  0  0  0
 30 27  1  0  0  0  0
M  END
