4,5
 OpenBabel05122313053D

 33 34  0  0  1  0  0  0  0  0999 V2000
    3.7165   -1.3684    1.9920 O   0  0  0  0  0  0  0  0  0  0  0  0
   -0.6128    1.5522   -0.1194 O   0  0  0  0  0  0  0  0  0  0  0  0
   -6.1881   -1.1474    0.5011 O   0  0  0  0  0  0  0  0  0  0  0  0
    1.6021    1.2022    0.1339 N   0  0  0  0  0  2  0  0  0  0  0  0
    3.1600   -0.6547    1.1928 C   0  0  0  0  0  3  0  0  0  0  0  0
    3.8706    0.5815    0.6046 C   0  0  0  0  0  0  0  0  0  0  0  0
    4.6879    0.9354    1.2654 H   0  0  0  0  0  0  0  0  0  0  0  0
    4.3178    0.1912   -0.3394 H   0  0  0  0  0  0  0  0  0  0  0  0
    2.8820    1.6412    0.2729 C   0  0  2  0  0  3  0  0  0  0  0  0
    3.2101    2.9988    0.1384 C   0  0  0  0  0  0  0  0  0  0  0  0
    4.2544    3.3172    0.2567 H   0  0  0  0  0  0  0  0  0  0  0  0
    2.1932    3.9149   -0.1489 C   0  0  0  0  0  0  0  0  0  0  0  0
    2.4238    4.9834   -0.2742 H   0  0  0  0  0  0  0  0  0  0  0  0
    0.8714    3.4709   -0.2660 C   0  0  0  0  0  0  0  0  0  0  0  0
    0.0557    4.1729   -0.4764 H   0  0  0  0  0  0  0  0  0  0  0  0
    0.6091    2.0977   -0.0953 C   0  0  0  0  0  0  0  0  0  0  0  0
   -1.7911    2.3823   -0.2073 C   0  0  0  0  0  0  0  0  0  0  0  0
   -1.8103    2.9031   -1.1891 H   0  0  0  0  0  0  0  0  0  0  0  0
   -1.7377    3.1494    0.5977 H   0  0  0  0  0  0  0  0  0  0  0  0
   -2.9856    1.4887   -0.0441 C   0  0  0  0  0  0  0  0  0  0  0  0
   -3.2051    0.8167    1.1797 C   0  0  0  0  0  0  0  0  0  0  0  0
   -2.5079    0.9657    2.0190 H   0  0  0  0  0  0  0  0  0  0  0  0
   -4.2793   -0.0570    1.3315 C   0  0  0  0  0  0  0  0  0  0  0  0
   -4.4571   -0.5904    2.2762 H   0  0  0  0  0  0  0  0  0  0  0  0
   -5.1716   -0.2815    0.2571 C   0  0  0  0  0  0  0  0  0  0  0  0
   -4.9625    0.3821   -0.9692 C   0  0  0  0  0  0  0  0  0  0  0  0
   -5.6335    0.2204   -1.8228 H   0  0  0  0  0  0  0  0  0  0  0  0
   -3.8690    1.2509   -1.1076 C   0  0  0  0  0  0  0  0  0  0  0  0
   -3.7019    1.7495   -2.0755 H   0  0  0  0  0  0  0  0  0  0  0  0
   -7.1016   -1.4290   -0.5437 C   0  0  0  0  0  0  0  0  0  0  0  0
   -7.6448   -0.5161   -0.8762 H   0  0  0  0  0  0  0  0  0  0  0  0
   -7.8311   -2.1520   -0.1346 H   0  0  0  0  0  0  0  0  0  0  0  0
   -6.5954   -1.8843   -1.4240 H   0  0  0  0  0  0  0  0  0  0  0  0
  2 16  1  0  0  0  0
  4  9  1  0  0  0  0
  5  1  2  0  0  0  0
  6  5  1  0  0  0  0
  6  7  1  0  0  0  0
  8  6  1  0  0  0  0
  9  6  1  1  0  0  0
 10 11  1  0  0  0  0
 10  9  1  0  0  0  0
 12 10  2  0  0  0  0
 13 12  1  0  0  0  0
 14 12  1  0  0  0  0
 14 16  2  0  0  0  0
 15 14  1  0  0  0  0
 16  4  1  0  0  0  0
 17  2  1  0  0  0  0
 17 20  1  0  0  0  0
 17 19  1  0  0  0  0
 18 17  1  0  0  0  0
 20 21  1  0  0  0  0
 21 23  2  0  0  0  0
 21 22  1  0  0  0  0
 23 24  1  0  0  0  0
 25  3  1  0  0  0  0
 25 23  1  0  0  0  0
 26 25  2  0  0  0  0
 27 26  1  0  0  0  0
 28 26  1  0  0  0  0
 28 20  2  0  0  0  0
 29 28  1  0  0  0  0
 30 32  1  0  0  0  0
 30  3  1  0  0  0  0
 31 30  1  0  0  0  0
 33 30  1  0  0  0  0
M  END
