1,5
 OpenBabel05122313053D

 46 48  0  0  0  0  0  0  0  0999 V2000
   -1.3058   -1.9440   -0.0080 N   0  0  0  0  0  2  0  0  0  0  0  0
   -1.7592    0.2296   -1.8966 O   0  0  0  0  0  0  0  0  0  0  0  0
   -5.6981    2.7689   -1.1269 O   0  0  0  0  0  0  0  0  0  0  0  0
   -5.0533   -1.5725    0.9509 O   0  0  0  0  0  0  0  0  0  0  0  0
    1.0487   -1.5611   -1.4412 C   0  0  0  0  0  2  0  0  0  0  0  0
    1.6266   -0.9603   -2.5768 C   0  0  0  0  0  0  0  0  0  0  0  0
    1.6917    0.1366   -2.6401 H   0  0  0  0  0  0  0  0  0  0  0  0
    2.1555   -1.7234   -3.6307 C   0  0  0  0  0  0  0  0  0  0  0  0
    2.6072   -1.2193   -4.4998 H   0  0  0  0  0  0  0  0  0  0  0  0
    2.1113   -3.1237   -3.5664 C   0  0  0  0  0  0  0  0  0  0  0  0
    2.5157   -3.7354   -4.3871 H   0  0  0  0  0  0  0  0  0  0  0  0
    1.5312   -3.7412   -2.4512 C   0  0  0  0  0  0  0  0  0  0  0  0
    1.4617   -4.8396   -2.4153 H   0  0  0  0  0  0  0  0  0  0  0  0
    0.9959   -2.9824   -1.3826 C   0  0  0  0  0  0  0  0  0  0  0  0
    0.4031   -3.6860   -0.2175 C   0  0  0  0  0  0  0  0  0  0  0  0
    0.9417   -4.8984    0.2611 C   0  0  0  0  0  3  0  0  0  0  0  0
    1.8398   -5.3039   -0.2283 H   0  0  0  0  0  0  0  0  0  0  0  0
    0.3856   -5.5738    1.3570 C   0  0  0  0  0  0  0  0  0  0  0  0
    0.8454   -6.5068    1.7162 H   0  0  0  0  0  0  0  0  0  0  0  0
   -0.7366   -5.0405    2.0087 C   0  0  0  0  0  0  0  0  0  0  0  0
   -1.1641   -5.5453    2.8881 H   0  0  0  0  0  0  0  0  0  0  0  0
   -1.2996   -3.8419    1.5520 C   0  0  0  0  0  0  0  0  0  0  0  0
   -2.1544   -3.3896    2.0759 H   0  0  0  0  0  0  0  0  0  0  0  0
   -0.7478   -3.1672    0.4436 C   0  0  0  0  0  0  0  0  0  0  0  0
   -2.6028   -1.8197   -0.0785 C   0  0  0  0  0  3  0  0  0  0  0  0
   -3.2065   -2.7035    0.2062 H   0  0  0  0  0  0  0  0  0  0  0  0
   -3.3747   -0.6470   -0.4196 C   0  0  0  0  0  0  0  0  0  0  0  0
   -2.9419    0.4134   -1.2781 C   0  0  0  0  0  0  0  0  0  0  0  0
   -3.7439    1.5408   -1.4919 C   0  0  0  0  0  0  0  0  0  0  0  0
   -3.4244    2.3714   -2.1301 H   0  0  0  0  0  0  0  0  0  0  0  0
   -5.0043    1.6304   -0.8719 C   0  0  0  0  0  0  0  0  0  0  0  0
   -5.4907    0.5887   -0.0572 C   0  0  0  0  0  0  0  0  0  0  0  0
   -6.4703    0.6634    0.4234 H   0  0  0  0  0  0  0  0  0  0  0  0
   -4.6769   -0.5367    0.1539 C   0  0  0  0  0  0  0  0  0  0  0  0
   -1.2940    1.2172   -2.8061 C   0  0  0  0  0  0  0  0  0  0  0  0
   -0.3459    0.8257   -3.2125 H   0  0  0  0  0  0  0  0  0  0  0  0
   -1.1010    2.1822   -2.2929 H   0  0  0  0  0  0  0  0  0  0  0  0
   -2.0182    1.3707   -3.6354 H   0  0  0  0  0  0  0  0  0  0  0  0
   -6.9725    2.9389   -0.5346 C   0  0  0  0  0  0  0  0  0  0  0  0
   -7.3425    3.9258   -0.8685 H   0  0  0  0  0  0  0  0  0  0  0  0
   -6.9160    2.9312    0.5766 H   0  0  0  0  0  0  0  0  0  0  0  0
   -7.6903    2.1544   -0.8635 H   0  0  0  0  0  0  0  0  0  0  0  0
   -6.3224   -1.5390    1.5750 C   0  0  0  0  0  0  0  0  0  0  0  0
   -6.4086   -2.4775    2.1530 H   0  0  0  0  0  0  0  0  0  0  0  0
   -7.1496   -1.4935    0.8320 H   0  0  0  0  0  0  0  0  0  0  0  0
   -6.4135   -0.6765    2.2714 H   0  0  0  0  0  0  0  0  0  0  0  0
  1 24  1  0  0  0  0
  2 28  1  0  0  0  0
  3 31  1  0  0  0  0
  3 39  1  0  0  0  0
  4 43  1  0  0  0  0
  5 14  1  0  0  0  0
  6  5  1  0  0  0  0
  7  6  1  0  0  0  0
  8 10  1  0  0  0  0
  8  6  2  0  0  0  0
  9  8  1  0  0  0  0
 10 12  2  0  0  0  0
 11 10  1  0  0  0  0
 12 13  1  0  0  0  0
 12 14  1  0  0  0  0
 14 15  2  0  0  0  0
 15 16  1  0  0  0  0
 15 24  1  0  0  0  0
 16 18  1  0  0  0  0
 17 16  1  0  0  0  0
 18 19  1  0  0  0  0
 18 20  2  0  0  0  0
 20 21  1  0  0  0  0
 22 20  1  0  0  0  0
 22 23  1  0  0  0  0
 24 22  2  0  0  0  0
 25  1  1  0  0  0  0
 25 26  1  0  0  0  0
 27 25  1  0  0  0  0
 27 34  1  0  0  0  0
 28 27  2  0  0  0  0
 29 28  1  0  0  0  0
 29 31  2  0  0  0  0
 30 29  1  0  0  0  0
 31 32  1  0  0  0  0
 32 34  2  0  0  0  0
 32 33  1  0  0  0  0
 34  4  1  0  0  0  0
 35 37  1  0  0  0  0
 35  2  1  0  0  0  0
 36 35  1  0  0  0  0
 38 35  1  0  0  0  0
 39 41  1  0  0  0  0
 40 39  1  0  0  0  0
 42 39  1  0  0  0  0
 43 44  1  0  0  0  0
 43 46  1  0  0  0  0
 45 43  1  0  0  0  0
M  END
