6,18
 OpenBabel05122313053D

 43 47  0  0  1  0  0  0  0  0999 V2000
   -0.4921    0.6072   -0.6118 N   0  0  0  0  0  0  0  0  0  0  0  0
   -1.8343    0.3696   -0.8115 C   0  0  1  0  0  3  0  0  0  0  0  0
   -1.9035   -0.9515   -1.1536 N   0  0  0  0  0  0  0  0  0  0  0  0
   -0.6105   -1.4878   -1.1513 C   0  0  0  0  0  0  0  0  0  0  0  0
   -0.4681   -2.5531   -1.3507 H   0  0  0  0  0  0  0  0  0  0  0  0
    0.3174   -0.5206   -0.7848 C   0  0  0  0  0  3  0  0  0  0  0  0
   -2.7788    1.4170   -0.5755 C   0  0  0  0  0  0  0  0  0  0  0  0
   -3.1069   -1.7819   -1.1560 C   0  0  0  0  0  0  0  0  0  0  0  0
   -2.7805   -2.7893   -1.4854 H   0  0  0  0  0  0  0  0  0  0  0  0
   -3.8248   -1.4094   -1.9118 H   0  0  0  0  0  0  0  0  0  0  0  0
   -5.1615   -2.0237    0.2903 C   0  0  0  0  0  0  0  0  0  0  0  0
   -5.7588   -2.0879   -0.6329 H   0  0  0  0  0  0  0  0  0  0  0  0
   -3.7686   -1.8441    0.2090 C   0  0  0  0  0  0  0  0  0  0  0  0
   -3.0121   -1.7275    1.3920 C   0  0  0  0  0  0  0  0  0  0  0  0
   -1.9173   -1.5848    1.3604 H   0  0  0  0  0  0  0  0  0  0  0  0
   -5.7964   -2.0864    1.5388 C   0  0  0  0  0  0  0  0  0  0  0  0
   -6.8878   -2.2180    1.5902 H   0  0  0  0  0  0  0  0  0  0  0  0
    1.3471    1.7594    0.1137 N   0  0  0  0  0  2  0  0  0  0  0  0
   -2.2726    2.6316   -0.1138 C   0  0  0  0  0  0  0  0  0  0  0  0
   -2.9773    3.4571    0.0641 H   0  0  0  0  0  0  0  0  0  0  0  0
   -0.8734    2.8548    0.1263 C   0  0  0  0  0  0  0  0  0  0  0  0
   -5.1398    1.4413    0.2670 C   0  0  0  0  0  0  0  0  0  0  0  0
   -4.7456    1.6790    1.2661 H   0  0  0  0  0  0  0  0  0  0  0  0
   -4.2374    1.2407   -0.7983 C   0  0  0  0  0  0  0  0  0  0  0  0
    1.8893    2.9101    0.5715 C   0  0  0  0  0  3  0  0  0  0  0  0
    2.9688    2.8547    0.7921 H   0  0  0  0  0  0  0  0  0  0  0  0
   -4.7442    0.9043   -2.0722 C   0  0  0  0  0  0  0  0  0  0  0  0
   -4.0484    0.7821   -2.9171 H   0  0  0  0  0  0  0  0  0  0  0  0
    0.0142    1.7812   -0.1243 C   0  0  0  0  0  0  0  0  0  0  0  0
    1.1093    4.0591    0.8135 C   0  0  0  0  0  0  0  0  0  0  0  0
    1.6119    4.9622    1.1880 H   0  0  0  0  0  0  0  0  0  0  0  0
   -0.2716    4.0462    0.6093 C   0  0  0  0  0  0  0  0  0  0  0  0
   -0.8915    4.9294    0.8223 H   0  0  0  0  0  0  0  0  0  0  0  0
   -5.0431   -1.9619    2.7170 C   0  0  0  0  0  0  0  0  0  0  0  0
   -5.5411   -2.0022    3.6977 H   0  0  0  0  0  0  0  0  0  0  0  0
   -3.6526   -1.7831    2.6393 C   0  0  0  0  0  0  0  0  0  0  0  0
   -3.0506   -1.6850    3.5551 H   0  0  0  0  0  0  0  0  0  0  0  0
   -6.5187    1.2934    0.0662 C   0  0  0  0  0  0  0  0  0  0  0  0
   -7.2098    1.4360    0.9103 H   0  0  0  0  0  0  0  0  0  0  0  0
   -6.1247    0.7562   -2.2702 C   0  0  0  0  0  0  0  0  0  0  0  0
   -6.5088    0.5012   -3.2695 H   0  0  0  0  0  0  0  0  0  0  0  0
   -7.0146    0.9464   -1.2003 C   0  0  0  0  0  0  0  0  0  0  0  0
   -8.0973    0.8269   -1.3562 H   0  0  0  0  0  0  0  0  0  0  0  0
  1 29  1  0  0  0  0
  2  1  1  0  0  0  0
  2  7  1  1  0  0  0
  3  4  1  0  0  0  0
  3  2  1  0  0  0  0
  4  6  2  0  0  0  0
  5  4  1  0  0  0  0
  6  1  1  0  0  0  0
  7 19  2  0  0  0  0
  8  3  1  0  0  0  0
  8 13  1  0  0  0  0
  9  8  1  0  0  0  0
 10  8  1  0  0  0  0
 11 16  1  0  0  0  0
 12 11  1  0  0  0  0
 13 11  2  0  0  0  0
 13 14  1  0  0  0  0
 14 36  2  0  0  0  0
 15 14  1  0  0  0  0
 16 17  1  0  0  0  0
 16 34  2  0  0  0  0
 18 25  1  0  0  0  0
 19 20  1  0  0  0  0
 19 21  1  0  0  0  0
 21 32  1  0  0  0  0
 22 23  1  0  0  0  0
 24  7  1  0  0  0  0
 24 22  2  0  0  0  0
 25 26  1  0  0  0  0
 25 30  1  0  0  0  0
 27 24  1  0  0  0  0
 28 27  1  0  0  0  0
 29 18  1  0  0  0  0
 29 21  2  0  0  0  0
 30 31  1  0  0  0  0
 32 30  2  0  0  0  0
 32 33  1  0  0  0  0
 34 35  1  0  0  0  0
 36 34  1  0  0  0  0
 36 37  1  0  0  0  0
 38 22  1  0  0  0  0
 38 39  1  0  0  0  0
 40 27  2  0  0  0  0
 40 42  1  0  0  0  0
 41 40  1  0  0  0  0
 42 38  2  0  0  0  0
 43 42  1  0  0  0  0
M  END
