1,39
 OpenBabel05122313053D

 39 41  0  0  1  0  0  0  0  0999 V2000
    0.7863   -0.0319   -0.5371 C   0  0  0  0  0  2  0  0  0  0  0  0
    2.6875   -1.2975   -0.4529 C   0  0  0  0  0  0  0  0  0  0  0  0
    3.6555   -2.3104   -0.4596 C   0  0  0  0  0  0  0  0  0  0  0  0
    3.3934   -3.3612   -0.6485 H   0  0  0  0  0  0  0  0  0  0  0  0
    4.9838   -1.9291   -0.2121 C   0  0  0  0  0  0  0  0  0  0  0  0
    5.7709   -2.6973   -0.2079 H   0  0  0  0  0  0  0  0  0  0  0  0
    5.3284   -0.5821    0.0318 C   0  0  0  0  0  0  0  0  0  0  0  0
    6.3793   -0.3213    0.2243 H   0  0  0  0  0  0  0  0  0  0  0  0
    4.3599    0.4336    0.0348 C   0  0  0  0  0  0  0  0  0  0  0  0
    4.6328    1.4802    0.2278 H   0  0  0  0  0  0  0  0  0  0  0  0
    3.0320    0.0582   -0.2133 C   0  0  0  0  0  0  0  0  0  0  0  0
    1.7301    2.2253    0.0093 C   0  0  0  0  0  0  0  0  0  0  0  0
    1.0233    2.6426   -0.7356 H   0  0  0  0  0  0  0  0  0  0  0  0
    2.7251    2.6829   -0.1591 H   0  0  0  0  0  0  0  0  0  0  0  0
    1.2164    2.4936    1.4244 C   0  0  0  0  0  0  0  0  0  0  0  0
    1.9365    2.1004    2.1766 H   0  0  0  0  0  0  0  0  0  0  0  0
    0.2695    1.9239    1.5533 H   0  0  0  0  0  0  0  0  0  0  0  0
    0.9471    3.9814    1.6613 C   0  0  0  0  0  0  0  0  0  0  0  0
    1.8791    4.5634    1.4819 H   0  0  0  0  0  0  0  0  0  0  0  0
    0.2164    4.3285    0.8987 H   0  0  0  0  0  0  0  0  0  0  0  0
    0.4136    4.2767    3.0630 C   0  0  0  0  0  0  0  0  0  0  0  0
   -0.5379    3.7367    3.2486 H   0  0  0  0  0  0  0  0  0  0  0  0
    0.2168    5.3581    3.2052 H   0  0  0  0  0  0  0  0  0  0  0  0
    1.1335    3.9605    3.8469 H   0  0  0  0  0  0  0  0  0  0  0  0
    0.4362   -2.4436   -0.8649 C   0  0  0  0  0  0  0  0  0  0  0  0
    1.0533   -3.3552   -0.9545 H   0  0  0  0  0  0  0  0  0  0  0  0
   -0.1189   -2.2923   -1.8160 H   0  0  0  0  0  0  0  0  0  0  0  0
   -0.5532   -2.5852    0.2692 C   0  0  2  0  0  3  0  0  0  0  0  0
   -0.6677   -3.7678    1.0106 C   0  0  0  0  0  0  0  0  0  0  0  0
   -0.0147   -4.6185    0.7676 H   0  0  0  0  0  0  0  0  0  0  0  0
   -1.6124   -3.8530    2.0427 C   0  0  0  0  0  0  0  0  0  0  0  0
   -1.7141   -4.7753    2.6333 H   0  0  0  0  0  0  0  0  0  0  0  0
   -2.4190   -2.7375    2.3012 C   0  0  0  0  0  0  0  0  0  0  0  0
   -3.1779   -2.7488    3.0961 H   0  0  0  0  0  0  0  0  0  0  0  0
   -2.2597   -1.5819    1.5318 C   0  0  0  0  0  0  0  0  0  0  0  0
   -2.8923   -0.6889    1.6469 H   0  0  0  0  0  0  0  0  0  0  0  0
    1.8488    0.7950   -0.2841 N   0  0  0  0  0  0  0  0  0  0  0  0
    1.3102   -1.2988   -0.6564 N   0  0  0  0  0  0  0  0  0  0  0  0
   -1.3410   -1.5053    0.5346 N   0  0  0  0  0  2  0  0  0  0  0  0
  1 37  1  0  0  0  0
  2 11  1  0  0  0  0
  3  2  2  0  0  0  0
  3  5  1  0  0  0  0
  4  3  1  0  0  0  0
  5  6  1  0  0  0  0
  5  7  2  0  0  0  0
  7  9  1  0  0  0  0
  7  8  1  0  0  0  0
  9 10  1  0  0  0  0
 11  9  2  0  0  0  0
 12 15  1  0  0  0  0
 13 12  1  0  0  0  0
 14 12  1  0  0  0  0
 15 17  1  0  0  0  0
 15 18  1  0  0  0  0
 15 16  1  0  0  0  0
 18 21  1  0  0  0  0
 19 18  1  0  0  0  0
 20 18  1  0  0  0  0
 21 23  1  0  0  0  0
 21 22  1  0  0  0  0
 21 24  1  0  0  0  0
 25 38  1  0  0  0  0
 26 25  1  0  0  0  0
 27 25  1  0  0  0  0
 28 25  1  6  0  0  0
 28 39  1  0  0  0  0
 28 29  1  0  0  0  0
 29 31  2  0  0  0  0
 30 29  1  0  0  0  0
 31 33  1  0  0  0  0
 31 32  1  0  0  0  0
 33 34  1  0  0  0  0
 35 36  1  0  0  0  0
 35 33  2  0  0  0  0
 37 11  1  0  0  0  0
 37 12  1  0  0  0  0
 38  1  1  0  0  0  0
 38  2  1  0  0  0  0
 39 35  1  0  0  0  0
M  END
