1,2
 OpenBabel05122313053D

 19 20  0  0  1  0  0  0  0  0999 V2000
    1.6015    0.8232   -0.4909 N   0  0  0  0  0  2  0  0  0  0  0  0
    1.0436   -0.6496    1.5068 C   0  0  0  0  0  2  0  0  0  0  0  0
    1.6892   -1.5033    2.5825 C   0  0  0  0  0  0  0  0  0  0  0  0
    1.8233   -2.5846    2.3839 H   0  0  0  0  0  0  0  0  0  0  0  0
    1.1827   -1.3868    3.5650 H   0  0  0  0  0  0  0  0  0  0  0  0
    2.9108   -0.5380    2.4791 C   0  0  0  0  0  0  0  0  0  0  0  0
    3.4212   -0.2534    3.4186 H   0  0  0  0  0  0  0  0  0  0  0  0
    3.6527   -0.8892    1.7377 H   0  0  0  0  0  0  0  0  0  0  0  0
    1.9443    0.5337    1.8537 C   0  0  1  0  0  0  0  0  0  0  0  0
    1.5504    1.1879    2.6628 H   0  0  0  0  0  0  0  0  0  0  0  0
    2.2709    1.2956    0.6129 C   0  0  1  0  0  3  0  0  0  0  0  0
    1.8591    1.3906   -1.6982 C   0  0  0  0  0  0  0  0  0  0  0  0
    1.2923    0.9859   -2.5479 H   0  0  0  0  0  0  0  0  0  0  0  0
    2.7759    2.4307   -1.8591 C   0  0  0  0  0  0  0  0  0  0  0  0
    2.9491    2.8441   -2.8625 H   0  0  0  0  0  0  0  0  0  0  0  0
    3.4450    2.9347   -0.7334 C   0  0  0  0  0  0  0  0  0  0  0  0
    4.1653    3.7602   -0.8283 H   0  0  0  0  0  0  0  0  0  0  0  0
    3.1779    2.3582    0.5156 C   0  0  0  0  0  0  0  0  0  0  0  0
    3.6822    2.7148    1.4251 H   0  0  0  0  0  0  0  0  0  0  0  0
  2  9  1  0  0  0  0
  2  3  1  0  0  0  0
  3  5  1  0  0  0  0
  4  3  1  0  0  0  0
  6  3  1  0  0  0  0
  6  7  1  0  0  0  0
  8  6  1  0  0  0  0
  9  6  1  0  0  0  0
  9 10  1  1  0  0  0
 11  1  1  6  0  0  0
 11  9  1  0  0  0  0
 12  1  1  0  0  0  0
 13 12  1  0  0  0  0
 14 12  2  0  0  0  0
 14 16  1  0  0  0  0
 15 14  1  0  0  0  0
 16 18  2  0  0  0  0
 17 16  1  0  0  0  0
 18 11  1  0  0  0  0
 18 19  1  0  0  0  0
M  END
