1,2
 OpenBabel05122313053D

 29 31  0  0  1  0  0  0  0  0999 V2000
    2.0665    0.2012   -0.2087 N   0  0  0  0  0  2  0  0  0  0  0  0
    0.1527    1.4580   -1.4928 C   0  0  0  0  0  3  0  0  0  0  0  0
   -0.8672    2.0074   -2.3010 C   0  0  0  0  0  0  0  0  0  0  0  0
   -1.8609    1.5349   -2.3194 H   0  0  0  0  0  0  0  0  0  0  0  0
   -0.6322    3.1558   -3.0690 C   0  0  0  0  0  0  0  0  0  0  0  0
   -1.4427    3.5716   -3.6887 H   0  0  0  0  0  0  0  0  0  0  0  0
    0.6289    3.7878   -3.0564 C   0  0  0  0  0  0  0  0  0  0  0  0
    0.8010    4.6932   -3.6573 H   0  0  0  0  0  0  0  0  0  0  0  0
    1.6638    3.2487   -2.2882 C   0  0  0  0  0  0  0  0  0  0  0  0
    2.6530    3.7323   -2.2963 H   0  0  0  0  0  0  0  0  0  0  0  0
    1.4396    2.0822   -1.5216 C   0  0  0  0  0  0  0  0  0  0  0  0
    2.4724    1.3685   -0.7813 C   0  0  0  0  0  0  0  0  0  0  0  0
    3.8257    1.7931   -0.6861 C   0  0  0  0  0  0  0  0  0  0  0  0
    4.1006    2.7614   -1.1267 H   0  0  0  0  0  0  0  0  0  0  0  0
    4.7883    1.0284   -0.0523 C   0  0  0  0  0  0  0  0  0  0  0  0
    4.3872   -0.2533    0.4635 C   0  0  0  0  0  0  0  0  0  0  0  0
    5.3087   -1.1553    1.0644 C   0  0  0  0  0  0  0  0  0  0  0  0
    6.3617   -0.8558    1.1622 H   0  0  0  0  0  0  0  0  0  0  0  0
    4.9041   -2.4063    1.5121 C   0  0  0  0  0  0  0  0  0  0  0  0
    5.6335   -3.0921    1.9686 H   0  0  0  0  0  0  0  0  0  0  0  0
    3.5529   -2.8003    1.3623 C   0  0  0  0  0  0  0  0  0  0  0  0
    3.2331   -3.8012    1.6900 H   0  0  0  0  0  0  0  0  0  0  0  0
    2.6194   -1.9407    0.7975 C   0  0  0  0  0  0  0  0  0  0  0  0
    1.5715   -2.2438    0.6867 H   0  0  0  0  0  0  0  0  0  0  0  0
    3.0045   -0.6464    0.3517 C   0  0  2  0  0  3  0  0  0  0  0  0
    6.2076    1.5081    0.0687 C   0  0  0  0  0  0  0  0  0  0  0  0
    6.9140    0.8185   -0.4393 H   0  0  0  0  0  0  0  0  0  0  0  0
    6.5263    1.5640    1.1305 H   0  0  0  0  0  0  0  0  0  0  0  0
    6.3296    2.5122   -0.3790 H   0  0  0  0  0  0  0  0  0  0  0  0
  3  2  2  0  0  0  0
  4  3  1  0  0  0  0
  5  7  2  0  0  0  0
  5  3  1  0  0  0  0
  6  5  1  0  0  0  0
  7  9  1  0  0  0  0
  8  7  1  0  0  0  0
  9 11  2  0  0  0  0
 10  9  1  0  0  0  0
 11  2  1  0  0  0  0
 11 12  1  0  0  0  0
 12 13  2  0  0  0  0
 12  1  1  0  0  0  0
 13 15  1  0  0  0  0
 14 13  1  0  0  0  0
 15 26  1  0  0  0  0
 15 16  2  0  0  0  0
 16 17  1  0  0  0  0
 17 18  1  0  0  0  0
 17 19  2  0  0  0  0
 19 20  1  0  0  0  0
 21 19  1  0  0  0  0
 21 22  1  0  0  0  0
 23 21  2  0  0  0  0
 24 23  1  0  0  0  0
 25  1  1  6  0  0  0
 25 16  1  0  0  0  0
 25 23  1  0  0  0  0
 26 28  1  0  0  0  0
 27 26  1  0  0  0  0
 29 26  1  0  0  0  0
M  END
