1,2
 OpenBabel05122313053D

 29 31  0  0  0  0  0  0  0  0999 V2000
    2.0739   -0.0973   -0.1833 N   0  0  0  0  0  2  0  0  0  0  0  0
    0.3621    1.4178    1.1046 C   0  0  0  0  0  3  0  0  0  0  0  0
    1.4743    4.7096    3.4172 F   0  0  0  0  0  0  0  0  0  0  0  0
    3.3381    3.4629    1.9494 F   0  0  0  0  0  0  0  0  0  0  0  0
    2.0781    2.9797    1.9020 C   0  0  0  0  0  0  0  0  0  0  0  0
    1.1241    3.6472    2.6783 C   0  0  0  0  0  0  0  0  0  0  0  0
   -0.5871    2.0803    1.9081 C   0  0  0  0  0  0  0  0  0  0  0  0
   -1.6396    1.7658    1.9350 H   0  0  0  0  0  0  0  0  0  0  0  0
    1.7288    1.8531    1.1218 C   0  0  0  0  0  0  0  0  0  0  0  0
    2.6522    1.0024    0.3802 C   0  0  0  0  0  0  0  0  0  0  0  0
    4.8825    0.3181   -0.3735 C   0  0  0  0  0  0  0  0  0  0  0  0
    2.8707   -1.0772   -0.7461 C   0  0  0  0  0  0  0  0  0  0  0  0
   -0.2052    3.1786    2.6792 C   0  0  0  0  0  0  0  0  0  0  0  0
    4.0534    1.2238    0.2652 C   0  0  0  0  0  0  0  0  0  0  0  0
    4.4703    2.1407    0.6953 H   0  0  0  0  0  0  0  0  0  0  0  0
    4.2946   -0.8936   -0.8738 C   0  0  0  0  0  0  0  0  0  0  0  0
    2.2954   -2.3044   -1.1784 C   0  0  0  0  0  0  0  0  0  0  0  0
    1.2158   -2.4513   -1.0583 H   0  0  0  0  0  0  0  0  0  0  0  0
    3.0870   -3.2959   -1.7428 C   0  0  0  0  0  0  0  0  0  0  0  0
    2.6206   -4.2416   -2.0583 H   0  0  0  0  0  0  0  0  0  0  0  0
   -1.0975    3.8270    3.4428 F   0  0  0  0  0  0  0  0  0  0  0  0
    6.3548    0.5861   -0.5105 C   0  0  0  0  0  0  0  0  0  0  0  0
    6.6236    1.5662   -0.0746 H   0  0  0  0  0  0  0  0  0  0  0  0
    6.6683    0.5841   -1.5753 H   0  0  0  0  0  0  0  0  0  0  0  0
    6.9577   -0.1936    0.0003 H   0  0  0  0  0  0  0  0  0  0  0  0
    4.4803   -3.1066   -1.9073 C   0  0  0  0  0  0  0  0  0  0  0  0
    5.0961   -3.8964   -2.3627 H   0  0  0  0  0  0  0  0  0  0  0  0
    5.0683   -1.9257   -1.4746 C   0  0  0  0  0  3  0  0  0  0  0  0
    6.1528   -1.7845   -1.5829 H   0  0  0  0  0  0  0  0  0  0  0  0
  1 10  1  0  0  0  0
  2  9  2  0  0  0  0
  2  7  1  0  0  0  0
  5  4  1  0  0  0  0
  5  6  2  0  0  0  0
  6 13  1  0  0  0  0
  6  3  1  0  0  0  0
  7  8  1  0  0  0  0
  7 13  2  0  0  0  0
  9  5  1  0  0  0  0
 10  9  1  0  0  0  0
 11 14  1  0  0  0  0
 12  1  1  0  0  0  0
 13 21  1  0  0  0  0
 14 10  2  0  0  0  0
 14 15  1  0  0  0  0
 16 12  1  0  0  0  0
 16 11  2  0  0  0  0
 17 18  1  0  0  0  0
 17 12  2  0  0  0  0
 19 17  1  0  0  0  0
 20 19  1  0  0  0  0
 22 11  1  0  0  0  0
 22 23  1  0  0  0  0
 22 25  1  0  0  0  0
 24 22  1  0  0  0  0
 26 19  2  0  0  0  0
 26 28  1  0  0  0  0
 27 26  1  0  0  0  0
 28 16  1  0  0  0  0
 29 28  1  0  0  0  0
M  END
