1,2
 OpenBabel05122313053D

 22 22  0  0  0  0  0  0  0  0999 V2000
   -0.8839   -0.6923   -1.7085 N   0  0  0  0  0  0  0  0  0  0  0  0
   -1.4530    0.2794    0.6777 C   0  0  0  0  0  3  0  0  0  0  0  0
   -1.7118    1.0581    1.8220 C   0  0  0  0  0  0  0  0  0  0  0  0
   -3.0158    1.1929    2.3267 C   0  0  0  0  0  0  0  0  0  0  0  0
   -4.0877    0.5587    1.6805 C   0  0  0  0  0  0  0  0  0  0  0  0
   -3.8509   -0.1945    0.5217 C   0  0  0  0  0  0  0  0  0  0  0  0
   -2.5461   -0.3315    0.0133 C   0  0  0  0  0  0  0  0  0  0  0  0
   -2.2407   -1.1701   -1.2204 C   0  0  0  0  0  0  0  0  0  0  0  0
   -2.1111   -2.6508   -0.8395 C   0  0  0  0  0  0  0  0  0  0  0  0
   -3.2564   -0.9862   -2.3557 C   0  0  0  0  0  0  0  0  0  0  0  0
   -1.0339    0.0896   -2.3642 H   0  0  0  0  0  0  0  0  0  0  0  0
   -0.4364   -1.4373   -2.2627 H   0  0  0  0  0  0  0  0  0  0  0  0
   -0.8856    1.5811    2.3280 H   0  0  0  0  0  0  0  0  0  0  0  0
   -3.1947    1.8014    3.2264 H   0  0  0  0  0  0  0  0  0  0  0  0
   -5.1107    0.6579    2.0721 H   0  0  0  0  0  0  0  0  0  0  0  0
   -4.6974   -0.6815    0.0128 H   0  0  0  0  0  0  0  0  0  0  0  0
   -1.8444   -3.2772   -1.7177 H   0  0  0  0  0  0  0  0  0  0  0  0
   -3.0755   -3.0173   -0.4408 H   0  0  0  0  0  0  0  0  0  0  0  0
   -1.3488   -2.7818   -0.0512 H   0  0  0  0  0  0  0  0  0  0  0  0
   -3.3733    0.0842   -2.6219 H   0  0  0  0  0  0  0  0  0  0  0  0
   -4.2524   -1.3642   -2.0567 H   0  0  0  0  0  0  0  0  0  0  0  0
   -2.9499   -1.5527   -3.2589 H   0  0  0  0  0  0  0  0  0  0  0  0
  1  8  1  0  0  0  0
  2  3  1  0  0  0  0
  3  4  2  0  0  0  0
  3 13  1  0  0  0  0
  4 14  1  0  0  0  0
  5 15  1  0  0  0  0
  5  4  1  0  0  0  0
  6  5  2  0  0  0  0
  7  6  1  0  0  0  0
  7  2  2  0  0  0  0
  8  9  1  0  0  0  0
  8  7  1  0  0  0  0
  9 18  1  0  0  0  0
  9 19  1  0  0  0  0
 10 21  1  0  0  0  0
 10  8  1  0  0  0  0
 11  1  1  0  0  0  0
 12  1  1  0  0  0  0
 16  6  1  0  0  0  0
 17  9  1  0  0  0  0
 20 10  1  0  0  0  0
 22 10  1  0  0  0  0
M  END
