1,2
 OpenBabel05122313053D

 43 45  0  0  0  0  0  0  0  0999 V2000
    1.2702    0.5368    1.6119 N   0  0  0  0  0  2  0  0  0  0  0  0
   -1.0126   -0.0226    0.0587 C   0  0  0  0  0  2  0  0  0  0  0  0
   -1.3682    1.2874   -0.1450 C   0  0  0  0  0  0  0  0  0  0  0  0
   -0.4363    2.4084   -0.3910 C   0  0  0  0  0  0  0  0  0  0  0  0
   -0.7568    3.3358   -1.4126 C   0  0  0  0  0  0  0  0  0  0  0  0
   -1.6723    3.1659   -2.0000 H   0  0  0  0  0  0  0  0  0  0  0  0
    0.0487    4.4439   -1.6953 C   0  0  0  0  0  0  0  0  0  0  0  0
   -0.2335    5.1361   -2.5031 H   0  0  0  0  0  0  0  0  0  0  0  0
    1.2150    4.6633   -0.9464 C   0  0  0  0  0  0  0  0  0  0  0  0
    1.8660    5.5244   -1.1581 H   0  0  0  0  0  0  0  0  0  0  0  0
    1.5378    3.7760    0.0868 C   0  0  0  0  0  0  0  0  0  0  0  0
    2.4426    3.9506    0.6894 H   0  0  0  0  0  0  0  0  0  0  0  0
    0.7326    2.6506    0.3817 C   0  0  0  0  0  0  0  0  0  0  0  0
    1.0918    1.8908    1.6092 C   0  0  0  0  0  0  0  0  0  0  0  0
   -2.0834   -0.9851    0.4287 C   0  0  0  0  0  0  0  0  0  0  0  0
   -2.4536   -2.0641   -0.4004 C   0  0  0  0  0  0  0  0  0  0  0  0
   -1.9381   -2.1978   -1.3602 H   0  0  0  0  0  0  0  0  0  0  0  0
   -3.4684   -2.9487   -0.0191 C   0  0  0  0  0  0  0  0  0  0  0  0
   -3.7493   -3.7776   -0.6874 H   0  0  0  0  0  0  0  0  0  0  0  0
   -4.1219   -2.7890    1.2157 C   0  0  0  0  0  0  0  0  0  0  0  0
   -4.9101   -3.4937    1.5216 H   0  0  0  0  0  0  0  0  0  0  0  0
   -3.7573   -1.7256    2.0547 C   0  0  0  0  0  0  0  0  0  0  0  0
   -4.2599   -1.5904    3.0250 H   0  0  0  0  0  0  0  0  0  0  0  0
   -2.7550   -0.8270    1.6615 C   0  0  0  0  0  0  0  0  0  0  0  0
   -2.4683    0.0077    2.3186 H   0  0  0  0  0  0  0  0  0  0  0  0
   -2.8166    1.7021   -0.1729 C   0  0  0  0  0  0  0  0  0  0  0  0
   -3.3078    2.5702    0.5296 O   0  0  0  0  0  0  0  0  0  0  0  0
   -3.5090    1.0283   -1.1332 O   0  0  0  0  0  0  0  0  0  0  0  0
   -4.9299    1.2774   -1.1957 C   0  0  0  0  0  0  0  0  0  0  0  0
   -5.2074    1.0407   -2.2421 H   0  0  0  0  0  0  0  0  0  0  0  0
   -5.1117    2.3549   -1.0031 H   0  0  0  0  0  0  0  0  0  0  0  0
   -5.6916    0.4105   -0.2067 C   0  0  0  0  0  0  0  0  0  0  0  0
   -6.7835    0.5489   -0.3438 H   0  0  0  0  0  0  0  0  0  0  0  0
   -5.4338    0.6884    0.8331 H   0  0  0  0  0  0  0  0  0  0  0  0
   -5.4473   -0.6610   -0.3458 H   0  0  0  0  0  0  0  0  0  0  0  0
    1.3105    2.6353    2.7901 C   0  0  0  0  0  0  0  0  0  0  0  0
    1.1093    3.7145    2.7676 H   0  0  0  0  0  0  0  0  0  0  0  0
    1.7526    2.0119    3.9593 C   0  0  0  0  0  0  0  0  0  0  0  0
    1.9172    2.5958    4.8773 H   0  0  0  0  0  0  0  0  0  0  0  0
    1.9756    0.6308    3.9265 C   0  0  0  0  0  0  0  0  0  0  0  0
    2.3327    0.0777    4.8067 H   0  0  0  0  0  0  0  0  0  0  0  0
    1.7139   -0.0659    2.7457 C   0  0  0  0  0  0  0  0  0  0  0  0
    1.8052   -1.1611    2.6814 H   0  0  0  0  0  0  0  0  0  0  0  0
  1 42  1  0  0  0  0
  2 15  1  0  0  0  0
  3  2  1  0  0  0  0
  4  3  2  0  0  0  0
  4 13  1  0  0  0  0
  5  4  1  0  0  0  0
  6  5  1  0  0  0  0
  7  5  2  0  0  0  0
  7  9  1  0  0  0  0
  8  7  1  0  0  0  0
  9 11  2  0  0  0  0
 10  9  1  0  0  0  0
 11 13  1  0  0  0  0
 11 12  1  0  0  0  0
 13 14  2  0  0  0  0
 14  1  1  0  0  0  0
 14 36  1  0  0  0  0
 15 24  1  0  0  0  0
 16 18  1  0  0  0  0
 16 15  2  0  0  0  0
 17 16  1  0  0  0  0
 18 20  2  0  0  0  0
 19 18  1  0  0  0  0
 20 21  1  0  0  0  0
 20 22  1  0  0  0  0
 22 23  1  0  0  0  0
 24 22  2  0  0  0  0
 24 25  1  0  0  0  0
 26  3  1  0  0  0  0
 26 27  2  0  0  0  0
 28 26  1  0  0  0  0
 29 28  1  0  0  0  0
 29 31  1  0  0  0  0
 29 32  1  0  0  0  0
 30 29  1  0  0  0  0
 32 34  1  0  0  0  0
 33 32  1  0  0  0  0
 35 32  1  0  0  0  0
 36 38  2  0  0  0  0
 37 36  1  0  0  0  0
 38 39  1  0  0  0  0
 40 38  1  0  0  0  0
 40 41  1  0  0  0  0
 42 40  2  0  0  0  0
 43 42  1  0  0  0  0
M  END
