1,15
 OpenBabel05122313053D

 19 19  0  0  0  0  0  0  0  0999 V2000
   -1.0588    0.8891   -0.8696 C   0  0  0  0  0  3  0  0  0  0  0  0
   -0.9611    1.9472   -1.4750 O   0  0  0  0  0  0  0  0  0  0  0  0
   -2.4182    0.4295   -0.4001 C   0  0  0  0  0  0  0  0  0  0  0  0
   -3.4182    1.4156   -0.2767 C   0  0  0  0  0  0  0  0  0  0  0  0
   -3.1473    2.4464   -0.5492 H   0  0  0  0  0  0  0  0  0  0  0  0
   -4.7094    1.0913    0.1565 C   0  0  0  0  0  0  0  0  0  0  0  0
   -5.4713    1.8799    0.2535 H   0  0  0  0  0  0  0  0  0  0  0  0
   -5.0374   -0.2460    0.4438 C   0  0  0  0  0  0  0  0  0  0  0  0
   -6.0538   -0.5119    0.7704 H   0  0  0  0  0  0  0  0  0  0  0  0
   -4.0654   -1.2403    0.3008 C   0  0  0  0  0  0  0  0  0  0  0  0
   -4.3190   -2.2925    0.5059 H   0  0  0  0  0  0  0  0  0  0  0  0
   -2.7447   -0.9203   -0.0953 C   0  0  0  0  0  0  0  0  0  0  0  0
   -1.7906   -2.0108   -0.2133 C   0  0  0  0  0  3  0  0  0  0  0  0
   -2.2073   -3.0389   -0.2139 H   0  0  0  0  0  0  0  0  0  0  0  0
   -0.5046   -1.8651   -0.3036 N   0  0  0  0  0  2  0  0  0  0  0  0
    0.3233   -3.0412   -0.5253 C   0  0  0  0  0  0  0  0  0  0  0  0
   -0.2730   -3.9784   -0.5090 H   0  0  0  0  0  0  0  0  0  0  0  0
    1.1198   -3.0903    0.2413 H   0  0  0  0  0  0  0  0  0  0  0  0
    0.8211   -2.9100   -1.5103 H   0  0  0  0  0  0  0  0  0  0  0  0
  1  3  1  0  0  0  0
  2  1  2  0  0  0  0
  3  4  2  0  0  0  0
  3 12  1  0  0  0  0
  4  6  1  0  0  0  0
  5  4  1  0  0  0  0
  6  7  1  0  0  0  0
  6  8  2  0  0  0  0
  8  9  1  0  0  0  0
 10  8  1  0  0  0  0
 10 11  1  0  0  0  0
 12 10  2  0  0  0  0
 13 12  1  0  0  0  0
 14 13  1  0  0  0  0
 15 13  1  0  0  0  0
 16 17  1  0  0  0  0
 16 15  1  0  0  0  0
 16 18  1  0  0  0  0
 19 16  1  0  0  0  0
M  END
