1,3
 OpenBabel05122313053D

 31 33  0  0  1  0  0  0  0  0999 V2000
    1.6039   -1.3143   -0.9312 N   0  0  0  0  0  2  0  0  0  0  0  0
    3.8295   -1.5154   -0.0397 N   0  0  0  0  0  0  0  0  0  0  0  0
    1.0945    0.9222    0.3629 C   0  0  0  0  0  3  0  0  0  0  0  0
    0.7455    2.0408    1.1203 C   0  0  0  0  0  0  0  0  0  0  0  0
   -0.2604    2.4800    1.0423 H   0  0  0  0  0  0  0  0  0  0  0  0
    1.6655    2.6479    2.0240 C   0  0  0  0  0  0  0  0  0  0  0  0
    1.3235    3.8027    2.7899 C   0  0  0  0  0  0  0  0  0  0  0  0
    0.3145    4.2298    2.6768 H   0  0  0  0  0  0  0  0  0  0  0  0
    2.2373    4.3813    3.6581 C   0  0  0  0  0  0  0  0  0  0  0  0
    1.9535    5.2729    4.2383 H   0  0  0  0  0  0  0  0  0  0  0  0
    3.5420    3.8330    3.8078 C   0  0  0  0  0  0  0  0  0  0  0  0
    4.2563    4.3033    4.5001 H   0  0  0  0  0  0  0  0  0  0  0  0
    3.9073    2.7088    3.0841 C   0  0  0  0  0  0  0  0  0  0  0  0
    4.9130    2.2734    3.1940 H   0  0  0  0  0  0  0  0  0  0  0  0
    2.9916    2.0882    2.1823 C   0  0  0  0  0  0  0  0  0  0  0  0
    3.3264    0.9261    1.4430 C   0  0  0  0  0  0  0  0  0  0  0  0
    4.3145    0.4536    1.5537 H   0  0  0  0  0  0  0  0  0  0  0  0
    2.4007    0.3560    0.5715 C   0  0  0  0  0  0  0  0  0  0  0  0
    2.6634   -0.8746   -0.1576 C   0  0  2  0  0  3  0  0  0  0  0  0
    3.9988   -2.6763   -0.6919 C   0  0  0  0  0  0  0  0  0  0  0  0
    2.9548   -3.2118   -1.4668 C   0  0  0  0  0  0  0  0  0  0  0  0
    3.0679   -4.1704   -1.9918 H   0  0  0  0  0  0  0  0  0  0  0  0
    1.7520   -2.4987   -1.5786 C   0  0  0  0  0  0  0  0  0  0  0  0
    5.3318   -3.3541   -0.5521 C   0  0  0  0  0  0  0  0  0  0  0  0
    6.1271   -2.7059   -0.9744 H   0  0  0  0  0  0  0  0  0  0  0  0
    5.3605   -4.3342   -1.0629 H   0  0  0  0  0  0  0  0  0  0  0  0
    5.5758   -3.4914    0.5205 H   0  0  0  0  0  0  0  0  0  0  0  0
    0.6217   -3.0181   -2.4079 C   0  0  0  0  0  0  0  0  0  0  0  0
   -0.3153   -3.0081   -1.8135 H   0  0  0  0  0  0  0  0  0  0  0  0
    0.8233   -4.0493   -2.7497 H   0  0  0  0  0  0  0  0  0  0  0  0
    0.5040   -2.3651   -3.2971 H   0  0  0  0  0  0  0  0  0  0  0  0
  1 19  1  0  0  0  0
  3 18  2  0  0  0  0
  3  4  1  0  0  0  0
  4  6  2  0  0  0  0
  5  4  1  0  0  0  0
  6 15  1  0  0  0  0
  6  7  1  0  0  0  0
  7  9  2  0  0  0  0
  8  7  1  0  0  0  0
  9 11  1  0  0  0  0
  9 10  1  0  0  0  0
 11 12  1  0  0  0  0
 13 14  1  0  0  0  0
 13 11  2  0  0  0  0
 15 13  1  0  0  0  0
 16 17  1  0  0  0  0
 16 15  2  0  0  0  0
 18 16  1  0  0  0  0
 19  2  1  0  0  0  0
 19 18  1  1  0  0  0
 20 24  1  0  0  0  0
 20  2  2  0  0  0  0
 21 20  1  0  0  0  0
 22 21  1  0  0  0  0
 23 21  2  0  0  0  0
 23  1  1  0  0  0  0
 24 27  1  0  0  0  0
 25 24  1  0  0  0  0
 26 24  1  0  0  0  0
 28 29  1  0  0  0  0
 28 23  1  0  0  0  0
 30 28  1  0  0  0  0
 31 28  1  0  0  0  0
M  END
