1,2
 OpenBabel05122313053D

 50 55  0  0  0  0  0  0  0  0999 V2000
    1.9411   -1.1027    0.1520 N   0  0  0  0  0  2  0  0  0  0  0  0
   -0.4097    0.0814    0.0620 C   0  0  0  0  0  3  0  0  0  0  0  0
   -0.4047   -1.3392    0.0685 C   0  0  0  0  0  0  0  0  0  0  0  0
    0.9058   -1.9196    0.1155 C   0  0  0  0  0  0  0  0  0  0  0  0
    1.0824   -3.0095    0.1525 H   0  0  0  0  0  0  0  0  0  0  0  0
   -1.6407    0.7523    0.0362 C   0  0  0  0  0  0  0  0  0  0  0  0
   -1.6354    1.8508    0.0316 H   0  0  0  0  0  0  0  0  0  0  0  0
   -2.8762    0.0749    0.0169 C   0  0  0  0  0  0  0  0  0  0  0  0
   -2.8885   -1.3651    0.0188 C   0  0  0  0  0  0  0  0  0  0  0  0
   -1.6367   -2.0863    0.0449 C   0  0  0  0  0  0  0  0  0  0  0  0
   -1.6619   -3.5073    0.0458 C   0  0  0  0  0  0  0  0  0  0  0  0
   -0.7196   -4.0720    0.0642 H   0  0  0  0  0  0  0  0  0  0  0  0
   -2.8684   -4.1949    0.0233 C   0  0  0  0  0  0  0  0  0  0  0  0
   -2.8742   -5.2953    0.0250 H   0  0  0  0  0  0  0  0  0  0  0  0
   -4.0888   -3.4952   -0.0017 C   0  0  0  0  0  0  0  0  0  0  0  0
   -5.0218   -4.0736   -0.0191 H   0  0  0  0  0  0  0  0  0  0  0  0
   -4.1290   -2.0928   -0.0050 C   0  0  0  0  0  0  0  0  0  0  0  0
   -5.4055   -1.3551   -0.0321 C   0  0  0  0  0  0  0  0  0  0  0  0
   -5.3895    0.0808   -0.0315 C   0  0  0  0  0  0  0  0  0  0  0  0
   -4.1505    0.8104   -0.0065 C   0  0  0  0  0  0  0  0  0  0  0  0
   -4.1986    2.2143   -0.0059 C   0  0  0  0  0  0  0  0  0  0  0  0
   -3.2668    2.7945    0.0137 H   0  0  0  0  0  0  0  0  0  0  0  0
   -5.4201    2.9177   -0.0299 C   0  0  0  0  0  0  0  0  0  0  0  0
   -5.4097    4.0179   -0.0286 H   0  0  0  0  0  0  0  0  0  0  0  0
   -6.6236    2.2280   -0.0551 C   0  0  0  0  0  0  0  0  0  0  0  0
   -7.5829    2.7676   -0.0741 H   0  0  0  0  0  0  0  0  0  0  0  0
   -6.6380    0.8045   -0.0564 C   0  0  0  0  0  0  0  0  0  0  0  0
   -7.8665    0.0859   -0.0818 C   0  0  0  0  0  3  0  0  0  0  0  0
   -8.8113    0.6503   -0.1007 H   0  0  0  0  0  0  0  0  0  0  0  0
   -7.8652   -1.3010   -0.0827 C   0  0  0  0  0  0  0  0  0  0  0  0
   -8.8142   -1.8575   -0.1026 H   0  0  0  0  0  0  0  0  0  0  0  0
   -6.6462   -2.0104   -0.0580 C   0  0  0  0  0  0  0  0  0  0  0  0
   -6.6860   -3.1078   -0.0595 H   0  0  0  0  0  0  0  0  0  0  0  0
    3.2630   -1.5933    0.1511 C   0  0  0  0  0  0  0  0  0  0  0  0
    4.2289   -0.9853    0.9817 C   0  0  0  0  0  0  0  0  0  0  0  0
    3.9253   -0.1405    1.6168 H   0  0  0  0  0  0  0  0  0  0  0  0
    5.5404   -1.4681    1.0042 C   0  0  0  0  0  0  0  0  0  0  0  0
    6.2780   -0.9895    1.6681 H   0  0  0  0  0  0  0  0  0  0  0  0
    5.9394   -2.5552    0.1977 C   0  0  0  0  0  0  0  0  0  0  0  0
    4.9697   -3.1446   -0.6384 C   0  0  0  0  0  0  0  0  0  0  0  0
    5.2585   -3.9836   -1.2919 H   0  0  0  0  0  0  0  0  0  0  0  0
    3.6507   -2.6769   -0.6681 C   0  0  0  0  0  0  0  0  0  0  0  0
    2.9183   -3.1288   -1.3535 H   0  0  0  0  0  0  0  0  0  0  0  0
    7.3770   -3.0215    0.1757 C   0  0  0  0  0  0  0  0  0  0  0  0
    7.8165   -2.9054    1.1892 H   0  0  0  0  0  0  0  0  0  0  0  0
    7.4091   -4.1068   -0.0574 H   0  0  0  0  0  0  0  0  0  0  0  0
    8.2330   -2.2528   -0.8434 C   0  0  0  0  0  0  0  0  0  0  0  0
    7.8334   -2.3745   -1.8707 H   0  0  0  0  0  0  0  0  0  0  0  0
    9.2828   -2.6100   -0.8387 H   0  0  0  0  0  0  0  0  0  0  0  0
    8.2390   -1.1668   -0.6187 H   0  0  0  0  0  0  0  0  0  0  0  0
  2  3  1  0  0  0  0
  3  4  2  0  0  0  0
  4  1  1  0  0  0  0
  4  5  1  0  0  0  0
  6  2  2  0  0  0  0
  7  6  1  0  0  0  0
  8  9  1  0  0  0  0
  8  6  1  0  0  0  0
  9 10  1  0  0  0  0
 10 11  2  0  0  0  0
 10  3  1  0  0  0  0
 11 12  1  0  0  0  0
 13 14  1  0  0  0  0
 13 11  1  0  0  0  0
 15 13  2  0  0  0  0
 16 15  1  0  0  0  0
 17 15  1  0  0  0  0
 17  9  2  0  0  0  0
 18 19  2  0  0  0  0
 18 17  1  0  0  0  0
 19 20  1  0  0  0  0
 20 21  1  0  0  0  0
 20  8  2  0  0  0  0
 21 22  1  0  0  0  0
 23 24  1  0  0  0  0
 23 21  2  0  0  0  0
 25 23  1  0  0  0  0
 26 25  1  0  0  0  0
 27 25  2  0  0  0  0
 27 19  1  0  0  0  0
 28 27  1  0  0  0  0
 29 28  1  0  0  0  0
 30 28  1  0  0  0  0
 30 32  2  0  0  0  0
 31 30  1  0  0  0  0
 32 18  1  0  0  0  0
 33 32  1  0  0  0  0
 34  1  1  0  0  0  0
 34 35  1  0  0  0  0
 35 37  2  0  0  0  0
 35 36  1  0  0  0  0
 37 38  1  0  0  0  0
 39 37  1  0  0  0  0
 40 39  2  0  0  0  0
 41 40  1  0  0  0  0
 42 40  1  0  0  0  0
 42 34  2  0  0  0  0
 43 42  1  0  0  0  0
 44 39  1  0  0  0  0
 44 45  1  0  0  0  0
 46 44  1  0  0  0  0
 47 49  1  0  0  0  0
 47 50  1  0  0  0  0
 47 44  1  0  0  0  0
 48 47  1  0  0  0  0
M  END
