2,5
 OpenBabel05122313053D

 24 25  0  0  0  0  0  0  0  0999 V2000
   -1.3715    2.7852   -0.9518 F   0  0  0  0  0  0  0  0  0  0  0  0
    0.4072   -1.7700   -0.9128 N   0  0  0  0  0  2  0  0  0  0  0  0
   -3.5198    2.7407   -2.4886 F   0  0  0  0  0  0  0  0  0  0  0  0
   -2.9771   -1.8769   -3.3652 F   0  0  0  0  0  0  0  0  0  0  0  0
   -0.9606    0.4156   -1.2193 C   0  0  0  0  0  3  0  0  0  0  0  0
   -4.3910    0.4640   -3.7187 F   0  0  0  0  0  0  0  0  0  0  0  0
    0.7087   -4.1967   -0.5508 C   0  0  0  0  0  0  0  0  0  0  0  0
   -0.3738   -4.3069   -0.4080 H   0  0  0  0  0  0  0  0  0  0  0  0
    1.2462   -2.9123   -0.7897 C   0  0  0  0  0  0  0  0  0  0  0  0
   -1.7115    1.5710   -1.4687 C   0  0  0  0  0  0  0  0  0  0  0  0
   -0.6271   -1.9063   -1.7223 C   0  0  0  0  0  3  0  0  0  0  0  0
   -0.8098   -2.8522   -2.2591 H   0  0  0  0  0  0  0  0  0  0  0  0
   -3.3037    0.4278   -2.9372 C   0  0  0  0  0  0  0  0  0  0  0  0
    2.6409   -2.7770   -0.9314 C   0  0  0  0  0  0  0  0  0  0  0  0
    3.0525   -1.7800   -1.1194 H   0  0  0  0  0  0  0  0  0  0  0  0
   -2.5786   -0.7503   -2.7454 C   0  0  0  0  0  0  0  0  0  0  0  0
   -2.8531    1.5965   -2.2931 C   0  0  0  0  0  0  0  0  0  0  0  0
   -1.4402   -0.7503   -1.9118 C   0  0  0  0  0  0  0  0  0  0  0  0
    1.5559   -5.3075   -0.4393 C   0  0  0  0  0  0  0  0  0  0  0  0
    1.1215   -6.2976   -0.2330 H   0  0  0  0  0  0  0  0  0  0  0  0
    2.9464   -5.1638   -0.5728 C   0  0  0  0  0  0  0  0  0  0  0  0
    3.6075   -6.0381   -0.4798 H   0  0  0  0  0  0  0  0  0  0  0  0
    3.4834   -3.8915   -0.8273 C   0  0  0  0  0  0  0  0  0  0  0  0
    4.5702   -3.7633   -0.9475 H   0  0  0  0  0  0  0  0  0  0  0  0
  2  9  1  0  0  0  0
  3 17  1  0  0  0  0
  4 16  1  0  0  0  0
  6 13  1  0  0  0  0
  7 19  1  0  0  0  0
  7  8  1  0  0  0  0
  9  7  2  0  0  0  0
 10  5  1  0  0  0  0
 10  1  1  0  0  0  0
 11  2  1  0  0  0  0
 12 11  1  0  0  0  0
 13 16  2  0  0  0  0
 13 17  1  0  0  0  0
 14 23  2  0  0  0  0
 14  9  1  0  0  0  0
 15 14  1  0  0  0  0
 16 18  1  0  0  0  0
 17 10  2  0  0  0  0
 18 11  1  0  0  0  0
 18  5  2  0  0  0  0
 19 20  1  0  0  0  0
 21 22  1  0  0  0  0
 21 19  2  0  0  0  0
 23 21  1  0  0  0  0
 24 23  1  0  0  0  0
M  END
