2,3
 OpenBabel05122313053D

 45 48  0  0  0  0  0  0  0  0999 V2000
   -1.6763   -0.1934   -0.1588 P   0  0  0  0  0  4  0  0  0  0  0  0
   -0.2367    0.5281    0.1317 N   0  0  0  0  0  2  0  0  0  0  0  0
    0.2069   -2.0694   -0.7017 C   0  0  0  0  0  3  0  0  0  0  0  0
    0.5975   -3.3171   -1.2513 C   0  0  0  0  0  0  0  0  0  0  0  0
    1.6683   -3.5375   -1.3765 H   0  0  0  0  0  0  0  0  0  0  0  0
   -0.3386   -4.2714   -1.6751 C   0  0  0  0  0  0  0  0  0  0  0  0
    0.0152   -5.2269   -2.0944 H   0  0  0  0  0  0  0  0  0  0  0  0
   -1.7209   -4.0193   -1.5890 C   0  0  0  0  0  0  0  0  0  0  0  0
   -2.4504   -4.7704   -1.9262 H   0  0  0  0  0  0  0  0  0  0  0  0
   -2.1521   -2.7837   -1.0961 C   0  0  0  0  0  0  0  0  0  0  0  0
   -3.2274   -2.5441   -1.0578 H   0  0  0  0  0  0  0  0  0  0  0  0
   -1.1972   -1.8412   -0.6606 C   0  0  0  0  0  0  0  0  0  0  0  0
   -4.0148    0.7004   -1.5377 C   0  0  0  0  0  0  0  0  0  0  0  0
   -4.6145    0.3279   -0.6940 H   0  0  0  0  0  0  0  0  0  0  0  0
   -2.6087    0.6029   -1.5113 C   0  0  0  0  0  0  0  0  0  0  0  0
   -1.8428    1.0565   -2.6073 C   0  0  0  0  0  0  0  0  0  0  0  0
   -0.7446    0.9305   -2.5938 H   0  0  0  0  0  0  0  0  0  0  0  0
   -2.4905    1.6256   -3.7118 C   0  0  0  0  0  0  0  0  0  0  0  0
   -1.8939    1.9780   -4.5669 H   0  0  0  0  0  0  0  0  0  0  0  0
   -3.8908    1.7403   -3.7327 C   0  0  0  0  0  0  0  0  0  0  0  0
   -4.3936    2.1914   -4.6020 H   0  0  0  0  0  0  0  0  0  0  0  0
   -4.6519    1.2724   -2.6498 C   0  0  0  0  0  0  0  0  0  0  0  0
   -5.7495    1.3518   -2.6695 H   0  0  0  0  0  0  0  0  0  0  0  0
   -2.8051   -0.2629    1.2827 C   0  0  0  0  0  0  0  0  0  0  0  0
   -3.5150    0.8857    1.6971 C   0  0  0  0  0  0  0  0  0  0  0  0
   -3.4749    1.8060    1.0950 H   0  0  0  0  0  0  0  0  0  0  0  0
   -4.2588    0.8604    2.8851 C   0  0  0  0  0  0  0  0  0  0  0  0
   -4.8098    1.7585    3.2031 H   0  0  0  0  0  0  0  0  0  0  0  0
   -4.2981   -0.3052    3.6687 C   0  0  0  0  0  0  0  0  0  0  0  0
   -4.8836   -0.3221    4.6005 H   0  0  0  0  0  0  0  0  0  0  0  0
   -3.5903   -1.4481    3.2628 C   0  0  0  0  0  0  0  0  0  0  0  0
   -3.6212   -2.3630    3.8737 H   0  0  0  0  0  0  0  0  0  0  0  0
   -2.8433   -1.4291    2.0754 C   0  0  0  0  0  0  0  0  0  0  0  0
   -2.2857   -2.3222    1.7536 H   0  0  0  0  0  0  0  0  0  0  0  0
   -0.1292    1.8874    0.5137 C   0  0  0  0  0  0  0  0  0  0  0  0
   -0.5140    2.3290    1.8017 C   0  0  0  0  0  0  0  0  0  0  0  0
   -0.9256    1.6001    2.5148 H   0  0  0  0  0  0  0  0  0  0  0  0
   -0.3632    3.6757    2.1699 C   0  0  0  0  0  0  0  0  0  0  0  0
   -0.6682    4.0010    3.1768 H   0  0  0  0  0  0  0  0  0  0  0  0
    0.1833    4.6006    1.2667 C   0  0  0  0  0  0  0  0  0  0  0  0
    0.3046    5.6549    1.5577 H   0  0  0  0  0  0  0  0  0  0  0  0
    0.5793    4.1665   -0.0110 C   0  0  0  0  0  0  0  0  0  0  0  0
    1.0154    4.8831   -0.7244 H   0  0  0  0  0  0  0  0  0  0  0  0
    0.4248    2.8264   -0.3884 C   0  0  0  0  0  0  0  0  0  0  0  0
    0.7527    2.4587   -1.3722 H   0  0  0  0  0  0  0  0  0  0  0  0
  1  2  1  0  0  0  0
  1 24  1  0  0  0  0
  2 35  1  0  0  0  0
  3 12  1  0  0  0  0
  4  3  2  0  0  0  0
  5  4  1  0  0  0  0
  6  8  2  0  0  0  0
  6  4  1  0  0  0  0
  7  6  1  0  0  0  0
  8 10  1  0  0  0  0
  9  8  1  0  0  0  0
 10 11  1  0  0  0  0
 10 12  2  0  0  0  0
 12  1  1  0  0  0  0
 13 15  1  0  0  0  0
 13 14  1  0  0  0  0
 15  1  1  0  0  0  0
 16 17  1  0  0  0  0
 16 15  2  0  0  0  0
 18 16  1  0  0  0  0
 19 18  1  0  0  0  0
 20 18  2  0  0  0  0
 20 22  1  0  0  0  0
 21 20  1  0  0  0  0
 22 13  2  0  0  0  0
 23 22  1  0  0  0  0
 24 25  2  0  0  0  0
 24 33  1  0  0  0  0
 25 27  1  0  0  0  0
 26 25  1  0  0  0  0
 27 28  1  0  0  0  0
 27 29  2  0  0  0  0
 29 30  1  0  0  0  0
 31 29  1  0  0  0  0
 31 32  1  0  0  0  0
 33 31  2  0  0  0  0
 34 33  1  0  0  0  0
 35 36  1  0  0  0  0
 36 38  2  0  0  0  0
 36 37  1  0  0  0  0
 38 39  1  0  0  0  0
 40 41  1  0  0  0  0
 40 38  1  0  0  0  0
 42 40  2  0  0  0  0
 43 42  1  0  0  0  0
 44 42  1  0  0  0  0
 44 35  2  0  0  0  0
 45 44  1  0  0  0  0
M  END
