3,16
 OpenBabel05122313053D

 50 52  0  0  1  0  0  0  0  0999 V2000
   -0.5120    1.5978    0.1474 N   0  0  0  0  0  0  0  0  0  0  0  0
   -2.6960    1.5748    0.1657 N   0  0  0  0  0  0  0  0  0  0  0  0
    0.8082   -0.2435    0.1203 N   0  0  0  0  0  2  0  0  0  0  0  0
    0.7729    1.0629    0.1379 C   0  0  1  0  0  3  0  0  0  0  0  0
    2.5400   -1.5749    1.2133 C   0  0  0  0  0  0  0  0  0  0  0  0
    2.7082   -1.0514   -1.2021 C   0  0  0  0  0  0  0  0  0  0  0  0
   -2.2736    2.8970    0.3335 C   0  0  0  0  0  0  0  0  0  0  0  0
   -2.9712    3.7270    0.4503 H   0  0  0  0  0  0  0  0  0  0  0  0
    3.0091    1.8214    1.0070 C   0  0  0  0  0  0  0  0  0  0  0  0
    2.9680    1.0317    1.7684 H   0  0  0  0  0  0  0  0  0  0  0  0
   -4.1401    1.1685    0.1172 C   0  0  0  0  0  0  0  0  0  0  0  0
    1.9365    1.9799    0.1035 C   0  0  0  0  0  0  0  0  0  0  0  0
    2.0507   -0.9449    0.0449 C   0  0  0  0  0  0  0  0  0  0  0  0
    2.0023    2.9950   -0.8785 C   0  0  0  0  0  0  0  0  0  0  0  0
    1.1818    3.1083   -1.6030 H   0  0  0  0  0  0  0  0  0  0  0  0
   -1.6154    0.7199    0.0571 C   0  0  0  0  0  2  0  0  0  0  0  0
    4.1816    3.6755   -0.0453 C   0  0  0  0  0  0  0  0  0  0  0  0
    5.0604    4.3352   -0.1040 H   0  0  0  0  0  0  0  0  0  0  0  0
    4.4601   -2.3425   -0.0893 C   0  0  0  0  0  0  0  0  0  0  0  0
    5.4140   -2.8886   -0.1409 H   0  0  0  0  0  0  0  0  0  0  0  0
    3.7643   -2.2599    1.1247 C   0  0  0  0  0  0  0  0  0  0  0  0
    4.1650   -2.7490    2.0263 H   0  0  0  0  0  0  0  0  0  0  0  0
    4.1207    2.6703    0.9331 C   0  0  0  0  0  0  0  0  0  0  0  0
    4.9494    2.5407    1.6448 H   0  0  0  0  0  0  0  0  0  0  0  0
    3.9264   -1.7539   -1.2428 C   0  0  0  0  0  0  0  0  0  0  0  0
    4.4520   -1.8487   -2.2058 H   0  0  0  0  0  0  0  0  0  0  0  0
   -0.9125    2.9222    0.3314 C   0  0  0  0  0  0  0  0  0  0  0  0
   -0.2068    3.7454    0.4612 H   0  0  0  0  0  0  0  0  0  0  0  0
   -4.4132    0.1968    1.2798 C   0  0  0  0  0  0  0  0  0  0  0  0
   -4.3304    0.7334    2.2464 H   0  0  0  0  0  0  0  0  0  0  0  0
   -3.6924   -0.6383    1.2979 H   0  0  0  0  0  0  0  0  0  0  0  0
   -5.4358   -0.2191    1.1956 H   0  0  0  0  0  0  0  0  0  0  0  0
   -4.4258    0.5759   -1.2747 C   0  0  0  0  0  0  0  0  0  0  0  0
   -4.3575    1.3713   -2.0439 H   0  0  0  0  0  0  0  0  0  0  0  0
   -5.4452    0.1449   -1.3054 H   0  0  0  0  0  0  0  0  0  0  0  0
   -3.7046   -0.2138   -1.5423 H   0  0  0  0  0  0  0  0  0  0  0  0
    3.1217    3.8348   -0.9521 C   0  0  0  0  0  0  0  0  0  0  0  0
    3.1691    4.6134   -1.7280 H   0  0  0  0  0  0  0  0  0  0  0  0
   -5.0406    2.4001    0.3058 C   0  0  0  0  0  0  0  0  0  0  0  0
   -4.9075    3.1487   -0.5005 H   0  0  0  0  0  0  0  0  0  0  0  0
   -4.8862    2.8884    1.2885 H   0  0  0  0  0  0  0  0  0  0  0  0
   -6.0934    2.0608    0.2684 H   0  0  0  0  0  0  0  0  0  0  0  0
    2.0882   -0.4723   -2.4449 C   0  0  0  0  0  0  0  0  0  0  0  0
    2.6359   -0.7975   -3.3495 H   0  0  0  0  0  0  0  0  0  0  0  0
    2.0880    0.6384   -2.4344 H   0  0  0  0  0  0  0  0  0  0  0  0
    1.0301   -0.7991   -2.5345 H   0  0  0  0  0  0  0  0  0  0  0  0
    1.7443   -1.5334    2.4890 C   0  0  0  0  0  0  0  0  0  0  0  0
    2.2870   -2.0261    3.3177 H   0  0  0  0  0  0  0  0  0  0  0  0
    0.7775   -2.0587    2.3322 H   0  0  0  0  0  0  0  0  0  0  0  0
    1.4943   -0.4978    2.8033 H   0  0  0  0  0  0  0  0  0  0  0  0
  1 27  1  0  0  0  0
  2  7  1  0  0  0  0
  4  3  1  6  0  0  0
  4  1  1  0  0  0  0
  5 47  1  0  0  0  0
  6 13  1  0  0  0  0
  7  8  1  0  0  0  0
  9 10  1  0  0  0  0
 11  2  1  0  0  0  0
 11 39  1  0  0  0  0
 11 29  1  0  0  0  0
 12  4  1  0  0  0  0
 12  9  2  0  0  0  0
 13  3  1  0  0  0  0
 13  5  2  0  0  0  0
 14 12  1  0  0  0  0
 15 14  1  0  0  0  0
 16  1  1  0  0  0  0
 16  2  1  0  0  0  0
 17 23  2  0  0  0  0
 18 17  1  0  0  0  0
 19 21  2  0  0  0  0
 20 19  1  0  0  0  0
 21  5  1  0  0  0  0
 21 22  1  0  0  0  0
 23  9  1  0  0  0  0
 23 24  1  0  0  0  0
 25  6  2  0  0  0  0
 25 19  1  0  0  0  0
 26 25  1  0  0  0  0
 27  7  2  0  0  0  0
 27 28  1  0  0  0  0
 29 31  1  0  0  0  0
 29 30  1  0  0  0  0
 32 29  1  0  0  0  0
 33 11  1  0  0  0  0
 34 33  1  0  0  0  0
 35 33  1  0  0  0  0
 36 33  1  0  0  0  0
 37 14  2  0  0  0  0
 37 17  1  0  0  0  0
 38 37  1  0  0  0  0
 39 41  1  0  0  0  0
 40 39  1  0  0  0  0
 42 39  1  0  0  0  0
 43 45  1  0  0  0  0
 43  6  1  0  0  0  0
 44 43  1  0  0  0  0
 46 43  1  0  0  0  0
 47 50  1  0  0  0  0
 47 48  1  0  0  0  0
 49 47  1  0  0  0  0
M  END
