3,6
 OpenBabel05122313053D

 38 40  0  0  1  0  0  0  0  0999 V2000
    2.0518    1.5877    2.7838 O   0  0  0  0  0  0  0  0  0  0  0  0
    1.1581    1.9426    2.6198 H   0  0  0  0  0  0  0  0  0  0  0  0
   -2.9711    0.6970   -0.2081 N   0  0  0  0  0  2  0  0  0  0  0  0
   -1.3008    2.2787   -0.1572 N   0  0  0  0  0  0  0  0  0  0  0  0
    0.7972    1.8196    0.1602 N   0  0  0  0  0  0  0  0  0  0  0  0
   -0.4208    1.2155    0.0452 C   0  0  0  0  0  2  0  0  0  0  0  0
   -0.6339    3.5002   -0.1767 C   0  0  0  0  0  0  0  0  0  0  0  0
   -1.1356    4.4595   -0.3236 H   0  0  0  0  0  0  0  0  0  0  0  0
    0.6851    3.2059    0.0190 C   0  0  0  0  0  0  0  0  0  0  0  0
    1.5540    3.8677    0.0722 H   0  0  0  0  0  0  0  0  0  0  0  0
   -2.6701    2.0164   -0.2914 C   0  0  2  0  0  3  0  0  0  0  0  0
   -3.6419    3.0064   -0.4892 C   0  0  0  0  0  0  0  0  0  0  0  0
   -3.3611    4.0656   -0.5539 H   0  0  0  0  0  0  0  0  0  0  0  0
   -4.9777    2.6022   -0.6016 C   0  0  0  0  0  0  0  0  0  0  0  0
   -5.7664    3.3528   -0.7574 H   0  0  0  0  0  0  0  0  0  0  0  0
   -5.2913    1.2372   -0.5130 C   0  0  0  0  0  0  0  0  0  0  0  0
   -6.3274    0.8808   -0.5955 H   0  0  0  0  0  0  0  0  0  0  0  0
   -4.2612    0.3123   -0.3168 C   0  0  0  0  0  0  0  0  0  0  0  0
   -4.4163   -0.7798   -0.2413 H   0  0  0  0  0  0  0  0  0  0  0  0
    2.0895    1.1360    0.3707 C   0  0  2  0  0  0  0  0  0  0  0  0
    1.8211    0.0812    0.5917 H   0  0  0  0  0  0  0  0  0  0  0  0
    2.7954    1.7235    1.5974 C   0  0  0  0  0  0  0  0  0  0  0  0
    3.7406    1.1616    1.7356 H   0  0  0  0  0  0  0  0  0  0  0  0
    3.0937    2.7875    1.3962 H   0  0  0  0  0  0  0  0  0  0  0  0
    2.9257    1.1889   -0.9229 C   0  0  0  0  0  0  0  0  0  0  0  0
    3.1223    2.2466   -1.2023 H   0  0  0  0  0  0  0  0  0  0  0  0
    2.3048    0.7475   -1.7303 H   0  0  0  0  0  0  0  0  0  0  0  0
    4.2345    0.4401   -0.8075 C   0  0  0  0  0  0  0  0  0  0  0  0
    5.4627    1.1282   -0.7587 C   0  0  0  0  0  0  0  0  0  0  0  0
    5.4704    2.2280   -0.8302 H   0  0  0  0  0  0  0  0  0  0  0  0
    6.6731    0.4299   -0.6249 C   0  0  0  0  0  0  0  0  0  0  0  0
    7.6240    0.9835   -0.5919 H   0  0  0  0  0  0  0  0  0  0  0  0
    6.6688   -0.9703   -0.5347 C   0  0  0  0  0  0  0  0  0  0  0  0
    7.6162   -1.5205   -0.4289 H   0  0  0  0  0  0  0  0  0  0  0  0
    5.4493   -1.6658   -0.5818 C   0  0  0  0  0  0  0  0  0  0  0  0
    5.4372   -2.7642   -0.5130 H   0  0  0  0  0  0  0  0  0  0  0  0
    4.2411   -0.9679   -0.7181 C   0  0  0  0  0  0  0  0  0  0  0  0
    3.2845   -1.5148   -0.7490 H   0  0  0  0  0  0  0  0  0  0  0  0
  2  1  1  0  0  0  0
  4  6  1  0  0  0  0
  5 20  1  0  0  0  0
  6  5  1  0  0  0  0
  7  4  1  0  0  0  0
  7  9  2  0  0  0  0
  8  7  1  0  0  0  0
  9 10  1  0  0  0  0
  9  5  1  0  0  0  0
 11  3  1  0  0  0  0
 11  4  1  1  0  0  0
 12 11  1  0  0  0  0
 13 12  1  0  0  0  0
 14 16  1  0  0  0  0
 14 12  2  0  0  0  0
 15 14  1  0  0  0  0
 16 18  2  0  0  0  0
 17 16  1  0  0  0  0
 18 19  1  0  0  0  0
 18  3  1  0  0  0  0
 20 21  1  1  0  0  0
 20 22  1  0  0  0  0
 22 23  1  0  0  0  0
 22  1  1  0  0  0  0
 24 22  1  0  0  0  0
 25 28  1  0  0  0  0
 25 20  1  0  0  0  0
 26 25  1  0  0  0  0
 27 25  1  0  0  0  0
 28 29  2  0  0  0  0
 28 37  1  0  0  0  0
 29 31  1  0  0  0  0
 30 29  1  0  0  0  0
 31 32  1  0  0  0  0
 31 33  2  0  0  0  0
 33 34  1  0  0  0  0
 35 33  1  0  0  0  0
 35 36  1  0  0  0  0
 37 35  2  0  0  0  0
 38 37  1  0  0  0  0
M  END
