1,9
 OpenBabel05122313053D

 29 31  0  0  0  0  0  0  0  0999 V2000
    1.2632    1.4614    0.0258 N   0  0  0  0  0  2  0  0  0  0  0  0
   -2.2334    0.5593    0.0090 N   0  0  0  0  0  2  0  0  0  0  0  0
    2.0894    2.5254    0.0471 C   0  0  0  0  0  0  0  0  0  0  0  0
    1.6188    3.8426    0.0789 C   0  0  0  0  0  0  0  0  0  0  0  0
    0.2301    4.0617    0.0906 C   0  0  0  0  0  0  0  0  0  0  0  0
   -0.6291    2.9595    0.0685 C   0  0  0  0  0  0  0  0  0  0  0  0
   -0.0867    1.6629    0.0342 C   0  0  0  0  0  0  0  0  0  0  0  0
   -0.8974    0.4324    0.0082 C   0  0  0  0  0  0  0  0  0  0  0  0
   -0.1784   -0.8047   -0.0130 C   0  0  0  0  0  3  0  0  0  0  0  0
   -0.9993   -1.9532   -0.0399 C   0  0  0  0  0  0  0  0  0  0  0  0
   -2.3923   -1.8329   -0.0374 C   0  0  0  0  0  0  0  0  0  0  0  0
   -2.9952   -0.5504   -0.0065 C   0  0  0  0  0  0  0  0  0  0  0  0
   -4.4717   -0.3613   -0.0042 C   0  0  0  0  0  0  0  0  0  0  0  0
   -5.0127    0.9193   -0.2598 C   0  0  0  0  0  0  0  0  0  0  0  0
   -6.3966    1.1286   -0.2693 C   0  0  0  0  0  0  0  0  0  0  0  0
   -7.2767    0.0625   -0.0185 C   0  0  0  0  0  0  0  0  0  0  0  0
   -6.7542   -1.2136    0.2443 C   0  0  0  0  0  0  0  0  0  0  0  0
   -5.3684   -1.4233    0.2516 C   0  0  0  0  0  0  0  0  0  0  0  0
    3.1667    2.2987    0.0386 H   0  0  0  0  0  0  0  0  0  0  0  0
    2.3331    4.6781    0.0954 H   0  0  0  0  0  0  0  0  0  0  0  0
   -0.1743    5.0849    0.1177 H   0  0  0  0  0  0  0  0  0  0  0  0
   -1.7239    3.0515    0.0793 H   0  0  0  0  0  0  0  0  0  0  0  0
   -0.5462   -2.9552   -0.0693 H   0  0  0  0  0  0  0  0  0  0  0  0
   -3.0154   -2.7380   -0.0782 H   0  0  0  0  0  0  0  0  0  0  0  0
   -4.3109    1.7426   -0.4532 H   0  0  0  0  0  0  0  0  0  0  0  0
   -6.7950    2.1339   -0.4765 H   0  0  0  0  0  0  0  0  0  0  0  0
   -8.3652    0.2259   -0.0251 H   0  0  0  0  0  0  0  0  0  0  0  0
   -7.4325   -2.0555    0.4519 H   0  0  0  0  0  0  0  0  0  0  0  0
   -4.9834   -2.4280    0.4790 H   0  0  0  0  0  0  0  0  0  0  0  0
  1  7  1  0  0  0  0
  1  3  1  0  0  0  0
  3  4  2  0  0  0  0
  4  5  1  0  0  0  0
  4 20  1  0  0  0  0
  5 21  1  0  0  0  0
  6 22  1  0  0  0  0
  6  5  2  0  0  0  0
  7  6  1  0  0  0  0
  8  2  1  0  0  0  0
  8  7  2  0  0  0  0
  9  8  1  0  0  0  0
 10 11  1  0  0  0  0
 10  9  2  0  0  0  0
 11 12  2  0  0  0  0
 12 13  1  0  0  0  0
 12  2  1  0  0  0  0
 13 18  1  0  0  0  0
 14 13  2  0  0  0  0
 15 14  1  0  0  0  0
 15 16  2  0  0  0  0
 16 17  1  0  0  0  0
 17 18  2  0  0  0  0
 17 28  1  0  0  0  0
 18 29  1  0  0  0  0
 19  3  1  0  0  0  0
 23 10  1  0  0  0  0
 24 11  1  0  0  0  0
 25 14  1  0  0  0  0
 26 15  1  0  0  0  0
 27 16  1  0  0  0  0
M  END
