1,16
 OpenBabel05122313053D

 31 32  0  0  1  0  0  0  0  0999 V2000
   -0.1493    0.5958   -0.3947 N   0  0  0  0  0  0  0  0  0  0  0  0
   -0.4969    0.7182   -1.3555 H   0  0  0  0  0  0  0  0  0  0  0  0
   -0.6950    1.6162    0.5363 C   0  0  0  0  0  0  0  0  0  0  0  0
    0.2693    2.1656    1.5640 C   0  0  0  0  0  0  0  0  0  0  0  0
   -1.5970    2.6619   -0.0878 C   0  0  0  0  0  0  0  0  0  0  0  0
   -1.1761    0.1706    0.5934 C   0  0  1  0  0  0  0  0  0  0  0  0
   -2.5534   -0.1641    0.0932 C   0  0  0  0  0  0  0  0  0  0  0  0
   -2.7797   -0.6476   -1.2094 C   0  0  0  0  0  0  0  0  0  0  0  0
   -4.0780   -0.9665   -1.6391 C   0  0  0  0  0  0  0  0  0  0  0  0
   -5.1663   -0.8088   -0.7687 C   0  0  0  0  0  0  0  0  0  0  0  0
   -4.9497   -0.3331    0.5353 C   0  0  0  0  0  0  0  0  0  0  0  0
   -3.6537   -0.0147    0.9628 C   0  0  0  0  0  0  0  0  0  0  0  0
   -0.5955   -0.7706    1.6625 C   0  0  0  0  0  0  0  0  0  0  0  0
    0.6481   -1.5114    1.1848 C   0  0  0  0  0  3  0  0  0  0  0  0
    1.2741   -1.9104    2.0016 H   0  0  0  0  0  0  0  0  0  0  0  0
    0.7170   -2.1383   -0.0916 C   0  0  0  0  0  3  0  0  0  0  0  0
   -0.1471   -2.0969   -0.7780 H   0  0  0  0  0  0  0  0  0  0  0  0
    1.3724   -3.0095   -0.2455 H   0  0  0  0  0  0  0  0  0  0  0  0
    0.9576    1.3903    1.9492 H   0  0  0  0  0  0  0  0  0  0  0  0
   -0.2885    2.6182    2.4090 H   0  0  0  0  0  0  0  0  0  0  0  0
    0.9029    2.9418    1.0919 H   0  0  0  0  0  0  0  0  0  0  0  0
   -2.2791    2.2339   -0.8467 H   0  0  0  0  0  0  0  0  0  0  0  0
   -0.9806    3.4510   -0.5638 H   0  0  0  0  0  0  0  0  0  0  0  0
   -2.2226    3.1400    0.6927 H   0  0  0  0  0  0  0  0  0  0  0  0
   -1.9336   -0.7893   -1.9009 H   0  0  0  0  0  0  0  0  0  0  0  0
   -4.2363   -1.3451   -2.6601 H   0  0  0  0  0  0  0  0  0  0  0  0
   -6.1840   -1.0579   -1.1048 H   0  0  0  0  0  0  0  0  0  0  0  0
   -5.7988   -0.2057    1.2238 H   0  0  0  0  0  0  0  0  0  0  0  0
   -3.4879    0.3622    1.9842 H   0  0  0  0  0  0  0  0  0  0  0  0
   -0.3551   -0.1994    2.5812 H   0  0  0  0  0  0  0  0  0  0  0  0
   -1.3736   -1.5091    1.9532 H   0  0  0  0  0  0  0  0  0  0  0  0
  1  3  1  0  0  0  0
  1  6  1  0  0  0  0
  2  1  1  0  0  0  0
  3  6  1  0  0  0  0
  3  4  1  0  0  0  0
  4 19  1  0  0  0  0
  4 20  1  0  0  0  0
  5  3  1  0  0  0  0
  5 24  1  0  0  0  0
  6 13  1  1  0  0  0
  7  6  1  0  0  0  0
  7 12  1  0  0  0  0
  8  7  2  0  0  0  0
  9  8  1  0  0  0  0
  9 10  2  0  0  0  0
 10 11  1  0  0  0  0
 11 12  2  0  0  0  0
 11 28  1  0  0  0  0
 12 29  1  0  0  0  0
 13 31  1  0  0  0  0
 13 30  1  0  0  0  0
 14 13  1  0  0  0  0
 14 15  1  0  0  0  0
 16 14  1  0  0  0  0
 17 16  1  0  0  0  0
 18 16  1  0  0  0  0
 21  4  1  0  0  0  0
 22  5  1  0  0  0  0
 23  5  1  0  0  0  0
 25  8  1  0  0  0  0
 26  9  1  0  0  0  0
 27 10  1  0  0  0  0
M  END
