3,5
 OpenBabel05122313053D

 27 28  0  0  0  0  0  0  0  0999 V2000
    6.2928   -1.5139   -0.6076 Cl  0  0  0  0  0  0  0  0  0  0  0  0
   -8.2758   -0.7967   -0.1116 Cl  0  0  0  0  0  0  0  0  0  0  0  0
   -0.1881   -1.3699    0.3819 N   0  0  0  0  0  2  0  0  0  0  0  0
   -1.5395   -1.5442    0.4542 N   0  0  0  0  0  0  0  0  0  0  0  0
    2.3391   -0.9715   -0.0084 C   0  0  0  0  0  3  0  0  0  0  0  0
    3.6935   -0.7615   -0.3319 C   0  0  0  0  0  0  0  0  0  0  0  0
    4.0466    0.2148   -0.6898 H   0  0  0  0  0  0  0  0  0  0  0  0
    4.6146   -1.8139   -0.2241 C   0  0  0  0  0  0  0  0  0  0  0  0
    4.2345   -3.1144    0.1785 C   0  0  0  0  0  0  0  0  0  0  0  0
    4.9901   -3.9084    0.2463 H   0  0  0  0  0  0  0  0  0  0  0  0
    2.8911   -3.3565    0.4559 C   0  0  0  0  0  0  0  0  0  0  0  0
    2.5603   -4.3684    0.7382 H   0  0  0  0  0  0  0  0  0  0  0  0
    1.9477   -2.3048    0.3600 C   0  0  0  0  0  0  0  0  0  0  0  0
    0.5430   -2.4616    0.5493 C   0  0  0  0  0  3  0  0  0  0  0  0
    0.0349   -3.4159    0.7639 H   0  0  0  0  0  0  0  0  0  0  0  0
   -2.2668   -0.6852   -0.1926 C   0  0  0  0  0  0  0  0  0  0  0  0
   -1.7824    0.0979   -0.8122 H   0  0  0  0  0  0  0  0  0  0  0  0
   -3.7232   -0.7421   -0.1647 C   0  0  0  0  0  0  0  0  0  0  0  0
   -4.4237   -1.6939    0.6154 C   0  0  0  0  0  0  0  0  0  0  0  0
   -3.8425   -2.4172    1.2055 H   0  0  0  0  0  0  0  0  0  0  0  0
   -5.8186   -1.7136    0.6338 C   0  0  0  0  0  0  0  0  0  0  0  0
   -6.3676   -2.4496    1.2378 H   0  0  0  0  0  0  0  0  0  0  0  0
   -6.5344   -0.7748   -0.1357 C   0  0  0  0  0  0  0  0  0  0  0  0
   -5.8631    0.1772   -0.9214 C   0  0  0  0  0  0  0  0  0  0  0  0
   -6.4406    0.8970   -1.5176 H   0  0  0  0  0  0  0  0  0  0  0  0
   -4.4642    0.1875   -0.9304 C   0  0  0  0  0  0  0  0  0  0  0  0
   -3.9281    0.9251   -1.5483 H   0  0  0  0  0  0  0  0  0  0  0  0
  1  8  1  0  0  0  0
  3  4  1  0  0  0  0
  3 14  1  0  0  0  0
  5 13  1  0  0  0  0
  6  8  1  0  0  0  0
  6  5  2  0  0  0  0
  7  6  1  0  0  0  0
  8  9  2  0  0  0  0
  9 10  1  0  0  0  0
  9 11  1  0  0  0  0
 11 12  1  0  0  0  0
 13 11  2  0  0  0  0
 13 14  1  0  0  0  0
 14 15  1  0  0  0  0
 16 18  1  0  0  0  0
 16  4  2  0  0  0  0
 17 16  1  0  0  0  0
 18 19  1  0  0  0  0
 19 21  2  0  0  0  0
 19 20  1  0  0  0  0
 21 22  1  0  0  0  0
 23  2  1  0  0  0  0
 23 21  1  0  0  0  0
 24 23  2  0  0  0  0
 25 24  1  0  0  0  0
 26 24  1  0  0  0  0
 26 18  2  0  0  0  0
 27 26  1  0  0  0  0
M  END
