1,3
 OpenBabel05122313053D

 22 22  0  0  0  0  0  0  0  0999 V2000
   -1.8523   -1.8899   -0.4495 N   0  0  0  0  0  0  0  0  0  0  0  0
   -3.3390   -0.0108   -0.6535 C   0  0  0  0  0  0  0  0  0  0  0  0
   -2.2850    0.6580    0.0235 C   0  0  0  0  0  3  0  0  0  0  0  0
   -4.6458    0.5002   -0.6227 C   0  0  0  0  0  0  0  0  0  0  0  0
   -5.4566   -0.0244   -1.1526 H   0  0  0  0  0  0  0  0  0  0  0  0
   -4.9214    1.6703    0.1039 C   0  0  0  0  0  0  0  0  0  0  0  0
   -5.9443    2.0737    0.1280 H   0  0  0  0  0  0  0  0  0  0  0  0
   -2.3906   -2.5227    0.7915 C   0  0  0  0  0  0  0  0  0  0  0  0
   -3.0891   -3.3349    0.4895 H   0  0  0  0  0  0  0  0  0  0  0  0
   -2.9926   -1.7479    1.3049 H   0  0  0  0  0  0  0  0  0  0  0  0
   -1.3055   -3.0582    1.7092 C   0  0  0  0  0  0  0  0  0  0  0  0
   -0.7097   -3.8623    1.2296 H   0  0  0  0  0  0  0  0  0  0  0  0
   -1.7664   -3.4947    2.6164 H   0  0  0  0  0  0  0  0  0  0  0  0
   -0.6164   -2.2501    2.0288 H   0  0  0  0  0  0  0  0  0  0  0  0
   -3.8999    2.2972    0.8321 C   0  0  0  0  0  0  0  0  0  0  0  0
   -4.1243    3.1848    1.4433 H   0  0  0  0  0  0  0  0  0  0  0  0
   -2.5867    1.7881    0.8025 C   0  0  0  0  0  0  0  0  0  0  0  0
   -1.8158    2.2753    1.4193 H   0  0  0  0  0  0  0  0  0  0  0  0
   -2.9485   -1.3101   -1.3009 C   0  0  0  0  0  0  0  0  0  0  0  0
   -1.3661   -2.6189   -0.9930 H   0  0  0  0  0  0  0  0  0  0  0  0
   -3.7956   -2.0248   -1.3857 H   0  0  0  0  0  0  0  0  0  0  0  0
   -2.5279   -1.1562   -2.3166 H   0  0  0  0  0  0  0  0  0  0  0  0
  1  8  1  0  0  0  0
  2  4  2  0  0  0  0
  2  3  1  0  0  0  0
  3 17  2  0  0  0  0
  4  6  1  0  0  0  0
  5  4  1  0  0  0  0
  6  7  1  0  0  0  0
  6 15  2  0  0  0  0
  8 10  1  0  0  0  0
  8 11  1  0  0  0  0
  9  8  1  0  0  0  0
 11 14  1  0  0  0  0
 11 13  1  0  0  0  0
 12 11  1  0  0  0  0
 15 16  1  0  0  0  0
 17 15  1  0  0  0  0
 17 18  1  0  0  0  0
 19  2  1  0  0  0  0
 19  1  1  0  0  0  0
 20  1  1  0  0  0  0
 21 19  1  0  0  0  0
 22 19  1  0  0  0  0
M  END
