8,40
 OpenBabel05122313053D

 40 43  0  0  0  0  0  0  0  0999 V2000
    0.1147   -2.2602   -1.8128 C   0  0  0  0  0  0  0  0  0  0  0  0
    0.6176   -1.3597   -2.2229 H   0  0  0  0  0  0  0  0  0  0  0  0
    0.4874   -3.1275   -2.3979 H   0  0  0  0  0  0  0  0  0  0  0  0
    0.5403   -2.4763   -0.3019 C   0  0  0  0  0  0  0  0  0  0  0  0
    0.5944   -3.5673   -0.1110 H   0  0  0  0  0  0  0  0  0  0  0  0
    1.5822   -2.1193   -0.1745 H   0  0  0  0  0  0  0  0  0  0  0  0
   -0.4531   -1.8955    0.6962 C   0  0  0  0  0  0  0  0  0  0  0  0
   -0.8540   -0.5364    0.7122 C   0  0  0  0  0  2  0  0  0  0  0  0
   -2.1883   -0.2094    1.1464 C   0  0  0  0  0  0  0  0  0  0  0  0
   -3.0946   -1.2304    1.5675 C   0  0  0  0  0  0  0  0  0  0  0  0
   -2.5264   -2.4822    1.8637 C   0  0  0  0  0  0  0  0  0  0  0  0
   -3.1701   -3.2780    2.2707 H   0  0  0  0  0  0  0  0  0  0  0  0
   -1.2345   -2.8084    1.4356 C   0  0  0  0  0  0  0  0  0  0  0  0
   -0.8904   -3.8519    1.5319 H   0  0  0  0  0  0  0  0  0  0  0  0
   -4.6079   -1.1906    1.3967 C   0  0  0  0  0  0  0  0  0  0  0  0
   -5.1210   -0.4341    2.0254 H   0  0  0  0  0  0  0  0  0  0  0  0
   -4.9920   -2.1655    1.7578 H   0  0  0  0  0  0  0  0  0  0  0  0
   -5.0751   -0.9982   -0.1069 C   0  0  0  0  0  0  0  0  0  0  0  0
   -6.0213   -1.5646   -0.2360 H   0  0  0  0  0  0  0  0  0  0  0  0
   -5.3146    0.0688   -0.2894 H   0  0  0  0  0  0  0  0  0  0  0  0
   -4.0096   -1.4359   -1.0893 C   0  0  0  0  0  0  0  0  0  0  0  0
   -3.2249   -0.4831   -1.7674 C   0  0  0  0  0  0  0  0  0  0  0  0
   -3.5725    0.5607   -1.8290 H   0  0  0  0  0  0  0  0  0  0  0  0
   -1.9248   -0.7961   -2.1909 C   0  0  0  0  0  0  0  0  0  0  0  0
   -1.2757    0.0092   -2.5703 H   0  0  0  0  0  0  0  0  0  0  0  0
   -1.3810   -2.0735   -1.9543 C   0  0  0  0  0  0  0  0  0  0  0  0
   -2.2715   -3.0897   -1.5488 C   0  0  0  0  0  0  0  0  0  0  0  0
   -1.9017   -4.1206   -1.4264 H   0  0  0  0  0  0  0  0  0  0  0  0
   -3.5661   -2.7753   -1.1198 C   0  0  0  0  0  0  0  0  0  0  0  0
   -4.1882   -3.5646   -0.6678 H   0  0  0  0  0  0  0  0  0  0  0  0
   -2.5583    1.1928    0.9328 C   0  0  0  0  0  0  0  0  0  0  0  0
   -3.7514    1.8487    1.3064 C   0  0  0  0  0  0  0  0  0  0  0  0
   -4.5189    1.3018    1.8632 H   0  0  0  0  0  0  0  0  0  0  0  0
   -3.9467    3.1967    0.9892 C   0  0  0  0  0  0  0  0  0  0  0  0
   -4.8803    3.6982    1.2858 H   0  0  0  0  0  0  0  0  0  0  0  0
   -2.9464    3.9022    0.3026 C   0  0  0  0  0  0  0  0  0  0  0  0
   -3.0627    4.9606    0.0321 H   0  0  0  0  0  0  0  0  0  0  0  0
   -1.7634    3.2286   -0.0139 C   0  0  0  0  0  0  0  0  0  0  0  0
   -0.9024    3.7074   -0.5093 H   0  0  0  0  0  0  0  0  0  0  0  0
   -1.5890    1.9291    0.2983 N   0  0  0  0  0  2  0  0  0  0  0  0
  1  4  1  0  0  0  0
  2  1  1  0  0  0  0
  3  1  1  0  0  0  0
  4  6  1  0  0  0  0
  4  5  1  0  0  0  0
  4  7  1  0  0  0  0
  7  8  1  0  0  0  0
  7 13  2  0  0  0  0
  8  9  1  0  0  0  0
  9 10  1  0  0  0  0
 10 11  2  0  0  0  0
 11 12  1  0  0  0  0
 13 14  1  0  0  0  0
 13 11  1  0  0  0  0
 15 10  1  0  0  0  0
 15 17  1  0  0  0  0
 15 16  1  0  0  0  0
 18 15  1  0  0  0  0
 19 18  1  0  0  0  0
 20 18  1  0  0  0  0
 21 18  1  0  0  0  0
 22 21  2  0  0  0  0
 23 22  1  0  0  0  0
 24 26  2  0  0  0  0
 24 22  1  0  0  0  0
 25 24  1  0  0  0  0
 26  1  1  0  0  0  0
 26 27  1  0  0  0  0
 27 28  1  0  0  0  0
 27 29  2  0  0  0  0
 29 21  1  0  0  0  0
 29 30  1  0  0  0  0
 31  9  2  0  0  0  0
 31 32  1  0  0  0  0
 32 33  1  0  0  0  0
 34 35  1  0  0  0  0
 34 32  2  0  0  0  0
 36 34  1  0  0  0  0
 37 36  1  0  0  0  0
 38 40  1  0  0  0  0
 38 36  2  0  0  0  0
 39 38  1  0  0  0  0
 40 31  1  0  0  0  0
M  END
