3,6
 OpenBabel05122313053D

 40 42  0  0  0  0  0  0  0  0999 V2000
    4.0139   -3.7983   -0.3416 O   0  0  0  0  0  0  0  0  0  0  0  0
    2.5182    2.6068   -1.8647 O   0  0  0  0  0  0  0  0  0  0  0  0
    0.3591    0.4354   -0.3715 N   0  0  0  0  0  2  0  0  0  0  0  0
    0.7360    1.6829   -0.5936 C   0  0  0  0  0  0  0  0  0  0  0  0
   -0.3177    2.6750   -0.5598 C   0  0  0  0  0  0  0  0  0  0  0  0
   -1.6128    2.1531   -0.2230 C   0  0  0  0  0  2  0  0  0  0  0  0
   -2.6773    3.0640   -0.1072 C   0  0  0  0  0  0  0  0  0  0  0  0
   -2.4663    4.4375   -0.3252 C   0  0  0  0  0  0  0  0  0  0  0  0
   -1.1967    4.9372   -0.6721 C   0  0  0  0  0  0  0  0  0  0  0  0
   -0.1181    4.0569   -0.7890 C   0  0  0  0  0  0  0  0  0  0  0  0
    1.2755   -0.6396   -0.4179 C   0  0  0  0  0  0  0  0  0  0  0  0
    1.3264   -1.5570    0.6561 C   0  0  0  0  0  0  0  0  0  0  0  0
    2.2577   -2.5909    0.6547 C   0  0  0  0  0  0  0  0  0  0  0  0
    3.1452   -2.7563   -0.4347 C   0  0  0  0  0  0  0  0  0  0  0  0
    3.0747   -1.8668   -1.5259 C   0  0  0  0  0  0  0  0  0  0  0  0
    2.1424   -0.8191   -1.5124 C   0  0  0  0  0  0  0  0  0  0  0  0
    4.9389   -3.9980   -1.3942 C   0  0  0  0  0  0  0  0  0  0  0  0
    2.1869    2.0707   -0.8092 C   0  0  0  0  0  0  0  0  0  0  0  0
    3.1489    1.8325    0.3082 C   0  0  0  0  0  0  0  0  0  0  0  0
    4.5241    2.0116    0.0483 C   0  0  0  0  0  0  0  0  0  0  0  0
    5.4628    1.8194    1.0667 C   0  0  0  0  0  0  0  0  0  0  0  0
    5.0339    1.4590    2.3571 C   0  0  0  0  0  0  0  0  0  0  0  0
    3.6652    1.2933    2.6258 C   0  0  0  0  0  0  0  0  0  0  0  0
    2.7231    1.4761    1.6054 C   0  0  0  0  0  0  0  0  0  0  0  0
   -3.6802    2.6953    0.1505 H   0  0  0  0  0  0  0  0  0  0  0  0
   -3.3161    5.1321   -0.2270 H   0  0  0  0  0  0  0  0  0  0  0  0
   -1.0538    6.0131   -0.8522 H   0  0  0  0  0  0  0  0  0  0  0  0
    0.8785    4.4240   -1.0752 H   0  0  0  0  0  0  0  0  0  0  0  0
    0.6303   -1.4243    1.4952 H   0  0  0  0  0  0  0  0  0  0  0  0
    2.3304   -3.2970    1.4947 H   0  0  0  0  0  0  0  0  0  0  0  0
    3.7341   -1.9818   -2.3961 H   0  0  0  0  0  0  0  0  0  0  0  0
    2.0757   -0.1373   -2.3721 H   0  0  0  0  0  0  0  0  0  0  0  0
    5.6067   -3.1180   -1.5307 H   0  0  0  0  0  0  0  0  0  0  0  0
    4.4287   -4.2103   -2.3607 H   0  0  0  0  0  0  0  0  0  0  0  0
    5.5512   -4.8743   -1.1116 H   0  0  0  0  0  0  0  0  0  0  0  0
    4.8230    2.3031   -0.9696 H   0  0  0  0  0  0  0  0  0  0  0  0
    6.5357    1.9520    0.8602 H   0  0  0  0  0  0  0  0  0  0  0  0
    5.7724    1.3095    3.1597 H   0  0  0  0  0  0  0  0  0  0  0  0
    3.3307    1.0201    3.6378 H   0  0  0  0  0  0  0  0  0  0  0  0
    1.6502    1.3497    1.8152 H   0  0  0  0  0  0  0  0  0  0  0  0
  2 18  2  0  0  0  0
  4  5  2  0  0  0  0
  4  3  1  0  0  0  0
  5  6  1  0  0  0  0
  6  7  1  0  0  0  0
  7 25  1  0  0  0  0
  8 26  1  0  0  0  0
  8  7  2  0  0  0  0
  9  8  1  0  0  0  0
 10  9  2  0  0  0  0
 10  5  1  0  0  0  0
 11  3  1  0  0  0  0
 11 12  1  0  0  0  0
 12 29  1  0  0  0  0
 13 12  2  0  0  0  0
 13 30  1  0  0  0  0
 14  1  1  0  0  0  0
 14 13  1  0  0  0  0
 15 16  1  0  0  0  0
 15 14  2  0  0  0  0
 16 11  2  0  0  0  0
 17 35  1  0  0  0  0
 17  1  1  0  0  0  0
 18  4  1  0  0  0  0
 18 19  1  0  0  0  0
 19 24  1  0  0  0  0
 20 19  2  0  0  0  0
 20 21  1  0  0  0  0
 21 22  2  0  0  0  0
 22 23  1  0  0  0  0
 22 38  1  0  0  0  0
 23 39  1  0  0  0  0
 24 40  1  0  0  0  0
 24 23  2  0  0  0  0
 27  9  1  0  0  0  0
 28 10  1  0  0  0  0
 31 15  1  0  0  0  0
 32 16  1  0  0  0  0
 33 17  1  0  0  0  0
 34 17  1  0  0  0  0
 36 20  1  0  0  0  0
 37 21  1  0  0  0  0
M  END
