1,2
 OpenBabel05122313053D

 26 28  0  0  0  0  0  0  0  0999 V2000
    0.2116    2.8403    0.3107 N   0  0  0  0  0  2  0  0  0  0  0  0
   -2.2656    1.8525   -0.0738 C   0  0  0  0  0  2  0  0  0  0  0  0
   -3.5920    1.3896   -0.1458 C   0  0  0  0  0  0  0  0  0  0  0  0
   -3.8421    0.3561    0.1257 H   0  0  0  0  0  0  0  0  0  0  0  0
   -4.6402    2.2219   -0.5740 C   0  0  0  0  0  0  0  0  0  0  0  0
   -5.6646    1.8201   -0.6192 H   0  0  0  0  0  0  0  0  0  0  0  0
   -4.3854    3.5495   -0.9497 C   0  0  0  0  0  0  0  0  0  0  0  0
   -5.2022    4.1996   -1.2970 H   0  0  0  0  0  0  0  0  0  0  0  0
   -3.0796    4.0440   -0.8695 C   0  0  0  0  0  0  0  0  0  0  0  0
   -2.8846    5.0899   -1.1496 H   0  0  0  0  0  0  0  0  0  0  0  0
   -2.0230    3.2195   -0.4234 C   0  0  0  0  0  0  0  0  0  0  0  0
   -0.6580    3.7207   -0.2307 C   0  0  0  0  0  0  0  0  0  0  0  0
   -0.2550    5.0530   -0.5367 C   0  0  0  0  0  0  0  0  0  0  0  0
   -0.9687    5.7376   -1.0121 H   0  0  0  0  0  0  0  0  0  0  0  0
    1.0270    5.4672   -0.2425 C   0  0  0  0  0  0  0  0  0  0  0  0
    1.3588    6.4883   -0.4871 H   0  0  0  0  0  0  0  0  0  0  0  0
    1.9286    4.5796    0.4055 C   0  0  0  0  0  0  0  0  0  0  0  0
    1.4737    3.2400    0.6834 C   0  0  0  0  0  0  0  0  0  0  0  0
    2.3443    2.3557    1.3790 C   0  0  0  0  0  0  0  0  0  0  0  0
    2.0080    1.3286    1.5637 H   0  0  0  0  0  0  0  0  0  0  0  0
    3.6111    2.7757    1.7580 C   0  0  0  0  0  0  0  0  0  0  0  0
    4.2710    2.0740    2.2908 H   0  0  0  0  0  0  0  0  0  0  0  0
    4.0719    4.0850    1.4607 C   0  0  0  0  0  0  0  0  0  0  0  0
    5.0835    4.3946    1.7633 H   0  0  0  0  0  0  0  0  0  0  0  0
    3.2392    4.9720    0.7959 C   0  0  0  0  0  0  0  0  0  0  0  0
    3.5714    5.9963    0.5665 H   0  0  0  0  0  0  0  0  0  0  0  0
  1 18  1  0  0  0  0
  3  2  1  0  0  0  0
  3  4  1  0  0  0  0
  5  3  2  0  0  0  0
  6  5  1  0  0  0  0
  7  9  2  0  0  0  0
  7  5  1  0  0  0  0
  8  7  1  0  0  0  0
  9 11  1  0  0  0  0
 10  9  1  0  0  0  0
 11 12  2  0  0  0  0
 11  2  1  0  0  0  0
 12  1  1  0  0  0  0
 13 15  2  0  0  0  0
 13 12  1  0  0  0  0
 14 13  1  0  0  0  0
 15 17  1  0  0  0  0
 16 15  1  0  0  0  0
 17 18  2  0  0  0  0
 17 25  1  0  0  0  0
 18 19  1  0  0  0  0
 19 20  1  0  0  0  0
 19 21  2  0  0  0  0
 21 22  1  0  0  0  0
 23 21  1  0  0  0  0
 23 24  1  0  0  0  0
 25 23  2  0  0  0  0
 26 25  1  0  0  0  0
M  END
