5,6
 OpenBabel05122313053D

 38 39  0  0  0  0  0  0  0  0999 V2000
    1.7219   -0.9519   -3.2894 O   0  0  0  0  0  0  0  0  0  0  0  0
    0.8179    2.5279    0.0782 O   0  0  0  0  0  0  0  0  0  0  0  0
   -2.6403    1.4194   -1.2272 N   0  0  0  0  0  0  0  0  0  0  0  0
   -1.6417   -0.0080   -2.5139 N   0  0  0  0  0  0  0  0  0  0  0  0
    0.9491    0.2749   -1.4372 N   0  0  0  0  0  2  0  0  0  0  0  0
   -1.6344    0.4930   -1.2479 C   0  0  0  0  0  2  0  0  0  0  0  0
   -2.6274    0.5895   -3.2863 C   0  0  0  0  0  0  0  0  0  0  0  0
   -2.7898    0.3320   -4.3372 H   0  0  0  0  0  0  0  0  0  0  0  0
   -3.2646    1.4924   -2.4717 C   0  0  0  0  0  0  0  0  0  0  0  0
   -4.0884    2.1800   -2.6814 H   0  0  0  0  0  0  0  0  0  0  0  0
   -2.9104    2.2971   -0.0774 C   0  0  0  0  0  0  0  0  0  0  0  0
   -2.1026    2.0328    0.6338 H   0  0  0  0  0  0  0  0  0  0  0  0
   -2.7448    3.7649   -0.4751 C   0  0  0  0  0  0  0  0  0  0  0  0
   -1.7505    3.9281   -0.9341 H   0  0  0  0  0  0  0  0  0  0  0  0
   -2.8304    4.4125    0.4197 H   0  0  0  0  0  0  0  0  0  0  0  0
   -3.5244    4.0881   -1.1952 H   0  0  0  0  0  0  0  0  0  0  0  0
   -4.2640    1.9813    0.5604 C   0  0  0  0  0  0  0  0  0  0  0  0
   -5.0998    2.1738   -0.1439 H   0  0  0  0  0  0  0  0  0  0  0  0
   -4.4225    2.6182    1.4529 H   0  0  0  0  0  0  0  0  0  0  0  0
   -4.3129    0.9225    0.8815 H   0  0  0  0  0  0  0  0  0  0  0  0
   -0.6069   -0.9397   -2.9282 C   0  0  0  0  0  0  0  0  0  0  0  0
   -0.6097   -1.0203   -4.0300 H   0  0  0  0  0  0  0  0  0  0  0  0
   -0.8236   -1.9477   -2.5170 H   0  0  0  0  0  0  0  0  0  0  0  0
    0.8358   -0.5153   -2.5357 C   0  0  0  0  0  0  0  0  0  0  0  0
    2.1459    0.9579   -1.1460 C   0  0  0  0  0  0  0  0  0  0  0  0
    2.0744    2.1257   -0.3244 C   0  0  0  0  0  0  0  0  0  0  0  0
    0.7489    3.5913    1.0075 C   0  0  0  0  0  0  0  0  0  0  0  0
    1.2727    3.3383    1.9563 H   0  0  0  0  0  0  0  0  0  0  0  0
   -0.3258    3.7597    1.2144 H   0  0  0  0  0  0  0  0  0  0  0  0
    1.1735    4.5352    0.5967 H   0  0  0  0  0  0  0  0  0  0  0  0
    3.2422    2.8145    0.0396 C   0  0  0  0  0  0  0  0  0  0  0  0
    3.1851    3.6944    0.6929 H   0  0  0  0  0  0  0  0  0  0  0  0
    4.4968    2.3883   -0.4274 C   0  0  0  0  0  0  0  0  0  0  0  0
    5.4017    2.9388   -0.1286 H   0  0  0  0  0  0  0  0  0  0  0  0
    4.5792    1.2670   -1.2582 C   0  0  0  0  0  0  0  0  0  0  0  0
    5.5553    0.9147   -1.6242 H   0  0  0  0  0  0  0  0  0  0  0  0
    3.4205    0.5600   -1.6079 C   0  0  0  0  0  0  0  0  0  0  0  0
    3.4734   -0.3325   -2.2391 H   0  0  0  0  0  0  0  0  0  0  0  0
  1 24  2  0  0  0  0
  2 27  1  0  0  0  0
  3 11  1  0  0  0  0
  4  6  1  0  0  0  0
  5 25  1  0  0  0  0
  6  3  1  0  0  0  0
  7  4  1  0  0  0  0
  7  9  2  0  0  0  0
  8  7  1  0  0  0  0
  9  3  1  0  0  0  0
 10  9  1  0  0  0  0
 11 17  1  0  0  0  0
 11 12  1  0  0  0  0
 13 11  1  0  0  0  0
 13 15  1  0  0  0  0
 14 13  1  0  0  0  0
 16 13  1  0  0  0  0
 17 20  1  0  0  0  0
 17 19  1  0  0  0  0
 18 17  1  0  0  0  0
 21 24  1  0  0  0  0
 21 23  1  0  0  0  0
 21  4  1  0  0  0  0
 22 21  1  0  0  0  0
 24  5  1  0  0  0  0
 25 26  1  0  0  0  0
 26 31  2  0  0  0  0
 26  2  1  0  0  0  0
 27 29  1  0  0  0  0
 27 28  1  0  0  0  0
 30 27  1  0  0  0  0
 31 32  1  0  0  0  0
 33 34  1  0  0  0  0
 33 31  1  0  0  0  0
 35 33  2  0  0  0  0
 36 35  1  0  0  0  0
 37 35  1  0  0  0  0
 37 25  2  0  0  0  0
 38 37  1  0  0  0  0
M  END
