4,9
 OpenBabel05122313053D

 33 36  0  0  1  0  0  0  0  0999 V2000
    1.2453    0.1322    0.4673 N   0  0  0  0  0  0  0  0  0  0  0  0
    2.5922   -1.4966    0.9655 N   0  0  0  0  0  0  0  0  0  0  0  0
    2.5782   -0.2158    0.4965 C   0  0  2  0  0  3  0  0  0  0  0  0
    0.3821   -0.9022    0.8523 C   0  0  0  0  0  3  0  0  0  0  0  0
    1.2743   -1.9179    1.1752 C   0  0  0  0  0  0  0  0  0  0  0  0
    1.0725   -2.9337    1.5278 H   0  0  0  0  0  0  0  0  0  0  0  0
    3.1223    1.9994   -0.2809 C   0  0  0  0  0  0  0  0  0  0  0  0
    3.8646    2.7412   -0.6100 H   0  0  0  0  0  0  0  0  0  0  0  0
   -0.5530    1.5009    0.0677 N   0  0  0  0  0  2  0  0  0  0  0  0
    0.7883    1.3608    0.0640 C   0  0  2  0  0  3  0  0  0  0  0  0
    1.7282    2.3513   -0.3118 C   0  0  0  0  0  0  0  0  0  0  0  0
    5.4592   -0.5932   -0.9079 C   0  0  0  0  0  0  0  0  0  0  0  0
    4.7301   -1.0869   -1.5690 H   0  0  0  0  0  0  0  0  0  0  0  0
    5.0132    0.3795    0.0136 C   0  0  0  0  0  0  0  0  0  0  0  0
    3.5689    0.7327    0.0895 C   0  0  0  0  0  0  0  0  0  0  0  0
    5.9562    1.0376    0.8300 C   0  0  0  0  0  0  0  0  0  0  0  0
    5.6111    1.7963    1.5487 H   0  0  0  0  0  0  0  0  0  0  0  0
    1.1710    3.5917   -0.7181 C   0  0  0  0  0  0  0  0  0  0  0  0
    1.8342    4.4121   -1.0308 H   0  0  0  0  0  0  0  0  0  0  0  0
   -1.0550    2.6838   -0.3232 C   0  0  0  0  0  0  0  0  0  0  0  0
   -2.1586    2.7451   -0.3218 H   0  0  0  0  0  0  0  0  0  0  0  0
   -0.2162    3.7466   -0.7213 C   0  0  0  0  0  0  0  0  0  0  0  0
   -0.6749    4.6940   -1.0371 H   0  0  0  0  0  0  0  0  0  0  0  0
    6.8216   -0.9096   -0.9986 C   0  0  0  0  0  0  0  0  0  0  0  0
    7.1594   -1.6627   -1.7263 H   0  0  0  0  0  0  0  0  0  0  0  0
    7.3189    0.7158    0.7383 C   0  0  0  0  0  0  0  0  0  0  0  0
    8.0456    1.2302    1.3849 H   0  0  0  0  0  0  0  0  0  0  0  0
    7.7535   -0.2598   -0.1725 C   0  0  0  0  0  0  0  0  0  0  0  0
    8.8224   -0.5108   -0.2437 H   0  0  0  0  0  0  0  0  0  0  0  0
    3.7607   -2.3240    1.2348 C   0  0  0  0  0  0  0  0  0  0  0  0
    4.1212   -2.8201    0.3125 H   0  0  0  0  0  0  0  0  0  0  0  0
    3.4747   -3.0948    1.9728 H   0  0  0  0  0  0  0  0  0  0  0  0
    4.5792   -1.7106    1.6503 H   0  0  0  0  0  0  0  0  0  0  0  0
  1  3  1  0  0  0  0
  1  4  1  0  0  0  0
  2  5  1  0  0  0  0
  2 30  1  0  0  0  0
  3 15  1  1  0  0  0
  3  2  1  0  0  0  0
  4  5  2  0  0  0  0
  5  6  1  0  0  0  0
  7 15  2  0  0  0  0
  8  7  1  0  0  0  0
 10 11  1  6  0  0  0
 10  9  1  0  0  0  0
 10  1  1  0  0  0  0
 11  7  1  0  0  0  0
 12 14  1  0  0  0  0
 13 12  1  0  0  0  0
 14 15  1  0  0  0  0
 14 16  2  0  0  0  0
 16 17  1  0  0  0  0
 18 11  2  0  0  0  0
 19 18  1  0  0  0  0
 20 21  1  0  0  0  0
 20  9  1  0  0  0  0
 22 18  1  0  0  0  0
 22 20  2  0  0  0  0
 23 22  1  0  0  0  0
 24 12  2  0  0  0  0
 24 28  1  0  0  0  0
 25 24  1  0  0  0  0
 26 16  1  0  0  0  0
 26 27  1  0  0  0  0
 28 26  2  0  0  0  0
 29 28  1  0  0  0  0
 30 33  1  0  0  0  0
 30 32  1  0  0  0  0
 31 30  1  0  0  0  0
M  END
