3,8
 OpenBabel05122313053D

 46 48  0  0  1  0  0  0  0  0999 V2000
   -2.2160    1.0172   -0.9951 N   0  0  0  0  0  0  0  0  0  0  0  0
   -0.4687    1.0934   -2.2717 N   0  0  0  0  0  0  0  0  0  0  0  0
    1.9285    0.2474   -0.5023 N   0  0  0  0  0  0  0  0  0  0  0  0
   -2.4686    1.9690   -1.9755 C   0  0  0  0  0  0  0  0  0  0  0  0
   -3.4086    2.5251   -2.0219 H   0  0  0  0  0  0  0  0  0  0  0  0
   -1.3619    2.0273   -2.7795 C   0  0  0  0  0  0  0  0  0  0  0  0
   -1.1431    2.6340   -3.6631 H   0  0  0  0  0  0  0  0  0  0  0  0
   -0.9774    0.4608   -1.1689 C   0  0  0  0  0  2  0  0  0  0  0  0
    0.9075    0.9133   -2.6954 C   0  0  0  0  0  0  0  0  0  0  0  0
    1.0801    1.5680   -3.5705 H   0  0  0  0  0  0  0  0  0  0  0  0
    1.0623   -0.1369   -3.0184 H   0  0  0  0  0  0  0  0  0  0  0  0
    1.8856    1.2966   -1.5760 C   0  0  2  0  0  0  0  0  0  0  0  0
    1.5129    2.2359   -1.1238 H   0  0  0  0  0  0  0  0  0  0  0  0
    3.3440    1.4249   -2.0952 C   0  0  0  0  0  0  0  0  0  0  0  0
    3.3560    1.5580   -3.1952 H   0  0  0  0  0  0  0  0  0  0  0  0
    3.8317    2.3221   -1.6672 H   0  0  0  0  0  0  0  0  0  0  0  0
    4.0567    0.1224   -1.6542 C   0  0  0  0  0  0  0  0  0  0  0  0
    4.8511    0.3339   -0.9117 H   0  0  0  0  0  0  0  0  0  0  0  0
    4.5412   -0.4061   -2.4973 H   0  0  0  0  0  0  0  0  0  0  0  0
    2.9370   -0.7285   -1.0381 C   0  0  0  0  0  0  0  0  0  0  0  0
    3.2305   -1.4204   -0.2282 H   0  0  0  0  0  0  0  0  0  0  0  0
    2.4264   -1.3440   -1.8046 H   0  0  0  0  0  0  0  0  0  0  0  0
    2.4307    0.8270    0.7943 C   0  0  0  0  0  0  0  0  0  0  0  0
    2.6400   -0.0538    1.4334 H   0  0  0  0  0  0  0  0  0  0  0  0
    3.3830    1.3701    0.6088 H   0  0  0  0  0  0  0  0  0  0  0  0
    1.4528    1.7405    1.4897 C   0  0  0  0  0  0  0  0  0  0  0  0
    1.5000    3.1372    1.3093 C   0  0  0  0  0  0  0  0  0  0  0  0
    2.2750    3.5761    0.6591 H   0  0  0  0  0  0  0  0  0  0  0  0
    0.5921    3.9798    1.9714 C   0  0  0  0  0  0  0  0  0  0  0  0
    0.6434    5.0690    1.8215 H   0  0  0  0  0  0  0  0  0  0  0  0
   -0.3647    3.4307    2.8385 C   0  0  0  0  0  0  0  0  0  0  0  0
   -1.0705    4.0887    3.3684 H   0  0  0  0  0  0  0  0  0  0  0  0
   -0.4086    2.0402    3.0397 C   0  0  0  0  0  0  0  0  0  0  0  0
   -1.1470    1.6052    3.7304 H   0  0  0  0  0  0  0  0  0  0  0  0
    0.4884    1.1986    2.3673 C   0  0  0  0  0  0  0  0  0  0  0  0
    0.4634    0.1078    2.5248 H   0  0  0  0  0  0  0  0  0  0  0  0
   -3.1535    0.7363    0.1146 C   0  0  0  0  0  0  0  0  0  0  0  0
   -2.6263   -0.0191    0.7299 H   0  0  0  0  0  0  0  0  0  0  0  0
   -3.3914    2.0055    0.9350 C   0  0  0  0  0  0  0  0  0  0  0  0
   -2.4342    2.4492    1.2691 H   0  0  0  0  0  0  0  0  0  0  0  0
   -3.9884    1.7564    1.8343 H   0  0  0  0  0  0  0  0  0  0  0  0
   -3.9571    2.7703    0.3628 H   0  0  0  0  0  0  0  0  0  0  0  0
   -4.4419    0.1094   -0.4172 C   0  0  0  0  0  0  0  0  0  0  0  0
   -5.1027   -0.1534    0.4321 H   0  0  0  0  0  0  0  0  0  0  0  0
   -4.2089   -0.8200   -0.9708 H   0  0  0  0  0  0  0  0  0  0  0  0
   -4.9995    0.8069   -1.0769 H   0  0  0  0  0  0  0  0  0  0  0  0
  1 37  1  0  0  0  0
  2  8  1  0  0  0  0
  3 23  1  0  0  0  0
  4  1  1  0  0  0  0
  5  4  1  0  0  0  0
  6  2  1  0  0  0  0
  6  4  2  0  0  0  0
  7  6  1  0  0  0  0
  8  1  1  0  0  0  0
  9  2  1  0  0  0  0
  9 12  1  0  0  0  0
 10  9  1  0  0  0  0
 11  9  1  0  0  0  0
 12 13  1  1  0  0  0
 12  3  1  0  0  0  0
 14 16  1  0  0  0  0
 14 17  1  0  0  0  0
 14 12  1  0  0  0  0
 15 14  1  0  0  0  0
 17 20  1  0  0  0  0
 17 18  1  0  0  0  0
 19 17  1  0  0  0  0
 20  3  1  0  0  0  0
 20 21  1  0  0  0  0
 22 20  1  0  0  0  0
 23 24  1  0  0  0  0
 23 26  1  0  0  0  0
 25 23  1  0  0  0  0
 26 35  1  0  0  0  0
 27 26  2  0  0  0  0
 27 29  1  0  0  0  0
 28 27  1  0  0  0  0
 29 31  2  0  0  0  0
 30 29  1  0  0  0  0
 31 33  1  0  0  0  0
 31 32  1  0  0  0  0
 33 34  1  0  0  0  0
 35 36  1  0  0  0  0
 35 33  2  0  0  0  0
 37 38  1  0  0  0  0
 37 39  1  0  0  0  0
 39 40  1  0  0  0  0
 39 41  1  0  0  0  0
 42 39  1  0  0  0  0
 43 37  1  0  0  0  0
 43 44  1  0  0  0  0
 45 43  1  0  0  0  0
 46 43  1  0  0  0  0
M  END
