2,3
 OpenBabel05122313053D

 25 26  0  0  1  0  0  0  0  0999 V2000
    3.4279   -1.4058   -0.4777 O   0  0  0  0  0  0  0  0  0  0  0  0
    1.1988   -1.2109   -0.2263 N   0  0  0  0  0  2  0  0  0  0  0  0
    1.1276    1.4188   -0.2730 C   0  0  0  0  0  3  0  0  0  0  0  0
    1.0855    2.8227   -0.2146 C   0  0  0  0  0  0  0  0  0  0  0  0
    0.1492    3.3430    0.0365 H   0  0  0  0  0  0  0  0  0  0  0  0
    2.2403    3.5875   -0.4622 C   0  0  0  0  0  0  0  0  0  0  0  0
    2.1766    4.6861   -0.4243 H   0  0  0  0  0  0  0  0  0  0  0  0
    3.4748    2.9739   -0.7467 C   0  0  0  0  0  0  0  0  0  0  0  0
    4.3668    3.5880   -0.9369 H   0  0  0  0  0  0  0  0  0  0  0  0
    3.5617    1.5785   -0.7644 C   0  0  0  0  0  0  0  0  0  0  0  0
    4.5177    1.0670   -0.9515 H   0  0  0  0  0  0  0  0  0  0  0  0
    2.3955    0.8229   -0.5287 C   0  0  0  0  0  0  0  0  0  0  0  0
    2.3504   -0.6175   -0.4331 C   0  0  1  0  0  3  0  0  0  0  0  0
    2.9824   -2.7245   -0.0563 C   0  0  0  0  0  0  0  0  0  0  0  0
    3.3519   -2.8877    0.9779 H   0  0  0  0  0  0  0  0  0  0  0  0
    3.4383   -3.4739   -0.7297 H   0  0  0  0  0  0  0  0  0  0  0  0
    1.4250   -2.6799   -0.1358 C   0  0  0  0  0  0  0  0  0  0  0  0
    0.9301   -3.3729   -1.4124 C   0  0  0  0  0  0  0  0  0  0  0  0
   -0.1647   -3.2686   -1.5150 H   0  0  0  0  0  0  0  0  0  0  0  0
    1.1667   -4.4550   -1.3781 H   0  0  0  0  0  0  0  0  0  0  0  0
    1.4092   -2.9374   -2.3112 H   0  0  0  0  0  0  0  0  0  0  0  0
    0.7600   -3.2577    1.1139 C   0  0  0  0  0  0  0  0  0  0  0  0
    1.1269   -2.7513    2.0278 H   0  0  0  0  0  0  0  0  0  0  0  0
    0.9705   -4.3418    1.2030 H   0  0  0  0  0  0  0  0  0  0  0  0
   -0.3376   -3.1222    1.0605 H   0  0  0  0  0  0  0  0  0  0  0  0
  1 13  1  0  0  0  0
  1 14  1  0  0  0  0
  2 17  1  0  0  0  0
  3  4  1  0  0  0  0
  4  5  1  0  0  0  0
  6  7  1  0  0  0  0
  6  4  2  0  0  0  0
  8  6  1  0  0  0  0
  9  8  1  0  0  0  0
 10  8  2  0  0  0  0
 10 12  1  0  0  0  0
 11 10  1  0  0  0  0
 12  3  2  0  0  0  0
 13 12  1  1  0  0  0
 13  2  1  0  0  0  0
 14 15  1  0  0  0  0
 16 14  1  0  0  0  0
 17 14  1  0  0  0  0
 17 22  1  0  0  0  0
 18 20  1  0  0  0  0
 18 17  1  0  0  0  0
 19 18  1  0  0  0  0
 21 18  1  0  0  0  0
 22 24  1  0  0  0  0
 22 23  1  0  0  0  0
 25 22  1  0  0  0  0
M  END
