2,10
 OpenBabel05122313053D

 18 18  0  0  1  0  0  0  0  0999 V2000
   -0.2636   -2.9532    0.0517 O   0  0  0  0  0  0  0  0  0  0  0  0
   -0.8465   -1.7030    0.1688 N   0  0  0  0  0  2  0  0  0  0  0  0
   -2.1529   -1.6160    0.2868 C   0  0  2  0  0  3  0  0  0  0  0  0
   -3.0428   -2.8073    0.4259 C   0  0  0  0  0  0  0  0  0  0  0  0
   -2.6085   -0.2398    0.1576 C   0  0  0  0  0  0  0  0  0  0  0  0
   -3.9584    0.1579    0.2686 C   0  0  0  0  0  0  0  0  0  0  0  0
   -4.3182    1.4781   -0.0218 C   0  0  0  0  0  0  0  0  0  0  0  0
   -3.3300    2.3864   -0.4492 C   0  0  0  0  0  0  0  0  0  0  0  0
   -1.9857    1.9947   -0.5544 C   0  0  0  0  0  0  0  0  0  0  0  0
   -1.5794    0.6863   -0.2199 C   0  0  0  0  0  3  0  0  0  0  0  0
    0.2694   -2.8094   -0.7775 H   0  0  0  0  0  0  0  0  0  0  0  0
   -3.8554   -2.7692   -0.3266 H   0  0  0  0  0  0  0  0  0  0  0  0
   -2.4649   -3.7390    0.2976 H   0  0  0  0  0  0  0  0  0  0  0  0
   -3.5241   -2.8184    1.4261 H   0  0  0  0  0  0  0  0  0  0  0  0
   -4.7269   -0.5715    0.5695 H   0  0  0  0  0  0  0  0  0  0  0  0
   -5.3675    1.7980    0.0618 H   0  0  0  0  0  0  0  0  0  0  0  0
   -3.6157    3.4174   -0.7123 H   0  0  0  0  0  0  0  0  0  0  0  0
   -1.2422    2.7210   -0.9162 H   0  0  0  0  0  0  0  0  0  0  0  0
  1  2  1  0  0  0  0
  3  2  1  6  0  0  0
  3  4  1  0  0  0  0
  4 14  1  0  0  0  0
  5  6  1  0  0  0  0
  5  3  1  0  0  0  0
  6 15  1  0  0  0  0
  7 16  1  0  0  0  0
  7  6  2  0  0  0  0
  8  7  1  0  0  0  0
  9  8  2  0  0  0  0
  9 10  1  0  0  0  0
 10  5  2  0  0  0  0
 11  1  1  0  0  0  0
 12  4  1  0  0  0  0
 13  4  1  0  0  0  0
 17  8  1  0  0  0  0
 18  9  1  0  0  0  0
M  END
