2
 OpenBabel05122313053D

 50 52  0  0  1  0  0  0  0  0999 V2000
    0.6068   -0.1759    2.0604 Si  0  0  0  0  0  0  0  0  0  0  0  0
    0.9804    0.3465    0.4092 N   0  0  0  0  0  2  0  0  0  0  0  0
   -1.3568    1.4985   -0.5473 O   0  0  0  0  0  0  0  0  0  0  0  0
    0.9601   -1.9567    1.5508 C   0  0  2  0  0  3  0  0  0  0  0  0
    2.2877   -2.4207    1.2689 C   0  0  0  0  0  0  0  0  0  0  0  0
    3.2078   -2.0546    1.7423 H   0  0  0  0  0  0  0  0  0  0  0  0
    2.2385   -3.3353    0.1780 C   0  0  0  0  0  0  0  0  0  0  0  0
    3.1003   -3.8231   -0.2939 H   0  0  0  0  0  0  0  0  0  0  0  0
    0.8774   -3.4608   -0.2258 C   0  0  0  0  0  0  0  0  0  0  0  0
    0.5060   -4.0614   -1.0647 H   0  0  0  0  0  0  0  0  0  0  0  0
    0.0950   -2.6178    0.6122 C   0  0  0  0  0  0  0  0  0  0  0  0
   -0.9803   -2.4257    0.4936 H   0  0  0  0  0  0  0  0  0  0  0  0
    1.8267    0.4765    3.3379 C   0  0  0  0  0  0  0  0  0  0  0  0
    1.6548    1.5541    3.5364 H   0  0  0  0  0  0  0  0  0  0  0  0
    2.8708    0.3579    2.9864 H   0  0  0  0  0  0  0  0  0  0  0  0
    1.7127   -0.0667    4.2988 H   0  0  0  0  0  0  0  0  0  0  0  0
   -1.1711    0.0798    2.6107 C   0  0  0  0  0  0  0  0  0  0  0  0
   -1.3785    1.1472    2.8276 H   0  0  0  0  0  0  0  0  0  0  0  0
   -1.8837   -0.2595    1.8339 H   0  0  0  0  0  0  0  0  0  0  0  0
   -1.3591   -0.4963    3.5405 H   0  0  0  0  0  0  0  0  0  0  0  0
    0.9983    1.6330   -0.2671 C   0  0  1  0  0  0  0  0  0  0  0  0
    1.1131    1.4464   -1.3623 H   0  0  0  0  0  0  0  0  0  0  0  0
   -0.3425    2.3780   -0.1064 C   0  0  1  0  0  0  0  0  0  0  0  0
   -0.4868    2.5936    0.9864 H   0  0  0  0  0  0  0  0  0  0  0  0
   -0.3210    3.7103   -0.8689 C   0  0  0  0  0  0  0  0  0  0  0  0
   -0.2488    3.4770   -1.9537 H   0  0  0  0  0  0  0  0  0  0  0  0
   -1.2838    4.2423   -0.7192 H   0  0  0  0  0  0  0  0  0  0  0  0
    0.8558    4.5922   -0.4328 C   0  0  0  0  0  0  0  0  0  0  0  0
    0.8639    5.5344   -1.0190 H   0  0  0  0  0  0  0  0  0  0  0  0
    0.7162    4.8900    0.6310 H   0  0  0  0  0  0  0  0  0  0  0  0
    2.1906    3.8510   -0.5766 C   0  0  0  0  0  0  0  0  0  0  0  0
    3.0289    4.4839   -0.2188 H   0  0  0  0  0  0  0  0  0  0  0  0
    2.3869    3.6508   -1.6532 H   0  0  0  0  0  0  0  0  0  0  0  0
    2.1719    2.5204    0.1836 C   0  0  0  0  0  0  0  0  0  0  0  0
    3.1124    1.9533    0.0318 H   0  0  0  0  0  0  0  0  0  0  0  0
    2.0785    2.7095    1.2763 H   0  0  0  0  0  0  0  0  0  0  0  0
   -2.6751    1.8018   -0.1585 C   0  0  0  0  0  0  0  0  0  0  0  0
   -3.1257    2.5887   -0.8148 H   0  0  0  0  0  0  0  0  0  0  0  0
   -2.6949    2.2153    0.8810 H   0  0  0  0  0  0  0  0  0  0  0  0
   -3.5205    0.5471   -0.2162 C   0  0  0  0  0  0  0  0  0  0  0  0
   -3.0354   -0.6145   -0.8465 C   0  0  0  0  0  0  0  0  0  0  0  0
   -2.0340   -0.5996   -1.2997 H   0  0  0  0  0  0  0  0  0  0  0  0
   -3.8237   -1.7762   -0.8872 C   0  0  0  0  0  0  0  0  0  0  0  0
   -3.4320   -2.6764   -1.3863 H   0  0  0  0  0  0  0  0  0  0  0  0
   -5.0998   -1.7912   -0.3034 C   0  0  0  0  0  0  0  0  0  0  0  0
   -5.7149   -2.7034   -0.3346 H   0  0  0  0  0  0  0  0  0  0  0  0
   -5.5888   -0.6317    0.3214 C   0  0  0  0  0  0  0  0  0  0  0  0
   -6.5877   -0.6335    0.7840 H   0  0  0  0  0  0  0  0  0  0  0  0
   -4.8035    0.5294    0.3642 C   0  0  0  0  0  0  0  0  0  0  0  0
   -5.1903    1.4331    0.8633 H   0  0  0  0  0  0  0  0  0  0  0  0
  1 17  1  0  0  0  0
  1 13  1  0  0  0  0
  2  1  1  0  0  0  0
  3 37  1  0  0  0  0
  3 23  1  0  0  0  0
  4  1  1  6  0  0  0
  5  4  1  0  0  0  0
  5  6  1  0  0  0  0
  7  5  2  0  0  0  0
  8  7  1  0  0  0  0
  9  7  1  0  0  0  0
  9 11  2  0  0  0  0
 10  9  1  0  0  0  0
 11  4  1  0  0  0  0
 12 11  1  0  0  0  0
 13 14  1  0  0  0  0
 13 16  1  0  0  0  0
 15 13  1  0  0  0  0
 17 18  1  0  0  0  0
 17 20  1  0  0  0  0
 19 17  1  0  0  0  0
 21 22  1  6  0  0  0
 21 23  1  0  0  0  0
 21 34  1  0  0  0  0
 21  2  1  0  0  0  0
 23 24  1  1  0  0  0
 25 27  1  0  0  0  0
 25 28  1  0  0  0  0
 25 23  1  0  0  0  0
 26 25  1  0  0  0  0
 28 30  1  0  0  0  0
 29 28  1  0  0  0  0
 31 28  1  0  0  0  0
 31 32  1  0  0  0  0
 31 34  1  0  0  0  0
 33 31  1  0  0  0  0
 34 36  1  0  0  0  0
 35 34  1  0  0  0  0
 37 39  1  0  0  0  0
 38 37  1  0  0  0  0
 40 37  1  0  0  0  0
 40 49  1  0  0  0  0
 41 40  2  0  0  0  0
 42 41  1  0  0  0  0
 43 41  1  0  0  0  0
 43 45  2  0  0  0  0
 44 43  1  0  0  0  0
 45 47  1  0  0  0  0
 46 45  1  0  0  0  0
 47 49  2  0  0  0  0
 47 48  1  0  0  0  0
 49 50  1  0  0  0  0
M  END
