4,11
 OpenBabel05122313053D

 27 28  0  0  0  0  0  0  0  0999 V2000
    3.2399   -0.7933    4.0568 Cl  0  0  0  0  0  0  0  0  0  0  0  0
   -3.8067    2.6134    0.9364 Cl  0  0  0  0  0  0  0  0  0  0  0  0
   -3.0649   -2.8180    0.3020 Cl  0  0  0  0  0  0  0  0  0  0  0  0
    0.1428   -0.3005    0.8797 N   0  0  0  0  0  2  0  0  0  0  0  0
   -1.1530   -0.6450    1.1073 N   0  0  0  0  0  2  0  0  0  0  0  0
    2.3771   -0.2586    1.5008 C   0  0  0  0  0  0  0  0  0  0  0  0
    3.4888   -0.3707    2.3732 C   0  0  0  0  0  0  0  0  0  0  0  0
    4.7861   -0.1498    1.9041 C   0  0  0  0  0  0  0  0  0  0  0  0
    4.9664    0.1842    0.5471 C   0  0  0  0  0  0  0  0  0  0  0  0
    3.8784    0.3018   -0.3330 C   0  0  0  0  0  0  0  0  0  0  0  0
    2.5613    0.0863    0.1195 C   0  0  0  0  0  3  0  0  0  0  0  0
    1.0106   -0.4923    1.8570 C   0  0  0  0  0  3  0  0  0  0  0  0
   -2.0492    0.1819    0.6583 C   0  0  0  0  0  3  0  0  0  0  0  0
   -3.4836   -0.1076    0.6685 C   0  0  0  0  0  0  0  0  0  0  0  0
   -4.0539   -1.4018    0.5190 C   0  0  0  0  0  0  0  0  0  0  0  0
   -5.4431   -1.5969    0.4906 C   0  0  0  0  0  0  0  0  0  0  0  0
   -6.3058   -0.5005    0.6079 C   0  0  0  0  0  0  0  0  0  0  0  0
   -5.7899    0.7949    0.7425 C   0  0  0  0  0  0  0  0  0  0  0  0
   -4.4023    0.9741    0.7650 C   0  0  0  0  0  0  0  0  0  0  0  0
    0.6641   -0.8227    2.8483 H   0  0  0  0  0  0  0  0  0  0  0  0
    5.6388   -0.2406    2.5907 H   0  0  0  0  0  0  0  0  0  0  0  0
   -1.7812    1.2036    0.3528 H   0  0  0  0  0  0  0  0  0  0  0  0
    4.0405    0.5593   -1.3899 H   0  0  0  0  0  0  0  0  0  0  0  0
   -6.4494    1.6686    0.8297 H   0  0  0  0  0  0  0  0  0  0  0  0
   -5.8331   -2.6160    0.3652 H   0  0  0  0  0  0  0  0  0  0  0  0
    5.9885    0.3556    0.1732 H   0  0  0  0  0  0  0  0  0  0  0  0
   -7.3945   -0.6565    0.5862 H   0  0  0  0  0  0  0  0  0  0  0  0
  3 15  1  0  0  0  0
  4  5  1  0  0  0  0
  4 12  1  0  0  0  0
  6 12  1  0  0  0  0
  6  7  1  0  0  0  0
  7  1  1  0  0  0  0
  8  7  2  0  0  0  0
  8 21  1  0  0  0  0
  9  8  1  0  0  0  0
 10 11  1  0  0  0  0
 10  9  2  0  0  0  0
 11  6  2  0  0  0  0
 12 20  1  0  0  0  0
 13 14  1  0  0  0  0
 13  5  1  0  0  0  0
 14 19  1  0  0  0  0
 15 14  2  0  0  0  0
 16 15  1  0  0  0  0
 16 17  2  0  0  0  0
 17 18  1  0  0  0  0
 18 19  2  0  0  0  0
 18 24  1  0  0  0  0
 19  2  1  0  0  0  0
 22 13  1  0  0  0  0
 23 10  1  0  0  0  0
 25 16  1  0  0  0  0
 26  9  1  0  0  0  0
 27 17  1  0  0  0  0
M  END
