2,3
 OpenBabel05122313053D

 34 34  0  0  0  0  0  0  0  0999 V2000
   -4.6178   -0.8973    0.2308 Si  0  0  0  0  0  0  0  0  0  0  0  0
    0.5836    3.5685    0.0030 N   0  0  0  0  0  0  0  0  0  0  0  0
   -1.1333    1.4255   -0.1988 C   0  0  0  0  0  3  0  0  0  0  0  0
   -2.0652    0.3930    0.0427 C   0  0  0  0  0  0  0  0  0  0  0  0
   -1.6995   -0.6150    0.2842 H   0  0  0  0  0  0  0  0  0  0  0  0
   -3.4636    0.5847   -0.0147 C   0  0  0  0  0  0  0  0  0  0  0  0
   -3.9479    1.8781   -0.3088 C   0  0  0  0  0  0  0  0  0  0  0  0
   -5.0320    2.0718   -0.3533 H   0  0  0  0  0  0  0  0  0  0  0  0
   -3.0534    2.9349   -0.5355 C   0  0  0  0  0  0  0  0  0  0  0  0
   -3.4377    3.9457   -0.7521 H   0  0  0  0  0  0  0  0  0  0  0  0
   -1.6668    2.7136   -0.4905 C   0  0  0  0  0  0  0  0  0  0  0  0
   -0.6687    3.7979   -0.7792 C   0  0  0  0  0  0  0  0  0  0  0  0
   -1.0636    4.8195   -0.5737 H   0  0  0  0  0  0  0  0  0  0  0  0
   -0.3764    3.7672   -1.8504 H   0  0  0  0  0  0  0  0  0  0  0  0
    0.4081    3.9712    1.4178 C   0  0  0  0  0  0  0  0  0  0  0  0
    1.3213    3.6968    1.9777 H   0  0  0  0  0  0  0  0  0  0  0  0
   -0.4587    3.4352    1.8456 H   0  0  0  0  0  0  0  0  0  0  0  0
    0.2370    5.0699    1.4874 H   0  0  0  0  0  0  0  0  0  0  0  0
    1.7086    4.3163   -0.5974 C   0  0  0  0  0  0  0  0  0  0  0  0
    2.6352    4.0707   -0.0472 H   0  0  0  0  0  0  0  0  0  0  0  0
    1.5005    5.4095   -0.5618 H   0  0  0  0  0  0  0  0  0  0  0  0
    1.8364    3.9969   -1.6481 H   0  0  0  0  0  0  0  0  0  0  0  0
   -6.1999   -0.3417    1.1140 C   0  0  0  0  0  0  0  0  0  0  0  0
   -6.7439    0.4266    0.5268 H   0  0  0  0  0  0  0  0  0  0  0  0
   -5.9709    0.0919    2.1088 H   0  0  0  0  0  0  0  0  0  0  0  0
   -6.8899   -1.1979    1.2629 H   0  0  0  0  0  0  0  0  0  0  0  0
   -3.7320   -2.2238    1.2538 C   0  0  0  0  0  0  0  0  0  0  0  0
   -2.8570   -2.6298    0.7060 H   0  0  0  0  0  0  0  0  0  0  0  0
   -4.4153   -3.0710    1.4694 H   0  0  0  0  0  0  0  0  0  0  0  0
   -3.3658   -1.8209    2.2200 H   0  0  0  0  0  0  0  0  0  0  0  0
   -5.0549   -1.6159   -1.4684 C   0  0  0  0  0  0  0  0  0  0  0  0
   -5.5682   -0.8604   -2.0978 H   0  0  0  0  0  0  0  0  0  0  0  0
   -5.7195   -2.5003   -1.3789 H   0  0  0  0  0  0  0  0  0  0  0  0
   -4.1299   -1.9263   -1.9964 H   0  0  0  0  0  0  0  0  0  0  0  0
  1 23  1  0  0  0  0
  1 27  1  0  0  0  0
  2 15  1  0  0  0  0
  3  4  1  0  0  0  0
  4  5  1  0  0  0  0
  6  4  2  0  0  0  0
  6  1  1  0  0  0  0
  7  6  1  0  0  0  0
  8  7  1  0  0  0  0
  9 11  1  0  0  0  0
  9  7  2  0  0  0  0
 10  9  1  0  0  0  0
 11  3  2  0  0  0  0
 12 13  1  0  0  0  0
 12 11  1  0  0  0  0
 12  2  1  0  0  0  0
 14 12  1  0  0  0  0
 15 18  1  0  0  0  0
 15 17  1  0  0  0  0
 15 16  1  0  0  0  0
 19 21  1  0  0  0  0
 19 20  1  0  0  0  0
 19  2  1  0  0  0  0
 22 19  1  0  0  0  0
 23 26  1  0  0  0  0
 23 25  1  0  0  0  0
 24 23  1  0  0  0  0
 27 29  1  0  0  0  0
 27 30  1  0  0  0  0
 28 27  1  0  0  0  0
 31 33  1  0  0  0  0
 31  1  1  0  0  0  0
 32 31  1  0  0  0  0
 34 31  1  0  0  0  0
M  END
