5,19
 OpenBabel05122313053D

 33 33  0  0  0  0  0  0  0  0999 V2000
   -1.9646    3.0340    1.8148 O   0  0  0  0  0  0  0  0  0  0  0  0
   -2.5999    0.7622    1.6294 C   0  0  0  0  0  3  0  0  0  0  0  0
   -3.3415    0.8104    2.4404 H   0  0  0  0  0  0  0  0  0  0  0  0
   -1.6749    1.9095    1.4100 C   0  0  0  0  0  0  0  0  0  0  0  0
   -0.4702    1.5551    0.6323 C   0  0  0  0  0  3  0  0  0  0  0  0
    0.0949    2.4287    0.2711 H   0  0  0  0  0  0  0  0  0  0  0  0
    0.2112    0.3158    0.9256 C   0  0  0  0  0  3  0  0  0  0  0  0
   -0.2335   -0.3205    1.7105 H   0  0  0  0  0  0  0  0  0  0  0  0
    1.6623    0.0942    0.7634 C   0  0  0  0  0  0  0  0  0  0  0  0
    2.2192   -1.1482    1.1593 C   0  0  0  0  0  0  0  0  0  0  0  0
    1.5556   -1.9214    1.5780 H   0  0  0  0  0  0  0  0  0  0  0  0
    3.5781   -1.4198    1.0194 C   0  0  0  0  0  0  0  0  0  0  0  0
    4.0054   -2.3858    1.3247 H   0  0  0  0  0  0  0  0  0  0  0  0
    4.4442   -0.4463    0.4731 C   0  0  0  0  0  0  0  0  0  0  0  0
    3.9148    0.7994    0.0786 C   0  0  0  0  0  0  0  0  0  0  0  0
    4.5610    1.5809   -0.3424 H   0  0  0  0  0  0  0  0  0  0  0  0
    2.5442    1.0551    0.2265 C   0  0  0  0  0  0  0  0  0  0  0  0
    2.1604    2.0377   -0.0844 H   0  0  0  0  0  0  0  0  0  0  0  0
   -2.5662   -0.1842    0.7216 N   0  0  0  0  0  2  0  0  0  0  0  0
   -3.3732   -1.2667    0.7948 N   0  0  0  0  0  0  0  0  0  0  0  0
   -4.2853   -1.3716    1.9164 C   0  0  0  0  0  0  0  0  0  0  0  0
   -4.7711   -2.3630    1.8735 H   0  0  0  0  0  0  0  0  0  0  0  0
   -5.0794   -0.5865    1.9015 H   0  0  0  0  0  0  0  0  0  0  0  0
   -3.7311   -1.2911    2.8733 H   0  0  0  0  0  0  0  0  0  0  0  0
   -3.8269   -1.8695   -0.4502 C   0  0  0  0  0  0  0  0  0  0  0  0
   -3.0602   -1.7173   -1.2271 H   0  0  0  0  0  0  0  0  0  0  0  0
   -4.7805   -1.4087   -0.7991 H   0  0  0  0  0  0  0  0  0  0  0  0
   -3.9838   -2.9550   -0.2990 H   0  0  0  0  0  0  0  0  0  0  0  0
    5.7552   -0.7982    0.3723 O   0  0  0  0  0  0  0  0  0  0  0  0
    6.6613    0.1396   -0.1755 C   0  0  0  0  0  0  0  0  0  0  0  0
    7.6554   -0.3448   -0.1711 H   0  0  0  0  0  0  0  0  0  0  0  0
    6.7117    1.0724    0.4305 H   0  0  0  0  0  0  0  0  0  0  0  0
    6.3962    0.4112   -1.2223 H   0  0  0  0  0  0  0  0  0  0  0  0
  2  3  1  0  0  0  0
  4  2  1  0  0  0  0
  4  1  2  0  0  0  0
  5  7  1  0  0  0  0
  5  4  1  0  0  0  0
  6  5  1  0  0  0  0
  7  8  1  0  0  0  0
  9  7  1  0  0  0  0
  9 10  1  0  0  0  0
 10 11  1  0  0  0  0
 12 10  2  0  0  0  0
 12 13  1  0  0  0  0
 14 12  1  0  0  0  0
 15 17  1  0  0  0  0
 15 14  2  0  0  0  0
 16 15  1  0  0  0  0
 17  9  2  0  0  0  0
 18 17  1  0  0  0  0
 19 20  1  0  0  0  0
 19  2  1  0  0  0  0
 20 21  1  0  0  0  0
 21 24  1  0  0  0  0
 22 21  1  0  0  0  0
 23 21  1  0  0  0  0
 25 28  1  0  0  0  0
 25 20  1  0  0  0  0
 26 25  1  0  0  0  0
 27 25  1  0  0  0  0
 29 14  1  0  0  0  0
 30 31  1  0  0  0  0
 30 29  1  0  0  0  0
 30 32  1  0  0  0  0
 33 30  1  0  0  0  0
M  END
