1,2
 OpenBabel05122313053D

 33 36  0  0  1  0  0  0  0  0999 V2000
   -1.4396   -0.7750   -1.4454 N   0  0  0  0  0  2  0  0  0  0  0  0
    0.8139    0.5097   -1.1869 C   0  0  0  0  0  3  0  0  0  0  0  0
   -2.0741    0.0579   -3.4351 O   0  0  0  0  0  0  0  0  0  0  0  0
    2.0187    1.2101   -1.0000 C   0  0  0  0  0  0  0  0  0  0  0  0
    2.5770    1.0793   -0.0617 H   0  0  0  0  0  0  0  0  0  0  0  0
    0.1090    0.7594   -2.4162 C   0  0  0  0  0  0  0  0  0  0  0  0
   -1.1161    0.0213   -2.4711 C   0  0  1  0  0  3  0  0  0  0  0  0
    0.5993    1.6484   -3.3962 C   0  0  0  0  0  0  0  0  0  0  0  0
    0.0379    1.8036   -4.3302 H   0  0  0  0  0  0  0  0  0  0  0  0
    2.5356    2.0962   -1.9720 C   0  0  0  0  0  0  0  0  0  0  0  0
   -2.7009   -1.2886   -1.7179 C   0  0  0  0  0  0  0  0  0  0  0  0
    1.8064    2.3088   -3.1735 C   0  0  0  0  0  0  0  0  0  0  0  0
    2.2150    2.9753   -3.9466 H   0  0  0  0  0  0  0  0  0  0  0  0
   -3.0870   -0.7647   -2.9747 C   0  0  0  0  0  0  0  0  0  0  0  0
    3.8285    2.7857   -1.7384 C   0  0  0  0  0  0  0  0  0  0  0  0
   -3.5611   -2.1330   -0.9993 C   0  0  0  0  0  0  0  0  0  0  0  0
   -3.2675   -2.5091   -0.0105 H   0  0  0  0  0  0  0  0  0  0  0  0
   -4.7930   -2.4359   -1.5988 C   0  0  0  0  0  0  0  0  0  0  0  0
   -5.4999   -3.0918   -1.0692 H   0  0  0  0  0  0  0  0  0  0  0  0
    4.0605    4.0930   -2.2257 C   0  0  0  0  0  0  0  0  0  0  0  0
    3.2585    4.6171   -2.7669 H   0  0  0  0  0  0  0  0  0  0  0  0
   -5.1568   -1.9168   -2.8624 C   0  0  0  0  0  0  0  0  0  0  0  0
   -6.1337   -2.1821   -3.2925 H   0  0  0  0  0  0  0  0  0  0  0  0
    5.2808    4.7428   -1.9973 C   0  0  0  0  0  0  0  0  0  0  0  0
    5.4334    5.7647   -2.3771 H   0  0  0  0  0  0  0  0  0  0  0  0
   -4.3043   -1.0594   -3.5825 C   0  0  0  0  0  0  0  0  0  0  0  0
   -4.5794   -0.6406   -4.5601 H   0  0  0  0  0  0  0  0  0  0  0  0
    4.8671    2.1520   -1.0156 C   0  0  0  0  0  0  0  0  0  0  0  0
    4.7208    1.1247   -0.6488 H   0  0  0  0  0  0  0  0  0  0  0  0
    6.0878    2.8009   -0.7893 C   0  0  0  0  0  0  0  0  0  0  0  0
    6.8835    2.2833   -0.2318 H   0  0  0  0  0  0  0  0  0  0  0  0
    6.3011    4.0999   -1.2782 C   0  0  0  0  0  0  0  0  0  0  0  0
    7.2600    4.6100   -1.0995 H   0  0  0  0  0  0  0  0  0  0  0  0
  2  4  1  0  0  0  0
  3 14  1  0  0  0  0
  3  7  1  0  0  0  0
  4  5  1  0  0  0  0
  6  2  2  0  0  0  0
  7  6  1  1  0  0  0
  7  1  1  0  0  0  0
  8 12  2  0  0  0  0
  8  6  1  0  0  0  0
  9  8  1  0  0  0  0
 10 15  1  0  0  0  0
 10  4  2  0  0  0  0
 11  1  1  0  0  0  0
 11 16  1  0  0  0  0
 12 10  1  0  0  0  0
 13 12  1  0  0  0  0
 14 11  2  0  0  0  0
 15 28  1  0  0  0  0
 16 17  1  0  0  0  0
 18 19  1  0  0  0  0
 18 16  2  0  0  0  0
 20 24  1  0  0  0  0
 20 15  2  0  0  0  0
 21 20  1  0  0  0  0
 22 18  1  0  0  0  0
 23 22  1  0  0  0  0
 24 32  2  0  0  0  0
 25 24  1  0  0  0  0
 26 14  1  0  0  0  0
 26 22  2  0  0  0  0
 27 26  1  0  0  0  0
 28 30  2  0  0  0  0
 28 29  1  0  0  0  0
 30 31  1  0  0  0  0
 32 33  1  0  0  0  0
 32 30  1  0  0  0  0
M  END
