1,2
 OpenBabel05122313053D

 33 36  0  0  1  0  0  0  0  0999 V2000
   -0.9448   -0.2259   -1.1364 C   0  0  0  0  0  3  0  0  0  0  0  0
    1.3108    1.0040   -1.5576 N   0  0  0  0  0  2  0  0  0  0  0  0
    1.7988    0.1322   -3.5711 O   0  0  0  0  0  0  0  0  0  0  0  0
   -2.7741   -1.7411   -1.8063 C   0  0  0  0  0  0  0  0  0  0  0  0
   -2.1517   -1.9560   -3.0651 C   0  0  0  0  0  0  0  0  0  0  0  0
   -2.6417   -2.5940   -3.8145 H   0  0  0  0  0  0  0  0  0  0  0  0
    2.5892    1.4345   -1.8880 C   0  0  0  0  0  0  0  0  0  0  0  0
    3.5385    2.2086   -1.2025 C   0  0  0  0  0  0  0  0  0  0  0  0
    3.3120    2.6024   -0.2026 H   0  0  0  0  0  0  0  0  0  0  0  0
   -4.0701   -2.3874   -1.4812 C   0  0  0  0  0  0  0  0  0  0  0  0
   -0.9447   -1.3298   -3.3733 C   0  0  0  0  0  0  0  0  0  0  0  0
   -0.4650   -1.4868   -4.3513 H   0  0  0  0  0  0  0  0  0  0  0  0
   -0.3501   -0.4733   -2.4231 C   0  0  0  0  0  0  0  0  0  0  0  0
   -2.1521   -0.8929   -0.8637 C   0  0  0  0  0  0  0  0  0  0  0  0
   -2.6284   -0.7624    0.1186 H   0  0  0  0  0  0  0  0  0  0  0  0
   -5.0029   -1.7347   -0.6421 C   0  0  0  0  0  0  0  0  0  0  0  0
   -4.8086   -0.7317   -0.2382 H   0  0  0  0  0  0  0  0  0  0  0  0
    4.0939    1.0916   -3.8155 C   0  0  0  0  0  0  0  0  0  0  0  0
    4.2991    0.6542   -4.8019 H   0  0  0  0  0  0  0  0  0  0  0  0
   -4.3934   -3.6615   -2.0005 C   0  0  0  0  0  0  0  0  0  0  0  0
   -3.6886   -4.2191   -2.6314 H   0  0  0  0  0  0  0  0  0  0  0  0
    4.7661    2.4173   -1.8498 C   0  0  0  0  0  0  0  0  0  0  0  0
    5.5427    3.0136   -1.3483 H   0  0  0  0  0  0  0  0  0  0  0  0
    2.8831    0.8869   -3.1594 C   0  0  0  0  0  0  0  0  0  0  0  0
    5.0376    1.8772   -3.1281 C   0  0  0  0  0  0  0  0  0  0  0  0
    6.0152    2.0660   -3.5952 H   0  0  0  0  0  0  0  0  0  0  0  0
    0.8938    0.2236   -2.5615 C   0  0  1  0  0  3  0  0  0  0  0  0
   -7.1009   -1.7217    0.4454 F   0  0  0  0  0  0  0  0  0  0  0  0
   -5.9088   -5.4676   -2.1666 F   0  0  0  0  0  0  0  0  0  0  0  0
   -6.5569   -3.6207   -0.8470 C   0  0  0  0  0  0  0  0  0  0  0  0
   -7.5156   -4.0963   -0.6030 H   0  0  0  0  0  0  0  0  0  0  0  0
   -6.2173   -2.3585   -0.3450 C   0  0  0  0  0  0  0  0  0  0  0  0
   -5.6191   -4.2492   -1.6750 C   0  0  0  0  0  0  0  0  0  0  0  0
  1 14  1  0  0  0  0
  3 24  1  0  0  0  0
  3 27  1  0  0  0  0
  4 10  1  0  0  0  0
  4 14  2  0  0  0  0
  5  4  1  0  0  0  0
  6  5  1  0  0  0  0
  7  2  1  0  0  0  0
  7  8  1  0  0  0  0
  8  9  1  0  0  0  0
 10 16  1  0  0  0  0
 11  5  2  0  0  0  0
 11 13  1  0  0  0  0
 12 11  1  0  0  0  0
 13  1  2  0  0  0  0
 14 15  1  0  0  0  0
 16 32  2  0  0  0  0
 16 17  1  0  0  0  0
 18 24  1  0  0  0  0
 18 25  2  0  0  0  0
 19 18  1  0  0  0  0
 20 33  1  0  0  0  0
 20 10  2  0  0  0  0
 21 20  1  0  0  0  0
 22 23  1  0  0  0  0
 22  8  2  0  0  0  0
 24  7  2  0  0  0  0
 25 22  1  0  0  0  0
 26 25  1  0  0  0  0
 27 13  1  1  0  0  0
 27  2  1  0  0  0  0
 29 33  1  0  0  0  0
 30 31  1  0  0  0  0
 30 32  1  0  0  0  0
 32 28  1  0  0  0  0
 33 30  2  0  0  0  0
M  END
