1,3
 OpenBabel05122313053D

 19 19  0  0  1  0  0  0  0  0999 V2000
   -1.2312   -0.2660    0.0911 N   0  0  0  0  0  2  0  0  0  0  0  0
   -0.3218    2.3163   -0.9887 O   0  0  0  0  0  0  0  0  0  0  0  0
    0.7552    1.7326    1.1627 C   0  0  0  0  0  3  0  0  0  0  0  0
    0.7572    2.0168   -0.2174 C   0  0  0  0  0  3  0  0  0  0  0  0
   -1.6004    2.1750   -0.4121 C   0  0  0  0  0  0  0  0  0  0  0  0
   -2.0869    0.7536   -0.1599 C   0  0  2  0  0  3  0  0  0  0  0  0
   -3.4792    0.5555   -0.1332 C   0  0  0  0  0  0  0  0  0  0  0  0
   -4.0025   -0.7006    0.1860 C   0  0  0  0  0  0  0  0  0  0  0  0
   -3.1072   -1.7428    0.4570 C   0  0  0  0  0  0  0  0  0  0  0  0
   -1.7354   -1.4917    0.3896 C   0  0  0  0  0  0  0  0  0  0  0  0
   -0.1591    1.7614    1.7748 H   0  0  0  0  0  0  0  0  0  0  0  0
    1.7138    1.8227    1.6935 H   0  0  0  0  0  0  0  0  0  0  0  0
    1.6931    2.2598   -0.7443 H   0  0  0  0  0  0  0  0  0  0  0  0
   -1.6584    2.7439    0.5464 H   0  0  0  0  0  0  0  0  0  0  0  0
   -2.3016    2.6588   -1.1186 H   0  0  0  0  0  0  0  0  0  0  0  0
   -4.1437    1.4007   -0.3668 H   0  0  0  0  0  0  0  0  0  0  0  0
   -5.0903   -0.8635    0.2128 H   0  0  0  0  0  0  0  0  0  0  0  0
   -3.4554   -2.7543    0.7089 H   0  0  0  0  0  0  0  0  0  0  0  0
   -0.9806   -2.2816    0.5302 H   0  0  0  0  0  0  0  0  0  0  0  0
  1 10  1  0  0  0  0
  2  5  1  0  0  0  0
  2  4  1  0  0  0  0
  3 12  1  0  0  0  0
  3 11  1  0  0  0  0
  4  3  1  0  0  0  0
  5 14  1  0  0  0  0
  6  5  1  1  0  0  0
  6  7  1  0  0  0  0
  6  1  1  0  0  0  0
  7  8  2  0  0  0  0
  8 17  1  0  0  0  0
  8  9  1  0  0  0  0
  9 18  1  0  0  0  0
 10  9  2  0  0  0  0
 10 19  1  0  0  0  0
 13  4  1  0  0  0  0
 15  5  1  0  0  0  0
 16  7  1  0  0  0  0
M  END
