3,5
 OpenBabel05122313053D

 27 29  0  0  1  0  0  0  0  0999 V2000
   -2.2040    1.0286   -1.7317 N   0  0  0  0  0  0  0  0  0  0  0  0
   -0.1920    1.8280   -1.8452 N   0  0  0  0  0  0  0  0  0  0  0  0
   -2.8001   -0.7790   -0.4292 N   0  0  0  0  0  2  0  0  0  0  0  0
    1.9607    0.8944   -1.9259 N   0  0  0  0  0  0  0  0  0  0  0  0
   -0.9230    0.8513   -1.2377 C   0  0  0  0  0  2  0  0  0  0  0  0
   -2.2648    2.1043   -2.6162 C   0  0  0  0  0  0  0  0  0  0  0  0
   -0.9971    2.6082   -2.6834 C   0  0  0  0  0  0  0  0  0  0  0  0
   -3.2250    0.1489   -1.3186 C   0  0  2  0  0  3  0  0  0  0  0  0
   -3.6721   -1.6941    0.0396 C   0  0  0  0  0  0  0  0  0  0  0  0
   -5.0094   -1.7114   -0.3724 C   0  0  0  0  0  0  0  0  0  0  0  0
   -5.4490   -0.7463   -1.2907 C   0  0  0  0  0  0  0  0  0  0  0  0
   -4.5454    0.2083   -1.7782 C   0  0  0  0  0  0  0  0  0  0  0  0
    1.2348    1.9975   -1.7449 C   0  0  0  0  0  0  0  0  0  0  0  0
    3.2959    1.0212   -1.8796 C   0  0  0  0  0  0  0  0  0  0  0  0
    3.9437    2.2517   -1.6769 C   0  0  0  0  0  0  0  0  0  0  0  0
    3.1593    3.3958   -1.4810 C   0  0  0  0  0  0  0  0  0  0  0  0
    1.7625    3.2743   -1.5047 C   0  0  0  0  0  0  0  0  0  0  0  0
   -3.1785    2.4133   -3.1304 H   0  0  0  0  0  0  0  0  0  0  0  0
   -0.5853    3.4259   -3.2820 H   0  0  0  0  0  0  0  0  0  0  0  0
   -3.2520   -2.4051    0.7715 H   0  0  0  0  0  0  0  0  0  0  0  0
   -5.6922   -2.4732    0.0281 H   0  0  0  0  0  0  0  0  0  0  0  0
   -6.4946   -0.7320   -1.6313 H   0  0  0  0  0  0  0  0  0  0  0  0
   -4.8635    0.9739   -2.4978 H   0  0  0  0  0  0  0  0  0  0  0  0
    3.8771    0.0942   -2.0218 H   0  0  0  0  0  0  0  0  0  0  0  0
    5.0417    2.3049   -1.6651 H   0  0  0  0  0  0  0  0  0  0  0  0
    3.6253    4.3745   -1.2959 H   0  0  0  0  0  0  0  0  0  0  0  0
    1.1068    4.1365   -1.3211 H   0  0  0  0  0  0  0  0  0  0  0  0
  1  5  1  0  0  0  0
  2 13  1  0  0  0  0
  2  5  1  0  0  0  0
  3  9  1  0  0  0  0
  4 14  2  0  0  0  0
  4 13  1  0  0  0  0
  6  1  1  0  0  0  0
  7  6  2  0  0  0  0
  7  2  1  0  0  0  0
  8  1  1  6  0  0  0
  8  3  1  0  0  0  0
  9 20  1  0  0  0  0
 10 21  1  0  0  0  0
 10  9  2  0  0  0  0
 11 10  1  0  0  0  0
 12  8  1  0  0  0  0
 12 11  2  0  0  0  0
 13 17  2  0  0  0  0
 14 15  1  0  0  0  0
 15 25  1  0  0  0  0
 15 16  2  0  0  0  0
 16 26  1  0  0  0  0
 17 16  1  0  0  0  0
 17 27  1  0  0  0  0
 18  6  1  0  0  0  0
 19  7  1  0  0  0  0
 22 11  1  0  0  0  0
 23 12  1  0  0  0  0
 24 14  1  0  0  0  0
M  END
