1,11
 OpenBabel05122313053D

 29 28  0  0  1  0  0  0  0  0999 V2000
   -0.9907    1.3016    0.3712 N   0  0  0  0  0  2  0  0  0  0  0  0
   -2.4150   -0.2888   -0.3735 N   0  0  0  0  0  0  0  0  0  0  0  0
   -0.5480    2.6060    0.9337 C   0  0  0  0  0  0  0  0  0  0  0  0
   -0.8737    3.7846    0.0068 C   0  0  0  0  0  0  0  0  0  0  0  0
   -0.9564    2.8314    2.3944 C   0  0  0  0  0  0  0  0  0  0  0  0
   -2.2587    0.9801    0.1806 C   0  0  1  0  0  3  0  0  0  0  0  0
   -3.4743    1.7827    0.5250 C   0  0  0  0  0  0  0  0  0  0  0  0
   -3.7444   -0.8361   -0.7738 C   0  0  0  0  0  0  0  0  0  0  0  0
   -4.0435   -0.4621   -2.2291 C   0  0  0  0  0  0  0  0  0  0  0  0
   -3.8437   -2.3415   -0.5233 C   0  0  0  0  0  0  0  0  0  0  0  0
   -1.2408   -0.9501   -0.5931 C   0  0  0  0  0  2  0  0  0  0  0  0
    0.5514    2.5039    0.9419 H   0  0  0  0  0  0  0  0  0  0  0  0
   -1.9445    4.0659    0.0112 H   0  0  0  0  0  0  0  0  0  0  0  0
   -0.3020    4.6767    0.3311 H   0  0  0  0  0  0  0  0  0  0  0  0
   -0.5872    3.5538   -1.0374 H   0  0  0  0  0  0  0  0  0  0  0  0
   -2.0449    2.9712    2.5359 H   0  0  0  0  0  0  0  0  0  0  0  0
   -0.6318    1.9857    3.0294 H   0  0  0  0  0  0  0  0  0  0  0  0
   -0.4562    3.7457    2.7705 H   0  0  0  0  0  0  0  0  0  0  0  0
   -4.0549    1.2837    1.3293 H   0  0  0  0  0  0  0  0  0  0  0  0
   -3.2117    2.7893    0.8792 H   0  0  0  0  0  0  0  0  0  0  0  0
   -4.1439    1.8978   -0.3503 H   0  0  0  0  0  0  0  0  0  0  0  0
   -4.4833   -0.3438   -0.1130 H   0  0  0  0  0  0  0  0  0  0  0  0
   -5.0528   -0.8137   -2.5193 H   0  0  0  0  0  0  0  0  0  0  0  0
   -4.0030    0.6335   -2.3896 H   0  0  0  0  0  0  0  0  0  0  0  0
   -3.3065   -0.9356   -2.9096 H   0  0  0  0  0  0  0  0  0  0  0  0
   -3.5405   -2.6063    0.5085 H   0  0  0  0  0  0  0  0  0  0  0  0
   -4.8943   -2.6607   -0.6635 H   0  0  0  0  0  0  0  0  0  0  0  0
   -3.2292   -2.9294   -1.2334 H   0  0  0  0  0  0  0  0  0  0  0  0
   -1.3771   -1.9479   -1.0510 H   0  0  0  0  0  0  0  0  0  0  0  0
  1  3  1  0  0  0  0
  2  6  1  0  0  0  0
  3 12  1  0  0  0  0
  3  5  1  0  0  0  0
  4 13  1  0  0  0  0
  4 14  1  0  0  0  0
  4  3  1  0  0  0  0
  5 16  1  0  0  0  0
  5 18  1  0  0  0  0
  5 17  1  0  0  0  0
  6  1  1  1  0  0  0
  6  7  1  0  0  0  0
  7 20  1  0  0  0  0
  7 19  1  0  0  0  0
  8 10  1  0  0  0  0
  8  2  1  0  0  0  0
  8 22  1  0  0  0  0
  9  8  1  0  0  0  0
 10 26  1  0  0  0  0
 11  2  1  0  0  0  0
 15  4  1  0  0  0  0
 21  7  1  0  0  0  0
 23  9  1  0  0  0  0
 24  9  1  0  0  0  0
 25  9  1  0  0  0  0
 27 10  1  0  0  0  0
 28 10  1  0  0  0  0
 29 11  1  0  0  0  0
M  END
