2,4
 OpenBabel05122313053D

 46 46  0  0  1  0  0  0  0  0999 V2000
    1.9780    1.1544   -0.2376 Si  0  0  0  0  0  0  0  0  0  0  0  0
    1.2444   -0.4633   -0.1988 N   0  0  0  0  0  2  0  0  0  0  0  0
   -1.8283   -0.1574   -1.6671 N   0  0  0  0  0  0  0  0  0  0  0  0
    0.4616    2.0084    0.4940 C   0  0  1  0  0  3  0  0  0  0  0  0
   -0.8359    2.1103   -0.1285 C   0  0  0  0  0  0  0  0  0  0  0  0
   -1.8279    2.0328    0.9001 C   0  0  0  0  0  0  0  0  0  0  0  0
   -1.1711    1.8866    2.1525 C   0  0  0  0  0  0  0  0  0  0  0  0
    0.2274    1.8807    1.9056 C   0  0  0  0  0  0  0  0  0  0  0  0
    3.4375    1.4271    0.9355 C   0  0  0  0  0  0  0  0  0  0  0  0
    2.4958    1.8099   -1.9384 C   0  0  0  0  0  0  0  0  0  0  0  0
    1.9263   -1.7511   -0.4683 C   0  0  0  0  0  0  0  0  0  0  0  0
    3.1262   -1.9380    0.4838 C   0  0  0  0  0  0  0  0  0  0  0  0
    2.4242   -1.7961   -1.9271 C   0  0  0  0  0  0  0  0  0  0  0  0
    0.9467   -2.9180   -0.2309 C   0  0  0  0  0  0  0  0  0  0  0  0
   -1.1332    2.2504   -1.6034 C   0  0  0  0  0  0  0  0  0  0  0  0
   -1.1110    0.9211   -2.3706 C   0  0  0  0  0  0  0  0  0  0  0  0
   -1.6365   -1.4286   -2.3747 C   0  0  0  0  0  0  0  0  0  0  0  0
   -3.2710    0.1106   -1.5784 C   0  0  0  0  0  0  0  0  0  0  0  0
   -2.9142    2.0987    0.7570 H   0  0  0  0  0  0  0  0  0  0  0  0
   -1.6598    1.7914    3.1302 H   0  0  0  0  0  0  0  0  0  0  0  0
    1.0027    1.7518    2.6694 H   0  0  0  0  0  0  0  0  0  0  0  0
    4.3869    1.0378    0.5166 H   0  0  0  0  0  0  0  0  0  0  0  0
    3.5669    2.5164    1.1063 H   0  0  0  0  0  0  0  0  0  0  0  0
    3.2706    0.9383    1.9154 H   0  0  0  0  0  0  0  0  0  0  0  0
    3.4583    1.3609   -2.2582 H   0  0  0  0  0  0  0  0  0  0  0  0
    1.7527    1.6150   -2.7352 H   0  0  0  0  0  0  0  0  0  0  0  0
    2.6476    2.9078   -1.8696 H   0  0  0  0  0  0  0  0  0  0  0  0
    2.7973   -1.8542    1.5381 H   0  0  0  0  0  0  0  0  0  0  0  0
    3.9087   -1.1760    0.3026 H   0  0  0  0  0  0  0  0  0  0  0  0
    3.5897   -2.9353    0.3392 H   0  0  0  0  0  0  0  0  0  0  0  0
    3.1714   -1.0003   -2.1187 H   0  0  0  0  0  0  0  0  0  0  0  0
    1.5862   -1.6491   -2.6382 H   0  0  0  0  0  0  0  0  0  0  0  0
    2.9022   -2.7709   -2.1551 H   0  0  0  0  0  0  0  0  0  0  0  0
    1.4423   -3.8915   -0.4183 H   0  0  0  0  0  0  0  0  0  0  0  0
    0.5853   -2.9302    0.8168 H   0  0  0  0  0  0  0  0  0  0  0  0
    0.0665   -2.8617   -0.8983 H   0  0  0  0  0  0  0  0  0  0  0  0
   -0.3935    2.9297   -2.0731 H   0  0  0  0  0  0  0  0  0  0  0  0
   -2.1184    2.7450   -1.7232 H   0  0  0  0  0  0  0  0  0  0  0  0
   -1.5244    1.0645   -3.4010 H   0  0  0  0  0  0  0  0  0  0  0  0
   -0.0645    0.5767   -2.4819 H   0  0  0  0  0  0  0  0  0  0  0  0
   -2.1027   -1.4055   -3.3897 H   0  0  0  0  0  0  0  0  0  0  0  0
   -2.0954   -2.2467   -1.7869 H   0  0  0  0  0  0  0  0  0  0  0  0
   -0.5560   -1.6310   -2.4929 H   0  0  0  0  0  0  0  0  0  0  0  0
   -3.4643    1.0745   -1.0769 H   0  0  0  0  0  0  0  0  0  0  0  0
   -3.7477   -0.6873   -0.9790 H   0  0  0  0  0  0  0  0  0  0  0  0
   -3.7353    0.1444   -2.5938 H   0  0  0  0  0  0  0  0  0  0  0  0
  1  2  1  0  0  0  0
  1  9  1  0  0  0  0
  3 18  1  0  0  0  0
  4  1  1  6  0  0  0
  4  8  1  0  0  0  0
  5  4  1  0  0  0  0
  5  6  2  0  0  0  0
  6  7  1  0  0  0  0
  7 20  1  0  0  0  0
  8  7  2  0  0  0  0
  8 21  1  0  0  0  0
  9 23  1  0  0  0  0
  9 24  1  0  0  0  0
 10 27  1  0  0  0  0
 10  1  1  0  0  0  0
 11 14  1  0  0  0  0
 11  2  1  0  0  0  0
 11 12  1  0  0  0  0
 12 28  1  0  0  0  0
 13 11  1  0  0  0  0
 14 35  1  0  0  0  0
 15  5  1  0  0  0  0
 16  3  1  0  0  0  0
 16 15  1  0  0  0  0
 17 42  1  0  0  0  0
 17  3  1  0  0  0  0
 18 44  1  0  0  0  0
 18 45  1  0  0  0  0
 19  6  1  0  0  0  0
 22  9  1  0  0  0  0
 25 10  1  0  0  0  0
 26 10  1  0  0  0  0
 29 12  1  0  0  0  0
 30 12  1  0  0  0  0
 31 13  1  0  0  0  0
 32 13  1  0  0  0  0
 33 13  1  0  0  0  0
 34 14  1  0  0  0  0
 36 14  1  0  0  0  0
 37 15  1  0  0  0  0
 38 15  1  0  0  0  0
 39 16  1  0  0  0  0
 40 16  1  0  0  0  0
 41 17  1  0  0  0  0
 43 17  1  0  0  0  0
 46 18  1  0  0  0  0
M  END
