2,3
 OpenBabel05122313053D

 29 29  0  0  1  0  0  0  0  0999 V2000
   -1.6311   -1.1623    0.0000 Si  0  0  0  0  0  0  0  0  0  0  0  0
   -0.8777    0.4374   -0.0000 N   0  0  0  0  0  2  0  0  0  0  0  0
    0.0863   -1.9447    0.0000 C   0  0  2  0  0  3  0  0  0  0  0  0
    0.9435   -1.8467    1.1479 C   0  0  0  0  0  0  0  0  0  0  0  0
    2.2890   -1.6844    0.7125 C   0  0  0  0  0  0  0  0  0  0  0  0
   -2.6145   -1.5520    1.5563 C   0  0  0  0  0  0  0  0  0  0  0  0
   -1.3680    1.8166   -0.0000 C   0  0  0  0  0  0  0  0  0  0  0  0
   -2.1551    2.1153    1.2808 C   0  0  0  0  0  0  0  0  0  0  0  0
    0.6095   -1.7993    2.1925 H   0  0  0  0  0  0  0  0  0  0  0  0
    3.1634   -1.5401    1.3587 H   0  0  0  0  0  0  0  0  0  0  0  0
   -2.0495   -1.2658    2.4655 H   0  0  0  0  0  0  0  0  0  0  0  0
   -2.8396   -2.6373    1.6090 H   0  0  0  0  0  0  0  0  0  0  0  0
   -3.5785   -1.0040    1.5680 H   0  0  0  0  0  0  0  0  0  0  0  0
   -0.4732    2.4839   -0.0000 H   0  0  0  0  0  0  0  0  0  0  0  0
   -3.0770    1.4993    1.3330 H   0  0  0  0  0  0  0  0  0  0  0  0
   -1.5323    1.8945    2.1699 H   0  0  0  0  0  0  0  0  0  0  0  0
   -2.4544    3.1822    1.3190 H   0  0  0  0  0  0  0  0  0  0  0  0
    0.9435   -1.8467   -1.1479 C   0  0  0  0  0  0  0  0  0  0  0  0
    2.2890   -1.6844   -0.7125 C   0  0  0  0  0  0  0  0  0  0  0  0
    0.6095   -1.7993   -2.1925 H   0  0  0  0  0  0  0  0  0  0  0  0
    3.1634   -1.5401   -1.3587 H   0  0  0  0  0  0  0  0  0  0  0  0
   -2.6145   -1.5520   -1.5563 C   0  0  0  0  0  0  0  0  0  0  0  0
   -2.0496   -1.2658   -2.4655 H   0  0  0  0  0  0  0  0  0  0  0  0
   -2.8395   -2.6374   -1.6090 H   0  0  0  0  0  0  0  0  0  0  0  0
   -3.5785   -1.0041   -1.5679 H   0  0  0  0  0  0  0  0  0  0  0  0
   -2.1551    2.1153   -1.2809 C   0  0  0  0  0  0  0  0  0  0  0  0
   -3.0770    1.4993   -1.3331 H   0  0  0  0  0  0  0  0  0  0  0  0
   -1.5324    1.8945   -2.1700 H   0  0  0  0  0  0  0  0  0  0  0  0
   -2.4544    3.1822   -1.3190 H   0  0  0  0  0  0  0  0  0  0  0  0
  1  6  1  0  0  0  0
  2  1  1  0  0  0  0
  3  1  1  1  0  0  0
  3  4  1  0  0  0  0
  4  9  1  0  0  0  0
  5  4  2  0  0  0  0
  5 10  1  0  0  0  0
  6 13  1  0  0  0  0
  6 12  1  0  0  0  0
  6 11  1  0  0  0  0
  7  2  1  0  0  0  0
  7  8  1  0  0  0  0
  8 17  1  0  0  0  0
  8 15  1  0  0  0  0
  8 16  1  0  0  0  0
 14  7  1  0  0  0  0
 18 19  2  0  0  0  0
 18  3  1  0  0  0  0
 19  5  1  0  0  0  0
 20 18  1  0  0  0  0
 21 19  1  0  0  0  0
 22  1  1  0  0  0  0
 23 22  1  0  0  0  0
 24 22  1  0  0  0  0
 25 22  1  0  0  0  0
 26  7  1  0  0  0  0
 27 26  1  0  0  0  0
 28 26  1  0  0  0  0
 29 26  1  0  0  0  0
M  END
