1,18
 OpenBabel05122313053D

 36 38  0  0  0  0  0  0  0  0999 V2000
    0.2191    0.2709    2.2990 N   0  0  0  0  0  0  0  0  0  0  0  0
    2.7064   -2.4979    0.8572 C   0  0  0  0  0  0  0  0  0  0  0  0
    2.9430   -2.5713    1.9303 H   0  0  0  0  0  0  0  0  0  0  0  0
    3.7318   -2.5148   -0.0827 C   0  0  0  0  0  0  0  0  0  0  0  0
    4.7765   -2.5734    0.2592 H   0  0  0  0  0  0  0  0  0  0  0  0
    3.4611   -2.4711   -1.4791 C   0  0  0  0  0  0  0  0  0  0  0  0
    4.2973   -2.4822   -2.1934 H   0  0  0  0  0  0  0  0  0  0  0  0
    2.1500   -2.4311   -1.9430 C   0  0  0  0  0  0  0  0  0  0  0  0
    1.9385   -2.4161   -3.0232 H   0  0  0  0  0  0  0  0  0  0  0  0
   -1.1808   -2.4582   -2.3328 C   0  0  0  0  0  0  0  0  0  0  0  0
   -0.7285   -2.4666   -3.3362 H   0  0  0  0  0  0  0  0  0  0  0  0
   -2.5641   -2.4953   -2.1782 C   0  0  0  0  0  0  0  0  0  0  0  0
   -3.2148   -2.5282   -3.0644 H   0  0  0  0  0  0  0  0  0  0  0  0
   -3.1495   -2.4952   -0.8810 C   0  0  0  0  0  0  0  0  0  0  0  0
   -4.2458   -2.5295   -0.7884 H   0  0  0  0  0  0  0  0  0  0  0  0
   -2.3671   -2.4541    0.2692 C   0  0  0  0  0  0  0  0  0  0  0  0
   -2.8400   -2.4670    1.2630 H   0  0  0  0  0  0  0  0  0  0  0  0
    0.1017   -2.3681    1.1304 C   0  0  0  0  0  3  0  0  0  0  0  0
    1.3514   -2.4397    0.4183 C   0  0  0  0  0  0  0  0  0  0  0  0
    1.0831   -2.4184   -1.0111 C   0  0  0  0  0  0  0  0  0  0  0  0
   -0.3558   -2.4208   -1.1806 C   0  0  0  0  0  0  0  0  0  0  0  0
   -0.9484   -2.4301    0.1479 C   0  0  0  0  0  0  0  0  0  0  0  0
   -0.0904   -2.2043    2.6141 C   0  0  0  0  0  0  0  0  0  0  0  0
    0.8545   -2.4274    3.1499 H   0  0  0  0  0  0  0  0  0  0  0  0
   -0.8353   -2.9275    3.0115 H   0  0  0  0  0  0  0  0  0  0  0  0
   -0.5849   -0.7901    2.9622 C   0  0  0  0  0  0  0  0  0  0  0  0
   -1.6269   -0.6649    2.6016 H   0  0  0  0  0  0  0  0  0  0  0  0
   -0.5980   -0.6194    4.0667 H   0  0  0  0  0  0  0  0  0  0  0  0
   -0.3893    1.5958    2.5213 C   0  0  0  0  0  0  0  0  0  0  0  0
   -1.4388    1.5887    2.1791 H   0  0  0  0  0  0  0  0  0  0  0  0
    0.1619    2.3604    1.9404 H   0  0  0  0  0  0  0  0  0  0  0  0
   -0.3589    1.8765    3.5997 H   0  0  0  0  0  0  0  0  0  0  0  0
    1.6153    0.2835    2.7755 C   0  0  0  0  0  0  0  0  0  0  0  0
    2.1677    1.0939    2.2684 H   0  0  0  0  0  0  0  0  0  0  0  0
    2.1188   -0.6678    2.5349 H   0  0  0  0  0  0  0  0  0  0  0  0
    1.6543    0.4497    3.8776 H   0  0  0  0  0  0  0  0  0  0  0  0
  1 29  1  0  0  0  0
  1 33  1  0  0  0  0
  1 26  1  0  0  0  0
  2  3  1  0  0  0  0
  4  5  1  0  0  0  0
  4  2  2  0  0  0  0
  6  4  1  0  0  0  0
  7  6  1  0  0  0  0
  8  6  2  0  0  0  0
  8 20  1  0  0  0  0
  9  8  1  0  0  0  0
 10 12  2  0  0  0  0
 10 21  1  0  0  0  0
 11 10  1  0  0  0  0
 12 14  1  0  0  0  0
 13 12  1  0  0  0  0
 14 15  1  0  0  0  0
 14 16  2  0  0  0  0
 16 17  1  0  0  0  0
 18 23  1  0  0  0  0
 19  2  1  0  0  0  0
 19 18  1  0  0  0  0
 20 19  2  0  0  0  0
 21 20  1  0  0  0  0
 21 22  2  0  0  0  0
 22 16  1  0  0  0  0
 22 18  1  0  0  0  0
 23 26  1  0  0  0  0
 23 25  1  0  0  0  0
 23 24  1  0  0  0  0
 26 28  1  0  0  0  0
 27 26  1  0  0  0  0
 29 32  1  0  0  0  0
 30 29  1  0  0  0  0
 31 29  1  0  0  0  0
 33 36  1  0  0  0  0
 34 33  1  0  0  0  0
 35 33  1  0  0  0  0
M  END
