2,6
 OpenBabel05122313053D

 27 29  0  0  1  0  0  0  0  0999 V2000
    1.2773    1.9209    0.1111 N   0  0  0  0  0  0  0  0  0  0  0  0
    1.3151   -0.3850    0.0447 N   0  0  0  0  0  0  0  0  0  0  0  0
    0.4798    3.9267   -0.0302 N   0  0  0  0  0  0  0  0  0  0  0  0
    3.3698    0.6425    0.2432 N   0  0  0  0  0  0  0  0  0  0  0  0
    2.0512    0.7535    0.1588 C   0  0  0  0  0  3  0  0  0  0  0  0
   -0.1172    1.7440   -0.0481 C   0  0  0  0  0  3  0  0  0  0  0  0
    3.5471   -0.7295    0.1520 C   0  0  0  0  0  0  0  0  0  0  0  0
    2.1753   -2.7735   -0.1869 C   0  0  0  0  0  0  0  0  0  0  0  0
    1.2045   -3.2524   -0.3695 H   0  0  0  0  0  0  0  0  0  0  0  0
    1.6354    3.2273    0.1148 C   0  0  2  0  0  3  0  0  0  0  0  0
    2.2683   -1.3832    0.0035 C   0  0  0  0  0  0  0  0  0  0  0  0
    3.0190    3.7528    0.2348 C   0  0  0  0  0  0  0  0  0  0  0  0
    3.7036    2.8813    0.2921 H   0  0  0  0  0  0  0  0  0  0  0  0
    3.2985    4.3711   -0.6433 H   0  0  0  0  0  0  0  0  0  0  0  0
    3.1481    4.3712    1.1481 H   0  0  0  0  0  0  0  0  0  0  0  0
    4.7313   -1.4932    0.1618 C   0  0  0  0  0  0  0  0  0  0  0  0
    5.7066   -0.9974    0.2773 H   0  0  0  0  0  0  0  0  0  0  0  0
    3.3668   -3.5080   -0.1798 C   0  0  0  0  0  0  0  0  0  0  0  0
    3.3290   -4.5975   -0.3335 H   0  0  0  0  0  0  0  0  0  0  0  0
   -0.5963    3.0399   -0.1363 C   0  0  0  0  0  0  0  0  0  0  0  0
   -1.6115    3.4116   -0.2955 H   0  0  0  0  0  0  0  0  0  0  0  0
    4.6251   -2.8793    0.0029 C   0  0  0  0  0  0  0  0  0  0  0  0
    5.5369   -3.4961    0.0014 H   0  0  0  0  0  0  0  0  0  0  0  0
    0.3805    5.3706   -0.1315 C   0  0  0  0  0  0  0  0  0  0  0  0
   -0.4773    5.7289    0.4692 H   0  0  0  0  0  0  0  0  0  0  0  0
    1.3028    5.8395    0.2558 H   0  0  0  0  0  0  0  0  0  0  0  0
    0.2348    5.6844   -1.1856 H   0  0  0  0  0  0  0  0  0  0  0  0
  1 10  1  0  0  0  0
  1  5  1  0  0  0  0
  2  5  1  0  0  0  0
  3 10  1  0  0  0  0
  5  4  1  0  0  0  0
  6  1  1  0  0  0  0
  7 16  1  0  0  0  0
  7  4  2  0  0  0  0
  8 18  2  0  0  0  0
  8 11  1  0  0  0  0
  9  8  1  0  0  0  0
 10 12  1  6  0  0  0
 11  2  2  0  0  0  0
 11  7  1  0  0  0  0
 12 13  1  0  0  0  0
 12 15  1  0  0  0  0
 14 12  1  0  0  0  0
 16 17  1  0  0  0  0
 18 22  1  0  0  0  0
 19 18  1  0  0  0  0
 20  6  2  0  0  0  0
 20  3  1  0  0  0  0
 21 20  1  0  0  0  0
 22 16  2  0  0  0  0
 23 22  1  0  0  0  0
 24  3  1  0  0  0  0
 24 26  1  0  0  0  0
 24 25  1  0  0  0  0
 27 24  1  0  0  0  0
M  END
