1,5
 OpenBabel05122313053D

 63 67  0  0  1  0  0  0  0  0999 V2000
    0.3997    0.6527   -0.0758 N   0  0  0  0  0  2  0  0  0  0  0  0
    1.8154    2.4331    0.2510 N   0  0  0  0  0  0  0  0  0  0  0  0
    1.6133    4.8250    0.6747 N   0  0  0  0  0  0  0  0  0  0  0  0
   -3.3825    0.0375    0.1064 B   0  0  0  0  0  0  0  0  0  0  0  0
    2.8964    1.5092    0.0838 C   0  0  0  0  0  2  0  0  0  0  0  0
    4.0772    2.2234    0.2007 C   0  0  0  0  0  0  0  0  0  0  0  0
    5.0773    1.7839    0.1200 H   0  0  0  0  0  0  0  0  0  0  0  0
    3.7548    3.6085    0.4427 C   0  0  0  0  0  0  0  0  0  0  0  0
    4.4750    4.7990    0.6452 C   0  0  0  0  0  0  0  0  0  0  0  0
    5.5755    4.8053    0.6369 H   0  0  0  0  0  0  0  0  0  0  0  0
    3.7438    5.9799    0.8588 C   0  0  0  0  0  0  0  0  0  0  0  0
    4.2624    6.9363    1.0221 H   0  0  0  0  0  0  0  0  0  0  0  0
    2.3353    5.9483    0.8660 C   0  0  0  0  0  0  0  0  0  0  0  0
    1.7593    6.8739    1.0342 H   0  0  0  0  0  0  0  0  0  0  0  0
    2.3251    3.7216    0.4745 C   0  0  2  0  0  3  0  0  0  0  0  0
   -0.8235    0.0995   -0.1176 C   0  0  0  0  0  3  0  0  0  0  0  0
   -0.8497   -0.9795   -0.3406 H   0  0  0  0  0  0  0  0  0  0  0  0
   -2.0216    0.8080    0.0958 C   0  0  0  0  0  0  0  0  0  0  0  0
   -1.8821    2.2015    0.3394 C   0  0  0  0  0  0  0  0  0  0  0  0
   -2.7849    2.8096    0.5106 H   0  0  0  0  0  0  0  0  0  0  0  0
   -0.6270    2.8038    0.3901 C   0  0  0  0  0  0  0  0  0  0  0  0
   -0.4669    3.8720    0.5911 H   0  0  0  0  0  0  0  0  0  0  0  0
    0.5120    1.9909    0.1888 C   0  0  0  0  0  0  0  0  0  0  0  0
   -4.7253    0.8070   -0.1766 C   0  0  0  0  0  0  0  0  0  0  0  0
   -5.8346    0.6881    0.7172 C   0  0  0  0  0  0  0  0  0  0  0  0
   -7.0171    1.4026    0.4654 C   0  0  0  0  0  0  0  0  0  0  0  0
   -7.8556    1.3106    1.1757 H   0  0  0  0  0  0  0  0  0  0  0  0
   -7.1681    2.2202   -0.6703 C   0  0  0  0  0  0  0  0  0  0  0  0
   -6.0864    2.3059   -1.5616 C   0  0  0  0  0  0  0  0  0  0  0  0
   -6.1917    2.9169   -2.4736 H   0  0  0  0  0  0  0  0  0  0  0  0
   -4.8727    1.6309   -1.3321 C   0  0  0  0  0  0  0  0  0  0  0  0
   -5.7705   -0.1900    1.9468 C   0  0  0  0  0  0  0  0  0  0  0  0
   -6.6837   -0.0792    2.5627 H   0  0  0  0  0  0  0  0  0  0  0  0
   -4.9007    0.0530    2.5902 H   0  0  0  0  0  0  0  0  0  0  0  0
   -5.6662   -1.2599    1.6751 H   0  0  0  0  0  0  0  0  0  0  0  0
   -8.4469    2.9814   -0.9092 C   0  0  0  0  0  0  0  0  0  0  0  0
   -9.3381    2.3465   -0.7283 H   0  0  0  0  0  0  0  0  0  0  0  0
   -8.5046    3.3726   -1.9435 H   0  0  0  0  0  0  0  0  0  0  0  0
   -8.5277    3.8492   -0.2197 H   0  0  0  0  0  0  0  0  0  0  0  0
   -3.7777    1.7796   -2.3684 C   0  0  0  0  0  0  0  0  0  0  0  0
   -4.2059    2.0343   -3.3577 H   0  0  0  0  0  0  0  0  0  0  0  0
   -3.1709    0.8612   -2.4859 H   0  0  0  0  0  0  0  0  0  0  0  0
   -3.0668    2.5892   -2.1015 H   0  0  0  0  0  0  0  0  0  0  0  0
   -3.3130   -1.5140    0.4024 C   0  0  0  0  0  0  0  0  0  0  0  0
   -3.8565   -2.4515   -0.5286 C   0  0  0  0  0  0  0  0  0  0  0  0
   -3.6784   -3.8290   -0.3192 C   0  0  0  0  0  0  0  0  0  0  0  0
   -4.0861   -4.5360   -1.0610 H   0  0  0  0  0  0  0  0  0  0  0  0
   -3.0029   -4.3328    0.8085 C   0  0  0  0  0  0  0  0  0  0  0  0
   -2.5100   -3.4066    1.7413 C   0  0  0  0  0  0  0  0  0  0  0  0
   -2.0091   -3.7782    2.6513 H   0  0  0  0  0  0  0  0  0  0  0  0
   -2.6424   -2.0167    1.5548 C   0  0  0  0  0  0  0  0  0  0  0  0
   -2.0772   -1.1075    2.6275 C   0  0  0  0  0  0  0  0  0  0  0  0
   -2.1852   -1.5690    3.6293 H   0  0  0  0  0  0  0  0  0  0  0  0
   -2.5687   -0.1170    2.6541 H   0  0  0  0  0  0  0  0  0  0  0  0
   -0.9935   -0.9135    2.4743 H   0  0  0  0  0  0  0  0  0  0  0  0
   -2.8281   -5.8176    1.0032 C   0  0  0  0  0  0  0  0  0  0  0  0
   -2.3137   -6.0489    1.9561 H   0  0  0  0  0  0  0  0  0  0  0  0
   -2.2332   -6.2634    0.1780 H   0  0  0  0  0  0  0  0  0  0  0  0
   -3.8056   -6.3435    1.0076 H   0  0  0  0  0  0  0  0  0  0  0  0
   -4.6112   -1.9943   -1.7564 C   0  0  0  0  0  0  0  0  0  0  0  0
   -4.9026   -2.8545   -2.3892 H   0  0  0  0  0  0  0  0  0  0  0  0
   -4.0083   -1.3061   -2.3837 H   0  0  0  0  0  0  0  0  0  0  0  0
   -5.5303   -1.4383   -1.4826 H   0  0  0  0  0  0  0  0  0  0  0  0
  1 23  1  0  0  0  0
  2 15  1  0  0  0  0
  3 13  2  0  0  0  0
  4 44  1  0  0  0  0
  5  6  1  0  0  0  0
  5  2  1  0  0  0  0
  6  8  2  0  0  0  0
  7  6  1  0  0  0  0
  8  9  1  0  0  0  0
  9 11  2  0  0  0  0
 10  9  1  0  0  0  0
 11 13  1  0  0  0  0
 11 12  1  0  0  0  0
 13 14  1  0  0  0  0
 15  8  1  6  0  0  0
 15  3  1  0  0  0  0
 16  1  1  0  0  0  0
 16 18  1  0  0  0  0
 17 16  1  0  0  0  0
 18  4  1  0  0  0  0
 18 19  2  0  0  0  0
 19 21  1  0  0  0  0
 19 20  1  0  0  0  0
 21 22  1  0  0  0  0
 23  2  1  0  0  0  0
 23 21  2  0  0  0  0
 24  4  1  0  0  0  0
 24 25  1  0  0  0  0
 25 32  1  0  0  0  0
 26 25  2  0  0  0  0
 26 27  1  0  0  0  0
 28 26  1  0  0  0  0
 29 31  1  0  0  0  0
 29 28  2  0  0  0  0
 30 29  1  0  0  0  0
 31 24  2  0  0  0  0
 32 33  1  0  0  0  0
 32 34  1  0  0  0  0
 35 32  1  0  0  0  0
 36 37  1  0  0  0  0
 36 28  1  0  0  0  0
 36 39  1  0  0  0  0
 38 36  1  0  0  0  0
 40 43  1  0  0  0  0
 40 31  1  0  0  0  0
 41 40  1  0  0  0  0
 42 40  1  0  0  0  0
 44 51  1  0  0  0  0
 45 46  1  0  0  0  0
 45 44  2  0  0  0  0
 46 48  2  0  0  0  0
 47 46  1  0  0  0  0
 48 56  1  0  0  0  0
 48 49  1  0  0  0  0
 49 50  1  0  0  0  0
 51 49  2  0  0  0  0
 51 52  1  0  0  0  0
 52 54  1  0  0  0  0
 52 53  1  0  0  0  0
 55 52  1  0  0  0  0
 56 59  1  0  0  0  0
 56 57  1  0  0  0  0
 58 56  1  0  0  0  0
 60 63  1  0  0  0  0
 60 45  1  0  0  0  0
 61 60  1  0  0  0  0
 62 60  1  0  0  0  0
M  END
