5,20
 OpenBabel05122313053D

 57 63  0  0  1  0  0  0  0  0999 V2000
    2.8909    0.4921   -0.5152 O   0  0  0  0  0  0  0  0  0  0  0  0
   -0.0084   -3.0159   -0.8443 O   0  0  0  0  0  0  0  0  0  0  0  0
   -1.4455    1.3003   -1.5736 O   0  0  0  0  0  0  0  0  0  0  0  0
   -1.0108   -0.9549   -1.2060 N   0  0  0  0  0  0  0  0  0  0  0  0
   -3.0377   -0.9188   -0.0034 N   0  0  0  0  0  2  0  0  0  0  0  0
    2.3319   -0.7794   -0.1257 C   0  0  2  0  0  0  0  0  0  0  0  0
    1.3518   -1.0131   -1.3572 C   0  0  1  0  0  0  0  0  0  0  0  0
    1.9408   -1.4693   -2.1754 H   0  0  0  0  0  0  0  0  0  0  0  0
    0.0994   -1.8342   -1.1025 C   0  0  0  0  0  0  0  0  0  0  0  0
   -0.6458    0.3856   -1.4926 C   0  0  0  0  0  0  0  0  0  0  0  0
    0.8662    0.4212   -1.6511 C   0  0  1  0  0  0  0  0  0  0  0  0
    1.1266    0.7880   -2.6626 H   0  0  0  0  0  0  0  0  0  0  0  0
    1.6897    1.2796   -0.5843 C   0  0  1  0  0  0  0  0  0  0  0  0
    1.0557    0.9610    0.7668 C   0  0  0  0  0  0  0  0  0  0  0  0
    1.4415   -0.3660    1.0482 C   0  0  0  0  0  0  0  0  0  0  0  0
    0.9613   -1.0446    2.1666 C   0  0  0  0  0  0  0  0  0  0  0  0
    1.2525   -2.0855    2.3719 H   0  0  0  0  0  0  0  0  0  0  0  0
    0.0997   -0.3425    3.0425 C   0  0  0  0  0  3  0  0  0  0  0  0
   -0.2457   -0.8245    3.9696 H   0  0  0  0  0  0  0  0  0  0  0  0
   -0.2582    1.0177    2.7935 C   0  0  0  0  0  3  0  0  0  0  0  0
   -0.7674    1.5959    3.5817 H   0  0  0  0  0  0  0  0  0  0  0  0
    0.2205    1.6834    1.6187 C   0  0  0  0  0  0  0  0  0  0  0  0
   -0.0248    2.7374    1.4166 H   0  0  0  0  0  0  0  0  0  0  0  0
    3.3965   -1.8075    0.1418 C   0  0  0  0  0  0  0  0  0  0  0  0
    3.1438   -3.1824   -0.0294 C   0  0  0  0  0  0  0  0  0  0  0  0
    2.1654   -3.5240   -0.3997 H   0  0  0  0  0  0  0  0  0  0  0  0
    4.1419   -4.1202    0.2791 C   0  0  0  0  0  0  0  0  0  0  0  0
    3.9396   -5.1930    0.1414 H   0  0  0  0  0  0  0  0  0  0  0  0
    5.3920   -3.6945    0.7525 C   0  0  0  0  0  0  0  0  0  0  0  0
    6.1739   -4.4321    0.9873 H   0  0  0  0  0  0  0  0  0  0  0  0
    5.6439   -2.3235    0.9221 C   0  0  0  0  0  0  0  0  0  0  0  0
    6.6242   -1.9837    1.2883 H   0  0  0  0  0  0  0  0  0  0  0  0
    4.6499   -1.3815    0.6242 C   0  0  0  0  0  0  0  0  0  0  0  0
    4.8425   -0.3072    0.7524 H   0  0  0  0  0  0  0  0  0  0  0  0
    1.9626    2.7227   -0.9044 C   0  0  0  0  0  0  0  0  0  0  0  0
    3.2163    3.2773   -0.5821 C   0  0  0  0  0  0  0  0  0  0  0  0
    3.9945    2.6350   -0.1471 H   0  0  0  0  0  0  0  0  0  0  0  0
    3.4673    4.6340   -0.8311 C   0  0  0  0  0  0  0  0  0  0  0  0
    4.4524    5.0590   -0.5872 H   0  0  0  0  0  0  0  0  0  0  0  0
    2.4692    5.4469   -1.3918 C   0  0  0  0  0  0  0  0  0  0  0  0
    2.6696    6.5109   -1.5870 H   0  0  0  0  0  0  0  0  0  0  0  0
    1.2179    4.8964   -1.7088 C   0  0  0  0  0  0  0  0  0  0  0  0
    0.4347    5.5273   -2.1553 H   0  0  0  0  0  0  0  0  0  0  0  0
    0.9613    3.5372   -1.4695 C   0  0  0  0  0  0  0  0  0  0  0  0
   -0.0193    3.1074   -1.7253 H   0  0  0  0  0  0  0  0  0  0  0  0
   -2.3601   -1.3885   -1.0718 C   0  0  1  0  0  3  0  0  0  0  0  0
   -2.9289   -2.2462   -2.0391 C   0  0  0  0  0  0  0  0  0  0  0  0
   -4.2766   -2.6034   -1.8342 C   0  0  0  0  0  0  0  0  0  0  0  0
   -4.7688   -3.2726   -2.5564 H   0  0  0  0  0  0  0  0  0  0  0  0
   -4.9895   -2.1013   -0.7403 C   0  0  0  0  0  0  0  0  0  0  0  0
   -6.0452   -2.3614   -0.5801 H   0  0  0  0  0  0  0  0  0  0  0  0
   -4.3353   -1.2506    0.1558 C   0  0  0  0  0  0  0  0  0  0  0  0
   -4.8490   -0.8083    1.0220 H   0  0  0  0  0  0  0  0  0  0  0  0
   -2.1452   -2.7526   -3.2146 C   0  0  0  0  0  0  0  0  0  0  0  0
   -1.5347   -1.9501   -3.6739 H   0  0  0  0  0  0  0  0  0  0  0  0
   -2.8147   -3.1688   -3.9894 H   0  0  0  0  0  0  0  0  0  0  0  0
   -1.4464   -3.5520   -2.8922 H   0  0  0  0  0  0  0  0  0  0  0  0
  1  6  1  0  0  0  0
  3 10  2  0  0  0  0
  4  9  1  0  0  0  0
  5 52  1  0  0  0  0
  6 24  1  1  0  0  0
  6 15  1  0  0  0  0
  7  8  1  6  0  0  0
  7  9  1  0  0  0  0
  7  6  1  0  0  0  0
  9  2  2  0  0  0  0
 10  4  1  0  0  0  0
 11 12  1  6  0  0  0
 11 10  1  0  0  0  0
 11  7  1  0  0  0  0
 11 13  1  0  0  0  0
 13 35  1  6  0  0  0
 13  1  1  0  0  0  0
 13 14  1  0  0  0  0
 14 15  1  0  0  0  0
 14 22  2  0  0  0  0
 15 16  2  0  0  0  0
 16 17  1  0  0  0  0
 16 18  1  0  0  0  0
 18 19  1  0  0  0  0
 20 18  1  0  0  0  0
 20 21  1  0  0  0  0
 22 20  1  0  0  0  0
 23 22  1  0  0  0  0
 24 33  1  0  0  0  0
 25 24  2  0  0  0  0
 25 27  1  0  0  0  0
 26 25  1  0  0  0  0
 27 29  2  0  0  0  0
 28 27  1  0  0  0  0
 29 31  1  0  0  0  0
 29 30  1  0  0  0  0
 31 32  1  0  0  0  0
 33 34  1  0  0  0  0
 33 31  2  0  0  0  0
 35 36  1  0  0  0  0
 36 37  1  0  0  0  0
 38 39  1  0  0  0  0
 38 36  2  0  0  0  0
 40 38  1  0  0  0  0
 41 40  1  0  0  0  0
 42 44  1  0  0  0  0
 42 40  2  0  0  0  0
 43 42  1  0  0  0  0
 44 35  2  0  0  0  0
 45 44  1  0  0  0  0
 46  4  1  6  0  0  0
 46  5  1  0  0  0  0
 47 48  2  0  0  0  0
 47 46  1  0  0  0  0
 48 50  1  0  0  0  0
 49 48  1  0  0  0  0
 50 51  1  0  0  0  0
 50 52  2  0  0  0  0
 52 53  1  0  0  0  0
 54 57  1  0  0  0  0
 54 47  1  0  0  0  0
 55 54  1  0  0  0  0
 56 54  1  0  0  0  0
M  END
