2,7
 OpenBabel05122313053D

 33 34  0  0  0  0  0  0  0  0999 V2000
    6.7196   -0.5409   -0.1115 O   0  0  0  0  0  0  0  0  0  0  0  0
    1.1281   -0.4915    0.2781 N   0  0  0  0  0  2  0  0  0  0  0  0
    0.4587   -1.3451    1.1278 C   0  0  0  0  0  0  0  0  0  0  0  0
    0.9877   -1.6927    2.0385 H   0  0  0  0  0  0  0  0  0  0  0  0
   -0.9004   -1.6273    0.9903 C   0  0  0  0  0  0  0  0  0  0  0  0
   -1.3854   -2.0551    1.8834 H   0  0  0  0  0  0  0  0  0  0  0  0
   -1.7423   -1.2720   -0.1401 C   0  0  0  0  0  3  0  0  0  0  0  0
   -1.2521   -1.4675   -1.1141 H   0  0  0  0  0  0  0  0  0  0  0  0
    2.5236   -0.5376    0.1899 C   0  0  0  0  0  0  0  0  0  0  0  0
    3.2831    0.6573    0.1179 C   0  0  0  0  0  0  0  0  0  0  0  0
    2.7562    1.6216    0.1789 H   0  0  0  0  0  0  0  0  0  0  0  0
    4.6732    0.6224    0.0117 C   0  0  0  0  0  0  0  0  0  0  0  0
    5.2646    1.5483   -0.0372 H   0  0  0  0  0  0  0  0  0  0  0  0
    5.3607   -0.6113   -0.0087 C   0  0  0  0  0  0  0  0  0  0  0  0
    4.6220   -1.8082    0.0843 C   0  0  0  0  0  0  0  0  0  0  0  0
    5.1246   -2.7847    0.0717 H   0  0  0  0  0  0  0  0  0  0  0  0
    3.2224   -1.7645    0.1802 C   0  0  0  0  0  0  0  0  0  0  0  0
    2.6500   -2.7035    0.2244 H   0  0  0  0  0  0  0  0  0  0  0  0
   -3.1921   -1.5305   -0.1437 C   0  0  0  0  0  0  0  0  0  0  0  0
   -3.8729   -1.7830   -1.3621 C   0  0  0  0  0  0  0  0  0  0  0  0
   -3.2918   -1.8365   -2.2969 H   0  0  0  0  0  0  0  0  0  0  0  0
   -5.2579   -1.9880   -1.3989 C   0  0  0  0  0  0  0  0  0  0  0  0
   -5.7522   -2.1821   -2.3636 H   0  0  0  0  0  0  0  0  0  0  0  0
   -6.0130   -1.9620   -0.2147 C   0  0  0  0  0  0  0  0  0  0  0  0
   -7.1006   -2.1255   -0.2414 H   0  0  0  0  0  0  0  0  0  0  0  0
   -5.3556   -1.7326    1.0053 C   0  0  0  0  0  0  0  0  0  0  0  0
   -5.9300   -1.7167    1.9448 H   0  0  0  0  0  0  0  0  0  0  0  0
   -3.9713   -1.5188    1.0414 C   0  0  0  0  0  0  0  0  0  0  0  0
   -3.4845   -1.3304    2.0103 H   0  0  0  0  0  0  0  0  0  0  0  0
    7.4508   -1.7494   -0.1187 C   0  0  0  0  0  0  0  0  0  0  0  0
    8.5182   -1.4719   -0.2024 H   0  0  0  0  0  0  0  0  0  0  0  0
    7.1788   -2.3973   -0.9832 H   0  0  0  0  0  0  0  0  0  0  0  0
    7.3027   -2.3329    0.8187 H   0  0  0  0  0  0  0  0  0  0  0  0
  1 14  1  0  0  0  0
  2  3  1  0  0  0  0
  3  4  1  0  0  0  0
  5  3  2  0  0  0  0
  5  6  1  0  0  0  0
  7  5  1  0  0  0  0
  8  7  1  0  0  0  0
  9  2  1  0  0  0  0
 10 11  1  0  0  0  0
 10  9  2  0  0  0  0
 12 10  1  0  0  0  0
 13 12  1  0  0  0  0
 14 12  2  0  0  0  0
 14 15  1  0  0  0  0
 15 17  2  0  0  0  0
 16 15  1  0  0  0  0
 17  9  1  0  0  0  0
 17 18  1  0  0  0  0
 19  7  1  0  0  0  0
 19 28  1  0  0  0  0
 20 19  2  0  0  0  0
 21 20  1  0  0  0  0
 22 20  1  0  0  0  0
 22 24  2  0  0  0  0
 23 22  1  0  0  0  0
 24 26  1  0  0  0  0
 25 24  1  0  0  0  0
 26 28  2  0  0  0  0
 26 27  1  0  0  0  0
 28 29  1  0  0  0  0
 30  1  1  0  0  0  0
 30 33  1  0  0  0  0
 31 30  1  0  0  0  0
 32 30  1  0  0  0  0
M  END
