1,20
 OpenBabel05122313053D

 25 26  0  0  1  0  0  0  0  0999 V2000
    1.5775   -1.5886   -0.1908 N   0  0  0  0  0  2  0  0  0  0  0  0
    4.3693    0.7214   -0.0852 N   0  0  0  0  0  0  0  0  0  0  0  0
    1.2963   -2.9062    0.0400 C   0  0  1  0  0  3  0  0  0  0  0  0
    2.3256   -3.8656    0.0169 C   0  0  0  0  0  0  0  0  0  0  0  0
    2.0608   -4.9187    0.1886 H   0  0  0  0  0  0  0  0  0  0  0  0
    3.6579   -3.4852   -0.2020 C   0  0  0  0  0  0  0  0  0  0  0  0
    4.4567   -4.2411   -0.2399 H   0  0  0  0  0  0  0  0  0  0  0  0
    3.9489   -2.1262   -0.3157 C   0  0  0  0  0  0  0  0  0  0  0  0
    4.9674   -1.7226   -0.4014 H   0  0  0  0  0  0  0  0  0  0  0  0
    2.8983   -1.1971   -0.2744 C   0  0  0  0  0  0  0  0  0  0  0  0
   -0.1070   -3.3262    0.3743 C   0  0  0  0  0  0  0  0  0  0  0  0
   -0.6135   -2.5546    0.9818 H   0  0  0  0  0  0  0  0  0  0  0  0
   -0.0844   -4.2793    0.9356 H   0  0  0  0  0  0  0  0  0  0  0  0
   -0.7283   -3.4803   -0.5289 H   0  0  0  0  0  0  0  0  0  0  0  0
    4.5360    2.0196    0.2065 C   0  0  0  0  0  0  0  0  0  0  0  0
    3.4226    2.8595    0.4669 C   0  0  0  0  0  0  0  0  0  0  0  0
    3.5926    3.9082    0.7606 H   0  0  0  0  0  0  0  0  0  0  0  0
    2.1208    2.3598    0.3490 C   0  0  0  0  0  0  0  0  0  0  0  0
    1.2592    3.0157    0.5520 H   0  0  0  0  0  0  0  0  0  0  0  0
    1.9145    1.0123   -0.0302 C   0  0  0  0  0  3  0  0  0  0  0  0
    3.1101    0.2481   -0.1727 C   0  0  0  0  0  0  0  0  0  0  0  0
    5.9471    2.5517    0.2504 C   0  0  0  0  0  0  0  0  0  0  0  0
    6.6611    1.7083    0.2943 H   0  0  0  0  0  0  0  0  0  0  0  0
    6.1113    3.2149    1.1239 H   0  0  0  0  0  0  0  0  0  0  0  0
    6.1797    3.1475   -0.6587 H   0  0  0  0  0  0  0  0  0  0  0  0
  1  3  1  0  0  0  0
  2 15  1  0  0  0  0
  3 11  1  1  0  0  0
  4  3  1  0  0  0  0
  4  5  1  0  0  0  0
  6  4  2  0  0  0  0
  7  6  1  0  0  0  0
  8 10  2  0  0  0  0
  8  6  1  0  0  0  0
  9  8  1  0  0  0  0
 10  1  1  0  0  0  0
 10 21  1  0  0  0  0
 11 13  1  0  0  0  0
 11 12  1  0  0  0  0
 14 11  1  0  0  0  0
 15 22  1  0  0  0  0
 15 16  2  0  0  0  0
 16 17  1  0  0  0  0
 18 16  1  0  0  0  0
 18 19  1  0  0  0  0
 20 18  2  0  0  0  0
 21  2  2  0  0  0  0
 21 20  1  0  0  0  0
 22 23  1  0  0  0  0
 22 24  1  0  0  0  0
 25 22  1  0  0  0  0
M  END
