3,10
 OpenBabel05122313053D

 17 17  0  0  0  0  0  0  0  0999 V2000
    4.2269   -2.5793    0.1863 F   0  0  0  0  0  0  0  0  0  0  0  0
   -0.6290    2.9811   -0.0560 O   0  0  0  0  0  1  0  0  0  0  0  0
    0.0974    1.9858   -0.0826 N   0  0  0  0  0  2  0  0  0  0  0  0
    1.4397    2.1710   -0.0516 N   0  0  0  0  0  0  0  0  0  0  0  0
    1.9980    3.5064   -0.0498 C   0  0  0  0  0  0  0  0  0  0  0  0
    1.1560    4.2143   -0.1450 H   0  0  0  0  0  0  0  0  0  0  0  0
    2.6938    3.6253   -0.9037 H   0  0  0  0  0  0  0  0  0  0  0  0
    2.5437    3.6991    0.8964 H   0  0  0  0  0  0  0  0  0  0  0  0
    2.2006    0.9917    0.0209 C   0  0  0  0  0  0  0  0  0  0  0  0
    1.4537   -0.2154    0.0239 C   0  0  0  0  0  3  0  0  0  0  0  0
    3.6054    1.0053    0.0884 C   0  0  0  0  0  0  0  0  0  0  0  0
    4.1683    1.9493    0.0812 H   0  0  0  0  0  0  0  0  0  0  0  0
    4.2969   -0.2125    0.1543 C   0  0  0  0  0  0  0  0  0  0  0  0
    5.3934   -0.2490    0.2085 H   0  0  0  0  0  0  0  0  0  0  0  0
    2.1631   -1.4225    0.0572 C   0  0  0  0  0  0  0  0  0  0  0  0
    1.6531   -2.3945   -0.0002 H   0  0  0  0  0  0  0  0  0  0  0  0
    3.5634   -1.4059    0.1349 C   0  0  0  0  0  0  0  0  0  0  0  0
  3  2  1  0  0  0  0
  3  4  1  0  0  0  0
  4  5  1  0  0  0  0
  4  9  1  0  0  0  0
  5  8  1  0  0  0  0
  6  5  1  0  0  0  0
  7  5  1  0  0  0  0
  9 10  2  0  0  0  0
  9 11  1  0  0  0  0
 10 15  1  0  0  0  0
 11 13  2  0  0  0  0
 12 11  1  0  0  0  0
 13 14  1  0  0  0  0
 15 17  2  0  0  0  0
 16 15  1  0  0  0  0
 17 13  1  0  0  0  0
 17  1  1  0  0  0  0
M  END
