2,3
 OpenBabel05122313053D

 78 81  0  0  1  0  0  0  0  0999 V2000
    0.9856    2.0837   -1.5570 Si  0  0  0  0  0  0  0  0  0  0  0  0
    0.7846    2.2886    0.1992 N   0  0  0  0  0  2  0  0  0  0  0  0
    0.6003    0.2388   -1.5098 C   0  0  2  0  0  3  0  0  0  0  0  0
   -0.7278   -0.2884   -1.2131 C   0  0  0  0  0  0  0  0  0  0  0  0
   -2.0207    0.2813   -1.3295 C   0  0  0  0  0  0  0  0  0  0  0  0
   -2.1245    1.2577   -1.8179 H   0  0  0  0  0  0  0  0  0  0  0  0
   -3.1601   -0.3674   -0.8421 C   0  0  0  0  0  0  0  0  0  0  0  0
   -4.5079    0.3623   -0.9850 C   0  0  0  0  0  0  0  0  0  0  0  0
   -5.5873   -0.3113   -0.1097 C   0  0  0  0  0  0  0  0  0  0  0  0
   -5.4343   -0.0078    0.9476 H   0  0  0  0  0  0  0  0  0  0  0  0
   -6.5814    0.0870   -0.4025 H   0  0  0  0  0  0  0  0  0  0  0  0
   -5.5616   -1.8286   -0.2123 C   0  0  0  0  0  0  0  0  0  0  0  0
   -5.6897   -2.1368   -1.2727 H   0  0  0  0  0  0  0  0  0  0  0  0
   -6.4148   -2.2737    0.3418 H   0  0  0  0  0  0  0  0  0  0  0  0
   -4.2488   -2.4316    0.3308 C   0  0  0  0  0  0  0  0  0  0  0  0
   -3.0397   -1.6677   -0.2338 C   0  0  0  0  0  0  0  0  0  0  0  0
   -1.7697   -2.2344   -0.0879 C   0  0  0  0  0  0  0  0  0  0  0  0
   -1.6591   -3.2125    0.4023 H   0  0  0  0  0  0  0  0  0  0  0  0
   -0.6120   -1.5623   -0.5362 C   0  0  0  0  0  0  0  0  0  0  0  0
    0.8022   -1.8844   -0.4589 C   0  0  0  0  0  0  0  0  0  0  0  0
    1.5036   -2.9871    0.0905 C   0  0  0  0  0  0  0  0  0  0  0  0
    0.9543   -3.8140    0.5651 H   0  0  0  0  0  0  0  0  0  0  0  0
    2.8888   -3.0028    0.0302 C   0  0  0  0  0  0  0  0  0  0  0  0
    3.4259   -3.8558    0.4696 H   0  0  0  0  0  0  0  0  0  0  0  0
    3.6389   -1.9409   -0.5704 C   0  0  0  0  0  0  0  0  0  0  0  0
    2.9532   -0.8629   -1.1287 C   0  0  0  0  0  0  0  0  0  0  0  0
    3.5013   -0.0441   -1.6061 H   0  0  0  0  0  0  0  0  0  0  0  0
    1.5302   -0.8071   -1.0984 C   0  0  0  0  0  0  0  0  0  0  0  0
   -4.3777    1.8298   -0.5214 C   0  0  0  0  0  0  0  0  0  0  0  0
   -3.7371    2.4339   -1.1943 H   0  0  0  0  0  0  0  0  0  0  0  0
   -3.9462    1.8820    0.4984 H   0  0  0  0  0  0  0  0  0  0  0  0
   -5.3781    2.3093   -0.5048 H   0  0  0  0  0  0  0  0  0  0  0  0
   -4.9391    0.3336   -2.4693 C   0  0  0  0  0  0  0  0  0  0  0  0
   -4.1726    0.8065   -3.1152 H   0  0  0  0  0  0  0  0  0  0  0  0
   -5.8922    0.8858   -2.6057 H   0  0  0  0  0  0  0  0  0  0  0  0
   -5.0842   -0.7025   -2.8345 H   0  0  0  0  0  0  0  0  0  0  0  0
   -4.2079   -3.9193   -0.0742 C   0  0  0  0  0  0  0  0  0  0  0  0
   -4.1425   -4.0330   -1.1752 H   0  0  0  0  0  0  0  0  0  0  0  0
   -5.1325   -4.4268    0.2698 H   0  0  0  0  0  0  0  0  0  0  0  0
   -3.3530   -4.4599    0.3777 H   0  0  0  0  0  0  0  0  0  0  0  0
   -4.2146   -2.3308    1.8743 C   0  0  0  0  0  0  0  0  0  0  0  0
   -3.2834   -2.7758    2.2774 H   0  0  0  0  0  0  0  0  0  0  0  0
   -5.0774   -2.8710    2.3170 H   0  0  0  0  0  0  0  0  0  0  0  0
   -4.2398   -1.2793    2.2194 H   0  0  0  0  0  0  0  0  0  0  0  0
    5.1740   -2.0059   -0.5410 C   0  0  0  0  0  0  0  0  0  0  0  0
    5.6533   -3.2934   -1.2482 C   0  0  0  0  0  0  0  0  0  0  0  0
    5.3389   -3.3026   -2.3116 H   0  0  0  0  0  0  0  0  0  0  0  0
    5.2490   -4.2064   -0.7682 H   0  0  0  0  0  0  0  0  0  0  0  0
    6.7603   -3.3608   -1.2152 H   0  0  0  0  0  0  0  0  0  0  0  0
    5.6330   -2.0161    0.9366 C   0  0  0  0  0  0  0  0  0  0  0  0
    6.7409   -2.0388    0.9949 H   0  0  0  0  0  0  0  0  0  0  0  0
    5.2475   -2.9004    1.4815 H   0  0  0  0  0  0  0  0  0  0  0  0
    5.2685   -1.1145    1.4680 H   0  0  0  0  0  0  0  0  0  0  0  0
    5.8196   -0.7976   -1.2404 C   0  0  0  0  0  0  0  0  0  0  0  0
    5.5292   -0.7340   -2.3086 H   0  0  0  0  0  0  0  0  0  0  0  0
    6.9236   -0.8869   -1.1989 H   0  0  0  0  0  0  0  0  0  0  0  0
    5.5450    0.1574   -0.7487 H   0  0  0  0  0  0  0  0  0  0  0  0
    2.7367    2.4490   -2.1742 C   0  0  0  0  0  0  0  0  0  0  0  0
    2.8717    3.5354   -2.3476 H   0  0  0  0  0  0  0  0  0  0  0  0
    2.9246    1.9266   -3.1352 H   0  0  0  0  0  0  0  0  0  0  0  0
    3.5031    2.1264   -1.4428 H   0  0  0  0  0  0  0  0  0  0  0  0
   -0.2140    3.0937   -2.6161 C   0  0  0  0  0  0  0  0  0  0  0  0
   -1.2482    3.0847   -2.2220 H   0  0  0  0  0  0  0  0  0  0  0  0
   -0.2313    2.6929   -3.6510 H   0  0  0  0  0  0  0  0  0  0  0  0
    0.1165    4.1514   -2.6696 H   0  0  0  0  0  0  0  0  0  0  0  0
    0.7517    3.5503    0.9798 C   0  0  0  0  0  0  0  0  0  0  0  0
   -0.6653    4.1537    0.8927 C   0  0  0  0  0  0  0  0  0  0  0  0
   -0.9289    4.3965   -0.1557 H   0  0  0  0  0  0  0  0  0  0  0  0
   -0.7366    5.0863    1.4892 H   0  0  0  0  0  0  0  0  0  0  0  0
   -1.4122    3.4317    1.2792 H   0  0  0  0  0  0  0  0  0  0  0  0
    1.0904    3.2546    2.4533 C   0  0  0  0  0  0  0  0  0  0  0  0
    0.3593    2.5457    2.8968 H   0  0  0  0  0  0  0  0  0  0  0  0
    1.0494    4.1823    3.0588 H   0  0  0  0  0  0  0  0  0  0  0  0
    2.1033    2.8172    2.5490 H   0  0  0  0  0  0  0  0  0  0  0  0
    1.7826    4.5480    0.4214 C   0  0  0  0  0  0  0  0  0  0  0  0
    2.8020    4.1142    0.4442 H   0  0  0  0  0  0  0  0  0  0  0  0
    1.7887    5.4801    1.0219 H   0  0  0  0  0  0  0  0  0  0  0  0
    1.5456    4.8300   -0.6252 H   0  0  0  0  0  0  0  0  0  0  0  0
  1  2  1  0  0  0  0
  2 66  1  0  0  0  0
  3  1  1  1  0  0  0
  3  4  1  0  0  0  0
  3 28  1  0  0  0  0
  4 19  1  0  0  0  0
  5  4  2  0  0  0  0
  5  7  1  0  0  0  0
  6  5  1  0  0  0  0
  7 16  2  0  0  0  0
  8  7  1  0  0  0  0
  8 29  1  0  0  0  0
  8  9  1  0  0  0  0
  9 10  1  0  0  0  0
 11  9  1  0  0  0  0
 12  9  1  0  0  0  0
 12 15  1  0  0  0  0
 12 14  1  0  0  0  0
 13 12  1  0  0  0  0
 15 41  1  0  0  0  0
 16 17  1  0  0  0  0
 16 15  1  0  0  0  0
 17 18  1  0  0  0  0
 19 20  1  0  0  0  0
 19 17  2  0  0  0  0
 20 21  1  0  0  0  0
 21 22  1  0  0  0  0
 23 21  2  0  0  0  0
 23 24  1  0  0  0  0
 25 45  1  0  0  0  0
 25 23  1  0  0  0  0
 26 28  1  0  0  0  0
 26 25  2  0  0  0  0
 27 26  1  0  0  0  0
 28 20  2  0  0  0  0
 29 32  1  0  0  0  0
 29 31  1  0  0  0  0
 30 29  1  0  0  0  0
 33  8  1  0  0  0  0
 34 33  1  0  0  0  0
 35 33  1  0  0  0  0
 36 33  1  0  0  0  0
 37 39  1  0  0  0  0
 37 15  1  0  0  0  0
 37 40  1  0  0  0  0
 38 37  1  0  0  0  0
 41 44  1  0  0  0  0
 41 42  1  0  0  0  0
 41 43  1  0  0  0  0
 45 50  1  0  0  0  0
 46 49  1  0  0  0  0
 46 48  1  0  0  0  0
 46 45  1  0  0  0  0
 47 46  1  0  0  0  0
 50 51  1  0  0  0  0
 50 53  1  0  0  0  0
 50 52  1  0  0  0  0
 54 56  1  0  0  0  0
 54 57  1  0  0  0  0
 54 45  1  0  0  0  0
 55 54  1  0  0  0  0
 58  1  1  0  0  0  0
 58 61  1  0  0  0  0
 59 58  1  0  0  0  0
 60 58  1  0  0  0  0
 62 63  1  0  0  0  0
 62  1  1  0  0  0  0
 64 62  1  0  0  0  0
 65 62  1  0  0  0  0
 66 71  1  0  0  0  0
 67 66  1  0  0  0  0
 67 70  1  0  0  0  0
 67 69  1  0  0  0  0
 68 67  1  0  0  0  0
 71 74  1  0  0  0  0
 71 72  1  0  0  0  0
 71 73  1  0  0  0  0
 75 76  1  0  0  0  0
 75 66  1  0  0  0  0
 75 77  1  0  0  0  0
 78 75  1  0  0  0  0
M  END
