1,9
 OpenBabel05122313053D

 34 35  0  0  0  0  0  0  0  0999 V2000
    0.8739   -0.0297    0.2806 N   0  0  0  0  0  2  0  0  0  0  0  0
    0.3439   -1.8615   -1.6147 C   0  0  0  0  0  0  0  0  0  0  0  0
   -0.2095   -0.8044   -2.3981 C   0  0  0  0  0  0  0  0  0  0  0  0
    0.3535   -0.0262   -2.9239 H   0  0  0  0  0  0  0  0  0  0  0  0
   -1.6306   -0.9129   -2.3747 C   0  0  0  0  0  0  0  0  0  0  0  0
   -2.3261   -0.2539   -2.9020 H   0  0  0  0  0  0  0  0  0  0  0  0
   -1.9724   -2.0094   -1.5482 C   0  0  0  0  0  0  0  0  0  0  0  0
   -2.9866   -2.3630   -1.3327 H   0  0  0  0  0  0  0  0  0  0  0  0
   -0.7569   -2.5772   -1.0505 C   0  0  0  0  0  3  0  0  0  0  0  0
   -0.6799   -3.4600   -0.4082 H   0  0  0  0  0  0  0  0  0  0  0  0
    1.8150   -2.2240   -1.4604 C   0  0  0  0  0  0  0  0  0  0  0  0
    2.6737   -1.4309   -2.4623 C   0  0  0  0  0  0  0  0  0  0  0  0
    2.3502   -1.6310   -3.5029 H   0  0  0  0  0  0  0  0  0  0  0  0
    3.7397   -1.7230   -2.3739 H   0  0  0  0  0  0  0  0  0  0  0  0
    2.6100   -0.3391   -2.2881 H   0  0  0  0  0  0  0  0  0  0  0  0
    1.9933   -3.7328   -1.7304 C   0  0  0  0  0  0  0  0  0  0  0  0
    1.4342   -4.3481   -0.9979 H   0  0  0  0  0  0  0  0  0  0  0  0
    3.0640   -4.0148   -1.6610 H   0  0  0  0  0  0  0  0  0  0  0  0
    1.6313   -3.9977   -2.7439 H   0  0  0  0  0  0  0  0  0  0  0  0
    2.3010   -1.9273   -0.0034 C   0  0  0  0  0  0  0  0  0  0  0  0
    1.6943   -2.5331    0.6975 H   0  0  0  0  0  0  0  0  0  0  0  0
    3.3526   -2.2566    0.1064 H   0  0  0  0  0  0  0  0  0  0  0  0
    2.0833   -0.4565    0.3053 C   0  0  0  0  0  0  0  0  0  0  0  0
    3.2356    0.4781    0.4833 C   0  0  0  0  0  0  0  0  0  0  0  0
    2.9794    1.8199    0.8537 C   0  0  0  0  0  0  0  0  0  0  0  0
    1.9345    2.1177    1.0180 H   0  0  0  0  0  0  0  0  0  0  0  0
    4.0221    2.7370    1.0134 C   0  0  0  0  0  0  0  0  0  0  0  0
    3.7970    3.7751    1.3024 H   0  0  0  0  0  0  0  0  0  0  0  0
    5.3544    2.3350    0.8109 C   0  0  0  0  0  0  0  0  0  0  0  0
    6.1772    3.0546    0.9391 H   0  0  0  0  0  0  0  0  0  0  0  0
    5.6270    1.0074    0.4489 C   0  0  0  0  0  0  0  0  0  0  0  0
    6.6661    0.6819    0.2873 H   0  0  0  0  0  0  0  0  0  0  0  0
    4.5799    0.0874    0.2896 C   0  0  0  0  0  0  0  0  0  0  0  0
    4.8196   -0.9449   -0.0007 H   0  0  0  0  0  0  0  0  0  0  0  0
  1 23  2  0  0  0  0
  2 11  1  0  0  0  0
  2  9  1  0  0  0  0
  3  5  1  0  0  0  0
  3  2  2  0  0  0  0
  4  3  1  0  0  0  0
  5  7  2  0  0  0  0
  6  5  1  0  0  0  0
  7  8  1  0  0  0  0
  7  9  1  0  0  0  0
  9 10  1  0  0  0  0
 11 20  1  0  0  0  0
 12 14  1  0  0  0  0
 12 15  1  0  0  0  0
 12 11  1  0  0  0  0
 13 12  1  0  0  0  0
 16 18  1  0  0  0  0
 16 11  1  0  0  0  0
 16 17  1  0  0  0  0
 19 16  1  0  0  0  0
 20 22  1  0  0  0  0
 20 23  1  0  0  0  0
 20 21  1  0  0  0  0
 23 24  1  0  0  0  0
 24 25  1  0  0  0  0
 25 27  2  0  0  0  0
 25 26  1  0  0  0  0
 27 28  1  0  0  0  0
 29 30  1  0  0  0  0
 29 27  1  0  0  0  0
 31 29  2  0  0  0  0
 32 31  1  0  0  0  0
 33 31  1  0  0  0  0
 33 24  2  0  0  0  0
 34 33  1  0  0  0  0
M  END
