4,5
 OpenBabel05122313053D

 45 47  0  0  1  0  0  0  0  0999 V2000
    1.9305   -2.4221    1.6571 O   0  0  0  0  0  0  0  0  0  0  0  0
    0.2241    2.4219    0.5696 N   0  0  0  0  0  0  0  0  0  0  0  0
    0.5545    0.8149    1.9860 N   0  0  0  0  0  0  0  0  0  0  0  0
    0.4443   -1.4925    0.2456 N   0  0  0  0  0  2  0  0  0  0  0  0
   -0.1765    1.1421    0.8663 C   0  0  0  0  0  2  0  0  0  0  0  0
    1.1491    2.8767    1.5082 C   0  0  0  0  0  0  0  0  0  0  0  0
    1.3683    1.8610    2.3947 C   0  0  0  0  0  0  0  0  0  0  0  0
   -0.2280    3.2680   -0.5932 C   0  0  0  0  0  0  0  0  0  0  0  0
   -0.4490    2.3689   -1.8198 C   0  0  0  0  0  0  0  0  0  0  0  0
   -1.4951    4.0284   -0.1655 C   0  0  0  0  0  0  0  0  0  0  0  0
    0.8771    4.2810   -0.9419 C   0  0  0  0  0  0  0  0  0  0  0  0
    0.6353   -0.5409    2.5165 C   0  0  0  0  0  0  0  0  0  0  0  0
    0.9995   -1.5009    1.4167 C   0  0  1  0  0  3  0  0  0  0  0  0
    1.1326   -2.5023   -0.5884 C   0  0  2  0  0  0  0  0  0  0  0  0
    1.9861   -3.2635    0.4598 C   0  0  0  0  0  0  0  0  0  0  0  0
    1.9365   -1.8311   -1.7286 C   0  0  0  0  0  0  0  0  0  0  0  0
    3.0988   -0.9932   -1.2503 C   0  0  0  0  0  0  0  0  0  0  0  0
    4.4098   -1.5142   -1.2445 C   0  0  0  0  0  0  0  0  0  0  0  0
    5.4848   -0.7576   -0.7529 C   0  0  0  0  0  0  0  0  0  0  0  0
    5.2665    0.5381   -0.2604 C   0  0  0  0  0  0  0  0  0  0  0  0
    3.9690    1.0743   -0.2712 C   0  0  0  0  0  0  0  0  0  0  0  0
    2.8961    0.3152   -0.7621 C   0  0  0  0  0  0  0  0  0  0  0  0
    1.5827    3.8774    1.4759 H   0  0  0  0  0  0  0  0  0  0  0  0
    2.0258    1.7985    3.2668 H   0  0  0  0  0  0  0  0  0  0  0  0
   -1.1017    1.4999   -1.5897 H   0  0  0  0  0  0  0  0  0  0  0  0
    0.5176    1.9796   -2.1962 H   0  0  0  0  0  0  0  0  0  0  0  0
   -0.9181    2.9593   -2.6300 H   0  0  0  0  0  0  0  0  0  0  0  0
   -1.2762    4.6983    0.6895 H   0  0  0  0  0  0  0  0  0  0  0  0
   -2.3047    3.3421    0.1445 H   0  0  0  0  0  0  0  0  0  0  0  0
   -1.8676    4.6511   -1.0018 H   0  0  0  0  0  0  0  0  0  0  0  0
    1.0093    5.0596   -0.1658 H   0  0  0  0  0  0  0  0  0  0  0  0
    0.5884    4.8048   -1.8730 H   0  0  0  0  0  0  0  0  0  0  0  0
    1.8480    3.7792   -1.1249 H   0  0  0  0  0  0  0  0  0  0  0  0
    1.4033   -0.5778    3.3099 H   0  0  0  0  0  0  0  0  0  0  0  0
   -0.3392   -0.8447    2.9543 H   0  0  0  0  0  0  0  0  0  0  0  0
    0.3730   -3.1719   -1.0409 H   0  0  0  0  0  0  0  0  0  0  0  0
    1.5700   -4.2532    0.7333 H   0  0  0  0  0  0  0  0  0  0  0  0
    3.0509   -3.3665    0.1809 H   0  0  0  0  0  0  0  0  0  0  0  0
    2.2965   -2.6358   -2.4019 H   0  0  0  0  0  0  0  0  0  0  0  0
    1.2230   -1.2171   -2.3171 H   0  0  0  0  0  0  0  0  0  0  0  0
    4.5964   -2.5214   -1.6514 H   0  0  0  0  0  0  0  0  0  0  0  0
    6.5007   -1.1798   -0.7643 H   0  0  0  0  0  0  0  0  0  0  0  0
    6.1097    1.1340    0.1194 H   0  0  0  0  0  0  0  0  0  0  0  0
    3.7905    2.0950    0.0996 H   0  0  0  0  0  0  0  0  0  0  0  0
    1.8847    0.7452   -0.7835 H   0  0  0  0  0  0  0  0  0  0  0  0
  2  5  1  0  0  0  0
  2  6  1  0  0  0  0
  3  7  1  0  0  0  0
  3 12  1  0  0  0  0
  4 13  1  0  0  0  0
  5  3  1  0  0  0  0
  6  7  2  0  0  0  0
  7 24  1  0  0  0  0
  8 10  1  0  0  0  0
  8  2  1  0  0  0  0
  9 25  1  0  0  0  0
  9  8  1  0  0  0  0
 10 29  1  0  0  0  0
 10 28  1  0  0  0  0
 11  8  1  0  0  0  0
 11 31  1  0  0  0  0
 12 35  1  0  0  0  0
 12 34  1  0  0  0  0
 13  1  1  0  0  0  0
 13 12  1  1  0  0  0
 14 36  1  6  0  0  0
 14  4  1  0  0  0  0
 14 15  1  0  0  0  0
 15 37  1  0  0  0  0
 15  1  1  0  0  0  0
 16 17  1  0  0  0  0
 16 14  1  0  0  0  0
 17 18  2  0  0  0  0
 17 22  1  0  0  0  0
 18 19  1  0  0  0  0
 19 20  2  0  0  0  0
 20 43  1  0  0  0  0
 21 20  1  0  0  0  0
 21 44  1  0  0  0  0
 22 21  2  0  0  0  0
 23  6  1  0  0  0  0
 26  9  1  0  0  0  0
 27  9  1  0  0  0  0
 30 10  1  0  0  0  0
 32 11  1  0  0  0  0
 33 11  1  0  0  0  0
 38 15  1  0  0  0  0
 39 16  1  0  0  0  0
 40 16  1  0  0  0  0
 41 18  1  0  0  0  0
 42 19  1  0  0  0  0
 45 22  1  0  0  0  0
M  END
