1,3
 OpenBabel05122313053D

 39 40  0  0  1  0  0  0  0  0999 V2000
    0.9084    0.9297    0.2137 N   0  0  0  0  0  2  0  0  0  0  0  0
    0.1960    1.8069   -0.5295 C   0  0  0  0  0  3  0  0  0  0  0  0
   -1.2244    1.7051   -0.3843 C   0  0  0  0  0  3  0  0  0  0  0  0
   -1.6989    0.7566    0.5841 C   0  0  0  0  0  3  0  0  0  0  0  0
   -3.1133    0.4009    0.7866 C   0  0  0  0  0  0  0  0  0  0  0  0
   -4.1434    0.7673   -0.1116 C   0  0  0  0  0  0  0  0  0  0  0  0
   -5.4736    0.4043    0.1341 C   0  0  0  0  0  0  0  0  0  0  0  0
   -5.8083   -0.3381    1.2785 C   0  0  0  0  0  0  0  0  0  0  0  0
   -4.7972   -0.7134    2.1782 C   0  0  0  0  0  0  0  0  0  0  0  0
   -3.4683   -0.3470    1.9342 C   0  0  0  0  0  0  0  0  0  0  0  0
    2.3444    0.8697   -0.0197 C   0  0  1  0  0  0  0  0  0  0  0  0
    3.0300    1.9848    0.7871 C   0  0  0  0  0  0  0  0  0  0  0  0
    2.6158    3.2335    0.2804 O   0  0  0  0  0  0  0  0  0  0  0  0
    3.0966    4.3244    1.0288 C   0  0  0  0  0  0  0  0  0  0  0  0
    2.9000   -0.4834    0.3817 C   0  0  0  0  0  0  0  0  0  0  0  0
    2.4969   -1.0874    1.5882 C   0  0  0  0  0  0  0  0  0  0  0  0
    3.0194   -2.3309    1.9701 C   0  0  0  0  0  0  0  0  0  0  0  0
    3.9556   -2.9840    1.1518 C   0  0  0  0  0  0  0  0  0  0  0  0
    4.3627   -2.3881   -0.0518 C   0  0  0  0  0  0  0  0  0  0  0  0
    3.8363   -1.1444   -0.4339 C   0  0  0  0  0  0  0  0  0  0  0  0
    0.6646    2.5165   -1.2360 H   0  0  0  0  0  0  0  0  0  0  0  0
   -1.8871    2.3024   -1.0269 H   0  0  0  0  0  0  0  0  0  0  0  0
   -1.0423    0.6194    1.4590 H   0  0  0  0  0  0  0  0  0  0  0  0
   -3.9046    1.3392   -1.0205 H   0  0  0  0  0  0  0  0  0  0  0  0
   -6.2581    0.7012   -0.5786 H   0  0  0  0  0  0  0  0  0  0  0  0
   -6.8539   -0.6249    1.4669 H   0  0  0  0  0  0  0  0  0  0  0  0
   -5.0470   -1.2967    3.0776 H   0  0  0  0  0  0  0  0  0  0  0  0
   -2.6762   -0.6455    2.6390 H   0  0  0  0  0  0  0  0  0  0  0  0
    2.6016    1.0569   -1.0917 H   0  0  0  0  0  0  0  0  0  0  0  0
    4.1385    1.8622    0.7065 H   0  0  0  0  0  0  0  0  0  0  0  0
    2.7574    1.8755    1.8660 H   0  0  0  0  0  0  0  0  0  0  0  0
    4.2132    4.3655    1.0414 H   0  0  0  0  0  0  0  0  0  0  0  0
    2.7456    4.2923    2.0890 H   0  0  0  0  0  0  0  0  0  0  0  0
    2.7152    5.2511    0.5575 H   0  0  0  0  0  0  0  0  0  0  0  0
    1.7448   -0.5807    2.2115 H   0  0  0  0  0  0  0  0  0  0  0  0
    2.6874   -2.7988    2.9094 H   0  0  0  0  0  0  0  0  0  0  0  0
    4.3617   -3.9629    1.4489 H   0  0  0  0  0  0  0  0  0  0  0  0
    5.0876   -2.8990   -0.7038 H   0  0  0  0  0  0  0  0  0  0  0  0
    4.1418   -0.6860   -1.3878 H   0  0  0  0  0  0  0  0  0  0  0  0
  2  3  1  0  0  0  0
  2  1  1  0  0  0  0
  3  4  1  0  0  0  0
  4  5  1  0  0  0  0
  4 23  1  0  0  0  0
  5 10  1  0  0  0  0
  6  7  1  0  0  0  0
  6  5  2  0  0  0  0
  7  8  2  0  0  0  0
  8 26  1  0  0  0  0
  8  9  1  0  0  0  0
  9 27  1  0  0  0  0
 10  9  2  0  0  0  0
 10 28  1  0  0  0  0
 11 29  1  6  0  0  0
 11  1  1  0  0  0  0
 11 15  1  0  0  0  0
 11 12  1  0  0  0  0
 12 31  1  0  0  0  0
 13 12  1  0  0  0  0
 13 14  1  0  0  0  0
 14 32  1  0  0  0  0
 14 33  1  0  0  0  0
 15 16  1  0  0  0  0
 16 17  2  0  0  0  0
 16 35  1  0  0  0  0
 17 36  1  0  0  0  0
 18 37  1  0  0  0  0
 18 17  1  0  0  0  0
 19 18  2  0  0  0  0
 20 19  1  0  0  0  0
 20 15  2  0  0  0  0
 21  2  1  0  0  0  0
 22  3  1  0  0  0  0
 24  6  1  0  0  0  0
 25  7  1  0  0  0  0
 30 12  1  0  0  0  0
 34 14  1  0  0  0  0
 38 19  1  0  0  0  0
 39 20  1  0  0  0  0
M  END
