1,4
 OpenBabel05122313053D

 40 42  0  0  0  0  0  0  0  0999 V2000
   -0.6556   -0.5058    1.5815 N   0  0  0  0  0  2  0  0  0  0  0  0
   -4.4789   -1.2437    2.3995 Cl  0  0  0  0  0  0  0  0  0  0  0  0
    5.8070   -1.1585    0.4105 Cl  0  0  0  0  0  0  0  0  0  0  0  0
    0.1909   -0.7399   -1.0557 C   0  0  0  0  0  2  0  0  0  0  0  0
    1.5071   -0.8887   -1.5359 C   0  0  0  0  0  0  0  0  0  0  0  0
    2.2440   -0.0961   -1.3268 H   0  0  0  0  0  0  0  0  0  0  0  0
    1.9320   -2.0257   -2.2532 C   0  0  0  0  0  0  0  0  0  0  0  0
    0.9869   -3.0384   -2.5087 C   0  0  0  0  0  0  0  0  0  0  0  0
    1.2897   -3.9422   -3.0608 H   0  0  0  0  0  0  0  0  0  0  0  0
   -0.3340   -2.9052   -2.0638 C   0  0  0  0  0  0  0  0  0  0  0  0
   -1.0606   -3.7080   -2.2671 H   0  0  0  0  0  0  0  0  0  0  0  0
   -0.7487   -1.7711   -1.3283 C   0  0  0  0  0  0  0  0  0  0  0  0
    3.3583   -2.1365   -2.7312 C   0  0  0  0  0  0  0  0  0  0  0  0
    4.0799   -1.9098   -1.9193 H   0  0  0  0  0  0  0  0  0  0  0  0
    3.5624   -1.4114   -3.5480 H   0  0  0  0  0  0  0  0  0  0  0  0
    3.5830   -3.1487   -3.1207 H   0  0  0  0  0  0  0  0  0  0  0  0
   -2.1771   -1.6778   -0.9153 C   0  0  0  0  0  0  0  0  0  0  0  0
   -3.1770   -1.8641   -1.8937 C   0  0  0  0  0  0  0  0  0  0  0  0
   -2.8617   -2.0107   -2.9369 H   0  0  0  0  0  0  0  0  0  0  0  0
   -4.5393   -1.8467   -1.5685 C   0  0  0  0  0  0  0  0  0  0  0  0
   -5.2953   -1.9788   -2.3573 H   0  0  0  0  0  0  0  0  0  0  0  0
   -4.9499   -1.6572   -0.2424 C   0  0  0  0  0  0  0  0  0  0  0  0
   -6.0118   -1.6324    0.0375 H   0  0  0  0  0  0  0  0  0  0  0  0
   -3.9692   -1.4871    0.7421 C   0  0  0  0  0  0  0  0  0  0  0  0
   -2.5869   -1.4769    0.4375 C   0  0  0  0  0  0  0  0  0  0  0  0
   -1.6388   -1.3452    1.5554 C   0  0  0  0  0  0  0  0  0  0  0  0
   -1.8150   -1.9734    2.4517 H   0  0  0  0  0  0  0  0  0  0  0  0
    0.2543   -0.4574    2.7343 C   0  0  0  0  0  0  0  0  0  0  0  0
   -0.0397   -1.2333    3.4735 H   0  0  0  0  0  0  0  0  0  0  0  0
    0.1264    0.5507    3.1809 H   0  0  0  0  0  0  0  0  0  0  0  0
    1.6782   -0.6484    2.2589 C   0  0  0  0  0  0  0  0  0  0  0  0
    2.5414    0.4556    2.1307 C   0  0  0  0  0  0  0  0  0  0  0  0
    2.1863    1.4527    2.4339 H   0  0  0  0  0  0  0  0  0  0  0  0
    3.8233    0.3023    1.5847 C   0  0  0  0  0  0  0  0  0  0  0  0
    4.4997    1.1615    1.4761 H   0  0  0  0  0  0  0  0  0  0  0  0
    4.2328   -0.9678    1.1483 C   0  0  0  0  0  0  0  0  0  0  0  0
    3.3912   -2.0839    1.2740 C   0  0  0  0  0  0  0  0  0  0  0  0
    3.7284   -3.0678    0.9203 H   0  0  0  0  0  0  0  0  0  0  0  0
    2.1178   -1.9137    1.8305 C   0  0  0  0  0  0  0  0  0  0  0  0
    1.4430   -2.7813    1.8997 H   0  0  0  0  0  0  0  0  0  0  0  0
  1 28  1  0  0  0  0
  3 36  1  0  0  0  0
  5  6  1  0  0  0  0
  5  4  1  0  0  0  0
  7  5  2  0  0  0  0
  8  7  1  0  0  0  0
  8 10  2  0  0  0  0
  9  8  1  0  0  0  0
 10 12  1  0  0  0  0
 11 10  1  0  0  0  0
 12  4  1  0  0  0  0
 12 17  2  0  0  0  0
 13  7  1  0  0  0  0
 13 14  1  0  0  0  0
 15 13  1  0  0  0  0
 16 13  1  0  0  0  0
 17 25  1  0  0  0  0
 18 20  2  0  0  0  0
 18 17  1  0  0  0  0
 19 18  1  0  0  0  0
 20 22  1  0  0  0  0
 21 20  1  0  0  0  0
 22 23  1  0  0  0  0
 22 24  2  0  0  0  0
 24  2  1  0  0  0  0
 25 24  1  0  0  0  0
 25 26  2  0  0  0  0
 26  1  1  0  0  0  0
 26 27  1  0  0  0  0
 28 30  1  0  0  0  0
 28 29  1  0  0  0  0
 31 28  1  0  0  0  0
 32 31  1  0  0  0  0
 32 33  1  0  0  0  0
 34 32  2  0  0  0  0
 35 34  1  0  0  0  0
 36 37  2  0  0  0  0
 36 34  1  0  0  0  0
 37 39  1  0  0  0  0
 38 37  1  0  0  0  0
 39 40  1  0  0  0  0
 39 31  2  0  0  0  0
M  END
