2,18
 OpenBabel05122313053D

 18 19  0  0  0  0  0  0  0  0999 V2000
    0.5253    1.6355   -2.6580 F   0  0  0  0  0  0  0  0  0  0  0  0
    0.6447   -1.3171    1.1157 N   0  0  0  0  0  2  0  0  0  0  0  0
    1.9683   -1.0442    0.9862 N   0  0  0  0  0  0  0  0  0  0  0  0
    0.5256   -2.2357    2.0902 C   0  0  0  0  0  3  0  0  0  0  0  0
   -0.4635   -2.6218    2.3559 H   0  0  0  0  0  0  0  0  0  0  0  0
    1.8024   -2.5540    2.6054 C   0  0  0  0  0  0  0  0  0  0  0  0
    2.0421   -3.2639    3.4025 H   0  0  0  0  0  0  0  0  0  0  0  0
    2.7007   -1.7755    1.8760 C   0  0  0  0  0  0  0  0  0  0  0  0
    3.7908   -1.6961    1.9165 H   0  0  0  0  0  0  0  0  0  0  0  0
    2.3091   -0.1295   -0.0364 C   0  0  0  0  0  0  0  0  0  0  0  0
    3.6385    0.2405   -0.2955 C   0  0  0  0  0  0  0  0  0  0  0  0
    4.4683   -0.1513    0.3097 H   0  0  0  0  0  0  0  0  0  0  0  0
    3.8856    1.1164   -1.3606 C   0  0  0  0  0  0  0  0  0  0  0  0
    4.9150    1.4275   -1.5899 H   0  0  0  0  0  0  0  0  0  0  0  0
    2.8199    1.5850   -2.1452 C   0  0  0  0  0  0  0  0  0  0  0  0
    2.9840    2.2560   -3.0006 H   0  0  0  0  0  0  0  0  0  0  0  0
    1.5126    1.1806   -1.8429 C   0  0  0  0  0  0  0  0  0  0  0  0
    1.1889    0.3381   -0.7677 C   0  0  0  0  0  3  0  0  0  0  0  0
  1 17  1  0  0  0  0
  2  4  1  0  0  0  0
  3  2  1  0  0  0  0
  3  8  1  0  0  0  0
  4  5  1  0  0  0  0
  4  6  1  0  0  0  0
  6  7  1  0  0  0  0
  8  9  1  0  0  0  0
  8  6  2  0  0  0  0
 10  3  1  0  0  0  0
 11 10  1  0  0  0  0
 11 12  1  0  0  0  0
 13 11  2  0  0  0  0
 14 13  1  0  0  0  0
 15 17  2  0  0  0  0
 15 13  1  0  0  0  0
 16 15  1  0  0  0  0
 17 18  1  0  0  0  0
 18 10  2  0  0  0  0
M  END
