3,5
 OpenBabel05122313053D

 35 35  0  0  1  0  0  0  0  0999 V2000
    3.2921   -1.2283   -0.4716 N   0  0  0  0  0  0  0  0  0  0  0  0
    3.2328   -2.1802   -0.1035 H   0  0  0  0  0  0  0  0  0  0  0  0
    1.2976   -0.6607    0.6696 N   0  0  0  0  0  2  0  0  0  0  0  0
    2.2421    0.7052   -0.9639 O   0  0  0  0  0  0  0  0  0  0  0  0
    0.5019    1.8555    0.3288 C   0  0  0  0  0  2  0  0  0  0  0  0
    1.7189    1.8763   -0.3710 C   0  0  1  0  0  3  0  0  0  0  0  0
    2.4902    3.0359   -0.5169 C   0  0  0  0  0  0  0  0  0  0  0  0
    3.4195    3.0005   -1.1040 H   0  0  0  0  0  0  0  0  0  0  0  0
    2.0618    4.2154    0.1105 C   0  0  0  0  0  0  0  0  0  0  0  0
    2.6586    5.1336    0.0106 H   0  0  0  0  0  0  0  0  0  0  0  0
    0.8924    4.2092    0.8866 C   0  0  0  0  0  0  0  0  0  0  0  0
    0.5763    5.1213    1.4149 H   0  0  0  0  0  0  0  0  0  0  0  0
    0.1210    3.0374    0.9957 C   0  0  0  0  0  0  0  0  0  0  0  0
   -0.7873    3.0494    1.6186 H   0  0  0  0  0  0  0  0  0  0  0  0
    2.2446   -0.4187   -0.2184 C   0  0  1  0  0  3  0  0  0  0  0  0
    4.4552   -0.9091   -1.3210 C   0  0  0  0  0  0  0  0  0  0  0  0
    4.5939    0.1881   -1.2439 H   0  0  0  0  0  0  0  0  0  0  0  0
    4.1836   -1.2676   -2.7853 C   0  0  0  0  0  0  0  0  0  0  0  0
    4.0121   -2.3577   -2.9022 H   0  0  0  0  0  0  0  0  0  0  0  0
    5.0504   -0.9912   -3.4175 H   0  0  0  0  0  0  0  0  0  0  0  0
    3.2946   -0.7272   -3.1645 H   0  0  0  0  0  0  0  0  0  0  0  0
    5.6872   -1.6135   -0.7526 C   0  0  0  0  0  0  0  0  0  0  0  0
    5.8839   -1.3092    0.2945 H   0  0  0  0  0  0  0  0  0  0  0  0
    6.5817   -1.3660   -1.3555 H   0  0  0  0  0  0  0  0  0  0  0  0
    5.5671   -2.7176   -0.7825 H   0  0  0  0  0  0  0  0  0  0  0  0
    1.5768   -1.5176    1.8493 C   0  0  0  0  0  0  0  0  0  0  0  0
    1.8096   -2.5580    1.5050 H   0  0  0  0  0  0  0  0  0  0  0  0
    2.7793   -0.9753    2.6379 C   0  0  0  0  0  0  0  0  0  0  0  0
    3.6995   -0.9182    2.0265 H   0  0  0  0  0  0  0  0  0  0  0  0
    2.9910   -1.6281    3.5071 H   0  0  0  0  0  0  0  0  0  0  0  0
    2.5503    0.0419    3.0135 H   0  0  0  0  0  0  0  0  0  0  0  0
    0.3547   -1.5958    2.7657 C   0  0  0  0  0  0  0  0  0  0  0  0
    0.0744   -0.5807    3.1127 H   0  0  0  0  0  0  0  0  0  0  0  0
    0.5953   -2.2106    3.6547 H   0  0  0  0  0  0  0  0  0  0  0  0
   -0.5259   -2.0452    2.2725 H   0  0  0  0  0  0  0  0  0  0  0  0
  1 15  1  0  0  0  0
  1  2  1  0  0  0  0
  3 26  1  0  0  0  0
  5 13  1  0  0  0  0
  6  4  1  1  0  0  0
  6  5  1  0  0  0  0
  7  6  1  0  0  0  0
  7  9  2  0  0  0  0
  8  7  1  0  0  0  0
  9 11  1  0  0  0  0
 10  9  1  0  0  0  0
 11 13  2  0  0  0  0
 11 12  1  0  0  0  0
 13 14  1  0  0  0  0
 15  4  1  1  0  0  0
 15  3  1  0  0  0  0
 16 17  1  0  0  0  0
 16 22  1  0  0  0  0
 16  1  1  0  0  0  0
 18 16  1  0  0  0  0
 19 18  1  0  0  0  0
 20 18  1  0  0  0  0
 21 18  1  0  0  0  0
 22 23  1  0  0  0  0
 24 22  1  0  0  0  0
 25 22  1  0  0  0  0
 26 28  1  0  0  0  0
 26 32  1  0  0  0  0
 27 26  1  0  0  0  0
 28 31  1  0  0  0  0
 28 30  1  0  0  0  0
 29 28  1  0  0  0  0
 32 33  1  0  0  0  0
 32 34  1  0  0  0  0
 35 32  1  0  0  0  0
M  END
