2,44
 OpenBabel05122313053D

 53 55  0  0  1  0  0  0  0  0999 V2000
    1.1746   -0.9826   -0.5083 N   0  0  0  0  0  0  0  0  0  0  0  0
   -0.4965    0.7833    0.4835 N   0  0  0  0  0  2  0  0  0  0  0  0
   -1.1370    2.7887    1.6143 C   0  0  0  0  0  0  0  0  0  0  0  0
   -1.9465    3.4394    1.9627 H   0  0  0  0  0  0  0  0  0  0  0  0
   -1.4789    1.6099    0.9225 C   0  0  2  0  0  3  0  0  0  0  0  0
    1.1847    2.2389    1.3544 C   0  0  0  0  0  0  0  0  0  0  0  0
    2.2496    2.4561    1.5022 H   0  0  0  0  0  0  0  0  0  0  0  0
    1.9847   -1.9370   -0.9968 C   0  0  0  0  0  0  0  0  0  0  0  0
    1.5059   -2.7660   -1.5298 H   0  0  0  0  0  0  0  0  0  0  0  0
    0.2033    3.1278    1.8443 C   0  0  0  0  0  0  0  0  0  0  0  0
    0.8139    1.0722    0.6812 C   0  0  0  0  0  0  0  0  0  0  0  0
    0.6278    4.4009    2.5885 C   0  0  0  0  0  0  0  0  0  0  0  0
    1.7484    0.0694    0.1476 C   0  0  0  0  0  0  0  0  0  0  0  0
   -2.8206    1.1366    0.5993 C   0  0  0  0  0  0  0  0  0  0  0  0
    1.5033    5.2616    1.6488 C   0  0  0  0  0  0  0  0  0  0  0  0
    0.9433    5.5525    0.7376 H   0  0  0  0  0  0  0  0  0  0  0  0
    2.4182    4.7256    1.3269 H   0  0  0  0  0  0  0  0  0  0  0  0
    1.8232    6.1876    2.1687 H   0  0  0  0  0  0  0  0  0  0  0  0
    1.4422    3.9986    3.8398 C   0  0  0  0  0  0  0  0  0  0  0  0
    1.7616    4.9048    4.3938 H   0  0  0  0  0  0  0  0  0  0  0  0
    2.3546    3.4281    3.5754 H   0  0  0  0  0  0  0  0  0  0  0  0
    0.8375    3.3697    4.5234 H   0  0  0  0  0  0  0  0  0  0  0  0
   -4.1957   -0.5402   -0.4611 C   0  0  0  0  0  0  0  0  0  0  0  0
   -4.3455   -1.4624   -1.0352 H   0  0  0  0  0  0  0  0  0  0  0  0
    3.1372    0.1647    0.2991 C   0  0  0  0  0  0  0  0  0  0  0  0
    3.5502    1.0302    0.8326 H   0  0  0  0  0  0  0  0  0  0  0  0
   -0.5827    5.2370    3.0365 C   0  0  0  0  0  0  0  0  0  0  0  0
   -1.2375    4.6751    3.7324 H   0  0  0  0  0  0  0  0  0  0  0  0
   -1.1945    5.5724    2.1751 H   0  0  0  0  0  0  0  0  0  0  0  0
   -0.2335    6.1439    3.5687 H   0  0  0  0  0  0  0  0  0  0  0  0
    5.5143   -0.7079   -0.0202 C   0  0  0  0  0  0  0  0  0  0  0  0
    5.9962    0.5942   -0.7008 C   0  0  0  0  0  0  0  0  0  0  0  0
    5.7680    0.5857   -1.7854 H   0  0  0  0  0  0  0  0  0  0  0  0
    7.0931    0.7027   -0.5790 H   0  0  0  0  0  0  0  0  0  0  0  0
    5.5198    1.4930   -0.2610 H   0  0  0  0  0  0  0  0  0  0  0  0
    5.8319   -0.6562    1.4923 C   0  0  0  0  0  0  0  0  0  0  0  0
    5.3517    0.2107    1.9882 H   0  0  0  0  0  0  0  0  0  0  0  0
    6.9264   -0.5678    1.6473 H   0  0  0  0  0  0  0  0  0  0  0  0
    5.4831   -1.5748    2.0052 H   0  0  0  0  0  0  0  0  0  0  0  0
    6.2626   -1.8983   -0.6432 C   0  0  0  0  0  0  0  0  0  0  0  0
    7.3531   -1.7744   -0.4910 H   0  0  0  0  0  0  0  0  0  0  0  0
    6.0855   -1.9717   -1.7350 H   0  0  0  0  0  0  0  0  0  0  0  0
    5.9693   -2.8601   -0.1763 H   0  0  0  0  0  0  0  0  0  0  0  0
   -2.9007   -0.0796   -0.1583 C   0  0  0  0  0  3  0  0  0  0  0  0
    3.3754   -1.9032   -0.8624 C   0  0  0  0  0  0  0  0  0  0  0  0
    3.9566   -2.7286   -1.2916 H   0  0  0  0  0  0  0  0  0  0  0  0
   -5.2479    1.3403    0.6891 C   0  0  0  0  0  0  0  0  0  0  0  0
   -6.1508    1.8796    1.0109 H   0  0  0  0  0  0  0  0  0  0  0  0
   -5.3472    0.1510   -0.0484 C   0  0  0  0  0  0  0  0  0  0  0  0
   -6.3376   -0.2521   -0.3116 H   0  0  0  0  0  0  0  0  0  0  0  0
   -3.9798    1.8284    1.0101 C   0  0  0  0  0  0  0  0  0  0  0  0
   -3.8864    2.7581    1.5913 H   0  0  0  0  0  0  0  0  0  0  0  0
    3.9973   -0.8283   -0.2032 C   0  0  0  0  0  0  0  0  0  0  0  0
  1 13  1  0  0  0  0
  2 11  1  0  0  0  0
  2  5  1  0  0  0  0
  3 10  2  0  0  0  0
  3  4  1  0  0  0  0
  5 14  1  1  0  0  0
  5  3  1  0  0  0  0
  6  7  1  0  0  0  0
  6 10  1  0  0  0  0
  8 45  1  0  0  0  0
  8  1  2  0  0  0  0
  9  8  1  0  0  0  0
 10 12  1  0  0  0  0
 11  6  2  0  0  0  0
 12 27  1  0  0  0  0
 12 19  1  0  0  0  0
 13 25  2  0  0  0  0
 13 11  1  0  0  0  0
 14 51  1  0  0  0  0
 15 18  1  0  0  0  0
 15 12  1  0  0  0  0
 16 15  1  0  0  0  0
 17 15  1  0  0  0  0
 19 20  1  0  0  0  0
 19 22  1  0  0  0  0
 21 19  1  0  0  0  0
 23 44  1  0  0  0  0
 23 49  2  0  0  0  0
 24 23  1  0  0  0  0
 25 26  1  0  0  0  0
 27 30  1  0  0  0  0
 27 28  1  0  0  0  0
 29 27  1  0  0  0  0
 31 36  1  0  0  0  0
 32 34  1  0  0  0  0
 32 35  1  0  0  0  0
 32 31  1  0  0  0  0
 33 32  1  0  0  0  0
 36 38  1  0  0  0  0
 36 37  1  0  0  0  0
 36 39  1  0  0  0  0
 40 41  1  0  0  0  0
 40 43  1  0  0  0  0
 40 31  1  0  0  0  0
 42 40  1  0  0  0  0
 44 14  2  0  0  0  0
 45 53  2  0  0  0  0
 46 45  1  0  0  0  0
 47 51  2  0  0  0  0
 47 48  1  0  0  0  0
 49 47  1  0  0  0  0
 50 49  1  0  0  0  0
 51 52  1  0  0  0  0
 53 31  1  0  0  0  0
 53 25  1  0  0  0  0
M  END
