2,5
 OpenBabel05122313053D

 47 49  0  0  1  0  0  0  0  0999 V2000
   -2.6104   -0.3006   -1.2845 Se  0  0  0  0  0  0  0  0  0  0  0  0
    0.9983    2.0418    0.1298 C   0  0  0  0  0  3  0  0  0  0  0  0
   -3.6402   -0.2988    2.7905 C   0  0  0  0  0  0  0  0  0  0  0  0
   -3.6926    0.4652    3.5811 H   0  0  0  0  0  0  0  0  0  0  0  0
    0.8505   -0.5435   -0.5911 N   0  0  0  0  0  0  0  0  0  0  0  0
    0.7792   -0.8781    0.3856 H   0  0  0  0  0  0  0  0  0  0  0  0
   -3.1498   -0.8975    0.4909 C   0  0  0  0  0  0  0  0  0  0  0  0
    2.1945   -1.2496    1.7950 O   0  0  0  0  0  0  0  0  0  0  0  0
    2.3187   -1.6422    2.6789 H   0  0  0  0  0  0  0  0  0  0  0  0
    2.2336    0.0423   -0.7133 C   0  0  1  0  0  0  0  0  0  0  0  0
    2.3744    0.2394   -1.7988 H   0  0  0  0  0  0  0  0  0  0  0  0
    3.2883   -1.5110    1.0150 C   0  0  0  0  0  0  0  0  0  0  0  0
    0.9565    3.2943    0.7693 C   0  0  0  0  0  0  0  0  0  0  0  0
   -0.0073    3.8175    0.8548 H   0  0  0  0  0  0  0  0  0  0  0  0
    4.3346   -2.3428    1.4481 C   0  0  0  0  0  0  0  0  0  0  0  0
    4.2870   -2.7948    2.4526 H   0  0  0  0  0  0  0  0  0  0  0  0
    0.6707   -1.7024   -1.4921 C   0  0  0  0  0  0  0  0  0  0  0  0
    1.5435   -2.3802   -1.3602 H   0  0  0  0  0  0  0  0  0  0  0  0
    0.7126   -1.3285   -2.5369 H   0  0  0  0  0  0  0  0  0  0  0  0
   -3.2193    0.0766    1.5060 C   0  0  0  0  0  0  0  0  0  0  0  0
   -2.9388    1.1197    1.2810 H   0  0  0  0  0  0  0  0  0  0  0  0
    2.2398    1.3693    0.0199 C   0  0  0  0  0  0  0  0  0  0  0  0
   -3.5085   -2.2305    0.7585 C   0  0  0  0  0  0  0  0  0  0  0  0
   -3.4821   -2.9966   -0.0297 H   0  0  0  0  0  0  0  0  0  0  0  0
    3.3219   -0.9183   -0.2722 C   0  0  0  0  0  0  0  0  0  0  0  0
    4.4265   -1.1928   -1.0960 C   0  0  0  0  0  0  0  0  0  0  0  0
    4.4595   -0.7311   -2.0957 H   0  0  0  0  0  0  0  0  0  0  0  0
   -3.9174   -2.5935    2.0527 C   0  0  0  0  0  0  0  0  0  0  0  0
   -4.1924   -3.6395    2.2587 H   0  0  0  0  0  0  0  0  0  0  0  0
    3.4152    1.9448    0.5340 C   0  0  0  0  0  0  0  0  0  0  0  0
    4.3734    1.4088    0.4438 H   0  0  0  0  0  0  0  0  0  0  0  0
    5.4799   -2.0179   -0.6707 C   0  0  0  0  0  0  0  0  0  0  0  0
    6.3352   -2.2098   -1.3345 H   0  0  0  0  0  0  0  0  0  0  0  0
    5.4300   -2.5913    0.6079 C   0  0  0  0  0  0  0  0  0  0  0  0
    6.2456   -3.2407    0.9596 H   0  0  0  0  0  0  0  0  0  0  0  0
   -1.8675   -1.9986   -1.9641 C   0  0  0  0  0  0  0  0  0  0  0  0
   -2.6785   -2.7525   -1.9444 H   0  0  0  0  0  0  0  0  0  0  0  0
   -1.6657   -1.7764   -3.0324 H   0  0  0  0  0  0  0  0  0  0  0  0
   -0.6110   -2.5081   -1.2616 C   0  0  0  0  0  0  0  0  0  0  0  0
   -0.4201   -3.5371   -1.6367 H   0  0  0  0  0  0  0  0  0  0  0  0
   -0.7977   -2.6210   -0.1709 H   0  0  0  0  0  0  0  0  0  0  0  0
    3.3626    3.1975    1.1636 C   0  0  0  0  0  0  0  0  0  0  0  0
    4.2823    3.6487    1.5665 H   0  0  0  0  0  0  0  0  0  0  0  0
    2.1337    3.8672    1.2802 C   0  0  0  0  0  0  0  0  0  0  0  0
    2.0881    4.8503    1.7756 H   0  0  0  0  0  0  0  0  0  0  0  0
   -3.9837   -1.6314    3.0715 C   0  0  0  0  0  0  0  0  0  0  0  0
   -4.3066   -1.9197    4.0833 H   0  0  0  0  0  0  0  0  0  0  0  0
  1  7  1  0  0  0  0
  2 13  1  0  0  0  0
  3 46  1  0  0  0  0
  3  4  1  0  0  0  0
  5  6  1  0  0  0  0
  7 23  2  0  0  0  0
  7 20  1  0  0  0  0
  8  9  1  0  0  0  0
 10 11  1  6  0  0  0
 10  5  1  0  0  0  0
 10 25  1  0  0  0  0
 10 22  1  0  0  0  0
 12 15  1  0  0  0  0
 12  8  1  0  0  0  0
 13 14  1  0  0  0  0
 13 44  2  0  0  0  0
 15 16  1  0  0  0  0
 17 18  1  0  0  0  0
 17 39  1  0  0  0  0
 17  5  1  0  0  0  0
 19 17  1  0  0  0  0
 20  3  2  0  0  0  0
 21 20  1  0  0  0  0
 22  2  2  0  0  0  0
 22 30  1  0  0  0  0
 23 28  1  0  0  0  0
 24 23  1  0  0  0  0
 25 12  2  0  0  0  0
 26 32  2  0  0  0  0
 26 25  1  0  0  0  0
 27 26  1  0  0  0  0
 28 29  1  0  0  0  0
 28 46  2  0  0  0  0
 30 42  2  0  0  0  0
 31 30  1  0  0  0  0
 32 34  1  0  0  0  0
 33 32  1  0  0  0  0
 34 35  1  0  0  0  0
 34 15  2  0  0  0  0
 36 37  1  0  0  0  0
 36  1  1  0  0  0  0
 36 39  1  0  0  0  0
 38 36  1  0  0  0  0
 39 41  1  0  0  0  0
 40 39  1  0  0  0  0
 42 44  1  0  0  0  0
 42 43  1  0  0  0  0
 44 45  1  0  0  0  0
 46 47  1  0  0  0  0
M  END
