1,3
 OpenBabel05122313053D

 56 60  0  0  0  0  0  0  0  0999 V2000
    2.3163    1.1368   -0.1696 C   0  0  0  0  0  2  0  0  0  0  0  0
    0.8756    4.6766    0.0579 C   0  0  0  0  0  0  0  0  0  0  0  0
    3.6740   -1.0234    0.2969 N   0  0  0  0  0  2  0  0  0  0  0  0
    3.8877    2.6130    1.0419 C   0  0  0  0  0  0  0  0  0  0  0  0
    4.8256    2.7578    1.6008 H   0  0  0  0  0  0  0  0  0  0  0  0
   -0.7012    5.1118   -1.6816 O   0  0  0  0  0  0  0  0  0  0  0  0
    3.5252    1.3307    0.5679 C   0  0  0  0  0  0  0  0  0  0  0  0
    1.4916    2.2500   -0.4036 C   0  0  0  0  0  0  0  0  0  0  0  0
    0.5607    2.1019   -0.9694 H   0  0  0  0  0  0  0  0  0  0  0  0
   -3.6252    0.0196    0.9646 N   0  0  0  0  0  0  0  0  0  0  0  0
    4.2854    0.1071    0.7997 C   0  0  0  0  0  0  0  0  0  0  0  0
   -1.2104    2.8364    1.1500 C   0  0  0  0  0  0  0  0  0  0  0  0
   -0.4063    3.1821    1.8168 H   0  0  0  0  0  0  0  0  0  0  0  0
    5.5196   -0.0117    1.4652 C   0  0  0  0  0  0  0  0  0  0  0  0
    6.0017    0.8924    1.8612 H   0  0  0  0  0  0  0  0  0  0  0  0
   -1.4350    3.4847   -0.0870 C   0  0  0  0  0  0  0  0  0  0  0  0
    6.1185   -1.2657    1.6144 C   0  0  0  0  0  0  0  0  0  0  0  0
    7.0841   -1.3604    2.1328 H   0  0  0  0  0  0  0  0  0  0  0  0
    1.8216    3.5166    0.1256 C   0  0  0  0  0  0  0  0  0  0  0  0
   -3.2881    1.9536   -0.5190 C   0  0  0  0  0  0  0  0  0  0  0  0
   -4.0931    1.5989   -1.1777 H   0  0  0  0  0  0  0  0  0  0  0  0
   -4.9417   -0.2352    0.4906 C   0  0  0  0  0  0  0  0  0  0  0  0
   -5.9588    0.7271    0.6666 C   0  0  0  0  0  0  0  0  0  0  0  0
   -5.7241    1.6686    1.1842 H   0  0  0  0  0  0  0  0  0  0  0  0
    1.1419    5.7768    0.5290 O   0  0  0  0  0  0  0  0  0  0  0  0
   -2.8958   -1.0440    1.5743 C   0  0  0  0  0  0  0  0  0  0  0  0
   -1.9772    1.7378    1.5289 C   0  0  0  0  0  0  0  0  0  0  0  0
   -1.7750    1.2230    2.4782 H   0  0  0  0  0  0  0  0  0  0  0  0
   -2.5197    3.0556   -0.8841 C   0  0  0  0  0  0  0  0  0  0  0  0
   -2.6932    3.5791   -1.8368 H   0  0  0  0  0  0  0  0  0  0  0  0
   -2.9852    1.2361    0.6681 C   0  0  0  0  0  0  0  0  0  0  0  0
    3.0364    3.6957    0.8316 C   0  0  0  0  0  0  0  0  0  0  0  0
    3.2636    4.6987    1.2213 H   0  0  0  0  0  0  0  0  0  0  0  0
   -0.4883    4.4758   -0.6526 C   0  0  0  0  0  0  0  0  0  0  0  0
   -1.4863   -3.1985    2.7320 C   0  0  0  0  0  0  0  0  0  0  0  0
   -0.9389   -4.0393    3.1836 H   0  0  0  0  0  0  0  0  0  0  0  0
   -1.5500   -1.2871    1.2248 C   0  0  0  0  0  0  0  0  0  0  0  0
   -1.0428   -0.6364    0.4992 H   0  0  0  0  0  0  0  0  0  0  0  0
   -0.8526   -2.3537    1.8054 C   0  0  0  0  0  0  0  0  0  0  0  0
    0.1942   -2.5238    1.5078 H   0  0  0  0  0  0  0  0  0  0  0  0
   -2.8264   -2.9585    3.0794 C   0  0  0  0  0  0  0  0  0  0  0  0
   -3.3319   -3.6077    3.8107 H   0  0  0  0  0  0  0  0  0  0  0  0
   -3.5290   -1.8863    2.5129 C   0  0  0  0  0  0  0  0  0  0  0  0
   -4.5762   -1.6959    2.7893 H   0  0  0  0  0  0  0  0  0  0  0  0
    4.2488   -2.2390    0.4406 C   0  0  0  0  0  0  0  0  0  0  0  0
    3.6786   -3.0764    0.0098 H   0  0  0  0  0  0  0  0  0  0  0  0
   -5.2431   -1.4494   -0.1637 C   0  0  0  0  0  0  0  0  0  0  0  0
   -4.4491   -2.1979   -0.3005 H   0  0  0  0  0  0  0  0  0  0  0  0
   -6.5421   -1.6928   -0.6284 C   0  0  0  0  0  0  0  0  0  0  0  0
   -6.7647   -2.6427   -1.1380 H   0  0  0  0  0  0  0  0  0  0  0  0
   -7.2505    0.4806    0.1840 C   0  0  0  0  0  0  0  0  0  0  0  0
   -8.0349    1.2391    0.3278 H   0  0  0  0  0  0  0  0  0  0  0  0
   -7.5513   -0.7301   -0.4621 C   0  0  0  0  0  0  0  0  0  0  0  0
   -8.5688   -0.9230   -0.8329 H   0  0  0  0  0  0  0  0  0  0  0  0
    5.4718   -2.4003    1.0942 C   0  0  0  0  0  0  0  0  0  0  0  0
    5.9058   -3.4051    1.1900 H   0  0  0  0  0  0  0  0  0  0  0  0
  1  7  1  0  0  0  0
  2 19  1  0  0  0  0
  2 25  2  0  0  0  0
  3 45  1  0  0  0  0
  3 11  1  0  0  0  0
  4  5  1  0  0  0  0
  6 34  2  0  0  0  0
  7 11  2  0  0  0  0
  7  4  1  0  0  0  0
  8  1  1  0  0  0  0
  8 19  2  0  0  0  0
  9  8  1  0  0  0  0
 10 26  1  0  0  0  0
 11 14  1  0  0  0  0
 12 27  1  0  0  0  0
 12 13  1  0  0  0  0
 14 17  2  0  0  0  0
 14 15  1  0  0  0  0
 16 12  2  0  0  0  0
 17 18  1  0  0  0  0
 19 32  1  0  0  0  0
 20 31  1  0  0  0  0
 21 20  1  0  0  0  0
 22 23  1  0  0  0  0
 22 10  1  0  0  0  0
 23 24  1  0  0  0  0
 26 43  1  0  0  0  0
 27 28  1  0  0  0  0
 29 20  2  0  0  0  0
 29 16  1  0  0  0  0
 30 29  1  0  0  0  0
 31 10  1  0  0  0  0
 31 27  2  0  0  0  0
 32  4  2  0  0  0  0
 32 33  1  0  0  0  0
 34 16  1  0  0  0  0
 34  2  1  0  0  0  0
 35 41  1  0  0  0  0
 35 36  1  0  0  0  0
 37 26  2  0  0  0  0
 37 39  1  0  0  0  0
 38 37  1  0  0  0  0
 39 35  2  0  0  0  0
 40 39  1  0  0  0  0
 41 42  1  0  0  0  0
 43 44  1  0  0  0  0
 43 41  2  0  0  0  0
 45 55  2  0  0  0  0
 46 45  1  0  0  0  0
 47 22  2  0  0  0  0
 48 47  1  0  0  0  0
 49 53  2  0  0  0  0
 49 47  1  0  0  0  0
 50 49  1  0  0  0  0
 51 52  1  0  0  0  0
 51 23  2  0  0  0  0
 53 51  1  0  0  0  0
 54 53  1  0  0  0  0
 55 56  1  0  0  0  0
 55 17  1  0  0  0  0
M  END
