2
 OpenBabel05122313053D

 56 61  0  0  1  0  0  0  0  0999 V2000
   -0.0221   -0.5962    1.8815 Si  0  0  0  0  0  0  0  0  0  0  0  0
   -0.7505   -0.2453    0.2924 N   0  0  0  0  0  2  0  0  0  0  0  0
    1.6232    2.4322    1.3381 C   0  0  0  0  0  0  0  0  0  0  0  0
    2.1585    3.5857    0.7745 C   0  0  0  0  0  0  0  0  0  0  0  0
    3.1866    3.5246   -0.2058 C   0  0  0  0  0  0  0  0  0  0  0  0
    3.6894    2.2977   -0.6293 C   0  0  0  0  0  0  0  0  0  0  0  0
    4.3850   -0.9115   -1.1849 C   0  0  0  0  0  0  0  0  0  0  0  0
    4.4640   -2.3018   -1.2011 C   0  0  0  0  0  0  0  0  0  0  0  0
    3.6393   -3.0836   -0.3475 C   0  0  0  0  0  0  0  0  0  0  0  0
    2.7262   -2.4929    0.5201 C   0  0  0  0  0  0  0  0  0  0  0  0
    1.7271   -0.1924    1.3101 C   0  0  0  0  0  3  0  0  0  0  0  0
    2.1287    1.1602    0.9446 C   0  0  0  0  0  0  0  0  0  0  0  0
    3.1643    1.1102   -0.0679 C   0  0  0  0  0  0  0  0  0  0  0  0
    3.4694   -0.2872   -0.3059 C   0  0  0  0  0  0  0  0  0  0  0  0
    2.6197   -1.0744    0.5665 C   0  0  0  0  0  0  0  0  0  0  0  0
   -2.1695   -0.1295   -0.0569 C   0  0  2  0  0  0  0  0  0  0  0  0
   -2.6420    1.3375    0.1158 C   0  0  0  0  0  0  0  0  0  0  0  0
   -3.0522   -1.0336    0.8395 C   0  0  0  0  0  0  0  0  0  0  0  0
   -2.4095   -0.5509   -1.5271 C   0  0  0  0  0  0  0  0  0  0  0  0
   -4.1283    1.4824   -0.2619 C   0  0  2  0  0  0  0  0  0  0  0  0
   -4.9768    0.5766    0.6514 C   0  0  0  0  0  0  0  0  0  0  0  0
   -4.5415   -0.8902    0.4692 C   0  0  1  0  0  0  0  0  0  0  0  0
   -4.7456   -1.3091   -0.9987 C   0  0  0  0  0  0  0  0  0  0  0  0
   -3.8936   -0.4055   -1.9091 C   0  0  1  0  0  0  0  0  0  0  0  0
   -4.3265    1.0625   -1.7312 C   0  0  0  0  0  0  0  0  0  0  0  0
   -0.6312    0.5004    3.3009 C   0  0  0  0  0  0  0  0  0  0  0  0
   -0.2223   -2.4004    2.4131 C   0  0  0  0  0  0  0  0  0  0  0  0
    0.8375    2.5026    2.1014 H   0  0  0  0  0  0  0  0  0  0  0  0
    1.7807    4.5686    1.0948 H   0  0  0  0  0  0  0  0  0  0  0  0
    3.5862    4.4578   -0.6298 H   0  0  0  0  0  0  0  0  0  0  0  0
    4.4820    2.2478   -1.3913 H   0  0  0  0  0  0  0  0  0  0  0  0
    5.0262   -0.3037   -1.8412 H   0  0  0  0  0  0  0  0  0  0  0  0
    5.1735   -2.8035   -1.8761 H   0  0  0  0  0  0  0  0  0  0  0  0
    3.7278   -4.1803   -0.3739 H   0  0  0  0  0  0  0  0  0  0  0  0
    2.1026   -3.1148    1.1760 H   0  0  0  0  0  0  0  0  0  0  0  0
   -2.4770    1.6476    1.1695 H   0  0  0  0  0  0  0  0  0  0  0  0
   -2.0052    1.9911   -0.5165 H   0  0  0  0  0  0  0  0  0  0  0  0
   -2.7235   -2.0883    0.7264 H   0  0  0  0  0  0  0  0  0  0  0  0
   -2.9045   -0.7532    1.9050 H   0  0  0  0  0  0  0  0  0  0  0  0
   -2.0696   -1.5991   -1.6594 H   0  0  0  0  0  0  0  0  0  0  0  0
   -1.7838    0.0790   -2.1936 H   0  0  0  0  0  0  0  0  0  0  0  0
   -4.4379    2.5413   -0.1305 H   0  0  0  0  0  0  0  0  0  0  0  0
   -4.8534    0.8828    1.7128 H   0  0  0  0  0  0  0  0  0  0  0  0
   -6.0552    0.6868    0.4069 H   0  0  0  0  0  0  0  0  0  0  0  0
   -5.1451   -1.5451    1.1333 H   0  0  0  0  0  0  0  0  0  0  0  0
   -5.8194   -1.2285   -1.2731 H   0  0  0  0  0  0  0  0  0  0  0  0
   -4.4545   -2.3726   -1.1365 H   0  0  0  0  0  0  0  0  0  0  0  0
   -4.0277   -0.7094   -2.9691 H   0  0  0  0  0  0  0  0  0  0  0  0
   -5.3913    1.1859   -2.0243 H   0  0  0  0  0  0  0  0  0  0  0  0
   -3.7287    1.7197   -2.3987 H   0  0  0  0  0  0  0  0  0  0  0  0
   -0.7906    1.5513    2.9925 H   0  0  0  0  0  0  0  0  0  0  0  0
    0.1098    0.4881    4.1271 H   0  0  0  0  0  0  0  0  0  0  0  0
   -1.5917    0.1174    3.7020 H   0  0  0  0  0  0  0  0  0  0  0  0
   -0.1070   -3.0873    1.5521 H   0  0  0  0  0  0  0  0  0  0  0  0
   -1.2284   -2.5676    2.8475 H   0  0  0  0  0  0  0  0  0  0  0  0
    0.5292   -2.6684    3.1845 H   0  0  0  0  0  0  0  0  0  0  0  0
  1 27  1  0  0  0  0
  1 26  1  0  0  0  0
  2  1  1  0  0  0  0
  3 28  1  0  0  0  0
  4 29  1  0  0  0  0
  4  3  2  0  0  0  0
  5  4  1  0  0  0  0
  6  5  2  0  0  0  0
  6 13  1  0  0  0  0
  7 14  1  0  0  0  0
  8  7  2  0  0  0  0
  8  9  1  0  0  0  0
  9 10  2  0  0  0  0
 10 15  1  0  0  0  0
 10 35  1  0  0  0  0
 11  1  1  0  0  0  0
 12 11  1  0  0  0  0
 12  3  1  0  0  0  0
 13 12  2  0  0  0  0
 14 13  1  0  0  0  0
 14 15  2  0  0  0  0
 15 11  1  0  0  0  0
 16 17  1  0  0  0  0
 16  2  1  1  0  0  0
 16 18  1  0  0  0  0
 17 36  1  0  0  0  0
 18 39  1  0  0  0  0
 19 16  1  0  0  0  0
 20 42  1  1  0  0  0
 20 17  1  0  0  0  0
 20 21  1  0  0  0  0
 21 43  1  0  0  0  0
 22 21  1  0  0  0  0
 22 18  1  0  0  0  0
 22 45  1  1  0  0  0
 23 22  1  0  0  0  0
 24 48  1  6  0  0  0
 24 25  1  0  0  0  0
 24 19  1  0  0  0  0
 24 23  1  0  0  0  0
 25 20  1  0  0  0  0
 26 53  1  0  0  0  0
 26 52  1  0  0  0  0
 27 55  1  0  0  0  0
 27 56  1  0  0  0  0
 30  5  1  0  0  0  0
 31  6  1  0  0  0  0
 32  7  1  0  0  0  0
 33  8  1  0  0  0  0
 34  9  1  0  0  0  0
 37 17  1  0  0  0  0
 38 18  1  0  0  0  0
 40 19  1  0  0  0  0
 41 19  1  0  0  0  0
 44 21  1  0  0  0  0
 46 23  1  0  0  0  0
 47 23  1  0  0  0  0
 49 25  1  0  0  0  0
 50 25  1  0  0  0  0
 51 26  1  0  0  0  0
 54 27  1  0  0  0  0
M  END
