1,40
 OpenBabel05122313053D

 40 40  0  0  1  0  0  0  0  0999 V2000
   -0.0312    1.1410   -0.1879 C   0  0  0  0  0  3  0  0  0  0  0  0
   -0.5853    2.4340   -0.2894 C   0  0  0  0  0  0  0  0  0  0  0  0
   -2.0486    2.7494   -0.4900 C   0  0  0  0  0  0  0  0  0  0  0  0
   -2.5955    2.7773    0.4762 H   0  0  0  0  0  0  0  0  0  0  0  0
   -2.5502    2.0106   -1.1425 H   0  0  0  0  0  0  0  0  0  0  0  0
   -2.1654    3.7480   -0.9523 H   0  0  0  0  0  0  0  0  0  0  0  0
    0.3248    3.5153   -0.2414 C   0  0  0  0  0  0  0  0  0  0  0  0
   -0.0744    4.5397   -0.3105 H   0  0  0  0  0  0  0  0  0  0  0  0
    1.7032    3.3222   -0.1663 C   0  0  0  0  0  0  0  0  0  0  0  0
    2.3723    4.1962   -0.1808 H   0  0  0  0  0  0  0  0  0  0  0  0
    2.2658    2.0310   -0.1241 C   0  0  0  0  0  0  0  0  0  0  0  0
    3.7707    1.9055   -0.1447 C   0  0  0  0  0  0  0  0  0  0  0  0
    4.2135    2.7102   -0.7634 H   0  0  0  0  0  0  0  0  0  0  0  0
    4.1246    0.9382   -0.5489 H   0  0  0  0  0  0  0  0  0  0  0  0
    4.2020    2.0093    0.8723 H   0  0  0  0  0  0  0  0  0  0  0  0
    1.3735    0.9290   -0.0964 C   0  0  0  0  0  0  0  0  0  0  0  0
    1.8272   -0.5176   -0.1084 C   0  0  1  0  0  0  0  0  0  0  0  0
    2.8351   -0.5992   -0.5729 H   0  0  0  0  0  0  0  0  0  0  0  0
    1.9813   -1.1747    1.3273 C   0  0  0  0  0  0  0  0  0  0  0  0
    2.8275   -2.4700    1.2846 C   0  0  0  0  0  0  0  0  0  0  0  0
    3.7402   -2.3356    0.6684 H   0  0  0  0  0  0  0  0  0  0  0  0
    2.2863   -3.3553    0.9076 H   0  0  0  0  0  0  0  0  0  0  0  0
    3.1627   -2.7198    2.3108 H   0  0  0  0  0  0  0  0  0  0  0  0
    0.6460   -1.4396    2.0434 C   0  0  0  0  0  0  0  0  0  0  0  0
    0.8498   -1.8578    3.0501 H   0  0  0  0  0  0  0  0  0  0  0  0
    0.0053   -2.1744    1.5132 H   0  0  0  0  0  0  0  0  0  0  0  0
    0.0638   -0.5066    2.1778 H   0  0  0  0  0  0  0  0  0  0  0  0
    2.7770   -0.1806    2.2046 C   0  0  0  0  0  0  0  0  0  0  0  0
    2.2625    0.7936    2.3070 H   0  0  0  0  0  0  0  0  0  0  0  0
    3.7933   -0.0041    1.8042 H   0  0  0  0  0  0  0  0  0  0  0  0
    2.8960   -0.6119    3.2178 H   0  0  0  0  0  0  0  0  0  0  0  0
    1.1196   -0.6513   -2.4649 C   0  0  0  0  0  0  0  0  0  0  0  0
    2.1224   -0.9859   -2.8091 H   0  0  0  0  0  0  0  0  0  0  0  0
    1.0824    0.4504   -2.4608 H   0  0  0  0  0  0  0  0  0  0  0  0
    0.3531   -1.0418   -3.1590 H   0  0  0  0  0  0  0  0  0  0  0  0
    0.9669   -2.6595   -1.1793 C   0  0  0  0  0  0  0  0  0  0  0  0
    0.3062   -3.0185   -1.9879 H   0  0  0  0  0  0  0  0  0  0  0  0
    0.6532   -3.1347   -0.2375 H   0  0  0  0  0  0  0  0  0  0  0  0
    2.0120   -2.9521   -1.4122 H   0  0  0  0  0  0  0  0  0  0  0  0
    0.8576   -1.1857   -1.0938 N   0  0  0  0  0  0  0  0  0  0  0  0
  1 16  1  0  0  0  0
  2  7  1  0  0  0  0
  2  1  2  0  0  0  0
  3  2  1  0  0  0  0
  3  4  1  0  0  0  0
  5  3  1  0  0  0  0
  6  3  1  0  0  0  0
  7  9  2  0  0  0  0
  8  7  1  0  0  0  0
  9 11  1  0  0  0  0
 10  9  1  0  0  0  0
 11 16  2  0  0  0  0
 12 11  1  0  0  0  0
 12 15  1  0  0  0  0
 13 12  1  0  0  0  0
 14 12  1  0  0  0  0
 17 18  1  6  0  0  0
 17 16  1  0  0  0  0
 17 19  1  0  0  0  0
 19 24  1  0  0  0  0
 19 28  1  0  0  0  0
 20 19  1  0  0  0  0
 20 23  1  0  0  0  0
 21 20  1  0  0  0  0
 22 20  1  0  0  0  0
 24 27  1  0  0  0  0
 24 25  1  0  0  0  0
 26 24  1  0  0  0  0
 28 29  1  0  0  0  0
 28 31  1  0  0  0  0
 30 28  1  0  0  0  0
 32 34  1  0  0  0  0
 32 40  1  0  0  0  0
 33 32  1  0  0  0  0
 35 32  1  0  0  0  0
 36 40  1  0  0  0  0
 36 38  1  0  0  0  0
 37 36  1  0  0  0  0
 39 36  1  0  0  0  0
 40 17  1  0  0  0  0
M  END
