1,5
 OpenBabel05122313053D

 33 34  0  0  0  0  0  0  0  0999 V2000
   -0.9887    1.8166    0.9334 N   0  0  0  0  0  2  0  0  0  0  0  0
   -0.3979    2.3290    1.9769 C   0  0  0  0  0  0  0  0  0  0  0  0
   -0.8045    3.2396    2.4607 H   0  0  0  0  0  0  0  0  0  0  0  0
    0.7638    1.6402    2.4924 C   0  0  0  0  0  0  0  0  0  0  0  0
    1.1250    0.4444    1.7836 C   0  0  0  0  0  2  0  0  0  0  0  0
    2.1889   -0.3021    2.3201 C   0  0  0  0  0  0  0  0  0  0  0  0
    2.4823   -1.2476    1.8471 H   0  0  0  0  0  0  0  0  0  0  0  0
    2.8840    0.1232    3.4672 C   0  0  0  0  0  0  0  0  0  0  0  0
    3.7113   -0.4921    3.8573 H   0  0  0  0  0  0  0  0  0  0  0  0
    2.5363    1.3166    4.1256 C   0  0  0  0  0  0  0  0  0  0  0  0
    3.0903    1.6427    5.0184 H   0  0  0  0  0  0  0  0  0  0  0  0
    1.4644    2.0735    3.6390 C   0  0  0  0  0  0  0  0  0  0  0  0
    1.1579    3.0015    4.1484 H   0  0  0  0  0  0  0  0  0  0  0  0
   -2.1574    2.4078    0.3787 C   0  0  0  0  0  0  0  0  0  0  0  0
   -3.4048    1.7750    0.5943 C   0  0  0  0  0  0  0  0  0  0  0  0
   -4.5452    2.3618    0.0241 C   0  0  0  0  0  0  0  0  0  0  0  0
   -5.5230    1.8801    0.1895 H   0  0  0  0  0  0  0  0  0  0  0  0
   -4.4734    3.5255   -0.7655 C   0  0  0  0  0  0  0  0  0  0  0  0
   -3.2081    4.0935   -0.9959 C   0  0  0  0  0  0  0  0  0  0  0  0
   -3.1240    4.9807   -1.6447 H   0  0  0  0  0  0  0  0  0  0  0  0
   -2.0351    3.5510   -0.4419 C   0  0  0  0  0  0  0  0  0  0  0  0
   -3.4775    0.4860    1.3674 C   0  0  0  0  0  0  0  0  0  0  0  0
   -2.9088   -0.3053    0.8308 H   0  0  0  0  0  0  0  0  0  0  0  0
   -4.5244    0.1463    1.4843 H   0  0  0  0  0  0  0  0  0  0  0  0
   -3.0243    0.5747    2.3761 H   0  0  0  0  0  0  0  0  0  0  0  0
   -0.6747    4.1124   -0.7676 C   0  0  0  0  0  0  0  0  0  0  0  0
   -0.1651    4.5431    0.1193 H   0  0  0  0  0  0  0  0  0  0  0  0
   -0.7468    4.9078   -1.5335 H   0  0  0  0  0  0  0  0  0  0  0  0
   -0.0132    3.3079   -1.1540 H   0  0  0  0  0  0  0  0  0  0  0  0
   -5.7228    4.1404   -1.3458 C   0  0  0  0  0  0  0  0  0  0  0  0
   -6.2879    4.7085   -0.5753 H   0  0  0  0  0  0  0  0  0  0  0  0
   -6.4106    3.3663   -1.7425 H   0  0  0  0  0  0  0  0  0  0  0  0
   -5.4878    4.8441   -2.1682 H   0  0  0  0  0  0  0  0  0  0  0  0
  1  2  1  0  0  0  0
  2  3  1  0  0  0  0
  2  4  2  0  0  0  0
  4 12  1  0  0  0  0
  5  6  1  0  0  0  0
  5  4  1  0  0  0  0
  6  8  2  0  0  0  0
  7  6  1  0  0  0  0
  8  9  1  0  0  0  0
  8 10  1  0  0  0  0
 10 11  1  0  0  0  0
 12 10  2  0  0  0  0
 12 13  1  0  0  0  0
 14 15  1  0  0  0  0
 14  1  1  0  0  0  0
 15 22  1  0  0  0  0
 16 17  1  0  0  0  0
 16 15  2  0  0  0  0
 18 16  1  0  0  0  0
 19 18  2  0  0  0  0
 19 21  1  0  0  0  0
 20 19  1  0  0  0  0
 21 14  2  0  0  0  0
 22 24  1  0  0  0  0
 22 25  1  0  0  0  0
 23 22  1  0  0  0  0
 26 21  1  0  0  0  0
 26 27  1  0  0  0  0
 28 26  1  0  0  0  0
 29 26  1  0  0  0  0
 30 18  1  0  0  0  0
 30 31  1  0  0  0  0
 32 30  1  0  0  0  0
 33 30  1  0  0  0  0
M  END
