1,19
 OpenBabel05122313053D

 28 29  0  0  0  0  0  0  0  0999 V2000
    1.1677   -0.8338   -0.3427 N   0  0  0  0  0  2  0  0  0  0  0  0
    0.0740   -2.4090    1.3266 O   0  0  0  0  0  0  0  0  0  0  0  0
    2.4951   -2.8610    0.5725 O   0  0  0  0  0  0  0  0  0  0  0  0
    1.3952   -1.9210    0.8733 S   0  0  0  0  0  0  0  0  0  0  0  0
    2.0529   -0.8991    2.3334 C   0  0  0  0  0  0  0  0  0  0  0  0
    2.4702   -1.7245    3.3035 F   0  0  0  0  0  0  0  0  0  0  0  0
    3.0842   -0.1417    1.9282 F   0  0  0  0  0  0  0  0  0  0  0  0
    1.0897   -0.1043    2.8236 F   0  0  0  0  0  0  0  0  0  0  0  0
    2.2438   -0.4030   -1.1555 C   0  0  0  0  0  0  0  0  0  0  0  0
    2.9496   -1.3287   -1.9542 C   0  0  0  0  0  0  0  0  0  0  0  0
    2.7035   -2.3942   -1.8552 H   0  0  0  0  0  0  0  0  0  0  0  0
    3.9491   -0.8978   -2.8338 C   0  0  0  0  0  0  0  0  0  0  0  0
    4.4867   -1.6342   -3.4503 H   0  0  0  0  0  0  0  0  0  0  0  0
    4.2415    0.4711   -2.9437 C   0  0  0  0  0  0  0  0  0  0  0  0
    5.0022    0.8232   -3.6565 H   0  0  0  0  0  0  0  0  0  0  0  0
    3.5555    1.3918   -2.1424 C   0  0  0  0  0  3  0  0  0  0  0  0
    3.7829    2.4642   -2.2363 H   0  0  0  0  0  0  0  0  0  0  0  0
    2.5669    0.9848   -1.2195 C   0  0  0  0  0  0  0  0  0  0  0  0
    0.6174    1.7788    0.2203 C   0  0  0  0  0  2  0  0  0  0  0  0
    0.1236    2.6829    1.1841 C   0  0  0  0  0  0  0  0  0  0  0  0
   -0.8787    2.5306    1.6142 H   0  0  0  0  0  0  0  0  0  0  0  0
    0.8870    3.7783    1.6180 C   0  0  0  0  0  0  0  0  0  0  0  0
    0.4792    4.4698    2.3719 H   0  0  0  0  0  0  0  0  0  0  0  0
    2.1733    3.9732    1.0936 C   0  0  0  0  0  0  0  0  0  0  0  0
    2.7913    4.8190    1.4312 H   0  0  0  0  0  0  0  0  0  0  0  0
    2.6863    3.0649    0.1609 C   0  0  0  0  0  0  0  0  0  0  0  0
    3.7189    3.1906   -0.1980 H   0  0  0  0  0  0  0  0  0  0  0  0
    1.9330    1.9521   -0.2911 C   0  0  0  0  0  0  0  0  0  0  0  0
  1  4  1  0  0  0  0
  3  4  2  0  0  0  0
  4  2  2  0  0  0  0
  4  5  1  0  0  0  0
  5  8  1  0  0  0  0
  5  6  1  0  0  0  0
  7  5  1  0  0  0  0
  9  1  1  0  0  0  0
 10 11  1  0  0  0  0
 10  9  2  0  0  0  0
 12 10  1  0  0  0  0
 13 12  1  0  0  0  0
 14 12  2  0  0  0  0
 14 16  1  0  0  0  0
 15 14  1  0  0  0  0
 16 18  1  0  0  0  0
 17 16  1  0  0  0  0
 18  9  1  0  0  0  0
 18 28  2  0  0  0  0
 19 20  1  0  0  0  0
 20 21  1  0  0  0  0
 20 22  2  0  0  0  0
 22 23  1  0  0  0  0
 24 25  1  0  0  0  0
 24 22  1  0  0  0  0
 26 24  2  0  0  0  0
 27 26  1  0  0  0  0
 28 26  1  0  0  0  0
 28 19  1  0  0  0  0
M  END
