1,24
 OpenBabel05122313053D

 30 32  0  0  1  0  0  0  0  0999 V2000
   -0.5680    1.1128    0.1294 C   0  0  0  0  0  3  0  0  0  0  0  0
   -1.9344    1.4554    0.1686 C   0  0  0  0  0  0  0  0  0  0  0  0
   -3.1200    0.6109   -0.0247 C   0  0  0  0  0  0  0  0  0  0  0  0
   -3.1379   -0.2544   -1.1426 C   0  0  0  0  0  0  0  0  0  0  0  0
   -2.2766   -0.2609   -1.8303 H   0  0  0  0  0  0  0  0  0  0  0  0
   -4.2485   -1.0803   -1.3640 C   0  0  0  0  0  0  0  0  0  0  0  0
   -4.2653   -1.7447   -2.2409 H   0  0  0  0  0  0  0  0  0  0  0  0
   -5.3382   -1.0567   -0.4775 C   0  0  0  0  0  0  0  0  0  0  0  0
   -6.2074   -1.7073   -0.6556 H   0  0  0  0  0  0  0  0  0  0  0  0
   -5.3217   -0.1993    0.6352 C   0  0  0  0  0  0  0  0  0  0  0  0
   -6.1716   -0.1843    1.3333 H   0  0  0  0  0  0  0  0  0  0  0  0
   -4.2184    0.6345    0.8630 C   0  0  0  0  0  0  0  0  0  0  0  0
   -4.1984    1.2843    1.7509 H   0  0  0  0  0  0  0  0  0  0  0  0
    0.0397    2.3601    0.1981 N   0  0  0  0  0  0  0  0  0  0  0  0
    1.4266    2.4609    0.0217 C   0  0  2  0  0  3  0  0  0  0  0  0
    2.1337    3.6647   -0.0337 C   0  0  0  0  0  0  0  0  0  0  0  0
    1.6010    4.6154    0.1011 H   0  0  0  0  0  0  0  0  0  0  0  0
    3.5089    3.5919   -0.2821 C   0  0  0  0  0  0  0  0  0  0  0  0
    4.1096    4.5113   -0.3351 H   0  0  0  0  0  0  0  0  0  0  0  0
    4.1040    2.3341   -0.4832 C   0  0  0  0  0  0  0  0  0  0  0  0
    5.1761    2.2399   -0.7041 H   0  0  0  0  0  0  0  0  0  0  0  0
    3.3151    1.1836   -0.4131 C   0  0  0  0  0  0  0  0  0  0  0  0
    3.7285    0.1816   -0.5858 H   0  0  0  0  0  0  0  0  0  0  0  0
    1.9921    1.2384   -0.1370 N   0  0  0  0  0  2  0  0  0  0  0  0
   -0.7829    3.4053    0.2981 N   0  0  0  0  0  2  0  0  0  0  0  0
   -1.9749    2.8348    0.2796 N   0  0  0  0  0  0  0  0  0  0  0  0
   -3.1539    3.6904    0.3438 C   0  0  0  0  0  0  0  0  0  0  0  0
   -3.9494    3.2435   -0.2791 H   0  0  0  0  0  0  0  0  0  0  0  0
   -2.8736    4.6868   -0.0390 H   0  0  0  0  0  0  0  0  0  0  0  0
   -3.5101    3.7783    1.3881 H   0  0  0  0  0  0  0  0  0  0  0  0
  1  2  2  0  0  0  0
  1 14  1  0  0  0  0
  2 26  1  0  0  0  0
  3  2  1  0  0  0  0
  3 12  1  0  0  0  0
  4  3  2  0  0  0  0
  5  4  1  0  0  0  0
  6  4  1  0  0  0  0
  6  8  2  0  0  0  0
  7  6  1  0  0  0  0
  8 10  1  0  0  0  0
  9  8  1  0  0  0  0
 10 12  2  0  0  0  0
 10 11  1  0  0  0  0
 12 13  1  0  0  0  0
 14 25  1  0  0  0  0
 15 14  1  6  0  0  0
 16 15  1  0  0  0  0
 16 17  1  0  0  0  0
 18 16  2  0  0  0  0
 19 18  1  0  0  0  0
 20 22  2  0  0  0  0
 20 18  1  0  0  0  0
 21 20  1  0  0  0  0
 22 24  1  0  0  0  0
 23 22  1  0  0  0  0
 24 15  1  0  0  0  0
 26 25  1  0  0  0  0
 26 27  1  0  0  0  0
 27 30  1  0  0  0  0
 28 27  1  0  0  0  0
 29 27  1  0  0  0  0
M  END
