5,6
 OpenBabel05122313053D

 29 31  0  0  1  0  0  0  0  0999 V2000
   -0.0097    2.3474    0.1663 N   0  0  0  0  0  0  0  0  0  0  0  0
   -0.8529    3.3701    0.3201 N   0  0  0  0  0  2  0  0  0  0  0  0
   -2.0329    2.7802    0.2972 N   0  0  0  0  0  0  0  0  0  0  0  0
   -4.2064    0.7413    0.7149 N   0  0  0  0  0  0  0  0  0  0  0  0
    1.9567    1.2652   -0.2075 N   0  0  0  0  0  2  0  0  0  0  0  0
   -0.5955    1.0915    0.0636 C   0  0  0  0  0  3  0  0  0  0  0  0
   -1.9644    1.4112    0.1179 C   0  0  0  0  0  0  0  0  0  0  0  0
   -3.1378    0.5445   -0.0845 C   0  0  0  0  0  0  0  0  0  0  0  0
   -3.0898   -0.4329   -1.1008 C   0  0  0  0  0  0  0  0  0  0  0  0
   -2.1957   -0.5181   -1.7398 H   0  0  0  0  0  0  0  0  0  0  0  0
   -4.2120   -1.2556   -1.2698 C   0  0  0  0  0  0  0  0  0  0  0  0
   -4.2233   -2.0244   -2.0572 H   0  0  0  0  0  0  0  0  0  0  0  0
   -5.3200   -1.0749   -0.4289 C   0  0  0  0  0  0  0  0  0  0  0  0
   -6.2196   -1.6998   -0.5278 H   0  0  0  0  0  0  0  0  0  0  0  0
   -5.2695   -0.0575    0.5408 C   0  0  0  0  0  0  0  0  0  0  0  0
   -6.1304    0.1217    1.2076 H   0  0  0  0  0  0  0  0  0  0  0  0
    1.3738    2.4758   -0.0196 C   0  0  1  0  0  3  0  0  0  0  0  0
    2.0618    3.6908   -0.0623 C   0  0  0  0  0  0  0  0  0  0  0  0
    1.5175    4.6310    0.0979 H   0  0  0  0  0  0  0  0  0  0  0  0
    3.4343    3.6430   -0.3332 C   0  0  0  0  0  0  0  0  0  0  0  0
    4.0203    4.5723   -0.3773 H   0  0  0  0  0  0  0  0  0  0  0  0
    4.0449    2.3990   -0.5697 C   0  0  0  0  0  0  0  0  0  0  0  0
    5.1141    2.3261   -0.8116 H   0  0  0  0  0  0  0  0  0  0  0  0
    3.2751    1.2348   -0.5079 C   0  0  0  0  0  0  0  0  0  0  0  0
    3.6994    0.2421   -0.7065 H   0  0  0  0  0  0  0  0  0  0  0  0
   -3.2339    3.6041    0.4059 C   0  0  0  0  0  0  0  0  0  0  0  0
   -3.9385    3.0975    1.0886 H   0  0  0  0  0  0  0  0  0  0  0  0
   -3.7021    3.6996   -0.5933 H   0  0  0  0  0  0  0  0  0  0  0  0
   -2.9301    4.5966    0.7791 H   0  0  0  0  0  0  0  0  0  0  0  0
  1  2  1  0  0  0  0
  3  2  1  0  0  0  0
  3 26  1  0  0  0  0
  5 17  1  0  0  0  0
  6  7  2  0  0  0  0
  6  1  1  0  0  0  0
  7  3  1  0  0  0  0
  8  7  1  0  0  0  0
  8  4  2  0  0  0  0
  9  8  1  0  0  0  0
 10  9  1  0  0  0  0
 11  9  2  0  0  0  0
 11 13  1  0  0  0  0
 12 11  1  0  0  0  0
 13 15  2  0  0  0  0
 14 13  1  0  0  0  0
 15  4  1  0  0  0  0
 15 16  1  0  0  0  0
 17  1  1  6  0  0  0
 18 17  1  0  0  0  0
 18 19  1  0  0  0  0
 20 18  2  0  0  0  0
 21 20  1  0  0  0  0
 22 24  2  0  0  0  0
 22 20  1  0  0  0  0
 23 22  1  0  0  0  0
 24  5  1  0  0  0  0
 25 24  1  0  0  0  0
 26 29  1  0  0  0  0
 26 27  1  0  0  0  0
 28 26  1  0  0  0  0
M  END
