3,14
 OpenBabel05122313053D

 55 57  0  0  0  0  0  0  0  0999 V2000
   -2.0085    1.4389   -3.0132 O   0  0  0  0  0  0  0  0  0  0  0  0
   -3.4308    2.0583   -1.3549 O   0  0  0  0  0  0  0  0  0  0  0  0
    0.0384   -1.3542   -0.2702 N   0  0  0  0  0  2  0  0  0  0  0  0
    2.7422   -0.8492    2.0946 O   0  0  0  0  0  0  0  0  0  0  0  0
    2.9034    1.3992    2.3520 O   0  0  0  0  0  0  0  0  0  0  0  0
    1.3487    2.9483   -2.1358 O   0  0  0  0  0  0  0  0  0  0  0  0
   -0.7076    3.9041   -1.9534 O   0  0  0  0  0  0  0  0  0  0  0  0
    2.1059    3.7681    0.5347 O   0  0  0  0  0  0  0  0  0  0  0  0
    0.6281    3.1561    2.1478 O   0  0  0  0  0  0  0  0  0  0  0  0
    2.2439   -1.5132   -0.6434 N   0  0  0  0  0  0  0  0  0  0  0  0
    4.5186   -2.0586   -0.5241 N   0  0  0  0  0  0  0  0  0  0  0  0
   -2.3638    1.5873   -1.7218 C   0  0  0  0  0  0  0  0  0  0  0  0
    1.2139   -0.7400   -0.1233 C   0  0  0  0  0  0  0  0  0  0  0  0
   -1.2952    1.1148   -0.7849 C   0  0  0  0  0  2  0  0  0  0  0  0
    0.8899    1.6884    0.3079 C   0  0  0  0  0  0  0  0  0  0  0  0
    3.6026   -1.1100   -0.7488 C   0  0  0  0  0  0  0  0  0  0  0  0
    0.0793    3.0312   -1.6419 C   0  0  0  0  0  0  0  0  0  0  0  0
   -0.1521    1.8746   -0.7060 C   0  0  0  0  0  0  0  0  0  0  0  0
    1.6889   -2.7213   -1.0730 C   0  0  0  0  0  0  0  0  0  0  0  0
   -0.5811   -3.6585   -1.1618 C   0  0  0  0  0  0  0  0  0  0  0  0
   -1.6620   -3.5392   -1.0143 H   0  0  0  0  0  0  0  0  0  0  0  0
    1.4748    0.4935    0.6310 C   0  0  0  0  0  0  0  0  0  0  0  0
    2.4396    0.4342    1.7645 C   0  0  0  0  0  0  0  0  0  0  0  0
    0.2903   -2.6003   -0.8449 C   0  0  0  0  0  0  0  0  0  0  0  0
    3.9167    0.2236   -1.0894 C   0  0  0  0  0  0  0  0  0  0  0  0
    3.1326    0.9539   -1.3334 H   0  0  0  0  0  0  0  0  0  0  0  0
    2.2573   -3.8758   -1.6341 C   0  0  0  0  0  0  0  0  0  0  0  0
    3.3412   -3.9559   -1.7792 H   0  0  0  0  0  0  0  0  0  0  0  0
   -0.0154   -4.8126   -1.7119 C   0  0  0  0  0  0  0  0  0  0  0  0
   -0.6691   -5.6579   -1.9737 H   0  0  0  0  0  0  0  0  0  0  0  0
    5.8115   -1.7057   -0.5880 C   0  0  0  0  0  0  0  0  0  0  0  0
    6.5442   -2.5129   -0.4123 H   0  0  0  0  0  0  0  0  0  0  0  0
    1.3247    2.9657    1.0038 C   0  0  0  0  0  0  0  0  0  0  0  0
    6.2435   -0.3968   -0.8519 C   0  0  0  0  0  0  0  0  0  0  0  0
    7.3162   -0.1556   -0.8685 H   0  0  0  0  0  0  0  0  0  0  0  0
    1.3770   -4.9178   -1.9483 C   0  0  0  0  0  0  0  0  0  0  0  0
    1.7811   -5.8454   -2.3809 H   0  0  0  0  0  0  0  0  0  0  0  0
    5.2702    0.5793   -1.1164 C   0  0  0  0  0  0  0  0  0  0  0  0
    5.5571    1.6134   -1.3589 H   0  0  0  0  0  0  0  0  0  0  0  0
    3.7215   -1.0083    3.1268 C   0  0  0  0  0  0  0  0  0  0  0  0
    4.6602   -0.4847    2.8564 H   0  0  0  0  0  0  0  0  0  0  0  0
    3.8959   -2.0949    3.2132 H   0  0  0  0  0  0  0  0  0  0  0  0
    3.3517   -0.5929    4.0858 H   0  0  0  0  0  0  0  0  0  0  0  0
   -3.0133    1.8049   -3.9640 C   0  0  0  0  0  0  0  0  0  0  0  0
   -3.9177    1.1795   -3.8229 H   0  0  0  0  0  0  0  0  0  0  0  0
   -2.5721    1.6218   -4.9599 H   0  0  0  0  0  0  0  0  0  0  0  0
   -3.2881    2.8727   -3.8490 H   0  0  0  0  0  0  0  0  0  0  0  0
    1.0076    4.3129    2.9087 C   0  0  0  0  0  0  0  0  0  0  0  0
    2.0448    4.1904    3.2793 H   0  0  0  0  0  0  0  0  0  0  0  0
    0.2975    4.3686    3.7523 H   0  0  0  0  0  0  0  0  0  0  0  0
    0.9508    5.2274    2.2866 H   0  0  0  0  0  0  0  0  0  0  0  0
    1.7807    4.0630   -2.9213 C   0  0  0  0  0  0  0  0  0  0  0  0
    1.0328    4.3126   -3.6993 H   0  0  0  0  0  0  0  0  0  0  0  0
    2.7396    3.7648   -3.3817 H   0  0  0  0  0  0  0  0  0  0  0  0
    1.9324    4.9472   -2.2689 H   0  0  0  0  0  0  0  0  0  0  0  0
  1 12  1  0  0  0  0
  3 13  1  0  0  0  0
  4 40  1  0  0  0  0
  6 17  1  0  0  0  0
  7 17  2  0  0  0  0
  8 33  2  0  0  0  0
  9 48  1  0  0  0  0
 10 13  1  0  0  0  0
 12  2  2  0  0  0  0
 12 14  1  0  0  0  0
 13 22  2  0  0  0  0
 14 18  1  0  0  0  0
 15 22  1  0  0  0  0
 15 33  1  0  0  0  0
 16 10  1  0  0  0  0
 16 11  2  0  0  0  0
 17 18  1  0  0  0  0
 18 15  2  0  0  0  0
 19 24  1  0  0  0  0
 19 10  1  0  0  0  0
 20 21  1  0  0  0  0
 20 24  2  0  0  0  0
 22 23  1  0  0  0  0
 23  4  1  0  0  0  0
 23  5  2  0  0  0  0
 24  3  1  0  0  0  0
 25 16  1  0  0  0  0
 26 25  1  0  0  0  0
 27 19  2  0  0  0  0
 28 27  1  0  0  0  0
 29 20  1  0  0  0  0
 30 29  1  0  0  0  0
 31 11  1  0  0  0  0
 31 32  1  0  0  0  0
 33  9  1  0  0  0  0
 34 31  2  0  0  0  0
 35 34  1  0  0  0  0
 36 29  2  0  0  0  0
 36 27  1  0  0  0  0
 37 36  1  0  0  0  0
 38 25  2  0  0  0  0
 38 34  1  0  0  0  0
 39 38  1  0  0  0  0
 40 42  1  0  0  0  0
 40 43  1  0  0  0  0
 41 40  1  0  0  0  0
 44 47  1  0  0  0  0
 44 45  1  0  0  0  0
 44  1  1  0  0  0  0
 46 44  1  0  0  0  0
 48 49  1  0  0  0  0
 48 50  1  0  0  0  0
 51 48  1  0  0  0  0
 52 55  1  0  0  0  0
 52  6  1  0  0  0  0
 53 52  1  0  0  0  0
 54 52  1  0  0  0  0
M  END
