3,6
 OpenBabel05122313053D

 35 36  0  0  1  0  0  0  0  0999 V2000
    5.5224    1.5778   -0.2148 O   0  0  0  0  0  0  0  0  0  0  0  0
   -6.2682    0.8864    0.1873 O   0  0  0  0  0  0  0  0  0  0  0  0
   -0.6802    1.2878    0.0653 N   0  0  0  0  0  2  0  0  0  0  0  0
   -0.0057    2.4266    0.1141 C   0  0  1  0  0  3  0  0  0  0  0  0
    1.4293    2.2644    0.1007 C   0  0  0  0  0  0  0  0  0  0  0  0
    1.8705    0.9091   -0.0264 C   0  0  0  0  0  3  0  0  0  0  0  0
    3.2513    0.6686   -0.1598 C   0  0  0  0  0  0  0  0  0  0  0  0
    4.1743    1.7319   -0.1067 C   0  0  0  0  0  0  0  0  0  0  0  0
    6.0372    0.2769   -0.4238 C   0  0  0  0  0  0  0  0  0  0  0  0
    3.7281    3.0681    0.0625 C   0  0  0  0  0  0  0  0  0  0  0  0
    2.3655    3.3268    0.1488 C   0  0  0  0  0  0  0  0  0  0  0  0
   -0.6644    3.7755    0.1314 C   0  0  0  0  0  0  0  0  0  0  0  0
   -2.0969    1.2201    0.0708 C   0  0  0  0  0  0  0  0  0  0  0  0
   -2.8446    1.6174    1.2010 C   0  0  0  0  0  0  0  0  0  0  0  0
   -4.2372    1.4930    1.2095 C   0  0  0  0  0  0  0  0  0  0  0  0
   -4.9123    0.9692    0.0863 C   0  0  0  0  0  0  0  0  0  0  0  0
   -6.9912    0.3613   -0.9089 C   0  0  0  0  0  0  0  0  0  0  0  0
   -4.1663    0.5683   -1.0441 C   0  0  0  0  0  0  0  0  0  0  0  0
   -2.7702    0.6876   -1.0447 C   0  0  0  0  0  0  0  0  0  0  0  0
    5.7890   -0.4079    0.4187 H   0  0  0  0  0  0  0  0  0  0  0  0
    7.1362    0.3813   -0.4899 H   0  0  0  0  0  0  0  0  0  0  0  0
    5.6569   -0.1733   -1.3678 H   0  0  0  0  0  0  0  0  0  0  0  0
    2.0199    4.3673    0.2496 H   0  0  0  0  0  0  0  0  0  0  0  0
    4.4778    3.8707    0.0990 H   0  0  0  0  0  0  0  0  0  0  0  0
    3.6016   -0.3567   -0.3333 H   0  0  0  0  0  0  0  0  0  0  0  0
   -1.7397    3.7134   -0.1137 H   0  0  0  0  0  0  0  0  0  0  0  0
   -0.1697    4.4475   -0.5974 H   0  0  0  0  0  0  0  0  0  0  0  0
   -0.5643    4.2520    1.1294 H   0  0  0  0  0  0  0  0  0  0  0  0
   -6.8545    0.9724   -1.8295 H   0  0  0  0  0  0  0  0  0  0  0  0
   -8.0584    0.3822   -0.6201 H   0  0  0  0  0  0  0  0  0  0  0  0
   -6.6991   -0.6892   -1.1354 H   0  0  0  0  0  0  0  0  0  0  0  0
   -2.1661    0.3678   -1.9088 H   0  0  0  0  0  0  0  0  0  0  0  0
   -4.6645    0.1579   -1.9327 H   0  0  0  0  0  0  0  0  0  0  0  0
   -4.8325    1.7928    2.0840 H   0  0  0  0  0  0  0  0  0  0  0  0
   -2.3197    2.0175    2.0813 H   0  0  0  0  0  0  0  0  0  0  0  0
  1  8  1  0  0  0  0
  3 13  1  0  0  0  0
  4  3  1  6  0  0  0
  4 12  1  0  0  0  0
  5  4  1  0  0  0  0
  5 11  1  0  0  0  0
  6  5  2  0  0  0  0
  7  8  2  0  0  0  0
  7  6  1  0  0  0  0
  8 10  1  0  0  0  0
  9  1  1  0  0  0  0
  9 20  1  0  0  0  0
 10 24  1  0  0  0  0
 10 11  2  0  0  0  0
 11 23  1  0  0  0  0
 12 28  1  0  0  0  0
 13 14  1  0  0  0  0
 14 15  2  0  0  0  0
 14 35  1  0  0  0  0
 15 34  1  0  0  0  0
 16  2  1  0  0  0  0
 16 15  1  0  0  0  0
 17 30  1  0  0  0  0
 17  2  1  0  0  0  0
 18 16  2  0  0  0  0
 19 18  1  0  0  0  0
 19 13  2  0  0  0  0
 21  9  1  0  0  0  0
 22  9  1  0  0  0  0
 25  7  1  0  0  0  0
 26 12  1  0  0  0  0
 27 12  1  0  0  0  0
 29 17  1  0  0  0  0
 31 17  1  0  0  0  0
 32 19  1  0  0  0  0
 33 18  1  0  0  0  0
M  END
