1,3
 OpenBabel05122313053D

 36 38  0  0  1  0  0  0  0  0999 V2000
   -0.9679   -0.0754   -0.2015 N   0  0  0  0  0  2  0  0  0  0  0  0
   -2.9336    0.9884   -0.3514 N   0  0  0  0  0  0  0  0  0  0  0  0
    0.7000    1.8618   -0.4208 C   0  0  0  0  0  3  0  0  0  0  0  0
    1.6583    2.8613   -0.6908 C   0  0  0  0  0  0  0  0  0  0  0  0
    2.7118    2.5739   -0.8219 H   0  0  0  0  0  0  0  0  0  0  0  0
    1.2976    4.2105   -0.8163 C   0  0  0  0  0  0  0  0  0  0  0  0
    2.0740    4.9651   -1.0198 H   0  0  0  0  0  0  0  0  0  0  0  0
   -0.0468    4.6075   -0.6911 C   0  0  0  0  0  0  0  0  0  0  0  0
   -0.3254    5.6682   -0.7774 H   0  0  0  0  0  0  0  0  0  0  0  0
   -1.0348    3.6407   -0.4809 C   0  0  0  0  0  0  0  0  0  0  0  0
   -2.0832    3.9603   -0.4108 H   0  0  0  0  0  0  0  0  0  0  0  0
   -0.6765    2.2769   -0.3675 C   0  0  0  0  0  0  0  0  0  0  0  0
   -1.5620    1.1351   -0.2732 C   0  0  2  0  0  3  0  0  0  0  0  0
   -1.9497   -1.0406   -0.2869 C   0  0  0  0  0  0  0  0  0  0  0  0
   -1.8676   -2.4407   -0.3577 C   0  0  0  0  0  0  0  0  0  0  0  0
   -0.8831   -2.9251   -0.3804 H   0  0  0  0  0  0  0  0  0  0  0  0
   -3.0555   -3.1829   -0.4443 C   0  0  0  0  0  0  0  0  0  0  0  0
   -4.3057   -2.5036   -0.4633 C   0  0  0  0  0  0  0  0  0  0  0  0
   -5.2299   -3.0993   -0.5246 H   0  0  0  0  0  0  0  0  0  0  0  0
   -4.4053   -1.1073   -0.4261 C   0  0  0  0  0  0  0  0  0  0  0  0
   -5.3864   -0.6124   -0.4609 H   0  0  0  0  0  0  0  0  0  0  0  0
   -3.2079   -0.3794   -0.3508 C   0  0  0  0  0  0  0  0  0  0  0  0
   -3.0201   -4.6890   -0.5377 C   0  0  0  0  0  0  0  0  0  0  0  0
   -1.9884   -5.0781   -0.4398 H   0  0  0  0  0  0  0  0  0  0  0  0
   -3.4217   -5.0426   -1.5108 H   0  0  0  0  0  0  0  0  0  0  0  0
   -3.6388   -5.1597    0.2547 H   0  0  0  0  0  0  0  0  0  0  0  0
   -3.9391    2.0422   -0.3832 C   0  0  0  0  0  0  0  0  0  0  0  0
   -4.8650    1.5904   -0.7923 H   0  0  0  0  0  0  0  0  0  0  0  0
   -3.6173    2.8103   -1.1140 H   0  0  0  0  0  0  0  0  0  0  0  0
   -4.2127    2.6686    0.9906 C   0  0  0  0  0  0  0  0  0  0  0  0
   -3.2798    3.1472    1.3582 H   0  0  0  0  0  0  0  0  0  0  0  0
   -4.9430    3.4930    0.8416 H   0  0  0  0  0  0  0  0  0  0  0  0
   -4.7335    1.6761    2.0297 C   0  0  0  0  0  0  0  0  0  0  0  0
   -5.6898    1.2134    1.7088 H   0  0  0  0  0  0  0  0  0  0  0  0
   -4.9116    2.1744    3.0030 H   0  0  0  0  0  0  0  0  0  0  0  0
   -4.0093    0.8541    2.2025 H   0  0  0  0  0  0  0  0  0  0  0  0
  2 22  1  0  0  0  0
  2 13  1  0  0  0  0
  3 12  1  0  0  0  0
  4  3  2  0  0  0  0
  5  4  1  0  0  0  0
  6  8  2  0  0  0  0
  6  4  1  0  0  0  0
  7  6  1  0  0  0  0
  8 10  1  0  0  0  0
  9  8  1  0  0  0  0
 10 11  1  0  0  0  0
 10 12  2  0  0  0  0
 13 12  1  6  0  0  0
 13  1  1  0  0  0  0
 14  1  1  0  0  0  0
 15 14  2  0  0  0  0
 16 15  1  0  0  0  0
 17 15  1  0  0  0  0
 18 17  2  0  0  0  0
 18 20  1  0  0  0  0
 19 18  1  0  0  0  0
 20 22  2  0  0  0  0
 21 20  1  0  0  0  0
 22 14  1  0  0  0  0
 23 17  1  0  0  0  0
 23 24  1  0  0  0  0
 23 26  1  0  0  0  0
 25 23  1  0  0  0  0
 27  2  1  0  0  0  0
 27 30  1  0  0  0  0
 28 27  1  0  0  0  0
 29 27  1  0  0  0  0
 30 31  1  0  0  0  0
 30 33  1  0  0  0  0
 32 30  1  0  0  0  0
 33 36  1  0  0  0  0
 33 35  1  0  0  0  0
 34 33  1  0  0  0  0
M  END
