6,27
 OpenBabel05122313053D

 62 65  0  0  0  0  0  0  0  0999 V2000
   -0.5287    1.6487   -1.1480 N   0  0  0  0  0  0  0  0  0  0  0  0
    1.4218    0.6447   -0.9484 N   0  0  0  0  0  0  0  0  0  0  0  0
   -3.2269   -2.9266   -1.3133 O   0  0  0  0  0  0  0  0  0  0  0  0
   -1.8221    2.0951   -0.7980 C   0  0  0  0  0  0  0  0  0  0  0  0
   -2.8085    1.1887   -0.3050 C   0  0  0  0  0  0  0  0  0  0  0  0
   -2.5537   -0.2474   -0.3364 N   0  0  0  0  0  0  0  0  0  0  0  0
   -4.0298    1.7147    0.1502 C   0  0  0  0  0  0  0  0  0  0  0  0
   -4.7867    1.0440    0.5708 H   0  0  0  0  0  0  0  0  0  0  0  0
   -4.3090    3.0876    0.0750 C   0  0  0  0  0  0  0  0  0  0  0  0
   -5.2743    3.4635    0.4437 H   0  0  0  0  0  0  0  0  0  0  0  0
   -3.3704    3.9611   -0.4824 C   0  0  0  0  0  0  0  0  0  0  0  0
   -3.5835    5.0366   -0.5667 H   0  0  0  0  0  0  0  0  0  0  0  0
   -2.1329    3.4627   -0.9105 C   0  0  0  0  0  0  0  0  0  0  0  0
   -1.3794    4.1577   -1.3042 H   0  0  0  0  0  0  0  0  0  0  0  0
   -3.6758   -1.0705    0.2108 C   0  0  0  0  0  0  0  0  0  0  0  0
   -4.6012   -0.8129   -0.3503 H   0  0  0  0  0  0  0  0  0  0  0  0
   -3.7834   -0.8399    1.2874 H   0  0  0  0  0  0  0  0  0  0  0  0
   -3.4025   -2.5622    0.0497 C   0  0  0  0  0  0  0  0  0  0  0  0
   -2.5154   -2.8372    0.6644 H   0  0  0  0  0  0  0  0  0  0  0  0
   -4.2763   -3.1247    0.4327 H   0  0  0  0  0  0  0  0  0  0  0  0
   -2.3510   -0.7014   -1.7576 C   0  0  0  0  0  0  0  0  0  0  0  0
   -3.2653   -0.4247   -2.3283 H   0  0  0  0  0  0  0  0  0  0  0  0
   -1.4917   -0.1690   -2.2000 H   0  0  0  0  0  0  0  0  0  0  0  0
   -2.1338   -2.2067   -1.8359 C   0  0  0  0  0  0  0  0  0  0  0  0
   -2.0105   -2.5002   -2.8984 H   0  0  0  0  0  0  0  0  0  0  0  0
   -1.1977   -2.4639   -1.2889 H   0  0  0  0  0  0  0  0  0  0  0  0
    0.1684    0.6859   -0.4476 C   0  0  0  0  0  2  0  0  0  0  0  0
    1.5509    1.4828   -2.1590 C   0  0  0  0  0  0  0  0  0  0  0  0
    1.4855    0.8313   -3.0592 H   0  0  0  0  0  0  0  0  0  0  0  0
    2.5259    2.0016   -2.1792 H   0  0  0  0  0  0  0  0  0  0  0  0
    0.3589    2.4270   -2.0274 C   0  0  0  0  0  0  0  0  0  0  0  0
    0.6476    3.3840   -1.5381 H   0  0  0  0  0  0  0  0  0  0  0  0
   -0.1373    2.6582   -2.9894 H   0  0  0  0  0  0  0  0  0  0  0  0
    2.5759   -0.0865   -0.4954 C   0  0  0  0  0  0  0  0  0  0  0  0
    3.6267    0.6607    0.1002 C   0  0  0  0  0  0  0  0  0  0  0  0
    4.8053   -0.0218    0.4433 C   0  0  0  0  0  0  0  0  0  0  0  0
    5.6290    0.5334    0.9172 H   0  0  0  0  0  0  0  0  0  0  0  0
    4.9389   -1.3968    0.2163 C   0  0  0  0  0  0  0  0  0  0  0  0
    5.8687   -1.9143    0.4971 H   0  0  0  0  0  0  0  0  0  0  0  0
    3.8828   -2.1136   -0.3529 C   0  0  0  0  0  0  0  0  0  0  0  0
    3.9858   -3.1975   -0.5131 H   0  0  0  0  0  0  0  0  0  0  0  0
    2.6821   -1.4781   -0.7228 C   0  0  0  0  0  0  0  0  0  0  0  0
    3.5012    2.1462    0.4206 C   0  0  0  0  0  0  0  0  0  0  0  0
    2.4788    2.4686    0.1358 H   0  0  0  0  0  0  0  0  0  0  0  0
    3.6281    2.4069    1.9318 C   0  0  0  0  0  0  0  0  0  0  0  0
    2.8708    1.8193    2.4859 H   0  0  0  0  0  0  0  0  0  0  0  0
    3.4749    3.4837    2.1510 H   0  0  0  0  0  0  0  0  0  0  0  0
    4.6342    2.1288    2.3075 H   0  0  0  0  0  0  0  0  0  0  0  0
    4.5122    2.9881   -0.3781 C   0  0  0  0  0  0  0  0  0  0  0  0
    5.5544    2.7341   -0.0949 H   0  0  0  0  0  0  0  0  0  0  0  0
    4.3683    4.0699   -0.1791 H   0  0  0  0  0  0  0  0  0  0  0  0
    4.4260    2.8249   -1.4729 H   0  0  0  0  0  0  0  0  0  0  0  0
    1.5538   -2.3050   -1.3174 C   0  0  0  0  0  0  0  0  0  0  0  0
    0.6999   -1.6191   -1.4907 H   0  0  0  0  0  0  0  0  0  0  0  0
    1.9423   -2.9138   -2.6749 C   0  0  0  0  0  0  0  0  0  0  0  0
    2.2630   -2.1337   -3.3956 H   0  0  0  0  0  0  0  0  0  0  0  0
    1.0844   -3.4616   -3.1170 H   0  0  0  0  0  0  0  0  0  0  0  0
    2.7790   -3.6352   -2.5716 H   0  0  0  0  0  0  0  0  0  0  0  0
    1.0808   -3.3775   -0.3202 C   0  0  0  0  0  0  0  0  0  0  0  0
    1.8952   -4.0910   -0.0808 H   0  0  0  0  0  0  0  0  0  0  0  0
    0.2412   -3.9680   -0.7416 H   0  0  0  0  0  0  0  0  0  0  0  0
    0.7418   -2.9121    0.6272 H   0  0  0  0  0  0  0  0  0  0  0  0
  1  4  1  0  0  0  0
  1 27  1  0  0  0  0
  2 34  1  0  0  0  0
  2 27  1  0  0  0  0
  3 18  1  0  0  0  0
  4  5  1  0  0  0  0
  5  7  2  0  0  0  0
  6  5  1  0  0  0  0
  6 15  1  0  0  0  0
  7  8  1  0  0  0  0
  9  7  1  0  0  0  0
  9 10  1  0  0  0  0
 11  9  2  0  0  0  0
 12 11  1  0  0  0  0
 13  4  2  0  0  0  0
 13 11  1  0  0  0  0
 14 13  1  0  0  0  0
 15 17  1  0  0  0  0
 16 15  1  0  0  0  0
 18 15  1  0  0  0  0
 18 20  1  0  0  0  0
 18 19  1  0  0  0  0
 21  6  1  0  0  0  0
 22 21  1  0  0  0  0
 23 21  1  0  0  0  0
 24 21  1  0  0  0  0
 24  3  1  0  0  0  0
 24 26  1  0  0  0  0
 25 24  1  0  0  0  0
 28 31  1  0  0  0  0
 28  2  1  0  0  0  0
 29 28  1  0  0  0  0
 30 28  1  0  0  0  0
 31 32  1  0  0  0  0
 31  1  1  0  0  0  0
 33 31  1  0  0  0  0
 34 35  1  0  0  0  0
 35 43  1  0  0  0  0
 35 36  2  0  0  0  0
 36 37  1  0  0  0  0
 38 36  1  0  0  0  0
 38 39  1  0  0  0  0
 40 38  2  0  0  0  0
 41 40  1  0  0  0  0
 42 34  2  0  0  0  0
 42 40  1  0  0  0  0
 43 45  1  0  0  0  0
 44 43  1  0  0  0  0
 45 47  1  0  0  0  0
 45 48  1  0  0  0  0
 45 46  1  0  0  0  0
 49 51  1  0  0  0  0
 49 50  1  0  0  0  0
 49 43  1  0  0  0  0
 52 49  1  0  0  0  0
 53 42  1  0  0  0  0
 53 59  1  0  0  0  0
 54 53  1  0  0  0  0
 55 58  1  0  0  0  0
 55 53  1  0  0  0  0
 56 55  1  0  0  0  0
 57 55  1  0  0  0  0
 59 60  1  0  0  0  0
 59 62  1  0  0  0  0
 61 59  1  0  0  0  0
M  END
