2,3
 OpenBabel05122313053D

 27 28  0  0  1  0  0  0  0  0999 V2000
    3.3831   -3.0165    0.0003 Cl  0  0  0  0  0  0  0  0  0  0  0  0
   -0.5696   -0.6415    0.0009 N   0  0  0  0  0  2  0  0  0  0  0  0
    1.6365    0.7117   -0.0000 C   0  0  0  0  0  3  0  0  0  0  0  0
    1.7654   -0.7178    0.0004 C   0  0  0  0  0  0  0  0  0  0  0  0
    3.0705   -1.2861    0.0004 C   0  0  0  0  0  0  0  0  0  0  0  0
    4.2131   -0.4752    0.0002 C   0  0  0  0  0  0  0  0  0  0  0  0
    4.0712    0.9184    0.0000 C   0  0  0  0  0  0  0  0  0  0  0  0
    2.7969    1.5037   -0.0002 C   0  0  0  0  0  0  0  0  0  0  0  0
    0.4817   -1.4316    0.0009 C   0  0  1  0  0  3  0  0  0  0  0  0
    0.3292   -2.9238    0.0019 C   0  0  0  0  0  0  0  0  0  0  0  0
   -1.9021   -1.1458    0.0006 C   0  0  0  0  0  0  0  0  0  0  0  0
   -2.5733   -1.3578    1.2199 C   0  0  0  0  0  0  0  0  0  0  0  0
   -3.9052   -1.7950    1.2141 C   0  0  0  0  0  0  0  0  0  0  0  0
   -4.5742   -2.0173   -0.0000 C   0  0  0  0  0  0  0  0  0  0  0  0
   -3.9030   -1.7999   -1.2139 C   0  0  0  0  0  0  0  0  0  0  0  0
   -2.5710   -1.3627   -1.2190 C   0  0  0  0  0  0  0  0  0  0  0  0
    5.2038   -0.9494    0.0002 H   0  0  0  0  0  0  0  0  0  0  0  0
    4.9717    1.5525   -0.0001 H   0  0  0  0  0  0  0  0  0  0  0  0
    2.7185    2.6009   -0.0004 H   0  0  0  0  0  0  0  0  0  0  0  0
    0.8319   -3.3631    0.8853 H   0  0  0  0  0  0  0  0  0  0  0  0
    0.8300   -3.3641   -0.8821 H   0  0  0  0  0  0  0  0  0  0  0  0
   -0.7358   -3.2150    0.0031 H   0  0  0  0  0  0  0  0  0  0  0  0
   -2.0437   -1.1667    2.1649 H   0  0  0  0  0  0  0  0  0  0  0  0
   -4.4255   -1.9590    2.1698 H   0  0  0  0  0  0  0  0  0  0  0  0
   -5.6212   -2.3544   -0.0003 H   0  0  0  0  0  0  0  0  0  0  0  0
   -4.4215   -1.9677   -2.1698 H   0  0  0  0  0  0  0  0  0  0  0  0
   -2.0397   -1.1754   -2.1637 H   0  0  0  0  0  0  0  0  0  0  0  0
  1  5  1  0  0  0  0
  3  4  1  0  0  0  0
  4  9  1  0  0  0  0
  5  4  2  0  0  0  0
  6 17  1  0  0  0  0
  6  5  1  0  0  0  0
  7  6  2  0  0  0  0
  8  3  2  0  0  0  0
  8  7  1  0  0  0  0
  9  2  1  1  0  0  0
  9 10  1  0  0  0  0
 10 22  1  0  0  0  0
 10 20  1  0  0  0  0
 11  2  1  0  0  0  0
 11 12  1  0  0  0  0
 12 23  1  0  0  0  0
 13 12  2  0  0  0  0
 13 24  1  0  0  0  0
 14 13  1  0  0  0  0
 15 14  2  0  0  0  0
 16 15  1  0  0  0  0
 16 11  2  0  0  0  0
 18  7  1  0  0  0  0
 19  8  1  0  0  0  0
 21 10  1  0  0  0  0
 25 14  1  0  0  0  0
 26 15  1  0  0  0  0
 27 16  1  0  0  0  0
M  END
