1,2
 OpenBabel05122313053D

 30 32  0  0  0  0  0  0  0  0999 V2000
   -1.3060   -0.9953   -0.0000 N   0  0  0  0  0  2  0  0  0  0  0  0
    1.3221   -1.0727    0.0001 C   0  0  0  0  0  2  0  0  0  0  0  0
    0.6673   -2.3352   -0.0002 C   0  0  0  0  0  0  0  0  0  0  0  0
   -0.7770   -2.2594   -0.0003 C   0  0  0  0  0  0  0  0  0  0  0  0
   -2.9788   -3.2896   -0.0006 C   0  0  0  0  0  0  0  0  0  0  0  0
   -3.6318   -4.1759   -0.0009 H   0  0  0  0  0  0  0  0  0  0  0  0
   -1.6102   -3.4147   -0.0006 C   0  0  0  0  0  0  0  0  0  0  0  0
   -1.1339   -4.4034   -0.0008 H   0  0  0  0  0  0  0  0  0  0  0  0
    2.8197   -3.4753   -0.0001 C   0  0  0  0  0  0  0  0  0  0  0  0
    3.4348   -4.3858   -0.0002 H   0  0  0  0  0  0  0  0  0  0  0  0
    1.4311   -3.5285   -0.0003 C   0  0  0  0  0  0  0  0  0  0  0  0
    0.9372   -4.5121   -0.0005 H   0  0  0  0  0  0  0  0  0  0  0  0
    2.7272   -1.0213    0.0003 C   0  0  0  0  0  0  0  0  0  0  0  0
    3.2148   -0.0383    0.0005 H   0  0  0  0  0  0  0  0  0  0  0  0
    4.8319   -2.2638    0.0004 O   0  0  0  0  0  0  0  0  0  0  0  0
    3.4734   -2.2158    0.0002 C   0  0  0  0  0  0  0  0  0  0  0  0
   -3.5610   -1.9917   -0.0002 C   0  0  0  0  0  0  0  0  0  0  0  0
   -2.6881   -0.8411    0.0001 C   0  0  0  0  0  0  0  0  0  0  0  0
   -3.2878    0.4465    0.0006 C   0  0  0  0  0  0  0  0  0  0  0  0
   -2.6454    1.3355    0.0009 H   0  0  0  0  0  0  0  0  0  0  0  0
   -4.6713    0.5857    0.0008 C   0  0  0  0  0  0  0  0  0  0  0  0
   -5.1034    1.5984    0.0012 H   0  0  0  0  0  0  0  0  0  0  0  0
    5.5481   -1.0421    0.0009 C   0  0  0  0  0  0  0  0  0  0  0  0
    6.6212   -1.3093    0.0012 H   0  0  0  0  0  0  0  0  0  0  0  0
    5.3241   -0.4315   -0.9019 H   0  0  0  0  0  0  0  0  0  0  0  0
    5.3236   -0.4319    0.9039 H   0  0  0  0  0  0  0  0  0  0  0  0
   -5.5282   -0.5411    0.0004 C   0  0  0  0  0  0  0  0  0  0  0  0
   -6.6205   -0.4102    0.0005 H   0  0  0  0  0  0  0  0  0  0  0  0
   -4.9710   -1.8112   -0.0001 C   0  0  0  0  0  0  0  0  0  0  0  0
   -5.6091   -2.7085   -0.0004 H   0  0  0  0  0  0  0  0  0  0  0  0
  1 18  1  0  0  0  0
  2 13  1  0  0  0  0
  3  2  1  0  0  0  0
  4  3  2  0  0  0  0
  4  1  1  0  0  0  0
  5  7  2  0  0  0  0
  5 17  1  0  0  0  0
  6  5  1  0  0  0  0
  7  4  1  0  0  0  0
  8  7  1  0  0  0  0
  9 16  1  0  0  0  0
 10  9  1  0  0  0  0
 11  3  1  0  0  0  0
 11  9  2  0  0  0  0
 12 11  1  0  0  0  0
 13 14  1  0  0  0  0
 15 23  1  0  0  0  0
 16 13  2  0  0  0  0
 16 15  1  0  0  0  0
 17 29  2  0  0  0  0
 17 18  1  0  0  0  0
 18 19  2  0  0  0  0
 19 21  1  0  0  0  0
 19 20  1  0  0  0  0
 21 22  1  0  0  0  0
 23 24  1  0  0  0  0
 23 26  1  0  0  0  0
 25 23  1  0  0  0  0
 27 28  1  0  0  0  0
 27 21  2  0  0  0  0
 29 27  1  0  0  0  0
 30 29  1  0  0  0  0
M  END
