2,4
 OpenBabel05122313053D

 25 26  0  0  0  0  0  0  0  0999 V2000
    0.2197    3.2651    0.0015 O   0  0  0  0  0  0  0  0  0  0  0  0
    0.7894    1.0983   -0.0032 N   0  0  0  0  0  2  0  0  0  0  0  0
   -1.5522    1.5597   -0.0003 C   0  0  0  0  0  0  0  0  0  0  0  0
   -1.7015    0.1463   -0.0006 C   0  0  0  0  0  2  0  0  0  0  0  0
   -2.9874   -0.4007   -0.0003 C   0  0  0  0  0  0  0  0  0  0  0  0
   -4.1028    0.4598    0.0003 C   0  0  0  0  0  0  0  0  0  0  0  0
   -3.9498    1.8581    0.0006 C   0  0  0  0  0  0  0  0  0  0  0  0
   -2.6674    2.4194    0.0003 C   0  0  0  0  0  0  0  0  0  0  0  0
   -0.1683    1.9932   -0.0009 C   0  0  0  0  0  0  0  0  0  0  0  0
    1.6809    3.2609   -0.0031 C   0  0  0  0  0  0  0  0  0  0  0  0
    2.1207    1.7558    0.0003 C   0  0  0  0  0  0  0  0  0  0  0  0
    2.8997    1.3801   -1.2653 C   0  0  0  0  0  0  0  0  0  0  0  0
    2.8903    1.3824    1.2726 C   0  0  0  0  0  0  0  0  0  0  0  0
   -4.8359    2.5098    0.0011 H   0  0  0  0  0  0  0  0  0  0  0  0
   -2.5169    3.5093    0.0006 H   0  0  0  0  0  0  0  0  0  0  0  0
    2.0166    3.8098    0.8984 H   0  0  0  0  0  0  0  0  0  0  0  0
    2.0107    3.8034   -0.9107 H   0  0  0  0  0  0  0  0  0  0  0  0
    3.0974    0.2902   -1.2646 H   0  0  0  0  0  0  0  0  0  0  0  0
    3.8658    1.9234   -1.2906 H   0  0  0  0  0  0  0  0  0  0  0  0
    2.3228    1.6395   -2.1752 H   0  0  0  0  0  0  0  0  0  0  0  0
    3.0868    0.2923    1.2760 H   0  0  0  0  0  0  0  0  0  0  0  0
    3.8569    1.9246    1.3033 H   0  0  0  0  0  0  0  0  0  0  0  0
    2.3072    1.6449    2.1778 H   0  0  0  0  0  0  0  0  0  0  0  0
   -3.1131   -1.4933   -0.0003 H   0  0  0  0  0  0  0  0  0  0  0  0
   -5.1141    0.0240    0.0005 H   0  0  0  0  0  0  0  0  0  0  0  0
  2  9  1  0  0  0  0
  2 11  1  0  0  0  0
  3  8  1  0  0  0  0
  4  3  1  0  0  0  0
  4  5  1  0  0  0  0
  5  6  2  0  0  0  0
  6 25  1  0  0  0  0
  6  7  1  0  0  0  0
  7 14  1  0  0  0  0
  8 15  1  0  0  0  0
  8  7  2  0  0  0  0
  9  3  2  0  0  0  0
  9  1  1  0  0  0  0
 10 11  1  0  0  0  0
 10  1  1  0  0  0  0
 10 16  1  0  0  0  0
 11 13  1  0  0  0  0
 12 18  1  0  0  0  0
 12 11  1  0  0  0  0
 13 21  1  0  0  0  0
 13 22  1  0  0  0  0
 13 23  1  0  0  0  0
 17 10  1  0  0  0  0
 19 12  1  0  0  0  0
 20 12  1  0  0  0  0
 24  5  1  0  0  0  0
M  END
