1,35
 OpenBabel05122313053D

 37 39  0  0  0  0  0  0  0  0999 V2000
   -1.8592    1.5742   -0.5680 C   0  0  0  0  0  2  0  0  0  0  0  0
   -3.6599    0.9211   -2.1944 C   0  0  0  0  0  0  0  0  0  0  0  0
   -3.1084   -0.0331   -2.2829 H   0  0  0  0  0  0  0  0  0  0  0  0
   -3.8792    1.3030   -3.2079 H   0  0  0  0  0  0  0  0  0  0  0  0
   -4.6131    0.7738   -1.6500 H   0  0  0  0  0  0  0  0  0  0  0  0
   -2.8623    3.2533   -1.7242 C   0  0  0  0  0  0  0  0  0  0  0  0
   -3.5584    3.7006   -2.4398 H   0  0  0  0  0  0  0  0  0  0  0  0
   -1.9121    3.8283   -0.9253 C   0  0  0  0  0  0  0  0  0  0  0  0
   -1.6155    4.8738   -0.7995 H   0  0  0  0  0  0  0  0  0  0  0  0
   -0.2450    2.9395    0.7591 C   0  0  0  0  0  0  0  0  0  0  0  0
   -0.6668    2.7666    1.7736 H   0  0  0  0  0  0  0  0  0  0  0  0
    0.1259    3.9795    0.7209 H   0  0  0  0  0  0  0  0  0  0  0  0
    0.8699    1.9748    0.5113 C   0  0  0  0  0  0  0  0  0  0  0  0
    2.2489    2.1072    0.4590 C   0  0  0  0  0  0  0  0  0  0  0  0
    2.9112    2.9746    0.5249 H   0  0  0  0  0  0  0  0  0  0  0  0
    4.0637    0.4011    0.0617 C   0  0  0  0  0  0  0  0  0  0  0  0
    5.0938    1.0577    0.7512 C   0  0  0  0  0  0  0  0  0  0  0  0
    4.8690    1.8729    1.4549 H   0  0  0  0  0  0  0  0  0  0  0  0
    6.4253    0.6427    0.5624 C   0  0  0  0  0  0  0  0  0  0  0  0
    6.6723   -0.4354   -0.3104 C   0  0  0  0  0  0  0  0  0  0  0  0
    7.7123   -0.7679   -0.4603 H   0  0  0  0  0  0  0  0  0  0  0  0
    5.6395   -1.1053   -0.9974 C   0  0  0  0  0  0  0  0  0  0  0  0
    4.3153   -0.6708   -0.8075 C   0  0  0  0  0  0  0  0  0  0  0  0
    3.4778   -1.1481   -1.3357 H   0  0  0  0  0  0  0  0  0  0  0  0
    7.5618    1.3263    1.2780 C   0  0  0  0  0  0  0  0  0  0  0  0
    7.2021    2.0943    1.9887 H   0  0  0  0  0  0  0  0  0  0  0  0
    8.2415    1.8241    0.5557 H   0  0  0  0  0  0  0  0  0  0  0  0
    8.1755    0.5963    1.8436 H   0  0  0  0  0  0  0  0  0  0  0  0
    5.9518   -2.2558   -1.9188 C   0  0  0  0  0  0  0  0  0  0  0  0
    6.3980   -3.1023   -1.3567 H   0  0  0  0  0  0  0  0  0  0  0  0
    6.6905   -1.9598   -2.6911 H   0  0  0  0  0  0  0  0  0  0  0  0
    5.0466   -2.6284   -2.4337 H   0  0  0  0  0  0  0  0  0  0  0  0
   -2.8127    1.8827   -1.4994 N   0  0  0  0  0  0  0  0  0  0  0  0
   -1.3114    2.7875   -0.2279 N   0  0  0  0  0  0  0  0  0  0  0  0
    0.6011    0.6480    0.3059 N   0  0  0  0  0  2  0  0  0  0  0  0
    1.7059   -0.0443    0.1431 N   0  0  0  0  0  2  0  0  0  0  0  0
    2.7110    0.8365    0.2371 N   0  0  0  0  0  0  0  0  0  0  0  0
  1 34  1  0  0  0  0
  2  5  1  0  0  0  0
  2 33  1  0  0  0  0
  3  2  1  0  0  0  0
  4  2  1  0  0  0  0
  6 33  1  0  0  0  0
  6  8  2  0  0  0  0
  7  6  1  0  0  0  0
  8  9  1  0  0  0  0
  8 34  1  0  0  0  0
 10 11  1  0  0  0  0
 12 10  1  0  0  0  0
 13 10  1  0  0  0  0
 14 13  2  0  0  0  0
 14 15  1  0  0  0  0
 16 37  1  0  0  0  0
 16 17  1  0  0  0  0
 17 18  1  0  0  0  0
 19 17  2  0  0  0  0
 19 25  1  0  0  0  0
 20 19  1  0  0  0  0
 21 20  1  0  0  0  0
 22 23  1  0  0  0  0
 22 20  2  0  0  0  0
 23 16  2  0  0  0  0
 24 23  1  0  0  0  0
 25 28  1  0  0  0  0
 25 26  1  0  0  0  0
 27 25  1  0  0  0  0
 29 30  1  0  0  0  0
 29 22  1  0  0  0  0
 31 29  1  0  0  0  0
 32 29  1  0  0  0  0
 33  1  1  0  0  0  0
 34 10  1  0  0  0  0
 35 13  1  0  0  0  0
 36 37  1  0  0  0  0
 36 35  1  0  0  0  0
 37 14  1  0  0  0  0
M  END
