3,6
 OpenBabel05122313053D

 25 26  0  0  1  0  0  0  0  0999 V2000
    1.5690    0.8498   -1.8056 C   0  0  2  0  0  0  0  0  0  0  0  0
    2.1374    0.5851   -2.7240 H   0  0  0  0  0  0  0  0  0  0  0  0
    0.1570    0.3675   -1.9921 N   0  0  0  0  0  0  0  0  0  0  0  0
    0.1756   -0.4934   -2.5577 H   0  0  0  0  0  0  0  0  0  0  0  0
   -0.3742    1.0543   -2.5451 H   0  0  0  0  0  0  0  0  0  0  0  0
    1.1926   -0.3823    0.3194 C   0  0  0  0  0  3  0  0  0  0  0  0
    2.1231    0.1164   -0.6062 C   0  0  0  0  0  0  0  0  0  0  0  0
    4.0154   -0.6993    0.7648 C   0  0  0  0  0  0  0  0  0  0  0  0
    4.5098    0.4614   -1.3486 C   0  0  0  0  0  0  0  0  0  0  0  0
    4.1871    0.9744   -2.2664 H   0  0  0  0  0  0  0  0  0  0  0  0
    3.0601   -1.1970    1.6969 C   0  0  0  0  0  0  0  0  0  0  0  0
    3.4214   -1.7083    2.6032 H   0  0  0  0  0  0  0  0  0  0  0  0
    3.5391   -0.0250   -0.4194 C   0  0  0  0  0  0  0  0  0  0  0  0
    1.7012   -1.0456    1.4776 C   0  0  0  0  0  0  0  0  0  0  0  0
    1.0025   -1.4341    2.2326 H   0  0  0  0  0  0  0  0  0  0  0  0
    6.3306   -0.3625    0.0497 C   0  0  0  0  0  0  0  0  0  0  0  0
    7.4103   -0.4858    0.2194 H   0  0  0  0  0  0  0  0  0  0  0  0
    5.4167   -0.8508    0.9713 C   0  0  0  0  0  0  0  0  0  0  0  0
    5.7622   -1.3676    1.8801 H   0  0  0  0  0  0  0  0  0  0  0  0
    5.8691    0.2957   -1.1197 C   0  0  0  0  0  0  0  0  0  0  0  0
    6.5959    0.6769   -1.8528 H   0  0  0  0  0  0  0  0  0  0  0  0
    1.6034    2.3733   -1.6510 C   0  0  0  0  0  0  0  0  0  0  0  0
    1.1482    2.8880   -2.5239 H   0  0  0  0  0  0  0  0  0  0  0  0
    2.6544    2.7101   -1.5773 H   0  0  0  0  0  0  0  0  0  0  0  0
    1.0896    2.6967   -0.7265 H   0  0  0  0  0  0  0  0  0  0  0  0
  1  2  1  6  0  0  0
  1 22  1  0  0  0  0
  1  7  1  0  0  0  0
  3  1  1  0  0  0  0
  4  3  1  0  0  0  0
  5  3  1  0  0  0  0
  6 14  1  0  0  0  0
  7 13  1  0  0  0  0
  7  6  2  0  0  0  0
  8 18  1  0  0  0  0
  8 11  1  0  0  0  0
  9 20  2  0  0  0  0
  9 13  1  0  0  0  0
 10  9  1  0  0  0  0
 11 12  1  0  0  0  0
 13  8  2  0  0  0  0
 14 11  2  0  0  0  0
 14 15  1  0  0  0  0
 16 17  1  0  0  0  0
 16 18  2  0  0  0  0
 18 19  1  0  0  0  0
 20 16  1  0  0  0  0
 21 20  1  0  0  0  0
 22 24  1  0  0  0  0
 22 25  1  0  0  0  0
 23 22  1  0  0  0  0
M  END
