2,6
 OpenBabel05122313053D

 48 51  0  0  0  0  0  0  0  0999 V2000
   -1.6174    1.2913    1.2950 Se  0  0  0  0  0  0  0  0  0  0  0  0
    1.8736   -0.0301   -1.1780 N   0  0  0  0  0  2  0  0  0  0  0  0
   -1.0558   -2.0661    0.5545 N   0  0  0  0  0  0  0  0  0  0  0  0
    1.9363   -1.3432   -1.2358 C   0  0  0  0  0  0  0  0  0  0  0  0
    2.7832   -1.8325   -1.7544 H   0  0  0  0  0  0  0  0  0  0  0  0
   -0.0776   -1.2550    0.0399 C   0  0  0  0  0  2  0  0  0  0  0  0
   -3.1194    1.4800    0.0646 C   0  0  0  0  0  0  0  0  0  0  0  0
   -0.7659   -3.4111    0.2509 C   0  0  0  0  0  0  0  0  0  0  0  0
    4.0370    1.0226   -0.6302 C   0  0  0  0  0  0  0  0  0  0  0  0
    0.9769   -4.6929   -0.8960 C   0  0  0  0  0  0  0  0  0  0  0  0
    1.9213   -4.7502   -1.4580 H   0  0  0  0  0  0  0  0  0  0  0  0
   -1.4838   -4.5752    0.5568 C   0  0  0  0  0  0  0  0  0  0  0  0
   -2.4365   -4.5418    1.1058 H   0  0  0  0  0  0  0  0  0  0  0  0
   -2.2921   -1.6206    1.1759 C   0  0  0  0  0  0  0  0  0  0  0  0
   -2.6997   -2.4684    1.7638 H   0  0  0  0  0  0  0  0  0  0  0  0
   -3.0492   -1.3772    0.3961 H   0  0  0  0  0  0  0  0  0  0  0  0
    2.9586    0.8129   -1.6787 C   0  0  0  0  0  0  0  0  0  0  0  0
    2.5118    1.7849   -1.9662 H   0  0  0  0  0  0  0  0  0  0  0  0
    3.4007    0.3396   -2.5826 H   0  0  0  0  0  0  0  0  0  0  0  0
    3.8797    2.0017    0.3716 C   0  0  0  0  0  0  0  0  0  0  0  0
    2.9799    2.6378    0.3568 H   0  0  0  0  0  0  0  0  0  0  0  0
   -4.4255    1.1588    0.4737 C   0  0  0  0  0  0  0  0  0  0  0  0
   -4.6263    0.7644    1.4809 H   0  0  0  0  0  0  0  0  0  0  0  0
    0.4671   -3.4460   -0.4826 C   0  0  0  0  0  0  0  0  0  0  0  0
    5.9966    1.3368    1.3771 C   0  0  0  0  0  0  0  0  0  0  0  0
    6.7613    1.4613    2.1592 H   0  0  0  0  0  0  0  0  0  0  0  0
    0.8830   -2.0693   -0.6105 C   0  0  0  0  0  0  0  0  0  0  0  0
   -5.2584    1.8797   -1.6972 C   0  0  0  0  0  0  0  0  0  0  0  0
   -6.0979    2.0304   -2.3923 H   0  0  0  0  0  0  0  0  0  0  0  0
    5.1848    0.2066   -0.6151 C   0  0  0  0  0  0  0  0  0  0  0  0
    5.3201   -0.5562   -1.3995 H   0  0  0  0  0  0  0  0  0  0  0  0
    6.1614    0.3620    0.3805 C   0  0  0  0  0  0  0  0  0  0  0  0
    7.0570   -0.2781    0.3757 H   0  0  0  0  0  0  0  0  0  0  0  0
   -2.8734    2.0203   -1.2094 C   0  0  0  0  0  0  0  0  0  0  0  0
   -1.8451    2.2927   -1.4991 H   0  0  0  0  0  0  0  0  0  0  0  0
   -2.1182   -0.4414    2.1220 C   0  0  0  0  0  0  0  0  0  0  0  0
   -1.3009   -0.6223    2.8484 H   0  0  0  0  0  0  0  0  0  0  0  0
   -3.0512   -0.2664    2.6916 H   0  0  0  0  0  0  0  0  0  0  0  0
   -0.9511   -5.8027    0.1318 C   0  0  0  0  0  0  0  0  0  0  0  0
   -1.4931   -6.7327    0.3589 H   0  0  0  0  0  0  0  0  0  0  0  0
    4.8552    2.1551    1.3681 C   0  0  0  0  0  0  0  0  0  0  0  0
    4.7235    2.9249    2.1442 H   0  0  0  0  0  0  0  0  0  0  0  0
    0.2645   -5.8587   -0.5842 C   0  0  0  0  0  0  0  0  0  0  0  0
    0.6562   -6.8358   -0.9050 H   0  0  0  0  0  0  0  0  0  0  0  0
   -5.4929    1.3521   -0.4180 C   0  0  0  0  0  0  0  0  0  0  0  0
   -6.5152    1.0927   -0.1035 H   0  0  0  0  0  0  0  0  0  0  0  0
   -3.9524    2.2193   -2.0846 C   0  0  0  0  0  0  0  0  0  0  0  0
   -3.7627    2.6410   -3.0832 H   0  0  0  0  0  0  0  0  0  0  0  0
  1 36  1  0  0  0  0
  3 14  1  0  0  0  0
  4  2  1  0  0  0  0
  4 27  2  0  0  0  0
  5  4  1  0  0  0  0
  6  3  1  0  0  0  0
  7 22  1  0  0  0  0
  7  1  1  0  0  0  0
  8  3  1  0  0  0  0
  8 12  1  0  0  0  0
  9 30  2  0  0  0  0
  9 20  1  0  0  0  0
 10 43  2  0  0  0  0
 10 24  1  0  0  0  0
 11 10  1  0  0  0  0
 12 13  1  0  0  0  0
 14 15  1  0  0  0  0
 14 36  1  0  0  0  0
 16 14  1  0  0  0  0
 17  2  1  0  0  0  0
 17  9  1  0  0  0  0
 18 17  1  0  0  0  0
 19 17  1  0  0  0  0
 20 41  2  0  0  0  0
 21 20  1  0  0  0  0
 22 23  1  0  0  0  0
 24  8  2  0  0  0  0
 25 26  1  0  0  0  0
 27 24  1  0  0  0  0
 27  6  1  0  0  0  0
 28 45  1  0  0  0  0
 29 28  1  0  0  0  0
 30 32  1  0  0  0  0
 31 30  1  0  0  0  0
 32 25  2  0  0  0  0
 33 32  1  0  0  0  0
 34  7  2  0  0  0  0
 35 34  1  0  0  0  0
 36 38  1  0  0  0  0
 36 37  1  0  0  0  0
 39 40  1  0  0  0  0
 39 12  2  0  0  0  0
 41 25  1  0  0  0  0
 41 42  1  0  0  0  0
 43 39  1  0  0  0  0
 44 43  1  0  0  0  0
 45 46  1  0  0  0  0
 45 22  2  0  0  0  0
 47 28  2  0  0  0  0
 47 34  1  0  0  0  0
 48 47  1  0  0  0  0
M  END
