3,4
 OpenBabel05122313053D

 42 43  0  0  0  0  0  0  0  0999 V2000
    0.9484    1.5546    0.1035 N   0  0  0  0  0  0  0  0  0  0  0  0
   -1.0723    2.2933   -0.1318 N   0  0  0  0  0  0  0  0  0  0  0  0
   -3.0911   -0.0106    0.5752 N   0  0  0  0  0  0  0  0  0  0  0  0
   -0.3296    1.1382   -0.2120 C   0  0  0  0  0  2  0  0  0  0  0  0
   -0.2951    3.3863    0.2355 C   0  0  0  0  0  0  0  0  0  0  0  0
   -0.7111    4.3911    0.3552 H   0  0  0  0  0  0  0  0  0  0  0  0
    0.9832    2.9213    0.3781 C   0  0  0  0  0  0  0  0  0  0  0  0
    1.9096    3.4294    0.6597 H   0  0  0  0  0  0  0  0  0  0  0  0
   -2.5252    2.2957   -0.2309 C   0  0  0  0  0  0  0  0  0  0  0  0
   -2.8220    1.9337   -1.2362 H   0  0  0  0  0  0  0  0  0  0  0  0
   -2.8689    3.3433   -0.1319 H   0  0  0  0  0  0  0  0  0  0  0  0
   -3.1569    1.4310    0.8639 C   0  0  0  0  0  0  0  0  0  0  0  0
   -2.6169    1.6276    1.8123 H   0  0  0  0  0  0  0  0  0  0  0  0
   -4.2181    1.7447    1.0194 H   0  0  0  0  0  0  0  0  0  0  0  0
   -4.1602   -0.3970   -0.3649 C   0  0  0  0  0  0  0  0  0  0  0  0
   -5.1668   -0.2033    0.0794 H   0  0  0  0  0  0  0  0  0  0  0  0
   -4.0373   -1.4699   -0.6074 H   0  0  0  0  0  0  0  0  0  0  0  0
   -4.0653    0.1757   -1.3074 H   0  0  0  0  0  0  0  0  0  0  0  0
   -3.2025   -0.8029    1.8114 C   0  0  0  0  0  0  0  0  0  0  0  0
   -2.3775   -0.5315    2.4983 H   0  0  0  0  0  0  0  0  0  0  0  0
   -3.1007   -1.8719    1.5413 H   0  0  0  0  0  0  0  0  0  0  0  0
   -4.1791   -0.6260    2.3240 H   0  0  0  0  0  0  0  0  0  0  0  0
    2.1045    0.7091    0.2250 C   0  0  0  0  0  0  0  0  0  0  0  0
    2.1908   -0.1864    1.3140 C   0  0  0  0  0  0  0  0  0  0  0  0
    3.3373   -0.9951    1.4027 C   0  0  0  0  0  0  0  0  0  0  0  0
    3.4166   -1.7037    2.2426 H   0  0  0  0  0  0  0  0  0  0  0  0
    4.3758   -0.9292    0.4560 C   0  0  0  0  0  0  0  0  0  0  0  0
    4.2526   -0.0129   -0.6042 C   0  0  0  0  0  0  0  0  0  0  0  0
    5.0524    0.0507   -1.3594 H   0  0  0  0  0  0  0  0  0  0  0  0
    3.1266    0.8161   -0.7436 C   0  0  0  0  0  0  0  0  0  0  0  0
    1.0799   -0.3136    2.3202 C   0  0  0  0  0  0  0  0  0  0  0  0
    0.2352   -0.8856    1.8724 H   0  0  0  0  0  0  0  0  0  0  0  0
    0.6724    0.6742    2.6160 H   0  0  0  0  0  0  0  0  0  0  0  0
    1.4230   -0.8436    3.2287 H   0  0  0  0  0  0  0  0  0  0  0  0
    2.9996    1.7611   -1.9108 C   0  0  0  0  0  0  0  0  0  0  0  0
    3.7792    1.5580   -2.6688 H   0  0  0  0  0  0  0  0  0  0  0  0
    3.0989    2.8235   -1.6041 H   0  0  0  0  0  0  0  0  0  0  0  0
    2.0076    1.6632   -2.3976 H   0  0  0  0  0  0  0  0  0  0  0  0
    5.5700   -1.8442    0.5563 C   0  0  0  0  0  0  0  0  0  0  0  0
    5.3533   -2.8260    0.0831 H   0  0  0  0  0  0  0  0  0  0  0  0
    5.8424   -2.0466    1.6111 H   0  0  0  0  0  0  0  0  0  0  0  0
    6.4556   -1.4211    0.0432 H   0  0  0  0  0  0  0  0  0  0  0  0
  1 23  1  0  0  0  0
  1  7  1  0  0  0  0
  2  5  1  0  0  0  0
  3 12  1  0  0  0  0
  3 19  1  0  0  0  0
  4  2  1  0  0  0  0
  4  1  1  0  0  0  0
  5  6  1  0  0  0  0
  5  7  2  0  0  0  0
  7  8  1  0  0  0  0
  9 11  1  0  0  0  0
  9  2  1  0  0  0  0
  9 12  1  0  0  0  0
 10  9  1  0  0  0  0
 12 14  1  0  0  0  0
 12 13  1  0  0  0  0
 15 16  1  0  0  0  0
 15  3  1  0  0  0  0
 17 15  1  0  0  0  0
 18 15  1  0  0  0  0
 19 22  1  0  0  0  0
 19 20  1  0  0  0  0
 21 19  1  0  0  0  0
 23 24  1  0  0  0  0
 24 25  2  0  0  0  0
 24 31  1  0  0  0  0
 25 26  1  0  0  0  0
 27 39  1  0  0  0  0
 27 25  1  0  0  0  0
 28 27  2  0  0  0  0
 29 28  1  0  0  0  0
 30 28  1  0  0  0  0
 30 23  2  0  0  0  0
 31 33  1  0  0  0  0
 31 34  1  0  0  0  0
 32 31  1  0  0  0  0
 35 37  1  0  0  0  0
 35 30  1  0  0  0  0
 36 35  1  0  0  0  0
 38 35  1  0  0  0  0
 39 41  1  0  0  0  0
 40 39  1  0  0  0  0
 42 39  1  0  0  0  0
M  END
