1,2
 OpenBabel05122313053D

 32 33  0  0  1  0  0  0  0  0999 V2000
   -1.0431   -1.0907    0.0988 N   0  0  0  0  0  0  0  0  0  0  0  0
    0.2638    1.2780    0.0908 C   0  0  0  0  0  3  0  0  0  0  0  0
    0.9472    2.4591    0.4460 C   0  0  0  0  0  0  0  0  0  0  0  0
    0.2746    3.6927    0.5140 C   0  0  0  0  0  0  0  0  0  0  0  0
   -1.0974    3.7662    0.2327 C   0  0  0  0  0  0  0  0  0  0  0  0
   -1.8024    2.5963   -0.0947 C   0  0  0  0  0  0  0  0  0  0  0  0
   -1.1351    1.3603   -0.1498 C   0  0  0  0  0  0  0  0  0  0  0  0
   -1.8087    0.0658   -0.5489 C   0  0  2  0  0  0  0  0  0  0  0  0
   -3.3117   -0.0166   -0.3490 C   0  0  0  0  0  0  0  0  0  0  0  0
   -3.9308    0.4155    0.8437 C   0  0  0  0  0  0  0  0  0  0  0  0
   -5.3170    0.2947    1.0162 C   0  0  0  0  0  0  0  0  0  0  0  0
   -6.1115   -0.2564   -0.0022 C   0  0  0  0  0  0  0  0  0  0  0  0
   -5.5112   -0.6806   -1.1971 C   0  0  0  0  0  0  0  0  0  0  0  0
   -4.1233   -0.5600   -1.3650 C   0  0  0  0  0  0  0  0  0  0  0  0
   -1.3356   -1.2625    1.5431 C   0  0  0  0  0  0  0  0  0  0  0  0
   -1.3347   -2.3581   -0.6101 C   0  0  0  0  0  0  0  0  0  0  0  0
    2.0221    2.4299    0.6831 H   0  0  0  0  0  0  0  0  0  0  0  0
    0.8299    4.6023    0.7935 H   0  0  0  0  0  0  0  0  0  0  0  0
   -1.6242    4.7314    0.2760 H   0  0  0  0  0  0  0  0  0  0  0  0
   -2.8806    2.6481   -0.3109 H   0  0  0  0  0  0  0  0  0  0  0  0
   -1.6120   -0.0870   -1.6317 H   0  0  0  0  0  0  0  0  0  0  0  0
   -3.3200    0.8678    1.6384 H   0  0  0  0  0  0  0  0  0  0  0  0
   -5.7819    0.6384    1.9528 H   0  0  0  0  0  0  0  0  0  0  0  0
   -7.1998   -0.3482    0.1337 H   0  0  0  0  0  0  0  0  0  0  0  0
   -6.1261   -1.1050   -2.0052 H   0  0  0  0  0  0  0  0  0  0  0  0
   -3.6558   -0.8886   -2.3068 H   0  0  0  0  0  0  0  0  0  0  0  0
   -0.6314   -2.0189    1.9371 H   0  0  0  0  0  0  0  0  0  0  0  0
   -2.3807   -1.6064    1.7007 H   0  0  0  0  0  0  0  0  0  0  0  0
   -1.1708   -0.3050    2.0703 H   0  0  0  0  0  0  0  0  0  0  0  0
   -0.6766   -3.1459   -0.2008 H   0  0  0  0  0  0  0  0  0  0  0  0
   -1.1006   -2.2372   -1.6842 H   0  0  0  0  0  0  0  0  0  0  0  0
   -2.4063   -2.6289   -0.4908 H   0  0  0  0  0  0  0  0  0  0  0  0
  1 15  1  0  0  0  0
  2  3  1  0  0  0  0
  3  4  2  0  0  0  0
  3 17  1  0  0  0  0
  4 18  1  0  0  0  0
  5 19  1  0  0  0  0
  5  4  1  0  0  0  0
  6  5  2  0  0  0  0
  7  6  1  0  0  0  0
  7  2  2  0  0  0  0
  8 21  1  6  0  0  0
  8  9  1  0  0  0  0
  8  7  1  0  0  0  0
  8  1  1  0  0  0  0
  9 10  1  0  0  0  0
 10 11  2  0  0  0  0
 10 22  1  0  0  0  0
 11 23  1  0  0  0  0
 12 24  1  0  0  0  0
 12 11  1  0  0  0  0
 13 12  2  0  0  0  0
 14 13  1  0  0  0  0
 14  9  2  0  0  0  0
 15 28  1  0  0  0  0
 15 27  1  0  0  0  0
 15 29  1  0  0  0  0
 16 32  1  0  0  0  0
 16 30  1  0  0  0  0
 16  1  1  0  0  0  0
 20  6  1  0  0  0  0
 25 13  1  0  0  0  0
 26 14  1  0  0  0  0
 31 16  1  0  0  0  0
M  END
