1,2
 OpenBabel05122313053D

 28 28  0  0  1  0  0  0  0  0999 V2000
    0.9322   -1.0528   -1.4114 N   0  0  0  0  0  0  0  0  0  0  0  0
    1.0437    1.2929   -0.2142 C   0  0  0  0  0  3  0  0  0  0  0  0
    1.0419    2.6338    0.2364 C   0  0  0  0  0  0  0  0  0  0  0  0
    2.2199    3.3946    0.3161 C   0  0  0  0  0  0  0  0  0  0  0  0
    3.4468    2.8451   -0.0874 C   0  0  0  0  0  0  0  0  0  0  0  0
    3.4826    1.5160   -0.5383 C   0  0  0  0  0  0  0  0  0  0  0  0
    2.3108    0.7383   -0.5710 C   0  0  0  0  0  0  0  0  0  0  0  0
    2.3255   -0.7243   -0.9558 C   0  0  1  0  0  0  0  0  0  0  0  0
    2.8176   -1.6947    0.1834 C   0  0  0  0  0  0  0  0  0  0  0  0
    4.3478   -1.5708    0.2994 C   0  0  0  0  0  0  0  0  0  0  0  0
    2.4854   -3.1550   -0.1862 C   0  0  0  0  0  0  0  0  0  0  0  0
    2.1837   -1.3419    1.5379 C   0  0  0  0  0  0  0  0  0  0  0  0
    0.7537   -2.0608   -1.3245 H   0  0  0  0  0  0  0  0  0  0  0  0
    0.8541   -0.8366   -2.4115 H   0  0  0  0  0  0  0  0  0  0  0  0
    0.0857    3.1088    0.5035 H   0  0  0  0  0  0  0  0  0  0  0  0
    2.1733    4.4371    0.6701 H   0  0  0  0  0  0  0  0  0  0  0  0
    4.3676    3.4472   -0.0628 H   0  0  0  0  0  0  0  0  0  0  0  0
    4.4376    1.0851   -0.8790 H   0  0  0  0  0  0  0  0  0  0  0  0
    3.0142   -0.8972   -1.8142 H   0  0  0  0  0  0  0  0  0  0  0  0
    4.6473   -0.5470    0.5932 H   0  0  0  0  0  0  0  0  0  0  0  0
    4.7254   -2.2662    1.0764 H   0  0  0  0  0  0  0  0  0  0  0  0
    4.8547   -1.8208   -0.6563 H   0  0  0  0  0  0  0  0  0  0  0  0
    2.9798   -3.8479    0.5239 H   0  0  0  0  0  0  0  0  0  0  0  0
    1.3989   -3.3793   -0.1224 H   0  0  0  0  0  0  0  0  0  0  0  0
    2.8419   -3.4158   -1.2055 H   0  0  0  0  0  0  0  0  0  0  0  0
    2.5044   -0.3370    1.8739 H   0  0  0  0  0  0  0  0  0  0  0  0
    1.0813   -1.3228    1.4644 H   0  0  0  0  0  0  0  0  0  0  0  0
    2.4806   -2.0825    2.3085 H   0  0  0  0  0  0  0  0  0  0  0  0
  1 13  1  0  0  0  0
  1  8  1  0  0  0  0
  2  3  1  0  0  0  0
  3  4  2  0  0  0  0
  3 15  1  0  0  0  0
  4 16  1  0  0  0  0
  5 17  1  0  0  0  0
  5  4  1  0  0  0  0
  6  5  2  0  0  0  0
  7  6  1  0  0  0  0
  7  2  2  0  0  0  0
  8 19  1  6  0  0  0
  8  7  1  0  0  0  0
  8  9  1  0  0  0  0
  9 10  1  0  0  0  0
  9 12  1  0  0  0  0
 10 20  1  0  0  0  0
 10 21  1  0  0  0  0
 11 24  1  0  0  0  0
 11  9  1  0  0  0  0
 11 23  1  0  0  0  0
 12 26  1  0  0  0  0
 12 28  1  0  0  0  0
 14  1  1  0  0  0  0
 18  6  1  0  0  0  0
 22 10  1  0  0  0  0
 25 11  1  0  0  0  0
 27 12  1  0  0  0  0
M  END
