1,2
 OpenBabel05122313053D

 21 22  0  0  1  0  0  0  0  0999 V2000
    0.6808   -0.8669    0.2980 N   0  0  0  0  0  2  0  0  0  0  0  0
   -0.2113   -0.5065   -2.3127 C   0  0  0  0  0  3  0  0  0  0  0  0
    0.1925   -1.5369   -2.2763 H   0  0  0  0  0  0  0  0  0  0  0  0
   -0.9028   -0.3401   -3.1581 H   0  0  0  0  0  0  0  0  0  0  0  0
    0.6738    0.5895   -1.9511 C   0  0  0  0  0  3  0  0  0  0  0  0
    0.6290    1.5220   -2.5422 H   0  0  0  0  0  0  0  0  0  0  0  0
    0.5993   -1.6795    1.3613 C   0  0  0  0  0  0  0  0  0  0  0  0
   -0.4079   -1.8599    1.7633 H   0  0  0  0  0  0  0  0  0  0  0  0
    1.7293   -2.2541    1.9868 C   0  0  0  0  0  0  0  0  0  0  0  0
    1.5794   -2.9186    2.8501 H   0  0  0  0  0  0  0  0  0  0  0  0
    3.0025   -1.9434    1.5285 C   0  0  0  0  0  0  0  0  0  0  0  0
    3.9010   -2.3439    2.0224 H   0  0  0  0  0  0  0  0  0  0  0  0
    3.1406   -1.0696    0.4117 C   0  0  0  0  0  0  0  0  0  0  0  0
    1.9396   -0.5948   -0.2099 C   0  0  2  0  0  3  0  0  0  0  0  0
    1.9733    0.2792   -1.3456 C   0  0  0  0  0  0  0  0  0  0  0  0
    3.2236    0.7522   -1.7628 C   0  0  0  0  0  0  0  0  0  0  0  0
    3.2761    1.4495   -2.6130 H   0  0  0  0  0  0  0  0  0  0  0  0
    4.4170    0.3165   -1.1329 C   0  0  0  0  0  0  0  0  0  0  0  0
    5.3839    0.6992   -1.4952 H   0  0  0  0  0  0  0  0  0  0  0  0
    4.3911   -0.5971   -0.0851 C   0  0  0  0  0  0  0  0  0  0  0  0
    5.3214   -0.9412    0.3915 H   0  0  0  0  0  0  0  0  0  0  0  0
  1  7  1  0  0  0  0
  2  3  1  0  0  0  0
  2  5  1  0  0  0  0
  4  2  1  0  0  0  0
  5 15  1  0  0  0  0
  6  5  1  0  0  0  0
  7  8  1  0  0  0  0
  7  9  2  0  0  0  0
  9 10  1  0  0  0  0
 11  9  1  0  0  0  0
 11 12  1  0  0  0  0
 13 11  2  0  0  0  0
 14 15  1  1  0  0  0
 14  1  1  0  0  0  0
 14 13  1  0  0  0  0
 16 15  2  0  0  0  0
 16 18  1  0  0  0  0
 17 16  1  0  0  0  0
 18 20  2  0  0  0  0
 19 18  1  0  0  0  0
 20 21  1  0  0  0  0
 20 13  1  0  0  0  0
M  END
