1,12
 OpenBabel05122313053D

 38 37  0  0  0  0  0  0  0  0999 V2000
    0.5793    1.7358   -0.7440 N   0  0  0  0  0  2  0  0  0  0  0  0
    2.1129   -1.3166    0.4037 N   0  0  0  0  0  0  0  0  0  0  0  0
    2.8735    1.9512    0.3050 C   0  0  0  0  0  0  0  0  0  0  0  0
    3.7820    1.3840    0.5691 H   0  0  0  0  0  0  0  0  0  0  0  0
    2.3569    2.2375    1.2396 H   0  0  0  0  0  0  0  0  0  0  0  0
    3.2000    2.8761   -0.2100 H   0  0  0  0  0  0  0  0  0  0  0  0
    2.6149    0.8401   -1.9561 C   0  0  0  0  0  0  0  0  0  0  0  0
    3.5356    0.2444   -1.8187 H   0  0  0  0  0  0  0  0  0  0  0  0
    2.9076    1.7765   -2.4664 H   0  0  0  0  0  0  0  0  0  0  0  0
    1.9372    0.2774   -2.6254 H   0  0  0  0  0  0  0  0  0  0  0  0
    1.9412    1.1206   -0.5980 C   0  0  0  0  0  0  0  0  0  0  0  0
    1.5267   -0.2286    0.1053 C   0  0  0  0  0  3  0  0  0  0  0  0
    3.4579   -1.9052    0.2517 C   0  0  0  0  0  0  0  0  0  0  0  0
    3.5055   -2.6059   -1.1215 C   0  0  0  0  0  0  0  0  0  0  0  0
    4.4386   -3.1973   -1.2174 H   0  0  0  0  0  0  0  0  0  0  0  0
    3.4687   -1.8769   -1.9532 H   0  0  0  0  0  0  0  0  0  0  0  0
    2.6430   -3.2922   -1.2296 H   0  0  0  0  0  0  0  0  0  0  0  0
    4.6633   -0.9598    0.4185 C   0  0  0  0  0  0  0  0  0  0  0  0
    5.6036   -1.5485    0.4089 H   0  0  0  0  0  0  0  0  0  0  0  0
    4.6132   -0.4279    1.3896 H   0  0  0  0  0  0  0  0  0  0  0  0
    4.7381   -0.2102   -0.3903 H   0  0  0  0  0  0  0  0  0  0  0  0
    3.5564   -2.9852    1.3531 C   0  0  0  0  0  0  0  0  0  0  0  0
    4.5189   -3.5322    1.2897 H   0  0  0  0  0  0  0  0  0  0  0  0
    2.7268   -3.7118    1.2539 H   0  0  0  0  0  0  0  0  0  0  0  0
    3.4843   -2.5227    2.3581 H   0  0  0  0  0  0  0  0  0  0  0  0
    0.2701    3.0850   -1.2506 C   0  0  0  0  0  0  0  0  0  0  0  0
    0.7535    4.2208   -0.3158 C   0  0  0  0  0  0  0  0  0  0  0  0
    0.2922    5.1832   -0.6189 H   0  0  0  0  0  0  0  0  0  0  0  0
    1.8496    4.3557   -0.3518 H   0  0  0  0  0  0  0  0  0  0  0  0
    0.4648    4.0137    0.7309 H   0  0  0  0  0  0  0  0  0  0  0  0
    0.8094    3.3616   -2.6719 C   0  0  0  0  0  0  0  0  0  0  0  0
    0.3709    4.3040   -3.0592 H   0  0  0  0  0  0  0  0  0  0  0  0
    0.5424    2.5464   -3.3714 H   0  0  0  0  0  0  0  0  0  0  0  0
    1.9088    3.4857   -2.6811 H   0  0  0  0  0  0  0  0  0  0  0  0
   -1.2724    3.1465   -1.3077 C   0  0  0  0  0  0  0  0  0  0  0  0
   -1.6243    4.1431   -1.6417 H   0  0  0  0  0  0  0  0  0  0  0  0
   -1.7039    2.9581   -0.3040 H   0  0  0  0  0  0  0  0  0  0  0  0
   -1.6716    2.3848   -2.0040 H   0  0  0  0  0  0  0  0  0  0  0  0
  1 11  1  0  0  0  0
  3  4  1  0  0  0  0
  3  5  1  0  0  0  0
  6  3  1  0  0  0  0
  7  8  1  0  0  0  0
  7 11  1  0  0  0  0
  9  7  1  0  0  0  0
 10  7  1  0  0  0  0
 11 12  1  0  0  0  0
 11  3  1  0  0  0  0
 12  2  2  0  0  0  0
 13  2  1  0  0  0  0
 13 18  1  0  0  0  0
 13 22  1  0  0  0  0
 14 13  1  0  0  0  0
 15 14  1  0  0  0  0
 16 14  1  0  0  0  0
 17 14  1  0  0  0  0
 18 20  1  0  0  0  0
 19 18  1  0  0  0  0
 21 18  1  0  0  0  0
 22 25  1  0  0  0  0
 23 22  1  0  0  0  0
 24 22  1  0  0  0  0
 26  1  1  0  0  0  0
 26 27  1  0  0  0  0
 27 30  1  0  0  0  0
 28 27  1  0  0  0  0
 29 27  1  0  0  0  0
 31 26  1  0  0  0  0
 32 31  1  0  0  0  0
 33 31  1  0  0  0  0
 34 31  1  0  0  0  0
 35 26  1  0  0  0  0
 35 37  1  0  0  0  0
 36 35  1  0  0  0  0
 38 35  1  0  0  0  0
M  END
