1,4
 OpenBabel05122313053D

 21 21  0  0  1  0  0  0  0  0999 V2000
    1.7535    0.6418    0.3300 N   0  0  0  0  0  2  0  0  0  0  0  0
    2.6202   -1.6023    0.3867 C   0  0  2  0  0  0  0  0  0  0  0  0
    3.0183   -1.6876    1.4254 H   0  0  0  0  0  0  0  0  0  0  0  0
    1.1152   -1.9467    0.3891 C   0  0  0  0  0  3  0  0  0  0  0  0
    0.8432   -2.5088    1.3096 H   0  0  0  0  0  0  0  0  0  0  0  0
    0.8798   -2.5915   -0.4894 H   0  0  0  0  0  0  0  0  0  0  0  0
    2.1135    1.8211    0.9466 C   0  0  0  0  0  0  0  0  0  0  0  0
    3.8487    1.0395   -1.6972 O   0  0  0  0  0  0  0  0  0  0  0  0
    2.7705   -0.2210   -0.0607 N   0  0  0  0  0  0  0  0  0  0  0  0
    3.5131   -2.3785   -0.6120 C   0  0  0  0  0  0  0  0  0  0  0  0
    2.8683   -2.7992   -1.4115 H   0  0  0  0  0  0  0  0  0  0  0  0
    4.0395   -3.2257   -0.1319 H   0  0  0  0  0  0  0  0  0  0  0  0
    4.4537   -1.3199   -1.2108 C   0  0  0  0  0  0  0  0  0  0  0  0
    5.4003   -1.2231   -0.6359 H   0  0  0  0  0  0  0  0  0  0  0  0
    4.7302   -1.4897   -2.2687 H   0  0  0  0  0  0  0  0  0  0  0  0
    3.5914    2.0555    1.2111 C   0  0  0  0  0  0  0  0  0  0  0  0
    3.6743    2.9110    1.9042 H   0  0  0  0  0  0  0  0  0  0  0  0
    4.1047    2.2925    0.2570 H   0  0  0  0  0  0  0  0  0  0  0  0
    4.0861    1.1620    1.6411 H   0  0  0  0  0  0  0  0  0  0  0  0
    1.2698    2.6704    1.2724 O   0  0  0  0  0  0  0  0  0  0  0  0
    3.6754   -0.0054   -1.0808 C   0  0  0  0  0  0  0  0  0  0  0  0
  1  7  1  0  0  0  0
  2  4  1  0  0  0  0
  2  3  1  1  0  0  0
  4  5  1  0  0  0  0
  6  4  1  0  0  0  0
  7 16  1  0  0  0  0
  7 20  2  0  0  0  0
  8 21  2  0  0  0  0
  9  1  1  0  0  0  0
  9  2  1  0  0  0  0
 10 12  1  0  0  0  0
 10  2  1  0  0  0  0
 11 10  1  0  0  0  0
 13 21  1  0  0  0  0
 13 14  1  0  0  0  0
 13 10  1  0  0  0  0
 15 13  1  0  0  0  0
 16 19  1  0  0  0  0
 16 17  1  0  0  0  0
 18 16  1  0  0  0  0
 21  9  1  0  0  0  0
M  END
