1,36
 OpenBabel05122313053D

 47 49  0  0  1  0  0  0  0  0999 V2000
   -0.7163    0.7360    0.0422 N   0  0  0  0  0  2  0  0  0  0  0  0
   -2.1790    1.8967   -1.4387 N   0  0  0  0  0  0  0  0  0  0  0  0
   -2.3485    2.8567   -1.7447 H   0  0  0  0  0  0  0  0  0  0  0  0
    0.1072    2.2990   -1.4895 N   0  0  0  0  0  0  0  0  0  0  0  0
   -0.0585    2.7470   -2.3917 H   0  0  0  0  0  0  0  0  0  0  0  0
   -1.6723    0.5848    1.0822 C   0  0  0  0  0  0  0  0  0  0  0  0
   -2.2816    1.7284    1.6448 C   0  0  0  0  0  0  0  0  0  0  0  0
   -1.9973    2.7275    1.2813 H   0  0  0  0  0  0  0  0  0  0  0  0
   -3.2244    1.6019    2.6706 C   0  0  0  0  0  0  0  0  0  0  0  0
   -3.6834    2.5096    3.0945 H   0  0  0  0  0  0  0  0  0  0  0  0
   -3.5809    0.3396    3.1867 C   0  0  0  0  0  0  0  0  0  0  0  0
   -2.9391   -0.7901    2.6395 C   0  0  0  0  0  0  0  0  0  0  0  0
   -3.1843   -1.7915    3.0288 H   0  0  0  0  0  0  0  0  0  0  0  0
   -2.0015   -0.6808    1.6065 C   0  0  0  0  0  0  0  0  0  0  0  0
   -1.5197   -1.5726    1.1767 H   0  0  0  0  0  0  0  0  0  0  0  0
   -4.6222    0.1999    4.2682 C   0  0  0  0  0  0  0  0  0  0  0  0
   -5.6193   -0.0350    3.8358 H   0  0  0  0  0  0  0  0  0  0  0  0
   -4.7324    1.1334    4.8549 H   0  0  0  0  0  0  0  0  0  0  0  0
   -4.3749   -0.6213    4.9705 H   0  0  0  0  0  0  0  0  0  0  0  0
   -0.9311    1.6120   -0.9268 C   0  0  2  0  0  3  0  0  0  0  0  0
   -3.2930    1.0269   -1.4665 C   0  0  0  0  0  0  0  0  0  0  0  0
   -4.5846    1.5821   -1.5138 C   0  0  0  0  0  0  0  0  0  0  0  0
   -4.7108    2.6766   -1.4944 H   0  0  0  0  0  0  0  0  0  0  0  0
   -5.7093    0.7486   -1.5785 C   0  0  0  0  0  0  0  0  0  0  0  0
   -6.7121    1.2023   -1.6181 H   0  0  0  0  0  0  0  0  0  0  0  0
   -5.5814   -0.6532   -1.5776 C   0  0  0  0  0  0  0  0  0  0  0  0
   -4.2766   -1.1887   -1.5279 C   0  0  0  0  0  0  0  0  0  0  0  0
   -4.1339   -2.2810   -1.5265 H   0  0  0  0  0  0  0  0  0  0  0  0
   -3.1412   -0.3757   -1.4781 C   0  0  0  0  0  0  0  0  0  0  0  0
   -2.1436   -0.8410   -1.4364 H   0  0  0  0  0  0  0  0  0  0  0  0
   -6.7874   -1.5575   -1.6130 C   0  0  0  0  0  0  0  0  0  0  0  0
   -6.7114   -2.3044   -2.4303 H   0  0  0  0  0  0  0  0  0  0  0  0
   -7.7242   -0.9856   -1.7600 H   0  0  0  0  0  0  0  0  0  0  0  0
   -6.8881   -2.1300   -0.6665 H   0  0  0  0  0  0  0  0  0  0  0  0
    1.3672    2.5008   -0.8645 C   0  0  1  0  0  3  0  0  0  0  0  0
    1.9322    1.5051   -0.0262 C   0  0  0  0  0  2  0  0  0  0  0  0
    3.1604    1.8064    0.5900 C   0  0  0  0  0  0  0  0  0  0  0  0
    3.6291    1.0567    1.2486 H   0  0  0  0  0  0  0  0  0  0  0  0
    3.8541    3.0173    0.3709 C   0  0  0  0  0  0  0  0  0  0  0  0
    3.2834    3.9601   -0.5050 C   0  0  0  0  0  0  0  0  0  0  0  0
    3.8065    4.9073   -0.7087 H   0  0  0  0  0  0  0  0  0  0  0  0
    2.0437    3.7108   -1.1081 C   0  0  0  0  0  0  0  0  0  0  0  0
    1.5901    4.4679   -1.7690 H   0  0  0  0  0  0  0  0  0  0  0  0
    5.1673    3.2827    1.0648 C   0  0  0  0  0  0  0  0  0  0  0  0
    5.8268    2.3912    1.0401 H   0  0  0  0  0  0  0  0  0  0  0  0
    5.0115    3.5361    2.1356 H   0  0  0  0  0  0  0  0  0  0  0  0
    5.7141    4.1270    0.6010 H   0  0  0  0  0  0  0  0  0  0  0  0
  1  6  1  0  0  0  0
  2 20  1  0  0  0  0
  3  2  1  0  0  0  0
  4 20  1  0  0  0  0
  5  4  1  0  0  0  0
  6 14  2  0  0  0  0
  6  7  1  0  0  0  0
  7  9  2  0  0  0  0
  8  7  1  0  0  0  0
  9 10  1  0  0  0  0
  9 11  1  0  0  0  0
 11 16  1  0  0  0  0
 12 13  1  0  0  0  0
 12 11  2  0  0  0  0
 14 12  1  0  0  0  0
 15 14  1  0  0  0  0
 16 18  1  0  0  0  0
 16 19  1  0  0  0  0
 17 16  1  0  0  0  0
 20  1  1  6  0  0  0
 21  2  1  0  0  0  0
 22 23  1  0  0  0  0
 22 21  2  0  0  0  0
 24 26  2  0  0  0  0
 24 22  1  0  0  0  0
 25 24  1  0  0  0  0
 26 27  1  0  0  0  0
 27 28  1  0  0  0  0
 27 29  2  0  0  0  0
 29 21  1  0  0  0  0
 29 30  1  0  0  0  0
 31 26  1  0  0  0  0
 31 34  1  0  0  0  0
 32 31  1  0  0  0  0
 33 31  1  0  0  0  0
 35  4  1  6  0  0  0
 35 36  1  0  0  0  0
 36 37  1  0  0  0  0
 37 38  1  0  0  0  0
 39 37  2  0  0  0  0
 39 44  1  0  0  0  0
 40 39  1  0  0  0  0
 41 40  1  0  0  0  0
 42 35  1  0  0  0  0
 42 40  2  0  0  0  0
 43 42  1  0  0  0  0
 44 46  1  0  0  0  0
 45 44  1  0  0  0  0
 47 44  1  0  0  0  0
M  END
