1,6
 OpenBabel05122313053D

 21 21  0  0  0  0  0  0  0  0999 V2000
    1.3483    0.1227   -1.6221 N   0  0  0  0  0  2  0  0  0  0  0  0
    0.8339   -0.6727   -2.5367 C   0  0  0  0  0  0  0  0  0  0  0  0
    1.4414   -0.9491   -3.4204 H   0  0  0  0  0  0  0  0  0  0  0  0
   -0.4703   -1.1919   -2.3151 C   0  0  0  0  0  0  0  0  0  0  0  0
   -0.9386   -1.8832   -3.0346 H   0  0  0  0  0  0  0  0  0  0  0  0
   -1.0475   -0.8357   -1.1057 C   0  0  0  0  0  2  0  0  0  0  0  0
   -2.3628   -1.4072   -0.7581 C   0  0  0  0  0  0  0  0  0  0  0  0
   -2.4761   -2.4057    0.2375 C   0  0  0  0  0  0  0  0  0  0  0  0
   -1.5621   -2.7567    0.7389 H   0  0  0  0  0  0  0  0  0  0  0  0
   -3.7277   -2.9359    0.5773 C   0  0  0  0  0  0  0  0  0  0  0  0
   -3.7963   -3.7155    1.3521 H   0  0  0  0  0  0  0  0  0  0  0  0
   -4.8930   -2.4788   -0.0627 C   0  0  0  0  0  0  0  0  0  0  0  0
   -5.8754   -2.8918    0.2125 H   0  0  0  0  0  0  0  0  0  0  0  0
   -4.7928   -1.4984   -1.0623 C   0  0  0  0  0  0  0  0  0  0  0  0
   -5.6979   -1.1406   -1.5774 H   0  0  0  0  0  0  0  0  0  0  0  0
   -3.5391   -0.9720   -1.4122 C   0  0  0  0  0  0  0  0  0  0  0  0
   -3.4591   -0.2042   -2.1974 H   0  0  0  0  0  0  0  0  0  0  0  0
    2.7285    0.5381   -1.7842 C   0  0  0  0  0  0  0  0  0  0  0  0
    3.1811    0.0657   -2.6811 H   0  0  0  0  0  0  0  0  0  0  0  0
    3.3285    0.2384   -0.9024 H   0  0  0  0  0  0  0  0  0  0  0  0
    2.8132    1.6375   -1.8885 H   0  0  0  0  0  0  0  0  0  0  0  0
  2  4  2  0  0  0  0
  2  1  1  0  0  0  0
  3  2  1  0  0  0  0
  4  6  1  0  0  0  0
  5  4  1  0  0  0  0
  6  7  1  0  0  0  0
  7  8  1  0  0  0  0
  8 10  2  0  0  0  0
  8  9  1  0  0  0  0
 10 11  1  0  0  0  0
 12 13  1  0  0  0  0
 12 10  1  0  0  0  0
 14 12  2  0  0  0  0
 15 14  1  0  0  0  0
 16 14  1  0  0  0  0
 16  7  2  0  0  0  0
 17 16  1  0  0  0  0
 18  1  1  0  0  0  0
 18 20  1  0  0  0  0
 19 18  1  0  0  0  0
 21 18  1  0  0  0  0
M  END
