2,16
 OpenBabel05122313053D

 28 30  0  0  1  0  0  0  0  0999 V2000
   -2.3983    2.3674    0.0126 S   0  0  0  0  0  0  0  0  0  0  0  0
   -1.0847    0.0947   -0.0342 N   0  0  0  0  0  2  0  0  0  0  0  0
    0.3402    1.8844   -0.1801 N   0  0  0  0  0  0  0  0  0  0  0  0
    2.4875    1.6069   -0.2873 N   0  0  0  0  0  0  0  0  0  0  0  0
   -2.4304   -0.2624    0.1042 C   0  0  0  0  0  0  0  0  0  0  0  0
   -2.9729   -1.5552    0.2241 C   0  0  0  0  0  0  0  0  0  0  0  0
   -2.3167   -2.4324    0.2221 H   0  0  0  0  0  0  0  0  0  0  0  0
   -4.3573   -1.6986    0.3584 C   0  0  0  0  0  0  0  0  0  0  0  0
   -4.7860   -2.7067    0.4534 H   0  0  0  0  0  0  0  0  0  0  0  0
   -5.2117   -0.5762    0.3781 C   0  0  0  0  0  0  0  0  0  0  0  0
   -6.2970   -0.7170    0.4834 H   0  0  0  0  0  0  0  0  0  0  0  0
   -4.6953    0.7209    0.2724 C   0  0  0  0  0  0  0  0  0  0  0  0
   -5.3565    1.5986    0.2960 H   0  0  0  0  0  0  0  0  0  0  0  0
   -3.3072    0.8606    0.1401 C   0  0  0  0  0  0  0  0  0  0  0  0
   -0.9528    1.4184   -0.0801 C   0  0  2  0  0  3  0  0  0  0  0  0
    1.3233    0.8963   -0.2269 C   0  0  0  0  0  2  0  0  0  0  0  0
    0.8831    3.1669   -0.2083 C   0  0  0  0  0  0  0  0  0  0  0  0
    0.2782    4.0780   -0.1822 H   0  0  0  0  0  0  0  0  0  0  0  0
    2.2357    2.9808   -0.2728 C   0  0  0  0  0  0  0  0  0  0  0  0
    3.0462    3.7152   -0.3124 H   0  0  0  0  0  0  0  0  0  0  0  0
    3.8471    1.0529   -0.2735 C   0  0  0  0  0  0  0  0  0  0  0  0
    4.5212    1.8934   -0.5403 H   0  0  0  0  0  0  0  0  0  0  0  0
    3.9418    0.3068   -1.0866 H   0  0  0  0  0  0  0  0  0  0  0  0
    4.2393    0.4840    1.0657 C   0  0  0  0  0  0  0  0  0  0  0  0
    3.9121    1.0683    1.9439 H   0  0  0  0  0  0  0  0  0  0  0  0
    4.9957   -0.6132    1.2296 C   0  0  0  0  0  0  0  0  0  0  0  0
    5.3572   -1.2086    0.3741 H   0  0  0  0  0  0  0  0  0  0  0  0
    5.3077   -0.9455    2.2311 H   0  0  0  0  0  0  0  0  0  0  0  0
  1 14  1  0  0  0  0
  2  5  1  0  0  0  0
  4 21  1  0  0  0  0
  4 19  1  0  0  0  0
  4 16  1  0  0  0  0
  5 14  2  0  0  0  0
  5  6  1  0  0  0  0
  6  8  2  0  0  0  0
  7  6  1  0  0  0  0
  8 10  1  0  0  0  0
  8  9  1  0  0  0  0
 10 11  1  0  0  0  0
 12 13  1  0  0  0  0
 12 10  2  0  0  0  0
 14 12  1  0  0  0  0
 15  3  1  1  0  0  0
 15  2  1  0  0  0  0
 15  1  1  0  0  0  0
 16  3  1  0  0  0  0
 17 18  1  0  0  0  0
 17  3  1  0  0  0  0
 19 17  2  0  0  0  0
 20 19  1  0  0  0  0
 21 24  1  0  0  0  0
 22 21  1  0  0  0  0
 23 21  1  0  0  0  0
 24 26  2  0  0  0  0
 24 25  1  0  0  0  0
 26 28  1  0  0  0  0
 27 26  1  0  0  0  0
M  END
