1,2
 OpenBabel05122313053D

 33 34  0  0  0  0  0  0  0  0999 V2000
   -1.1025   -2.8499   -0.3522 N   0  0  0  0  0  2  0  0  0  0  0  0
   -2.2025   -0.4901    0.0154 C   0  0  0  0  0  2  0  0  0  0  0  0
   -2.9486   -1.6508    0.5592 C   0  0  0  0  0  0  0  0  0  0  0  0
   -2.3237   -2.9062    0.3244 C   0  0  0  0  0  0  0  0  0  0  0  0
   -2.9505   -4.0847    0.7947 C   0  0  0  0  0  0  0  0  0  0  0  0
   -2.4615   -5.0605    0.6688 H   0  0  0  0  0  0  0  0  0  0  0  0
   -4.1761   -4.0003    1.4681 C   0  0  0  0  0  0  0  0  0  0  0  0
   -4.6472   -4.9232    1.8410 H   0  0  0  0  0  0  0  0  0  0  0  0
   -4.7940   -2.7575    1.7001 C   0  0  0  0  0  0  0  0  0  0  0  0
   -5.7458   -2.7040    2.2488 H   0  0  0  0  0  0  0  0  0  0  0  0
   -4.1789   -1.5838    1.2454 C   0  0  0  0  0  0  0  0  0  0  0  0
   -4.6500   -0.6085    1.4277 H   0  0  0  0  0  0  0  0  0  0  0  0
   -0.7323   -3.8849   -1.1572 C   0  0  0  0  0  0  0  0  0  0  0  0
   -1.5123   -4.6977   -1.2221 H   0  0  0  0  0  0  0  0  0  0  0  0
    0.3184   -3.9816   -1.7993 O   0  0  0  0  0  0  0  0  0  0  0  0
   -2.6753    0.6770   -0.2094 N   0  0  0  0  0  2  0  0  0  0  0  0
   -3.9816    1.1704   -0.1206 C   0  0  0  0  0  0  0  0  0  0  0  0
   -4.9220    0.8713   -1.1456 C   0  0  0  0  0  0  0  0  0  0  0  0
   -6.1966    1.4601   -1.0716 C   0  0  0  0  0  0  0  0  0  0  0  0
   -6.9295    1.2315   -1.8619 H   0  0  0  0  0  0  0  0  0  0  0  0
   -6.5458    2.3199   -0.0201 C   0  0  0  0  0  0  0  0  0  0  0  0
   -7.5501    2.7677    0.0190 H   0  0  0  0  0  0  0  0  0  0  0  0
   -5.6045    2.6081    0.9791 C   0  0  0  0  0  0  0  0  0  0  0  0
   -5.8701    3.2809    1.8104 H   0  0  0  0  0  0  0  0  0  0  0  0
   -4.3142    2.0519    0.9447 C   0  0  0  0  0  0  0  0  0  0  0  0
   -3.2981    2.3335    2.0205 C   0  0  0  0  0  0  0  0  0  0  0  0
   -3.6958    3.0383    2.7758 H   0  0  0  0  0  0  0  0  0  0  0  0
   -2.3655    2.7649    1.5990 H   0  0  0  0  0  0  0  0  0  0  0  0
   -2.9924    1.4025    2.5445 H   0  0  0  0  0  0  0  0  0  0  0  0
   -4.5437   -0.0629   -2.2633 C   0  0  0  0  0  0  0  0  0  0  0  0
   -5.3195   -0.0794   -3.0524 H   0  0  0  0  0  0  0  0  0  0  0  0
   -4.4087   -1.1020   -1.8942 H   0  0  0  0  0  0  0  0  0  0  0  0
   -3.5757    0.2288   -2.7214 H   0  0  0  0  0  0  0  0  0  0  0  0
  1  4  1  0  0  0  0
  2  3  1  0  0  0  0
  3 11  1  0  0  0  0
  4  3  2  0  0  0  0
  4  5  1  0  0  0  0
  5  7  2  0  0  0  0
  6  5  1  0  0  0  0
  7  9  1  0  0  0  0
  7  8  1  0  0  0  0
  9 10  1  0  0  0  0
 11 12  1  0  0  0  0
 11  9  2  0  0  0  0
 13  1  1  0  0  0  0
 14 13  1  0  0  0  0
 15 13  2  0  0  0  0
 16 17  1  0  0  0  0
 16  2  1  0  0  0  0
 17 25  1  0  0  0  0
 18 19  1  0  0  0  0
 18 17  2  0  0  0  0
 19 21  2  0  0  0  0
 20 19  1  0  0  0  0
 21 22  1  0  0  0  0
 21 23  1  0  0  0  0
 23 24  1  0  0  0  0
 25 23  2  0  0  0  0
 25 26  1  0  0  0  0
 26 29  1  0  0  0  0
 26 27  1  0  0  0  0
 28 26  1  0  0  0  0
 30 32  1  0  0  0  0
 30 18  1  0  0  0  0
 31 30  1  0  0  0  0
 33 30  1  0  0  0  0
M  END
