1,49
 OpenBabel05122313053D

 49 50  0  0  1  0  0  0  0  0999 V2000
    0.5179   -0.1815    0.7014 N   0  0  0  0  0  2  0  0  0  0  0  0
   -2.0755   -0.4053    1.9993 N   0  0  0  0  0  0  0  0  0  0  0  0
   -3.4516   -0.6490    0.3478 N   0  0  0  0  0  0  0  0  0  0  0  0
    1.6646   -0.6144   -0.0530 C   0  0  0  0  0  0  0  0  0  0  0  0
    2.9278   -0.0095    0.1812 C   0  0  0  0  0  0  0  0  0  0  0  0
    4.0108   -0.4521   -0.6013 C   0  0  0  0  0  0  0  0  0  0  0  0
    4.9999    0.0052   -0.4464 H   0  0  0  0  0  0  0  0  0  0  0  0
    3.8553   -1.4446   -1.5744 C   0  0  0  0  0  0  0  0  0  0  0  0
    4.7190   -1.7699   -2.1735 H   0  0  0  0  0  0  0  0  0  0  0  0
    2.5957   -2.0157   -1.7900 C   0  0  0  0  0  0  0  0  0  0  0  0
    2.4737   -2.7903   -2.5622 H   0  0  0  0  0  0  0  0  0  0  0  0
    1.4762   -1.6119   -1.0422 C   0  0  0  0  0  0  0  0  0  0  0  0
    0.1060   -2.2126   -1.3338 C   0  0  0  0  0  0  0  0  0  0  0  0
   -0.5932   -1.8514   -0.5524 H   0  0  0  0  0  0  0  0  0  0  0  0
    0.1110   -3.7476   -1.2660 C   0  0  0  0  0  0  0  0  0  0  0  0
    0.7570   -4.1929   -2.0503 H   0  0  0  0  0  0  0  0  0  0  0  0
   -0.9128   -4.1466   -1.4200 H   0  0  0  0  0  0  0  0  0  0  0  0
    0.4783   -4.1116   -0.2846 H   0  0  0  0  0  0  0  0  0  0  0  0
   -0.4221   -1.6949   -2.6841 C   0  0  0  0  0  0  0  0  0  0  0  0
   -0.4357   -0.5862   -2.7018 H   0  0  0  0  0  0  0  0  0  0  0  0
   -1.4524   -2.0631   -2.8718 H   0  0  0  0  0  0  0  0  0  0  0  0
    0.2191   -2.0417   -3.5206 H   0  0  0  0  0  0  0  0  0  0  0  0
    3.1558    1.0911    1.2136 C   0  0  0  0  0  0  0  0  0  0  0  0
    2.1825    1.3161    1.6949 H   0  0  0  0  0  0  0  0  0  0  0  0
    4.1421    0.6433    2.3090 C   0  0  0  0  0  0  0  0  0  0  0  0
    3.8325   -0.2991    2.8029 H   0  0  0  0  0  0  0  0  0  0  0  0
    4.2377    1.4259    3.0894 H   0  0  0  0  0  0  0  0  0  0  0  0
    5.1544    0.4747    1.8872 H   0  0  0  0  0  0  0  0  0  0  0  0
    3.6339    2.3963    0.5538 C   0  0  0  0  0  0  0  0  0  0  0  0
    4.6190    2.2601    0.0612 H   0  0  0  0  0  0  0  0  0  0  0  0
    3.7497    3.1917    1.3186 H   0  0  0  0  0  0  0  0  0  0  0  0
    2.8992    2.7295   -0.2043 H   0  0  0  0  0  0  0  0  0  0  0  0
    1.2538   -1.5147    2.6644 C   0  0  0  0  0  0  0  0  0  0  0  0
    2.0726   -1.8913    2.0269 H   0  0  0  0  0  0  0  0  0  0  0  0
    0.6426   -2.3702    3.0250 H   0  0  0  0  0  0  0  0  0  0  0  0
    1.6882   -1.0344    3.5666 H   0  0  0  0  0  0  0  0  0  0  0  0
    0.3651   -0.5550    1.9366 C   0  0  2  0  0  3  0  0  0  0  0  0
   -0.8490   -0.0244    2.6861 C   0  0  0  0  0  0  0  0  0  0  0  0
   -0.8827   -0.4190    3.7179 H   0  0  0  0  0  0  0  0  0  0  0  0
   -0.7910    1.0846    2.7263 H   0  0  0  0  0  0  0  0  0  0  0  0
   -3.0870   -1.2372    2.4620 C   0  0  0  0  0  0  0  0  0  0  0  0
   -3.1189   -1.6229    3.4852 H   0  0  0  0  0  0  0  0  0  0  0  0
   -3.9592   -1.3836    1.4140 C   0  0  0  0  0  0  0  0  0  0  0  0
   -4.8990   -1.9387    1.3407 H   0  0  0  0  0  0  0  0  0  0  0  0
   -4.0372   -0.6265   -0.9884 C   0  0  0  0  0  0  0  0  0  0  0  0
   -5.1389   -0.6653   -0.9031 H   0  0  0  0  0  0  0  0  0  0  0  0
   -3.6794   -1.4951   -1.5772 H   0  0  0  0  0  0  0  0  0  0  0  0
   -3.7296    0.3195   -1.4774 H   0  0  0  0  0  0  0  0  0  0  0  0
   -2.2809   -0.0391    0.6980 C   0  0  0  0  0  2  0  0  0  0  0  0
  2 41  1  0  0  0  0
  2 38  1  0  0  0  0
  3 49  1  0  0  0  0
  3 43  1  0  0  0  0
  4  5  1  0  0  0  0
  4  1  1  0  0  0  0
  5 23  1  0  0  0  0
  6  7  1  0  0  0  0
  6  5  2  0  0  0  0
  8  6  1  0  0  0  0
  9  8  1  0  0  0  0
 10  8  2  0  0  0  0
 10 12  1  0  0  0  0
 11 10  1  0  0  0  0
 12  4  2  0  0  0  0
 13 15  1  0  0  0  0
 13 12  1  0  0  0  0
 13 14  1  0  0  0  0
 15 18  1  0  0  0  0
 16 15  1  0  0  0  0
 17 15  1  0  0  0  0
 19 13  1  0  0  0  0
 20 19  1  0  0  0  0
 21 19  1  0  0  0  0
 22 19  1  0  0  0  0
 23 24  1  0  0  0  0
 23 25  1  0  0  0  0
 25 26  1  0  0  0  0
 25 27  1  0  0  0  0
 28 25  1  0  0  0  0
 29 23  1  0  0  0  0
 29 31  1  0  0  0  0
 30 29  1  0  0  0  0
 32 29  1  0  0  0  0
 33 35  1  0  0  0  0
 33 36  1  0  0  0  0
 34 33  1  0  0  0  0
 37  1  1  6  0  0  0
 37 33  1  0  0  0  0
 37 38  1  0  0  0  0
 38 40  1  0  0  0  0
 38 39  1  0  0  0  0
 41 42  1  0  0  0  0
 43 41  2  0  0  0  0
 44 43  1  0  0  0  0
 45 46  1  0  0  0  0
 45  3  1  0  0  0  0
 47 45  1  0  0  0  0
 48 45  1  0  0  0  0
 49  2  1  0  0  0  0
M  END
