1,29
 OpenBabel05122313053D

 57 62  0  0  0  0  0  0  0  0999 V2000
   -1.1631    0.0362   -1.1855 N   0  0  0  0  0  0  0  0  0  0  0  0
    0.7435    2.1362   -0.0532 C   0  0  0  0  0  3  0  0  0  0  0  0
    1.7860    2.4776    0.0687 H   0  0  0  0  0  0  0  0  0  0  0  0
    0.0124   -1.6572    1.1237 C   0  0  0  0  0  3  0  0  0  0  0  0
    0.6359   -1.7767    2.0223 H   0  0  0  0  0  0  0  0  0  0  0  0
    0.5880   -2.2091   -0.0818 C   0  0  0  0  0  3  0  0  0  0  0  0
    1.6054   -2.6180    0.0400 H   0  0  0  0  0  0  0  0  0  0  0  0
    0.3591   -4.0546   -1.7370 C   0  0  0  0  0  0  0  0  0  0  0  0
    1.3541   -4.4033   -1.4170 H   0  0  0  0  0  0  0  0  0  0  0  0
   -1.2909    1.6859    1.4756 C   0  0  0  0  0  0  0  0  0  0  0  0
   -1.4247   -1.6449    1.4375 C   0  0  0  0  0  0  0  0  0  0  0  0
   -2.0449   -1.1721   -0.9917 C   0  0  0  0  0  0  0  0  0  0  0  0
   -2.9833   -0.9689   -1.5524 H   0  0  0  0  0  0  0  0  0  0  0  0
   -0.1786   -2.8979   -1.1304 C   0  0  0  0  0  0  0  0  0  0  0  0
   -1.6794    1.9096    2.8172 C   0  0  0  0  0  0  0  0  0  0  0  0
   -0.8932    1.9901    3.5852 H   0  0  0  0  0  0  0  0  0  0  0  0
   -1.2825    2.5300   -1.5193 C   0  0  0  0  0  0  0  0  0  0  0  0
   -2.3133    1.5595    0.4948 C   0  0  0  0  0  0  0  0  0  0  0  0
   -3.6566    1.7334    0.8671 C   0  0  0  0  0  0  0  0  0  0  0  0
   -4.4353    1.6426    0.0928 H   0  0  0  0  0  0  0  0  0  0  0  0
   -1.9589    1.2977   -0.9591 C   0  0  0  0  0  0  0  0  0  0  0  0
   -2.9140    1.1701   -1.5140 H   0  0  0  0  0  0  0  0  0  0  0  0
   -1.9502    3.3252   -2.4654 C   0  0  0  0  0  0  0  0  0  0  0  0
   -2.9601    3.0289   -2.7909 H   0  0  0  0  0  0  0  0  0  0  0  0
    0.0173    2.8972   -1.0805 C   0  0  0  0  0  0  0  0  0  0  0  0
    0.6276    4.0261   -1.6705 C   0  0  0  0  0  0  0  0  0  0  0  0
    1.6450    4.3028   -1.3502 H   0  0  0  0  0  0  0  0  0  0  0  0
   -2.4294   -1.4361    0.4531 C   0  0  0  0  0  0  0  0  0  0  0  0
    0.1416    1.6036    1.1515 C   0  0  0  0  0  3  0  0  0  0  0  0
    0.7805    1.6666    2.0464 H   0  0  0  0  0  0  0  0  0  0  0  0
   -2.1623   -3.1710   -2.5312 C   0  0  0  0  0  0  0  0  0  0  0  0
   -3.1484   -2.8029   -2.8563 H   0  0  0  0  0  0  0  0  0  0  0  0
   -4.0217    1.9790    2.1964 C   0  0  0  0  0  0  0  0  0  0  0  0
   -5.0821    2.0914    2.4672 H   0  0  0  0  0  0  0  0  0  0  0  0
   -4.1742   -1.7709    2.1357 C   0  0  0  0  0  0  0  0  0  0  0  0
   -5.2416   -1.8193    2.3979 H   0  0  0  0  0  0  0  0  0  0  0  0
   -0.0376    4.8020   -2.6275 C   0  0  0  0  0  0  0  0  0  0  0  0
    0.4597    5.6819   -3.0638 H   0  0  0  0  0  0  0  0  0  0  0  0
   -1.8369   -1.8622    2.7732 C   0  0  0  0  0  0  0  0  0  0  0  0
   -1.0637   -2.0048    3.5453 H   0  0  0  0  0  0  0  0  0  0  0  0
   -3.7841   -1.5286    0.8129 C   0  0  0  0  0  0  0  0  0  0  0  0
   -4.5492   -1.3755    0.0348 H   0  0  0  0  0  0  0  0  0  0  0  0
   -1.4482   -2.4371   -1.5694 C   0  0  0  0  0  0  0  0  0  0  0  0
   -3.1891   -1.9254    3.1244 C   0  0  0  0  0  0  0  0  0  0  0  0
   -3.4768   -2.0998    4.1724 H   0  0  0  0  0  0  0  0  0  0  0  0
   -3.0223    2.0547    3.1797 C   0  0  0  0  0  0  0  0  0  0  0  0
   -3.2912    2.2314    4.2324 H   0  0  0  0  0  0  0  0  0  0  0  0
   -0.3509   -4.7687   -2.7096 C   0  0  0  0  0  0  0  0  0  0  0  0
    0.0894   -5.6722   -3.1587 H   0  0  0  0  0  0  0  0  0  0  0  0
   -1.6270   -4.3334   -3.1020 C   0  0  0  0  0  0  0  0  0  0  0  0
   -2.1963   -4.8877   -3.8632 H   0  0  0  0  0  0  0  0  0  0  0  0
   -1.3412    4.4588   -3.0204 C   0  0  0  0  0  0  0  0  0  0  0  0
   -1.8756    5.0621   -3.7696 H   0  0  0  0  0  0  0  0  0  0  0  0
   -0.1840    0.0126   -2.3901 B   0  0  0  0  0  0  0  0  0  0  0  0
   -0.2191   -1.0022   -3.0632 H   0  0  0  0  0  0  0  0  0  0  0  0
    1.0794   -0.0825   -1.8617 H   0  0  0  0  0  0  0  0  0  0  0  0
   -0.1148    1.0506   -3.0225 H   0  0  0  0  0  0  0  0  0  0  0  0
  1 12  1  0  0  0  0
  1 21  1  0  0  0  0
  2  3  1  0  0  0  0
  2 29  1  0  0  0  0
  4 11  1  0  0  0  0
  4  5  1  0  0  0  0
  6  7  1  0  0  0  0
  6  4  1  0  0  0  0
  8  9  1  0  0  0  0
  8 14  1  0  0  0  0
 10 15  1  0  0  0  0
 11 39  1  0  0  0  0
 12 28  1  0  0  0  0
 13 12  1  0  0  0  0
 14  6  1  0  0  0  0
 15 46  2  0  0  0  0
 15 16  1  0  0  0  0
 17 25  1  0  0  0  0
 17 21  1  0  0  0  0
 18 19  1  0  0  0  0
 18 10  2  0  0  0  0
 19 33  2  0  0  0  0
 20 19  1  0  0  0  0
 21 18  1  0  0  0  0
 22 21  1  0  0  0  0
 23 17  2  0  0  0  0
 24 23  1  0  0  0  0
 25  2  1  0  0  0  0
 26 27  1  0  0  0  0
 26 25  2  0  0  0  0
 28 41  1  0  0  0  0
 28 11  2  0  0  0  0
 29 10  1  0  0  0  0
 29 30  1  0  0  0  0
 31 43  1  0  0  0  0
 32 31  1  0  0  0  0
 33 34  1  0  0  0  0
 33 46  1  0  0  0  0
 35 36  1  0  0  0  0
 35 44  1  0  0  0  0
 37 26  1  0  0  0  0
 38 37  1  0  0  0  0
 39 44  2  0  0  0  0
 39 40  1  0  0  0  0
 41 35  2  0  0  0  0
 42 41  1  0  0  0  0
 43 14  2  0  0  0  0
 43 12  1  0  0  0  0
 44 45  1  0  0  0  0
 46 47  1  0  0  0  0
 48  8  2  0  0  0  0
 49 48  1  0  0  0  0
 50 48  1  0  0  0  0
 50 31  2  0  0  0  0
 51 50  1  0  0  0  0
 52 37  2  0  0  0  0
 52 23  1  0  0  0  0
 53 52  1  0  0  0  0
 54 56  1  0  0  0  0
 54  1  1  0  0  0  0
 55 54  1  0  0  0  0
 57 54  1  0  0  0  0
M  END
