1,10
 OpenBabel05122313053D

 39 42  0  0  0  0  0  0  0  0999 V2000
    0.3678   -0.4215    1.3562 N   0  0  0  0  0  0  0  0  0  0  0  0
   -1.5075   -0.3508    2.6227 N   0  0  0  0  0  0  0  0  0  0  0  0
   -1.0151   -0.3286    1.3902 C   0  0  0  0  0  0  0  0  0  0  0  0
    0.7502   -0.5350    2.6864 C   0  0  0  0  0  3  0  0  0  0  0  0
    1.7998   -0.6570    2.9780 H   0  0  0  0  0  0  0  0  0  0  0  0
   -0.4102   -0.4906    3.4456 C   0  0  0  0  0  0  0  0  0  0  0  0
   -0.5155   -0.5612    4.5362 H   0  0  0  0  0  0  0  0  0  0  0  0
   -1.7951   -0.1141    0.0914 C   0  0  0  0  0  0  0  0  0  0  0  0
   -0.7701   -0.2887   -1.0302 C   0  0  0  0  0  0  0  0  0  0  0  0
   -0.1284   -1.5307   -1.3596 C   0  0  0  0  0  3  0  0  0  0  0  0
   -0.3736   -2.5000   -0.9087 H   0  0  0  0  0  0  0  0  0  0  0  0
    0.8789   -1.2768   -2.3278 C   0  0  0  0  0  0  0  0  0  0  0  0
    1.5488   -2.0175   -2.7790 H   0  0  0  0  0  0  0  0  0  0  0  0
    0.8749    0.1254   -2.5954 C   0  0  0  0  0  0  0  0  0  0  0  0
    1.5407    0.6446   -3.2951 H   0  0  0  0  0  0  0  0  0  0  0  0
   -0.1633    0.7229   -1.8197 C   0  0  0  0  0  0  0  0  0  0  0  0
   -0.4189    1.7872   -1.7779 H   0  0  0  0  0  0  0  0  0  0  0  0
   -2.9554   -1.1183   -0.0789 C   0  0  0  0  0  0  0  0  0  0  0  0
   -3.3081   -1.5928   -1.3592 C   0  0  0  0  0  0  0  0  0  0  0  0
   -2.7189   -1.2851   -2.2358 H   0  0  0  0  0  0  0  0  0  0  0  0
   -4.4085   -2.4469   -1.5344 C   0  0  0  0  0  0  0  0  0  0  0  0
   -4.6639   -2.8053   -2.5436 H   0  0  0  0  0  0  0  0  0  0  0  0
   -5.1775   -2.8405   -0.4293 C   0  0  0  0  0  0  0  0  0  0  0  0
   -6.0390   -3.5128   -0.5634 H   0  0  0  0  0  0  0  0  0  0  0  0
   -4.8379   -2.3663    0.8476 C   0  0  0  0  0  0  0  0  0  0  0  0
   -5.4352   -2.6656    1.7229 H   0  0  0  0  0  0  0  0  0  0  0  0
   -3.7414   -1.5094    1.0236 C   0  0  0  0  0  0  0  0  0  0  0  0
   -3.4642   -1.1352    2.0207 H   0  0  0  0  0  0  0  0  0  0  0  0
   -2.3357    1.3386    0.0557 C   0  0  0  0  0  0  0  0  0  0  0  0
   -3.5472    1.6676   -0.5793 C   0  0  0  0  0  0  0  0  0  0  0  0
   -4.1668    0.8713   -1.0151 H   0  0  0  0  0  0  0  0  0  0  0  0
   -3.9781    3.0024   -0.6545 C   0  0  0  0  0  0  0  0  0  0  0  0
   -4.9327    3.2360   -1.1506 H   0  0  0  0  0  0  0  0  0  0  0  0
   -3.2045    4.0313   -0.0980 C   0  0  0  0  0  0  0  0  0  0  0  0
   -3.5458    5.0763   -0.1537 H   0  0  0  0  0  0  0  0  0  0  0  0
   -1.9945    3.7128    0.5395 C   0  0  0  0  0  0  0  0  0  0  0  0
   -1.3780    4.5071    0.9884 H   0  0  0  0  0  0  0  0  0  0  0  0
   -1.5690    2.3797    0.6177 C   0  0  0  0  0  0  0  0  0  0  0  0
   -0.6204    2.1396    1.1179 H   0  0  0  0  0  0  0  0  0  0  0  0
  1  3  2  0  0  0  0
  1  4  1  0  0  0  0
  2  6  2  0  0  0  0
  3  2  1  0  0  0  0
  4  5  1  0  0  0  0
  4  6  1  0  0  0  0
  6  7  1  0  0  0  0
  8  3  1  0  0  0  0
  9  8  1  0  0  0  0
 10  9  1  0  0  0  0
 10 11  1  0  0  0  0
 12 10  1  0  0  0  0
 13 12  1  0  0  0  0
 14 12  2  0  0  0  0
 14 16  1  0  0  0  0
 15 14  1  0  0  0  0
 16 17  1  0  0  0  0
 16  9  2  0  0  0  0
 18  8  1  0  0  0  0
 18 27  1  0  0  0  0
 19 18  2  0  0  0  0
 20 19  1  0  0  0  0
 21 19  1  0  0  0  0
 21 23  2  0  0  0  0
 22 21  1  0  0  0  0
 23 25  1  0  0  0  0
 24 23  1  0  0  0  0
 25 27  2  0  0  0  0
 25 26  1  0  0  0  0
 27 28  1  0  0  0  0
 29  8  1  0  0  0  0
 29 38  1  0  0  0  0
 30 29  2  0  0  0  0
 31 30  1  0  0  0  0
 32 30  1  0  0  0  0
 32 34  2  0  0  0  0
 33 32  1  0  0  0  0
 34 36  1  0  0  0  0
 35 34  1  0  0  0  0
 36 38  2  0  0  0  0
 36 37  1  0  0  0  0
 38 39  1  0  0  0  0
M  END
