1,10
 OpenBabel05122313053D

 34 35  0  0  1  0  0  0  0  0999 V2000
    0.9139    0.9512    0.0003 N   0  0  0  0  0  2  0  0  0  0  0  0
    1.6293   -0.2029    0.0002 N   0  0  0  0  0  0  0  0  0  0  0  0
    1.3046    3.3872    0.0004 C   0  0  0  0  0  0  0  0  0  0  0  0
    1.7830    1.9726    0.0003 C   0  0  1  0  0  3  0  0  0  0  0  0
    3.1014    1.4461    0.0002 C   0  0  0  0  0  0  0  0  0  0  0  0
    2.9776    0.0517    0.0001 C   0  0  0  0  0  0  0  0  0  0  0  0
    4.0690   -0.9707   -0.0000 C   0  0  0  0  0  0  0  0  0  0  0  0
    0.7229   -1.3699    0.0001 C   0  0  1  0  0  0  0  0  0  0  0  0
   -0.4324   -1.2075    1.0244 C   0  0  1  0  0  3  0  0  0  0  0  0
   -1.4210   -1.5034   -0.0001 C   0  0  1  0  0  3  0  0  0  0  0  0
   -0.4322   -1.2074   -1.0244 C   0  0  2  0  0  3  0  0  0  0  0  0
    1.4489   -2.7086    0.0001 C   0  0  0  0  0  0  0  0  0  0  0  0
   -0.3913   -1.4383    2.4989 C   0  0  0  0  0  0  0  0  0  0  0  0
   -2.7626   -2.1516   -0.0003 C   0  0  0  0  0  0  0  0  0  0  0  0
   -0.3909   -1.4381   -2.4990 C   0  0  0  0  0  0  0  0  0  0  0  0
    1.6636    3.9373    0.8942 H   0  0  0  0  0  0  0  0  0  0  0  0
    1.6640    3.9376   -0.8932 H   0  0  0  0  0  0  0  0  0  0  0  0
    0.1981    3.4020    0.0002 H   0  0  0  0  0  0  0  0  0  0  0  0
    4.0424    2.0070    0.0001 H   0  0  0  0  0  0  0  0  0  0  0  0
    4.0388   -1.6263   -0.8932 H   0  0  0  0  0  0  0  0  0  0  0  0
    5.0451   -0.4513   -0.0000 H   0  0  0  0  0  0  0  0  0  0  0  0
    4.0388   -1.6265    0.8930 H   0  0  0  0  0  0  0  0  0  0  0  0
    0.6893   -3.5138    0.0000 H   0  0  0  0  0  0  0  0  0  0  0  0
    2.0820   -2.8411   -0.8992 H   0  0  0  0  0  0  0  0  0  0  0  0
    2.0819   -2.8411    0.8995 H   0  0  0  0  0  0  0  0  0  0  0  0
    0.3525   -0.7759    2.9869 H   0  0  0  0  0  0  0  0  0  0  0  0
   -1.3761   -1.2343    2.9640 H   0  0  0  0  0  0  0  0  0  0  0  0
   -0.1125   -2.4888    2.7412 H   0  0  0  0  0  0  0  0  0  0  0  0
   -3.3474   -1.8620   -0.8957 H   0  0  0  0  0  0  0  0  0  0  0  0
   -2.6722   -3.2613   -0.0004 H   0  0  0  0  0  0  0  0  0  0  0  0
   -3.3476   -1.8621    0.8950 H   0  0  0  0  0  0  0  0  0  0  0  0
   -1.3756   -1.2341   -2.9643 H   0  0  0  0  0  0  0  0  0  0  0  0
    0.3531   -0.7757   -2.9868 H   0  0  0  0  0  0  0  0  0  0  0  0
   -0.1121   -2.4886   -2.7413 H   0  0  0  0  0  0  0  0  0  0  0  0
  2  1  1  0  0  0  0
  3 16  1  0  0  0  0
  4  1  1  0  0  0  0
  4  3  1  1  0  0  0
  5  4  1  0  0  0  0
  6  5  2  0  0  0  0
  6  2  1  0  0  0  0
  7 21  1  0  0  0  0
  7  6  1  0  0  0  0
  7 22  1  0  0  0  0
  8 12  1  6  0  0  0
  8  2  1  0  0  0  0
  8  9  1  0  0  0  0
  9 13  1  1  0  0  0
 10 14  1  6  0  0  0
 10  9  1  0  0  0  0
 11 15  1  6  0  0  0
 11 10  1  0  0  0  0
 11  8  1  0  0  0  0
 12 25  1  0  0  0  0
 13 28  1  0  0  0  0
 13 27  1  0  0  0  0
 13 26  1  0  0  0  0
 14 31  1  0  0  0  0
 17  3  1  0  0  0  0
 18  3  1  0  0  0  0
 19  5  1  0  0  0  0
 20  7  1  0  0  0  0
 23 12  1  0  0  0  0
 24 12  1  0  0  0  0
 29 14  1  0  0  0  0
 30 14  1  0  0  0  0
 32 15  1  0  0  0  0
 33 15  1  0  0  0  0
 34 15  1  0  0  0  0
M  END
