1,3
 OpenBabel05122313053D

 25 25  0  0  0  0  0  0  0  0999 V2000
    2.4359   -1.2011    0.2536 N   0  0  0  0  0  0  0  0  0  0  0  0
    2.8884   -1.2547   -0.6688 H   0  0  0  0  0  0  0  0  0  0  0  0
    1.3721   -3.2994    0.3762 C   0  0  0  0  0  3  0  0  0  0  0  0
    0.8439   -3.8977    1.1468 H   0  0  0  0  0  0  0  0  0  0  0  0
    1.6226   -3.9576   -0.4846 H   0  0  0  0  0  0  0  0  0  0  0  0
    2.9515    1.6761    2.6326 C   0  0  0  0  0  0  0  0  0  0  0  0
    2.4572    2.1445    3.4978 H   0  0  0  0  0  0  0  0  0  0  0  0
    4.9258   -0.1977   -0.7190 C   0  0  0  0  0  0  0  0  0  0  0  0
    4.3048   -0.2249   -1.6398 H   0  0  0  0  0  0  0  0  0  0  0  0
    5.2222   -1.2404   -0.4753 H   0  0  0  0  0  0  0  0  0  0  0  0
    5.8473    0.3549   -0.9812 H   0  0  0  0  0  0  0  0  0  0  0  0
    4.7657    1.6131    1.0357 C   0  0  0  0  0  0  0  0  0  0  0  0
    5.7043    2.0254    0.6352 H   0  0  0  0  0  0  0  0  0  0  0  0
    2.3536    0.5340    2.0613 C   0  0  0  0  0  0  0  0  0  0  0  0
    2.9906   -0.0428    0.9345 C   0  0  0  0  0  0  0  0  0  0  0  0
    1.1008   -0.0215    2.6840 C   0  0  0  0  0  0  0  0  0  0  0  0
    0.5697    0.7601    3.2594 H   0  0  0  0  0  0  0  0  0  0  0  0
    1.3313   -0.8521    3.3858 H   0  0  0  0  0  0  0  0  0  0  0  0
    0.4067   -0.4356    1.9179 H   0  0  0  0  0  0  0  0  0  0  0  0
    4.2124    0.4725    0.4304 C   0  0  0  0  0  0  0  0  0  0  0  0
    4.1366    2.2199    2.1284 C   0  0  0  0  0  0  0  0  0  0  0  0
    4.5730    3.1186    2.5895 H   0  0  0  0  0  0  0  0  0  0  0  0
    2.5890   -2.5562    0.9250 C   0  0  0  0  0  0  0  0  0  0  0  0
    3.5981   -2.9794    0.7162 H   0  0  0  0  0  0  0  0  0  0  0  0
    2.5179   -2.3841    2.0150 H   0  0  0  0  0  0  0  0  0  0  0  0
  1 23  1  0  0  0  0
  1 15  1  0  0  0  0
  2  1  1  0  0  0  0
  3 23  1  0  0  0  0
  3  4  1  0  0  0  0
  5  3  1  0  0  0  0
  6  7  1  0  0  0  0
  8 10  1  0  0  0  0
  8 20  1  0  0  0  0
  9  8  1  0  0  0  0
 11  8  1  0  0  0  0
 12 21  2  0  0  0  0
 13 12  1  0  0  0  0
 14  6  2  0  0  0  0
 14 16  1  0  0  0  0
 15 14  1  0  0  0  0
 16 17  1  0  0  0  0
 16 18  1  0  0  0  0
 19 16  1  0  0  0  0
 20 15  2  0  0  0  0
 20 12  1  0  0  0  0
 21 22  1  0  0  0  0
 21  6  1  0  0  0  0
 23 25  1  0  0  0  0
 24 23  1  0  0  0  0
M  END
