1,17
 OpenBabel05122313053D

 26 27  0  0  1  0  0  0  0  0999 V2000
   -2.0203    0.1643    0.2674 N   0  0  0  0  0  2  0  0  0  0  0  0
   -2.7152   -0.6458   -0.6057 C   0  0  2  0  0  3  0  0  0  0  0  0
   -4.1189   -0.7045   -0.5290 C   0  0  0  0  0  0  0  0  0  0  0  0
   -4.6797   -1.3435   -1.2224 H   0  0  0  0  0  0  0  0  0  0  0  0
   -4.8043    0.0470    0.4350 C   0  0  0  0  0  0  0  0  0  0  0  0
   -4.0646    0.8549    1.3244 C   0  0  0  0  0  0  0  0  0  0  0  0
   -4.5866    1.4446    2.0898 H   0  0  0  0  0  0  0  0  0  0  0  0
   -2.6785    0.8839    1.2070 C   0  0  0  0  0  0  0  0  0  0  0  0
   -2.0383    1.4841    1.8695 H   0  0  0  0  0  0  0  0  0  0  0  0
   -6.2930    0.0274    0.5682 C   0  0  0  0  0  0  0  0  0  0  0  0
   -6.9181    0.6661    1.3975 O   0  0  0  0  0  0  0  0  0  0  0  0
   -8.3035   -0.8584   -0.2781 C   0  0  0  0  0  0  0  0  0  0  0  0
   -8.6328   -1.2334    0.7120 H   0  0  0  0  0  0  0  0  0  0  0  0
   -8.6146   -1.5532   -1.0779 H   0  0  0  0  0  0  0  0  0  0  0  0
   -8.7546    0.1422   -0.4353 H   0  0  0  0  0  0  0  0  0  0  0  0
   -6.8750   -0.7882   -0.3453 O   0  0  0  0  0  0  0  0  0  0  0  0
   -0.4589   -1.1725   -1.3582 C   0  0  0  0  0  3  0  0  0  0  0  0
   -1.8636   -1.3962   -1.5223 C   0  0  0  0  0  0  0  0  0  0  0  0
   -2.3506   -2.3029   -2.4894 C   0  0  0  0  0  0  0  0  0  0  0  0
   -3.4339   -2.4600   -2.6094 H   0  0  0  0  0  0  0  0  0  0  0  0
   -1.4557   -3.0083   -3.2982 C   0  0  0  0  0  0  0  0  0  0  0  0
   -1.8311   -3.7158   -4.0523 H   0  0  0  0  0  0  0  0  0  0  0  0
   -0.0698   -2.8109   -3.1356 C   0  0  0  0  0  0  0  0  0  0  0  0
    0.6376   -3.3729   -3.7661 H   0  0  0  0  0  0  0  0  0  0  0  0
    0.4205   -1.9095   -2.1797 C   0  0  0  0  0  0  0  0  0  0  0  0
    1.5081   -1.7782   -2.0730 H   0  0  0  0  0  0  0  0  0  0  0  0
  1  8  1  0  0  0  0
  2 18  1  1  0  0  0
  2  3  1  0  0  0  0
  2  1  1  0  0  0  0
  3  5  2  0  0  0  0
  4  3  1  0  0  0  0
  5 10  1  0  0  0  0
  5  6  1  0  0  0  0
  6  7  1  0  0  0  0
  8  6  2  0  0  0  0
  8  9  1  0  0  0  0
 10 11  2  0  0  0  0
 12 13  1  0  0  0  0
 14 12  1  0  0  0  0
 15 12  1  0  0  0  0
 16 12  1  0  0  0  0
 16 10  1  0  0  0  0
 18 17  1  0  0  0  0
 19 18  2  0  0  0  0
 20 19  1  0  0  0  0
 21 23  2  0  0  0  0
 21 19  1  0  0  0  0
 22 21  1  0  0  0  0
 23 25  1  0  0  0  0
 24 23  1  0  0  0  0
 25 26  1  0  0  0  0
 25 17  2  0  0  0  0
M  END
