3,15
 OpenBabel05122313053D

 43 45  0  0  1  0  0  0  0  0999 V2000
    2.1888   -0.4643   -1.1074 N   0  0  0  0  0  0  0  0  0  0  0  0
    0.3252   -0.6518   -2.1959 N   0  0  0  0  0  0  0  0  0  0  0  0
   -1.8434   -0.1146   -0.0865 N   0  0  0  0  0  0  0  0  0  0  0  0
    4.3585    0.7019   -0.7576 C   0  0  0  0  0  0  0  0  0  0  0  0
    4.8646    0.1461   -1.5736 H   0  0  0  0  0  0  0  0  0  0  0  0
    5.1163    0.9358    0.0160 H   0  0  0  0  0  0  0  0  0  0  0  0
    3.9612    1.6576   -1.1506 H   0  0  0  0  0  0  0  0  0  0  0  0
    3.2208   -0.0949   -0.1314 C   0  0  0  0  0  0  0  0  0  0  0  0
    3.5773   -1.0360    0.3369 H   0  0  0  0  0  0  0  0  0  0  0  0
    2.7128    0.5132    0.6394 H   0  0  0  0  0  0  0  0  0  0  0  0
    2.3940   -1.4068   -2.1080 C   0  0  0  0  0  0  0  0  0  0  0  0
    3.3584   -1.9033   -2.2478 H   0  0  0  0  0  0  0  0  0  0  0  0
    1.2144   -1.5369   -2.7923 C   0  0  0  0  0  0  0  0  0  0  0  0
    0.9409   -2.1639   -3.6459 H   0  0  0  0  0  0  0  0  0  0  0  0
    0.9071    0.0105   -1.1496 C   0  0  0  0  0  2  0  0  0  0  0  0
   -1.1019   -0.5612   -2.4455 C   0  0  0  0  0  0  0  0  0  0  0  0
   -1.3355   -1.1770   -3.3350 H   0  0  0  0  0  0  0  0  0  0  0  0
   -1.3684    0.4918   -2.6733 H   0  0  0  0  0  0  0  0  0  0  0  0
   -1.8988   -1.0794   -1.2413 C   0  0  2  0  0  0  0  0  0  0  0  0
   -1.4149   -2.0206   -0.9196 H   0  0  0  0  0  0  0  0  0  0  0  0
   -3.4073   -1.2742   -1.5722 C   0  0  0  0  0  0  0  0  0  0  0  0
   -3.7425   -2.2983   -1.3185 H   0  0  0  0  0  0  0  0  0  0  0  0
   -3.5766   -1.1476   -2.6606 H   0  0  0  0  0  0  0  0  0  0  0  0
   -4.1570   -0.1951   -0.7580 C   0  0  0  0  0  0  0  0  0  0  0  0
   -4.9319    0.3284   -1.3500 H   0  0  0  0  0  0  0  0  0  0  0  0
   -4.6681   -0.6373    0.1204 H   0  0  0  0  0  0  0  0  0  0  0  0
   -3.0434    0.7572   -0.3189 C   0  0  0  0  0  0  0  0  0  0  0  0
   -3.2221    1.3659    0.5855 H   0  0  0  0  0  0  0  0  0  0  0  0
   -2.7792    1.4667   -1.1290 H   0  0  0  0  0  0  0  0  0  0  0  0
   -1.9741   -0.8450    1.2288 C   0  0  0  0  0  0  0  0  0  0  0  0
   -2.8337   -1.5482    1.1786 H   0  0  0  0  0  0  0  0  0  0  0  0
   -2.1923   -0.0510    1.9694 H   0  0  0  0  0  0  0  0  0  0  0  0
   -0.7175   -1.5836    1.6212 C   0  0  0  0  0  0  0  0  0  0  0  0
   -0.5097   -2.9302    1.2638 C   0  0  0  0  0  0  0  0  0  0  0  0
   -1.3097   -3.4885    0.7500 H   0  0  0  0  0  0  0  0  0  0  0  0
    0.6981   -3.5783    1.5718 C   0  0  0  0  0  0  0  0  0  0  0  0
    0.8464   -4.6298    1.2824 H   0  0  0  0  0  0  0  0  0  0  0  0
    1.7057   -2.8868    2.2614 C   0  0  0  0  0  0  0  0  0  0  0  0
    2.6510   -3.3937    2.5097 H   0  0  0  0  0  0  0  0  0  0  0  0
    1.4939   -1.5546    2.6559 C   0  0  0  0  0  0  0  0  0  0  0  0
    2.2704   -1.0137    3.2180 H   0  0  0  0  0  0  0  0  0  0  0  0
    0.2932   -0.9046    2.3376 C   0  0  0  0  0  0  0  0  0  0  0  0
    0.1217    0.1416    2.6392 H   0  0  0  0  0  0  0  0  0  0  0  0
  1  8  1  0  0  0  0
  2 15  1  0  0  0  0
  3 30  1  0  0  0  0
  4  8  1  0  0  0  0
  4  6  1  0  0  0  0
  5  4  1  0  0  0  0
  7  4  1  0  0  0  0
  8  9  1  0  0  0  0
  8 10  1  0  0  0  0
 11  1  1  0  0  0  0
 12 11  1  0  0  0  0
 13  2  1  0  0  0  0
 13 11  2  0  0  0  0
 14 13  1  0  0  0  0
 15  1  1  0  0  0  0
 16  2  1  0  0  0  0
 16 19  1  0  0  0  0
 17 16  1  0  0  0  0
 18 16  1  0  0  0  0
 19 20  1  1  0  0  0
 19  3  1  0  0  0  0
 21 22  1  0  0  0  0
 21 19  1  0  0  0  0
 21 24  1  0  0  0  0
 23 21  1  0  0  0  0
 24 27  1  0  0  0  0
 24 26  1  0  0  0  0
 25 24  1  0  0  0  0
 27  3  1  0  0  0  0
 27 28  1  0  0  0  0
 29 27  1  0  0  0  0
 30 33  1  0  0  0  0
 30 32  1  0  0  0  0
 31 30  1  0  0  0  0
 33 42  1  0  0  0  0
 34 36  1  0  0  0  0
 34 33  2  0  0  0  0
 35 34  1  0  0  0  0
 36 38  2  0  0  0  0
 37 36  1  0  0  0  0
 38 39  1  0  0  0  0
 38 40  1  0  0  0  0
 40 41  1  0  0  0  0
 42 43  1  0  0  0  0
 42 40  2  0  0  0  0
M  END
