2,6
 OpenBabel05122313053D

 21 22  0  0  1  0  0  0  0  0999 V2000
   -2.6517   -1.2115    0.9339 H   0  0  0  0  0  0  0  0  0  0  0  0
   -2.3204   -0.3582    0.4431 N   0  0  0  0  0  2  0  0  0  0  0  0
   -3.1551    0.4848   -0.0777 C   0  0  2  0  0  3  0  0  0  0  0  0
   -2.5346    1.6779   -0.7467 C   0  0  2  0  0  0  0  0  0  0  0  0
   -2.3551    1.3825   -1.8070 H   0  0  0  0  0  0  0  0  0  0  0  0
   -1.1766    1.8969   -0.0624 C   0  0  0  0  0  3  0  0  0  0  0  0
   -1.3392    2.3259    0.9541 H   0  0  0  0  0  0  0  0  0  0  0  0
   -0.5405    2.6047   -0.6305 H   0  0  0  0  0  0  0  0  0  0  0  0
   -4.6068    0.6148   -0.0651 C   0  0  0  0  0  0  0  0  0  0  0  0
   -5.6113   -0.3045    0.2880 C   0  0  0  0  0  0  0  0  0  0  0  0
   -5.3495   -1.3267    0.6022 H   0  0  0  0  0  0  0  0  0  0  0  0
   -6.9478    0.1091    0.2145 C   0  0  0  0  0  0  0  0  0  0  0  0
   -7.7546   -0.5926    0.4741 H   0  0  0  0  0  0  0  0  0  0  0  0
   -7.2678    1.4196   -0.1951 C   0  0  0  0  0  0  0  0  0  0  0  0
   -8.3239    1.7253   -0.2499 H   0  0  0  0  0  0  0  0  0  0  0  0
   -6.2614    2.3423   -0.5333 C   0  0  0  0  0  0  0  0  0  0  0  0
   -6.5272    3.3651   -0.8424 H   0  0  0  0  0  0  0  0  0  0  0  0
   -4.9213    1.9410   -0.4690 C   0  0  0  0  0  0  0  0  0  0  0  0
   -3.6613    2.7493   -0.7303 C   0  0  0  0  0  0  0  0  0  0  0  0
   -3.4964    3.4675    0.1033 H   0  0  0  0  0  0  0  0  0  0  0  0
   -3.7225    3.3482   -1.6611 H   0  0  0  0  0  0  0  0  0  0  0  0
  2  1  1  0  0  0  0
  3  9  1  0  0  0  0
  3  2  1  1  0  0  0
  4  5  1  6  0  0  0
  4 19  1  0  0  0  0
  4  3  1  0  0  0  0
  4  6  1  0  0  0  0
  6  7  1  0  0  0  0
  8  6  1  0  0  0  0
  9 10  1  0  0  0  0
 10 11  1  0  0  0  0
 12 10  2  0  0  0  0
 12 13  1  0  0  0  0
 14 12  1  0  0  0  0
 15 14  1  0  0  0  0
 16 18  1  0  0  0  0
 16 14  2  0  0  0  0
 17 16  1  0  0  0  0
 18  9  2  0  0  0  0
 19 18  1  0  0  0  0
 19 20  1  0  0  0  0
 21 19  1  0  0  0  0
M  END
