7,17
 OpenBabel05122313053D

 46 49  0  0  0  0  0  0  0  0999 V2000
   -1.0073   -2.9743    0.1603 S   0  0  0  0  0  0  0  0  0  0  0  0
   -5.9633   -2.9511   -0.3190 S   0  0  0  0  0  0  0  0  0  0  0  0
   -4.0757    2.6744   -0.5178 S   0  0  0  0  0  0  0  0  0  0  0  0
    6.5254   -0.9399    0.0022 F   0  0  0  0  0  0  0  0  0  0  0  0
    6.4531   -2.5626    1.4626 F   0  0  0  0  0  0  0  0  0  0  0  0
    6.5146   -3.0249   -0.6630 F   0  0  0  0  0  0  0  0  0  0  0  0
    2.4459   -0.9071    0.1170 N   0  0  0  0  0  2  0  0  0  0  0  0
    3.7922   -0.9439    0.1365 C   0  0  0  0  0  0  0  0  0  0  0  0
    4.2938    0.0342    0.0873 H   0  0  0  0  0  0  0  0  0  0  0  0
    4.4947   -2.1500    0.1979 C   0  0  0  0  0  0  0  0  0  0  0  0
    3.7691   -3.3626    0.2362 C   0  0  0  0  0  0  0  0  0  0  0  0
    4.3023   -4.3237    0.2756 H   0  0  0  0  0  0  0  0  0  0  0  0
    2.3794   -3.3251    0.2174 C   0  0  0  0  0  0  0  0  0  0  0  0
    1.7856   -4.2495    0.2451 H   0  0  0  0  0  0  0  0  0  0  0  0
    1.7078   -2.0813    0.1608 C   0  0  0  0  0  0  0  0  0  0  0  0
    0.3038   -1.8273    0.1459 C   0  0  0  0  0  0  0  0  0  0  0  0
   -0.1304   -0.4856    0.1047 C   0  0  0  0  0  2  0  0  0  0  0  0
   -1.5612   -0.4026    0.1042 C   0  0  0  0  0  0  0  0  0  0  0  0
   -2.1797   -1.6715    0.1171 C   0  0  0  0  0  0  0  0  0  0  0  0
    5.9985   -2.1611    0.2477 C   0  0  0  0  0  0  0  0  0  0  0  0
   -3.6477   -4.0495   -1.4511 C   0  0  0  0  0  0  0  0  0  0  0  0
   -4.3747   -4.3821   -2.2183 H   0  0  0  0  0  0  0  0  0  0  0  0
   -3.3310   -4.9512   -0.8837 H   0  0  0  0  0  0  0  0  0  0  0  0
   -2.7486   -3.6611   -1.9701 H   0  0  0  0  0  0  0  0  0  0  0  0
   -4.2383   -2.9999   -0.5603 C   0  0  0  0  0  0  0  0  0  0  0  0
   -3.6135   -1.9620    0.1404 C   0  0  0  0  0  0  0  0  0  0  0  0
   -4.5615   -1.1479    0.8649 C   0  0  0  0  0  0  0  0  0  0  0  0
   -4.2669   -0.2870    1.4788 H   0  0  0  0  0  0  0  0  0  0  0  0
   -5.8713   -1.5467    0.7238 C   0  0  0  0  0  0  0  0  0  0  0  0
   -7.1010   -0.9484    1.3321 C   0  0  0  0  0  0  0  0  0  0  0  0
   -7.8477   -0.6604    0.5628 H   0  0  0  0  0  0  0  0  0  0  0  0
   -6.8286   -0.0353    1.8957 H   0  0  0  0  0  0  0  0  0  0  0  0
   -7.6045   -1.6467    2.0336 H   0  0  0  0  0  0  0  0  0  0  0  0
   -3.5700    0.4397   -2.1661 C   0  0  0  0  0  0  0  0  0  0  0  0
   -3.7319    1.1190   -3.0270 H   0  0  0  0  0  0  0  0  0  0  0  0
   -4.4851   -0.1801   -2.0442 H   0  0  0  0  0  0  0  0  0  0  0  0
   -2.7387   -0.2474   -2.4169 H   0  0  0  0  0  0  0  0  0  0  0  0
   -3.2438    1.1891   -0.9139 C   0  0  0  0  0  0  0  0  0  0  0  0
   -2.3548    0.8460    0.0968 C   0  0  0  0  0  0  0  0  0  0  0  0
   -2.3516    1.7952    1.1774 C   0  0  0  0  0  0  0  0  0  0  0  0
   -1.6982    1.6955    2.0553 H   0  0  0  0  0  0  0  0  0  0  0  0
   -3.2348    2.8409    1.0107 C   0  0  0  0  0  0  0  0  0  0  0  0
   -3.4928    4.0083    1.9119 C   0  0  0  0  0  0  0  0  0  0  0  0
   -3.2569    4.9770    1.4213 H   0  0  0  0  0  0  0  0  0  0  0  0
   -2.8623    3.9274    2.8188 H   0  0  0  0  0  0  0  0  0  0  0  0
   -4.5524    4.0619    2.2397 H   0  0  0  0  0  0  0  0  0  0  0  0
  2 29  1  0  0  0  0
  3 42  1  0  0  0  0
  4 20  1  0  0  0  0
  6 20  1  0  0  0  0
  7  8  1  0  0  0  0
  7 15  1  0  0  0  0
  8 10  2  0  0  0  0
  9  8  1  0  0  0  0
 10 11  1  0  0  0  0
 10 20  1  0  0  0  0
 11 12  1  0  0  0  0
 13 11  2  0  0  0  0
 13 14  1  0  0  0  0
 15 13  1  0  0  0  0
 16  1  1  0  0  0  0
 16 15  2  0  0  0  0
 17 16  1  0  0  0  0
 18 17  1  0  0  0  0
 18 19  2  0  0  0  0
 19 26  1  0  0  0  0
 19  1  1  0  0  0  0
 20  5  1  0  0  0  0
 21 23  1  0  0  0  0
 21 25  1  0  0  0  0
 22 21  1  0  0  0  0
 24 21  1  0  0  0  0
 25  2  1  0  0  0  0
 25 26  2  0  0  0  0
 26 27  1  0  0  0  0
 27 28  1  0  0  0  0
 29 27  2  0  0  0  0
 29 30  1  0  0  0  0
 30 32  1  0  0  0  0
 30 33  1  0  0  0  0
 31 30  1  0  0  0  0
 34 36  1  0  0  0  0
 34 38  1  0  0  0  0
 35 34  1  0  0  0  0
 37 34  1  0  0  0  0
 38  3  1  0  0  0  0
 38 39  2  0  0  0  0
 39 18  1  0  0  0  0
 39 40  1  0  0  0  0
 40 41  1  0  0  0  0
 42 40  2  0  0  0  0
 42 43  1  0  0  0  0
 43 46  1  0  0  0  0
 43 45  1  0  0  0  0
 44 43  1  0  0  0  0
M  END
