1,2
 OpenBabel05122313053D

 31 31  0  0  1  0  0  0  0  0999 V2000
   -0.8126   -1.7268    0.6496 N   0  0  0  0  0  0  0  0  0  0  0  0
   -1.4907    0.7800    0.0102 C   0  0  0  0  0  3  0  0  0  0  0  0
   -1.8613    2.1435    0.1361 C   0  0  0  0  0  0  0  0  0  0  0  0
   -3.2300    2.4627    0.0003 C   0  0  0  0  0  0  0  0  0  0  0  0
   -3.5336    3.5187    0.0904 H   0  0  0  0  0  0  0  0  0  0  0  0
   -4.2088    1.4888   -0.2340 C   0  0  0  0  0  0  0  0  0  0  0  0
   -5.2651    1.7863   -0.3320 H   0  0  0  0  0  0  0  0  0  0  0  0
   -3.8648    0.1291   -0.3272 C   0  0  0  0  0  0  0  0  0  0  0  0
   -2.4952   -0.2005   -0.1958 C   0  0  0  0  0  0  0  0  0  0  0  0
   -0.8747    3.2480    0.4183 C   0  0  0  0  0  0  0  0  0  0  0  0
   -0.2311    2.9986    1.2852 H   0  0  0  0  0  0  0  0  0  0  0  0
   -1.3988    4.2011    0.6276 H   0  0  0  0  0  0  0  0  0  0  0  0
   -0.1771    3.3944   -0.4285 H   0  0  0  0  0  0  0  0  0  0  0  0
   -4.9253   -0.9239   -0.5461 C   0  0  0  0  0  0  0  0  0  0  0  0
   -4.7565   -1.5083   -1.4757 H   0  0  0  0  0  0  0  0  0  0  0  0
   -5.9299   -0.4647   -0.6236 H   0  0  0  0  0  0  0  0  0  0  0  0
   -4.9618   -1.6595    0.2867 H   0  0  0  0  0  0  0  0  0  0  0  0
   -2.0036   -1.6287   -0.2853 C   0  0  1  0  0  0  0  0  0  0  0  0
   -2.7711   -2.3483    0.0858 H   0  0  0  0  0  0  0  0  0  0  0  0
   -1.6462   -1.9949   -1.7299 C   0  0  0  0  0  0  0  0  0  0  0  0
   -2.5159   -1.7685   -2.3755 H   0  0  0  0  0  0  0  0  0  0  0  0
   -1.3985   -3.0665   -1.8653 H   0  0  0  0  0  0  0  0  0  0  0  0
   -0.8001   -1.3665   -2.0777 H   0  0  0  0  0  0  0  0  0  0  0  0
   -0.0734   -2.9909    0.4832 C   0  0  0  0  0  0  0  0  0  0  0  0
   -0.7479   -3.8658    0.6294 H   0  0  0  0  0  0  0  0  0  0  0  0
    0.7305   -3.0449    1.2417 H   0  0  0  0  0  0  0  0  0  0  0  0
    0.3801   -3.0480   -0.5207 H   0  0  0  0  0  0  0  0  0  0  0  0
   -1.2810   -1.6352    2.0549 C   0  0  0  0  0  0  0  0  0  0  0  0
   -1.8947   -2.5280    2.3168 H   0  0  0  0  0  0  0  0  0  0  0  0
   -1.8870   -0.7215    2.1799 H   0  0  0  0  0  0  0  0  0  0  0  0
   -0.4075   -1.5826    2.7311 H   0  0  0  0  0  0  0  0  0  0  0  0
  1 28  1  0  0  0  0
  2  3  1  0  0  0  0
  3 10  1  0  0  0  0
  4  5  1  0  0  0  0
  4  3  2  0  0  0  0
  6  4  1  0  0  0  0
  7  6  1  0  0  0  0
  8  6  2  0  0  0  0
  8  9  1  0  0  0  0
  9  2  2  0  0  0  0
 10 12  1  0  0  0  0
 10 11  1  0  0  0  0
 13 10  1  0  0  0  0
 14  8  1  0  0  0  0
 14 17  1  0  0  0  0
 15 14  1  0  0  0  0
 16 14  1  0  0  0  0
 18  9  1  0  0  0  0
 18 19  1  1  0  0  0
 18  1  1  0  0  0  0
 20 18  1  0  0  0  0
 21 20  1  0  0  0  0
 22 20  1  0  0  0  0
 23 20  1  0  0  0  0
 24 25  1  0  0  0  0
 24  1  1  0  0  0  0
 24 26  1  0  0  0  0
 27 24  1  0  0  0  0
 28 30  1  0  0  0  0
 28 29  1  0  0  0  0
 28 31  1  0  0  0  0
M  END
