1,5
 OpenBabel05122313053D

 27 29  0  0  1  0  0  0  0  0999 V2000
   -2.0495   -0.4337   -0.0913 N   0  0  0  0  0  2  0  0  0  0  0  0
   -5.6618    0.8646    1.4919 C   0  0  0  0  0  0  0  0  0  0  0  0
   -6.6466    1.1704    1.8739 H   0  0  0  0  0  0  0  0  0  0  0  0
   -2.5191   -1.3510   -0.9711 C   0  0  2  0  0  3  0  0  0  0  0  0
   -0.1954   -1.7006   -1.4216 C   0  0  0  0  0  3  0  0  0  0  0  0
   -3.8923   -1.4038   -0.9141 N   0  0  0  0  0  0  0  0  0  0  0  0
   -3.1332    0.1319    0.5589 C   0  0  0  0  0  0  0  0  0  0  0  0
   -1.8040   -3.0187   -2.7813 C   0  0  0  0  0  0  0  0  0  0  0  0
   -2.8312   -3.2955   -3.0500 H   0  0  0  0  0  0  0  0  0  0  0  0
   -4.3137   -0.4759    0.0398 C   0  0  0  0  0  0  0  0  0  0  0  0
   -4.4950    1.4678    2.0176 C   0  0  0  0  0  0  0  0  0  0  0  0
   -4.5940    2.2311    2.8031 H   0  0  0  0  0  0  0  0  0  0  0  0
    0.5818   -3.2605   -3.1472 C   0  0  0  0  0  0  0  0  0  0  0  0
    1.4183   -3.7276   -3.6899 H   0  0  0  0  0  0  0  0  0  0  0  0
   -5.5913   -0.1176    0.4954 C   0  0  0  0  0  0  0  0  0  0  0  0
   -6.5046   -0.5803    0.0953 H   0  0  0  0  0  0  0  0  0  0  0  0
    0.8481   -2.3190   -2.1390 C   0  0  0  0  0  0  0  0  0  0  0  0
    1.8936   -2.0621   -1.9127 H   0  0  0  0  0  0  0  0  0  0  0  0
   -4.7686   -2.2756   -1.6764 C   0  0  0  0  0  0  0  0  0  0  0  0
   -5.8034   -2.1441   -1.3154 H   0  0  0  0  0  0  0  0  0  0  0  0
   -4.4841   -3.3362   -1.5361 H   0  0  0  0  0  0  0  0  0  0  0  0
   -4.7398   -2.0292   -2.7564 H   0  0  0  0  0  0  0  0  0  0  0  0
   -3.2198    1.1133    1.5635 C   0  0  0  0  0  0  0  0  0  0  0  0
   -2.3166    1.5762    1.9779 H   0  0  0  0  0  0  0  0  0  0  0  0
   -0.7404   -3.6121   -3.4697 C   0  0  0  0  0  0  0  0  0  0  0  0
   -0.9425   -4.3488   -4.2606 H   0  0  0  0  0  0  0  0  0  0  0  0
   -1.5416   -2.0729   -1.7633 C   0  0  0  0  0  0  0  0  0  0  0  0
  1  7  1  0  0  0  0
  2  3  1  0  0  0  0
  2 11  1  0  0  0  0
  4 27  1  1  0  0  0
  4  6  1  0  0  0  0
  4  1  1  0  0  0  0
  6 10  1  0  0  0  0
  7 23  1  0  0  0  0
  8 27  2  0  0  0  0
  9  8  1  0  0  0  0
 10 15  1  0  0  0  0
 10  7  2  0  0  0  0
 11 12  1  0  0  0  0
 13 17  1  0  0  0  0
 14 13  1  0  0  0  0
 15  2  2  0  0  0  0
 16 15  1  0  0  0  0
 17 18  1  0  0  0  0
 17  5  2  0  0  0  0
 19 21  1  0  0  0  0
 19 20  1  0  0  0  0
 19  6  1  0  0  0  0
 22 19  1  0  0  0  0
 23 24  1  0  0  0  0
 23 11  2  0  0  0  0
 25 13  2  0  0  0  0
 25  8  1  0  0  0  0
 26 25  1  0  0  0  0
 27  5  1  0  0  0  0
M  END
