2,54
 OpenBabel05122313053D

 76 79  0  0  1  0  0  0  0  0999 V2000
    1.0980    0.9150    1.0501 P   0  0  0  0  0  4  0  0  0  0  0  0
    0.7245   -0.0466   -0.2424 N   0  0  0  0  0  2  0  0  0  0  0  0
   -0.7785   -2.5385   -0.2664 O   0  0  0  0  0  0  0  0  0  0  0  0
   -3.5204   -2.1901    0.5172 O   0  0  0  0  0  0  0  0  0  0  0  0
   -1.2731    1.0638   -0.6477 O   0  0  0  0  0  0  0  0  0  0  0  0
   -4.7358    0.0290   -1.1356 O   0  0  0  0  0  0  0  0  0  0  0  0
   -2.4057    3.3434   -1.9779 O   0  0  0  0  0  0  0  0  0  0  0  0
    0.1109   -2.6391    1.8313 O   0  0  0  0  0  0  0  0  0  0  0  0
   -4.8852   -3.0492   -1.0914 O   0  0  0  0  0  0  0  0  0  0  0  0
   -5.8943   -0.2395    0.8083 O   0  0  0  0  0  0  0  0  0  0  0  0
   -1.3157    4.3093   -0.2221 O   0  0  0  0  0  0  0  0  0  0  0  0
   -0.6035   -0.1933   -0.7648 C   0  0  2  0  0  0  0  0  0  0  0  0
   -0.5127   -0.4944   -1.8358 H   0  0  0  0  0  0  0  0  0  0  0  0
   -1.3954   -1.2741    0.0049 C   0  0  1  0  0  0  0  0  0  0  0  0
   -1.3491   -1.0665    1.0921 H   0  0  0  0  0  0  0  0  0  0  0  0
   -2.8513   -1.3423   -0.4318 C   0  0  2  0  0  0  0  0  0  0  0  0
   -2.9471   -1.7835   -1.4464 H   0  0  0  0  0  0  0  0  0  0  0  0
   -3.4803    0.0591   -0.4367 C   0  0  1  0  0  0  0  0  0  0  0  0
   -3.6437    0.3897    0.6113 H   0  0  0  0  0  0  0  0  0  0  0  0
   -2.5821    1.0559   -1.1941 C   0  0  1  0  0  0  0  0  0  0  0  0
   -2.5426    0.7471   -2.2671 H   0  0  0  0  0  0  0  0  0  0  0  0
   -3.1341    2.4715   -1.1074 C   0  0  0  0  0  0  0  0  0  0  0  0
   -4.1846    2.4717   -1.4538 H   0  0  0  0  0  0  0  0  0  0  0  0
   -3.0747    2.8407   -0.0639 H   0  0  0  0  0  0  0  0  0  0  0  0
    0.0092   -3.0898    0.7062 C   0  0  0  0  0  0  0  0  0  0  0  0
    0.7499   -4.2837    0.1691 C   0  0  0  0  0  0  0  0  0  0  0  0
    0.1596   -4.8186   -0.5969 H   0  0  0  0  0  0  0  0  0  0  0  0
    1.0338   -4.9517    1.0011 H   0  0  0  0  0  0  0  0  0  0  0  0
    1.6790   -3.9177   -0.3198 H   0  0  0  0  0  0  0  0  0  0  0  0
   -4.5387   -2.9814    0.0725 C   0  0  0  0  0  0  0  0  0  0  0  0
   -5.1873   -3.6867    1.2338 C   0  0  0  0  0  0  0  0  0  0  0  0
   -4.4331   -4.0339    1.9643 H   0  0  0  0  0  0  0  0  0  0  0  0
   -5.8042   -4.5254    0.8676 H   0  0  0  0  0  0  0  0  0  0  0  0
   -5.8369   -2.9480    1.7477 H   0  0  0  0  0  0  0  0  0  0  0  0
   -5.8739   -0.1896   -0.4056 C   0  0  0  0  0  0  0  0  0  0  0  0
   -7.0421   -0.4110   -1.3268 C   0  0  0  0  0  0  0  0  0  0  0  0
   -6.9638   -1.4527   -1.7025 H   0  0  0  0  0  0  0  0  0  0  0  0
   -7.0020    0.2624   -2.2030 H   0  0  0  0  0  0  0  0  0  0  0  0
   -7.9886   -0.2895   -0.7722 H   0  0  0  0  0  0  0  0  0  0  0  0
   -1.4977    4.1915   -1.4194 C   0  0  0  0  0  0  0  0  0  0  0  0
   -0.7766    4.9589   -2.4971 C   0  0  0  0  0  0  0  0  0  0  0  0
   -0.1644    4.2563   -3.0966 H   0  0  0  0  0  0  0  0  0  0  0  0
   -0.1224    5.7177   -2.0367 H   0  0  0  0  0  0  0  0  0  0  0  0
   -1.5038    5.4298   -3.1868 H   0  0  0  0  0  0  0  0  0  0  0  0
    2.5131    0.0392    1.7452 C   0  0  0  0  0  0  0  0  0  0  0  0
    2.9937    0.2728    3.0478 C   0  0  0  0  0  0  0  0  0  0  0  0
    2.5177    1.0326    3.6875 H   0  0  0  0  0  0  0  0  0  0  0  0
    4.0649   -0.4899    3.5299 C   0  0  0  0  0  0  0  0  0  0  0  0
    4.4417   -0.3259    4.5504 H   0  0  0  0  0  0  0  0  0  0  0  0
    4.6474   -1.4673    2.7060 C   0  0  0  0  0  0  0  0  0  0  0  0
    5.4860   -2.0725    3.0843 H   0  0  0  0  0  0  0  0  0  0  0  0
    4.1807   -1.6840    1.3984 C   0  0  0  0  0  0  0  0  0  0  0  0
    4.6589   -2.4307    0.7479 H   0  0  0  0  0  0  0  0  0  0  0  0
    3.1070   -0.9298    0.9004 C   0  0  0  0  0  3  0  0  0  0  0  0
   -0.1989    1.1125    2.3026 C   0  0  0  0  0  0  0  0  0  0  0  0
   -0.3836    0.0952    3.2646 C   0  0  0  0  0  0  0  0  0  0  0  0
    0.2690   -0.7889    3.2692 H   0  0  0  0  0  0  0  0  0  0  0  0
   -1.4452    0.1952    4.1749 C   0  0  0  0  0  0  0  0  0  0  0  0
   -1.5978   -0.6013    4.9182 H   0  0  0  0  0  0  0  0  0  0  0  0
   -2.3155    1.2964    4.1283 C   0  0  0  0  0  0  0  0  0  0  0  0
   -3.1511    1.3659    4.8412 H   0  0  0  0  0  0  0  0  0  0  0  0
   -2.1267    2.3054    3.1688 C   0  0  0  0  0  0  0  0  0  0  0  0
   -2.8112    3.1662    3.1276 H   0  0  0  0  0  0  0  0  0  0  0  0
   -1.0717    2.2208    2.2496 C   0  0  0  0  0  0  0  0  0  0  0  0
   -0.9514    2.9984    1.4800 H   0  0  0  0  0  0  0  0  0  0  0  0
    1.6176    2.5660    0.4873 C   0  0  0  0  0  0  0  0  0  0  0  0
    1.8658    2.7495   -0.8869 C   0  0  0  0  0  0  0  0  0  0  0  0
    1.6684    1.9275   -1.5932 H   0  0  0  0  0  0  0  0  0  0  0  0
    2.3613    3.9814   -1.3381 C   0  0  0  0  0  0  0  0  0  0  0  0
    2.5675    4.1237   -2.4095 H   0  0  0  0  0  0  0  0  0  0  0  0
    2.5910    5.0267   -0.4297 C   0  0  0  0  0  0  0  0  0  0  0  0
    2.9760    5.9932   -0.7892 H   0  0  0  0  0  0  0  0  0  0  0  0
    2.3319    4.8429    0.9386 C   0  0  0  0  0  0  0  0  0  0  0  0
    2.5060    5.6646    1.6493 H   0  0  0  0  0  0  0  0  0  0  0  0
    1.8539    3.6104    1.4027 C   0  0  0  0  0  0  0  0  0  0  0  0
    1.6540    3.4674    2.4757 H   0  0  0  0  0  0  0  0  0  0  0  0
  1 45  1  0  0  0  0
  1 55  1  0  0  0  0
  2  1  1  0  0  0  0
  3 14  1  0  0  0  0
  3 25  1  0  0  0  0
  6 18  1  0  0  0  0
  6 35  1  0  0  0  0
  7 40  1  0  0  0  0
  7 22  1  0  0  0  0
  9 30  2  0  0  0  0
 12 13  1  6  0  0  0
 12  5  1  0  0  0  0
 12  2  1  0  0  0  0
 12 14  1  0  0  0  0
 14 15  1  1  0  0  0
 16 17  1  6  0  0  0
 16 14  1  0  0  0  0
 16  4  1  0  0  0  0
 18 16  1  0  0  0  0
 18 19  1  1  0  0  0
 20 21  1  6  0  0  0
 20 22  1  0  0  0  0
 20  5  1  0  0  0  0
 20 18  1  0  0  0  0
 22 24  1  0  0  0  0
 23 22  1  0  0  0  0
 25  8  2  0  0  0  0
 26 25  1  0  0  0  0
 26 28  1  0  0  0  0
 27 26  1  0  0  0  0
 29 26  1  0  0  0  0
 30  4  1  0  0  0  0
 30 31  1  0  0  0  0
 31 34  1  0  0  0  0
 31 32  1  0  0  0  0
 33 31  1  0  0  0  0
 35 10  2  0  0  0  0
 36 39  1  0  0  0  0
 36 35  1  0  0  0  0
 37 36  1  0  0  0  0
 38 36  1  0  0  0  0
 40 11  2  0  0  0  0
 41 43  1  0  0  0  0
 41 40  1  0  0  0  0
 42 41  1  0  0  0  0
 44 41  1  0  0  0  0
 45 46  1  0  0  0  0
 46 48  2  0  0  0  0
 46 47  1  0  0  0  0
 48 49  1  0  0  0  0
 50 51  1  0  0  0  0
 50 48  1  0  0  0  0
 52 50  2  0  0  0  0
 53 52  1  0  0  0  0
 54 52  1  0  0  0  0
 54 45  2  0  0  0  0
 55 56  1  0  0  0  0
 56 57  1  0  0  0  0
 56 58  2  0  0  0  0
 58 59  1  0  0  0  0
 60 58  1  0  0  0  0
 60 61  1  0  0  0  0
 62 60  2  0  0  0  0
 63 62  1  0  0  0  0
 64 55  2  0  0  0  0
 64 62  1  0  0  0  0
 65 64  1  0  0  0  0
 66  1  1  0  0  0  0
 66 75  1  0  0  0  0
 67 66  2  0  0  0  0
 68 67  1  0  0  0  0
 69 67  1  0  0  0  0
 69 71  2  0  0  0  0
 70 69  1  0  0  0  0
 71 73  1  0  0  0  0
 72 71  1  0  0  0  0
 73 75  2  0  0  0  0
 73 74  1  0  0  0  0
 75 76  1  0  0  0  0
M  END
