2,4
 OpenBabel05122313053D

 68 70  0  0  0  0  0  0  0  0999 V2000
    1.8807   -1.9660   -1.3844 Si  0  0  0  0  0  0  0  0  0  0  0  0
    2.0645   -1.7934    0.3797 N   0  0  0  0  0  2  0  0  0  0  0  0
    0.7425    0.7265   -1.2211 C   0  0  0  0  0  0  0  0  0  0  0  0
    0.5074   -0.6845   -1.4973 C   0  0  0  0  0  3  0  0  0  0  0  0
   -0.8996   -0.9045   -1.1846 C   0  0  0  0  0  0  0  0  0  0  0  0
   -1.4756    0.3040   -0.6372 C   0  0  0  0  0  0  0  0  0  0  0  0
   -0.4479    1.3268   -0.6630 C   0  0  0  0  0  0  0  0  0  0  0  0
    1.9098    1.5357   -1.3179 C   0  0  0  0  0  0  0  0  0  0  0  0
    1.8612    2.8610   -0.9086 C   0  0  0  0  0  0  0  0  0  0  0  0
    0.6837    3.4655   -0.3618 C   0  0  0  0  0  0  0  0  0  0  0  0
   -0.4653    2.6808   -0.2519 C   0  0  0  0  0  0  0  0  0  0  0  0
   -1.7279   -2.0590   -1.2572 C   0  0  0  0  0  0  0  0  0  0  0  0
   -3.0401   -1.9915   -0.8098 C   0  0  0  0  0  0  0  0  0  0  0  0
   -3.6141   -0.8035   -0.2545 C   0  0  0  0  0  0  0  0  0  0  0  0
   -2.8149    0.3396   -0.1822 C   0  0  0  0  0  0  0  0  0  0  0  0
    0.7366    4.9334    0.0919 C   0  0  0  0  0  0  0  0  0  0  0  0
    1.1157    5.8293   -1.1093 C   0  0  0  0  0  0  0  0  0  0  0  0
   -0.6137    5.4145    0.6493 C   0  0  0  0  0  0  0  0  0  0  0  0
    1.8012    5.0781    1.2042 C   0  0  0  0  0  0  0  0  0  0  0  0
   -5.0678   -0.8365    0.2447 C   0  0  0  0  0  0  0  0  0  0  0  0
   -6.0042   -1.2154   -0.9254 C   0  0  0  0  0  0  0  0  0  0  0  0
   -5.5176    0.5232    0.8053 C   0  0  0  0  0  0  0  0  0  0  0  0
   -5.1896   -1.8915    1.3688 C   0  0  0  0  0  0  0  0  0  0  0  0
    3.4218   -1.5249   -2.3931 C   0  0  0  0  0  0  0  0  0  0  0  0
    1.3115   -3.6908   -1.9143 C   0  0  0  0  0  0  0  0  0  0  0  0
    3.1286   -2.3384    1.2480 C   0  0  0  0  0  0  0  0  0  0  0  0
    2.5848   -2.5673    2.6710 C   0  0  0  0  0  0  0  0  0  0  0  0
    3.6333   -3.6878    0.6994 C   0  0  0  0  0  0  0  0  0  0  0  0
    4.2954   -1.3299    1.2967 C   0  0  0  0  0  0  0  0  0  0  0  0
    2.8372    1.1240   -1.7372 H   0  0  0  0  0  0  0  0  0  0  0  0
    2.7727    3.4694   -1.0087 H   0  0  0  0  0  0  0  0  0  0  0  0
   -1.3935    3.0961    0.1634 H   0  0  0  0  0  0  0  0  0  0  0  0
   -1.3379   -2.9954   -1.6783 H   0  0  0  0  0  0  0  0  0  0  0  0
   -3.6619   -2.8963   -0.8850 H   0  0  0  0  0  0  0  0  0  0  0  0
   -3.2097    1.2783    0.2293 H   0  0  0  0  0  0  0  0  0  0  0  0
    0.3620    5.7457   -1.9182 H   0  0  0  0  0  0  0  0  0  0  0  0
    2.1004    5.5542   -1.5364 H   0  0  0  0  0  0  0  0  0  0  0  0
    1.1708    6.8927   -0.7968 H   0  0  0  0  0  0  0  0  0  0  0  0
   -0.9259    4.8256    1.5351 H   0  0  0  0  0  0  0  0  0  0  0  0
   -1.4189    5.3511   -0.1102 H   0  0  0  0  0  0  0  0  0  0  0  0
   -0.5345    6.4743    0.9644 H   0  0  0  0  0  0  0  0  0  0  0  0
    2.8097    4.7858    0.8500 H   0  0  0  0  0  0  0  0  0  0  0  0
    1.5517    4.4368    2.0735 H   0  0  0  0  0  0  0  0  0  0  0  0
    1.8586    6.1306    1.5516 H   0  0  0  0  0  0  0  0  0  0  0  0
   -7.0579   -1.2563   -0.5796 H   0  0  0  0  0  0  0  0  0  0  0  0
   -5.7530   -2.2065   -1.3524 H   0  0  0  0  0  0  0  0  0  0  0  0
   -5.9376   -0.4691   -1.7427 H   0  0  0  0  0  0  0  0  0  0  0  0
   -6.5677    0.4573    1.1542 H   0  0  0  0  0  0  0  0  0  0  0  0
   -5.4702    1.3215    0.0374 H   0  0  0  0  0  0  0  0  0  0  0  0
   -4.8982    0.8370    1.6695 H   0  0  0  0  0  0  0  0  0  0  0  0
   -4.9170   -2.9053    1.0146 H   0  0  0  0  0  0  0  0  0  0  0  0
   -6.2317   -1.9351    1.7480 H   0  0  0  0  0  0  0  0  0  0  0  0
   -4.5208   -1.6433    2.2178 H   0  0  0  0  0  0  0  0  0  0  0  0
    3.1338   -1.3291   -3.4470 H   0  0  0  0  0  0  0  0  0  0  0  0
    4.1438   -2.3670   -2.3913 H   0  0  0  0  0  0  0  0  0  0  0  0
    3.9457   -0.6305   -2.0049 H   0  0  0  0  0  0  0  0  0  0  0  0
    2.1676   -4.3940   -1.9489 H   0  0  0  0  0  0  0  0  0  0  0  0
    0.8579   -3.6578   -2.9267 H   0  0  0  0  0  0  0  0  0  0  0  0
    0.5648   -4.0993   -1.2057 H   0  0  0  0  0  0  0  0  0  0  0  0
    3.3774   -2.9709    3.3332 H   0  0  0  0  0  0  0  0  0  0  0  0
    1.7407   -3.2840    2.6561 H   0  0  0  0  0  0  0  0  0  0  0  0
    2.2236   -1.6196    3.1166 H   0  0  0  0  0  0  0  0  0  0  0  0
    4.4185   -4.1086    1.3596 H   0  0  0  0  0  0  0  0  0  0  0  0
    4.0764   -3.5731   -0.3110 H   0  0  0  0  0  0  0  0  0  0  0  0
    2.8051   -4.4213    0.6375 H   0  0  0  0  0  0  0  0  0  0  0  0
    4.7185   -1.1711    0.2848 H   0  0  0  0  0  0  0  0  0  0  0  0
    5.1101   -1.6904    1.9585 H   0  0  0  0  0  0  0  0  0  0  0  0
    3.9391   -0.3512    1.6747 H   0  0  0  0  0  0  0  0  0  0  0  0
  1  2  1  0  0  0  0
  2 26  1  0  0  0  0
  3  7  1  0  0  0  0
  4  1  1  0  0  0  0
  4  3  1  0  0  0  0
  4  5  1  0  0  0  0
  5  6  1  0  0  0  0
  6 15  2  0  0  0  0
  7  6  1  0  0  0  0
  7 11  2  0  0  0  0
  8  3  2  0  0  0  0
  8  9  1  0  0  0  0
  9 10  2  0  0  0  0
 10 11  1  0  0  0  0
 10 16  1  0  0  0  0
 11 32  1  0  0  0  0
 12  5  2  0  0  0  0
 12 13  1  0  0  0  0
 13 14  2  0  0  0  0
 14 15  1  0  0  0  0
 14 20  1  0  0  0  0
 15 35  1  0  0  0  0
 16 18  1  0  0  0  0
 16 19  1  0  0  0  0
 17 38  1  0  0  0  0
 17 16  1  0  0  0  0
 18 41  1  0  0  0  0
 18 39  1  0  0  0  0
 19 44  1  0  0  0  0
 19 43  1  0  0  0  0
 20 22  1  0  0  0  0
 20 23  1  0  0  0  0
 21 45  1  0  0  0  0
 21 20  1  0  0  0  0
 22 48  1  0  0  0  0
 22 50  1  0  0  0  0
 23 52  1  0  0  0  0
 23 53  1  0  0  0  0
 24 55  1  0  0  0  0
 24 56  1  0  0  0  0
 24  1  1  0  0  0  0
 25  1  1  0  0  0  0
 25 59  1  0  0  0  0
 26 29  1  0  0  0  0
 26 27  1  0  0  0  0
 27 62  1  0  0  0  0
 27 60  1  0  0  0  0
 28 26  1  0  0  0  0
 28 63  1  0  0  0  0
 29 68  1  0  0  0  0
 29 67  1  0  0  0  0
 30  8  1  0  0  0  0
 31  9  1  0  0  0  0
 33 12  1  0  0  0  0
 34 13  1  0  0  0  0
 36 17  1  0  0  0  0
 37 17  1  0  0  0  0
 40 18  1  0  0  0  0
 42 19  1  0  0  0  0
 46 21  1  0  0  0  0
 47 21  1  0  0  0  0
 49 22  1  0  0  0  0
 51 23  1  0  0  0  0
 54 24  1  0  0  0  0
 57 25  1  0  0  0  0
 58 25  1  0  0  0  0
 61 27  1  0  0  0  0
 64 28  1  0  0  0  0
 65 28  1  0  0  0  0
 66 29  1  0  0  0  0
M  END
