2,4
 OpenBabel05122313053D

 68 70  0  0  0  0  0  0  0  0999 V2000
    0.0818    1.7387   -1.4327 Si  0  0  0  0  0  0  0  0  0  0  0  0
    0.4527    2.0314    0.2864 N   0  0  0  0  0  2  0  0  0  0  0  0
    0.9271   -0.9750   -0.7760 C   0  0  0  0  0  0  0  0  0  0  0  0
   -0.1705   -0.1111   -1.1909 C   0  0  0  0  0  3  0  0  0  0  0  0
   -1.3823   -0.7807   -0.7309 C   0  0  0  0  0  0  0  0  0  0  0  0
   -1.0284   -1.9661    0.0186 C   0  0  0  0  0  0  0  0  0  0  0  0
    0.4147   -2.0918   -0.0151 C   0  0  0  0  0  0  0  0  0  0  0  0
    2.3354   -0.8070   -0.8927 C   0  0  0  0  0  0  0  0  0  0  0  0
    3.2163   -1.7291   -0.3278 C   0  0  0  0  0  0  0  0  0  0  0  0
    2.6769   -2.8542    0.3746 C   0  0  0  0  0  0  0  0  0  0  0  0
    1.3090   -3.0392    0.5356 C   0  0  0  0  0  0  0  0  0  0  0  0
   -2.7517   -0.4126   -0.8362 C   0  0  0  0  0  0  0  0  0  0  0  0
   -3.7473   -1.1741   -0.2233 C   0  0  0  0  0  0  0  0  0  0  0  0
   -3.3663   -2.3444    0.5070 C   0  0  0  0  0  0  0  0  0  0  0  0
   -2.0401   -2.7422    0.6299 C   0  0  0  0  0  0  0  0  0  0  0  0
    4.7424   -1.5577   -0.4104 C   0  0  0  0  0  0  0  0  0  0  0  0
    5.3638   -2.7884   -1.1080 C   0  0  0  0  0  0  0  0  0  0  0  0
    5.3077   -1.4308    1.0236 C   0  0  0  0  0  0  0  0  0  0  0  0
    5.1420   -0.2975   -1.1976 C   0  0  0  0  0  0  0  0  0  0  0  0
   -5.2337   -0.7840   -0.2854 C   0  0  0  0  0  0  0  0  0  0  0  0
   -6.0420   -1.9309   -0.9330 C   0  0  0  0  0  0  0  0  0  0  0  0
   -5.7433   -0.5347    1.1535 C   0  0  0  0  0  0  0  0  0  0  0  0
   -5.4630    0.4961   -1.1070 C   0  0  0  0  0  0  0  0  0  0  0  0
   -1.4840    2.6269   -2.0143 C   0  0  0  0  0  0  0  0  0  0  0  0
    1.4725    2.1646   -2.6489 C   0  0  0  0  0  0  0  0  0  0  0  0
    1.0360    3.2351    0.9119 C   0  0  0  0  0  0  0  0  0  0  0  0
    0.6367    4.4996    0.1258 C   0  0  0  0  0  0  0  0  0  0  0  0
    0.5191    3.3799    2.3561 C   0  0  0  0  0  0  0  0  0  0  0  0
    2.5729    3.0919    0.9208 C   0  0  0  0  0  0  0  0  0  0  0  0
    2.7174    0.0557   -1.4477 H   0  0  0  0  0  0  0  0  0  0  0  0
    3.3643   -3.5927    0.8132 H   0  0  0  0  0  0  0  0  0  0  0  0
    0.9269   -3.9055    1.0968 H   0  0  0  0  0  0  0  0  0  0  0  0
   -3.0120    0.4842   -1.4088 H   0  0  0  0  0  0  0  0  0  0  0  0
   -4.1460   -2.9519    0.9903 H   0  0  0  0  0  0  0  0  0  0  0  0
   -1.7803   -3.6488    1.1974 H   0  0  0  0  0  0  0  0  0  0  0  0
    5.1409   -3.7282   -0.5651 H   0  0  0  0  0  0  0  0  0  0  0  0
    6.4674   -2.6861   -1.1630 H   0  0  0  0  0  0  0  0  0  0  0  0
    4.9750   -2.8951   -2.1409 H   0  0  0  0  0  0  0  0  0  0  0  0
    5.0854   -2.3267    1.6363 H   0  0  0  0  0  0  0  0  0  0  0  0
    4.8718   -0.5528    1.5424 H   0  0  0  0  0  0  0  0  0  0  0  0
    6.4100   -1.3050    0.9959 H   0  0  0  0  0  0  0  0  0  0  0  0
    6.2465   -0.2100   -1.2312 H   0  0  0  0  0  0  0  0  0  0  0  0
    4.7484    0.6246   -0.7235 H   0  0  0  0  0  0  0  0  0  0  0  0
    4.7773   -0.3316   -2.2440 H   0  0  0  0  0  0  0  0  0  0  0  0
   -7.1202   -1.6709   -0.9710 H   0  0  0  0  0  0  0  0  0  0  0  0
   -5.9454   -2.8774   -0.3649 H   0  0  0  0  0  0  0  0  0  0  0  0
   -5.6963   -2.1224   -1.9689 H   0  0  0  0  0  0  0  0  0  0  0  0
   -5.1627    0.2737    1.6420 H   0  0  0  0  0  0  0  0  0  0  0  0
   -5.6530   -1.4403    1.7856 H   0  0  0  0  0  0  0  0  0  0  0  0
   -6.8129   -0.2389    1.1394 H   0  0  0  0  0  0  0  0  0  0  0  0
   -4.9305    1.3656   -0.6714 H   0  0  0  0  0  0  0  0  0  0  0  0
   -6.5437    0.7421   -1.1252 H   0  0  0  0  0  0  0  0  0  0  0  0
   -5.1289    0.3780   -2.1575 H   0  0  0  0  0  0  0  0  0  0  0  0
   -1.2703    3.6938   -2.2262 H   0  0  0  0  0  0  0  0  0  0  0  0
   -2.2763    2.5858   -1.2414 H   0  0  0  0  0  0  0  0  0  0  0  0
   -1.8750    2.1680   -2.9461 H   0  0  0  0  0  0  0  0  0  0  0  0
    2.4807    1.9256   -2.2593 H   0  0  0  0  0  0  0  0  0  0  0  0
    1.4549    3.2443   -2.9018 H   0  0  0  0  0  0  0  0  0  0  0  0
    1.3233    1.5948   -3.5896 H   0  0  0  0  0  0  0  0  0  0  0  0
    1.0623    5.4064    0.6014 H   0  0  0  0  0  0  0  0  0  0  0  0
   -0.4654    4.6115    0.0967 H   0  0  0  0  0  0  0  0  0  0  0  0
    1.0136    4.4634   -0.9164 H   0  0  0  0  0  0  0  0  0  0  0  0
    0.9479    4.2813    2.8392 H   0  0  0  0  0  0  0  0  0  0  0  0
    0.8001    2.5019    2.9701 H   0  0  0  0  0  0  0  0  0  0  0  0
   -0.5851    3.4669    2.3662 H   0  0  0  0  0  0  0  0  0  0  0  0
    2.8673    2.1741    1.4677 H   0  0  0  0  0  0  0  0  0  0  0  0
    3.0565    3.9651    1.4058 H   0  0  0  0  0  0  0  0  0  0  0  0
    2.9638    3.0114   -0.1135 H   0  0  0  0  0  0  0  0  0  0  0  0
  1  4  1  0  0  0  0
  1  2  1  0  0  0  0
  2 26  1  0  0  0  0
  3  7  1  0  0  0  0
  4  3  1  0  0  0  0
  4  5  1  0  0  0  0
  5  6  1  0  0  0  0
  6 15  2  0  0  0  0
  7  6  1  0  0  0  0
  7 11  2  0  0  0  0
  8  3  2  0  0  0  0
  8  9  1  0  0  0  0
  9 10  2  0  0  0  0
 10 11  1  0  0  0  0
 10 31  1  0  0  0  0
 11 32  1  0  0  0  0
 12  5  2  0  0  0  0
 12 13  1  0  0  0  0
 13 14  2  0  0  0  0
 14 15  1  0  0  0  0
 14 34  1  0  0  0  0
 15 35  1  0  0  0  0
 16  9  1  0  0  0  0
 16 18  1  0  0  0  0
 17 36  1  0  0  0  0
 17 16  1  0  0  0  0
 18 40  1  0  0  0  0
 18 39  1  0  0  0  0
 19 43  1  0  0  0  0
 19 16  1  0  0  0  0
 20 13  1  0  0  0  0
 20 22  1  0  0  0  0
 21 46  1  0  0  0  0
 21 20  1  0  0  0  0
 22 48  1  0  0  0  0
 22 49  1  0  0  0  0
 23 51  1  0  0  0  0
 23 20  1  0  0  0  0
 24  1  1  0  0  0  0
 24 55  1  0  0  0  0
 25 57  1  0  0  0  0
 25  1  1  0  0  0  0
 26 29  1  0  0  0  0
 26 28  1  0  0  0  0
 27 60  1  0  0  0  0
 27 26  1  0  0  0  0
 28 65  1  0  0  0  0
 28 63  1  0  0  0  0
 28 64  1  0  0  0  0
 29 67  1  0  0  0  0
 29 66  1  0  0  0  0
 30  8  1  0  0  0  0
 33 12  1  0  0  0  0
 37 17  1  0  0  0  0
 38 17  1  0  0  0  0
 41 18  1  0  0  0  0
 42 19  1  0  0  0  0
 44 19  1  0  0  0  0
 45 21  1  0  0  0  0
 47 21  1  0  0  0  0
 50 22  1  0  0  0  0
 52 23  1  0  0  0  0
 53 23  1  0  0  0  0
 54 24  1  0  0  0  0
 56 24  1  0  0  0  0
 58 25  1  0  0  0  0
 59 25  1  0  0  0  0
 61 27  1  0  0  0  0
 62 27  1  0  0  0  0
 68 29  1  0  0  0  0
M  END
