3,5
 OpenBabel05122313053D

 26 27  0  0  0  0  0  0  0  0999 V2000
    1.6625    3.9883   -1.5628 Br  0  0  0  0  0  0  0  0  0  0  0  0
    1.2852    3.5232    1.6742 O   0  5  0  0  0  0  0  0  0  0  0  0
    0.9027    1.6811    0.4443 N   0  0  0  0  0  2  0  0  0  0  0  0
    0.5053    2.6684    1.2112 N   0  3  0  0  0  3  0  0  0  0  0  0
   -1.6422    0.8191    0.0294 C   0  0  0  0  0  2  0  0  0  0  0  0
   -2.4993    0.4800   -0.5836 H   0  0  0  0  0  0  0  0  0  0  0  0
   -1.9040    2.0040    0.8188 C   0  0  0  0  0  0  0  0  0  0  0  0
   -3.2636    2.3564    1.0374 C   0  0  0  0  0  0  0  0  0  0  0  0
   -4.0320    1.7447    0.5406 H   0  0  0  0  0  0  0  0  0  0  0  0
   -3.6263    3.4103    1.8790 C   0  0  0  0  0  0  0  0  0  0  0  0
   -4.6896    3.6397    2.0449 H   0  0  0  0  0  0  0  0  0  0  0  0
   -2.6286    4.1761    2.5085 C   0  0  0  0  0  0  0  0  0  0  0  0
   -2.9015    5.0117    3.1698 H   0  0  0  0  0  0  0  0  0  0  0  0
   -1.2785    3.8883    2.2811 C   0  0  0  0  0  0  0  0  0  0  0  0
   -0.4705    4.4887    2.7172 H   0  0  0  0  0  0  0  0  0  0  0  0
   -0.9184    2.8137    1.4544 C   0  0  0  0  0  0  0  0  0  0  0  0
    2.2804    1.7068    0.0861 C   0  0  0  0  0  0  0  0  0  0  0  0
    2.7892    2.6456   -0.8407 C   0  0  0  0  0  0  0  0  0  0  0  0
    4.1264    2.5750   -1.2525 C   0  0  0  0  0  0  0  0  0  0  0  0
    4.5042    3.3078   -1.9793 H   0  0  0  0  0  0  0  0  0  0  0  0
    4.9620    1.5691   -0.7431 C   0  0  0  0  0  0  0  0  0  0  0  0
    6.0112    1.5221   -1.0716 H   0  0  0  0  0  0  0  0  0  0  0  0
    4.4626    0.6306    0.1713 C   0  0  0  0  0  0  0  0  0  0  0  0
    5.1137   -0.1586    0.5704 H   0  0  0  0  0  0  0  0  0  0  0  0
    3.1243    0.6944    0.5806 C   0  0  0  0  0  0  0  0  0  0  0  0
    2.7052   -0.0277    1.2990 H   0  0  0  0  0  0  0  0  0  0  0  0
  1 18  1  0  0  0  0
  3  4  1  0  0  0  0
  4 16  1  0  0  0  0
  4  2  1  0  0  0  0
  5  7  1  0  0  0  0
  6  5  1  0  0  0  0
  7  8  2  0  0  0  0
  7 16  1  0  0  0  0
  8 10  1  0  0  0  0
  9  8  1  0  0  0  0
 10 11  1  0  0  0  0
 10 12  2  0  0  0  0
 12 13  1  0  0  0  0
 14 12  1  0  0  0  0
 14 15  1  0  0  0  0
 16 14  2  0  0  0  0
 17  3  1  0  0  0  0
 17 25  1  0  0  0  0
 18 17  2  0  0  0  0
 19 18  1  0  0  0  0
 19 21  2  0  0  0  0
 20 19  1  0  0  0  0
 21 23  1  0  0  0  0
 22 21  1  0  0  0  0
 23 24  1  0  0  0  0
 23 25  2  0  0  0  0
 25 26  1  0  0  0  0
M  CHG  2   2  -1   4   1
M  END
