1,5
 OpenBabel05122313053D

 31 31  0  0  0  0  0  0  0  0999 V2000
    0.9480    1.8980    0.1010 N   0  0  0  0  0  0  0  0  0  0  0  0
   -0.4625    2.2916    0.4970 C   0  0  0  0  0  0  0  0  0  0  0  0
   -0.9563    2.7540   -0.3780 H   0  0  0  0  0  0  0  0  0  0  0  0
   -0.4480    3.0520    1.3058 H   0  0  0  0  0  0  0  0  0  0  0  0
   -1.1138    0.9571    0.8660 C   0  0  0  0  0  3  0  0  0  0  0  0
   -1.1299    0.8020    1.9654 H   0  0  0  0  0  0  0  0  0  0  0  0
   -2.4678    0.6895    0.2868 C   0  0  0  0  0  0  0  0  0  0  0  0
   -2.7394    0.8620   -1.0921 C   0  0  0  0  0  0  0  0  0  0  0  0
   -1.9370    1.2067   -1.7641 H   0  0  0  0  0  0  0  0  0  0  0  0
   -4.0027    0.5725   -1.6237 C   0  0  0  0  0  0  0  0  0  0  0  0
   -4.1884    0.7139   -2.6992 H   0  0  0  0  0  0  0  0  0  0  0  0
   -5.0306    0.0983   -0.7898 C   0  0  0  0  0  0  0  0  0  0  0  0
   -6.0222   -0.1300   -1.2075 H   0  0  0  0  0  0  0  0  0  0  0  0
   -4.7836   -0.0712    0.5807 C   0  0  0  0  0  0  0  0  0  0  0  0
   -5.5850   -0.4260    1.2461 H   0  0  0  0  0  0  0  0  0  0  0  0
   -3.5181    0.2261    1.1114 C   0  0  0  0  0  0  0  0  0  0  0  0
   -3.3423    0.1171    2.1940 H   0  0  0  0  0  0  0  0  0  0  0  0
    1.3083    2.4148   -1.2594 C   0  0  0  0  0  0  0  0  0  0  0  0
    2.2903    1.9764   -1.5210 H   0  0  0  0  0  0  0  0  0  0  0  0
    0.5686    1.9802   -1.9609 H   0  0  0  0  0  0  0  0  0  0  0  0
    1.3570    3.9343   -1.3978 C   0  0  0  0  0  0  0  0  0  0  0  0
    2.1714    4.3934   -0.8050 H   0  0  0  0  0  0  0  0  0  0  0  0
    1.5416    4.1909   -2.4593 H   0  0  0  0  0  0  0  0  0  0  0  0
    0.4014    4.4140   -1.1069 H   0  0  0  0  0  0  0  0  0  0  0  0
    1.9692    2.3048    1.1147 C   0  0  0  0  0  0  0  0  0  0  0  0
    1.9721    3.4146    1.1728 H   0  0  0  0  0  0  0  0  0  0  0  0
    2.9554    2.0016    0.7061 H   0  0  0  0  0  0  0  0  0  0  0  0
    1.7658    1.7164    2.5022 C   0  0  0  0  0  0  0  0  0  0  0  0
    0.8133    2.0455    2.9615 H   0  0  0  0  0  0  0  0  0  0  0  0
    1.7627    0.6079    2.4715 H   0  0  0  0  0  0  0  0  0  0  0  0
    2.5857    2.0544    3.1655 H   0  0  0  0  0  0  0  0  0  0  0  0
  1  2  1  0  0  0  0
  1 25  1  0  0  0  0
  2  5  1  0  0  0  0
  2  4  1  0  0  0  0
  3  2  1  0  0  0  0
  5  6  1  0  0  0  0
  7  5  1  0  0  0  0
  7 16  1  0  0  0  0
  8  7  2  0  0  0  0
  9  8  1  0  0  0  0
 10  8  1  0  0  0  0
 10 12  2  0  0  0  0
 11 10  1  0  0  0  0
 12 14  1  0  0  0  0
 13 12  1  0  0  0  0
 14 16  2  0  0  0  0
 14 15  1  0  0  0  0
 16 17  1  0  0  0  0
 18  1  1  0  0  0  0
 19 18  1  0  0  0  0
 20 18  1  0  0  0  0
 21 18  1  0  0  0  0
 21 24  1  0  0  0  0
 21 22  1  0  0  0  0
 23 21  1  0  0  0  0
 25 26  1  0  0  0  0
 25 28  1  0  0  0  0
 27 25  1  0  0  0  0
 28 29  1  0  0  0  0
 28 31  1  0  0  0  0
 30 28  1  0  0  0  0
M  END
