6,7
 OpenBabel05122313053D

 28 28  0  0  0  0  0  0  0  0999 V2000
    1.8698   -2.3356    0.4693 F   0  0  0  0  0  0  0  0  0  0  0  0
    4.4718   -1.6756    0.6086 F   0  0  0  0  0  0  0  0  0  0  0  0
    5.3162    0.8820    0.2325 F   0  0  0  0  0  0  0  0  0  0  0  0
    3.4739    2.8570   -0.2959 F   0  0  0  0  0  0  0  0  0  0  0  0
   -2.6832    1.0094    0.8096 N   0  0  0  0  0  0  0  0  0  0  0  0
   -0.5516    1.8340   -0.5189 N   0  0  0  0  0  2  0  0  0  0  0  0
    1.2190   -0.0813   -0.0027 C   0  0  0  0  0  3  0  0  0  0  0  0
    2.2055   -1.0481    0.2709 C   0  0  0  0  0  0  0  0  0  0  0  0
    3.5683   -0.7294    0.3495 C   0  0  0  0  0  0  0  0  0  0  0  0
    4.0120    0.6003    0.1564 C   0  0  0  0  0  0  0  0  0  0  0  0
    3.0691    1.5888   -0.1122 C   0  0  0  0  0  0  0  0  0  0  0  0
    1.6916    1.2639   -0.1923 C   0  0  0  0  0  0  0  0  0  0  0  0
    0.6892    2.2550   -0.4137 C   0  0  0  0  0  3  0  0  0  0  0  0
   -1.6461    2.7986   -0.5834 C   0  0  0  0  0  0  0  0  0  0  0  0
   -2.9521    2.1213   -0.1416 C   0  0  0  0  0  0  0  0  0  0  0  0
   -3.9047    0.1902    0.9650 C   0  0  0  0  0  0  0  0  0  0  0  0
   -2.2614    1.5396    2.1222 C   0  0  0  0  0  0  0  0  0  0  0  0
    0.9390    3.3316   -0.4478 H   0  0  0  0  0  0  0  0  0  0  0  0
   -1.7713    3.1642   -1.6251 H   0  0  0  0  0  0  0  0  0  0  0  0
   -1.4062    3.6835    0.0454 H   0  0  0  0  0  0  0  0  0  0  0  0
   -3.6469    2.8589    0.3208 H   0  0  0  0  0  0  0  0  0  0  0  0
   -3.4388    1.6662   -1.0198 H   0  0  0  0  0  0  0  0  0  0  0  0
   -4.1760   -0.2371   -0.0179 H   0  0  0  0  0  0  0  0  0  0  0  0
   -3.7081   -0.6336    1.6763 H   0  0  0  0  0  0  0  0  0  0  0  0
   -4.7499    0.8057    1.3488 H   0  0  0  0  0  0  0  0  0  0  0  0
   -2.0940    0.7063    2.8279 H   0  0  0  0  0  0  0  0  0  0  0  0
   -1.3119    2.0972    2.0228 H   0  0  0  0  0  0  0  0  0  0  0  0
   -3.0419    2.2151    2.5415 H   0  0  0  0  0  0  0  0  0  0  0  0
  4 11  1  0  0  0  0
  5 16  1  0  0  0  0
  5 17  1  0  0  0  0
  6 13  1  0  0  0  0
  7  8  1  0  0  0  0
  8  9  2  0  0  0  0
  8  1  1  0  0  0  0
  9  2  1  0  0  0  0
 10  3  1  0  0  0  0
 10  9  1  0  0  0  0
 11 10  2  0  0  0  0
 12 11  1  0  0  0  0
 12  7  2  0  0  0  0
 13 12  1  0  0  0  0
 14  6  1  0  0  0  0
 14 15  1  0  0  0  0
 14 20  1  0  0  0  0
 15 21  1  0  0  0  0
 15  5  1  0  0  0  0
 16 25  1  0  0  0  0
 16 24  1  0  0  0  0
 17 28  1  0  0  0  0
 17 26  1  0  0  0  0
 18 13  1  0  0  0  0
 19 14  1  0  0  0  0
 22 15  1  0  0  0  0
 23 16  1  0  0  0  0
 27 17  1  0  0  0  0
M  END
