1,7
 OpenBabel05122313053D

 16 16  0  0  0  0  0  0  0  0999 V2000
    0.7861   -0.0171    1.8214 N   0  0  0  0  0  2  0  0  0  0  0  0
    2.0751   -0.0179    1.7684 C   0  0  0  0  0  0  0  0  0  0  0  0
    2.9468   -0.0378    3.0066 C   0  0  0  0  0  0  0  0  0  0  0  0
    3.5967    0.8622    3.0487 H   0  0  0  0  0  0  0  0  0  0  0  0
    2.3137   -0.0668    3.9120 H   0  0  0  0  0  0  0  0  0  0  0  0
    3.6239   -0.9183    3.0086 H   0  0  0  0  0  0  0  0  0  0  0  0
    1.7715    0.0172   -0.6815 C   0  0  0  0  0  3  0  0  0  0  0  0
    2.7048    0.0087    0.4086 C   0  0  0  0  0  0  0  0  0  0  0  0
    4.0982    0.0051    0.1883 C   0  0  0  0  0  0  0  0  0  0  0  0
    4.7958    0.0018    1.0408 H   0  0  0  0  0  0  0  0  0  0  0  0
    4.6040   -0.0016   -1.1210 C   0  0  0  0  0  0  0  0  0  0  0  0
    5.6911   -0.0089   -1.2951 H   0  0  0  0  0  0  0  0  0  0  0  0
    3.7128    0.0012   -2.2057 C   0  0  0  0  0  0  0  0  0  0  0  0
    4.1027   -0.0037   -3.2365 H   0  0  0  0  0  0  0  0  0  0  0  0
    2.3222    0.0147   -1.9784 C   0  0  0  0  0  0  0  0  0  0  0  0
    1.6589    0.0301   -2.8603 H   0  0  0  0  0  0  0  0  0  0  0  0
  2  1  2  0  0  0  0
  2  3  1  0  0  0  0
  3  6  1  0  0  0  0
  3  4  1  0  0  0  0
  3  5  1  0  0  0  0
  7  8  1  0  0  0  0
  8  2  1  0  0  0  0
  9  8  2  0  0  0  0
  9 10  1  0  0  0  0
 11  9  1  0  0  0  0
 12 11  1  0  0  0  0
 13 15  1  0  0  0  0
 13 11  2  0  0  0  0
 14 13  1  0  0  0  0
 15  7  2  0  0  0  0
 16 15  1  0  0  0  0
M  END
