4,6
 OpenBabel05122313053D

 25 26  0  0  1  0  0  0  0  0999 V2000
    1.4162   -2.2463    2.1029 F   0  0  0  0  0  0  0  0  0  0  0  0
    2.3098   -0.6530    3.3054 F   0  0  0  0  0  0  0  0  0  0  0  0
    3.4212   -2.4745    2.9019 F   0  0  0  0  0  0  0  0  0  0  0  0
    0.9494    0.8859   -1.8175 N   0  0  0  0  0  2  0  0  0  0  0  0
    7.2685    0.1582   -1.1096 F   0  0  0  0  0  0  0  0  0  0  0  0
    2.3692   -0.2139    0.1533 C   0  0  0  0  0  3  0  0  0  0  0  0
    2.8616    1.3577   -3.1702 N   0  0  0  0  0  0  0  0  0  0  0  0
    3.0931    0.2655   -0.9890 C   0  0  0  0  0  0  0  0  0  0  0  0
    7.3332   -0.8506    0.8315 F   0  0  0  0  0  0  0  0  0  0  0  0
    2.3039    0.8823   -2.0494 C   0  0  2  0  0  3  0  0  0  0  0  0
    4.4781    0.1101   -1.1585 C   0  0  0  0  0  0  0  0  0  0  0  0
    4.9527    0.5277   -2.0578 H   0  0  0  0  0  0  0  0  0  0  0  0
    0.6552    1.8768   -3.9666 C   0  0  0  0  0  0  0  0  0  0  0  0
   -0.0071    2.2701   -4.7492 H   0  0  0  0  0  0  0  0  0  0  0  0
    2.0527    1.8525   -4.1117 C   0  0  0  0  0  0  0  0  0  0  0  0
    2.5352    2.2456   -5.0238 H   0  0  0  0  0  0  0  0  0  0  0  0
    6.9430   -1.9936   -0.9819 F   0  0  0  0  0  0  0  0  0  0  0  0
    0.1347    1.3734   -2.7751 C   0  0  0  0  0  0  0  0  0  0  0  0
   -0.9428    1.3376   -2.5665 H   0  0  0  0  0  0  0  0  0  0  0  0
    2.5724   -1.5812    2.3371 C   0  0  0  0  0  0  0  0  0  0  0  0
    5.2107   -0.5782   -0.1906 C   0  0  0  0  0  0  0  0  0  0  0  0
    3.1506   -0.9514    1.0884 C   0  0  0  0  0  0  0  0  0  0  0  0
    4.5371   -1.1178    0.9158 C   0  0  0  0  0  0  0  0  0  0  0  0
    5.1069   -1.6811    1.6665 H   0  0  0  0  0  0  0  0  0  0  0  0
    6.6899   -0.8119   -0.3621 C   0  0  0  0  0  0  0  0  0  0  0  0
  1 20  1  0  0  0  0
  5 25  1  0  0  0  0
  6 22  1  0  0  0  0
  7 10  1  0  0  0  0
  8  6  2  0  0  0  0
 10  4  1  0  0  0  0
 10  8  1  6  0  0  0
 11  8  1  0  0  0  0
 11 21  2  0  0  0  0
 12 11  1  0  0  0  0
 13 18  2  0  0  0  0
 14 13  1  0  0  0  0
 15 13  1  0  0  0  0
 15  7  2  0  0  0  0
 16 15  1  0  0  0  0
 17 25  1  0  0  0  0
 18 19  1  0  0  0  0
 18  4  1  0  0  0  0
 20  3  1  0  0  0  0
 20  2  1  0  0  0  0
 21 23  1  0  0  0  0
 22 20  1  0  0  0  0
 23 22  2  0  0  0  0
 23 24  1  0  0  0  0
 25 21  1  0  0  0  0
 25  9  1  0  0  0  0
M  END
