2,21
 OpenBabel05122313053D

 44 45  0  0  1  0  0  0  0  0999 V2000
   -2.8514    1.2640    0.1984 N   0  0  0  0  0  0  0  0  0  0  0  0
   -1.5264    0.9529    0.2152 C   0  0  0  0  0  2  0  0  0  0  0  0
   -0.9396    2.0038    0.8909 N   0  0  0  0  0  0  0  0  0  0  0  0
   -1.8835    2.9527    1.2794 C   0  0  0  0  0  0  0  0  0  0  0  0
   -1.6349    3.8578    1.8376 H   0  0  0  0  0  0  0  0  0  0  0  0
   -3.0892    2.4748    0.8452 C   0  0  0  0  0  0  0  0  0  0  0  0
   -4.0957    2.8911    0.9458 H   0  0  0  0  0  0  0  0  0  0  0  0
   -3.9004    0.4216   -0.3888 C   0  0  0  0  0  0  0  0  0  0  0  0
   -3.6169    0.2041   -1.4365 H   0  0  0  0  0  0  0  0  0  0  0  0
   -4.8208    1.0389   -0.4121 H   0  0  0  0  0  0  0  0  0  0  0  0
   -4.1329   -0.8779    0.3847 C   0  0  0  0  0  0  0  0  0  0  0  0
   -3.2330   -1.5170    0.2833 H   0  0  0  0  0  0  0  0  0  0  0  0
   -4.9533   -1.4251   -0.1277 H   0  0  0  0  0  0  0  0  0  0  0  0
   -4.4618   -0.6929    1.8677 C   0  0  0  0  0  0  0  0  0  0  0  0
   -3.6584   -0.0902    2.3457 H   0  0  0  0  0  0  0  0  0  0  0  0
   -5.3959   -0.0956    1.9739 H   0  0  0  0  0  0  0  0  0  0  0  0
   -4.5951   -2.0246    2.6080 C   0  0  0  0  0  0  0  0  0  0  0  0
   -5.3961   -2.6544    2.1678 H   0  0  0  0  0  0  0  0  0  0  0  0
   -4.8370   -1.8746    3.6792 H   0  0  0  0  0  0  0  0  0  0  0  0
   -3.6475   -2.5984    2.5498 H   0  0  0  0  0  0  0  0  0  0  0  0
    1.0865    0.8642    0.7920 N   0  0  0  0  0  2  0  0  0  0  0  0
    2.4475    0.8041    0.9597 C   0  0  1  0  0  3  0  0  0  0  0  0
    3.1825    1.9848    1.2512 C   0  0  0  0  0  0  0  0  0  0  0  0
    4.2706    1.9340    1.3689 H   0  0  0  0  0  0  0  0  0  0  0  0
    2.5122    3.1857    1.4661 C   0  0  0  0  0  0  0  0  0  0  0  0
    3.0779    4.0960    1.7134 H   0  0  0  0  0  0  0  0  0  0  0  0
    1.1139    3.2244    1.3983 C   0  0  0  0  0  0  0  0  0  0  0  0
    0.5559    4.1548    1.5548 H   0  0  0  0  0  0  0  0  0  0  0  0
    0.4594    2.0392    1.0512 C   0  0  0  0  0  0  0  0  0  0  0  0
    3.0774   -0.4183    0.8398 N   0  0  0  0  0  0  0  0  0  0  0  0
    2.5474   -1.5560    1.6068 C   0  0  0  0  0  0  0  0  0  0  0  0
    2.6966   -2.4865    1.0243 H   0  0  0  0  0  0  0  0  0  0  0  0
    1.4549   -1.4227    1.6816 H   0  0  0  0  0  0  0  0  0  0  0  0
    3.1583   -1.6801    3.0044 C   0  0  0  0  0  0  0  0  0  0  0  0
    4.2476   -1.8861    2.9763 H   0  0  0  0  0  0  0  0  0  0  0  0
    2.6765   -2.5160    3.5498 H   0  0  0  0  0  0  0  0  0  0  0  0
    3.0006   -0.7540    3.5944 H   0  0  0  0  0  0  0  0  0  0  0  0
    4.5147   -0.4252    0.5466 C   0  0  0  0  0  0  0  0  0  0  0  0
    5.1171   -0.1650    1.4522 H   0  0  0  0  0  0  0  0  0  0  0  0
    4.6948    0.3771   -0.1962 H   0  0  0  0  0  0  0  0  0  0  0  0
    5.0073   -1.7499   -0.0302 C   0  0  0  0  0  0  0  0  0  0  0  0
    4.9768   -2.5730    0.7108 H   0  0  0  0  0  0  0  0  0  0  0  0
    6.0615   -1.6358   -0.3500 H   0  0  0  0  0  0  0  0  0  0  0  0
    4.4040   -2.0493   -0.9082 H   0  0  0  0  0  0  0  0  0  0  0  0
  1  2  1  0  0  0  0
  1  6  1  0  0  0  0
  2  3  1  0  0  0  0
  3 29  1  0  0  0  0
  3  4  1  0  0  0  0
  4  5  1  0  0  0  0
  6  7  1  0  0  0  0
  6  4  2  0  0  0  0
  8  1  1  0  0  0  0
  8 11  1  0  0  0  0
  9  8  1  0  0  0  0
 10  8  1  0  0  0  0
 11 14  1  0  0  0  0
 12 11  1  0  0  0  0
 13 11  1  0  0  0  0
 14 16  1  0  0  0  0
 14 15  1  0  0  0  0
 14 17  1  0  0  0  0
 17 19  1  0  0  0  0
 18 17  1  0  0  0  0
 20 17  1  0  0  0  0
 21 22  1  0  0  0  0
 21 29  1  0  0  0  0
 22 30  1  1  0  0  0
 22 23  1  0  0  0  0
 23 24  1  0  0  0  0
 23 25  2  0  0  0  0
 25 26  1  0  0  0  0
 27 25  1  0  0  0  0
 27 28  1  0  0  0  0
 29 27  2  0  0  0  0
 30 31  1  0  0  0  0
 31 33  1  0  0  0  0
 31 34  1  0  0  0  0
 32 31  1  0  0  0  0
 34 36  1  0  0  0  0
 34 37  1  0  0  0  0
 35 34  1  0  0  0  0
 38 30  1  0  0  0  0
 38 39  1  0  0  0  0
 40 38  1  0  0  0  0
 41 38  1  0  0  0  0
 41 42  1  0  0  0  0
 43 41  1  0  0  0  0
 44 41  1  0  0  0  0
M  END
