1,13
 OpenBabel05122313053D

 56 59  0  0  0  0  0  0  0  0999 V2000
    0.0668    1.0008    0.0051 N   0  0  0  0  0  2  0  0  0  0  0  0
    0.3710    2.3159    0.3952 C   0  0  0  0  0  0  0  0  0  0  0  0
    1.4817    2.6519    0.8243 O   0  0  0  0  0  0  0  0  0  0  0  0
   -0.7993    3.2000    0.1778 C   0  0  0  0  0  0  0  0  0  0  0  0
   -0.7170    4.6001    0.2836 C   0  0  0  0  0  0  0  0  0  0  0  0
    0.2463    5.0538    0.5661 H   0  0  0  0  0  0  0  0  0  0  0  0
   -1.8557    5.3728    0.0240 C   0  0  0  0  0  0  0  0  0  0  0  0
   -1.8101    6.4704    0.0938 H   0  0  0  0  0  0  0  0  0  0  0  0
   -3.0648    4.7378   -0.3240 C   0  0  0  0  0  0  0  0  0  0  0  0
   -3.9594    5.3491   -0.5268 H   0  0  0  0  0  0  0  0  0  0  0  0
   -3.1530    3.3365   -0.4080 C   0  0  0  0  0  0  0  0  0  0  0  0
   -4.1083    2.8472   -0.6514 H   0  0  0  0  0  0  0  0  0  0  0  0
   -2.0137    2.5517   -0.1596 C   0  0  0  0  0  3  0  0  0  0  0  0
    1.3189   -0.0955    0.0873 P   0  0  0  0  0  4  0  0  0  0  0  0
    0.8577   -1.5357   -0.9145 C   0  0  0  0  0  0  0  0  0  0  0  0
    0.0400   -1.3538   -2.0473 C   0  0  0  0  0  0  0  0  0  0  0  0
   -0.3917   -0.3630   -2.2563 H   0  0  0  0  0  0  0  0  0  0  0  0
   -0.2555   -2.4431   -2.8721 C   0  0  0  0  0  0  0  0  0  0  0  0
   -0.9108   -2.2943   -3.7447 H   0  0  0  0  0  0  0  0  0  0  0  0
    0.2590   -3.7298   -2.6014 C   0  0  0  0  0  0  0  0  0  0  0  0
    1.1010   -3.8861   -1.4821 C   0  0  0  0  0  0  0  0  0  0  0  0
    1.5248   -4.8776   -1.2579 H   0  0  0  0  0  0  0  0  0  0  0  0
    1.4043   -2.8026   -0.6454 C   0  0  0  0  0  0  0  0  0  0  0  0
    2.0590   -2.9529    0.2260 H   0  0  0  0  0  0  0  0  0  0  0  0
   -0.1063   -4.9023   -3.4742 C   0  0  0  0  0  0  0  0  0  0  0  0
   -0.0759   -4.6338   -4.5493 H   0  0  0  0  0  0  0  0  0  0  0  0
   -1.1411   -5.2455   -3.2585 H   0  0  0  0  0  0  0  0  0  0  0  0
    0.5702   -5.7634   -3.3114 H   0  0  0  0  0  0  0  0  0  0  0  0
    1.6731   -0.6195    1.7833 C   0  0  0  0  0  0  0  0  0  0  0  0
    0.8380   -1.5880    2.3838 C   0  0  0  0  0  0  0  0  0  0  0  0
    0.0377   -2.0589    1.7910 H   0  0  0  0  0  0  0  0  0  0  0  0
    1.0055   -1.9002    3.7366 C   0  0  0  0  0  0  0  0  0  0  0  0
    0.3506   -2.6549    4.2004 H   0  0  0  0  0  0  0  0  0  0  0  0
    1.9849   -1.2546    4.5231 C   0  0  0  0  0  0  0  0  0  0  0  0
    2.7826   -0.2645    3.9139 C   0  0  0  0  0  0  0  0  0  0  0  0
    3.5313    0.2720    4.5174 H   0  0  0  0  0  0  0  0  0  0  0  0
    2.6292    0.0640    2.5608 C   0  0  0  0  0  0  0  0  0  0  0  0
    3.2265    0.8703    2.1117 H   0  0  0  0  0  0  0  0  0  0  0  0
    2.1582   -1.6142    5.9758 C   0  0  0  0  0  0  0  0  0  0  0  0
    1.1884   -1.5922    6.5136 H   0  0  0  0  0  0  0  0  0  0  0  0
    2.8533   -0.9232    6.4899 H   0  0  0  0  0  0  0  0  0  0  0  0
    2.5615   -2.6433    6.0856 H   0  0  0  0  0  0  0  0  0  0  0  0
    2.8387    0.5119   -0.7091 C   0  0  0  0  0  0  0  0  0  0  0  0
    4.0823   -0.0813   -0.4258 C   0  0  0  0  0  0  0  0  0  0  0  0
    4.1661   -0.8572    0.3499 H   0  0  0  0  0  0  0  0  0  0  0  0
    5.2248    0.3173   -1.1348 C   0  0  0  0  0  0  0  0  0  0  0  0
    6.1951   -0.1482   -0.9007 H   0  0  0  0  0  0  0  0  0  0  0  0
    5.1535    1.2990   -2.1419 C   0  0  0  0  0  0  0  0  0  0  0  0
    3.8924    1.8678   -2.4262 C   0  0  0  0  0  0  0  0  0  0  0  0
    3.8099    2.6345   -3.2127 H   0  0  0  0  0  0  0  0  0  0  0  0
    2.7463    1.4837   -1.7250 C   0  0  0  0  0  0  0  0  0  0  0  0
    1.7743    1.9416   -1.9599 H   0  0  0  0  0  0  0  0  0  0  0  0
    6.3828    1.7475   -2.8886 C   0  0  0  0  0  0  0  0  0  0  0  0
    6.2040    1.7757   -3.9827 H   0  0  0  0  0  0  0  0  0  0  0  0
    7.2462    1.0820   -2.6962 H   0  0  0  0  0  0  0  0  0  0  0  0
    6.6769    2.7750   -2.5857 H   0  0  0  0  0  0  0  0  0  0  0  0
  1 14  1  0  0  0  0
  1  2  1  0  0  0  0
  2  3  2  0  0  0  0
  4  5  1  0  0  0  0
  4  2  1  0  0  0  0
  5  6  1  0  0  0  0
  7  8  1  0  0  0  0
  7  5  2  0  0  0  0
  9  7  1  0  0  0  0
 10  9  1  0  0  0  0
 11  9  2  0  0  0  0
 11 13  1  0  0  0  0
 12 11  1  0  0  0  0
 13  4  2  0  0  0  0
 14 29  1  0  0  0  0
 15 23  1  0  0  0  0
 15 14  1  0  0  0  0
 16 15  2  0  0  0  0
 17 16  1  0  0  0  0
 18 20  2  0  0  0  0
 18 16  1  0  0  0  0
 19 18  1  0  0  0  0
 20 21  1  0  0  0  0
 21 22  1  0  0  0  0
 21 23  2  0  0  0  0
 23 24  1  0  0  0  0
 25 28  1  0  0  0  0
 25 27  1  0  0  0  0
 25 20  1  0  0  0  0
 26 25  1  0  0  0  0
 29 30  2  0  0  0  0
 29 37  1  0  0  0  0
 30 32  1  0  0  0  0
 31 30  1  0  0  0  0
 32 33  1  0  0  0  0
 32 34  2  0  0  0  0
 34 39  1  0  0  0  0
 35 36  1  0  0  0  0
 35 34  1  0  0  0  0
 37 35  2  0  0  0  0
 38 37  1  0  0  0  0
 39 42  1  0  0  0  0
 39 41  1  0  0  0  0
 39 40  1  0  0  0  0
 43 44  1  0  0  0  0
 43 14  1  0  0  0  0
 44 45  1  0  0  0  0
 46 47  1  0  0  0  0
 46 44  2  0  0  0  0
 48 46  1  0  0  0  0
 49 48  2  0  0  0  0
 49 51  1  0  0  0  0
 50 49  1  0  0  0  0
 51 43  2  0  0  0  0
 52 51  1  0  0  0  0
 53 55  1  0  0  0  0
 53 56  1  0  0  0  0
 53 48  1  0  0  0  0
 54 53  1  0  0  0  0
M  END
