1,3
 OpenBabel05122313053D

 31 34  0  0  0  0  0  0  0  0999 V2000
    0.0998    1.0859   -0.0040 N   0  0  0  0  0  2  0  0  0  0  0  0
   -2.3066    0.1462    0.0781 N   0  0  0  0  0  0  0  0  0  0  0  0
    1.6964   -1.0114    0.0410 C   0  0  0  0  0  3  0  0  0  0  0  0
    2.6116   -2.0742    0.1084 C   0  0  0  0  0  0  0  0  0  0  0  0
    2.2658   -3.1152    0.1530 H   0  0  0  0  0  0  0  0  0  0  0  0
    4.0127   -1.8599    0.1094 C   0  0  0  0  0  0  0  0  0  0  0  0
    4.6772   -2.7369    0.1609 H   0  0  0  0  0  0  0  0  0  0  0  0
    4.5708   -0.5841    0.0387 C   0  0  0  0  0  0  0  0  0  0  0  0
    5.6617   -0.4404    0.0314 H   0  0  0  0  0  0  0  0  0  0  0  0
    3.7067    0.5358   -0.0254 C   0  0  0  0  0  0  0  0  0  0  0  0
    2.2986    0.2926   -0.0134 C   0  0  0  0  0  0  0  0  0  0  0  0
    4.1591    1.9025   -0.1016 C   0  0  0  0  0  0  0  0  0  0  0  0
    5.2449    2.0871   -0.1157 H   0  0  0  0  0  0  0  0  0  0  0  0
    3.2853    2.9704   -0.1595 C   0  0  0  0  0  3  0  0  0  0  0  0
    3.6661    4.0010   -0.2225 H   0  0  0  0  0  0  0  0  0  0  0  0
    1.8656    2.7568   -0.1363 C   0  0  0  0  0  0  0  0  0  0  0  0
    1.4205    1.4076   -0.0552 C   0  0  0  0  0  0  0  0  0  0  0  0
    0.8648    3.7622   -0.1857 C   0  0  0  0  0  0  0  0  0  0  0  0
    1.1569    4.8210   -0.2527 H   0  0  0  0  0  0  0  0  0  0  0  0
   -0.4815    3.4068   -0.1548 C   0  0  0  0  0  0  0  0  0  0  0  0
   -1.2588    4.1807   -0.2011 H   0  0  0  0  0  0  0  0  0  0  0  0
   -0.8534    2.0425   -0.0638 C   0  0  0  0  0  0  0  0  0  0  0  0
   -2.2156    1.5136   -0.0045 C   0  0  0  0  0  0  0  0  0  0  0  0
   -3.3662    2.3243   -0.0143 C   0  0  0  0  0  0  0  0  0  0  0  0
   -3.2598    3.4147   -0.0855 H   0  0  0  0  0  0  0  0  0  0  0  0
   -4.6304    1.7369    0.0672 C   0  0  0  0  0  0  0  0  0  0  0  0
   -5.5371    2.3591    0.0585 H   0  0  0  0  0  0  0  0  0  0  0  0
   -4.7133    0.3401    0.1612 C   0  0  0  0  0  0  0  0  0  0  0  0
   -5.6807   -0.1766    0.2293 H   0  0  0  0  0  0  0  0  0  0  0  0
   -3.5326   -0.4091    0.1621 C   0  0  0  0  0  0  0  0  0  0  0  0
   -3.5681   -1.5034    0.2264 H   0  0  0  0  0  0  0  0  0  0  0  0
  2 30  1  0  0  0  0
  3  4  2  0  0  0  0
  4  6  1  0  0  0  0
  4  5  1  0  0  0  0
  6  7  1  0  0  0  0
  8  6  2  0  0  0  0
  9  8  1  0  0  0  0
 10 11  1  0  0  0  0
 10  8  1  0  0  0  0
 11  3  1  0  0  0  0
 12 10  2  0  0  0  0
 13 12  1  0  0  0  0
 14 16  1  0  0  0  0
 14 12  1  0  0  0  0
 15 14  1  0  0  0  0
 16 17  1  0  0  0  0
 17 11  2  0  0  0  0
 17  1  1  0  0  0  0
 18 20  1  0  0  0  0
 18 16  2  0  0  0  0
 19 18  1  0  0  0  0
 20 22  2  0  0  0  0
 21 20  1  0  0  0  0
 22 23  1  0  0  0  0
 22  1  1  0  0  0  0
 23  2  2  0  0  0  0
 24 23  1  0  0  0  0
 24 26  2  0  0  0  0
 25 24  1  0  0  0  0
 26 28  1  0  0  0  0
 27 26  1  0  0  0  0
 28 30  2  0  0  0  0
 28 29  1  0  0  0  0
 30 31  1  0  0  0  0
M  END
