1,3
 OpenBabel05122313053D

 23 24  0  0  0  0  0  0  0  0999 V2000
    0.2844    1.3895    0.0132 N   0  0  0  0  0  2  0  0  0  0  0  0
    3.0955   -0.9866    0.0757 N   0  0  0  0  0  0  0  0  0  0  0  0
    0.6632   -1.1594   -0.0589 C   0  0  0  0  0  3  0  0  0  0  0  0
    0.8075   -2.5687   -0.1243 C   0  0  0  0  0  0  0  0  0  0  0  0
   -0.1155   -3.1693   -0.1778 H   0  0  0  0  0  0  0  0  0  0  0  0
    2.0727   -3.1559   -0.1052 C   0  0  0  0  0  0  0  0  0  0  0  0
    2.2074   -4.2461   -0.1568 H   0  0  0  0  0  0  0  0  0  0  0  0
    3.1992   -2.3466    0.0169 C   0  0  0  0  0  0  0  0  0  0  0  0
    4.2170   -2.7505    0.0866 H   0  0  0  0  0  0  0  0  0  0  0  0
    4.3522   -0.2522    0.2704 C   0  0  0  0  0  0  0  0  0  0  0  0
    4.2470    0.4672    1.1024 H   0  0  0  0  0  0  0  0  0  0  0  0
    4.6424    0.2835   -0.6534 H   0  0  0  0  0  0  0  0  0  0  0  0
    5.1462   -0.9748    0.5239 H   0  0  0  0  0  0  0  0  0  0  0  0
    1.8626   -0.3641   -0.0054 C   0  0  0  0  0  0  0  0  0  0  0  0
    1.6393    1.0869   -0.0299 C   0  0  0  0  0  0  0  0  0  0  0  0
    2.5683    2.1472   -0.1403 C   0  0  0  0  0  0  0  0  0  0  0  0
    3.6385    1.9529   -0.2318 H   0  0  0  0  0  0  0  0  0  0  0  0
    2.1354    3.4761   -0.1619 C   0  0  0  0  0  0  0  0  0  0  0  0
    2.8700    4.2894   -0.2523 H   0  0  0  0  0  0  0  0  0  0  0  0
    0.7621    3.7470   -0.0718 C   0  0  0  0  0  0  0  0  0  0  0  0
    0.3733    4.7750   -0.0751 H   0  0  0  0  0  0  0  0  0  0  0  0
   -0.1308    2.6793    0.0046 C   0  0  0  0  0  0  0  0  0  0  0  0
   -1.2311    2.7903    0.0528 H   0  0  0  0  0  0  0  0  0  0  0  0
  2 10  1  0  0  0  0
  3 14  1  0  0  0  0
  4  6  1  0  0  0  0
  4  3  2  0  0  0  0
  5  4  1  0  0  0  0
  6  8  2  0  0  0  0
  7  6  1  0  0  0  0
  8  2  1  0  0  0  0
  8  9  1  0  0  0  0
 10 13  1  0  0  0  0
 10 11  1  0  0  0  0
 12 10  1  0  0  0  0
 14  2  1  0  0  0  0
 15 14  2  0  0  0  0
 15  1  1  0  0  0  0
 16 15  1  0  0  0  0
 17 16  1  0  0  0  0
 18 16  2  0  0  0  0
 18 20  1  0  0  0  0
 19 18  1  0  0  0  0
 20 22  2  0  0  0  0
 21 20  1  0  0  0  0
 22  1  1  0  0  0  0
 22 23  1  0  0  0  0
M  END
