1,3
 OpenBabel05122313053D

 27 29  0  0  0  0  0  0  0  0999 V2000
   -1.2030   -0.2594    0.0000 N   0  0  0  0  0  2  0  0  0  0  0  0
   -3.3197    0.4688    0.0000 N   0  0  0  0  0  0  0  0  0  0  0  0
    0.1065    1.9586   -0.0001 C   0  0  0  0  0  2  0  0  0  0  0  0
    0.9010    3.1212   -0.0001 C   0  0  0  0  0  0  0  0  0  0  0  0
    1.9961    3.0128   -0.0002 H   0  0  0  0  0  0  0  0  0  0  0  0
    0.3115    4.3949   -0.0001 C   0  0  0  0  0  0  0  0  0  0  0  0
    0.9522    5.2913   -0.0001 H   0  0  0  0  0  0  0  0  0  0  0  0
   -1.0885    4.5428   -0.0000 C   0  0  0  0  0  0  0  0  0  0  0  0
   -1.5405    5.5458   -0.0000 H   0  0  0  0  0  0  0  0  0  0  0  0
   -1.9091    3.4090   -0.0000 C   0  0  0  0  0  0  0  0  0  0  0  0
   -2.9998    3.5377    0.0000 H   0  0  0  0  0  0  0  0  0  0  0  0
   -1.3230    2.1230   -0.0000 C   0  0  0  0  0  0  0  0  0  0  0  0
   -1.9937    0.8399    0.0000 C   0  0  0  0  0  0  0  0  0  0  0  0
   -2.0176   -1.3772    0.0000 C   0  0  0  0  0  0  0  0  0  0  0  0
   -1.7108   -2.7495    0.0000 C   0  0  0  0  0  0  0  0  0  0  0  0
   -0.6590   -3.0665   -0.0000 H   0  0  0  0  0  0  0  0  0  0  0  0
   -2.7860   -3.6456    0.0001 C   0  0  0  0  0  0  0  0  0  0  0  0
   -2.5855   -4.7274    0.0001 H   0  0  0  0  0  0  0  0  0  0  0  0
   -4.1281   -3.1953    0.0001 C   0  0  0  0  0  0  0  0  0  0  0  0
   -4.9449   -3.9322    0.0002 H   0  0  0  0  0  0  0  0  0  0  0  0
   -4.4436   -1.8290    0.0001 C   0  0  0  0  0  0  0  0  0  0  0  0
   -5.4900   -1.4912    0.0001 H   0  0  0  0  0  0  0  0  0  0  0  0
   -3.3699   -0.9262    0.0001 C   0  0  0  0  0  0  0  0  0  0  0  0
   -4.4666    1.3542    0.0001 C   0  0  0  0  0  0  0  0  0  0  0  0
   -4.4724    1.9980    0.9022 H   0  0  0  0  0  0  0  0  0  0  0  0
   -5.3878    0.7453    0.0001 H   0  0  0  0  0  0  0  0  0  0  0  0
   -4.4725    1.9981   -0.9020 H   0  0  0  0  0  0  0  0  0  0  0  0
  1 13  1  0  0  0  0
  2 23  1  0  0  0  0
  2 24  1  0  0  0  0
  3 12  1  0  0  0  0
  4  6  2  0  0  0  0
  4  3  1  0  0  0  0
  5  4  1  0  0  0  0
  6  8  1  0  0  0  0
  7  6  1  0  0  0  0
  8  9  1  0  0  0  0
  8 10  2  0  0  0  0
 10 11  1  0  0  0  0
 12 10  1  0  0  0  0
 12 13  2  0  0  0  0
 13  2  1  0  0  0  0
 14  1  1  0  0  0  0
 14 15  2  0  0  0  0
 14 23  1  0  0  0  0
 15 17  1  0  0  0  0
 16 15  1  0  0  0  0
 17 18  1  0  0  0  0
 17 19  2  0  0  0  0
 19 20  1  0  0  0  0
 21 19  1  0  0  0  0
 21 22  1  0  0  0  0
 23 21  2  0  0  0  0
 24 26  1  0  0  0  0
 24 25  1  0  0  0  0
 27 24  1  0  0  0  0
M  END
