3,4
 OpenBabel05122313053D

 42 42  0  0  1  0  0  0  0  0999 V2000
   -0.4287    2.4614    0.1987 Si  0  0  0  0  0  0  0  0  0  0  0  0
   -2.5174   -1.7361   -0.2326 S   0  0  0  0  0  0  0  0  0  0  0  0
   -1.3320    1.0021   -0.2222 N   0  0  0  0  0  2  0  0  0  0  0  0
    1.2215    1.5453    0.1866 C   0  0  2  0  0  3  0  0  0  0  0  0
    1.7199    0.9620   -1.0434 C   0  0  0  0  0  0  0  0  0  0  0  0
    2.5363   -0.1689   -0.7118 C   0  0  0  0  0  0  0  0  0  0  0  0
    2.5318   -0.3123    0.7134 C   0  0  0  0  0  0  0  0  0  0  0  0
    1.7387    0.7453    1.2679 C   0  0  0  0  0  0  0  0  0  0  0  0
    1.4759    1.4554   -2.4438 C   0  0  0  0  0  0  0  0  0  0  0  0
    1.9602    2.4410   -2.6069 H   0  0  0  0  0  0  0  0  0  0  0  0
    0.3969    1.5731   -2.6655 H   0  0  0  0  0  0  0  0  0  0  0  0
    1.8822    0.7471   -3.1886 H   0  0  0  0  0  0  0  0  0  0  0  0
    3.3247   -0.9974   -1.6799 C   0  0  0  0  0  0  0  0  0  0  0  0
    3.6455   -1.9554   -1.2283 H   0  0  0  0  0  0  0  0  0  0  0  0
    4.2392   -0.4561   -2.0036 H   0  0  0  0  0  0  0  0  0  0  0  0
    2.7321   -1.2416   -2.5831 H   0  0  0  0  0  0  0  0  0  0  0  0
    3.2971   -1.3142    1.5214 C   0  0  0  0  0  0  0  0  0  0  0  0
    2.6641   -1.7475    2.3213 H   0  0  0  0  0  0  0  0  0  0  0  0
    4.1759   -0.8375    2.0071 H   0  0  0  0  0  0  0  0  0  0  0  0
    3.6710   -2.1491    0.8985 H   0  0  0  0  0  0  0  0  0  0  0  0
    1.5965    0.9748    2.7451 C   0  0  0  0  0  0  0  0  0  0  0  0
    2.5871    1.2246    3.1822 H   0  0  0  0  0  0  0  0  0  0  0  0
    1.2280    0.0677    3.2654 H   0  0  0  0  0  0  0  0  0  0  0  0
    0.9147    1.8113    2.9738 H   0  0  0  0  0  0  0  0  0  0  0  0
   -0.5858    3.8663   -1.0582 C   0  0  0  0  0  0  0  0  0  0  0  0
   -0.3978    3.5467   -2.0997 H   0  0  0  0  0  0  0  0  0  0  0  0
    0.1378    4.6715   -0.8114 H   0  0  0  0  0  0  0  0  0  0  0  0
   -1.6020    4.3102   -1.0096 H   0  0  0  0  0  0  0  0  0  0  0  0
   -0.9899    3.1715    1.8612 C   0  0  0  0  0  0  0  0  0  0  0  0
   -1.9640    3.6862    1.7234 H   0  0  0  0  0  0  0  0  0  0  0  0
   -0.2737    3.9208    2.2567 H   0  0  0  0  0  0  0  0  0  0  0  0
   -1.1312    2.3819    2.6246 H   0  0  0  0  0  0  0  0  0  0  0  0
   -2.7476    1.0055   -0.5421 C   0  0  0  0  0  0  0  0  0  0  0  0
   -3.0015    1.8223   -1.2609 H   0  0  0  0  0  0  0  0  0  0  0  0
   -3.3740    1.2073    0.3620 H   0  0  0  0  0  0  0  0  0  0  0  0
   -3.1843   -0.3152   -1.1731 C   0  0  0  0  0  0  0  0  0  0  0  0
   -2.7375   -0.4407   -2.1805 H   0  0  0  0  0  0  0  0  0  0  0  0
   -4.2865   -0.4065   -1.2590 H   0  0  0  0  0  0  0  0  0  0  0  0
   -3.2909   -1.4592    1.3933 C   0  0  0  0  0  0  0  0  0  0  0  0
   -3.0031   -0.4769    1.8131 H   0  0  0  0  0  0  0  0  0  0  0  0
   -2.8974   -2.2538    2.0524 H   0  0  0  0  0  0  0  0  0  0  0  0
   -4.3909   -1.5451    1.3030 H   0  0  0  0  0  0  0  0  0  0  0  0
  1 29  1  0  0  0  0
  2 39  1  0  0  0  0
  3  1  1  0  0  0  0
  4  1  1  6  0  0  0
  4  8  1  0  0  0  0
  5  6  2  0  0  0  0
  5  4  1  0  0  0  0
  6  7  1  0  0  0  0
  7  8  2  0  0  0  0
  7 17  1  0  0  0  0
  8 21  1  0  0  0  0
  9  5  1  0  0  0  0
 10  9  1  0  0  0  0
 11  9  1  0  0  0  0
 12  9  1  0  0  0  0
 13 14  1  0  0  0  0
 13  6  1  0  0  0  0
 15 13  1  0  0  0  0
 16 13  1  0  0  0  0
 17 19  1  0  0  0  0
 17 18  1  0  0  0  0
 20 17  1  0  0  0  0
 21 24  1  0  0  0  0
 21 22  1  0  0  0  0
 21 23  1  0  0  0  0
 25 28  1  0  0  0  0
 25 27  1  0  0  0  0
 25  1  1  0  0  0  0
 26 25  1  0  0  0  0
 29 31  1  0  0  0  0
 29 32  1  0  0  0  0
 30 29  1  0  0  0  0
 33  3  1  0  0  0  0
 33 35  1  0  0  0  0
 34 33  1  0  0  0  0
 36 33  1  0  0  0  0
 36  2  1  0  0  0  0
 37 36  1  0  0  0  0
 38 36  1  0  0  0  0
 39 40  1  0  0  0  0
 39 41  1  0  0  0  0
 42 39  1  0  0  0  0
M  END
