1,12
 OpenBabel05122313053D

 26 27  0  0  0  0  0  0  0  0999 V2000
   -0.8012    1.4888   -0.5452 N   0  0  0  0  0  2  0  0  0  0  0  0
   -0.6014    2.7101   -1.0834 C   0  0  0  0  0  3  0  0  0  0  0  0
    0.4181    2.9224   -1.4321 H   0  0  0  0  0  0  0  0  0  0  0  0
   -1.6242    3.6554   -1.2073 C   0  0  0  0  0  0  0  0  0  0  0  0
   -1.4023    4.6364   -1.6494 H   0  0  0  0  0  0  0  0  0  0  0  0
   -2.9151    3.3248   -0.7678 C   0  0  0  0  0  0  0  0  0  0  0  0
   -3.7393    4.0480   -0.8497 H   0  0  0  0  0  0  0  0  0  0  0  0
   -3.1428    2.0521   -0.2343 C   0  0  0  0  0  0  0  0  0  0  0  0
   -4.1455    1.7602    0.1027 H   0  0  0  0  0  0  0  0  0  0  0  0
   -2.0730    1.1452   -0.1416 C   0  0  0  0  0  0  0  0  0  0  0  0
   -2.0892   -0.2255    0.3117 C   0  0  0  0  0  0  0  0  0  0  0  0
   -0.8801   -0.9442    0.2707 C   0  0  0  0  0  3  0  0  0  0  0  0
   -3.0724   -1.1104    0.6705 N   0  0  0  0  0  0  0  0  0  0  0  0
   -4.5020   -0.8933    0.8471 C   0  0  0  0  0  0  0  0  0  0  0  0
   -4.9511   -1.8548    1.1493 H   0  0  0  0  0  0  0  0  0  0  0  0
   -4.9494   -0.5582   -0.1084 H   0  0  0  0  0  0  0  0  0  0  0  0
   -4.6759   -0.1348    1.6339 H   0  0  0  0  0  0  0  0  0  0  0  0
   -2.5857   -2.3273    0.8530 N   0  0  0  0  0  2  0  0  0  0  0  0
   -1.2772   -2.2162    0.6066 N   0  0  0  0  0  0  0  0  0  0  0  0
   -0.4877   -3.4548    0.5552 C   0  0  0  0  0  0  0  0  0  0  0  0
   -0.9508   -4.1515    1.2796 H   0  0  0  0  0  0  0  0  0  0  0  0
    0.5211   -3.1953    0.9226 H   0  0  0  0  0  0  0  0  0  0  0  0
   -0.4393   -4.0333   -0.8551 C   0  0  0  0  0  0  0  0  0  0  0  0
   -1.4528   -4.3259   -1.1925 H   0  0  0  0  0  0  0  0  0  0  0  0
    0.1998   -4.9375   -0.8613 H   0  0  0  0  0  0  0  0  0  0  0  0
   -0.0329   -3.2917   -1.5719 H   0  0  0  0  0  0  0  0  0  0  0  0
  1 10  1  0  0  0  0
  2  1  1  0  0  0  0
  3  2  1  0  0  0  0
  4  2  1  0  0  0  0
  4  6  2  0  0  0  0
  5  4  1  0  0  0  0
  6  8  1  0  0  0  0
  7  6  1  0  0  0  0
  8 10  2  0  0  0  0
  8  9  1  0  0  0  0
 10 11  1  0  0  0  0
 11 13  1  0  0  0  0
 12 11  2  0  0  0  0
 12 19  1  0  0  0  0
 13 14  1  0  0  0  0
 13 18  1  0  0  0  0
 14 15  1  0  0  0  0
 14 17  1  0  0  0  0
 16 14  1  0  0  0  0
 19 18  1  0  0  0  0
 20 19  1  0  0  0  0
 20 22  1  0  0  0  0
 20 21  1  0  0  0  0
 23 20  1  0  0  0  0
 24 23  1  0  0  0  0
 25 23  1  0  0  0  0
 26 23  1  0  0  0  0
M  END
