1,12
 OpenBabel05122313053D

 29 30  0  0  0  0  0  0  0  0999 V2000
    0.0923    1.9204   -0.1660 N   0  0  0  0  0  2  0  0  0  0  0  0
   -0.5585    3.0862   -0.3636 C   0  0  0  0  0  3  0  0  0  0  0  0
   -1.6121    3.0045   -0.6628 H   0  0  0  0  0  0  0  0  0  0  0  0
    0.0611    4.3303   -0.2108 C   0  0  0  0  0  0  0  0  0  0  0  0
   -0.5194    5.2473   -0.3814 H   0  0  0  0  0  0  0  0  0  0  0  0
    1.4157    4.3778    0.1526 C   0  0  0  0  0  0  0  0  0  0  0  0
    1.9289    5.3412    0.2845 H   0  0  0  0  0  0  0  0  0  0  0  0
    2.1105    3.1771    0.3317 C   0  0  0  0  0  0  0  0  0  0  0  0
    3.1745    3.1830    0.6005 H   0  0  0  0  0  0  0  0  0  0  0  0
    1.4325    1.9588    0.1552 C   0  0  0  0  0  0  0  0  0  0  0  0
    1.9581    0.6154    0.2163 C   0  0  0  0  0  0  0  0  0  0  0  0
    1.0683   -0.4432   -0.0451 C   0  0  0  0  0  3  0  0  0  0  0  0
    3.2116    0.0696    0.3096 N   0  0  0  0  0  0  0  0  0  0  0  0
    4.4927    0.7186    0.5524 C   0  0  0  0  0  0  0  0  0  0  0  0
    5.2680   -0.0664    0.5656 H   0  0  0  0  0  0  0  0  0  0  0  0
    4.4735    1.2430    1.5266 H   0  0  0  0  0  0  0  0  0  0  0  0
    4.7068    1.4383   -0.2612 H   0  0  0  0  0  0  0  0  0  0  0  0
    3.1852   -1.2398    0.1184 N   0  0  0  0  0  2  0  0  0  0  0  0
    1.9016   -1.5306   -0.1058 N   0  0  0  0  0  0  0  0  0  0  0  0
    1.5513   -2.9117   -0.5159 C   0  0  0  0  0  0  0  0  0  0  0  0
    0.4546   -2.8542   -0.6493 H   0  0  0  0  0  0  0  0  0  0  0  0
    2.1943   -3.2221   -1.8680 C   0  0  0  0  0  0  0  0  0  0  0  0
    1.8876   -2.4704   -2.6214 H   0  0  0  0  0  0  0  0  0  0  0  0
    1.8626   -4.2203   -2.2133 H   0  0  0  0  0  0  0  0  0  0  0  0
    3.2992   -3.2316   -1.7888 H   0  0  0  0  0  0  0  0  0  0  0  0
    1.9014   -3.9016    0.5930 C   0  0  0  0  0  0  0  0  0  0  0  0
    2.9950   -3.9309    0.7663 H   0  0  0  0  0  0  0  0  0  0  0  0
    1.5725   -4.9178    0.3023 H   0  0  0  0  0  0  0  0  0  0  0  0
    1.4033   -3.6350    1.5470 H   0  0  0  0  0  0  0  0  0  0  0  0
  1 10  1  0  0  0  0
  2  4  1  0  0  0  0
  2  1  1  0  0  0  0
  3  2  1  0  0  0  0
  4  6  2  0  0  0  0
  5  4  1  0  0  0  0
  6  7  1  0  0  0  0
  6  8  1  0  0  0  0
  8  9  1  0  0  0  0
 10 11  1  0  0  0  0
 10  8  2  0  0  0  0
 11 13  1  0  0  0  0
 12 11  2  0  0  0  0
 13 14  1  0  0  0  0
 14 15  1  0  0  0  0
 14 16  1  0  0  0  0
 17 14  1  0  0  0  0
 18 13  1  0  0  0  0
 19 12  1  0  0  0  0
 19 18  1  0  0  0  0
 20 19  1  0  0  0  0
 20 26  1  0  0  0  0
 21 20  1  0  0  0  0
 22 25  1  0  0  0  0
 22 20  1  0  0  0  0
 23 22  1  0  0  0  0
 24 22  1  0  0  0  0
 26 27  1  0  0  0  0
 26 29  1  0  0  0  0
 28 26  1  0  0  0  0
M  END
