1,23
 OpenBabel05122313053D

 23 24  0  0  1  0  0  0  0  0999 V2000
   -0.8404    0.9248   -0.5637 C   0  0  0  0  0  3  0  0  0  0  0  0
   -1.1286    2.0668   -1.2685 N   0  0  0  0  0  0  0  0  0  0  0  0
   -0.2184    2.8574   -2.0839 C   0  0  0  0  0  0  0  0  0  0  0  0
   -0.8109    3.4222   -2.8240 H   0  0  0  0  0  0  0  0  0  0  0  0
    0.4697    2.1617   -2.5969 H   0  0  0  0  0  0  0  0  0  0  0  0
    0.3509    3.5632   -1.4485 H   0  0  0  0  0  0  0  0  0  0  0  0
   -2.4108    2.4400   -1.1984 N   0  0  0  0  0  2  0  0  0  0  0  0
   -2.9908    1.5157   -0.4488 N   0  0  0  0  0  0  0  0  0  0  0  0
   -4.4254    1.6065   -0.2114 C   0  0  0  0  0  0  0  0  0  0  0  0
   -4.7893    2.5223   -0.7077 H   0  0  0  0  0  0  0  0  0  0  0  0
   -4.6255    1.6643    0.8753 H   0  0  0  0  0  0  0  0  0  0  0  0
   -4.9319    0.7225   -0.6443 H   0  0  0  0  0  0  0  0  0  0  0  0
   -2.0935    0.5668   -0.0340 C   0  0  0  0  0  0  0  0  0  0  0  0
   -2.1906   -0.7004    0.6507 C   0  0  1  0  0  3  0  0  0  0  0  0
   -3.3226   -1.3045    1.2243 C   0  0  0  0  0  0  0  0  0  0  0  0
   -4.2885   -0.7836    1.2205 H   0  0  0  0  0  0  0  0  0  0  0  0
   -3.2044   -2.5782    1.7898 C   0  0  0  0  0  0  0  0  0  0  0  0
   -4.0787   -3.0684    2.2415 H   0  0  0  0  0  0  0  0  0  0  0  0
   -1.9577   -3.2218    1.7580 C   0  0  0  0  0  0  0  0  0  0  0  0
   -1.8216   -4.2292    2.1748 H   0  0  0  0  0  0  0  0  0  0  0  0
   -0.8689   -2.5658    1.1759 C   0  0  0  0  0  0  0  0  0  0  0  0
    0.1184   -3.0426    1.1127 H   0  0  0  0  0  0  0  0  0  0  0  0
   -0.9625   -1.3265    0.6497 N   0  0  0  0  0  2  0  0  0  0  0  0
  1 13  2  0  0  0  0
  2  7  1  0  0  0  0
  2  1  1  0  0  0  0
  3  6  1  0  0  0  0
  3  2  1  0  0  0  0
  4  3  1  0  0  0  0
  5  3  1  0  0  0  0
  7  8  1  0  0  0  0
  8  9  1  0  0  0  0
  8 13  1  0  0  0  0
  9 11  1  0  0  0  0
 10  9  1  0  0  0  0
 12  9  1  0  0  0  0
 14 13  1  6  0  0  0
 14 15  1  0  0  0  0
 15 17  2  0  0  0  0
 16 15  1  0  0  0  0
 17 18  1  0  0  0  0
 19 17  1  0  0  0  0
 19 20  1  0  0  0  0
 21 19  2  0  0  0  0
 22 21  1  0  0  0  0
 23 14  1  0  0  0  0
 23 21  1  0  0  0  0
M  END
