5,31
 OpenBabel05122313053D

 62 65  0  0  1  0  0  0  0  0999 V2000
   -1.8894    0.2970   -1.0482 C   0  0  2  0  0  0  0  0  0  0  0  0
   -0.9766    1.2545   -1.8423 C   0  0  0  0  0  0  0  0  0  0  0  0
    0.9404    0.3518   -3.2644 C   0  0  0  0  0  0  0  0  0  0  0  0
    2.1998   -0.0984   -2.9660 C   0  0  0  0  0  0  0  0  0  0  0  0
    1.2113    0.4824   -1.0051 C   0  0  0  0  0  2  0  0  0  0  0  0
    3.5454   -0.4268   -0.8928 C   0  0  0  0  0  0  0  0  0  0  0  0
    4.6534    0.4473   -0.8598 C   0  0  0  0  0  0  0  0  0  0  0  0
    5.8135   -0.0063   -0.2105 C   0  0  0  0  0  0  0  0  0  0  0  0
    5.8860   -1.2743    0.3956 C   0  0  0  0  0  0  0  0  0  0  0  0
    4.7590   -2.1129    0.3277 C   0  0  0  0  0  0  0  0  0  0  0  0
    3.5748   -1.7124   -0.3152 C   0  0  0  0  0  0  0  0  0  0  0  0
    4.5703    1.8325   -1.4388 C   0  0  0  0  0  0  0  0  0  0  0  0
    7.1313   -1.7069    1.1273 C   0  0  0  0  0  0  0  0  0  0  0  0
    2.3713   -2.6162   -0.3671 C   0  0  0  0  0  0  0  0  0  0  0  0
   -1.3753   -1.5546    0.5438 C   0  0  1  0  0  0  0  0  0  0  0  0
   -0.7384   -1.9025    1.8887 C   0  0  0  0  0  0  0  0  0  0  0  0
   -2.8267   -2.0090    0.4593 C   0  0  0  0  0  0  0  0  0  0  0  0
   -3.7914   -1.4658    1.3330 C   0  0  0  0  0  0  0  0  0  0  0  0
   -5.1391   -1.8291    1.2190 C   0  0  0  0  0  0  0  0  0  0  0  0
   -5.5429   -2.7465    0.2341 C   0  0  0  0  0  0  0  0  0  0  0  0
   -4.5895   -3.3028   -0.6313 C   0  0  0  0  0  0  0  0  0  0  0  0
   -3.2392   -2.9323   -0.5180 C   0  0  0  0  0  0  0  0  0  0  0  0
   -3.2679    0.9095   -0.8810 C   0  0  0  0  0  0  0  0  0  0  0  0
   -4.3538    0.4406   -1.6421 C   0  0  0  0  0  0  0  0  0  0  0  0
   -5.6287    1.0024   -1.4821 C   0  0  0  0  0  0  0  0  0  0  0  0
   -5.8274    2.0419   -0.5602 C   0  0  0  0  0  0  0  0  0  0  0  0
   -4.7462    2.5171    0.1997 C   0  0  0  0  0  0  0  0  0  0  0  0
   -3.4696    1.9586    0.0406 C   0  0  0  0  0  0  0  0  0  0  0  0
    0.3576    0.7065   -2.0543 N   0  0  0  0  0  0  0  0  0  0  0  0
    2.3500   -0.0098   -1.5811 N   0  0  0  0  0  0  0  0  0  0  0  0
   -1.2855   -0.0814    0.2682 N   0  0  0  0  0  0  0  0  0  0  0  0
   -1.7837    0.4100    1.0425 H   0  0  0  0  0  0  0  0  0  0  0  0
   -1.9834   -0.6320   -1.6465 H   0  0  0  0  0  0  0  0  0  0  0  0
   -0.8812    2.2169   -1.2997 H   0  0  0  0  0  0  0  0  0  0  0  0
   -1.4372    1.4535   -2.8287 H   0  0  0  0  0  0  0  0  0  0  0  0
    0.4248    0.4640   -4.2227 H   0  0  0  0  0  0  0  0  0  0  0  0
    3.0044   -0.4747   -3.6038 H   0  0  0  0  0  0  0  0  0  0  0  0
    6.6864    0.6644   -0.1658 H   0  0  0  0  0  0  0  0  0  0  0  0
    4.7995   -3.1131    0.7879 H   0  0  0  0  0  0  0  0  0  0  0  0
    5.5604    2.3254   -1.4362 H   0  0  0  0  0  0  0  0  0  0  0  0
    3.8727    2.4324   -0.8137 H   0  0  0  0  0  0  0  0  0  0  0  0
    4.1805    1.8380   -2.4768 H   0  0  0  0  0  0  0  0  0  0  0  0
    7.2013   -2.8096    1.2030 H   0  0  0  0  0  0  0  0  0  0  0  0
    7.1363   -1.3042    2.1630 H   0  0  0  0  0  0  0  0  0  0  0  0
    8.0484   -1.3328    0.6305 H   0  0  0  0  0  0  0  0  0  0  0  0
    2.6302   -3.6443   -0.0515 H   0  0  0  0  0  0  0  0  0  0  0  0
    1.5770   -2.2419    0.3108 H   0  0  0  0  0  0  0  0  0  0  0  0
    1.9304   -2.6639   -1.3840 H   0  0  0  0  0  0  0  0  0  0  0  0
   -0.8032   -2.0511   -0.2693 H   0  0  0  0  0  0  0  0  0  0  0  0
    0.3271   -1.5966    1.9128 H   0  0  0  0  0  0  0  0  0  0  0  0
   -1.2371   -1.3701    2.7210 H   0  0  0  0  0  0  0  0  0  0  0  0
   -0.8124   -2.9944    2.0579 H   0  0  0  0  0  0  0  0  0  0  0  0
   -3.4878   -0.7330    2.0983 H   0  0  0  0  0  0  0  0  0  0  0  0
   -5.8824   -1.3862    1.8987 H   0  0  0  0  0  0  0  0  0  0  0  0
   -6.6030   -3.0277    0.1428 H   0  0  0  0  0  0  0  0  0  0  0  0
   -4.8970   -4.0265   -1.4015 H   0  0  0  0  0  0  0  0  0  0  0  0
   -2.4908   -3.3649   -1.2022 H   0  0  0  0  0  0  0  0  0  0  0  0
   -4.2050   -0.3962   -2.3424 H   0  0  0  0  0  0  0  0  0  0  0  0
   -6.4741    0.6157   -2.0710 H   0  0  0  0  0  0  0  0  0  0  0  0
   -6.8289    2.4787   -0.4282 H   0  0  0  0  0  0  0  0  0  0  0  0
   -4.8957    3.3270    0.9295 H   0  0  0  0  0  0  0  0  0  0  0  0
   -2.6371    2.3183    0.6707 H   0  0  0  0  0  0  0  0  0  0  0  0
  1 33  1  6  0  0  0
  1 23  1  0  0  0  0
  1 31  1  0  0  0  0
  2 34  1  0  0  0  0
  2  1  1  0  0  0  0
  3  4  2  0  0  0  0
  3 29  1  0  0  0  0
  4 30  1  0  0  0  0
  6  7  2  0  0  0  0
  6 11  1  0  0  0  0
  7  8  1  0  0  0  0
  8 38  1  0  0  0  0
  8  9  2  0  0  0  0
  9 13  1  0  0  0  0
 10  9  1  0  0  0  0
 10 39  1  0  0  0  0
 11 10  2  0  0  0  0
 12 40  1  0  0  0  0
 12  7  1  0  0  0  0
 12 41  1  0  0  0  0
 13 43  1  0  0  0  0
 13 44  1  0  0  0  0
 14 11  1  0  0  0  0
 14 46  1  0  0  0  0
 14 47  1  0  0  0  0
 15 49  1  6  0  0  0
 15 16  1  0  0  0  0
 16 50  1  0  0  0  0
 16 52  1  0  0  0  0
 16 51  1  0  0  0  0
 17 15  1  0  0  0  0
 17 18  1  0  0  0  0
 18 53  1  0  0  0  0
 19 18  2  0  0  0  0
 19 54  1  0  0  0  0
 20 19  1  0  0  0  0
 21 22  1  0  0  0  0
 21 20  2  0  0  0  0
 22 17  2  0  0  0  0
 23 28  1  0  0  0  0
 24 25  1  0  0  0  0
 24 23  2  0  0  0  0
 25 26  2  0  0  0  0
 26 60  1  0  0  0  0
 26 27  1  0  0  0  0
 27 61  1  0  0  0  0
 28 27  2  0  0  0  0
 28 62  1  0  0  0  0
 29  2  1  0  0  0  0
 29  5  1  0  0  0  0
 30  5  1  0  0  0  0
 30  6  1  0  0  0  0
 31 15  1  0  0  0  0
 31 32  1  0  0  0  0
 35  2  1  0  0  0  0
 36  3  1  0  0  0  0
 37  4  1  0  0  0  0
 42 12  1  0  0  0  0
 45 13  1  0  0  0  0
 48 14  1  0  0  0  0
 55 20  1  0  0  0  0
 56 21  1  0  0  0  0
 57 22  1  0  0  0  0
 58 24  1  0  0  0  0
 59 25  1  0  0  0  0
M  END
