1,8
 OpenBabel05122313053D

 20 21  0  0  1  0  0  0  0  0999 V2000
   -0.9422    1.5299    0.1386 N   0  0  0  0  0  2  0  0  0  0  0  0
   -3.7742   -0.8243    0.2831 C   0  0  0  0  0  0  0  0  0  0  0  0
   -4.6602   -0.1931    0.4630 H   0  0  0  0  0  0  0  0  0  0  0  0
   -2.2075    1.1759    0.1977 C   0  0  1  0  0  3  0  0  0  0  0  0
   -3.0788    2.2411    0.2336 N   0  0  0  0  0  0  0  0  0  0  0  0
   -2.7710   -2.9974   -0.0923 C   0  0  0  0  0  0  0  0  0  0  0  0
   -2.8796   -4.0868   -0.2170 H   0  0  0  0  0  0  0  0  0  0  0  0
   -1.3169   -1.0281   -0.0337 C   0  0  0  0  0  3  0  0  0  0  0  0
   -0.8495    2.9841    0.0799 C   0  0  0  0  0  0  0  0  0  0  0  0
   -0.1602    3.2987   -0.7291 H   0  0  0  0  0  0  0  0  0  0  0  0
   -0.4483    3.3823    1.0402 H   0  0  0  0  0  0  0  0  0  0  0  0
   -2.4935   -0.2451    0.1783 C   0  0  0  0  0  0  0  0  0  0  0  0
   -3.9118   -2.2111    0.1608 C   0  0  0  0  0  0  0  0  0  0  0  0
   -4.9027   -2.6812    0.2463 H   0  0  0  0  0  0  0  0  0  0  0  0
   -1.4970   -2.4145   -0.1992 C   0  0  0  0  0  0  0  0  0  0  0  0
   -0.6343   -3.0559   -0.4343 H   0  0  0  0  0  0  0  0  0  0  0  0
   -2.3170    3.4389   -0.1602 C   0  0  0  0  0  0  0  0  0  0  0  0
   -2.5983    4.3212    0.4488 H   0  0  0  0  0  0  0  0  0  0  0  0
   -2.4891    3.6849   -1.2321 H   0  0  0  0  0  0  0  0  0  0  0  0
   -4.0168    2.1067   -0.1470 H   0  0  0  0  0  0  0  0  0  0  0  0
  1  4  1  0  0  0  0
  2  3  1  0  0  0  0
  4 12  1  6  0  0  0
  4  5  1  0  0  0  0
  6 13  1  0  0  0  0
  7  6  1  0  0  0  0
  8 12  2  0  0  0  0
  9  1  1  0  0  0  0
  9 11  1  0  0  0  0
 10  9  1  0  0  0  0
 12  2  1  0  0  0  0
 13 14  1  0  0  0  0
 13  2  2  0  0  0  0
 15  6  2  0  0  0  0
 15  8  1  0  0  0  0
 16 15  1  0  0  0  0
 17  9  1  0  0  0  0
 17  5  1  0  0  0  0
 17 18  1  0  0  0  0
 19 17  1  0  0  0  0
 20  5  1  0  0  0  0
M  END
