3,9
 OpenBabel05122313053D

 26 29  0  0  0  0  0  0  0  0999 V2000
   -6.7986   -0.7086    0.0000 Br  0  0  0  0  0  0  0  0  0  0  0  0
   -3.1942    3.4100    0.0000 O   0  0  0  0  0  0  0  0  0  0  0  0
    0.1114   -0.9682   -0.0001 N   0  0  0  0  0  0  0  0  0  0  0  0
    1.8656    2.7155    0.0000 C   0  0  0  0  0  0  0  0  0  0  0  0
    2.9640    2.8018    0.0001 H   0  0  0  0  0  0  0  0  0  0  0  0
   -0.7430    0.0786   -0.0001 C   0  0  0  0  0  0  0  0  0  0  0  0
   -2.1502   -0.1065   -0.0000 C   0  0  0  0  0  0  0  0  0  0  0  0
   -3.0104    1.0301   -0.0000 C   0  0  0  0  0  0  0  0  0  0  0  0
    1.2763    1.4357   -0.0000 C   0  0  0  0  0  3  0  0  0  0  0  0
   -2.4475    2.4309   -0.0000 C   0  0  0  0  0  0  0  0  0  0  0  0
   -4.3893    0.8363   -0.0000 C   0  0  0  0  0  0  0  0  0  0  0  0
   -5.0449    1.7195    0.0000 H   0  0  0  0  0  0  0  0  0  0  0  0
   -0.3743   -2.2452   -0.0001 C   0  0  0  0  0  0  0  0  0  0  0  0
    0.3972   -3.0311   -0.0001 H   0  0  0  0  0  0  0  0  0  0  0  0
   -4.9133   -0.4814   -0.0000 C   0  0  0  0  0  0  0  0  0  0  0  0
   -0.9609    2.5499   -0.0000 C   0  0  0  0  0  0  0  0  0  0  0  0
   -4.0886   -1.6053   -0.0000 C   0  0  0  0  0  0  0  0  0  0  0  0
   -4.5219   -2.6155   -0.0000 H   0  0  0  0  0  0  0  0  0  0  0  0
   -2.6761   -1.4367   -0.0000 C   0  0  0  0  0  0  0  0  0  0  0  0
   -0.1472    1.3885   -0.0000 C   0  0  0  0  0  0  0  0  0  0  0  0
   -1.7345   -2.5111   -0.0001 C   0  0  0  0  0  0  0  0  0  0  0  0
   -2.0813   -3.5542   -0.0001 H   0  0  0  0  0  0  0  0  0  0  0  0
    1.0662    3.8773    0.0000 C   0  0  0  0  0  0  0  0  0  0  0  0
    1.5592    4.8622    0.0000 H   0  0  0  0  0  0  0  0  0  0  0  0
   -0.3358    3.8087   -0.0000 C   0  0  0  0  0  0  0  0  0  0  0  0
   -0.9652    4.7103   -0.0000 H   0  0  0  0  0  0  0  0  0  0  0  0
  3  6  2  0  0  0  0
  4  5  1  0  0  0  0
  6  7  1  0  0  0  0
  6 20  1  0  0  0  0
  7  8  1  0  0  0  0
  8 10  1  0  0  0  0
  8 11  2  0  0  0  0
  9  4  2  0  0  0  0
 10  2  2  0  0  0  0
 11 15  1  0  0  0  0
 11 12  1  0  0  0  0
 13 14  1  0  0  0  0
 13  3  1  0  0  0  0
 13 21  2  0  0  0  0
 15  1  1  0  0  0  0
 16 10  1  0  0  0  0
 16 25  1  0  0  0  0
 17 18  1  0  0  0  0
 17 15  2  0  0  0  0
 19  7  2  0  0  0  0
 19 17  1  0  0  0  0
 20 16  2  0  0  0  0
 20  9  1  0  0  0  0
 21 22  1  0  0  0  0
 21 19  1  0  0  0  0
 23 24  1  0  0  0  0
 23  4  1  0  0  0  0
 25 23  2  0  0  0  0
 26 25  1  0  0  0  0
M  END
