3,5
 OpenBabel05122313053D

 43 48  0  0  1  0  0  0  0  0999 V2000
   -0.4010    0.9914   -0.4860 N   0  0  0  0  0  0  0  0  0  0  0  0
   -3.7624   -0.2246   -1.1734 N   0  0  0  0  0  0  0  0  0  0  0  0
    1.9337   -1.8034   -0.1449 N   0  0  0  0  0  0  0  0  0  0  0  0
    0.7504    0.1853   -0.2929 C   0  0  0  0  0  3  0  0  0  0  0  0
    1.9119    0.8987   -0.0738 C   0  0  0  0  0  3  0  0  0  0  0  0
    1.4748    2.2799   -0.1339 C   0  0  0  0  0  0  0  0  0  0  0  0
    2.1662    3.5033   -0.0051 C   0  0  0  0  0  0  0  0  0  0  0  0
    3.2524    3.4925    0.1678 H   0  0  0  0  0  0  0  0  0  0  0  0
    1.4620    4.7070   -0.1083 C   0  0  0  0  0  0  0  0  0  0  0  0
    1.9988    5.6628   -0.0098 H   0  0  0  0  0  0  0  0  0  0  0  0
    0.0661    4.7178   -0.3408 C   0  0  0  0  0  0  0  0  0  0  0  0
   -0.4632    5.6795   -0.4162 H   0  0  0  0  0  0  0  0  0  0  0  0
   -0.6624    3.5293   -0.4818 C   0  0  0  0  0  0  0  0  0  0  0  0
   -1.7446    3.5240   -0.6656 H   0  0  0  0  0  0  0  0  0  0  0  0
    0.0460    2.3223   -0.3810 C   0  0  1  0  0  3  0  0  0  0  0  0
   -1.5694    0.3251   -0.7219 C   0  0  0  0  0  0  0  0  0  0  0  0
   -2.9528    0.8868   -0.9607 C   0  0  0  0  0  0  0  0  0  0  0  0
   -3.0374   -1.4415   -1.0608 C   0  0  0  0  0  0  0  0  0  0  0  0
   -1.6367   -1.0671   -0.7805 C   0  0  0  0  0  0  0  0  0  0  0  0
   -0.4881   -1.9329   -0.6008 C   0  0  0  0  0  0  0  0  0  0  0  0
   -0.4098   -3.3369   -0.6398 C   0  0  0  0  0  0  0  0  0  0  0  0
   -1.3140   -3.9320   -0.8294 H   0  0  0  0  0  0  0  0  0  0  0  0
    0.8489   -3.9379   -0.4353 C   0  0  0  0  0  0  0  0  0  0  0  0
    0.9547   -5.0314   -0.4624 H   0  0  0  0  0  0  0  0  0  0  0  0
    1.9893   -3.1544   -0.1979 C   0  0  0  0  0  0  0  0  0  0  0  0
    2.9820   -3.6027   -0.0466 H   0  0  0  0  0  0  0  0  0  0  0  0
    0.7174   -1.2228   -0.3486 C   0  0  0  0  0  0  0  0  0  0  0  0
   -5.2072   -0.1560   -1.3529 C   0  0  0  0  0  0  0  0  0  0  0  0
   -5.4905   -1.0363   -1.9615 H   0  0  0  0  0  0  0  0  0  0  0  0
   -5.4203    0.7658   -1.9276 H   0  0  0  0  0  0  0  0  0  0  0  0
   -5.9581   -0.1525   -0.0351 C   0  0  0  0  0  0  0  0  0  0  0  0
   -6.2759    1.0628    0.6017 C   0  0  0  0  0  0  0  0  0  0  0  0
   -5.9892    2.0121    0.1232 H   0  0  0  0  0  0  0  0  0  0  0  0
   -6.9366    1.0628    1.8394 C   0  0  0  0  0  0  0  0  0  0  0  0
   -7.1833    2.0178    2.3281 H   0  0  0  0  0  0  0  0  0  0  0  0
   -7.2826   -0.1517    2.4530 C   0  0  0  0  0  0  0  0  0  0  0  0
   -7.8031   -0.1513    3.4229 H   0  0  0  0  0  0  0  0  0  0  0  0
   -6.9624   -1.3669    1.8262 C   0  0  0  0  0  0  0  0  0  0  0  0
   -7.2302   -2.3215    2.3045 H   0  0  0  0  0  0  0  0  0  0  0  0
   -6.3018   -1.3680    0.5888 C   0  0  0  0  0  0  0  0  0  0  0  0
   -6.0350   -2.3174    0.0987 H   0  0  0  0  0  0  0  0  0  0  0  0
   -3.3286    2.0508   -0.9743 O   0  0  0  0  0  0  0  0  0  0  0  0
   -3.5368   -2.5516   -1.1863 O   0  0  0  0  0  0  0  0  0  0  0  0
  1 15  1  0  0  0  0
  1  4  1  0  0  0  0
  2 18  1  0  0  0  0
  2 17  1  0  0  0  0
  4  5  1  0  0  0  0
  6  5  2  0  0  0  0
  6  7  1  0  0  0  0
  7  8  1  0  0  0  0
  9 10  1  0  0  0  0
  9  7  2  0  0  0  0
 11  9  1  0  0  0  0
 12 11  1  0  0  0  0
 13 11  2  0  0  0  0
 14 13  1  0  0  0  0
 15 13  1  6  0  0  0
 15  6  1  0  0  0  0
 16  1  1  0  0  0  0
 17 16  1  0  0  0  0
 18 19  1  0  0  0  0
 19 16  2  0  0  0  0
 19 20  1  0  0  0  0
 20 27  1  0  0  0  0
 21 20  2  0  0  0  0
 21 23  1  0  0  0  0
 22 21  1  0  0  0  0
 23 25  2  0  0  0  0
 24 23  1  0  0  0  0
 25  3  1  0  0  0  0
 25 26  1  0  0  0  0
 27  4  1  0  0  0  0
 27  3  2  0  0  0  0
 28  2  1  0  0  0  0
 28 31  1  0  0  0  0
 29 28  1  0  0  0  0
 30 28  1  0  0  0  0
 31 40  2  0  0  0  0
 31 32  1  0  0  0  0
 32 34  2  0  0  0  0
 33 32  1  0  0  0  0
 34 35  1  0  0  0  0
 34 36  1  0  0  0  0
 36 37  1  0  0  0  0
 38 39  1  0  0  0  0
 38 36  2  0  0  0  0
 40 38  1  0  0  0  0
 41 40  1  0  0  0  0
 42 17  2  0  0  0  0
 43 18  2  0  0  0  0
M  END
