2,18
 OpenBabel05122313053D

 26 28  0  0  1  0  0  0  0  0999 V2000
    0.9634    0.9881   -0.0001 C   0  0  0  0  0  0  0  0  0  0  0  0
    0.6697   -0.4065    0.0001 C   0  0  0  0  0  2  0  0  0  0  0  0
    1.7716   -1.2690    0.0002 C   0  0  0  0  0  0  0  0  0  0  0  0
    1.6079   -2.3584    0.0003 H   0  0  0  0  0  0  0  0  0  0  0  0
    3.1148   -0.8044    0.0001 C   0  0  0  0  0  0  0  0  0  0  0  0
    4.2480   -1.6688    0.0002 C   0  0  0  0  0  0  0  0  0  0  0  0
    4.0823   -2.7562    0.0004 H   0  0  0  0  0  0  0  0  0  0  0  0
    5.5311   -1.1433    0.0001 C   0  0  0  0  0  0  0  0  0  0  0  0
    6.4018   -1.8148    0.0002 H   0  0  0  0  0  0  0  0  0  0  0  0
    5.7346    0.2642   -0.0002 C   0  0  0  0  0  0  0  0  0  0  0  0
    6.7591    0.6645   -0.0004 H   0  0  0  0  0  0  0  0  0  0  0  0
    4.6578    1.1422   -0.0003 C   0  0  0  0  0  0  0  0  0  0  0  0
    4.8166    2.2315   -0.0006 H   0  0  0  0  0  0  0  0  0  0  0  0
    3.3465    0.6126   -0.0002 C   0  0  2  0  0  3  0  0  0  0  0  0
    2.2430    1.4335   -0.0002 N   0  0  0  0  0  0  0  0  0  0  0  0
    2.4203    2.4442   -0.0005 H   0  0  0  0  0  0  0  0  0  0  0  0
   -0.1530    1.9473    0.0000 C   0  0  0  0  0  0  0  0  0  0  0  0
   -1.3837    1.3517   -0.0002 N   0  0  0  0  0  2  0  0  0  0  0  0
   -2.4867    2.1244   -0.0002 C   0  0  0  0  0  0  0  0  0  0  0  0
   -3.4532    1.5999   -0.0004 H   0  0  0  0  0  0  0  0  0  0  0  0
   -2.4265    3.5247    0.0001 C   0  0  0  0  0  0  0  0  0  0  0  0
   -3.3573    4.1090    0.0001 H   0  0  0  0  0  0  0  0  0  0  0  0
   -1.1718    4.1478    0.0004 C   0  0  0  0  0  0  0  0  0  0  0  0
   -1.0858    5.2440    0.0006 H   0  0  0  0  0  0  0  0  0  0  0  0
   -0.0228    3.3467    0.0003 C   0  0  0  0  0  0  0  0  0  0  0  0
    0.9662    3.8296    0.0006 H   0  0  0  0  0  0  0  0  0  0  0  0
  1 17  2  0  0  0  0
  1  2  1  0  0  0  0
  2  3  1  0  0  0  0
  3  4  1  0  0  0  0
  5  3  2  0  0  0  0
  5  6  1  0  0  0  0
  6  7  1  0  0  0  0
  8  9  1  0  0  0  0
  8  6  2  0  0  0  0
 10  8  1  0  0  0  0
 11 10  1  0  0  0  0
 12 10  2  0  0  0  0
 13 12  1  0  0  0  0
 14 12  1  1  0  0  0
 14  5  1  0  0  0  0
 15 14  1  0  0  0  0
 15  1  1  0  0  0  0
 16 15  1  0  0  0  0
 17 25  1  0  0  0  0
 18 19  1  0  0  0  0
 18 17  1  0  0  0  0
 19 21  2  0  0  0  0
 20 19  1  0  0  0  0
 21 22  1  0  0  0  0
 21 23  1  0  0  0  0
 23 24  1  0  0  0  0
 25 23  2  0  0  0  0
 25 26  1  0  0  0  0
M  END
