1,19
 OpenBabel05122313053D

 49 51  0  0  1  0  0  0  0  0999 V2000
   -0.8378   -2.1997   -2.0387 N   0  0  0  0  0  0  0  0  0  0  0  0
   -0.4613   -3.6265   -2.0306 C   0  0  0  0  0  0  0  0  0  0  0  0
   -0.6829   -1.6510   -3.4013 C   0  0  0  0  0  0  0  0  0  0  0  0
   -2.2404   -1.9752   -1.5066 C   0  0  1  0  0  0  0  0  0  0  0  0
   -3.3044   -2.8629   -2.1633 C   0  0  0  0  0  0  0  0  0  0  0  0
   -2.2672   -2.0200    0.0169 C   0  0  0  0  0  0  0  0  0  0  0  0
   -2.5153   -3.2189    0.7135 C   0  0  0  0  0  0  0  0  0  0  0  0
   -2.5825   -3.2523    2.1139 C   0  0  0  0  0  0  0  0  0  0  0  0
   -2.4448   -2.0625    2.8443 C   0  0  0  0  0  0  0  0  0  0  0  0
   -2.2235   -0.8565    2.1689 C   0  0  0  0  0  0  0  0  0  0  0  0
   -2.0994   -0.8150    0.7639 C   0  0  0  0  0  0  0  0  0  0  0  0
   -1.8069    0.4767    0.0771 C   0  0  1  0  0  3  0  0  0  0  0  0
   -2.6938    1.6247    0.3966 C   0  0  0  0  0  0  0  0  0  0  0  0
   -2.1999    2.9496    0.4783 C   0  0  0  0  0  0  0  0  0  0  0  0
   -3.0451    4.0175    0.8022 C   0  0  0  0  0  0  0  0  0  0  0  0
   -4.4088    3.7932    1.0585 C   0  0  0  0  0  0  0  0  0  0  0  0
   -4.9143    2.4852    0.9926 C   0  0  0  0  0  0  0  0  0  0  0  0
   -4.0673    1.4153    0.6715 C   0  0  0  0  0  0  0  0  0  0  0  0
   -0.7240    0.5130   -0.7678 C   0  0  0  0  0  2  0  0  0  0  0  0
   -0.4271    1.5801   -1.7381 C   0  0  0  0  0  0  0  0  0  0  0  0
    0.8871    2.0627   -1.9607 C   0  0  0  0  0  0  0  0  0  0  0  0
    1.1443    3.0553   -2.9154 C   0  0  0  0  0  0  0  0  0  0  0  0
    0.1015    3.5746   -3.6996 C   0  0  0  0  0  0  0  0  0  0  0  0
   -1.2043    3.0873   -3.5169 C   0  0  0  0  0  0  0  0  0  0  0  0
   -1.4658    2.1076   -2.5523 C   0  0  0  0  0  0  0  0  0  0  0  0
   -1.0660   -4.2027   -2.7650 H   0  0  0  0  0  0  0  0  0  0  0  0
   -0.6024   -4.0422   -1.0170 H   0  0  0  0  0  0  0  0  0  0  0  0
    0.6133   -3.7159   -2.2696 H   0  0  0  0  0  0  0  0  0  0  0  0
   -1.3290   -2.1837   -4.1361 H   0  0  0  0  0  0  0  0  0  0  0  0
    0.3717   -1.7699   -3.7137 H   0  0  0  0  0  0  0  0  0  0  0  0
   -0.9327   -0.5736   -3.4052 H   0  0  0  0  0  0  0  0  0  0  0  0
   -2.4599   -0.9274   -1.7871 H   0  0  0  0  0  0  0  0  0  0  0  0
   -4.3057   -2.5391   -1.8191 H   0  0  0  0  0  0  0  0  0  0  0  0
   -3.1992   -3.9360   -1.9134 H   0  0  0  0  0  0  0  0  0  0  0  0
   -3.2849   -2.7688   -3.2672 H   0  0  0  0  0  0  0  0  0  0  0  0
   -2.6709   -4.1522    0.1526 H   0  0  0  0  0  0  0  0  0  0  0  0
   -2.7605   -4.2068    2.6317 H   0  0  0  0  0  0  0  0  0  0  0  0
   -2.5163   -2.0755    3.9430 H   0  0  0  0  0  0  0  0  0  0  0  0
   -2.1291    0.0858    2.7283 H   0  0  0  0  0  0  0  0  0  0  0  0
   -1.1348    3.1361    0.2841 H   0  0  0  0  0  0  0  0  0  0  0  0
   -2.6338    5.0371    0.8615 H   0  0  0  0  0  0  0  0  0  0  0  0
   -5.0718    4.6335    1.3145 H   0  0  0  0  0  0  0  0  0  0  0  0
   -5.9800    2.2948    1.1936 H   0  0  0  0  0  0  0  0  0  0  0  0
   -4.4707    0.3922    0.6258 H   0  0  0  0  0  0  0  0  0  0  0  0
    1.7202    1.6413   -1.3804 H   0  0  0  0  0  0  0  0  0  0  0  0
    2.1750    3.4159   -3.0550 H   0  0  0  0  0  0  0  0  0  0  0  0
    0.3063    4.3447   -4.4586 H   0  0  0  0  0  0  0  0  0  0  0  0
   -2.0289    3.4755   -4.1347 H   0  0  0  0  0  0  0  0  0  0  0  0
   -2.4918    1.7365   -2.4090 H   0  0  0  0  0  0  0  0  0  0  0  0
  1  2  1  0  0  0  0
  1  4  1  0  0  0  0
  2 27  1  0  0  0  0
  3  1  1  0  0  0  0
  4 32  1  6  0  0  0
  4  6  1  0  0  0  0
  5 34  1  0  0  0  0
  5 33  1  0  0  0  0
  5  4  1  0  0  0  0
  6  7  2  0  0  0  0
  6 11  1  0  0  0  0
  7  8  1  0  0  0  0
  8 37  1  0  0  0  0
  8  9  2  0  0  0  0
  9 38  1  0  0  0  0
 10 39  1  0  0  0  0
 10  9  1  0  0  0  0
 11 10  2  0  0  0  0
 12 19  1  1  0  0  0
 12 13  1  0  0  0  0
 12 11  1  0  0  0  0
 13 14  2  0  0  0  0
 13 18  1  0  0  0  0
 14 15  1  0  0  0  0
 15 41  1  0  0  0  0
 15 16  2  0  0  0  0
 16 42  1  0  0  0  0
 17 16  1  0  0  0  0
 17 43  1  0  0  0  0
 18 17  2  0  0  0  0
 20 19  1  0  0  0  0
 21 20  1  0  0  0  0
 21 45  1  0  0  0  0
 22 21  2  0  0  0  0
 23 24  2  0  0  0  0
 23 22  1  0  0  0  0
 24 25  1  0  0  0  0
 25 49  1  0  0  0  0
 25 20  2  0  0  0  0
 26  2  1  0  0  0  0
 28  2  1  0  0  0  0
 29  3  1  0  0  0  0
 30  3  1  0  0  0  0
 31  3  1  0  0  0  0
 35  5  1  0  0  0  0
 36  7  1  0  0  0  0
 40 14  1  0  0  0  0
 44 18  1  0  0  0  0
 46 22  1  0  0  0  0
 47 23  1  0  0  0  0
 48 24  1  0  0  0  0
M  END
