1,4
 OpenBabel05122313053D

 40 40  0  0  1  0  0  0  0  0999 V2000
   -1.3899   -2.0302   -0.1667 C   0  0  0  0  0  3  0  0  0  0  0  0
   -1.9114   -3.2416   -0.0209 O   0  0  0  0  0  0  0  0  0  0  0  0
   -2.9188   -3.1209    0.1097 H   0  0  0  0  0  0  0  0  0  0  0  0
   -0.3698    0.3993   -0.4187 N   0  0  0  0  0  2  0  0  0  0  0  0
   -2.7095    2.0804    1.1886 O   0  0  0  0  0  0  0  0  0  0  0  0
   -2.5777    2.3436   -1.0736 O   0  0  0  0  0  0  0  0  0  0  0  0
   -4.2462   -2.2399    0.2199 O   0  0  0  0  0  0  0  0  0  0  0  0
   -4.4813    0.0007   -0.0352 O   0  0  0  0  0  0  0  0  0  0  0  0
   -1.6749    0.3711   -0.1676 C   0  0  1  0  0  3  0  0  0  0  0  0
   -2.3002   -0.9025   -0.0737 C   0  0  0  0  0  0  0  0  0  0  0  0
   -2.4025    1.6764    0.0822 C   0  0  0  0  0  0  0  0  0  0  0  0
   -3.1400    3.6737   -0.9741 C   0  0  0  0  0  0  0  0  0  0  0  0
   -3.6422    3.8359   -1.9476 H   0  0  0  0  0  0  0  0  0  0  0  0
   -3.8991    3.6796   -0.1657 H   0  0  0  0  0  0  0  0  0  0  0  0
   -2.0519    4.7042   -0.7209 C   0  0  0  0  0  0  0  0  0  0  0  0
   -1.5836    4.5448    0.2693 H   0  0  0  0  0  0  0  0  0  0  0  0
   -2.4834    5.7253   -0.7433 H   0  0  0  0  0  0  0  0  0  0  0  0
   -1.2588    4.6395   -1.4920 H   0  0  0  0  0  0  0  0  0  0  0  0
   -3.7274   -1.1170    0.0540 C   0  0  0  0  0  0  0  0  0  0  0  0
   -5.8997   -0.1377    0.1682 C   0  0  0  0  0  0  0  0  0  0  0  0
   -6.3265   -0.7427   -0.6602 H   0  0  0  0  0  0  0  0  0  0  0  0
   -6.0777   -0.7064    1.1051 H   0  0  0  0  0  0  0  0  0  0  0  0
   -6.4850    1.2593    0.2222 C   0  0  0  0  0  0  0  0  0  0  0  0
   -6.0313    1.8398    1.0500 H   0  0  0  0  0  0  0  0  0  0  0  0
   -7.5801    1.2107    0.3830 H   0  0  0  0  0  0  0  0  0  0  0  0
   -6.2967    1.8035   -0.7249 H   0  0  0  0  0  0  0  0  0  0  0  0
    0.3876    1.5924   -0.3696 C   0  0  0  0  0  0  0  0  0  0  0  0
    0.4912    2.3529    0.8134 C   0  0  0  0  0  0  0  0  0  0  0  0
   -0.0887    2.0527    1.6977 H   0  0  0  0  0  0  0  0  0  0  0  0
    1.3334    3.4744    0.8611 C   0  0  0  0  0  0  0  0  0  0  0  0
    1.4048    4.0529    1.7963 H   0  0  0  0  0  0  0  0  0  0  0  0
    2.0978    3.8666   -0.2530 C   0  0  0  0  0  0  0  0  0  0  0  0
    1.9788    3.0994   -1.4347 C   0  0  0  0  0  0  0  0  0  0  0  0
    2.5627    3.3847   -2.3245 H   0  0  0  0  0  0  0  0  0  0  0  0
    1.1455    1.9806   -1.4962 C   0  0  0  0  0  0  0  0  0  0  0  0
    1.0667    1.3804   -2.4142 H   0  0  0  0  0  0  0  0  0  0  0  0
    3.0260    5.0536   -0.1984 C   0  0  0  0  0  0  0  0  0  0  0  0
    4.0816    4.7475   -0.3599 H   0  0  0  0  0  0  0  0  0  0  0  0
    2.9709    5.5718    0.7786 H   0  0  0  0  0  0  0  0  0  0  0  0
    2.7855    5.7946   -0.9891 H   0  0  0  0  0  0  0  0  0  0  0  0
  1 10  2  0  0  0  0
  1  2  1  0  0  0  0
  2  3  1  0  0  0  0
  4 27  1  0  0  0  0
  6 12  1  0  0  0  0
  6 11  1  0  0  0  0
  8 19  1  0  0  0  0
  8 20  1  0  0  0  0
  9  4  1  1  0  0  0
  9 10  1  0  0  0  0
  9 11  1  0  0  0  0
 10 19  1  0  0  0  0
 11  5  2  0  0  0  0
 12 15  1  0  0  0  0
 12 14  1  0  0  0  0
 13 12  1  0  0  0  0
 15 16  1  0  0  0  0
 17 15  1  0  0  0  0
 18 15  1  0  0  0  0
 19  7  2  0  0  0  0
 20 23  1  0  0  0  0
 20 22  1  0  0  0  0
 21 20  1  0  0  0  0
 23 25  1  0  0  0  0
 23 24  1  0  0  0  0
 26 23  1  0  0  0  0
 27 28  1  0  0  0  0
 28 30  2  0  0  0  0
 28 29  1  0  0  0  0
 30 31  1  0  0  0  0
 32 37  1  0  0  0  0
 32 30  1  0  0  0  0
 33 32  2  0  0  0  0
 34 33  1  0  0  0  0
 35 33  1  0  0  0  0
 35 27  2  0  0  0  0
 36 35  1  0  0  0  0
 37 39  1  0  0  0  0
 38 37  1  0  0  0  0
 40 37  1  0  0  0  0
M  END
