3,4
 OpenBabel05122313053D

 23 24  0  0  0  0  0  0  0  0999 V2000
   -3.4164   -3.6681   -0.3465 O   0  0  0  0  0  0  0  0  0  0  0  0
   -5.3919   -2.5796   -0.1989 O   0  0  0  0  0  0  0  0  0  0  0  0
    0.0040    2.2512   -0.0163 N   0  0  0  0  0  2  0  0  0  0  0  0
   -1.2987   -0.0001    0.0174 C   0  0  0  0  0  2  0  0  0  0  0  0
   -1.9993   -1.2101   -0.1311 C   0  0  0  0  0  0  0  0  0  0  0  0
   -3.4065   -1.2745   -0.0860 C   0  0  0  0  0  0  0  0  0  0  0  0
   -4.1711   -0.1012    0.0851 C   0  0  0  0  0  0  0  0  0  0  0  0
   -3.5124    1.1267    0.1754 C   0  0  0  0  0  0  0  0  0  0  0  0
   -2.1041    1.1863    0.1274 C   0  0  0  0  0  0  0  0  0  0  0  0
   -1.3500    2.4382    0.1176 C   0  0  0  0  0  0  0  0  0  0  0  0
    0.8528    3.3017   -0.0844 C   0  0  0  0  0  0  0  0  0  0  0  0
    0.3857    4.6165   -0.0167 C   0  0  0  0  0  0  0  0  0  0  0  0
   -0.9937    4.8399    0.1290 C   0  0  0  0  0  0  0  0  0  0  0  0
   -1.8625    3.7459    0.1952 C   0  0  0  0  0  0  0  0  0  0  0  0
   -4.0333   -2.6209   -0.2246 C   0  0  0  0  0  0  0  0  0  0  0  0
   -1.4855   -2.1639   -0.3134 H   0  0  0  0  0  0  0  0  0  0  0  0
   -5.2667   -0.1614    0.1269 H   0  0  0  0  0  0  0  0  0  0  0  0
   -4.1037    2.0500    0.2734 H   0  0  0  0  0  0  0  0  0  0  0  0
    1.9171    3.0355   -0.1875 H   0  0  0  0  0  0  0  0  0  0  0  0
    1.1014    5.4479   -0.0755 H   0  0  0  0  0  0  0  0  0  0  0  0
   -1.3901    5.8643    0.1900 H   0  0  0  0  0  0  0  0  0  0  0  0
   -2.9450    3.8952    0.3064 H   0  0  0  0  0  0  0  0  0  0  0  0
   -5.6770   -3.5137   -0.2936 H   0  0  0  0  0  0  0  0  0  0  0  0
  1 15  2  0  0  0  0
  3 10  1  0  0  0  0
  4  9  1  0  0  0  0
  5  6  2  0  0  0  0
  5  4  1  0  0  0  0
  6  7  1  0  0  0  0
  7 17  1  0  0  0  0
  7  8  2  0  0  0  0
  8 18  1  0  0  0  0
  9  8  1  0  0  0  0
 10  9  2  0  0  0  0
 10 14  1  0  0  0  0
 11 12  2  0  0  0  0
 11  3  1  0  0  0  0
 12 13  1  0  0  0  0
 13 21  1  0  0  0  0
 13 14  2  0  0  0  0
 14 22  1  0  0  0  0
 15  2  1  0  0  0  0
 15  6  1  0  0  0  0
 16  5  1  0  0  0  0
 19 11  1  0  0  0  0
 20 12  1  0  0  0  0
 23  2  1  0  0  0  0
M  END
