2,13
 OpenBabel05122313053D

 51 52  0  0  0  0  0  0  0  0999 V2000
   -3.3189   -0.5185   -0.3989 Si  0  0  0  0  0  0  0  0  0  0  0  0
    3.7768    0.0111   -0.4595 N   0  0  0  0  0  2  0  0  0  0  0  0
    3.2216   -2.0887    0.2257 N   0  0  0  0  0  0  0  0  0  0  0  0
    1.3050   -2.4291    1.1788 N   0  0  0  0  0  0  0  0  0  0  0  0
   -2.1776   -0.1124   -1.5452 O   0  0  0  0  0  0  0  0  0  0  0  0
   -3.8490    0.9561    0.2253 O   0  0  0  0  0  0  0  0  0  0  0  0
   -4.6085   -1.3983   -0.9778 O   0  0  0  0  0  0  0  0  0  0  0  0
    4.5828    0.9184   -1.0540 C   0  0  0  0  0  3  0  0  0  0  0  0
    5.8145    0.5565   -1.6068 C   0  0  0  0  0  0  0  0  0  0  0  0
    6.2276   -0.7837   -1.5408 C   0  0  0  0  0  0  0  0  0  0  0  0
    5.3969   -1.7312   -0.9269 C   0  0  0  0  0  0  0  0  0  0  0  0
    4.1804   -1.2873   -0.4028 C   0  0  0  0  0  0  0  0  0  0  0  0
    2.0811   -1.4418    0.6668 C   0  0  0  0  0  2  0  0  0  0  0  0
    1.9391   -3.6643    1.0566 C   0  0  0  0  0  0  0  0  0  0  0  0
    3.1545   -3.4577    0.4594 C   0  0  0  0  0  0  0  0  0  0  0  0
   -0.0811   -2.2506    1.6340 C   0  0  0  0  0  0  0  0  0  0  0  0
   -1.0042   -1.9669    0.4468 C   0  0  0  0  0  0  0  0  0  0  0  0
   -2.4305   -1.5886    0.8687 C   0  0  0  0  0  0  0  0  0  0  0  0
   -2.4032   -0.9895    1.8038 H   0  0  0  0  0  0  0  0  0  0  0  0
   -3.0516   -2.4809    1.0904 H   0  0  0  0  0  0  0  0  0  0  0  0
   -2.1798    1.0158   -2.4184 C   0  0  0  0  0  0  0  0  0  0  0  0
   -1.8237    0.6641   -3.4111 H   0  0  0  0  0  0  0  0  0  0  0  0
   -3.2110    1.4097   -2.5622 H   0  0  0  0  0  0  0  0  0  0  0  0
   -1.2764    2.1180   -1.8859 C   0  0  0  0  0  0  0  0  0  0  0  0
   -1.2006    2.9519   -2.6131 H   0  0  0  0  0  0  0  0  0  0  0  0
   -1.6781    2.5213   -0.9357 H   0  0  0  0  0  0  0  0  0  0  0  0
   -0.2553    1.7287   -1.6928 H   0  0  0  0  0  0  0  0  0  0  0  0
   -5.1187    1.1913    0.8409 C   0  0  0  0  0  0  0  0  0  0  0  0
   -5.9346    1.0238    0.1019 H   0  0  0  0  0  0  0  0  0  0  0  0
   -5.1431    2.2696    1.1052 H   0  0  0  0  0  0  0  0  0  0  0  0
   -5.3548    0.3341    2.0764 C   0  0  0  0  0  0  0  0  0  0  0  0
   -6.3254    0.5906    2.5470 H   0  0  0  0  0  0  0  0  0  0  0  0
   -5.3858   -0.7433    1.8127 H   0  0  0  0  0  0  0  0  0  0  0  0
   -4.5587    0.4901    2.8329 H   0  0  0  0  0  0  0  0  0  0  0  0
   -5.4731   -1.0030   -2.0482 C   0  0  0  0  0  0  0  0  0  0  0  0
   -5.5065    0.1081   -2.1413 H   0  0  0  0  0  0  0  0  0  0  0  0
   -5.0609   -1.3940   -3.0056 H   0  0  0  0  0  0  0  0  0  0  0  0
   -6.8681   -1.5514   -1.8067 C   0  0  0  0  0  0  0  0  0  0  0  0
   -7.5400   -1.2966   -2.6504 H   0  0  0  0  0  0  0  0  0  0  0  0
   -6.8379   -2.6544   -1.7056 H   0  0  0  0  0  0  0  0  0  0  0  0
   -7.3029   -1.1331   -0.8764 H   0  0  0  0  0  0  0  0  0  0  0  0
    4.1924    1.9468   -1.0614 H   0  0  0  0  0  0  0  0  0  0  0  0
    6.4399    1.3240   -2.0828 H   0  0  0  0  0  0  0  0  0  0  0  0
    7.1931   -1.0944   -1.9655 H   0  0  0  0  0  0  0  0  0  0  0  0
    5.6858   -2.7882   -0.8571 H   0  0  0  0  0  0  0  0  0  0  0  0
    1.4717   -4.5891    1.4091 H   0  0  0  0  0  0  0  0  0  0  0  0
    3.9501   -4.1587    0.1932 H   0  0  0  0  0  0  0  0  0  0  0  0
   -0.0921   -1.3931    2.3319 H   0  0  0  0  0  0  0  0  0  0  0  0
   -0.3676   -3.1645    2.1903 H   0  0  0  0  0  0  0  0  0  0  0  0
   -0.5534   -1.1318   -0.1246 H   0  0  0  0  0  0  0  0  0  0  0  0
   -1.0175   -2.8405   -0.2385 H   0  0  0  0  0  0  0  0  0  0  0  0
  1  6  1  0  0  0  0
  1 18  1  0  0  0  0
  2 12  1  0  0  0  0
  3 15  1  0  0  0  0
  3 13  1  0  0  0  0
  4 16  1  0  0  0  0
  5  1  1  0  0  0  0
  6 28  1  0  0  0  0
  7  1  1  0  0  0  0
  8  2  1  0  0  0  0
  9 10  2  0  0  0  0
  9  8  1  0  0  0  0
 10 11  1  0  0  0  0
 11 45  1  0  0  0  0
 11 12  2  0  0  0  0
 12  3  1  0  0  0  0
 13  4  1  0  0  0  0
 14  4  1  0  0  0  0
 14 46  1  0  0  0  0
 15 14  2  0  0  0  0
 16 49  1  0  0  0  0
 16 48  1  0  0  0  0
 17 18  1  0  0  0  0
 17 16  1  0  0  0  0
 18 20  1  0  0  0  0
 18 19  1  0  0  0  0
 21 24  1  0  0  0  0
 21  5  1  0  0  0  0
 22 21  1  0  0  0  0
 23 21  1  0  0  0  0
 24 27  1  0  0  0  0
 24 26  1  0  0  0  0
 25 24  1  0  0  0  0
 28 30  1  0  0  0  0
 28 31  1  0  0  0  0
 29 28  1  0  0  0  0
 31 32  1  0  0  0  0
 31 34  1  0  0  0  0
 33 31  1  0  0  0  0
 35 38  1  0  0  0  0
 35  7  1  0  0  0  0
 36 35  1  0  0  0  0
 37 35  1  0  0  0  0
 38 40  1  0  0  0  0
 38 41  1  0  0  0  0
 39 38  1  0  0  0  0
 42  8  1  0  0  0  0
 43  9  1  0  0  0  0
 44 10  1  0  0  0  0
 47 15  1  0  0  0  0
 50 17  1  0  0  0  0
 51 17  1  0  0  0  0
M  END
