1,36
 OpenBabel05122313053D

 40 42  0  0  1  0  0  0  0  0999 V2000
   -1.5904   -0.5001    0.0526 N   0  0  0  0  0  0  0  0  0  0  0  0
    0.3799   -0.4517   -2.3094 N   0  0  0  0  0  0  0  0  0  0  0  0
    2.2542    0.2144   -1.4534 N   0  0  0  0  0  0  0  0  0  0  0  0
    0.4912   -2.9258    1.2265 C   0  0  0  0  0  0  0  0  0  0  0  0
   -0.1985   -3.6550    0.7700 H   0  0  0  0  0  0  0  0  0  0  0  0
    1.8353   -3.2792    1.4316 C   0  0  0  0  0  0  0  0  0  0  0  0
    2.1966   -4.2706    1.1184 H   0  0  0  0  0  0  0  0  0  0  0  0
    2.7089   -2.3731    2.0522 C   0  0  0  0  0  0  0  0  0  0  0  0
    3.7605   -2.6508    2.2231 H   0  0  0  0  0  0  0  0  0  0  0  0
    2.2309   -1.1209    2.4760 C   0  0  0  0  0  0  0  0  0  0  0  0
    2.9039   -0.4146    2.9856 H   0  0  0  0  0  0  0  0  0  0  0  0
    0.8928   -0.7629    2.2576 C   0  0  0  0  0  0  0  0  0  0  0  0
    0.5099    0.2178    2.5844 H   0  0  0  0  0  0  0  0  0  0  0  0
    0.0100   -1.6609    1.6176 C   0  0  0  0  0  0  0  0  0  0  0  0
   -1.4157   -1.2413    1.3556 C   0  0  0  0  0  0  0  0  0  0  0  0
   -1.7442   -0.5228    2.1318 H   0  0  0  0  0  0  0  0  0  0  0  0
   -2.0848   -2.1290    1.3688 H   0  0  0  0  0  0  0  0  0  0  0  0
   -2.9839    0.0516   -0.0447 C   0  0  0  0  0  0  0  0  0  0  0  0
   -2.9805    0.8058   -0.8572 H   0  0  0  0  0  0  0  0  0  0  0  0
   -3.2163    0.5970    0.8875 H   0  0  0  0  0  0  0  0  0  0  0  0
   -3.8718   -1.1440   -0.3994 C   0  0  0  0  0  0  0  0  0  0  0  0
   -4.1963   -1.6807    0.5143 H   0  0  0  0  0  0  0  0  0  0  0  0
   -4.7910   -0.8244   -0.9264 H   0  0  0  0  0  0  0  0  0  0  0  0
   -2.9567   -2.0325   -1.2748 C   0  0  0  0  0  0  0  0  0  0  0  0
   -3.2627   -2.0084   -2.3401 H   0  0  0  0  0  0  0  0  0  0  0  0
   -2.9878   -3.0944   -0.9634 H   0  0  0  0  0  0  0  0  0  0  0  0
   -1.5241   -1.4469   -1.1145 C   0  0  1  0  0  0  0  0  0  0  0  0
   -0.7749   -2.2261   -0.8781 H   0  0  0  0  0  0  0  0  0  0  0  0
   -1.0414   -0.7363   -2.3862 C   0  0  0  0  0  0  0  0  0  0  0  0
   -1.2131   -1.3910   -3.2617 H   0  0  0  0  0  0  0  0  0  0  0  0
   -1.5976    0.2102   -2.5476 H   0  0  0  0  0  0  0  0  0  0  0  0
    1.3837   -1.0612   -3.0510 C   0  0  0  0  0  0  0  0  0  0  0  0
    1.1750   -1.7172   -3.9011 H   0  0  0  0  0  0  0  0  0  0  0  0
    2.5668   -0.6317   -2.5101 C   0  0  0  0  0  0  0  0  0  0  0  0
    3.6015   -0.8486   -2.7907 H   0  0  0  0  0  0  0  0  0  0  0  0
    0.8981    0.3310   -1.3139 C   0  0  0  0  0  2  0  0  0  0  0  0
    3.2525    0.7798   -0.5523 C   0  0  0  0  0  0  0  0  0  0  0  0
    2.8294    1.7022   -0.1084 H   0  0  0  0  0  0  0  0  0  0  0  0
    4.1619    1.0270   -1.1310 H   0  0  0  0  0  0  0  0  0  0  0  0
    3.4980    0.0475    0.2422 H   0  0  0  0  0  0  0  0  0  0  0  0
  1 15  1  0  0  0  0
  2 36  1  0  0  0  0
  3 36  1  0  0  0  0
  3 37  1  0  0  0  0
  4  6  2  0  0  0  0
  4 14  1  0  0  0  0
  5  4  1  0  0  0  0
  6  8  1  0  0  0  0
  7  6  1  0  0  0  0
  8  9  1  0  0  0  0
  8 10  2  0  0  0  0
 10 11  1  0  0  0  0
 12 10  1  0  0  0  0
 12 13  1  0  0  0  0
 14 12  2  0  0  0  0
 15 17  1  0  0  0  0
 15 14  1  0  0  0  0
 15 16  1  0  0  0  0
 18  1  1  0  0  0  0
 18 20  1  0  0  0  0
 19 18  1  0  0  0  0
 21 18  1  0  0  0  0
 21 22  1  0  0  0  0
 23 21  1  0  0  0  0
 24 27  1  0  0  0  0
 24 26  1  0  0  0  0
 24 21  1  0  0  0  0
 25 24  1  0  0  0  0
 27 28  1  1  0  0  0
 27  1  1  0  0  0  0
 29  2  1  0  0  0  0
 29 27  1  0  0  0  0
 30 29  1  0  0  0  0
 31 29  1  0  0  0  0
 32 34  2  0  0  0  0
 32  2  1  0  0  0  0
 33 32  1  0  0  0  0
 34  3  1  0  0  0  0
 35 34  1  0  0  0  0
 37 38  1  0  0  0  0
 37 40  1  0  0  0  0
 39 37  1  0  0  0  0
M  END
