1,36
 OpenBabel05122313053D

 40 42  0  0  1  0  0  0  0  0999 V2000
    0.7575    1.6105   -0.3126 N   0  0  0  0  0  0  0  0  0  0  0  0
    1.2324   -0.8399   -2.1225 N   0  0  0  0  0  0  0  0  0  0  0  0
    0.6605   -2.5366   -0.9052 N   0  0  0  0  0  0  0  0  0  0  0  0
    3.2001    0.1682    1.5814 C   0  0  0  0  0  0  0  0  0  0  0  0
    3.9089    0.8392    1.0685 H   0  0  0  0  0  0  0  0  0  0  0  0
    3.6641   -1.0373    2.1330 C   0  0  0  0  0  0  0  0  0  0  0  0
    4.7243   -1.3151    2.0327 H   0  0  0  0  0  0  0  0  0  0  0  0
    2.7775   -1.8744    2.8277 C   0  0  0  0  0  0  0  0  0  0  0  0
    3.1404   -2.8144    3.2713 H   0  0  0  0  0  0  0  0  0  0  0  0
    1.4319   -1.4963    2.9757 C   0  0  0  0  0  0  0  0  0  0  0  0
    0.7364   -2.1350    3.5414 H   0  0  0  0  0  0  0  0  0  0  0  0
    0.9660   -0.3005    2.4104 C   0  0  0  0  0  0  0  0  0  0  0  0
   -0.0885    0.0004    2.5226 H   0  0  0  0  0  0  0  0  0  0  0  0
    1.8463    0.5415    1.6962 C   0  0  0  0  0  0  0  0  0  0  0  0
    1.3230    1.8108    1.0698 C   0  0  0  0  0  0  0  0  0  0  0  0
    2.1292    2.5758    1.0333 H   0  0  0  0  0  0  0  0  0  0  0  0
    0.4783    2.2063    1.6680 H   0  0  0  0  0  0  0  0  0  0  0  0
    0.1140    2.8777   -0.7961 C   0  0  0  0  0  0  0  0  0  0  0  0
   -0.5230    2.6121   -1.6636 H   0  0  0  0  0  0  0  0  0  0  0  0
   -0.5664    3.2586   -0.0133 H   0  0  0  0  0  0  0  0  0  0  0  0
    1.2693    3.7920   -1.2128 C   0  0  0  0  0  0  0  0  0  0  0  0
    1.6515    4.3669   -0.3459 H   0  0  0  0  0  0  0  0  0  0  0  0
    0.9478    4.5317   -1.9707 H   0  0  0  0  0  0  0  0  0  0  0  0
    2.3367    2.8098   -1.7476 C   0  0  0  0  0  0  0  0  0  0  0  0
    3.3438    3.0294   -1.3436 H   0  0  0  0  0  0  0  0  0  0  0  0
    2.4224    2.8631   -2.8516 H   0  0  0  0  0  0  0  0  0  0  0  0
    1.8591    1.3936   -1.3144 C   0  0  2  0  0  0  0  0  0  0  0  0
    2.6611    0.8152   -0.8181 H   0  0  0  0  0  0  0  0  0  0  0  0
    1.3791    0.5526   -2.5056 C   0  0  0  0  0  0  0  0  0  0  0  0
    0.4120    0.9311   -2.8962 H   0  0  0  0  0  0  0  0  0  0  0  0
    2.1261    0.6068   -3.3204 H   0  0  0  0  0  0  0  0  0  0  0  0
    2.0570   -1.8892   -2.5072 C   0  0  0  0  0  0  0  0  0  0  0  0
    2.8075   -1.7921   -3.2971 H   0  0  0  0  0  0  0  0  0  0  0  0
    1.6863   -2.9620   -1.7404 C   0  0  0  0  0  0  0  0  0  0  0  0
    2.0580   -3.9905   -1.7223 H   0  0  0  0  0  0  0  0  0  0  0  0
    0.3713   -1.2179   -1.1291 C   0  0  0  0  0  2  0  0  0  0  0  0
    0.0874   -3.3712    0.1437 C   0  0  0  0  0  0  0  0  0  0  0  0
   -0.9053   -2.9619    0.4103 H   0  0  0  0  0  0  0  0  0  0  0  0
    0.7542   -3.3716    1.0285 H   0  0  0  0  0  0  0  0  0  0  0  0
   -0.0348   -4.4022   -0.2377 H   0  0  0  0  0  0  0  0  0  0  0  0
  1 15  1  0  0  0  0
  2 36  1  0  0  0  0
  3 37  1  0  0  0  0
  4 14  2  0  0  0  0
  4  6  1  0  0  0  0
  5  4  1  0  0  0  0
  6  8  2  0  0  0  0
  7  6  1  0  0  0  0
  8 10  1  0  0  0  0
  8  9  1  0  0  0  0
 10 11  1  0  0  0  0
 12 13  1  0  0  0  0
 12 10  2  0  0  0  0
 14 12  1  0  0  0  0
 15 17  1  0  0  0  0
 15 14  1  0  0  0  0
 16 15  1  0  0  0  0
 18  1  1  0  0  0  0
 18 20  1  0  0  0  0
 19 18  1  0  0  0  0
 21 18  1  0  0  0  0
 21 22  1  0  0  0  0
 23 21  1  0  0  0  0
 24 25  1  0  0  0  0
 24 27  1  0  0  0  0
 24 21  1  0  0  0  0
 26 24  1  0  0  0  0
 27 28  1  1  0  0  0
 27  1  1  0  0  0  0
 29  2  1  0  0  0  0
 29 27  1  0  0  0  0
 30 29  1  0  0  0  0
 31 29  1  0  0  0  0
 32  2  1  0  0  0  0
 32 34  2  0  0  0  0
 33 32  1  0  0  0  0
 34 35  1  0  0  0  0
 34  3  1  0  0  0  0
 36  3  1  0  0  0  0
 37 38  1  0  0  0  0
 37 39  1  0  0  0  0
 40 37  1  0  0  0  0
M  END
