1,2
 OpenBabel05122313053D

 29 29  0  0  0  0  0  0  0  0999 V2000
   -1.7335   -1.5424   -0.4242 N   0  0  0  0  0  2  0  0  0  0  0  0
   -2.4685    0.8920    0.0242 C   0  0  0  0  0  2  0  0  0  0  0  0
   -3.5123   -0.0818   -0.0519 C   0  0  0  0  0  0  0  0  0  0  0  0
   -4.8588    0.3114    0.1060 C   0  0  0  0  0  0  0  0  0  0  0  0
   -5.1680    1.6577    0.3388 C   0  0  0  0  0  0  0  0  0  0  0  0
   -4.1368    2.6115    0.4184 C   0  0  0  0  0  0  0  0  0  0  0  0
   -2.7895    2.2340    0.2636 C   0  0  0  0  0  0  0  0  0  0  0  0
   -3.0400   -1.4420   -0.2984 C   0  0  0  0  0  0  0  0  0  0  0  0
   -3.9575   -2.6266   -0.4123 C   0  0  0  0  0  0  0  0  0  0  0  0
   -1.0288   -2.7938   -0.6676 C   0  0  0  0  0  0  0  0  0  0  0  0
   -0.3490   -3.3334    0.5989 C   0  0  0  0  0  0  0  0  0  0  0  0
    0.6679   -4.4358    0.2914 C   0  0  0  0  0  0  0  0  0  0  0  0
    1.4182   -4.9169    1.5332 C   0  0  0  0  0  0  0  0  0  0  0  0
   -5.6699   -0.4309    0.0468 H   0  0  0  0  0  0  0  0  0  0  0  0
   -6.2165    1.9670    0.4613 H   0  0  0  0  0  0  0  0  0  0  0  0
   -4.3857    3.6681    0.6055 H   0  0  0  0  0  0  0  0  0  0  0  0
   -1.9857    2.9829    0.3314 H   0  0  0  0  0  0  0  0  0  0  0  0
   -3.6171   -3.4643    0.2274 H   0  0  0  0  0  0  0  0  0  0  0  0
   -3.9925   -3.0008   -1.4570 H   0  0  0  0  0  0  0  0  0  0  0  0
   -4.9876   -2.3648   -0.1145 H   0  0  0  0  0  0  0  0  0  0  0  0
   -0.2424   -2.5787   -1.4195 H   0  0  0  0  0  0  0  0  0  0  0  0
   -1.7093   -3.5530   -1.1064 H   0  0  0  0  0  0  0  0  0  0  0  0
    0.1707   -2.4882    1.0952 H   0  0  0  0  0  0  0  0  0  0  0  0
   -1.1196   -3.6976    1.3142 H   0  0  0  0  0  0  0  0  0  0  0  0
    0.1574   -5.2924   -0.2033 H   0  0  0  0  0  0  0  0  0  0  0  0
    1.3979   -4.0413   -0.4488 H   0  0  0  0  0  0  0  0  0  0  0  0
    2.1302   -5.7305    1.2886 H   0  0  0  0  0  0  0  0  0  0  0  0
    0.7226   -5.3013    2.3082 H   0  0  0  0  0  0  0  0  0  0  0  0
    2.0011   -4.0878    1.9840 H   0  0  0  0  0  0  0  0  0  0  0  0
  1  8  1  0  0  0  0
  2  7  1  0  0  0  0
  3  2  1  0  0  0  0
  3  4  1  0  0  0  0
  4  5  2  0  0  0  0
  5  6  1  0  0  0  0
  5 15  1  0  0  0  0
  6 16  1  0  0  0  0
  7 17  1  0  0  0  0
  7  6  2  0  0  0  0
  8  3  2  0  0  0  0
  9  8  1  0  0  0  0
  9 20  1  0  0  0  0
  9 18  1  0  0  0  0
 10  1  1  0  0  0  0
 10 11  1  0  0  0  0
 11 23  1  0  0  0  0
 11 24  1  0  0  0  0
 12 11  1  0  0  0  0
 12 13  1  0  0  0  0
 13 29  1  0  0  0  0
 13 28  1  0  0  0  0
 14  4  1  0  0  0  0
 19  9  1  0  0  0  0
 21 10  1  0  0  0  0
 22 10  1  0  0  0  0
 25 12  1  0  0  0  0
 26 12  1  0  0  0  0
 27 13  1  0  0  0  0
M  END
