1,4
 OpenBabel05122313053D

 37 38  0  0  0  0  0  0  0  0999 V2000
    0.4185   -1.8121    3.0556 N   0  0  0  0  0  0  0  0  0  0  0  0
   -0.0837   -2.7144    3.0533 H   0  0  0  0  0  0  0  0  0  0  0  0
    0.1599   -1.2842    3.9009 H   0  0  0  0  0  0  0  0  0  0  0  0
   -0.1286    0.8902    2.2116 C   0  0  0  0  0  3  0  0  0  0  0  0
    1.0589    1.6167    1.9274 C   0  0  0  0  0  0  0  0  0  0  0  0
    2.0999    1.0066    1.0492 C   0  0  0  0  0  0  0  0  0  0  0  0
    2.7788   -0.1696    1.4454 C   0  0  0  0  0  0  0  0  0  0  0  0
    2.6808   -0.7499    2.8438 C   0  0  0  0  0  0  0  0  0  0  0  0
    2.2835    0.0149    3.5430 H   0  0  0  0  0  0  0  0  0  0  0  0
    3.7128   -0.9718    3.1892 H   0  0  0  0  0  0  0  0  0  0  0  0
    1.8750   -2.0465    3.0059 C   0  0  0  0  0  0  0  0  0  0  0  0
    2.0601   -2.7319    2.1535 H   0  0  0  0  0  0  0  0  0  0  0  0
    2.2017   -2.5684    3.9337 H   0  0  0  0  0  0  0  0  0  0  0  0
    1.2459    2.8945    2.4956 C   0  0  0  0  0  0  0  0  0  0  0  0
    2.1612    3.4570    2.2508 H   0  0  0  0  0  0  0  0  0  0  0  0
    0.3029    3.4336    3.3846 C   0  0  0  0  0  0  0  0  0  0  0  0
    0.4672    4.4288    3.8253 H   0  0  0  0  0  0  0  0  0  0  0  0
   -0.8343    2.6857    3.7254 C   0  0  0  0  0  0  0  0  0  0  0  0
   -1.5689    3.0886    4.4409 H   0  0  0  0  0  0  0  0  0  0  0  0
   -1.0482    1.4257    3.1366 C   0  0  0  0  0  0  0  0  0  0  0  0
   -1.9663    0.8658    3.3809 H   0  0  0  0  0  0  0  0  0  0  0  0
    3.6726   -0.7789    0.5346 C   0  0  0  0  0  0  0  0  0  0  0  0
    4.1884   -1.6996    0.8419 H   0  0  0  0  0  0  0  0  0  0  0  0
    3.9277   -0.2364   -0.7298 C   0  0  0  0  0  0  0  0  0  0  0  0
    3.3118    0.9979   -1.0913 C   0  0  0  0  0  0  0  0  0  0  0  0
    2.4062    1.5930   -0.2027 C   0  0  0  0  0  0  0  0  0  0  0  0
    1.8746    2.5100   -0.4869 H   0  0  0  0  0  0  0  0  0  0  0  0
    5.3417   -2.0363   -1.3725 C   0  0  0  0  0  0  0  0  0  0  0  0
    6.0336   -1.9568   -0.5035 H   0  0  0  0  0  0  0  0  0  0  0  0
    5.9228   -2.3272   -2.2672 H   0  0  0  0  0  0  0  0  0  0  0  0
    4.5873   -2.8262   -1.1554 H   0  0  0  0  0  0  0  0  0  0  0  0
    4.7324   -0.7969   -1.6765 O   0  0  0  0  0  0  0  0  0  0  0  0
    3.0630    2.6941   -2.7381 C   0  0  0  0  0  0  0  0  0  0  0  0
    1.9585    2.6126   -2.8313 H   0  0  0  0  0  0  0  0  0  0  0  0
    3.4929    2.9212   -3.7313 H   0  0  0  0  0  0  0  0  0  0  0  0
    3.2973    3.5290   -2.0395 H   0  0  0  0  0  0  0  0  0  0  0  0
    3.6442    1.4760   -2.3199 O   0  0  0  0  0  0  0  0  0  0  0  0
  1  3  1  0  0  0  0
  2  1  1  0  0  0  0
  4 20  1  0  0  0  0
  5  4  2  0  0  0  0
  5 14  1  0  0  0  0
  6  7  1  0  0  0  0
  6  5  1  0  0  0  0
  7  8  1  0  0  0  0
  8 11  1  0  0  0  0
  8 10  1  0  0  0  0
  8  9  1  0  0  0  0
 11  1  1  0  0  0  0
 11 13  1  0  0  0  0
 12 11  1  0  0  0  0
 14 16  2  0  0  0  0
 15 14  1  0  0  0  0
 16 18  1  0  0  0  0
 16 17  1  0  0  0  0
 18 19  1  0  0  0  0
 20 21  1  0  0  0  0
 20 18  2  0  0  0  0
 22 23  1  0  0  0  0
 22  7  2  0  0  0  0
 24 22  1  0  0  0  0
 25 24  2  0  0  0  0
 25 26  1  0  0  0  0
 26  6  2  0  0  0  0
 27 26  1  0  0  0  0
 28 31  1  0  0  0  0
 28 29  1  0  0  0  0
 30 28  1  0  0  0  0
 32 28  1  0  0  0  0
 32 24  1  0  0  0  0
 33 37  1  0  0  0  0
 33 36  1  0  0  0  0
 34 33  1  0  0  0  0
 35 33  1  0  0  0  0
 37 25  1  0  0  0  0
M  END
