1,4
 OpenBabel05122313053D

 35 36  0  0  0  0  0  0  0  0999 V2000
   -2.3727   -0.4775   -1.1830 N   0  0  0  0  0  0  0  0  0  0  0  0
   -2.5472   -1.2810   -1.8101 H   0  0  0  0  0  0  0  0  0  0  0  0
   -2.6761    0.3784   -1.6706 H   0  0  0  0  0  0  0  0  0  0  0  0
   -0.3760    1.4987   -0.8032 C   0  0  0  0  0  3  0  0  0  0  0  0
   -0.3384    2.0171    0.5151 C   0  0  0  0  0  0  0  0  0  0  0  0
   -0.3454    1.0516    1.6500 C   0  0  0  0  0  0  0  0  0  0  0  0
   -1.4812    0.2330    1.9050 C   0  0  0  0  0  0  0  0  0  0  0  0
   -2.7822    0.4021    1.1415 C   0  0  0  0  0  0  0  0  0  0  0  0
   -2.8022    1.4025    0.6626 H   0  0  0  0  0  0  0  0  0  0  0  0
   -3.6064    0.3997    1.8855 H   0  0  0  0  0  0  0  0  0  0  0  0
   -3.1930   -0.6506    0.0674 C   0  0  0  0  0  0  0  0  0  0  0  0
   -0.2712    3.4097    0.7267 C   0  0  0  0  0  0  0  0  0  0  0  0
   -0.2290    3.7959    1.7579 H   0  0  0  0  0  0  0  0  0  0  0  0
   -0.2780    4.2968   -0.3620 C   0  0  0  0  0  0  0  0  0  0  0  0
   -0.2334    5.3828   -0.1881 H   0  0  0  0  0  0  0  0  0  0  0  0
   -0.3517    3.7917   -1.6697 C   0  0  0  0  0  0  0  0  0  0  0  0
   -0.3664    4.4820   -2.5282 H   0  0  0  0  0  0  0  0  0  0  0  0
   -0.3985    2.4012   -1.8877 C   0  0  0  0  0  0  0  0  0  0  0  0
   -0.4284    2.0174   -2.9213 H   0  0  0  0  0  0  0  0  0  0  0  0
   -1.4118   -0.6874    2.9714 C   0  0  0  0  0  0  0  0  0  0  0  0
   -2.2956   -1.2986    3.2088 H   0  0  0  0  0  0  0  0  0  0  0  0
   -0.2541   -0.8324    3.7483 C   0  0  0  0  0  0  0  0  0  0  0  0
   -0.2306   -1.5698    4.5650 H   0  0  0  0  0  0  0  0  0  0  0  0
    0.8611   -0.0212    3.4921 C   0  0  0  0  0  0  0  0  0  0  0  0
    1.7737   -0.1195    4.0996 H   0  0  0  0  0  0  0  0  0  0  0  0
    0.8027    0.9225    2.4581 C   0  0  0  0  0  0  0  0  0  0  0  0
    1.6720    1.5622    2.2406 H   0  0  0  0  0  0  0  0  0  0  0  0
   -4.6631   -0.3943   -0.3141 C   0  0  0  0  0  0  0  0  0  0  0  0
   -4.8152    0.6535   -0.6488 H   0  0  0  0  0  0  0  0  0  0  0  0
   -5.3309   -0.5712    0.5518 H   0  0  0  0  0  0  0  0  0  0  0  0
   -4.9823   -1.0728   -1.1314 H   0  0  0  0  0  0  0  0  0  0  0  0
   -3.0249   -2.0899    0.5604 C   0  0  0  0  0  0  0  0  0  0  0  0
   -3.3766   -2.8081   -0.2071 H   0  0  0  0  0  0  0  0  0  0  0  0
   -3.6231   -2.2471    1.4791 H   0  0  0  0  0  0  0  0  0  0  0  0
   -1.9636   -2.3262    0.7616 H   0  0  0  0  0  0  0  0  0  0  0  0
  1 11  1  0  0  0  0
  2  1  1  0  0  0  0
  3  1  1  0  0  0  0
  4  5  1  0  0  0  0
  5 12  2  0  0  0  0
  5  6  1  0  0  0  0
  6  7  2  0  0  0  0
  6 26  1  0  0  0  0
  7 20  1  0  0  0  0
  8 10  1  0  0  0  0
  8  7  1  0  0  0  0
  9  8  1  0  0  0  0
 11 32  1  0  0  0  0
 11  8  1  0  0  0  0
 12 13  1  0  0  0  0
 14 15  1  0  0  0  0
 14 12  1  0  0  0  0
 16 14  2  0  0  0  0
 17 16  1  0  0  0  0
 18 16  1  0  0  0  0
 18  4  2  0  0  0  0
 19 18  1  0  0  0  0
 20 21  1  0  0  0  0
 20 22  2  0  0  0  0
 22 23  1  0  0  0  0
 24 22  1  0  0  0  0
 24 25  1  0  0  0  0
 26 24  2  0  0  0  0
 27 26  1  0  0  0  0
 28 11  1  0  0  0  0
 28 30  1  0  0  0  0
 29 28  1  0  0  0  0
 31 28  1  0  0  0  0
 32 35  1  0  0  0  0
 32 34  1  0  0  0  0
 33 32  1  0  0  0  0
M  END
