2,14
 OpenBabel05122313053D

 18 19  0  0  1  0  0  0  0  0999 V2000
    2.2921    2.1292    2.1126 O   0  0  0  0  0  0  0  0  0  0  0  0
    0.6154    1.3200    0.8764 N   0  0  0  0  0  2  0  0  0  0  0  0
    1.8919    1.2666    1.1809 C   0  0  1  0  0  3  0  0  0  0  0  0
    1.0915    2.8088    2.5931 C   0  0  0  0  0  0  0  0  0  0  0  0
    0.8909    2.4383    3.6190 H   0  0  0  0  0  0  0  0  0  0  0  0
    1.3103    3.8927    2.6289 H   0  0  0  0  0  0  0  0  0  0  0  0
   -0.0281    2.4407    1.5783 C   0  0  1  0  0  0  0  0  0  0  0  0
   -0.9319    2.0643    2.1020 H   0  0  0  0  0  0  0  0  0  0  0  0
   -0.4131    3.5777    0.6340 C   0  0  0  0  0  0  0  0  0  0  0  0
   -1.1377    3.2282   -0.1244 H   0  0  0  0  0  0  0  0  0  0  0  0
    0.4763    3.9592    0.0958 H   0  0  0  0  0  0  0  0  0  0  0  0
   -0.8743    4.4037    1.2120 H   0  0  0  0  0  0  0  0  0  0  0  0
    2.7730    0.3197    0.5164 C   0  0  0  0  0  0  0  0  0  0  0  0
    2.0274   -0.4697   -0.4981 C   0  0  0  0  0  3  0  0  0  0  0  0
    2.8574   -1.3435   -1.1384 C   0  0  0  0  0  3  0  0  0  0  0  0
    4.1271   -1.5637   -0.9813 C   0  0  0  0  0  3  0  0  0  0  0  0
    4.6468   -0.7787   -0.0398 C   0  0  0  0  0  3  0  0  0  0  0  0
    4.1551    0.1364    0.7422 C   0  0  0  0  0  3  0  0  0  0  0  0
  1  4  1  0  0  0  0
  2  3  1  0  0  0  0
  2  7  1  0  0  0  0
  3 13  1  6  0  0  0
  3  1  1  0  0  0  0
  4  6  1  0  0  0  0
  4  5  1  0  0  0  0
  7  8  1  1  0  0  0
  7  4  1  0  0  0  0
  9 12  1  0  0  0  0
  9  7  1  0  0  0  0
 10  9  1  0  0  0  0
 11  9  1  0  0  0  0
 13 18  1  0  0  0  0
 14 13  2  0  0  0  0
 15 16  2  0  0  0  0
 15 14  1  0  0  0  0
 16 17  1  0  0  0  0
 17 18  2  0  0  0  0
M  END
