1,9
 OpenBabel05122313053D

 53 55  0  0  1  0  0  0  0  0999 V2000
   -2.5036   -0.1621    0.4108 N   0  0  0  0  0  2  0  0  0  0  0  0
   -0.8231   -0.7101    1.7631 N   0  0  0  0  0  0  0  0  0  0  0  0
    1.2304   -0.4559    1.0373 N   0  0  0  0  0  0  0  0  0  0  0  0
    3.5150   -0.3470    0.8477 N   0  0  0  0  0  0  0  0  0  0  0  0
   -5.8015    1.4357   -0.2675 C   0  0  0  0  0  0  0  0  0  0  0  0
   -6.3043    2.4017   -0.1067 H   0  0  0  0  0  0  0  0  0  0  0  0
    4.7387   -0.0612    0.2195 C   0  0  0  0  0  0  0  0  0  0  0  0
    5.2348    1.2699    0.2100 C   0  0  0  0  0  0  0  0  0  0  0  0
   -0.0908   -0.2958    0.6457 C   0  0  0  0  0  2  0  0  0  0  0  0
   -4.4914    1.2667    0.2186 C   0  0  0  0  0  0  0  0  0  0  0  0
   -3.1255   -1.0277    2.7043 C   0  0  0  0  0  0  0  0  0  0  0  0
   -2.9862   -2.0939    2.9850 H   0  0  0  0  0  0  0  0  0  0  0  0
   -4.1712   -0.8862    2.3760 H   0  0  0  0  0  0  0  0  0  0  0  0
   -2.9593   -0.4190    3.6192 H   0  0  0  0  0  0  0  0  0  0  0  0
    6.7613   -0.8488   -0.8693 C   0  0  0  0  0  0  0  0  0  0  0  0
    7.3552   -1.6762   -1.2892 H   0  0  0  0  0  0  0  0  0  0  0  0
   -2.1947   -0.6295    1.6145 C   0  0  1  0  0  3  0  0  0  0  0  0
    1.2956   -0.9478    2.3521 C   0  0  0  0  0  0  0  0  0  0  0  0
    2.2693   -1.1264    2.8148 H   0  0  0  0  0  0  0  0  0  0  0  0
   -3.8021    2.3698    0.9713 C   0  0  0  0  0  0  0  0  0  0  0  0
   -2.9322    2.7626    0.4024 H   0  0  0  0  0  0  0  0  0  0  0  0
   -3.3949    2.0136    1.9402 H   0  0  0  0  0  0  0  0  0  0  0  0
   -4.5010    3.2023    1.1763 H   0  0  0  0  0  0  0  0  0  0  0  0
    5.5010   -1.1331   -0.3150 C   0  0  0  0  0  0  0  0  0  0  0  0
   -3.8566    0.0156   -0.0091 C   0  0  0  0  0  0  0  0  0  0  0  0
    7.2651    0.4595   -0.8903 C   0  0  0  0  0  0  0  0  0  0  0  0
    8.2554    0.6638   -1.3240 H   0  0  0  0  0  0  0  0  0  0  0  0
    2.3862   -0.1597    0.2647 C   0  0  0  0  0  0  0  0  0  0  0  0
    0.0189   -1.1082    2.8051 C   0  0  0  0  0  0  0  0  0  0  0  0
   -0.3558   -1.4677    3.7675 H   0  0  0  0  0  0  0  0  0  0  0  0
   -4.5327   -1.0675   -0.6342 C   0  0  0  0  0  0  0  0  0  0  0  0
   -6.4669    0.3994   -0.9344 C   0  0  0  0  0  0  0  0  0  0  0  0
   -7.4891    0.5550   -1.3111 H   0  0  0  0  0  0  0  0  0  0  0  0
    2.1478    0.3209   -1.1322 C   0  0  0  0  0  0  0  0  0  0  0  0
    1.5684    1.2684   -1.1239 H   0  0  0  0  0  0  0  0  0  0  0  0
    1.5393   -0.4155   -1.6980 H   0  0  0  0  0  0  0  0  0  0  0  0
    3.1159    0.4795   -1.6407 H   0  0  0  0  0  0  0  0  0  0  0  0
   -5.8414   -0.8430   -1.1000 C   0  0  0  0  0  0  0  0  0  0  0  0
   -6.3754   -1.6689   -1.5946 H   0  0  0  0  0  0  0  0  0  0  0  0
    4.9392   -2.5296   -0.2837 C   0  0  0  0  0  0  0  0  0  0  0  0
    4.5903   -2.7940    0.7366 H   0  0  0  0  0  0  0  0  0  0  0  0
    5.6900   -3.2753   -0.6078 H   0  0  0  0  0  0  0  0  0  0  0  0
    4.0534   -2.6303   -0.9474 H   0  0  0  0  0  0  0  0  0  0  0  0
   -3.8854   -2.4167   -0.7753 C   0  0  0  0  0  0  0  0  0  0  0  0
   -3.5252   -2.8025    0.2013 H   0  0  0  0  0  0  0  0  0  0  0  0
   -2.9925   -2.3662   -1.4343 H   0  0  0  0  0  0  0  0  0  0  0  0
   -4.5977   -3.1531   -1.1925 H   0  0  0  0  0  0  0  0  0  0  0  0
    4.4126    2.3857    0.8012 C   0  0  0  0  0  0  0  0  0  0  0  0
    4.9983    3.3223    0.8682 H   0  0  0  0  0  0  0  0  0  0  0  0
    4.0514    2.1221    1.8171 H   0  0  0  0  0  0  0  0  0  0  0  0
    3.5063    2.6026    0.1957 H   0  0  0  0  0  0  0  0  0  0  0  0
    6.5033    1.5052   -0.3509 C   0  0  0  0  0  0  0  0  0  0  0  0
    6.8961    2.5344   -0.3585 H   0  0  0  0  0  0  0  0  0  0  0  0
  2 29  1  0  0  0  0
  3 18  1  0  0  0  0
  5  6  1  0  0  0  0
  5 10  1  0  0  0  0
  7  4  1  0  0  0  0
  8  7  1  0  0  0  0
  8 48  1  0  0  0  0
  9  3  1  0  0  0  0
  9  2  1  0  0  0  0
 10 20  1  0  0  0  0
 11 12  1  0  0  0  0
 11 14  1  0  0  0  0
 13 11  1  0  0  0  0
 15 24  1  0  0  0  0
 16 15  1  0  0  0  0
 17  1  1  1  0  0  0
 17  2  1  0  0  0  0
 17 11  1  0  0  0  0
 18 29  2  0  0  0  0
 18 19  1  0  0  0  0
 20 23  1  0  0  0  0
 20 22  1  0  0  0  0
 21 20  1  0  0  0  0
 24 40  1  0  0  0  0
 24  7  2  0  0  0  0
 25 10  2  0  0  0  0
 25  1  1  0  0  0  0
 26 15  2  0  0  0  0
 26 52  1  0  0  0  0
 27 26  1  0  0  0  0
 28  4  2  0  0  0  0
 28  3  1  0  0  0  0
 29 30  1  0  0  0  0
 31 25  1  0  0  0  0
 32  5  2  0  0  0  0
 33 32  1  0  0  0  0
 34 35  1  0  0  0  0
 34 28  1  0  0  0  0
 36 34  1  0  0  0  0
 37 34  1  0  0  0  0
 38 32  1  0  0  0  0
 38 31  2  0  0  0  0
 39 38  1  0  0  0  0
 40 41  1  0  0  0  0
 42 40  1  0  0  0  0
 43 40  1  0  0  0  0
 44 31  1  0  0  0  0
 44 45  1  0  0  0  0
 46 44  1  0  0  0  0
 47 44  1  0  0  0  0
 48 49  1  0  0  0  0
 48 50  1  0  0  0  0
 51 48  1  0  0  0  0
 52  8  2  0  0  0  0
 53 52  1  0  0  0  0
M  END
