1,16
 OpenBabel05122313053D

 27 28  0  0  1  0  0  0  0  0999 V2000
   -0.6272    1.2616   -2.3470 C   0  0  2  0  0  3  0  0  0  0  0  0
    0.7554    0.8868   -2.3657 C   0  0  0  0  0  3  0  0  0  0  0  0
    1.1556   -0.0939   -2.6465 H   0  0  0  0  0  0  0  0  0  0  0  0
    1.5240    1.9761   -1.8653 C   0  0  0  0  0  0  0  0  0  0  0  0
    2.6157    1.9957   -1.7573 H   0  0  0  0  0  0  0  0  0  0  0  0
    0.6252    3.0387   -1.5492 C   0  0  0  0  0  0  0  0  0  0  0  0
    0.9077    4.0280   -1.1683 H   0  0  0  0  0  0  0  0  0  0  0  0
   -0.6985    2.6032   -1.8634 C   0  0  0  0  0  3  0  0  0  0  0  0
   -1.6264    3.1645   -1.6871 H   0  0  0  0  0  0  0  0  0  0  0  0
   -1.7588    0.2524   -2.1793 C   0  0  1  0  0  0  0  0  0  0  0  0
   -2.7289    0.7920   -2.3096 H   0  0  0  0  0  0  0  0  0  0  0  0
   -1.7077   -0.9150   -3.1662 C   0  0  0  0  0  0  0  0  0  0  0  0
   -2.5184   -1.6400   -2.9589 H   0  0  0  0  0  0  0  0  0  0  0  0
   -0.7447   -1.4573   -3.0820 H   0  0  0  0  0  0  0  0  0  0  0  0
   -1.8172   -0.5507   -4.2074 H   0  0  0  0  0  0  0  0  0  0  0  0
   -1.5489   -0.1545   -0.7780 N   0  0  0  0  0  2  0  0  0  0  0  0
   -2.4274   -1.0468   -0.1653 C   0  0  0  0  0  0  0  0  0  0  0  0
   -1.9402   -1.8964    0.8643 C   0  0  0  0  0  0  0  0  0  0  0  0
   -0.8634   -1.8651    1.0939 H   0  0  0  0  0  0  0  0  0  0  0  0
   -2.7926   -2.7770    1.5395 C   0  0  0  0  0  0  0  0  0  0  0  0
   -2.3836   -3.4256    2.3301 H   0  0  0  0  0  0  0  0  0  0  0  0
   -4.1541   -2.8573    1.1979 C   0  0  0  0  0  0  0  0  0  0  0  0
   -4.8226   -3.5547    1.7240 H   0  0  0  0  0  0  0  0  0  0  0  0
   -4.6435   -2.0461    0.1610 C   0  0  0  0  0  0  0  0  0  0  0  0
   -5.7054   -2.1037   -0.1257 H   0  0  0  0  0  0  0  0  0  0  0  0
   -3.7992   -1.1553   -0.5162 C   0  0  0  0  0  0  0  0  0  0  0  0
   -4.2107   -0.5211   -1.3152 H   0  0  0  0  0  0  0  0  0  0  0  0
  1 10  1  1  0  0  0
  1  8  1  0  0  0  0
  2  1  1  0  0  0  0
  2  4  1  0  0  0  0
  3  2  1  0  0  0  0
  4  5  1  0  0  0  0
  4  6  2  0  0  0  0
  6  7  1  0  0  0  0
  8  9  1  0  0  0  0
  8  6  1  0  0  0  0
 10 11  1  6  0  0  0
 10 16  1  0  0  0  0
 12 14  1  0  0  0  0
 12 13  1  0  0  0  0
 12 10  1  0  0  0  0
 15 12  1  0  0  0  0
 16 17  1  0  0  0  0
 17 18  1  0  0  0  0
 18 19  1  0  0  0  0
 18 20  2  0  0  0  0
 20 21  1  0  0  0  0
 22 20  1  0  0  0  0
 22 23  1  0  0  0  0
 24 22  2  0  0  0  0
 25 24  1  0  0  0  0
 26 17  2  0  0  0  0
 26 24  1  0  0  0  0
 27 26  1  0  0  0  0
M  END
