2
 OpenBabel05122313053D

 46 47  0  0  1  0  0  0  0  0999 V2000
   -1.1214   -1.0130    1.3726 Si  0  0  0  0  0  0  0  0  0  0  0  0
   -1.5053    0.0218   -0.0178 N   0  0  0  0  0  2  0  0  0  0  0  0
    1.5727   -2.7115   -0.0486 N   0  0  0  0  0  0  0  0  0  0  0  0
    0.7288   -0.6849    1.1803 C   0  0  1  0  0  3  0  0  0  0  0  0
    1.6199   -1.3668    0.2532 C   0  0  0  0  0  0  0  0  0  0  0  0
    2.4793   -0.4047   -0.3569 C   0  0  0  0  0  0  0  0  0  0  0  0
    2.9999    2.0857    0.2266 C   0  0  0  0  0  0  0  0  0  0  0  0
    2.5901    3.1439    1.0264 C   0  0  0  0  0  0  0  0  0  0  0  0
    1.5065    3.0012    1.9376 C   0  0  0  0  0  0  0  0  0  0  0  0
    0.8308    1.7945    2.0740 C   0  0  0  0  0  0  0  0  0  0  0  0
    1.2429    0.6764    1.2960 C   0  0  0  0  0  0  0  0  0  0  0  0
    2.3210    0.8435    0.3404 C   0  0  0  0  0  0  0  0  0  0  0  0
   -1.8247   -0.4576    3.0383 C   0  0  0  0  0  0  0  0  0  0  0  0
   -1.6290   -2.8027    1.0608 C   0  0  0  0  0  0  0  0  0  0  0  0
   -2.8332    0.5361   -0.4480 C   0  0  0  0  0  0  0  0  0  0  0  0
   -3.0708    1.8870    0.2567 C   0  0  0  0  0  0  0  0  0  0  0  0
   -2.8858    0.7236   -1.9757 C   0  0  0  0  0  0  0  0  0  0  0  0
   -3.9397   -0.4595   -0.0487 C   0  0  0  0  0  0  0  0  0  0  0  0
    2.3024   -3.1821   -1.2113 C   0  0  0  0  0  0  0  0  0  0  0  0
    1.4729   -3.6692    1.0417 C   0  0  0  0  0  0  0  0  0  0  0  0
    3.2213   -0.6027   -1.1376 H   0  0  0  0  0  0  0  0  0  0  0  0
    3.8244    2.2011   -0.4920 H   0  0  0  0  0  0  0  0  0  0  0  0
    3.1042    4.1138    0.9518 H   0  0  0  0  0  0  0  0  0  0  0  0
    1.2017    3.8642    2.5481 H   0  0  0  0  0  0  0  0  0  0  0  0
    0.0090    1.6938    2.7952 H   0  0  0  0  0  0  0  0  0  0  0  0
   -2.8755   -0.7918    3.1553 H   0  0  0  0  0  0  0  0  0  0  0  0
   -1.8021    0.6416    3.1666 H   0  0  0  0  0  0  0  0  0  0  0  0
   -1.2318   -0.9134    3.8588 H   0  0  0  0  0  0  0  0  0  0  0  0
   -2.7330   -2.8677    1.0018 H   0  0  0  0  0  0  0  0  0  0  0  0
   -1.2968   -3.4807    1.8717 H   0  0  0  0  0  0  0  0  0  0  0  0
   -1.2070   -3.1541    0.0992 H   0  0  0  0  0  0  0  0  0  0  0  0
   -2.2601    2.5967    0.0005 H   0  0  0  0  0  0  0  0  0  0  0  0
   -3.0896    1.7590    1.3578 H   0  0  0  0  0  0  0  0  0  0  0  0
   -4.0398    2.3271   -0.0562 H   0  0  0  0  0  0  0  0  0  0  0  0
   -2.1464    1.4746   -2.3136 H   0  0  0  0  0  0  0  0  0  0  0  0
   -2.6703   -0.2303   -2.4947 H   0  0  0  0  0  0  0  0  0  0  0  0
   -3.8932    1.0738   -2.2783 H   0  0  0  0  0  0  0  0  0  0  0  0
   -3.9690   -0.6235    1.0479 H   0  0  0  0  0  0  0  0  0  0  0  0
   -3.7942   -1.4359   -0.5515 H   0  0  0  0  0  0  0  0  0  0  0  0
   -4.9311   -0.0652   -0.3492 H   0  0  0  0  0  0  0  0  0  0  0  0
    1.9653   -4.2077   -1.4597 H   0  0  0  0  0  0  0  0  0  0  0  0
    3.4064   -3.2135   -1.0414 H   0  0  0  0  0  0  0  0  0  0  0  0
    2.0802   -2.5312   -2.0779 H   0  0  0  0  0  0  0  0  0  0  0  0
    1.0443   -3.1823    1.9342 H   0  0  0  0  0  0  0  0  0  0  0  0
    0.8308   -4.5296    0.7619 H   0  0  0  0  0  0  0  0  0  0  0  0
    2.4805   -4.0637    1.3172 H   0  0  0  0  0  0  0  0  0  0  0  0
  1 13  1  0  0  0  0
  2  1  1  0  0  0  0
  3  5  1  0  0  0  0
  3 20  1  0  0  0  0
  4 11  1  0  0  0  0
  4  1  1  6  0  0  0
  5  4  1  0  0  0  0
  6  5  2  0  0  0  0
  6 12  1  0  0  0  0
  7 12  2  0  0  0  0
  7  8  1  0  0  0  0
  8  9  2  0  0  0  0
  9 10  1  0  0  0  0
  9 24  1  0  0  0  0
 10 25  1  0  0  0  0
 11 10  2  0  0  0  0
 12 11  1  0  0  0  0
 13 26  1  0  0  0  0
 13 27  1  0  0  0  0
 13 28  1  0  0  0  0
 14  1  1  0  0  0  0
 14 30  1  0  0  0  0
 15 18  1  0  0  0  0
 15  2  1  0  0  0  0
 15 16  1  0  0  0  0
 16 33  1  0  0  0  0
 17 15  1  0  0  0  0
 18 38  1  0  0  0  0
 19 42  1  0  0  0  0
 19  3  1  0  0  0  0
 20 46  1  0  0  0  0
 20 44  1  0  0  0  0
 21  6  1  0  0  0  0
 22  7  1  0  0  0  0
 23  8  1  0  0  0  0
 29 14  1  0  0  0  0
 31 14  1  0  0  0  0
 32 16  1  0  0  0  0
 34 16  1  0  0  0  0
 35 17  1  0  0  0  0
 36 17  1  0  0  0  0
 37 17  1  0  0  0  0
 39 18  1  0  0  0  0
 40 18  1  0  0  0  0
 41 19  1  0  0  0  0
 43 19  1  0  0  0  0
 45 20  1  0  0  0  0
M  END
