3,6
 OpenBabel05122313053D

 34 35  0  0  0  0  0  0  0  0999 V2000
    2.2799   -0.0211    2.4815 O   0  0  0  0  0  0  0  0  0  0  0  0
    3.1697   -0.7438   -1.9813 O   0  0  0  0  0  0  0  0  0  0  0  0
    0.6896   -0.8564    1.0072 N   0  0  0  0  0  2  0  0  0  0  0  0
    2.8722   -0.5121    0.2888 N   0  0  0  0  0  0  0  0  0  0  0  0
    1.9369   -0.4269    1.3707 C   0  0  0  0  0  0  0  0  0  0  0  0
    2.4146   -0.7519   -1.0199 C   0  0  0  0  0  3  0  0  0  0  0  0
   -0.3585   -0.7623    1.9462 C   0  0  0  0  0  0  0  0  0  0  0  0
   -0.8030    0.4906    2.4311 C   0  0  0  0  0  0  0  0  0  0  0  0
   -1.8845    0.5906    3.3161 C   0  0  0  0  0  0  0  0  0  0  0  0
   -2.5283   -0.5747    3.7567 C   0  0  0  0  0  0  0  0  0  0  0  0
   -2.0689   -1.8255    3.3141 C   0  0  0  0  0  0  0  0  0  0  0  0
   -0.9983   -1.9483    2.4074 C   0  0  0  0  0  0  0  0  0  0  0  0
    4.2610   -0.2724    0.5467 C   0  0  0  0  0  0  0  0  0  0  0  0
    4.9047    0.7887   -0.1122 C   0  0  0  0  0  0  0  0  0  0  0  0
    6.2639    1.0384    0.1107 C   0  0  0  0  0  0  0  0  0  0  0  0
    6.9820    0.2233    0.9989 C   0  0  0  0  0  0  0  0  0  0  0  0
    6.3376   -0.8426    1.6420 C   0  0  0  0  0  0  0  0  0  0  0  0
    4.9736   -1.1233    1.4265 C   0  0  0  0  0  0  0  0  0  0  0  0
   -0.5297   -3.3007    1.9483 C   0  0  0  0  0  0  0  0  0  0  0  0
    4.3075   -2.2863    2.1098 C   0  0  0  0  0  0  0  0  0  0  0  0
   -0.2720    1.3971    2.1161 H   0  0  0  0  0  0  0  0  0  0  0  0
   -2.2142    1.5798    3.6684 H   0  0  0  0  0  0  0  0  0  0  0  0
   -3.3721   -0.5141    4.4606 H   0  0  0  0  0  0  0  0  0  0  0  0
   -2.5519   -2.7445    3.6841 H   0  0  0  0  0  0  0  0  0  0  0  0
    4.3262    1.4118   -0.8055 H   0  0  0  0  0  0  0  0  0  0  0  0
    6.7607    1.8712   -0.4100 H   0  0  0  0  0  0  0  0  0  0  0  0
    8.0508    0.4104    1.1845 H   0  0  0  0  0  0  0  0  0  0  0  0
    6.9065   -1.4915    2.3268 H   0  0  0  0  0  0  0  0  0  0  0  0
    0.5739   -3.3359    1.8685 H   0  0  0  0  0  0  0  0  0  0  0  0
   -0.9302   -3.5458    0.9420 H   0  0  0  0  0  0  0  0  0  0  0  0
   -0.8687   -4.0968    2.6387 H   0  0  0  0  0  0  0  0  0  0  0  0
    3.6101   -2.8089    1.4235 H   0  0  0  0  0  0  0  0  0  0  0  0
    3.7013   -1.9298    2.9680 H   0  0  0  0  0  0  0  0  0  0  0  0
    5.0539   -3.0164    2.4769 H   0  0  0  0  0  0  0  0  0  0  0  0
  2  6  2  0  0  0  0
  3  5  1  0  0  0  0
  3  7  1  0  0  0  0
  4 13  1  0  0  0  0
  4  5  1  0  0  0  0
  5  1  2  0  0  0  0
  6  4  1  0  0  0  0
  7 12  2  0  0  0  0
  7  8  1  0  0  0  0
  8  9  2  0  0  0  0
  9 22  1  0  0  0  0
  9 10  1  0  0  0  0
 10 23  1  0  0  0  0
 11 24  1  0  0  0  0
 11 10  2  0  0  0  0
 12 11  1  0  0  0  0
 13 18  1  0  0  0  0
 14 15  1  0  0  0  0
 14 13  2  0  0  0  0
 15 16  2  0  0  0  0
 16 27  1  0  0  0  0
 16 17  1  0  0  0  0
 17 28  1  0  0  0  0
 18 17  2  0  0  0  0
 18 20  1  0  0  0  0
 19 12  1  0  0  0  0
 19 31  1  0  0  0  0
 20 34  1  0  0  0  0
 20 33  1  0  0  0  0
 21  8  1  0  0  0  0
 25 14  1  0  0  0  0
 26 15  1  0  0  0  0
 29 19  1  0  0  0  0
 30 19  1  0  0  0  0
 32 20  1  0  0  0  0
M  END
