3,20
 OpenBabel05122313053D

 20 21  0  0  0  0  0  0  0  0999 V2000
    5.7894   -1.7471    0.0536 O   0  0  0  0  0  0  0  0  0  0  0  0
    5.9017    0.4298    0.2271 O   0  0  0  0  0  0  0  0  0  0  0  0
   -0.2506    1.8862   -0.0714 N   0  0  0  0  0  2  0  0  0  0  0  0
    1.0999    1.9896    0.0075 N   0  0  0  0  0  0  0  0  0  0  0  0
    5.2763   -0.6277    0.1056 N   0  0  0  0  0  0  0  0  0  0  0  0
   -0.7369    3.1359   -0.1217 C   0  0  0  0  0  3  0  0  0  0  0  0
   -1.8155    3.2998   -0.2121 H   0  0  0  0  0  0  0  0  0  0  0  0
    0.3267    4.0670   -0.0635 C   0  0  0  0  0  0  0  0  0  0  0  0
    0.2598    5.1589   -0.0838 H   0  0  0  0  0  0  0  0  0  0  0  0
    1.4870    3.2986    0.0146 C   0  0  0  0  0  0  0  0  0  0  0  0
    2.5432    3.5799    0.0631 H   0  0  0  0  0  0  0  0  0  0  0  0
    1.8116    0.7687    0.0029 C   0  0  0  0  0  0  0  0  0  0  0  0
    3.2049    0.7191    0.0763 C   0  0  0  0  0  0  0  0  0  0  0  0
    3.8452    1.6063    0.1675 H   0  0  0  0  0  0  0  0  0  0  0  0
    3.8074   -0.5446    0.0199 C   0  0  0  0  0  0  0  0  0  0  0  0
    3.0532   -1.7186   -0.1287 C   0  0  0  0  0  0  0  0  0  0  0  0
    3.5807   -2.6794   -0.1951 H   0  0  0  0  0  0  0  0  0  0  0  0
    1.6570   -1.6266   -0.1986 C   0  0  0  0  0  0  0  0  0  0  0  0
    1.0726   -2.5452   -0.3508 H   0  0  0  0  0  0  0  0  0  0  0  0
    0.9906   -0.3879   -0.1046 C   0  0  0  0  0  3  0  0  0  0  0  0
  1  5  2  0  0  0  0
  3  4  1  0  0  0  0
  4 10  1  0  0  0  0
  5  2  2  0  0  0  0
  6  3  1  0  0  0  0
  6  8  1  0  0  0  0
  7  6  1  0  0  0  0
  8 10  2  0  0  0  0
  9  8  1  0  0  0  0
 10 11  1  0  0  0  0
 12  4  1  0  0  0  0
 12 13  1  0  0  0  0
 13 14  1  0  0  0  0
 15 13  2  0  0  0  0
 15  5  1  0  0  0  0
 16 15  1  0  0  0  0
 17 16  1  0  0  0  0
 18 16  2  0  0  0  0
 18 20  1  0  0  0  0
 19 18  1  0  0  0  0
 20 12  2  0  0  0  0
M  END
