1,17
 OpenBabel05122313053D

 21 22  0  0  0  0  0  0  0  0999 V2000
   -0.1572    1.9456   -0.0347 N   0  0  0  0  0  2  0  0  0  0  0  0
   -1.4957    2.1390    0.0833 N   0  0  0  0  0  0  0  0  0  0  0  0
    0.4153    3.1609   -0.1043 C   0  0  0  0  0  3  0  0  0  0  0  0
    1.4997    3.2464   -0.2264 H   0  0  0  0  0  0  0  0  0  0  0  0
   -0.5791    4.1599   -0.0173 C   0  0  0  0  0  0  0  0  0  0  0  0
   -0.4390    5.2448   -0.0421 H   0  0  0  0  0  0  0  0  0  0  0  0
   -1.7878    3.4711    0.0985 C   0  0  0  0  0  0  0  0  0  0  0  0
   -2.8196    3.8254    0.1779 H   0  0  0  0  0  0  0  0  0  0  0  0
   -2.2836    0.9652    0.1154 C   0  0  0  0  0  0  0  0  0  0  0  0
   -3.6798    0.9908    0.2366 C   0  0  0  0  0  0  0  0  0  0  0  0
   -4.2246    1.9412    0.3399 H   0  0  0  0  0  0  0  0  0  0  0  0
   -4.3777   -0.2228    0.2205 C   0  0  0  0  0  0  0  0  0  0  0  0
   -5.4743   -0.2185    0.3182 H   0  0  0  0  0  0  0  0  0  0  0  0
   -3.6922   -1.4470    0.0632 C   0  0  0  0  0  0  0  0  0  0  0  0
   -2.2868   -1.4262   -0.0510 C   0  0  0  0  0  0  0  0  0  0  0  0
   -1.7603   -2.3816   -0.2038 H   0  0  0  0  0  0  0  0  0  0  0  0
   -1.5388   -0.2352   -0.0049 C   0  0  0  0  0  3  0  0  0  0  0  0
   -4.4532   -2.7469   -0.0239 C   0  0  0  0  0  0  0  0  0  0  0  0
   -5.3473   -2.7440    0.6316 H   0  0  0  0  0  0  0  0  0  0  0  0
   -3.8203   -3.6109    0.2598 H   0  0  0  0  0  0  0  0  0  0  0  0
   -4.8114   -2.9305   -1.0602 H   0  0  0  0  0  0  0  0  0  0  0  0
  1  2  1  0  0  0  0
  2  7  1  0  0  0  0
  2  9  1  0  0  0  0
  3  1  1  0  0  0  0
  3  5  1  0  0  0  0
  4  3  1  0  0  0  0
  5  7  2  0  0  0  0
  6  5  1  0  0  0  0
  7  8  1  0  0  0  0
  9 10  1  0  0  0  0
 10 11  1  0  0  0  0
 12 10  2  0  0  0  0
 12 13  1  0  0  0  0
 14 12  1  0  0  0  0
 15 17  1  0  0  0  0
 15 14  2  0  0  0  0
 16 15  1  0  0  0  0
 17  9  2  0  0  0  0
 18 14  1  0  0  0  0
 18 20  1  0  0  0  0
 18 19  1  0  0  0  0
 21 18  1  0  0  0  0
M  END
