1,9
 OpenBabel05122313053D

 25 25  0  0  0  0  0  0  0  0999 V2000
   -1.7075   -1.1574   -1.0116 N   0  0  0  0  0  0  0  0  0  0  0  0
   -2.0652   -1.5525   -0.1250 H   0  0  0  0  0  0  0  0  0  0  0  0
   -1.6087   -2.2836   -1.9952 C   0  0  0  0  0  0  0  0  0  0  0  0
   -1.5292   -1.8214   -3.0014 H   0  0  0  0  0  0  0  0  0  0  0  0
   -2.5404   -2.8857   -1.9784 H   0  0  0  0  0  0  0  0  0  0  0  0
   -0.3528   -3.0844   -1.6915 C   0  0  0  0  0  0  0  0  0  0  0  0
   -0.2327   -3.8867   -2.4531 H   0  0  0  0  0  0  0  0  0  0  0  0
   -0.4667   -3.6053   -0.7151 H   0  0  0  0  0  0  0  0  0  0  0  0
    0.8490   -2.1312   -1.6645 C   0  0  0  0  0  3  0  0  0  0  0  0
    1.7758   -2.6434   -1.3382 H   0  0  0  0  0  0  0  0  0  0  0  0
    1.0290   -1.7313   -2.6889 H   0  0  0  0  0  0  0  0  0  0  0  0
   -2.6771   -0.0934   -1.4226 C   0  0  0  0  0  0  0  0  0  0  0  0
   -2.3231    0.3209   -2.3866 H   0  0  0  0  0  0  0  0  0  0  0  0
   -2.6129    0.7130   -0.6665 H   0  0  0  0  0  0  0  0  0  0  0  0
   -4.0924   -0.6091   -1.5256 C   0  0  0  0  0  0  0  0  0  0  0  0
   -4.8094   -0.9035   -0.3468 C   0  0  0  0  0  0  0  0  0  0  0  0
   -4.3548   -0.7028    0.6368 H   0  0  0  0  0  0  0  0  0  0  0  0
   -6.1058   -1.4319   -0.4169 C   0  0  0  0  0  0  0  0  0  0  0  0
   -6.6581   -1.6526    0.5090 H   0  0  0  0  0  0  0  0  0  0  0  0
   -6.7028   -1.6670   -1.6665 C   0  0  0  0  0  0  0  0  0  0  0  0
   -7.7222   -2.0773   -1.7222 H   0  0  0  0  0  0  0  0  0  0  0  0
   -5.9992   -1.3708   -2.8443 C   0  0  0  0  0  0  0  0  0  0  0  0
   -6.4657   -1.5482   -3.8248 H   0  0  0  0  0  0  0  0  0  0  0  0
   -4.6991   -0.8470   -2.7734 C   0  0  0  0  0  0  0  0  0  0  0  0
   -4.1496   -0.6146   -3.6995 H   0  0  0  0  0  0  0  0  0  0  0  0
  1  2  1  0  0  0  0
  3  5  1  0  0  0  0
  3  6  1  0  0  0  0
  3  1  1  0  0  0  0
  4  3  1  0  0  0  0
  6  9  1  0  0  0  0
  6  8  1  0  0  0  0
  7  6  1  0  0  0  0
  9 10  1  0  0  0  0
 11  9  1  0  0  0  0
 12  1  1  0  0  0  0
 12 14  1  0  0  0  0
 13 12  1  0  0  0  0
 15 12  1  0  0  0  0
 15 16  1  0  0  0  0
 16 17  1  0  0  0  0
 18 16  2  0  0  0  0
 18 19  1  0  0  0  0
 20 18  1  0  0  0  0
 21 20  1  0  0  0  0
 22 24  1  0  0  0  0
 22 20  2  0  0  0  0
 23 22  1  0  0  0  0
 24 15  2  0  0  0  0
 25 24  1  0  0  0  0
M  END
