3,4
 OpenBabel05122313053D

 41 43  0  0  1  0  0  0  0  0999 V2000
   -2.4772    2.5344    0.2025 N   0  0  0  0  0  0  0  0  0  0  0  0
   -0.3863    1.9446    0.1658 N   0  0  0  0  0  0  0  0  0  0  0  0
    0.2942   -0.2209    0.1013 N   0  0  0  0  0  2  0  0  0  0  0  0
   -1.6847    1.4364    0.0836 C   0  0  0  0  0  2  0  0  0  0  0  0
   -1.7094    3.6897    0.3712 C   0  0  0  0  0  0  0  0  0  0  0  0
   -0.3923    3.3279    0.3572 C   0  0  0  0  0  0  0  0  0  0  0  0
   -3.9356    2.5375    0.1805 C   0  0  0  0  0  0  0  0  0  0  0  0
    0.6754    1.0306    0.1412 C   0  0  1  0  0  3  0  0  0  0  0  0
    2.0641    1.5391    0.1187 C   0  0  0  0  0  0  0  0  0  0  0  0
    2.4356    2.5127   -0.8378 C   0  0  0  0  0  0  0  0  0  0  0  0
    3.7577    2.9729   -0.8984 C   0  0  0  0  0  0  0  0  0  0  0  0
    4.7179    2.4739   -0.0042 C   0  0  0  0  0  0  0  0  0  0  0  0
    4.3534    1.5093    0.9491 C   0  0  0  0  0  0  0  0  0  0  0  0
    3.0364    1.0375    1.0108 C   0  0  0  0  0  0  0  0  0  0  0  0
    1.2561   -1.2757    0.0167 C   0  0  0  0  0  0  0  0  0  0  0  0
    1.8521   -1.5573   -1.2338 C   0  0  0  0  0  0  0  0  0  0  0  0
    2.8049   -2.5908   -1.2829 C   0  0  0  0  0  0  0  0  0  0  0  0
    3.1350   -3.3235   -0.1357 C   0  0  0  0  0  0  0  0  0  0  0  0
    2.4923   -3.0521    1.0801 C   0  0  0  0  0  0  0  0  0  0  0  0
    1.5269   -2.0354    1.1789 C   0  0  0  0  0  0  0  0  0  0  0  0
    1.4352   -0.8065   -2.4694 C   0  0  0  0  0  0  0  0  0  0  0  0
    0.7641   -1.7867    2.4504 C   0  0  0  0  0  0  0  0  0  0  0  0
   -2.1724    4.6736    0.4930 H   0  0  0  0  0  0  0  0  0  0  0  0
    0.5209    3.9153    0.4772 H   0  0  0  0  0  0  0  0  0  0  0  0
   -4.3206    2.9548    1.1316 H   0  0  0  0  0  0  0  0  0  0  0  0
   -4.2778    1.4890    0.0535 H   0  0  0  0  0  0  0  0  0  0  0  0
   -4.2942    3.1560   -0.6655 H   0  0  0  0  0  0  0  0  0  0  0  0
    1.6908    2.8878   -1.5559 H   0  0  0  0  0  0  0  0  0  0  0  0
    4.0407    3.7197   -1.6551 H   0  0  0  0  0  0  0  0  0  0  0  0
    5.7559    2.8357   -0.0529 H   0  0  0  0  0  0  0  0  0  0  0  0
    5.1029    1.1153    1.6512 H   0  0  0  0  0  0  0  0  0  0  0  0
    2.7562    0.2782    1.7525 H   0  0  0  0  0  0  0  0  0  0  0  0
    3.2810   -2.8278   -2.2469 H   0  0  0  0  0  0  0  0  0  0  0  0
    3.8831   -4.1283   -0.1941 H   0  0  0  0  0  0  0  0  0  0  0  0
    2.7258   -3.6500    1.9747 H   0  0  0  0  0  0  0  0  0  0  0  0
    1.8837   -1.2561   -3.3750 H   0  0  0  0  0  0  0  0  0  0  0  0
    1.7441    0.2599   -2.4373 H   0  0  0  0  0  0  0  0  0  0  0  0
    0.3300   -0.8270   -2.5785 H   0  0  0  0  0  0  0  0  0  0  0  0
    1.1733   -2.3816    3.2885 H   0  0  0  0  0  0  0  0  0  0  0  0
    0.7613   -0.7171    2.7482 H   0  0  0  0  0  0  0  0  0  0  0  0
   -0.2970   -2.0776    2.2891 H   0  0  0  0  0  0  0  0  0  0  0  0
  1  5  1  0  0  0  0
  2  6  1  0  0  0  0
  4  2  1  0  0  0  0
  4  1  1  0  0  0  0
  5 23  1  0  0  0  0
  6  5  2  0  0  0  0
  6 24  1  0  0  0  0
  7  1  1  0  0  0  0
  7 25  1  0  0  0  0
  8  3  1  6  0  0  0
  8  2  1  0  0  0  0
  9  8  1  0  0  0  0
  9 14  1  0  0  0  0
 10  9  2  0  0  0  0
 11 10  1  0  0  0  0
 11 12  2  0  0  0  0
 12 13  1  0  0  0  0
 13 14  2  0  0  0  0
 13 31  1  0  0  0  0
 14 32  1  0  0  0  0
 15  3  1  0  0  0  0
 15 20  1  0  0  0  0
 16 15  2  0  0  0  0
 17 16  1  0  0  0  0
 17 18  2  0  0  0  0
 18 19  1  0  0  0  0
 19 20  2  0  0  0  0
 19 35  1  0  0  0  0
 20 22  1  0  0  0  0
 21 37  1  0  0  0  0
 21 16  1  0  0  0  0
 22 40  1  0  0  0  0
 22 39  1  0  0  0  0
 26  7  1  0  0  0  0
 27  7  1  0  0  0  0
 28 10  1  0  0  0  0
 29 11  1  0  0  0  0
 30 12  1  0  0  0  0
 33 17  1  0  0  0  0
 34 18  1  0  0  0  0
 36 21  1  0  0  0  0
 38 21  1  0  0  0  0
 41 22  1  0  0  0  0
M  END
