1,2
 OpenBabel05122313053D

 31 31  0  0  1  0  0  0  0  0999 V2000
   -2.7838   -0.2086   -0.2318 N   0  0  0  0  0  0  0  0  0  0  0  0
   -0.5999    1.2405    0.5937 C   0  0  0  0  0  3  0  0  0  0  0  0
    0.3957    2.2374    0.6392 C   0  0  0  0  0  0  0  0  0  0  0  0
    1.3875    2.0526    0.2081 H   0  0  0  0  0  0  0  0  0  0  0  0
    0.1574    3.4910    1.2316 C   0  0  0  0  0  0  0  0  0  0  0  0
    0.9639    4.2414    1.2493 H   0  0  0  0  0  0  0  0  0  0  0  0
   -1.0935    3.7894    1.7898 C   0  0  0  0  0  0  0  0  0  0  0  0
   -1.2824    4.7705    2.2513 H   0  0  0  0  0  0  0  0  0  0  0  0
   -2.1109    2.8243    1.7352 C   0  0  0  0  0  0  0  0  0  0  0  0
   -3.1088    3.0496    2.1469 H   0  0  0  0  0  0  0  0  0  0  0  0
   -1.8709    1.5715    1.1450 C   0  0  0  0  0  0  0  0  0  0  0  0
   -2.9465    0.5119    1.0818 C   0  0  2  0  0  0  0  0  0  0  0  0
   -3.9551    0.9877    1.1064 H   0  0  0  0  0  0  0  0  0  0  0  0
   -2.8435   -0.4330    2.2852 C   0  0  0  0  0  0  0  0  0  0  0  0
   -2.8458    0.1731    3.2113 H   0  0  0  0  0  0  0  0  0  0  0  0
   -1.8867   -0.9939    2.2469 H   0  0  0  0  0  0  0  0  0  0  0  0
   -3.6814   -1.1537    2.3439 H   0  0  0  0  0  0  0  0  0  0  0  0
   -4.5827    1.0098   -1.5718 C   0  0  0  0  0  0  0  0  0  0  0  0
   -4.7055    1.8358   -2.2997 H   0  0  0  0  0  0  0  0  0  0  0  0
   -5.0767    1.3273   -0.6318 H   0  0  0  0  0  0  0  0  0  0  0  0
   -5.1291    0.1327   -1.9726 H   0  0  0  0  0  0  0  0  0  0  0  0
   -3.0863    0.7242   -1.3874 C   0  0  0  0  0  0  0  0  0  0  0  0
   -2.5865    1.6727   -1.1068 H   0  0  0  0  0  0  0  0  0  0  0  0
   -2.4487    0.2300   -2.6846 C   0  0  0  0  0  0  0  0  0  0  0  0
   -2.6494    0.9576   -3.4964 H   0  0  0  0  0  0  0  0  0  0  0  0
   -2.8441   -0.7552   -3.0022 H   0  0  0  0  0  0  0  0  0  0  0  0
   -1.3510    0.1248   -2.5626 H   0  0  0  0  0  0  0  0  0  0  0  0
   -3.6104   -1.4287   -0.2952 C   0  0  0  0  0  0  0  0  0  0  0  0
   -4.6675   -1.2107   -0.0265 H   0  0  0  0  0  0  0  0  0  0  0  0
   -3.2026   -2.1974    0.3810 H   0  0  0  0  0  0  0  0  0  0  0  0
   -3.5613   -1.8538   -1.3120 H   0  0  0  0  0  0  0  0  0  0  0  0
  1 12  1  0  0  0  0
  2  3  2  0  0  0  0
  2 11  1  0  0  0  0
  3  5  1  0  0  0  0
  4  3  1  0  0  0  0
  5  6  1  0  0  0  0
  5  7  2  0  0  0  0
  7  8  1  0  0  0  0
  9  7  1  0  0  0  0
  9 10  1  0  0  0  0
 11  9  2  0  0  0  0
 12 13  1  1  0  0  0
 12 11  1  0  0  0  0
 12 14  1  0  0  0  0
 14 17  1  0  0  0  0
 14 15  1  0  0  0  0
 16 14  1  0  0  0  0
 18 22  1  0  0  0  0
 18 20  1  0  0  0  0
 19 18  1  0  0  0  0
 21 18  1  0  0  0  0
 22 23  1  0  0  0  0
 22  1  1  0  0  0  0
 24 27  1  0  0  0  0
 24 22  1  0  0  0  0
 25 24  1  0  0  0  0
 26 24  1  0  0  0  0
 28  1  1  0  0  0  0
 28 29  1  0  0  0  0
 28 30  1  0  0  0  0
 31 28  1  0  0  0  0
M  END
