3,24
 OpenBabel05122313053D

 26 28  0  0  1  0  0  0  0  0999 V2000
   -1.7281   -3.5252    0.0380 C   0  0  0  0  0  0  0  0  0  0  0  0
   -2.6861   -2.9837    0.0242 H   0  0  0  0  0  0  0  0  0  0  0  0
   -0.5142   -2.8116    0.0542 C   0  0  0  0  0  3  0  0  0  0  0  0
    0.6887   -3.6002    0.0570 C   0  0  0  0  0  0  0  0  0  0  0  0
    0.6816   -5.0100    0.0590 C   0  0  0  0  0  0  0  0  0  0  0  0
    1.6298   -5.5684    0.0638 H   0  0  0  0  0  0  0  0  0  0  0  0
   -0.5474   -5.6766    0.0523 C   0  0  0  0  0  0  0  0  0  0  0  0
   -0.5800   -6.7756    0.0567 H   0  0  0  0  0  0  0  0  0  0  0  0
   -1.7426   -4.9323    0.0373 C   0  0  0  0  0  0  0  0  0  0  0  0
   -2.7083   -5.4612    0.0290 H   0  0  0  0  0  0  0  0  0  0  0  0
    1.8518   -2.7604    0.0294 C   0  0  2  0  0  3  0  0  0  0  0  0
    3.7943   -1.8187   -0.0277 C   0  0  0  0  0  0  0  0  0  0  0  0
    5.2445   -1.7525   -0.0477 C   0  0  0  0  0  0  0  0  0  0  0  0
    5.8761   -0.4866   -0.0703 C   0  0  0  0  0  0  0  0  0  0  0  0
    5.2565    0.4215   -0.0695 H   0  0  0  0  0  0  0  0  0  0  0  0
    6.0247   -2.9311   -0.0424 C   0  0  0  0  0  0  0  0  0  0  0  0
    5.5318   -3.9134   -0.0231 H   0  0  0  0  0  0  0  0  0  0  0  0
    7.4213   -2.8390   -0.0608 C   0  0  0  0  0  0  0  0  0  0  0  0
    8.0277   -3.7567   -0.0562 H   0  0  0  0  0  0  0  0  0  0  0  0
    8.0468   -1.5816   -0.0843 C   0  0  0  0  0  0  0  0  0  0  0  0
    9.1448   -1.5147   -0.0979 H   0  0  0  0  0  0  0  0  0  0  0  0
    7.2716   -0.4083   -0.0887 C   0  0  0  0  0  0  0  0  0  0  0  0
    7.7625    0.5760   -0.1047 H   0  0  0  0  0  0  0  0  0  0  0  0
    1.6982   -1.4371   -0.0087 N   0  0  0  0  0  2  0  0  0  0  0  0
    2.9212   -0.8326   -0.0468 N   0  0  0  0  0  0  0  0  0  0  0  0
    3.1656   -3.0563    0.0195 O   0  0  0  0  0  0  0  0  0  0  0  0
  1  3  1  0  0  0  0
  2  1  1  0  0  0  0
  3  4  2  0  0  0  0
  4  5  1  0  0  0  0
  5  6  1  0  0  0  0
  7  8  1  0  0  0  0
  7  5  2  0  0  0  0
  9  1  2  0  0  0  0
  9  7  1  0  0  0  0
 10  9  1  0  0  0  0
 11  4  1  6  0  0  0
 12 26  1  0  0  0  0
 13 16  1  0  0  0  0
 13 12  1  0  0  0  0
 14 15  1  0  0  0  0
 14 13  2  0  0  0  0
 16 17  1  0  0  0  0
 18 19  1  0  0  0  0
 18 16  2  0  0  0  0
 20 18  1  0  0  0  0
 21 20  1  0  0  0  0
 22 20  2  0  0  0  0
 22 14  1  0  0  0  0
 23 22  1  0  0  0  0
 24 11  1  0  0  0  0
 25 12  2  0  0  0  0
 25 24  1  0  0  0  0
 26 11  1  0  0  0  0
M  END
