1,21
 OpenBabel05122313053D

 51 53  0  0  1  0  0  0  0  0999 V2000
   -2.1778    0.6080   -0.2551 N   0  0  0  0  0  2  0  0  0  0  0  0
   -2.4327    1.9184   -0.8943 C   0  0  2  0  0  0  0  0  0  0  0  0
   -2.4596    2.6818   -0.0932 H   0  0  0  0  0  0  0  0  0  0  0  0
   -3.8197    1.6935   -1.5282 C   0  0  0  0  0  0  0  0  0  0  0  0
   -4.6409    2.1244   -0.9173 H   0  0  0  0  0  0  0  0  0  0  0  0
   -3.9112    2.0670   -2.5666 H   0  0  0  0  0  0  0  0  0  0  0  0
   -3.9859    0.2548   -1.5504 O   0  0  0  0  0  0  0  0  0  0  0  0
   -3.0557   -0.2579   -0.7006 C   0  0  2  0  0  3  0  0  0  0  0  0
   -3.1941   -1.6522   -0.2949 C   0  0  0  0  0  0  0  0  0  0  0  0
   -4.4114   -2.3108   -0.5910 C   0  0  0  0  0  0  0  0  0  0  0  0
   -5.1611   -1.7775   -1.1917 H   0  0  0  0  0  0  0  0  0  0  0  0
   -4.6747   -3.5923   -0.1001 C   0  0  0  0  0  0  0  0  0  0  0  0
   -5.6294   -4.0867   -0.3329 H   0  0  0  0  0  0  0  0  0  0  0  0
   -3.7199   -4.2277    0.7119 C   0  0  0  0  0  0  0  0  0  0  0  0
   -3.9209   -5.2284    1.1241 H   0  0  0  0  0  0  0  0  0  0  0  0
   -2.5021   -3.5943    0.9886 C   0  0  0  0  0  0  0  0  0  0  0  0
   -1.7458   -4.1084    1.6015 H   0  0  0  0  0  0  0  0  0  0  0  0
   -2.1859   -2.3175    0.4743 C   0  0  0  0  0  0  0  0  0  0  0  0
   -0.8290   -1.7783    0.7101 C   0  0  0  0  0  3  0  0  0  0  0  0
   -0.2890   -2.2906    1.5264 H   0  0  0  0  0  0  0  0  0  0  0  0
   -0.0418   -1.2181   -0.3563 C   0  0  0  0  0  3  0  0  0  0  0  0
   -0.5610   -1.0794   -1.3228 H   0  0  0  0  0  0  0  0  0  0  0  0
    1.4267   -1.2850   -0.5015 C   0  0  0  0  0  0  0  0  0  0  0  0
    2.0178   -0.5630   -1.5712 C   0  0  0  0  0  0  0  0  0  0  0  0
    1.3574   -0.0089   -2.2514 H   0  0  0  0  0  0  0  0  0  0  0  0
    3.4031   -0.5207   -1.7541 C   0  0  0  0  0  0  0  0  0  0  0  0
    4.2512   -1.2337   -0.8520 C   0  0  0  0  0  0  0  0  0  0  0  0
    3.6670   -1.9654    0.1950 C   0  0  0  0  0  0  0  0  0  0  0  0
    4.3035   -2.5328    0.8874 H   0  0  0  0  0  0  0  0  0  0  0  0
    2.2726   -1.9925    0.3692 C   0  0  0  0  0  0  0  0  0  0  0  0
    1.8481   -2.5674    1.2026 H   0  0  0  0  0  0  0  0  0  0  0  0
   -1.2921    2.3050   -1.8660 C   0  0  0  0  0  0  0  0  0  0  0  0
   -0.3663    2.1773   -1.2630 H   0  0  0  0  0  0  0  0  0  0  0  0
   -1.1948    1.3872   -3.0887 C   0  0  0  0  0  0  0  0  0  0  0  0
   -1.1467    0.3191   -2.7991 H   0  0  0  0  0  0  0  0  0  0  0  0
   -0.2805    1.6153   -3.6740 H   0  0  0  0  0  0  0  0  0  0  0  0
   -2.0583    1.5123   -3.7755 H   0  0  0  0  0  0  0  0  0  0  0  0
   -1.4097    3.7788   -2.2670 C   0  0  0  0  0  0  0  0  0  0  0  0
   -0.5647    4.0817   -2.9177 H   0  0  0  0  0  0  0  0  0  0  0  0
   -1.4068    4.4403   -1.3766 H   0  0  0  0  0  0  0  0  0  0  0  0
   -2.3451    3.9766   -2.8341 H   0  0  0  0  0  0  0  0  0  0  0  0
    4.0386    0.1609   -2.7480 O   0  0  0  0  0  0  0  0  0  0  0  0
    3.2413    0.8968   -3.6505 C   0  0  0  0  0  0  0  0  0  0  0  0
    2.5379    0.2438   -4.2167 H   0  0  0  0  0  0  0  0  0  0  0  0
    3.9361    1.3789   -4.3635 H   0  0  0  0  0  0  0  0  0  0  0  0
    2.6461    1.6856   -3.1347 H   0  0  0  0  0  0  0  0  0  0  0  0
    5.5861   -1.1437   -1.0999 O   0  0  0  0  0  0  0  0  0  0  0  0
    6.4663   -1.8239   -0.2311 C   0  0  0  0  0  0  0  0  0  0  0  0
    6.3774   -1.4629    0.8193 H   0  0  0  0  0  0  0  0  0  0  0  0
    7.4900   -1.6181   -0.5959 H   0  0  0  0  0  0  0  0  0  0  0  0
    6.2944   -2.9246   -0.2395 H   0  0  0  0  0  0  0  0  0  0  0  0
  2  1  1  0  0  0  0
  2  3  1  1  0  0  0
  4  5  1  0  0  0  0
  4  2  1  0  0  0  0
  6  4  1  0  0  0  0
  7  4  1  0  0  0  0
  7  8  1  0  0  0  0
  8  9  1  1  0  0  0
  8  1  1  0  0  0  0
  9 18  1  0  0  0  0
 10  9  2  0  0  0  0
 10 12  1  0  0  0  0
 11 10  1  0  0  0  0
 12 14  2  0  0  0  0
 13 12  1  0  0  0  0
 14 16  1  0  0  0  0
 14 15  1  0  0  0  0
 16 17  1  0  0  0  0
 18 19  1  0  0  0  0
 18 16  2  0  0  0  0
 19 20  1  0  0  0  0
 21 19  1  0  0  0  0
 22 21  1  0  0  0  0
 23 21  1  0  0  0  0
 23 30  1  0  0  0  0
 24 23  2  0  0  0  0
 25 24  1  0  0  0  0
 26 24  1  0  0  0  0
 26 27  2  0  0  0  0
 27 28  1  0  0  0  0
 28 30  2  0  0  0  0
 28 29  1  0  0  0  0
 30 31  1  0  0  0  0
 32 33  1  0  0  0  0
 32  2  1  0  0  0  0
 34 35  1  0  0  0  0
 34 32  1  0  0  0  0
 36 34  1  0  0  0  0
 37 34  1  0  0  0  0
 38 32  1  0  0  0  0
 38 40  1  0  0  0  0
 39 38  1  0  0  0  0
 41 38  1  0  0  0  0
 42 26  1  0  0  0  0
 43 46  1  0  0  0  0
 43 42  1  0  0  0  0
 44 43  1  0  0  0  0
 45 43  1  0  0  0  0
 47 27  1  0  0  0  0
 47 48  1  0  0  0  0
 48 49  1  0  0  0  0
 50 48  1  0  0  0  0
 51 48  1  0  0  0  0
M  END
