1
 OpenBabel05122313053D

 39 40  0  0  1  0  0  0  0  0999 V2000
   -1.7657    0.0204   -0.2825 N   0  0  0  0  0  2  0  0  0  0  0  0
    0.3907    1.0026    1.6745 C   0  0  0  0  0  0  0  0  0  0  0  0
    1.6012    1.3387    0.9859 C   0  0  0  0  0  0  0  0  0  0  0  0
    2.4145    0.3064    0.3519 C   0  0  0  0  0  0  0  0  0  0  0  0
    2.0849   -1.0765    0.5606 C   0  0  0  0  0  0  0  0  0  0  0  0
    0.8602   -1.4522    1.2590 C   0  0  1  0  0  3  0  0  0  0  0  0
   -0.0201   -0.3986    1.7269 C   0  0  2  0  0  3  0  0  0  0  0  0
   -0.4997    2.1099    2.1869 C   0  0  0  0  0  0  0  0  0  0  0  0
    1.9791    2.7851    0.7993 C   0  0  0  0  0  0  0  0  0  0  0  0
    3.5518    0.7376   -0.5395 C   0  0  0  0  0  0  0  0  0  0  0  0
    2.9070   -2.1782   -0.0560 C   0  0  0  0  0  0  0  0  0  0  0  0
    0.4935   -2.9132    1.3090 C   0  0  0  0  0  0  0  0  0  0  0  0
   -1.4773   -0.7042    2.0450 C   0  0  0  0  0  0  0  0  0  0  0  0
   -2.3772   -0.2907    0.8958 C   0  0  2  0  0  3  0  0  0  0  0  0
   -3.7750   -0.2627    1.0043 C   0  0  0  0  0  0  0  0  0  0  0  0
   -4.5510    0.0571   -0.1188 C   0  0  0  0  0  0  0  0  0  0  0  0
   -3.9039    0.3467   -1.3274 C   0  0  0  0  0  0  0  0  0  0  0  0
   -2.5064    0.3210   -1.3723 C   0  0  0  0  0  0  0  0  0  0  0  0
   -0.0377    2.6114    3.0636 H   0  0  0  0  0  0  0  0  0  0  0  0
   -1.4912    1.7443    2.5045 H   0  0  0  0  0  0  0  0  0  0  0  0
   -0.6673    2.8781    1.4084 H   0  0  0  0  0  0  0  0  0  0  0  0
    1.5804    3.4244    1.6067 H   0  0  0  0  0  0  0  0  0  0  0  0
    1.5716    3.1453   -0.1718 H   0  0  0  0  0  0  0  0  0  0  0  0
    3.0770    2.9106    0.7756 H   0  0  0  0  0  0  0  0  0  0  0  0
    4.4256    1.0944    0.0468 H   0  0  0  0  0  0  0  0  0  0  0  0
    3.2153    1.5560   -1.2041 H   0  0  0  0  0  0  0  0  0  0  0  0
    3.8877   -0.0816   -1.1968 H   0  0  0  0  0  0  0  0  0  0  0  0
    3.9027   -1.8278   -0.3751 H   0  0  0  0  0  0  0  0  0  0  0  0
    2.3735   -2.5841   -0.9429 H   0  0  0  0  0  0  0  0  0  0  0  0
    3.0542   -3.0053    0.6644 H   0  0  0  0  0  0  0  0  0  0  0  0
    1.3148   -3.5105    1.7528 H   0  0  0  0  0  0  0  0  0  0  0  0
    0.3100   -3.2910    0.2806 H   0  0  0  0  0  0  0  0  0  0  0  0
   -0.4111   -3.1094    1.9109 H   0  0  0  0  0  0  0  0  0  0  0  0
   -1.8097   -0.2195    2.9853 H   0  0  0  0  0  0  0  0  0  0  0  0
   -1.6149   -1.7905    2.2085 H   0  0  0  0  0  0  0  0  0  0  0  0
   -4.2450   -0.5067    1.9682 H   0  0  0  0  0  0  0  0  0  0  0  0
   -5.6490    0.0732   -0.0495 H   0  0  0  0  0  0  0  0  0  0  0  0
   -4.4693    0.5955   -2.2365 H   0  0  0  0  0  0  0  0  0  0  0  0
   -1.9241    0.5652   -2.2734 H   0  0  0  0  0  0  0  0  0  0  0  0
  1 14  1  0  0  0  0
  2  7  1  0  0  0  0
  2  8  1  0  0  0  0
  3  2  2  0  0  0  0
  4  5  2  0  0  0  0
  4  3  1  0  0  0  0
  5  6  1  0  0  0  0
  6 12  1  6  0  0  0
  6  7  1  0  0  0  0
  7 13  1  6  0  0  0
  8 20  1  0  0  0  0
  8 19  1  0  0  0  0
  9  3  1  0  0  0  0
  9 22  1  0  0  0  0
 10 25  1  0  0  0  0
 10  4  1  0  0  0  0
 11  5  1  0  0  0  0
 11 30  1  0  0  0  0
 12 31  1  0  0  0  0
 12 33  1  0  0  0  0
 13 35  1  0  0  0  0
 13 34  1  0  0  0  0
 14 15  1  0  0  0  0
 14 13  1  6  0  0  0
 15 36  1  0  0  0  0
 16 37  1  0  0  0  0
 16 15  2  0  0  0  0
 17 16  1  0  0  0  0
 18 17  2  0  0  0  0
 18  1  1  0  0  0  0
 21  8  1  0  0  0  0
 23  9  1  0  0  0  0
 24  9  1  0  0  0  0
 26 10  1  0  0  0  0
 27 10  1  0  0  0  0
 28 11  1  0  0  0  0
 29 11  1  0  0  0  0
 32 12  1  0  0  0  0
 38 17  1  0  0  0  0
 39 18  1  0  0  0  0
M  END
