15,16
 OpenBabel05122313053D

 27 29  0  0  0  0  0  0  0  0999 V2000
    3.0875    1.5951    0.2570 S   0  0  0  0  0  0  0  0  0  0  0  0
    3.0927    3.3613    0.2152 C   0  0  0  0  0  0  0  0  0  0  0  0
    4.2032    4.2084    0.3526 C   0  0  0  0  0  0  0  0  0  0  0  0
    5.2113    3.7952    0.5037 H   0  0  0  0  0  0  0  0  0  0  0  0
    3.9947    5.5925    0.2929 C   0  0  0  0  0  0  0  0  0  0  0  0
    4.8508    6.2756    0.3981 H   0  0  0  0  0  0  0  0  0  0  0  0
    2.6977    6.1166    0.0997 C   0  0  0  0  0  0  0  0  0  0  0  0
    2.5547    7.2068    0.0553 H   0  0  0  0  0  0  0  0  0  0  0  0
    1.5928    5.2697   -0.0362 C   0  0  0  0  0  0  0  0  0  0  0  0
    0.5871    5.6915   -0.1859 H   0  0  0  0  0  0  0  0  0  0  0  0
    1.7735    3.8694    0.0177 C   0  0  0  0  0  0  0  0  0  0  0  0
    0.8164    2.7875   -0.0899 C   0  0  0  0  0  0  0  0  0  0  0  0
   -0.5984    2.8282   -0.2805 C   0  0  0  0  0  0  0  0  0  0  0  0
   -1.1351    3.7811   -0.4560 H   0  0  0  0  0  0  0  0  0  0  0  0
    1.3771    1.4962    0.0030 C   0  0  0  0  0  2  0  0  0  0  0  0
   -1.2596    1.6897   -0.2931 N   0  0  0  0  0  2  0  0  0  0  0  0
   -2.6509    1.6788   -0.5232 C   0  0  0  0  0  0  0  0  0  0  0  0
   -3.5179    2.5757    0.1386 C   0  0  0  0  0  0  0  0  0  0  0  0
   -3.1054    3.2855    0.8713 H   0  0  0  0  0  0  0  0  0  0  0  0
   -4.8977    2.5288   -0.1046 C   0  0  0  0  0  0  0  0  0  0  0  0
   -5.5658    3.2246    0.4256 H   0  0  0  0  0  0  0  0  0  0  0  0
   -5.4282    1.5899   -1.0030 C   0  0  0  0  0  0  0  0  0  0  0  0
   -6.5127    1.5474   -1.1829 H   0  0  0  0  0  0  0  0  0  0  0  0
   -4.5674    0.6944   -1.6600 C   0  0  0  0  0  0  0  0  0  0  0  0
   -4.9752   -0.0516   -2.3581 H   0  0  0  0  0  0  0  0  0  0  0  0
   -3.1899    0.7320   -1.4203 C   0  0  0  0  0  0  0  0  0  0  0  0
   -2.5064    0.0304   -1.9199 H   0  0  0  0  0  0  0  0  0  0  0  0
  2  1  1  0  0  0  0
  2  3  1  0  0  0  0
  3  4  1  0  0  0  0
  5  3  2  0  0  0  0
  5  6  1  0  0  0  0
  7  5  1  0  0  0  0
  8  7  1  0  0  0  0
  9 11  1  0  0  0  0
  9  7  2  0  0  0  0
 10  9  1  0  0  0  0
 11  2  2  0  0  0  0
 12 15  1  0  0  0  0
 12 11  1  0  0  0  0
 13 12  2  0  0  0  0
 14 13  1  0  0  0  0
 15  1  1  0  0  0  0
 16 13  1  0  0  0  0
 17 16  1  0  0  0  0
 17 18  1  0  0  0  0
 18 19  1  0  0  0  0
 20 18  2  0  0  0  0
 20 21  1  0  0  0  0
 22 20  1  0  0  0  0
 23 22  1  0  0  0  0
 24 26  1  0  0  0  0
 24 22  2  0  0  0  0
 25 24  1  0  0  0  0
 26 17  2  0  0  0  0
 27 26  1  0  0  0  0
M  END
