2,19
 OpenBabel05122313053D

 33 35  0  0  1  0  0  0  0  0999 V2000
   -1.6729   -0.0089   -1.7772 O   0  0  0  0  0  0  0  0  0  0  0  0
    0.3121    1.3049    0.1633 N   0  0  0  0  0  2  0  0  0  0  0  0
   -0.9704    0.6238    0.3894 C   0  0  1  0  0  0  0  0  0  0  0  0
   -1.3968    0.8538    1.3947 H   0  0  0  0  0  0  0  0  0  0  0  0
   -2.0652    0.8900   -0.7295 C   0  0  2  0  0  0  0  0  0  0  0  0
   -2.1154    1.9256   -1.1033 H   0  0  0  0  0  0  0  0  0  0  0  0
   -3.3582    0.2741   -0.2367 C   0  0  0  0  0  0  0  0  0  0  0  0
   -4.5126    0.7723    0.3648 C   0  0  0  0  0  0  0  0  0  0  0  0
   -4.6565    1.8524    0.5257 H   0  0  0  0  0  0  0  0  0  0  0  0
   -5.5096   -0.1498    0.7514 C   0  0  0  0  0  0  0  0  0  0  0  0
   -6.4438    0.2161    1.2041 H   0  0  0  0  0  0  0  0  0  0  0  0
   -5.3264   -1.5292    0.5588 C   0  0  0  0  0  0  0  0  0  0  0  0
   -6.1208   -2.2285    0.8617 H   0  0  0  0  0  0  0  0  0  0  0  0
   -4.1417   -2.0303   -0.0233 C   0  0  0  0  0  0  0  0  0  0  0  0
   -4.0010   -3.1139   -0.1599 H   0  0  0  0  0  0  0  0  0  0  0  0
   -3.1714   -1.1133   -0.4268 C   0  0  0  0  0  0  0  0  0  0  0  0
   -1.7621   -1.2195   -0.9953 C   0  0  2  0  0  0  0  0  0  0  0  0
   -1.5431   -2.1032   -1.6223 H   0  0  0  0  0  0  0  0  0  0  0  0
   -0.7952   -0.9500    0.1867 C   0  0  0  0  0  3  0  0  0  0  0  0
   -1.1063   -1.5133    1.0834 H   0  0  0  0  0  0  0  0  0  0  0  0
    0.4257    2.7684    0.1578 C   0  0  0  0  0  0  0  0  0  0  0  0
   -0.5931    3.4287    1.1082 C   0  0  0  0  0  0  0  0  0  0  0  0
   -1.6389    3.2664    0.7808 H   0  0  0  0  0  0  0  0  0  0  0  0
   -0.4243    4.5234    1.1513 H   0  0  0  0  0  0  0  0  0  0  0  0
   -0.4913    3.0248    2.1358 H   0  0  0  0  0  0  0  0  0  0  0  0
    0.2620    3.3392   -1.2732 C   0  0  0  0  0  0  0  0  0  0  0  0
    1.0032    2.8794   -1.9558 H   0  0  0  0  0  0  0  0  0  0  0  0
    0.4192    4.4377   -1.2812 H   0  0  0  0  0  0  0  0  0  0  0  0
   -0.7424    3.1412   -1.6918 H   0  0  0  0  0  0  0  0  0  0  0  0
    1.8455    3.1306    0.6418 C   0  0  0  0  0  0  0  0  0  0  0  0
    2.6086    2.5990    0.0360 H   0  0  0  0  0  0  0  0  0  0  0  0
    1.9900    2.8455    1.7015 H   0  0  0  0  0  0  0  0  0  0  0  0
    2.0341    4.2192    0.5489 H   0  0  0  0  0  0  0  0  0  0  0  0
  1 17  1  0  0  0  0
  1  5  1  0  0  0  0
  2  3  1  0  0  0  0
  3  4  1  1  0  0  0
  5  6  1  6  0  0  0
  5  7  1  0  0  0  0
  5  3  1  0  0  0  0
  7  8  1  0  0  0  0
  8  9  1  0  0  0  0
  8 10  2  0  0  0  0
 10 11  1  0  0  0  0
 12 10  1  0  0  0  0
 12 13  1  0  0  0  0
 14 12  2  0  0  0  0
 15 14  1  0  0  0  0
 16  7  2  0  0  0  0
 16 14  1  0  0  0  0
 17 18  1  6  0  0  0
 17 16  1  0  0  0  0
 17 19  1  0  0  0  0
 19  3  1  0  0  0  0
 19 20  1  0  0  0  0
 21  2  1  0  0  0  0
 21 30  1  0  0  0  0
 21 22  1  0  0  0  0
 22 24  1  0  0  0  0
 22 25  1  0  0  0  0
 23 22  1  0  0  0  0
 26 21  1  0  0  0  0
 27 26  1  0  0  0  0
 28 26  1  0  0  0  0
 29 26  1  0  0  0  0
 30 32  1  0  0  0  0
 31 30  1  0  0  0  0
 33 30  1  0  0  0  0
M  END
