3,5
 OpenBabel05122313053D

 20 21  0  0  0  0  0  0  0  0999 V2000
    5.7907   -0.4065    0.1235 O   0  5  0  0  0  0  0  0  0  0  0  0
    4.2798   -2.1084   -0.2002 O   0  0  0  0  0  0  0  0  0  0  0  0
   -0.9803    1.9522   -0.2213 N   0  0  0  0  0  2  0  0  0  0  0  0
    0.1708    2.6442   -0.0294 N   0  0  0  0  0  0  0  0  0  0  0  0
    1.1243    0.4938   -0.3172 C   0  0  0  0  0  3  0  0  0  0  0  0
    2.2306   -0.3431   -0.4459 C   0  0  0  0  0  0  0  0  0  0  0  0
    3.5263    0.1463   -0.2232 C   0  0  0  0  0  0  0  0  0  0  0  0
    3.7335    1.5184    0.0070 C   0  0  0  0  0  0  0  0  0  0  0  0
    2.6441    2.4045    0.0486 C   0  0  0  0  0  0  0  0  0  0  0  0
    1.3518    1.8749   -0.0825 C   0  0  0  0  0  0  0  0  0  0  0  0
    4.6681   -0.9182   -0.1032 C   0  0  0  0  0  0  0  0  0  0  0  0
   -0.1002    3.9677    0.1505 C   0  0  0  0  0  3  0  0  0  0  0  0
   -1.4853    4.1230    0.0604 C   0  0  0  0  0  0  0  0  0  0  0  0
   -1.9982    2.8295   -0.1802 C   0  0  0  0  0  0  0  0  0  0  0  0
   -2.0492    5.0568    0.1448 H   0  0  0  0  0  0  0  0  0  0  0  0
    0.7027    4.6909    0.3216 H   0  0  0  0  0  0  0  0  0  0  0  0
    2.8002    3.4824    0.2096 H   0  0  0  0  0  0  0  0  0  0  0  0
    4.7651    1.8596    0.1766 H   0  0  0  0  0  0  0  0  0  0  0  0
   -3.0243    2.4861   -0.3455 H   0  0  0  0  0  0  0  0  0  0  0  0
    2.1655   -1.4153   -0.6692 H   0  0  0  0  0  0  0  0  0  0  0  0
  2 11  2  0  0  0  0
  3 14  1  0  0  0  0
  3  4  1  0  0  0  0
  4 12  1  0  0  0  0
  5 10  1  0  0  0  0
  6  5  2  0  0  0  0
  6  7  1  0  0  0  0
  7 11  1  0  0  0  0
  7  8  2  0  0  0  0
  8  9  1  0  0  0  0
  8 18  1  0  0  0  0
  9 17  1  0  0  0  0
 10  4  1  0  0  0  0
 10  9  2  0  0  0  0
 11  1  1  0  0  0  0
 12 16  1  0  0  0  0
 13 15  1  0  0  0  0
 13 12  1  0  0  0  0
 14 13  2  0  0  0  0
 19 14  1  0  0  0  0
 20  6  1  0  0  0  0
M  CHG  1   1  -1
M  END
