1,7
 OpenBabel05122313053D

 16 16  0  0  1  0  0  0  0  0999 V2000
   -1.8346   -0.2747    1.9157 N   0  0  0  0  0  2  0  0  0  0  0  0
   -2.0827    1.0600    1.9698 C   0  0  1  0  0  3  0  0  0  0  0  0
   -3.0687    1.5626    2.8360 C   0  0  0  0  0  0  0  0  0  0  0  0
   -3.8209    0.6499    3.5854 C   0  0  0  0  0  0  0  0  0  0  0  0
   -3.5722   -0.7309    3.4734 C   0  0  0  0  0  0  0  0  0  0  0  0
   -2.5493   -1.1648    2.6260 C   0  0  0  0  0  0  0  0  0  0  0  0
   -1.1165    1.7435    1.0703 C   0  0  0  0  0  3  0  0  0  0  0  0
   -0.5221    3.0581    1.5546 C   0  0  0  0  0  0  0  0  0  0  0  0
   -3.2433    2.6452    2.9016 H   0  0  0  0  0  0  0  0  0  0  0  0
   -4.6127    1.0112    4.2601 H   0  0  0  0  0  0  0  0  0  0  0  0
   -4.1513   -1.4621    4.0545 H   0  0  0  0  0  0  0  0  0  0  0  0
   -2.2558   -2.2198    2.5165 H   0  0  0  0  0  0  0  0  0  0  0  0
   -1.5780    1.8654    0.0636 H   0  0  0  0  0  0  0  0  0  0  0  0
   -1.2755    3.8774    1.5714 H   0  0  0  0  0  0  0  0  0  0  0  0
    0.2967    3.3889    0.8874 H   0  0  0  0  0  0  0  0  0  0  0  0
   -0.0975    2.9485    2.5724 H   0  0  0  0  0  0  0  0  0  0  0  0
  1  2  1  0  0  0  0
  1  6  1  0  0  0  0
  2  7  1  1  0  0  0
  2  3  1  0  0  0  0
  3  9  1  0  0  0  0
  3  4  2  0  0  0  0
  4 10  1  0  0  0  0
  5  4  1  0  0  0  0
  5 11  1  0  0  0  0
  6  5  2  0  0  0  0
  7  8  1  0  0  0  0
  8 14  1  0  0  0  0
  8 16  1  0  0  0  0
 12  6  1  0  0  0  0
 13  7  1  0  0  0  0
 15  8  1  0  0  0  0
M  END
