2,5
 OpenBabel05122313053D

 43 45  0  0  1  0  0  0  0  0999 V2000
    2.5570   -0.9376   -1.6143 Si  0  0  0  0  0  0  0  0  0  0  0  0
    2.0522    0.4616   -0.6580 N   0  0  0  0  0  2  0  0  0  0  0  0
   -1.4514   -1.4385   -1.6169 C   0  0  0  0  0  0  0  0  0  0  0  0
   -0.2639   -1.1933   -2.3508 C   0  0  0  0  0  3  0  0  0  0  0  0
    0.8442   -1.7349   -1.5982 C   0  0  2  0  0  3  0  0  0  0  0  0
    0.2964   -2.3490   -0.4116 C   0  0  0  0  0  3  0  0  0  0  0  0
   -1.1076   -2.1466   -0.4201 C   0  0  0  0  0  0  0  0  0  0  0  0
   -2.4098   -2.5961    0.2028 C   0  0  2  0  0  0  0  0  0  0  0  0
   -2.9529   -3.7154   -0.7459 C   0  0  0  0  0  0  0  0  0  0  0  0
   -3.3264   -2.9422   -2.0516 C   0  0  0  0  0  0  0  0  0  0  0  0
   -2.9585   -1.4588   -1.7166 C   0  0  1  0  0  0  0  0  0  0  0  0
   -3.3306   -1.4156   -0.2098 C   0  0  0  0  0  0  0  0  0  0  0  0
    3.1197   -0.5376   -3.3741 C   0  0  0  0  0  0  0  0  0  0  0  0
    3.8294   -2.0699   -0.7951 C   0  0  0  0  0  0  0  0  0  0  0  0
    2.8131    1.6783   -0.3183 C   0  0  0  0  0  0  0  0  0  0  0  0
    2.9014    2.6105   -1.5455 C   0  0  0  0  0  0  0  0  0  0  0  0
    2.0680    2.4101    0.8129 C   0  0  0  0  0  0  0  0  0  0  0  0
    4.2340    1.3229    0.1582 C   0  0  0  0  0  0  0  0  0  0  0  0
   -0.1735   -0.6241   -3.2864 H   0  0  0  0  0  0  0  0  0  0  0  0
    0.8915   -2.8132    0.3857 H   0  0  0  0  0  0  0  0  0  0  0  0
   -2.3875   -2.8655    1.2736 H   0  0  0  0  0  0  0  0  0  0  0  0
   -2.1973   -4.5067   -0.9148 H   0  0  0  0  0  0  0  0  0  0  0  0
   -3.8441   -4.1953   -0.2932 H   0  0  0  0  0  0  0  0  0  0  0  0
   -2.7769   -3.3066   -2.9408 H   0  0  0  0  0  0  0  0  0  0  0  0
   -4.4101   -3.0229   -2.2714 H   0  0  0  0  0  0  0  0  0  0  0  0
   -3.4310   -0.7040   -2.3720 H   0  0  0  0  0  0  0  0  0  0  0  0
   -4.4048   -1.6200   -0.0239 H   0  0  0  0  0  0  0  0  0  0  0  0
   -3.0596   -0.4575    0.2746 H   0  0  0  0  0  0  0  0  0  0  0  0
    3.2190   -1.4728   -3.9636 H   0  0  0  0  0  0  0  0  0  0  0  0
    4.1064   -0.0307   -3.3789 H   0  0  0  0  0  0  0  0  0  0  0  0
    2.3949    0.1235   -3.8899 H   0  0  0  0  0  0  0  0  0  0  0  0
    4.8350   -1.6053   -0.7624 H   0  0  0  0  0  0  0  0  0  0  0  0
    3.9092   -3.0177   -1.3672 H   0  0  0  0  0  0  0  0  0  0  0  0
    3.5405   -2.3190    0.2454 H   0  0  0  0  0  0  0  0  0  0  0  0
    3.4531    3.5425   -1.3038 H   0  0  0  0  0  0  0  0  0  0  0  0
    1.8865    2.8882   -1.8953 H   0  0  0  0  0  0  0  0  0  0  0  0
    3.4243    2.1108   -2.3841 H   0  0  0  0  0  0  0  0  0  0  0  0
    2.5399    3.3830    1.0568 H   0  0  0  0  0  0  0  0  0  0  0  0
    2.0434    1.7951    1.7336 H   0  0  0  0  0  0  0  0  0  0  0  0
    1.0221    2.6421    0.5137 H   0  0  0  0  0  0  0  0  0  0  0  0
    4.7840    2.2310    0.4797 H   0  0  0  0  0  0  0  0  0  0  0  0
    4.8186    0.8513   -0.6583 H   0  0  0  0  0  0  0  0  0  0  0  0
    4.1958    0.6151    1.0094 H   0  0  0  0  0  0  0  0  0  0  0  0
  1 14  1  0  0  0  0
  1  2  1  0  0  0  0
  2 15  1  0  0  0  0
  3  7  2  0  0  0  0
  4  3  1  0  0  0  0
  4  5  1  0  0  0  0
  5  1  1  1  0  0  0
  5  6  1  0  0  0  0
  6 20  1  0  0  0  0
  7  6  1  0  0  0  0
  7  8  1  0  0  0  0
  8 21  1  1  0  0  0
  9 23  1  0  0  0  0
  9  8  1  0  0  0  0
 10 11  1  0  0  0  0
 10  9  1  0  0  0  0
 11 26  1  6  0  0  0
 11  3  1  0  0  0  0
 11 12  1  0  0  0  0
 12 27  1  0  0  0  0
 12  8  1  0  0  0  0
 12 28  1  0  0  0  0
 13  1  1  0  0  0  0
 14 32  1  0  0  0  0
 14 34  1  0  0  0  0
 15 18  1  0  0  0  0
 15 17  1  0  0  0  0
 16 35  1  0  0  0  0
 16 15  1  0  0  0  0
 17 38  1  0  0  0  0
 17 39  1  0  0  0  0
 18 41  1  0  0  0  0
 18 43  1  0  0  0  0
 19  4  1  0  0  0  0
 22  9  1  0  0  0  0
 24 10  1  0  0  0  0
 25 10  1  0  0  0  0
 29 13  1  0  0  0  0
 30 13  1  0  0  0  0
 31 13  1  0  0  0  0
 33 14  1  0  0  0  0
 36 16  1  0  0  0  0
 37 16  1  0  0  0  0
 40 17  1  0  0  0  0
 42 18  1  0  0  0  0
M  END
