2,3
 OpenBabel05122313053D

 40 41  0  0  1  0  0  0  0  0999 V2000
   -1.7233   -1.2471    0.7763 O   0  0  0  0  0  0  0  0  0  0  0  0
   -0.0763    0.5047   -0.0292 N   0  0  0  0  0  2  0  0  0  0  0  0
    2.0096    0.1002   -0.7319 C   0  0  1  0  0  3  0  0  0  0  0  0
    2.6519   -0.6692    0.2837 C   0  0  0  0  0  3  0  0  0  0  0  0
    2.9084   -0.3309    1.2911 H   0  0  0  0  0  0  0  0  0  0  0  0
    2.8175   -2.0020   -0.1965 C   0  0  0  0  0  0  0  0  0  0  0  0
    3.2672   -2.8323    0.3603 H   0  0  0  0  0  0  0  0  0  0  0  0
    2.2871   -2.0662   -1.5092 C   0  0  0  0  0  0  0  0  0  0  0  0
    2.2532   -2.9557   -2.1478 H   0  0  0  0  0  0  0  0  0  0  0  0
    1.7784   -0.7796   -1.8366 C   0  0  0  0  0  3  0  0  0  0  0  0
    1.2167   -0.5162   -2.7424 H   0  0  0  0  0  0  0  0  0  0  0  0
    1.0683    1.2822   -0.4945 C   0  0  2  0  0  0  0  0  0  0  0  0
    0.8582    1.7585   -1.4832 H   0  0  0  0  0  0  0  0  0  0  0  0
    1.5884    2.4270    0.4464 C   0  0  0  0  0  0  0  0  0  0  0  0
    0.6788    3.6656    0.3206 C   0  0  0  0  0  0  0  0  0  0  0  0
    1.1091    4.5091    0.8987 H   0  0  0  0  0  0  0  0  0  0  0  0
   -0.3376    3.4734    0.7146 H   0  0  0  0  0  0  0  0  0  0  0  0
    0.5860    3.9991   -0.7342 H   0  0  0  0  0  0  0  0  0  0  0  0
    1.6010    2.0126    1.9299 C   0  0  0  0  0  0  0  0  0  0  0  0
    2.4026    1.2899    2.1697 H   0  0  0  0  0  0  0  0  0  0  0  0
    0.6336    1.5556    2.2171 H   0  0  0  0  0  0  0  0  0  0  0  0
    1.7697    2.9033    2.5688 H   0  0  0  0  0  0  0  0  0  0  0  0
    3.0022    2.8174   -0.0217 C   0  0  0  0  0  0  0  0  0  0  0  0
    3.0009    3.1189   -1.0903 H   0  0  0  0  0  0  0  0  0  0  0  0
    3.7206    1.9819    0.0897 H   0  0  0  0  0  0  0  0  0  0  0  0
    3.3814    3.6769    0.5681 H   0  0  0  0  0  0  0  0  0  0  0  0
   -1.4004    0.8429   -0.2173 C   0  0  0  0  0  0  0  0  0  0  0  0
   -1.9243    1.9926   -0.8530 C   0  0  0  0  0  0  0  0  0  0  0  0
   -1.2387    2.7384   -1.2724 H   0  0  0  0  0  0  0  0  0  0  0  0
   -3.3124    2.1858   -0.9579 C   0  0  0  0  0  0  0  0  0  0  0  0
   -3.6907    3.0917   -1.4552 H   0  0  0  0  0  0  0  0  0  0  0  0
   -4.2117    1.2433   -0.4445 C   0  0  0  0  0  0  0  0  0  0  0  0
   -5.2969    1.4003   -0.5250 H   0  0  0  0  0  0  0  0  0  0  0  0
   -3.7208    0.0687    0.1633 C   0  0  0  0  0  0  0  0  0  0  0  0
   -4.4213   -0.6880    0.5407 H   0  0  0  0  0  0  0  0  0  0  0  0
   -2.3425   -0.1192    0.2556 C   0  0  0  0  0  0  0  0  0  0  0  0
   -2.5511   -2.2842    1.2954 C   0  0  0  0  0  0  0  0  0  0  0  0
   -3.1956   -1.8885    2.1073 H   0  0  0  0  0  0  0  0  0  0  0  0
   -1.8743   -3.0518    1.7067 H   0  0  0  0  0  0  0  0  0  0  0  0
   -3.1824   -2.7237    0.4951 H   0  0  0  0  0  0  0  0  0  0  0  0
  1 37  1  0  0  0  0
  3 12  1  1  0  0  0
  3  4  1  0  0  0  0
  4  5  1  0  0  0  0
  6  4  1  0  0  0  0
  6  7  1  0  0  0  0
  8  6  2  0  0  0  0
  9  8  1  0  0  0  0
 10  8  1  0  0  0  0
 10  3  1  0  0  0  0
 11 10  1  0  0  0  0
 12 13  1  6  0  0  0
 12  2  1  0  0  0  0
 12 14  1  0  0  0  0
 14 19  1  0  0  0  0
 15 14  1  0  0  0  0
 15 17  1  0  0  0  0
 15 16  1  0  0  0  0
 18 15  1  0  0  0  0
 19 20  1  0  0  0  0
 19 21  1  0  0  0  0
 19 22  1  0  0  0  0
 23 25  1  0  0  0  0
 23 14  1  0  0  0  0
 23 26  1  0  0  0  0
 24 23  1  0  0  0  0
 27  2  1  0  0  0  0
 27 36  1  0  0  0  0
 28 27  2  0  0  0  0
 29 28  1  0  0  0  0
 30 28  1  0  0  0  0
 30 32  2  0  0  0  0
 31 30  1  0  0  0  0
 32 34  1  0  0  0  0
 33 32  1  0  0  0  0
 34 36  2  0  0  0  0
 34 35  1  0  0  0  0
 36  1  1  0  0  0  0
 37 39  1  0  0  0  0
 37 38  1  0  0  0  0
 40 37  1  0  0  0  0
M  END
