3,10
 OpenBabel05122313053D

 55 58  0  0  1  0  0  0  0  0999 V2000
   -1.4485    0.3679   -0.0120 P   0  0  0  0  0  4  0  0  0  0  0  0
   -2.2369   -0.5750   -2.7787 Cl  0  0  0  0  0  0  0  0  0  0  0  0
    0.2249   -2.4588   -0.2847 N   0  0  0  0  0  2  0  0  0  0  0  0
   -0.9076   -2.2346   -0.9923 C   0  0  2  0  0  3  0  0  0  0  0  0
   -1.8096   -3.2658   -1.2869 C   0  0  0  0  0  0  0  0  0  0  0  0
   -1.5184   -4.5628   -0.8433 C   0  0  0  0  0  0  0  0  0  0  0  0
   -0.3363   -4.7874   -0.1221 C   0  0  0  0  0  0  0  0  0  0  0  0
    0.5089   -3.7050    0.1438 C   0  0  0  0  0  0  0  0  0  0  0  0
   -1.0488   -0.8041   -1.4412 C   0  0  2  0  0  0  0  0  0  0  0  0
    0.2779   -0.6549    1.8677 C   0  0  0  0  0  3  0  0  0  0  0  0
   -1.0614   -0.2375    1.6436 C   0  0  0  0  0  0  0  0  0  0  0  0
   -2.0034   -0.1647    2.6973 C   0  0  0  0  0  0  0  0  0  0  0  0
   -1.6088   -0.5345    3.9863 C   0  0  0  0  0  0  0  0  0  0  0  0
   -0.2860   -0.9610    4.2448 C   0  0  0  0  0  0  0  0  0  0  0  0
    0.6383   -1.0090    3.1796 C   0  0  0  0  0  0  0  0  0  0  0  0
    0.1499   -1.3225    5.6414 C   0  0  0  0  0  0  0  0  0  0  0  0
   -0.6142    1.9299   -0.3478 C   0  0  0  0  0  0  0  0  0  0  0  0
   -0.4402    2.8290    0.7238 C   0  0  0  0  0  0  0  0  0  0  0  0
    0.2385    4.0318    0.5125 C   0  0  0  0  0  0  0  0  0  0  0  0
    0.7749    4.3547   -0.7511 C   0  0  0  0  0  0  0  0  0  0  0  0
    0.5744    3.4497   -1.8140 C   0  0  0  0  0  0  0  0  0  0  0  0
   -0.1151    2.2482   -1.6263 C   0  0  0  0  0  0  0  0  0  0  0  0
    1.5967    5.6001   -0.9438 C   0  0  0  0  0  0  0  0  0  0  0  0
   -3.2494    0.6225   -0.0958 C   0  0  0  0  0  0  0  0  0  0  0  0
   -4.1132   -0.4665    0.1553 C   0  0  0  0  0  0  0  0  0  0  0  0
   -5.4968   -0.2946    0.0632 C   0  0  0  0  0  0  0  0  0  0  0  0
   -6.0573    0.9568   -0.2804 C   0  0  0  0  0  0  0  0  0  0  0  0
   -5.1812    2.0305   -0.5311 C   0  0  0  0  0  0  0  0  0  0  0  0
   -3.7904    1.8713   -0.4455 C   0  0  0  0  0  0  0  0  0  0  0  0
   -7.5514    1.1252   -0.3692 C   0  0  0  0  0  0  0  0  0  0  0  0
   -2.7095   -3.0387   -1.8746 H   0  0  0  0  0  0  0  0  0  0  0  0
   -2.2064   -5.3920   -1.0651 H   0  0  0  0  0  0  0  0  0  0  0  0
   -0.0637   -5.7902    0.2352 H   0  0  0  0  0  0  0  0  0  0  0  0
    1.4455   -3.8178    0.7091 H   0  0  0  0  0  0  0  0  0  0  0  0
   -0.0385   -0.4999   -1.8313 H   0  0  0  0  0  0  0  0  0  0  0  0
   -3.0300    0.1845    2.5136 H   0  0  0  0  0  0  0  0  0  0  0  0
   -2.3354   -0.4842    4.8121 H   0  0  0  0  0  0  0  0  0  0  0  0
    1.6767   -1.3146    3.3833 H   0  0  0  0  0  0  0  0  0  0  0  0
    0.7853   -0.5186    6.0708 H   0  0  0  0  0  0  0  0  0  0  0  0
    0.7611   -2.2472    5.6481 H   0  0  0  0  0  0  0  0  0  0  0  0
   -0.7127   -1.4678    6.3204 H   0  0  0  0  0  0  0  0  0  0  0  0
   -0.7995    2.5679    1.7303 H   0  0  0  0  0  0  0  0  0  0  0  0
    0.3920    4.7191    1.3585 H   0  0  0  0  0  0  0  0  0  0  0  0
    0.9896    3.6776   -2.8074 H   0  0  0  0  0  0  0  0  0  0  0  0
   -0.2362    1.5586   -2.4734 H   0  0  0  0  0  0  0  0  0  0  0  0
    2.6650    5.3817   -0.7286 H   0  0  0  0  0  0  0  0  0  0  0  0
    1.2830    6.4115   -0.2582 H   0  0  0  0  0  0  0  0  0  0  0  0
    1.5420    5.9736   -1.9849 H   0  0  0  0  0  0  0  0  0  0  0  0
   -3.6999   -1.4504    0.4268 H   0  0  0  0  0  0  0  0  0  0  0  0
   -6.1627   -1.1493    0.2613 H   0  0  0  0  0  0  0  0  0  0  0  0
   -5.5960    3.0135   -0.8032 H   0  0  0  0  0  0  0  0  0  0  0  0
   -3.1210    2.7196   -0.6530 H   0  0  0  0  0  0  0  0  0  0  0  0
   -8.0319    0.9447    0.6151 H   0  0  0  0  0  0  0  0  0  0  0  0
   -7.9948    0.3969   -1.0792 H   0  0  0  0  0  0  0  0  0  0  0  0
   -7.8309    2.1427   -0.7023 H   0  0  0  0  0  0  0  0  0  0  0  0
  1 11  1  0  0  0  0
  2  9  1  0  0  0  0
  3  8  1  0  0  0  0
  4  9  1  6  0  0  0
  4  3  1  0  0  0  0
  5  4  1  0  0  0  0
  5  6  2  0  0  0  0
  6  7  1  0  0  0  0
  7  8  2  0  0  0  0
  7 33  1  0  0  0  0
  8 34  1  0  0  0  0
  9 35  1  6  0  0  0
  9  1  1  0  0  0  0
 10 15  1  0  0  0  0
 11 10  2  0  0  0  0
 11 12  1  0  0  0  0
 12 13  2  0  0  0  0
 13 14  1  0  0  0  0
 13 37  1  0  0  0  0
 14 16  1  0  0  0  0
 15 38  1  0  0  0  0
 15 14  2  0  0  0  0
 16 40  1  0  0  0  0
 16 39  1  0  0  0  0
 16 41  1  0  0  0  0
 17  1  1  0  0  0  0
 17 18  1  0  0  0  0
 18 42  1  0  0  0  0
 19 18  2  0  0  0  0
 19 43  1  0  0  0  0
 20 19  1  0  0  0  0
 21 22  1  0  0  0  0
 21 20  2  0  0  0  0
 22 17  2  0  0  0  0
 23 20  1  0  0  0  0
 23 46  1  0  0  0  0
 23 47  1  0  0  0  0
 24  1  1  0  0  0  0
 24 25  1  0  0  0  0
 25 49  1  0  0  0  0
 26 25  2  0  0  0  0
 26 50  1  0  0  0  0
 27 26  1  0  0  0  0
 28 29  1  0  0  0  0
 28 27  2  0  0  0  0
 29 24  2  0  0  0  0
 30 27  1  0  0  0  0
 30 53  1  0  0  0  0
 31  5  1  0  0  0  0
 32  6  1  0  0  0  0
 36 12  1  0  0  0  0
 44 21  1  0  0  0  0
 45 22  1  0  0  0  0
 48 23  1  0  0  0  0
 51 28  1  0  0  0  0
 52 29  1  0  0  0  0
 54 30  1  0  0  0  0
 55 30  1  0  0  0  0
M  END
