13,29
 OpenBabel05122313053D

 31 33  0  0  0  0  0  0  0  0999 V2000
    2.9821    0.7112   -0.0001 C   0  0  0  0  0  0  0  0  0  0  0  0
    3.8870   -0.3690   -0.0005 C   0  0  0  0  0  0  0  0  0  0  0  0
    3.4932   -1.3951   -0.0008 H   0  0  0  0  0  0  0  0  0  0  0  0
    5.2599   -0.1001   -0.0005 C   0  0  0  0  0  0  0  0  0  0  0  0
    5.9658   -0.9442   -0.0008 H   0  0  0  0  0  0  0  0  0  0  0  0
    5.7564    1.2198   -0.0002 C   0  0  0  0  0  0  0  0  0  0  0  0
    6.8414    1.4012   -0.0002 H   0  0  0  0  0  0  0  0  0  0  0  0
    4.8742    2.3080    0.0002 C   0  0  0  0  0  0  0  0  0  0  0  0
    5.2463    3.3427    0.0004 H   0  0  0  0  0  0  0  0  0  0  0  0
    3.4983    2.0410    0.0002 C   0  0  0  0  0  0  0  0  0  0  0  0
    1.0323    1.8952    0.0001 C   0  0  0  0  0  0  0  0  0  0  0  0
   -0.3892    2.0193   -0.0000 C   0  0  0  0  0  0  0  0  0  0  0  0
   -1.0851    0.7654   -0.0002 C   0  0  0  0  0  2  0  0  0  0  0  0
   -2.4776    0.7873   -0.0004 C   0  0  0  0  0  0  0  0  0  0  0  0
   -3.0154   -0.1699   -0.0008 H   0  0  0  0  0  0  0  0  0  0  0  0
   -3.2128    2.0117   -0.0002 C   0  0  0  0  0  0  0  0  0  0  0  0
   -2.4941    3.2473   -0.0001 C   0  0  0  0  0  0  0  0  0  0  0  0
   -3.0228    4.2082   -0.0002 H   0  0  0  0  0  0  0  0  0  0  0  0
   -1.1046    3.2373   -0.0000 C   0  0  0  0  0  0  0  0  0  0  0  0
   -0.5571    4.1939    0.0001 H   0  0  0  0  0  0  0  0  0  0  0  0
   -5.3409    3.2282    0.0002 C   0  0  0  0  0  0  0  0  0  0  0  0
   -6.4219    3.0009    0.0008 H   0  0  0  0  0  0  0  0  0  0  0  0
   -5.1229    3.8497    0.8979 H   0  0  0  0  0  0  0  0  0  0  0  0
   -5.1239    3.8497   -0.8976 H   0  0  0  0  0  0  0  0  0  0  0  0
   -5.2921    0.7168    0.0001 C   0  0  0  0  0  0  0  0  0  0  0  0
   -6.3810    0.9029    0.0013 H   0  0  0  0  0  0  0  0  0  0  0  0
   -5.0424    0.1034   -0.8928 H   0  0  0  0  0  0  0  0  0  0  0  0
   -5.0404    0.1028    0.8920 H   0  0  0  0  0  0  0  0  0  0  0  0
    1.5864    0.6698   -0.0001 N   0  0  0  0  0  2  0  0  0  0  0  0
   -4.5891    1.9891   -0.0002 N   0  0  0  0  0  0  0  0  0  0  0  0
    2.1858    3.2071    0.0004 S   0  0  0  0  0  0  0  0  0  0  0  0
  1 29  1  0  0  0  0
  1 10  1  0  0  0  0
  2  4  1  0  0  0  0
  2  1  2  0  0  0  0
  3  2  1  0  0  0  0
  4  6  2  0  0  0  0
  5  4  1  0  0  0  0
  6  8  1  0  0  0  0
  7  6  1  0  0  0  0
  8  9  1  0  0  0  0
 10  8  2  0  0  0  0
 10 31  1  0  0  0  0
 11 31  1  0  0  0  0
 12 11  2  0  0  0  0
 13 12  1  0  0  0  0
 14 13  1  0  0  0  0
 14 16  2  0  0  0  0
 15 14  1  0  0  0  0
 16 17  1  0  0  0  0
 17 19  2  0  0  0  0
 18 17  1  0  0  0  0
 19 12  1  0  0  0  0
 19 20  1  0  0  0  0
 21 22  1  0  0  0  0
 21 23  1  0  0  0  0
 24 21  1  0  0  0  0
 25 26  1  0  0  0  0
 25 28  1  0  0  0  0
 27 25  1  0  0  0  0
 29 11  1  0  0  0  0
 30 16  1  0  0  0  0
 30 25  1  0  0  0  0
 30 21  1  0  0  0  0
M  END
