12,31
 OpenBabel05122313053D

 31 33  0  0  0  0  0  0  0  0999 V2000
   -3.5645   -2.0029   -2.2250 Se  0  0  0  0  0  0  0  0  0  0  0  0
    4.0279   -1.4924    0.6228 C   0  0  0  0  0  3  0  0  0  0  0  0
    4.2774   -0.5535    1.1396 H   0  0  0  0  0  0  0  0  0  0  0  0
    4.9387   -2.5387    0.4674 C   0  0  0  0  0  0  0  0  0  0  0  0
    5.9550   -2.4393    0.8731 H   0  0  0  0  0  0  0  0  0  0  0  0
    4.5244   -3.7002   -0.2092 C   0  0  0  0  0  0  0  0  0  0  0  0
    5.2167   -4.5440   -0.3479 H   0  0  0  0  0  0  0  0  0  0  0  0
    3.2225   -3.7685   -0.7109 C   0  0  0  0  0  0  0  0  0  0  0  0
    2.8767   -4.6594   -1.2527 H   0  0  0  0  0  0  0  0  0  0  0  0
    2.3383   -2.6852   -0.5358 C   0  0  0  0  0  0  0  0  0  0  0  0
    0.9681   -2.5856   -1.0259 C   0  0  0  0  0  0  0  0  0  0  0  0
    0.3391   -1.3212   -0.7807 C   0  0  0  0  0  3  0  0  0  0  0  0
   -0.9777   -1.1375   -1.2383 C   0  0  0  0  0  0  0  0  0  0  0  0
   -1.4729   -0.1670   -1.0954 H   0  0  0  0  0  0  0  0  0  0  0  0
   -1.6919   -2.2054   -1.8078 C   0  0  0  0  0  0  0  0  0  0  0  0
   -1.0713   -3.4518   -2.0429 C   0  0  0  0  0  0  0  0  0  0  0  0
   -1.6405   -4.2853   -2.4797 H   0  0  0  0  0  0  0  0  0  0  0  0
    0.2672   -3.6245   -1.6742 C   0  0  0  0  0  0  0  0  0  0  0  0
    0.7487   -4.5989   -1.8526 H   0  0  0  0  0  0  0  0  0  0  0  0
   -4.0622   -0.9500   -0.6893 C   0  0  0  0  0  0  0  0  0  0  0  0
   -3.5097   -1.2039    0.5830 C   0  0  0  0  0  0  0  0  0  0  0  0
   -2.7692   -1.9978    0.7508 H   0  0  0  0  0  0  0  0  0  0  0  0
   -3.8655   -0.3815    1.6505 C   0  0  0  0  0  0  0  0  0  0  0  0
   -4.7898    0.6663    1.4983 C   0  0  0  0  0  0  0  0  0  0  0  0
   -5.3534    0.8835    0.2311 C   0  0  0  0  0  0  0  0  0  0  0  0
   -4.9924    0.0914   -0.8647 C   0  0  0  0  0  0  0  0  0  0  0  0
   -5.4176    0.3298   -1.8497 H   0  0  0  0  0  0  0  0  0  0  0  0
   -3.3030   -0.5510    2.8629 F   0  0  0  0  0  0  0  0  0  0  0  0
   -5.0761    1.4772    2.5271 F   0  0  0  0  0  0  0  0  0  0  0  0
   -6.2166    1.8979    0.0810 F   0  0  0  0  0  0  0  0  0  0  0  0
    2.7655   -1.5641    0.1445 N   0  0  0  0  0  2  0  0  0  0  0  0
  1 15  1  0  0  0  0
  1 20  1  0  0  0  0
  2  3  1  0  0  0  0
  4  2  1  0  0  0  0
  4  5  1  0  0  0  0
  6  4  2  0  0  0  0
  7  6  1  0  0  0  0
  8 10  2  0  0  0  0
  8  6  1  0  0  0  0
  9  8  1  0  0  0  0
 10 31  1  0  0  0  0
 11 12  1  0  0  0  0
 11 10  1  0  0  0  0
 13 14  1  0  0  0  0
 13 12  2  0  0  0  0
 15 13  1  0  0  0  0
 16 15  2  0  0  0  0
 16 18  1  0  0  0  0
 17 16  1  0  0  0  0
 18 11  2  0  0  0  0
 19 18  1  0  0  0  0
 20 21  1  0  0  0  0
 21 22  1  0  0  0  0
 21 23  2  0  0  0  0
 23 28  1  0  0  0  0
 24 23  1  0  0  0  0
 24 29  1  0  0  0  0
 25 24  2  0  0  0  0
 26 20  2  0  0  0  0
 26 25  1  0  0  0  0
 27 26  1  0  0  0  0
 30 25  1  0  0  0  0
 31  2  1  0  0  0  0
M  END
