2,5
q = -1.0, confidence = 0.004

 24 25  0  0  1  0  0  0  0  0999 V2000
   -2.5343    1.5261   -0.8875 H   0  0  0  0  0  0  0  0  0  0  0  0
   -2.2954    0.5366   -0.6757 N   0  0  0  0  0  2  0  0  0  0  0  0
   -3.2193   -0.3540   -0.4999 C   0  0  1  0  0  3  0  0  0  0  0  0
   -2.7270   -1.7553   -0.2238 C   0  0  1  0  0  0  0  0  0  0  0  0
   -1.3653   -1.5743    0.4787 C   0  0  0  0  0  3  0  0  0  0  0  0
   -0.7921   -2.5248    0.4878 H   0  0  0  0  0  0  0  0  0  0  0  0
   -1.5270   -1.2617    1.5360 H   0  0  0  0  0  0  0  0  0  0  0  0
   -4.6724   -0.3016   -0.4048 C   0  0  0  0  0  0  0  0  0  0  0  0
   -5.5874    0.7026   -0.7698 C   0  0  0  0  0  0  0  0  0  0  0  0
   -5.2378    1.6372   -1.2348 H   0  0  0  0  0  0  0  0  0  0  0  0
   -6.9508    0.4762   -0.5393 C   0  0  0  0  0  0  0  0  0  0  0  0
   -7.6897    1.2400   -0.8244 H   0  0  0  0  0  0  0  0  0  0  0  0
   -7.3844   -0.7275    0.0526 C   0  0  0  0  0  0  0  0  0  0  0  0
   -8.4600   -0.8886    0.2226 H   0  0  0  0  0  0  0  0  0  0  0  0
   -6.4665   -1.7239    0.4315 C   0  0  0  0  0  0  0  0  0  0  0  0
   -6.8199   -2.6542    0.9026 H   0  0  0  0  0  0  0  0  0  0  0  0
   -5.1011   -1.5124    0.2042 C   0  0  0  0  0  0  0  0  0  0  0  0
   -3.9161   -2.3898    0.5657 C   0  0  0  0  0  0  0  0  0  0  0  0
   -4.0832   -3.4596    0.3255 H   0  0  0  0  0  0  0  0  0  0  0  0
   -3.7281   -2.3296    1.6599 H   0  0  0  0  0  0  0  0  0  0  0  0
   -2.5587   -2.4854   -1.5747 C   0  0  0  0  0  0  0  0  0  0  0  0
   -2.1412   -3.4993   -1.4066 H   0  0  0  0  0  0  0  0  0  0  0  0
   -1.8609   -1.9243   -2.2273 H   0  0  0  0  0  0  0  0  0  0  0  0
   -3.5273   -2.5882   -2.1048 H   0  0  0  0  0  0  0  0  0  0  0  0
  1  2  1  0  0  0  0
  3  2  1  1  0  0  0
  3  8  1  0  0  0  0
  3  4  1  0  0  0  0
  4  5  1  1  0  0  0
  4 18  1  0  0  0  0
  5  6  1  0  0  0  0
  5  7  1  0  0  0  0
  8 17  1  0  0  0  0
  9 11  1  0  0  0  0
  9  8  2  0  0  0  0
 10  9  1  0  0  0  0
 11 13  2  0  0  0  0
 12 11  1  0  0  0  0
 13 14  1  0  0  0  0
 13 15  1  0  0  0  0
 15 16  1  0  0  0  0
 17 15  2  0  0  0  0
 17 18  1  0  0  0  0
 18 20  1  0  0  0  0
 19 18  1  0  0  0  0
 21 22  1  0  0  0  0
 21  4  1  0  0  0  0
 23 21  1  0  0  0  0
 24 21  1  0  0  0  0
M  END
