2,3
 OpenBabel05122313053D

 42 43  0  0  1  0  0  0  0  0999 V2000
   -1.6538    0.1473   -2.2971 Si  0  0  0  0  0  0  0  0  0  0  0  0
   -1.6522    0.1125   -0.5289 N   0  0  0  0  0  2  0  0  0  0  0  0
    0.2104   -0.0312   -2.5777 C   0  0  2  0  0  3  0  0  0  0  0  0
    0.9290   -1.2654   -2.3524 C   0  0  0  0  0  0  0  0  0  0  0  0
    2.2747   -0.9550   -1.9842 C   0  0  0  0  0  0  0  0  0  0  0  0
    2.4167    0.4759   -1.9916 C   0  0  0  0  0  0  0  0  0  0  0  0
    1.1607    1.0407   -2.3746 C   0  0  0  0  0  0  0  0  0  0  0  0
    0.3911   -2.6567   -2.5541 C   0  0  0  0  0  0  0  0  0  0  0  0
    1.0835   -3.4256   -2.1590 H   0  0  0  0  0  0  0  0  0  0  0  0
    0.2466   -2.8745   -3.6339 H   0  0  0  0  0  0  0  0  0  0  0  0
   -0.5905   -2.8147   -2.0690 H   0  0  0  0  0  0  0  0  0  0  0  0
    3.4090   -1.9218   -1.7930 C   0  0  0  0  0  0  0  0  0  0  0  0
    4.0636   -1.6393   -0.9421 H   0  0  0  0  0  0  0  0  0  0  0  0
    4.0623   -1.9658   -2.6925 H   0  0  0  0  0  0  0  0  0  0  0  0
    3.0530   -2.9539   -1.6043 H   0  0  0  0  0  0  0  0  0  0  0  0
    3.7176    1.2021   -1.7929 C   0  0  0  0  0  0  0  0  0  0  0  0
    4.3142    1.2358   -2.7320 H   0  0  0  0  0  0  0  0  0  0  0  0
    4.3525    0.7085   -1.0303 H   0  0  0  0  0  0  0  0  0  0  0  0
    3.5712    2.2508   -1.4662 H   0  0  0  0  0  0  0  0  0  0  0  0
    0.9133    2.5095   -2.6008 C   0  0  0  0  0  0  0  0  0  0  0  0
    1.8333    3.1016   -2.4295 H   0  0  0  0  0  0  0  0  0  0  0  0
    0.1258    2.9289   -1.9436 H   0  0  0  0  0  0  0  0  0  0  0  0
    0.5907    2.7006   -3.6450 H   0  0  0  0  0  0  0  0  0  0  0  0
   -2.3480    1.7516   -3.0478 C   0  0  0  0  0  0  0  0  0  0  0  0
   -3.4537    1.7728   -2.9637 H   0  0  0  0  0  0  0  0  0  0  0  0
   -2.0896    1.8099   -4.1259 H   0  0  0  0  0  0  0  0  0  0  0  0
   -1.9576    2.6646   -2.5589 H   0  0  0  0  0  0  0  0  0  0  0  0
   -2.6604   -1.2562   -3.0986 C   0  0  0  0  0  0  0  0  0  0  0  0
   -2.5919   -2.2096   -2.5392 H   0  0  0  0  0  0  0  0  0  0  0  0
   -2.3023   -1.4427   -4.1324 H   0  0  0  0  0  0  0  0  0  0  0  0
   -3.7336   -0.9825   -3.1567 H   0  0  0  0  0  0  0  0  0  0  0  0
   -2.7401    0.1702    0.3149 C   0  0  0  0  0  0  0  0  0  0  0  0
   -4.0927    0.3039   -0.1256 C   0  0  0  0  0  0  0  0  0  0  0  0
   -4.2959    0.3645   -1.2054 H   0  0  0  0  0  0  0  0  0  0  0  0
   -5.1632    0.3595    0.7750 C   0  0  0  0  0  0  0  0  0  0  0  0
   -6.1876    0.4631    0.3821 H   0  0  0  0  0  0  0  0  0  0  0  0
   -4.9524    0.2862    2.1631 C   0  0  0  0  0  0  0  0  0  0  0  0
   -5.7976    0.3305    2.8653 H   0  0  0  0  0  0  0  0  0  0  0  0
   -3.6332    0.1537    2.6304 C   0  0  0  0  0  0  0  0  0  0  0  0
   -3.4338    0.0916    3.7125 H   0  0  0  0  0  0  0  0  0  0  0  0
   -2.5595    0.0964    1.7339 C   0  0  0  0  0  0  0  0  0  0  0  0
   -1.5370   -0.0135    2.1351 H   0  0  0  0  0  0  0  0  0  0  0  0
  1  2  1  0  0  0  0
  2 32  1  0  0  0  0
  3  7  1  0  0  0  0
  3  4  1  0  0  0  0
  3  1  1  1  0  0  0
  4  5  2  0  0  0  0
  5 12  1  0  0  0  0
  6  5  1  0  0  0  0
  6 16  1  0  0  0  0
  7  6  2  0  0  0  0
  8  4  1  0  0  0  0
  8  9  1  0  0  0  0
  8 11  1  0  0  0  0
 10  8  1  0  0  0  0
 12 15  1  0  0  0  0
 12 13  1  0  0  0  0
 14 12  1  0  0  0  0
 16 19  1  0  0  0  0
 16 18  1  0  0  0  0
 17 16  1  0  0  0  0
 20 21  1  0  0  0  0
 20  7  1  0  0  0  0
 20 22  1  0  0  0  0
 23 20  1  0  0  0  0
 24 25  1  0  0  0  0
 24 27  1  0  0  0  0
 24  1  1  0  0  0  0
 26 24  1  0  0  0  0
 28 29  1  0  0  0  0
 28  1  1  0  0  0  0
 30 28  1  0  0  0  0
 31 28  1  0  0  0  0
 32 41  1  0  0  0  0
 33 32  2  0  0  0  0
 33 35  1  0  0  0  0
 34 33  1  0  0  0  0
 35 37  2  0  0  0  0
 36 35  1  0  0  0  0
 37 39  1  0  0  0  0
 37 38  1  0  0  0  0
 39 40  1  0  0  0  0
 41 42  1  0  0  0  0
 41 39  2  0  0  0  0
M  END
