1,15
 OpenBabel05122313053D

 32 33  0  0  0  0  0  0  0  0999 V2000
   -3.2172    1.0550   -0.0077 N   0  0  0  0  0  0  0  0  0  0  0  0
   -3.4068    1.5536    0.8763 H   0  0  0  0  0  0  0  0  0  0  0  0
   -3.4066    1.7427   -0.7537 H   0  0  0  0  0  0  0  0  0  0  0  0
   -1.1701   -2.3893    0.2826 N   0  0  0  0  0  2  0  0  0  0  0  0
   -3.2894   -1.3660   -0.0992 C   0  0  0  0  0  0  0  0  0  0  0  0
   -4.0086   -0.1575   -0.1387 C   0  0  0  0  0  0  0  0  0  0  0  0
   -5.4022   -0.1406   -0.2877 C   0  0  0  0  0  0  0  0  0  0  0  0
   -5.9436    0.8177   -0.3133 H   0  0  0  0  0  0  0  0  0  0  0  0
   -6.0924   -1.3565   -0.4035 C   0  0  0  0  0  0  0  0  0  0  0  0
   -7.1856   -1.3538   -0.5281 H   0  0  0  0  0  0  0  0  0  0  0  0
   -5.3883   -2.5744   -0.3584 C   0  0  0  0  0  0  0  0  0  0  0  0
   -5.9350   -3.5252   -0.4490 H   0  0  0  0  0  0  0  0  0  0  0  0
   -3.9980   -2.5820   -0.2014 C   0  0  0  0  0  0  0  0  0  0  0  0
   -3.4229   -3.5184   -0.1584 H   0  0  0  0  0  0  0  0  0  0  0  0
   -1.8013   -1.3000    0.0581 C   0  0  0  0  0  2  0  0  0  0  0  0
    0.1903   -2.5400    0.5277 C   0  0  0  0  0  0  0  0  0  0  0  0
    0.7337   -2.1808    1.7932 C   0  0  0  0  0  0  0  0  0  0  0  0
    2.1092   -2.3832    2.0067 C   0  0  0  0  0  0  0  0  0  0  0  0
    2.5390   -2.1112    2.9839 H   0  0  0  0  0  0  0  0  0  0  0  0
    2.9321   -2.9193    1.0065 C   0  0  0  0  0  0  0  0  0  0  0  0
    4.0086   -3.0527    1.1886 H   0  0  0  0  0  0  0  0  0  0  0  0
    2.3751   -3.2876   -0.2271 C   0  0  0  0  0  0  0  0  0  0  0  0
    3.0156   -3.7191   -1.0126 H   0  0  0  0  0  0  0  0  0  0  0  0
    1.0051   -3.1151   -0.4856 C   0  0  0  0  0  0  0  0  0  0  0  0
    0.3886   -3.4742   -1.8100 C   0  0  0  0  0  0  0  0  0  0  0  0
    0.0514   -2.5668   -2.3560 H   0  0  0  0  0  0  0  0  0  0  0  0
   -0.5184   -4.0984   -1.6692 H   0  0  0  0  0  0  0  0  0  0  0  0
    1.1024   -4.0205   -2.4560 H   0  0  0  0  0  0  0  0  0  0  0  0
   -0.1491   -1.5904    2.8598 C   0  0  0  0  0  0  0  0  0  0  0  0
   -1.0727   -2.1901    2.9954 H   0  0  0  0  0  0  0  0  0  0  0  0
   -0.4806   -0.5656    2.5829 H   0  0  0  0  0  0  0  0  0  0  0  0
    0.3806   -1.5292    3.8296 H   0  0  0  0  0  0  0  0  0  0  0  0
  1  2  1  0  0  0  0
  3  1  1  0  0  0  0
  4 16  1  0  0  0  0
  5 15  1  0  0  0  0
  6  5  1  0  0  0  0
  6  1  1  0  0  0  0
  7  6  2  0  0  0  0
  8  7  1  0  0  0  0
  9 11  2  0  0  0  0
  9  7  1  0  0  0  0
 10  9  1  0  0  0  0
 11 13  1  0  0  0  0
 12 11  1  0  0  0  0
 13 14  1  0  0  0  0
 13  5  2  0  0  0  0
 15  4  1  0  0  0  0
 16 17  1  0  0  0  0
 17 18  2  0  0  0  0
 17 29  1  0  0  0  0
 18 19  1  0  0  0  0
 20 21  1  0  0  0  0
 20 18  1  0  0  0  0
 22 20  2  0  0  0  0
 23 22  1  0  0  0  0
 24 22  1  0  0  0  0
 24 16  2  0  0  0  0
 25 27  1  0  0  0  0
 25 24  1  0  0  0  0
 26 25  1  0  0  0  0
 28 25  1  0  0  0  0
 29 30  1  0  0  0  0
 29 32  1  0  0  0  0
 31 29  1  0  0  0  0
M  END
