1,5
 OpenBabel05122313053D

 27 28  0  0  0  0  0  0  0  0999 V2000
   -1.2178    1.3752   -1.0285 N   0  0  0  0  0  2  0  0  0  0  0  0
   -6.0422   -1.9230    1.2113 F   0  0  0  0  0  0  0  0  0  0  0  0
   -7.0446    0.2257   -0.1175 F   0  0  0  0  0  0  0  0  0  0  0  0
   -5.3329    2.0017   -1.3039 F   0  0  0  0  0  0  0  0  0  0  0  0
   -2.8931   -0.4036    0.1149 C   0  0  0  0  0  2  0  0  0  0  0  0
   -3.8002   -1.2923    0.7160 C   0  0  0  0  0  0  0  0  0  0  0  0
   -5.1814   -1.0715    0.6328 C   0  0  0  0  0  0  0  0  0  0  0  0
   -5.7201    0.0370   -0.0497 C   0  0  0  0  0  0  0  0  0  0  0  0
   -4.8325    0.9358   -0.6523 C   0  0  0  0  0  0  0  0  0  0  0  0
   -3.4402    0.7280   -0.5740 C   0  0  0  0  0  0  0  0  0  0  0  0
   -2.4889    1.6459   -1.1493 C   0  0  0  0  0  0  0  0  0  0  0  0
   -0.2594    2.3380   -1.5355 C   0  0  0  0  0  0  0  0  0  0  0  0
    0.4824    3.1014   -0.4522 C   0  0  0  0  0  0  0  0  0  0  0  0
    1.4214    4.0795   -0.8333 C   0  0  0  0  0  0  0  0  0  0  0  0
    2.1330    4.8013    0.1333 C   0  0  0  0  0  0  0  0  0  0  0  0
    1.9218    4.5500    1.4993 C   0  0  0  0  0  0  0  0  0  0  0  0
    0.9826    3.5829    1.8865 C   0  0  0  0  0  0  0  0  0  0  0  0
    0.2607    2.8676    0.9173 C   0  0  0  0  0  0  0  0  0  0  0  0
   -3.4652   -2.1817    1.2692 H   0  0  0  0  0  0  0  0  0  0  0  0
   -2.8228    2.5667   -1.6656 H   0  0  0  0  0  0  0  0  0  0  0  0
   -0.7670    3.0673   -2.2083 H   0  0  0  0  0  0  0  0  0  0  0  0
    0.4887    1.7985   -2.1544 H   0  0  0  0  0  0  0  0  0  0  0  0
    1.6058    4.2681   -1.9027 H   0  0  0  0  0  0  0  0  0  0  0  0
    2.8653    5.5603   -0.1816 H   0  0  0  0  0  0  0  0  0  0  0  0
    2.4844    5.1131    2.2595 H   0  0  0  0  0  0  0  0  0  0  0  0
    0.8043    3.3829    2.9544 H   0  0  0  0  0  0  0  0  0  0  0  0
   -0.4780    2.1079    1.2178 H   0  0  0  0  0  0  0  0  0  0  0  0
  3  8  1  0  0  0  0
  4  9  1  0  0  0  0
  5  6  1  0  0  0  0
  6 19  1  0  0  0  0
  7  6  2  0  0  0  0
  7  2  1  0  0  0  0
  8  7  1  0  0  0  0
  9 10  1  0  0  0  0
  9  8  2  0  0  0  0
 10  5  1  0  0  0  0
 11  1  1  0  0  0  0
 11 10  2  0  0  0  0
 12  1  1  0  0  0  0
 12 13  1  0  0  0  0
 13 18  1  0  0  0  0
 14 13  2  0  0  0  0
 14 15  1  0  0  0  0
 15 16  2  0  0  0  0
 16 17  1  0  0  0  0
 16 25  1  0  0  0  0
 17 26  1  0  0  0  0
 18 27  1  0  0  0  0
 18 17  2  0  0  0  0
 20 11  1  0  0  0  0
 21 12  1  0  0  0  0
 22 12  1  0  0  0  0
 23 14  1  0  0  0  0
 24 15  1  0  0  0  0
M  END
