1,3
 OpenBabel05122313053D

 27 28  0  0  0  0  0  0  0  0999 V2000
    0.6454    1.2594   -0.1995 N   0  0  0  0  0  2  0  0  0  0  0  0
   -2.4282    3.8123   -0.4099 S   0  0  0  0  0  0  0  0  0  0  0  0
   -1.9476    1.2162   -0.1857 C   0  0  0  0  0  3  0  0  0  0  0  0
   -3.3651    1.3766   -0.2676 C   0  0  0  0  0  0  0  0  0  0  0  0
   -4.0866    0.5481   -0.2666 H   0  0  0  0  0  0  0  0  0  0  0  0
   -3.7599    2.7018   -0.3802 C   0  0  0  0  0  0  0  0  0  0  0  0
   -4.7827    3.0945   -0.4531 H   0  0  0  0  0  0  0  0  0  0  0  0
   -1.3089    2.4756   -0.2622 C   0  0  0  0  0  0  0  0  0  0  0  0
    0.1064    2.4654   -0.2874 C   0  0  0  0  0  3  0  0  0  0  0  0
    0.7461    3.3567   -0.4070 H   0  0  0  0  0  0  0  0  0  0  0  0
    2.0459    1.0650   -0.2006 C   0  0  0  0  0  0  0  0  0  0  0  0
    2.6110    0.1698   -1.1336 C   0  0  0  0  0  0  0  0  0  0  0  0
    1.9386   -0.3083   -1.8637 H   0  0  0  0  0  0  0  0  0  0  0  0
    3.9902   -0.0800   -1.1245 C   0  0  0  0  0  0  0  0  0  0  0  0
    4.7958    0.5748   -0.1648 C   0  0  0  0  0  0  0  0  0  0  0  0
    5.8797    0.3742   -0.1457 H   0  0  0  0  0  0  0  0  0  0  0  0
    4.2525    1.4713    0.7707 C   0  0  0  0  0  0  0  0  0  0  0  0
    2.8615    1.7101    0.7463 C   0  0  0  0  0  0  0  0  0  0  0  0
    2.3992    2.3825    1.4859 H   0  0  0  0  0  0  0  0  0  0  0  0
    4.6075   -1.0392   -2.1120 C   0  0  0  0  0  0  0  0  0  0  0  0
    5.0924   -1.8925   -1.5923 H   0  0  0  0  0  0  0  0  0  0  0  0
    5.3963   -0.5451   -2.7166 H   0  0  0  0  0  0  0  0  0  0  0  0
    3.8505   -1.4486   -2.8078 H   0  0  0  0  0  0  0  0  0  0  0  0
    5.1241    2.1723    1.7835 C   0  0  0  0  0  0  0  0  0  0  0  0
    6.1534    1.7650    1.7885 H   0  0  0  0  0  0  0  0  0  0  0  0
    4.7122    2.0775    2.8093 H   0  0  0  0  0  0  0  0  0  0  0  0
    5.1946    3.2594    1.5665 H   0  0  0  0  0  0  0  0  0  0  0  0
  2  6  1  0  0  0  0
  2  8  1  0  0  0  0
  4  5  1  0  0  0  0
  4  3  1  0  0  0  0
  6  4  2  0  0  0  0
  7  6  1  0  0  0  0
  8  3  2  0  0  0  0
  9  8  1  0  0  0  0
  9  1  1  0  0  0  0
 10  9  1  0  0  0  0
 11  1  1  0  0  0  0
 11 18  1  0  0  0  0
 12 14  1  0  0  0  0
 12 11  2  0  0  0  0
 13 12  1  0  0  0  0
 14 15  2  0  0  0  0
 15 16  1  0  0  0  0
 15 17  1  0  0  0  0
 17 24  1  0  0  0  0
 18 17  2  0  0  0  0
 18 19  1  0  0  0  0
 20 21  1  0  0  0  0
 20 14  1  0  0  0  0
 22 20  1  0  0  0  0
 23 20  1  0  0  0  0
 24 25  1  0  0  0  0
 24 26  1  0  0  0  0
 27 24  1  0  0  0  0
M  END
