1,19
 OpenBabel05122313053D

 26 28  0  0  0  0  0  0  0  0999 V2000
    1.2799    0.0263   -0.2010 N   0  0  0  0  0  2  0  0  0  0  0  0
    2.5683   -2.0122   -0.3228 N   0  0  0  0  0  0  0  0  0  0  0  0
   -2.4879   -3.0838   -0.6645 O   0  0  0  0  0  0  0  0  0  0  0  0
    1.3997   -1.3760   -0.3145 C   0  0  0  0  0  0  0  0  0  0  0  0
    3.7076   -1.2797   -0.2520 C   0  0  0  0  0  0  0  0  0  0  0  0
    4.9784   -1.9283   -0.2442 C   0  0  0  0  0  0  0  0  0  0  0  0
    4.9900   -3.0268   -0.2856 H   0  0  0  0  0  0  0  0  0  0  0  0
    6.1447   -1.1786   -0.1931 C   0  0  0  0  0  0  0  0  0  0  0  0
    7.1202   -1.6888   -0.1908 H   0  0  0  0  0  0  0  0  0  0  0  0
    6.1049    0.2441   -0.1486 C   0  0  0  0  0  0  0  0  0  0  0  0
    7.0448    0.8148   -0.1144 H   0  0  0  0  0  0  0  0  0  0  0  0
    4.8856    0.9068   -0.1507 C   0  0  0  0  0  0  0  0  0  0  0  0
    4.8389    2.0069   -0.1163 H   0  0  0  0  0  0  0  0  0  0  0  0
    3.6757    0.1618   -0.1976 C   0  0  0  0  0  0  0  0  0  0  0  0
    2.3880    0.7562   -0.1829 C   0  0  0  0  0  0  0  0  0  0  0  0
    2.2657    1.8506   -0.1482 H   0  0  0  0  0  0  0  0  0  0  0  0
    0.1352   -2.0235   -0.4615 C   0  0  0  0  0  0  0  0  0  0  0  0
    0.1039   -3.1103   -0.6225 H   0  0  0  0  0  0  0  0  0  0  0  0
   -0.9699   -1.1935   -0.5031 C   0  0  0  0  0  2  0  0  0  0  0  0
   -2.2767   -1.7196   -0.8023 C   0  0  0  0  0  0  0  0  0  0  0  0
   -3.4438   -1.1436   -1.2942 C   0  0  0  0  0  0  0  0  0  0  0  0
   -3.5536   -0.0872   -1.5548 H   0  0  0  0  0  0  0  0  0  0  0  0
   -4.3947   -2.1947   -1.4651 C   0  0  0  0  0  0  0  0  0  0  0  0
   -5.4191   -2.1144   -1.8447 H   0  0  0  0  0  0  0  0  0  0  0  0
   -3.7585   -3.3488   -1.0584 C   0  0  0  0  0  0  0  0  0  0  0  0
   -4.0748   -4.3949   -0.9857 H   0  0  0  0  0  0  0  0  0  0  0  0
  1 15  1  0  0  0  0
  2  4  1  0  0  0  0
  2  5  2  0  0  0  0
  4  1  1  0  0  0  0
  5  6  1  0  0  0  0
  5 14  1  0  0  0  0
  6  8  2  0  0  0  0
  7  6  1  0  0  0  0
  8  9  1  0  0  0  0
  8 10  1  0  0  0  0
 10 11  1  0  0  0  0
 12 10  2  0  0  0  0
 12 13  1  0  0  0  0
 14 15  2  0  0  0  0
 14 12  1  0  0  0  0
 15 16  1  0  0  0  0
 17  4  2  0  0  0  0
 18 17  1  0  0  0  0
 19 17  1  0  0  0  0
 20  3  1  0  0  0  0
 20 19  1  0  0  0  0
 21 20  2  0  0  0  0
 22 21  1  0  0  0  0
 23 21  1  0  0  0  0
 23 25  2  0  0  0  0
 24 23  1  0  0  0  0
 25 26  1  0  0  0  0
 25  3  1  0  0  0  0
M  END
