1,3
 OpenBabel05122313053D

 26 26  0  0  1  0  0  0  0  0999 V2000
    0.4662   -1.1715    0.0003 N   0  0  0  0  0  2  0  0  0  0  0  0
    0.1856   -2.1596    0.0007 H   0  0  0  0  0  0  0  0  0  0  0  0
    1.0108    1.2579   -0.0005 C   0  0  0  0  0  3  0  0  0  0  0  0
    1.2895    2.6490   -0.0010 C   0  0  0  0  0  0  0  0  0  0  0  0
    0.4447    3.3556   -0.0013 H   0  0  0  0  0  0  0  0  0  0  0  0
    2.5923    3.1628   -0.0011 C   0  0  0  0  0  0  0  0  0  0  0  0
    2.7543    4.2531   -0.0015 H   0  0  0  0  0  0  0  0  0  0  0  0
    3.6987    2.2879   -0.0007 C   0  0  0  0  0  0  0  0  0  0  0  0
    4.7252    2.6850   -0.0007 H   0  0  0  0  0  0  0  0  0  0  0  0
    3.4814    0.9085   -0.0003 C   0  0  0  0  0  0  0  0  0  0  0  0
    4.3536    0.2391   -0.0000 H   0  0  0  0  0  0  0  0  0  0  0  0
    2.1621    0.3819   -0.0002 C   0  0  0  0  0  0  0  0  0  0  0  0
    1.7839   -1.0235    0.0002 C   0  0  2  0  0  3  0  0  0  0  0  0
    2.7346   -2.2291    0.0004 C   0  0  0  0  0  0  0  0  0  0  0  0
    3.6135   -2.2058    1.2735 C   0  0  0  0  0  0  0  0  0  0  0  0
    4.2221   -1.2861    1.3476 H   0  0  0  0  0  0  0  0  0  0  0  0
    4.3029   -3.0758    1.2838 H   0  0  0  0  0  0  0  0  0  0  0  0
    2.9803   -2.2591    2.1826 H   0  0  0  0  0  0  0  0  0  0  0  0
    1.9518   -3.5574    0.0009 C   0  0  0  0  0  0  0  0  0  0  0  0
    1.3126   -3.6637    0.9023 H   0  0  0  0  0  0  0  0  0  0  0  0
    2.6611   -4.4089    0.0010 H   0  0  0  0  0  0  0  0  0  0  0  0
    3.6128   -2.2063   -1.2733 C   0  0  0  0  0  0  0  0  0  0  0  0
    4.2213   -1.2866   -1.3482 H   0  0  0  0  0  0  0  0  0  0  0  0
    4.3023   -3.0763   -1.2836 H   0  0  0  0  0  0  0  0  0  0  0  0
    2.9791   -2.2602   -2.1820 H   0  0  0  0  0  0  0  0  0  0  0  0
    1.3122   -3.6642   -0.9002 H   0  0  0  0  0  0  0  0  0  0  0  0
  1  2  1  0  0  0  0
  3 12  1  0  0  0  0
  4  3  2  0  0  0  0
  5  4  1  0  0  0  0
  6  4  1  0  0  0  0
  6  8  2  0  0  0  0
  7  6  1  0  0  0  0
  8 10  1  0  0  0  0
  9  8  1  0  0  0  0
 10 12  2  0  0  0  0
 10 11  1  0  0  0  0
 12 13  1  0  0  0  0
 13  1  1  6  0  0  0
 13 14  1  0  0  0  0
 14 19  1  0  0  0  0
 14 15  1  0  0  0  0
 15 17  1  0  0  0  0
 15 16  1  0  0  0  0
 15 18  1  0  0  0  0
 19 21  1  0  0  0  0
 19 20  1  0  0  0  0
 22 14  1  0  0  0  0
 23 22  1  0  0  0  0
 24 22  1  0  0  0  0
 25 22  1  0  0  0  0
 26 19  1  0  0  0  0
M  END
