1,2
 OpenBabel05122313053D

 25 25  0  0  0  0  0  0  0  0999 V2000
    1.2389    0.1865   -0.1757 N   0  0  0  0  0  0  0  0  0  0  0  0
   -1.0294    1.8933   -0.0475 C   0  0  0  0  0  3  0  0  0  0  0  0
    0.3673    2.4763   -0.2755 C   0  0  0  0  0  0  0  0  0  0  0  0
    1.2851    1.4526   -0.9382 C   0  0  0  0  0  0  0  0  0  0  0  0
    1.8609    0.2907    1.1735 C   0  0  0  0  0  0  0  0  0  0  0  0
    3.3847    0.4451    1.1359 C   0  0  0  0  0  0  0  0  0  0  0  0
    4.0286   -0.7107    0.3601 C   0  0  0  0  0  0  0  0  0  0  0  0
    3.3810   -0.8530   -1.0224 C   0  0  0  0  0  0  0  0  0  0  0  0
    1.8552   -0.9511   -0.9110 C   0  0  0  0  0  0  0  0  0  0  0  0
   -1.5302    2.3081    0.8515 H   0  0  0  0  0  0  0  0  0  0  0  0
   -1.7077    2.1161   -0.9018 H   0  0  0  0  0  0  0  0  0  0  0  0
    0.3190    3.3857   -0.9106 H   0  0  0  0  0  0  0  0  0  0  0  0
    0.8071    2.8086    0.6871 H   0  0  0  0  0  0  0  0  0  0  0  0
    2.3193    1.8489   -1.0409 H   0  0  0  0  0  0  0  0  0  0  0  0
    0.9197    1.2219   -1.9608 H   0  0  0  0  0  0  0  0  0  0  0  0
    1.3819    1.1221    1.7252 H   0  0  0  0  0  0  0  0  0  0  0  0
    1.5797   -0.6353    1.7131 H   0  0  0  0  0  0  0  0  0  0  0  0
    3.7614    0.4816    2.1791 H   0  0  0  0  0  0  0  0  0  0  0  0
    3.6668    1.4171    0.6747 H   0  0  0  0  0  0  0  0  0  0  0  0
    5.1251   -0.5664    0.2715 H   0  0  0  0  0  0  0  0  0  0  0  0
    3.8788   -1.6550    0.9298 H   0  0  0  0  0  0  0  0  0  0  0  0
    3.6610    0.0109   -1.6642 H   0  0  0  0  0  0  0  0  0  0  0  0
    3.7556   -1.7572   -1.5456 H   0  0  0  0  0  0  0  0  0  0  0  0
    1.5761   -1.8718   -0.3568 H   0  0  0  0  0  0  0  0  0  0  0  0
    1.3690   -1.0166   -1.9023 H   0  0  0  0  0  0  0  0  0  0  0  0
  1  5  1  0  0  0  0
  2 10  1  0  0  0  0
  3  2  1  0  0  0  0
  3 13  1  0  0  0  0
  4  3  1  0  0  0  0
  4  1  1  0  0  0  0
  5 17  1  0  0  0  0
  5 16  1  0  0  0  0
  6  5  1  0  0  0  0
  6 18  1  0  0  0  0
  7 21  1  0  0  0  0
  7  6  1  0  0  0  0
  8  9  1  0  0  0  0
  8  7  1  0  0  0  0
  9 24  1  0  0  0  0
  9  1  1  0  0  0  0
 11  2  1  0  0  0  0
 12  3  1  0  0  0  0
 14  4  1  0  0  0  0
 15  4  1  0  0  0  0
 19  6  1  0  0  0  0
 20  7  1  0  0  0  0
 22  8  1  0  0  0  0
 23  8  1  0  0  0  0
 25  9  1  0  0  0  0
M  END
