1,2
 OpenBabel05122313053D

 12 11  0  0  0  0  0  0  0  0999 V2000
    0.7216    1.8617    1.2131 N   0  0  0  0  0  0  0  0  0  0  0  0
   -1.2143    2.1892   -0.6080 C   0  0  0  0  0  3  0  0  0  0  0  0
   -0.1815    3.3069   -0.4903 C   0  0  0  0  0  0  0  0  0  0  0  0
    0.3243    3.2669    0.9431 C   0  0  0  0  0  0  0  0  0  0  0  0
    0.6789    1.6344    2.2149 H   0  0  0  0  0  0  0  0  0  0  0  0
    1.7089    1.7262    0.9525 H   0  0  0  0  0  0  0  0  0  0  0  0
   -2.0661    2.4521    0.0562 H   0  0  0  0  0  0  0  0  0  0  0  0
   -1.6159    2.1159   -1.6401 H   0  0  0  0  0  0  0  0  0  0  0  0
    0.6684    3.1446   -1.1887 H   0  0  0  0  0  0  0  0  0  0  0  0
   -0.5957    4.3154   -0.7187 H   0  0  0  0  0  0  0  0  0  0  0  0
    1.1664    3.9647    1.1425 H   0  0  0  0  0  0  0  0  0  0  0  0
   -0.5017    3.5287    1.6375 H   0  0  0  0  0  0  0  0  0  0  0  0
  1  5  1  0  0  0  0
  2  3  1  0  0  0  0
  2  7  1  0  0  0  0
  3  4  1  0  0  0  0
  4 11  1  0  0  0  0
  4  1  1  0  0  0  0
  4 12  1  0  0  0  0
  6  1  1  0  0  0  0
  8  2  1  0  0  0  0
  9  3  1  0  0  0  0
 10  3  1  0  0  0  0
M  END
