1,5
 OpenBabel05122313053D

 43 43  0  0  1  0  0  0  0  0999 V2000
    1.4351    0.8667    0.1664 N   0  0  0  0  0  2  0  0  0  0  0  0
   -0.2939    2.6684   -0.5252 N   0  0  0  0  0  0  0  0  0  0  0  0
    2.3834   -0.6123    0.0420 Si  0  0  0  0  0  0  0  0  0  0  0  0
    0.8024   -1.6142    0.1934 C   0  0  1  0  0  3  0  0  0  0  0  0
   -0.0267   -1.4581    1.3701 C   0  0  1  0  0  3  0  0  0  0  0  0
   -1.3871   -1.7194    0.9971 C   0  0  0  0  0  0  0  0  0  0  0  0
   -1.4161   -1.9751   -0.4070 C   0  0  0  0  0  0  0  0  0  0  0  0
   -0.0679   -1.9430   -0.8975 C   0  0  2  0  0  3  0  0  0  0  0  0
    1.9464    2.2227    0.1634 C   0  0  0  0  0  0  0  0  0  0  0  0
    2.4786    2.4500   -0.7959 H   0  0  0  0  0  0  0  0  0  0  0  0
    2.6948    2.3861    0.9736 H   0  0  0  0  0  0  0  0  0  0  0  0
    0.7750    3.1803    0.3342 C   0  0  0  0  0  0  0  0  0  0  0  0
    0.3977    3.1541    1.3777 H   0  0  0  0  0  0  0  0  0  0  0  0
    1.0524    4.2315    0.0863 H   0  0  0  0  0  0  0  0  0  0  0  0
   -1.4932    3.5089   -0.5816 C   0  0  0  0  0  0  0  0  0  0  0  0
   -2.2101    3.0514   -1.2889 H   0  0  0  0  0  0  0  0  0  0  0  0
   -1.2513    4.5421   -0.9180 H   0  0  0  0  0  0  0  0  0  0  0  0
   -1.9573    3.5468    0.4212 H   0  0  0  0  0  0  0  0  0  0  0  0
    3.2809   -0.6855   -1.6197 C   0  0  0  0  0  0  0  0  0  0  0  0
    4.1333    0.0258   -1.6039 H   0  0  0  0  0  0  0  0  0  0  0  0
    2.6088   -0.3960   -2.4507 H   0  0  0  0  0  0  0  0  0  0  0  0
    3.6963   -1.6923   -1.8305 H   0  0  0  0  0  0  0  0  0  0  0  0
    3.6778   -0.8631    1.3953 C   0  0  0  0  0  0  0  0  0  0  0  0
    4.4838   -0.1057    1.3018 H   0  0  0  0  0  0  0  0  0  0  0  0
    4.1484   -1.8624    1.2825 H   0  0  0  0  0  0  0  0  0  0  0  0
    3.2561   -0.7972    2.4154 H   0  0  0  0  0  0  0  0  0  0  0  0
    0.4340   -1.1510    2.7663 C   0  0  0  0  0  0  0  0  0  0  0  0
    1.1194   -0.2816    2.7883 H   0  0  0  0  0  0  0  0  0  0  0  0
    0.9677   -2.0180    3.2109 H   0  0  0  0  0  0  0  0  0  0  0  0
   -0.4222   -0.9015    3.4192 H   0  0  0  0  0  0  0  0  0  0  0  0
   -2.5508   -1.8133    1.9307 C   0  0  0  0  0  0  0  0  0  0  0  0
   -3.5144   -1.7334    1.3926 H   0  0  0  0  0  0  0  0  0  0  0  0
   -2.5270   -1.0060    2.6875 H   0  0  0  0  0  0  0  0  0  0  0  0
   -2.5387   -2.7894    2.4618 H   0  0  0  0  0  0  0  0  0  0  0  0
   -2.6089   -2.3170   -1.2411 C   0  0  0  0  0  0  0  0  0  0  0  0
   -2.6259   -1.7013   -2.1632 H   0  0  0  0  0  0  0  0  0  0  0  0
   -3.5579   -2.1484   -0.6979 H   0  0  0  0  0  0  0  0  0  0  0  0
   -2.5812   -3.3844   -1.5503 H   0  0  0  0  0  0  0  0  0  0  0  0
    0.3051   -2.3200   -2.2986 C   0  0  0  0  0  0  0  0  0  0  0  0
   -0.0659   -3.3437   -2.5182 H   0  0  0  0  0  0  0  0  0  0  0  0
    1.3978   -2.3210   -2.4523 H   0  0  0  0  0  0  0  0  0  0  0  0
   -0.1593   -1.6357   -3.0377 H   0  0  0  0  0  0  0  0  0  0  0  0
    0.0567    2.5425   -1.4874 H   0  0  0  0  0  0  0  0  0  0  0  0
  2 12  1  0  0  0  0
  3  1  1  0  0  0  0
  3 23  1  0  0  0  0
  4  3  1  6  0  0  0
  4  5  1  0  0  0  0
  5 27  1  1  0  0  0
  6  5  1  0  0  0  0
  6 31  1  0  0  0  0
  7  6  2  0  0  0  0
  8 39  1  1  0  0  0
  8  7  1  0  0  0  0
  8  4  1  0  0  0  0
  9  1  1  0  0  0  0
  9 12  1  0  0  0  0
  9 11  1  0  0  0  0
 10  9  1  0  0  0  0
 12 13  1  0  0  0  0
 14 12  1  0  0  0  0
 15  2  1  0  0  0  0
 15 18  1  0  0  0  0
 16 15  1  0  0  0  0
 17 15  1  0  0  0  0
 19 20  1  0  0  0  0
 19  3  1  0  0  0  0
 21 19  1  0  0  0  0
 22 19  1  0  0  0  0
 23 26  1  0  0  0  0
 24 23  1  0  0  0  0
 25 23  1  0  0  0  0
 27 28  1  0  0  0  0
 27 29  1  0  0  0  0
 27 30  1  0  0  0  0
 31 34  1  0  0  0  0
 31 33  1  0  0  0  0
 32 31  1  0  0  0  0
 35 37  1  0  0  0  0
 35  7  1  0  0  0  0
 36 35  1  0  0  0  0
 38 35  1  0  0  0  0
 40 39  1  0  0  0  0
 41 39  1  0  0  0  0
 42 39  1  0  0  0  0
 43  2  1  0  0  0  0
M  END
