1,9
 OpenBabel05122313053D

 29 30  0  0  1  0  0  0  0  0999 V2000
    0.4335   -1.4072   -0.3384 N   0  0  0  0  0  2  0  0  0  0  0  0
    1.6981   -1.2916    0.1475 C   0  0  2  0  0  3  0  0  0  0  0  0
    2.6219   -2.3124   -0.1478 C   0  0  0  0  0  0  0  0  0  0  0  0
    2.2493   -3.4091   -0.9333 C   0  0  0  0  0  0  0  0  0  0  0  0
    0.9379   -3.4914   -1.4133 C   0  0  0  0  0  0  0  0  0  0  0  0
    0.0480   -2.4684   -1.0855 C   0  0  0  0  0  0  0  0  0  0  0  0
    2.0624   -0.0634    0.9997 C   0  0  0  0  0  0  0  0  0  0  0  0
    1.7417    1.1999    0.1644 C   0  0  0  0  0  0  0  0  0  0  0  0
    0.4422    1.4407   -0.3320 C   0  0  0  0  0  3  0  0  0  0  0  0
    0.1531    2.5808   -1.0976 C   0  0  0  0  0  0  0  0  0  0  0  0
    1.1669    3.5067   -1.3889 C   0  0  0  0  0  0  0  0  0  0  0  0
    2.4620    3.2911   -0.9022 C   0  0  0  0  0  0  0  0  0  0  0  0
    2.7424    2.1512   -0.1360 C   0  0  0  0  0  0  0  0  0  0  0  0
    3.5450   -0.1144    1.4055 C   0  0  0  0  0  0  0  0  0  0  0  0
    1.2487   -0.0789    2.3247 C   0  0  0  0  0  0  0  0  0  0  0  0
    0.1534   -0.0535    2.1648 H   0  0  0  0  0  0  0  0  0  0  0  0
    1.5152    0.8143    2.9224 H   0  0  0  0  0  0  0  0  0  0  0  0
    1.4869   -0.9873    2.9132 H   0  0  0  0  0  0  0  0  0  0  0  0
    3.6429   -2.2457    0.2430 H   0  0  0  0  0  0  0  0  0  0  0  0
    2.9835   -4.1960   -1.1629 H   0  0  0  0  0  0  0  0  0  0  0  0
    0.5920   -4.3335   -2.0281 H   0  0  0  0  0  0  0  0  0  0  0  0
   -1.0166   -2.4856   -1.3656 H   0  0  0  0  0  0  0  0  0  0  0  0
   -0.8740    2.7549   -1.4472 H   0  0  0  0  0  0  0  0  0  0  0  0
    0.9356    4.3978   -1.9924 H   0  0  0  0  0  0  0  0  0  0  0  0
    3.2653    4.0122   -1.1158 H   0  0  0  0  0  0  0  0  0  0  0  0
    3.7660    2.0105    0.2349 H   0  0  0  0  0  0  0  0  0  0  0  0
    4.2313   -0.1220    0.5368 H   0  0  0  0  0  0  0  0  0  0  0  0
    3.7905    0.7678    2.0256 H   0  0  0  0  0  0  0  0  0  0  0  0
    3.7497   -1.0098    2.0239 H   0  0  0  0  0  0  0  0  0  0  0  0
  1  2  1  0  0  0  0
  2  7  1  1  0  0  0
  3  2  1  0  0  0  0
  3 19  1  0  0  0  0
  4  3  2  0  0  0  0
  5  6  2  0  0  0  0
  5  4  1  0  0  0  0
  6  1  1  0  0  0  0
  7 14  1  0  0  0  0
  7 15  1  0  0  0  0
  8  7  1  0  0  0  0
  9  8  2  0  0  0  0
 10  9  1  0  0  0  0
 11 10  2  0  0  0  0
 11 12  1  0  0  0  0
 12 13  2  0  0  0  0
 13  8  1  0  0  0  0
 13 26  1  0  0  0  0
 14 29  1  0  0  0  0
 14 28  1  0  0  0  0
 15 18  1  0  0  0  0
 15 17  1  0  0  0  0
 16 15  1  0  0  0  0
 20  4  1  0  0  0  0
 21  5  1  0  0  0  0
 22  6  1  0  0  0  0
 23 10  1  0  0  0  0
 24 11  1  0  0  0  0
 25 12  1  0  0  0  0
 27 14  1  0  0  0  0
M  END
