3,6
 OpenBabel05122313053D

 31 31  0  0  0  0  0  0  0  0999 V2000
   -4.9721    0.0130    2.1165 O   0  0  0  0  0  0  0  0  0  0  0  0
   -6.0241   -1.7373    1.3427 O   0  0  0  0  0  0  0  0  0  0  0  0
    0.7980   -1.8478   -0.7928 N   0  0  0  0  0  2  0  0  0  0  0  0
   -5.0159   -1.0433    1.4799 N   0  0  0  0  0  0  0  0  0  0  0  0
   -1.4596   -2.3144   -0.4186 C   0  0  0  0  0  0  0  0  0  0  0  0
   -1.4674   -0.9975    0.1739 C   0  0  0  0  0  2  0  0  0  0  0  0
   -2.6544   -0.6616    0.8529 C   0  0  0  0  0  0  0  0  0  0  0  0
   -3.7717   -1.5053    0.8164 C   0  0  0  0  0  0  0  0  0  0  0  0
   -3.7816   -2.7481    0.1636 C   0  0  0  0  0  0  0  0  0  0  0  0
   -2.5916   -3.1597   -0.4365 C   0  0  0  0  0  0  0  0  0  0  0  0
   -0.1724   -2.7158   -0.9230 C   0  0  0  0  0  0  0  0  0  0  0  0
    2.1660   -2.1882   -1.1696 C   0  0  0  0  0  0  0  0  0  0  0  0
    3.0550   -2.4149    0.0583 C   0  0  0  0  0  0  0  0  0  0  0  0
    4.5240   -2.6162   -0.3168 C   0  0  0  0  0  0  0  0  0  0  0  0
    5.4415   -2.7903    0.8972 C   0  0  0  0  0  0  0  0  0  0  0  0
    6.9123   -2.9777    0.5249 C   0  0  0  0  0  0  0  0  0  0  0  0
   -2.7727    0.2648    1.4226 H   0  0  0  0  0  0  0  0  0  0  0  0
   -4.6966   -3.3530    0.1579 H   0  0  0  0  0  0  0  0  0  0  0  0
   -2.5294   -4.1457   -0.9230 H   0  0  0  0  0  0  0  0  0  0  0  0
    0.0221   -3.7110   -1.3632 H   0  0  0  0  0  0  0  0  0  0  0  0
    2.5733   -1.3382   -1.7511 H   0  0  0  0  0  0  0  0  0  0  0  0
    2.1492   -3.0913   -1.8181 H   0  0  0  0  0  0  0  0  0  0  0  0
    2.9561   -1.5299    0.7195 H   0  0  0  0  0  0  0  0  0  0  0  0
    2.6773   -3.2903    0.6310 H   0  0  0  0  0  0  0  0  0  0  0  0
    4.6285   -3.4978   -0.9898 H   0  0  0  0  0  0  0  0  0  0  0  0
    4.8682   -1.7404   -0.9124 H   0  0  0  0  0  0  0  0  0  0  0  0
    5.0916   -3.6590    1.4980 H   0  0  0  0  0  0  0  0  0  0  0  0
    5.3308   -1.9038    1.5602 H   0  0  0  0  0  0  0  0  0  0  0  0
    7.2975   -2.1063   -0.0453 H   0  0  0  0  0  0  0  0  0  0  0  0
    7.0575   -3.8764   -0.1107 H   0  0  0  0  0  0  0  0  0  0  0  0
    7.5511   -3.0972    1.4229 H   0  0  0  0  0  0  0  0  0  0  0  0
  2  4  2  0  0  0  0
  4  1  2  0  0  0  0
  5  6  1  0  0  0  0
  6  7  1  0  0  0  0
  7 17  1  0  0  0  0
  8  7  2  0  0  0  0
  8  4  1  0  0  0  0
  9  8  1  0  0  0  0
 10  5  1  0  0  0  0
 10  9  2  0  0  0  0
 11  3  1  0  0  0  0
 11  5  2  0  0  0  0
 12  3  1  0  0  0  0
 12 13  1  0  0  0  0
 13 24  1  0  0  0  0
 13 23  1  0  0  0  0
 14 13  1  0  0  0  0
 14 15  1  0  0  0  0
 15 27  1  0  0  0  0
 15 28  1  0  0  0  0
 16 15  1  0  0  0  0
 16 31  1  0  0  0  0
 18  9  1  0  0  0  0
 19 10  1  0  0  0  0
 20 11  1  0  0  0  0
 21 12  1  0  0  0  0
 22 12  1  0  0  0  0
 25 14  1  0  0  0  0
 26 14  1  0  0  0  0
 29 16  1  0  0  0  0
 30 16  1  0  0  0  0
M  END
