1,2
 OpenBabel05122313053D

 30 31  0  0  0  0  0  0  0  0999 V2000
   -2.7328   -0.0215   -0.8653 N   0  0  0  0  0  2  0  0  0  0  0  0
   -1.2485    1.0511    1.2140 C   0  0  0  0  0  3  0  0  0  0  0  0
   -2.0038    0.3986    1.7067 H   0  0  0  0  0  0  0  0  0  0  0  0
   -0.4501    1.2661    1.9495 H   0  0  0  0  0  0  0  0  0  0  0  0
   -1.8687    2.3165    0.7275 C   0  0  0  0  0  0  0  0  0  0  0  0
   -1.3933    3.5812    1.1310 C   0  0  0  0  0  0  0  0  0  0  0  0
   -0.5163    3.6272    1.7946 H   0  0  0  0  0  0  0  0  0  0  0  0
   -2.0212    4.7656    0.7175 C   0  0  0  0  0  0  0  0  0  0  0  0
   -1.6194    5.7358    1.0487 H   0  0  0  0  0  0  0  0  0  0  0  0
   -3.1673    4.7219   -0.0949 C   0  0  0  0  0  0  0  0  0  0  0  0
   -3.6693    5.6503   -0.4043 H   0  0  0  0  0  0  0  0  0  0  0  0
   -3.6613    3.4793   -0.5103 C   0  0  0  0  0  0  0  0  0  0  0  0
   -4.5521    3.4252   -1.1564 H   0  0  0  0  0  0  0  0  0  0  0  0
   -3.0044    2.2860   -0.1433 C   0  0  0  0  0  0  0  0  0  0  0  0
   -3.4921    1.0115   -0.6602 C   0  0  0  0  0  3  0  0  0  0  0  0
   -4.5724    0.9257   -0.9021 H   0  0  0  0  0  0  0  0  0  0  0  0
   -3.3215   -1.3129   -1.2288 C   0  0  0  0  0  0  0  0  0  0  0  0
   -2.7933   -1.6647   -2.1394 H   0  0  0  0  0  0  0  0  0  0  0  0
   -4.4059   -1.1885   -1.4400 H   0  0  0  0  0  0  0  0  0  0  0  0
   -3.0977   -2.2881   -0.0852 C   0  0  0  0  0  0  0  0  0  0  0  0
   -2.0304   -3.2060   -0.1269 C   0  0  0  0  0  0  0  0  0  0  0  0
   -1.3863   -3.2332   -1.0198 H   0  0  0  0  0  0  0  0  0  0  0  0
   -1.7741   -4.0417    0.9713 C   0  0  0  0  0  0  0  0  0  0  0  0
   -0.9337   -4.7513    0.9314 H   0  0  0  0  0  0  0  0  0  0  0  0
   -2.5746   -3.9628    2.1222 C   0  0  0  0  0  0  0  0  0  0  0  0
   -2.3702   -4.6170    2.9840 H   0  0  0  0  0  0  0  0  0  0  0  0
   -3.6408   -3.0490    2.1700 C   0  0  0  0  0  0  0  0  0  0  0  0
   -4.2748   -2.9855    3.0676 H   0  0  0  0  0  0  0  0  0  0  0  0
   -3.8984   -2.2163    1.0706 C   0  0  0  0  0  0  0  0  0  0  0  0
   -4.7290   -1.4929    1.1142 H   0  0  0  0  0  0  0  0  0  0  0  0
  1 15  1  0  0  0  0
  2  3  1  0  0  0  0
  2  4  1  0  0  0  0
  5  6  1  0  0  0  0
  5  2  1  0  0  0  0
  6  7  1  0  0  0  0
  8  9  1  0  0  0  0
  8  6  2  0  0  0  0
 10  8  1  0  0  0  0
 11 10  1  0  0  0  0
 12 14  1  0  0  0  0
 12 10  2  0  0  0  0
 13 12  1  0  0  0  0
 14  5  2  0  0  0  0
 15 14  1  0  0  0  0
 16 15  1  0  0  0  0
 17  1  1  0  0  0  0
 17 20  1  0  0  0  0
 18 17  1  0  0  0  0
 19 17  1  0  0  0  0
 20 29  1  0  0  0  0
 21 20  2  0  0  0  0
 21 23  1  0  0  0  0
 22 21  1  0  0  0  0
 23 25  2  0  0  0  0
 24 23  1  0  0  0  0
 25 27  1  0  0  0  0
 25 26  1  0  0  0  0
 27 28  1  0  0  0  0
 29 30  1  0  0  0  0
 29 27  2  0  0  0  0
M  END
