2,31
 OpenBabel05122313053D

 47 50  0  0  0  0  0  0  0  0999 V2000
    2.0217    1.9200    0.0991 N   0  0  0  0  0  0  0  0  0  0  0  0
    0.8881    1.3100    0.5923 C   0  0  0  0  0  2  0  0  0  0  0  0
    0.2144    2.3391    1.2093 N   0  0  0  0  0  0  0  0  0  0  0  0
    0.8824    3.5510    1.0823 C   0  0  0  0  0  0  0  0  0  0  0  0
    0.4944    4.4845    1.5003 H   0  0  0  0  0  0  0  0  0  0  0  0
    2.0239    3.2831    0.3835 C   0  0  0  0  0  0  0  0  0  0  0  0
    2.8491    3.9295    0.0713 H   0  0  0  0  0  0  0  0  0  0  0  0
    3.2217    1.2875   -0.4026 C   0  0  0  0  0  0  0  0  0  0  0  0
    3.4638    1.1913   -1.7924 C   0  0  0  0  0  0  0  0  0  0  0  0
    4.6593    0.5652   -2.1936 C   0  0  0  0  0  0  0  0  0  0  0  0
    4.8574    0.4655   -3.2724 H   0  0  0  0  0  0  0  0  0  0  0  0
    5.6130    0.0916   -1.2733 C   0  0  0  0  0  0  0  0  0  0  0  0
    5.3811    0.3205    0.0966 C   0  0  0  0  0  0  0  0  0  0  0  0
    6.1496    0.0319    0.8313 H   0  0  0  0  0  0  0  0  0  0  0  0
    4.2058    0.9429    0.5547 C   0  0  0  0  0  0  0  0  0  0  0  0
    2.5347    1.7913   -2.8080 C   0  0  0  0  0  0  0  0  0  0  0  0
    2.3704    2.8708   -2.6084 H   0  0  0  0  0  0  0  0  0  0  0  0
    1.5379    1.3055   -2.7769 H   0  0  0  0  0  0  0  0  0  0  0  0
    2.9517    1.6936   -3.8273 H   0  0  0  0  0  0  0  0  0  0  0  0
    6.8543   -0.6206   -1.7430 C   0  0  0  0  0  0  0  0  0  0  0  0
    7.6828   -0.5270   -1.0146 H   0  0  0  0  0  0  0  0  0  0  0  0
    7.2023   -0.2325   -2.7200 H   0  0  0  0  0  0  0  0  0  0  0  0
    6.6564   -1.7057   -1.8780 H   0  0  0  0  0  0  0  0  0  0  0  0
    4.0643    1.3335    2.0055 C   0  0  0  0  0  0  0  0  0  0  0  0
    4.3637    2.3942    2.1447 H   0  0  0  0  0  0  0  0  0  0  0  0
    4.7213    0.7236    2.6534 H   0  0  0  0  0  0  0  0  0  0  0  0
    3.0258    1.2447    2.3763 H   0  0  0  0  0  0  0  0  0  0  0  0
   -1.0032    2.1733    2.0007 C   0  0  0  0  0  0  0  0  0  0  0  0
   -1.3336    3.1686    2.3472 H   0  0  0  0  0  0  0  0  0  0  0  0
   -0.7610    1.5663    2.9002 H   0  0  0  0  0  0  0  0  0  0  0  0
   -1.8043    0.3424    0.5547 N   0  0  0  0  0  2  0  0  0  0  0  0
   -2.8640   -0.1057   -0.0732 N   0  0  0  0  0  2  0  0  0  0  0  0
   -3.8478    0.7685    0.1807 N   0  0  0  0  0  0  0  0  0  0  0  0
   -3.4131    1.7960    0.9767 C   0  0  0  0  0  0  0  0  0  0  0  0
   -4.0516    2.6362    1.2630 H   0  0  0  0  0  0  0  0  0  0  0  0
   -2.0800    1.5025    1.2189 C   0  0  0  0  0  0  0  0  0  0  0  0
   -5.1407    0.5785   -0.4012 C   0  0  0  0  0  0  0  0  0  0  0  0
   -5.2278   -0.0091   -1.6748 C   0  0  0  0  0  0  0  0  0  0  0  0
   -4.3081   -0.3014   -2.2006 H   0  0  0  0  0  0  0  0  0  0  0  0
   -6.4935   -0.1904   -2.2468 C   0  0  0  0  0  0  0  0  0  0  0  0
   -6.5752   -0.6455   -3.2447 H   0  0  0  0  0  0  0  0  0  0  0  0
   -7.6495    0.2190   -1.5615 C   0  0  0  0  0  0  0  0  0  0  0  0
   -8.6392    0.0788   -2.0203 H   0  0  0  0  0  0  0  0  0  0  0  0
   -7.5438    0.8070   -0.2910 C   0  0  0  0  0  0  0  0  0  0  0  0
   -8.4479    1.1195    0.2516 H   0  0  0  0  0  0  0  0  0  0  0  0
   -6.2864    0.9849    0.3024 C   0  0  0  0  0  0  0  0  0  0  0  0
   -6.2025    1.4139    1.3116 H   0  0  0  0  0  0  0  0  0  0  0  0
  1  6  1  0  0  0  0
  1  2  1  0  0  0  0
  2  3  1  0  0  0  0
  3 28  1  0  0  0  0
  4  3  1  0  0  0  0
  4  5  1  0  0  0  0
  6  4  2  0  0  0  0
  7  6  1  0  0  0  0
  8  1  1  0  0  0  0
  8 15  1  0  0  0  0
  9  8  2  0  0  0  0
 10  9  1  0  0  0  0
 10 12  2  0  0  0  0
 11 10  1  0  0  0  0
 12 13  1  0  0  0  0
 13 15  2  0  0  0  0
 13 14  1  0  0  0  0
 15 24  1  0  0  0  0
 16 18  1  0  0  0  0
 16 17  1  0  0  0  0
 16  9  1  0  0  0  0
 19 16  1  0  0  0  0
 20 12  1  0  0  0  0
 20 21  1  0  0  0  0
 22 20  1  0  0  0  0
 23 20  1  0  0  0  0
 24 25  1  0  0  0  0
 24 27  1  0  0  0  0
 24 26  1  0  0  0  0
 28 29  1  0  0  0  0
 28 30  1  0  0  0  0
 31 36  1  0  0  0  0
 32 33  1  0  0  0  0
 32 31  1  0  0  0  0
 33 34  1  0  0  0  0
 34 36  2  0  0  0  0
 34 35  1  0  0  0  0
 36 28  1  0  0  0  0
 37 33  1  0  0  0  0
 37 46  1  0  0  0  0
 38 37  2  0  0  0  0
 39 38  1  0  0  0  0
 40 38  1  0  0  0  0
 40 42  2  0  0  0  0
 41 40  1  0  0  0  0
 42 44  1  0  0  0  0
 43 42  1  0  0  0  0
 44 45  1  0  0  0  0
 44 46  2  0  0  0  0
 46 47  1  0  0  0  0
M  END
