2,13
 OpenBabel05122313053D

 54 57  0  0  0  0  0  0  0  0999 V2000
    2.8622   -1.8208   -0.4713 N   0  0  0  0  0  0  0  0  0  0  0  0
    1.6345   -1.2755   -0.7520 C   0  0  0  0  0  2  0  0  0  0  0  0
    0.9228   -2.3231   -1.2818 N   0  0  0  0  0  0  0  0  0  0  0  0
    1.6772   -3.4892   -1.3282 C   0  0  0  0  0  0  0  0  0  0  0  0
    1.2868   -4.4324   -1.7220 H   0  0  0  0  0  0  0  0  0  0  0  0
    2.9054   -3.1705   -0.8150 C   0  0  0  0  0  0  0  0  0  0  0  0
    3.7986   -3.7799   -0.6514 H   0  0  0  0  0  0  0  0  0  0  0  0
   -0.4925   -2.2116   -1.6358 C   0  0  0  0  0  0  0  0  0  0  0  0
   -0.8552   -3.2009   -1.9683 H   0  0  0  0  0  0  0  0  0  0  0  0
   -0.5946   -1.5052   -2.4868 H   0  0  0  0  0  0  0  0  0  0  0  0
   -2.6793   -1.2818    1.1530 N   0  0  0  0  0  0  0  0  0  0  0  0
   -1.7218   -0.3528    1.2167 N   0  0  0  0  0  2  0  0  0  0  0  0
   -0.8836   -0.6135    0.2345 N   0  0  0  0  0  2  0  0  0  0  0  0
   -1.2922   -1.7185   -0.4679 C   0  0  0  0  0  0  0  0  0  0  0  0
   -2.4690   -2.1531    0.1246 C   0  0  0  0  0  0  0  0  0  0  0  0
   -3.1577   -2.9720   -0.1041 H   0  0  0  0  0  0  0  0  0  0  0  0
    3.9632   -1.1267    0.1452 C   0  0  0  0  0  0  0  0  0  0  0  0
    5.0977   -0.8236   -0.6417 C   0  0  0  0  0  0  0  0  0  0  0  0
    6.1470   -0.1199   -0.0255 C   0  0  0  0  0  0  0  0  0  0  0  0
    7.0337    0.1373   -0.6261 H   0  0  0  0  0  0  0  0  0  0  0  0
    6.0903    0.2762    1.3247 C   0  0  0  0  0  0  0  0  0  0  0  0
    4.9387   -0.0492    2.0666 C   0  0  0  0  0  0  0  0  0  0  0  0
    4.8752    0.2549    3.1234 H   0  0  0  0  0  0  0  0  0  0  0  0
    3.8606   -0.7547    1.5044 C   0  0  0  0  0  0  0  0  0  0  0  0
    5.1712   -1.2046   -2.0985 C   0  0  0  0  0  0  0  0  0  0  0  0
    5.9913   -0.6638   -2.6061 H   0  0  0  0  0  0  0  0  0  0  0  0
    4.2252   -0.9770   -2.6307 H   0  0  0  0  0  0  0  0  0  0  0  0
    5.3589   -2.2902   -2.2347 H   0  0  0  0  0  0  0  0  0  0  0  0
    7.2436    1.0038    1.9644 C   0  0  0  0  0  0  0  0  0  0  0  0
    7.9848    0.2815    2.3689 H   0  0  0  0  0  0  0  0  0  0  0  0
    6.9115    1.6373    2.8095 H   0  0  0  0  0  0  0  0  0  0  0  0
    7.7789    1.6433    1.2360 H   0  0  0  0  0  0  0  0  0  0  0  0
    2.6240   -1.0494    2.3104 C   0  0  0  0  0  0  0  0  0  0  0  0
    1.7885   -0.3821    1.9927 H   0  0  0  0  0  0  0  0  0  0  0  0
    2.8027   -0.8868    3.3894 H   0  0  0  0  0  0  0  0  0  0  0  0
    2.2695   -2.0899    2.1659 H   0  0  0  0  0  0  0  0  0  0  0  0
   -3.8450   -1.1946    2.0522 C   0  0  0  0  0  0  0  0  0  0  0  0
   -3.5066   -0.5604    2.8940 H   0  0  0  0  0  0  0  0  0  0  0  0
   -4.0444   -2.2114    2.4416 H   0  0  0  0  0  0  0  0  0  0  0  0
   -5.0536   -0.6256    1.3516 C   0  0  0  0  0  0  0  0  0  0  0  0
   -5.0654    0.7252    0.9342 C   0  0  0  0  0  0  0  0  0  0  0  0
   -4.1964    1.3701    1.1422 H   0  0  0  0  0  0  0  0  0  0  0  0
   -6.1666    1.2547    0.2661 C   0  0  0  0  0  0  0  0  0  0  0  0
   -6.1928    2.3050   -0.0574 H   0  0  0  0  0  0  0  0  0  0  0  0
   -7.2977    0.4450   -0.0014 C   0  0  0  0  0  0  0  0  0  0  0  0
   -7.2970   -0.9043    0.4131 C   0  0  0  0  0  0  0  0  0  0  0  0
   -8.1624   -1.5534    0.2273 H   0  0  0  0  0  0  0  0  0  0  0  0
   -6.1763   -1.4241    1.0790 C   0  0  0  0  0  0  0  0  0  0  0  0
   -6.1912   -2.4772    1.4037 H   0  0  0  0  0  0  0  0  0  0  0  0
   -9.4927    0.3045   -0.9283 C   0  0  0  0  0  0  0  0  0  0  0  0
   -9.2798   -0.5615   -1.5931 H   0  0  0  0  0  0  0  0  0  0  0  0
  -10.1828    0.9953   -1.4452 H   0  0  0  0  0  0  0  0  0  0  0  0
   -9.9761   -0.0629    0.0033 H   0  0  0  0  0  0  0  0  0  0  0  0
   -8.3172    1.0512   -0.6480 O   0  0  0  0  0  0  0  0  0  0  0  0
  1 17  1  0  0  0  0
  2  1  1  0  0  0  0
  3  2  1  0  0  0  0
  4  3  1  0  0  0  0
  4  6  2  0  0  0  0
  5  4  1  0  0  0  0
  6  7  1  0  0  0  0
  6  1  1  0  0  0  0
  8  3  1  0  0  0  0
  8 14  1  0  0  0  0
  9  8  1  0  0  0  0
 10  8  1  0  0  0  0
 11 12  1  0  0  0  0
 11 37  1  0  0  0  0
 13 12  1  0  0  0  0
 14 15  2  0  0  0  0
 14 13  1  0  0  0  0
 15 11  1  0  0  0  0
 16 15  1  0  0  0  0
 17 24  1  0  0  0  0
 18 19  1  0  0  0  0
 18 17  2  0  0  0  0
 19 21  2  0  0  0  0
 20 19  1  0  0  0  0
 21 29  1  0  0  0  0
 21 22  1  0  0  0  0
 22 23  1  0  0  0  0
 24 22  2  0  0  0  0
 24 33  1  0  0  0  0
 25 18  1  0  0  0  0
 26 25  1  0  0  0  0
 27 25  1  0  0  0  0
 28 25  1  0  0  0  0
 29 30  1  0  0  0  0
 29 31  1  0  0  0  0
 32 29  1  0  0  0  0
 33 35  1  0  0  0  0
 34 33  1  0  0  0  0
 36 33  1  0  0  0  0
 37 39  1  0  0  0  0
 37 38  1  0  0  0  0
 40 37  1  0  0  0  0
 41 42  1  0  0  0  0
 41 40  2  0  0  0  0
 43 41  1  0  0  0  0
 44 43  1  0  0  0  0
 45 43  2  0  0  0  0
 45 46  1  0  0  0  0
 46 48  2  0  0  0  0
 47 46  1  0  0  0  0
 48 40  1  0  0  0  0
 48 49  1  0  0  0  0
 50 54  1  0  0  0  0
 50 53  1  0  0  0  0
 51 50  1  0  0  0  0
 52 50  1  0  0  0  0
 54 45  1  0  0  0  0
M  END
