2,13
 OpenBabel05122313053D

 52 55  0  0  0  0  0  0  0  0999 V2000
    3.1099    1.7313   -0.5205 N   0  0  0  0  0  0  0  0  0  0  0  0
    1.8495    1.2607   -0.7889 C   0  0  0  0  0  2  0  0  0  0  0  0
    1.2117    2.3343   -1.3594 N   0  0  0  0  0  0  0  0  0  0  0  0
    2.0435    3.4448   -1.4426 C   0  0  0  0  0  0  0  0  0  0  0  0
    1.7198    4.3974   -1.8726 H   0  0  0  0  0  0  0  0  0  0  0  0
    3.2453    3.0620   -0.9112 C   0  0  0  0  0  0  0  0  0  0  0  0
    4.1772    3.6151   -0.7642 H   0  0  0  0  0  0  0  0  0  0  0  0
   -0.2046    2.3042   -1.7230 C   0  0  0  0  0  0  0  0  0  0  0  0
   -0.3486    1.5768   -2.5498 H   0  0  0  0  0  0  0  0  0  0  0  0
   -0.4993    3.3030   -2.0924 H   0  0  0  0  0  0  0  0  0  0  0  0
   -2.4627    1.6237    1.0812 N   0  0  0  0  0  0  0  0  0  0  0  0
   -1.5721    0.6301    1.1810 N   0  0  0  0  0  2  0  0  0  0  0  0
   -0.7162    0.7982    0.1954 N   0  0  0  0  0  2  0  0  0  0  0  0
   -1.0435    1.9056   -0.5464 C   0  0  0  0  0  0  0  0  0  0  0  0
   -2.1879    2.4430    0.0245 C   0  0  0  0  0  0  0  0  0  0  0  0
   -2.8093    3.3063   -0.2327 H   0  0  0  0  0  0  0  0  0  0  0  0
    4.1613    0.9858    0.1228 C   0  0  0  0  0  0  0  0  0  0  0  0
    5.2758    0.5851   -0.6491 C   0  0  0  0  0  0  0  0  0  0  0  0
    6.2744   -0.1669   -0.0061 C   0  0  0  0  0  0  0  0  0  0  0  0
    7.1442   -0.4999   -0.5940 H   0  0  0  0  0  0  0  0  0  0  0  0
    6.1878   -0.5169    1.3552 C   0  0  0  0  0  0  0  0  0  0  0  0
    5.0576   -0.0940    2.0810 C   0  0  0  0  0  0  0  0  0  0  0  0
    4.9712   -0.3604    3.1463 H   0  0  0  0  0  0  0  0  0  0  0  0
    4.0301    0.6630    1.4920 C   0  0  0  0  0  0  0  0  0  0  0  0
    5.3806    0.9165   -2.1160 C   0  0  0  0  0  0  0  0  0  0  0  0
    4.4221    0.7445   -2.6465 H   0  0  0  0  0  0  0  0  0  0  0  0
    6.1597    0.3019   -2.6037 H   0  0  0  0  0  0  0  0  0  0  0  0
    5.6495    1.9806   -2.2826 H   0  0  0  0  0  0  0  0  0  0  0  0
    7.2889   -1.2982    2.0227 C   0  0  0  0  0  0  0  0  0  0  0  0
    8.0737   -0.6134    2.4097 H   0  0  0  0  0  0  0  0  0  0  0  0
    7.7844   -1.9925    1.3166 H   0  0  0  0  0  0  0  0  0  0  0  0
    6.9133   -1.8831    2.8844 H   0  0  0  0  0  0  0  0  0  0  0  0
    2.8127    1.0622    2.2824 C   0  0  0  0  0  0  0  0  0  0  0  0
    2.5272    2.1186    2.1046 H   0  0  0  0  0  0  0  0  0  0  0  0
    2.9772    0.9216    3.3667 H   0  0  0  0  0  0  0  0  0  0  0  0
    1.9367    0.4404    1.9813 H   0  0  0  0  0  0  0  0  0  0  0  0
   -3.6285    1.6437    1.9726 C   0  0  0  0  0  0  0  0  0  0  0  0
   -3.8418    2.6982    2.2298 H   0  0  0  0  0  0  0  0  0  0  0  0
   -3.3089    1.1201    2.8941 H   0  0  0  0  0  0  0  0  0  0  0  0
   -4.8319    0.9748    1.3395 C   0  0  0  0  0  0  0  0  0  0  0  0
   -5.9978    1.7147    1.0660 C   0  0  0  0  0  0  0  0  0  0  0  0
   -6.0470    2.7831    1.3279 H   0  0  0  0  0  0  0  0  0  0  0  0
   -7.1064    1.0990    0.4691 C   0  0  0  0  0  0  0  0  0  0  0  0
   -8.0329    1.6446    0.2449 H   0  0  0  0  0  0  0  0  0  0  0  0
   -7.0223   -0.2589    0.1473 C   0  0  0  0  0  0  0  0  0  0  0  0
   -5.8770   -1.0213    0.4095 C   0  0  0  0  0  0  0  0  0  0  0  0
   -5.8747   -2.0864    0.1418 H   0  0  0  0  0  0  0  0  0  0  0  0
   -4.7798   -0.3964    1.0109 C   0  0  0  0  0  0  0  0  0  0  0  0
   -3.8709   -0.9787    1.2294 H   0  0  0  0  0  0  0  0  0  0  0  0
   -8.1936   -0.9200   -0.4994 N   0  0  0  0  0  0  0  0  0  0  0  0
   -9.1819   -0.2225   -0.7088 O   0  0  0  0  0  0  0  0  0  0  0  0
   -8.0774   -2.1110   -0.7761 O   0  0  0  0  0  0  0  0  0  0  0  0
  1 17  1  0  0  0  0
  2  1  1  0  0  0  0
  3  2  1  0  0  0  0
  4  3  1  0  0  0  0
  4  6  2  0  0  0  0
  5  4  1  0  0  0  0
  6  7  1  0  0  0  0
  6  1  1  0  0  0  0
  8  3  1  0  0  0  0
  8 14  1  0  0  0  0
  9  8  1  0  0  0  0
 10  8  1  0  0  0  0
 11 12  1  0  0  0  0
 11 37  1  0  0  0  0
 13 12  1  0  0  0  0
 14 15  2  0  0  0  0
 14 13  1  0  0  0  0
 15 11  1  0  0  0  0
 16 15  1  0  0  0  0
 17 24  1  0  0  0  0
 18 19  1  0  0  0  0
 18 17  2  0  0  0  0
 19 21  2  0  0  0  0
 20 19  1  0  0  0  0
 21 29  1  0  0  0  0
 21 22  1  0  0  0  0
 22 23  1  0  0  0  0
 24 22  2  0  0  0  0
 24 33  1  0  0  0  0
 25 18  1  0  0  0  0
 26 25  1  0  0  0  0
 27 25  1  0  0  0  0
 28 25  1  0  0  0  0
 29 30  1  0  0  0  0
 29 32  1  0  0  0  0
 31 29  1  0  0  0  0
 33 35  1  0  0  0  0
 34 33  1  0  0  0  0
 36 33  1  0  0  0  0
 37 38  1  0  0  0  0
 37 39  1  0  0  0  0
 40 37  1  0  0  0  0
 41 42  1  0  0  0  0
 41 40  1  0  0  0  0
 43 41  2  0  0  0  0
 44 43  1  0  0  0  0
 45 46  2  0  0  0  0
 45 43  1  0  0  0  0
 46 48  1  0  0  0  0
 47 46  1  0  0  0  0
 48 49  1  0  0  0  0
 48 40  2  0  0  0  0
 50 45  1  0  0  0  0
 51 50  2  0  0  0  0
 52 50  2  0  0  0  0
M  END
