4,15
q = -1.0, confidence = 0.0

 43 46  0  0  0  0  0  0  0  0999 V2000
    2.4343    2.9128    0.0529 S   0  0  0  0  0  0  0  0  0  0  0  0
    6.5932   -0.1960    0.4012 S   0  0  0  0  0  0  0  0  0  0  0  0
    2.5066   -3.5513   -0.1453 S   0  0  0  0  0  0  0  0  0  0  0  0
   -1.5791    2.7585    0.2129 N   0  0  0  0  0  2  0  0  0  0  0  0
   -2.7426    3.4417    0.2858 C   0  0  0  0  0  0  0  0  0  0  0  0
   -3.6528    2.8239    0.2981 H   0  0  0  0  0  0  0  0  0  0  0  0
   -2.7734    4.8367    0.3251 C   0  0  0  0  0  0  0  0  0  0  0  0
   -3.7403    5.3540    0.3855 H   0  0  0  0  0  0  0  0  0  0  0  0
   -1.5568    5.5453    0.2813 C   0  0  0  0  0  0  0  0  0  0  0  0
   -1.5520    6.6451    0.3076 H   0  0  0  0  0  0  0  0  0  0  0  0
   -0.3547    4.8423    0.2034 C   0  0  0  0  0  0  0  0  0  0  0  0
    0.6128    5.3631    0.1679 H   0  0  0  0  0  0  0  0  0  0  0  0
   -0.3704    3.4310    0.1720 C   0  0  0  0  0  0  0  0  0  0  0  0
    0.7400    2.5301    0.1160 C   0  0  0  0  0  0  0  0  0  0  0  0
    0.4847    1.1465    0.1381 C   0  0  0  0  0  2  0  0  0  0  0  0
    1.7026    0.3823    0.1365 C   0  0  0  0  0  0  0  0  0  0  0  0
    2.8444    1.2096    0.0799 C   0  0  0  0  0  0  0  0  0  0  0  0
    7.6202    1.2981   -1.7747 C   0  0  0  0  0  0  0  0  0  0  0  0
    8.4604    1.7283   -1.1900 H   0  0  0  0  0  0  0  0  0  0  0  0
    7.3191    2.0453   -2.5341 H   0  0  0  0  0  0  0  0  0  0  0  0
    8.0160    0.4104   -2.3114 H   0  0  0  0  0  0  0  0  0  0  0  0
    6.4488    0.9561   -0.9078 C   0  0  0  0  0  0  0  0  0  0  0  0
    5.1544    1.4258   -0.9746 C   0  0  0  0  0  0  0  0  0  0  0  0
    4.8191    2.1478   -1.7332 H   0  0  0  0  0  0  0  0  0  0  0  0
    4.2666    0.8591    0.0115 C   0  0  0  0  0  0  0  0  0  0  0  0
    4.9174   -0.0396    0.8583 C   0  0  0  0  0  0  0  0  0  0  0  0
    4.3878   -0.8019    2.0294 C   0  0  0  0  0  0  0  0  0  0  0  0
    5.1421   -0.8780    2.8380 H   0  0  0  0  0  0  0  0  0  0  0  0
    4.0836   -1.8316    1.7459 H   0  0  0  0  0  0  0  0  0  0  0  0
    3.4887   -0.3002    2.4336 H   0  0  0  0  0  0  0  0  0  0  0  0
    3.2315   -1.4934   -1.9244 C   0  0  0  0  0  0  0  0  0  0  0  0
    3.0554   -2.2199   -2.7435 H   0  0  0  0  0  0  0  0  0  0  0  0
    4.3287   -1.4190   -1.7656 H   0  0  0  0  0  0  0  0  0  0  0  0
    2.8824   -0.4992   -2.2628 H   0  0  0  0  0  0  0  0  0  0  0  0
    2.5103   -1.8862   -0.6741 C   0  0  0  0  0  0  0  0  0  0  0  0
    1.8010   -1.0911    0.2195 C   0  0  0  0  0  0  0  0  0  0  0  0
    1.2425   -1.8496    1.3080 C   0  0  0  0  0  0  0  0  0  0  0  0
    0.6412   -1.3921    2.1063 H   0  0  0  0  0  0  0  0  0  0  0  0
    1.5391   -3.1950    1.2701 C   0  0  0  0  0  0  0  0  0  0  0  0
    1.1372   -4.2768    2.2229 C   0  0  0  0  0  0  0  0  0  0  0  0
    2.0149   -4.7848    2.6748 H   0  0  0  0  0  0  0  0  0  0  0  0
    0.5189   -5.0530    1.7273 H   0  0  0  0  0  0  0  0  0  0  0  0
    0.5338   -3.8444    3.0442 H   0  0  0  0  0  0  0  0  0  0  0  0
  1 17  1  0  0  0  0
  1 14  1  0  0  0  0
  2 26  1  0  0  0  0
  3 39  1  0  0  0  0
  4  5  1  0  0  0  0
  5  6  1  0  0  0  0
  5  7  2  0  0  0  0
  7  8  1  0  0  0  0
  9 10  1  0  0  0  0
  9  7  1  0  0  0  0
 11  9  2  0  0  0  0
 12 11  1  0  0  0  0
 13 11  1  0  0  0  0
 13  4  1  0  0  0  0
 14 15  1  0  0  0  0
 14 13  2  0  0  0  0
 16 15  1  0  0  0  0
 16 36  1  0  0  0  0
 17 16  2  0  0  0  0
 18 19  1  0  0  0  0
 18 22  1  0  0  0  0
 20 18  1  0  0  0  0
 21 18  1  0  0  0  0
 22  2  1  0  0  0  0
 23 22  2  0  0  0  0
 23 25  1  0  0  0  0
 24 23  1  0  0  0  0
 25 17  1  0  0  0  0
 25 26  2  0  0  0  0
 26 27  1  0  0  0  0
 27 30  1  0  0  0  0
 27 28  1  0  0  0  0
 29 27  1  0  0  0  0
 31 33  1  0  0  0  0
 31 35  1  0  0  0  0
 32 31  1  0  0  0  0
 34 31  1  0  0  0  0
 35  3  1  0  0  0  0
 35 36  2  0  0  0  0
 36 37  1  0  0  0  0
 37 38  1  0  0  0  0
 39 37  2  0  0  0  0
 39 40  1  0  0  0  0
 40 41  1  0  0  0  0
 40 43  1  0  0  0  0
 42 40  1  0  0  0  0
M  END
