18,29
 OpenBabel05122313053D

 33 35  0  0  1  0  0  0  0  0999 V2000
   -1.7586    2.6908   -0.5534 N   0  0  0  0  0  0  0  0  0  0  0  0
    0.1805    2.2663    0.0704 N   0  0  0  0  0  0  0  0  0  0  0  0
   -0.6426    3.2855   -0.1699 N   0  0  0  0  0  2  0  0  0  0  0  0
   -2.8091    0.4325   -0.8617 C   0  0  0  0  0  0  0  0  0  0  0  0
   -4.9747   -1.3026   -1.3697 C   0  0  0  0  0  0  0  0  0  0  0  0
   -5.8189   -1.9793   -1.5693 H   0  0  0  0  0  0  0  0  0  0  0  0
    3.7620    2.5010   -0.4707 C   0  0  0  0  0  0  0  0  0  0  0  0
    3.8274    3.5848   -0.2984 H   0  0  0  0  0  0  0  0  0  0  0  0
   -2.8839    3.5286   -0.9553 C   0  0  0  0  0  0  0  0  0  0  0  0
   -3.5192    3.7720   -0.0824 H   0  0  0  0  0  0  0  0  0  0  0  0
   -3.4823    2.9835   -1.7061 H   0  0  0  0  0  0  0  0  0  0  0  0
   -2.4788    4.4603   -1.3872 H   0  0  0  0  0  0  0  0  0  0  0  0
    4.6633    0.4279   -1.2836 C   0  0  0  0  0  0  0  0  0  0  0  0
    5.4485   -0.1729   -1.7632 H   0  0  0  0  0  0  0  0  0  0  0  0
   -1.6681    1.3117   -0.5565 C   0  0  0  0  0  0  0  0  0  0  0  0
    4.8167    1.8028   -1.0701 C   0  0  0  0  0  0  0  0  0  0  0  0
    5.7344    2.3263   -1.3752 H   0  0  0  0  0  0  0  0  0  0  0  0
    2.4606    0.4789   -0.2832 N   0  0  0  0  0  2  0  0  0  0  0  0
    2.6018    1.8145   -0.0818 C   0  0  1  0  0  3  0  0  0  0  0  0
    1.4957    2.5463    0.6283 C   0  0  0  0  0  0  0  0  0  0  0  0
    1.4807    2.2422    1.6967 H   0  0  0  0  0  0  0  0  0  0  0  0
    1.6471    3.6384    0.5788 H   0  0  0  0  0  0  0  0  0  0  0  0
   -4.0540    0.6289   -0.2176 C   0  0  0  0  0  0  0  0  0  0  0  0
   -4.1783    1.4451    0.5101 H   0  0  0  0  0  0  0  0  0  0  0  0
    3.4719   -0.1892   -0.8967 C   0  0  0  0  0  0  0  0  0  0  0  0
    3.2937   -1.2539   -1.0926 H   0  0  0  0  0  0  0  0  0  0  0  0
   -2.6623   -0.6431   -1.7665 C   0  0  0  0  0  0  0  0  0  0  0  0
   -1.6932   -0.7908   -2.2688 H   0  0  0  0  0  0  0  0  0  0  0  0
   -0.3466    1.0143   -0.1453 C   0  0  0  0  0  3  0  0  0  0  0  0
   -3.7421   -1.5018   -2.0135 C   0  0  0  0  0  0  0  0  0  0  0  0
   -3.6216   -2.3311   -2.7269 H   0  0  0  0  0  0  0  0  0  0  0  0
   -5.1287   -0.2340   -0.4722 C   0  0  0  0  0  0  0  0  0  0  0  0
   -6.0896   -0.0744    0.0390 H   0  0  0  0  0  0  0  0  0  0  0  0
  1  3  1  0  0  0  0
  2 20  1  0  0  0  0
  3  2  1  0  0  0  0
  4 15  1  0  0  0  0
  4 23  1  0  0  0  0
  5 32  1  0  0  0  0
  6  5  1  0  0  0  0
  7  8  1  0  0  0  0
  7 19  1  0  0  0  0
  9  1  1  0  0  0  0
  9 10  1  0  0  0  0
 11  9  1  0  0  0  0
 12  9  1  0  0  0  0
 13 16  1  0  0  0  0
 13 25  2  0  0  0  0
 14 13  1  0  0  0  0
 15  1  1  0  0  0  0
 15 29  2  0  0  0  0
 16  7  2  0  0  0  0
 17 16  1  0  0  0  0
 18 19  1  0  0  0  0
 19 20  1  1  0  0  0
 20 21  1  0  0  0  0
 22 20  1  0  0  0  0
 23 24  1  0  0  0  0
 25 18  1  0  0  0  0
 26 25  1  0  0  0  0
 27  4  2  0  0  0  0
 28 27  1  0  0  0  0
 29  2  1  0  0  0  0
 30 27  1  0  0  0  0
 30  5  2  0  0  0  0
 31 30  1  0  0  0  0
 32 23  2  0  0  0  0
 32 33  1  0  0  0  0
M  END
