3,4
 OpenBabel05122313053D

 30 30  0  0  1  0  0  0  0  0999 V2000
   -1.1282    1.3140    0.0721 Si  0  0  0  0  0  0  0  0  0  0  0  0
   -3.4118   -0.6817    0.3029 O   0  0  0  0  0  0  0  0  0  0  0  0
   -0.5544   -0.3608    0.1912 N   0  0  0  0  0  2  0  0  0  0  0  0
    0.6644    1.8615   -0.2067 C   0  0  2  0  0  3  0  0  0  0  0  0
    1.3448    1.5110   -1.4224 C   0  0  0  0  0  3  0  0  0  0  0  0
    0.8690    1.3729   -2.4022 H   0  0  0  0  0  0  0  0  0  0  0  0
    2.7117    1.2369   -1.1326 C   0  0  0  0  0  0  0  0  0  0  0  0
    3.4703    0.9012   -1.8501 H   0  0  0  0  0  0  0  0  0  0  0  0
    2.9038    1.4241    0.2672 C   0  0  0  0  0  0  0  0  0  0  0  0
    3.8366    1.2560    0.8196 H   0  0  0  0  0  0  0  0  0  0  0  0
    1.6543    1.8098    0.8310 C   0  0  0  0  0  3  0  0  0  0  0  0
    1.4619    1.9401    1.9040 H   0  0  0  0  0  0  0  0  0  0  0  0
   -2.1585    1.7239   -1.4500 C   0  0  0  0  0  0  0  0  0  0  0  0
   -1.8026    1.1530   -2.3310 H   0  0  0  0  0  0  0  0  0  0  0  0
   -2.0649    2.8055   -1.6806 H   0  0  0  0  0  0  0  0  0  0  0  0
   -3.2287    1.4913   -1.2955 H   0  0  0  0  0  0  0  0  0  0  0  0
   -1.8704    1.9628    1.6699 C   0  0  0  0  0  0  0  0  0  0  0  0
   -1.1782    1.8066    2.5211 H   0  0  0  0  0  0  0  0  0  0  0  0
   -2.8075    1.4106    1.8813 H   0  0  0  0  0  0  0  0  0  0  0  0
   -2.1019    3.0449    1.5968 H   0  0  0  0  0  0  0  0  0  0  0  0
   -1.2271   -1.5923    0.5606 C   0  0  0  0  0  0  0  0  0  0  0  0
   -1.3709   -1.6337    1.6660 H   0  0  0  0  0  0  0  0  0  0  0  0
   -0.5996   -2.4706    0.2909 H   0  0  0  0  0  0  0  0  0  0  0  0
   -2.5793   -1.7472   -0.1185 C   0  0  0  0  0  0  0  0  0  0  0  0
   -2.4517   -1.7316   -1.2295 H   0  0  0  0  0  0  0  0  0  0  0  0
   -3.0293   -2.7333    0.1565 H   0  0  0  0  0  0  0  0  0  0  0  0
   -4.6861   -0.6996   -0.2971 C   0  0  0  0  0  0  0  0  0  0  0  0
   -5.2526    0.1707    0.0875 H   0  0  0  0  0  0  0  0  0  0  0  0
   -5.2497   -1.6303   -0.0465 H   0  0  0  0  0  0  0  0  0  0  0  0
   -4.6269   -0.6253   -1.4102 H   0  0  0  0  0  0  0  0  0  0  0  0
  1  3  1  0  0  0  0
  1 17  1  0  0  0  0
  3 21  1  0  0  0  0
  4  1  1  1  0  0  0
  4 11  1  0  0  0  0
  5  7  1  0  0  0  0
  5  4  1  0  0  0  0
  6  5  1  0  0  0  0
  7  9  2  0  0  0  0
  8  7  1  0  0  0  0
  9 10  1  0  0  0  0
  9 11  1  0  0  0  0
 11 12  1  0  0  0  0
 13 16  1  0  0  0  0
 13  1  1  0  0  0  0
 14 13  1  0  0  0  0
 15 13  1  0  0  0  0
 17 19  1  0  0  0  0
 17 18  1  0  0  0  0
 20 17  1  0  0  0  0
 21 22  1  0  0  0  0
 23 21  1  0  0  0  0
 24 26  1  0  0  0  0
 24  2  1  0  0  0  0
 24 21  1  0  0  0  0
 25 24  1  0  0  0  0
 27 29  1  0  0  0  0
 27 28  1  0  0  0  0
 27  2  1  0  0  0  0
 30 27  1  0  0  0  0
M  END
