11,13
 OpenBabel05122313053D

 38 38  0  0  1  0  0  0  0  0999 V2000
    2.7543    2.0325    0.6460 F   0  0  0  0  0  0  0  0  0  0  0  0
    5.1479    1.1250   -0.1597 F   0  0  0  0  0  0  0  0  0  0  0  0
    5.5058   -1.5101   -0.7945 F   0  0  0  0  0  0  0  0  0  0  0  0
    3.3976   -3.2303   -0.6476 F   0  0  0  0  0  0  0  0  0  0  0  0
   -1.1806    3.5596   -0.6039 F   0  0  0  0  0  0  0  0  0  0  0  0
    0.2702    3.5052    1.0249 F   0  0  0  0  0  0  0  0  0  0  0  0
    0.9098    3.1177   -1.0358 F   0  0  0  0  0  0  0  0  0  0  0  0
   -0.6906    1.2255    2.7759 F   0  0  0  0  0  0  0  0  0  0  0  0
    0.0874   -0.8218    2.8274 F   0  0  0  0  0  0  0  0  0  0  0  0
    1.4563    0.8649    2.8940 F   0  0  0  0  0  0  0  0  0  0  0  0
   -0.3993   -2.1358   -0.0618 N   0  0  0  0  0  2  0  0  0  0  0  0
   -2.9067   -1.1953    0.8636 N   0  0  0  0  0  0  0  0  0  0  0  0
   -0.3406    1.4482    0.0574 C   0  0  0  0  0  2  0  0  0  0  0  0
    0.3840    0.4373    0.7946 C   0  0  1  0  0  3  0  0  0  0  0  0
    1.7218   -0.0892    0.3168 C   0  0  0  0  0  0  0  0  0  0  0  0
    2.8440    0.7526    0.2843 C   0  0  0  0  0  0  0  0  0  0  0  0
    4.1150    0.2888   -0.1113 C   0  0  0  0  0  0  0  0  0  0  0  0
    4.3041   -1.0661   -0.4283 C   0  0  0  0  0  0  0  0  0  0  0  0
    3.2080   -1.9350   -0.3545 C   0  0  0  0  0  0  0  0  0  0  0  0
    1.9242   -1.4686   -0.0020 C   0  0  0  0  0  0  0  0  0  0  0  0
    0.8498   -2.4430    0.0967 C   0  0  0  0  0  3  0  0  0  0  0  0
   -1.4395   -3.1150    0.2416 C   0  0  0  0  0  0  0  0  0  0  0  0
   -2.3257   -2.4925    1.3231 C   0  0  0  0  0  0  0  0  0  0  0  0
   -3.2510   -0.3480    2.0292 C   0  0  0  0  0  0  0  0  0  0  0  0
   -4.1552   -1.4452    0.0982 C   0  0  0  0  0  0  0  0  0  0  0  0
   -0.0907    2.9016   -0.1348 C   0  0  0  0  0  0  0  0  0  0  0  0
    0.3094    0.4400    2.3075 C   0  0  0  0  0  0  0  0  0  0  0  0
    1.1283   -3.4888    0.3334 H   0  0  0  0  0  0  0  0  0  0  0  0
   -1.0103   -4.0749    0.5997 H   0  0  0  0  0  0  0  0  0  0  0  0
   -2.0186   -3.2971   -0.6858 H   0  0  0  0  0  0  0  0  0  0  0  0
   -1.7007   -2.2830    2.2114 H   0  0  0  0  0  0  0  0  0  0  0  0
   -3.1363   -3.1939    1.6232 H   0  0  0  0  0  0  0  0  0  0  0  0
   -4.0437   -0.8335    2.6421 H   0  0  0  0  0  0  0  0  0  0  0  0
   -2.3635   -0.1742    2.6562 H   0  0  0  0  0  0  0  0  0  0  0  0
   -3.6246    0.6286    1.6694 H   0  0  0  0  0  0  0  0  0  0  0  0
   -3.9375   -2.0392   -0.8043 H   0  0  0  0  0  0  0  0  0  0  0  0
   -4.8965   -1.9638    0.7459 H   0  0  0  0  0  0  0  0  0  0  0  0
   -4.5789   -0.4788   -0.2308 H   0  0  0  0  0  0  0  0  0  0  0  0
  2 17  1  0  0  0  0
  3 18  1  0  0  0  0
  4 19  1  0  0  0  0
  5 26  1  0  0  0  0
  7 26  1  0  0  0  0
 11 21  1  0  0  0  0
 11 22  1  0  0  0  0
 12 23  1  0  0  0  0
 12 24  1  0  0  0  0
 14 13  1  1  0  0  0
 14 27  1  0  0  0  0
 15 14  1  0  0  0  0
 16 15  1  0  0  0  0
 16  1  1  0  0  0  0
 17 16  2  0  0  0  0
 18 19  2  0  0  0  0
 18 17  1  0  0  0  0
 19 20  1  0  0  0  0
 20 21  1  0  0  0  0
 20 15  2  0  0  0  0
 21 28  1  0  0  0  0
 22 29  1  0  0  0  0
 22 23  1  0  0  0  0
 23 32  1  0  0  0  0
 23 31  1  0  0  0  0
 24 33  1  0  0  0  0
 24 34  1  0  0  0  0
 25 37  1  0  0  0  0
 25 12  1  0  0  0  0
 26 13  1  0  0  0  0
 26  6  1  0  0  0  0
 27  8  1  0  0  0  0
 27  9  1  0  0  0  0
 27 10  1  0  0  0  0
 30 22  1  0  0  0  0
 35 24  1  0  0  0  0
 36 25  1  0  0  0  0
 38 25  1  0  0  0  0
M  END
