1,16
q = 0.0, confidence = 0.99

 32 33  0  0  0  0  0  0  0  0999 V2000
    0.6656   -0.5661   -0.9653 N   0  0  0  0  0  2  0  0  0  0  0  0
    1.9930   -0.5574   -1.0151 N   0  0  0  0  0  0  0  0  0  0  0  0
   -3.3809   -0.9223   -0.3682 C   0  0  0  0  0  0  0  0  0  0  0  0
   -4.3719   -0.0260   -0.8330 C   0  0  0  0  0  0  0  0  0  0  0  0
   -4.0971    0.8051   -1.4994 H   0  0  0  0  0  0  0  0  0  0  0  0
   -5.7107   -0.1747   -0.4499 C   0  0  0  0  0  0  0  0  0  0  0  0
   -6.4649    0.5337   -0.8250 H   0  0  0  0  0  0  0  0  0  0  0  0
   -6.0920   -1.2168    0.4111 C   0  0  0  0  0  0  0  0  0  0  0  0
   -7.1441   -1.3288    0.7134 H   0  0  0  0  0  0  0  0  0  0  0  0
   -5.1196   -2.1126    0.8848 C   0  0  0  0  0  0  0  0  0  0  0  0
   -5.4064   -2.9325    1.5607 H   0  0  0  0  0  0  0  0  0  0  0  0
   -3.7821   -1.9665    0.4980 C   0  0  0  0  0  0  0  0  0  0  0  0
   -3.0208   -2.6688    0.8726 H   0  0  0  0  0  0  0  0  0  0  0  0
   -1.9590   -0.8209   -0.7400 C   0  0  0  0  0  3  0  0  0  0  0  0
   -1.3485   -1.7088   -0.5086 H   0  0  0  0  0  0  0  0  0  0  0  0
   -1.4509    0.0196   -1.7873 C   0  0  0  0  0  3  0  0  0  0  0  0
   -2.0932    0.6222   -2.4453 H   0  0  0  0  0  0  0  0  0  0  0  0
   -0.0343    0.1068   -1.9203 C   0  0  0  0  0  3  0  0  0  0  0  0
    0.4716    0.6935   -2.7074 H   0  0  0  0  0  0  0  0  0  0  0  0
    2.6968   -0.3582    0.0561 C   0  0  0  0  0  0  0  0  0  0  0  0
    2.1884   -0.0780    1.0053 H   0  0  0  0  0  0  0  0  0  0  0  0
    4.1512   -0.4873    0.0716 C   0  0  0  0  0  0  0  0  0  0  0  0
    4.8796   -0.8669   -1.0822 C   0  0  0  0  0  0  0  0  0  0  0  0
    4.3240   -1.0672   -2.0101 H   0  0  0  0  0  0  0  0  0  0  0  0
    6.2715   -0.9804   -1.0330 C   0  0  0  0  0  0  0  0  0  0  0  0
    6.8275   -1.2765   -1.9357 H   0  0  0  0  0  0  0  0  0  0  0  0
    6.9650   -0.7182    0.1636 C   0  0  0  0  0  0  0  0  0  0  0  0
    8.0613   -0.8085    0.1976 H   0  0  0  0  0  0  0  0  0  0  0  0
    6.2531   -0.3407    1.3132 C   0  0  0  0  0  0  0  0  0  0  0  0
    6.7895   -0.1342    2.2517 H   0  0  0  0  0  0  0  0  0  0  0  0
    4.8574   -0.2257    1.2683 C   0  0  0  0  0  0  0  0  0  0  0  0
    4.2979    0.0709    2.1697 H   0  0  0  0  0  0  0  0  0  0  0  0
  2  1  1  0  0  0  0
  2 20  2  0  0  0  0
  3 12  1  0  0  0  0
  4  6  1  0  0  0  0
  4  3  2  0  0  0  0
  5  4  1  0  0  0  0
  6  8  2  0  0  0  0
  7  6  1  0  0  0  0
  8  9  1  0  0  0  0
  8 10  1  0  0  0  0
 10 11  1  0  0  0  0
 12 13  1  0  0  0  0
 12 10  2  0  0  0  0
 14 15  1  0  0  0  0
 14  3  1  0  0  0  0
 16 14  1  0  0  0  0
 17 16  1  0  0  0  0
 18 16  1  0  0  0  0
 18  1  1  0  0  0  0
 19 18  1  0  0  0  0
 20 22  1  0  0  0  0
 20 21  1  0  0  0  0
 22 31  1  0  0  0  0
 23 25  1  0  0  0  0
 23 22  2  0  0  0  0
 24 23  1  0  0  0  0
 25 27  2  0  0  0  0
 26 25  1  0  0  0  0
 27 28  1  0  0  0  0
 27 29  1  0  0  0  0
 29 30  1  0  0  0  0
 31 29  2  0  0  0  0
 31 32  1  0  0  0  0
M  END
