2,9
q = -1.0, confidence = 0.024

 43 46  0  0  0  0  0  0  0  0999 V2000
   -2.1640    0.8609   -1.3916 S   0  0  0  0  0  0  0  0  0  0  0  0
    0.2686   -0.6974   -1.6226 N   0  0  0  0  0  2  0  0  0  0  0  0
    5.7985   -1.3623   -1.4784 C   0  0  0  0  0  0  0  0  0  0  0  0
    6.2627   -2.0464   -2.2046 H   0  0  0  0  0  0  0  0  0  0  0  0
    1.5720   -0.5909   -1.5918 C   0  0  0  0  0  3  0  0  0  0  0  0
    2.1062   -0.7396   -2.5499 H   0  0  0  0  0  0  0  0  0  0  0  0
   -0.1570    1.6502    1.7001 C   0  0  0  0  0  0  0  0  0  0  0  0
   -1.2442    1.7575    1.8395 H   0  0  0  0  0  0  0  0  0  0  0  0
    0.3191    0.7049    0.7869 C   0  0  0  0  0  3  0  0  0  0  0  0
    1.7422    0.6092    0.5869 C   0  0  0  0  0  0  0  0  0  0  0  0
    3.7788   -0.3552   -0.5192 C   0  0  0  0  0  0  0  0  0  0  0  0
    2.0711    2.3216    2.3780 C   0  0  0  0  0  0  0  0  0  0  0  0
    2.7573    2.9109    3.0044 H   0  0  0  0  0  0  0  0  0  0  0  0
   -2.7434    3.3998   -0.5817 C   0  0  0  0  0  0  0  0  0  0  0  0
   -3.7679    3.0095   -0.4862 H   0  0  0  0  0  0  0  0  0  0  0  0
    2.6225    1.3905    1.4430 C   0  0  0  0  0  0  0  0  0  0  0  0
   -0.4042    3.0561   -1.2110 C   0  0  0  0  0  0  0  0  0  0  0  0
    0.4038    2.3979   -1.5606 H   0  0  0  0  0  0  0  0  0  0  0  0
   -1.7196    2.5752   -1.0794 C   0  0  0  0  0  0  0  0  0  0  0  0
    4.4194   -1.2224   -1.4560 C   0  0  0  0  0  0  0  0  0  0  0  0
    3.8159   -1.8267   -2.1485 H   0  0  0  0  0  0  0  0  0  0  0  0
    0.7020    2.4721    2.4775 C   0  0  0  0  0  0  0  0  0  0  0  0
    0.2691    3.2030    3.1769 H   0  0  0  0  0  0  0  0  0  0  0  0
    4.0193    1.2327    1.3407 C   0  0  0  0  0  0  0  0  0  0  0  0
    4.6651    1.8175    2.0155 H   0  0  0  0  0  0  0  0  0  0  0  0
   -2.4453    4.7230   -0.2190 C   0  0  0  0  0  0  0  0  0  0  0  0
   -3.2443    5.3741    0.1656 H   0  0  0  0  0  0  0  0  0  0  0  0
   -0.1231    4.3831   -0.8609 C   0  0  0  0  0  0  0  0  0  0  0  0
    0.9041    4.7634   -0.9619 H   0  0  0  0  0  0  0  0  0  0  0  0
   -1.1391    5.2153   -0.3611 C   0  0  0  0  0  0  0  0  0  0  0  0
   -0.9097    6.2542   -0.0816 H   0  0  0  0  0  0  0  0  0  0  0  0
   -0.4574   -0.7462   -2.8885 C   0  0  0  0  0  0  0  0  0  0  0  0
   -1.1016   -1.6497   -2.8933 H   0  0  0  0  0  0  0  0  0  0  0  0
    0.2398   -0.8112   -3.7526 H   0  0  0  0  0  0  0  0  0  0  0  0
    2.3540   -0.1761   -0.4559 C   0  0  0  0  0  0  0  0  0  0  0  0
   -1.3165    0.5171   -3.0170 C   0  0  0  0  0  0  0  0  0  0  0  0
   -2.1033    0.4065   -3.7875 H   0  0  0  0  0  0  0  0  0  0  0  0
   -0.7041    1.4057   -3.2586 H   0  0  0  0  0  0  0  0  0  0  0  0
    6.0423    0.1931    0.3663 C   0  0  0  0  0  0  0  0  0  0  0  0
    6.6616    0.7479    1.0874 H   0  0  0  0  0  0  0  0  0  0  0  0
    6.6227   -0.6479   -0.5630 C   0  0  0  0  0  0  0  0  0  0  0  0
    7.7145   -0.7753   -0.5954 H   0  0  0  0  0  0  0  0  0  0  0  0
    4.6211    0.3608    0.4159 C   0  0  0  0  0  0  0  0  0  0  0  0
  1 19  1  0  0  0  0
  2  5  1  0  0  0  0
  3 20  2  0  0  0  0
  3 41  1  0  0  0  0
  4  3  1  0  0  0  0
  5 35  1  0  0  0  0
  6  5  1  0  0  0  0
  7  8  1  0  0  0  0
  7 22  1  0  0  0  0
  9  7  2  0  0  0  0
 10  9  1  0  0  0  0
 10 16  1  0  0  0  0
 11 35  1  0  0  0  0
 11 43  2  0  0  0  0
 12 22  2  0  0  0  0
 12 13  1  0  0  0  0
 14 15  1  0  0  0  0
 14 26  1  0  0  0  0
 16 12  1  0  0  0  0
 17 19  1  0  0  0  0
 17 28  2  0  0  0  0
 18 17  1  0  0  0  0
 19 14  2  0  0  0  0
 20 11  1  0  0  0  0
 21 20  1  0  0  0  0
 22 23  1  0  0  0  0
 24 16  2  0  0  0  0
 24 25  1  0  0  0  0
 26 27  1  0  0  0  0
 28 30  1  0  0  0  0
 29 28  1  0  0  0  0
 30 26  2  0  0  0  0
 30 31  1  0  0  0  0
 32  2  1  0  0  0  0
 33 32  1  0  0  0  0
 34 32  1  0  0  0  0
 35 10  2  0  0  0  0
 36 32  1  0  0  0  0
 36  1  1  0  0  0  0
 37 36  1  0  0  0  0
 38 36  1  0  0  0  0
 39 43  1  0  0  0  0
 39 40  1  0  0  0  0
 41 39  2  0  0  0  0
 42 41  1  0  0  0  0
 43 24  1  0  0  0  0
M  END
