2,3
q = -1.0, confidence = 0.0

 24 26  0  0  1  0  0  0  0  0999 V2000
   -1.9891    0.3818   -0.1305 N   0  0  0  0  0  0  0  0  0  0  0  0
   -0.0414    1.5341   -0.5134 N   0  0  0  0  0  2  0  0  0  0  0  0
   -1.1216   -0.7041    0.1922 C   0  0  0  0  0  3  0  0  0  0  0  0
   -1.9102   -1.7634    0.5884 C   0  0  0  0  0  0  0  0  0  0  0  0
   -1.5446   -2.7358    0.9359 H   0  0  0  0  0  0  0  0  0  0  0  0
   -3.2964   -1.3653    0.5010 C   0  0  0  0  0  0  0  0  0  0  0  0
   -4.5061   -2.0377    0.7629 C   0  0  0  0  0  0  0  0  0  0  0  0
   -4.4901   -3.0773    1.1241 H   0  0  0  0  0  0  0  0  0  0  0  0
   -5.7211   -1.3706    0.5572 C   0  0  0  0  0  0  0  0  0  0  0  0
   -6.6705   -1.8886    0.7612 H   0  0  0  0  0  0  0  0  0  0  0  0
   -5.7420   -0.0427    0.0857 C   0  0  0  0  0  0  0  0  0  0  0  0
   -6.7044    0.4639   -0.0806 H   0  0  0  0  0  0  0  0  0  0  0  0
   -4.5505    0.6530   -0.1823 C   0  0  0  0  0  0  0  0  0  0  0  0
   -4.6089    1.6791   -0.5642 H   0  0  0  0  0  0  0  0  0  0  0  0
   -3.3325   -0.0084    0.0365 C   0  0  0  0  0  0  0  0  0  0  0  0
   -1.4075    1.5854   -0.4660 C   0  0  2  0  0  3  0  0  0  0  0  0
   -2.0868    2.7941   -0.7354 C   0  0  0  0  0  0  0  0  0  0  0  0
   -3.1772    2.8422   -0.6694 H   0  0  0  0  0  0  0  0  0  0  0  0
   -1.3441    3.9284   -1.0660 C   0  0  0  0  0  0  0  0  0  0  0  0
   -1.8650    4.8743   -1.2768 H   0  0  0  0  0  0  0  0  0  0  0  0
    0.0588    3.8596   -1.1113 C   0  0  0  0  0  0  0  0  0  0  0  0
    0.6755    4.7362   -1.3503 H   0  0  0  0  0  0  0  0  0  0  0  0
    0.6693    2.6414   -0.8092 C   0  0  0  0  0  0  0  0  0  0  0  0
    1.7595    2.5275   -0.7559 H   0  0  0  0  0  0  0  0  0  0  0  0
  1 15  1  0  0  0  0
  1  3  1  0  0  0  0
  2 16  1  0  0  0  0
  3  4  2  0  0  0  0
  4  5  1  0  0  0  0
  6  4  1  0  0  0  0
  6  7  1  0  0  0  0
  7  8  1  0  0  0  0
  9 10  1  0  0  0  0
  9  7  2  0  0  0  0
 11  9  1  0  0  0  0
 12 11  1  0  0  0  0
 13 15  1  0  0  0  0
 13 11  2  0  0  0  0
 14 13  1  0  0  0  0
 15  6  2  0  0  0  0
 16  1  1  1  0  0  0
 17 18  1  0  0  0  0
 17 16  1  0  0  0  0
 19 17  2  0  0  0  0
 20 19  1  0  0  0  0
 21 19  1  0  0  0  0
 21 23  2  0  0  0  0
 22 21  1  0  0  0  0
 23 24  1  0  0  0  0
 23  2  1  0  0  0  0
M  END
