1,9
q = -1.0, confidence = 0.002

 19 19  0  0  1  0  0  0  0  0999 V2000
    1.5447    0.0691    0.0869 N   0  0  0  0  0  2  0  0  0  0  0  0
    2.1989   -0.6513   -0.8755 C   0  0  1  0  0  3  0  0  0  0  0  0
    3.5971   -0.5993   -0.9687 C   0  0  0  0  0  0  0  0  0  0  0  0
    4.3216    0.1724   -0.0517 C   0  0  0  0  0  0  0  0  0  0  0  0
    3.6365    0.8646    0.9542 C   0  0  0  0  0  0  0  0  0  0  0  0
    2.2363    0.7931    1.0079 C   0  0  0  0  0  0  0  0  0  0  0  0
    1.4640    1.4842    2.0971 C   0  0  0  0  0  0  0  0  0  0  0  0
    1.3461   -1.5230   -1.7620 C   0  0  0  0  0  0  0  0  0  0  0  0
   -0.0393   -0.9252   -2.0497 C   0  0  0  0  0  3  0  0  0  0  0  0
    4.1058   -1.1700   -1.7584 H   0  0  0  0  0  0  0  0  0  0  0  0
    5.4187    0.2266   -0.1144 H   0  0  0  0  0  0  0  0  0  0  0  0
    4.1782    1.4603    1.7027 H   0  0  0  0  0  0  0  0  0  0  0  0
    1.2533   -2.5068   -1.2449 H   0  0  0  0  0  0  0  0  0  0  0  0
    1.9107   -1.7472   -2.6933 H   0  0  0  0  0  0  0  0  0  0  0  0
    0.3700    1.3116    2.0186 H   0  0  0  0  0  0  0  0  0  0  0  0
    1.7808    1.1144    3.0935 H   0  0  0  0  0  0  0  0  0  0  0  0
    1.6337    2.5797    2.0874 H   0  0  0  0  0  0  0  0  0  0  0  0
    0.0751   -0.0996   -2.7799 H   0  0  0  0  0  0  0  0  0  0  0  0
   -0.6976   -1.6755   -2.5310 H   0  0  0  0  0  0  0  0  0  0  0  0
  1  6  1  0  0  0  0
  2  8  1  1  0  0  0
  2  1  1  0  0  0  0
  3  2  1  0  0  0  0
  3  4  2  0  0  0  0
  4  5  1  0  0  0  0
  5  6  2  0  0  0  0
  5 12  1  0  0  0  0
  6  7  1  0  0  0  0
  7 16  1  0  0  0  0
  8 13  1  0  0  0  0
  9  8  1  0  0  0  0
 10  3  1  0  0  0  0
 11  4  1  0  0  0  0
 14  8  1  0  0  0  0
 15  7  1  0  0  0  0
 17  7  1  0  0  0  0
 18  9  1  0  0  0  0
 19  9  1  0  0  0  0
M  END
