1,2
q = -1.0, confidence = 0.01

 36 39  0  0  0  0  0  0  0  0999 V2000
   -0.3947   -0.1187   -0.0755 N   0  0  0  0  0  2  0  0  0  0  0  0
    1.1450    2.0102   -0.0262 C   0  0  0  0  0  2  0  0  0  0  0  0
    2.0284    3.1088   -0.0279 C   0  0  0  0  0  0  0  0  0  0  0  0
    1.5285    4.4188   -0.0191 C   0  0  0  0  0  0  0  0  0  0  0  0
    0.1405    4.6638   -0.0066 C   0  0  0  0  0  0  0  0  0  0  0  0
   -0.7504    3.5877   -0.0052 C   0  0  0  0  0  0  0  0  0  0  0  0
   -0.2547    2.2641   -0.0172 C   0  0  0  0  0  0  0  0  0  0  0  0
   -1.0766    1.0646   -0.0376 C   0  0  0  0  0  0  0  0  0  0  0  0
   -2.4925    1.1056   -0.0061 C   0  0  0  0  0  0  0  0  0  0  0  0
   -3.2616   -0.0458   -0.0298 C   0  0  0  0  0  0  0  0  0  0  0  0
   -2.5685   -1.2999   -0.1493 C   0  0  0  0  0  0  0  0  0  0  0  0
   -3.2616   -2.5338   -0.3044 C   0  0  0  0  0  0  0  0  0  0  0  0
   -2.5785   -3.7353   -0.4217 C   0  0  0  0  0  0  0  0  0  0  0  0
   -1.1649   -3.7350   -0.3864 C   0  0  0  0  0  0  0  0  0  0  0  0
   -0.4518   -2.5497   -0.2617 C   0  0  0  0  0  0  0  0  0  0  0  0
    0.6447   -2.5674   -0.2400 H   0  0  0  0  0  0  0  0  0  0  0  0
   -1.1219   -1.3016   -0.1544 C   0  0  0  0  0  0  0  0  0  0  0  0
   -4.7399    0.0557    0.0656 C   0  0  0  0  0  0  0  0  0  0  0  0
   -5.4467    0.9249   -0.7948 C   0  0  0  0  0  0  0  0  0  0  0  0
   -6.8378    1.0624   -0.6885 C   0  0  0  0  0  0  0  0  0  0  0  0
   -7.5455    0.3409    0.2856 C   0  0  0  0  0  0  0  0  0  0  0  0
   -6.8530   -0.5184    1.1538 C   0  0  0  0  0  0  0  0  0  0  0  0
   -7.3992   -1.0769    1.9291 H   0  0  0  0  0  0  0  0  0  0  0  0
   -5.4632   -0.6633    1.0445 C   0  0  0  0  0  0  0  0  0  0  0  0
    3.1121    2.9241   -0.0326 H   0  0  0  0  0  0  0  0  0  0  0  0
    2.2305    5.2679   -0.0210 H   0  0  0  0  0  0  0  0  0  0  0  0
   -0.2408    5.6957    0.0016 H   0  0  0  0  0  0  0  0  0  0  0  0
   -1.8339    3.7815    0.0024 H   0  0  0  0  0  0  0  0  0  0  0  0
   -2.9834    2.0835    0.0808 H   0  0  0  0  0  0  0  0  0  0  0  0
   -4.3590   -2.5154   -0.3485 H   0  0  0  0  0  0  0  0  0  0  0  0
   -3.1333   -4.6769   -0.5486 H   0  0  0  0  0  0  0  0  0  0  0  0
   -0.6133   -4.6840   -0.4717 H   0  0  0  0  0  0  0  0  0  0  0  0
   -4.8939    1.4811   -1.5671 H   0  0  0  0  0  0  0  0  0  0  0  0
   -7.3733    1.7357   -1.3748 H   0  0  0  0  0  0  0  0  0  0  0  0
   -8.6373    0.4499    0.3703 H   0  0  0  0  0  0  0  0  0  0  0  0
   -4.9220   -1.3213    1.7406 H   0  0  0  0  0  0  0  0  0  0  0  0
  1  8  1  0  0  0  0
  2  7  1  0  0  0  0
  3  2  1  0  0  0  0
  3  4  2  0  0  0  0
  4  5  1  0  0  0  0
  5  6  2  0  0  0  0
  5 27  1  0  0  0  0
  6 28  1  0  0  0  0
  7  6  1  0  0  0  0
  8  7  2  0  0  0  0
  8  9  1  0  0  0  0
  9 29  1  0  0  0  0
 10  9  2  0  0  0  0
 10 18  1  0  0  0  0
 11 10  1  0  0  0  0
 12 11  2  0  0  0  0
 13 14  2  0  0  0  0
 13 12  1  0  0  0  0
 14 15  1  0  0  0  0
 15 16  1  0  0  0  0
 15 17  2  0  0  0  0
 17 11  1  0  0  0  0
 17  1  1  0  0  0  0
 18 24  1  0  0  0  0
 19 20  1  0  0  0  0
 19 18  2  0  0  0  0
 20 21  2  0  0  0  0
 21 35  1  0  0  0  0
 21 22  1  0  0  0  0
 22 23  1  0  0  0  0
 24 22  2  0  0  0  0
 24 36  1  0  0  0  0
 25  3  1  0  0  0  0
 26  4  1  0  0  0  0
 30 12  1  0  0  0  0
 31 13  1  0  0  0  0
 32 14  1  0  0  0  0
 33 19  1  0  0  0  0
 34 20  1  0  0  0  0
M  END
