1,4
q = 0.0, confidence = 0.994

 62 64  0  0  1  0  0  0  0  0999 V2000
    0.5859    0.0001   -0.2658 N   0  0  0  0  0  2  0  0  0  0  0  0
   -1.2576    2.0944   -1.0443 N   0  0  0  0  0  0  0  0  0  0  0  0
   -3.0744    1.5707    0.0105 N   0  0  0  0  0  0  0  0  0  0  0  0
   -1.9847    1.0266   -0.6010 C   0  0  0  0  0  2  0  0  0  0  0  0
    0.9785    1.1732   -0.6897 C   0  0  1  0  0  3  0  0  0  0  0  0
    0.0453    1.8907   -1.6632 C   0  0  0  0  0  0  0  0  0  0  0  0
    0.4486    2.8761   -1.9512 H   0  0  0  0  0  0  0  0  0  0  0  0
   -0.0893    1.2655   -2.5717 H   0  0  0  0  0  0  0  0  0  0  0  0
   -1.8715    3.2962   -0.7166 C   0  0  0  0  0  0  0  0  0  0  0  0
   -1.4538    4.2701   -0.9881 H   0  0  0  0  0  0  0  0  0  0  0  0
   -3.0269    2.9603   -0.0584 C   0  0  0  0  0  0  0  0  0  0  0  0
   -3.8121    3.5952    0.3611 H   0  0  0  0  0  0  0  0  0  0  0  0
   -4.1262    0.7993    0.7085 C   0  0  0  0  0  0  0  0  0  0  0  0
   -3.7942   -0.2536    0.6091 H   0  0  0  0  0  0  0  0  0  0  0  0
   -4.1819    1.1971    2.1843 C   0  0  0  0  0  0  0  0  0  0  0  0
   -3.1848    1.1092    2.6595 H   0  0  0  0  0  0  0  0  0  0  0  0
   -4.8785    0.5254    2.7227 H   0  0  0  0  0  0  0  0  0  0  0  0
   -4.5453    2.2366    2.3246 H   0  0  0  0  0  0  0  0  0  0  0  0
   -5.4618    0.9374   -0.0202 C   0  0  0  0  0  0  0  0  0  0  0  0
   -5.8227    1.9871   -0.0341 H   0  0  0  0  0  0  0  0  0  0  0  0
   -6.2281    0.3211    0.4897 H   0  0  0  0  0  0  0  0  0  0  0  0
   -5.3571    0.5646   -1.0570 H   0  0  0  0  0  0  0  0  0  0  0  0
    2.2212    1.8730   -0.2867 C   0  0  0  0  0  0  0  0  0  0  0  0
    2.9354    2.6250   -1.2503 C   0  0  0  0  0  0  0  0  0  0  0  0
    2.5891    2.6528   -2.2946 H   0  0  0  0  0  0  0  0  0  0  0  0
    4.1164    3.2952   -0.9074 C   0  0  0  0  0  0  0  0  0  0  0  0
    4.6694    3.8539   -1.6770 H   0  0  0  0  0  0  0  0  0  0  0  0
    4.5934    3.2473    0.4117 C   0  0  0  0  0  0  0  0  0  0  0  0
    5.5190    3.7762    0.6842 H   0  0  0  0  0  0  0  0  0  0  0  0
    3.8823    2.5223    1.3824 C   0  0  0  0  0  0  0  0  0  0  0  0
    4.2440    2.4875    2.4208 H   0  0  0  0  0  0  0  0  0  0  0  0
    2.7131    1.8339    1.0395 C   0  0  0  0  0  0  0  0  0  0  0  0
    2.1722    1.2647    1.8058 H   0  0  0  0  0  0  0  0  0  0  0  0
    1.4120   -0.8154    0.5807 C   0  0  0  0  0  0  0  0  0  0  0  0
    0.9695   -1.0769    1.9042 C   0  0  0  0  0  0  0  0  0  0  0  0
   -0.3438   -0.5267    2.4505 C   0  0  0  0  0  0  0  0  0  0  0  0
   -0.7631    0.1603    1.6872 H   0  0  0  0  0  0  0  0  0  0  0  0
   -0.1490    0.2889    3.7390 C   0  0  0  0  0  0  0  0  0  0  0  0
    0.2352   -0.3372    4.5703 H   0  0  0  0  0  0  0  0  0  0  0  0
   -1.1146    0.7211    4.0745 H   0  0  0  0  0  0  0  0  0  0  0  0
    0.5638    1.1269    3.5934 H   0  0  0  0  0  0  0  0  0  0  0  0
   -1.3608   -1.6667    2.6413 C   0  0  0  0  0  0  0  0  0  0  0  0
   -1.4978   -2.2318    1.6974 H   0  0  0  0  0  0  0  0  0  0  0  0
   -2.3461   -1.2664    2.9584 H   0  0  0  0  0  0  0  0  0  0  0  0
   -1.0180   -2.3788    3.4203 H   0  0  0  0  0  0  0  0  0  0  0  0
    1.7767   -1.8840    2.7228 C   0  0  0  0  0  0  0  0  0  0  0  0
    1.4543   -2.0921    3.7543 H   0  0  0  0  0  0  0  0  0  0  0  0
    2.9731   -2.4328    2.2466 C   0  0  0  0  0  0  0  0  0  0  0  0
    3.5895   -3.0679    2.9005 H   0  0  0  0  0  0  0  0  0  0  0  0
    3.3738   -2.1818    0.9310 C   0  0  0  0  0  0  0  0  0  0  0  0
    4.3027   -2.6341    0.5523 H   0  0  0  0  0  0  0  0  0  0  0  0
    2.6139   -1.3725    0.0662 C   0  0  0  0  0  0  0  0  0  0  0  0
    3.0990   -1.1769   -1.3661 C   0  0  0  0  0  0  0  0  0  0  0  0
    2.4105   -0.4729   -1.8743 H   0  0  0  0  0  0  0  0  0  0  0  0
    3.0412   -2.4978   -2.1548 C   0  0  0  0  0  0  0  0  0  0  0  0
    3.7278   -3.2523   -1.7175 H   0  0  0  0  0  0  0  0  0  0  0  0
    3.3514   -2.3310   -3.2071 H   0  0  0  0  0  0  0  0  0  0  0  0
    2.0131   -2.9096   -2.1389 H   0  0  0  0  0  0  0  0  0  0  0  0
    4.5107   -0.5641   -1.4069 C   0  0  0  0  0  0  0  0  0  0  0  0
    5.2649   -1.2724   -1.0062 H   0  0  0  0  0  0  0  0  0  0  0  0
    4.5792    0.3695   -0.8154 H   0  0  0  0  0  0  0  0  0  0  0  0
    4.8021   -0.3335   -2.4521 H   0  0  0  0  0  0  0  0  0  0  0  0
  1 34  1  0  0  0  0
  2  9  1  0  0  0  0
  2  4  1  0  0  0  0
  3 13  1  0  0  0  0
  4  3  1  0  0  0  0
  5 23  1  0  0  0  0
  5  1  1  1  0  0  0
  6  2  1  0  0  0  0
  6  5  1  0  0  0  0
  7  6  1  0  0  0  0
  8  6  1  0  0  0  0
  9 11  2  0  0  0  0
 10  9  1  0  0  0  0
 11  3  1  0  0  0  0
 11 12  1  0  0  0  0
 13 15  1  0  0  0  0
 14 13  1  0  0  0  0
 15 18  1  0  0  0  0
 15 16  1  0  0  0  0
 15 17  1  0  0  0  0
 19 21  1  0  0  0  0
 19 13  1  0  0  0  0
 20 19  1  0  0  0  0
 22 19  1  0  0  0  0
 23 32  1  0  0  0  0
 24 26  1  0  0  0  0
 24 23  2  0  0  0  0
 25 24  1  0  0  0  0
 26 28  2  0  0  0  0
 27 26  1  0  0  0  0
 28 29  1  0  0  0  0
 28 30  1  0  0  0  0
 30 31  1  0  0  0  0
 32 30  2  0  0  0  0
 32 33  1  0  0  0  0
 34 35  1  0  0  0  0
 35 36  1  0  0  0  0
 35 46  2  0  0  0  0
 36 42  1  0  0  0  0
 36 38  1  0  0  0  0
 37 36  1  0  0  0  0
 38 40  1  0  0  0  0
 38 39  1  0  0  0  0
 41 38  1  0  0  0  0
 42 44  1  0  0  0  0
 42 45  1  0  0  0  0
 43 42  1  0  0  0  0
 46 47  1  0  0  0  0
 48 46  1  0  0  0  0
 48 49  1  0  0  0  0
 50 48  2  0  0  0  0
 51 50  1  0  0  0  0
 52 34  2  0  0  0  0
 52 50  1  0  0  0  0
 53 52  1  0  0  0  0
 54 53  1  0  0  0  0
 55 58  1  0  0  0  0
 55 56  1  0  0  0  0
 55 53  1  0  0  0  0
 57 55  1  0  0  0  0
 59 53  1  0  0  0  0
 59 60  1  0  0  0  0
 59 61  1  0  0  0  0
 62 59  1  0  0  0  0
M  END
