2,4
q = 0.0, confidence = 0.996

 38 39  0  0  1  0  0  0  0  0999 V2000
    1.8981    3.2260   -0.0231 S   0  0  0  0  0  0  0  0  0  0  0  0
    1.2053    0.6394   -0.0330 N   0  0  0  0  0  2  0  0  0  0  0  0
   -2.7590    0.9402   -0.1826 N   0  0  0  0  0  0  0  0  0  0  0  0
   -1.4654    0.7665    0.0832 C   0  0  0  0  0  2  0  0  0  0  0  0
   -0.6970    2.0590    0.3721 C   0  0  1  0  0  0  0  0  0  0  0  0
   -1.0699    2.9005   -0.2502 H   0  0  0  0  0  0  0  0  0  0  0  0
   -0.8720    2.4449    1.8635 C   0  0  0  0  0  0  0  0  0  0  0  0
   -0.2794    3.3464    2.1147 H   0  0  0  0  0  0  0  0  0  0  0  0
   -0.5293    1.6135    2.5080 H   0  0  0  0  0  0  0  0  0  0  0  0
   -1.9350    2.6451    2.0994 H   0  0  0  0  0  0  0  0  0  0  0  0
    2.5958    0.3795   -0.2281 C   0  0  0  0  0  0  0  0  0  0  0  0
    3.4907    0.4992    0.8515 C   0  0  0  0  0  0  0  0  0  0  0  0
    3.1087    0.8057    1.8364 H   0  0  0  0  0  0  0  0  0  0  0  0
    4.8477    0.2003    0.6629 C   0  0  0  0  0  0  0  0  0  0  0  0
    5.5444    0.2843    1.5105 H   0  0  0  0  0  0  0  0  0  0  0  0
    5.3128   -0.2142   -0.5945 C   0  0  0  0  0  0  0  0  0  0  0  0
    6.3769   -0.4540   -0.7377 H   0  0  0  0  0  0  0  0  0  0  0  0
    4.4130   -0.3358   -1.6665 C   0  0  0  0  0  0  0  0  0  0  0  0
    4.7705   -0.6696   -2.6522 H   0  0  0  0  0  0  0  0  0  0  0  0
    3.0544   -0.0460   -1.4884 C   0  0  0  0  0  0  0  0  0  0  0  0
    2.3329   -0.1576   -2.3103 H   0  0  0  0  0  0  0  0  0  0  0  0
    0.7713    1.8614    0.0733 C   0  0  1  0  0  3  0  0  0  0  0  0
    0.8086    4.6557   -0.3323 C   0  0  0  0  0  0  0  0  0  0  0  0
    1.4999    5.5133   -0.4401 H   0  0  0  0  0  0  0  0  0  0  0  0
    0.1221    4.8617    0.5108 H   0  0  0  0  0  0  0  0  0  0  0  0
    0.2421    4.5402   -1.2763 H   0  0  0  0  0  0  0  0  0  0  0  0
   -3.4947    2.2217   -0.3398 C   0  0  0  0  0  0  0  0  0  0  0  0
   -3.6925    2.6670    0.6602 H   0  0  0  0  0  0  0  0  0  0  0  0
   -2.8944    2.9515   -0.9173 H   0  0  0  0  0  0  0  0  0  0  0  0
   -4.7964    1.8286   -1.0410 C   0  0  0  0  0  0  0  0  0  0  0  0
   -5.6108    2.5558   -0.8571 H   0  0  0  0  0  0  0  0  0  0  0  0
   -4.6322    1.7756   -2.1377 H   0  0  0  0  0  0  0  0  0  0  0  0
   -5.0720    0.4297   -0.4776 C   0  0  0  0  0  0  0  0  0  0  0  0
   -5.7761   -0.1633   -1.0914 H   0  0  0  0  0  0  0  0  0  0  0  0
   -5.5011    0.5061    0.5437 H   0  0  0  0  0  0  0  0  0  0  0  0
   -3.6784   -0.1987   -0.4222 C   0  0  0  0  0  0  0  0  0  0  0  0
   -3.5519   -0.9510    0.3755 H   0  0  0  0  0  0  0  0  0  0  0  0
   -3.3937   -0.6880   -1.3778 H   0  0  0  0  0  0  0  0  0  0  0  0
  1 22  1  0  0  0  0
  3  4  1  0  0  0  0
  4  5  1  0  0  0  0
  5  6  1  6  0  0  0
  5  7  1  0  0  0  0
  7 10  1  0  0  0  0
  7  8  1  0  0  0  0
  7  9  1  0  0  0  0
 11  2  1  0  0  0  0
 11 12  1  0  0  0  0
 12 13  1  0  0  0  0
 14 12  2  0  0  0  0
 14 15  1  0  0  0  0
 16 14  1  0  0  0  0
 17 16  1  0  0  0  0
 18 20  1  0  0  0  0
 18 16  2  0  0  0  0
 19 18  1  0  0  0  0
 20 11  2  0  0  0  0
 21 20  1  0  0  0  0
 22  2  1  1  0  0  0
 22  5  1  0  0  0  0
 23  1  1  0  0  0  0
 23 25  1  0  0  0  0
 24 23  1  0  0  0  0
 26 23  1  0  0  0  0
 27  3  1  0  0  0  0
 27 28  1  0  0  0  0
 29 27  1  0  0  0  0
 30 31  1  0  0  0  0
 30 33  1  0  0  0  0
 30 27  1  0  0  0  0
 32 30  1  0  0  0  0
 33 36  1  0  0  0  0
 33 35  1  0  0  0  0
 34 33  1  0  0  0  0
 36  3  1  0  0  0  0
 36 37  1  0  0  0  0
 38 36  1  0  0  0  0
M  END
