5,13
q = -1.0, confidence = 0.0

 23 22  0  0  0  0  0  0  0  0999 V2000
   -4.3318    0.8067    0.3889 O   0  0  0  0  0  0  0  0  0  0  0  0
   -4.9792   -1.2862   -0.1891 O   0  0  0  0  0  0  0  0  0  0  0  0
   -1.6001    1.8777    1.4266 O   0  0  0  0  0  0  0  0  0  0  0  0
   -2.1186    2.2378   -0.7566 O   0  0  0  0  0  0  0  0  0  0  0  0
   -0.2510   -2.3634    0.3642 N   0  0  0  0  0  2  0  0  0  0  0  0
    0.4175   -2.8824    0.9526 H   0  0  0  0  0  0  0  0  0  0  0  0
   -1.4006   -2.9374    0.1941 C   0  0  0  0  0  3  0  0  0  0  0  0
   -1.5844   -3.9220    0.6644 H   0  0  0  0  0  0  0  0  0  0  0  0
   -2.4625   -2.2771   -0.6207 C   0  0  0  0  0  0  0  0  0  0  0  0
   -3.4102   -2.8359   -0.5427 H   0  0  0  0  0  0  0  0  0  0  0  0
   -2.1334   -2.3263   -1.6888 H   0  0  0  0  0  0  0  0  0  0  0  0
   -2.6547   -0.8171   -0.2276 C   0  0  0  0  0  0  0  0  0  0  0  0
   -1.5738    0.0261   -0.1169 C   0  0  0  0  0  3  0  0  0  0  0  0
   -4.0237   -0.3221    0.0270 C   0  0  0  0  0  0  0  0  0  0  0  0
   -6.3215   -0.8594    0.0378 C   0  0  0  0  0  0  0  0  0  0  0  0
   -6.4619   -0.5196    1.0847 H   0  0  0  0  0  0  0  0  0  0  0  0
   -6.9644   -1.7336   -0.1724 H   0  0  0  0  0  0  0  0  0  0  0  0
   -6.5903   -0.0145   -0.6292 H   0  0  0  0  0  0  0  0  0  0  0  0
   -1.7897    1.4480    0.3018 C   0  0  0  0  0  0  0  0  0  0  0  0
   -2.3934    3.5998   -0.4215 C   0  0  0  0  0  0  0  0  0  0  0  0
   -3.2977    3.6562    0.2180 H   0  0  0  0  0  0  0  0  0  0  0  0
   -2.5677    4.1251   -1.3783 H   0  0  0  0  0  0  0  0  0  0  0  0
   -1.5431    4.0576    0.1236 H   0  0  0  0  0  0  0  0  0  0  0  0
  2 14  1  0  0  0  0
  2 15  1  0  0  0  0
  4 20  1  0  0  0  0
  4 19  1  0  0  0  0
  5  6  1  0  0  0  0
  7  5  1  0  0  0  0
  7  8  1  0  0  0  0
  9 10  1  0  0  0  0
  9 12  1  0  0  0  0
  9  7  1  0  0  0  0
 11  9  1  0  0  0  0
 12 13  2  0  0  0  0
 12 14  1  0  0  0  0
 13 19  1  0  0  0  0
 14  1  2  0  0  0  0
 15 16  1  0  0  0  0
 17 15  1  0  0  0  0
 18 15  1  0  0  0  0
 19  3  2  0  0  0  0
 20 23  1  0  0  0  0
 20 21  1  0  0  0  0
 22 20  1  0  0  0  0
M  END
