1,17
q = -2.0, confidence = 0.84

 55 60  0  0  0  0  0  0  0  0999 V2000
   -0.5758   -2.0862    0.1318 N   0  0  0  0  0  2  0  0  0  0  0  0
   -0.2841   -2.7982    1.2359 N   0  0  0  0  0  0  0  0  0  0  0  0
   -1.1830   -3.8202    1.3303 C   0  0  0  0  0  3  0  0  0  0  0  0
   -1.1354   -4.5222    2.1699 H   0  0  0  0  0  0  0  0  0  0  0  0
   -2.0701   -3.7441    0.2511 C   0  0  0  0  0  0  0  0  0  0  0  0
   -2.9083   -4.4141    0.0375 H   0  0  0  0  0  0  0  0  0  0  0  0
   -1.6731   -2.5892   -0.4743 C   0  0  0  0  0  0  0  0  0  0  0  0
   -2.1912   -1.7204   -1.5229 C   0  0  0  0  0  0  0  0  0  0  0  0
   -3.2957   -2.0351   -2.3363 C   0  0  0  0  0  0  0  0  0  0  0  0
   -3.7740   -3.0232   -2.2458 H   0  0  0  0  0  0  0  0  0  0  0  0
   -3.7864   -1.0918   -3.2485 C   0  0  0  0  0  0  0  0  0  0  0  0
   -4.6491   -1.3331   -3.8872 H   0  0  0  0  0  0  0  0  0  0  0  0
   -3.1654    0.1656   -3.3340 C   0  0  0  0  0  0  0  0  0  0  0  0
   -3.5477    0.9181   -4.0422 H   0  0  0  0  0  0  0  0  0  0  0  0
   -2.0592    0.4813   -2.5252 C   0  0  0  0  0  0  0  0  0  0  0  0
   -1.6254    1.4883   -2.6184 H   0  0  0  0  0  0  0  0  0  0  0  0
   -1.5301   -0.4413   -1.5974 C   0  0  0  0  0  3  0  0  0  0  0  0
    1.9509   -0.4866    0.8922 N   0  0  0  0  0  0  0  0  0  0  0  0
    1.8529   -1.5249    1.7675 N   0  0  0  0  0  0  0  0  0  0  0  0
    3.0843   -1.9789    2.1125 C   0  0  0  0  0  0  0  0  0  0  0  0
    3.1917   -2.7987    2.8306 H   0  0  0  0  0  0  0  0  0  0  0  0
    4.0320   -1.2129    1.4383 C   0  0  0  0  0  0  0  0  0  0  0  0
    5.1224   -1.2724    1.5058 H   0  0  0  0  0  0  0  0  0  0  0  0
    3.2769   -0.2705    0.6970 C   0  0  0  0  0  0  0  0  0  0  0  0
    3.8171    0.8594   -0.0853 C   0  0  0  0  0  0  0  0  0  0  0  0
    4.6785    0.6320   -1.1797 C   0  0  0  0  0  0  0  0  0  0  0  0
    4.9119   -0.4031   -1.4716 H   0  0  0  0  0  0  0  0  0  0  0  0
    5.2074    1.7107   -1.9030 C   0  0  0  0  0  0  0  0  0  0  0  0
    5.8664    1.5208   -2.7637 H   0  0  0  0  0  0  0  0  0  0  0  0
    4.8912    3.0289   -1.5364 C   0  0  0  0  0  0  0  0  0  0  0  0
    5.3035    3.8745   -2.1074 H   0  0  0  0  0  0  0  0  0  0  0  0
    4.0523    3.2649   -0.4353 C   0  0  0  0  0  0  0  0  0  0  0  0
    3.8090    4.2961   -0.1376 H   0  0  0  0  0  0  0  0  0  0  0  0
    3.5232    2.1883    0.2895 C   0  0  0  0  0  0  0  0  0  0  0  0
    2.8739    2.3655    1.1594 H   0  0  0  0  0  0  0  0  0  0  0  0
   -0.8695    0.0733    1.6635 N   0  0  0  0  0  0  0  0  0  0  0  0
   -0.3716   -0.7416    2.6354 N   0  0  0  0  0  0  0  0  0  0  0  0
   -0.7913   -0.3216    3.8574 C   0  0  0  0  0  0  0  0  0  0  0  0
   -0.5020   -0.8713    4.7593 H   0  0  0  0  0  0  0  0  0  0  0  0
   -1.5907    0.8046    3.6821 C   0  0  0  0  0  0  0  0  0  0  0  0
   -2.1279    1.3751    4.4456 H   0  0  0  0  0  0  0  0  0  0  0  0
   -1.6337    1.0096    2.2788 C   0  0  0  0  0  0  0  0  0  0  0  0
   -2.4423    2.0021    1.5510 C   0  0  0  0  0  0  0  0  0  0  0  0
   -3.2320    1.6130    0.4474 C   0  0  0  0  0  0  0  0  0  0  0  0
   -3.2280    0.5630    0.1262 H   0  0  0  0  0  0  0  0  0  0  0  0
   -4.0049    2.5584   -0.2398 C   0  0  0  0  0  0  0  0  0  0  0  0
   -4.6009    2.2376   -1.1075 H   0  0  0  0  0  0  0  0  0  0  0  0
   -4.0150    3.9002    0.1748 C   0  0  0  0  0  0  0  0  0  0  0  0
   -4.6224    4.6420   -0.3660 H   0  0  0  0  0  0  0  0  0  0  0  0
   -3.2500    4.2918    1.2861 C   0  0  0  0  0  0  0  0  0  0  0  0
   -3.2542    5.3418    1.6164 H   0  0  0  0  0  0  0  0  0  0  0  0
   -2.4696    3.3498    1.9709 C   0  0  0  0  0  0  0  0  0  0  0  0
   -1.8524    3.6591    2.8284 H   0  0  0  0  0  0  0  0  0  0  0  0
    0.4904   -1.9988    2.3158 B   0  0  0  0  0  0  0  0  0  0  0  0
    0.6494   -2.6695    3.3229 H   0  0  0  0  0  0  0  0  0  0  0  0
  1  2  1  0  0  0  0
  2  3  1  0  0  0  0
  2 54  1  0  0  0  0
  3  4  1  0  0  0  0
  5  3  1  0  0  0  0
  6  5  1  0  0  0  0
  7  1  1  0  0  0  0
  7  5  2  0  0  0  0
  8  7  1  0  0  0  0
  9 10  1  0  0  0  0
  9  8  2  0  0  0  0
 11  9  1  0  0  0  0
 12 11  1  0  0  0  0
 13 11  2  0  0  0  0
 13 15  1  0  0  0  0
 14 13  1  0  0  0  0
 15 17  2  0  0  0  0
 16 15  1  0  0  0  0
 17  8  1  0  0  0  0
 18 19  1  0  0  0  0
 19 20  1  0  0  0  0
 19 54  1  0  0  0  0
 20 21  1  0  0  0  0
 22 23  1  0  0  0  0
 22 20  2  0  0  0  0
 24 18  2  0  0  0  0
 24 22  1  0  0  0  0
 25 34  1  0  0  0  0
 25 24  1  0  0  0  0
 26 25  2  0  0  0  0
 27 26  1  0  0  0  0
 28 30  2  0  0  0  0
 28 26  1  0  0  0  0
 29 28  1  0  0  0  0
 30 32  1  0  0  0  0
 31 30  1  0  0  0  0
 32 33  1  0  0  0  0
 32 34  2  0  0  0  0
 34 35  1  0  0  0  0
 36 42  2  0  0  0  0
 36 37  1  0  0  0  0
 37 38  1  0  0  0  0
 38 39  1  0  0  0  0
 40 38  2  0  0  0  0
 40 41  1  0  0  0  0
 42 40  1  0  0  0  0
 43 52  1  0  0  0  0
 43 42  1  0  0  0  0
 44 43  2  0  0  0  0
 45 44  1  0  0  0  0
 46 48  2  0  0  0  0
 46 44  1  0  0  0  0
 47 46  1  0  0  0  0
 48 50  1  0  0  0  0
 49 48  1  0  0  0  0
 50 51  1  0  0  0  0
 50 52  2  0  0  0  0
 52 53  1  0  0  0  0
 54 37  1  0  0  0  0
 54 55  1  0  0  0  0
M  END
