2
q = -2.0, confidence = 0.922

 61 63  0  0  1  0  0  0  0  0999 V2000
   -0.6937    1.8795    0.9605 Si  0  0  0  0  0  0  0  0  0  0  0  0
   -0.1887    0.6575   -0.2104 N   0  0  0  0  0  2  0  0  0  0  0  0
   -2.3110    0.9244    1.2276 C   0  0  2  0  0  3  0  0  0  0  0  0
   -2.2669   -0.4344    1.7266 C   0  0  0  0  0  0  0  0  0  0  0  0
   -3.2979   -1.1921    1.0817 C   0  0  0  0  0  0  0  0  0  0  0  0
   -3.9884   -0.3153    0.1788 C   0  0  0  0  0  0  0  0  0  0  0  0
   -3.4037    0.9874    0.2871 C   0  0  0  0  0  0  0  0  0  0  0  0
   -1.3235   -1.0181    2.7384 C   0  0  0  0  0  0  0  0  0  0  0  0
   -0.8557   -1.9506    2.3640 H   0  0  0  0  0  0  0  0  0  0  0  0
   -1.8707   -1.2700    3.6718 H   0  0  0  0  0  0  0  0  0  0  0  0
   -0.5166   -0.3161    3.0072 H   0  0  0  0  0  0  0  0  0  0  0  0
   -3.6334   -2.6235    1.3636 C   0  0  0  0  0  0  0  0  0  0  0  0
   -4.3017   -2.6982    2.2487 H   0  0  0  0  0  0  0  0  0  0  0  0
   -2.7243   -3.2192    1.5705 H   0  0  0  0  0  0  0  0  0  0  0  0
   -4.1537   -3.0988    0.5102 H   0  0  0  0  0  0  0  0  0  0  0  0
   -5.1499   -0.6632   -0.7002 C   0  0  0  0  0  0  0  0  0  0  0  0
   -6.0981   -0.2705   -0.2732 H   0  0  0  0  0  0  0  0  0  0  0  0
   -5.2650   -1.7578   -0.8141 H   0  0  0  0  0  0  0  0  0  0  0  0
   -5.0278   -0.2283   -1.7115 H   0  0  0  0  0  0  0  0  0  0  0  0
   -3.9127    2.1860   -0.4607 C   0  0  0  0  0  0  0  0  0  0  0  0
   -3.6734    2.1254   -1.5426 H   0  0  0  0  0  0  0  0  0  0  0  0
   -3.4961    3.1256   -0.0586 H   0  0  0  0  0  0  0  0  0  0  0  0
   -5.0172    2.2428   -0.3730 H   0  0  0  0  0  0  0  0  0  0  0  0
    0.9520    0.6006   -1.1057 C   0  0  0  0  0  0  0  0  0  0  0  0
    0.9465    1.4879   -1.7836 H   0  0  0  0  0  0  0  0  0  0  0  0
    0.8634   -0.2891   -1.7717 H   0  0  0  0  0  0  0  0  0  0  0  0
    2.2977    0.5265   -0.3623 C   0  0  2  0  0  0  0  0  0  0  0  0
    2.3402    1.4325    0.2809 H   0  0  0  0  0  0  0  0  0  0  0  0
    3.4749    0.6521   -1.3854 C   0  0  2  0  0  0  0  0  0  0  0  0
    3.0795    0.3490   -2.3827 H   0  0  0  0  0  0  0  0  0  0  0  0
    4.5983   -0.3550   -1.0816 C   0  0  2  0  0  0  0  0  0  0  0  0
    5.4630   -0.1880   -1.7602 H   0  0  0  0  0  0  0  0  0  0  0  0
    3.9634   -1.7712   -1.0365 C   0  0  0  0  0  0  0  0  0  0  0  0
    3.0776   -1.9453   -1.6822 H   0  0  0  0  0  0  0  0  0  0  0  0
    4.6889   -2.5879   -1.2056 H   0  0  0  0  0  0  0  0  0  0  0  0
    3.6899   -1.4867    0.4621 C   0  0  2  0  0  0  0  0  0  0  0  0
    3.7188   -2.3384    1.1751 H   0  0  0  0  0  0  0  0  0  0  0  0
    2.3703   -0.7183    0.5774 C   0  0  0  0  0  0  0  0  0  0  0  0
    2.2087   -0.3988    1.6283 H   0  0  0  0  0  0  0  0  0  0  0  0
    1.5376   -1.4139    0.3434 H   0  0  0  0  0  0  0  0  0  0  0  0
    3.9612    2.0990   -1.5280 C   0  0  0  0  0  0  0  0  0  0  0  0
    4.4160    2.4763   -0.5909 H   0  0  0  0  0  0  0  0  0  0  0  0
    3.1231    2.7778   -1.7912 H   0  0  0  0  0  0  0  0  0  0  0  0
    4.7227    2.1864   -2.3299 H   0  0  0  0  0  0  0  0  0  0  0  0
    4.9293   -0.5254    0.4495 C   0  0  0  0  0  0  0  0  0  0  0  0
    6.2488   -1.2871    0.6435 C   0  0  0  0  0  0  0  0  0  0  0  0
    6.3292   -2.1844    0.0004 H   0  0  0  0  0  0  0  0  0  0  0  0
    6.3545   -1.6198    1.6974 H   0  0  0  0  0  0  0  0  0  0  0  0
    7.1139   -0.6311    0.4111 H   0  0  0  0  0  0  0  0  0  0  0  0
    4.9364    0.6742    1.3996 C   0  0  0  0  0  0  0  0  0  0  0  0
    5.7915    1.3476    1.1810 H   0  0  0  0  0  0  0  0  0  0  0  0
    5.0576    0.3246    2.4469 H   0  0  0  0  0  0  0  0  0  0  0  0
    4.0138    1.2805    1.3606 H   0  0  0  0  0  0  0  0  0  0  0  0
    0.4207    2.0959    2.4725 C   0  0  0  0  0  0  0  0  0  0  0  0
   -0.1601    2.5179    3.3191 H   0  0  0  0  0  0  0  0  0  0  0  0
    1.2391    2.8071    2.2377 H   0  0  0  0  0  0  0  0  0  0  0  0
    0.8836    1.1489    2.8096 H   0  0  0  0  0  0  0  0  0  0  0  0
   -0.8474    3.5640    0.1244 C   0  0  0  0  0  0  0  0  0  0  0  0
    0.1725    3.9670   -0.0495 H   0  0  0  0  0  0  0  0  0  0  0  0
   -1.3904    4.2970    0.7558 H   0  0  0  0  0  0  0  0  0  0  0  0
   -1.3552    3.4896   -0.8559 H   0  0  0  0  0  0  0  0  0  0  0  0
  1 54  1  0  0  0  0
  2  1  1  0  0  0  0
  3  1  1  6  0  0  0
  3  4  1  0  0  0  0
  4  8  1  0  0  0  0
  5 12  1  0  0  0  0
  5  4  2  0  0  0  0
  6  7  2  0  0  0  0
  6  5  1  0  0  0  0
  7  3  1  0  0  0  0
  8 11  1  0  0  0  0
  8 10  1  0  0  0  0
  9  8  1  0  0  0  0
 12 14  1  0  0  0  0
 12 13  1  0  0  0  0
 15 12  1  0  0  0  0
 16 17  1  0  0  0  0
 16  6  1  0  0  0  0
 18 16  1  0  0  0  0
 19 16  1  0  0  0  0
 20 23  1  0  0  0  0
 20 22  1  0  0  0  0
 20  7  1  0  0  0  0
 21 20  1  0  0  0  0
 24 27  1  0  0  0  0
 24  2  1  0  0  0  0
 25 24  1  0  0  0  0
 26 24  1  0  0  0  0
 27 28  1  1  0  0  0
 27 38  1  0  0  0  0
 29 30  1  6  0  0  0
 29 31  1  0  0  0  0
 29 27  1  0  0  0  0
 31 32  1  6  0  0  0
 31 33  1  0  0  0  0
 31 45  1  0  0  0  0
 33 36  1  0  0  0  0
 34 33  1  0  0  0  0
 35 33  1  0  0  0  0
 36 38  1  0  0  0  0
 36 37  1  1  0  0  0
 38 39  1  0  0  0  0
 40 38  1  0  0  0  0
 41 29  1  0  0  0  0
 41 42  1  0  0  0  0
 43 41  1  0  0  0  0
 44 41  1  0  0  0  0
 45 36  1  0  0  0  0
 45 46  1  0  0  0  0
 45 50  1  0  0  0  0
 46 48  1  0  0  0  0
 47 46  1  0  0  0  0
 49 46  1  0  0  0  0
 50 52  1  0  0  0  0
 51 50  1  0  0  0  0
 53 50  1  0  0  0  0
 54 57  1  0  0  0  0
 54 55  1  0  0  0  0
 56 54  1  0  0  0  0
 58 60  1  0  0  0  0
 58  1  1  0  0  0  0
 59 58  1  0  0  0  0
 61 58  1  0  0  0  0
M  END
