1,3
q = -1.0, confidence = 0.0

 27 28  0  0  0  0  0  0  0  0999 V2000
   -2.5942   -0.5747   -0.2453 N   0  0  0  0  0  2  0  0  0  0  0  0
   -4.4233   -1.7143   -0.7293 N   0  0  0  0  0  0  0  0  0  0  0  0
   -0.8107   -2.5641   -0.1349 C   0  0  0  0  0  2  0  0  0  0  0  0
    0.1618   -3.5725   -0.0722 C   0  0  0  0  0  0  0  0  0  0  0  0
    1.2083   -3.3303    0.1634 H   0  0  0  0  0  0  0  0  0  0  0  0
   -0.1732   -4.9245   -0.2908 C   0  0  0  0  0  0  0  0  0  0  0  0
    0.6107   -5.6951   -0.2338 H   0  0  0  0  0  0  0  0  0  0  0  0
   -1.4959   -5.2843   -0.5741 C   0  0  0  0  0  0  0  0  0  0  0  0
   -1.7620   -6.3380   -0.7427 H   0  0  0  0  0  0  0  0  0  0  0  0
   -2.4905   -4.2972   -0.6425 C   0  0  0  0  0  0  0  0  0  0  0  0
   -3.5204   -4.6026   -0.8645 H   0  0  0  0  0  0  0  0  0  0  0  0
   -2.1625   -2.9414   -0.4280 C   0  0  0  0  0  0  0  0  0  0  0  0
   -3.0828   -1.8116   -0.4747 C   0  0  0  0  0  0  0  0  0  0  0  0
   -4.7858   -0.3649   -0.6608 C   0  0  0  0  0  0  0  0  0  0  0  0
   -3.6229    0.3379   -0.3570 C   0  0  0  0  0  0  0  0  0  0  0  0
   -5.3346   -2.8086   -1.0245 C   0  0  0  0  0  0  0  0  0  0  0  0
   -6.3490   -2.4032   -1.1769 H   0  0  0  0  0  0  0  0  0  0  0  0
   -5.3687   -3.5295   -0.1846 H   0  0  0  0  0  0  0  0  0  0  0  0
   -5.0275   -3.3392   -1.9468 H   0  0  0  0  0  0  0  0  0  0  0  0
   -6.1783    0.1171   -0.8828 C   0  0  0  0  0  0  0  0  0  0  0  0
   -6.5574   -0.1318   -1.8965 H   0  0  0  0  0  0  0  0  0  0  0  0
   -6.2121    1.2173   -0.7831 H   0  0  0  0  0  0  0  0  0  0  0  0
   -6.8944   -0.2999   -0.1433 H   0  0  0  0  0  0  0  0  0  0  0  0
   -3.4320    1.8034   -0.1634 C   0  0  0  0  0  0  0  0  0  0  0  0
   -2.6594    2.2029   -0.8527 H   0  0  0  0  0  0  0  0  0  0  0  0
   -3.1037    2.0387    0.8691 H   0  0  0  0  0  0  0  0  0  0  0  0
   -4.3693    2.3574   -0.3545 H   0  0  0  0  0  0  0  0  0  0  0  0
  2 14  1  0  0  0  0
  2 13  1  0  0  0  0
  3  4  1  0  0  0  0
  4  5  1  0  0  0  0
  6  7  1  0  0  0  0
  6  4  2  0  0  0  0
  8  6  1  0  0  0  0
  9  8  1  0  0  0  0
 10  8  2  0  0  0  0
 10 12  1  0  0  0  0
 11 10  1  0  0  0  0
 12  3  1  0  0  0  0
 13 12  2  0  0  0  0
 13  1  1  0  0  0  0
 14 15  2  0  0  0  0
 15  1  1  0  0  0  0
 15 24  1  0  0  0  0
 16  2  1  0  0  0  0
 16 18  1  0  0  0  0
 17 16  1  0  0  0  0
 19 16  1  0  0  0  0
 20 22  1  0  0  0  0
 20 14  1  0  0  0  0
 20 23  1  0  0  0  0
 21 20  1  0  0  0  0
 24 26  1  0  0  0  0
 25 24  1  0  0  0  0
 27 24  1  0  0  0  0
M  END
