1,12
q = 0.0, confidence = 0.766

 25 26  0  0  0  0  0  0  0  0999 V2000
   -0.5448    2.7063    0.1265 N   0  0  0  0  0  0  0  0  0  0  0  0
    0.7875    3.2601   -0.0464 C   0  0  0  0  0  0  0  0  0  0  0  0
    1.0423    4.6300   -0.1873 C   0  0  0  0  0  0  0  0  0  0  0  0
    0.2134    5.3531   -0.1897 H   0  0  0  0  0  0  0  0  0  0  0  0
    2.3649    5.0878   -0.3230 C   0  0  0  0  0  0  0  0  0  0  0  0
    2.5578    6.1656   -0.4353 H   0  0  0  0  0  0  0  0  0  0  0  0
    3.4367    4.1779   -0.3129 C   0  0  0  0  0  0  0  0  0  0  0  0
    4.4696    4.5430   -0.4184 H   0  0  0  0  0  0  0  0  0  0  0  0
    3.1861    2.8087   -0.1717 C   0  0  0  0  0  0  0  0  0  0  0  0
    4.0112    2.0789   -0.1678 H   0  0  0  0  0  0  0  0  0  0  0  0
    1.8589    2.3312   -0.0438 C   0  0  0  0  0  0  0  0  0  0  0  0
    1.5559    0.9126    0.0578 C   0  0  0  0  0  2  0  0  0  0  0  0
    2.4313    0.2395    0.1088 H   0  0  0  0  0  0  0  0  0  0  0  0
   -1.5424    3.1435   -0.8960 C   0  0  0  0  0  0  0  0  0  0  0  0
   -1.2798    2.7184   -1.8811 H   0  0  0  0  0  0  0  0  0  0  0  0
   -1.5481    4.2560   -0.9574 H   0  0  0  0  0  0  0  0  0  0  0  0
   -2.8623    2.6261   -0.3189 C   0  0  0  0  0  0  0  0  0  0  0  0
   -3.0226    1.5776   -0.6424 H   0  0  0  0  0  0  0  0  0  0  0  0
   -3.7237    3.2218   -0.6802 H   0  0  0  0  0  0  0  0  0  0  0  0
   -2.6633    2.7038    1.2201 C   0  0  0  0  0  0  0  0  0  0  0  0
   -3.3536    3.4200    1.7075 H   0  0  0  0  0  0  0  0  0  0  0  0
   -2.8142    1.7119    1.6886 H   0  0  0  0  0  0  0  0  0  0  0  0
   -1.2029    3.1454    1.3981 C   0  0  0  0  0  0  0  0  0  0  0  0
   -1.1244    4.2538    1.4770 H   0  0  0  0  0  0  0  0  0  0  0  0
   -0.6998    2.6785    2.2638 H   0  0  0  0  0  0  0  0  0  0  0  0
  1 23  1  0  0  0  0
  2 11  1  0  0  0  0
  2  1  1  0  0  0  0
  3  2  2  0  0  0  0
  4  3  1  0  0  0  0
  5  7  2  0  0  0  0
  5  3  1  0  0  0  0
  6  5  1  0  0  0  0
  7  9  1  0  0  0  0
  8  7  1  0  0  0  0
  9 10  1  0  0  0  0
  9 11  2  0  0  0  0
 11 12  1  0  0  0  0
 12 13  1  0  0  0  0
 14 17  1  0  0  0  0
 14  1  1  0  0  0  0
 15 14  1  0  0  0  0
 16 14  1  0  0  0  0
 17 20  1  0  0  0  0
 18 17  1  0  0  0  0
 19 17  1  0  0  0  0
 20 23  1  0  0  0  0
 20 22  1  0  0  0  0
 20 21  1  0  0  0  0
 23 24  1  0  0  0  0
 23 25  1  0  0  0  0
M  END
