2,3
q = -2.0, confidence = 0.756

 29 28  0  0  0  0  0  0  0  0999 V2000
    2.3755   -0.6624    1.6973 P   0  0  0  0  0  2  0  0  0  0  0  0
    0.6791   -0.2644    1.8759 N   0  0  0  0  0  2  0  0  0  0  0  0
    2.5096   -0.5658   -0.0097 C   0  0  0  0  0  2  0  0  0  0  0  0
    3.7334   -0.8797   -0.8404 C   0  0  0  0  0  0  0  0  0  0  0  0
    4.9842   -1.1741    0.0102 C   0  0  0  0  0  0  0  0  0  0  0  0
    5.8611   -1.3986   -0.6320 H   0  0  0  0  0  0  0  0  0  0  0  0
    4.8151   -2.0470    0.6743 H   0  0  0  0  0  0  0  0  0  0  0  0
    5.2409   -0.3049    0.6504 H   0  0  0  0  0  0  0  0  0  0  0  0
    4.0135    0.3277   -1.7647 C   0  0  0  0  0  0  0  0  0  0  0  0
    4.8607    0.1102   -2.4488 H   0  0  0  0  0  0  0  0  0  0  0  0
    4.2717    1.2297   -1.1742 H   0  0  0  0  0  0  0  0  0  0  0  0
    3.1191    0.5668   -2.3746 H   0  0  0  0  0  0  0  0  0  0  0  0
    3.4075   -2.1099   -1.7197 C   0  0  0  0  0  0  0  0  0  0  0  0
    4.2458   -2.3293   -2.4143 H   0  0  0  0  0  0  0  0  0  0  0  0
    2.4899   -1.9308   -2.3155 H   0  0  0  0  0  0  0  0  0  0  0  0
    3.2332   -3.0081   -1.0937 H   0  0  0  0  0  0  0  0  0  0  0  0
   -0.0311   -0.1213    3.1552 C   0  0  0  0  0  0  0  0  0  0  0  0
    0.7385   -0.7699    4.3178 C   0  0  0  0  0  0  0  0  0  0  0  0
    1.7219   -0.2819    4.4741 H   0  0  0  0  0  0  0  0  0  0  0  0
    0.9186   -1.8466    4.1221 H   0  0  0  0  0  0  0  0  0  0  0  0
    0.1582   -0.6809    5.2580 H   0  0  0  0  0  0  0  0  0  0  0  0
   -0.2452    1.3791    3.4445 C   0  0  0  0  0  0  0  0  0  0  0  0
    0.7269    1.8908    3.5936 H   0  0  0  0  0  0  0  0  0  0  0  0
   -0.8572    1.5284    4.3577 H   0  0  0  0  0  0  0  0  0  0  0  0
   -0.7628    1.8609    2.5908 H   0  0  0  0  0  0  0  0  0  0  0  0
   -1.4001   -0.8130    2.9938 C   0  0  0  0  0  0  0  0  0  0  0  0
   -1.2711   -1.9020    2.8372 H   0  0  0  0  0  0  0  0  0  0  0  0
   -1.9413   -0.4035    2.1186 H   0  0  0  0  0  0  0  0  0  0  0  0
   -2.0282   -0.6629    3.8956 H   0  0  0  0  0  0  0  0  0  0  0  0
  1  2  1  0  0  0  0
  2 17  1  0  0  0  0
  3  1  1  0  0  0  0
  4  3  1  0  0  0  0
  4  5  1  0  0  0  0
  5  8  1  0  0  0  0
  5  7  1  0  0  0  0
  6  5  1  0  0  0  0
  9 11  1  0  0  0  0
  9  4  1  0  0  0  0
 10  9  1  0  0  0  0
 12  9  1  0  0  0  0
 13 16  1  0  0  0  0
 13  4  1  0  0  0  0
 14 13  1  0  0  0  0
 15 13  1  0  0  0  0
 17 22  1  0  0  0  0
 17 18  1  0  0  0  0
 18 19  1  0  0  0  0
 18 21  1  0  0  0  0
 20 18  1  0  0  0  0
 22 23  1  0  0  0  0
 22 24  1  0  0  0  0
 25 22  1  0  0  0  0
 26 17  1  0  0  0  0
 26 29  1  0  0  0  0
 27 26  1  0  0  0  0
 28 26  1  0  0  0  0
M  END
