3
q = -2.0, confidence = 0.852

 42 43  0  0  1  0  0  0  0  0999 V2000
   -1.4792    0.8938    1.4820 Si  0  0  0  0  0  0  0  0  0  0  0  0
    2.9027   -2.0091    0.8818 O   0  0  0  0  0  0  0  0  0  0  0  0
   -1.6751    0.0980   -0.0962 N   0  0  0  0  0  2  0  0  0  0  0  0
    0.3676    0.5578    1.5073 C   0  0  1  0  0  3  0  0  0  0  0  0
    0.8477   -0.8006    1.6563 C   0  0  0  0  0  0  0  0  0  0  0  0
    2.0915   -0.9465    0.9847 C   0  0  0  0  0  0  0  0  0  0  0  0
    3.5491    0.7196   -0.3898 C   0  0  0  0  0  0  0  0  0  0  0  0
    3.6040    2.0341   -0.8276 C   0  0  0  0  0  0  0  0  0  0  0  0
    2.5763    2.9668   -0.4925 C   0  0  0  0  0  0  0  0  0  0  0  0
    1.4789    2.5988    0.2706 C   0  0  0  0  0  0  0  0  0  0  0  0
    1.3833    1.2570    0.7428 C   0  0  0  0  0  0  0  0  0  0  0  0
    2.4359    0.3229    0.3949 C   0  0  0  0  0  0  0  0  0  0  0  0
   -1.8972    2.7343    1.4883 C   0  0  0  0  0  0  0  0  0  0  0  0
   -2.3554    0.0189    2.9053 C   0  0  0  0  0  0  0  0  0  0  0  0
   -2.9331   -0.2173   -0.8187 C   0  0  0  0  0  0  0  0  0  0  0  0
   -3.9436    0.9270   -0.6129 C   0  0  0  0  0  0  0  0  0  0  0  0
   -3.5047   -1.5307   -0.2467 C   0  0  0  0  0  0  0  0  0  0  0  0
   -2.6681   -0.3822   -2.3256 C   0  0  0  0  0  0  0  0  0  0  0  0
    2.4559   -3.2166    1.4959 C   0  0  0  0  0  0  0  0  0  0  0  0
    0.3002   -1.6068    2.1586 H   0  0  0  0  0  0  0  0  0  0  0  0
    4.3337   -0.0088   -0.6388 H   0  0  0  0  0  0  0  0  0  0  0  0
    4.4524    2.3711   -1.4415 H   0  0  0  0  0  0  0  0  0  0  0  0
    2.6613    4.0033   -0.8519 H   0  0  0  0  0  0  0  0  0  0  0  0
    0.6992    3.3300    0.5235 H   0  0  0  0  0  0  0  0  0  0  0  0
   -1.3690    3.2379    2.3244 H   0  0  0  0  0  0  0  0  0  0  0  0
   -1.5939    3.2160    0.5383 H   0  0  0  0  0  0  0  0  0  0  0  0
   -2.9845    2.8999    1.6228 H   0  0  0  0  0  0  0  0  0  0  0  0
   -2.1282   -1.0656    2.9159 H   0  0  0  0  0  0  0  0  0  0  0  0
   -2.0297    0.4541    3.8729 H   0  0  0  0  0  0  0  0  0  0  0  0
   -3.4559    0.1350    2.8338 H   0  0  0  0  0  0  0  0  0  0  0  0
   -3.5342    1.8875   -0.9842 H   0  0  0  0  0  0  0  0  0  0  0  0
   -4.2080    1.0475    0.4582 H   0  0  0  0  0  0  0  0  0  0  0  0
   -4.8826    0.7155   -1.1630 H   0  0  0  0  0  0  0  0  0  0  0  0
   -3.7563   -1.4214    0.8269 H   0  0  0  0  0  0  0  0  0  0  0  0
   -2.7614   -2.3452   -0.3505 H   0  0  0  0  0  0  0  0  0  0  0  0
   -4.4276   -1.8229   -0.7883 H   0  0  0  0  0  0  0  0  0  0  0  0
   -1.9674   -1.2185   -2.5175 H   0  0  0  0  0  0  0  0  0  0  0  0
   -2.2266    0.5390   -2.7517 H   0  0  0  0  0  0  0  0  0  0  0  0
   -3.6163   -0.6024   -2.8562 H   0  0  0  0  0  0  0  0  0  0  0  0
    2.3316   -3.0805    2.5930 H   0  0  0  0  0  0  0  0  0  0  0  0
    1.4989   -3.5513    1.0459 H   0  0  0  0  0  0  0  0  0  0  0  0
    3.2396   -3.9720    1.3065 H   0  0  0  0  0  0  0  0  0  0  0  0
  1 13  1  0  0  0  0
  1 14  1  0  0  0  0
  2  6  1  0  0  0  0
  2 19  1  0  0  0  0
  3  1  1  0  0  0  0
  4  1  1  6  0  0  0
  4  5  1  0  0  0  0
  5 20  1  0  0  0  0
  6  5  2  0  0  0  0
  7 12  1  0  0  0  0
  8  9  1  0  0  0  0
  8  7  2  0  0  0  0
  9 10  2  0  0  0  0
 10 24  1  0  0  0  0
 10 11  1  0  0  0  0
 11  4  1  0  0  0  0
 12 11  2  0  0  0  0
 12  6  1  0  0  0  0
 13 27  1  0  0  0  0
 13 25  1  0  0  0  0
 14 28  1  0  0  0  0
 14 29  1  0  0  0  0
 15 16  1  0  0  0  0
 15 17  1  0  0  0  0
 15  3  1  0  0  0  0
 16 32  1  0  0  0  0
 17 34  1  0  0  0  0
 18 15  1  0  0  0  0
 19 40  1  0  0  0  0
 21  7  1  0  0  0  0
 22  8  1  0  0  0  0
 23  9  1  0  0  0  0
 26 13  1  0  0  0  0
 30 14  1  0  0  0  0
 31 16  1  0  0  0  0
 33 16  1  0  0  0  0
 35 17  1  0  0  0  0
 36 17  1  0  0  0  0
 37 18  1  0  0  0  0
 38 18  1  0  0  0  0
 39 18  1  0  0  0  0
 41 19  1  0  0  0  0
 42 19  1  0  0  0  0
M  END
