4,5
q = -1.0, confidence = 0.0

 27 28  0  0  0  0  0  0  0  0999 V2000
    0.6771    2.9512    3.7695 O   0  0  0  0  0  0  0  0  0  0  0  0
    2.5126    4.0690   -0.3140 O   0  0  0  0  0  0  0  0  0  0  0  0
    1.5962    3.4962    1.7178 N   0  0  0  0  0  4  0  0  0  0  0  0
    1.1077    0.2766   -1.7925 N   0  0  0  0  0  2  0  0  0  0  0  0
    0.6924    1.0203    0.6870 C   0  0  0  0  0  3  0  0  0  0  0  0
    0.4502    1.3782    2.0222 C   0  0  0  0  0  0  0  0  0  0  0  0
   -0.1020    0.7292    2.7149 H   0  0  0  0  0  0  0  0  0  0  0  0
    0.9222    2.6233    2.4802 C   0  0  0  0  0  0  0  0  0  0  0  0
    1.8307    3.1738    0.4456 C   0  0  0  0  0  0  0  0  0  0  0  0
    1.4109    1.9518   -0.1453 C   0  0  0  0  0  0  0  0  0  0  0  0
    1.6157    1.5324   -1.5239 C   0  0  0  0  0  0  0  0  0  0  0  0
    2.2354    2.2564   -2.5681 C   0  0  0  0  0  0  0  0  0  0  0  0
    2.6384    3.2496   -2.3434 H   0  0  0  0  0  0  0  0  0  0  0  0
    2.3131    1.7060   -3.8496 C   0  0  0  0  0  0  0  0  0  0  0  0
    2.7913    2.2745   -4.6615 H   0  0  0  0  0  0  0  0  0  0  0  0
    1.7730    0.4317   -4.0944 C   0  0  0  0  0  0  0  0  0  0  0  0
    1.8073   -0.0323   -5.0896 H   0  0  0  0  0  0  0  0  0  0  0  0
    1.1768   -0.2524   -3.0340 C   0  0  0  0  0  0  0  0  0  0  0  0
    0.7251   -1.2510   -3.1398 H   0  0  0  0  0  0  0  0  0  0  0  0
    1.1408    4.2180    4.2248 C   0  0  0  0  0  0  0  0  0  0  0  0
    0.8361    4.2883    5.2853 H   0  0  0  0  0  0  0  0  0  0  0  0
    0.6898    5.0490    3.6433 H   0  0  0  0  0  0  0  0  0  0  0  0
    2.2444    4.3028    4.1393 H   0  0  0  0  0  0  0  0  0  0  0  0
    2.9089    5.2895    0.3085 C   0  0  0  0  0  0  0  0  0  0  0  0
    3.4353    5.8674   -0.4735 H   0  0  0  0  0  0  0  0  0  0  0  0
    3.5839    5.1032    1.1687 H   0  0  0  0  0  0  0  0  0  0  0  0
    2.0308    5.8563    0.6797 H   0  0  0  0  0  0  0  0  0  0  0  0
  1 20  1  0  0  0  0
  2 24  1  0  0  0  0
  2  9  1  0  0  0  0
  3  8  2  0  0  0  0
  4 11  1  0  0  0  0
  5  6  2  0  0  0  0
  6  8  1  0  0  0  0
  6  7  1  0  0  0  0
  8  1  1  0  0  0  0
  9  3  2  0  0  0  0
 10  9  1  0  0  0  0
 10  5  1  0  0  0  0
 11 10  2  0  0  0  0
 12 13  1  0  0  0  0
 12 11  1  0  0  0  0
 14 12  2  0  0  0  0
 15 14  1  0  0  0  0
 16 14  1  0  0  0  0
 16 18  2  0  0  0  0
 17 16  1  0  0  0  0
 18  4  1  0  0  0  0
 19 18  1  0  0  0  0
 20 21  1  0  0  0  0
 22 20  1  0  0  0  0
 23 20  1  0  0  0  0
 24 27  1  0  0  0  0
 24 26  1  0  0  0  0
 25 24  1  0  0  0  0
M  END
