4,20
q = -1.0, confidence = 0.03

 47 50  0  0  1  0  0  0  0  0999 V2000
   -3.5969    1.7737   -3.5723 O   0  0  0  0  0  0  0  0  0  0  0  0
    7.1940   -2.0166   -2.9314 O   0  0  0  0  0  0  0  0  0  0  0  0
    1.1910    2.5693    0.6086 N   0  0  0  0  0  0  0  0  0  0  0  0
    1.9861    0.4357   -0.0915 N   0  0  0  0  0  2  0  0  0  0  0  0
    2.1799    1.6046    0.4763 C   0  0  2  0  0  3  0  0  0  0  0  0
    3.4030    2.1313    1.1269 C   0  0  0  0  0  0  0  0  0  0  0  0
    4.6942    1.5910    1.2856 C   0  0  0  0  0  0  0  0  0  0  0  0
    4.9686    0.6269    0.8421 H   0  0  0  0  0  0  0  0  0  0  0  0
    5.6343    2.3201    2.0283 C   0  0  0  0  0  0  0  0  0  0  0  0
    6.6480    1.9131    2.1572 H   0  0  0  0  0  0  0  0  0  0  0  0
    5.3032    3.5594    2.6075 C   0  0  0  0  0  0  0  0  0  0  0  0
    6.0596    4.1110    3.1858 H   0  0  0  0  0  0  0  0  0  0  0  0
    4.0161    4.0996    2.4505 C   0  0  0  0  0  0  0  0  0  0  0  0
    3.7541    5.0689    2.9012 H   0  0  0  0  0  0  0  0  0  0  0  0
    3.0806    3.3774    1.7046 C   0  0  0  0  0  0  0  0  0  0  0  0
    1.6642    3.7281    1.3658 C   0  0  0  0  0  0  0  0  0  0  0  0
    1.0260    3.9065    2.2597 H   0  0  0  0  0  0  0  0  0  0  0  0
    1.6272    4.6495    0.7451 H   0  0  0  0  0  0  0  0  0  0  0  0
    0.0106    2.6111   -0.1688 C   0  0  0  0  0  0  0  0  0  0  0  0
   -0.5543    1.4182   -0.6887 C   0  0  0  0  0  2  0  0  0  0  0  0
   -1.5645    1.5524   -1.6557 C   0  0  0  0  0  3  0  0  0  0  0  0
   -1.9998    0.6692   -2.1461 H   0  0  0  0  0  0  0  0  0  0  0  0
   -2.1221    2.7966   -2.0134 C   0  0  0  0  0  0  0  0  0  0  0  0
   -1.6436    3.9551   -1.3669 C   0  0  0  0  0  0  0  0  0  0  0  0
   -2.0812    4.9415   -1.5761 H   0  0  0  0  0  0  0  0  0  0  0  0
   -0.5788    3.8660   -0.4683 C   0  0  0  0  0  0  0  0  0  0  0  0
   -0.1919    4.7903   -0.0181 H   0  0  0  0  0  0  0  0  0  0  0  0
    3.1092   -0.3158   -0.5233 C   0  0  0  0  0  0  0  0  0  0  0  0
    3.7964    0.1007   -1.6862 C   0  0  0  0  0  0  0  0  0  0  0  0
    3.4278    0.9818   -2.2321 H   0  0  0  0  0  0  0  0  0  0  0  0
    4.9217   -0.5977   -2.1231 C   0  0  0  0  0  0  0  0  0  0  0  0
    5.4792   -0.2901   -3.0202 H   0  0  0  0  0  0  0  0  0  0  0  0
    5.3819   -1.7337   -1.4209 C   0  0  0  0  0  0  0  0  0  0  0  0
    4.6765   -2.1529   -0.2720 C   0  0  0  0  0  0  0  0  0  0  0  0
    5.0064   -3.0384    0.2903 H   0  0  0  0  0  0  0  0  0  0  0  0
    3.5474   -1.4586    0.1767 C   0  0  0  0  0  0  0  0  0  0  0  0
    2.9916   -1.7896    1.0614 H   0  0  0  0  0  0  0  0  0  0  0  0
   -3.2367    2.8063   -3.0125 C   0  0  0  0  0  0  0  0  0  0  0  0
   -3.9312    4.1280   -3.3007 C   0  0  0  0  0  0  0  0  0  0  0  0
   -4.7138    3.9613   -4.0620 H   0  0  0  0  0  0  0  0  0  0  0  0
   -3.2143    4.8909   -3.6673 H   0  0  0  0  0  0  0  0  0  0  0  0
   -4.3948    4.5320   -2.3769 H   0  0  0  0  0  0  0  0  0  0  0  0
    6.6002   -2.4383   -1.9434 C   0  0  0  0  0  0  0  0  0  0  0  0
    7.0767   -3.6871   -1.2199 C   0  0  0  0  0  0  0  0  0  0  0  0
    7.9746   -4.0750   -1.7328 H   0  0  0  0  0  0  0  0  0  0  0  0
    6.2878   -4.4671   -1.2126 H   0  0  0  0  0  0  0  0  0  0  0  0
    7.3224   -3.4667   -0.1607 H   0  0  0  0  0  0  0  0  0  0  0  0
  1 38  2  0  0  0  0
  2 43  2  0  0  0  0
  3 16  1  0  0  0  0
  5  4  1  1  0  0  0
  5  3  1  0  0  0  0
  5  6  1  0  0  0  0
  6  7  2  0  0  0  0
  6 15  1  0  0  0  0
  7  9  1  0  0  0  0
  8  7  1  0  0  0  0
  9 10  1  0  0  0  0
  9 11  2  0  0  0  0
 11 12  1  0  0  0  0
 13 11  1  0  0  0  0
 13 14  1  0  0  0  0
 15 13  2  0  0  0  0
 16 15  1  0  0  0  0
 16 17  1  0  0  0  0
 18 16  1  0  0  0  0
 19  3  1  0  0  0  0
 20 19  1  0  0  0  0
 21 20  1  0  0  0  0
 22 21  1  0  0  0  0
 23 21  1  0  0  0  0
 23 24  2  0  0  0  0
 24 26  1  0  0  0  0
 25 24  1  0  0  0  0
 26 19  2  0  0  0  0
 26 27  1  0  0  0  0
 28  4  1  0  0  0  0
 28 36  1  0  0  0  0
 29 28  2  0  0  0  0
 30 29  1  0  0  0  0
 31 29  1  0  0  0  0
 31 33  2  0  0  0  0
 32 31  1  0  0  0  0
 33 34  1  0  0  0  0
 34 36  2  0  0  0  0
 34 35  1  0  0  0  0
 36 37  1  0  0  0  0
 38 23  1  0  0  0  0
 39 38  1  0  0  0  0
 39 42  1  0  0  0  0
 40 39  1  0  0  0  0
 41 39  1  0  0  0  0
 43 33  1  0  0  0  0
 43 44  1  0  0  0  0
 44 46  1  0  0  0  0
 44 47  1  0  0  0  0
 45 44  1  0  0  0  0
M  END
