1,2
q = -1.0, confidence = 0.0

 34 34  0  0  1  0  0  0  0  0999 V2000
   -2.9389   -0.9625   -0.5776 N   0  0  0  0  0  0  0  0  0  0  0  0
   -1.4567    1.2676    0.1498 C   0  0  0  0  0  3  0  0  0  0  0  0
   -2.7532    1.4910   -0.3824 C   0  0  0  0  0  0  0  0  0  0  0  0
   -3.4054    2.7251   -0.2146 C   0  0  0  0  0  0  0  0  0  0  0  0
   -2.7996    3.7542    0.5215 C   0  0  0  0  0  0  0  0  0  0  0  0
   -1.5402    3.5324    1.0987 C   0  0  0  0  0  0  0  0  0  0  0  0
   -0.8808    2.3052    0.9126 C   0  0  0  0  0  0  0  0  0  0  0  0
   -3.3941    0.3635   -1.1593 C   0  0  1  0  0  0  0  0  0  0  0  0
   -3.0275    0.5236   -2.6435 C   0  0  0  0  0  0  0  0  0  0  0  0
   -3.0574   -2.0402   -1.5901 C   0  0  0  0  0  0  0  0  0  0  0  0
   -3.7054   -1.3635    0.7068 C   0  0  0  0  0  0  0  0  0  0  0  0
   -5.1173   -1.8815    0.3571 C   0  0  0  0  0  0  0  0  0  0  0  0
   -2.9133   -2.4643    1.4303 C   0  0  0  0  0  0  0  0  0  0  0  0
   -3.8593   -0.1955    1.6953 C   0  0  0  0  0  0  0  0  0  0  0  0
   -4.4097    2.8740   -0.6458 H   0  0  0  0  0  0  0  0  0  0  0  0
   -3.3151    4.7172    0.6569 H   0  0  0  0  0  0  0  0  0  0  0  0
   -1.0588    4.3213    1.6977 H   0  0  0  0  0  0  0  0  0  0  0  0
    0.1073    2.1777    1.3780 H   0  0  0  0  0  0  0  0  0  0  0  0
   -4.5045    0.4202   -1.0784 H   0  0  0  0  0  0  0  0  0  0  0  0
   -3.2773    1.5581   -2.9474 H   0  0  0  0  0  0  0  0  0  0  0  0
   -3.5713   -0.1698   -3.3122 H   0  0  0  0  0  0  0  0  0  0  0  0
   -1.9356    0.3848   -2.7853 H   0  0  0  0  0  0  0  0  0  0  0  0
   -4.0753   -2.0733   -2.0330 H   0  0  0  0  0  0  0  0  0  0  0  0
   -2.8121   -3.0099   -1.1294 H   0  0  0  0  0  0  0  0  0  0  0  0
   -2.3132   -1.8858   -2.3872 H   0  0  0  0  0  0  0  0  0  0  0  0
   -5.6825   -2.0441    1.2951 H   0  0  0  0  0  0  0  0  0  0  0  0
   -5.0952   -2.8454   -0.1850 H   0  0  0  0  0  0  0  0  0  0  0  0
   -5.6917   -1.1510   -0.2483 H   0  0  0  0  0  0  0  0  0  0  0  0
   -3.4942   -2.8075    2.3095 H   0  0  0  0  0  0  0  0  0  0  0  0
   -1.9373   -2.0734    1.7808 H   0  0  0  0  0  0  0  0  0  0  0  0
   -2.6967   -3.3420    0.7947 H   0  0  0  0  0  0  0  0  0  0  0  0
   -4.3459   -0.5930    2.6079 H   0  0  0  0  0  0  0  0  0  0  0  0
   -4.4920    0.6251    1.3108 H   0  0  0  0  0  0  0  0  0  0  0  0
   -2.8821    0.2328    1.9817 H   0  0  0  0  0  0  0  0  0  0  0  0
  1 11  1  0  0  0  0
  2  7  1  0  0  0  0
  3  4  1  0  0  0  0
  3  2  2  0  0  0  0
  4  5  2  0  0  0  0
  5 16  1  0  0  0  0
  5  6  1  0  0  0  0
  6 17  1  0  0  0  0
  7  6  2  0  0  0  0
  7 18  1  0  0  0  0
  8 19  1  1  0  0  0
  8  1  1  0  0  0  0
  8  3  1  0  0  0  0
  9  8  1  0  0  0  0
 10 24  1  0  0  0  0
 10  1  1  0  0  0  0
 11 13  1  0  0  0  0
 11 14  1  0  0  0  0
 12 11  1  0  0  0  0
 12 26  1  0  0  0  0
 13 30  1  0  0  0  0
 13 29  1  0  0  0  0
 14 34  1  0  0  0  0
 14 32  1  0  0  0  0
 15  4  1  0  0  0  0
 20  9  1  0  0  0  0
 21  9  1  0  0  0  0
 22  9  1  0  0  0  0
 23 10  1  0  0  0  0
 25 10  1  0  0  0  0
 27 12  1  0  0  0  0
 28 12  1  0  0  0  0
 31 13  1  0  0  0  0
 33 14  1  0  0  0  0
M  END
