1,3
q = -2.0, confidence = 0.758

 35 35  0  0  1  0  0  0  0  0999 V2000
    1.3538    0.0013    0.8246 N   0  0  0  0  0  2  0  0  0  0  0  0
    3.5757    0.0001    0.0826 N   0  0  0  0  0  0  0  0  0  0  0  0
    0.1906   -0.0010   -1.4887 C   0  0  1  0  0  3  0  0  0  0  0  0
   -0.6285   -1.1626   -1.3076 C   0  0  1  0  0  3  0  0  0  0  0  0
   -1.9677   -0.7160   -1.0358 C   0  0  0  0  0  0  0  0  0  0  0  0
   -1.9675    0.7150   -1.0367 C   0  0  0  0  0  0  0  0  0  0  0  0
   -0.6282    1.1610   -1.3089 C   0  0  2  0  0  3  0  0  0  0  0  0
    1.6917   -0.0012   -1.5828 C   0  0  0  0  0  0  0  0  0  0  0  0
    2.0572    0.8877   -2.1389 H   0  0  0  0  0  0  0  0  0  0  0  0
    2.0571   -0.8911   -2.1374 H   0  0  0  0  0  0  0  0  0  0  0  0
    2.2280    0.0001   -0.1444 C   0  0  0  0  0  0  0  0  0  0  0  0
    4.0735    0.0017    1.4493 C   0  0  0  0  0  0  0  0  0  0  0  0
    3.2031    0.0019    2.1310 H   0  0  0  0  0  0  0  0  0  0  0  0
    4.6960    0.9032    1.6360 H   0  0  0  0  0  0  0  0  0  0  0  0
    4.6971   -0.8987    1.6376 H   0  0  0  0  0  0  0  0  0  0  0  0
    4.5815   -0.0004   -0.9602 C   0  0  0  0  0  0  0  0  0  0  0  0
    4.1223   -0.0040   -1.9628 H   0  0  0  0  0  0  0  0  0  0  0  0
    5.2363   -0.8959   -0.8744 H   0  0  0  0  0  0  0  0  0  0  0  0
    5.2328    0.8981   -0.8791 H   0  0  0  0  0  0  0  0  0  0  0  0
   -0.1937   -2.5946   -1.3907 C   0  0  0  0  0  0  0  0  0  0  0  0
   -0.5217   -3.0552   -2.3475 H   0  0  0  0  0  0  0  0  0  0  0  0
   -0.6269   -3.1873   -0.5612 H   0  0  0  0  0  0  0  0  0  0  0  0
    0.9068   -2.6975   -1.3272 H   0  0  0  0  0  0  0  0  0  0  0  0
   -3.1466   -1.6175   -0.8384 C   0  0  0  0  0  0  0  0  0  0  0  0
   -4.0136   -1.0712   -0.4212 H   0  0  0  0  0  0  0  0  0  0  0  0
   -2.9039   -2.4408   -0.1376 H   0  0  0  0  0  0  0  0  0  0  0  0
   -3.4643   -2.0683   -1.8030 H   0  0  0  0  0  0  0  0  0  0  0  0
   -3.1464    1.6170   -0.8406 C   0  0  0  0  0  0  0  0  0  0  0  0
   -3.4649    2.0652   -1.8061 H   0  0  0  0  0  0  0  0  0  0  0  0
   -2.9033    2.4421   -0.1422 H   0  0  0  0  0  0  0  0  0  0  0  0
   -4.0129    1.0716   -0.4213 H   0  0  0  0  0  0  0  0  0  0  0  0
   -0.1930    2.5928   -1.3932 C   0  0  0  0  0  0  0  0  0  0  0  0
    0.9075    2.6954   -1.3297 H   0  0  0  0  0  0  0  0  0  0  0  0
   -0.6261    3.1863   -0.5642 H   0  0  0  0  0  0  0  0  0  0  0  0
   -0.5208    3.0528   -2.3503 H   0  0  0  0  0  0  0  0  0  0  0  0
  2 12  1  0  0  0  0
  3  8  1  1  0  0  0
  3  7  1  0  0  0  0
  3  4  1  0  0  0  0
  4 20  1  6  0  0  0
  4  5  1  0  0  0  0
  5 24  1  0  0  0  0
  6  5  2  0  0  0  0
  6 28  1  0  0  0  0
  7 32  1  6  0  0  0
  7  6  1  0  0  0  0
  8 11  1  0  0  0  0
  9  8  1  0  0  0  0
 10  8  1  0  0  0  0
 11  2  1  0  0  0  0
 11  1  2  0  0  0  0
 12 14  1  0  0  0  0
 12 15  1  0  0  0  0
 12 13  1  0  0  0  0
 16 19  1  0  0  0  0
 16 18  1  0  0  0  0
 16  2  1  0  0  0  0
 17 16  1  0  0  0  0
 20 23  1  0  0  0  0
 20 22  1  0  0  0  0
 21 20  1  0  0  0  0
 24 25  1  0  0  0  0
 24 26  1  0  0  0  0
 27 24  1  0  0  0  0
 28 31  1  0  0  0  0
 28 30  1  0  0  0  0
 29 28  1  0  0  0  0
 32 33  1  0  0  0  0
 32 34  1  0  0  0  0
 35 32  1  0  0  0  0
M  END
