6,7
q = -1.0, confidence = 0.0

 33 33  0  0  0  0  0  0  0  0999 V2000
   -0.5830    4.0251    1.5561 O   0  0  0  0  0  0  0  0  0  0  0  0
   -1.2835    3.7767    0.8997 H   0  0  0  0  0  0  0  0  0  0  0  0
    3.2567   -2.9127    0.0536 O   0  0  0  0  0  0  0  0  0  0  0  0
    5.3983   -1.2996   -0.2991 O   0  0  0  0  0  0  0  0  0  0  0  0
    4.9251    1.5569   -0.5762 O   0  0  0  0  0  0  0  0  0  0  0  0
    1.1003    2.9472   -0.5538 N   0  0  0  0  0  2  0  0  0  0  0  0
    1.4668    0.3230   -0.2302 C   0  0  0  0  0  2  0  0  0  0  0  0
    1.6886   -1.0488   -0.0567 C   0  0  0  0  0  0  0  0  0  0  0  0
    0.8516   -1.7412    0.0772 H   0  0  0  0  0  0  0  0  0  0  0  0
    2.9948   -1.5821   -0.0573 C   0  0  0  0  0  0  0  0  0  0  0  0
    4.1407   -0.7505   -0.2100 C   0  0  0  0  0  0  0  0  0  0  0  0
    3.9423    0.6389   -0.3763 C   0  0  0  0  0  0  0  0  0  0  0  0
    2.6142    1.1612   -0.3917 C   0  0  0  0  0  0  0  0  0  0  0  0
    2.3475    2.5671   -0.5249 C   0  0  0  0  0  0  0  0  0  0  0  0
    3.1681    3.3078   -0.5798 H   0  0  0  0  0  0  0  0  0  0  0  0
    0.7329    4.3487   -0.5264 C   0  0  0  0  0  0  0  0  0  0  0  0
    1.5694    4.9788   -0.9056 H   0  0  0  0  0  0  0  0  0  0  0  0
   -0.1453    4.4803   -1.1910 H   0  0  0  0  0  0  0  0  0  0  0  0
    0.3664    4.8192    0.8977 C   0  0  0  0  0  0  0  0  0  0  0  0
    1.2899    4.8113    1.5198 H   0  0  0  0  0  0  0  0  0  0  0  0
    0.0481    5.8914    0.8082 H   0  0  0  0  0  0  0  0  0  0  0  0
    2.1622   -3.8076    0.1832 C   0  0  0  0  0  0  0  0  0  0  0  0
    1.5698   -3.6082    1.1031 H   0  0  0  0  0  0  0  0  0  0  0  0
    2.5993   -4.8215    0.2417 H   0  0  0  0  0  0  0  0  0  0  0  0
    1.4817   -3.7533   -0.6952 H   0  0  0  0  0  0  0  0  0  0  0  0
    5.9011   -1.9231    0.8797 C   0  0  0  0  0  0  0  0  0  0  0  0
    5.9590   -1.2009    1.7268 H   0  0  0  0  0  0  0  0  0  0  0  0
    6.9223   -2.2764    0.6391 H   0  0  0  0  0  0  0  0  0  0  0  0
    5.2775   -2.7879    1.1850 H   0  0  0  0  0  0  0  0  0  0  0  0
    6.2667    1.3321   -0.1567 C   0  0  0  0  0  0  0  0  0  0  0  0
    6.3110    0.9833    0.8982 H   0  0  0  0  0  0  0  0  0  0  0  0
    6.7685    2.3165   -0.2269 H   0  0  0  0  0  0  0  0  0  0  0  0
    6.7877    0.5974   -0.8001 H   0  0  0  0  0  0  0  0  0  0  0  0
  2  1  1  0  0  0  0
  3 22  1  0  0  0  0
  4 11  1  0  0  0  0
  4 26  1  0  0  0  0
  5 12  1  0  0  0  0
  5 30  1  0  0  0  0
  6 16  1  0  0  0  0
  6 14  1  0  0  0  0
  7  8  1  0  0  0  0
  8  9  1  0  0  0  0
 10  8  2  0  0  0  0
 10  3  1  0  0  0  0
 11 10  1  0  0  0  0
 12 11  2  0  0  0  0
 13 12  1  0  0  0  0
 13  7  1  0  0  0  0
 14 13  2  0  0  0  0
 15 14  1  0  0  0  0
 16 19  1  0  0  0  0
 17 16  1  0  0  0  0
 18 16  1  0  0  0  0
 19 20  1  0  0  0  0
 19  1  1  0  0  0  0
 21 19  1  0  0  0  0
 22 24  1  0  0  0  0
 22 23  1  0  0  0  0
 25 22  1  0  0  0  0
 26 29  1  0  0  0  0
 26 27  1  0  0  0  0
 28 26  1  0  0  0  0
 30 31  1  0  0  0  0
 32 30  1  0  0  0  0
 33 30  1  0  0  0  0
M  END
