1,17
q = -1.0, confidence = 0.0

 23 23  0  0  0  0  0  0  0  0999 V2000
   -1.9229   -2.5902   -0.4249 N   0  0  0  0  0  2  0  0  0  0  0  0
   -3.1928   -2.3201   -0.4163 C   0  0  0  0  0  3  0  0  0  0  0  0
   -3.7374   -0.9739   -0.3554 C   0  0  0  0  0  0  0  0  0  0  0  0
   -5.0738   -0.7826    0.1104 C   0  0  0  0  0  0  0  0  0  0  0  0
   -5.9779   -1.9480    0.4387 C   0  0  0  0  0  0  0  0  0  0  0  0
   -5.5828   -2.5580    1.2776 H   0  0  0  0  0  0  0  0  0  0  0  0
   -6.1098   -2.6321   -0.4256 H   0  0  0  0  0  0  0  0  0  0  0  0
   -6.9828   -1.5916    0.7342 H   0  0  0  0  0  0  0  0  0  0  0  0
   -5.5411    0.5233    0.3073 C   0  0  0  0  0  0  0  0  0  0  0  0
   -4.7297    1.6502    0.0518 C   0  0  0  0  0  0  0  0  0  0  0  0
   -5.2580    3.0394    0.2984 C   0  0  0  0  0  0  0  0  0  0  0  0
   -4.5194    3.8144    0.0171 H   0  0  0  0  0  0  0  0  0  0  0  0
   -5.5154    3.1837    1.3688 H   0  0  0  0  0  0  0  0  0  0  0  0
   -6.1877    3.2249   -0.2792 H   0  0  0  0  0  0  0  0  0  0  0  0
   -3.4353    1.4433   -0.4484 C   0  0  0  0  0  0  0  0  0  0  0  0
   -2.9134    0.1529   -0.6827 C   0  0  0  0  0  0  0  0  0  0  0  0
   -1.5825    0.0063   -1.3164 C   0  0  0  0  0  3  0  0  0  0  0  0
   -1.1299    0.9918   -1.5214 H   0  0  0  0  0  0  0  0  0  0  0  0
   -1.6616   -0.5582   -2.2744 H   0  0  0  0  0  0  0  0  0  0  0  0
   -1.6628   -3.5869   -0.4030 H   0  0  0  0  0  0  0  0  0  0  0  0
   -3.9074   -3.1647   -0.3935 H   0  0  0  0  0  0  0  0  0  0  0  0
   -6.5660    0.6710    0.6842 H   0  0  0  0  0  0  0  0  0  0  0  0
   -2.8054    2.3117   -0.6976 H   0  0  0  0  0  0  0  0  0  0  0  0
  1  2  1  0  0  0  0
  1 20  1  0  0  0  0
  2 21  1  0  0  0  0
  2  3  1  0  0  0  0
  3  4  1  0  0  0  0
  4  9  2  0  0  0  0
  4  5  1  0  0  0  0
  5  8  1  0  0  0  0
  5  6  1  0  0  0  0
  7  5  1  0  0  0  0
  9 22  1  0  0  0  0
 10 11  1  0  0  0  0
 10  9  1  0  0  0  0
 11 13  1  0  0  0  0
 12 11  1  0  0  0  0
 14 11  1  0  0  0  0
 15 10  2  0  0  0  0
 16 15  1  0  0  0  0
 16  3  2  0  0  0  0
 17 16  1  0  0  0  0
 18 17  1  0  0  0  0
 19 17  1  0  0  0  0
 23 15  1  0  0  0  0
M  END
