1,3
q = -1.0, confidence = 0.002

 32 33  0  0  0  0  0  0  0  0999 V2000
    0.8451   -2.1483   -0.8277 N   0  0  0  0  0  2  0  0  0  0  0  0
   -6.4015   -2.9023   -1.6773 O   0  0  0  0  0  0  0  0  0  0  0  0
   -1.8209   -1.7254   -0.6463 C   0  0  0  0  0  2  0  0  0  0  0  0
   -3.2066   -1.5421   -0.5910 C   0  0  0  0  0  0  0  0  0  0  0  0
   -3.6564   -0.7105   -0.0275 H   0  0  0  0  0  0  0  0  0  0  0  0
   -4.0909   -2.4303   -1.2464 C   0  0  0  0  0  0  0  0  0  0  0  0
   -3.6008   -3.5270   -1.9825 C   0  0  0  0  0  0  0  0  0  0  0  0
   -4.3229   -4.1950   -2.4751 H   0  0  0  0  0  0  0  0  0  0  0  0
   -2.2225   -3.7320   -2.0608 C   0  0  0  0  0  0  0  0  0  0  0  0
   -1.8158   -4.5831   -2.6294 H   0  0  0  0  0  0  0  0  0  0  0  0
   -1.3414   -2.8426   -1.4027 C   0  0  0  0  0  0  0  0  0  0  0  0
    0.0966   -3.0223   -1.4361 C   0  0  0  0  0  0  0  0  0  0  0  0
    0.5406   -3.8960   -1.9478 H   0  0  0  0  0  0  0  0  0  0  0  0
    2.2933   -2.3194   -0.6731 C   0  0  0  0  0  0  0  0  0  0  0  0
    2.7349   -1.3039   -0.7878 H   0  0  0  0  0  0  0  0  0  0  0  0
    2.9704   -3.2357   -1.6999 C   0  0  0  0  0  0  0  0  0  0  0  0
    2.7505   -2.8811   -2.7293 H   0  0  0  0  0  0  0  0  0  0  0  0
    2.5643   -4.2676   -1.6146 H   0  0  0  0  0  0  0  0  0  0  0  0
    4.4840   -3.2878   -1.4457 C   0  0  0  0  0  0  0  0  0  0  0  0
    4.9665   -3.9423   -2.1995 H   0  0  0  0  0  0  0  0  0  0  0  0
    4.9154   -2.2722   -1.5912 H   0  0  0  0  0  0  0  0  0  0  0  0
    4.7909   -3.7769   -0.0249 C   0  0  0  0  0  0  0  0  0  0  0  0
    5.8859   -3.7859    0.1512 H   0  0  0  0  0  0  0  0  0  0  0  0
    4.4496   -4.8310    0.0794 H   0  0  0  0  0  0  0  0  0  0  0  0
    4.0926   -2.9050    1.0252 C   0  0  0  0  0  0  0  0  0  0  0  0
    4.5362   -1.8875    1.0133 H   0  0  0  0  0  0  0  0  0  0  0  0
    4.2629   -3.3051    2.0456 H   0  0  0  0  0  0  0  0  0  0  0  0
    2.5857   -2.7946    0.7660 C   0  0  0  0  0  0  0  0  0  0  0  0
    2.0933   -3.7834    0.9006 H   0  0  0  0  0  0  0  0  0  0  0  0
    2.1082   -2.0994    1.4883 H   0  0  0  0  0  0  0  0  0  0  0  0
   -5.5611   -2.2005   -1.1460 C   0  0  0  0  0  0  0  0  0  0  0  0
   -5.8484   -1.3022   -0.5194 H   0  0  0  0  0  0  0  0  0  0  0  0
  1 14  1  0  0  0  0
  2 31  2  0  0  0  0
  3  4  1  0  0  0  0
  4  5  1  0  0  0  0
  6 31  1  0  0  0  0
  6  4  2  0  0  0  0
  7  6  1  0  0  0  0
  8  7  1  0  0  0  0
  9  7  2  0  0  0  0
  9 11  1  0  0  0  0
 10  9  1  0  0  0  0
 11  3  1  0  0  0  0
 12 11  2  0  0  0  0
 12  1  1  0  0  0  0
 13 12  1  0  0  0  0
 14 28  1  0  0  0  0
 15 14  1  0  0  0  0
 16 18  1  0  0  0  0
 16 19  1  0  0  0  0
 16 14  1  0  0  0  0
 17 16  1  0  0  0  0
 19 22  1  0  0  0  0
 20 19  1  0  0  0  0
 21 19  1  0  0  0  0
 22 24  1  0  0  0  0
 22 23  1  0  0  0  0
 22 25  1  0  0  0  0
 25 27  1  0  0  0  0
 26 25  1  0  0  0  0
 28 29  1  0  0  0  0
 28 25  1  0  0  0  0
 28 30  1  0  0  0  0
 31 32  1  0  0  0  0
M  END
