4,23
q = -2.0, confidence = 0.836

 29 29  0  0  1  0  0  0  0  0999 V2000
   -2.4113   -0.1633   -1.4331 Si  0  0  0  0  0  0  0  0  0  0  0  0
   -2.5367    1.3435    1.2501 Si  0  0  0  0  0  0  0  0  0  0  0  0
   -1.6930    1.5821    2.4745 H   0  0  0  0  0  0  0  0  0  0  0  0
   -1.6569    0.3410    0.0950 N   0  0  0  0  0  2  0  0  0  0  0  0
   -4.0613   -1.0595   -1.2123 C   0  0  0  0  0  0  0  0  0  0  0  0
   -4.0251   -1.7862   -0.3765 H   0  0  0  0  0  0  0  0  0  0  0  0
   -4.3020   -1.6123   -2.1442 H   0  0  0  0  0  0  0  0  0  0  0  0
   -4.8933   -0.3543   -1.0149 H   0  0  0  0  0  0  0  0  0  0  0  0
   -2.6260    1.1870   -2.7347 C   0  0  0  0  0  0  0  0  0  0  0  0
   -3.3179    1.9819   -2.3914 H   0  0  0  0  0  0  0  0  0  0  0  0
   -3.0529    0.7388   -3.6559 H   0  0  0  0  0  0  0  0  0  0  0  0
   -1.6633    1.6661   -2.9976 H   0  0  0  0  0  0  0  0  0  0  0  0
   -4.1558    0.5585    1.8554 C   0  0  0  0  0  0  0  0  0  0  0  0
   -4.9386    0.5726    1.0714 H   0  0  0  0  0  0  0  0  0  0  0  0
   -4.5382    1.1340    2.7242 H   0  0  0  0  0  0  0  0  0  0  0  0
   -4.0229   -0.4939    2.1774 H   0  0  0  0  0  0  0  0  0  0  0  0
   -2.9553    3.0429    0.5256 C   0  0  0  0  0  0  0  0  0  0  0  0
   -2.0480    3.5637    0.1614 H   0  0  0  0  0  0  0  0  0  0  0  0
   -3.4288    3.6763    1.3041 H   0  0  0  0  0  0  0  0  0  0  0  0
   -3.6668    2.9613   -0.3212 H   0  0  0  0  0  0  0  0  0  0  0  0
    0.2309   -1.0126   -2.3755 C   0  0  0  0  0  0  0  0  0  0  0  0
    0.4733   -0.0983   -2.9305 H   0  0  0  0  0  0  0  0  0  0  0  0
   -1.0690   -1.3814   -1.8993 C   0  0  1  0  0  3  0  0  0  0  0  0
   -0.9051   -2.6051   -1.1687 C   0  0  0  0  0  0  0  0  0  0  0  0
   -1.7079   -3.1474   -0.6529 H   0  0  0  0  0  0  0  0  0  0  0  0
    0.4697   -2.9726   -1.1925 C   0  0  0  0  0  0  0  0  0  0  0  0
    0.9132   -3.8705   -0.7442 H   0  0  0  0  0  0  0  0  0  0  0  0
    1.1677   -1.9921   -1.9528 C   0  0  0  0  0  0  0  0  0  0  0  0
    2.2409   -2.0002   -2.1715 H   0  0  0  0  0  0  0  0  0  0  0  0
  1  5  1  0  0  0  0
  1  4  1  0  0  0  0
  2 13  1  0  0  0  0
  2  3  1  0  0  0  0
  4  2  1  0  0  0  0
  5  8  1  0  0  0  0
  5  6  1  0  0  0  0
  7  5  1  0  0  0  0
  9 10  1  0  0  0  0
  9  1  1  0  0  0  0
 11  9  1  0  0  0  0
 12  9  1  0  0  0  0
 13 16  1  0  0  0  0
 13 15  1  0  0  0  0
 14 13  1  0  0  0  0
 17  2  1  0  0  0  0
 17 19  1  0  0  0  0
 18 17  1  0  0  0  0
 20 17  1  0  0  0  0
 21 28  2  0  0  0  0
 21 23  1  0  0  0  0
 22 21  1  0  0  0  0
 23  1  1  1  0  0  0
 23 24  1  0  0  0  0
 24 25  1  0  0  0  0
 26 24  2  0  0  0  0
 26 27  1  0  0  0  0
 28 26  1  0  0  0  0
 29 28  1  0  0  0  0
M  END
