31,32
q = 0.0, confidence = 0.986

 34 36  0  0  1  0  0  0  0  0999 V2000
    1.8640    2.1016   -1.9457 C   0  0  0  0  0  3  0  0  0  0  0  0
    1.3349    1.7164   -2.8298 H   0  0  0  0  0  0  0  0  0  0  0  0
    2.4751    3.3599   -1.9227 C   0  0  0  0  0  0  0  0  0  0  0  0
    2.4628    3.9816   -2.8287 H   0  0  0  0  0  0  0  0  0  0  0  0
    3.0823    3.7982   -0.7394 C   0  0  0  0  0  0  0  0  0  0  0  0
    3.5719    4.7819   -0.6894 H   0  0  0  0  0  0  0  0  0  0  0  0
    3.0492    2.9648    0.3888 C   0  0  0  0  0  0  0  0  0  0  0  0
    3.4994    3.2823    1.3404 H   0  0  0  0  0  0  0  0  0  0  0  0
    2.4207    1.7165    0.3059 C   0  0  0  0  0  0  0  0  0  0  0  0
    2.2921    0.8050    1.5165 C   0  0  1  0  0  0  0  0  0  0  0  0
    2.9694    1.1977    2.3019 H   0  0  0  0  0  0  0  0  0  0  0  0
    0.8625    0.7454    2.0714 C   0  0  0  0  0  0  0  0  0  0  0  0
   -0.0561    1.7837    1.8232 C   0  0  0  0  0  0  0  0  0  0  0  0
    0.2251    2.6367    1.1885 H   0  0  0  0  0  0  0  0  0  0  0  0
   -1.3468    1.7337    2.3718 C   0  0  0  0  0  0  0  0  0  0  0  0
   -2.0616    2.5412    2.1577 H   0  0  0  0  0  0  0  0  0  0  0  0
   -1.7328    0.6503    3.1747 C   0  0  0  0  0  0  0  0  0  0  0  0
   -2.7506    0.6068    3.5886 H   0  0  0  0  0  0  0  0  0  0  0  0
   -0.8173   -0.3821    3.4334 C   0  0  0  0  0  0  0  0  0  0  0  0
   -1.1098   -1.2331    4.0665 H   0  0  0  0  0  0  0  0  0  0  0  0
    0.4735   -0.3355    2.8868 C   0  0  0  0  0  0  0  0  0  0  0  0
    1.1802   -1.1533    3.0960 H   0  0  0  0  0  0  0  0  0  0  0  0
    3.7954   -1.2393    1.8388 C   0  0  0  0  0  0  0  0  0  0  0  0
    4.3356   -0.8369    2.7012 H   0  0  0  0  0  0  0  0  0  0  0  0
    3.9113   -2.4393    1.1855 C   0  0  0  0  0  0  0  0  0  0  0  0
    4.5798   -3.2873    1.3630 H   0  0  0  0  0  0  0  0  0  0  0  0
    2.8078   -3.5089   -0.8116 C   0  0  0  0  0  0  0  0  0  0  0  0
    2.3025   -3.1069   -1.7078 H   0  0  0  0  0  0  0  0  0  0  0  0
    2.2106   -4.3358   -0.3772 H   0  0  0  0  0  0  0  0  0  0  0  0
    3.7959   -3.9032   -1.1137 H   0  0  0  0  0  0  0  0  0  0  0  0
    2.2789   -1.2581    0.1468 C   0  0  0  0  0  2  0  0  0  0  0  0
    1.8512    1.3025   -0.8542 N   0  0  0  0  0  2  0  0  0  0  0  0
    2.7939   -0.5366    1.1841 N   0  0  0  0  0  0  0  0  0  0  0  0
    2.9810   -2.4274    0.1494 N   0  0  0  0  0  0  0  0  0  0  0  0
  1  3  1  0  0  0  0
  1 32  1  0  0  0  0
  2  1  1  0  0  0  0
  3  5  2  0  0  0  0
  4  3  1  0  0  0  0
  5  6  1  0  0  0  0
  5  7  1  0  0  0  0
  7  8  1  0  0  0  0
  9  7  2  0  0  0  0
  9 10  1  0  0  0  0
 10 12  1  0  0  0  0
 10 11  1  1  0  0  0
 12 21  1  0  0  0  0
 13 12  2  0  0  0  0
 13 15  1  0  0  0  0
 14 13  1  0  0  0  0
 15 17  2  0  0  0  0
 16 15  1  0  0  0  0
 17 19  1  0  0  0  0
 17 18  1  0  0  0  0
 19 20  1  0  0  0  0
 21 22  1  0  0  0  0
 21 19  2  0  0  0  0
 23 24  1  0  0  0  0
 25 26  1  0  0  0  0
 25 23  2  0  0  0  0
 27 29  1  0  0  0  0
 27 34  1  0  0  0  0
 28 27  1  0  0  0  0
 30 27  1  0  0  0  0
 31 34  1  0  0  0  0
 31 33  1  0  0  0  0
 32  9  1  0  0  0  0
 33 10  1  0  0  0  0
 33 23  1  0  0  0  0
 34 25  1  0  0  0  0
M  END
