8,16
q = 0.0, confidence = 0.944

 41 41  0  0  1  0  0  0  0  0999 V2000
    0.9543    2.6633   -0.8680 O   0  0  0  0  0  0  0  0  0  0  0  0
    2.3484   -0.3537    1.6133 O   0  0  0  0  0  0  0  0  0  0  0  0
    1.4301    1.7172    1.7977 O   0  0  0  0  0  0  0  0  0  0  0  0
    1.3398   -3.1162   -0.1774 O   0  0  0  0  0  0  0  0  0  0  0  0
    2.7410   -1.6457   -1.1858 O   0  0  0  0  0  0  0  0  0  0  0  0
    0.1674   -1.1439   -3.1489 O   0  0  0  0  0  0  0  0  0  0  0  0
    0.2071    0.9228   -2.2197 O   0  0  0  0  0  0  0  0  0  0  0  0
   -1.9652    0.8114   -0.3148 N   0  0  0  0  0  2  0  0  0  0  0  0
   -4.0228    2.2271   -0.0135 C   0  0  0  0  0  0  0  0  0  0  0  0
   -3.4453    0.8667   -0.4073 C   0  0  0  0  0  0  0  0  0  0  0  0
   -3.8599    0.4244   -1.8160 C   0  0  0  0  0  0  0  0  0  0  0  0
   -1.2460    1.7999   -0.7144 C   0  0  0  0  0  3  0  0  0  0  0  0
    0.2208    1.5070   -0.8747 C   0  0  2  0  0  0  0  0  0  0  0  0
    2.3434    2.5155   -1.2202 C   0  0  0  0  0  0  0  0  0  0  0  0
    3.1018    3.7009   -0.6602 C   0  0  0  0  0  0  0  0  0  0  0  0
    0.6625    0.3392    0.0513 C   0  0  2  0  0  3  0  0  0  0  0  0
    1.5773    0.5025    1.2034 C   0  0  0  0  0  0  0  0  0  0  0  0
    2.2325    1.9204    2.9659 C   0  0  0  0  0  0  0  0  0  0  0  0
    0.5936   -0.8583   -0.7520 C   0  0  2  0  0  3  0  0  0  0  0  0
    1.5593   -2.0152   -0.6407 C   0  0  0  0  0  0  0  0  0  0  0  0
    3.7800   -2.6305   -1.1115 C   0  0  0  0  0  0  0  0  0  0  0  0
    0.2936   -0.4619   -2.1612 C   0  0  0  0  0  0  0  0  0  0  0  0
   -5.1270    2.1567    0.0321 H   0  0  0  0  0  0  0  0  0  0  0  0
   -3.7767    3.0199   -0.7485 H   0  0  0  0  0  0  0  0  0  0  0  0
   -3.6564    2.5411    0.9840 H   0  0  0  0  0  0  0  0  0  0  0  0
   -3.8080    0.1131    0.3188 H   0  0  0  0  0  0  0  0  0  0  0  0
   -4.9627    0.3406   -1.8763 H   0  0  0  0  0  0  0  0  0  0  0  0
   -3.4238   -0.5585   -2.0779 H   0  0  0  0  0  0  0  0  0  0  0  0
   -3.5216    1.1621   -2.5718 H   0  0  0  0  0  0  0  0  0  0  0  0
   -1.6560    2.7536   -1.0931 H   0  0  0  0  0  0  0  0  0  0  0  0
    2.4235    2.4611   -2.3277 H   0  0  0  0  0  0  0  0  0  0  0  0
    2.7411    1.5550   -0.8228 H   0  0  0  0  0  0  0  0  0  0  0  0
    4.1679    3.6490   -0.9570 H   0  0  0  0  0  0  0  0  0  0  0  0
    3.0409    3.7166    0.4455 H   0  0  0  0  0  0  0  0  0  0  0  0
    2.6807    4.6513   -1.0442 H   0  0  0  0  0  0  0  0  0  0  0  0
    2.0056    2.9426    3.3173 H   0  0  0  0  0  0  0  0  0  0  0  0
    3.3114    1.8224    2.7297 H   0  0  0  0  0  0  0  0  0  0  0  0
    1.9818    1.1772    3.7498 H   0  0  0  0  0  0  0  0  0  0  0  0
    4.6473   -2.2009   -1.6433 H   0  0  0  0  0  0  0  0  0  0  0  0
    3.4596   -3.5780   -1.5883 H   0  0  0  0  0  0  0  0  0  0  0  0
    4.0359   -2.8335   -0.0521 H   0  0  0  0  0  0  0  0  0  0  0  0
  3 18  1  0  0  0  0
  5 21  1  0  0  0  0
  5 20  1  0  0  0  0
  6 22  2  0  0  0  0
  7 22  1  0  0  0  0
  7 13  1  0  0  0  0
  9 23  1  0  0  0  0
  9 25  1  0  0  0  0
 10  8  1  0  0  0  0
 10  9  1  0  0  0  0
 10 26  1  0  0  0  0
 11 10  1  0  0  0  0
 12  8  1  0  0  0  0
 13  1  1  1  0  0  0
 13 12  1  0  0  0  0
 13 16  1  0  0  0  0
 14  1  1  0  0  0  0
 14 32  1  0  0  0  0
 14 15  1  0  0  0  0
 15 34  1  0  0  0  0
 16 17  1  6  0  0  0
 17  2  2  0  0  0  0
 17  3  1  0  0  0  0
 18 36  1  0  0  0  0
 18 38  1  0  0  0  0
 19 20  1  6  0  0  0
 19 16  1  0  0  0  0
 20  4  2  0  0  0  0
 21 41  1  0  0  0  0
 22 19  1  0  0  0  0
 24  9  1  0  0  0  0
 27 11  1  0  0  0  0
 28 11  1  0  0  0  0
 29 11  1  0  0  0  0
 30 12  1  0  0  0  0
 31 14  1  0  0  0  0
 33 15  1  0  0  0  0
 35 15  1  0  0  0  0
 37 18  1  0  0  0  0
 39 21  1  0  0  0  0
 40 21  1  0  0  0  0
M  END
