1,6
q = -1.0, confidence = 0.002

 28 29  0  0  1  0  0  0  0  0999 V2000
    1.0313   -1.0868   -0.0260 N   0  0  0  0  0  2  0  0  0  0  0  0
    1.4944   -2.0039    0.0493 H   0  0  0  0  0  0  0  0  0  0  0  0
   -1.1512    4.6926   -0.1914 O   0  0  0  0  0  0  0  0  0  0  0  0
   -1.0474    2.2460   -0.0446 C   0  0  0  0  0  0  0  0  0  0  0  0
   -2.1421    2.1567    0.0257 H   0  0  0  0  0  0  0  0  0  0  0  0
   -0.2683    1.0655   -0.0296 C   0  0  0  0  0  3  0  0  0  0  0  0
    1.1629    1.2231   -0.1172 C   0  0  0  0  0  0  0  0  0  0  0  0
    1.7487    2.5025   -0.2766 C   0  0  0  0  0  0  0  0  0  0  0  0
    2.8378    2.6036   -0.4004 H   0  0  0  0  0  0  0  0  0  0  0  0
   -0.4539    3.5197   -0.1695 C   0  0  0  0  0  0  0  0  0  0  0  0
    3.3266   -0.2468   -0.0746 C   0  0  0  0  0  0  0  0  0  0  0  0
    0.9517    3.6459   -0.2991 C   0  0  0  0  0  0  0  0  0  0  0  0
    1.3803    4.6505   -0.4208 H   0  0  0  0  0  0  0  0  0  0  0  0
    4.1806    0.5709    0.7050 C   0  0  0  0  0  0  0  0  0  0  0  0
    3.7460    1.3761    1.3145 H   0  0  0  0  0  0  0  0  0  0  0  0
    6.1240   -0.7122   -0.0073 C   0  0  0  0  0  0  0  0  0  0  0  0
    7.2097   -0.8899    0.0169 H   0  0  0  0  0  0  0  0  0  0  0  0
    5.5618    0.3382    0.7370 C   0  0  0  0  0  0  0  0  0  0  0  0
    6.2064    0.9793    1.3577 H   0  0  0  0  0  0  0  0  0  0  0  0
    1.8648   -0.0519   -0.0794 C   0  0  1  0  0  3  0  0  0  0  0  0
    3.9086   -1.3031   -0.8179 C   0  0  0  0  0  0  0  0  0  0  0  0
    3.2649   -1.9337   -1.4510 H   0  0  0  0  0  0  0  0  0  0  0  0
   -2.5590    4.6372   -0.0750 C   0  0  0  0  0  0  0  0  0  0  0  0
   -3.0248    4.0667   -0.9102 H   0  0  0  0  0  0  0  0  0  0  0  0
   -2.9187    5.6827   -0.1088 H   0  0  0  0  0  0  0  0  0  0  0  0
   -2.8802    4.1739    0.8852 H   0  0  0  0  0  0  0  0  0  0  0  0
    5.2896   -1.5334   -0.7834 C   0  0  0  0  0  0  0  0  0  0  0  0
    5.7208   -2.3541   -1.3770 H   0  0  0  0  0  0  0  0  0  0  0  0
  1  2  1  0  0  0  0
  3 10  1  0  0  0  0
  3 23  1  0  0  0  0
  4  6  1  0  0  0  0
  4  5  1  0  0  0  0
  7 20  1  0  0  0  0
  7  6  2  0  0  0  0
  8  7  1  0  0  0  0
  9  8  1  0  0  0  0
 10  4  2  0  0  0  0
 11 14  1  0  0  0  0
 12  8  2  0  0  0  0
 12 10  1  0  0  0  0
 13 12  1  0  0  0  0
 14 18  2  0  0  0  0
 14 15  1  0  0  0  0
 16 17  1  0  0  0  0
 16 18  1  0  0  0  0
 18 19  1  0  0  0  0
 20 11  1  0  0  0  0
 20  1  1  1  0  0  0
 21 27  1  0  0  0  0
 21 11  2  0  0  0  0
 22 21  1  0  0  0  0
 23 26  1  0  0  0  0
 24 23  1  0  0  0  0
 25 23  1  0  0  0  0
 27 16  2  0  0  0  0
 28 27  1  0  0  0  0
M  END
