1,2
q = -2.0, confidence = 0.914

 27 28  0  0  1  0  0  0  0  0999 V2000
   -0.4615    0.6518    0.0379 N   0  0  0  0  0  2  0  0  0  0  0  0
    1.4878    1.7122   -0.3023 C   0  0  1  0  0  3  0  0  0  0  0  0
    2.2887    1.3139    0.8131 C   0  0  0  0  0  0  0  0  0  0  0  0
    2.0958    1.5606    1.8639 H   0  0  0  0  0  0  0  0  0  0  0  0
    3.2757    0.3995    0.3466 C   0  0  0  0  0  0  0  0  0  0  0  0
    4.0159   -0.1192    0.9674 H   0  0  0  0  0  0  0  0  0  0  0  0
    3.1069    0.2484   -1.0623 C   0  0  0  0  0  0  0  0  0  0  0  0
    3.6917   -0.4103   -1.7157 H   0  0  0  0  0  0  0  0  0  0  0  0
    2.0155    1.0686   -1.4646 C   0  0  0  0  0  0  0  0  0  0  0  0
    1.5623    1.0945   -2.4637 H   0  0  0  0  0  0  0  0  0  0  0  0
    0.0016    2.0258   -0.1742 C   0  0  2  0  0  0  0  0  0  0  0  0
   -0.3732    2.4275   -1.1450 H   0  0  0  0  0  0  0  0  0  0  0  0
   -0.3632    2.9883    0.9546 C   0  0  0  0  0  0  0  0  0  0  0  0
   -1.4602    3.1154    1.0260 H   0  0  0  0  0  0  0  0  0  0  0  0
    0.0959    3.9813    0.7784 H   0  0  0  0  0  0  0  0  0  0  0  0
   -0.0102    2.5995    1.9300 H   0  0  0  0  0  0  0  0  0  0  0  0
   -1.8107    0.2950    0.0198 C   0  0  0  0  0  0  0  0  0  0  0  0
   -2.2013   -0.9758    0.5158 C   0  0  0  0  0  0  0  0  0  0  0  0
   -1.4388   -1.6359    0.9556 H   0  0  0  0  0  0  0  0  0  0  0  0
   -3.5408   -1.3725    0.4741 C   0  0  0  0  0  0  0  0  0  0  0  0
   -3.8204   -2.3624    0.8659 H   0  0  0  0  0  0  0  0  0  0  0  0
   -4.5266   -0.5180   -0.0497 C   0  0  0  0  0  0  0  0  0  0  0  0
   -5.5801   -0.8330   -0.0764 H   0  0  0  0  0  0  0  0  0  0  0  0
   -4.1510    0.7446   -0.5343 C   0  0  0  0  0  0  0  0  0  0  0  0
   -4.9114    1.4248   -0.9479 H   0  0  0  0  0  0  0  0  0  0  0  0
   -2.8113    1.1535   -0.5041 C   0  0  0  0  0  0  0  0  0  0  0  0
   -2.5395    2.1399   -0.9052 H   0  0  0  0  0  0  0  0  0  0  0  0
  2 11  1  1  0  0  0
  2  3  1  0  0  0  0
  3  4  1  0  0  0  0
  5  3  2  0  0  0  0
  5  6  1  0  0  0  0
  7  5  1  0  0  0  0
  8  7  1  0  0  0  0
  9  7  2  0  0  0  0
  9  2  1  0  0  0  0
 10  9  1  0  0  0  0
 11 12  1  6  0  0  0
 11  1  1  0  0  0  0
 11 13  1  0  0  0  0
 13 14  1  0  0  0  0
 13 16  1  0  0  0  0
 15 13  1  0  0  0  0
 17  1  1  0  0  0  0
 17 18  1  0  0  0  0
 18 19  1  0  0  0  0
 20 18  2  0  0  0  0
 20 21  1  0  0  0  0
 22 20  1  0  0  0  0
 23 22  1  0  0  0  0
 24 26  1  0  0  0  0
 24 22  2  0  0  0  0
 25 24  1  0  0  0  0
 26 17  2  0  0  0  0
 27 26  1  0  0  0  0
M  END
