2,3
q = -1.0, confidence = 0.0

 30 32  0  0  0  0  0  0  0  0999 V2000
   -7.7223   -0.7279   -0.5884 O   0  0  0  0  0  0  0  0  0  0  0  0
   -1.8521    0.2364    0.8610 N   0  0  0  0  0  2  0  0  0  0  0  0
   -0.8799   -1.1404   -1.1115 C   0  0  0  0  0  3  0  0  0  0  0  0
   -0.2583   -1.9789   -2.0618 C   0  0  0  0  0  0  0  0  0  0  0  0
    0.8203   -1.8693   -2.2522 H   0  0  0  0  0  0  0  0  0  0  0  0
   -0.9833   -2.9619   -2.7467 C   0  0  0  0  0  0  0  0  0  0  0  0
   -0.4748   -3.6069   -3.4812 H   0  0  0  0  0  0  0  0  0  0  0  0
   -2.3506   -3.1549   -2.4718 C   0  0  0  0  0  0  0  0  0  0  0  0
   -2.9097   -3.9604   -2.9711 H   0  0  0  0  0  0  0  0  0  0  0  0
   -2.9945   -2.3376   -1.5384 C   0  0  0  0  0  0  0  0  0  0  0  0
   -4.0407   -2.5544   -1.2878 H   0  0  0  0  0  0  0  0  0  0  0  0
   -2.2894   -1.3016   -0.8740 C   0  0  0  0  0  0  0  0  0  0  0  0
   -2.8292   -0.4257    0.1714 C   0  0  0  0  0  0  0  0  0  0  0  0
   -4.2095   -0.2096    0.5381 C   0  0  0  0  0  0  0  0  0  0  0  0
   -5.3073   -0.6075   -0.2797 C   0  0  0  0  0  3  0  0  0  0  0  0
   -5.1062   -1.0351   -1.2651 H   0  0  0  0  0  0  0  0  0  0  0  0
   -6.6222   -0.3934    0.1350 C   0  0  0  0  0  0  0  0  0  0  0  0
   -6.8884    0.2286    1.3900 C   0  0  0  0  0  0  0  0  0  0  0  0
   -7.9374    0.3694    1.6877 H   0  0  0  0  0  0  0  0  0  0  0  0
   -5.8409    0.6697    2.1739 C   0  0  0  0  0  0  0  0  0  0  0  0
   -6.0419    1.1880    3.1239 H   0  0  0  0  0  0  0  0  0  0  0  0
   -4.4859    0.4934    1.7661 C   0  0  0  0  0  0  0  0  0  0  0  0
   -3.3998    1.0332    2.5080 C   0  0  0  0  0  0  0  0  0  0  0  0
   -3.5825    1.5687    3.4505 H   0  0  0  0  0  0  0  0  0  0  0  0
   -2.1205    0.9313    2.0036 C   0  0  0  0  0  0  0  0  0  0  0  0
   -1.2442    1.3877    2.4849 H   0  0  0  0  0  0  0  0  0  0  0  0
   -7.5327   -1.3532   -1.8451 C   0  0  0  0  0  0  0  0  0  0  0  0
   -8.5413   -1.5510   -2.2521 H   0  0  0  0  0  0  0  0  0  0  0  0
   -6.9839   -2.3168   -1.7466 H   0  0  0  0  0  0  0  0  0  0  0  0
   -6.9764   -0.6993   -2.5532 H   0  0  0  0  0  0  0  0  0  0  0  0
  1 17  1  0  0  0  0
  2 25  1  0  0  0  0
  3 12  1  0  0  0  0
  4  3  2  0  0  0  0
  5  4  1  0  0  0  0
  6  8  2  0  0  0  0
  6  4  1  0  0  0  0
  7  6  1  0  0  0  0
  8 10  1  0  0  0  0
  9  8  1  0  0  0  0
 10 11  1  0  0  0  0
 10 12  2  0  0  0  0
 12 13  1  0  0  0  0
 13 14  2  0  0  0  0
 13  2  1  0  0  0  0
 14 22  1  0  0  0  0
 15 17  1  0  0  0  0
 15 14  1  0  0  0  0
 16 15  1  0  0  0  0
 17 18  2  0  0  0  0
 18 19  1  0  0  0  0
 18 20  1  0  0  0  0
 20 21  1  0  0  0  0
 22 20  2  0  0  0  0
 22 23  1  0  0  0  0
 23 24  1  0  0  0  0
 25 26  1  0  0  0  0
 25 23  2  0  0  0  0
 27 29  1  0  0  0  0
 27  1  1  0  0  0  0
 28 27  1  0  0  0  0
 30 27  1  0  0  0  0
M  END
