1,29
q = -1.0, confidence = 0.0

 29 31  0  0  0  0  0  0  0  0999 V2000
    2.0038   -0.0255    0.3809 N   0  0  0  0  0  2  0  0  0  0  0  0
    2.6696    0.7069    1.3179 C   0  0  0  0  0  3  0  0  0  0  0  0
    2.0227    1.3154    1.9673 H   0  0  0  0  0  0  0  0  0  0  0  0
    4.0443    0.6826    1.4691 C   0  0  0  0  0  0  0  0  0  0  0  0
    4.7028    1.4689    2.5679 C   0  0  0  0  0  0  0  0  0  0  0  0
    3.9477    1.9858    3.1902 H   0  0  0  0  0  0  0  0  0  0  0  0
    5.3949    2.2385    2.1656 H   0  0  0  0  0  0  0  0  0  0  0  0
    5.3024    0.8152    3.2358 H   0  0  0  0  0  0  0  0  0  0  0  0
    4.8009   -0.0695    0.5069 C   0  0  0  0  0  0  0  0  0  0  0  0
    6.2249   -0.0626    0.5007 C   0  0  0  0  0  0  0  0  0  0  0  0
    6.7601    0.4830    1.2905 H   0  0  0  0  0  0  0  0  0  0  0  0
    6.9421   -0.7063   -0.4987 C   0  0  0  0  0  0  0  0  0  0  0  0
    8.0424   -0.6827   -0.4900 H   0  0  0  0  0  0  0  0  0  0  0  0
    6.2552   -1.3569   -1.5516 C   0  0  0  0  0  0  0  0  0  0  0  0
    6.8203   -1.8116   -2.3791 H   0  0  0  0  0  0  0  0  0  0  0  0
    4.8671   -1.4080   -1.5563 C   0  0  0  0  0  0  0  0  0  0  0  0
    4.3510   -1.8711   -2.4046 H   0  0  0  0  0  0  0  0  0  0  0  0
    4.0990   -0.8153   -0.5118 C   0  0  0  0  0  0  0  0  0  0  0  0
    2.6566   -0.8701   -0.4663 C   0  0  0  0  0  0  0  0  0  0  0  0
    1.7460   -1.7430   -1.2122 C   0  0  0  0  0  0  0  0  0  0  0  0
    2.1138   -2.9176   -1.9164 C   0  0  0  0  0  0  0  0  0  0  0  0
    3.1580   -3.2543   -1.9386 H   0  0  0  0  0  0  0  0  0  0  0  0
    1.1440   -3.7083   -2.5386 C   0  0  0  0  0  0  0  0  0  0  0  0
    1.4438   -4.6214   -3.0744 H   0  0  0  0  0  0  0  0  0  0  0  0
   -0.2140   -3.3465   -2.4530 C   0  0  0  0  0  0  0  0  0  0  0  0
   -0.9795   -3.9690   -2.9433 H   0  0  0  0  0  0  0  0  0  0  0  0
   -0.6004   -2.2204   -1.7154 C   0  0  0  0  0  0  0  0  0  0  0  0
   -1.6702   -1.9789   -1.6234 H   0  0  0  0  0  0  0  0  0  0  0  0
    0.3544   -1.4041   -1.0714 C   0  0  0  0  0  3  0  0  0  0  0  0
  1  2  1  0  0  0  0
  2  4  1  0  0  0  0
  2  3  1  0  0  0  0
  4  5  1  0  0  0  0
  5  6  1  0  0  0  0
  5  8  1  0  0  0  0
  7  5  1  0  0  0  0
  9  4  2  0  0  0  0
 10  9  1  0  0  0  0
 10 11  1  0  0  0  0
 12 13  1  0  0  0  0
 12 10  2  0  0  0  0
 14 12  1  0  0  0  0
 15 14  1  0  0  0  0
 16 14  2  0  0  0  0
 16 18  1  0  0  0  0
 17 16  1  0  0  0  0
 18 19  2  0  0  0  0
 18  9  1  0  0  0  0
 19  1  1  0  0  0  0
 20 29  1  0  0  0  0
 20 19  1  0  0  0  0
 21 20  2  0  0  0  0
 22 21  1  0  0  0  0
 23 25  2  0  0  0  0
 23 21  1  0  0  0  0
 24 23  1  0  0  0  0
 25 27  1  0  0  0  0
 26 25  1  0  0  0  0
 27 28  1  0  0  0  0
 27 29  2  0  0  0  0
M  END
