8,9
q = -2.0, confidence = 0.644

 46 46  0  0  1  0  0  0  0  0999 V2000
   -0.3258   -3.0476   -1.0177 O   0  0  0  0  0  0  0  0  0  0  0  0
   -2.1453    1.6920    1.9392 O   0  0  0  0  0  0  0  0  0  0  0  0
   -1.1304    0.8788    3.7905 O   0  0  0  0  0  0  0  0  0  0  0  0
   -3.3604   -0.6656   -1.2303 O   0  0  0  0  0  0  0  0  0  0  0  0
   -2.7393   -2.0874    0.4217 O   0  0  0  0  0  0  0  0  0  0  0  0
    2.7634   -2.9841   -0.0422 O   0  0  0  0  0  0  0  0  0  0  0  0
    3.0706   -1.4245    1.5813 O   0  0  0  0  0  0  0  0  0  0  0  0
    0.2936    1.8809   -0.2492 N   0  0  0  0  0  2  0  0  0  0  0  0
    0.0710   -2.0473   -0.4950 C   0  0  0  0  0  3  0  0  0  0  0  0
    1.4790    2.7872   -0.4177 C   0  0  0  0  0  0  0  0  0  0  0  0
    1.7811    2.8969   -1.9233 C   0  0  0  0  0  0  0  0  0  0  0  0
    2.6494    2.1575    0.3577 C   0  0  0  0  0  0  0  0  0  0  0  0
    1.2397    4.2036    0.1355 C   0  0  0  0  0  0  0  0  0  0  0  0
   -0.8202    2.3673    0.1683 C   0  0  0  0  0  3  0  0  0  0  0  0
   -1.9974    1.4800    0.4794 C   0  0  2  0  0  0  0  0  0  0  0  0
   -3.2627    1.9920   -0.1893 C   0  0  0  0  0  0  0  0  0  0  0  0
   -1.4028    0.7643    2.6204 C   0  0  0  0  0  0  0  0  0  0  0  0
   -1.0469   -0.3858    1.6827 C   0  0  1  0  0  0  0  0  0  0  0  0
   -1.6194   -0.0103    0.3210 C   0  0  1  0  0  3  0  0  0  0  0  0
   -2.6689   -0.9058   -0.2523 C   0  0  0  0  0  0  0  0  0  0  0  0
   -3.5389   -3.1060   -0.1906 C   0  0  0  0  0  0  0  0  0  0  0  0
    0.4401   -0.5914    1.4727 C   0  0  0  0  0  3  0  0  0  0  0  0
    0.9021   -1.6259    0.6533 C   0  0  2  0  0  3  0  0  0  0  0  0
    2.3289   -2.0978    0.6659 C   0  0  0  0  0  0  0  0  0  0  0  0
    4.4455   -1.8275    1.6603 C   0  0  0  0  0  0  0  0  0  0  0  0
   -0.9472    3.4391    0.4058 H   0  0  0  0  0  0  0  0  0  0  0  0
   -1.5013   -1.3028    2.1121 H   0  0  0  0  0  0  0  0  0  0  0  0
    1.1665   -0.0865    2.1275 H   0  0  0  0  0  0  0  0  0  0  0  0
    2.6262    3.5955   -2.0813 H   0  0  0  0  0  0  0  0  0  0  0  0
    2.0590    1.9281   -2.3715 H   0  0  0  0  0  0  0  0  0  0  0  0
    0.8997    3.2917   -2.4667 H   0  0  0  0  0  0  0  0  0  0  0  0
    3.5682    2.7557    0.2004 H   0  0  0  0  0  0  0  0  0  0  0  0
    2.4302    2.1391    1.4439 H   0  0  0  0  0  0  0  0  0  0  0  0
    2.8501    1.1200    0.0361 H   0  0  0  0  0  0  0  0  0  0  0  0
    2.1766    4.7841    0.0352 H   0  0  0  0  0  0  0  0  0  0  0  0
    0.4559    4.7517   -0.4246 H   0  0  0  0  0  0  0  0  0  0  0  0
    0.9688    4.1903    1.2104 H   0  0  0  0  0  0  0  0  0  0  0  0
   -3.2047    1.8466   -1.2827 H   0  0  0  0  0  0  0  0  0  0  0  0
   -4.1420    1.4310    0.1761 H   0  0  0  0  0  0  0  0  0  0  0  0
   -3.4000    3.0659    0.0460 H   0  0  0  0  0  0  0  0  0  0  0  0
   -3.6024   -3.9285    0.5437 H   0  0  0  0  0  0  0  0  0  0  0  0
   -4.5464   -2.7202   -0.4405 H   0  0  0  0  0  0  0  0  0  0  0  0
   -3.0466   -3.4617   -1.1179 H   0  0  0  0  0  0  0  0  0  0  0  0
    4.9038   -1.1949    2.4406 H   0  0  0  0  0  0  0  0  0  0  0  0
    4.5242   -2.8990    1.9319 H   0  0  0  0  0  0  0  0  0  0  0  0
    4.9525   -1.6768    0.6861 H   0  0  0  0  0  0  0  0  0  0  0  0
  1  9  2  0  0  0  0
  2 17  1  0  0  0  0
  4 20  2  0  0  0  0
  6 24  2  0  0  0  0
  7 25  1  0  0  0  0
  8 14  1  0  0  0  0
 10  8  1  0  0  0  0
 10 13  1  0  0  0  0
 10 12  1  0  0  0  0
 11 10  1  0  0  0  0
 12 33  1  0  0  0  0
 13 37  1  0  0  0  0
 14 26  1  0  0  0  0
 15 14  1  6  0  0  0
 15  2  1  0  0  0  0
 16 40  1  0  0  0  0
 16 39  1  0  0  0  0
 16 15  1  0  0  0  0
 17  3  2  0  0  0  0
 18 27  1  1  0  0  0
 18 17  1  0  0  0  0
 19 20  1  1  0  0  0
 19 15  1  0  0  0  0
 19 18  1  0  0  0  0
 20  5  1  0  0  0  0
 21  5  1  0  0  0  0
 21 41  1  0  0  0  0
 22 18  1  0  0  0  0
 22 28  1  0  0  0  0
 23  9  1  6  0  0  0
 23 24  1  0  0  0  0
 23 22  1  0  0  0  0
 24  7  1  0  0  0  0
 25 45  1  0  0  0  0
 25 44  1  0  0  0  0
 29 11  1  0  0  0  0
 30 11  1  0  0  0  0
 31 11  1  0  0  0  0
 32 12  1  0  0  0  0
 34 12  1  0  0  0  0
 35 13  1  0  0  0  0
 36 13  1  0  0  0  0
 38 16  1  0  0  0  0
 42 21  1  0  0  0  0
 43 21  1  0  0  0  0
 46 25  1  0  0  0  0
M  END
