1,14
q = -1.0, confidence = 0.0

 27 28  0  0  1  0  0  0  0  0999 V2000
   -1.1752   -0.3418    1.9321 N   0  0  0  0  0  2  0  0  0  0  0  0
   -2.2103   -0.0448    2.7531 C   0  0  2  0  0  3  0  0  0  0  0  0
   -3.1464    1.0572    2.3620 C   0  0  0  0  0  0  0  0  0  0  0  0
   -2.5812    1.9258    1.9735 H   0  0  0  0  0  0  0  0  0  0  0  0
   -3.7676    1.3717    3.2210 H   0  0  0  0  0  0  0  0  0  0  0  0
   -3.8278    0.7368    1.5480 H   0  0  0  0  0  0  0  0  0  0  0  0
   -2.3680   -0.7747    3.9504 C   0  0  0  0  0  0  0  0  0  0  0  0
   -3.2204   -0.5414    4.6044 H   0  0  0  0  0  0  0  0  0  0  0  0
   -1.4484   -1.7749    4.3003 C   0  0  0  0  0  0  0  0  0  0  0  0
   -1.5881   -2.3533    5.2262 H   0  0  0  0  0  0  0  0  0  0  0  0
   -0.3282   -1.9989    3.4835 C   0  0  0  0  0  0  0  0  0  0  0  0
    0.4467   -2.7286    3.7569 H   0  0  0  0  0  0  0  0  0  0  0  0
   -0.1956   -1.2365    2.3141 C   0  0  0  0  0  0  0  0  0  0  0  0
    0.8651   -1.0430    1.3120 C   0  0  0  0  0  3  0  0  0  0  0  0
    2.1137   -1.5625    1.5660 C   0  0  0  0  0  0  0  0  0  0  0  0
    2.2132   -2.2673    2.4169 H   0  0  0  0  0  0  0  0  0  0  0  0
    3.3759   -1.3076    0.8767 C   0  0  0  0  0  0  0  0  0  0  0  0
    3.6103   -0.1174    0.1437 C   0  0  0  0  0  0  0  0  0  0  0  0
    2.8186    0.6403    0.1132 H   0  0  0  0  0  0  0  0  0  0  0  0
    4.8320    0.1012   -0.5035 C   0  0  0  0  0  0  0  0  0  0  0  0
    4.9830    1.0342   -1.0682 H   0  0  0  0  0  0  0  0  0  0  0  0
    5.8591   -0.8556   -0.4314 C   0  0  0  0  0  0  0  0  0  0  0  0
    6.8185   -0.6822   -0.9425 H   0  0  0  0  0  0  0  0  0  0  0  0
    5.6553   -2.0301    0.3143 C   0  0  0  0  0  0  0  0  0  0  0  0
    6.4572   -2.7812    0.3893 H   0  0  0  0  0  0  0  0  0  0  0  0
    4.4356   -2.2475    0.9656 C   0  0  0  0  0  0  0  0  0  0  0  0
    4.2812   -3.1696    1.5494 H   0  0  0  0  0  0  0  0  0  0  0  0
  1 13  1  0  0  0  0
  1  2  1  0  0  0  0
  2  3  1  1  0  0  0
  2  7  1  0  0  0  0
  3  5  1  0  0  0  0
  4  3  1  0  0  0  0
  6  3  1  0  0  0  0
  7  9  2  0  0  0  0
  7  8  1  0  0  0  0
  9 10  1  0  0  0  0
 11 12  1  0  0  0  0
 11  9  1  0  0  0  0
 13 11  2  0  0  0  0
 14 15  2  0  0  0  0
 14 13  1  0  0  0  0
 15 16  1  0  0  0  0
 17 26  1  0  0  0  0
 17 15  1  0  0  0  0
 18 17  2  0  0  0  0
 19 18  1  0  0  0  0
 20 22  2  0  0  0  0
 20 18  1  0  0  0  0
 21 20  1  0  0  0  0
 22 24  1  0  0  0  0
 23 22  1  0  0  0  0
 24 25  1  0  0  0  0
 24 26  2  0  0  0  0
 26 27  1  0  0  0  0
M  END
