2,10
q = -2.0, confidence = 0.89

 46 50  0  0  1  0  0  0  0  0999 V2000
    5.7058   -3.7633   -0.1629 Cl  0  0  0  0  0  0  0  0  0  0  0  0
   -0.2219   -0.7350    0.3188 N   0  0  0  0  0  1  0  0  0  0  0  0
   -0.5467    1.4730   -1.0154 C   0  0  0  0  0  0  0  0  0  0  0  0
   -0.7821    0.8329   -2.2664 C   0  0  0  0  0  0  0  0  0  0  0  0
   -0.0232    0.3276   -2.8752 H   0  0  0  0  0  0  0  0  0  0  0  0
   -2.1738    0.8874   -2.5598 C   0  0  0  0  0  0  0  0  0  0  0  0
   -2.6601    0.4687   -3.4484 H   0  0  0  0  0  0  0  0  0  0  0  0
   -2.8132    1.5669   -1.4926 C   0  0  0  0  0  0  0  0  0  0  0  0
   -3.8809    1.7995   -1.4271 H   0  0  0  0  0  0  0  0  0  0  0  0
   -1.8164    1.9093   -0.5287 C   0  0  0  0  0  3  0  0  0  0  0  0
   -1.9987    2.4313    0.4133 H   0  0  0  0  0  0  0  0  0  0  0  0
    0.7856    1.4107   -0.2679 C   0  0  2  0  0  0  0  0  0  0  0  0
    0.7379    2.2312    1.0670 C   0  0  1  0  0  0  0  0  0  0  0  0
   -0.0746    1.8065    1.6930 H   0  0  0  0  0  0  0  0  0  0  0  0
    2.0816    2.1206    1.8156 C   0  0  0  0  0  0  0  0  0  0  0  0
    2.3109    1.0631    2.0604 H   0  0  0  0  0  0  0  0  0  0  0  0
    2.0038    2.6615    2.7831 H   0  0  0  0  0  0  0  0  0  0  0  0
    3.2164    2.7222    0.9619 C   0  0  1  0  0  0  0  0  0  0  0  0
    4.1783    2.6337    1.5102 H   0  0  0  0  0  0  0  0  0  0  0  0
    3.3084    1.9464   -0.3623 C   0  0  0  0  0  0  0  0  0  0  0  0
    3.6195    0.9045   -0.1696 H   0  0  0  0  0  0  0  0  0  0  0  0
    4.0936    2.3937   -1.0094 H   0  0  0  0  0  0  0  0  0  0  0  0
    1.9591    2.0099   -1.1122 C   0  0  2  0  0  0  0  0  0  0  0  0
    2.0388    1.4567   -2.0712 H   0  0  0  0  0  0  0  0  0  0  0  0
    0.4686    3.7255    0.7818 C   0  0  0  0  0  0  0  0  0  0  0  0
   -0.5093    3.8736    0.2873 H   0  0  0  0  0  0  0  0  0  0  0  0
    0.4269    4.2722    1.7490 H   0  0  0  0  0  0  0  0  0  0  0  0
    2.9229    4.2014    0.6554 C   0  0  0  0  0  0  0  0  0  0  0  0
    3.7479    4.6325    0.0482 H   0  0  0  0  0  0  0  0  0  0  0  0
    2.8701    4.7914    1.5961 H   0  0  0  0  0  0  0  0  0  0  0  0
    1.6530    3.4940   -1.4146 C   0  0  0  0  0  0  0  0  0  0  0  0
    2.4496    3.9024   -2.0729 H   0  0  0  0  0  0  0  0  0  0  0  0
    0.6952    3.5844   -1.9680 H   0  0  0  0  0  0  0  0  0  0  0  0
    1.5872    4.3022   -0.1023 C   0  0  1  0  0  0  0  0  0  0  0  0
    1.3651    5.3654   -0.3350 H   0  0  0  0  0  0  0  0  0  0  0  0
    0.8688   -0.1177    0.0596 C   0  0  2  0  0  3  0  0  0  0  0  0
    2.1159   -0.9542    0.0087 C   0  0  0  0  0  0  0  0  0  0  0  0
    2.5884   -1.5918    1.1738 C   0  0  0  0  0  0  0  0  0  0  0  0
    2.0740   -1.4110    2.1297 H   0  0  0  0  0  0  0  0  0  0  0  0
    3.6959   -2.4478    1.1321 C   0  0  0  0  0  0  0  0  0  0  0  0
    4.0708   -2.9328    2.0443 H   0  0  0  0  0  0  0  0  0  0  0  0
    4.3265   -2.6955   -0.0982 C   0  0  0  0  0  0  0  0  0  0  0  0
    3.8518   -2.1013   -1.2790 C   0  0  0  0  0  0  0  0  0  0  0  0
    4.3422   -2.3245   -2.2368 H   0  0  0  0  0  0  0  0  0  0  0  0
    2.7539   -1.2338   -1.2180 C   0  0  0  0  0  0  0  0  0  0  0  0
    2.3804   -0.7768   -2.1460 H   0  0  0  0  0  0  0  0  0  0  0  0
  1 42  1  0  0  0  0
  3 10  1  0  0  0  0
  3 12  1  0  0  0  0
  4  3  2  0  0  0  0
  5  4  1  0  0  0  0
  6  4  1  0  0  0  0
  6  8  2  0  0  0  0
  7  6  1  0  0  0  0
  8  9  1  0  0  0  0
  8 10  1  0  0  0  0
 10 11  1  0  0  0  0
 12 36  1  1  0  0  0
 12 13  1  0  0  0  0
 13 14  1  1  0  0  0
 13 15  1  0  0  0  0
 15 16  1  0  0  0  0
 15 17  1  0  0  0  0
 18 19  1  1  0  0  0
 18 15  1  0  0  0  0
 20 21  1  0  0  0  0
 20 18  1  0  0  0  0
 22 20  1  0  0  0  0
 23 24  1  6  0  0  0
 23 20  1  0  0  0  0
 23 12  1  0  0  0  0
 25 13  1  0  0  0  0
 25 27  1  0  0  0  0
 26 25  1  0  0  0  0
 28 18  1  0  0  0  0
 28 30  1  0  0  0  0
 29 28  1  0  0  0  0
 31 23  1  0  0  0  0
 31 34  1  0  0  0  0
 32 31  1  0  0  0  0
 33 31  1  0  0  0  0
 34 35  1  6  0  0  0
 34 28  1  0  0  0  0
 34 25  1  0  0  0  0
 36  2  1  6  0  0  0
 37 36  1  0  0  0  0
 37 38  1  0  0  0  0
 38 39  1  0  0  0  0
 40 38  2  0  0  0  0
 40 41  1  0  0  0  0
 42 40  1  0  0  0  0
 43 45  1  0  0  0  0
 43 42  2  0  0  0  0
 44 43  1  0  0  0  0
 45 37  2  0  0  0  0
 46 45  1  0  0  0  0
M  END
