4,18
q = -1.0, confidence = 0.0

 46 47  0  0  0  0  0  0  0  0999 V2000
    0.9077   -3.7394    0.3571 O   0  0  0  0  0  0  0  0  0  0  0  0
   -3.4506   -0.6488   -0.1890 N   0  0  0  0  0  0  0  0  0  0  0  0
   -2.2875   -2.2671    0.6658 N   0  0  0  0  0  0  0  0  0  0  0  0
    0.4232   -1.4863    0.1332 N   0  0  0  0  0  2  0  0  0  0  0  0
   -2.5071    3.2578   -3.2276 C   0  0  0  0  0  0  0  0  0  0  0  0
   -1.4359    3.2353   -2.9374 H   0  0  0  0  0  0  0  0  0  0  0  0
   -2.7703    4.3101   -3.4552 H   0  0  0  0  0  0  0  0  0  0  0  0
   -2.6067    2.6756   -4.1677 H   0  0  0  0  0  0  0  0  0  0  0  0
   -3.3860    2.6824   -2.1169 C   0  0  0  0  0  0  0  0  0  0  0  0
   -4.4580    2.7478   -2.4101 H   0  0  0  0  0  0  0  0  0  0  0  0
   -3.2777    3.2957   -1.1959 H   0  0  0  0  0  0  0  0  0  0  0  0
   -3.0282    1.2362   -1.7715 C   0  0  0  0  0  0  0  0  0  0  0  0
   -1.9671    1.1984   -1.4409 H   0  0  0  0  0  0  0  0  0  0  0  0
   -3.1108    0.5819   -2.6675 H   0  0  0  0  0  0  0  0  0  0  0  0
   -3.8813    0.6821   -0.6331 C   0  0  0  0  0  0  0  0  0  0  0  0
   -3.8059    1.3577    0.2426 H   0  0  0  0  0  0  0  0  0  0  0  0
   -4.9453    0.5942   -0.9304 H   0  0  0  0  0  0  0  0  0  0  0  0
   -2.2579   -0.9286    0.4146 C   0  0  0  0  0  2  0  0  0  0  0  0
   -3.4733   -2.8313    0.2211 C   0  0  0  0  0  0  0  0  0  0  0  0
   -3.6928   -3.8970    0.3301 H   0  0  0  0  0  0  0  0  0  0  0  0
   -4.2079   -1.8058   -0.3193 C   0  0  0  0  0  0  0  0  0  0  0  0
   -5.2019   -1.7982   -0.7753 H   0  0  0  0  0  0  0  0  0  0  0  0
   -1.1651   -2.9706    1.2750 C   0  0  0  0  0  0  0  0  0  0  0  0
   -1.3738   -4.0543    1.2613 H   0  0  0  0  0  0  0  0  0  0  0  0
   -1.0617   -2.6405    2.3299 H   0  0  0  0  0  0  0  0  0  0  0  0
    0.1703   -2.7593    0.5296 C   0  0  0  0  0  0  0  0  0  0  0  0
    1.6186   -1.2214   -0.5807 C   0  0  0  0  0  0  0  0  0  0  0  0
    1.5355   -0.8527   -1.9489 C   0  0  0  0  0  0  0  0  0  0  0  0
    2.7109   -0.4845   -2.6284 C   0  0  0  0  0  0  0  0  0  0  0  0
    2.6414   -0.1957   -3.6903 H   0  0  0  0  0  0  0  0  0  0  0  0
    3.9678   -0.4856   -1.9949 C   0  0  0  0  0  0  0  0  0  0  0  0
    4.0248   -0.8776   -0.6444 C   0  0  0  0  0  0  0  0  0  0  0  0
    4.9988   -0.8888   -0.1274 H   0  0  0  0  0  0  0  0  0  0  0  0
    2.8773   -1.2495    0.0768 C   0  0  0  0  0  0  0  0  0  0  0  0
    2.9658   -1.6629    1.5183 C   0  0  0  0  0  0  0  0  0  0  0  0
    2.1991   -1.1416    2.1282 H   0  0  0  0  0  0  0  0  0  0  0  0
    3.9659   -1.4538    1.9435 H   0  0  0  0  0  0  0  0  0  0  0  0
    2.7514   -2.7485    1.6060 H   0  0  0  0  0  0  0  0  0  0  0  0
    0.2016   -0.8452   -2.6452 C   0  0  0  0  0  0  0  0  0  0  0  0
   -0.3206   -1.8150   -2.5157 H   0  0  0  0  0  0  0  0  0  0  0  0
    0.3105   -0.6400   -3.7274 H   0  0  0  0  0  0  0  0  0  0  0  0
   -0.4743   -0.0793   -2.2102 H   0  0  0  0  0  0  0  0  0  0  0  0
    5.2223   -0.1185   -2.7488 C   0  0  0  0  0  0  0  0  0  0  0  0
    5.9473    0.4156   -2.1019 H   0  0  0  0  0  0  0  0  0  0  0  0
    5.0021    0.5236   -3.6245 H   0  0  0  0  0  0  0  0  0  0  0  0
    5.7400   -1.0252   -3.1304 H   0  0  0  0  0  0  0  0  0  0  0  0
  1 26  2  0  0  0  0
  2 18  1  0  0  0  0
  3 23  1  0  0  0  0
  4 26  1  0  0  0  0
  5  6  1  0  0  0  0
  5  9  1  0  0  0  0
  7  5  1  0  0  0  0
  8  5  1  0  0  0  0
  9 12  1  0  0  0  0
  9 11  1  0  0  0  0
 10  9  1  0  0  0  0
 12 13  1  0  0  0  0
 12 15  1  0  0  0  0
 14 12  1  0  0  0  0
 15  2  1  0  0  0  0
 15 16  1  0  0  0  0
 17 15  1  0  0  0  0
 18  3  1  0  0  0  0
 19 20  1  0  0  0  0
 19  3  1  0  0  0  0
 21  2  1  0  0  0  0
 21 19  2  0  0  0  0
 22 21  1  0  0  0  0
 23 25  1  0  0  0  0
 24 23  1  0  0  0  0
 26 23  1  0  0  0  0
 27 34  1  0  0  0  0
 27  4  1  0  0  0  0
 28 27  2  0  0  0  0
 29 31  2  0  0  0  0
 29 28  1  0  0  0  0
 30 29  1  0  0  0  0
 31 32  1  0  0  0  0
 32 33  1  0  0  0  0
 32 34  2  0  0  0  0
 34 35  1  0  0  0  0
 35 38  1  0  0  0  0
 35 37  1  0  0  0  0
 35 36  1  0  0  0  0
 39 40  1  0  0  0  0
 39 42  1  0  0  0  0
 39 28  1  0  0  0  0
 41 39  1  0  0  0  0
 43 44  1  0  0  0  0
 43 31  1  0  0  0  0
 45 43  1  0  0  0  0
 46 43  1  0  0  0  0
M  END
