5,35
q = -1.0, confidence = 0.044

 40 44  0  0  0  0  0  0  0  0999 V2000
    2.6436    3.9356   -0.0915 S   0  0  0  0  0  0  0  0  0  0  0  0
   -5.7317   -1.4985    0.3704 C   0  0  0  0  0  0  0  0  0  0  0  0
   -0.7849   -0.0245    0.0925 C   0  0  0  0  0  0  0  0  0  0  0  0
   -0.7704   -1.1250    0.0793 H   0  0  0  0  0  0  0  0  0  0  0  0
    0.4290    0.5520    0.0374 N   0  0  0  0  0  2  0  0  0  0  0  0
   -2.1558    4.4376    0.6789 C   0  0  0  0  0  0  0  0  0  0  0  0
   -2.6069    5.3840    0.3232 H   0  0  0  0  0  0  0  0  0  0  0  0
   -2.1457    4.4729    1.7881 H   0  0  0  0  0  0  0  0  0  0  0  0
   -6.9691   -2.2018    0.4301 C   0  0  0  0  0  0  0  0  0  0  0  0
   -7.0236   -3.1274    1.0243 H   0  0  0  0  0  0  0  0  0  0  0  0
   -4.4192    0.4230   -0.4613 C   0  0  0  0  0  0  0  0  0  0  0  0
   -4.3717    1.3278   -1.0840 H   0  0  0  0  0  0  0  0  0  0  0  0
   -2.9367    3.1849    0.2198 C   0  0  0  0  0  0  0  0  0  0  0  0
   -3.7797    2.9103    0.8854 H   0  0  0  0  0  0  0  0  0  0  0  0
   -3.3779    3.3451   -0.7904 H   0  0  0  0  0  0  0  0  0  0  0  0
    4.2287    1.8615   -0.1575 C   0  0  0  0  0  0  0  0  0  0  0  0
    5.1405    1.2505   -0.2028 H   0  0  0  0  0  0  0  0  0  0  0  0
   -8.0086   -0.5390   -1.0150 C   0  0  0  0  0  0  0  0  0  0  0  0
   -8.8997   -0.1775   -1.5503 H   0  0  0  0  0  0  0  0  0  0  0  0
   -5.6533   -0.2833   -0.4029 C   0  0  0  0  0  0  0  0  0  0  0  0
   -4.5585   -1.9463    1.0463 C   0  0  0  0  0  0  0  0  0  0  0  0
   -4.6119   -2.8686    1.6457 H   0  0  0  0  0  0  0  0  0  0  0  0
    1.9394    2.3353   -0.0328 C   0  0  0  0  0  0  0  0  0  0  0  0
   -3.2790   -0.0264    0.2085 C   0  0  0  0  0  0  0  0  0  0  0  0
   -1.8701    2.1148    0.1448 C   0  0  0  0  0  0  0  0  0  0  0  0
   -1.9924    0.7024    0.1382 C   0  0  0  0  0  0  0  0  0  0  0  0
   -6.8188    0.1694   -1.0907 C   0  0  0  0  0  0  0  0  0  0  0  0
   -6.7568    1.0949   -1.6844 H   0  0  0  0  0  0  0  0  0  0  0  0
    0.5643    1.9339    0.0354 C   0  0  0  0  0  0  0  0  0  0  0  0
   -3.3731   -1.2379    0.9688 C   0  0  0  0  0  0  0  0  0  0  0  0
   -2.4894   -1.5924    1.5199 H   0  0  0  0  0  0  0  0  0  0  0  0
   -0.6012    2.7175    0.1081 C   0  0  0  0  0  0  0  0  0  0  0  0
   -8.0856   -1.7334   -0.2478 C   0  0  0  0  0  0  0  0  0  0  0  0
   -9.0354   -2.2867   -0.1949 H   0  0  0  0  0  0  0  0  0  0  0  0
    2.9112    1.3170   -0.0805 C   0  0  0  0  0  2  0  0  0  0  0  0
    4.2355    3.2477   -0.1712 C   0  0  0  0  0  0  0  0  0  0  0  0
    5.1012    3.9207   -0.2247 H   0  0  0  0  0  0  0  0  0  0  0  0
   -0.7119    4.2218    0.1674 C   0  0  0  0  0  0  0  0  0  0  0  0
   -0.5623    4.6563   -0.8475 H   0  0  0  0  0  0  0  0  0  0  0  0
    0.0558    4.6853    0.8202 H   0  0  0  0  0  0  0  0  0  0  0  0
  1 23  1  0  0  0  0
  2  9  1  0  0  0  0
  2 21  1  0  0  0  0
  3 26  2  0  0  0  0
  4  3  1  0  0  0  0
  5  3  1  0  0  0  0
  6  8  1  0  0  0  0
  7  6  1  0  0  0  0
  9 10  1  0  0  0  0
 11 20  1  0  0  0  0
 11 24  2  0  0  0  0
 12 11  1  0  0  0  0
 13  6  1  0  0  0  0
 13 14  1  0  0  0  0
 15 13  1  0  0  0  0
 16 35  1  0  0  0  0
 17 16  1  0  0  0  0
 18 33  1  0  0  0  0
 19 18  1  0  0  0  0
 20  2  2  0  0  0  0
 21 22  1  0  0  0  0
 23 29  2  0  0  0  0
 24 30  1  0  0  0  0
 25 13  1  0  0  0  0
 26 25  1  0  0  0  0
 26 24  1  0  0  0  0
 27 18  2  0  0  0  0
 27 20  1  0  0  0  0
 28 27  1  0  0  0  0
 29  5  1  0  0  0  0
 29 32  1  0  0  0  0
 30 21  2  0  0  0  0
 30 31  1  0  0  0  0
 32 25  2  0  0  0  0
 32 38  1  0  0  0  0
 33 34  1  0  0  0  0
 33  9  2  0  0  0  0
 35 23  1  0  0  0  0
 36 16  2  0  0  0  0
 36  1  1  0  0  0  0
 37 36  1  0  0  0  0
 38  6  1  0  0  0  0
 38 40  1  0  0  0  0
 39 38  1  0  0  0  0
M  END
