1,2
q = 0.0, confidence = 0.624

 27 28  0  0  0  0  0  0  0  0999 V2000
    0.3012    2.3357    1.3058 N   0  0  0  0  0  0  0  0  0  0  0  0
   -1.4999    0.2751    0.5923 C   0  0  0  0  0  2  0  0  0  0  0  0
   -2.0834   -0.6326    0.8458 H   0  0  0  0  0  0  0  0  0  0  0  0
   -2.3254    1.4375    0.3057 C   0  0  0  0  0  0  0  0  0  0  0  0
   -3.6880    1.1730    0.0649 C   0  0  0  0  0  0  0  0  0  0  0  0
   -4.0538    0.1511    0.2481 H   0  0  0  0  0  0  0  0  0  0  0  0
   -4.5541    2.1472   -0.4724 C   0  0  0  0  0  0  0  0  0  0  0  0
   -5.6087    1.8975   -0.6644 H   0  0  0  0  0  0  0  0  0  0  0  0
   -4.0576    3.4014   -0.7966 C   0  0  0  0  0  0  0  0  0  0  0  0
   -4.7066    4.1589   -1.2629 H   0  0  0  0  0  0  0  0  0  0  0  0
   -2.6994    3.7461   -0.5292 C   0  0  0  0  0  0  0  0  0  0  0  0
   -1.8253    2.7797    0.0891 C   0  0  0  0  0  0  0  0  0  0  0  0
   -0.5056    3.2065    0.4601 C   0  0  0  0  0  0  0  0  0  0  0  0
    1.7493    2.6296    1.2963 C   0  0  0  0  0  0  0  0  0  0  0  0
    2.2594    1.8295    1.8679 H   0  0  0  0  0  0  0  0  0  0  0  0
    1.9852    3.6046    1.7798 H   0  0  0  0  0  0  0  0  0  0  0  0
    2.1137    2.6214    0.2524 H   0  0  0  0  0  0  0  0  0  0  0  0
   -0.2149    2.4375    2.6986 C   0  0  0  0  0  0  0  0  0  0  0  0
    0.3382    1.7255    3.3369 H   0  0  0  0  0  0  0  0  0  0  0  0
   -1.2841    2.1619    2.7185 H   0  0  0  0  0  0  0  0  0  0  0  0
   -0.0968    3.4796    3.0687 H   0  0  0  0  0  0  0  0  0  0  0  0
   -0.0584    4.4761    0.1084 C   0  0  0  0  0  0  0  0  0  0  0  0
    0.9561    4.7946    0.3784 H   0  0  0  0  0  0  0  0  0  0  0  0
   -0.8973    5.3845   -0.5822 C   0  0  0  0  0  0  0  0  0  0  0  0
   -0.5078    6.3762   -0.8569 H   0  0  0  0  0  0  0  0  0  0  0  0
   -2.2048    5.0393   -0.8697 C   0  0  0  0  0  0  0  0  0  0  0  0
   -2.8832    5.7527   -1.3618 H   0  0  0  0  0  0  0  0  0  0  0  0
  1 18  1  0  0  0  0
  2  3  1  0  0  0  0
  4  2  1  0  0  0  0
  5  6  1  0  0  0  0
  5  4  2  0  0  0  0
  7  5  1  0  0  0  0
  8  7  1  0  0  0  0
  9 11  1  0  0  0  0
  9  7  2  0  0  0  0
 10  9  1  0  0  0  0
 11 12  1  0  0  0  0
 12  4  1  0  0  0  0
 12 13  2  0  0  0  0
 13  1  1  0  0  0  0
 14  1  1  0  0  0  0
 14 16  1  0  0  0  0
 14 15  1  0  0  0  0
 17 14  1  0  0  0  0
 18 20  1  0  0  0  0
 18 21  1  0  0  0  0
 18 19  1  0  0  0  0
 22 23  1  0  0  0  0
 22 13  1  0  0  0  0
 24 22  2  0  0  0  0
 25 24  1  0  0  0  0
 26 24  1  0  0  0  0
 26 11  2  0  0  0  0
 27 26  1  0  0  0  0
M  END
