1,5
q = -1.0, confidence = 0.0

 23 23  0  0  0  0  0  0  0  0999 V2000
    0.5558    1.7714    0.1465 N   0  0  0  0  0  2  0  0  0  0  0  0
    1.8566    1.8695    0.2645 C   0  0  0  0  0  3  0  0  0  0  0  0
    2.3507    2.8546    0.3490 H   0  0  0  0  0  0  0  0  0  0  0  0
    2.5982    0.6396    0.2311 C   0  0  0  0  0  0  0  0  0  0  0  0
    1.7748   -0.5107    0.0049 C   0  0  0  0  0  3  0  0  0  0  0  0
    2.4358   -1.7449   -0.1639 C   0  0  0  0  0  0  0  0  0  0  0  0
    1.8583   -2.6478   -0.4129 H   0  0  0  0  0  0  0  0  0  0  0  0
    3.8311   -1.8393   -0.0437 C   0  0  0  0  0  0  0  0  0  0  0  0
    4.3186   -2.8194   -0.1699 H   0  0  0  0  0  0  0  0  0  0  0  0
    4.6214   -0.7009    0.2210 C   0  0  0  0  0  0  0  0  0  0  0  0
    5.7142   -0.7936    0.3087 H   0  0  0  0  0  0  0  0  0  0  0  0
    4.0042    0.5458    0.3429 C   0  0  0  0  0  0  0  0  0  0  0  0
    4.6027    1.4555    0.5125 H   0  0  0  0  0  0  0  0  0  0  0  0
   -0.2877    2.9774    0.0268 C   0  0  0  0  0  0  0  0  0  0  0  0
   -1.3272    2.5990    0.0490 H   0  0  0  0  0  0  0  0  0  0  0  0
   -0.0646    3.6501   -1.3329 C   0  0  0  0  0  0  0  0  0  0  0  0
    0.9526    4.0892   -1.3962 H   0  0  0  0  0  0  0  0  0  0  0  0
   -0.8012    4.4647   -1.4850 H   0  0  0  0  0  0  0  0  0  0  0  0
   -0.1708    2.9009   -2.1423 H   0  0  0  0  0  0  0  0  0  0  0  0
   -0.1042    3.9302    1.2126 C   0  0  0  0  0  0  0  0  0  0  0  0
   -0.2534    3.4019    2.1760 H   0  0  0  0  0  0  0  0  0  0  0  0
   -0.8403    4.7565    1.1511 H   0  0  0  0  0  0  0  0  0  0  0  0
    0.9061    4.3880    1.2247 H   0  0  0  0  0  0  0  0  0  0  0  0
  1  2  1  0  0  0  0
  2  3  1  0  0  0  0
  4  2  1  0  0  0  0
  4 12  1  0  0  0  0
  5  4  2  0  0  0  0
  6  8  2  0  0  0  0
  6  5  1  0  0  0  0
  7  6  1  0  0  0  0
  8 10  1  0  0  0  0
  9  8  1  0  0  0  0
 10 11  1  0  0  0  0
 10 12  2  0  0  0  0
 12 13  1  0  0  0  0
 14 15  1  0  0  0  0
 14  1  1  0  0  0  0
 14 20  1  0  0  0  0
 16 14  1  0  0  0  0
 17 16  1  0  0  0  0
 18 16  1  0  0  0  0
 19 16  1  0  0  0  0
 20 23  1  0  0  0  0
 20 21  1  0  0  0  0
 22 20  1  0  0  0  0
M  END
