1,3
q = -1.0, confidence = 0.0

 32 32  0  0  0  0  0  0  0  0999 V2000
   -0.5786    0.9151    0.0494 N   0  0  0  0  0  0  0  0  0  0  0  0
    2.0440    1.3653    1.1068 C   0  0  0  0  0  3  0  0  0  0  0  0
    2.2893    1.6575   -0.2655 C   0  0  0  0  0  3  0  0  0  0  0  0
    1.2761    1.7106   -1.2550 C   0  0  0  0  0  3  0  0  0  0  0  0
   -0.1644    1.9925   -0.8975 C   0  0  0  0  0  0  0  0  0  0  0  0
    3.1819    1.1372    2.0702 C   0  0  0  0  0  0  0  0  0  0  0  0
   -1.9274    0.3464   -0.1985 C   0  0  0  0  0  0  0  0  0  0  0  0
   -2.1856   -0.8717    0.6930 C   0  0  0  0  0  0  0  0  0  0  0  0
   -3.5853   -1.4553    0.4605 C   0  0  0  0  0  0  0  0  0  0  0  0
   -4.6840   -0.4016    0.6412 C   0  0  0  0  0  0  0  0  0  0  0  0
   -4.4282    0.8158   -0.2543 C   0  0  0  0  0  0  0  0  0  0  0  0
   -3.0311    1.4034   -0.0134 C   0  0  0  0  0  0  0  0  0  0  0  0
    1.1409    1.7942    1.5814 H   0  0  0  0  0  0  0  0  0  0  0  0
    3.3339    1.6150   -0.6225 H   0  0  0  0  0  0  0  0  0  0  0  0
    1.5827    1.8418   -2.3031 H   0  0  0  0  0  0  0  0  0  0  0  0
   -0.3368    3.0071   -0.4673 H   0  0  0  0  0  0  0  0  0  0  0  0
   -0.7956    1.9142   -1.8040 H   0  0  0  0  0  0  0  0  0  0  0  0
    2.8822    0.4580    2.8935 H   0  0  0  0  0  0  0  0  0  0  0  0
    4.0533    0.6777    1.5623 H   0  0  0  0  0  0  0  0  0  0  0  0
    3.5226    2.0879    2.5371 H   0  0  0  0  0  0  0  0  0  0  0  0
   -0.5746    1.2750    1.0144 H   0  0  0  0  0  0  0  0  0  0  0  0
   -1.9294    0.0066   -1.2577 H   0  0  0  0  0  0  0  0  0  0  0  0
   -2.0765   -0.5684    1.7596 H   0  0  0  0  0  0  0  0  0  0  0  0
   -1.4109   -1.6385    0.5031 H   0  0  0  0  0  0  0  0  0  0  0  0
   -3.7491   -2.3150    1.1422 H   0  0  0  0  0  0  0  0  0  0  0  0
   -3.6364   -1.8653   -0.5729 H   0  0  0  0  0  0  0  0  0  0  0  0
   -4.7085   -0.0741    1.7051 H   0  0  0  0  0  0  0  0  0  0  0  0
   -5.6810   -0.8385    0.4256 H   0  0  0  0  0  0  0  0  0  0  0  0
   -5.1997    1.5964   -0.0904 H   0  0  0  0  0  0  0  0  0  0  0  0
   -4.5144    0.5116   -1.3215 H   0  0  0  0  0  0  0  0  0  0  0  0
   -2.8572    2.2685   -0.6866 H   0  0  0  0  0  0  0  0  0  0  0  0
   -2.9698    1.7942    1.0291 H   0  0  0  0  0  0  0  0  0  0  0  0
  1 21  1  0  0  0  0
  2 13  1  0  0  0  0
  2  6  1  0  0  0  0
  3  2  1  0  0  0  0
  4  5  1  0  0  0  0
  4  3  1  0  0  0  0
  5 16  1  0  0  0  0
  5  1  1  0  0  0  0
  6 20  1  0  0  0  0
  6 18  1  0  0  0  0
  7 12  1  0  0  0  0
  7  1  1  0  0  0  0
  7  8  1  0  0  0  0
  8 23  1  0  0  0  0
  9 10  1  0  0  0  0
  9  8  1  0  0  0  0
  9 25  1  0  0  0  0
 10 27  1  0  0  0  0
 11 29  1  0  0  0  0
 11 12  1  0  0  0  0
 11 10  1  0  0  0  0
 12 32  1  0  0  0  0
 14  3  1  0  0  0  0
 15  4  1  0  0  0  0
 17  5  1  0  0  0  0
 19  6  1  0  0  0  0
 22  7  1  0  0  0  0
 24  8  1  0  0  0  0
 26  9  1  0  0  0  0
 28 10  1  0  0  0  0
 30 11  1  0  0  0  0
 31 12  1  0  0  0  0
M  END
