4,9
q = -1.0, confidence = 0.004

 34 36  0  0  0  0  0  0  0  0999 V2000
    5.9823   -1.2482    0.9123 O   0  0  0  0  0  0  0  0  0  0  0  0
    1.3528    1.9877   -1.6689 N   0  0  0  0  0  0  0  0  0  0  0  0
    0.7459    0.7934   -1.6640 N   0  0  0  0  0  2  0  0  0  0  0  0
   -0.2637    0.9161   -0.8322 N   0  0  0  0  0  2  0  0  0  0  0  0
   -0.3369    2.1859   -0.2886 C   0  0  0  0  0  0  0  0  0  0  0  0
    0.7378    2.8829   -0.8336 C   0  0  0  0  0  0  0  0  0  0  0  0
    1.0991    3.9062   -0.7018 H   0  0  0  0  0  0  0  0  0  0  0  0
   -1.4268    2.3748    0.6461 C   0  0  0  0  0  0  0  0  0  0  0  0
   -2.2047    1.1851    0.8326 C   0  0  0  0  0  3  0  0  0  0  0  0
   -3.3210    1.2974    1.6900 C   0  0  0  0  0  0  0  0  0  0  0  0
   -3.9839    0.4300    1.8331 H   0  0  0  0  0  0  0  0  0  0  0  0
   -3.6230    2.4984    2.3519 C   0  0  0  0  0  0  0  0  0  0  0  0
   -4.5004    2.5462    3.0167 H   0  0  0  0  0  0  0  0  0  0  0  0
   -2.8250    3.6437    2.1704 C   0  0  0  0  0  0  0  0  0  0  0  0
   -3.0698    4.5814    2.6913 H   0  0  0  0  0  0  0  0  0  0  0  0
   -1.7258    3.5826    1.3064 C   0  0  0  0  0  0  0  0  0  0  0  0
   -1.1032    4.4759    1.1354 H   0  0  0  0  0  0  0  0  0  0  0  0
    2.6780    2.0889   -2.2925 C   0  0  0  0  0  0  0  0  0  0  0  0
    2.9371    3.1644   -2.3210 H   0  0  0  0  0  0  0  0  0  0  0  0
    2.5864    1.7233   -3.3334 H   0  0  0  0  0  0  0  0  0  0  0  0
    3.6832    1.2769   -1.5078 C   0  0  0  0  0  0  0  0  0  0  0  0
    4.2611    1.7873   -0.3340 C   0  0  0  0  0  0  0  0  0  0  0  0
    4.0743    2.8335   -0.0426 H   0  0  0  0  0  0  0  0  0  0  0  0
    5.0550    0.9839    0.4990 C   0  0  0  0  0  0  0  0  0  0  0  0
    5.4831    1.4136    1.4139 H   0  0  0  0  0  0  0  0  0  0  0  0
    5.2757   -0.3667    0.1564 C   0  0  0  0  0  0  0  0  0  0  0  0
    4.7256   -0.8803   -1.0389 C   0  0  0  0  0  0  0  0  0  0  0  0
    4.9180   -1.9327   -1.2916 H   0  0  0  0  0  0  0  0  0  0  0  0
    3.9364   -0.0677   -1.8524 C   0  0  0  0  0  0  0  0  0  0  0  0
    3.4809   -0.4890   -2.7614 H   0  0  0  0  0  0  0  0  0  0  0  0
    6.5192   -0.8011    2.1452 C   0  0  0  0  0  0  0  0  0  0  0  0
    7.2581    0.0184    2.0015 H   0  0  0  0  0  0  0  0  0  0  0  0
    7.0304   -1.6710    2.5966 H   0  0  0  0  0  0  0  0  0  0  0  0
    5.7220   -0.4492    2.8375 H   0  0  0  0  0  0  0  0  0  0  0  0
  1 31  1  0  0  0  0
  2  3  1  0  0  0  0
  2  6  1  0  0  0  0
  3  4  1  0  0  0  0
  4  5  1  0  0  0  0
  5  8  1  0  0  0  0
  6  7  1  0  0  0  0
  6  5  2  0  0  0  0
  8  9  2  0  0  0  0
  8 16  1  0  0  0  0
  9 10  1  0  0  0  0
 10 11  1  0  0  0  0
 10 12  2  0  0  0  0
 12 13  1  0  0  0  0
 14 12  1  0  0  0  0
 14 15  1  0  0  0  0
 16 14  2  0  0  0  0
 17 16  1  0  0  0  0
 18  2  1  0  0  0  0
 18 21  1  0  0  0  0
 19 18  1  0  0  0  0
 20 18  1  0  0  0  0
 21 22  1  0  0  0  0
 22 23  1  0  0  0  0
 22 24  2  0  0  0  0
 24 25  1  0  0  0  0
 26 24  1  0  0  0  0
 26  1  1  0  0  0  0
 27 26  2  0  0  0  0
 28 27  1  0  0  0  0
 29 21  2  0  0  0  0
 29 27  1  0  0  0  0
 30 29  1  0  0  0  0
 31 33  1  0  0  0  0
 31 34  1  0  0  0  0
 32 31  1  0  0  0  0
M  END
