1,2
q = -1.0, confidence = 0.002

 36 39  0  0  0  0  0  0  0  0999 V2000
    1.3312   -2.2415    0.1383 N   0  0  0  0  0  0  0  0  0  0  0  0
   -0.0687    0.0822   -0.1225 C   0  0  0  0  0  3  0  0  0  0  0  0
   -0.7546    1.2962    0.0426 C   0  0  0  0  0  0  0  0  0  0  0  0
   -0.1891    2.2381    0.1160 H   0  0  0  0  0  0  0  0  0  0  0  0
   -2.1654    1.3477    0.0879 C   0  0  0  0  0  0  0  0  0  0  0  0
   -2.8701    2.5913    0.2606 C   0  0  0  0  0  0  0  0  0  0  0  0
   -2.2764    3.5137    0.3544 H   0  0  0  0  0  0  0  0  0  0  0  0
   -4.2422    2.6353    0.3076 C   0  0  0  0  0  0  0  0  0  0  0  0
   -4.7660    3.5949    0.4414 H   0  0  0  0  0  0  0  0  0  0  0  0
   -5.0311    1.4383    0.1807 C   0  0  0  0  0  0  0  0  0  0  0  0
   -6.4435    1.4550    0.2228 C   0  0  0  0  0  0  0  0  0  0  0  0
   -6.9599    2.4178    0.3607 H   0  0  0  0  0  0  0  0  0  0  0  0
   -7.1823    0.2712    0.0904 C   0  0  0  0  0  0  0  0  0  0  0  0
   -8.2818    0.3068    0.1258 H   0  0  0  0  0  0  0  0  0  0  0  0
   -6.5311   -0.9566   -0.0889 C   0  0  0  0  0  0  0  0  0  0  0  0
   -7.1142   -1.8846   -0.1957 H   0  0  0  0  0  0  0  0  0  0  0  0
   -5.1205   -1.0248   -0.1367 C   0  0  0  0  0  0  0  0  0  0  0  0
   -4.4131   -2.2622   -0.3228 C   0  0  0  0  0  0  0  0  0  0  0  0
   -4.9989   -3.1884   -0.4332 H   0  0  0  0  0  0  0  0  0  0  0  0
   -3.0400   -2.3055   -0.3669 C   0  0  0  0  0  0  0  0  0  0  0  0
   -2.5432   -3.2746   -0.5208 H   0  0  0  0  0  0  0  0  0  0  0  0
   -2.2396   -1.1144   -0.2215 C   0  0  0  0  0  0  0  0  0  0  0  0
   -0.8210   -1.1177   -0.2550 C   0  0  0  0  0  0  0  0  0  0  0  0
   -2.9248    0.1373   -0.0418 C   0  0  0  0  0  0  0  0  0  0  0  0
   -4.3536    0.1824    0.0015 C   0  0  0  0  0  0  0  0  0  0  0  0
   -0.0206   -2.3641   -0.4977 C   0  0  0  0  0  0  0  0  0  0  0  0
   -0.5048   -3.2922   -0.1238 H   0  0  0  0  0  0  0  0  0  0  0  0
    0.1523   -2.5013   -1.5866 H   0  0  0  0  0  0  0  0  0  0  0  0
    2.2786   -3.1814   -0.5063 C   0  0  0  0  0  0  0  0  0  0  0  0
    3.2774   -3.0551   -0.0518 H   0  0  0  0  0  0  0  0  0  0  0  0
    2.3508   -2.9422   -1.5828 H   0  0  0  0  0  0  0  0  0  0  0  0
    1.9133   -4.2242   -0.3790 H   0  0  0  0  0  0  0  0  0  0  0  0
    1.2489   -2.5297    1.5939 C   0  0  0  0  0  0  0  0  0  0  0  0
    2.2386   -2.3421    2.0490 H   0  0  0  0  0  0  0  0  0  0  0  0
    0.9547   -3.5913    1.7522 H   0  0  0  0  0  0  0  0  0  0  0  0
    0.4972   -1.8637    2.0549 H   0  0  0  0  0  0  0  0  0  0  0  0
  1 33  1  0  0  0  0
  2  3  1  0  0  0  0
  3  5  2  0  0  0  0
  3  4  1  0  0  0  0
  5  6  1  0  0  0  0
  6  8  2  0  0  0  0
  6  7  1  0  0  0  0
  8  9  1  0  0  0  0
 10 11  1  0  0  0  0
 10  8  1  0  0  0  0
 11 12  1  0  0  0  0
 13 14  1  0  0  0  0
 13 11  2  0  0  0  0
 15 13  1  0  0  0  0
 16 15  1  0  0  0  0
 17 15  2  0  0  0  0
 17 25  1  0  0  0  0
 18 17  1  0  0  0  0
 19 18  1  0  0  0  0
 20 18  2  0  0  0  0
 20 22  1  0  0  0  0
 21 20  1  0  0  0  0
 22 24  2  0  0  0  0
 23 22  1  0  0  0  0
 23  2  2  0  0  0  0
 24 25  1  0  0  0  0
 24  5  1  0  0  0  0
 25 10  2  0  0  0  0
 26 23  1  0  0  0  0
 26 27  1  0  0  0  0
 26  1  1  0  0  0  0
 28 26  1  0  0  0  0
 29 32  1  0  0  0  0
 29 30  1  0  0  0  0
 29  1  1  0  0  0  0
 31 29  1  0  0  0  0
 33 35  1  0  0  0  0
 33 34  1  0  0  0  0
 33 36  1  0  0  0  0
M  END
