2,4
q = -1.0, confidence = 0.0

 34 37  0  0  0  0  0  0  0  0999 V2000
   -2.3745    0.5153   -0.0975 N   0  0  0  0  0  0  0  0  0  0  0  0
    0.4639   -1.8631   -0.0932 N   0  0  0  0  0  2  0  0  0  0  0  0
   -1.1681   -0.2067   -0.0472 C   0  0  0  0  0  0  0  0  0  0  0  0
   -0.0708    0.6692   -0.0252 C   0  0  0  0  0  3  0  0  0  0  0  0
   -0.6098    1.9973   -0.0637 C   0  0  0  0  0  0  0  0  0  0  0  0
   -0.0293    3.2876   -0.0537 C   0  0  0  0  0  0  0  0  0  0  0  0
    1.0658    3.3738   -0.0263 H   0  0  0  0  0  0  0  0  0  0  0  0
   -0.8651    4.4050   -0.0696 C   0  0  0  0  0  0  0  0  0  0  0  0
   -0.4293    5.4156   -0.0633 H   0  0  0  0  0  0  0  0  0  0  0  0
   -2.2760    4.2602   -0.0837 C   0  0  0  0  0  0  0  0  0  0  0  0
   -2.9109    5.1594   -0.0831 H   0  0  0  0  0  0  0  0  0  0  0  0
   -2.8845    2.9998   -0.0954 C   0  0  0  0  0  0  0  0  0  0  0  0
   -3.9791    2.8971   -0.0956 H   0  0  0  0  0  0  0  0  0  0  0  0
   -2.0441    1.8722   -0.1034 C   0  0  0  0  0  3  0  0  0  0  0  0
   -0.8980   -1.6178   -0.1400 C   0  0  0  0  0  0  0  0  0  0  0  0
   -1.7903   -2.7025   -0.3003 C   0  0  0  0  0  0  0  0  0  0  0  0
   -2.8684   -2.5119   -0.3652 H   0  0  0  0  0  0  0  0  0  0  0  0
   -1.2879   -4.0042   -0.3808 C   0  0  0  0  0  0  0  0  0  0  0  0
   -1.9812   -4.8497   -0.5061 H   0  0  0  0  0  0  0  0  0  0  0  0
    0.0980   -4.2256   -0.3054 C   0  0  0  0  0  0  0  0  0  0  0  0
    0.5271   -5.2353   -0.3614 H   0  0  0  0  0  0  0  0  0  0  0  0
    0.9413   -3.1171   -0.1688 C   0  0  0  0  0  0  0  0  0  0  0  0
    2.0391   -3.1990   -0.1220 H   0  0  0  0  0  0  0  0  0  0  0  0
   -3.6901    0.0076    0.0551 C   0  0  0  0  0  0  0  0  0  0  0  0
   -4.6775    0.3059   -0.9045 C   0  0  0  0  0  0  0  0  0  0  0  0
   -4.4073    0.9135   -1.7801 H   0  0  0  0  0  0  0  0  0  0  0  0
   -5.9804   -0.1870   -0.7427 C   0  0  0  0  0  0  0  0  0  0  0  0
   -6.7472    0.0485   -1.4962 H   0  0  0  0  0  0  0  0  0  0  0  0
   -6.3030   -0.9910    0.3626 C   0  0  0  0  0  0  0  0  0  0  0  0
   -7.3242   -1.3826    0.4818 H   0  0  0  0  0  0  0  0  0  0  0  0
   -5.3165   -1.2909    1.3169 C   0  0  0  0  0  0  0  0  0  0  0  0
   -5.5644   -1.9125    2.1906 H   0  0  0  0  0  0  0  0  0  0  0  0
   -4.0170   -0.7858    1.1740 C   0  0  0  0  0  0  0  0  0  0  0  0
   -3.2419   -0.9963    1.9254 H   0  0  0  0  0  0  0  0  0  0  0  0
  1  3  1  0  0  0  0
  1 24  1  0  0  0  0
  3  4  1  0  0  0  0
  5  6  1  0  0  0  0
  5  4  2  0  0  0  0
  6  7  1  0  0  0  0
  8  9  1  0  0  0  0
  8  6  2  0  0  0  0
 10 11  1  0  0  0  0
 10  8  1  0  0  0  0
 12 10  2  0  0  0  0
 13 12  1  0  0  0  0
 14  1  1  0  0  0  0
 14 12  1  0  0  0  0
 14  5  1  0  0  0  0
 15  2  1  0  0  0  0
 15  3  2  0  0  0  0
 16 15  1  0  0  0  0
 17 16  1  0  0  0  0
 18 20  1  0  0  0  0
 18 16  2  0  0  0  0
 19 18  1  0  0  0  0
 20 22  2  0  0  0  0
 21 20  1  0  0  0  0
 22 23  1  0  0  0  0
 22  2  1  0  0  0  0
 24 33  1  0  0  0  0
 25 27  1  0  0  0  0
 25 24  2  0  0  0  0
 26 25  1  0  0  0  0
 27 29  2  0  0  0  0
 28 27  1  0  0  0  0
 29 30  1  0  0  0  0
 29 31  1  0  0  0  0
 31 32  1  0  0  0  0
 33 31  2  0  0  0  0
 33 34  1  0  0  0  0
M  END
