1,3
q = -1.0, confidence = 0.0

 17 17  0  0  0  0  0  0  0  0999 V2000
   -0.8544   -2.2743    0.5741 N   0  0  0  0  0  2  0  0  0  0  0  0
   -2.9205   -1.3055    0.0637 C   0  0  0  0  0  0  0  0  0  0  0  0
   -2.1167   -0.2166   -0.4369 C   0  0  0  0  0  2  0  0  0  0  0  0
   -2.8273    0.7509   -1.1806 C   0  0  0  0  0  0  0  0  0  0  0  0
   -4.2248    0.7038   -1.3292 C   0  0  0  0  0  0  0  0  0  0  0  0
   -4.9886   -0.3281   -0.7542 C   0  0  0  0  0  0  0  0  0  0  0  0
   -4.3253   -1.3497   -0.0700 C   0  0  0  0  0  0  0  0  0  0  0  0
   -2.1568   -2.3936    0.6123 C   0  0  0  0  0  0  0  0  0  0  0  0
    0.0155   -3.3365    1.0447 C   0  0  0  0  0  0  0  0  0  0  0  0
   -2.2965    1.5710   -1.6815 H   0  0  0  0  0  0  0  0  0  0  0  0
   -4.7272    1.4919   -1.9126 H   0  0  0  0  0  0  0  0  0  0  0  0
   -6.0827   -0.3444   -0.8665 H   0  0  0  0  0  0  0  0  0  0  0  0
   -4.8851   -2.2015    0.3488 H   0  0  0  0  0  0  0  0  0  0  0  0
   -2.6220   -3.3149    1.0103 H   0  0  0  0  0  0  0  0  0  0  0  0
    0.6780   -3.6675    0.2212 H   0  0  0  0  0  0  0  0  0  0  0  0
   -0.5793   -4.1937    1.4215 H   0  0  0  0  0  0  0  0  0  0  0  0
    0.6805   -2.9514    1.8415 H   0  0  0  0  0  0  0  0  0  0  0  0
  1  8  1  0  0  0  0
  1  9  1  0  0  0  0
  2  8  2  0  0  0  0
  3  2  1  0  0  0  0
  4  3  1  0  0  0  0
  5  4  2  0  0  0  0
  5  6  1  0  0  0  0
  6  7  2  0  0  0  0
  7  2  1  0  0  0  0
  7 13  1  0  0  0  0
  8 14  1  0  0  0  0
  9 16  1  0  0  0  0
  9 17  1  0  0  0  0
 10  4  1  0  0  0  0
 11  5  1  0  0  0  0
 12  6  1  0  0  0  0
 15  9  1  0  0  0  0
M  END
