1,4
q = -1.0, confidence = 0.002

 29 32  0  0  1  0  0  0  0  0999 V2000
    0.6259   -0.8163   -0.8232 N   0  0  0  0  0  2  0  0  0  0  0  0
    2.8245   -1.0531   -0.6265 N   0  0  0  0  0  0  0  0  0  0  0  0
    5.0815   -1.6347   -0.4324 N   0  0  0  0  0  0  0  0  0  0  0  0
   -0.5373    1.6956   -0.3912 C   0  0  0  0  0  3  0  0  0  0  0  0
    4.3096    0.5741    0.3331 C   0  0  0  0  0  0  0  0  0  0  0  0
    0.8028    2.1151   -0.1022 C   0  0  0  0  0  0  0  0  0  0  0  0
    1.9220    1.1595    0.0232 C   0  0  0  0  0  0  0  0  0  0  0  0
    1.7506   -0.1877   -0.4479 C   0  0  0  0  0  0  0  0  0  0  0  0
    2.3460   -2.2305   -1.1778 C   0  0  0  0  0  0  0  0  0  0  0  0
    3.0263   -3.0497   -1.4212 H   0  0  0  0  0  0  0  0  0  0  0  0
    4.1272   -0.7220   -0.2433 C   0  0  2  0  0  3  0  0  0  0  0  0
    0.1276    4.4752   -0.2788 C   0  0  0  0  0  0  0  0  0  0  0  0
    0.3893    5.5426   -0.2271 H   0  0  0  0  0  0  0  0  0  0  0  0
   -1.1713    4.0688   -0.6372 C   0  0  0  0  0  0  0  0  0  0  0  0
   -1.9403    4.8197   -0.8791 H   0  0  0  0  0  0  0  0  0  0  0  0
    1.0981    3.5048   -0.0365 C   0  0  0  0  0  0  0  0  0  0  0  0
    2.1272    3.8335    0.1696 H   0  0  0  0  0  0  0  0  0  0  0  0
    6.6462   -0.0754    0.5513 C   0  0  0  0  0  0  0  0  0  0  0  0
    7.6817    0.1344    0.8561 H   0  0  0  0  0  0  0  0  0  0  0  0
    3.2099    1.4863    0.4422 C   0  0  0  0  0  0  0  0  0  0  0  0
    3.4221    2.4882    0.8395 H   0  0  0  0  0  0  0  0  0  0  0  0
    6.3209   -1.3150   -0.0413 C   0  0  0  0  0  0  0  0  0  0  0  0
    7.1000   -2.0793   -0.2044 H   0  0  0  0  0  0  0  0  0  0  0  0
    0.9790   -2.0602   -1.2982 C   0  0  0  0  0  0  0  0  0  0  0  0
    0.2210   -2.7446   -1.6913 H   0  0  0  0  0  0  0  0  0  0  0  0
   -1.4819    2.7071   -0.7010 C   0  0  0  0  0  0  0  0  0  0  0  0
   -2.4912    2.3979   -1.0105 H   0  0  0  0  0  0  0  0  0  0  0  0
    5.6381    0.8697    0.7362 C   0  0  0  0  0  0  0  0  0  0  0  0
    5.8555    1.8498    1.1880 H   0  0  0  0  0  0  0  0  0  0  0  0
  1  8  1  0  0  0  0
  2  8  1  0  0  0  0
  2 11  1  0  0  0  0
  3 22  2  0  0  0  0
  4  6  1  0  0  0  0
  5 20  2  0  0  0  0
  5 28  1  0  0  0  0
  6 16  2  0  0  0  0
  6  7  1  0  0  0  0
  7 20  1  0  0  0  0
  8  7  2  0  0  0  0
  9  2  1  0  0  0  0
 10  9  1  0  0  0  0
 11  3  1  1  0  0  0
 11  5  1  0  0  0  0
 12 13  1  0  0  0  0
 12 16  1  0  0  0  0
 14 12  2  0  0  0  0
 15 14  1  0  0  0  0
 16 17  1  0  0  0  0
 18 28  2  0  0  0  0
 18 19  1  0  0  0  0
 20 21  1  0  0  0  0
 22 18  1  0  0  0  0
 23 22  1  0  0  0  0
 24  9  2  0  0  0  0
 24  1  1  0  0  0  0
 25 24  1  0  0  0  0
 26 14  1  0  0  0  0
 26  4  2  0  0  0  0
 27 26  1  0  0  0  0
 28 29  1  0  0  0  0
M  END
