1,13
q = 0.0, confidence = 0.948

 29 30  0  0  1  0  0  0  0  0999 V2000
   -1.7158    1.3707    0.0593 N   0  0  0  0  0  2  0  0  0  0  0  0
   -2.9635    1.3822   -0.4690 C   0  0  2  0  0  3  0  0  0  0  0  0
   -3.6581   -0.1918   -1.2174 Br  0  0  0  0  0  0  0  0  0  0  0  0
   -3.7519    2.5419   -0.5084 C   0  0  0  0  0  0  0  0  0  0  0  0
   -4.7670    2.4885   -0.9223 H   0  0  0  0  0  0  0  0  0  0  0  0
   -3.2157    3.7459   -0.0318 C   0  0  0  0  0  0  0  0  0  0  0  0
   -3.8175    4.6658   -0.0563 H   0  0  0  0  0  0  0  0  0  0  0  0
   -1.9025    3.7715    0.4444 C   0  0  0  0  0  0  0  0  0  0  0  0
   -1.4245    4.7011    0.7826 H   0  0  0  0  0  0  0  0  0  0  0  0
   -1.1905    2.5654    0.4599 C   0  0  0  0  0  0  0  0  0  0  0  0
    0.1338    2.4668    0.8471 N   0  0  0  0  0  0  0  0  0  0  0  0
    0.6116    3.2807    1.2527 H   0  0  0  0  0  0  0  0  0  0  0  0
    0.7699    1.2800    0.7128 C   0  0  0  0  0  2  0  0  0  0  0  0
    2.1932    1.3207    1.2338 C   0  0  0  0  0  0  0  0  0  0  0  0
    2.3010    1.6483    2.4212 O   0  0  0  0  0  0  0  0  0  0  0  0
    3.3147    0.9801    0.3509 C   0  0  0  0  0  0  0  0  0  0  0  0
    3.1335    0.6956   -1.0229 C   0  0  0  0  0  0  0  0  0  0  0  0
    2.1259    0.6903   -1.4697 H   0  0  0  0  0  0  0  0  0  0  0  0
    4.2423    0.4007   -1.8228 C   0  0  0  0  0  0  0  0  0  0  0  0
    4.0932    0.1803   -2.8909 H   0  0  0  0  0  0  0  0  0  0  0  0
    5.5484    0.3767   -1.2867 C   0  0  0  0  0  0  0  0  0  0  0  0
    5.7150    0.6667    0.0917 C   0  0  0  0  0  0  0  0  0  0  0  0
    6.7270    0.6540    0.5255 H   0  0  0  0  0  0  0  0  0  0  0  0
    4.6220    0.9703    0.8986 C   0  0  0  0  0  0  0  0  0  0  0  0
    4.7465    1.2042    1.9664 H   0  0  0  0  0  0  0  0  0  0  0  0
    6.7409    0.0720   -2.1479 C   0  0  0  0  0  0  0  0  0  0  0  0
    7.3600    0.9837   -2.2890 H   0  0  0  0  0  0  0  0  0  0  0  0
    6.4477   -0.2947   -3.1493 H   0  0  0  0  0  0  0  0  0  0  0  0
    7.3987   -0.6836   -1.6726 H   0  0  0  0  0  0  0  0  0  0  0  0
  1 10  1  0  0  0  0
  2  3  1  6  0  0  0
  2  1  1  0  0  0  0
  4  2  1  0  0  0  0
  4  6  2  0  0  0  0
  5  4  1  0  0  0  0
  6  8  1  0  0  0  0
  7  6  1  0  0  0  0
  8 10  2  0  0  0  0
  8  9  1  0  0  0  0
 10 11  1  0  0  0  0
 11 12  1  0  0  0  0
 13 11  1  0  0  0  0
 13 14  1  0  0  0  0
 14 15  2  0  0  0  0
 16 24  1  0  0  0  0
 16 14  1  0  0  0  0
 17 16  2  0  0  0  0
 18 17  1  0  0  0  0
 19 21  2  0  0  0  0
 19 17  1  0  0  0  0
 20 19  1  0  0  0  0
 21 22  1  0  0  0  0
 22 23  1  0  0  0  0
 22 24  2  0  0  0  0
 24 25  1  0  0  0  0
 26 29  1  0  0  0  0
 26 21  1  0  0  0  0
 27 26  1  0  0  0  0
 28 26  1  0  0  0  0
M  END
