2,15
q = 0.0, confidence = 0.994

 34 36  0  0  0  0  0  0  0  0999 V2000
    3.1304    2.0399   -0.1792 N   0  0  0  0  0  0  0  0  0  0  0  0
    1.9125    1.5396    0.1876 C   0  0  0  0  0  2  0  0  0  0  0  0
    1.2876    2.5875    0.8175 N   0  0  0  0  0  0  0  0  0  0  0  0
    2.0995    3.7146    0.8507 C   0  0  0  0  0  0  0  0  0  0  0  0
    1.7851    4.6579    1.3071 H   0  0  0  0  0  0  0  0  0  0  0  0
    3.2645    3.3629    0.2244 C   0  0  0  0  0  0  0  0  0  0  0  0
    4.1690    3.9441    0.0224 H   0  0  0  0  0  0  0  0  0  0  0  0
    4.1498    1.3078   -0.9224 C   0  0  0  0  0  0  0  0  0  0  0  0
    4.8115    0.7480   -0.2329 H   0  0  0  0  0  0  0  0  0  0  0  0
    4.7581    2.0285   -1.4979 H   0  0  0  0  0  0  0  0  0  0  0  0
    3.6403    0.6192   -1.6226 H   0  0  0  0  0  0  0  0  0  0  0  0
   -0.0632    2.4971    1.3658 C   0  0  0  0  0  0  0  0  0  0  0  0
   -0.3907    3.5075    1.6698 H   0  0  0  0  0  0  0  0  0  0  0  0
   -0.0405    1.8587    2.2760 H   0  0  0  0  0  0  0  0  0  0  0  0
   -0.6918    0.7617   -0.3001 N   0  0  0  0  0  2  0  0  0  0  0  0
   -1.6635    0.3926   -1.1052 N   0  0  0  0  0  2  0  0  0  0  0  0
   -2.6268    1.3040   -0.9588 N   0  0  0  0  0  0  0  0  0  0  0  0
   -2.2838    2.2705   -0.0585 C   0  0  0  0  0  0  0  0  0  0  0  0
   -2.9472    3.1009    0.2015 H   0  0  0  0  0  0  0  0  0  0  0  0
   -1.0146    1.9118    0.3709 C   0  0  0  0  0  0  0  0  0  0  0  0
   -3.9192    1.1078   -1.6361 C   0  0  0  0  0  0  0  0  0  0  0  0
   -3.6906    0.5087   -2.5374 H   0  0  0  0  0  0  0  0  0  0  0  0
   -4.2770    2.1035   -1.9595 H   0  0  0  0  0  0  0  0  0  0  0  0
   -4.9223    0.4219   -0.7346 C   0  0  0  0  0  0  0  0  0  0  0  0
   -4.7813   -0.9498   -0.4426 C   0  0  0  0  0  0  0  0  0  0  0  0
   -3.9603   -1.5223   -0.9020 H   0  0  0  0  0  0  0  0  0  0  0  0
   -5.6848   -1.5830    0.4217 C   0  0  0  0  0  0  0  0  0  0  0  0
   -5.5754   -2.6562    0.6387 H   0  0  0  0  0  0  0  0  0  0  0  0
   -6.7374   -0.8524    0.9988 C   0  0  0  0  0  0  0  0  0  0  0  0
   -7.4504   -1.3521    1.6714 H   0  0  0  0  0  0  0  0  0  0  0  0
   -6.8856    0.5120    0.7075 C   0  0  0  0  0  0  0  0  0  0  0  0
   -7.7148    1.0844    1.1490 H   0  0  0  0  0  0  0  0  0  0  0  0
   -5.9787    1.1480   -0.1549 C   0  0  0  0  0  0  0  0  0  0  0  0
   -6.1033    2.2175   -0.3893 H   0  0  0  0  0  0  0  0  0  0  0  0
  1  2  1  0  0  0  0
  1  6  1  0  0  0  0
  2  3  1  0  0  0  0
  3  4  1  0  0  0  0
  3 12  1  0  0  0  0
  4  5  1  0  0  0  0
  6  4  2  0  0  0  0
  7  6  1  0  0  0  0
  8  9  1  0  0  0  0
  8  1  1  0  0  0  0
 10  8  1  0  0  0  0
 11  8  1  0  0  0  0
 12 13  1  0  0  0  0
 12 14  1  0  0  0  0
 15 20  1  0  0  0  0
 16 17  1  0  0  0  0
 16 15  1  0  0  0  0
 17 18  1  0  0  0  0
 18 19  1  0  0  0  0
 18 20  2  0  0  0  0
 20 12  1  0  0  0  0
 21 17  1  0  0  0  0
 21 24  1  0  0  0  0
 22 21  1  0  0  0  0
 23 21  1  0  0  0  0
 24 25  2  0  0  0  0
 24 33  1  0  0  0  0
 25 27  1  0  0  0  0
 26 25  1  0  0  0  0
 27 28  1  0  0  0  0
 27 29  2  0  0  0  0
 29 30  1  0  0  0  0
 31 29  1  0  0  0  0
 31 32  1  0  0  0  0
 33 31  2  0  0  0  0
 34 33  1  0  0  0  0
M  END
