2,13
q = 0.0, confidence = 0.994

 52 55  0  0  0  0  0  0  0  0999 V2000
   -2.0795    1.9681   -0.6388 N   0  0  0  0  0  0  0  0  0  0  0  0
   -1.1142    1.0322   -0.9161 C   0  0  0  0  0  2  0  0  0  0  0  0
   -0.1537    1.7418   -1.5928 N   0  0  0  0  0  0  0  0  0  0  0  0
   -0.5012    3.0798   -1.7318 C   0  0  0  0  0  0  0  0  0  0  0  0
    0.1348    3.8068   -2.2458 H   0  0  0  0  0  0  0  0  0  0  0  0
   -1.7212    3.2228   -1.1280 C   0  0  0  0  0  0  0  0  0  0  0  0
   -2.3594    4.1001   -0.9903 H   0  0  0  0  0  0  0  0  0  0  0  0
    1.1246    1.1492   -1.9896 C   0  0  0  0  0  0  0  0  0  0  0  0
    1.7537    1.9338   -2.4472 H   0  0  0  0  0  0  0  0  0  0  0  0
    0.9339    0.3698   -2.7573 H   0  0  0  0  0  0  0  0  0  0  0  0
    3.1050   -0.1557    0.8000 N   0  0  0  0  0  0  0  0  0  0  0  0
    1.9181   -0.7332    0.9980 N   0  0  0  0  0  2  0  0  0  0  0  0
    1.1343   -0.3144    0.0239 N   0  0  0  0  0  2  0  0  0  0  0  0
    1.8115    0.5432   -0.8037 C   0  0  0  0  0  0  0  0  0  0  0  0
    3.1015    0.6487   -0.3014 C   0  0  0  0  0  0  0  0  0  0  0  0
    3.9925    1.1948   -0.6247 H   0  0  0  0  0  0  0  0  0  0  0  0
   -3.2884    1.7273    0.1057 C   0  0  0  0  0  0  0  0  0  0  0  0
   -4.5218    1.7390   -0.5846 C   0  0  0  0  0  0  0  0  0  0  0  0
   -5.6851    1.4712    0.1580 C   0  0  0  0  0  0  0  0  0  0  0  0
   -6.6543    1.4621   -0.3652 H   0  0  0  0  0  0  0  0  0  0  0  0
   -5.6446    1.1999    1.5390 C   0  0  0  0  0  0  0  0  0  0  0  0
   -4.3916    1.2005    2.1817 C   0  0  0  0  0  0  0  0  0  0  0  0
   -4.3400    0.9879    3.2613 H   0  0  0  0  0  0  0  0  0  0  0  0
   -3.1964    1.4661    1.4913 C   0  0  0  0  0  0  0  0  0  0  0  0
   -4.5914    1.9900   -2.0694 C   0  0  0  0  0  0  0  0  0  0  0  0
   -5.5809    1.7034   -2.4713 H   0  0  0  0  0  0  0  0  0  0  0  0
   -3.8159    1.4187   -2.6189 H   0  0  0  0  0  0  0  0  0  0  0  0
   -4.4326    3.0604   -2.3174 H   0  0  0  0  0  0  0  0  0  0  0  0
   -6.9109    0.9438    2.3136 C   0  0  0  0  0  0  0  0  0  0  0  0
   -6.7321    0.2860    3.1862 H   0  0  0  0  0  0  0  0  0  0  0  0
   -7.6921    0.4808    1.6800 H   0  0  0  0  0  0  0  0  0  0  0  0
   -7.3297    1.8962    2.7036 H   0  0  0  0  0  0  0  0  0  0  0  0
   -1.8676    1.4165    2.1967 C   0  0  0  0  0  0  0  0  0  0  0  0
   -1.9985    1.4180    3.2947 H   0  0  0  0  0  0  0  0  0  0  0  0
   -1.2159    2.2693    1.9191 H   0  0  0  0  0  0  0  0  0  0  0  0
   -1.3153    0.4897    1.9140 H   0  0  0  0  0  0  0  0  0  0  0  0
    4.2155   -0.3966    1.7565 C   0  0  0  0  0  0  0  0  0  0  0  0
    4.1520   -1.4706    2.0182 H   0  0  0  0  0  0  0  0  0  0  0  0
    3.9890    0.1883    2.6708 H   0  0  0  0  0  0  0  0  0  0  0  0
    5.5482   -0.0205    1.1795 C   0  0  0  0  0  0  0  0  0  0  0  0
    6.2464   -0.9037    0.3274 C   0  0  0  0  0  0  0  0  0  0  0  0
    5.8285   -1.9006    0.1137 H   0  0  0  0  0  0  0  0  0  0  0  0
    7.4665   -0.5457   -0.2448 C   0  0  0  0  0  0  0  0  0  0  0  0
    7.9956   -1.2575   -0.8969 H   0  0  0  0  0  0  0  0  0  0  0  0
    8.0467    0.7261    0.0156 C   0  0  0  0  0  0  0  0  0  0  0  0
    7.3443    1.6137    0.8742 C   0  0  0  0  0  0  0  0  0  0  0  0
    7.7761    2.6000    1.1035 H   0  0  0  0  0  0  0  0  0  0  0  0
    6.1233    1.2414    1.4391 C   0  0  0  0  0  0  0  0  0  0  0  0
    5.6080    1.9470    2.1107 H   0  0  0  0  0  0  0  0  0  0  0  0
    9.2323    1.0926   -0.5642 N   0  0  0  0  0  0  0  0  0  0  0  0
    9.8081    0.3855   -1.0175 H   0  0  0  0  0  0  0  0  0  0  0  0
    9.7232    1.9171   -0.2235 H   0  0  0  0  0  0  0  0  0  0  0  0
  1 17  1  0  0  0  0
  2  1  1  0  0  0  0
  3  2  1  0  0  0  0
  4  3  1  0  0  0  0
  4  6  2  0  0  0  0
  5  4  1  0  0  0  0
  6  7  1  0  0  0  0
  6  1  1  0  0  0  0
  8  3  1  0  0  0  0
  8 14  1  0  0  0  0
  9  8  1  0  0  0  0
 10  8  1  0  0  0  0
 11 12  1  0  0  0  0
 11 37  1  0  0  0  0
 13 12  1  0  0  0  0
 14 15  2  0  0  0  0
 14 13  1  0  0  0  0
 15 11  1  0  0  0  0
 16 15  1  0  0  0  0
 17 24  1  0  0  0  0
 18 17  2  0  0  0  0
 18 19  1  0  0  0  0
 19 21  2  0  0  0  0
 20 19  1  0  0  0  0
 21 22  1  0  0  0  0
 21 29  1  0  0  0  0
 22 23  1  0  0  0  0
 24 22  2  0  0  0  0
 24 33  1  0  0  0  0
 25 18  1  0  0  0  0
 26 25  1  0  0  0  0
 27 25  1  0  0  0  0
 28 25  1  0  0  0  0
 29 32  1  0  0  0  0
 29 30  1  0  0  0  0
 31 29  1  0  0  0  0
 33 34  1  0  0  0  0
 35 33  1  0  0  0  0
 36 33  1  0  0  0  0
 37 38  1  0  0  0  0
 37 39  1  0  0  0  0
 40 48  1  0  0  0  0
 40 37  1  0  0  0  0
 41 40  2  0  0  0  0
 42 41  1  0  0  0  0
 43 45  2  0  0  0  0
 43 41  1  0  0  0  0
 44 43  1  0  0  0  0
 45 46  1  0  0  0  0
 46 47  1  0  0  0  0
 46 48  2  0  0  0  0
 48 49  1  0  0  0  0
 50 52  1  0  0  0  0
 50 45  1  0  0  0  0
 51 50  1  0  0  0  0
M  END
