2,13
q = 0.0, confidence = 0.99

 50 53  0  0  0  0  0  0  0  0999 V2000
   -2.2518    1.6663    0.0068 N   0  0  0  0  0  0  0  0  0  0  0  0
   -1.1108    1.0680   -0.4508 C   0  0  0  0  0  2  0  0  0  0  0  0
   -0.2477    2.1054   -0.6773 N   0  0  0  0  0  0  0  0  0  0  0  0
   -0.8327    3.3267   -0.3706 C   0  0  0  0  0  0  0  0  0  0  0  0
   -0.3069    4.2795   -0.4859 H   0  0  0  0  0  0  0  0  0  0  0  0
   -2.1018    3.0465    0.0643 C   0  0  0  0  0  0  0  0  0  0  0  0
   -2.9022    3.7004    0.4221 H   0  0  0  0  0  0  0  0  0  0  0  0
    1.1079    1.9303   -1.2005 C   0  0  0  0  0  0  0  0  0  0  0  0
    1.6298    2.9030   -1.1577 H   0  0  0  0  0  0  0  0  0  0  0  0
    1.0437    1.6308   -2.2688 H   0  0  0  0  0  0  0  0  0  0  0  0
    3.2966   -0.3506    0.6387 N   0  0  0  0  0  0  0  0  0  0  0  0
    2.1884   -1.0773    0.5147 N   0  0  0  0  0  2  0  0  0  0  0  0
    1.3228   -0.3216   -0.1339 N   0  0  0  0  0  2  0  0  0  0  0  0
    1.8698    0.8993   -0.4277 C   0  0  0  0  0  0  0  0  0  0  0  0
    3.1631    0.8851    0.0758 C   0  0  0  0  0  0  0  0  0  0  0  0
    3.9777    1.6156    0.0664 H   0  0  0  0  0  0  0  0  0  0  0  0
   -3.4568    0.9714    0.3874 C   0  0  0  0  0  0  0  0  0  0  0  0
   -4.5719    1.0391   -0.4800 C   0  0  0  0  0  0  0  0  0  0  0  0
   -5.7294    0.3449   -0.0971 C   0  0  0  0  0  0  0  0  0  0  0  0
   -6.6050    0.3718   -0.7646 H   0  0  0  0  0  0  0  0  0  0  0  0
   -5.7975   -0.3943    1.1013 C   0  0  0  0  0  0  0  0  0  0  0  0
   -4.6627   -0.4259    1.9318 C   0  0  0  0  0  0  0  0  0  0  0  0
   -4.7005   -0.9949    2.8738 H   0  0  0  0  0  0  0  0  0  0  0  0
   -3.4748    0.2514    1.6019 C   0  0  0  0  0  0  0  0  0  0  0  0
   -4.5077    1.7877   -1.7866 C   0  0  0  0  0  0  0  0  0  0  0  0
   -4.4753    2.8872   -1.6379 H   0  0  0  0  0  0  0  0  0  0  0  0
   -5.3926    1.5653   -2.4107 H   0  0  0  0  0  0  0  0  0  0  0  0
   -3.6022    1.5170   -2.3683 H   0  0  0  0  0  0  0  0  0  0  0  0
   -7.0574   -1.1316    1.4704 C   0  0  0  0  0  0  0  0  0  0  0  0
   -7.9188   -0.4364    1.5444 H   0  0  0  0  0  0  0  0  0  0  0  0
   -6.9586   -1.6584    2.4379 H   0  0  0  0  0  0  0  0  0  0  0  0
   -7.3189   -1.8823    0.6962 H   0  0  0  0  0  0  0  0  0  0  0  0
   -2.2669    0.1842    2.4989 C   0  0  0  0  0  0  0  0  0  0  0  0
   -1.4867   -0.4763    2.0575 H   0  0  0  0  0  0  0  0  0  0  0  0
   -2.5326   -0.2225    3.4921 H   0  0  0  0  0  0  0  0  0  0  0  0
   -1.8003    1.1797    2.6441 H   0  0  0  0  0  0  0  0  0  0  0  0
    4.4638   -0.9036    1.3596 C   0  0  0  0  0  0  0  0  0  0  0  0
    4.3781   -2.0019    1.2554 H   0  0  0  0  0  0  0  0  0  0  0  0
    4.3458   -0.6514    2.4328 H   0  0  0  0  0  0  0  0  0  0  0  0
    5.7612   -0.3672    0.8100 C   0  0  0  0  0  0  0  0  0  0  0  0
    6.4560    0.6509    1.4916 C   0  0  0  0  0  0  0  0  0  0  0  0
    6.0680    1.0306    2.4504 H   0  0  0  0  0  0  0  0  0  0  0  0
    7.6487    1.1701    0.9640 C   0  0  0  0  0  0  0  0  0  0  0  0
    8.1910    1.9578    1.5076 H   0  0  0  0  0  0  0  0  0  0  0  0
    8.1515    0.6762   -0.2494 C   0  0  0  0  0  0  0  0  0  0  0  0
    9.0892    1.0786   -0.6608 H   0  0  0  0  0  0  0  0  0  0  0  0
    7.4639   -0.3405   -0.9337 C   0  0  0  0  0  0  0  0  0  0  0  0
    7.8638   -0.7367   -1.8789 H   0  0  0  0  0  0  0  0  0  0  0  0
    6.2742   -0.8609   -0.4071 C   0  0  0  0  0  0  0  0  0  0  0  0
    5.7426   -1.6649   -0.9406 H   0  0  0  0  0  0  0  0  0  0  0  0
  1  6  1  0  0  0  0
  1 17  1  0  0  0  0
  2  1  1  0  0  0  0
  3  2  1  0  0  0  0
  3  4  1  0  0  0  0
  4  6  2  0  0  0  0
  5  4  1  0  0  0  0
  6  7  1  0  0  0  0
  8  9  1  0  0  0  0
  8  3  1  0  0  0  0
  8 14  1  0  0  0  0
 10  8  1  0  0  0  0
 11 37  1  0  0  0  0
 12 11  1  0  0  0  0
 13 12  1  0  0  0  0
 14 13  1  0  0  0  0
 14 15  2  0  0  0  0
 15 11  1  0  0  0  0
 16 15  1  0  0  0  0
 17 24  1  0  0  0  0
 18 19  1  0  0  0  0
 18 17  2  0  0  0  0
 19 21  2  0  0  0  0
 20 19  1  0  0  0  0
 21 29  1  0  0  0  0
 21 22  1  0  0  0  0
 22 23  1  0  0  0  0
 24 22  2  0  0  0  0
 24 33  1  0  0  0  0
 25 26  1  0  0  0  0
 25 18  1  0  0  0  0
 27 25  1  0  0  0  0
 28 25  1  0  0  0  0
 29 30  1  0  0  0  0
 29 31  1  0  0  0  0
 32 29  1  0  0  0  0
 33 36  1  0  0  0  0
 33 35  1  0  0  0  0
 34 33  1  0  0  0  0
 37 39  1  0  0  0  0
 38 37  1  0  0  0  0
 40 37  1  0  0  0  0
 40 41  1  0  0  0  0
 41 42  1  0  0  0  0
 43 41  2  0  0  0  0
 43 44  1  0  0  0  0
 45 43  1  0  0  0  0
 46 45  1  0  0  0  0
 47 49  1  0  0  0  0
 47 45  2  0  0  0  0
 48 47  1  0  0  0  0
 49 40  2  0  0  0  0
 50 49  1  0  0  0  0
M  END
