1,2
q = -1.0, confidence = 0.0

 24 23  0  0  0  0  0  0  0  0999 V2000
    1.5004    0.1121   -0.2826 N   0  0  0  0  0  0  0  0  0  0  0  0
   -0.6863    1.9580   -0.1644 C   0  0  0  0  0  3  0  0  0  0  0  0
    0.7396    2.4493   -0.4187 C   0  0  0  0  0  0  0  0  0  0  0  0
    1.5722    1.3557   -1.0778 C   0  0  0  0  0  0  0  0  0  0  0  0
    2.0411   -1.0234   -1.0777 C   0  0  0  0  0  0  0  0  0  0  0  0
    2.0227   -2.3694   -0.3663 C   0  0  0  0  0  0  0  0  0  0  0  0
    2.1552    0.2408    1.0476 C   0  0  0  0  0  0  0  0  0  0  0  0
    3.6620    0.4965    1.0356 C   0  0  0  0  0  0  0  0  0  0  0  0
   -1.1696    2.4582    0.7001 H   0  0  0  0  0  0  0  0  0  0  0  0
   -1.3456    2.1596   -1.0392 H   0  0  0  0  0  0  0  0  0  0  0  0
    0.7374    3.3485   -1.0702 H   0  0  0  0  0  0  0  0  0  0  0  0
    1.2135    2.7701    0.5315 H   0  0  0  0  0  0  0  0  0  0  0  0
    1.1521    1.1191   -2.0778 H   0  0  0  0  0  0  0  0  0  0  0  0
    2.6266    1.6774   -1.2392 H   0  0  0  0  0  0  0  0  0  0  0  0
    1.4160   -1.0821   -1.9895 H   0  0  0  0  0  0  0  0  0  0  0  0
    3.0784   -0.7771   -1.4069 H   0  0  0  0  0  0  0  0  0  0  0  0
    1.0160   -2.6031    0.0298 H   0  0  0  0  0  0  0  0  0  0  0  0
    2.2978   -3.1623   -1.0890 H   0  0  0  0  0  0  0  0  0  0  0  0
    2.7454   -2.4224    0.4719 H   0  0  0  0  0  0  0  0  0  0  0  0
    1.9152   -0.6799    1.6101 H   0  0  0  0  0  0  0  0  0  0  0  0
    1.6375    1.0500    1.5982 H   0  0  0  0  0  0  0  0  0  0  0  0
    4.2264   -0.3264    0.5533 H   0  0  0  0  0  0  0  0  0  0  0  0
    3.9342    1.4415    0.5236 H   0  0  0  0  0  0  0  0  0  0  0  0
    4.0251    0.5750    2.0795 H   0  0  0  0  0  0  0  0  0  0  0  0
  1  7  1  0  0  0  0
  2  9  1  0  0  0  0
  3  2  1  0  0  0  0
  3 12  1  0  0  0  0
  4  3  1  0  0  0  0
  4  1  1  0  0  0  0
  5  6  1  0  0  0  0
  5  1  1  0  0  0  0
  6 17  1  0  0  0  0
  6 19  1  0  0  0  0
  7 21  1  0  0  0  0
  7 20  1  0  0  0  0
  8  7  1  0  0  0  0
  8 24  1  0  0  0  0
 10  2  1  0  0  0  0
 11  3  1  0  0  0  0
 13  4  1  0  0  0  0
 14  4  1  0  0  0  0
 15  5  1  0  0  0  0
 16  5  1  0  0  0  0
 18  6  1  0  0  0  0
 22  8  1  0  0  0  0
 23  8  1  0  0  0  0
M  END
