15,26
q = -1.0, confidence = 0.0

 31 32  0  0  0  0  0  0  0  0999 V2000
   -6.5675   -1.6163    0.5113 C   0  0  0  0  0  0  0  0  0  0  0  0
   -6.9951   -2.2382   -0.3031 H   0  0  0  0  0  0  0  0  0  0  0  0
   -7.0496   -0.6191    0.4365 H   0  0  0  0  0  0  0  0  0  0  0  0
   -6.8710   -2.0679    1.4755 H   0  0  0  0  0  0  0  0  0  0  0  0
   -5.0681   -1.5138    0.3905 C   0  0  0  0  0  0  0  0  0  0  0  0
   -4.4748   -0.9404   -0.7583 C   0  0  0  0  0  0  0  0  0  0  0  0
   -5.1210   -0.5773   -1.5739 H   0  0  0  0  0  0  0  0  0  0  0  0
   -3.0885   -0.8282   -0.8886 C   0  0  0  0  0  0  0  0  0  0  0  0
   -2.6156   -0.3971   -1.7848 H   0  0  0  0  0  0  0  0  0  0  0  0
   -2.2471   -1.3074    0.1389 C   0  0  0  0  0  0  0  0  0  0  0  0
   -2.8184   -1.8828    1.2898 C   0  0  0  0  0  0  0  0  0  0  0  0
   -2.1634   -2.2278    2.1042 H   0  0  0  0  0  0  0  0  0  0  0  0
   -4.2139   -1.9805    1.4069 C   0  0  0  0  0  0  0  0  0  0  0  0
   -4.6487   -2.4220    2.3178 H   0  0  0  0  0  0  0  0  0  0  0  0
   -0.8440   -1.1711    0.0080 N   0  0  0  0  0  2  0  0  0  0  0  0
   -0.0335   -2.1930    0.1872 C   0  0  0  0  0  3  0  0  0  0  0  0
   -0.4429   -3.1974    0.4010 H   0  0  0  0  0  0  0  0  0  0  0  0
    1.3625   -1.9223    0.0462 C   0  0  0  0  0  0  0  0  0  0  0  0
    2.3903   -2.8794    0.1850 C   0  0  0  0  0  0  0  0  0  0  0  0
    2.1408   -3.9192    0.4510 H   0  0  0  0  0  0  0  0  0  0  0  0
    3.7232   -2.5194   -0.0215 C   0  0  0  0  0  0  0  0  0  0  0  0
    4.5167   -3.2689    0.0916 H   0  0  0  0  0  0  0  0  0  0  0  0
    4.0208   -1.1842   -0.3944 C   0  0  0  0  0  0  0  0  0  0  0  0
    2.9906   -0.2265   -0.5441 C   0  0  0  0  0  0  0  0  0  0  0  0
    3.2915    0.7788   -0.8733 H   0  0  0  0  0  0  0  0  0  0  0  0
    1.6512   -0.5582   -0.3091 C   0  0  0  0  0  3  0  0  0  0  0  0
    5.2808   -0.7310   -0.6319 O   0  0  0  0  0  0  0  0  0  0  0  0
    6.3645   -1.6344   -0.5216 C   0  0  0  0  0  0  0  0  0  0  0  0
    6.4596   -2.0464    0.5082 H   0  0  0  0  0  0  0  0  0  0  0  0
    7.2773   -1.0587   -0.7631 H   0  0  0  0  0  0  0  0  0  0  0  0
    6.2726   -2.4820   -1.2369 H   0  0  0  0  0  0  0  0  0  0  0  0
  1  4  1  0  0  0  0
  2  1  1  0  0  0  0
  3  1  1  0  0  0  0
  5  1  1  0  0  0  0
  5 13  1  0  0  0  0
  6  5  2  0  0  0  0
  7  6  1  0  0  0  0
  8  6  1  0  0  0  0
  8 10  2  0  0  0  0
  9  8  1  0  0  0  0
 10 11  1  0  0  0  0
 11 13  2  0  0  0  0
 11 12  1  0  0  0  0
 13 14  1  0  0  0  0
 15 10  1  0  0  0  0
 15 16  1  0  0  0  0
 16 17  1  0  0  0  0
 18 19  1  0  0  0  0
 18 16  1  0  0  0  0
 19 20  1  0  0  0  0
 21 22  1  0  0  0  0
 21 19  2  0  0  0  0
 23 21  1  0  0  0  0
 24 23  2  0  0  0  0
 24 26  1  0  0  0  0
 25 24  1  0  0  0  0
 26 18  2  0  0  0  0
 27 28  1  0  0  0  0
 27 23  1  0  0  0  0
 28 29  1  0  0  0  0
 30 28  1  0  0  0  0
 31 28  1  0  0  0  0
M  END
