2,6,7
q = 0.0, confidence = 0.958

 43 48  0  0  1  0  0  0  0  0999 V2000
   -2.2611    1.4961    0.0307 N   0  0  0  0  0  0  0  0  0  0  0  0
   -2.7245   -0.6794   -0.8127 N   0  0  0  0  0  2  0  0  0  0  0  0
    0.1701    2.2221    0.1389 N   0  0  0  0  0  0  0  0  0  0  0  0
    1.9671    1.5812    1.6459 N   0  0  0  0  0  0  0  0  0  0  0  0
   -0.7299    0.5155    1.7949 N   0  0  0  0  0  0  0  0  0  0  0  0
   -0.5306   -1.7259    1.0391 N   0  0  0  0  0  2  0  0  0  0  0  0
   -0.7993    1.0864    0.3542 B   0  0  0  0  0  0  0  0  0  0  0  0
   -3.0349    2.5957    0.3842 C   0  0  0  0  0  0  0  0  0  0  0  0
   -2.5514    3.4973    0.7785 H   0  0  0  0  0  0  0  0  0  0  0  0
   -4.3841    2.3516    0.1554 C   0  0  0  0  0  0  0  0  0  0  0  0
   -5.2048    3.0558    0.3303 H   0  0  0  0  0  0  0  0  0  0  0  0
   -4.4778    1.0105   -0.3549 C   0  0  0  0  0  0  0  0  0  0  0  0
   -3.1283    0.5351   -0.4042 C   0  0  1  0  0  3  0  0  0  0  0  0
   -5.4691    0.1044   -0.7805 C   0  0  0  0  0  0  0  0  0  0  0  0
   -6.5351    0.3783   -0.7826 H   0  0  0  0  0  0  0  0  0  0  0  0
   -5.0584   -1.1712   -1.2008 C   0  0  0  0  0  0  0  0  0  0  0  0
   -5.7981   -1.9120   -1.5362 H   0  0  0  0  0  0  0  0  0  0  0  0
   -3.6927   -1.5288   -1.2069 C   0  0  0  0  0  0  0  0  0  0  0  0
   -3.3628   -2.5232   -1.5441 H   0  0  0  0  0  0  0  0  0  0  0  0
    0.0395    3.2203   -0.8243 C   0  0  0  0  0  0  0  0  0  0  0  0
   -0.8729    3.2703   -1.4284 H   0  0  0  0  0  0  0  0  0  0  0  0
    1.1644    4.0233   -0.8771 C   0  0  0  0  0  0  0  0  0  0  0  0
    1.3141    4.8790   -1.5446 H   0  0  0  0  0  0  0  0  0  0  0  0
    2.0809    3.5052    0.0994 C   0  0  0  0  0  0  0  0  0  0  0  0
    1.4355    2.3732    0.7099 C   0  0  0  0  0  0  0  0  0  0  0  0
    3.3813    3.8156    0.5424 C   0  0  0  0  0  0  0  0  0  0  0  0
    3.9393    4.6654    0.1197 H   0  0  0  0  0  0  0  0  0  0  0  0
    3.9434    2.9996    1.5318 C   0  0  0  0  0  0  0  0  0  0  0  0
    4.9574    3.1934    1.9114 H   0  0  0  0  0  0  0  0  0  0  0  0
    3.2059    1.9067    2.0446 C   0  0  0  0  0  0  0  0  0  0  0  0
    3.6530    1.2575    2.8179 H   0  0  0  0  0  0  0  0  0  0  0  0
   -0.8142    1.1286    3.0363 C   0  0  0  0  0  0  0  0  0  0  0  0
   -0.8796    2.2204    3.1012 H   0  0  0  0  0  0  0  0  0  0  0  0
   -0.7846    0.1899    4.0602 C   0  0  0  0  0  0  0  0  0  0  0  0
   -0.8309    0.4043    5.1332 H   0  0  0  0  0  0  0  0  0  0  0  0
   -0.6711   -1.0970    3.4315 C   0  0  0  0  0  0  0  0  0  0  0  0
   -0.6388   -0.8172    2.0263 C   0  0  1  0  0  3  0  0  0  0  0  0
   -0.5923   -2.4539    3.7943 C   0  0  0  0  0  0  0  0  0  0  0  0
   -0.6067   -2.7680    4.8490 H   0  0  0  0  0  0  0  0  0  0  0  0
   -0.4950   -3.4100    2.7675 C   0  0  0  0  0  0  0  0  0  0  0  0
   -0.4344   -4.4809    3.0067 H   0  0  0  0  0  0  0  0  0  0  0  0
   -0.4660   -3.0219    1.4137 C   0  0  0  0  0  0  0  0  0  0  0  0
   -0.3818   -3.7626    0.6053 H   0  0  0  0  0  0  0  0  0  0  0  0
  1  7  1  0  0  0  0
  1  8  1  0  0  0  0
  3  7  1  0  0  0  0
  3 25  1  0  0  0  0
  4 30  1  0  0  0  0
  5 37  1  0  0  0  0
  5 32  1  0  0  0  0
  6 42  1  0  0  0  0
  7  5  1  0  0  0  0
  8  9  1  0  0  0  0
 10 11  1  0  0  0  0
 10  8  2  0  0  0  0
 12 10  1  0  0  0  0
 13  2  1  1  0  0  0
 13 12  1  0  0  0  0
 13  1  1  0  0  0  0
 14 12  2  0  0  0  0
 15 14  1  0  0  0  0
 16 14  1  0  0  0  0
 17 16  1  0  0  0  0
 18 16  2  0  0  0  0
 18  2  1  0  0  0  0
 19 18  1  0  0  0  0
 20  3  1  0  0  0  0
 21 20  1  0  0  0  0
 22 20  2  0  0  0  0
 22 24  1  0  0  0  0
 23 22  1  0  0  0  0
 24 26  2  0  0  0  0
 24 25  1  0  0  0  0
 25  4  2  0  0  0  0
 26 28  1  0  0  0  0
 27 26  1  0  0  0  0
 28 29  1  0  0  0  0
 28 30  2  0  0  0  0
 30 31  1  0  0  0  0
 32 33  1  0  0  0  0
 32 34  2  0  0  0  0
 34 35  1  0  0  0  0
 36 38  2  0  0  0  0
 36 34  1  0  0  0  0
 37  6  1  1  0  0  0
 37 36  1  0  0  0  0
 38 39  1  0  0  0  0
 40 41  1  0  0  0  0
 40 38  1  0  0  0  0
 42 40  2  0  0  0  0
 43 42  1  0  0  0  0
M  END
