1,5,13
q = -1.0, confidence = 0.13

 64 73  0  0  1  0  0  0  0  0999 V2000
    0.4729   -0.9201   -0.5189 N   0  0  0  0  0  2  0  0  0  0  0  0
   -0.8018    1.7019    0.8905 C   0  0  2  0  0  0  0  0  0  0  0  0
   -0.0978    3.3199   -1.2741 B   0  0  1  0  0  0  0  0  0  0  0  0
    0.7659    3.9249   -1.8604 H   0  0  0  0  0  0  0  0  0  0  0  0
    3.1405   -1.2881   -0.5180 N   0  0  0  0  0  2  0  0  0  0  0  0
   -1.1742    0.8528   -0.5291 C   0  0  1  0  0  0  0  0  0  0  0  0
   -1.8127    3.0673    1.0363 B   0  0  1  0  0  0  0  0  0  0  0  0
   -2.1356    3.3815    2.1546 H   0  0  0  0  0  0  0  0  0  0  0  0
    4.4819   -1.3505   -0.5361 C   0  0  0  0  0  0  0  0  0  0  0  0
    4.9906   -0.3706   -0.5264 H   0  0  0  0  0  0  0  0  0  0  0  0
   -0.1199    3.2159    0.5019 B   0  0  2  0  0  0  0  0  0  0  0  0
    0.6991    3.6763    1.2540 H   0  0  0  0  0  0  0  0  0  0  0  0
    0.3389    1.7999   -0.4784 B   0  0  0  0  0  2  0  0  0  0  0  0
    5.1618   -2.5739   -0.5595 C   0  0  0  0  0  0  0  0  0  0  0  0
    6.2607   -2.5941   -0.5751 H   0  0  0  0  0  0  0  0  0  0  0  0
    4.4080   -3.7589   -0.5631 C   0  0  0  0  0  0  0  0  0  0  0  0
    4.9065   -4.7393   -0.5837 H   0  0  0  0  0  0  0  0  0  0  0  0
   -1.4047    4.1137   -0.3480 B   0  0  0  0  0  0  0  0  0  0  0  0
   -1.4882    5.3156   -0.2496 H   0  0  0  0  0  0  0  0  0  0  0  0
    3.0104   -3.6857   -0.5410 C   0  0  0  0  0  0  0  0  0  0  0  0
    2.4114   -4.6059   -0.5456 H   0  0  0  0  0  0  0  0  0  0  0  0
   -1.7904    3.2234   -1.8402 B   0  0  2  0  0  0  0  0  0  0  0  0
   -2.1641    3.7519   -2.8615 H   0  0  0  0  0  0  0  0  0  0  0  0
    2.3886   -2.4213   -0.5177 C   0  0  0  0  0  0  0  0  0  0  0  0
   -2.4365    1.6367   -1.3797 B   0  0  2  0  0  0  0  0  0  0  0  0
   -3.2136    0.9739   -2.0056 H   0  0  0  0  0  0  0  0  0  0  0  0
   -0.7459    1.7830   -1.9051 B   0  0  1  0  0  0  0  0  0  0  0  0
   -0.3729    1.1778   -2.8797 H   0  0  0  0  0  0  0  0  0  0  0  0
    0.9234   -2.2200   -0.4910 C   0  0  0  0  0  0  0  0  0  0  0  0
    0.0079   -3.2777   -0.4258 C   0  0  0  0  0  0  0  0  0  0  0  0
    0.3640   -4.3154   -0.3918 H   0  0  0  0  0  0  0  0  0  0  0  0
   -2.8523    3.0654   -0.4092 B   0  0  1  0  0  0  0  0  0  0  0  0
   -3.9878    3.4761   -0.3625 H   0  0  0  0  0  0  0  0  0  0  0  0
   -1.3550   -3.0025   -0.4002 C   0  0  0  0  0  0  0  0  0  0  0  0
   -2.0887   -3.8190   -0.3482 H   0  0  0  0  0  0  0  0  0  0  0  0
   -2.4526    1.5415    0.3913 B   0  0  2  0  0  0  0  0  0  0  0  0
   -3.1876    0.8246    1.0042 H   0  0  0  0  0  0  0  0  0  0  0  0
   -1.8309   -1.6721   -0.4497 C   0  0  0  0  0  0  0  0  0  0  0  0
   -0.8777   -0.6279   -0.5072 C   0  0  0  0  0  0  0  0  0  0  0  0
   -3.3161   -1.5210   -0.4187 C   0  0  0  0  0  0  0  0  0  0  0  0
   -4.0571   -1.3131   -1.5974 C   0  0  0  0  0  0  0  0  0  0  0  0
   -3.5311   -1.1957   -2.5554 H   0  0  0  0  0  0  0  0  0  0  0  0
   -5.4565   -1.2698   -1.5590 C   0  0  0  0  0  0  0  0  0  0  0  0
   -6.0148   -1.1018   -2.4933 H   0  0  0  0  0  0  0  0  0  0  0  0
   -6.1628   -1.4360   -0.3507 C   0  0  0  0  0  0  0  0  0  0  0  0
   -5.4153   -1.6866    0.8179 C   0  0  0  0  0  0  0  0  0  0  0  0
   -5.9401   -1.8448    1.7732 H   0  0  0  0  0  0  0  0  0  0  0  0
   -4.0164   -1.7418    0.7848 C   0  0  0  0  0  0  0  0  0  0  0  0
   -3.4545   -1.9546    1.7071 H   0  0  0  0  0  0  0  0  0  0  0  0
   -7.6654   -1.3320   -0.3083 C   0  0  0  0  0  0  0  0  0  0  0  0
   -8.0929   -1.9069    0.5364 H   0  0  0  0  0  0  0  0  0  0  0  0
   -8.1275   -1.6955   -1.2473 H   0  0  0  0  0  0  0  0  0  0  0  0
   -7.9818   -0.2746   -0.1787 H   0  0  0  0  0  0  0  0  0  0  0  0
   -0.3321    0.9179    2.0899 C   0  0  0  0  0  0  0  0  0  0  0  0
   -1.1522   -0.0416    2.7127 C   0  0  0  0  0  0  0  0  0  0  0  0
   -2.1746   -0.1988    2.3482 H   0  0  0  0  0  0  0  0  0  0  0  0
   -0.6789   -0.7911    3.8005 C   0  0  0  0  0  0  0  0  0  0  0  0
   -1.3360   -1.5381    4.2715 H   0  0  0  0  0  0  0  0  0  0  0  0
    0.6183   -0.5813    4.2900 C   0  0  0  0  0  0  0  0  0  0  0  0
    0.9898   -1.1667    5.1449 H   0  0  0  0  0  0  0  0  0  0  0  0
    1.4357    0.3876    3.6869 C   0  0  0  0  0  0  0  0  0  0  0  0
    2.4540    0.5673    4.0627 H   0  0  0  0  0  0  0  0  0  0  0  0
    0.9703    1.1278    2.5920 C   0  0  0  0  0  0  0  0  0  0  0  0
    1.6254    1.8695    2.1165 H   0  0  0  0  0  0  0  0  0  0  0  0
  1 39  1  0  0  0  0
  1 29  1  0  0  0  0
  2  7  1  0  0  0  0
  2 54  1  1  0  0  0
  3  4  1  6  0  0  0
  3 13  1  0  0  0  0
  3 11  1  0  0  0  0
  5 24  1  0  0  0  0
  6 39  1  6  0  0  0
  6  2  1  0  0  0  0
  7  8  1  1  0  0  0
  9 10  1  0  0  0  0
  9  5  1  0  0  0  0
 11  2  1  0  0  0  0
 11 12  1  1  0  0  0
 13 11  1  0  0  0  0
 14  9  2  0  0  0  0
 15 14  1  0  0  0  0
 16 14  1  0  0  0  0
 16 20  2  0  0  0  0
 17 16  1  0  0  0  0
 18 19  1  0  0  0  0
 20 24  1  0  0  0  0
 21 20  1  0  0  0  0
 22 23  1  6  0  0  0
 22 25  1  0  0  0  0
 22 18  1  0  0  0  0
 24 29  2  0  0  0  0
 25 26  1  6  0  0  0
 25  6  1  0  0  0  0
 25 36  1  0  0  0  0
 27 28  1  6  0  0  0
 27 22  1  0  0  0  0
 27  3  1  0  0  0  0
 27  6  1  0  0  0  0
 29 30  1  0  0  0  0
 30 34  2  0  0  0  0
 30 31  1  0  0  0  0
 32 33  1  1  0  0  0
 32 18  1  0  0  0  0
 32 36  1  0  0  0  0
 32  7  1  0  0  0  0
 34 35  1  0  0  0  0
 36 37  1  1  0  0  0
 36  7  1  0  0  0  0
 38 40  1  0  0  0  0
 38 34  1  0  0  0  0
 39 38  2  0  0  0  0
 40 48  1  0  0  0  0
 41 43  1  0  0  0  0
 41 40  2  0  0  0  0
 42 41  1  0  0  0  0
 43 45  2  0  0  0  0
 44 43  1  0  0  0  0
 45 50  1  0  0  0  0
 45 46  1  0  0  0  0
 46 47  1  0  0  0  0
 48 46  2  0  0  0  0
 48 49  1  0  0  0  0
 50 53  1  0  0  0  0
 50 51  1  0  0  0  0
 52 50  1  0  0  0  0
 54 63  2  0  0  0  0
 54 55  1  0  0  0  0
 55 57  2  0  0  0  0
 56 55  1  0  0  0  0
 57 58  1  0  0  0  0
 57 59  1  0  0  0  0
 59 60  1  0  0  0  0
 61 62  1  0  0  0  0
 61 59  2  0  0  0  0
 63 61  1  0  0  0  0
 64 63  1  0  0  0  0
M  END
