11
q = 0.0, confidence = 0.966

 48 53  0  0  1  0  0  0  0  0999 V2000
   -0.4067    1.1603    0.6308 C   0  0  2  0  0  0  0  0  0  0  0  0
   -0.4128   -1.1567    0.6264 C   0  0  1  0  0  0  0  0  0  0  0  0
    0.5252    1.5710    1.9106 B   0  0  0  0  0  0  0  0  0  0  0  0
    1.1137    2.6291    1.9344 H   0  0  0  0  0  0  0  0  0  0  0  0
   -1.2736    1.4678    1.9825 B   0  0  2  0  0  0  0  0  0  0  0  0
   -2.0391    2.3994    1.9517 H   0  0  0  0  0  0  0  0  0  0  0  0
   -1.6339    0.0044    0.9891 B   0  0  0  0  0  0  0  0  0  0  0  0
   -2.6222    0.0083    0.2977 H   0  0  0  0  0  0  0  0  0  0  0  0
    0.5170   -1.5765    1.9046 B   0  0  0  0  0  0  0  0  0  0  0  0
    1.1005   -2.6375    1.9248 H   0  0  0  0  0  0  0  0  0  0  0  0
    1.1504   -0.0058    2.7288 B   0  0  0  0  0  2  0  0  0  0  0  0
    2.2059   -0.0097    3.3284 H   0  0  0  0  0  0  0  0  0  0  0  0
   -0.2791    0.8911    3.3504 B   0  0  1  0  0  0  0  0  0  0  0  0
   -0.2125    1.4987    4.3958 H   0  0  0  0  0  0  0  0  0  0  0  0
   -1.7321    0.0014    2.8359 B   0  0  2  0  0  0  0  0  0  0  0  0
   -2.7576    0.0029    3.4758 H   0  0  0  0  0  0  0  0  0  0  0  0
   -1.2812   -1.4642    1.9774 B   0  0  2  0  0  0  0  0  0  0  0  0
   -2.0513   -2.3919    1.9435 H   0  0  0  0  0  0  0  0  0  0  0  0
   -0.2836   -0.8976    3.3471 B   0  0  1  0  0  0  0  0  0  0  0  0
   -0.2201   -1.5094    4.3902 H   0  0  0  0  0  0  0  0  0  0  0  0
   -0.5349    1.9209   -0.6839 C   0  0  0  0  0  0  0  0  0  0  0  0
    0.3483    2.5868   -0.7667 H   0  0  0  0  0  0  0  0  0  0  0  0
   -0.4536    1.1888   -1.5173 H   0  0  0  0  0  0  0  0  0  0  0  0
   -1.7986    2.7349   -0.8664 C   0  0  0  0  0  0  0  0  0  0  0  0
   -1.8909    4.0272   -0.3133 C   0  0  0  0  0  0  0  0  0  0  0  0
   -1.0341    4.4379    0.2440 H   0  0  0  0  0  0  0  0  0  0  0  0
   -3.0605    4.7860   -0.4586 C   0  0  0  0  0  0  0  0  0  0  0  0
   -3.1168    5.7939   -0.0199 H   0  0  0  0  0  0  0  0  0  0  0  0
   -4.1582    4.2608   -1.1595 C   0  0  0  0  0  0  0  0  0  0  0  0
   -5.0778    4.8549   -1.2724 H   0  0  0  0  0  0  0  0  0  0  0  0
   -4.0759    2.9760   -1.7173 C   0  0  0  0  0  0  0  0  0  0  0  0
   -4.9303    2.5580   -2.2711 H   0  0  0  0  0  0  0  0  0  0  0  0
   -2.9028    2.2204   -1.5709 C   0  0  0  0  0  0  0  0  0  0  0  0
   -2.8414    1.2134   -2.0119 H   0  0  0  0  0  0  0  0  0  0  0  0
   -0.5463   -1.9127   -0.6905 C   0  0  0  0  0  0  0  0  0  0  0  0
   -0.4687   -1.1777   -1.5217 H   0  0  0  0  0  0  0  0  0  0  0  0
    0.3365   -2.5783   -0.7794 H   0  0  0  0  0  0  0  0  0  0  0  0
   -1.8105   -2.7266   -0.8695 C   0  0  0  0  0  0  0  0  0  0  0  0
   -2.9198   -2.2092   -1.5636 C   0  0  0  0  0  0  0  0  0  0  0  0
   -2.8625   -1.1997   -1.9993 H   0  0  0  0  0  0  0  0  0  0  0  0
   -4.0933   -2.9650   -1.7060 C   0  0  0  0  0  0  0  0  0  0  0  0
   -4.9519   -2.5448   -2.2517 H   0  0  0  0  0  0  0  0  0  0  0  0
   -4.1709   -4.2529   -1.1545 C   0  0  0  0  0  0  0  0  0  0  0  0
   -5.0907   -4.8470   -1.2643 H   0  0  0  0  0  0  0  0  0  0  0  0
   -3.0680   -4.7809   -0.4639 C   0  0  0  0  0  0  0  0  0  0  0  0
   -3.1205   -5.7911   -0.0301 H   0  0  0  0  0  0  0  0  0  0  0  0
   -1.8981   -4.0219   -0.3226 C   0  0  0  0  0  0  0  0  0  0  0  0
   -1.0373   -4.4346    0.2271 H   0  0  0  0  0  0  0  0  0  0  0  0
  1 21  1  6  0  0  0
  1  7  1  0  0  0  0
  1  3  1  0  0  0  0
  1  5  1  0  0  0  0
  2 35  1  6  0  0  0
  2  7  1  0  0  0  0
  2  9  1  0  0  0  0
  2 17  1  0  0  0  0
  3  4  1  0  0  0  0
  3 13  1  0  0  0  0
  5  6  1  1  0  0  0
  5 15  1  0  0  0  0
  5 13  1  0  0  0  0
  8  7  1  0  0  0  0
  9 10  1  0  0  0  0
  9 19  1  0  0  0  0
 11 12  1  0  0  0  0
 11 19  1  0  0  0  0
 13 14  1  1  0  0  0
 15 13  1  0  0  0  0
 15 16  1  1  0  0  0
 17 18  1  1  0  0  0
 17 15  1  0  0  0  0
 17 19  1  0  0  0  0
 19 20  1  1  0  0  0
 22 21  1  0  0  0  0
 23 21  1  0  0  0  0
 24 21  1  0  0  0  0
 24 25  1  0  0  0  0
 25 26  1  0  0  0  0
 27 25  2  0  0  0  0
 27 28  1  0  0  0  0
 29 27  1  0  0  0  0
 30 29  1  0  0  0  0
 31 33  1  0  0  0  0
 31 29  2  0  0  0  0
 32 31  1  0  0  0  0
 33 24  2  0  0  0  0
 34 33  1  0  0  0  0
 36 35  1  0  0  0  0
 37 35  1  0  0  0  0
 38 35  1  0  0  0  0
 38 47  1  0  0  0  0
 39 38  2  0  0  0  0
 40 39  1  0  0  0  0
 41 39  1  0  0  0  0
 41 43  2  0  0  0  0
 42 41  1  0  0  0  0
 43 45  1  0  0  0  0
 44 43  1  0  0  0  0
 45 47  2  0  0  0  0
 45 46  1  0  0  0  0
 47 48  1  0  0  0  0
M  END
