7
q = 0.0, confidence = 0.996

 30 33  0  0  1  0  0  0  0  0999 V2000
   -0.7334   -0.5070    1.1686 P   0  0  0  0  0  2  0  0  0  0  0  0
   -0.1338    1.1285    3.7454 B   0  0  0  0  0  0  0  0  0  0  0  0
   -1.1001    1.1307    2.2545 B   0  0  2  0  0  0  0  0  0  0  0  0
   -0.7667   -0.4389    3.1963 B   0  0  1  0  0  0  0  0  0  0  0  0
    0.8900   -0.3598    3.7646 B   0  0  2  0  0  0  0  0  0  0  0  0
    1.6038    1.2068    3.3840 B   0  0  0  0  0  0  0  0  0  0  0  0
    0.4585    2.1148    2.3626 B   0  0  0  0  0  0  0  0  0  0  0  0
    0.6277   -1.2772    2.2649 B   0  0  0  0  0  0  0  0  0  0  0  0
    1.8392   -0.1445    2.3500 C   0  0  1  0  0  0  0  0  0  0  0  0
    1.6364    1.2106    1.6941 C   0  0  2  0  0  0  0  0  0  0  0  0
   -2.1074   -1.4840    0.5173 C   0  0  0  0  0  0  0  0  0  0  0  0
   -3.3788   -0.9070    0.3266 C   0  0  0  0  0  0  0  0  0  0  0  0
   -4.4041   -1.6679   -0.2519 C   0  0  0  0  0  0  0  0  0  0  0  0
   -4.1650   -2.9960   -0.6424 C   0  0  0  0  0  0  0  0  0  0  0  0
   -2.8972   -3.5690   -0.4516 C   0  0  0  0  0  0  0  0  0  0  0  0
   -1.8635   -2.8164    0.1238 C   0  0  0  0  0  0  0  0  0  0  0  0
   -0.5909    1.6379    4.7415 H   0  0  0  0  0  0  0  0  0  0  0  0
   -2.2129    1.6071    2.2269 H   0  0  0  0  0  0  0  0  0  0  0  0
   -1.6633   -1.0582    3.7180 H   0  0  0  0  0  0  0  0  0  0  0  0
    1.3120   -0.9558    4.7259 H   0  0  0  0  0  0  0  0  0  0  0  0
    2.4977    1.6797    4.0393 H   0  0  0  0  0  0  0  0  0  0  0  0
    0.4864    3.3215    2.4016 H   0  0  0  0  0  0  0  0  0  0  0  0
    0.8387   -2.4671    2.2807 H   0  0  0  0  0  0  0  0  0  0  0  0
    2.8623   -0.5463    2.3400 H   0  0  0  0  0  0  0  0  0  0  0  0
    2.5381    1.6645    1.2594 H   0  0  0  0  0  0  0  0  0  0  0  0
   -3.5625    0.1300    0.6423 H   0  0  0  0  0  0  0  0  0  0  0  0
   -5.3994   -1.2209   -0.3951 H   0  0  0  0  0  0  0  0  0  0  0  0
   -4.9731   -3.5885   -1.0969 H   0  0  0  0  0  0  0  0  0  0  0  0
   -2.7106   -4.6107   -0.7530 H   0  0  0  0  0  0  0  0  0  0  0  0
   -0.8675   -3.2598    0.2746 H   0  0  0  0  0  0  0  0  0  0  0  0
  1  8  1  0  0  0  0
  2 17  1  0  0  0  0
  3 18  1  6  0  0  0
  3  7  1  0  0  0  0
  3  4  1  0  0  0  0
  3  2  1  0  0  0  0
  4 19  1  1  0  0  0
  4  2  1  0  0  0  0
  4  5  1  0  0  0  0
  5 20  1  1  0  0  0
  6  5  1  0  0  0  0
  6 21  1  0  0  0  0
  7 22  1  0  0  0  0
  8 23  1  0  0  0  0
  8  9  1  0  0  0  0
  9 24  1  1  0  0  0
  9  5  1  0  0  0  0
 10 25  1  6  0  0  0
 10  9  1  0  0  0  0
 10  7  1  0  0  0  0
 10  6  1  0  0  0  0
 11  1  1  0  0  0  0
 12 11  1  0  0  0  0
 12 26  1  0  0  0  0
 13 12  2  0  0  0  0
 14 15  2  0  0  0  0
 14 13  1  0  0  0  0
 15 16  1  0  0  0  0
 16 30  1  0  0  0  0
 16 11  2  0  0  0  0
 27 13  1  0  0  0  0
 28 14  1  0  0  0  0
 29 15  1  0  0  0  0
M  END
