7
q = -2.0, confidence = 0.518

 30 33  0  0  1  0  0  0  0  0999 V2000
   -0.4228   -1.7560    0.7734 C   0  0  2  0  0  0  0  0  0  0  0  0
    0.0223   -0.4142    1.3752 C   0  0  1  0  0  0  0  0  0  0  0  0
   -1.4906   -2.5631    1.4848 C   0  0  0  0  0  0  0  0  0  0  0  0
   -0.5427   -0.0611    2.7436 C   0  0  0  0  0  0  0  0  0  0  0  0
    0.8725   -2.6242   -0.0000 B   0  0  0  0  0  0  0  0  0  0  0  0
    1.1870   -1.6628    1.4281 B   0  0  2  0  0  0  0  0  0  0  0  0
    1.5874   -0.0113    0.9144 B   0  0  0  0  0  0  0  0  0  0  0  0
    0.8753   -3.8310   -0.0000 H   0  0  0  0  0  0  0  0  0  0  0  0
    1.4484   -2.1864    2.4839 H   0  0  0  0  0  0  0  0  0  0  0  0
    2.3278    0.6138    1.6449 H   0  0  0  0  0  0  0  0  0  0  0  0
   -1.5664   -3.5880    1.0799 H   0  0  0  0  0  0  0  0  0  0  0  0
   -2.4817   -2.0751    1.3826 H   0  0  0  0  0  0  0  0  0  0  0  0
   -1.2645   -2.6528    2.5620 H   0  0  0  0  0  0  0  0  0  0  0  0
   -0.0275    0.8263    3.1519 H   0  0  0  0  0  0  0  0  0  0  0  0
   -0.4049   -0.8784    3.4803 H   0  0  0  0  0  0  0  0  0  0  0  0
   -1.6262    0.1660    2.6922 H   0  0  0  0  0  0  0  0  0  0  0  0
    0.0223   -0.4142   -1.3752 C   0  0  2  0  0  0  0  0  0  0  0  0
    1.5874   -0.0113   -0.9144 B   0  0  0  0  0  0  0  0  0  0  0  0
   -0.4228   -1.7560   -0.7734 C   0  0  1  0  0  0  0  0  0  0  0  0
    1.1870   -1.6628   -1.4281 B   0  0  2  0  0  0  0  0  0  0  0  0
   -0.5427   -0.0611   -2.7436 C   0  0  0  0  0  0  0  0  0  0  0  0
    2.3278    0.6138   -1.6449 H   0  0  0  0  0  0  0  0  0  0  0  0
   -1.4906   -2.5631   -1.4848 C   0  0  0  0  0  0  0  0  0  0  0  0
    1.4484   -2.1864   -2.4839 H   0  0  0  0  0  0  0  0  0  0  0  0
   -0.0275    0.8263   -3.1519 H   0  0  0  0  0  0  0  0  0  0  0  0
   -0.4049   -0.8784   -3.4803 H   0  0  0  0  0  0  0  0  0  0  0  0
   -1.6262    0.1660   -2.6922 H   0  0  0  0  0  0  0  0  0  0  0  0
   -1.5664   -3.5880   -1.0799 H   0  0  0  0  0  0  0  0  0  0  0  0
   -2.4817   -2.0751   -1.3826 H   0  0  0  0  0  0  0  0  0  0  0  0
   -1.2645   -2.6528   -2.5620 H   0  0  0  0  0  0  0  0  0  0  0  0
  1  2  1  0  0  0  0
  1  6  1  0  0  0  0
  1  3  1  1  0  0  0
  2  6  1  0  0  0  0
  2  4  1  1  0  0  0
  3 13  1  0  0  0  0
  4 14  1  0  0  0  0
  4 15  1  0  0  0  0
  5  6  1  0  0  0  0
  6  9  1  1  0  0  0
  7  2  1  0  0  0  0
  7 10  1  0  0  0  0
  8  5  1  0  0  0  0
 11  3  1  0  0  0  0
 12  3  1  0  0  0  0
 16  4  1  0  0  0  0
 17 21  1  6  0  0  0
 17 18  1  0  0  0  0
 17 19  1  0  0  0  0
 18  7  1  0  0  0  0
 19 23  1  6  0  0  0
 19  1  1  0  0  0  0
 20 24  1  6  0  0  0
 20 17  1  0  0  0  0
 20 19  1  0  0  0  0
 20  5  1  0  0  0  0
 21 27  1  0  0  0  0
 22 18  1  0  0  0  0
 23 29  1  0  0  0  0
 23 28  1  0  0  0  0
 25 21  1  0  0  0  0
 26 21  1  0  0  0  0
 30 23  1  0  0  0  0
M  END
