13
q = -2.0, confidence = 0.75

 32 35  0  0  1  0  0  0  0  0999 V2000
   -0.6070    0.7503    0.8085 C   0  0  2  0  0  0  0  0  0  0  0  0
   -1.7958    1.3034   -0.0331 C   0  0  1  0  0  0  0  0  0  0  0  0
   -1.7959   -1.3034   -0.0331 C   0  0  2  0  0  0  0  0  0  0  0  0
   -0.6070   -0.7504    0.8085 C   0  0  2  0  0  0  0  0  0  0  0  0
   -0.2820    1.5367    2.0624 C   0  0  0  0  0  0  0  0  0  0  0  0
   -2.4864    2.5913    0.3841 C   0  0  0  0  0  0  0  0  0  0  0  0
   -2.4866   -2.5912    0.3840 C   0  0  0  0  0  0  0  0  0  0  0  0
   -0.2819   -1.5369    2.0622 C   0  0  0  0  0  0  0  0  0  0  0  0
   -0.1791    0.0000   -1.8937 B   0  0  0  0  0  2  0  0  0  0  0  0
   -0.2896    1.4392   -0.8304 B   0  0  1  0  0  0  0  0  0  0  0  0
   -1.7207    0.8893   -1.6782 B   0  0  1  0  0  0  0  0  0  0  0  0
   -1.7207   -0.8893   -1.6783 B   0  0  1  0  0  0  0  0  0  0  0  0
   -0.2897   -1.4392   -0.8304 B   0  0  0  0  0  0  0  0  0  0  0  0
   -2.6755    0.0001   -0.4465 B   0  0  0  0  0  0  0  0  0  0  0  0
    0.3698   -0.0001   -2.9755 H   0  0  0  0  0  0  0  0  0  0  0  0
    0.1640    2.5563   -0.9525 H   0  0  0  0  0  0  0  0  0  0  0  0
   -2.2375    1.6167   -2.4946 H   0  0  0  0  0  0  0  0  0  0  0  0
   -2.2377   -1.6165   -2.4947 H   0  0  0  0  0  0  0  0  0  0  0  0
    0.1638   -2.5563   -0.9526 H   0  0  0  0  0  0  0  0  0  0  0  0
   -3.8871    0.0001   -0.4727 H   0  0  0  0  0  0  0  0  0  0  0  0
    0.5437    1.0827    2.6373 H   0  0  0  0  0  0  0  0  0  0  0  0
    0.0075    2.5762    1.8192 H   0  0  0  0  0  0  0  0  0  0  0  0
   -1.1695    1.5839    2.7290 H   0  0  0  0  0  0  0  0  0  0  0  0
   -1.8031    3.4628    0.4050 H   0  0  0  0  0  0  0  0  0  0  0  0
   -3.2943    2.8196   -0.3360 H   0  0  0  0  0  0  0  0  0  0  0  0
   -2.9549    2.4915    1.3838 H   0  0  0  0  0  0  0  0  0  0  0  0
   -1.8034   -3.4628    0.4045 H   0  0  0  0  0  0  0  0  0  0  0  0
   -3.2948   -2.8192   -0.3359 H   0  0  0  0  0  0  0  0  0  0  0  0
   -2.9547   -2.4916    1.3840 H   0  0  0  0  0  0  0  0  0  0  0  0
   -1.1693   -1.5836    2.7292 H   0  0  0  0  0  0  0  0  0  0  0  0
    0.0070   -2.5764    1.8190 H   0  0  0  0  0  0  0  0  0  0  0  0
    0.5441   -1.0831    2.6369 H   0  0  0  0  0  0  0  0  0  0  0  0
  1  5  1  1  0  0  0
  2  6  1  1  0  0  0
  2  1  1  0  0  0  0
  3  7  1  1  0  0  0
  3  4  1  0  0  0  0
  4  1  1  0  0  0  0
  4  8  1  1  0  0  0
  5 21  1  0  0  0  0
  5 23  1  0  0  0  0
  6 24  1  0  0  0  0
  6 26  1  0  0  0  0
  7 27  1  0  0  0  0
  7 29  1  0  0  0  0
  8 32  1  0  0  0  0
  8 30  1  0  0  0  0
  9 10  1  0  0  0  0
 10 16  1  6  0  0  0
 10  1  1  0  0  0  0
 11 17  1  6  0  0  0
 11 10  1  0  0  0  0
 11  2  1  0  0  0  0
 12 18  1  6  0  0  0
 12 11  1  0  0  0  0
 12 13  1  0  0  0  0
 12  3  1  0  0  0  0
 13  4  1  0  0  0  0
 14  3  1  0  0  0  0
 14  2  1  0  0  0  0
 15  9  1  0  0  0  0
 19 13  1  0  0  0  0
 20 14  1  0  0  0  0
 22  5  1  0  0  0  0
 25  6  1  0  0  0  0
 28  7  1  0  0  0  0
 31  8  1  0  0  0  0
M  END
