5
q = 0.0, confidence = 0.782

 22 24  0  0  1  0  0  0  0  0999 V2000
    1.7319    2.7565   -0.4288 C   0  0  2  0  0  0  0  0  0  0  0  0
    1.1127    2.1827    1.0291 B   0  0  0  0  0  2  0  0  0  0  0  0
    1.8765    3.7984    0.8911 B   0  0  1  0  0  0  0  0  0  0  0  0
    1.4144    4.3929   -0.7079 B   0  0  2  0  0  0  0  0  0  0  0  0
    0.4475    3.1004   -1.5021 B   0  0  0  0  0  2  0  0  0  0  0  0
   -0.5716    2.4635    1.0475 C   0  0  2  0  0  0  0  0  0  0  0  0
    0.3870    3.5999    1.8504 B   0  0  2  0  0  0  0  0  0  0  0  0
    0.5449    4.9756    0.7200 B   0  0  0  0  0  0  0  0  0  0  0  0
   -0.3633    4.5206   -0.7659 B   0  0  0  0  0  0  0  0  0  0  0  0
   -1.0823    2.9048   -0.5024 B   0  0  0  0  0  0  0  0  0  0  0  0
   -0.9836    4.0922    0.8458 B   0  0  1  0  0  0  0  0  0  0  0  0
    2.6855    2.3815   -0.8217 H   0  0  0  0  0  0  0  0  0  0  0  0
    1.6998    1.4182    1.7587 H   0  0  0  0  0  0  0  0  0  0  0  0
    2.9629    4.0119    1.3820 H   0  0  0  0  0  0  0  0  0  0  0  0
    2.1846    5.0431   -1.3802 H   0  0  0  0  0  0  0  0  0  0  0  0
    0.5811    3.0827   -2.7048 H   0  0  0  0  0  0  0  0  0  0  0  0
   -1.2311    1.9050    1.7245 H   0  0  0  0  0  0  0  0  0  0  0  0
    0.3580    3.6565    3.0612 H   0  0  0  0  0  0  0  0  0  0  0  0
    0.6510    6.1194    1.1115 H   0  0  0  0  0  0  0  0  0  0  0  0
   -0.9138    5.3530   -1.4564 H   0  0  0  0  0  0  0  0  0  0  0  0
   -2.2103    2.7065   -0.8902 H   0  0  0  0  0  0  0  0  0  0  0  0
   -2.0037    4.5134    1.3462 H   0  0  0  0  0  0  0  0  0  0  0  0
  1 12  1  6  0  0  0
  1  3  1  0  0  0  0
  1  2  1  0  0  0  0
  2 13  1  0  0  0  0
  3 14  1  1  0  0  0
  3  7  1  0  0  0  0
  4 15  1  6  0  0  0
  4  1  1  0  0  0  0
  4  8  1  0  0  0  0
  4  3  1  0  0  0  0
  5  9  1  0  0  0  0
  6 17  1  1  0  0  0
  6  7  1  0  0  0  0
  7 18  1  1  0  0  0
  8 11  1  0  0  0  0
  8 19  1  0  0  0  0
  9 10  1  0  0  0  0
 10  6  1  0  0  0  0
 11  6  1  0  0  0  0
 11 22  1  1  0  0  0
 11  7  1  0  0  0  0
 16  5  1  0  0  0  0
 20  9  1  0  0  0  0
 21 10  1  0  0  0  0
M  END
