1
q = -1.0, confidence = 0.196

  3  2  0  0  0  0  0  0  0  0999 V2000
    1.4230   -2.0534   -2.4015 B   0  0  0  0  0  2  0  0  0  0  0  0
    1.8493   -3.1105   -1.9708 H   0  0  0  0  0  0  0  0  0  0  0  0
    2.2232   -1.3265   -2.9666 H   0  0  0  0  0  0  0  0  0  0  0  0
  1  2  1  0  0  0  0
  3  1  1  0  0  0  0
M  END
