13
q = 0.0, confidence = 0.97

 24 25  0  0  0  0  0  0  0  0999 V2000
   -0.2186    0.8903   -1.7702 S   0  0  0  0  0  0  0  0  0  0  0  0
    1.0807   -2.0283   -1.0911 S   0  0  0  0  0  0  0  0  0  0  0  0
    2.4893   -1.3545   -0.3849 C   0  0  0  0  0  0  0  0  0  0  0  0
    3.7941   -1.8363   -0.7050 C   0  0  0  0  0  0  0  0  0  0  0  0
    3.8757   -2.6321   -1.4586 H   0  0  0  0  0  0  0  0  0  0  0  0
    4.9091   -1.3153   -0.0720 C   0  0  0  0  0  0  0  0  0  0  0  0
    5.9135   -1.6922   -0.3182 H   0  0  0  0  0  0  0  0  0  0  0  0
    4.7425   -0.2969    0.9029 C   0  0  0  0  0  0  0  0  0  0  0  0
    5.5961    0.1356    1.4414 H   0  0  0  0  0  0  0  0  0  0  0  0
    3.4590    0.1481    1.1670 C   0  0  0  0  0  0  0  0  0  0  0  0
    3.2626    0.9311    1.9126 H   0  0  0  0  0  0  0  0  0  0  0  0
    2.3568   -0.3414    0.5341 N   0  0  0  0  0  0  0  0  0  0  0  0
    0.8961    0.2429    0.8864 B   0  0  0  0  0  0  0  0  0  0  0  0
    0.8225    0.2533    2.1218 H   0  0  0  0  0  0  0  0  0  0  0  0
    0.9463    1.7792    0.4459 N   0  0  0  0  0  0  0  0  0  0  0  0
    1.3839    2.7552    1.2881 C   0  0  0  0  0  0  0  0  0  0  0  0
    1.5638    2.4236    2.3216 H   0  0  0  0  0  0  0  0  0  0  0  0
    1.5753    4.0658    0.8793 C   0  0  0  0  0  0  0  0  0  0  0  0
    1.9138    4.8232    1.5986 H   0  0  0  0  0  0  0  0  0  0  0  0
    1.3284    4.3840   -0.4811 C   0  0  0  0  0  0  0  0  0  0  0  0
    1.4931    5.4076   -0.8508 H   0  0  0  0  0  0  0  0  0  0  0  0
    0.8490    3.4037   -1.3373 C   0  0  0  0  0  0  0  0  0  0  0  0
    0.6075    3.6217   -2.3870 H   0  0  0  0  0  0  0  0  0  0  0  0
    0.5951    2.0899   -0.8502 C   0  0  0  0  0  0  0  0  0  0  0  0
  1 24  2  0  0  0  0
  2  3  2  0  0  0  0
  3 12  1  0  0  0  0
  4  3  1  0  0  0  0
  4  6  2  0  0  0  0
  5  4  1  0  0  0  0
  6  8  1  0  0  0  0
  7  6  1  0  0  0  0
  8 10  2  0  0  0  0
  8  9  1  0  0  0  0
 10 11  1  0  0  0  0
 12 13  1  0  0  0  0
 12 10  1  0  0  0  0
 13 14  1  0  0  0  0
 15 13  1  0  0  0  0
 15 16  1  0  0  0  0
 16 17  1  0  0  0  0
 18 16  2  0  0  0  0
 18 19  1  0  0  0  0
 20 18  1  0  0  0  0
 21 20  1  0  0  0  0
 22 24  1  0  0  0  0
 22 20  2  0  0  0  0
 23 22  1  0  0  0  0
 24 15  1  0  0  0  0
M  END
