64
q = -1.0, confidence = 0.038

 64 66  0  0  1  0  0  0  0  0999 V2000
   -0.2607    2.5778   -3.0929 N   0  0  0  0  0  0  0  0  0  0  0  0
    0.6008   -1.9081   -2.7734 N   0  0  0  0  0  0  0  0  0  0  0  0
    1.5576   -0.0861    0.7319 N   0  0  0  0  0  0  0  0  0  0  0  0
   -0.4678    4.2967    1.1604 C   0  0  0  0  0  0  0  0  0  0  0  0
   -0.2550    4.2294    2.2514 H   0  0  0  0  0  0  0  0  0  0  0  0
   -1.4617    4.7828    1.0702 H   0  0  0  0  0  0  0  0  0  0  0  0
    0.4767   -0.8986   -2.1789 C   0  0  0  0  0  0  0  0  0  0  0  0
    2.0241   -3.7890    0.2676 C   0  0  0  0  0  0  0  0  0  0  0  0
    1.5140   -4.7333    0.5108 H   0  0  0  0  0  0  0  0  0  0  0  0
    3.9838   -0.1236   -0.9826 C   0  0  0  0  0  0  0  0  0  0  0  0
    3.4677    0.7502   -0.5452 H   0  0  0  0  0  0  0  0  0  0  0  0
    0.6075    5.1489    0.4772 C   0  0  0  0  0  0  0  0  0  0  0  0
    0.3257    5.2981   -0.5884 H   0  0  0  0  0  0  0  0  0  0  0  0
    0.6623    6.1575    0.9382 H   0  0  0  0  0  0  0  0  0  0  0  0
    1.9112    3.0362   -0.0420 C   0  0  0  0  0  0  0  0  0  0  0  0
    2.9044    2.5509    0.0402 H   0  0  0  0  0  0  0  0  0  0  0  0
    1.6792    3.0948   -1.1251 H   0  0  0  0  0  0  0  0  0  0  0  0
    0.8186    2.1446    0.6311 C   0  0  0  0  0  0  0  0  0  0  0  0
    1.9710    4.4538    0.5405 C   0  0  0  0  0  0  0  0  0  0  0  0
    2.3199    4.4195    1.5974 H   0  0  0  0  0  0  0  0  0  0  0  0
    2.7343    5.0401   -0.0126 H   0  0  0  0  0  0  0  0  0  0  0  0
   -0.5308    2.8947    0.5417 C   0  0  0  0  0  0  0  0  0  0  0  0
   -0.8225    2.9888   -0.5225 H   0  0  0  0  0  0  0  0  0  0  0  0
   -1.3151    2.2795    1.0340 H   0  0  0  0  0  0  0  0  0  0  0  0
    3.4536    0.6635    2.2125 C   0  0  0  0  0  0  0  0  0  0  0  0
    3.8452    1.3974    1.4857 H   0  0  0  0  0  0  0  0  0  0  0  0
    3.9890   -0.2947    2.0673 H   0  0  0  0  0  0  0  0  0  0  0  0
    3.6890    1.0340    3.2294 H   0  0  0  0  0  0  0  0  0  0  0  0
   -0.0571    1.6588   -2.3847 C   0  0  0  0  0  0  0  0  0  0  0  0
    2.0850   -1.3609    0.2937 C   0  0  0  0  0  0  0  0  0  0  0  0
    0.8524    0.7665   -0.0510 C   0  0  1  0  0  3  0  0  0  0  0  0
   -0.9650   -3.2620    0.1657 C   0  0  0  0  0  0  0  0  0  0  0  0
   -2.0094   -3.2133    0.5393 H   0  0  0  0  0  0  0  0  0  0  0  0
   -0.7243   -4.3325    0.0021 H   0  0  0  0  0  0  0  0  0  0  0  0
   -0.9082   -2.7541   -0.8154 H   0  0  0  0  0  0  0  0  0  0  0  0
   -0.0024   -2.6324    1.1940 C   0  0  0  0  0  0  0  0  0  0  0  0
   -0.3412   -1.5889    1.3684 H   0  0  0  0  0  0  0  0  0  0  0  0
    3.2433   -3.8249   -0.4127 C   0  0  0  0  0  0  0  0  0  0  0  0
    3.7006   -4.7894   -0.6799 H   0  0  0  0  0  0  0  0  0  0  0  0
   -0.0895   -3.4167    2.5150 C   0  0  0  0  0  0  0  0  0  0  0  0
    0.1577   -4.4867    2.3579 H   0  0  0  0  0  0  0  0  0  0  0  0
   -1.1222   -3.3785    2.9208 H   0  0  0  0  0  0  0  0  0  0  0  0
    0.5951   -3.0288    3.2918 H   0  0  0  0  0  0  0  0  0  0  0  0
    3.2984   -1.3798   -0.4546 C   0  0  0  0  0  0  0  0  0  0  0  0
    5.4685   -0.0432   -0.5885 C   0  0  0  0  0  0  0  0  0  0  0  0
    6.0619   -0.8395   -1.0827 H   0  0  0  0  0  0  0  0  0  0  0  0
    5.6214   -0.1426    0.5038 H   0  0  0  0  0  0  0  0  0  0  0  0
    5.8985    0.9279   -0.9087 H   0  0  0  0  0  0  0  0  0  0  0  0
    1.1570    1.7958    2.1004 C   0  0  0  0  0  0  0  0  0  0  0  0
    1.7290    2.5902    2.6157 H   0  0  0  0  0  0  0  0  0  0  0  0
    0.2094    1.6616    2.6617 H   0  0  0  0  0  0  0  0  0  0  0  0
    1.4781   -0.4553    3.2226 C   0  0  0  0  0  0  0  0  0  0  0  0
    2.0021   -1.4298    3.1838 H   0  0  0  0  0  0  0  0  0  0  0  0
    0.3872   -0.6331    3.1877 H   0  0  0  0  0  0  0  0  0  0  0  0
    1.7175    0.0204    4.1945 H   0  0  0  0  0  0  0  0  0  0  0  0
    1.4094   -2.5715    0.6147 C   0  0  0  0  0  0  0  0  0  0  0  0
    1.9343    0.4665    2.0881 C   0  0  0  0  0  0  0  0  0  0  0  0
    3.8329   -0.0138   -2.5120 C   0  0  0  0  0  0  0  0  0  0  0  0
    2.7739   -0.0535   -2.8251 H   0  0  0  0  0  0  0  0  0  0  0  0
    4.3606   -0.8451   -3.0235 H   0  0  0  0  0  0  0  0  0  0  0  0
    4.2707    0.9397   -2.8721 H   0  0  0  0  0  0  0  0  0  0  0  0
    3.8556   -2.6271   -0.7891 C   0  0  0  0  0  0  0  0  0  0  0  0
    4.7883   -2.6549   -1.3721 H   0  0  0  0  0  0  0  0  0  0  0  0
    0.2176    0.4493   -1.4297 B   0  0  0  0  0  0  0  0  0  0  0  0
  1 29  3  0  0  0  0
  2  7  3  0  0  0  0
  3 57  1  0  0  0  0
  4  5  1  0  0  0  0
  6  4  1  0  0  0  0
  7 64  1  0  0  0  0
  8  9  1  0  0  0  0
  8 56  1  0  0  0  0
 10 45  1  0  0  0  0
 10 11  1  0  0  0  0
 10 44  1  0  0  0  0
 12 19  1  0  0  0  0
 12 14  1  0  0  0  0
 12  4  1  0  0  0  0
 13 12  1  0  0  0  0
 15 16  1  0  0  0  0
 15 19  1  0  0  0  0
 15 18  1  0  0  0  0
 17 15  1  0  0  0  0
 18 49  1  0  0  0  0
 19 20  1  0  0  0  0
 21 19  1  0  0  0  0
 22 18  1  0  0  0  0
 22 24  1  0  0  0  0
 22  4  1  0  0  0  0
 23 22  1  0  0  0  0
 25 28  1  0  0  0  0
 26 25  1  0  0  0  0
 27 25  1  0  0  0  0
 29 64  1  0  0  0  0
 30 56  2  0  0  0  0
 30  3  1  0  0  0  0
 31 64  1  6  0  0  0
 31 18  1  0  0  0  0
 31  3  1  0  0  0  0
 32 33  1  0  0  0  0
 32 36  1  0  0  0  0
 34 32  1  0  0  0  0
 35 32  1  0  0  0  0
 36 37  1  0  0  0  0
 36 40  1  0  0  0  0
 38  8  2  0  0  0  0
 39 38  1  0  0  0  0
 40 42  1  0  0  0  0
 40 43  1  0  0  0  0
 41 40  1  0  0  0  0
 44 30  1  0  0  0  0
 45 47  1  0  0  0  0
 46 45  1  0  0  0  0
 48 45  1  0  0  0  0
 49 50  1  0  0  0  0
 49 51  1  0  0  0  0
 52 55  1  0  0  0  0
 53 52  1  0  0  0  0
 54 52  1  0  0  0  0
 56 36  1  0  0  0  0
 57 49  1  0  0  0  0
 57 25  1  0  0  0  0
 57 52  1  0  0  0  0
 58 10  1  0  0  0  0
 59 58  1  0  0  0  0
 60 58  1  0  0  0  0
 61 58  1  0  0  0  0
 62 44  2  0  0  0  0
 62 38  1  0  0  0  0
 63 62  1  0  0  0  0
M  END
