7
q = -1.0, confidence = 0.038

 21 22  0  0  1  0  0  0  0  0999 V2000
    2.8688   -1.3010   -0.5335 B   0  0  0  0  0  2  0  0  0  0  0  0
    3.4806   -2.2680   -0.9365 H   0  0  0  0  0  0  0  0  0  0  0  0
    3.6769    0.1809    0.0048 B   0  0  2  0  0  0  0  0  0  0  0  0
    4.8590    0.4448    0.0224 H   0  0  0  0  0  0  0  0  0  0  0  0
    2.7879    0.1887   -1.5105 B   0  0  0  0  0  0  0  0  0  0  0  0
    3.2886    0.4324   -2.5843 H   0  0  0  0  0  0  0  0  0  0  0  0
    1.3041   -0.7653   -1.2480 B   0  0  0  0  0  2  0  0  0  0  0  0
    0.8236   -1.2966   -2.2305 H   0  0  0  0  0  0  0  0  0  0  0  0
    1.3751   -1.4744    0.4171 B   0  0  1  0  0  0  0  0  0  0  0  0
    1.0025   -2.5988    0.6915 H   0  0  0  0  0  0  0  0  0  0  0  0
    2.8649   -0.8445    1.1941 B   0  0  2  0  0  0  0  0  0  0  0  0
    3.5043   -1.4647    2.0189 H   0  0  0  0  0  0  0  0  0  0  0  0
    2.5525    1.4002   -0.3416 C   0  0  1  0  0  0  0  0  0  0  0  0
    2.9084    2.3985   -0.6314 H   0  0  0  0  0  0  0  0  0  0  0  0
    1.3095    0.8777   -1.0480 C   0  0  1  0  0  0  0  0  0  0  0  0
    0.9036    1.5490   -1.8166 H   0  0  0  0  0  0  0  0  0  0  0  0
    1.2485   -0.2032    1.6345 B   0  0  0  0  0  0  0  0  0  0  0  0
    0.8057   -0.3794    2.7501 H   0  0  0  0  0  0  0  0  0  0  0  0
    2.6666    0.9502    1.2706 B   0  0  0  0  0  0  0  0  0  0  0  0
    1.4111    1.1354    1.6080 H   0  0  0  0  0  0  0  0  0  0  0  0
    3.2761    1.6405    2.0631 H   0  0  0  0  0  0  0  0  0  0  0  0
  1  9  1  0  0  0  0
  2  1  1  0  0  0  0
  3  4  1  1  0  0  0
  3 11  1  0  0  0  0
  5 15  1  0  0  0  0
  5  3  1  0  0  0  0
  6  5  1  0  0  0  0
  7 15  1  0  0  0  0
  8  7  1  0  0  0  0
  9 10  1  1  0  0  0
  9 11  1  0  0  0  0
  9 17  1  0  0  0  0
 11 17  1  0  0  0  0
 11 12  1  1  0  0  0
 13 14  1  6  0  0  0
 13  3  1  0  0  0  0
 13 19  1  0  0  0  0
 15 16  1  6  0  0  0
 15 13  1  0  0  0  0
 17 18  1  0  0  0  0
 19 20  1  0  0  0  0
 19 21  1  0  0  0  0
M  END
