1
q = -1.0, confidence = 0.0

 42 44  0  0  0  0  0  0  0  0999 V2000
   -0.7956    0.7902   -0.1944 B   0  0  0  0  0  2  0  0  0  0  0  0
   -0.7533    2.4902   -0.8365 Cl  0  0  0  0  0  2  0  0  0  0  0  0
    1.0554   -0.0220   -0.0147 Si  0  0  0  0  0  0  0  0  0  0  0  0
    1.3412   -2.3720   -0.0111 Si  0  0  0  0  0  0  0  0  0  0  0  0
    0.1862   -3.3520    1.1370 C   0  0  0  0  0  0  0  0  0  0  0  0
   -0.8784   -3.2954    0.8378 H   0  0  0  0  0  0  0  0  0  0  0  0
    0.2530   -2.9863    2.1803 H   0  0  0  0  0  0  0  0  0  0  0  0
    0.4887   -4.4207    1.1221 H   0  0  0  0  0  0  0  0  0  0  0  0
    3.1138   -2.7455    0.5719 C   0  0  0  0  0  0  0  0  0  0  0  0
    3.8717   -2.2037   -0.0264 H   0  0  0  0  0  0  0  0  0  0  0  0
    3.3205   -3.8335    0.4878 H   0  0  0  0  0  0  0  0  0  0  0  0
    3.2475   -2.4575    1.6345 H   0  0  0  0  0  0  0  0  0  0  0  0
    1.1498   -3.0496   -1.7832 C   0  0  0  0  0  0  0  0  0  0  0  0
    0.1496   -2.8351   -2.2118 H   0  0  0  0  0  0  0  0  0  0  0  0
    1.2961   -4.1505   -1.7952 H   0  0  0  0  0  0  0  0  0  0  0  0
    1.9027   -2.6006   -2.4621 H   0  0  0  0  0  0  0  0  0  0  0  0
    2.3546    0.8279   -1.8153 Si  0  0  0  0  0  0  0  0  0  0  0  0
    1.3529    0.6352   -3.4236 C   0  0  0  0  0  0  0  0  0  0  0  0
    1.9418    0.9781   -4.3004 H   0  0  0  0  0  0  0  0  0  0  0  0
    0.4278    1.2451   -3.3759 H   0  0  0  0  0  0  0  0  0  0  0  0
    1.0688   -0.4230   -3.5968 H   0  0  0  0  0  0  0  0  0  0  0  0
    3.9884   -0.1291   -2.0120 C   0  0  0  0  0  0  0  0  0  0  0  0
    3.8225   -1.2014   -2.2380 H   0  0  0  0  0  0  0  0  0  0  0  0
    4.6061   -0.0631   -1.0937 H   0  0  0  0  0  0  0  0  0  0  0  0
    4.5748    0.3063   -2.8488 H   0  0  0  0  0  0  0  0  0  0  0  0
    2.7887    2.6637   -1.5906 C   0  0  0  0  0  0  0  0  0  0  0  0
    1.8698    3.2756   -1.5067 H   0  0  0  0  0  0  0  0  0  0  0  0
    3.3749    3.0236   -2.4627 H   0  0  0  0  0  0  0  0  0  0  0  0
    3.3969    2.8303   -0.6790 H   0  0  0  0  0  0  0  0  0  0  0  0
    1.9819    0.8604    1.9848 Si  0  0  0  0  0  0  0  0  0  0  0  0
    1.5403   -0.2185    3.4832 C   0  0  0  0  0  0  0  0  0  0  0  0
    0.4450   -0.3128    3.6146 H   0  0  0  0  0  0  0  0  0  0  0  0
    1.9675    0.2259    4.4072 H   0  0  0  0  0  0  0  0  0  0  0  0
    1.9564   -1.2411    3.3756 H   0  0  0  0  0  0  0  0  0  0  0  0
    3.8781    0.9094    1.8409 C   0  0  0  0  0  0  0  0  0  0  0  0
    4.2906   -0.1015    1.6497 H   0  0  0  0  0  0  0  0  0  0  0  0
    4.3201    1.2866    2.7876 H   0  0  0  0  0  0  0  0  0  0  0  0
    4.2110    1.5753    1.0201 H   0  0  0  0  0  0  0  0  0  0  0  0
    1.3251    2.6194    2.2572 C   0  0  0  0  0  0  0  0  0  0  0  0
    0.2258    2.6166    2.4038 H   0  0  0  0  0  0  0  0  0  0  0  0
    1.5414    3.2666    1.3838 H   0  0  0  0  0  0  0  0  0  0  0  0
    1.7929    3.0747    3.1556 H   0  0  0  0  0  0  0  0  0  0  0  0
  1  3  1  0  0  0  0
  2  1  1  0  0  0  0
  3  4  1  0  0  0  0
  3 30  1  0  0  0  0
  3  2  1  0  0  0  0
  3  9  1  0  0  0  0
  3 18  1  0  0  0  0
  4  9  1  0  0  0  0
  4  5  1  0  0  0  0
  5  7  1  0  0  0  0
  6  5  1  0  0  0  0
  8  5  1  0  0  0  0
  9 12  1  0  0  0  0
 10  9  1  0  0  0  0
 11  9  1  0  0  0  0
 13  4  1  0  0  0  0
 14 13  1  0  0  0  0
 15 13  1  0  0  0  0
 16 13  1  0  0  0  0
 17 26  1  0  0  0  0
 17  3  1  0  0  0  0
 18 20  1  0  0  0  0
 18 17  1  0  0  0  0
 19 18  1  0  0  0  0
 21 18  1  0  0  0  0
 22 17  1  0  0  0  0
 22 24  1  0  0  0  0
 23 22  1  0  0  0  0
 25 22  1  0  0  0  0
 26 27  1  0  0  0  0
 26 29  1  0  0  0  0
 28 26  1  0  0  0  0
 30 39  1  0  0  0  0
 30 31  1  0  0  0  0
 31 32  1  0  0  0  0
 31 33  1  0  0  0  0
 34 31  1  0  0  0  0
 35 30  1  0  0  0  0
 35 37  1  0  0  0  0
 36 35  1  0  0  0  0
 38 35  1  0  0  0  0
 39 40  1  0  0  0  0
 39 42  1  0  0  0  0
 41 39  1  0  0  0  0
M  ZBO  3   5   0   6   0   7   0
M  END
