9
q = -2.0, confidence = 0.804

 22 26  0  0  1  0  0  0  0  0999 V2000
   -1.4989   -1.2954   -0.3961 C   0  0  1  0  0  0  0  0  0  0  0  0
   -1.0595   -2.2855   -0.5882 H   0  0  0  0  0  0  0  0  0  0  0  0
   -1.5003   -0.7560    1.1253 C   0  0  2  0  0  0  0  0  0  0  0  0
   -1.0559   -1.3945    1.9009 H   0  0  0  0  0  0  0  0  0  0  0  0
   -1.4420    1.4912   -0.5301 B   0  0  0  0  0  0  0  0  0  0  0  0
   -1.0397    2.5660   -0.9112 H   0  0  0  0  0  0  0  0  0  0  0  0
   -2.9485    0.0308    1.4998 B   0  0  2  0  0  0  0  0  0  0  0  0
   -3.3763   -0.0441    2.6292 H   0  0  0  0  0  0  0  0  0  0  0  0
   -1.4327    0.9552    1.1980 B   0  0  0  0  0  0  0  0  0  0  0  0
   -1.0108    1.5115    2.1821 H   0  0  0  0  0  0  0  0  0  0  0  0
   -2.9623    0.8509   -1.2606 B   0  0  0  0  0  0  0  0  0  0  0  0
   -3.5185    1.4338   -2.1682 H   0  0  0  0  0  0  0  0  0  0  0  0
   -2.9478   -0.9263   -1.1958 B   0  0  2  0  0  0  0  0  0  0  0  0
   -3.3672   -1.7034   -2.0241 H   0  0  0  0  0  0  0  0  0  0  0  0
   -2.9633    1.4514    0.4246 B   0  0  2  0  0  0  0  0  0  0  0  0
   -3.5244    2.4737    0.7602 H   0  0  0  0  0  0  0  0  0  0  0  0
   -2.9576   -1.4235    0.4984 B   0  0  2  0  0  0  0  0  0  0  0  0
   -3.3005   -2.5157    0.8856 H   0  0  0  0  0  0  0  0  0  0  0  0
   -1.4342   -0.0175   -1.5230 B   0  0  2  0  0  0  0  0  0  0  0  0
   -0.9623   -0.2086   -2.6224 H   0  0  0  0  0  0  0  0  0  0  0  0
   -3.9010   -0.0063   -0.0053 B   0  0  1  0  0  0  0  0  0  0  0  0
   -5.1127   -0.0493    0.0134 H   0  0  0  0  0  0  0  0  0  0  0  0
  1  2  1  6  0  0  0
  1  3  1  0  0  0  0
  3  9  1  0  0  0  0
  3  7  1  0  0  0  0
  3  4  1  1  0  0  0
  5 15  1  0  0  0  0
  6  5  1  0  0  0  0
  7  8  1  1  0  0  0
  9 10  1  0  0  0  0
 11 13  1  0  0  0  0
 12 11  1  0  0  0  0
 13 14  1  6  0  0  0
 13  1  1  0  0  0  0
 13 17  1  0  0  0  0
 15 16  1  1  0  0  0
 15  9  1  0  0  0  0
 17 18  1  1  0  0  0
 17  7  1  0  0  0  0
 19 20  1  6  0  0  0
 19 11  1  0  0  0  0
 19  5  1  0  0  0  0
 19  1  1  0  0  0  0
 21 22  1  1  0  0  0
 21 15  1  0  0  0  0
 21 17  1  0  0  0  0
 21  7  1  0  0  0  0
M  END
