1
q = 0.0, confidence = 0.852

 42 41  0  0  0  0  0  0  0  0999 V2000
    0.6132   -1.2318   -0.0629 B   0  0  0  0  0  2  0  0  0  0  0  0
    0.5825    0.7562    0.3961 B   0  0  0  0  0  2  0  0  0  0  0  0
    1.6074   -0.2559   -0.1182 N   0  0  0  0  0  0  0  0  0  0  0  0
    0.6126    1.3518    1.9305 C   0  0  0  0  0  0  0  0  0  0  0  0
    0.6167    0.1574    2.9087 C   0  0  0  0  0  0  0  0  0  0  0  0
    0.6857    0.5063    3.9623 H   0  0  0  0  0  0  0  0  0  0  0  0
    1.4706   -0.5256    2.7243 H   0  0  0  0  0  0  0  0  0  0  0  0
   -0.3135   -0.4392    2.8074 H   0  0  0  0  0  0  0  0  0  0  0  0
   -0.6345    2.2094    2.2289 C   0  0  0  0  0  0  0  0  0  0  0  0
   -0.6661    2.4964    3.3024 H   0  0  0  0  0  0  0  0  0  0  0  0
   -1.5776    1.6726    1.9952 H   0  0  0  0  0  0  0  0  0  0  0  0
   -0.6312    3.1587    1.6515 H   0  0  0  0  0  0  0  0  0  0  0  0
    1.8484    2.2263    2.2317 C   0  0  0  0  0  0  0  0  0  0  0  0
    1.7886    2.6389    3.2630 H   0  0  0  0  0  0  0  0  0  0  0  0
    1.9330    3.0933    1.5439 H   0  0  0  0  0  0  0  0  0  0  0  0
    2.7951    1.6552    2.1715 H   0  0  0  0  0  0  0  0  0  0  0  0
    3.0692   -0.2329   -0.3623 C   0  0  0  0  0  0  0  0  0  0  0  0
    3.5382    1.1975   -0.6762 C   0  0  0  0  0  0  0  0  0  0  0  0
    4.6389    1.2129   -0.7987 H   0  0  0  0  0  0  0  0  0  0  0  0
    3.2777    1.9032    0.1322 H   0  0  0  0  0  0  0  0  0  0  0  0
    3.0983    1.5609   -1.6256 H   0  0  0  0  0  0  0  0  0  0  0  0
    3.3958   -1.0989   -1.5940 C   0  0  0  0  0  0  0  0  0  0  0  0
    4.4795   -1.0509   -1.8214 H   0  0  0  0  0  0  0  0  0  0  0  0
    2.8402   -0.7395   -2.4833 H   0  0  0  0  0  0  0  0  0  0  0  0
    3.1304   -2.1590   -1.4380 H   0  0  0  0  0  0  0  0  0  0  0  0
    3.8385   -0.7541    0.8686 C   0  0  0  0  0  0  0  0  0  0  0  0
    4.9289   -0.7706    0.6674 H   0  0  0  0  0  0  0  0  0  0  0  0
    3.5199   -1.7783    1.1324 H   0  0  0  0  0  0  0  0  0  0  0  0
    3.6639   -0.1065    1.7490 H   0  0  0  0  0  0  0  0  0  0  0  0
    0.4935   -2.8448   -0.1510 C   0  0  0  0  0  0  0  0  0  0  0  0
    1.7149   -3.5957    0.4175 C   0  0  0  0  0  0  0  0  0  0  0  0
    1.5482   -4.6927    0.3458 H   0  0  0  0  0  0  0  0  0  0  0  0
    1.8733   -3.3586    1.4897 H   0  0  0  0  0  0  0  0  0  0  0  0
    2.6570   -3.3788   -0.1200 H   0  0  0  0  0  0  0  0  0  0  0  0
    0.3003   -3.1945   -1.6462 C   0  0  0  0  0  0  0  0  0  0  0  0
    0.1458   -4.2890   -1.7699 H   0  0  0  0  0  0  0  0  0  0  0  0
    1.1752   -2.9072   -2.2634 H   0  0  0  0  0  0  0  0  0  0  0  0
   -0.5921   -2.6823   -2.0624 H   0  0  0  0  0  0  0  0  0  0  0  0
   -0.7411   -3.3585    0.6292 C   0  0  0  0  0  0  0  0  0  0  0  0
   -0.7876   -4.4685    0.5770 H   0  0  0  0  0  0  0  0  0  0  0  0
   -1.6939   -2.9661    0.2185 H   0  0  0  0  0  0  0  0  0  0  0  0
   -0.6975   -3.0741    1.7004 H   0  0  0  0  0  0  0  0  0  0  0  0
  2  4  1  0  0  0  0
  3  1  1  0  0  0  0
  3  2  1  0  0  0  0
  4  9  1  0  0  0  0
  4 13  1  0  0  0  0
  4  5  1  0  0  0  0
  5  6  1  0  0  0  0
  7  5  1  0  0  0  0
  8  5  1  0  0  0  0
  9 10  1  0  0  0  0
 11  9  1  0  0  0  0
 12  9  1  0  0  0  0
 13 14  1  0  0  0  0
 15 13  1  0  0  0  0
 16 13  1  0  0  0  0
 17  3  1  0  0  0  0
 17 26  1  0  0  0  0
 18 17  1  0  0  0  0
 18 20  1  0  0  0  0
 19 18  1  0  0  0  0
 21 18  1  0  0  0  0
 22 25  1  0  0  0  0
 22 17  1  0  0  0  0
 23 22  1  0  0  0  0
 24 22  1  0  0  0  0
 26 28  1  0  0  0  0
 26 29  1  0  0  0  0
 27 26  1  0  0  0  0
 30  1  1  0  0  0  0
 30 31  1  0  0  0  0
 30 39  1  0  0  0  0
 31 33  1  0  0  0  0
 32 31  1  0  0  0  0
 34 31  1  0  0  0  0
 35 30  1  0  0  0  0
 36 35  1  0  0  0  0
 37 35  1  0  0  0  0
 38 35  1  0  0  0  0
 39 42  1  0  0  0  0
 40 39  1  0  0  0  0
 41 39  1  0  0  0  0
M  END
