8
q = 0.0, confidence = 0.818

 16 20  0  0  0  0  0  0  0  0999 V2000
   -1.7209    1.0990   -1.6370 B   0  0  2  0  0  0  0  0  0  0  0  0
   -1.4223   -0.1420   -0.4371 B   0  0  0  0  0  0  0  0  0  0  0  0
   -1.4071   -0.4875   -2.2233 B   0  0  2  0  0  0  0  0  0  0  0  0
   -0.2095    0.8771   -2.4931 B   0  0  2  0  0  0  0  0  0  0  0  0
    0.2760   -0.3803    0.1150 B   0  0  0  0  0  0  0  0  0  0  0  0
   -0.5431   -1.5710   -1.0604 B   0  0  1  0  0  0  0  0  0  0  0  0
    0.3275   -0.8412   -2.5138 B   0  0  1  0  0  0  0  0  0  0  0  0
    1.2074    0.3860   -1.4774 B   0  0  0  0  0  0  0  0  0  0  0  0
    1.1222   -1.2608   -1.0677 B   0  0  1  0  0  0  0  0  0  0  0  0
   -2.7069    1.7666   -1.8846 H   0  0  0  0  0  0  0  0  0  0  0  0
   -2.2671   -0.9584   -2.9461 H   0  0  0  0  0  0  0  0  0  0  0  0
   -0.0565    1.5838   -3.4751 H   0  0  0  0  0  0  0  0  0  0  0  0
    0.5357   -0.5654    1.2977 H   0  0  0  0  0  0  0  0  0  0  0  0
   -0.9886   -2.6879   -0.8677 H   0  0  0  0  0  0  0  0  0  0  0  0
    0.6287   -1.3499   -3.5792 H   0  0  0  0  0  0  0  0  0  0  0  0
    2.2994    0.8947   -1.6821 H   0  0  0  0  0  0  0  0  0  0  0  0
  1 10  1  6  0  0  0
  1  2  1  0  0  0  0
  2  5  1  0  0  0  0
  3 11  1  6  0  0  0
  3  1  1  0  0  0  0
  3  6  1  0  0  0  0
  4 12  1  6  0  0  0
  4  1  1  0  0  0  0
  4  8  1  0  0  0  0
  5 13  1  0  0  0  0
  6 14  1  1  0  0  0
  6  2  1  0  0  0  0
  7 15  1  6  0  0  0
  7  4  1  0  0  0  0
  7  3  1  0  0  0  0
  7  9  1  0  0  0  0
  9  8  1  1  0  0  0
  9  6  1  0  0  0  0
  9  5  1  0  0  0  0
 16  8  1  0  0  0  0
M  END
