33
q = -1.0, confidence = 0.0

 36 41  0  0  1  0  0  0  0  0999 V2000
   -2.5885   -1.5088    0.5022 S   0  0  0  0  0  3  0  0  0  0  0  0
    1.2632    2.9220    0.8949 C   0  0  0  0  0  0  0  0  0  0  0  0
    1.0195    3.9853    1.0803 H   0  0  0  0  0  0  0  0  0  0  0  0
    2.1801    2.8737    0.2789 H   0  0  0  0  0  0  0  0  0  0  0  0
    1.4981    2.4132    1.8480 H   0  0  0  0  0  0  0  0  0  0  0  0
   -2.3986    2.7950   -0.9198 B   0  0  2  0  0  0  0  0  0  0  0  0
   -3.2428    3.6360   -1.1229 H   0  0  0  0  0  0  0  0  0  0  0  0
   -1.4083    2.8624    0.5631 B   0  0  2  0  0  0  0  0  0  0  0  0
   -1.4545    3.6667    1.4595 H   0  0  0  0  0  0  0  0  0  0  0  0
   -1.0142    1.0162    2.5123 C   0  0  0  0  0  0  0  0  0  0  0  0
   -1.8372    1.5589    3.0161 H   0  0  0  0  0  0  0  0  0  0  0  0
   -0.0464    1.3542    2.9247 H   0  0  0  0  0  0  0  0  0  0  0  0
   -1.0770   -0.0648    2.7428 H   0  0  0  0  0  0  0  0  0  0  0  0
   -2.6043    1.5999    0.3681 B   0  0  2  0  0  0  0  0  0  0  0  0
   -3.5227    1.5774    1.1495 H   0  0  0  0  0  0  0  0  0  0  0  0
   -4.3021   -1.0220    0.9301 C   0  0  0  0  0  0  0  0  0  0  0  0
   -4.8743   -1.9618    1.0448 H   0  0  0  0  0  0  0  0  0  0  0  0
   -4.7397   -0.3753    0.1476 H   0  0  0  0  0  0  0  0  0  0  0  0
   -4.2646   -0.4881    1.8952 H   0  0  0  0  0  0  0  0  0  0  0  0
   -2.6056    1.0786   -1.3363 B   0  0  1  0  0  0  0  0  0  0  0  0
   -3.6240    0.6634   -1.8503 H   0  0  0  0  0  0  0  0  0  0  0  0
   -2.9611   -2.3584   -1.0661 C   0  0  0  0  0  0  0  0  0  0  0  0
   -3.5490   -3.2597   -0.8124 H   0  0  0  0  0  0  0  0  0  0  0  0
   -1.9819   -2.6350   -1.4949 H   0  0  0  0  0  0  0  0  0  0  0  0
   -3.5180   -1.6717   -1.7289 H   0  0  0  0  0  0  0  0  0  0  0  0
   -1.3945    2.0600   -2.1943 B   0  0  1  0  0  0  0  0  0  0  0  0
   -1.5103    2.3844   -3.3542 H   0  0  0  0  0  0  0  0  0  0  0  0
   -0.6684    3.1669   -1.0052 B   0  0  2  0  0  0  0  0  0  0  0  0
   -0.2039    4.2597   -1.2241 H   0  0  0  0  0  0  0  0  0  0  0  0
    0.1362    2.2282    0.1590 C   0  0  1  0  0  0  0  0  0  0  0  0
   -1.0660    1.2347    1.0133 C   0  0  1  0  0  0  0  0  0  0  0  0
   -1.7429    0.1280   -0.1216 B   0  0  1  0  0  0  0  0  0  0  0  0
   -1.0062    0.3677   -1.7555 B   0  0  0  0  0  0  0  0  0  0  0  0
   -0.9628   -0.4763   -2.6233 H   0  0  0  0  0  0  0  0  0  0  0  0
    0.2098    1.6950   -1.5028 B   0  0  1  0  0  0  0  0  0  0  0  0
    1.2096    1.9146   -2.1451 H   0  0  0  0  0  0  0  0  0  0  0  0
  1 16  1  0  0  0  0
  2  3  1  0  0  0  0
  2  5  1  0  0  0  0
  4  2  1  0  0  0  0
  6  7  1  6  0  0  0
  6 14  1  0  0  0  0
  8 31  1  0  0  0  0
  8  9  1  1  0  0  0
 10 13  1  0  0  0  0
 10 12  1  0  0  0  0
 10 11  1  0  0  0  0
 14  8  1  0  0  0  0
 14 31  1  0  0  0  0
 14 15  1  1  0  0  0
 16 17  1  0  0  0  0
 16 19  1  0  0  0  0
 18 16  1  0  0  0  0
 20 21  1  6  0  0  0
 20  6  1  0  0  0  0
 20 32  1  0  0  0  0
 22 23  1  0  0  0  0
 22  1  1  0  0  0  0
 24 22  1  0  0  0  0
 25 22  1  0  0  0  0
 26 27  1  6  0  0  0
 26 35  1  0  0  0  0
 26 20  1  0  0  0  0
 26 28  1  0  0  0  0
 28 29  1  6  0  0  0
 28  6  1  0  0  0  0
 28 30  1  0  0  0  0
 30  8  1  0  0  0  0
 30  2  1  1  0  0  0
 31 10  1  1  0  0  0
 32  1  1  1  0  0  0
 32 31  1  0  0  0  0
 33 35  1  0  0  0  0
 33 32  1  0  0  0  0
 34 33  1  0  0  0  0
 35 36  1  6  0  0  0
 35 30  1  0  0  0  0
M  END
