37
q = 0.0, confidence = 0.828

 74 79  0  0  0  0  0  0  0  0999 V2000
    0.0082   -0.4377   -2.4187 P   0  0  0  0  0  4  0  0  0  0  0  0
   -2.1696   -0.4420   -0.4131 C   0  0  0  0  0  0  0  0  0  0  0  0
   -3.0927    0.6466   -0.5232 C   0  0  0  0  0  0  0  0  0  0  0  0
   -2.7001    1.9476   -0.9797 C   0  0  0  0  0  0  0  0  0  0  0  0
   -1.6852    2.1070   -1.3786 H   0  0  0  0  0  0  0  0  0  0  0  0
   -3.5687    3.0206   -1.0068 C   0  0  0  0  0  0  0  0  0  0  0  0
   -3.2053    3.9977   -1.3579 H   0  0  0  0  0  0  0  0  0  0  0  0
   -4.9208    2.8612   -0.5860 C   0  0  0  0  0  0  0  0  0  0  0  0
   -5.6052    3.7227   -0.5989 H   0  0  0  0  0  0  0  0  0  0  0  0
   -5.3681    1.6197   -0.1801 C   0  0  0  0  0  0  0  0  0  0  0  0
   -6.4155    1.4741    0.1278 H   0  0  0  0  0  0  0  0  0  0  0  0
   -4.4909    0.4857   -0.1474 C   0  0  0  0  0  0  0  0  0  0  0  0
   -4.9595   -0.7779    0.2499 C   0  0  0  0  0  0  0  0  0  0  0  0
   -6.0156   -0.8958    0.5413 H   0  0  0  0  0  0  0  0  0  0  0  0
   -4.1086   -1.8957    0.2701 C   0  0  0  0  0  0  0  0  0  0  0  0
   -4.5949   -3.1937    0.6402 C   0  0  0  0  0  0  0  0  0  0  0  0
   -5.6614   -3.2940    0.8964 H   0  0  0  0  0  0  0  0  0  0  0  0
   -3.7593   -4.2921    0.6746 C   0  0  0  0  0  0  0  0  0  0  0  0
   -4.1503   -5.2807    0.9589 H   0  0  0  0  0  0  0  0  0  0  0  0
   -2.3820   -4.1411    0.3331 C   0  0  0  0  0  0  0  0  0  0  0  0
   -1.7153   -5.0174    0.3469 H   0  0  0  0  0  0  0  0  0  0  0  0
   -1.8827   -2.9008   -0.0188 C   0  0  0  0  0  0  0  0  0  0  0  0
   -0.8268   -2.7877   -0.2874 H   0  0  0  0  0  0  0  0  0  0  0  0
   -2.7031   -1.7261   -0.0676 C   0  0  0  0  0  0  0  0  0  0  0  0
   -0.2081   -2.1747   -2.9790 C   0  0  0  0  0  0  0  0  0  0  0  0
    0.4661   -2.8307   -2.3950 H   0  0  0  0  0  0  0  0  0  0  0  0
    0.0402   -2.2557   -4.0558 H   0  0  0  0  0  0  0  0  0  0  0  0
   -1.2558   -2.4910   -2.8141 H   0  0  0  0  0  0  0  0  0  0  0  0
   -0.9812    0.5359   -3.6147 C   0  0  0  0  0  0  0  0  0  0  0  0
   -0.7206    1.6035   -3.4687 H   0  0  0  0  0  0  0  0  0  0  0  0
   -2.0592    0.3828   -3.4164 H   0  0  0  0  0  0  0  0  0  0  0  0
   -0.7395    0.2241   -4.6498 H   0  0  0  0  0  0  0  0  0  0  0  0
    1.7443   -0.0280   -2.8034 C   0  0  0  0  0  0  0  0  0  0  0  0
    1.9210    1.0169   -2.4773 H   0  0  0  0  0  0  0  0  0  0  0  0
    1.8966   -0.1112   -3.8975 H   0  0  0  0  0  0  0  0  0  0  0  0
    2.4258   -0.7161   -2.2726 H   0  0  0  0  0  0  0  0  0  0  0  0
   -0.5764   -0.2653   -0.5746 B   0  0  0  0  0  0  0  0  0  0  0  0
   -0.0082   -0.4376    2.4189 P   0  0  0  0  0  4  0  0  0  0  0  0
    2.1695   -0.4420    0.4132 C   0  0  0  0  0  0  0  0  0  0  0  0
    3.0927    0.6466    0.5231 C   0  0  0  0  0  0  0  0  0  0  0  0
    2.7001    1.9476    0.9796 C   0  0  0  0  0  0  0  0  0  0  0  0
    1.6853    2.1070    1.3785 H   0  0  0  0  0  0  0  0  0  0  0  0
    3.5688    3.0206    1.0066 C   0  0  0  0  0  0  0  0  0  0  0  0
    3.2054    3.9977    1.3576 H   0  0  0  0  0  0  0  0  0  0  0  0
    4.9208    2.8611    0.5857 C   0  0  0  0  0  0  0  0  0  0  0  0
    5.6053    3.7227    0.5986 H   0  0  0  0  0  0  0  0  0  0  0  0
    5.3682    1.6196    0.1799 C   0  0  0  0  0  0  0  0  0  0  0  0
    6.4155    1.4740   -0.1280 H   0  0  0  0  0  0  0  0  0  0  0  0
    4.4909    0.4856    0.1473 C   0  0  0  0  0  0  0  0  0  0  0  0
    4.9595   -0.7780   -0.2500 C   0  0  0  0  0  0  0  0  0  0  0  0
    6.0155   -0.8960   -0.5414 H   0  0  0  0  0  0  0  0  0  0  0  0
    4.1085   -1.8958   -0.2701 C   0  0  0  0  0  0  0  0  0  0  0  0
    4.5947   -3.1938   -0.6402 C   0  0  0  0  0  0  0  0  0  0  0  0
    5.6612   -3.2941   -0.8965 H   0  0  0  0  0  0  0  0  0  0  0  0
    3.7591   -4.2922   -0.6747 C   0  0  0  0  0  0  0  0  0  0  0  0
    4.1501   -5.2808   -0.9590 H   0  0  0  0  0  0  0  0  0  0  0  0
    2.3819   -4.1411   -0.3331 C   0  0  0  0  0  0  0  0  0  0  0  0
    1.7151   -5.0174   -0.3469 H   0  0  0  0  0  0  0  0  0  0  0  0
    1.8826   -2.9008    0.0188 C   0  0  0  0  0  0  0  0  0  0  0  0
    0.8267   -2.7877    0.2875 H   0  0  0  0  0  0  0  0  0  0  0  0
    2.7030   -1.7261    0.0676 C   0  0  0  0  0  0  0  0  0  0  0  0
    0.2082   -2.1744    2.9794 C   0  0  0  0  0  0  0  0  0  0  0  0
   -0.4660   -2.8306    2.3954 H   0  0  0  0  0  0  0  0  0  0  0  0
   -0.0401   -2.2554    4.0561 H   0  0  0  0  0  0  0  0  0  0  0  0
    1.2559   -2.4908    2.8144 H   0  0  0  0  0  0  0  0  0  0  0  0
    0.9813    0.5361    3.6147 C   0  0  0  0  0  0  0  0  0  0  0  0
    0.7207    1.6037    3.4687 H   0  0  0  0  0  0  0  0  0  0  0  0
    2.0593    0.3830    3.4165 H   0  0  0  0  0  0  0  0  0  0  0  0
    0.7396    0.2244    4.6499 H   0  0  0  0  0  0  0  0  0  0  0  0
   -1.7442   -0.0279    2.8037 C   0  0  0  0  0  0  0  0  0  0  0  0
   -1.9209    1.0170    2.4776 H   0  0  0  0  0  0  0  0  0  0  0  0
   -1.8964   -0.1109    3.8978 H   0  0  0  0  0  0  0  0  0  0  0  0
   -2.4257   -0.7160    2.2730 H   0  0  0  0  0  0  0  0  0  0  0  0
    0.5764   -0.2653    0.5747 B   0  0  0  0  0  0  0  0  0  0  0  0
  1 37  1  0  0  0  0
  2 24  1  0  0  0  0
  3  2  2  0  0  0  0
  3 12  1  0  0  0  0
  4  3  1  0  0  0  0
  5  4  1  0  0  0  0
  6  4  2  0  0  0  0
  6  8  1  0  0  0  0
  7  6  1  0  0  0  0
  8 10  2  0  0  0  0
  9  8  1  0  0  0  0
 10 12  1  0  0  0  0
 10 11  1  0  0  0  0
 12 13  2  0  0  0  0
 13 15  1  0  0  0  0
 13 14  1  0  0  0  0
 15 16  1  0  0  0  0
 16 18  2  0  0  0  0
 16 17  1  0  0  0  0
 18 19  1  0  0  0  0
 20 21  1  0  0  0  0
 20 18  1  0  0  0  0
 22 20  2  0  0  0  0
 23 22  1  0  0  0  0
 24 22  1  0  0  0  0
 24 15  2  0  0  0  0
 25 28  1  0  0  0  0
 25  1  1  0  0  0  0
 25 26  1  0  0  0  0
 27 25  1  0  0  0  0
 29 30  1  0  0  0  0
 29 31  1  0  0  0  0
 29  1  1  0  0  0  0
 32 29  1  0  0  0  0
 33 34  1  0  0  0  0
 33  1  1  0  0  0  0
 33 36  1  0  0  0  0
 35 33  1  0  0  0  0
 37  2  1  0  0  0  0
 37 74  1  0  0  0  0
 38 70  1  0  0  0  0
 38 62  1  0  0  0  0
 38 66  1  0  0  0  0
 39 40  1  0  0  0  0
 39 74  1  0  0  0  0
 40 41  1  0  0  0  0
 41 43  2  0  0  0  0
 41 42  1  0  0  0  0
 43 44  1  0  0  0  0
 45 46  1  0  0  0  0
 45 43  1  0  0  0  0
 47 45  2  0  0  0  0
 48 47  1  0  0  0  0
 49 47  1  0  0  0  0
 49 40  2  0  0  0  0
 50 49  1  0  0  0  0
 51 50  1  0  0  0  0
 52 50  2  0  0  0  0
 52 61  1  0  0  0  0
 53 52  1  0  0  0  0
 54 53  1  0  0  0  0
 55 53  2  0  0  0  0
 55 57  1  0  0  0  0
 56 55  1  0  0  0  0
 57 59  2  0  0  0  0
 58 57  1  0  0  0  0
 59 61  1  0  0  0  0
 59 60  1  0  0  0  0
 61 39  2  0  0  0  0
 62 64  1  0  0  0  0
 63 62  1  0  0  0  0
 65 62  1  0  0  0  0
 66 69  1  0  0  0  0
 67 66  1  0  0  0  0
 68 66  1  0  0  0  0
 70 72  1  0  0  0  0
 71 70  1  0  0  0  0
 73 70  1  0  0  0  0
 74 38  1  0  0  0  0
M  END
