8
q = -1.0, confidence = 0.0

 21 20  0  0  0  0  0  0  0  0999 V2000
   -2.3842   -1.4991    0.8177 Br  0  0  0  0  0  0  0  0  0  0  0  0
   -0.1801    1.6487    1.7341 N   0  0  0  0  0  0  0  0  0  0  0  0
   -2.5438    0.8081   -0.9878 N   0  0  0  0  0  0  0  0  0  0  0  0
    1.0364    2.1532    2.3496 C   0  0  0  0  0  0  0  0  0  0  0  0
   -1.3716    2.1086    2.4393 C   0  0  0  0  0  0  0  0  0  0  0  0
   -3.7090    0.2387   -1.6428 C   0  0  0  0  0  0  0  0  0  0  0  0
   -2.1405    2.0913   -1.5464 C   0  0  0  0  0  0  0  0  0  0  0  0
   -0.2820    0.7933    0.6102 B   0  0  0  0  0  2  0  0  0  0  0  0
   -1.7713    0.2227    0.0349 B   0  0  0  0  0  0  0  0  0  0  0  0
    1.9246    1.7877    1.8083 H   0  0  0  0  0  0  0  0  0  0  0  0
    1.1101    1.8255    3.4121 H   0  0  0  0  0  0  0  0  0  0  0  0
    1.0557    3.2663    2.3470 H   0  0  0  0  0  0  0  0  0  0  0  0
   -1.4302    3.2210    2.4448 H   0  0  0  0  0  0  0  0  0  0  0  0
   -3.9843   -0.7207   -1.1690 H   0  0  0  0  0  0  0  0  0  0  0  0
   -1.2359    2.4628   -1.0279 H   0  0  0  0  0  0  0  0  0  0  0  0
   -1.3661    1.7718    3.5010 H   0  0  0  0  0  0  0  0  0  0  0  0
   -2.2804    1.7095    1.9521 H   0  0  0  0  0  0  0  0  0  0  0  0
   -3.4999    0.0573   -2.7209 H   0  0  0  0  0  0  0  0  0  0  0  0
   -4.5779    0.9312   -1.5799 H   0  0  0  0  0  0  0  0  0  0  0  0
   -2.9478    2.8489   -1.4301 H   0  0  0  0  0  0  0  0  0  0  0  0
   -1.9120    1.9998   -2.6312 H   0  0  0  0  0  0  0  0  0  0  0  0
  2  4  1  0  0  0  0
  2  5  1  0  0  0  0
  3  9  1  0  0  0  0
  4 11  1  0  0  0  0
  5 13  1  0  0  0  0
  5 16  1  0  0  0  0
  6 19  1  0  0  0  0
  6 14  1  0  0  0  0
  6  3  1  0  0  0  0
  7 20  1  0  0  0  0
  7 15  1  0  0  0  0
  7  3  1  0  0  0  0
  8  2  1  0  0  0  0
  9  8  1  0  0  0  0
  9  1  1  0  0  0  0
 10  4  1  0  0  0  0
 12  4  1  0  0  0  0
 17  5  1  0  0  0  0
 18  6  1  0  0  0  0
 21  7  1  0  0  0  0
M  END
