1
q = -1.0, confidence = 0.006

  3  2  0  0  0  0  0  0  0  0999 V2000
   -1.7072   -0.4042   -0.0001 B   0  0  0  0  0  0  0  0  0  0  0  0
   -2.1215   -2.1521   -0.0005 Cl  0  0  0  0  0  0  0  0  0  0  0  0
   -3.1332    0.6559    0.0005 Cl  0  0  0  0  0  0  0  0  0  0  0  0
  1  3  1  0  0  0  0
  2  1  1  0  0  0  0
M  END
