7
q = 0.0, confidence = 0.566

 36 41  0  0  1  0  0  0  0  0999 V2000
   -1.9468   -0.0220    1.2536 C   0  0  2  0  0  0  0  0  0  0  0  0
   -2.5994    0.0416   -0.3591 C   0  0  1  0  0  0  0  0  0  0  0  0
   -0.9348   -1.4049    1.4353 B   0  0  0  0  0  0  0  0  0  0  0  0
   -2.6135   -1.3542    2.0713 B   0  0  1  0  0  0  0  0  0  0  0  0
   -3.6034   -0.4041    0.9781 B   0  0  1  0  0  0  0  0  0  0  0  0
   -2.1236   -1.2791   -1.3544 B   0  0  0  0  0  0  0  0  0  0  0  0
   -1.0074   -2.2864   -0.2432 B   0  0  0  0  0  2  0  0  0  0  0  0
   -2.0277   -2.7652    1.1656 B   0  0  0  0  0  0  0  0  0  0  0  0
   -3.6935   -2.1666    0.9199 B   0  0  1  0  0  0  0  0  0  0  0  0
   -3.7294   -1.2085   -0.5828 B   0  0  2  0  0  0  0  0  0  0  0  0
   -2.7459   -2.6853   -0.4980 B   0  0  1  0  0  0  0  0  0  0  0  0
   -1.7413    1.3473    1.8965 C   0  0  0  0  0  0  0  0  0  0  0  0
   -1.1163    2.2923    0.8870 C   0  0  0  0  0  0  0  0  0  0  0  0
   -0.0418    3.1294    1.2458 C   0  0  0  0  0  0  0  0  0  0  0  0
    0.5800    3.9551    0.3000 C   0  0  0  0  0  0  0  0  0  0  0  0
    0.1272    3.9593   -1.0316 C   0  0  0  0  0  0  0  0  0  0  0  0
   -0.9544    3.1497   -1.3997 C   0  0  0  0  0  0  0  0  0  0  0  0
   -1.5940    2.3131   -0.4594 C   0  0  0  0  0  0  0  0  0  0  0  0
   -2.7990    1.4703   -0.8530 C   0  0  0  0  0  0  0  0  0  0  0  0
   -0.0585   -1.4286    2.2683 H   0  0  0  0  0  0  0  0  0  0  0  0
   -2.7900   -1.2468    3.2621 H   0  0  0  0  0  0  0  0  0  0  0  0
   -4.4021    0.4203    1.3485 H   0  0  0  0  0  0  0  0  0  0  0  0
   -2.1178   -1.1655   -2.5591 H   0  0  0  0  0  0  0  0  0  0  0  0
   -0.1740   -3.0707   -0.6372 H   0  0  0  0  0  0  0  0  0  0  0  0
   -1.8192   -3.8266    1.7087 H   0  0  0  0  0  0  0  0  0  0  0  0
   -4.6745   -2.7588    1.3052 H   0  0  0  0  0  0  0  0  0  0  0  0
   -4.7065   -0.9798   -1.2561 H   0  0  0  0  0  0  0  0  0  0  0  0
   -3.0311   -3.6922   -1.1056 H   0  0  0  0  0  0  0  0  0  0  0  0
   -1.0618    1.2245    2.7615 H   0  0  0  0  0  0  0  0  0  0  0  0
   -2.7008    1.7481    2.2875 H   0  0  0  0  0  0  0  0  0  0  0  0
    0.3252    3.1082    2.2838 H   0  0  0  0  0  0  0  0  0  0  0  0
    1.4241    4.5943    0.5994 H   0  0  0  0  0  0  0  0  0  0  0  0
    0.6153    4.5996   -1.7813 H   0  0  0  0  0  0  0  0  0  0  0  0
   -1.3175    3.1528   -2.4393 H   0  0  0  0  0  0  0  0  0  0  0  0
   -3.7367    1.9002   -0.4405 H   0  0  0  0  0  0  0  0  0  0  0  0
   -2.8991    1.4485   -1.9543 H   0  0  0  0  0  0  0  0  0  0  0  0
  1  3  1  6  0  0  0
  1 12  1  0  0  0  0
  1  4  1  0  0  0  0
  2  6  1  1  0  0  0
  2  5  1  0  0  0  0
  3 20  1  0  0  0  0
  4 21  1  1  0  0  0
  5  1  1  0  0  0  0
  5 22  1  1  0  0  0
  5  4  1  0  0  0  0
  6 11  1  0  0  0  0
  7  8  1  0  0  0  0
  8  3  1  0  0  0  0
  8 25  1  0  0  0  0
  9 26  1  1  0  0  0
  9  4  1  0  0  0  0
 10 27  1  6  0  0  0
 10 11  1  0  0  0  0
 10  2  1  0  0  0  0
 10  9  1  0  0  0  0
 11 28  1  6  0  0  0
 11  9  1  0  0  0  0
 12 30  1  0  0  0  0
 12 29  1  0  0  0  0
 13 14  1  0  0  0  0
 13 12  1  0  0  0  0
 14 31  1  0  0  0  0
 15 32  1  0  0  0  0
 15 14  2  0  0  0  0
 16 15  1  0  0  0  0
 17 16  2  0  0  0  0
 17 18  1  0  0  0  0
 18 13  2  0  0  0  0
 19 18  1  0  0  0  0
 19 35  1  0  0  0  0
 19  2  1  0  0  0  0
 23  6  1  0  0  0  0
 24  7  1  0  0  0  0
 33 16  1  0  0  0  0
 34 17  1  0  0  0  0
 36 19  1  0  0  0  0
M  END
