4
q = 0.0, confidence = 0.692

 22 27  0  0  1  0  0  0  0  0999 V2000
    2.1454   -0.1423   -0.1283 C   0  0  2  0  0  0  0  0  0  0  0  0
    1.9050   -1.1318    1.1487 C   0  0  2  0  0  0  0  0  0  0  0  0
    1.3698   -0.6977    2.0121 H   0  0  0  0  0  0  0  0  0  0  0  0
    0.8369   -1.3155   -0.2131 B   0  0  0  0  0  1  0  0  0  0  0  0
    1.9936   -1.0146   -1.5744 B   0  0  2  0  0  0  0  0  0  0  0  0
    1.5724   -0.4384   -2.5468 H   0  0  0  0  0  0  0  0  0  0  0  0
    3.5982   -0.5681   -0.9326 B   0  0  1  0  0  0  0  0  0  0  0  0
    4.2717    0.2808   -1.4562 H   0  0  0  0  0  0  0  0  0  0  0  0
    3.4973   -0.5936    0.8397 B   0  0  2  0  0  0  0  0  0  0  0  0
    3.9890    0.2162    1.5821 H   0  0  0  0  0  0  0  0  0  0  0  0
    3.1242   -2.2716    1.3336 B   0  0  2  0  0  0  0  0  0  0  0  0
    3.4309   -2.5983    2.4529 H   0  0  0  0  0  0  0  0  0  0  0  0
    1.5147   -2.7073    0.6852 B   0  0  1  0  0  0  0  0  0  0  0  0
    0.7607   -3.3398    1.3815 H   0  0  0  0  0  0  0  0  0  0  0  0
    1.6017   -2.6767   -1.0910 B   0  0  1  0  0  0  0  0  0  0  0  0
    0.9231   -3.3981   -1.7856 H   0  0  0  0  0  0  0  0  0  0  0  0
    3.2863   -2.2191   -1.5352 B   0  0  0  0  0  0  0  0  0  0  0  0
    3.8027   -2.5975   -2.5610 H   0  0  0  0  0  0  0  0  0  0  0  0
    4.2252   -1.9666   -0.0296 B   0  0  1  0  0  0  0  0  0  0  0  0
    5.4123   -2.1743    0.0556 H   0  0  0  0  0  0  0  0  0  0  0  0
    2.9955   -3.2766   -0.1315 B   0  0  1  0  0  0  0  0  0  0  0  0
    3.3180   -4.4415   -0.1118 H   0  0  0  0  0  0  0  0  0  0  0  0
  1  9  1  0  0  0  0
  1  2  1  0  0  0  0
  2 11  1  0  0  0  0
  2  3  1  1  0  0  0
  5  6  1  6  0  0  0
  5 17  1  0  0  0  0
  5 15  1  0  0  0  0
  5  1  1  0  0  0  0
  7  8  1  6  0  0  0
  7  1  1  0  0  0  0
  7 19  1  0  0  0  0
  7  9  1  0  0  0  0
  9 10  1  1  0  0  0
 11 12  1  1  0  0  0
 13  2  1  0  0  0  0
 13 14  1  1  0  0  0
 15 16  1  6  0  0  0
 15  4  1  0  0  0  0
 15 13  1  0  0  0  0
 17 21  1  0  0  0  0
 18 17  1  0  0  0  0
 19 20  1  0  0  0  0
 19  9  1  0  0  0  0
 19 11  1  0  0  0  0
 21 22  1  6  0  0  0
 21 13  1  0  0  0  0
 21 11  1  0  0  0  0
M  END
