10
q = -1.0, confidence = 0.0

 44 49  0  0  1  0  0  0  0  0999 V2000
    2.9567   -0.8630   -0.2480 S   0  0  0  0  0  0  0  0  0  0  0  0
   -2.9571   -0.8614   -0.2487 S   0  0  0  0  0  0  0  0  0  0  0  0
   -0.0004   -1.6496    0.4906 C   0  0  2  0  0  0  0  0  0  0  0  0
   -0.0005   -2.3860   -0.3243 H   0  0  0  0  0  0  0  0  0  0  0  0
    1.4479   -0.7354    0.8256 B   0  0  0  0  0  0  0  0  0  0  0  0
    0.9006    0.8976    1.6080 B   0  0  2  0  0  0  0  0  0  0  0  0
    1.6354    1.8595    1.5518 H   0  0  0  0  0  0  0  0  0  0  0  0
   -0.9004    0.8980    1.6078 B   0  0  2  0  0  0  0  0  0  0  0  0
   -1.6346    1.8603    1.5514 H   0  0  0  0  0  0  0  0  0  0  0  0
   -1.4483   -0.7345    0.8253 B   0  0  0  0  0  2  0  0  0  0  0  0
   -0.8808   -2.0574    1.8768 B   0  0  1  0  0  0  0  0  0  0  0  0
   -1.5126   -3.0862    1.8529 H   0  0  0  0  0  0  0  0  0  0  0  0
    0.8793   -2.0579    1.8771 B   0  0  2  0  0  0  0  0  0  0  0  0
    1.5106   -3.0870    1.8532 H   0  0  0  0  0  0  0  0  0  0  0  0
    1.4436   -0.5087    2.5749 B   0  0  0  0  0  0  0  0  0  0  0  0
    2.4905   -0.4413    3.1732 H   0  0  0  0  0  0  0  0  0  0  0  0
   -0.0002    0.4318    3.0623 B   0  0  1  0  0  0  0  0  0  0  0  0
   -0.0001    1.1500    4.0375 H   0  0  0  0  0  0  0  0  0  0  0  0
   -1.4444   -0.5079    2.5746 B   0  0  0  0  0  0  0  0  0  0  0  0
   -2.4914   -0.4401    3.1727 H   0  0  0  0  0  0  0  0  0  0  0  0
   -0.0007   -1.3333    3.2397 B   0  0  1  0  0  0  0  0  0  0  0  0
   -0.0009   -1.8635    4.3267 H   0  0  0  0  0  0  0  0  0  0  0  0
    4.2612   -0.6023    0.9609 C   0  0  0  0  0  0  0  0  0  0  0  0
    4.7512    0.6899    1.2212 C   0  0  0  0  0  0  0  0  0  0  0  0
    4.3152    1.5523    0.6981 H   0  0  0  0  0  0  0  0  0  0  0  0
    5.7758    0.8684    2.1627 C   0  0  0  0  0  0  0  0  0  0  0  0
    6.1522    1.8814    2.3717 H   0  0  0  0  0  0  0  0  0  0  0  0
    6.3154   -0.2371    2.8393 C   0  0  0  0  0  0  0  0  0  0  0  0
    7.1169   -0.0931    3.5794 H   0  0  0  0  0  0  0  0  0  0  0  0
    5.8282   -1.5264    2.5718 C   0  0  0  0  0  0  0  0  0  0  0  0
    6.2453   -2.3962    3.1018 H   0  0  0  0  0  0  0  0  0  0  0  0
    4.8025   -1.7134    1.6334 C   0  0  0  0  0  0  0  0  0  0  0  0
    4.4046   -2.7173    1.4257 H   0  0  0  0  0  0  0  0  0  0  0  0
   -4.2617   -0.6013    0.9602 C   0  0  0  0  0  0  0  0  0  0  0  0
   -4.8032   -1.7127    1.6321 C   0  0  0  0  0  0  0  0  0  0  0  0
   -4.4052   -2.7165    1.4239 H   0  0  0  0  0  0  0  0  0  0  0  0
   -5.8289   -1.5263    2.5704 C   0  0  0  0  0  0  0  0  0  0  0  0
   -6.2461   -2.3963    3.0999 H   0  0  0  0  0  0  0  0  0  0  0  0
   -6.3161   -0.2371    2.8386 C   0  0  0  0  0  0  0  0  0  0  0  0
   -7.1177   -0.0934    3.5787 H   0  0  0  0  0  0  0  0  0  0  0  0
   -5.7763    0.8688    2.1627 C   0  0  0  0  0  0  0  0  0  0  0  0
   -6.1528    1.8817    2.3722 H   0  0  0  0  0  0  0  0  0  0  0  0
   -4.7517    0.6907    1.2212 C   0  0  0  0  0  0  0  0  0  0  0  0
   -4.3155    1.5535    0.6987 H   0  0  0  0  0  0  0  0  0  0  0  0
  1  5  1  0  0  0  0
  1 23  1  0  0  0  0
  2 10  1  0  0  0  0
  2 34  1  0  0  0  0
  3  4  1  6  0  0  0
  3  5  1  0  0  0  0
  3 11  1  0  0  0  0
  3 13  1  0  0  0  0
  5 15  1  0  0  0  0
  6  7  1  6  0  0  0
  6 15  1  0  0  0  0
  6 17  1  0  0  0  0
  8  9  1  6  0  0  0
  8  6  1  0  0  0  0
  8 19  1  0  0  0  0
  8 17  1  0  0  0  0
 10 19  1  0  0  0  0
 11 12  1  1  0  0  0
 11 13  1  0  0  0  0
 11 21  1  0  0  0  0
 13 14  1  1  0  0  0
 13 21  1  0  0  0  0
 15 16  1  0  0  0  0
 17 21  1  0  0  0  0
 17 18  1  1  0  0  0
 19 20  1  0  0  0  0
 21 22  1  1  0  0  0
 23 24  2  0  0  0  0
 23 32  1  0  0  0  0
 24 26  1  0  0  0  0
 25 24  1  0  0  0  0
 26 27  1  0  0  0  0
 26 28  2  0  0  0  0
 28 29  1  0  0  0  0
 30 28  1  0  0  0  0
 30 31  1  0  0  0  0
 32 30  2  0  0  0  0
 33 32  1  0  0  0  0
 34 43  2  0  0  0  0
 34 35  1  0  0  0  0
 35 37  2  0  0  0  0
 36 35  1  0  0  0  0
 37 39  1  0  0  0  0
 37 38  1  0  0  0  0
 39 40  1  0  0  0  0
 41 42  1  0  0  0  0
 41 39  2  0  0  0  0
 43 41  1  0  0  0  0
 44 43  1  0  0  0  0
M  END
