17
q = -2.0, confidence = 0.734

 18 18  0  0  0  0  0  0  0  0999 V2000
   -2.3325   -0.7319   -1.2206 B   0  0  1  0  0  0  0  0  0  0  0  0
   -2.1317   -0.9923   -2.3922 H   0  0  0  0  0  0  0  0  0  0  0  0
   -3.5038   -1.6542   -0.2645 B   0  0  1  0  0  0  0  0  0  0  0  0
   -4.1955   -2.5321   -0.7281 H   0  0  0  0  0  0  0  0  0  0  0  0
   -3.8510    0.0341   -0.7382 B   0  0  1  0  0  0  0  0  0  0  0  0
   -4.7527    0.2209   -1.5232 H   0  0  0  0  0  0  0  0  0  0  0  0
   -1.7567   -1.8873   -0.0005 B   0  0  0  0  0  0  0  0  0  0  0  0
   -1.2817   -2.9852   -0.1935 H   0  0  0  0  0  0  0  0  0  0  0  0
   -1.6579   -1.6324    1.3594 H   0  0  0  0  0  0  0  0  0  0  0  0
   -2.9628   -1.8665    1.3762 B   0  0  0  0  0  0  0  0  0  0  0  0
   -3.2438   -2.8467    2.0274 H   0  0  0  0  0  0  0  0  0  0  0  0
   -3.1481   -0.8388    2.1024 H   0  0  0  0  0  0  0  0  0  0  0  0
   -3.5563    0.7979    1.6672 H   0  0  0  0  0  0  0  0  0  0  0  0
   -3.6521    1.2504    0.4840 B   0  0  0  0  0  0  0  0  0  0  0  0
   -4.3843    2.2122    0.5133 H   0  0  0  0  0  0  0  0  0  0  0  0
   -2.3678    1.5780    0.4905 H   0  0  0  0  0  0  0  0  0  0  0  0
   -2.3369    1.0027   -0.7630 B   0  0  0  0  0  2  0  0  0  0  0  0
   -2.2287    1.9079   -1.5595 H   0  0  0  0  0  0  0  0  0  0  0  0
  1  2  1  6  0  0  0
  1  5  1  0  0  0  0
  1  3  1  0  0  0  0
  1  7  1  0  0  0  0
  3  4  1  6  0  0  0
  3  7  1  0  0  0  0
  3 10  1  0  0  0  0
  5  6  1  6  0  0  0
  5 14  1  0  0  0  0
  8  7  1  0  0  0  0
  9 10  1  0  0  0  0
 10 11  1  0  0  0  0
 10 12  1  0  0  0  0
 14 16  1  0  0  0  0
 14 15  1  0  0  0  0
 14 13  1  0  0  0  0
 17  5  1  0  0  0  0
 18 17  1  0  0  0  0
M  END
