39
q = -2.0, confidence = 0.774

 72 83  0  0  1  0  0  0  0  0999 V2000
   -6.5600   -0.0000    0.0000 O   0  0  0  0  0  0  0  0  0  0  0  0
   -4.6135    0.8637   -0.8600 N   0  0  0  0  0  0  0  0  0  0  0  0
   -4.6135   -0.8637    0.8600 N   0  0  0  0  0  0  0  0  0  0  0  0
    1.6248    1.4504    1.3792 C   0  0  1  0  0  0  0  0  0  0  0  0
    1.0083    1.7838   -0.0673 C   0  0  2  0  0  0  0  0  0  0  0  0
   -0.4635    1.5951   -0.3071 C   0  0  0  0  0  0  0  0  0  0  0  0
   -1.0120    1.5669   -1.6043 C   0  0  0  0  0  0  0  0  0  0  0  0
   -2.3903    1.3979   -1.8032 C   0  0  0  0  0  0  0  0  0  0  0  0
   -3.2639    1.2612   -0.7016 C   0  0  0  0  0  0  0  0  0  0  0  0
   -2.7378    1.4573    0.5893 C   0  0  0  0  0  0  0  0  0  0  0  0
   -1.3659    1.5823    0.7779 C   0  0  0  0  0  0  0  0  0  0  0  0
   -5.3453    1.3590   -2.0204 C   0  0  0  0  0  0  0  0  0  0  0  0
   -5.3253    0.0000    0.0000 C   0  0  0  0  0  0  0  0  0  0  0  0
   -5.3453   -1.3590    2.0203 C   0  0  0  0  0  0  0  0  0  0  0  0
   -3.2639   -1.2612    0.7016 C   0  0  0  0  0  0  0  0  0  0  0  0
   -2.3903   -1.3980    1.8032 C   0  0  0  0  0  0  0  0  0  0  0  0
   -1.0120   -1.5670    1.6043 C   0  0  0  0  0  0  0  0  0  0  0  0
   -0.4635   -1.5951    0.3071 C   0  0  0  0  0  0  0  0  0  0  0  0
   -1.3659   -1.5823   -0.7779 C   0  0  0  0  0  0  0  0  0  0  0  0
   -2.7378   -1.4572   -0.5893 C   0  0  0  0  0  0  0  0  0  0  0  0
    1.0083   -1.7838    0.0673 C   0  0  1  0  0  0  0  0  0  0  0  0
    1.6248   -1.4504   -1.3792 C   0  0  2  0  0  0  0  0  0  0  0  0
    2.2505    1.7103   -1.2366 B   0  0  0  0  0  0  0  0  0  0  0  0
    3.2999    1.1396    1.3859 B   0  0  0  0  0  0  0  0  0  0  0  0
    1.6277    3.2828   -0.6419 B   0  0  2  0  0  0  0  0  0  0  0  0
    3.3680    3.0347   -0.8022 B   0  0  1  0  0  0  0  0  0  0  0  0
    4.0198    2.6766    0.8378 B   0  0  1  0  0  0  0  0  0  0  0  0
    2.7255    3.8770    0.6297 B   0  0  2  0  0  0  0  0  0  0  0  0
    2.6389    2.6964    1.9612 B   0  0  1  0  0  0  0  0  0  0  0  0
    1.2046    3.1029    1.0594 B   0  0  2  0  0  0  0  0  0  0  0  0
    2.2505   -1.7104    1.2366 B   0  0  0  0  0  0  0  0  0  0  0  0
    3.3679   -3.0347    0.8022 B   0  0  1  0  0  0  0  0  0  0  0  0
    1.6277   -3.2828    0.6419 B   0  0  2  0  0  0  0  0  0  0  0  0
    1.2045   -3.1029   -1.0594 B   0  0  2  0  0  0  0  0  0  0  0  0
    2.7254   -3.8770   -0.6297 B   0  0  1  0  0  0  0  0  0  0  0  0
    2.6389   -2.6964   -1.9612 B   0  0  2  0  0  0  0  0  0  0  0  0
    4.0198   -2.6766   -0.8378 B   0  0  1  0  0  0  0  0  0  0  0  0
    3.2999   -1.1396   -1.3859 B   0  0  2  0  0  0  0  0  0  0  0  0
    3.8055   -1.3610    0.3502 B   0  0  0  0  0  2  0  0  0  0  0  0
    1.9778    1.4458   -2.3887 H   0  0  0  0  0  0  0  0  0  0  0  0
    3.7897    0.5249    2.2995 H   0  0  0  0  0  0  0  0  0  0  0  0
    5.1293    3.0092    1.1970 H   0  0  0  0  0  0  0  0  0  0  0  0
    4.0061    3.6256   -1.6477 H   0  0  0  0  0  0  0  0  0  0  0  0
    2.6563    2.9301    3.1479 H   0  0  0  0  0  0  0  0  0  0  0  0
    2.8645    5.0631    0.8388 H   0  0  0  0  0  0  0  0  0  0  0  0
    0.2093    3.5674    1.5523 H   0  0  0  0  0  0  0  0  0  0  0  0
    0.9015    3.9435   -1.3483 H   0  0  0  0  0  0  0  0  0  0  0  0
    0.9599    0.9673    2.1084 H   0  0  0  0  0  0  0  0  0  0  0  0
   -0.3388    1.6474   -2.4697 H   0  0  0  0  0  0  0  0  0  0  0  0
   -2.7753    1.2986   -2.8281 H   0  0  0  0  0  0  0  0  0  0  0  0
   -3.4102    1.4366    1.4577 H   0  0  0  0  0  0  0  0  0  0  0  0
   -0.9918    1.6799    1.8043 H   0  0  0  0  0  0  0  0  0  0  0  0
   -5.0927    2.4226   -2.1962 H   0  0  0  0  0  0  0  0  0  0  0  0
   -5.1050    0.7831   -2.9425 H   0  0  0  0  0  0  0  0  0  0  0  0
   -6.4245    1.2609   -1.8088 H   0  0  0  0  0  0  0  0  0  0  0  0
   -5.1051   -0.7831    2.9425 H   0  0  0  0  0  0  0  0  0  0  0  0
   -6.4245   -1.2609    1.8088 H   0  0  0  0  0  0  0  0  0  0  0  0
   -5.0927   -2.4226    2.1962 H   0  0  0  0  0  0  0  0  0  0  0  0
   -2.7753   -1.2986    2.8281 H   0  0  0  0  0  0  0  0  0  0  0  0
   -0.3388   -1.6475    2.4697 H   0  0  0  0  0  0  0  0  0  0  0  0
   -0.9918   -1.6799   -1.8043 H   0  0  0  0  0  0  0  0  0  0  0  0
   -3.4102   -1.4365   -1.4577 H   0  0  0  0  0  0  0  0  0  0  0  0
    1.9778   -1.4458    2.3887 H   0  0  0  0  0  0  0  0  0  0  0  0
    4.8289   -0.9564    0.8429 H   0  0  0  0  0  0  0  0  0  0  0  0
    3.7897   -0.5249   -2.2995 H   0  0  0  0  0  0  0  0  0  0  0  0
    0.9599   -0.9673   -2.1083 H   0  0  0  0  0  0  0  0  0  0  0  0
    0.9015   -3.9435    1.3483 H   0  0  0  0  0  0  0  0  0  0  0  0
    0.2093   -3.5674   -1.5523 H   0  0  0  0  0  0  0  0  0  0  0  0
    2.6563   -2.9301   -3.1479 H   0  0  0  0  0  0  0  0  0  0  0  0
    2.8644   -5.0631   -0.8388 H   0  0  0  0  0  0  0  0  0  0  0  0
    5.1293   -3.0092   -1.1970 H   0  0  0  0  0  0  0  0  0  0  0  0
    4.0061   -3.6256    1.6477 H   0  0  0  0  0  0  0  0  0  0  0  0
  2  9  1  0  0  0  0
  2 13  1  0  0  0  0
  3 14  1  0  0  0  0
  4 24  1  0  0  0  0
  4 29  1  0  0  0  0
  4 48  1  1  0  0  0
  5  6  1  6  0  0  0
  5  4  1  0  0  0  0
  6 11  1  0  0  0  0
  7  6  2  0  0  0  0
  8  7  1  0  0  0  0
  8  9  2  0  0  0  0
  9 10  1  0  0  0  0
 10 11  2  0  0  0  0
 10 51  1  0  0  0  0
 11 52  1  0  0  0  0
 12 55  1  0  0  0  0
 12  2  1  0  0  0  0
 13  1  2  0  0  0  0
 13  3  1  0  0  0  0
 14 58  1  0  0  0  0
 14 56  1  0  0  0  0
 15  3  1  0  0  0  0
 15 16  1  0  0  0  0
 16 59  1  0  0  0  0
 17 16  2  0  0  0  0
 17 60  1  0  0  0  0
 18 17  1  0  0  0  0
 19 20  1  0  0  0  0
 19 18  2  0  0  0  0
 20 15  2  0  0  0  0
 21 18  1  1  0  0  0
 21 33  1  0  0  0  0
 21 31  1  0  0  0  0
 22 66  1  6  0  0  0
 22 21  1  0  0  0  0
 23 26  1  0  0  0  0
 23  5  1  0  0  0  0
 24 41  1  0  0  0  0
 25 47  1  6  0  0  0
 25  5  1  0  0  0  0
 25 30  1  0  0  0  0
 26 43  1  6  0  0  0
 26 25  1  0  0  0  0
 26 28  1  0  0  0  0
 27 42  1  1  0  0  0
 27 24  1  0  0  0  0
 27 29  1  0  0  0  0
 28 27  1  0  0  0  0
 28 45  1  1  0  0  0
 28 30  1  0  0  0  0
 29 44  1  1  0  0  0
 30 46  1  1  0  0  0
 30 29  1  0  0  0  0
 31 63  1  0  0  0  0
 32 31  1  0  0  0  0
 32 72  1  1  0  0  0
 33 32  1  0  0  0  0
 33 67  1  1  0  0  0
 34 68  1  6  0  0  0
 34 35  1  0  0  0  0
 34 33  1  0  0  0  0
 35 70  1  6  0  0  0
 35 32  1  0  0  0  0
 36 69  1  6  0  0  0
 36 22  1  0  0  0  0
 36 34  1  0  0  0  0
 36 37  1  0  0  0  0
 37 71  1  6  0  0  0
 37 35  1  0  0  0  0
 38 65  1  6  0  0  0
 38 22  1  0  0  0  0
 38 37  1  0  0  0  0
 38 39  1  0  0  0  0
 39 64  1  0  0  0  0
 40 23  1  0  0  0  0
 49  7  1  0  0  0  0
 50  8  1  0  0  0  0
 53 12  1  0  0  0  0
 54 12  1  0  0  0  0
 57 14  1  0  0  0  0
 61 19  1  0  0  0  0
 62 20  1  0  0  0  0
M  END
