6
q = -2.0, confidence = 0.69

 34 37  0  0  1  0  0  0  0  0999 V2000
   -3.9562   -1.1815    0.0705 N   0  3  0  0  0  0  0  0  0  0  0  0
   -3.1288    0.1446    0.0243 C   0  0  1  0  0  0  0  0  0  0  0  0
   -2.2489    0.6634   -1.4060 B   0  0  0  0  0  0  0  0  0  0  0  0
   -3.8231    1.3883   -0.9076 B   0  0  1  0  0  0  0  0  0  0  0  0
   -3.8255    1.4411    0.8609 B   0  0  2  0  0  0  0  0  0  0  0  0
   -2.2560    0.7541    1.4241 B   0  0  0  0  0  2  0  0  0  0  0  0
   -0.9225    1.8457   -0.9605 B   0  0  2  0  0  0  0  0  0  0  0  0
   -2.5209    2.4194   -1.5030 B   0  0  1  0  0  0  0  0  0  0  0  0
   -3.4722    2.9121   -0.0694 B   0  0  0  0  0  2  0  0  0  0  0  0
   -2.5006    2.5035    1.3755 B   0  0  1  0  0  0  0  0  0  0  0  0
   -0.9071    1.8953    0.8374 B   0  0  2  0  0  0  0  0  0  0  0  0
   -1.7217    3.1769   -0.0958 B   0  0  1  0  0  0  0  0  0  0  0  0
   -3.4712   -2.1457   -0.9773 C   0  0  0  0  0  0  0  0  0  0  0  0
   -3.8088   -1.8255    1.4246 C   0  0  0  0  0  0  0  0  0  0  0  0
   -5.4309   -0.9752   -0.1641 C   0  0  0  0  0  0  0  0  0  0  0  0
   -2.1905   -0.0580   -2.3831 H   0  0  0  0  0  0  0  0  0  0  0  0
   -4.8059    1.1522   -1.5663 H   0  0  0  0  0  0  0  0  0  0  0  0
   -4.8102    1.2340    1.5355 H   0  0  0  0  0  0  0  0  0  0  0  0
   -2.2055    0.1347    2.4635 H   0  0  0  0  0  0  0  0  0  0  0  0
    0.0076    2.0302   -1.7127 H   0  0  0  0  0  0  0  0  0  0  0  0
   -2.6448    2.9552   -2.5826 H   0  0  0  0  0  0  0  0  0  0  0  0
   -4.2731    3.8200   -0.0869 H   0  0  0  0  0  0  0  0  0  0  0  0
   -2.5935    3.1094    2.4208 H   0  0  0  0  0  0  0  0  0  0  0  0
    0.0385    2.1026    1.5686 H   0  0  0  0  0  0  0  0  0  0  0  0
   -1.2715    4.3015   -0.1223 H   0  0  0  0  0  0  0  0  0  0  0  0
   -2.4126   -2.3874   -0.7684 H   0  0  0  0  0  0  0  0  0  0  0  0
   -4.0932   -3.0566   -0.9096 H   0  0  0  0  0  0  0  0  0  0  0  0
   -3.5806   -1.6732   -1.9666 H   0  0  0  0  0  0  0  0  0  0  0  0
   -4.3919   -2.7642    1.4140 H   0  0  0  0  0  0  0  0  0  0  0  0
   -4.2038   -1.1323    2.1851 H   0  0  0  0  0  0  0  0  0  0  0  0
   -2.7378   -2.0403    1.5934 H   0  0  0  0  0  0  0  0  0  0  0  0
   -5.7999   -0.2032    0.5300 H   0  0  0  0  0  0  0  0  0  0  0  0
   -5.5941   -0.6510   -1.2021 H   0  0  0  0  0  0  0  0  0  0  0  0
   -5.9322   -1.9412    0.0234 H   0  0  0  0  0  0  0  0  0  0  0  0
  1 14  1  0  0  0  0
  2  1  1  1  0  0  0
  2  5  1  0  0  0  0
  3  2  1  0  0  0  0
  4 17  1  6  0  0  0
  4  2  1  0  0  0  0
  4  5  1  0  0  0  0
  5 10  1  0  0  0  0
  5 18  1  1  0  0  0
  6 19  1  0  0  0  0
  7 20  1  6  0  0  0
  7 12  1  0  0  0  0
  7 11  1  0  0  0  0
  8 21  1  6  0  0  0
  8  3  1  0  0  0  0
  8  7  1  0  0  0  0
  8  4  1  0  0  0  0
 10  6  1  0  0  0  0
 10 23  1  1  0  0  0
 11 10  1  0  0  0  0
 11 24  1  1  0  0  0
 12 25  1  6  0  0  0
 12  9  1  0  0  0  0
 12 11  1  0  0  0  0
 13 27  1  0  0  0  0
 13 26  1  0  0  0  0
 13  1  1  0  0  0  0
 14 31  1  0  0  0  0
 14 30  1  0  0  0  0
 15 34  1  0  0  0  0
 15  1  1  0  0  0  0
 15 32  1  0  0  0  0
 16  3  1  0  0  0  0
 22  9  1  0  0  0  0
 28 13  1  0  0  0  0
 29 14  1  0  0  0  0
 33 15  1  0  0  0  0
M  CHG  1   1   1
M  END
