17
q = nan, confidence = 0.0

 41 43  0  0  0  0  0  0  0  0999 V2000
    1.2349   -0.0035   -0.0318 Si  0  0  0  0  0  0  0  0  0  0  0  0
    1.8962    2.1422   -0.7857 Si  0  0  0  0  0  0  0  0  0  0  0  0
    2.0383   -1.7553   -1.4054 Si  0  0  0  0  0  0  0  0  0  0  0  0
    1.8102   -0.3351    2.2461 Si  0  0  0  0  0  0  0  0  0  0  0  0
    1.0824   -3.3520   -1.0536 C   0  0  0  0  0  0  0  0  0  0  0  0
    1.5385   -4.1991   -1.6084 H   0  0  0  0  0  0  0  0  0  0  0  0
    0.0270   -3.2594   -1.3791 H   0  0  0  0  0  0  0  0  0  0  0  0
    1.0905   -3.6035    0.0256 H   0  0  0  0  0  0  0  0  0  0  0  0
    3.7727    2.1143   -1.0763 C   0  0  0  0  0  0  0  0  0  0  0  0
    4.1308    3.1207   -1.3800 H   0  0  0  0  0  0  0  0  0  0  0  0
    4.0374    1.4019   -1.8843 H   0  0  0  0  0  0  0  0  0  0  0  0
    4.3226    1.8145   -0.1617 H   0  0  0  0  0  0  0  0  0  0  0  0
    1.6686   -2.1760    2.6738 C   0  0  0  0  0  0  0  0  0  0  0  0
    1.9426   -2.3417    3.7373 H   0  0  0  0  0  0  0  0  0  0  0  0
    2.3416   -2.7959    2.0477 H   0  0  0  0  0  0  0  0  0  0  0  0
    0.6286   -2.5318    2.5294 H   0  0  0  0  0  0  0  0  0  0  0  0
   -0.7317   -0.0139   -0.1016 B   0  0  0  0  0  1  0  0  0  0  0  0
    1.0157    2.5685   -2.4080 C   0  0  0  0  0  0  0  0  0  0  0  0
    1.3689    3.5519   -2.7845 H   0  0  0  0  0  0  0  0  0  0  0  0
   -0.0831    2.6264   -2.2774 H   0  0  0  0  0  0  0  0  0  0  0  0
    1.2231    1.8093   -3.1887 H   0  0  0  0  0  0  0  0  0  0  0  0
    1.4603    3.4159    0.5498 C   0  0  0  0  0  0  0  0  0  0  0  0
    1.7199    4.4401    0.2080 H   0  0  0  0  0  0  0  0  0  0  0  0
    2.0172    3.2190    1.4885 H   0  0  0  0  0  0  0  0  0  0  0  0
    0.3771    3.3954    0.7867 H   0  0  0  0  0  0  0  0  0  0  0  0
    0.6579    0.6642    3.3696 C   0  0  0  0  0  0  0  0  0  0  0  0
    1.0137    0.6121    4.4203 H   0  0  0  0  0  0  0  0  0  0  0  0
   -0.3719    0.2559    3.3399 H   0  0  0  0  0  0  0  0  0  0  0  0
    0.6097    1.7304    3.0726 H   0  0  0  0  0  0  0  0  0  0  0  0
    3.8791   -1.9947   -1.0049 C   0  0  0  0  0  0  0  0  0  0  0  0
    4.3199   -2.7767   -1.6587 H   0  0  0  0  0  0  0  0  0  0  0  0
    4.0193   -2.3135    0.0483 H   0  0  0  0  0  0  0  0  0  0  0  0
    4.4505   -1.0566   -1.1560 H   0  0  0  0  0  0  0  0  0  0  0  0
    3.6037    0.2462    2.4755 C   0  0  0  0  0  0  0  0  0  0  0  0
    3.9412    0.0496    3.5151 H   0  0  0  0  0  0  0  0  0  0  0  0
    3.6988    1.3349    2.2868 H   0  0  0  0  0  0  0  0  0  0  0  0
    4.2909   -0.2825    1.7843 H   0  0  0  0  0  0  0  0  0  0  0  0
    1.8245   -1.2680   -3.2249 C   0  0  0  0  0  0  0  0  0  0  0  0
    2.1772   -2.0850   -3.8893 H   0  0  0  0  0  0  0  0  0  0  0  0
    2.4024   -0.3541   -3.4703 H   0  0  0  0  0  0  0  0  0  0  0  0
    0.7574   -1.0745   -3.4571 H   0  0  0  0  0  0  0  0  0  0  0  0
  1  4  1  0  0  0  0
  1 30  1  0  0  0  0
  1 34  1  0  0  0  0
  1  9  1  0  0  0  0
  2  1  1  0  0  0  0
  2 22  1  0  0  0  0
  3  5  1  0  0  0  0
  3 30  1  0  0  0  0
  3  1  1  0  0  0  0
  4 34  1  0  0  0  0
  4 13  1  0  0  0  0
  4 26  1  0  0  0  0
  5  8  1  0  0  0  0
  6  5  1  0  0  0  0
  7  5  1  0  0  0  0
  9  2  1  0  0  0  0
  9 12  1  0  0  0  0
 10  9  1  0  0  0  0
 11  9  1  0  0  0  0
 13 14  1  0  0  0  0
 15 13  1  0  0  0  0
 16 13  1  0  0  0  0
 17  1  1  0  0  0  0
 18 20  1  0  0  0  0
 18  2  1  0  0  0  0
 19 18  1  0  0  0  0
 21 18  1  0  0  0  0
 22 25  1  0  0  0  0
 22 24  1  0  0  0  0
 23 22  1  0  0  0  0
 26 27  1  0  0  0  0
 28 26  1  0  0  0  0
 29 26  1  0  0  0  0
 30 32  1  0  0  0  0
 31 30  1  0  0  0  0
 33 30  1  0  0  0  0
 34 35  1  0  0  0  0
 36 34  1  0  0  0  0
 37 34  1  0  0  0  0
 38  3  1  0  0  0  0
 39 38  1  0  0  0  0
 40 38  1  0  0  0  0
 41 38  1  0  0  0  0
M  ZBO  3   2   0   3   0   4   0
M  END
