1
q = -1.0, confidence = 0.0

 25 25  0  0  0  0  0  0  0  0999 V2000
   -0.9160    0.5934   -0.4878 B   0  0  0  0  0  2  0  0  0  0  0  0
   -0.9711    2.1343   -1.7307 Br  0  0  0  0  0  0  0  0  0  0  0  0
   -2.3502    0.1139   -0.0430 C   0  0  0  0  0  0  0  0  0  0  0  0
   -3.0462   -0.8264   -0.8492 C   0  0  0  0  0  0  0  0  0  0  0  0
   -4.2983   -1.3300   -0.4198 C   0  0  0  0  0  0  0  0  0  0  0  0
   -4.8342   -0.8723    0.7953 C   0  0  0  0  0  0  0  0  0  0  0  0
   -5.8076   -1.2680    1.1301 H   0  0  0  0  0  0  0  0  0  0  0  0
   -4.1833    0.0873    1.5877 C   0  0  0  0  0  0  0  0  0  0  0  0
   -2.9318    0.5922    1.1588 C   0  0  0  0  0  0  0  0  0  0  0  0
   -2.4888   -1.2827   -2.1775 C   0  0  0  0  0  0  0  0  0  0  0  0
   -2.4206   -2.3887   -2.2407 H   0  0  0  0  0  0  0  0  0  0  0  0
   -1.4808   -0.8721   -2.3779 H   0  0  0  0  0  0  0  0  0  0  0  0
   -3.1390   -0.9551   -3.0168 H   0  0  0  0  0  0  0  0  0  0  0  0
   -5.0502   -2.3352   -1.2549 C   0  0  0  0  0  0  0  0  0  0  0  0
   -6.0083   -2.6193   -0.7784 H   0  0  0  0  0  0  0  0  0  0  0  0
   -4.4604   -3.2641   -1.4103 H   0  0  0  0  0  0  0  0  0  0  0  0
   -5.2794   -1.9411   -2.2680 H   0  0  0  0  0  0  0  0  0  0  0  0
   -4.8134    0.5810    2.8652 C   0  0  0  0  0  0  0  0  0  0  0  0
   -5.7765    0.0723    3.0637 H   0  0  0  0  0  0  0  0  0  0  0  0
   -5.0090    1.6744    2.8312 H   0  0  0  0  0  0  0  0  0  0  0  0
   -4.1530    0.4136    3.7427 H   0  0  0  0  0  0  0  0  0  0  0  0
   -2.2494    1.6664    1.9688 C   0  0  0  0  0  0  0  0  0  0  0  0
   -1.2947    1.9851    1.5117 H   0  0  0  0  0  0  0  0  0  0  0  0
   -2.0316    1.3388    3.0068 H   0  0  0  0  0  0  0  0  0  0  0  0
   -2.8855    2.5738    2.0488 H   0  0  0  0  0  0  0  0  0  0  0  0
  1  3  1  0  0  0  0
  2  1  1  0  0  0  0
  3  9  1  0  0  0  0
  4  5  1  0  0  0  0
  4  3  2  0  0  0  0
  5  6  2  0  0  0  0
  6  7  1  0  0  0  0
  6  8  1  0  0  0  0
  8 18  1  0  0  0  0
  9  8  2  0  0  0  0
  9 22  1  0  0  0  0
 10  4  1  0  0  0  0
 11 10  1  0  0  0  0
 12 10  1  0  0  0  0
 13 10  1  0  0  0  0
 14 15  1  0  0  0  0
 14  5  1  0  0  0  0
 16 14  1  0  0  0  0
 17 14  1  0  0  0  0
 18 19  1  0  0  0  0
 18 21  1  0  0  0  0
 20 18  1  0  0  0  0
 22 25  1  0  0  0  0
 22 24  1  0  0  0  0
 23 22  1  0  0  0  0
M  END
