37
q = -1.0, confidence = 0.002

 37 38  0  0  0  0  0  0  0  0999 V2000
    0.0543   -2.6445   -0.1106 Cl  0  0  0  0  0  0  0  0  0  0  0  0
    0.8931    0.0086    0.0202 N   0  0  0  0  0  0  0  0  0  0  0  0
    0.7206    1.4744    0.0112 C   0  0  0  0  0  0  0  0  0  0  0  0
   -0.3724    1.6387    0.0145 H   0  0  0  0  0  0  0  0  0  0  0  0
    1.2770    2.1640    1.2689 C   0  0  0  0  0  0  0  0  0  0  0  0
    0.8413    1.6813    2.1668 H   0  0  0  0  0  0  0  0  0  0  0  0
    2.3791    2.0204    1.3257 H   0  0  0  0  0  0  0  0  0  0  0  0
    0.9623    3.6657    1.2551 C   0  0  0  0  0  0  0  0  0  0  0  0
   -0.1398    3.8003    1.3285 H   0  0  0  0  0  0  0  0  0  0  0  0
    1.3941    4.1542    2.1533 H   0  0  0  0  0  0  0  0  0  0  0  0
    1.4759    4.3384   -0.0239 C   0  0  0  0  0  0  0  0  0  0  0  0
    1.2095    5.4161   -0.0311 H   0  0  0  0  0  0  0  0  0  0  0  0
    2.5884    4.2914   -0.0415 H   0  0  0  0  0  0  0  0  0  0  0  0
    0.9273    3.6442   -1.2769 C   0  0  0  0  0  0  0  0  0  0  0  0
    1.3296    4.1182   -2.1965 H   0  0  0  0  0  0  0  0  0  0  0  0
   -0.1776    3.7838   -1.3132 H   0  0  0  0  0  0  0  0  0  0  0  0
    1.2456    2.1423   -1.2732 C   0  0  0  0  0  0  0  0  0  0  0  0
    0.7973    1.6410   -2.1572 H   0  0  0  0  0  0  0  0  0  0  0  0
    2.3465    2.0047   -1.3568 H   0  0  0  0  0  0  0  0  0  0  0  0
    2.3161   -0.4182   -0.0181 C   0  0  0  0  0  0  0  0  0  0  0  0
    2.9076    0.5218    0.0164 H   0  0  0  0  0  0  0  0  0  0  0  0
    2.7547   -1.2172    1.2216 C   0  0  0  0  0  0  0  0  0  0  0  0
    2.4803   -0.6468    2.1333 H   0  0  0  0  0  0  0  0  0  0  0  0
    2.1971   -2.1741    1.2615 H   0  0  0  0  0  0  0  0  0  0  0  0
    4.2631   -1.4965    1.1845 C   0  0  0  0  0  0  0  0  0  0  0  0
    4.8205   -0.5352    1.2678 H   0  0  0  0  0  0  0  0  0  0  0  0
    4.5584   -2.1028    2.0661 H   0  0  0  0  0  0  0  0  0  0  0  0
    4.6731   -2.2000   -0.1160 C   0  0  0  0  0  0  0  0  0  0  0  0
    4.1942   -3.2040   -0.1539 H   0  0  0  0  0  0  0  0  0  0  0  0
    5.7697   -2.3736   -0.1341 H   0  0  0  0  0  0  0  0  0  0  0  0
    4.2389   -1.3901   -1.3447 C   0  0  0  0  0  0  0  0  0  0  0  0
    4.5178   -1.9192   -2.2799 H   0  0  0  0  0  0  0  0  0  0  0  0
    4.7938   -0.4239   -1.3569 H   0  0  0  0  0  0  0  0  0  0  0  0
    2.7297   -1.1121   -1.3289 C   0  0  0  0  0  0  0  0  0  0  0  0
    2.4390   -0.4720   -2.1881 H   0  0  0  0  0  0  0  0  0  0  0  0
    2.1719   -2.0639   -1.4329 H   0  0  0  0  0  0  0  0  0  0  0  0
   -0.2397   -0.8442    0.0562 B   0  0  0  0  0  2  0  0  0  0  0  0
  1 37  1  0  0  0  0
  2 37  1  0  0  0  0
  3  4  1  0  0  0  0
  3  2  1  0  0  0  0
  3  5  1  0  0  0  0
  5  7  1  0  0  0  0
  5  6  1  0  0  0  0
  8  5  1  0  0  0  0
  8  9  1  0  0  0  0
  8 10  1  0  0  0  0
 11  8  1  0  0  0  0
 12 11  1  0  0  0  0
 13 11  1  0  0  0  0
 14 17  1  0  0  0  0
 14 11  1  0  0  0  0
 15 14  1  0  0  0  0
 16 14  1  0  0  0  0
 17  3  1  0  0  0  0
 18 17  1  0  0  0  0
 19 17  1  0  0  0  0
 20 21  1  0  0  0  0
 20  2  1  0  0  0  0
 20 22  1  0  0  0  0
 22 24  1  0  0  0  0
 22 23  1  0  0  0  0
 25 22  1  0  0  0  0
 25 26  1  0  0  0  0
 25 27  1  0  0  0  0
 28 25  1  0  0  0  0
 29 28  1  0  0  0  0
 30 28  1  0  0  0  0
 31 34  1  0  0  0  0
 31 28  1  0  0  0  0
 32 31  1  0  0  0  0
 33 31  1  0  0  0  0
 34 20  1  0  0  0  0
 35 34  1  0  0  0  0
 36 34  1  0  0  0  0
M  END
