4
q = 0.0, confidence = 0.934

 63 65  0  0  1  0  0  0  0  0999 V2000
   -0.3575   -0.0681    1.9460 N   0  0  0  0  0  0  0  0  0  0  0  0
    0.7947   -1.2871   -1.2863 N   0  0  0  0  0  0  0  0  0  0  0  0
   -1.3494   -0.8770   -1.3751 N   0  0  0  0  0  0  0  0  0  0  0  0
    0.0071    0.3309    0.6330 B   0  0  0  0  0  2  0  0  0  0  0  0
   -1.3033   -1.1484    2.2340 C   0  0  0  0  0  0  0  0  0  0  0  0
   -0.9026   -1.7995    3.0434 H   0  0  0  0  0  0  0  0  0  0  0  0
   -1.3806   -1.7857    1.3355 H   0  0  0  0  0  0  0  0  0  0  0  0
   -2.6945   -0.6434    2.6270 C   0  0  0  0  0  0  0  0  0  0  0  0
   -2.6778   -0.0879    3.5855 H   0  0  0  0  0  0  0  0  0  0  0  0
   -3.3920   -1.4964    2.7460 H   0  0  0  0  0  0  0  0  0  0  0  0
   -3.1013    0.0311    1.8485 H   0  0  0  0  0  0  0  0  0  0  0  0
    0.0792    0.6671    3.1427 C   0  0  0  0  0  0  0  0  0  0  0  0
   -0.8068    0.9558    3.7478 H   0  0  0  0  0  0  0  0  0  0  0  0
    0.5476    1.6069    2.7995 H   0  0  0  0  0  0  0  0  0  0  0  0
    1.0785   -0.1246    3.9885 C   0  0  0  0  0  0  0  0  0  0  0  0
    0.6589   -1.0810    4.3641 H   0  0  0  0  0  0  0  0  0  0  0  0
    1.3779    0.4707    4.8745 H   0  0  0  0  0  0  0  0  0  0  0  0
    1.9919   -0.3438    3.4015 H   0  0  0  0  0  0  0  0  0  0  0  0
   -0.2251   -0.6547   -0.6120 C   0  0  2  0  0  3  0  0  0  0  0  0
    2.1569   -1.4259   -0.8296 C   0  0  0  0  0  0  0  0  0  0  0  0
    2.4106   -2.2642    0.2842 C   0  0  0  0  0  0  0  0  0  0  0  0
    3.7351   -2.3876    0.7323 C   0  0  0  0  0  0  0  0  0  0  0  0
    3.9370   -3.0287    1.6053 H   0  0  0  0  0  0  0  0  0  0  0  0
    4.8010   -1.7249    0.1021 C   0  0  0  0  0  0  0  0  0  0  0  0
    6.2004   -1.8072    0.6513 C   0  0  0  0  0  0  0  0  0  0  0  0
    6.9628   -1.7074   -0.1460 H   0  0  0  0  0  0  0  0  0  0  0  0
    6.3771   -2.7589    1.1899 H   0  0  0  0  0  0  0  0  0  0  0  0
    6.3724   -0.9819    1.3753 H   0  0  0  0  0  0  0  0  0  0  0  0
    4.5149   -0.9583   -1.0378 C   0  0  0  0  0  0  0  0  0  0  0  0
    5.3379   -0.4490   -1.5643 H   0  0  0  0  0  0  0  0  0  0  0  0
    3.2092   -0.7896   -1.5313 C   0  0  0  0  0  0  0  0  0  0  0  0
    3.0098    0.0955   -2.7317 C   0  0  0  0  0  0  0  0  0  0  0  0
    3.0791    1.1573   -2.4193 H   0  0  0  0  0  0  0  0  0  0  0  0
    2.0265   -0.0195   -3.2169 H   0  0  0  0  0  0  0  0  0  0  0  0
    3.8030   -0.0880   -3.4832 H   0  0  0  0  0  0  0  0  0  0  0  0
    1.3229   -3.0171    1.0024 C   0  0  0  0  0  0  0  0  0  0  0  0
    1.7173   -3.9621    1.4223 H   0  0  0  0  0  0  0  0  0  0  0  0
    0.4700   -3.2639    0.3414 H   0  0  0  0  0  0  0  0  0  0  0  0
    0.9266   -2.4175    1.8449 H   0  0  0  0  0  0  0  0  0  0  0  0
    0.3215   -1.8499   -2.4666 C   0  0  0  0  0  0  0  0  0  0  0  0
    0.9870   -2.3891   -3.1457 H   0  0  0  0  0  0  0  0  0  0  0  0
   -1.0179   -1.5870   -2.5281 C   0  0  0  0  0  0  0  0  0  0  0  0
   -1.7737   -1.8419   -3.2754 H   0  0  0  0  0  0  0  0  0  0  0  0
   -2.7232   -0.7025   -0.9577 C   0  0  0  0  0  0  0  0  0  0  0  0
   -3.3725    0.5457   -1.1007 C   0  0  0  0  0  0  0  0  0  0  0  0
   -2.7044    1.7232   -1.7448 C   0  0  0  0  0  0  0  0  0  0  0  0
   -3.4226    2.5501   -1.8928 H   0  0  0  0  0  0  0  0  0  0  0  0
   -2.2607    1.4567   -2.7242 H   0  0  0  0  0  0  0  0  0  0  0  0
   -1.8625    2.1004   -1.1299 H   0  0  0  0  0  0  0  0  0  0  0  0
   -4.7019    0.6387   -0.6468 C   0  0  0  0  0  0  0  0  0  0  0  0
   -5.2136    1.6097   -0.7377 H   0  0  0  0  0  0  0  0  0  0  0  0
   -5.3942   -0.4572   -0.1030 C   0  0  0  0  0  0  0  0  0  0  0  0
   -6.7984   -0.3032    0.4217 C   0  0  0  0  0  0  0  0  0  0  0  0
   -6.7841    0.0056    1.4892 H   0  0  0  0  0  0  0  0  0  0  0  0
   -7.3657   -1.2526    0.3629 H   0  0  0  0  0  0  0  0  0  0  0  0
   -7.3592    0.4744   -0.1330 H   0  0  0  0  0  0  0  0  0  0  0  0
   -4.7318   -1.6962   -0.0461 C   0  0  0  0  0  0  0  0  0  0  0  0
   -5.2632   -2.5767    0.3490 H   0  0  0  0  0  0  0  0  0  0  0  0
   -3.4014   -1.8478   -0.4722 C   0  0  0  0  0  0  0  0  0  0  0  0
   -2.7538   -3.2102   -0.4357 C   0  0  0  0  0  0  0  0  0  0  0  0
   -3.2372   -3.8554    0.3221 H   0  0  0  0  0  0  0  0  0  0  0  0
   -1.6715   -3.1636   -0.2081 H   0  0  0  0  0  0  0  0  0  0  0  0
   -2.8460   -3.7242   -1.4159 H   0  0  0  0  0  0  0  0  0  0  0  0
  1  5  1  0  0  0  0
  1 12  1  0  0  0  0
  2 20  1  0  0  0  0
  2 19  1  0  0  0  0
  3 44  1  0  0  0  0
  3 19  1  0  0  0  0
  4  1  1  0  0  0  0
  5  8  1  0  0  0  0
  5  6  1  0  0  0  0
  7  5  1  0  0  0  0
  8 10  1  0  0  0  0
  8  9  1  0  0  0  0
 11  8  1  0  0  0  0
 12 13  1  0  0  0  0
 12 15  1  0  0  0  0
 14 12  1  0  0  0  0
 15 16  1  0  0  0  0
 15 17  1  0  0  0  0
 18 15  1  0  0  0  0
 19  4  1  6  0  0  0
 20 21  1  0  0  0  0
 21 22  2  0  0  0  0
 21 36  1  0  0  0  0
 22 23  1  0  0  0  0
 24 25  1  0  0  0  0
 24 22  1  0  0  0  0
 25 27  1  0  0  0  0
 25 28  1  0  0  0  0
 26 25  1  0  0  0  0
 29 24  2  0  0  0  0
 30 29  1  0  0  0  0
 31 29  1  0  0  0  0
 31 20  2  0  0  0  0
 32 33  1  0  0  0  0
 32 31  1  0  0  0  0
 34 32  1  0  0  0  0
 35 32  1  0  0  0  0
 36 37  1  0  0  0  0
 36 39  1  0  0  0  0
 38 36  1  0  0  0  0
 40  2  1  0  0  0  0
 41 40  1  0  0  0  0
 42 40  2  0  0  0  0
 42  3  1  0  0  0  0
 43 42  1  0  0  0  0
 44 59  1  0  0  0  0
 45 44  2  0  0  0  0
 45 50  1  0  0  0  0
 46 49  1  0  0  0  0
 46 45  1  0  0  0  0
 47 46  1  0  0  0  0
 48 46  1  0  0  0  0
 50 52  2  0  0  0  0
 51 50  1  0  0  0  0
 52 57  1  0  0  0  0
 52 53  1  0  0  0  0
 53 54  1  0  0  0  0
 55 53  1  0  0  0  0
 56 53  1  0  0  0  0
 57 58  1  0  0  0  0
 59 60  1  0  0  0  0
 59 57  2  0  0  0  0
 60 62  1  0  0  0  0
 60 61  1  0  0  0  0
 63 60  1  0  0  0  0
M  END
