7
 OpenBabel05122313063D

 30 33  0  0  1  0  0  0  0  0999 V2000
    0.7234    0.2130   -1.2797 P   0  0  0  0  0  2  0  0  0  0  0  0
    0.2662    3.0435   -2.4747 B   0  0  0  0  0  0  0  0  0  0  0  0
    1.1983    2.1518   -1.2550 B   0  0  2  0  0  0  0  0  0  0  0  0
    0.8060    1.4094   -2.9159 B   0  0  1  0  0  0  0  0  0  0  0  0
   -0.8328    1.8864   -3.3204 B   0  0  0  0  0  0  0  0  0  0  0  0
   -1.4724    3.0008   -2.1137 B   0  0  1  0  0  0  0  0  0  0  0  0
   -0.3061    3.1065   -0.7704 B   0  0  0  0  0  0  0  0  0  0  0  0
   -0.6511    0.2701   -2.6042 B   0  0  0  0  0  0  0  0  0  0  0  0
   -1.8022    1.3167   -2.0204 C   0  0  1  0  0  0  0  0  0  0  0  0
   -1.5460    2.0529   -0.7147 C   0  0  2  0  0  0  0  0  0  0  0  0
    2.0306   -1.0341   -1.2834 C   0  0  0  0  0  0  0  0  0  0  0  0
    1.6904   -2.3671   -1.5933 C   0  0  0  0  0  0  0  0  0  0  0  0
    2.6713   -3.3668   -1.5241 C   0  0  0  0  0  0  0  0  0  0  0  0
    3.9823   -3.0424   -1.1398 C   0  0  0  0  0  0  0  0  0  0  0  0
    4.3179   -1.7138   -0.8296 C   0  0  0  0  0  0  0  0  0  0  0  0
    3.3459   -0.7061   -0.8977 C   0  0  0  0  0  0  0  0  0  0  0  0
    0.7690    4.0029   -3.0107 H   0  0  0  0  0  0  0  0  0  0  0  0
    2.3322    2.4716   -0.9771 H   0  0  0  0  0  0  0  0  0  0  0  0
    1.6819    1.1462   -3.7051 H   0  0  0  0  0  0  0  0  0  0  0  0
   -1.2632    1.9615   -4.4457 H   0  0  0  0  0  0  0  0  0  0  0  0
   -2.3244    3.8105   -2.3794 H   0  0  0  0  0  0  0  0  0  0  0  0
   -0.2677    4.1256   -0.1232 H   0  0  0  0  0  0  0  0  0  0  0  0
   -0.9186   -0.6913   -3.2858 H   0  0  0  0  0  0  0  0  0  0  0  0
   -2.8446    1.0380   -2.2303 H   0  0  0  0  0  0  0  0  0  0  0  0
   -2.4327    2.2334   -0.0907 H   0  0  0  0  0  0  0  0  0  0  0  0
    0.6601   -2.6155   -1.8909 H   0  0  0  0  0  0  0  0  0  0  0  0
    2.4087   -4.4065   -1.7706 H   0  0  0  0  0  0  0  0  0  0  0  0
    4.7489   -3.8298   -1.0828 H   0  0  0  0  0  0  0  0  0  0  0  0
    5.3471   -1.4583   -0.5357 H   0  0  0  0  0  0  0  0  0  0  0  0
    3.6047    0.3369   -0.6641 H   0  0  0  0  0  0  0  0  0  0  0  0
  2  3  1  0  0  0  0
  3 18  1  1  0  0  0
  3  7  1  0  0  0  0
  4 19  1  6  0  0  0
  4  2  1  0  0  0  0
  4  3  1  0  0  0  0
  5  4  1  0  0  0  0
  5  6  1  0  0  0  0
  6 21  1  6  0  0  0
  6  9  1  0  0  0  0
  6 10  1  0  0  0  0
  7 10  1  0  0  0  0
  7 22  1  0  0  0  0
  8  9  1  0  0  0  0
  8  1  1  0  0  0  0
  9 24  1  6  0  0  0
  9 10  1  0  0  0  0
 10 25  1  1  0  0  0
 11  1  1  0  0  0  0
 11 16  1  0  0  0  0
 12 13  1  0  0  0  0
 12 11  2  0  0  0  0
 13 14  2  0  0  0  0
 14 28  1  0  0  0  0
 14 15  1  0  0  0  0
 15 29  1  0  0  0  0
 16 15  2  0  0  0  0
 16 30  1  0  0  0  0
 17  2  1  0  0  0  0
 20  5  1  0  0  0  0
 23  8  1  0  0  0  0
 26 12  1  0  0  0  0
 27 13  1  0  0  0  0
M  END
