6
 OpenBabel05122313063D

  7  6  0  0  0  0  0  0  0  0999 V2000
    0.0001   -1.8232    2.4706 H   0  0  0  0  0  0  0  0  0  0  0  0
   -0.9199   -1.0895    1.8014 B   0  0  0  0  0  0  0  0  0  0  0  0
   -1.6036   -2.1561    1.5150 H   0  0  0  0  0  0  0  0  0  0  0  0
   -1.5295   -0.4436    2.6259 H   0  0  0  0  0  0  0  0  0  0  0  0
   -3.4099   -1.2809   -0.2903 Br  0  0  0  0  0  0  0  0  0  0  0  0
   -1.5132   -1.7122    0.1782 B   0  0  0  0  0  0  0  0  0  0  0  0
   -1.1911   -2.7958   -0.2624 H   0  0  0  0  0  0  0  0  0  0  0  0
  2  1  1  0  0  0  0
  2  4  1  0  0  0  0
  3  2  1  0  0  0  0
  5  6  1  0  0  0  0
  6  2  1  0  0  0  0
  7  6  1  0  0  0  0
M  END
