1
 OpenBabel05122313063D

  9  8  0  0  0  0  0  0  0  0999 V2000
    1.3193    1.1979    0.3383 B   0  0  0  0  0  1  0  0  0  0  0  0
   -0.8232    2.3387   -0.2295 O   0  0  0  0  0  0  0  0  0  0  0  0
    0.4370    2.5192    0.5544 C   0  0  0  0  0  0  0  0  0  0  0  0
    0.1318    2.6914    1.6069 H   0  0  0  0  0  0  0  0  0  0  0  0
    0.9012    3.4360    0.1440 H   0  0  0  0  0  0  0  0  0  0  0  0
   -1.7237    3.4748   -0.2436 C   0  0  0  0  0  0  0  0  0  0  0  0
   -2.0757    3.6868    0.7843 H   0  0  0  0  0  0  0  0  0  0  0  0
   -2.5718    3.2034   -0.8942 H   0  0  0  0  0  0  0  0  0  0  0  0
   -1.1658    4.3330   -0.6603 H   0  0  0  0  0  0  0  0  0  0  0  0
  1  3  1  0  0  0  0
  2  3  1  0  0  0  0
  3  4  1  0  0  0  0
  5  3  1  0  0  0  0
  6  2  1  0  0  0  0
  6  7  1  0  0  0  0
  8  6  1  0  0  0  0
  9  6  1  0  0  0  0
M  END
