1
 OpenBabel05122313063D

 45 44  0  0  0  0  0  0  0  0999 V2000
    1.2115    0.9516    0.2218 B   0  0  0  0  0  2  0  0  0  0  0  0
    2.1617    2.4365    0.7582 Cl  0  0  0  0  0  0  0  0  0  0  0  0
   -0.1133    1.1979   -0.2251 N   0  0  0  0  0  0  0  0  0  0  0  0
   -0.7292    2.8584   -0.6663 Si  0  0  0  0  0  0  0  0  0  0  0  0
    0.4115    3.5890   -1.9796 C   0  0  0  0  0  0  0  0  0  0  0  0
    1.4294    3.7729   -1.5875 H   0  0  0  0  0  0  0  0  0  0  0  0
   -0.0003    4.5481   -2.3563 H   0  0  0  0  0  0  0  0  0  0  0  0
    0.4815    2.8869   -2.8358 H   0  0  0  0  0  0  0  0  0  0  0  0
   -2.4304    2.6461   -1.4646 C   0  0  0  0  0  0  0  0  0  0  0  0
   -3.1777    2.2134   -0.7723 H   0  0  0  0  0  0  0  0  0  0  0  0
   -2.3844    2.0061   -2.3678 H   0  0  0  0  0  0  0  0  0  0  0  0
   -2.7894    3.6484   -1.7783 H   0  0  0  0  0  0  0  0  0  0  0  0
   -0.9255    3.9806    0.8366 C   0  0  0  0  0  0  0  0  0  0  0  0
    0.0331    4.1263    1.3683 H   0  0  0  0  0  0  0  0  0  0  0  0
   -1.6667    3.5695    1.5507 H   0  0  0  0  0  0  0  0  0  0  0  0
   -1.2957    4.9713    0.4992 H   0  0  0  0  0  0  0  0  0  0  0  0
   -1.0039    0.1120   -0.6592 B   0  0  0  0  0  0  0  0  0  0  0  0
   -0.6015   -0.5690   -2.3182 Cl  0  0  0  0  0  0  0  0  0  0  0  0
   -2.1497   -0.3612    0.0233 N   0  0  0  0  0  0  0  0  0  0  0  0
   -2.3691   -0.0850    1.8097 Si  0  0  0  0  0  0  0  0  0  0  0  0
   -2.6862   -1.7575    2.6381 C   0  0  0  0  0  0  0  0  0  0  0  0
   -1.7818   -2.3888    2.5296 H   0  0  0  0  0  0  0  0  0  0  0  0
   -3.5467   -2.3286    2.2451 H   0  0  0  0  0  0  0  0  0  0  0  0
   -2.8578   -1.5905    3.7218 H   0  0  0  0  0  0  0  0  0  0  0  0
   -0.8600    0.5966    2.7114 C   0  0  0  0  0  0  0  0  0  0  0  0
    0.0325   -0.0406    2.5697 H   0  0  0  0  0  0  0  0  0  0  0  0
   -1.1121    0.5801    3.7932 H   0  0  0  0  0  0  0  0  0  0  0  0
   -0.5904    1.6312    2.4363 H   0  0  0  0  0  0  0  0  0  0  0  0
   -3.3813   -1.3986   -0.8420 Si  0  0  0  0  0  0  0  0  0  0  0  0
   -3.8489   -0.7331   -2.5500 C   0  0  0  0  0  0  0  0  0  0  0  0
   -3.0597   -0.8587   -3.3118 H   0  0  0  0  0  0  0  0  0  0  0  0
   -4.1152    0.3415   -2.4937 H   0  0  0  0  0  0  0  0  0  0  0  0
   -4.7538   -1.2833   -2.8841 H   0  0  0  0  0  0  0  0  0  0  0  0
   -5.0506   -1.3614    0.0620 C   0  0  0  0  0  0  0  0  0  0  0  0
   -5.0447   -1.6334    1.1326 H   0  0  0  0  0  0  0  0  0  0  0  0
   -5.7014   -2.0928   -0.4621 H   0  0  0  0  0  0  0  0  0  0  0  0
   -5.5312   -0.3678   -0.0432 H   0  0  0  0  0  0  0  0  0  0  0  0
   -3.7840    1.1368    2.0973 C   0  0  0  0  0  0  0  0  0  0  0  0
   -3.5475    2.1175    1.6362 H   0  0  0  0  0  0  0  0  0  0  0  0
   -3.9093    1.3033    3.1874 H   0  0  0  0  0  0  0  0  0  0  0  0
   -4.7538    0.7942    1.6918 H   0  0  0  0  0  0  0  0  0  0  0  0
   -2.7354   -3.1653   -0.9322 C   0  0  0  0  0  0  0  0  0  0  0  0
   -1.8007   -3.1998   -1.5250 H   0  0  0  0  0  0  0  0  0  0  0  0
   -3.4827   -3.8285   -1.4145 H   0  0  0  0  0  0  0  0  0  0  0  0
   -2.5109   -3.5608    0.0776 H   0  0  0  0  0  0  0  0  0  0  0  0
  1  2  1  0  0  0  0
  3  1  1  0  0  0  0
  4  3  1  0  0  0  0
  4 13  1  0  0  0  0
  5  6  1  0  0  0  0
  5  4  1  0  0  0  0
  7  5  1  0  0  0  0
  8  5  1  0  0  0  0
  9 10  1  0  0  0  0
  9  4  1  0  0  0  0
 11  9  1  0  0  0  0
 12  9  1  0  0  0  0
 13 14  1  0  0  0  0
 13 15  1  0  0  0  0
 16 13  1  0  0  0  0
 17  3  1  0  0  0  0
 17 19  1  0  0  0  0
 18 17  1  0  0  0  0
 19 20  1  0  0  0  0
 20 38  1  0  0  0  0
 20 21  1  0  0  0  0
 20 25  1  0  0  0  0
 21 24  1  0  0  0  0
 22 21  1  0  0  0  0
 23 21  1  0  0  0  0
 25 27  1  0  0  0  0
 26 25  1  0  0  0  0
 28 25  1  0  0  0  0
 29 19  1  0  0  0  0
 29 34  1  0  0  0  0
 30 32  1  0  0  0  0
 30 29  1  0  0  0  0
 31 30  1  0  0  0  0
 33 30  1  0  0  0  0
 34 35  1  0  0  0  0
 36 34  1  0  0  0  0
 37 34  1  0  0  0  0
 38 40  1  0  0  0  0
 39 38  1  0  0  0  0
 41 38  1  0  0  0  0
 42 29  1  0  0  0  0
 42 45  1  0  0  0  0
 43 42  1  0  0  0  0
 44 42  1  0  0  0  0
M  END
