8
 OpenBabel05122313063D

 48 53  0  0  1  0  0  0  0  0999 V2000
   -0.4278    0.9185    0.8841 C   0  0  2  0  0  0  0  0  0  0  0  0
    0.7360    0.2930   -0.2061 B   0  0  0  0  0  0  0  0  0  0  0  0
    0.9622    0.7560   -1.2940 H   0  0  0  0  0  0  0  0  0  0  0  0
    1.1657    1.4327    1.0971 B   0  0  1  0  0  0  0  0  0  0  0  0
    1.5138    2.5410    0.7886 H   0  0  0  0  0  0  0  0  0  0  0  0
    0.1702    1.0364    2.4804 B   0  0  2  0  0  0  0  0  0  0  0  0
   -0.2657    1.9115    3.1875 H   0  0  0  0  0  0  0  0  0  0  0  0
   -0.8509   -0.3501    2.0019 B   0  0  0  0  0  0  0  0  0  0  0  0
   -1.9511   -0.3466    2.5057 H   0  0  0  0  0  0  0  0  0  0  0  0
    1.2612   -1.3925    0.3080 B   0  0  0  0  0  2  0  0  0  0  0  0
    1.8771   -2.0891   -0.4694 H   0  0  0  0  0  0  0  0  0  0  0  0
    2.1185    0.0382    0.7757 C   0  0  1  0  0  0  0  0  0  0  0  0
    1.8569    0.5013    2.4295 B   0  0  1  0  0  0  0  0  0  0  0  0
    2.7691    0.9870    3.0507 H   0  0  0  0  0  0  0  0  0  0  0  0
    0.5972   -0.6093    3.0124 B   0  0  0  0  0  0  0  0  0  0  0  0
    0.5306   -0.8985    4.1850 H   0  0  0  0  0  0  0  0  0  0  0  0
    0.2466   -1.8153    1.7359 B   0  0  1  0  0  0  0  0  0  0  0  0
   -0.0085   -2.9414    2.1065 H   0  0  0  0  0  0  0  0  0  0  0  0
    1.8930   -1.2014    1.9549 B   0  0  1  0  0  0  0  0  0  0  0  0
    2.8303   -1.8664    2.3182 H   0  0  0  0  0  0  0  0  0  0  0  0
   -1.4288    1.9488    0.4383 C   0  0  0  0  0  0  0  0  0  0  0  0
   -1.2569    2.6654   -0.7647 C   0  0  0  0  0  0  0  0  0  0  0  0
   -0.3617    2.4854   -1.3764 H   0  0  0  0  0  0  0  0  0  0  0  0
   -2.2105    3.5971   -1.1910 C   0  0  0  0  0  0  0  0  0  0  0  0
   -2.0462    4.1404   -2.1355 H   0  0  0  0  0  0  0  0  0  0  0  0
   -3.3742    3.8567   -0.4376 C   0  0  0  0  0  0  0  0  0  0  0  0
   -3.5381    3.1431    0.7657 C   0  0  0  0  0  0  0  0  0  0  0  0
   -4.4325    3.3240    1.3832 H   0  0  0  0  0  0  0  0  0  0  0  0
   -2.5852    2.2114    1.2003 C   0  0  0  0  0  0  0  0  0  0  0  0
   -2.7391    1.6746    2.1467 H   0  0  0  0  0  0  0  0  0  0  0  0
   -4.3815    4.8845   -0.8872 C   0  0  0  0  0  0  0  0  0  0  0  0
   -5.3763    4.7088   -0.4328 H   0  0  0  0  0  0  0  0  0  0  0  0
   -4.5003    4.8864   -1.9894 H   0  0  0  0  0  0  0  0  0  0  0  0
   -4.0643    5.9091   -0.5954 H   0  0  0  0  0  0  0  0  0  0  0  0
    3.4777    0.2610    0.1537 C   0  0  0  0  0  0  0  0  0  0  0  0
    4.5145   -0.6767    0.3313 C   0  0  0  0  0  0  0  0  0  0  0  0
    4.3304   -1.5745    0.9362 H   0  0  0  0  0  0  0  0  0  0  0  0
    5.7697   -0.4815   -0.2556 C   0  0  0  0  0  0  0  0  0  0  0  0
    6.5584   -1.2345   -0.0979 H   0  0  0  0  0  0  0  0  0  0  0  0
    6.0438    0.6541   -1.0446 C   0  0  0  0  0  0  0  0  0  0  0  0
    5.0018    1.5830   -1.2271 C   0  0  0  0  0  0  0  0  0  0  0  0
    5.1775    2.4789   -1.8436 H   0  0  0  0  0  0  0  0  0  0  0  0
    3.7433    1.3931   -0.6407 C   0  0  0  0  0  0  0  0  0  0  0  0
    2.9551    2.1398   -0.8067 H   0  0  0  0  0  0  0  0  0  0  0  0
    7.4085    0.8720   -1.6469 C   0  0  0  0  0  0  0  0  0  0  0  0
    7.8352   -0.0718   -2.0423 H   0  0  0  0  0  0  0  0  0  0  0  0
    7.3791    1.6102   -2.4720 H   0  0  0  0  0  0  0  0  0  0  0  0
    8.1233    1.2545   -0.8866 H   0  0  0  0  0  0  0  0  0  0  0  0
  1 21  1  6  0  0  0
  1  4  1  0  0  0  0
  1  6  1  0  0  0  0
  2 12  1  0  0  0  0
  2  1  1  0  0  0  0
  3  2  1  0  0  0  0
  4  5  1  6  0  0  0
  4  6  1  0  0  0  0
  6  7  1  1  0  0  0
  8  9  1  0  0  0  0
  8 15  1  0  0  0  0
 10 17  1  0  0  0  0
 11 10  1  0  0  0  0
 12 35  1  6  0  0  0
 12  4  1  0  0  0  0
 12 19  1  0  0  0  0
 13  6  1  0  0  0  0
 13 15  1  0  0  0  0
 13 14  1  1  0  0  0
 15 16  1  0  0  0  0
 17 19  1  0  0  0  0
 17  8  1  0  0  0  0
 17 18  1  1  0  0  0
 19 20  1  1  0  0  0
 19 13  1  0  0  0  0
 21 29  1  0  0  0  0
 22 21  2  0  0  0  0
 23 22  1  0  0  0  0
 24 22  1  0  0  0  0
 24 26  2  0  0  0  0
 25 24  1  0  0  0  0
 26 27  1  0  0  0  0
 27 29  2  0  0  0  0
 27 28  1  0  0  0  0
 29 30  1  0  0  0  0
 31 34  1  0  0  0  0
 31 26  1  0  0  0  0
 31 32  1  0  0  0  0
 33 31  1  0  0  0  0
 35 36  1  0  0  0  0
 36 37  1  0  0  0  0
 38 39  1  0  0  0  0
 38 36  2  0  0  0  0
 40 38  1  0  0  0  0
 41 40  2  0  0  0  0
 41 43  1  0  0  0  0
 42 41  1  0  0  0  0
 43 35  2  0  0  0  0
 44 43  1  0  0  0  0
 45 40  1  0  0  0  0
 45 48  1  0  0  0  0
 46 45  1  0  0  0  0
 47 45  1  0  0  0  0
M  END
