3
 OpenBabel05122313063D

 28 27  0  0  0  0  0  0  0  0999 V2000
   -2.2594    1.6024   -0.0249 Si  0  0  0  0  0  0  0  0  0  0  0  0
   -2.1700   -1.6243   -0.0034 Si  0  0  0  0  0  0  0  0  0  0  0  0
    0.0101    0.0386   -0.0634 B   0  0  0  0  0  1  0  0  0  0  0  0
   -1.3552    0.0149   -0.0751 N   0  0  0  0  0  0  0  0  0  0  0  0
   -1.0619    2.9899    0.3887 C   0  0  0  0  0  0  0  0  0  0  0  0
   -0.2975    3.1350   -0.3997 H   0  0  0  0  0  0  0  0  0  0  0  0
   -0.5429    2.8276    1.3536 H   0  0  0  0  0  0  0  0  0  0  0  0
   -1.6408    3.9337    0.4698 H   0  0  0  0  0  0  0  0  0  0  0  0
   -3.5707    1.4842    1.3247 C   0  0  0  0  0  0  0  0  0  0  0  0
   -4.3109    0.6794    1.1486 H   0  0  0  0  0  0  0  0  0  0  0  0
   -4.1257    2.4437    1.3779 H   0  0  0  0  0  0  0  0  0  0  0  0
   -3.0987    1.3117    2.3131 H   0  0  0  0  0  0  0  0  0  0  0  0
   -3.0128    1.9001   -1.7242 C   0  0  0  0  0  0  0  0  0  0  0  0
   -3.7591    1.1319   -2.0029 H   0  0  0  0  0  0  0  0  0  0  0  0
   -2.2170    1.9076   -2.4965 H   0  0  0  0  0  0  0  0  0  0  0  0
   -3.5155    2.8893   -1.7446 H   0  0  0  0  0  0  0  0  0  0  0  0
   -1.0660   -2.9026   -0.8280 C   0  0  0  0  0  0  0  0  0  0  0  0
   -0.1515   -3.1075   -0.2388 H   0  0  0  0  0  0  0  0  0  0  0  0
   -0.7608   -2.5972   -1.8481 H   0  0  0  0  0  0  0  0  0  0  0  0
   -1.6298   -3.8552   -0.9100 H   0  0  0  0  0  0  0  0  0  0  0  0
   -2.4250   -2.0460    1.8121 C   0  0  0  0  0  0  0  0  0  0  0  0
   -1.4431   -2.1093    2.3238 H   0  0  0  0  0  0  0  0  0  0  0  0
   -2.9258   -3.0310    1.9140 H   0  0  0  0  0  0  0  0  0  0  0  0
   -3.0432   -1.2901    2.3348 H   0  0  0  0  0  0  0  0  0  0  0  0
   -3.8028   -1.5298   -0.9415 C   0  0  0  0  0  0  0  0  0  0  0  0
   -3.6357   -1.2954   -2.0118 H   0  0  0  0  0  0  0  0  0  0  0  0
   -4.5120   -0.7876   -0.5265 H   0  0  0  0  0  0  0  0  0  0  0  0
   -4.2921   -2.5245   -0.8874 H   0  0  0  0  0  0  0  0  0  0  0  0
  1  5  1  0  0  0  0
  1  9  1  0  0  0  0
  2 21  1  0  0  0  0
  4  3  1  0  0  0  0
  4  1  1  0  0  0  0
  4  2  1  0  0  0  0
  5  8  1  0  0  0  0
  5  7  1  0  0  0  0
  6  5  1  0  0  0  0
  9 11  1  0  0  0  0
  9 12  1  0  0  0  0
 10  9  1  0  0  0  0
 13  1  1  0  0  0  0
 14 13  1  0  0  0  0
 15 13  1  0  0  0  0
 16 13  1  0  0  0  0
 17 18  1  0  0  0  0
 17  2  1  0  0  0  0
 19 17  1  0  0  0  0
 20 17  1  0  0  0  0
 21 23  1  0  0  0  0
 21 22  1  0  0  0  0
 21 24  1  0  0  0  0
 25 28  1  0  0  0  0
 25 27  1  0  0  0  0
 25  2  1  0  0  0  0
 26 25  1  0  0  0  0
M  END
