12
 OpenBabel05122313063D

 30 33  0  0  0  0  0  0  0  0999 V2000
    0.5571   -0.1923    2.4286 Cl  0  0  0  0  0  0  0  0  0  0  0  0
   -0.5694    0.2473   -2.1608 S   0  0  0  0  0  0  0  0  0  0  0  0
   -1.3315   -2.5350   -0.3557 S   0  0  0  0  0  0  0  0  0  0  0  0
    1.6304    2.3580   -2.3263 S   0  0  0  0  0  0  0  0  0  0  0  0
    1.3325   -3.9683   -0.6672 S   0  0  0  0  0  0  0  0  0  0  0  0
    1.0999   -1.4802    0.0685 N   0  0  0  0  0  0  0  0  0  0  0  0
    0.9862    1.0893   -0.1395 N   0  0  0  0  0  0  0  0  0  0  0  0
    0.3572   -2.5577   -0.2866 C   0  0  0  0  0  0  0  0  0  0  0  0
    2.4735   -1.7468    0.1132 C   0  0  0  0  0  0  0  0  0  0  0  0
    0.6741    1.1687   -1.4634 C   0  0  0  0  0  0  0  0  0  0  0  0
    2.4082    2.8366   -0.8245 C   0  0  0  0  0  0  0  0  0  0  0  0
    0.3158   -0.1822    0.5634 B   0  0  0  0  0  0  0  0  0  0  0  0
    1.9204    2.0559    0.2615 C   0  0  0  0  0  0  0  0  0  0  0  0
    3.5109   -0.8787    0.5005 C   0  0  0  0  0  0  0  0  0  0  0  0
    3.2961    0.1384    0.8429 H   0  0  0  0  0  0  0  0  0  0  0  0
    2.7965   -3.0743   -0.2789 C   0  0  0  0  0  0  0  0  0  0  0  0
    2.3956    2.3302    1.5611 C   0  0  0  0  0  0  0  0  0  0  0  0
    2.0149    1.7488    2.4093 H   0  0  0  0  0  0  0  0  0  0  0  0
    4.1183   -3.5365   -0.3173 C   0  0  0  0  0  0  0  0  0  0  0  0
    4.3431   -4.5679   -0.6252 H   0  0  0  0  0  0  0  0  0  0  0  0
    3.8359    4.0932    0.6502 C   0  0  0  0  0  0  0  0  0  0  0  0
    4.5839    4.8825    0.8151 H   0  0  0  0  0  0  0  0  0  0  0  0
    4.8331   -1.3412    0.4635 C   0  0  0  0  0  0  0  0  0  0  0  0
    5.6418   -0.6601    0.7673 H   0  0  0  0  0  0  0  0  0  0  0  0
    3.3635    3.8460   -0.6461 C   0  0  0  0  0  0  0  0  0  0  0  0
    3.7265    4.4302   -1.5041 H   0  0  0  0  0  0  0  0  0  0  0  0
    5.1416   -2.6522    0.0541 C   0  0  0  0  0  0  0  0  0  0  0  0
    6.1876   -2.9913    0.0315 H   0  0  0  0  0  0  0  0  0  0  0  0
    3.3480    3.3428    1.7370 C   0  0  0  0  0  0  0  0  0  0  0  0
    3.7157    3.5536    2.7523 H   0  0  0  0  0  0  0  0  0  0  0  0
  2 10  2  0  0  0  0
  3  8  2  0  0  0  0
  4 10  1  0  0  0  0
  4 11  1  0  0  0  0
  5  8  1  0  0  0  0
  5 16  1  0  0  0  0
  6  9  1  0  0  0  0
  6 12  1  0  0  0  0
  7 13  1  0  0  0  0
  7 12  1  0  0  0  0
  8  6  1  0  0  0  0
  9 14  1  0  0  0  0
 10  7  1  0  0  0  0
 11 25  2  0  0  0  0
 11 13  1  0  0  0  0
 12  1  1  0  0  0  0
 13 17  2  0  0  0  0
 14 15  1  0  0  0  0
 16  9  2  0  0  0  0
 17 29  1  0  0  0  0
 17 18  1  0  0  0  0
 19 16  1  0  0  0  0
 19 27  2  0  0  0  0
 20 19  1  0  0  0  0
 21 22  1  0  0  0  0
 21 29  2  0  0  0  0
 23 14  2  0  0  0  0
 23 24  1  0  0  0  0
 25 21  1  0  0  0  0
 26 25  1  0  0  0  0
 27 23  1  0  0  0  0
 28 27  1  0  0  0  0
 29 30  1  0  0  0  0
M  END
