8
 OpenBabel05122313063D

 21 25  0  0  1  0  0  0  0  0999 V2000
   -0.9179   -0.0259    1.7407 C   0  0  2  0  0  0  0  0  0  0  0  0
   -1.8424    0.2749    1.2279 H   0  0  0  0  0  0  0  0  0  0  0  0
   -0.1764   -1.5505    1.3689 B   0  0  0  0  0  0  0  0  0  0  0  0
    1.6427   -1.4582    1.6907 B   0  0  0  0  0  0  0  0  0  0  0  0
    2.4009   -2.2211    1.1332 H   0  0  0  0  0  0  0  0  0  0  0  0
    1.9531    0.2601    2.1635 B   0  0  2  0  0  0  0  0  0  0  0  0
    2.9924    0.8600    2.0023 H   0  0  0  0  0  0  0  0  0  0  0  0
    0.2859    1.1648    2.1294 B   0  0  0  0  0  0  0  0  0  0  0  0
    0.1296    2.3267    1.8455 H   0  0  0  0  0  0  0  0  0  0  0  0
   -0.7552    0.4035    3.3603 B   0  0  2  0  0  0  0  0  0  0  0  0
   -1.6265    1.0779    3.8549 H   0  0  0  0  0  0  0  0  0  0  0  0
   -1.0613   -1.2654    2.8827 B   0  0  1  0  0  0  0  0  0  0  0  0
   -2.1434   -1.7816    3.0303 H   0  0  0  0  0  0  0  0  0  0  0  0
    0.5029   -2.1490    2.8823 B   0  0  0  0  0  0  0  0  0  0  0  0
    0.5266   -3.3385    3.1032 H   0  0  0  0  0  0  0  0  0  0  0  0
    1.7773   -1.0100    3.4022 B   0  0  1  0  0  0  0  0  0  0  0  0
    2.7364   -1.3649    4.0509 H   0  0  0  0  0  0  0  0  0  0  0  0
    1.0010    0.5915    3.6369 B   0  0  1  0  0  0  0  0  0  0  0  0
    1.4191    1.4020    4.4333 H   0  0  0  0  0  0  0  0  0  0  0  0
    0.1636   -0.9168    4.1312 B   0  0  1  0  0  0  0  0  0  0  0  0
   -0.0352   -1.2066    5.2884 H   0  0  0  0  0  0  0  0  0  0  0  0
  1  2  1  6  0  0  0
  1 12  1  0  0  0  0
  1 10  1  0  0  0  0
  3  1  1  0  0  0  0
  3 14  1  0  0  0  0
  3 12  1  0  0  0  0
  4  6  1  0  0  0  0
  4 16  1  0  0  0  0
  5  4  1  0  0  0  0
  6  7  1  6  0  0  0
  6 16  1  0  0  0  0
  6 18  1  0  0  0  0
  8 10  1  0  0  0  0
  8 18  1  0  0  0  0
  9  8  1  0  0  0  0
 10 11  1  1  0  0  0
 12 13  1  1  0  0  0
 12 10  1  0  0  0  0
 14 15  1  0  0  0  0
 14 20  1  0  0  0  0
 16 17  1  1  0  0  0
 16 20  1  0  0  0  0
 18 20  1  0  0  0  0
 18 19  1  1  0  0  0
 20 21  1  1  0  0  0
M  END
