4
 OpenBabel05122313063D

 61 61  0  0  0  0  0  0  0  0999 V2000
   -0.5530    0.6391    2.4544 C   0  0  0  0  0  0  0  0  0  0  0  0
   -0.8665    1.5755   -0.1277 N   0  0  0  0  0  0  0  0  0  0  0  0
   -0.2080    0.5961    0.8335 B   0  0  0  0  0  0  0  0  0  0  0  0
   -1.6831    0.5396   -0.5873 B   0  0  0  0  0  2  0  0  0  0  0  0
    1.3610    0.4157    0.4207 N   0  0  0  0  0  0  0  0  0  0  0  0
   -0.0095    1.8746    3.2118 C   0  0  0  0  0  0  0  0  0  0  0  0
    1.0950    1.9823    3.1793 H   0  0  0  0  0  0  0  0  0  0  0  0
   -0.2885    1.8179    4.2871 H   0  0  0  0  0  0  0  0  0  0  0  0
   -0.4373    2.8187    2.8209 H   0  0  0  0  0  0  0  0  0  0  0  0
    5.3474   -0.1068   -0.8528 N   0  0  0  0  0  0  0  0  0  0  0  0
   -0.0997   -0.6366    3.2056 C   0  0  0  0  0  0  0  0  0  0  0  0
    1.0000   -0.7738    3.2448 H   0  0  0  0  0  0  0  0  0  0  0  0
   -0.5159   -1.5511    2.7352 H   0  0  0  0  0  0  0  0  0  0  0  0
   -0.4545   -0.6095    4.2595 H   0  0  0  0  0  0  0  0  0  0  0  0
    2.9650    0.0969   -1.3578 C   0  0  0  0  0  0  0  0  0  0  0  0
    3.1136   -0.0354   -2.4356 H   0  0  0  0  0  0  0  0  0  0  0  0
    1.6738    0.2598   -0.8966 C   0  0  0  0  0  3  0  0  0  0  0  0
    0.8164    0.2548   -1.5827 H   0  0  0  0  0  0  0  0  0  0  0  0
   -2.0936    0.6929    2.5852 C   0  0  0  0  0  0  0  0  0  0  0  0
   -2.3922    0.7347    3.6552 H   0  0  0  0  0  0  0  0  0  0  0  0
   -2.5620   -0.2075    2.1371 H   0  0  0  0  0  0  0  0  0  0  0  0
   -2.5243    1.5790    2.0786 H   0  0  0  0  0  0  0  0  0  0  0  0
    4.0606    0.0761   -0.4401 C   0  0  0  0  0  0  0  0  0  0  0  0
    2.3889    0.4150    1.3018 C   0  0  0  0  0  0  0  0  0  0  0  0
    2.1213    0.5505    2.3538 H   0  0  0  0  0  0  0  0  0  0  0  0
    3.7169    0.2535    0.9300 C   0  0  0  0  0  0  0  0  0  0  0  0
    4.4766    0.2611    1.7200 H   0  0  0  0  0  0  0  0  0  0  0  0
    5.6400   -0.3049   -2.2645 C   0  0  0  0  0  0  0  0  0  0  0  0
    5.3225    0.5669   -2.8764 H   0  0  0  0  0  0  0  0  0  0  0  0
    5.1363   -1.2103   -2.6671 H   0  0  0  0  0  0  0  0  0  0  0  0
    6.7286   -0.4332   -2.3957 H   0  0  0  0  0  0  0  0  0  0  0  0
    6.4242   -0.1450    0.1242 C   0  0  0  0  0  0  0  0  0  0  0  0
    7.3843   -0.3044   -0.3968 H   0  0  0  0  0  0  0  0  0  0  0  0
    6.2880   -0.9717    0.8550 H   0  0  0  0  0  0  0  0  0  0  0  0
    6.4970    0.8076    0.6926 H   0  0  0  0  0  0  0  0  0  0  0  0
   -0.6694    3.0231   -0.3708 C   0  0  0  0  0  0  0  0  0  0  0  0
   -1.7561    3.8492    0.3464 C   0  0  0  0  0  0  0  0  0  0  0  0
   -1.6973    3.7115    1.4434 H   0  0  0  0  0  0  0  0  0  0  0  0
   -2.7667    3.5434    0.0200 H   0  0  0  0  0  0  0  0  0  0  0  0
   -1.6319    4.9302    0.1307 H   0  0  0  0  0  0  0  0  0  0  0  0
   -0.7070    3.3043   -1.8852 C   0  0  0  0  0  0  0  0  0  0  0  0
   -0.5072    4.3767   -2.0832 H   0  0  0  0  0  0  0  0  0  0  0  0
   -1.6873    3.0557   -2.3290 H   0  0  0  0  0  0  0  0  0  0  0  0
    0.0663    2.7071   -2.4090 H   0  0  0  0  0  0  0  0  0  0  0  0
    0.7168    3.4669    0.1386 C   0  0  0  0  0  0  0  0  0  0  0  0
    0.8266    4.5617    0.0084 H   0  0  0  0  0  0  0  0  0  0  0  0
    1.5336    2.9791   -0.4285 H   0  0  0  0  0  0  0  0  0  0  0  0
    0.8543    3.2395    1.2107 H   0  0  0  0  0  0  0  0  0  0  0  0
   -2.9670    0.3947   -1.5657 C   0  0  0  0  0  0  0  0  0  0  0  0
   -3.9071    1.6160   -1.5173 C   0  0  0  0  0  0  0  0  0  0  0  0
   -4.2954    1.7868   -0.4920 H   0  0  0  0  0  0  0  0  0  0  0  0
   -4.7861    1.4457   -2.1773 H   0  0  0  0  0  0  0  0  0  0  0  0
   -3.4274    2.5537   -1.8563 H   0  0  0  0  0  0  0  0  0  0  0  0
   -2.4286    0.1895   -3.0010 C   0  0  0  0  0  0  0  0  0  0  0  0
   -1.8545    1.0652   -3.3659 H   0  0  0  0  0  0  0  0  0  0  0  0
   -3.2681    0.0198   -3.7112 H   0  0  0  0  0  0  0  0  0  0  0  0
   -1.7655   -0.6995   -3.0520 H   0  0  0  0  0  0  0  0  0  0  0  0
   -3.8180   -0.8409   -1.1887 C   0  0  0  0  0  0  0  0  0  0  0  0
   -3.2504   -1.7877   -1.2921 H   0  0  0  0  0  0  0  0  0  0  0  0
   -4.7095   -0.9063   -1.8510 H   0  0  0  0  0  0  0  0  0  0  0  0
   -4.1790   -0.7850   -0.1413 H   0  0  0  0  0  0  0  0  0  0  0  0
  1 19  1  0  0  0  0
  1 11  1  0  0  0  0
  1  6  1  0  0  0  0
  2  3  1  0  0  0  0
  3  1  1  0  0  0  0
  4  2  1  0  0  0  0
  5  3  1  0  0  0  0
  5 24  1  0  0  0  0
  6  8  1  0  0  0  0
  7  6  1  0  0  0  0
  9  6  1  0  0  0  0
 10 23  1  0  0  0  0
 10 32  1  0  0  0  0
 11 12  1  0  0  0  0
 11 14  1  0  0  0  0
 13 11  1  0  0  0  0
 15 17  1  0  0  0  0
 15 23  2  0  0  0  0
 16 15  1  0  0  0  0
 17  5  1  0  0  0  0
 18 17  1  0  0  0  0
 19 20  1  0  0  0  0
 21 19  1  0  0  0  0
 22 19  1  0  0  0  0
 23 26  1  0  0  0  0
 24 25  1  0  0  0  0
 26 24  2  0  0  0  0
 26 27  1  0  0  0  0
 28 10  1  0  0  0  0
 29 28  1  0  0  0  0
 30 28  1  0  0  0  0
 31 28  1  0  0  0  0
 32 35  1  0  0  0  0
 32 34  1  0  0  0  0
 33 32  1  0  0  0  0
 36  2  1  0  0  0  0
 36 45  1  0  0  0  0
 36 37  1  0  0  0  0
 37 38  1  0  0  0  0
 39 37  1  0  0  0  0
 40 37  1  0  0  0  0
 41 36  1  0  0  0  0
 42 41  1  0  0  0  0
 43 41  1  0  0  0  0
 44 41  1  0  0  0  0
 45 48  1  0  0  0  0
 46 45  1  0  0  0  0
 47 45  1  0  0  0  0
 49 50  1  0  0  0  0
 49 58  1  0  0  0  0
 49  4  1  0  0  0  0
 50 51  1  0  0  0  0
 52 50  1  0  0  0  0
 53 50  1  0  0  0  0
 54 49  1  0  0  0  0
 55 54  1  0  0  0  0
 56 54  1  0  0  0  0
 57 54  1  0  0  0  0
 58 61  1  0  0  0  0
 59 58  1  0  0  0  0
 60 58  1  0  0  0  0
M  END
