2
 OpenBabel05122313063D

 43 42  0  0  0  0  0  0  0  0999 V2000
   -3.3469   -0.0837   -0.2757 N   0  0  0  0  0  0  0  0  0  0  0  0
   -2.3941   -1.0129    0.1252 B   0  0  0  0  0  2  0  0  0  0  0  0
   -1.8274    1.9305   -1.6775 Cl  0  0  0  0  0  0  0  0  0  0  0  0
   -2.3446    1.0216   -0.0721 B   0  0  0  0  0  0  0  0  0  0  0  0
   -2.3428   -2.5987    0.4682 C   0  0  0  0  0  0  0  0  0  0  0  0
   -3.6555   -3.1267    1.0827 C   0  0  0  0  0  0  0  0  0  0  0  0
   -3.9059   -2.5909    2.0213 H   0  0  0  0  0  0  0  0  0  0  0  0
   -3.5519   -4.2051    1.3352 H   0  0  0  0  0  0  0  0  0  0  0  0
   -4.5227   -3.0357    0.4027 H   0  0  0  0  0  0  0  0  0  0  0  0
   -2.0249   -3.3546   -0.8420 C   0  0  0  0  0  0  0  0  0  0  0  0
   -1.0836   -2.9840   -1.3002 H   0  0  0  0  0  0  0  0  0  0  0  0
   -2.8262   -3.2375   -1.5978 H   0  0  0  0  0  0  0  0  0  0  0  0
   -1.9008   -4.4429   -0.6452 H   0  0  0  0  0  0  0  0  0  0  0  0
   -1.2250   -2.9081    1.4921 C   0  0  0  0  0  0  0  0  0  0  0  0
   -0.2183   -2.6530    1.1008 H   0  0  0  0  0  0  0  0  0  0  0  0
   -1.2254   -3.9906    1.7491 H   0  0  0  0  0  0  0  0  0  0  0  0
   -1.3617   -2.3361    2.4329 H   0  0  0  0  0  0  0  0  0  0  0  0
   -4.7573   -0.0851   -0.7387 C   0  0  0  0  0  0  0  0  0  0  0  0
   -5.0768    1.2153   -1.4989 C   0  0  0  0  0  0  0  0  0  0  0  0
   -4.9556    2.1071   -0.8593 H   0  0  0  0  0  0  0  0  0  0  0  0
   -6.1283    1.1848   -1.8477 H   0  0  0  0  0  0  0  0  0  0  0  0
   -4.4136    1.3382   -2.3750 H   0  0  0  0  0  0  0  0  0  0  0  0
   -5.7115   -0.2127    0.4650 C   0  0  0  0  0  0  0  0  0  0  0  0
   -5.5946    0.6509    1.1488 H   0  0  0  0  0  0  0  0  0  0  0  0
   -5.5135   -1.1347    1.0421 H   0  0  0  0  0  0  0  0  0  0  0  0
   -6.7661   -0.2360    0.1224 H   0  0  0  0  0  0  0  0  0  0  0  0
   -4.9667   -1.2494   -1.7247 C   0  0  0  0  0  0  0  0  0  0  0  0
   -4.2650   -1.1557   -2.5769 H   0  0  0  0  0  0  0  0  0  0  0  0
   -6.0016   -1.2325   -2.1216 H   0  0  0  0  0  0  0  0  0  0  0  0
   -4.8046   -2.2342   -1.2514 H   0  0  0  0  0  0  0  0  0  0  0  0
   -2.3837    2.0220    1.2306 C   0  0  0  0  0  0  0  0  0  0  0  0
   -1.0601    2.7962    1.3964 C   0  0  0  0  0  0  0  0  0  0  0  0
   -0.8236    3.3902    0.4916 H   0  0  0  0  0  0  0  0  0  0  0  0
   -0.2014    2.1127    1.5752 H   0  0  0  0  0  0  0  0  0  0  0  0
   -1.1143    3.4921    2.2626 H   0  0  0  0  0  0  0  0  0  0  0  0
   -3.5102    3.0660    1.0765 C   0  0  0  0  0  0  0  0  0  0  0  0
   -3.4073    3.6328    0.1287 H   0  0  0  0  0  0  0  0  0  0  0  0
   -3.4806    3.7979    1.9142 H   0  0  0  0  0  0  0  0  0  0  0  0
   -4.5156    2.5995    1.0919 H   0  0  0  0  0  0  0  0  0  0  0  0
   -2.6386    1.2035    2.5100 C   0  0  0  0  0  0  0  0  0  0  0  0
   -1.8308    0.4581    2.6756 H   0  0  0  0  0  0  0  0  0  0  0  0
   -3.5934    0.6424    2.4594 H   0  0  0  0  0  0  0  0  0  0  0  0
   -2.6804    1.8621    3.4052 H   0  0  0  0  0  0  0  0  0  0  0  0
  1  4  1  0  0  0  0
  1  2  1  0  0  0  0
  2  5  1  0  0  0  0
  3  4  1  0  0  0  0
  4 31  1  0  0  0  0
  5  6  1  0  0  0  0
  5 14  1  0  0  0  0
  6  8  1  0  0  0  0
  6  7  1  0  0  0  0
  9  6  1  0  0  0  0
 10 13  1  0  0  0  0
 10  5  1  0  0  0  0
 11 10  1  0  0  0  0
 12 10  1  0  0  0  0
 14 16  1  0  0  0  0
 14 17  1  0  0  0  0
 15 14  1  0  0  0  0
 18  1  1  0  0  0  0
 18 23  1  0  0  0  0
 19 20  1  0  0  0  0
 19 18  1  0  0  0  0
 21 19  1  0  0  0  0
 22 19  1  0  0  0  0
 23 25  1  0  0  0  0
 23 24  1  0  0  0  0
 26 23  1  0  0  0  0
 27 30  1  0  0  0  0
 27 18  1  0  0  0  0
 28 27  1  0  0  0  0
 29 27  1  0  0  0  0
 31 32  1  0  0  0  0
 31 40  1  0  0  0  0
 32 34  1  0  0  0  0
 32 35  1  0  0  0  0
 33 32  1  0  0  0  0
 36 39  1  0  0  0  0
 36 31  1  0  0  0  0
 36 38  1  0  0  0  0
 37 36  1  0  0  0  0
 40 41  1  0  0  0  0
 40 43  1  0  0  0  0
 42 40  1  0  0  0  0
M  END
