2
 OpenBabel05122313063D

 17 17  0  0  0  0  0  0  0  0999 V2000
   -1.8073   -2.8201   -0.5685 I   0  0  0  0  0  0  0  0  0  0  0  0
   -1.7325   -0.5922    0.3045 B   0  0  0  0  0  0  0  0  0  0  0  0
   -2.3358   -0.5368    2.4640 I   0  0  0  0  0  0  0  0  0  0  0  0
   -2.6917    0.2791   -0.6076 N   0  0  0  0  0  0  0  0  0  0  0  0
   -2.3674    0.3759   -1.9339 C   0  0  0  0  0  3  0  0  0  0  0  0
   -1.4776   -0.2024   -2.2319 H   0  0  0  0  0  0  0  0  0  0  0  0
   -3.0855    1.1759   -2.8079 C   0  0  0  0  0  0  0  0  0  0  0  0
   -2.7731    1.2123   -3.8616 H   0  0  0  0  0  0  0  0  0  0  0  0
   -4.1846    1.9407   -2.3487 C   0  0  0  0  0  0  0  0  0  0  0  0
   -4.5037    1.8184   -0.9854 C   0  0  0  0  0  0  0  0  0  0  0  0
   -5.3462    2.3770   -0.5525 H   0  0  0  0  0  0  0  0  0  0  0  0
   -3.7561    0.9871   -0.1510 C   0  0  0  0  0  0  0  0  0  0  0  0
   -3.9785    0.8642    0.9197 H   0  0  0  0  0  0  0  0  0  0  0  0
   -4.9513    2.8357   -3.2764 C   0  0  0  0  0  0  0  0  0  0  0  0
   -5.3291    2.2667   -4.1507 H   0  0  0  0  0  0  0  0  0  0  0  0
   -4.2940    3.6347   -3.6791 H   0  0  0  0  0  0  0  0  0  0  0  0
   -5.8105    3.3161   -2.7725 H   0  0  0  0  0  0  0  0  0  0  0  0
  1  2  1  0  0  0  0
  2  3  1  0  0  0  0
  4 12  1  0  0  0  0
  4  2  1  0  0  0  0
  5  4  1  0  0  0  0
  6  5  1  0  0  0  0
  7  9  2  0  0  0  0
  7  5  1  0  0  0  0
  8  7  1  0  0  0  0
  9 10  1  0  0  0  0
 10 11  1  0  0  0  0
 10 12  2  0  0  0  0
 12 13  1  0  0  0  0
 14 17  1  0  0  0  0
 14  9  1  0  0  0  0
 15 14  1  0  0  0  0
 16 14  1  0  0  0  0
M  END
