6
 OpenBabel05122313063D

 26 29  0  0  1  0  0  0  0  0999 V2000
   -2.6313    1.5340    0.1784 C   0  0  1  0  0  0  0  0  0  0  0  0
   -3.4461    2.7345    0.6141 C   0  0  0  0  0  0  0  0  0  0  0  0
   -2.6481   -1.4955    0.1464 C   0  0  1  0  0  0  0  0  0  0  0  0
   -3.4780   -2.6950    0.5562 C   0  0  0  0  0  0  0  0  0  0  0  0
   -1.3069    0.0322   -1.7339 B   0  0  0  0  0  2  0  0  0  0  0  0
   -1.2202    1.5379   -0.7380 B   0  0  0  0  0  0  0  0  0  0  0  0
   -2.8028    0.9332   -1.3111 B   0  0  1  0  0  0  0  0  0  0  0  0
   -2.8143   -0.8587   -1.3295 B   0  0  1  0  0  0  0  0  0  0  0  0
   -1.2399   -1.4960   -0.7752 B   0  0  2  0  0  0  0  0  0  0  0  0
   -1.4165    1.0018    1.0315 B   0  0  2  0  0  0  0  0  0  0  0  0
   -3.2706    0.0222    0.2820 B   0  0  0  0  0  0  0  0  0  0  0  0
   -1.4253   -0.9962    1.0049 B   0  0  1  0  0  0  0  0  0  0  0  0
   -4.4914    2.6653    0.2573 H   0  0  0  0  0  0  0  0  0  0  0  0
   -3.0049    3.6564    0.1861 H   0  0  0  0  0  0  0  0  0  0  0  0
   -3.4541    2.8395    1.7169 H   0  0  0  0  0  0  0  0  0  0  0  0
   -3.4853   -2.8258    1.6562 H   0  0  0  0  0  0  0  0  0  0  0  0
   -3.0501   -3.6124    0.1055 H   0  0  0  0  0  0  0  0  0  0  0  0
   -4.5231   -2.6034    0.2039 H   0  0  0  0  0  0  0  0  0  0  0  0
   -0.9222    0.0423   -2.8893 H   0  0  0  0  0  0  0  0  0  0  0  0
   -0.8212    2.6312   -1.0938 H   0  0  0  0  0  0  0  0  0  0  0  0
   -3.5472    1.4980   -2.0797 H   0  0  0  0  0  0  0  0  0  0  0  0
   -3.5658   -1.3979   -2.1095 H   0  0  0  0  0  0  0  0  0  0  0  0
   -0.8544   -2.5837   -1.1581 H   0  0  0  0  0  0  0  0  0  0  0  0
   -1.3032    1.4762    2.1477 H   0  0  0  0  0  0  0  0  0  0  0  0
   -4.3567    0.0224    0.8181 H   0  0  0  0  0  0  0  0  0  0  0  0
   -1.3028   -1.5006    2.1093 H   0  0  0  0  0  0  0  0  0  0  0  0
  1 11  1  0  0  0  0
  1  2  1  1  0  0  0
  1 10  1  0  0  0  0
  2 15  1  0  0  0  0
  3 11  1  0  0  0  0
  3  4  1  1  0  0  0
  3 12  1  0  0  0  0
  4 16  1  0  0  0  0
  5  9  1  0  0  0  0
  6 10  1  0  0  0  0
  7 21  1  6  0  0  0
  7  6  1  0  0  0  0
  7  1  1  0  0  0  0
  8 22  1  6  0  0  0
  8  7  1  0  0  0  0
  8  9  1  0  0  0  0
  8  3  1  0  0  0  0
  9 23  1  6  0  0  0
  9 12  1  0  0  0  0
 10 24  1  1  0  0  0
 11 25  1  0  0  0  0
 12 10  1  0  0  0  0
 12 26  1  1  0  0  0
 13  2  1  0  0  0  0
 14  2  1  0  0  0  0
 17  4  1  0  0  0  0
 18  4  1  0  0  0  0
 19  5  1  0  0  0  0
 20  6  1  0  0  0  0
M  END
