15
 OpenBabel05122313063D

 27 31  0  0  1  0  0  0  0  0999 V2000
   -1.6562    2.5054   -0.4928 B   0  0  1  0  0  0  0  0  0  0  0  0
   -3.1421    0.7624    1.0377 C   0  0  0  0  0  0  0  0  0  0  0  0
   -3.6720    1.6938    1.3210 H   0  0  0  0  0  0  0  0  0  0  0  0
   -2.9074    0.2044    1.9674 H   0  0  0  0  0  0  0  0  0  0  0  0
   -3.7990    0.1147    0.4274 H   0  0  0  0  0  0  0  0  0  0  0  0
   -0.4620    2.2248   -1.7866 B   0  0  0  0  0  0  0  0  0  0  0  0
    0.2810    0.2319    2.6466 C   0  0  0  0  0  0  0  0  0  0  0  0
    0.6413    1.0200    3.3382 H   0  0  0  0  0  0  0  0  0  0  0  0
    0.9593   -0.6427    2.6668 H   0  0  0  0  0  0  0  0  0  0  0  0
   -0.7034   -0.1192    3.0180 H   0  0  0  0  0  0  0  0  0  0  0  0
   -1.8859    1.0793    0.2765 C   0  0  2  0  0  0  0  0  0  0  0  0
   -0.8040    2.1887    1.0665 B   0  0  0  0  0  0  0  0  0  0  0  0
    0.1363    0.7702    1.2485 C   0  0  1  0  0  0  0  0  0  0  0  0
   -0.0162    3.1297   -0.3139 B   0  0  1  0  0  0  0  0  0  0  0  0
   -1.6101    0.9182   -1.3450 B   0  0  0  0  0  0  0  0  0  0  0  0
    0.1753    0.5517   -1.6147 B   0  0  0  0  0  0  0  0  0  0  0  0
    0.9631    2.1153    0.7330 B   0  0  2  0  0  0  0  0  0  0  0  0
    1.1294    1.9863   -1.0449 B   0  0  1  0  0  0  0  0  0  0  0  0
    1.1176    0.5226   -0.0476 B   0  0  1  0  0  0  0  0  0  0  0  0
    0.5316   -0.1132   -2.5646 H   0  0  0  0  0  0  0  0  0  0  0  0
   -2.5945    3.2668   -0.4906 H   0  0  0  0  0  0  0  0  0  0  0  0
    0.1632    4.3244   -0.3032 H   0  0  0  0  0  0  0  0  0  0  0  0
   -0.5640    2.7504   -2.8709 H   0  0  0  0  0  0  0  0  0  0  0  0
   -1.1921    2.7188    2.0805 H   0  0  0  0  0  0  0  0  0  0  0  0
    2.1413    2.3315   -1.6157 H   0  0  0  0  0  0  0  0  0  0  0  0
    1.7466    2.5827    1.5284 H   0  0  0  0  0  0  0  0  0  0  0  0
   -2.4840    0.5494   -2.0872 H   0  0  0  0  0  0  0  0  0  0  0  0
  1 21  1  6  0  0  0
  1 14  1  0  0  0  0
  1 11  1  0  0  0  0
  2  3  1  0  0  0  0
  2  4  1  0  0  0  0
  5  2  1  0  0  0  0
  6 18  1  0  0  0  0
  6  1  1  0  0  0  0
  7  9  1  0  0  0  0
  7 10  1  0  0  0  0
  7  8  1  0  0  0  0
 11  2  1  1  0  0  0
 11 12  1  0  0  0  0
 12 13  1  0  0  0  0
 12 24  1  0  0  0  0
 13  7  1  1  0  0  0
 14 22  1  6  0  0  0
 14 17  1  0  0  0  0
 15 11  1  0  0  0  0
 16 15  1  0  0  0  0
 17 13  1  0  0  0  0
 17 26  1  1  0  0  0
 18 25  1  6  0  0  0
 18 14  1  0  0  0  0
 18 19  1  0  0  0  0
 19 16  1  6  0  0  0
 19 17  1  0  0  0  0
 19 13  1  0  0  0  0
 20 16  1  0  0  0  0
 23  6  1  0  0  0  0
 27 15  1  0  0  0  0
M  END
