1
 OpenBabel05122313063D

 50 52  0  0  0  0  0  0  0  0999 V2000
    0.0001    0.3955    0.0025 B   0  0  0  0  0  1  0  0  0  0  0  0
    0.0005    1.9191    0.0052 C   0  0  0  0  0  0  0  0  0  0  0  0
    0.0011    4.7280    0.0159 C   0  0  0  0  0  0  0  0  0  0  0  0
    0.0014    5.8290    0.0204 H   0  0  0  0  0  0  0  0  0  0  0  0
   -1.2191    4.0328    0.0126 C   0  0  0  0  0  0  0  0  0  0  0  0
   -2.1738    4.5809    0.0139 H   0  0  0  0  0  0  0  0  0  0  0  0
   -1.2355    2.6279    0.0070 C   0  0  0  0  0  0  0  0  0  0  0  0
    1.2210    4.0322    0.0130 C   0  0  0  0  0  0  0  0  0  0  0  0
    2.1759    4.5798    0.0147 H   0  0  0  0  0  0  0  0  0  0  0  0
    1.2368    2.6273    0.0074 C   0  0  0  0  0  0  0  0  0  0  0  0
   -2.5186    1.8618    0.0015 C   0  0  0  0  0  0  0  0  0  0  0  0
   -3.1148    1.4983   -1.2332 C   0  0  0  0  0  0  0  0  0  0  0  0
   -4.3115    0.7630   -1.2148 C   0  0  0  0  0  0  0  0  0  0  0  0
   -4.7677    0.4705   -2.1742 H   0  0  0  0  0  0  0  0  0  0  0  0
   -4.9285    0.3759   -0.0109 C   0  0  0  0  0  0  0  0  0  0  0  0
   -4.3193    0.7545    1.1980 C   0  0  0  0  0  0  0  0  0  0  0  0
   -4.7817    0.4554    2.1522 H   0  0  0  0  0  0  0  0  0  0  0  0
   -3.1219    1.4910    1.2289 C   0  0  0  0  0  0  0  0  0  0  0  0
   -2.4759    1.8555    2.5425 C   0  0  0  0  0  0  0  0  0  0  0  0
   -3.0852    1.5114    3.3993 H   0  0  0  0  0  0  0  0  0  0  0  0
   -2.3263    2.9506    2.6361 H   0  0  0  0  0  0  0  0  0  0  0  0
   -1.4692    1.3965    2.6373 H   0  0  0  0  0  0  0  0  0  0  0  0
   -2.4591    1.8703   -2.5399 C   0  0  0  0  0  0  0  0  0  0  0  0
   -3.0647    1.5359   -3.4032 H   0  0  0  0  0  0  0  0  0  0  0  0
   -1.4540    1.4073   -2.6320 H   0  0  0  0  0  0  0  0  0  0  0  0
   -2.3037    2.9654   -2.6239 H   0  0  0  0  0  0  0  0  0  0  0  0
   -6.1865   -0.4557   -0.0239 C   0  0  0  0  0  0  0  0  0  0  0  0
   -6.7120   -0.4196    0.9501 H   0  0  0  0  0  0  0  0  0  0  0  0
   -5.9526   -1.5214   -0.2348 H   0  0  0  0  0  0  0  0  0  0  0  0
   -6.8905   -0.1191   -0.8113 H   0  0  0  0  0  0  0  0  0  0  0  0
    2.5196    1.8607    0.0020 C   0  0  0  0  0  0  0  0  0  0  0  0
    3.1158    1.4970   -1.2328 C   0  0  0  0  0  0  0  0  0  0  0  0
    4.3120    0.7613   -1.2143 C   0  0  0  0  0  0  0  0  0  0  0  0
    4.7679    0.4683   -2.1737 H   0  0  0  0  0  0  0  0  0  0  0  0
    4.9288    0.3737   -0.0102 C   0  0  0  0  0  0  0  0  0  0  0  0
    4.3195    0.7521    1.1985 C   0  0  0  0  0  0  0  0  0  0  0  0
    4.7814    0.4521    2.1527 H   0  0  0  0  0  0  0  0  0  0  0  0
    3.1224    1.4895    1.2293 C   0  0  0  0  0  0  0  0  0  0  0  0
    2.4764    1.8539    2.5430 C   0  0  0  0  0  0  0  0  0  0  0  0
    3.0850    1.5085    3.3998 H   0  0  0  0  0  0  0  0  0  0  0  0
    1.4690    1.3964    2.6372 H   0  0  0  0  0  0  0  0  0  0  0  0
    2.3284    2.9492    2.6373 H   0  0  0  0  0  0  0  0  0  0  0  0
    2.4599    1.8688   -2.5394 C   0  0  0  0  0  0  0  0  0  0  0  0
    3.0655    1.5344   -3.4027 H   0  0  0  0  0  0  0  0  0  0  0  0
    2.3044    2.9639   -2.6234 H   0  0  0  0  0  0  0  0  0  0  0  0
    1.4548    1.4057   -2.6313 H   0  0  0  0  0  0  0  0  0  0  0  0
    6.1884   -0.4553   -0.0248 C   0  0  0  0  0  0  0  0  0  0  0  0
    6.6846   -0.4647    0.9650 H   0  0  0  0  0  0  0  0  0  0  0  0
    6.9151   -0.0801   -0.7735 H   0  0  0  0  0  0  0  0  0  0  0  0
    5.9643   -1.5096   -0.2947 H   0  0  0  0  0  0  0  0  0  0  0  0
  1  2  1  0  0  0  0
  2  7  2  0  0  0  0
  2 10  1  0  0  0  0
  3  4  1  0  0  0  0
  5  6  1  0  0  0  0
  5  3  2  0  0  0  0
  7  5  1  0  0  0  0
  8  9  1  0  0  0  0
  8  3  1  0  0  0  0
 10  8  2  0  0  0  0
 11  7  1  0  0  0  0
 11 18  1  0  0  0  0
 12 13  1  0  0  0  0
 12 11  2  0  0  0  0
 13 15  2  0  0  0  0
 14 13  1  0  0  0  0
 15 16  1  0  0  0  0
 16 18  2  0  0  0  0
 16 17  1  0  0  0  0
 18 19  1  0  0  0  0
 19 21  1  0  0  0  0
 19 22  1  0  0  0  0
 19 20  1  0  0  0  0
 23 12  1  0  0  0  0
 24 23  1  0  0  0  0
 25 23  1  0  0  0  0
 26 23  1  0  0  0  0
 27 15  1  0  0  0  0
 27 28  1  0  0  0  0
 29 27  1  0  0  0  0
 30 27  1  0  0  0  0
 31 10  1  0  0  0  0
 31 38  1  0  0  0  0
 32 33  1  0  0  0  0
 32 31  2  0  0  0  0
 33 35  2  0  0  0  0
 34 33  1  0  0  0  0
 35 36  1  0  0  0  0
 36 38  2  0  0  0  0
 36 37  1  0  0  0  0
 38 39  1  0  0  0  0
 39 41  1  0  0  0  0
 39 42  1  0  0  0  0
 39 40  1  0  0  0  0
 43 32  1  0  0  0  0
 44 43  1  0  0  0  0
 45 43  1  0  0  0  0
 46 43  1  0  0  0  0
 47 35  1  0  0  0  0
 47 48  1  0  0  0  0
 49 47  1  0  0  0  0
 50 47  1  0  0  0  0
M  END
