13
 OpenBabel05122313063D

 22 25  0  0  1  0  0  0  0  0999 V2000
   -0.5759   -2.6678    1.3316 C   0  0  2  0  0  0  0  0  0  0  0  0
   -0.8822   -3.4063    0.5803 H   0  0  0  0  0  0  0  0  0  0  0  0
    1.0103   -2.3378    1.4009 C   0  0  1  0  0  0  0  0  0  0  0  0
    1.6674   -2.8708    0.6996 H   0  0  0  0  0  0  0  0  0  0  0  0
   -1.5404   -1.3467    1.7678 B   0  0  0  0  0  0  0  0  0  0  0  0
   -2.6858   -1.2577    1.3945 H   0  0  0  0  0  0  0  0  0  0  0  0
   -1.2743   -2.7363    2.8699 B   0  0  1  0  0  0  0  0  0  0  0  0
   -2.1778   -3.5120    3.0691 H   0  0  0  0  0  0  0  0  0  0  0  0
    0.3467   -3.3768    2.5937 B   0  0  2  0  0  0  0  0  0  0  0  0
    0.6057   -4.5515    2.5191 H   0  0  0  0  0  0  0  0  0  0  0  0
    1.2792   -0.7310    1.9036 B   0  0  0  0  0  0  0  0  0  0  0  0
    2.3242   -0.1716    1.6744 H   0  0  0  0  0  0  0  0  0  0  0  0
   -0.3643   -0.0504    2.2081 B   0  0  0  0  0  2  0  0  0  0  0  0
   -0.6531    1.1210    2.2195 H   0  0  0  0  0  0  0  0  0  0  0  0
   -1.1177   -1.0677    3.4717 B   0  0  0  0  0  0  0  0  0  0  0  0
   -1.9288   -0.5929    4.2357 H   0  0  0  0  0  0  0  0  0  0  0  0
    0.0494   -2.3158    3.9900 B   0  0  1  0  0  0  0  0  0  0  0  0
    0.0946   -2.7541    5.1159 H   0  0  0  0  0  0  0  0  0  0  0  0
    1.5216   -2.1276    3.0034 B   0  0  2  0  0  0  0  0  0  0  0  0
    2.6452   -2.4530    3.3022 H   0  0  0  0  0  0  0  0  0  0  0  0
    0.6289   -0.6850    3.5582 B   0  0  1  0  0  0  0  0  0  0  0  0
    1.1017    0.0624    4.3857 H   0  0  0  0  0  0  0  0  0  0  0  0
  1  2  1  6  0  0  0
  1  3  1  0  0  0  0
  1  5  1  0  0  0  0
  1  7  1  0  0  0  0
  3  4  1  6  0  0  0
  3 11  1  0  0  0  0
  3 19  1  0  0  0  0
  5 15  1  0  0  0  0
  6  5  1  0  0  0  0
  7  8  1  1  0  0  0
  7 15  1  0  0  0  0
  9 10  1  1  0  0  0
  9  7  1  0  0  0  0
  9 19  1  0  0  0  0
  9 17  1  0  0  0  0
 11 21  1  0  0  0  0
 12 11  1  0  0  0  0
 13 14  1  0  0  0  0
 13 21  1  0  0  0  0
 15 16  1  0  0  0  0
 17 18  1  1  0  0  0
 19 20  1  1  0  0  0
 19 17  1  0  0  0  0
 21 17  1  0  0  0  0
 21 22  1  1  0  0  0
M  END
