4
 OpenBabel05122313063D

 20 23  0  0  0  0  0  0  0  0999 V2000
    1.9725    1.2975    0.1872 B   0  0  0  0  0  2  0  0  0  0  0  0
    3.7146    0.5300    0.5276 B   0  0  2  0  0  0  0  0  0  0  0  0
    3.5383   -1.3177    0.2992 B   0  0  2  0  0  0  0  0  0  0  0  0
    1.6959   -1.6553   -0.1957 B   0  0  0  0  0  2  0  0  0  0  0  0
    1.6087    0.9489   -1.6048 B   0  0  2  0  0  0  0  0  0  0  0  0
    3.2639    1.2768   -1.0124 B   0  0  1  0  0  0  0  0  0  0  0  0
    4.1828   -0.2735   -0.9654 B   0  0  1  0  0  0  0  0  0  0  0  0
    3.0157   -1.5779   -1.3728 B   0  0  1  0  0  0  0  0  0  0  0  0
    1.4565   -0.8444   -1.8317 B   0  0  2  0  0  0  0  0  0  0  0  0
    2.9699   -0.0100   -2.2262 B   0  0  1  0  0  0  0  0  0  0  0  0
    1.7466    2.2932    0.8357 H   0  0  0  0  0  0  0  0  0  0  0  0
    4.4658    1.0217    1.3365 H   0  0  0  0  0  0  0  0  0  0  0  0
    4.1631   -2.1232    0.9483 H   0  0  0  0  0  0  0  0  0  0  0  0
    1.2993   -2.7371    0.1793 H   0  0  0  0  0  0  0  0  0  0  0  0
    1.1259    1.8080   -2.3146 H   0  0  0  0  0  0  0  0  0  0  0  0
    3.8193    2.3251   -1.2619 H   0  0  0  0  0  0  0  0  0  0  0  0
    5.3679   -0.3493   -1.2023 H   0  0  0  0  0  0  0  0  0  0  0  0
    3.3929   -2.6187   -1.8666 H   0  0  0  0  0  0  0  0  0  0  0  0
    0.8415   -1.4176   -2.7075 H   0  0  0  0  0  0  0  0  0  0  0  0
    3.3259    0.1107   -3.3782 H   0  0  0  0  0  0  0  0  0  0  0  0
  1 11  1  0  0  0  0
  2 12  1  1  0  0  0
  3  2  1  0  0  0  0
  3 13  1  1  0  0  0
  4 14  1  0  0  0  0
  5 15  1  6  0  0  0
  5  6  1  0  0  0  0
  6 16  1  6  0  0  0
  6  1  1  0  0  0  0
  6  2  1  0  0  0  0
  7 17  1  6  0  0  0
  7  3  1  0  0  0  0
  7  2  1  0  0  0  0
  8 18  1  6  0  0  0
  8  4  1  0  0  0  0
  8  3  1  0  0  0  0
  9 19  1  6  0  0  0
  9  5  1  0  0  0  0
  9  8  1  0  0  0  0
 10 20  1  6  0  0  0
 10  9  1  0  0  0  0
 10  5  1  0  0  0  0
 10  7  1  0  0  0  0
M  END
