10
 OpenBabel05122313063D

 20 23  0  0  1  0  0  0  0  0999 V2000
   -4.4992   -0.5489   -1.4208 B   0  0  0  0  0  0  0  0  0  0  0  0
   -4.5598    1.1553   -0.9456 B   0  0  0  0  0  2  0  0  0  0  0  0
   -4.4959    1.2390    0.8208 B   0  0  1  0  0  0  0  0  0  0  0  0
   -4.3832   -0.4065    1.4674 B   0  0  2  0  0  0  0  0  0  0  0  0
   -4.3848   -1.5449    0.0389 B   0  0  2  0  0  0  0  0  0  0  0  0
   -3.0754    0.3805   -1.3251 C   0  0  1  0  0  0  0  0  0  0  0  0
   -3.0731    1.3487   -0.1092 C   0  0  2  0  0  0  0  0  0  0  0  0
   -2.8999    0.5764    1.3333 B   0  0  2  0  0  0  0  0  0  0  0  0
   -2.8971   -1.2349    0.9566 B   0  0  1  0  0  0  0  0  0  0  0  0
   -2.9018   -1.1984   -0.8932 B   0  0  0  0  0  0  0  0  0  0  0  0
   -4.9766   -0.8614   -2.4934 H   0  0  0  0  0  0  0  0  0  0  0  0
   -5.0016    2.0391   -1.6499 H   0  0  0  0  0  0  0  0  0  0  0  0
   -4.9700    2.2161    1.3654 H   0  0  0  0  0  0  0  0  0  0  0  0
   -4.8948   -0.7046    2.5316 H   0  0  0  0  0  0  0  0  0  0  0  0
   -4.8980   -2.6480    0.0929 H   0  0  0  0  0  0  0  0  0  0  0  0
   -2.6371    0.7703   -2.2561 H   0  0  0  0  0  0  0  0  0  0  0  0
   -2.6273    2.3401   -0.2804 H   0  0  0  0  0  0  0  0  0  0  0  0
   -2.4522    1.1732    2.3020 H   0  0  0  0  0  0  0  0  0  0  0  0
   -2.5772   -2.1613    1.6943 H   0  0  0  0  0  0  0  0  0  0  0  0
   -2.4565   -2.0101   -1.6907 H   0  0  0  0  0  0  0  0  0  0  0  0
  1  6  1  0  0  0  0
  1  5  1  0  0  0  0
  2  3  1  0  0  0  0
  3 13  1  1  0  0  0
  3  4  1  0  0  0  0
  4 14  1  1  0  0  0
  5 15  1  6  0  0  0
  5  9  1  0  0  0  0
  6 16  1  6  0  0  0
  6 10  1  0  0  0  0
  6  7  1  0  0  0  0
  7 17  1  6  0  0  0
  7  3  1  0  0  0  0
  7  8  1  0  0  0  0
  8  4  1  0  0  0  0
  8 18  1  1  0  0  0
  9  8  1  0  0  0  0
  9  4  1  0  0  0  0
  9 19  1  1  0  0  0
 10  5  1  0  0  0  0
 11  1  1  0  0  0  0
 12  2  1  0  0  0  0
 20 10  1  0  0  0  0
M  END
