21
 OpenBabel05122313063D

 22 21  0  0  0  0  0  0  0  0999 V2000
    3.2377   -0.0005    1.1370 B   0  0  0  0  0  2  0  0  0  0  0  0
    3.7499   -0.0011    2.2332 H   0  0  0  0  0  0  0  0  0  0  0  0
    3.1993   -1.4219    0.0417 B   0  0  0  0  0  0  0  0  0  0  0  0
    3.7387   -2.4825    0.2601 H   0  0  0  0  0  0  0  0  0  0  0  0
    3.7975   -0.9718   -1.0716 H   0  0  0  0  0  0  0  0  0  0  0  0
    4.2522    0.0001   -0.2502 B   0  0  0  0  0  0  0  0  0  0  0  0
    5.4581    0.0002   -0.3241 H   0  0  0  0  0  0  0  0  0  0  0  0
    3.7974    0.9727   -1.0707 H   0  0  0  0  0  0  0  0  0  0  0  0
    3.1993    1.4218    0.0431 B   0  0  0  0  0  0  0  0  0  0  0  0
    3.7387    2.4823    0.2625 H   0  0  0  0  0  0  0  0  0  0  0  0
    1.7168    0.9162    0.8507 B   0  0  2  0  0  0  0  0  0  0  0  0
    1.4111    1.7163    1.7148 H   0  0  0  0  0  0  0  0  0  0  0  0
    1.7168   -0.9170    0.8498 B   0  0  1  0  0  0  0  0  0  0  0  0
    1.4111   -1.7180    1.7132 H   0  0  0  0  0  0  0  0  0  0  0  0
    1.4584   -1.4654   -0.8404 B   0  0  0  0  0  2  0  0  0  0  0  0
    1.1060   -2.5739   -1.1889 H   0  0  0  0  0  0  0  0  0  0  0  0
    2.0044   -0.9741   -1.9683 H   0  0  0  0  0  0  0  0  0  0  0  0
    1.0838    0.0010   -1.9226 B   0  0  0  0  0  0  0  0  0  0  0  0
    0.5938    0.0015   -3.0340 H   0  0  0  0  0  0  0  0  0  0  0  0
    2.0043    0.9762   -1.9673 H   0  0  0  0  0  0  0  0  0  0  0  0
    1.4583    1.4663   -0.8390 B   0  0  0  0  0  0  0  0  0  0  0  0
    1.1059    2.5751   -1.1863 H   0  0  0  0  0  0  0  0  0  0  0  0
  1  2  1  0  0  0  0
  3  4  1  0  0  0  0
  3 13  1  0  0  0  0
  5  3  1  0  0  0  0
  6  9  1  0  0  0  0
  6  1  1  0  0  0  0
  7  6  1  0  0  0  0
  8  9  1  0  0  0  0
  9 10  1  0  0  0  0
  9 11  1  0  0  0  0
 11 12  1  1  0  0  0
 13 11  1  0  0  0  0
 13 14  1  1  0  0  0
 15 13  1  0  0  0  0
 16 15  1  0  0  0  0
 17 18  1  0  0  0  0
 18 21  1  0  0  0  0
 19 18  1  0  0  0  0
 20 18  1  0  0  0  0
 21 11  1  0  0  0  0
 22 21  1  0  0  0  0
M  END
