16
 OpenBabel05122313063D

 19 22  0  0  1  0  0  0  0  0999 V2000
   -0.8122   -1.4714    0.0007 C   0  0  1  0  0  0  0  0  0  0  0  0
   -0.3556   -2.7629    0.0012 O   0  0  0  0  0  0  0  0  0  0  0  0
   -1.1333   -3.3567    0.0008 H   0  0  0  0  0  0  0  0  0  0  0  0
   -1.2300   -0.5408   -1.3276 B   0  0  2  0  0  0  0  0  0  0  0  0
   -1.0982   -1.0390   -2.4198 H   0  0  0  0  0  0  0  0  0  0  0  0
   -2.3772   -1.1566    0.0006 B   0  0  2  0  0  0  0  0  0  0  0  0
   -3.0942   -2.1348    0.0012 H   0  0  0  0  0  0  0  0  0  0  0  0
   -1.2296   -0.5395    1.3279 B   0  0  2  0  0  0  0  0  0  0  0  0
   -1.0972   -1.0364    2.4206 H   0  0  0  0  0  0  0  0  0  0  0  0
   -1.1976    1.2376   -1.0080 B   0  0  0  0  0  0  0  0  0  0  0  0
   -0.9067    2.0724   -1.8317 H   0  0  0  0  0  0  0  0  0  0  0  0
   -2.7690    0.3280   -0.9206 B   0  0  1  0  0  0  0  0  0  0  0  0
   -3.7118    0.3498   -1.6735 H   0  0  0  0  0  0  0  0  0  0  0  0
   -2.7686    0.3290    0.9207 B   0  0  1  0  0  0  0  0  0  0  0  0
   -3.7110    0.3515    1.6740 H   0  0  0  0  0  0  0  0  0  0  0  0
   -1.1972    1.2388    1.0066 B   0  0  0  0  0  2  0  0  0  0  0  0
   -0.9060    2.0743    1.8295 H   0  0  0  0  0  0  0  0  0  0  0  0
   -2.4031    1.5934   -0.0007 C   0  0  1  0  0  0  0  0  0  0  0  0
   -2.9492    2.5417   -0.0011 H   0  0  0  0  0  0  0  0  0  0  0  0
  1  2  1  1  0  0  0
  1  8  1  0  0  0  0
  3  2  1  0  0  0  0
  4  5  1  6  0  0  0
  4 10  1  0  0  0  0
  4 12  1  0  0  0  0
  4  1  1  0  0  0  0
  6  1  1  0  0  0  0
  6  7  1  1  0  0  0
  6 14  1  0  0  0  0
  8  9  1  1  0  0  0
 10 18  1  0  0  0  0
 11 10  1  0  0  0  0
 12 13  1  6  0  0  0
 12 18  1  0  0  0  0
 12  6  1  0  0  0  0
 14  8  1  0  0  0  0
 14 15  1  1  0  0  0
 16  8  1  0  0  0  0
 16 17  1  0  0  0  0
 18 19  1  6  0  0  0
 18 14  1  0  0  0  0
M  END
