23
 OpenBabel05122313063D

 23 24  0  0  0  0  0  0  0  0999 V2000
   -0.5212   -1.2724   -2.2342 F   0  0  0  0  0  0  0  0  0  0  0  0
    0.8768   -1.2478    2.1984 F   0  0  0  0  0  0  0  0  0  0  0  0
   -4.1982   -1.7769    1.7827 F   0  0  0  0  0  0  0  0  0  0  0  0
   -2.1585   -0.0200    2.0511 F   0  0  0  0  0  0  0  0  0  0  0  0
    4.4241   -0.9183   -1.9567 F   0  0  0  0  0  0  0  0  0  0  0  0
    2.0483    0.4010   -2.0977 F   0  0  0  0  0  0  0  0  0  0  0  0
    5.0458   -2.3830    0.2697 F   0  0  0  0  0  0  0  0  0  0  0  0
   -2.5851   -3.0304   -2.5028 F   0  0  0  0  0  0  0  0  0  0  0  0
    3.2742   -2.5487    2.3519 F   0  0  0  0  0  0  0  0  0  0  0  0
   -4.4298   -3.2849   -0.4911 F   0  0  0  0  0  0  0  0  0  0  0  0
    2.9679   -1.8265    1.2703 C   0  0  0  0  0  0  0  0  0  0  0  0
    1.7430   -1.1491    1.1712 C   0  0  0  0  0  0  0  0  0  0  0  0
    2.3302   -0.3095   -0.9907 C   0  0  0  0  0  0  0  0  0  0  0  0
    1.3975   -0.3675    0.0569 C   0  0  0  0  0  0  0  0  0  0  0  0
    3.8776   -1.7420    0.2012 C   0  0  0  0  0  0  0  0  0  0  0  0
   -1.4077   -1.3947   -1.2255 C   0  0  0  0  0  0  0  0  0  0  0  0
   -2.2264   -0.7493    0.9224 C   0  0  0  0  0  0  0  0  0  0  0  0
   -3.2948   -1.6538    0.8060 C   0  0  0  0  0  0  0  0  0  0  0  0
   -3.4144   -2.4302   -0.3597 C   0  0  0  0  0  0  0  0  0  0  0  0
    3.5593   -0.9849   -0.9404 C   0  0  0  0  0  0  0  0  0  0  0  0
   -1.2530   -0.5970   -0.0783 C   0  0  0  0  0  0  0  0  0  0  0  0
   -2.4653   -2.3017   -1.3896 C   0  0  0  0  0  0  0  0  0  0  0  0
   -0.0012    0.3723    0.0163 B   0  0  0  0  0  0  0  0  0  0  0  0
  1 16  1  0  0  0  0
  5 20  1  0  0  0  0
  6 13  1  0  0  0  0
  8 22  1  0  0  0  0
 10 19  1  0  0  0  0
 11  9  1  0  0  0  0
 12 11  1  0  0  0  0
 12  2  1  0  0  0  0
 13 20  2  0  0  0  0
 13 14  1  0  0  0  0
 14 12  2  0  0  0  0
 15  7  1  0  0  0  0
 15 11  2  0  0  0  0
 16 21  1  0  0  0  0
 17  4  1  0  0  0  0
 18 17  1  0  0  0  0
 18  3  1  0  0  0  0
 19 18  2  0  0  0  0
 20 15  1  0  0  0  0
 21 23  1  0  0  0  0
 21 17  2  0  0  0  0
 22 16  2  0  0  0  0
 22 19  1  0  0  0  0
 23 14  1  0  0  0  0
M  END
