2
 OpenBabel05122313063D

 25 25  0  0  0  0  0  0  0  0999 V2000
    0.8734    1.4943    2.3874 Cl  0  0  0  0  0  0  0  0  0  0  0  0
    0.9367    0.5334    0.8543 B   0  0  0  0  0  2  0  0  0  0  0  0
    2.3988    0.2605    0.3280 C   0  0  0  0  0  0  0  0  0  0  0  0
    2.9954    1.1186   -0.6299 C   0  0  0  0  0  0  0  0  0  0  0  0
    4.2722    0.8081   -1.1581 C   0  0  0  0  0  0  0  0  0  0  0  0
    4.9313   -0.3454   -0.7025 C   0  0  0  0  0  0  0  0  0  0  0  0
    5.9239   -0.5900   -1.1162 H   0  0  0  0  0  0  0  0  0  0  0  0
    4.3790   -1.1876    0.2766 C   0  0  0  0  0  0  0  0  0  0  0  0
    3.1020   -0.8772    0.8049 C   0  0  0  0  0  0  0  0  0  0  0  0
    2.2997    2.3837   -1.0679 C   0  0  0  0  0  0  0  0  0  0  0  0
    2.1055    2.4022   -2.1607 H   0  0  0  0  0  0  0  0  0  0  0  0
    2.9149    3.2802   -0.8400 H   0  0  0  0  0  0  0  0  0  0  0  0
    1.3304    2.5216   -0.5547 H   0  0  0  0  0  0  0  0  0  0  0  0
    4.9187    1.7060   -2.1822 C   0  0  0  0  0  0  0  0  0  0  0  0
    5.9009    1.3098   -2.5047 H   0  0  0  0  0  0  0  0  0  0  0  0
    5.0812    2.7314   -1.7859 H   0  0  0  0  0  0  0  0  0  0  0  0
    4.2851    1.8227   -3.0873 H   0  0  0  0  0  0  0  0  0  0  0  0
    5.1373   -2.3979    0.7593 C   0  0  0  0  0  0  0  0  0  0  0  0
    4.5684   -3.3361    0.5838 H   0  0  0  0  0  0  0  0  0  0  0  0
    5.3324   -2.3541    1.8522 H   0  0  0  0  0  0  0  0  0  0  0  0
    6.1135   -2.4936    0.2459 H   0  0  0  0  0  0  0  0  0  0  0  0
    2.5217   -1.7574    1.8876 C   0  0  0  0  0  0  0  0  0  0  0  0
    2.4561   -2.8187    1.5682 H   0  0  0  0  0  0  0  0  0  0  0  0
    1.5089   -1.4371    2.1971 H   0  0  0  0  0  0  0  0  0  0  0  0
    3.1554   -1.7397    2.8000 H   0  0  0  0  0  0  0  0  0  0  0  0
  2  1  1  0  0  0  0
  3  9  1  0  0  0  0
  3  2  1  0  0  0  0
  4  3  2  0  0  0  0
  5  6  2  0  0  0  0
  5  4  1  0  0  0  0
  6  8  1  0  0  0  0
  7  6  1  0  0  0  0
  8 18  1  0  0  0  0
  8  9  2  0  0  0  0
  9 22  1  0  0  0  0
 10 12  1  0  0  0  0
 10  4  1  0  0  0  0
 10 13  1  0  0  0  0
 11 10  1  0  0  0  0
 14 16  1  0  0  0  0
 14  5  1  0  0  0  0
 15 14  1  0  0  0  0
 17 14  1  0  0  0  0
 18 20  1  0  0  0  0
 19 18  1  0  0  0  0
 21 18  1  0  0  0  0
 22 24  1  0  0  0  0
 22 25  1  0  0  0  0
 23 22  1  0  0  0  0
M  END
