1
 OpenBabel05122313063D

 10  9  0  0  0  0  0  0  0  0999 V2000
   -1.5340    0.1493    0.0522 B   0  0  0  0  0  1  0  0  0  0  0  0
   -2.8607    0.2410   -0.3268 N   0  0  0  0  0  0  0  0  0  0  0  0
   -3.7566   -0.9130   -0.2581 C   0  0  0  0  0  0  0  0  0  0  0  0
   -3.4816    1.4917   -0.7558 C   0  0  0  0  0  0  0  0  0  0  0  0
   -4.6048   -0.7072    0.4297 H   0  0  0  0  0  0  0  0  0  0  0  0
   -4.1750   -1.1516   -1.2599 H   0  0  0  0  0  0  0  0  0  0  0  0
   -3.2118   -1.7993    0.1173 H   0  0  0  0  0  0  0  0  0  0  0  0
   -4.3103    1.7747   -0.0719 H   0  0  0  0  0  0  0  0  0  0  0  0
   -3.8976    1.3955   -1.7818 H   0  0  0  0  0  0  0  0  0  0  0  0
   -2.7384    2.3106   -0.7538 H   0  0  0  0  0  0  0  0  0  0  0  0
  2  3  1  0  0  0  0
  2  1  1  0  0  0  0
  3  7  1  0  0  0  0
  3  5  1  0  0  0  0
  4 10  1  0  0  0  0
  4  2  1  0  0  0  0
  4  8  1  0  0  0  0
  6  3  1  0  0  0  0
  9  4  1  0  0  0  0
M  END
