8
 OpenBabel05122313063D

 36 38  0  0  1  0  0  0  0  0999 V2000
    0.0766    2.3370    0.6036 C   0  0  1  0  0  0  0  0  0  0  0  0
   -0.9419    2.2885    1.0147 H   0  0  0  0  0  0  0  0  0  0  0  0
    1.3583    1.5533    1.3996 B   0  0  0  0  0  0  0  0  0  0  0  0
    1.2301    0.9594    2.4467 H   0  0  0  0  0  0  0  0  0  0  0  0
    2.5926    1.2935    0.1142 B   0  0  2  0  0  0  0  0  0  0  0  0
    1.9552    1.8596   -1.4761 B   0  0  0  0  0  2  0  0  0  0  0  0
    2.3494    1.4840   -2.5604 H   0  0  0  0  0  0  0  0  0  0  0  0
    0.2891    2.4933   -1.0878 B   0  0  0  0  0  0  0  0  0  0  0  0
   -0.6720    2.6038   -1.8139 H   0  0  0  0  0  0  0  0  0  0  0  0
    1.1172    3.3055    1.5396 B   0  0  1  0  0  0  0  0  0  0  0  0
    0.7264    3.7457    2.5958 H   0  0  0  0  0  0  0  0  0  0  0  0
    2.7473    2.6742    1.2283 B   0  0  0  0  0  0  0  0  0  0  0  0
    3.6215    2.6646    2.0684 H   0  0  0  0  0  0  0  0  0  0  0  0
    3.0955    2.8819   -0.5172 B   0  0  1  0  0  0  0  0  0  0  0  0
    4.2313    3.0423   -0.9113 H   0  0  0  0  0  0  0  0  0  0  0  0
    1.6660    3.6147   -1.2749 B   0  0  0  0  0  0  0  0  0  0  0  0
    1.7393    4.3466   -2.2370 H   0  0  0  0  0  0  0  0  0  0  0  0
    0.4557    3.8853    0.0026 B   0  0  2  0  0  0  0  0  0  0  0  0
   -0.4049    4.7338   -0.0081 H   0  0  0  0  0  0  0  0  0  0  0  0
    2.1842    4.1244    0.3619 B   0  0  0  0  0  0  0  0  0  0  0  0
    2.6352    5.2242    0.5921 H   0  0  0  0  0  0  0  0  0  0  0  0
    3.6784    0.2831    0.2541 N   0  0  0  0  0  2  0  0  0  0  0  0
    4.4917   -0.5489    0.3226 C   0  0  0  0  0  2  0  0  0  0  0  0
    5.4283   -1.6748    0.3694 C   0  0  0  0  0  0  0  0  0  0  0  0
    5.9216   -1.9298   -1.0764 C   0  0  0  0  0  0  0  0  0  0  0  0
    5.0718   -2.1571   -1.7481 H   0  0  0  0  0  0  0  0  0  0  0  0
    6.6109   -2.7973   -1.0653 H   0  0  0  0  0  0  0  0  0  0  0  0
    6.4675   -1.0531   -1.4754 H   0  0  0  0  0  0  0  0  0  0  0  0
    6.6044   -1.3164    1.3059 C   0  0  0  0  0  0  0  0  0  0  0  0
    6.2522   -1.1145    2.3361 H   0  0  0  0  0  0  0  0  0  0  0  0
    7.1535   -0.4271    0.9405 H   0  0  0  0  0  0  0  0  0  0  0  0
    7.3072   -2.1723    1.3386 H   0  0  0  0  0  0  0  0  0  0  0  0
    4.6437   -2.9005    0.9018 C   0  0  0  0  0  0  0  0  0  0  0  0
    4.2544   -2.7196    1.9224 H   0  0  0  0  0  0  0  0  0  0  0  0
    5.3283   -3.7713    0.9343 H   0  0  0  0  0  0  0  0  0  0  0  0
    3.7915   -3.1433    0.2388 H   0  0  0  0  0  0  0  0  0  0  0  0
  1  2  1  1  0  0  0
  1  3  1  0  0  0  0
  1 10  1  0  0  0  0
  3 10  1  0  0  0  0
  3  4  1  0  0  0  0
  5  6  1  6  0  0  0
  5 22  1  0  0  0  0
  5 12  1  0  0  0  0
  7  6  1  0  0  0  0
  8 18  1  0  0  0  0
  9  8  1  0  0  0  0
 10 11  1  1  0  0  0
 12 13  1  0  0  0  0
 14 15  1  6  0  0  0
 14  5  1  0  0  0  0
 14 20  1  0  0  0  0
 16  8  1  0  0  0  0
 16 14  1  0  0  0  0
 17 16  1  0  0  0  0
 18 19  1  6  0  0  0
 18  1  1  0  0  0  0
 18 10  1  0  0  0  0
 20 21  1  0  0  0  0
 20 12  1  0  0  0  0
 22 23  1  0  0  0  0
 23 24  1  0  0  0  0
 24 33  1  0  0  0  0
 24 29  1  0  0  0  0
 25 27  1  0  0  0  0
 25 24  1  0  0  0  0
 26 25  1  0  0  0  0
 28 25  1  0  0  0  0
 29 32  1  0  0  0  0
 29 30  1  0  0  0  0
 31 29  1  0  0  0  0
 33 35  1  0  0  0  0
 33 34  1  0  0  0  0
 36 33  1  0  0  0  0
M  END
