24
 OpenBabel05122313063D

 24 25  0  0  0  0  0  0  0  0999 V2000
    2.0983   -1.8509   -2.4471 C   0  0  0  0  0  0  0  0  0  0  0  0
    1.8240   -1.0917   -3.2003 H   0  0  0  0  0  0  0  0  0  0  0  0
    3.4624   -2.1786   -2.3332 C   0  0  0  0  0  0  0  0  0  0  0  0
    4.2059   -1.6726   -2.9755 H   0  0  0  0  0  0  0  0  0  0  0  0
    3.9252   -3.1617   -1.4343 C   0  0  0  0  0  3  0  0  0  0  0  0
    5.0014   -3.3903   -1.3906 H   0  0  0  0  0  0  0  0  0  0  0  0
    3.0354   -3.8631   -0.5944 C   0  0  0  0  0  0  0  0  0  0  0  0
    3.4558   -4.6307    0.0802 H   0  0  0  0  0  0  0  0  0  0  0  0
    1.6495   -3.6278   -0.6206 C   0  0  0  0  0  0  0  0  0  0  0  0
    1.0153   -4.2465    0.0360 H   0  0  0  0  0  0  0  0  0  0  0  0
   -0.4120   -2.2211   -1.5797 C   0  0  0  0  0  0  0  0  0  0  0  0
   -1.6134   -1.9005   -1.5379 C   0  0  0  0  0  0  0  0  0  0  0  0
   -3.0006   -1.5768   -1.5667 C   0  0  0  0  0  0  0  0  0  0  0  0
   -3.5099   -0.6703   -2.5348 C   0  0  0  0  0  0  0  0  0  0  0  0
   -2.8171   -0.2221   -3.2623 H   0  0  0  0  0  0  0  0  0  0  0  0
   -4.8744   -0.3616   -2.5706 C   0  0  0  0  0  0  0  0  0  0  0  0
   -5.2533    0.3492   -3.3203 H   0  0  0  0  0  0  0  0  0  0  0  0
   -5.7582   -0.9523   -1.6532 C   0  0  0  0  0  0  0  0  0  0  0  0
   -6.8273   -0.6943   -1.6709 H   0  0  0  0  0  0  0  0  0  0  0  0
   -5.2681   -1.8550   -0.6952 C   0  0  0  0  0  0  0  0  0  0  0  0
   -5.9570   -2.3110    0.0309 H   0  0  0  0  0  0  0  0  0  0  0  0
   -3.9053   -2.1636   -0.6441 C   0  0  0  0  0  0  0  0  0  0  0  0
   -3.5172   -2.8585    0.1135 H   0  0  0  0  0  0  0  0  0  0  0  0
    1.0763   -2.6145   -1.6071 B   0  0  0  0  0  0  0  0  0  0  0  0
  1  3  2  0  0  0  0
  1 24  1  0  0  0  0
  2  1  1  0  0  0  0
  3  5  1  0  0  0  0
  4  3  1  0  0  0  0
  5  6  1  0  0  0  0
  5  7  1  0  0  0  0
  7  8  1  0  0  0  0
  9  7  2  0  0  0  0
  9 10  1  0  0  0  0
 11 12  3  0  0  0  0
 13 12  1  0  0  0  0
 13 22  1  0  0  0  0
 14 13  2  0  0  0  0
 15 14  1  0  0  0  0
 16 14  1  0  0  0  0
 16 18  2  0  0  0  0
 17 16  1  0  0  0  0
 18 20  1  0  0  0  0
 19 18  1  0  0  0  0
 20 22  2  0  0  0  0
 20 21  1  0  0  0  0
 22 23  1  0  0  0  0
 24 11  1  0  0  0  0
 24  9  1  0  0  0  0
M  END
