18
 OpenBabel05122313063D

 25 30  0  0  0  0  0  0  0  0999 V2000
   -0.9286    1.4785    0.0005 Si  0  0  2  0  0  0  0  0  0  0  0  0
   -0.9072    0.0771    1.5911 B   0  0  0  0  0  0  0  0  0  0  0  0
   -0.5574    0.4691    2.6873 H   0  0  0  0  0  0  0  0  0  0  0  0
   -2.5413    0.6579    0.9330 B   0  0  0  0  0  0  0  0  0  0  0  0
   -3.2044    1.4625    1.5628 H   0  0  0  0  0  0  0  0  0  0  0  0
   -2.5415    0.6583   -0.9322 B   0  0  0  0  0  0  0  0  0  0  0  0
   -3.2047    1.4633   -1.5613 H   0  0  0  0  0  0  0  0  0  0  0  0
   -0.9076    0.0779   -1.5910 B   0  0  2  0  0  0  0  0  0  0  0  0
   -0.5579    0.4704   -2.6871 H   0  0  0  0  0  0  0  0  0  0  0  0
   -0.6749   -1.5975    0.9404 B   0  0  0  0  0  0  0  0  0  0  0  0
   -0.1556   -2.4788    1.5993 H   0  0  0  0  0  0  0  0  0  0  0  0
   -2.2891   -1.0206    1.4532 B   0  0  0  0  0  0  0  0  0  0  0  0
   -2.7974   -1.4307    2.4789 H   0  0  0  0  0  0  0  0  0  0  0  0
   -3.2663   -0.6728    0.0002 B   0  0  1  0  0  0  0  0  0  0  0  0
   -4.4726   -0.8280    0.0003 H   0  0  0  0  0  0  0  0  0  0  0  0
   -2.2895   -1.0198   -1.4533 B   0  0  1  0  0  0  0  0  0  0  0  0
   -2.7981   -1.4295   -2.4790 H   0  0  0  0  0  0  0  0  0  0  0  0
   -0.6752   -1.5969   -0.9411 B   0  0  0  0  0  0  0  0  0  0  0  0
   -0.1566   -2.4780   -1.6008 H   0  0  0  0  0  0  0  0  0  0  0  0
   -2.1207   -2.0443   -0.0003 B   0  0  0  0  0  0  0  0  0  0  0  0
   -2.5091   -3.1963   -0.0006 H   0  0  0  0  0  0  0  0  0  0  0  0
   -0.6923    3.3459    0.0012 C   0  0  0  0  0  0  0  0  0  0  0  0
   -0.1201    3.6520   -0.8968 H   0  0  0  0  0  0  0  0  0  0  0  0
   -0.1232    3.6516    0.9013 H   0  0  0  0  0  0  0  0  0  0  0  0
   -1.6740    3.8579   -0.0004 H   0  0  0  0  0  0  0  0  0  0  0  0
  1 22  1  1  0  0  0
  1  4  1  0  0  0  0
  1  6  1  0  0  0  0
  1  2  1  0  0  0  0
  2  3  1  0  0  0  0
  4 12  1  0  0  0  0
  4  5  1  0  0  0  0
  4  2  1  0  0  0  0
  6 14  1  0  0  0  0
  7  6  1  0  0  0  0
  8  9  1  6  0  0  0
  8 16  1  0  0  0  0
  8 18  1  0  0  0  0
  8  6  1  0  0  0  0
 10  2  1  0  0  0  0
 10 11  1  0  0  0  0
 12  2  1  0  0  0  0
 12 13  1  0  0  0  0
 14 15  1  1  0  0  0
 14  4  1  0  0  0  0
 16 17  1  6  0  0  0
 16  6  1  0  0  0  0
 16 14  1  0  0  0  0
 18 20  1  0  0  0  0
 19 18  1  0  0  0  0
 20 10  1  0  0  0  0
 21 20  1  0  0  0  0
 22 24  1  0  0  0  0
 23 22  1  0  0  0  0
 25 22  1  0  0  0  0
M  ZBO  3   2   0   3   0   4   0
M  END
