5
 OpenBabel05122313063D

 16 15  0  0  0  0  0  0  0  0999 V2000
   -3.0257    1.4103    0.2055 P   0  0  0  0  0  4  0  0  0  0  0  0
   -4.3614    0.1727    0.4089 C   0  0  0  0  0  0  0  0  0  0  0  0
   -3.0893    1.9196   -1.5539 C   0  0  0  0  0  0  0  0  0  0  0  0
   -3.6360    2.8857    1.1186 C   0  0  0  0  0  0  0  0  0  0  0  0
   -1.3357    0.8574    0.8970 B   0  0  0  0  0  0  0  0  0  0  0  0
   -1.6154    0.5272    2.0466 H   0  0  0  0  0  0  0  0  0  0  0  0
   -0.6070    1.8461    0.8598 H   0  0  0  0  0  0  0  0  0  0  0  0
   -4.3384   -0.2003    1.4511 H   0  0  0  0  0  0  0  0  0  0  0  0
   -4.1839   -0.6773   -0.2755 H   0  0  0  0  0  0  0  0  0  0  0  0
   -5.3517    0.6183    0.1912 H   0  0  0  0  0  0  0  0  0  0  0  0
   -4.0686    2.3765   -1.7969 H   0  0  0  0  0  0  0  0  0  0  0  0
   -2.2752    2.6441   -1.7466 H   0  0  0  0  0  0  0  0  0  0  0  0
   -2.9281    1.0345   -2.1970 H   0  0  0  0  0  0  0  0  0  0  0  0
   -3.6877    2.6402    2.1971 H   0  0  0  0  0  0  0  0  0  0  0  0
   -2.9110    3.7116    0.9841 H   0  0  0  0  0  0  0  0  0  0  0  0
   -4.6351    3.2052    0.7608 H   0  0  0  0  0  0  0  0  0  0  0  0
  1  2  1  0  0  0  0
  1  5  1  0  0  0  0
  1  4  1  0  0  0  0
  2  8  1  0  0  0  0
  3  1  1  0  0  0  0
  4 14  1  0  0  0  0
  5  6  1  0  0  0  0
  7  5  1  0  0  0  0
  9  2  1  0  0  0  0
 10  2  1  0  0  0  0
 11  3  1  0  0  0  0
 12  3  1  0  0  0  0
 13  3  1  0  0  0  0
 15  4  1  0  0  0  0
 16  4  1  0  0  0  0
M  END
