6
 OpenBabel05122313063D

 26 29  0  0  1  0  0  0  0  0999 V2000
   -4.2931   -1.1600    0.0000 B   0  0  0  0  0  0  0  0  0  0  0  0
   -4.1305    0.6026   -0.0000 B   0  0  1  0  0  0  0  0  0  0  0  0
   -3.5910   -0.3106   -1.4138 B   0  0  0  0  0  0  0  0  0  0  0  0
   -2.9317   -1.8866   -0.8930 B   0  0  1  0  0  0  0  0  0  0  0  0
   -2.6254    0.8795   -0.7631 C   0  0  1  0  0  0  0  0  0  0  0  0
   -1.7942   -0.5483   -1.3651 B   0  0  0  0  0  0  0  0  0  0  0  0
   -1.4324   -1.6929    0.0000 B   0  0  1  0  0  0  0  0  0  0  0  0
   -2.3607    2.1766   -1.5002 C   0  0  0  0  0  0  0  0  0  0  0  0
   -5.4012   -1.6516    0.0000 H   0  0  0  0  0  0  0  0  0  0  0  0
   -4.9793    1.4641   -0.0000 H   0  0  0  0  0  0  0  0  0  0  0  0
   -4.0997   -0.1133   -2.4952 H   0  0  0  0  0  0  0  0  0  0  0  0
   -3.1097   -2.8633   -1.5913 H   0  0  0  0  0  0  0  0  0  0  0  0
   -1.3454   -0.4885   -2.4906 H   0  0  0  0  0  0  0  0  0  0  0  0
   -0.6594   -2.6340    0.0000 H   0  0  0  0  0  0  0  0  0  0  0  0
   -3.0998    2.9582   -1.2326 H   0  0  0  0  0  0  0  0  0  0  0  0
   -1.3485    2.5603   -1.2654 H   0  0  0  0  0  0  0  0  0  0  0  0
   -2.4143    2.0063   -2.5911 H   0  0  0  0  0  0  0  0  0  0  0  0
   -3.5910   -0.3106    1.4138 B   0  0  0  0  0  0  0  0  0  0  0  0
   -2.9317   -1.8866    0.8930 B   0  0  1  0  0  0  0  0  0  0  0  0
   -2.6254    0.8795    0.7631 C   0  0  2  0  0  0  0  0  0  0  0  0
   -4.0997   -0.1133    2.4952 H   0  0  0  0  0  0  0  0  0  0  0  0
   -3.1097   -2.8632    1.5913 H   0  0  0  0  0  0  0  0  0  0  0  0
   -2.3607    2.1767    1.5002 C   0  0  0  0  0  0  0  0  0  0  0  0
   -3.0998    2.9582    1.2326 H   0  0  0  0  0  0  0  0  0  0  0  0
   -1.3485    2.5603    1.2654 H   0  0  0  0  0  0  0  0  0  0  0  0
   -2.4143    2.0063    2.5911 H   0  0  0  0  0  0  0  0  0  0  0  0
  1  9  1  0  0  0  0
  1 19  1  0  0  0  0
  2 10  1  1  0  0  0
  2 20  1  0  0  0  0
  2 18  1  0  0  0  0
  3  6  1  0  0  0  0
  3  5  1  0  0  0  0
  4 12  1  6  0  0  0
  4  1  1  0  0  0  0
  4  7  1  0  0  0  0
  4 19  1  0  0  0  0
  5  8  1  6  0  0  0
  5  2  1  0  0  0  0
  5 20  1  0  0  0  0
  6  7  1  0  0  0  0
  7 14  1  1  0  0  0
  7 19  1  0  0  0  0
  8 16  1  0  0  0  0
  8 15  1  0  0  0  0
 11  3  1  0  0  0  0
 13  6  1  0  0  0  0
 17  8  1  0  0  0  0
 18 21  1  0  0  0  0
 19 22  1  1  0  0  0
 20 18  1  0  0  0  0
 20 23  1  1  0  0  0
 23 26  1  0  0  0  0
 24 23  1  0  0  0  0
 25 23  1  0  0  0  0
M  END
