15
 OpenBabel05122313063D

 16 16  0  0  0  0  0  0  0  0999 V2000
    1.7460   -0.8714    0.8655 B   0  0  1  0  0  0  0  0  0  0  0  0
    1.4337   -1.8350    1.5365 H   0  0  0  0  0  0  0  0  0  0  0  0
    3.3922   -0.9117    0.2202 B   0  0  2  0  0  0  0  0  0  0  0  0
    4.1517   -1.8230    0.4607 H   0  0  0  0  0  0  0  0  0  0  0  0
    2.9896    0.1711    1.5757 B   0  0  1  0  0  0  0  0  0  0  0  0
    3.5088   -0.0747    2.6412 H   0  0  0  0  0  0  0  0  0  0  0  0
    2.3180   -0.2195   -1.8852 H   0  0  0  0  0  0  0  0  0  0  0  0
    3.5160   -0.1906   -1.3472 B   0  0  0  0  0  0  0  0  0  0  0  0
    4.3597   -0.5627   -2.1297 H   0  0  0  0  0  0  0  0  0  0  0  0
    3.5129    1.0851   -1.3163 H   0  0  0  0  0  0  0  0  0  0  0  0
    3.0964    2.1757    0.0286 H   0  0  0  0  0  0  0  0  0  0  0  0
    2.7520    1.8423    1.2049 B   0  0  0  0  0  0  0  0  0  0  0  0
    3.1125    2.6954    1.9839 H   0  0  0  0  0  0  0  0  0  0  0  0
    1.4842    1.9672    0.8733 H   0  0  0  0  0  0  0  0  0  0  0  0
    1.2882    0.7434    1.4610 B   0  0  0  0  0  2  0  0  0  0  0  0
    0.7009    0.9506    2.5070 H   0  0  0  0  0  0  0  0  0  0  0  0
  1 15  1  0  0  0  0
  1  2  1  1  0  0  0
  1  5  1  0  0  0  0
  3  4  1  1  0  0  0
  3  1  1  0  0  0  0
  3  5  1  0  0  0  0
  5  6  1  1  0  0  0
  7  8  1  0  0  0  0
  8 10  1  0  0  0  0
  8  3  1  0  0  0  0
  9  8  1  0  0  0  0
 11 12  1  0  0  0  0
 12  5  1  0  0  0  0
 12 13  1  0  0  0  0
 14 12  1  0  0  0  0
 15 16  1  0  0  0  0
M  END
