1
 OpenBabel05122313063D

 19 19  0  0  0  0  0  0  0  0999 V2000
    2.3177    0.2603   -0.4713 B   0  0  0  0  0  2  0  0  0  0  0  0
    1.7743    1.1930   -1.6720 C   0  0  0  0  0  0  0  0  0  0  0  0
    2.4753    2.5626   -1.6771 C   0  0  0  0  0  0  0  0  0  0  0  0
    3.8205   -0.0499   -0.2333 C   0  0  0  0  0  0  0  0  0  0  0  0
    4.3159   -0.3473    1.0606 C   0  0  0  0  0  0  0  0  0  0  0  0
    5.6710   -0.6310    1.2726 C   0  0  0  0  0  0  0  0  0  0  0  0
    6.5662   -0.6454    0.1898 C   0  0  0  0  0  0  0  0  0  0  0  0
    6.0981   -0.3663   -1.1045 C   0  0  0  0  0  0  0  0  0  0  0  0
    4.7445   -0.0636   -1.3081 C   0  0  0  0  0  0  0  0  0  0  0  0
    1.9434    0.6643   -2.6350 H   0  0  0  0  0  0  0  0  0  0  0  0
    0.6517    1.3665   -1.7009 H   0  0  0  0  0  0  0  0  0  0  0  0
    2.0355    3.2583   -2.4220 H   0  0  0  0  0  0  0  0  0  0  0  0
    3.5488    2.4405   -1.9204 H   0  0  0  0  0  0  0  0  0  0  0  0
    2.4257    3.0438   -0.6826 H   0  0  0  0  0  0  0  0  0  0  0  0
    3.6216   -0.3462    1.9141 H   0  0  0  0  0  0  0  0  0  0  0  0
    6.0333   -0.8491    2.2891 H   0  0  0  0  0  0  0  0  0  0  0  0
    7.6302   -0.8751    0.3549 H   0  0  0  0  0  0  0  0  0  0  0  0
    6.7939   -0.3805   -1.9578 H   0  0  0  0  0  0  0  0  0  0  0  0
    4.3933    0.1560   -2.3293 H   0  0  0  0  0  0  0  0  0  0  0  0
  1  4  1  0  0  0  0
  2  1  1  0  0  0  0
  3  2  1  0  0  0  0
  3 14  1  0  0  0  0
  4  5  1  0  0  0  0
  5  6  2  0  0  0  0
  5 15  1  0  0  0  0
  6 16  1  0  0  0  0
  7 17  1  0  0  0  0
  7  6  1  0  0  0  0
  8  7  2  0  0  0  0
  9  8  1  0  0  0  0
  9  4  2  0  0  0  0
 10  2  1  0  0  0  0
 11  2  1  0  0  0  0
 12  3  1  0  0  0  0
 13  3  1  0  0  0  0
 18  8  1  0  0  0  0
 19  9  1  0  0  0  0
M  END
