1
 OpenBabel05122313063D

 15 14  0  0  0  0  0  0  0  0999 V2000
   -2.8315    0.0525   -0.1931 B   0  0  0  0  0  2  0  0  0  0  0  0
   -2.4589    0.5586   -1.6824 C   0  0  0  0  0  0  0  0  0  0  0  0
   -3.2349    1.8343   -2.0520 C   0  0  0  0  0  0  0  0  0  0  0  0
   -2.8850    2.2827   -3.0051 H   0  0  0  0  0  0  0  0  0  0  0  0
   -3.1562    2.6053   -1.2625 H   0  0  0  0  0  0  0  0  0  0  0  0
   -4.3119    1.6000   -2.1708 H   0  0  0  0  0  0  0  0  0  0  0  0
   -4.3057   -0.1477    0.3140 C   0  0  0  0  0  0  0  0  0  0  0  0
   -4.3062   -0.3826    1.3988 H   0  0  0  0  0  0  0  0  0  0  0  0
   -4.8390    0.8246    0.2099 H   0  0  0  0  0  0  0  0  0  0  0  0
   -5.0587   -1.2441   -0.4605 C   0  0  0  0  0  0  0  0  0  0  0  0
   -5.0893   -1.0326   -1.5501 H   0  0  0  0  0  0  0  0  0  0  0  0
   -6.1079   -1.3494   -0.1161 H   0  0  0  0  0  0  0  0  0  0  0  0
   -4.5655   -2.2279   -0.3244 H   0  0  0  0  0  0  0  0  0  0  0  0
   -2.7049   -0.2571   -2.3946 H   0  0  0  0  0  0  0  0  0  0  0  0
   -1.3556    0.7332   -1.8904 H   0  0  0  0  0  0  0  0  0  0  0  0
  1  7  1  0  0  0  0
  2  1  1  0  0  0  0
  3  2  1  0  0  0  0
  3  5  1  0  0  0  0
  4  3  1  0  0  0  0
  6  3  1  0  0  0  0
  7  8  1  0  0  0  0
  9  7  1  0  0  0  0
 10 13  1  0  0  0  0
 10 12  1  0  0  0  0
 10  7  1  0  0  0  0
 11 10  1  0  0  0  0
 14  2  1  0  0  0  0
 15  2  1  0  0  0  0
M  END
