4
q = -2.0, confidence = 0.612

 10 11  0  0  0  0  0  0  0  0999 V2000
    4.2931    1.1600    0.0000 B   0  0  0  0  0  0  0  0  0  0  0  0
    2.9317    1.8866   -0.8930 B   0  0  1  0  0  0  0  0  0  0  0  0
    1.4324    1.6929    0.0000 B   0  0  1  0  0  0  0  0  0  0  0  0
    1.7942    0.5483   -1.3651 B   0  0  0  0  0  2  0  0  0  0  0  0
    5.4012    1.6516    0.0000 H   0  0  0  0  0  0  0  0  0  0  0  0
    3.1097    2.8633   -1.5913 H   0  0  0  0  0  0  0  0  0  0  0  0
    0.6594    2.6340    0.0000 H   0  0  0  0  0  0  0  0  0  0  0  0
    1.3454    0.4884   -2.4906 H   0  0  0  0  0  0  0  0  0  0  0  0
    2.9317    1.8866    0.8930 B   0  0  1  0  0  0  0  0  0  0  0  0
    3.1097    2.8633    1.5913 H   0  0  0  0  0  0  0  0  0  0  0  0
  1  5  1  0  0  0  0
  1  9  1  0  0  0  0
  2  6  1  6  0  0  0
  2  1  1  0  0  0  0
  2  3  1  0  0  0  0
  2  9  1  0  0  0  0
  3  7  1  1  0  0  0
  3  9  1  0  0  0  0
  4  3  1  0  0  0  0
  8  4  1  0  0  0  0
  9 10  1  1  0  0  0
M  END
