1
q = -1.0, confidence = 0.304

  3  2  0  0  0  0  0  0  0  0999 V2000
   -1.1083   -2.2062   -1.5798 B   0  0  0  0  0  0  0  0  0  0  0  0
   -1.5724   -3.4073   -1.1751 F   0  0  0  0  0  0  0  0  0  0  0  0
   -1.5821   -1.8396   -2.7963 F   0  0  0  0  0  0  0  0  0  0  0  0
  1  2  1  0  0  0  0
  3  1  1  0  0  0  0
M  END
