8
q = -1.0, confidence = 0.044

 23 26  0  0  1  0  0  0  0  0999 V2000
   -1.8417    0.8545   -0.9875 C   0  0  2  0  0  0  0  0  0  0  0  0
   -0.7503    1.2801   -0.0336 C   0  0  1  0  0  0  0  0  0  0  0  0
   -0.5870   -1.5036   -0.6578 C   0  0  1  0  0  0  0  0  0  0  0  0
   -0.2535    2.7074   -0.1532 C   0  0  0  0  0  0  0  0  0  0  0  0
   -2.2852   -0.5875    1.2937 B   0  0  0  0  0  0  0  0  0  0  0  0
   -2.9864   -0.2270   -0.3530 B   0  0  2  0  0  0  0  0  0  0  0  0
   -2.2992    1.0574    0.6452 B   0  0  2  0  0  0  0  0  0  0  0  0
   -0.8057    0.4247    1.3788 B   0  0  0  0  0  2  0  0  0  0  0  0
   -0.7392   -1.4044    0.9668 B   0  0  1  0  0  0  0  0  0  0  0  0
   -2.1487   -1.7308   -0.0657 B   0  0  2  0  0  0  0  0  0  0  0  0
   -1.6959   -0.7254   -1.5029 B   0  0  0  0  0  0  0  0  0  0  0  0
   -2.9354   -0.8317    2.2838 H   0  0  0  0  0  0  0  0  0  0  0  0
   -4.1504   -0.1201   -0.6577 H   0  0  0  0  0  0  0  0  0  0  0  0
   -0.2462   -2.2004    1.7356 H   0  0  0  0  0  0  0  0  0  0  0  0
   -2.2025    1.6105   -1.6994 H   0  0  0  0  0  0  0  0  0  0  0  0
   -0.0763   -2.3740   -1.0936 H   0  0  0  0  0  0  0  0  0  0  0  0
    0.3124    2.8669   -1.0917 H   0  0  0  0  0  0  0  0  0  0  0  0
   -1.1171    3.4046   -0.1654 H   0  0  0  0  0  0  0  0  0  0  0  0
    0.3895    2.9859    0.7017 H   0  0  0  0  0  0  0  0  0  0  0  0
   -1.9963   -1.0060   -2.6419 H   0  0  0  0  0  0  0  0  0  0  0  0
   -0.3562    0.8949    2.4004 H   0  0  0  0  0  0  0  0  0  0  0  0
   -2.8884    2.0366    1.0331 H   0  0  0  0  0  0  0  0  0  0  0  0
   -2.6457   -2.8314   -0.1260 H   0  0  0  0  0  0  0  0  0  0  0  0
  1 15  1  6  0  0  0
  1  6  1  0  0  0  0
  1  2  1  0  0  0  0
  2  7  1  0  0  0  0
  2  8  1  1  0  0  0
  3 16  1  6  0  0  0
  3 10  1  0  0  0  0
  3  9  1  0  0  0  0
  4  2  1  0  0  0  0
  4 19  1  0  0  0  0
  5 12  1  0  0  0  0
  6 13  1  6  0  0  0
  6 10  1  0  0  0  0
  6  7  1  0  0  0  0
  7 22  1  1  0  0  0
  7  5  1  0  0  0  0
  8 21  1  0  0  0  0
  9  5  1  0  0  0  0
  9 14  1  1  0  0  0
 10 23  1  6  0  0  0
 10  9  1  0  0  0  0
 11  1  1  0  0  0  0
 11  3  1  0  0  0  0
 17  4  1  0  0  0  0
 18  4  1  0  0  0  0
 20 11  1  0  0  0  0
M  END
