7
q = 0.0, confidence = 0.928

 42 46  0  0  1  0  0  0  0  0999 V2000
   -0.1597   -1.5278   -1.3401 C   0  0  1  0  0  0  0  0  0  0  0  0
   -1.8729    0.2352   -1.0535 C   0  0  2  0  0  0  0  0  0  0  0  0
   -0.7622   -2.7333   -0.4095 B   0  0  0  0  0  2  0  0  0  0  0  0
   -1.0533   -2.5753   -2.1972 B   0  0  1  0  0  0  0  0  0  0  0  0
   -1.3683   -0.7870   -2.3519 B   0  0  0  0  0  0  0  0  0  0  0  0
   -2.8866   -0.5430   -0.0186 B   0  0  0  0  0  2  0  0  0  0  0  0
   -2.3460   -2.2577    0.3757 B   0  0  0  0  0  2  0  0  0  0  0  0
   -2.3415   -3.2166   -1.1368 B   0  0  2  0  0  0  0  0  0  0  0  0
   -2.7190   -2.0962   -2.4584 B   0  0  1  0  0  0  0  0  0  0  0  0
   -3.0943   -0.5091   -1.8284 B   0  0  1  0  0  0  0  0  0  0  0  0
   -3.5618   -1.9676   -0.9029 B   0  0  2  0  0  0  0  0  0  0  0  0
    1.2718   -1.3479   -1.7096 C   0  0  0  0  0  0  0  0  0  0  0  0
    2.0751   -2.4777   -1.9946 C   0  0  0  0  0  0  0  0  0  0  0  0
    3.3962   -2.3257   -2.4358 C   0  0  0  0  0  0  0  0  0  0  0  0
    3.9411   -1.0444   -2.6206 C   0  0  0  0  0  0  0  0  0  0  0  0
    3.1588    0.0818   -2.3225 C   0  0  0  0  0  0  0  0  0  0  0  0
    1.8494   -0.0689   -1.8467 C   0  0  0  0  0  0  0  0  0  0  0  0
   -1.7735    1.7151   -1.2193 C   0  0  0  0  0  0  0  0  0  0  0  0
   -0.8209    2.3184   -2.0701 C   0  0  0  0  0  0  0  0  0  0  0  0
   -0.7953    3.7082   -2.2602 C   0  0  0  0  0  0  0  0  0  0  0  0
   -1.7339    4.5322   -1.6197 C   0  0  0  0  0  0  0  0  0  0  0  0
   -2.7051    3.9448   -0.7926 C   0  0  0  0  0  0  0  0  0  0  0  0
   -2.7238    2.5584   -0.5940 C   0  0  0  0  0  0  0  0  0  0  0  0
   -0.0085   -3.5547    0.0618 H   0  0  0  0  0  0  0  0  0  0  0  0
   -0.4724   -3.1430   -3.0924 H   0  0  0  0  0  0  0  0  0  0  0  0
   -0.9767   -0.2573   -3.3639 H   0  0  0  0  0  0  0  0  0  0  0  0
   -3.5916    0.0812    0.7427 H   0  0  0  0  0  0  0  0  0  0  0  0
   -2.6804   -2.7741    1.4183 H   0  0  0  0  0  0  0  0  0  0  0  0
   -2.6263   -4.3938   -1.1598 H   0  0  0  0  0  0  0  0  0  0  0  0
   -3.2534   -2.4395   -3.4872 H   0  0  0  0  0  0  0  0  0  0  0  0
   -3.8075    0.2241   -2.4731 H   0  0  0  0  0  0  0  0  0  0  0  0
   -4.7329   -2.2369   -0.7495 H   0  0  0  0  0  0  0  0  0  0  0  0
    1.6428   -3.4824   -1.8857 H   0  0  0  0  0  0  0  0  0  0  0  0
    3.9994   -3.2196   -2.6564 H   0  0  0  0  0  0  0  0  0  0  0  0
    4.9691   -0.9259   -2.9952 H   0  0  0  0  0  0  0  0  0  0  0  0
    3.5702    1.0942   -2.4553 H   0  0  0  0  0  0  0  0  0  0  0  0
    1.2622    0.8171   -1.5740 H   0  0  0  0  0  0  0  0  0  0  0  0
   -0.1173    1.6854   -2.6237 H   0  0  0  0  0  0  0  0  0  0  0  0
   -0.0428    4.1466   -2.9335 H   0  0  0  0  0  0  0  0  0  0  0  0
   -1.7204    5.6210   -1.7775 H   0  0  0  0  0  0  0  0  0  0  0  0
   -3.4674    4.5714   -0.3048 H   0  0  0  0  0  0  0  0  0  0  0  0
   -3.5141    2.1028    0.0179 H   0  0  0  0  0  0  0  0  0  0  0  0
  1  3  1  1  0  0  0
  2  6  1  1  0  0  0
  3 24  1  0  0  0  0
  4 25  1  6  0  0  0
  4  1  1  0  0  0  0
  4  8  1  0  0  0  0
  5  1  1  0  0  0  0
  5  2  1  0  0  0  0
  6 27  1  0  0  0  0
  7 28  1  0  0  0  0
  8 29  1  6  0  0  0
  8 11  1  0  0  0  0
  9 30  1  6  0  0  0
  9  4  1  0  0  0  0
  9 10  1  0  0  0  0
  9  8  1  0  0  0  0
 10 31  1  6  0  0  0
 10  2  1  0  0  0  0
 10 11  1  0  0  0  0
 11 32  1  1  0  0  0
 11  7  1  0  0  0  0
 12  1  1  0  0  0  0
 13 33  1  0  0  0  0
 13 12  2  0  0  0  0
 14 13  1  0  0  0  0
 15 14  2  0  0  0  0
 15 16  1  0  0  0  0
 16 17  2  0  0  0  0
 17 12  1  0  0  0  0
 17 37  1  0  0  0  0
 18  2  1  0  0  0  0
 18 23  1  0  0  0  0
 19 18  2  0  0  0  0
 20 19  1  0  0  0  0
 20 21  2  0  0  0  0
 21 22  1  0  0  0  0
 22 23  2  0  0  0  0
 22 41  1  0  0  0  0
 23 42  1  0  0  0  0
 26  5  1  0  0  0  0
 34 14  1  0  0  0  0
 35 15  1  0  0  0  0
 36 16  1  0  0  0  0
 38 19  1  0  0  0  0
 39 20  1  0  0  0  0
 40 21  1  0  0  0  0
M  END
