1,2,3,4
 OpenBabel05122313063D

 59 63  0  0  0  0  0  0  0  0999 V2000
   -1.7463   -0.9371   -2.5997 S   0  0  0  0  0  1  0  0  0  0  0  0
    1.6345   -0.3751    0.1188 P   0  0  0  0  0  0  0  0  0  0  0  0
   -2.1577   -0.4094   -0.6838 P   0  0  0  0  0  4  0  0  0  0  0  0
   -0.9458   -1.4587    0.1251 C   0  0  0  0  0  3  0  0  0  0  0  0
   -1.2253   -2.5180   -0.0639 H   0  0  0  0  0  0  0  0  0  0  0  0
   -0.4960   -1.2170    1.5367 C   0  0  0  0  0  0  0  0  0  0  0  0
   -1.2797   -1.5050    2.6735 C   0  0  0  0  0  0  0  0  0  0  0  0
   -2.3114   -1.8678    2.5438 H   0  0  0  0  0  0  0  0  0  0  0  0
   -0.7462   -1.3420    3.9605 C   0  0  0  0  0  0  0  0  0  0  0  0
   -1.3653   -1.5728    4.8410 H   0  0  0  0  0  0  0  0  0  0  0  0
    0.5793   -0.9034    4.1329 C   0  0  0  0  0  0  0  0  0  0  0  0
    0.9982   -0.7981    5.1451 H   0  0  0  0  0  0  0  0  0  0  0  0
    1.3688   -0.6051    3.0129 C   0  0  0  0  0  0  0  0  0  0  0  0
    2.4100   -0.2723    3.1415 H   0  0  0  0  0  0  0  0  0  0  0  0
    0.8230   -0.7442    1.7240 C   0  0  0  0  0  0  0  0  0  0  0  0
    3.2859   -1.1697    0.1582 C   0  0  0  0  0  0  0  0  0  0  0  0
    3.4699   -2.3567   -0.5765 C   0  0  0  0  0  0  0  0  0  0  0  0
    2.6499   -2.7232   -1.2123 H   0  0  0  0  0  0  0  0  0  0  0  0
    4.7025   -3.0236   -0.5267 C   0  0  0  0  0  0  0  0  0  0  0  0
    4.8471   -3.9468   -1.1081 H   0  0  0  0  0  0  0  0  0  0  0  0
    5.7528   -2.5073    0.2492 C   0  0  0  0  0  0  0  0  0  0  0  0
    6.7205   -3.0309    0.2837 H   0  0  0  0  0  0  0  0  0  0  0  0
    5.5765   -1.3130    0.9674 C   0  0  0  0  0  0  0  0  0  0  0  0
    6.4050   -0.8980    1.5615 H   0  0  0  0  0  0  0  0  0  0  0  0
    2.6577    1.9816   -0.9673 C   0  0  0  0  0  0  0  0  0  0  0  0
    2.8488    1.3414   -1.8445 H   0  0  0  0  0  0  0  0  0  0  0  0
    2.9954    3.3410   -0.9769 C   0  0  0  0  0  0  0  0  0  0  0  0
    3.4864    3.7713   -1.8632 H   0  0  0  0  0  0  0  0  0  0  0  0
    2.7092    4.1524    0.1351 C   0  0  0  0  0  0  0  0  0  0  0  0
    2.9808    5.2192    0.1251 H   0  0  0  0  0  0  0  0  0  0  0  0
    2.0676    3.6004    1.2531 C   0  0  0  0  0  0  0  0  0  0  0  0
    1.8252    4.2327    2.1210 H   0  0  0  0  0  0  0  0  0  0  0  0
    1.7196    2.2400    1.2698 C   0  0  0  0  0  0  0  0  0  0  0  0
    1.1963    1.8216    2.1411 H   0  0  0  0  0  0  0  0  0  0  0  0
    4.3475   -0.6387    0.9182 C   0  0  0  0  0  0  0  0  0  0  0  0
    4.2187    0.3144    1.4548 H   0  0  0  0  0  0  0  0  0  0  0  0
    2.0275    1.4218    0.1664 C   0  0  0  0  0  0  0  0  0  0  0  0
   -3.9176   -0.6318   -0.2022 C   0  0  0  0  0  0  0  0  0  0  0  0
   -4.8590    0.4018   -0.3823 C   0  0  0  0  0  0  0  0  0  0  0  0
   -4.5334    1.3800   -0.7678 H   0  0  0  0  0  0  0  0  0  0  0  0
   -6.2075    0.1830   -0.0649 C   0  0  0  0  0  0  0  0  0  0  0  0
   -6.9403    0.9920   -0.2063 H   0  0  0  0  0  0  0  0  0  0  0  0
   -6.6222   -1.0633    0.4327 C   0  0  0  0  0  0  0  0  0  0  0  0
   -7.6807   -1.2308    0.6834 H   0  0  0  0  0  0  0  0  0  0  0  0
   -5.6877   -2.0970    0.6078 C   0  0  0  0  0  0  0  0  0  0  0  0
   -6.0114   -3.0755    0.9935 H   0  0  0  0  0  0  0  0  0  0  0  0
   -4.3392   -1.8841    0.2864 C   0  0  0  0  0  0  0  0  0  0  0  0
   -3.6074   -2.6977    0.4122 H   0  0  0  0  0  0  0  0  0  0  0  0
   -1.7848    1.3360   -0.2926 C   0  0  0  0  0  0  0  0  0  0  0  0
   -1.0918    2.1239   -1.2323 C   0  0  0  0  0  0  0  0  0  0  0  0
   -0.7957    1.6768   -2.1949 H   0  0  0  0  0  0  0  0  0  0  0  0
   -0.7761    3.4535   -0.9230 C   0  0  0  0  0  0  0  0  0  0  0  0
   -0.2279    4.0664   -1.6534 H   0  0  0  0  0  0  0  0  0  0  0  0
   -1.1351    3.9924    0.3230 C   0  0  0  0  0  0  0  0  0  0  0  0
   -0.8756    5.0340    0.5649 H   0  0  0  0  0  0  0  0  0  0  0  0
   -1.8105    3.2016    1.2663 C   0  0  0  0  0  0  0  0  0  0  0  0
   -2.0829    3.6208    2.2469 H   0  0  0  0  0  0  0  0  0  0  0  0
   -2.1410    1.8724    0.9617 C   0  0  0  0  0  0  0  0  0  0  0  0
   -2.6785    1.2547    1.6973 H   0  0  0  0  0  0  0  0  0  0  0  0
  1  3  1  0  0  0  0
  2 16  1  0  0  0  0
  2 37  1  0  0  0  0
  2 15  1  0  0  0  0
  3 49  1  0  0  0  0
  3 38  1  0  0  0  0
  3  4  1  0  0  0  0
  4  6  1  0  0  0  0
  5  4  1  0  0  0  0
  6 15  2  0  0  0  0
  6  7  1  0  0  0  0
  7  9  2  0  0  0  0
  8  7  1  0  0  0  0
  9 11  1  0  0  0  0
  9 10  1  0  0  0  0
 11 12  1  0  0  0  0
 13 14  1  0  0  0  0
 13 11  2  0  0  0  0
 15 13  1  0  0  0  0
 16 35  1  0  0  0  0
 17 19  1  0  0  0  0
 17 16  2  0  0  0  0
 18 17  1  0  0  0  0
 19 21  2  0  0  0  0
 20 19  1  0  0  0  0
 21 22  1  0  0  0  0
 21 23  1  0  0  0  0
 23 24  1  0  0  0  0
 25 37  1  0  0  0  0
 26 25  1  0  0  0  0
 27 25  2  0  0  0  0
 27 29  1  0  0  0  0
 28 27  1  0  0  0  0
 29 31  2  0  0  0  0
 30 29  1  0  0  0  0
 31 33  1  0  0  0  0
 31 32  1  0  0  0  0
 33 34  1  0  0  0  0
 35 23  2  0  0  0  0
 35 36  1  0  0  0  0
 37 33  2  0  0  0  0
 38 47  1  0  0  0  0
 39 38  2  0  0  0  0
 39 41  1  0  0  0  0
 40 39  1  0  0  0  0
 41 43  2  0  0  0  0
 42 41  1  0  0  0  0
 43 45  1  0  0  0  0
 43 44  1  0  0  0  0
 45 46  1  0  0  0  0
 47 48  1  0  0  0  0
 47 45  2  0  0  0  0
 49 58  1  0  0  0  0
 50 52  1  0  0  0  0
 50 49  2  0  0  0  0
 51 50  1  0  0  0  0
 52 54  2  0  0  0  0
 53 52  1  0  0  0  0
 54 55  1  0  0  0  0
 54 56  1  0  0  0  0
 56 57  1  0  0  0  0
 58 56  2  0  0  0  0
 58 59  1  0  0  0  0
M  END
