1,4,5,6
q = -1.0, confidence = 0.122

 27 27  0  0  0  0  0  0  0  0999 V2000
    0.4438   -2.1754   -0.7498 S   0  0  0  0  0  1  0  0  0  0  0  0
    4.0110   -0.4936   -0.9800 O   0  0  0  0  0  0  0  0  0  0  0  0
    1.2332    3.6538   -0.2630 O   0  0  0  0  0  0  0  0  0  0  0  0
   -1.9152   -0.4025   -0.0977 N   0  0  0  0  0  2  0  0  0  0  0  0
   -0.0113    1.7111    0.0352 N   0  0  0  0  0  2  0  0  0  0  0  0
    1.9886    0.1467   -0.0795 N   0  0  0  0  0  2  0  0  0  0  0  0
   -3.9217   -1.2809   -0.2904 N   0  0  0  0  0  0  0  0  0  0  0  0
   -4.6860   -1.9543   -0.2278 H   0  0  0  0  0  0  0  0  0  0  0  0
   -2.7494    0.5643   -0.6563 C   0  0  0  0  0  0  0  0  0  0  0  0
   -2.2463    1.9217   -1.0311 C   0  0  0  0  0  0  0  0  0  0  0  0
   -3.1117    2.6060   -1.1389 H   0  0  0  0  0  0  0  0  0  0  0  0
   -1.7503    1.8717   -2.0259 H   0  0  0  0  0  0  0  0  0  0  0  0
   -1.2492    2.4888   -0.0175 C   0  0  0  0  0  0  0  0  0  0  0  0
   -0.9705    3.5248   -0.2995 H   0  0  0  0  0  0  0  0  0  0  0  0
   -1.7183    2.5316    0.9906 H   0  0  0  0  0  0  0  0  0  0  0  0
    1.1761    2.4380   -0.1179 C   0  0  0  0  0  0  0  0  0  0  0  0
    2.4069    1.5422   -0.0751 C   0  0  0  0  0  0  0  0  0  0  0  0
    3.0676    1.7663   -0.9375 H   0  0  0  0  0  0  0  0  0  0  0  0
    2.9926    1.7942    0.8374 H   0  0  0  0  0  0  0  0  0  0  0  0
    2.8670   -0.7772   -0.6441 C   0  0  0  0  0  0  0  0  0  0  0  0
    2.2842   -2.1770   -0.8203 C   0  0  0  0  0  0  0  0  0  0  0  0
    2.6795   -2.8369   -0.0200 H   0  0  0  0  0  0  0  0  0  0  0  0
    2.6351   -2.5791   -1.7904 H   0  0  0  0  0  0  0  0  0  0  0  0
   -2.6459   -1.5107    0.0994 C   0  0  0  0  0  3  0  0  0  0  0  0
   -2.2641   -2.4541    0.5041 H   0  0  0  0  0  0  0  0  0  0  0  0
   -4.0118    0.0127   -0.7758 C   0  0  0  0  0  0  0  0  0  0  0  0
   -4.9461    0.4320   -1.1598 H   0  0  0  0  0  0  0  0  0  0  0  0
  2 20  2  0  0  0  0
  3 16  2  0  0  0  0
  4 24  1  0  0  0  0
  6 17  1  0  0  0  0
  7  8  1  0  0  0  0
  7 24  1  0  0  0  0
  9  4  1  0  0  0  0
 10  9  1  0  0  0  0
 10 13  1  0  0  0  0
 11 10  1  0  0  0  0
 12 10  1  0  0  0  0
 13  5  1  0  0  0  0
 13 15  1  0  0  0  0
 14 13  1  0  0  0  0
 16 17  1  0  0  0  0
 16  5  1  0  0  0  0
 17 19  1  0  0  0  0
 18 17  1  0  0  0  0
 20  6  1  0  0  0  0
 21  1  1  0  0  0  0
 21 20  1  0  0  0  0
 21 22  1  0  0  0  0
 23 21  1  0  0  0  0
 24 25  1  0  0  0  0
 26  9  2  0  0  0  0
 26  7  1  0  0  0  0
 27 26  1  0  0  0  0
M  END
