1,2,3,4
q = -1.0

 31 31  0  0  1  0  0  0  0  0999 V2000
   -0.6559   -1.5696   -0.1160 S   0  0  0  0  0  1  0  0  0  0  0  0
    0.1431    1.3377   -0.1300 N   0  0  0  0  0  2  0  0  0  0  0  0
    2.7227    0.7456   -0.1904 N   0  0  0  0  0  0  0  0  0  0  0  0
    2.1814   -1.8639    0.1062 N   0  0  0  0  0  0  0  0  0  0  0  0
   -2.1507   -0.6879   -0.0137 C   0  0  1  0  0  3  0  0  0  0  0  0
   -2.2577    0.7409    0.0058 C   0  0  0  0  0  0  0  0  0  0  0  0
   -3.5531    1.3365    0.0929 C   0  0  0  0  0  0  0  0  0  0  0  0
   -4.7030    0.5632    0.1543 C   0  0  0  0  0  0  0  0  0  0  0  0
   -4.5881   -0.8456    0.1318 C   0  0  0  0  0  0  0  0  0  0  0  0
   -3.3391   -1.4591    0.0514 C   0  0  0  0  0  0  0  0  0  0  0  0
   -1.1391    1.6286   -0.0580 C   0  0  0  0  0  0  0  0  0  0  0  0
    1.0797    2.4749   -0.2682 C   0  0  0  0  0  0  0  0  0  0  0  0
    2.4011    2.0772    0.3681 C   0  0  0  0  0  0  0  0  0  0  0  0
    3.7705   -0.0633    0.4723 C   0  0  0  0  0  0  0  0  0  0  0  0
    3.6135   -1.4842   -0.0521 C   0  0  0  0  0  0  0  0  0  0  0  0
   -3.6251    2.4352    0.1079 H   0  0  0  0  0  0  0  0  0  0  0  0
   -5.6914    1.0393    0.2196 H   0  0  0  0  0  0  0  0  0  0  0  0
   -5.4922   -1.4712    0.1798 H   0  0  0  0  0  0  0  0  0  0  0  0
   -3.2620   -2.5562    0.0372 H   0  0  0  0  0  0  0  0  0  0  0  0
   -1.3945    2.7063   -0.0456 H   0  0  0  0  0  0  0  0  0  0  0  0
    1.2298    2.6929   -1.3504 H   0  0  0  0  0  0  0  0  0  0  0  0
    0.6693    3.3958    0.1953 H   0  0  0  0  0  0  0  0  0  0  0  0
    3.2015    2.8226    0.1713 H   0  0  0  0  0  0  0  0  0  0  0  0
    2.2878    1.9678    1.4653 H   0  0  0  0  0  0  0  0  0  0  0  0
    2.9688    0.8571   -1.1889 H   0  0  0  0  0  0  0  0  0  0  0  0
    3.5905   -0.0236    1.5664 H   0  0  0  0  0  0  0  0  0  0  0  0
    4.7924    0.3328    0.2874 H   0  0  0  0  0  0  0  0  0  0  0  0
    4.2949   -2.1911    0.4644 H   0  0  0  0  0  0  0  0  0  0  0  0
    3.8576   -1.5221   -1.1336 H   0  0  0  0  0  0  0  0  0  0  0  0
    1.9977   -2.2123    1.0613 H   0  0  0  0  0  0  0  0  0  0  0  0
    1.9314   -2.6475   -0.5175 H   0  0  0  0  0  0  0  0  0  0  0  0
  2 11  1  0  0  0  0
  3 13  1  0  0  0  0
  3 14  1  0  0  0  0
  4 30  1  0  0  0  0
  5  1  1  6  0  0  0
  5  6  1  0  0  0  0
  5 10  1  0  0  0  0
  6  7  1  0  0  0  0
  7 16  1  0  0  0  0
  7  8  2  0  0  0  0
  8 17  1  0  0  0  0
  9  8  1  0  0  0  0
  9 18  1  0  0  0  0
 10  9  2  0  0  0  0
 11 20  1  0  0  0  0
 11  6  2  0  0  0  0
 12  2  1  0  0  0  0
 12 22  1  0  0  0  0
 12 13  1  0  0  0  0
 13 24  1  0  0  0  0
 14 26  1  0  0  0  0
 15  4  1  0  0  0  0
 15 28  1  0  0  0  0
 15 14  1  0  0  0  0
 19 10  1  0  0  0  0
 21 12  1  0  0  0  0
 23 13  1  0  0  0  0
 25  3  1  0  0  0  0
 27 14  1  0  0  0  0
 29 15  1  0  0  0  0
 31  4  1  0  0  0  0
M  END
