1,5,6,7
q = -1.0, confidence = 0.374

 66 68  0  0  1  0  0  0  0  0999 V2000
    0.7192    0.8610    1.3493 S   0  0  0  0  0  1  0  0  0  0  0  0
    2.7415   -4.4699   -0.0786 O   0  0  0  0  0  0  0  0  0  0  0  0
   -1.7134   -3.5156    2.4571 O   0  0  0  0  0  0  0  0  0  0  0  0
    2.8825    1.4566   -0.2455 N   0  0  0  0  0  2  0  0  0  0  0  0
    2.5093   -0.8809   -0.5214 N   0  0  0  0  0  2  0  0  0  0  0  0
    1.1128   -2.8866    0.3372 N   0  0  0  0  0  2  0  0  0  0  0  0
   -0.7831   -1.6318    1.4581 N   0  0  0  0  0  2  0  0  0  0  0  0
   -2.5858    1.4092    1.1519 N   0  0  0  0  0  0  0  0  0  0  0  0
   -3.3039    1.8353    0.1425 N   0  0  0  0  0  0  0  0  0  0  0  0
   -3.7458    0.7441   -0.5283 N   0  0  0  0  0  0  0  0  0  0  0  0
    1.3815    3.1551    0.1592 N   0  0  0  0  0  0  0  0  0  0  0  0
    1.7509    1.8617    0.3250 C   0  0  2  0  0  3  0  0  0  0  0  0
    3.2902    0.2132   -0.4834 C   0  0  1  0  0  3  0  0  0  0  0  0
    3.0983   -2.1876   -0.8327 C   0  0  0  0  0  0  0  0  0  0  0  0
    4.1602   -2.2652   -0.5272 H   0  0  0  0  0  0  0  0  0  0  0  0
    3.0630   -2.3826   -1.9279 H   0  0  0  0  0  0  0  0  0  0  0  0
    2.3270   -3.3205   -0.1548 C   0  0  0  0  0  0  0  0  0  0  0  0
    0.2598   -3.7917    1.0845 C   0  0  0  0  0  0  0  0  0  0  0  0
    0.8347   -4.3395    1.8614 H   0  0  0  0  0  0  0  0  0  0  0  0
   -0.1906   -4.5695    0.4291 H   0  0  0  0  0  0  0  0  0  0  0  0
   -0.8576   -2.9946    1.7482 C   0  0  0  0  0  0  0  0  0  0  0  0
   -1.7657   -0.7695    2.1322 C   0  0  0  0  0  0  0  0  0  0  0  0
   -1.2704   -0.0696    2.8371 H   0  0  0  0  0  0  0  0  0  0  0  0
   -2.4167   -1.4441    2.7277 H   0  0  0  0  0  0  0  0  0  0  0  0
   -2.5634    0.0374    1.1545 C   0  0  0  0  0  0  0  0  0  0  0  0
   -3.3180   -0.4013    0.0699 C   0  0  0  0  0  0  0  0  0  0  0  0
   -3.5600   -1.3978   -0.3105 H   0  0  0  0  0  0  0  0  0  0  0  0
   -4.6164    0.9007   -1.6840 C   0  0  0  0  0  0  0  0  0  0  0  0
   -4.2267    0.2781   -2.5139 H   0  0  0  0  0  0  0  0  0  0  0  0
   -4.5122    1.9646   -1.9788 H   0  0  0  0  0  0  0  0  0  0  0  0
    2.2481    4.0530   -0.6230 C   0  0  0  0  0  0  0  0  0  0  0  0
    2.5951    3.4987   -1.5162 H   0  0  0  0  0  0  0  0  0  0  0  0
    1.6064    4.8873   -0.9690 H   0  0  0  0  0  0  0  0  0  0  0  0
    3.4529    4.5784    0.1581 C   0  0  0  0  0  0  0  0  0  0  0  0
    3.1450    5.1479    1.0566 H   0  0  0  0  0  0  0  0  0  0  0  0
    4.0539    5.2511   -0.4861 H   0  0  0  0  0  0  0  0  0  0  0  0
    4.1002    3.7368    0.4715 H   0  0  0  0  0  0  0  0  0  0  0  0
    0.1619    3.7032    0.7707 C   0  0  0  0  0  0  0  0  0  0  0  0
   -0.2180    4.4836    0.0807 H   0  0  0  0  0  0  0  0  0  0  0  0
   -0.6022    2.8978    0.8130 H   0  0  0  0  0  0  0  0  0  0  0  0
    0.3668    4.2754    2.1734 C   0  0  0  0  0  0  0  0  0  0  0  0
    0.7433    3.4924    2.8616 H   0  0  0  0  0  0  0  0  0  0  0  0
   -0.6043    4.6317    2.5704 H   0  0  0  0  0  0  0  0  0  0  0  0
    1.0777    5.1255    2.1840 H   0  0  0  0  0  0  0  0  0  0  0  0
   -6.0624    0.5577   -1.3847 C   0  0  0  0  0  0  0  0  0  0  0  0
   -6.7926   -0.2856   -2.2407 C   0  0  0  0  0  0  0  0  0  0  0  0
   -6.3022   -0.7171   -3.1282 H   0  0  0  0  0  0  0  0  0  0  0  0
   -8.1382   -0.5820   -1.9702 C   0  0  0  0  0  0  0  0  0  0  0  0
   -8.6992   -1.2447   -2.6465 H   0  0  0  0  0  0  0  0  0  0  0  0
   -8.7612   -0.0421   -0.8354 C   0  0  0  0  0  0  0  0  0  0  0  0
   -9.8142   -0.2779   -0.6187 H   0  0  0  0  0  0  0  0  0  0  0  0
   -8.0347    0.7966    0.0270 C   0  0  0  0  0  0  0  0  0  0  0  0
   -8.5182    1.2202    0.9204 H   0  0  0  0  0  0  0  0  0  0  0  0
   -6.6936    1.0968   -0.2460 C   0  0  0  0  0  0  0  0  0  0  0  0
   -6.1196    1.7511    0.4291 H   0  0  0  0  0  0  0  0  0  0  0  0
    4.7635    0.1231   -0.7701 C   0  0  0  0  0  0  0  0  0  0  0  0
    5.2542   -0.3325   -2.0099 C   0  0  0  0  0  0  0  0  0  0  0  0
    4.5514   -0.6611   -2.7898 H   0  0  0  0  0  0  0  0  0  0  0  0
    6.6337   -0.3459   -2.2620 C   0  0  0  0  0  0  0  0  0  0  0  0
    7.0061   -0.6926   -3.2377 H   0  0  0  0  0  0  0  0  0  0  0  0
    7.5354    0.0808   -1.2745 C   0  0  0  0  0  0  0  0  0  0  0  0
    8.6180    0.0609   -1.4707 H   0  0  0  0  0  0  0  0  0  0  0  0
    7.0518    0.5387   -0.0381 C   0  0  0  0  0  0  0  0  0  0  0  0
    7.7543    0.8776    0.7383 H   0  0  0  0  0  0  0  0  0  0  0  0
    5.6726    0.5732    0.2085 C   0  0  0  0  0  0  0  0  0  0  0  0
    5.2851    0.9487    1.1675 H   0  0  0  0  0  0  0  0  0  0  0  0
  4 12  1  0  0  0  0
  6 18  1  0  0  0  0
  7 21  1  0  0  0  0
  7 22  1  0  0  0  0
  8 25  1  0  0  0  0
  9  8  2  0  0  0  0
 10 26  1  0  0  0  0
 10  9  1  0  0  0  0
 11 12  1  0  0  0  0
 11 38  1  0  0  0  0
 12  1  1  1  0  0  0
 13  5  1  6  0  0  0
 13  4  1  0  0  0  0
 14 15  1  0  0  0  0
 14  5  1  0  0  0  0
 14 17  1  0  0  0  0
 16 14  1  0  0  0  0
 17  2  2  0  0  0  0
 17  6  1  0  0  0  0
 18 21  1  0  0  0  0
 18 19  1  0  0  0  0
 20 18  1  0  0  0  0
 21  3  2  0  0  0  0
 22 24  1  0  0  0  0
 22 23  1  0  0  0  0
 25 22  1  0  0  0  0
 26 25  2  0  0  0  0
 27 26  1  0  0  0  0
 28 45  1  0  0  0  0
 28 10  1  0  0  0  0
 29 28  1  0  0  0  0
 30 28  1  0  0  0  0
 31 34  1  0  0  0  0
 31 11  1  0  0  0  0
 32 31  1  0  0  0  0
 33 31  1  0  0  0  0
 34 37  1  0  0  0  0
 34 35  1  0  0  0  0
 36 34  1  0  0  0  0
 38 40  1  0  0  0  0
 38 41  1  0  0  0  0
 39 38  1  0  0  0  0
 41 44  1  0  0  0  0
 41 43  1  0  0  0  0
 41 42  1  0  0  0  0
 45 54  1  0  0  0  0
 46 48  1  0  0  0  0
 46 45  2  0  0  0  0
 47 46  1  0  0  0  0
 48 50  2  0  0  0  0
 49 48  1  0  0  0  0
 50 51  1  0  0  0  0
 50 52  1  0  0  0  0
 52 53  1  0  0  0  0
 54 52  2  0  0  0  0
 54 55  1  0  0  0  0
 56 13  1  0  0  0  0
 56 65  1  0  0  0  0
 57 56  2  0  0  0  0
 58 57  1  0  0  0  0
 59 57  1  0  0  0  0
 59 61  2  0  0  0  0
 60 59  1  0  0  0  0
 61 63  1  0  0  0  0
 62 61  1  0  0  0  0
 63 65  2  0  0  0  0
 63 64  1  0  0  0  0
 65 66  1  0  0  0  0
M  END
