1,2,3,5
q = -1.0

 51 52  0  0  1  0  0  0  0  0999 V2000
   -3.0930   -0.1192   -0.2818 S   0  0  0  0  0  0  0  0  0  0  0  0
   -0.5796   -0.8083    1.7617 N   0  0  0  0  0  0  0  0  0  0  0  0
   -0.6230    1.6634   -0.0092 N   0  0  0  0  0  2  0  0  0  0  0  0
    0.2012    2.1689    0.9191 N   0  0  0  0  0  0  0  0  0  0  0  0
    1.4677   -0.4711   -0.5493 N   0  0  0  0  0  2  0  0  0  0  0  0
    2.0278   -1.5233    0.1080 N   0  0  0  0  0  0  0  0  0  0  0  0
   -0.5837    0.4344    2.5489 C   0  0  0  0  0  0  0  0  0  0  0  0
    0.5064    1.4240    2.1335 C   0  0  0  0  0  0  0  0  0  0  0  0
    0.7009    3.4221    0.5751 C   0  0  0  0  0  0  0  0  0  0  0  0
    0.1516    3.7404   -0.6501 C   0  0  0  0  0  0  0  0  0  0  0  0
   -0.6727    2.6187   -1.0329 C   0  0  0  0  0  0  0  0  0  0  0  0
    1.6251    4.1817    1.4631 C   0  0  0  0  0  0  0  0  0  0  0  0
   -1.3730    2.3970   -2.2027 C   0  0  0  0  0  0  0  0  0  0  0  0
    0.5669   -1.6730    2.1250 C   0  0  0  0  0  0  0  0  0  0  0  0
    1.2179   -2.3957    0.9468 C   0  0  0  0  0  0  0  0  0  0  0  0
    3.3477   -1.6696   -0.2263 C   0  0  2  0  0  3  0  0  0  0  0  0
    3.6336   -0.6552   -1.1439 C   0  0  0  0  0  0  0  0  0  0  0  0
    2.4324    0.0636   -1.3313 C   0  0  0  0  0  0  0  0  0  0  0  0
    4.2221   -2.7460    0.3257 C   0  0  0  0  0  0  0  0  0  0  0  0
    2.1672    1.2183   -2.2380 C   0  0  0  0  0  0  0  0  0  0  0  0
   -1.8398   -1.5716    1.8441 C   0  0  0  0  0  0  0  0  0  0  0  0
   -3.0900   -0.8035    1.4243 C   0  0  0  0  0  0  0  0  0  0  0  0
   -3.9417   -1.4393   -1.1916 C   0  0  0  0  0  0  0  0  0  0  0  0
   -1.5614    0.9376    2.4327 H   0  0  0  0  0  0  0  0  0  0  0  0
   -0.4603    0.2242    3.6389 H   0  0  0  0  0  0  0  0  0  0  0  0
    1.4779    0.9011    1.9861 H   0  0  0  0  0  0  0  0  0  0  0  0
    0.6568    2.1614    2.9452 H   0  0  0  0  0  0  0  0  0  0  0  0
    0.3379    4.6451   -1.2375 H   0  0  0  0  0  0  0  0  0  0  0  0
    1.9131    5.1321    0.9794 H   0  0  0  0  0  0  0  0  0  0  0  0
    2.5516    3.6109    1.6789 H   0  0  0  0  0  0  0  0  0  0  0  0
    1.1501    4.4314    2.4351 H   0  0  0  0  0  0  0  0  0  0  0  0
   -1.8873    1.4420   -2.3772 H   0  0  0  0  0  0  0  0  0  0  0  0
   -1.4022    3.1673   -2.9848 H   0  0  0  0  0  0  0  0  0  0  0  0
    1.3406   -1.0582    2.6272 H   0  0  0  0  0  0  0  0  0  0  0  0
    0.2477   -2.4329    2.8758 H   0  0  0  0  0  0  0  0  0  0  0  0
    0.4560   -2.8775    0.2951 H   0  0  0  0  0  0  0  0  0  0  0  0
    1.8894   -3.1830    1.3346 H   0  0  0  0  0  0  0  0  0  0  0  0
    4.5952   -0.4732   -1.6342 H   0  0  0  0  0  0  0  0  0  0  0  0
    5.2475   -2.6281   -0.0685 H   0  0  0  0  0  0  0  0  0  0  0  0
    3.8664   -3.7562    0.0346 H   0  0  0  0  0  0  0  0  0  0  0  0
    4.2831   -2.7145    1.4331 H   0  0  0  0  0  0  0  0  0  0  0  0
    2.9975    1.3396   -2.9572 H   0  0  0  0  0  0  0  0  0  0  0  0
    2.0627    2.1700   -1.6770 H   0  0  0  0  0  0  0  0  0  0  0  0
    1.2294    1.0680   -2.8092 H   0  0  0  0  0  0  0  0  0  0  0  0
   -1.7234   -2.4575    1.1861 H   0  0  0  0  0  0  0  0  0  0  0  0
   -2.0085   -1.9459    2.8858 H   0  0  0  0  0  0  0  0  0  0  0  0
   -3.9685   -1.4735    1.5045 H   0  0  0  0  0  0  0  0  0  0  0  0
   -3.2962    0.0574    2.0903 H   0  0  0  0  0  0  0  0  0  0  0  0
   -4.0338   -1.0849   -2.2355 H   0  0  0  0  0  0  0  0  0  0  0  0
   -4.9517   -1.5916   -0.7642 H   0  0  0  0  0  0  0  0  0  0  0  0
   -3.3250   -2.3583   -1.1875 H   0  0  0  0  0  0  0  0  0  0  0  0
  1 22  1  0  0  0  0
  2 21  1  0  0  0  0
  2 14  1  0  0  0  0
  2  7  1  0  0  0  0
  3  4  1  0  0  0  0
  4  8  1  0  0  0  0
  5  6  1  0  0  0  0
  6 15  1  0  0  0  0
  7 25  1  0  0  0  0
  8  7  1  0  0  0  0
  8 27  1  0  0  0  0
  9  4  1  0  0  0  0
  9 12  1  0  0  0  0
 10  9  2  0  0  0  0
 11 10  1  0  0  0  0
 11  3  1  0  0  0  0
 12 30  1  0  0  0  0
 12 31  1  0  0  0  0
 13 11  2  0  0  0  0
 14 34  1  0  0  0  0
 14 35  1  0  0  0  0
 15 37  1  0  0  0  0
 15 14  1  0  0  0  0
 16  6  1  0  0  0  0
 16 19  1  6  0  0  0
 17 16  1  0  0  0  0
 18 17  2  0  0  0  0
 18  5  1  0  0  0  0
 19 41  1  0  0  0  0
 20 43  1  0  0  0  0
 20 18  1  0  0  0  0
 21 46  1  0  0  0  0
 22 47  1  0  0  0  0
 22 21  1  0  0  0  0
 22 48  1  0  0  0  0
 23 51  1  0  0  0  0
 23 50  1  0  0  0  0
 23  1  1  0  0  0  0
 24  7  1  0  0  0  0
 26  8  1  0  0  0  0
 28 10  1  0  0  0  0
 29 12  1  0  0  0  0
 32 13  1  0  0  0  0
 33 13  1  0  0  0  0
 36 15  1  0  0  0  0
 38 17  1  0  0  0  0
 39 19  1  0  0  0  0
 40 19  1  0  0  0  0
 42 20  1  0  0  0  0
 44 20  1  0  0  0  0
 45 21  1  0  0  0  0
 49 23  1  0  0  0  0
M  END
