1,4,5,7
q = -1.0

 51 52  0  0  1  0  0  0  0  0999 V2000
    0.9920    1.5386   -0.1481 S   0  0  0  0  0  1  0  0  0  0  0  0
    3.8988    2.2556   -0.0633 S   0  0  0  0  0  0  0  0  0  0  0  0
   -1.3333   -2.0737    1.6559 O   0  0  0  0  0  0  0  0  0  0  0  0
    0.9272   -1.4726   -0.4367 N   0  0  0  0  0  2  0  0  0  0  0  0
   -1.7640   -1.5069   -0.5601 N   0  0  0  0  0  0  0  0  0  0  0  0
   -2.9534    0.5019   -0.6867 N   0  0  0  0  0  0  0  0  0  0  0  0
   -1.8590    1.0230   -0.0466 N   0  0  0  0  0  2  0  0  0  0  0  0
    2.6369    1.0284   -0.0985 C   0  0  2  0  0  3  0  0  0  0  0  0
    3.0759   -0.2955   -0.1039 C   0  0  0  0  0  0  0  0  0  0  0  0
    4.5335   -0.7119   -0.0387 C   0  0  0  0  0  0  0  0  0  0  0  0
    4.4625   -2.2147    0.2869 C   0  0  0  0  0  0  0  0  0  0  0  0
    3.1277   -2.6811   -0.3196 C   0  0  0  0  0  0  0  0  0  0  0  0
    2.2484   -1.4387   -0.2762 C   0  0  0  0  0  0  0  0  0  0  0  0
    0.3073   -2.7868   -0.6801 C   0  0  0  0  0  0  0  0  0  0  0  0
   -1.0479   -2.5610   -1.3234 C   0  0  0  0  0  0  0  0  0  0  0  0
   -2.7504   -0.7546   -1.3626 C   0  0  0  0  0  0  0  0  0  0  0  0
   -5.4046    0.9171   -1.0730 C   0  0  0  0  0  0  0  0  0  0  0  0
   -4.0764    1.2596   -0.4876 C   0  0  2  0  0  3  0  0  0  0  0  0
   -3.6688    2.3199    0.3212 C   0  0  0  0  0  0  0  0  0  0  0  0
   -2.2878    2.1393    0.5895 C   0  0  0  0  0  0  0  0  0  0  0  0
   -1.4151    2.9974    1.4430 C   0  0  0  0  0  0  0  0  0  0  0  0
    2.9962    3.8270    0.0158 C   0  0  0  0  0  0  0  0  0  0  0  0
   -2.3547   -1.9730    0.7166 C   0  0  0  0  0  0  0  0  0  0  0  0
   -1.8004   -2.3780    2.9636 C   0  0  0  0  0  0  0  0  0  0  0  0
    5.0313   -0.5291   -1.0187 H   0  0  0  0  0  0  0  0  0  0  0  0
    5.1085   -0.1348    0.7150 H   0  0  0  0  0  0  0  0  0  0  0  0
    5.3296   -2.7871   -0.0930 H   0  0  0  0  0  0  0  0  0  0  0  0
    4.4295   -2.3533    1.3869 H   0  0  0  0  0  0  0  0  0  0  0  0
    3.2530   -2.9966   -1.3817 H   0  0  0  0  0  0  0  0  0  0  0  0
    2.6839   -3.5435    0.2166 H   0  0  0  0  0  0  0  0  0  0  0  0
    0.9241   -3.4074   -1.3623 H   0  0  0  0  0  0  0  0  0  0  0  0
    0.1961   -3.3406    0.2758 H   0  0  0  0  0  0  0  0  0  0  0  0
   -1.6465   -3.4971   -1.3712 H   0  0  0  0  0  0  0  0  0  0  0  0
   -0.9120   -2.1798   -2.3552 H   0  0  0  0  0  0  0  0  0  0  0  0
   -2.3192   -0.6063   -2.3746 H   0  0  0  0  0  0  0  0  0  0  0  0
   -3.7263   -1.2780   -1.4645 H   0  0  0  0  0  0  0  0  0  0  0  0
   -6.1550    1.6636   -0.7569 H   0  0  0  0  0  0  0  0  0  0  0  0
   -5.3796    0.9128   -2.1824 H   0  0  0  0  0  0  0  0  0  0  0  0
   -5.7639   -0.0793   -0.7396 H   0  0  0  0  0  0  0  0  0  0  0  0
   -4.3009    3.1345    0.6889 H   0  0  0  0  0  0  0  0  0  0  0  0
   -0.6763    2.3908    1.9997 H   0  0  0  0  0  0  0  0  0  0  0  0
   -0.8441    3.7258    0.8319 H   0  0  0  0  0  0  0  0  0  0  0  0
   -2.0364    3.5676    2.1585 H   0  0  0  0  0  0  0  0  0  0  0  0
    3.7820    4.6045    0.0666 H   0  0  0  0  0  0  0  0  0  0  0  0
    2.3800    3.9817   -0.8904 H   0  0  0  0  0  0  0  0  0  0  0  0
    2.3631    3.8790    0.9226 H   0  0  0  0  0  0  0  0  0  0  0  0
   -2.8702   -2.9551    0.5501 H   0  0  0  0  0  0  0  0  0  0  0  0
   -3.1234   -1.2262    1.0300 H   0  0  0  0  0  0  0  0  0  0  0  0
   -2.5048   -1.5978    3.3335 H   0  0  0  0  0  0  0  0  0  0  0  0
   -2.3104   -3.3676    3.0007 H   0  0  0  0  0  0  0  0  0  0  0  0
   -0.9141   -2.4049    3.6227 H   0  0  0  0  0  0  0  0  0  0  0  0
  2 22  1  0  0  0  0
  3 24  1  0  0  0  0
  4 13  1  0  0  0  0
  5 23  1  0  0  0  0
  6 18  1  0  0  0  0
  6  7  1  0  0  0  0
  7 20  1  0  0  0  0
  8  1  1  6  0  0  0
  8  2  1  0  0  0  0
  9  8  1  0  0  0  0
  9 10  1  0  0  0  0
 10 11  1  0  0  0  0
 10 26  1  0  0  0  0
 11 28  1  0  0  0  0
 12 13  1  0  0  0  0
 12 30  1  0  0  0  0
 12 11  1  0  0  0  0
 13  9  2  0  0  0  0
 14  4  1  0  0  0  0
 14 32  1  0  0  0  0
 15 14  1  0  0  0  0
 15  5  1  0  0  0  0
 16  6  1  0  0  0  0
 16  5  1  0  0  0  0
 17 37  1  0  0  0  0
 17 39  1  0  0  0  0
 18 17  1  6  0  0  0
 18 19  1  0  0  0  0
 19 20  2  0  0  0  0
 19 40  1  0  0  0  0
 20 21  1  0  0  0  0
 21 41  1  0  0  0  0
 21 43  1  0  0  0  0
 22 44  1  0  0  0  0
 22 46  1  0  0  0  0
 23 48  1  0  0  0  0
 23  3  1  0  0  0  0
 24 50  1  0  0  0  0
 24 49  1  0  0  0  0
 24 51  1  0  0  0  0
 25 10  1  0  0  0  0
 27 11  1  0  0  0  0
 29 12  1  0  0  0  0
 31 14  1  0  0  0  0
 33 15  1  0  0  0  0
 34 15  1  0  0  0  0
 35 16  1  0  0  0  0
 36 16  1  0  0  0  0
 38 17  1  0  0  0  0
 42 21  1  0  0  0  0
 45 22  1  0  0  0  0
 47 23  1  0  0  0  0
M  END
