1,5,11,17
q = -2.0, confidence = 0.732

 25 25  0  0  0  0  0  0  0  0999 V2000
    1.0483   -1.5482   -0.2971 N   0  0  0  0  0  2  0  0  0  0  0  0
    1.0172   -2.4748   -0.7350 H   0  0  0  0  0  0  0  0  0  0  0  0
    2.2760   -0.9077   -0.3669 C   0  0  0  0  0  0  0  0  0  0  0  0
    2.2263    0.4955   -0.0865 C   0  0  0  0  0  0  0  0  0  0  0  0
    0.9068    0.9264    0.1624 N   0  0  0  0  0  2  0  0  0  0  0  0
    0.4921    2.2511    0.1582 C   0  0  0  0  0  0  0  0  0  0  0  0
    1.2220    3.2430    0.1686 O   0  0  0  0  0  0  0  0  0  0  0  0
   -1.0369    2.3646    0.1122 C   0  0  0  0  0  0  0  0  0  0  0  0
   -1.3842    2.8388    1.0597 H   0  0  0  0  0  0  0  0  0  0  0  0
   -1.3211    3.0691   -0.6986 H   0  0  0  0  0  0  0  0  0  0  0  0
   -1.6381    1.0552   -0.0903 N   0  0  0  0  0  2  0  0  0  0  0  0
   -2.8701    0.9966   -0.7030 C   0  0  0  0  0  0  0  0  0  0  0  0
   -3.5448    1.9876   -1.0017 O   0  0  0  0  0  0  0  0  0  0  0  0
   -3.3558   -0.4270   -0.9827 C   0  0  0  0  0  0  0  0  0  0  0  0
   -3.8296   -0.4378   -1.9849 H   0  0  0  0  0  0  0  0  0  0  0  0
   -4.1446   -0.6796   -0.2422 H   0  0  0  0  0  0  0  0  0  0  0  0
   -2.0010   -1.6848   -0.8873 S   0  0  0  0  0  1  0  0  0  0  0  0
    3.5101   -1.4988   -0.7031 C   0  0  0  0  0  0  0  0  0  0  0  0
    3.5464   -2.5770   -0.9296 H   0  0  0  0  0  0  0  0  0  0  0  0
    4.6788   -0.7169   -0.7386 C   0  0  0  0  0  0  0  0  0  0  0  0
    5.6408   -1.1905   -0.9932 H   0  0  0  0  0  0  0  0  0  0  0  0
    4.6247    0.6559   -0.4471 C   0  0  0  0  0  0  0  0  0  0  0  0
    5.5433    1.2631   -0.4750 H   0  0  0  0  0  0  0  0  0  0  0  0
    3.3977    1.2699   -0.1242 C   0  0  0  0  0  0  0  0  0  0  0  0
    3.3203    2.3441    0.0827 H   0  0  0  0  0  0  0  0  0  0  0  0
  2  1  1  0  0  0  0
  3  1  1  0  0  0  0
  3  4  1  0  0  0  0
  4  5  1  0  0  0  0
  6  5  1  0  0  0  0
  6  7  2  0  0  0  0
  8  6  1  0  0  0  0
  8  9  1  0  0  0  0
 10  8  1  0  0  0  0
 11  8  1  0  0  0  0
 12 11  1  0  0  0  0
 13 12  2  0  0  0  0
 14 17  1  0  0  0  0
 14 12  1  0  0  0  0
 14 16  1  0  0  0  0
 15 14  1  0  0  0  0
 18  3  2  0  0  0  0
 19 18  1  0  0  0  0
 20 18  1  0  0  0  0
 20 22  2  0  0  0  0
 21 20  1  0  0  0  0
 22 24  1  0  0  0  0
 23 22  1  0  0  0  0
 24  4  2  0  0  0  0
 24 25  1  0  0  0  0
M  END
