3,4,10,65
q = -2.0, confidence = 0.966

 65 67  0  0  1  0  0  0  0  0999 V2000
    2.2969   -1.4387    1.7100 S   0  0  0  0  0  0  0  0  0  0  0  0
    1.5453   -0.4649    2.2976 H   0  0  0  0  0  0  0  0  0  0  0  0
   -2.0069    1.2901   -0.0495 N   0  0  0  0  0  2  0  0  0  0  0  0
    1.9431    0.7856    0.1871 N   0  0  0  0  0  2  0  0  0  0  0  0
   -2.9532    0.3342   -0.0486 N   0  0  0  0  0  0  0  0  0  0  0  0
    3.7047    3.9704   -0.0526 C   0  0  0  0  0  0  0  0  0  0  0  0
    4.6036    3.3319    0.0069 H   0  0  0  0  0  0  0  0  0  0  0  0
    3.7357    4.6871    0.7958 H   0  0  0  0  0  0  0  0  0  0  0  0
    3.7671    4.5615   -0.9910 H   0  0  0  0  0  0  0  0  0  0  0  0
    0.0251    2.9415   -0.0782 N   0  0  0  0  0  2  0  0  0  0  0  0
   -2.3579    2.5721   -0.1797 C   0  0  0  0  0  0  0  0  0  0  0  0
   -6.9389   -1.2108   -0.2340 C   0  0  0  0  0  0  0  0  0  0  0  0
   -7.6061   -0.3408   -0.3318 H   0  0  0  0  0  0  0  0  0  0  0  0
   -3.2906   -1.9786    0.0823 N   0  0  0  0  0  0  0  0  0  0  0  0
   -2.7839   -2.8617    0.1755 H   0  0  0  0  0  0  0  0  0  0  0  0
   -1.3681    4.8919   -0.3082 C   0  0  0  0  0  0  0  0  0  0  0  0
   -2.3648    5.3423   -0.3957 H   0  0  0  0  0  0  0  0  0  0  0  0
    2.7842    1.7786    0.0903 N   0  0  0  0  0  0  0  0  0  0  0  0
    2.4864    3.0691   -0.0123 C   0  0  0  0  0  0  0  0  0  0  0  0
    4.0820   -4.5766   -1.1487 C   0  0  0  0  0  0  0  0  0  0  0  0
    4.5136   -4.5362   -2.1743 H   0  0  0  0  0  0  0  0  0  0  0  0
    3.4444   -5.4848   -1.1140 H   0  0  0  0  0  0  0  0  0  0  0  0
   -4.6858   -2.1065   -0.0156 C   0  0  0  0  0  0  0  0  0  0  0  0
   -7.4705   -2.5076   -0.2030 C   0  0  0  0  0  0  0  0  0  0  0  0
   -8.5558   -2.6708   -0.2758 H   0  0  0  0  0  0  0  0  0  0  0  0
   -5.5571   -1.0028   -0.1413 C   0  0  0  0  0  0  0  0  0  0  0  0
   -5.1247    0.0036   -0.1645 H   0  0  0  0  0  0  0  0  0  0  0  0
   -5.2096   -3.4333    0.0175 C   0  0  0  0  0  0  0  0  0  0  0  0
   -6.6004   -3.6013   -0.0778 C   0  0  0  0  0  0  0  0  0  0  0  0
   -7.0072   -4.6246   -0.0526 H   0  0  0  0  0  0  0  0  0  0  0  0
   -3.7972    2.9500   -0.3140 C   0  0  0  0  0  0  0  0  0  0  0  0
   -4.2438    2.4584   -1.2036 H   0  0  0  0  0  0  0  0  0  0  0  0
   -3.9400    4.0406   -0.4043 H   0  0  0  0  0  0  0  0  0  0  0  0
   -4.3747    2.5866    0.5614 H   0  0  0  0  0  0  0  0  0  0  0  0
   -2.4558   -0.8958    0.0741 C   0  0  0  0  0  0  0  0  0  0  0  0
   -1.2342    3.5033   -0.1890 C   0  0  0  0  0  0  0  0  0  0  0  0
    2.6022   -0.4965    0.1867 C   0  0  0  0  0  0  0  0  0  0  0  0
   -0.2118    5.6932   -0.3130 C   0  0  0  0  0  0  0  0  0  0  0  0
   -0.3005    6.7860   -0.4010 H   0  0  0  0  0  0  0  0  0  0  0  0
    1.1700    3.6847   -0.0957 C   0  0  0  0  0  0  0  0  0  0  0  0
    3.2312   -3.3260   -0.9081 C   0  0  0  0  0  0  0  0  0  0  0  0
    2.7094   -3.4159    0.0691 H   0  0  0  0  0  0  0  0  0  0  0  0
    2.4368   -3.2241   -1.6762 H   0  0  0  0  0  0  0  0  0  0  0  0
    4.0998   -2.0512   -0.9173 C   0  0  1  0  0  0  0  0  0  0  0  0
    4.5866   -2.0047   -1.9204 H   0  0  0  0  0  0  0  0  0  0  0  0
    5.2214   -4.6742   -0.1268 C   0  0  0  0  0  0  0  0  0  0  0  0
    4.7890   -4.8182    0.8888 H   0  0  0  0  0  0  0  0  0  0  0  0
    5.8505   -5.5667   -0.3288 H   0  0  0  0  0  0  0  0  0  0  0  0
    6.1273   -0.8695    0.0809 C   0  0  0  0  0  0  0  0  0  0  0  0
    6.6045   -0.7484   -0.9151 H   0  0  0  0  0  0  0  0  0  0  0  0
    6.9365   -0.9281    0.8375 H   0  0  0  0  0  0  0  0  0  0  0  0
    5.5296    0.0423    0.2769 H   0  0  0  0  0  0  0  0  0  0  0  0
    6.0798   -3.4043   -0.1333 C   0  0  0  0  0  0  0  0  0  0  0  0
    6.5936   -3.3115   -1.1181 H   0  0  0  0  0  0  0  0  0  0  0  0
    6.8853   -3.4735    0.6288 H   0  0  0  0  0  0  0  0  0  0  0  0
    1.0420    5.1013   -0.2101 C   0  0  0  0  0  0  0  0  0  0  0  0
    1.9456    5.7214   -0.2179 H   0  0  0  0  0  0  0  0  0  0  0  0
    3.3157   -0.8340   -0.8032 N   0  0  0  0  0  0  0  0  0  0  0  0
   -4.2937   -4.6241    0.1503 C   0  0  0  0  0  0  0  0  0  0  0  0
   -3.7024   -4.5966    1.0923 H   0  0  0  0  0  0  0  0  0  0  0  0
   -3.5688   -4.6922   -0.6909 H   0  0  0  0  0  0  0  0  0  0  0  0
   -4.8707   -5.5676    0.1579 H   0  0  0  0  0  0  0  0  0  0  0  0
    5.2573   -2.1283    0.1133 C   0  0  2  0  0  0  0  0  0  0  0  0
    4.7997   -2.2116    1.1253 H   0  0  0  0  0  0  0  0  0  0  0  0
   -0.7422   -1.3006    0.2563 S   0  0  0  0  0  1  0  0  0  0  0  0
  1  2  1  0  0  0  0
  3  5  1  0  0  0  0
  5 35  2  0  0  0  0
  6 19  1  0  0  0  0
  6  7  1  0  0  0  0
  6  8  1  0  0  0  0
  9  6  1  0  0  0  0
 11  3  1  0  0  0  0
 12 24  2  0  0  0  0
 12 26  1  0  0  0  0
 13 12  1  0  0  0  0
 14 15  1  0  0  0  0
 16 36  1  0  0  0  0
 17 16  1  0  0  0  0
 18  4  1  0  0  0  0
 19 18  2  0  0  0  0
 20 22  1  0  0  0  0
 20 41  1  0  0  0  0
 20 46  1  0  0  0  0
 21 20  1  0  0  0  0
 23 28  1  0  0  0  0
 23 14  1  0  0  0  0
 24 29  1  0  0  0  0
 25 24  1  0  0  0  0
 26 23  2  0  0  0  0
 27 26  1  0  0  0  0
 28 59  1  0  0  0  0
 29 30  1  0  0  0  0
 29 28  2  0  0  0  0
 31 11  1  0  0  0  0
 31 34  1  0  0  0  0
 32 31  1  0  0  0  0
 33 31  1  0  0  0  0
 35 14  1  0  0  0  0
 35 65  1  0  0  0  0
 36 11  2  0  0  0  0
 36 10  1  0  0  0  0
 37  4  1  0  0  0  0
 37  1  1  0  0  0  0
 38 16  2  0  0  0  0
 38 56  1  0  0  0  0
 39 38  1  0  0  0  0
 40 10  1  0  0  0  0
 40 19  1  0  0  0  0
 41 42  1  0  0  0  0
 43 41  1  0  0  0  0
 44 45  1  6  0  0  0
 44 41  1  0  0  0  0
 44 58  1  0  0  0  0
 44 63  1  0  0  0  0
 46 47  1  0  0  0  0
 48 46  1  0  0  0  0
 49 63  1  0  0  0  0
 49 52  1  0  0  0  0
 49 51  1  0  0  0  0
 50 49  1  0  0  0  0
 53 46  1  0  0  0  0
 53 63  1  0  0  0  0
 53 55  1  0  0  0  0
 54 53  1  0  0  0  0
 56 40  2  0  0  0  0
 57 56  1  0  0  0  0
 58 37  2  0  0  0  0
 59 62  1  0  0  0  0
 59 60  1  0  0  0  0
 61 59  1  0  0  0  0
 63 64  1  1  0  0  0
M  END
