1,3,4,6
q = -1.0

 60 62  0  0  1  0  0  0  0  0999 V2000
   -1.7735    1.5913   -0.1720 S   0  0  0  0  0  1  0  0  0  0  0  0
   -4.6655    2.0893    0.3404 S   0  0  0  0  0  0  0  0  0  0  0  0
   -1.6352   -1.5884   -0.4191 N   0  0  0  0  0  2  0  0  0  0  0  0
    1.1371   -1.6385   -0.8193 N   0  0  0  0  0  0  0  0  0  0  0  0
    2.3720    0.3490   -1.3243 N   0  0  0  0  0  0  0  0  0  0  0  0
    1.3417    1.0774   -0.7902 N   0  0  0  0  0  2  0  0  0  0  0  0
    2.5805   -1.2879    1.1560 N   0  0  0  0  0  0  0  0  0  0  0  0
    3.8905   -1.1614    0.7948 N   0  0  0  0  0  0  0  0  0  0  0  0
   -3.3481    0.9404    0.1107 C   0  0  1  0  0  3  0  0  0  0  0  0
   -3.7274   -0.4061    0.1740 C   0  0  0  0  0  0  0  0  0  0  0  0
   -5.1583   -0.8457    0.4445 C   0  0  0  0  0  0  0  0  0  0  0  0
   -5.0262   -2.3406    0.7823 C   0  0  0  0  0  0  0  0  0  0  0  0
   -3.7824   -2.8021    0.0060 C   0  0  0  0  0  0  0  0  0  0  0  0
   -2.9216   -1.5506   -0.0891 C   0  0  0  0  0  0  0  0  0  0  0  0
   -1.0013   -2.8857   -0.7027 C   0  0  0  0  0  0  0  0  0  0  0  0
    0.2972   -2.6835   -1.4773 C   0  0  0  0  0  0  0  0  0  0  0  0
    2.1363   -1.0215   -1.7280 C   0  0  0  0  0  0  0  0  0  0  0  0
    4.7821    0.5536   -1.9892 C   0  0  0  0  0  0  0  0  0  0  0  0
    3.5111    1.0974   -1.4343 C   0  0  2  0  0  3  0  0  0  0  0  0
    3.1851    2.3591   -0.9341 C   0  0  0  0  0  0  0  0  0  0  0  0
    1.8290    2.3096   -0.5306 C   0  0  0  0  0  0  0  0  0  0  0  0
    1.0053    3.3870    0.0886 C   0  0  0  0  0  0  0  0  0  0  0  0
    1.7625   -2.2022    0.4356 C   0  0  0  0  0  0  0  0  0  0  0  0
    0.8700   -0.4289    2.8176 C   0  0  0  0  0  0  0  0  0  0  0  0
    2.2310   -0.4584    2.2080 C   0  0  0  0  0  0  0  0  0  0  0  0
    3.3911    0.2382    2.5206 C   0  0  0  0  0  0  0  0  0  0  0  0
    4.3926   -0.2324    1.6177 C   0  0  0  0  0  0  0  0  0  0  0  0
    5.8211    0.1986    1.5207 C   0  0  0  0  0  0  0  0  0  0  0  0
   -3.8785    3.7205    0.2524 C   0  0  0  0  0  0  0  0  0  0  0  0
   -5.6343   -0.2653    1.2617 H   0  0  0  0  0  0  0  0  0  0  0  0
   -5.7877   -0.6843   -0.4606 H   0  0  0  0  0  0  0  0  0  0  0  0
   -4.8417   -2.4600    1.8695 H   0  0  0  0  0  0  0  0  0  0  0  0
   -5.9303   -2.9274    0.5333 H   0  0  0  0  0  0  0  0  0  0  0  0
   -3.2592   -3.6532    0.4859 H   0  0  0  0  0  0  0  0  0  0  0  0
   -4.0457   -3.1314   -1.0261 H   0  0  0  0  0  0  0  0  0  0  0  0
   -0.8177   -3.4465    0.2428 H   0  0  0  0  0  0  0  0  0  0  0  0
   -1.6649   -3.5319   -1.3150 H   0  0  0  0  0  0  0  0  0  0  0  0
    0.0664   -2.3193   -2.4973 H   0  0  0  0  0  0  0  0  0  0  0  0
    0.8549   -3.6428   -1.5676 H   0  0  0  0  0  0  0  0  0  0  0  0
    3.1077   -1.5565   -1.6972 H   0  0  0  0  0  0  0  0  0  0  0  0
    1.7165   -1.0588   -2.7554 H   0  0  0  0  0  0  0  0  0  0  0  0
    5.1006   -0.3426   -1.4175 H   0  0  0  0  0  0  0  0  0  0  0  0
    4.6825    0.2710   -3.0577 H   0  0  0  0  0  0  0  0  0  0  0  0
    5.5797    1.3143   -1.9157 H   0  0  0  0  0  0  0  0  0  0  0  0
    3.8553    3.2213   -0.8632 H   0  0  0  0  0  0  0  0  0  0  0  0
    1.6452    4.2458    0.3606 H   0  0  0  0  0  0  0  0  0  0  0  0
    0.2221    3.7473   -0.6090 H   0  0  0  0  0  0  0  0  0  0  0  0
    0.4901    3.0242    1.0000 H   0  0  0  0  0  0  0  0  0  0  0  0
    0.9361   -2.5516    1.0796 H   0  0  0  0  0  0  0  0  0  0  0  0
    2.3953   -3.0672    0.1423 H   0  0  0  0  0  0  0  0  0  0  0  0
    0.8551    0.2796    3.6655 H   0  0  0  0  0  0  0  0  0  0  0  0
    0.0962   -0.1032    2.0860 H   0  0  0  0  0  0  0  0  0  0  0  0
    0.5660   -1.4226    3.2095 H   0  0  0  0  0  0  0  0  0  0  0  0
    3.5085    0.9753    3.3221 H   0  0  0  0  0  0  0  0  0  0  0  0
    6.3995   -0.5047    0.8931 H   0  0  0  0  0  0  0  0  0  0  0  0
    5.9018    1.2130    1.0758 H   0  0  0  0  0  0  0  0  0  0  0  0
    6.2943    0.2448    2.5211 H   0  0  0  0  0  0  0  0  0  0  0  0
   -3.4244    3.8941   -0.7418 H   0  0  0  0  0  0  0  0  0  0  0  0
   -4.7047    4.4393    0.4129 H   0  0  0  0  0  0  0  0  0  0  0  0
   -3.1194    3.8444    1.0485 H   0  0  0  0  0  0  0  0  0  0  0  0
  3 14  1  0  0  0  0
  4 23  1  0  0  0  0
  5  6  1  0  0  0  0
  6 21  1  0  0  0  0
  7 25  1  0  0  0  0
  8  7  1  0  0  0  0
  8 27  2  0  0  0  0
  9  1  1  6  0  0  0
  9 10  1  0  0  0  0
  9  2  1  0  0  0  0
 10 11  1  0  0  0  0
 11 12  1  0  0  0  0
 11 30  1  0  0  0  0
 12 32  1  0  0  0  0
 13 34  1  0  0  0  0
 13 12  1  0  0  0  0
 14 13  1  0  0  0  0
 14 10  2  0  0  0  0
 15  3  1  0  0  0  0
 15 36  1  0  0  0  0
 16  4  1  0  0  0  0
 16 15  1  0  0  0  0
 17 40  1  0  0  0  0
 17  5  1  0  0  0  0
 17  4  1  0  0  0  0
 18 44  1  0  0  0  0
 18 42  1  0  0  0  0
 19 18  1  1  0  0  0
 19  5  1  0  0  0  0
 19 20  1  0  0  0  0
 20 45  1  0  0  0  0
 20 21  2  0  0  0  0
 21 22  1  0  0  0  0
 22 46  1  0  0  0  0
 22 48  1  0  0  0  0
 23 49  1  0  0  0  0
 23  7  1  0  0  0  0
 24 53  1  0  0  0  0
 24 51  1  0  0  0  0
 25 26  2  0  0  0  0
 25 24  1  0  0  0  0
 26 54  1  0  0  0  0
 27 26  1  0  0  0  0
 28 27  1  0  0  0  0
 28 57  1  0  0  0  0
 29  2  1  0  0  0  0
 29 59  1  0  0  0  0
 29 60  1  0  0  0  0
 31 11  1  0  0  0  0
 33 12  1  0  0  0  0
 35 13  1  0  0  0  0
 37 15  1  0  0  0  0
 38 16  1  0  0  0  0
 39 16  1  0  0  0  0
 41 17  1  0  0  0  0
 43 18  1  0  0  0  0
 47 22  1  0  0  0  0
 50 23  1  0  0  0  0
 52 24  1  0  0  0  0
 55 28  1  0  0  0  0
 56 28  1  0  0  0  0
 58 29  1  0  0  0  0
M  END
