1,28,29,31
q = -1.0

 33 33  0  0  1  0  0  0  0  0999 V2000
   -1.7355   -1.8823   -0.2656 S   0  0  0  0  0  1  0  0  0  0  0  0
   -2.9550   -0.6121   -0.2221 C   0  0  0  0  0  0  0  0  0  0  0  0
   -1.1285    2.3654   -0.0618 C   0  0  0  0  0  0  0  0  0  0  0  0
    0.3325    2.5709   -0.0468 C   0  0  0  0  0  0  0  0  0  0  0  0
    2.9221    0.1098   -0.1612 C   0  0  1  0  0  3  0  0  0  0  0  0
    4.3158   -0.0906   -0.2775 C   0  0  0  0  0  0  0  0  0  0  0  0
    5.0007    0.7699   -0.2893 H   0  0  0  0  0  0  0  0  0  0  0  0
    4.7892   -1.3967   -0.3801 C   0  0  0  0  0  0  0  0  0  0  0  0
    5.8696   -1.5796   -0.4756 H   0  0  0  0  0  0  0  0  0  0  0  0
    3.8808   -2.4766   -0.3647 C   0  0  0  0  0  0  0  0  0  0  0  0
    4.2235   -3.5164   -0.4504 H   0  0  0  0  0  0  0  0  0  0  0  0
    2.5235   -2.1907   -0.2413 C   0  0  0  0  0  0  0  0  0  0  0  0
    1.7663   -2.9912   -0.2276 H   0  0  0  0  0  0  0  0  0  0  0  0
   -4.7384   -2.3446   -0.4154 C   0  0  0  0  0  0  0  0  0  0  0  0
   -4.3162   -2.8463   -1.3108 H   0  0  0  0  0  0  0  0  0  0  0  0
   -5.8391   -2.3171   -0.5050 H   0  0  0  0  0  0  0  0  0  0  0  0
   -4.4655   -2.9529    0.4722 H   0  0  0  0  0  0  0  0  0  0  0  0
   -2.1001    3.5033   -0.1161 C   0  0  0  0  0  0  0  0  0  0  0  0
   -3.1272    3.0966   -0.1113 H   0  0  0  0  0  0  0  0  0  0  0  0
   -1.9704    4.1137   -1.0343 H   0  0  0  0  0  0  0  0  0  0  0  0
   -1.9837    4.1841    0.7526 H   0  0  0  0  0  0  0  0  0  0  0  0
    0.9608    3.9298   -0.1247 C   0  0  0  0  0  0  0  0  0  0  0  0
    1.6673    4.0905    0.7178 H   0  0  0  0  0  0  0  0  0  0  0  0
    0.2112    4.7382   -0.0904 H   0  0  0  0  0  0  0  0  0  0  0  0
    1.5344    4.0470   -1.0703 H   0  0  0  0  0  0  0  0  0  0  0  0
   -4.2473   -0.9871   -0.2970 N   0  0  0  0  0  0  0  0  0  0  0  0
   -2.7648    0.7265   -0.1427 N   0  0  0  0  0  0  0  0  0  0  0  0
   -1.4998    1.0954   -0.0692 N   0  0  0  0  0  2  0  0  0  0  0  0
    1.0440    1.4703   -0.0049 N   0  0  0  0  0  2  0  0  0  0  0  0
    2.3788    1.3822   -0.0683 N   0  0  0  0  0  0  0  0  0  0  0  0
    2.0462   -0.9279   -0.1401 N   0  0  0  0  0  2  0  0  0  0  0  0
   -4.9105   -0.2061   -0.2807 H   0  0  0  0  0  0  0  0  0  0  0  0
    2.9818    2.2079   -0.1464 H   0  0  0  0  0  0  0  0  0  0  0  0
  1  2  1  0  0  0  0
  2 27  2  0  0  0  0
  3  4  2  0  0  0  0
  4 29  1  0  0  0  0
  5 31  1  0  0  0  0
  5 30  1  6  0  0  0
  6  5  1  0  0  0  0
  7  6  1  0  0  0  0
  8 10  1  0  0  0  0
  8  6  2  0  0  0  0
  9  8  1  0  0  0  0
 10 12  2  0  0  0  0
 11 10  1  0  0  0  0
 12 13  1  0  0  0  0
 12 31  1  0  0  0  0
 14 26  1  0  0  0  0
 14 17  1  0  0  0  0
 15 14  1  0  0  0  0
 16 14  1  0  0  0  0
 18 19  1  0  0  0  0
 18  3  1  0  0  0  0
 18 21  1  0  0  0  0
 20 18  1  0  0  0  0
 22 24  1  0  0  0  0
 22  4  1  0  0  0  0
 22 23  1  0  0  0  0
 25 22  1  0  0  0  0
 26 32  1  0  0  0  0
 26  2  1  0  0  0  0
 27 28  1  0  0  0  0
 28  3  1  0  0  0  0
 30 29  1  0  0  0  0
 33 30  1  0  0  0  0
M  END
