1,4,7,14
q = -2.0, confidence = 0.952

 32 32  0  0  0  0  0  0  0  0999 V2000
    1.3708   -2.2062   -0.3841 S   0  0  0  0  0  1  0  0  0  0  0  0
    2.7482   -1.0897   -0.4041 C   0  0  0  0  0  0  0  0  0  0  0  0
    2.7365    0.2436   -0.3456 N   0  0  0  0  0  0  0  0  0  0  0  0
    1.5000    0.7656   -0.2899 N   0  0  0  0  0  2  0  0  0  0  0  0
    1.2744    2.0630   -0.2375 C   0  0  0  0  0  0  0  0  0  0  0  0
   -0.1412    2.4693   -0.1866 C   0  0  0  0  0  0  0  0  0  0  0  0
   -1.0040    1.4677   -0.1557 N   0  0  0  0  0  2  0  0  0  0  0  0
   -2.3228    1.6110   -0.1694 N   0  0  0  0  0  0  0  0  0  0  0  0
   -2.9455    0.3928   -0.2215 C   0  0  0  0  0  0  0  0  0  0  0  0
   -4.3717    0.3457   -0.2276 C   0  0  0  0  0  0  0  0  0  0  0  0
   -5.0243   -0.8762   -0.3036 C   0  0  0  0  0  0  0  0  0  0  0  0
   -4.2720   -2.0747   -0.3724 C   0  0  0  0  0  0  0  0  0  0  0  0
   -2.8828   -1.9680   -0.3548 C   0  0  0  0  0  0  0  0  0  0  0  0
   -2.2339   -0.7884   -0.2847 N   0  0  0  0  0  2  0  0  0  0  0  0
    3.9719   -1.6820   -0.4896 N   0  0  0  0  0  0  0  0  0  0  0  0
    5.2123   -0.9411   -0.5570 C   0  0  0  0  0  0  0  0  0  0  0  0
    2.3743    3.0834   -0.2582 C   0  0  0  0  0  0  0  0  0  0  0  0
   -0.5664    3.9073   -0.2271 C   0  0  0  0  0  0  0  0  0  0  0  0
    3.9753   -2.6989   -0.5468 H   0  0  0  0  0  0  0  0  0  0  0  0
   -4.9095    1.3025   -0.1745 H   0  0  0  0  0  0  0  0  0  0  0  0
   -6.1248   -0.9123   -0.3112 H   0  0  0  0  0  0  0  0  0  0  0  0
   -4.7544   -3.0592   -0.4386 H   0  0  0  0  0  0  0  0  0  0  0  0
   -2.2421   -2.8654   -0.4019 H   0  0  0  0  0  0  0  0  0  0  0  0
    6.0541   -1.6552   -0.6258 H   0  0  0  0  0  0  0  0  0  0  0  0
    5.3524   -0.3032    0.3415 H   0  0  0  0  0  0  0  0  0  0  0  0
    5.2371   -0.2659   -1.4390 H   0  0  0  0  0  0  0  0  0  0  0  0
    2.3724    3.6992    0.6661 H   0  0  0  0  0  0  0  0  0  0  0  0
    2.2534    3.7877   -1.1074 H   0  0  0  0  0  0  0  0  0  0  0  0
    3.3483    2.5691   -0.3472 H   0  0  0  0  0  0  0  0  0  0  0  0
   -1.6660    3.9539   -0.1157 H   0  0  0  0  0  0  0  0  0  0  0  0
   -0.0896    4.5065    0.5765 H   0  0  0  0  0  0  0  0  0  0  0  0
   -0.2915    4.3896   -1.1899 H   0  0  0  0  0  0  0  0  0  0  0  0
  2  1  1  0  0  0  0
  2  3  2  0  0  0  0
  3  4  1  0  0  0  0
  4  5  1  0  0  0  0
  5  6  2  0  0  0  0
  6  7  1  0  0  0  0
  8  7  1  0  0  0  0
  9  8  2  0  0  0  0
 10  9  1  0  0  0  0
 10 20  1  0  0  0  0
 11 10  2  0  0  0  0
 12 13  2  0  0  0  0
 12 11  1  0  0  0  0
 13 14  1  0  0  0  0
 14  9  1  0  0  0  0
 15  2  1  0  0  0  0
 16 15  1  0  0  0  0
 16 25  1  0  0  0  0
 17  5  1  0  0  0  0
 17 27  1  0  0  0  0
 18  6  1  0  0  0  0
 18 30  1  0  0  0  0
 18 31  1  0  0  0  0
 19 15  1  0  0  0  0
 21 11  1  0  0  0  0
 22 12  1  0  0  0  0
 23 13  1  0  0  0  0
 24 16  1  0  0  0  0
 26 16  1  0  0  0  0
 28 17  1  0  0  0  0
 29 17  1  0  0  0  0
 32 18  1  0  0  0  0
M  END
