1,2,3,4
q = -1.0, confidence = 0.114

 61 63  0  0  1  0  0  0  0  0999 V2000
   -0.5343   -1.9324    0.0111 S   0  0  0  0  0  1  0  0  0  0  0  0
   -2.4963    0.2211    0.0852 N   0  0  0  0  0  2  0  0  0  0  0  0
   -0.7702    2.0113   -0.0789 N   0  0  0  0  0  2  0  0  0  0  0  0
    1.2557    0.6206   -0.0997 N   0  0  0  0  0  2  0  0  0  0  0  0
   -2.2825   -2.1583    0.1556 C   0  0  0  0  0  0  0  0  0  0  0  0
   -2.8226   -3.4529    0.2412 C   0  0  0  0  0  0  0  0  0  0  0  0
   -2.1494   -4.3198    0.1683 H   0  0  0  0  0  0  0  0  0  0  0  0
   -4.1981   -3.6334    0.4420 C   0  0  0  0  0  0  0  0  0  0  0  0
   -4.6076   -4.6520    0.5148 H   0  0  0  0  0  0  0  0  0  0  0  0
   -5.0477   -2.5213    0.5751 C   0  0  0  0  0  0  0  0  0  0  0  0
   -6.1209   -2.6620    0.7662 H   0  0  0  0  0  0  0  0  0  0  0  0
   -4.5317   -1.2255    0.4710 C   0  0  0  0  0  0  0  0  0  0  0  0
   -5.2142   -0.3833    0.6097 H   0  0  0  0  0  0  0  0  0  0  0  0
   -3.1494   -1.0236    0.2284 C   0  0  0  0  0  0  0  0  0  0  0  0
   -3.0340    1.4318   -0.0527 C   0  0  2  0  0  3  0  0  0  0  0  0
   -4.4851    1.7588   -0.1782 C   0  0  0  0  0  0  0  0  0  0  0  0
   -4.9932    1.0552   -0.8665 H   0  0  0  0  0  0  0  0  0  0  0  0
   -4.6212    2.7832   -0.5680 H   0  0  0  0  0  0  0  0  0  0  0  0
   -5.0057    1.7023    0.8015 H   0  0  0  0  0  0  0  0  0  0  0  0
   -2.0298    2.5134   -0.1024 C   0  0  0  0  0  0  0  0  0  0  0  0
   -2.2022    3.9066   -0.1596 C   0  0  0  0  0  0  0  0  0  0  0  0
   -3.2059    4.3520   -0.1729 H   0  0  0  0  0  0  0  0  0  0  0  0
   -1.0560    4.7295   -0.1916 C   0  0  0  0  0  0  0  0  0  0  0  0
   -1.1769    5.8216   -0.2308 H   0  0  0  0  0  0  0  0  0  0  0  0
    0.2323    4.1735   -0.1773 C   0  0  0  0  0  0  0  0  0  0  0  0
    1.1258    4.8119   -0.2064 H   0  0  0  0  0  0  0  0  0  0  0  0
    0.3506    2.7703   -0.1239 C   0  0  0  0  0  0  0  0  0  0  0  0
    1.5442    1.9130   -0.1214 C   0  0  0  0  0  0  0  0  0  0  0  0
    2.9245    2.4746   -0.1299 C   0  0  0  0  0  0  0  0  0  0  0  0
    3.6733    1.6978   -0.3674 H   0  0  0  0  0  0  0  0  0  0  0  0
    3.1715    2.8920    0.8705 H   0  0  0  0  0  0  0  0  0  0  0  0
    3.0059    3.3051   -0.8592 H   0  0  0  0  0  0  0  0  0  0  0  0
    2.2736   -0.3828   -0.0696 C   0  0  0  0  0  0  0  0  0  0  0  0
    2.9407   -0.6660    1.1507 C   0  0  0  0  0  0  0  0  0  0  0  0
    3.9115   -1.6839    1.1285 C   0  0  0  0  0  0  0  0  0  0  0  0
    4.4455   -1.9351    2.0569 H   0  0  0  0  0  0  0  0  0  0  0  0
    4.1982   -2.3912   -0.0454 C   0  0  0  0  0  0  0  0  0  0  0  0
    4.9649   -3.1801   -0.0358 H   0  0  0  0  0  0  0  0  0  0  0  0
    3.5019   -2.1091   -1.2281 C   0  0  0  0  0  0  0  0  0  0  0  0
    3.7260   -2.6801   -2.1404 H   0  0  0  0  0  0  0  0  0  0  0  0
    2.5177   -1.1073   -1.2670 C   0  0  0  0  0  0  0  0  0  0  0  0
    2.5670    0.0152    2.4614 C   0  0  0  0  0  0  0  0  0  0  0  0
    1.9184    0.8846    2.2270 H   0  0  0  0  0  0  0  0  0  0  0  0
    1.7281   -0.9447    3.3276 C   0  0  0  0  0  0  0  0  0  0  0  0
    0.8346   -1.3031    2.7778 H   0  0  0  0  0  0  0  0  0  0  0  0
    1.3928   -0.4423    4.2575 H   0  0  0  0  0  0  0  0  0  0  0  0
    2.3224   -1.8351    3.6176 H   0  0  0  0  0  0  0  0  0  0  0  0
    3.7903    0.5475    3.2236 C   0  0  0  0  0  0  0  0  0  0  0  0
    4.4523   -0.2749    3.5621 H   0  0  0  0  0  0  0  0  0  0  0  0
    3.4712    1.1012    4.1291 H   0  0  0  0  0  0  0  0  0  0  0  0
    4.4011    1.2300    2.5985 H   0  0  0  0  0  0  0  0  0  0  0  0
    1.7780   -0.7581   -2.5514 C   0  0  0  0  0  0  0  0  0  0  0  0
    0.8274   -0.2677   -2.2445 H   0  0  0  0  0  0  0  0  0  0  0  0
    1.3974   -1.9894   -3.3814 C   0  0  0  0  0  0  0  0  0  0  0  0
    2.2879   -2.5100   -3.7886 H   0  0  0  0  0  0  0  0  0  0  0  0
    0.7752   -1.6880   -4.2476 H   0  0  0  0  0  0  0  0  0  0  0  0
    0.8183   -2.7126   -2.7739 H   0  0  0  0  0  0  0  0  0  0  0  0
    2.5798    0.2625   -3.3805 C   0  0  0  0  0  0  0  0  0  0  0  0
    2.8000    1.1840   -2.8044 H   0  0  0  0  0  0  0  0  0  0  0  0
    2.0205    0.5556   -4.2919 H   0  0  0  0  0  0  0  0  0  0  0  0
    3.5510   -0.1675   -3.7002 H   0  0  0  0  0  0  0  0  0  0  0  0
  1  5  1  0  0  0  0
  2 14  1  0  0  0  0
  4 33  1  0  0  0  0
  5 14  2  0  0  0  0
  5  6  1  0  0  0  0
  6  8  2  0  0  0  0
  7  6  1  0  0  0  0
  8  9  1  0  0  0  0
  8 10  1  0  0  0  0
 10 11  1  0  0  0  0
 12 10  2  0  0  0  0
 12 13  1  0  0  0  0
 14 12  1  0  0  0  0
 15  2  1  6  0  0  0
 16 15  1  0  0  0  0
 16 19  1  0  0  0  0
 17 16  1  0  0  0  0
 18 16  1  0  0  0  0
 20  3  1  0  0  0  0
 20 15  1  0  0  0  0
 21 20  2  0  0  0  0
 22 21  1  0  0  0  0
 23 25  2  0  0  0  0
 23 21  1  0  0  0  0
 24 23  1  0  0  0  0
 25 27  1  0  0  0  0
 26 25  1  0  0  0  0
 27 28  2  0  0  0  0
 27  3  1  0  0  0  0
 28  4  1  0  0  0  0
 29 28  1  0  0  0  0
 29 31  1  0  0  0  0
 30 29  1  0  0  0  0
 32 29  1  0  0  0  0
 33 34  1  0  0  0  0
 34 42  1  0  0  0  0
 35 34  2  0  0  0  0
 35 36  1  0  0  0  0
 37 38  1  0  0  0  0
 37 35  1  0  0  0  0
 39 37  2  0  0  0  0
 40 39  1  0  0  0  0
 41 39  1  0  0  0  0
 41 33  2  0  0  0  0
 42 48  1  0  0  0  0
 42 44  1  0  0  0  0
 43 42  1  0  0  0  0
 44 47  1  0  0  0  0
 44 46  1  0  0  0  0
 45 44  1  0  0  0  0
 48 49  1  0  0  0  0
 48 50  1  0  0  0  0
 51 48  1  0  0  0  0
 52 53  1  0  0  0  0
 52 41  1  0  0  0  0
 54 57  1  0  0  0  0
 54 52  1  0  0  0  0
 55 54  1  0  0  0  0
 56 54  1  0  0  0  0
 58 59  1  0  0  0  0
 58 52  1  0  0  0  0
 60 58  1  0  0  0  0
 61 58  1  0  0  0  0
M  END
