1,2,3,4
q = -2.0, confidence = 0.776

 33 33  0  0  0  0  0  0  0  0999 V2000
    0.0212   -1.9025   -0.4475 S   0  0  0  0  0  1  0  0  0  0  0  0
    2.7284   -0.9506   -0.3118 N   0  0  0  0  0  2  0  0  0  0  0  0
    2.1023    1.4929   -0.0808 N   0  0  0  0  0  2  0  0  0  0  0  0
   -0.4383    1.1732    0.0958 N   0  0  0  0  0  2  0  0  0  0  0  0
    3.8009   -2.6723   -1.4133 O   0  0  0  0  0  0  0  0  0  0  0  0
    4.1179    2.3355   -0.8459 O   0  0  0  0  0  0  0  0  0  0  0  0
   -0.9080    3.4187   -0.3655 O   0  0  0  0  0  0  0  0  0  0  0  0
   -6.3946   -1.3560    0.6349 O   0  0  0  0  0  0  0  0  0  0  0  0
   -6.6158   -0.0607   -1.2001 O   0  0  0  0  0  0  0  0  0  0  0  0
    1.4757   -2.9826   -0.8123 C   0  0  0  0  0  0  0  0  0  0  0  0
    2.7879   -2.2064   -0.8850 C   0  0  0  0  0  0  0  0  0  0  0  0
    3.8782   -0.0716   -0.4969 C   0  0  0  0  0  0  0  0  0  0  0  0
    3.4132    1.3877   -0.4994 C   0  0  0  0  0  0  0  0  0  0  0  0
    1.4012    2.7516   -0.1862 C   0  0  0  0  0  0  0  0  0  0  0  0
   -0.1068    2.5073   -0.1690 C   0  0  0  0  0  0  0  0  0  0  0  0
   -1.7953    0.7889    0.0141 C   0  0  0  0  0  0  0  0  0  0  0  0
   -2.6559    1.2582   -1.0100 C   0  0  0  0  0  0  0  0  0  0  0  0
   -3.9790    0.8214   -1.0796 C   0  0  0  0  0  0  0  0  0  0  0  0
   -4.4910   -0.0885   -0.1270 C   0  0  0  0  0  0  0  0  0  0  0  0
   -3.6386   -0.5509    0.8986 C   0  0  0  0  0  0  0  0  0  0  0  0
   -2.3150   -0.1184    0.9689 C   0  0  0  0  0  0  0  0  0  0  0  0
   -5.8865   -0.5746   -0.1600 C   0  0  0  0  0  0  0  0  0  0  0  0
    1.3375   -3.5141   -1.7750 H   0  0  0  0  0  0  0  0  0  0  0  0
    1.5636   -3.7553   -0.0190 H   0  0  0  0  0  0  0  0  0  0  0  0
    4.6338   -0.2033    0.3118 H   0  0  0  0  0  0  0  0  0  0  0  0
    4.4040   -0.2979   -1.4476 H   0  0  0  0  0  0  0  0  0  0  0  0
    1.6497    3.4465    0.6490 H   0  0  0  0  0  0  0  0  0  0  0  0
    1.6698    3.2931   -1.1192 H   0  0  0  0  0  0  0  0  0  0  0  0
   -2.2704    1.9709   -1.7485 H   0  0  0  0  0  0  0  0  0  0  0  0
   -4.6349    1.1800   -1.8856 H   0  0  0  0  0  0  0  0  0  0  0  0
   -4.0446   -1.2555    1.6391 H   0  0  0  0  0  0  0  0  0  0  0  0
   -1.6479   -0.4761    1.7668 H   0  0  0  0  0  0  0  0  0  0  0  0
   -7.4987   -0.4716   -1.0876 H   0  0  0  0  0  0  0  0  0  0  0  0
  5 11  2  0  0  0  0
  6 13  2  0  0  0  0
  7 15  2  0  0  0  0
  9 33  1  0  0  0  0
  9 22  1  0  0  0  0
 10  1  1  0  0  0  0
 10 24  1  0  0  0  0
 11 10  1  0  0  0  0
 11  2  1  0  0  0  0
 12  2  1  0  0  0  0
 12 25  1  0  0  0  0
 13 12  1  0  0  0  0
 13  3  1  0  0  0  0
 14 15  1  0  0  0  0
 14  3  1  0  0  0  0
 14 27  1  0  0  0  0
 15  4  1  0  0  0  0
 16  4  1  0  0  0  0
 16 21  1  0  0  0  0
 17 16  2  0  0  0  0
 18 17  1  0  0  0  0
 18 19  2  0  0  0  0
 19 20  1  0  0  0  0
 20 21  2  0  0  0  0
 20 31  1  0  0  0  0
 21 32  1  0  0  0  0
 22 19  1  0  0  0  0
 22  8  2  0  0  0  0
 23 10  1  0  0  0  0
 26 12  1  0  0  0  0
 28 14  1  0  0  0  0
 29 17  1  0  0  0  0
 30 18  1  0  0  0  0
M  END
