1,2,3,4
q = -1.0, confidence = 0.002

 40 40  0  0  0  0  0  0  0  0999 V2000
   -1.0655   -1.4881   -0.7379 S   0  0  0  0  0  1  0  0  0  0  0  0
    1.6816   -1.9222   -0.8511 N   0  0  0  0  0  0  0  0  0  0  0  0
    2.3776    0.5740    0.4017 N   0  0  0  0  0  0  0  0  0  0  0  0
   -0.2728    1.3389   -0.5098 N   0  0  0  0  0  2  0  0  0  0  0  0
    2.1901   -2.6129    0.3612 C   0  0  0  0  0  0  0  0  0  0  0  0
    3.2287   -1.7616    1.0784 C   0  0  0  0  0  0  0  0  0  0  0  0
    2.7524   -0.3753    1.5005 C   0  0  0  0  0  0  0  0  0  0  0  0
    3.5097    0.8036   -0.5187 C   0  0  0  0  0  0  0  0  0  0  0  0
    1.9853    1.8504    1.0666 C   0  0  0  0  0  0  0  0  0  0  0  0
    1.5269    2.9479    0.1118 C   0  0  0  0  0  0  0  0  0  0  0  0
    0.5863    2.4353   -0.9842 C   0  0  0  0  0  0  0  0  0  0  0  0
   -1.5318    1.6266   -0.2736 C   0  0  0  0  0  3  0  0  0  0  0  0
   -2.5949    0.7241    0.0584 C   0  0  0  0  0  0  0  0  0  0  0  0
   -3.8303    1.2773    0.5011 C   0  0  0  0  0  0  0  0  0  0  0  0
   -4.9230    0.4663    0.7832 C   0  0  0  0  0  0  0  0  0  0  0  0
   -4.8092   -0.9295    0.6019 C   0  0  0  0  0  0  0  0  0  0  0  0
   -3.6173   -1.4986    0.1505 C   0  0  0  0  0  0  0  0  0  0  0  0
   -2.4860   -0.6905   -0.1204 C   0  0  0  0  0  0  0  0  0  0  0  0
    1.0524   -2.5633   -1.3623 H   0  0  0  0  0  0  0  0  0  0  0  0
    2.4629   -1.7374   -1.5013 H   0  0  0  0  0  0  0  0  0  0  0  0
    1.3102   -2.8035    1.0090 H   0  0  0  0  0  0  0  0  0  0  0  0
    2.6276   -3.5976    0.0913 H   0  0  0  0  0  0  0  0  0  0  0  0
    3.5335   -2.2932    2.0025 H   0  0  0  0  0  0  0  0  0  0  0  0
    4.1556   -1.6931    0.4693 H   0  0  0  0  0  0  0  0  0  0  0  0
    3.5512    0.1074    2.1096 H   0  0  0  0  0  0  0  0  0  0  0  0
    1.8615   -0.4673    2.1557 H   0  0  0  0  0  0  0  0  0  0  0  0
    3.8196   -0.1363   -1.0090 H   0  0  0  0  0  0  0  0  0  0  0  0
    3.2230    1.5200   -1.3084 H   0  0  0  0  0  0  0  0  0  0  0  0
    4.3911    1.2110    0.0261 H   0  0  0  0  0  0  0  0  0  0  0  0
    1.1643    1.5951    1.7648 H   0  0  0  0  0  0  0  0  0  0  0  0
    2.8377    2.2159    1.6831 H   0  0  0  0  0  0  0  0  0  0  0  0
    1.0098    3.7109    0.7284 H   0  0  0  0  0  0  0  0  0  0  0  0
    2.3857    3.4680   -0.3587 H   0  0  0  0  0  0  0  0  0  0  0  0
    1.1615    2.0566   -1.8545 H   0  0  0  0  0  0  0  0  0  0  0  0
   -0.0378    3.2659   -1.3737 H   0  0  0  0  0  0  0  0  0  0  0  0
   -1.8204    2.6920   -0.3715 H   0  0  0  0  0  0  0  0  0  0  0  0
   -3.9056    2.3693    0.6219 H   0  0  0  0  0  0  0  0  0  0  0  0
   -5.8671    0.9063    1.1342 H   0  0  0  0  0  0  0  0  0  0  0  0
   -5.6695   -1.5824    0.8132 H   0  0  0  0  0  0  0  0  0  0  0  0
   -3.5440   -2.5862    0.0041 H   0  0  0  0  0  0  0  0  0  0  0  0
  1 18  1  0  0  0  0
  2  5  1  0  0  0  0
  3  9  1  0  0  0  0
  3  7  1  0  0  0  0
  4 12  1  0  0  0  0
  5 21  1  0  0  0  0
  5  6  1  0  0  0  0
  6  7  1  0  0  0  0
  6 23  1  0  0  0  0
  7 25  1  0  0  0  0
  7 26  1  0  0  0  0
  8 29  1  0  0  0  0
  8  3  1  0  0  0  0
  9 31  1  0  0  0  0
  9 30  1  0  0  0  0
 10 32  1  0  0  0  0
 10  9  1  0  0  0  0
 11  4  1  0  0  0  0
 11 10  1  0  0  0  0
 12 13  1  0  0  0  0
 13 14  1  0  0  0  0
 14 37  1  0  0  0  0
 14 15  2  0  0  0  0
 15 38  1  0  0  0  0
 16 15  1  0  0  0  0
 16 39  1  0  0  0  0
 17 16  2  0  0  0  0
 18 13  2  0  0  0  0
 18 17  1  0  0  0  0
 19  2  1  0  0  0  0
 20  2  1  0  0  0  0
 22  5  1  0  0  0  0
 24  6  1  0  0  0  0
 27  8  1  0  0  0  0
 28  8  1  0  0  0  0
 33 10  1  0  0  0  0
 34 11  1  0  0  0  0
 35 11  1  0  0  0  0
 36 12  1  0  0  0  0
 40 17  1  0  0  0  0
M  END
