1,2,4,7
q = -1.0

 33 33  0  0  1  0  0  0  0  0999 V2000
   -1.7232   -2.2365    0.4048 S   0  0  0  0  0  1  0  0  0  0  0  0
   -1.7632    0.6121   -0.4418 N   0  0  0  0  0  2  0  0  0  0  0  0
   -3.0025    0.1394   -0.3373 N   0  0  0  0  0  0  0  0  0  0  0  0
    0.6916    0.9917   -1.1139 N   0  0  0  0  0  2  0  0  0  0  0  0
    2.0475    1.0599   -0.9835 N   0  0  0  0  0  0  0  0  0  0  0  0
    2.2603    1.6485   -0.0746 H   0  0  0  0  0  0  0  0  0  0  0  0
    1.8160   -1.2756   -0.6080 N   0  0  0  0  0  2  0  0  0  0  0  0
   -4.3035   -1.6485    0.2496 N   0  0  0  0  0  0  0  0  0  0  0  0
   -4.3520   -2.6202    0.5529 H   0  0  0  0  0  0  0  0  0  0  0  0
   -3.0557   -1.1366    0.0839 C   0  0  0  0  0  0  0  0  0  0  0  0
   -1.4943    1.7973   -0.9542 C   0  0  2  0  0  3  0  0  0  0  0  0
   -0.0507    2.0723   -1.0886 C   0  0  1  0  0  3  0  0  0  0  0  0
    2.6230   -0.2138   -0.8549 C   0  0  2  0  0  3  0  0  0  0  0  0
    4.0252   -0.3617   -0.9364 C   0  0  0  0  0  0  0  0  0  0  0  0
    4.6454    0.5253   -1.1267 H   0  0  0  0  0  0  0  0  0  0  0  0
    4.5738   -1.6359   -0.7950 C   0  0  0  0  0  0  0  0  0  0  0  0
    1.6375   -3.3218   -0.2907 H   0  0  0  0  0  0  0  0  0  0  0  0
    3.7248   -2.7409   -0.5823 C   0  0  0  0  0  0  0  0  0  0  0  0
    4.1217   -3.7605   -0.4823 H   0  0  0  0  0  0  0  0  0  0  0  0
    2.3517   -2.5046   -0.4875 C   0  0  0  0  0  0  0  0  0  0  0  0
    5.6632   -1.7762   -0.8630 H   0  0  0  0  0  0  0  0  0  0  0  0
   -5.5189   -0.8940    0.0266 C   0  0  0  0  0  0  0  0  0  0  0  0
   -5.5661   -0.5049   -1.0121 H   0  0  0  0  0  0  0  0  0  0  0  0
   -5.5869   -0.0184    0.7061 H   0  0  0  0  0  0  0  0  0  0  0  0
   -6.3874   -1.5551    0.2051 H   0  0  0  0  0  0  0  0  0  0  0  0
   -2.5530    2.7780   -1.3587 C   0  0  0  0  0  0  0  0  0  0  0  0
   -2.5661    3.6599   -0.6827 H   0  0  0  0  0  0  0  0  0  0  0  0
   -3.5392    2.2818   -1.3007 H   0  0  0  0  0  0  0  0  0  0  0  0
   -2.3912    3.1577   -2.3884 H   0  0  0  0  0  0  0  0  0  0  0  0
    0.5058    3.4631   -1.1326 C   0  0  0  0  0  0  0  0  0  0  0  0
    1.4037    3.4944   -1.7822 H   0  0  0  0  0  0  0  0  0  0  0  0
    0.8369    3.7640   -0.1151 H   0  0  0  0  0  0  0  0  0  0  0  0
   -0.2382    4.1975   -1.4919 H   0  0  0  0  0  0  0  0  0  0  0  0
  2  3  1  0  0  0  0
  3 10  2  0  0  0  0
  4  5  1  0  0  0  0
  5  6  1  0  0  0  0
  7 20  1  0  0  0  0
  8  9  1  0  0  0  0
 10  8  1  0  0  0  0
 10  1  1  0  0  0  0
 11  2  1  1  0  0  0
 12  4  1  1  0  0  0
 12 11  1  0  0  0  0
 13  5  1  1  0  0  0
 13  7  1  0  0  0  0
 14 13  1  0  0  0  0
 14 16  2  0  0  0  0
 15 14  1  0  0  0  0
 16 18  1  0  0  0  0
 18 20  2  0  0  0  0
 18 19  1  0  0  0  0
 20 17  1  0  0  0  0
 21 16  1  0  0  0  0
 22 25  1  0  0  0  0
 22  8  1  0  0  0  0
 22 24  1  0  0  0  0
 23 22  1  0  0  0  0
 26 28  1  0  0  0  0
 26 11  1  0  0  0  0
 26 27  1  0  0  0  0
 29 26  1  0  0  0  0
 30 12  1  0  0  0  0
 30 32  1  0  0  0  0
 31 30  1  0  0  0  0
 33 30  1  0  0  0  0
M  END
