1,2,4,6
q = -1.0

 36 36  0  0  1  0  0  0  0  0999 V2000
    1.8342   -2.1009   -0.7870 S   0  0  0  0  0  1  0  0  0  0  0  0
    1.8352    0.8436   -0.4291 N   0  0  0  0  0  2  0  0  0  0  0  0
    3.0761    0.3788   -0.4916 N   0  0  0  0  0  2  0  0  0  0  0  0
   -0.6580    1.4448   -0.6228 N   0  0  0  0  0  2  0  0  0  0  0  0
   -2.0087    1.4293   -0.6626 N   0  0  0  0  0  0  0  0  0  0  0  0
   -1.6562   -0.8295   -1.2191 N   0  0  0  0  0  2  0  0  0  0  0  0
    4.4062   -1.4781   -0.6156 N   0  0  0  0  0  0  0  0  0  0  0  0
    4.4699   -2.4933   -0.6792 H   0  0  0  0  0  0  0  0  0  0  0  0
    3.1483   -0.9638   -0.6056 C   0  0  2  0  0  3  0  0  0  0  0  0
    1.5703    2.1366   -0.4709 C   0  0  0  0  0  0  0  0  0  0  0  0
    0.1361    2.4807   -0.5211 C   0  0  0  0  0  0  0  0  0  0  0  0
   -2.5332    0.1893   -1.0584 C   0  0  2  0  0  3  0  0  0  0  0  0
   -3.9151    0.0150   -1.3081 C   0  0  0  0  0  0  0  0  0  0  0  0
   -4.6165    0.8522   -1.1971 H   0  0  0  0  0  0  0  0  0  0  0  0
   -4.3622   -1.2376   -1.7307 C   0  0  0  0  0  0  0  0  0  0  0  0
   -5.4322   -1.3911   -1.9370 H   0  0  0  0  0  0  0  0  0  0  0  0
   -3.4442   -2.2900   -1.9031 C   0  0  0  0  0  0  0  0  0  0  0  0
   -3.7632   -3.2849   -2.2417 H   0  0  0  0  0  0  0  0  0  0  0  0
   -2.0996   -2.0312   -1.6269 C   0  0  0  0  0  0  0  0  0  0  0  0
   -1.3282   -2.8133   -1.7227 H   0  0  0  0  0  0  0  0  0  0  0  0
    5.6063   -0.6838   -0.4554 C   0  0  0  0  0  0  0  0  0  0  0  0
    5.6613    0.1140   -1.2244 H   0  0  0  0  0  0  0  0  0  0  0  0
    6.4874   -1.3445   -0.5565 H   0  0  0  0  0  0  0  0  0  0  0  0
    5.6421   -0.1854    0.5369 H   0  0  0  0  0  0  0  0  0  0  0  0
    2.6490    3.1791   -0.5048 C   0  0  0  0  0  0  0  0  0  0  0  0
    2.5070    3.9445    0.2855 H   0  0  0  0  0  0  0  0  0  0  0  0
    2.6845    3.7126   -1.4793 H   0  0  0  0  0  0  0  0  0  0  0  0
    3.6225    2.6779   -0.3531 H   0  0  0  0  0  0  0  0  0  0  0  0
   -0.2849    3.9276   -0.5227 C   0  0  0  0  0  0  0  0  0  0  0  0
   -1.2283    4.0738   -1.0785 H   0  0  0  0  0  0  0  0  0  0  0  0
   -0.4228    4.3243    0.5054 H   0  0  0  0  0  0  0  0  0  0  0  0
    0.4917    4.5507   -1.0038 H   0  0  0  0  0  0  0  0  0  0  0  0
   -2.8233    2.3345    0.1524 C   0  0  0  0  0  0  0  0  0  0  0  0
   -2.2015    2.6889    0.9950 H   0  0  0  0  0  0  0  0  0  0  0  0
   -3.6649    1.7677    0.5918 H   0  0  0  0  0  0  0  0  0  0  0  0
   -3.2209    3.1998   -0.4160 H   0  0  0  0  0  0  0  0  0  0  0  0
  3  2  1  0  0  0  0
  4 11  1  0  0  0  0
  5  4  1  0  0  0  0
  5 33  1  0  0  0  0
  6 12  1  0  0  0  0
  7  9  1  0  0  0  0
  7 21  1  0  0  0  0
  8  7  1  0  0  0  0
  9  1  1  6  0  0  0
  9  3  1  0  0  0  0
 10  2  1  0  0  0  0
 11 10  2  0  0  0  0
 12  5  1  6  0  0  0
 13 14  1  0  0  0  0
 13 12  1  0  0  0  0
 15 13  2  0  0  0  0
 16 15  1  0  0  0  0
 17 15  1  0  0  0  0
 17 19  2  0  0  0  0
 18 17  1  0  0  0  0
 19  6  1  0  0  0  0
 20 19  1  0  0  0  0
 21 24  1  0  0  0  0
 22 21  1  0  0  0  0
 23 21  1  0  0  0  0
 25 10  1  0  0  0  0
 25 28  1  0  0  0  0
 25 26  1  0  0  0  0
 27 25  1  0  0  0  0
 29 11  1  0  0  0  0
 29 31  1  0  0  0  0
 30 29  1  0  0  0  0
 32 29  1  0  0  0  0
 33 35  1  0  0  0  0
 33 34  1  0  0  0  0
 36 33  1  0  0  0  0
M  END
