1,2
q = -1.0

 30 31  0  0  1  0  0  0  0  0999 V2000
    1.3418   -1.4620   -0.0741 S   0  0  0  0  0  1  0  0  0  0  0  0
   -1.6570   -1.2264    0.0181 O   0  0  0  0  0  1  0  0  0  0  0  0
    1.5818   -4.1322   -0.0314 N   0  0  0  0  0  0  0  0  0  0  0  0
    1.1073   -5.0289   -0.1600 H   0  0  0  0  0  0  0  0  0  0  0  0
   -3.1517   -3.0193    0.0426 C   0  0  0  0  0  0  0  0  0  0  0  0
   -4.1800   -2.1368   -0.3597 C   0  0  0  0  0  0  0  0  0  0  0  0
   -3.8973   -1.1171   -0.6584 H   0  0  0  0  0  0  0  0  0  0  0  0
   -5.5147   -2.5581   -0.3789 C   0  0  0  0  0  0  0  0  0  0  0  0
   -6.3022   -1.8608   -0.7037 H   0  0  0  0  0  0  0  0  0  0  0  0
   -5.8493   -3.8648    0.0142 C   0  0  0  0  0  0  0  0  0  0  0  0
   -6.8989   -4.1959    0.0030 H   0  0  0  0  0  0  0  0  0  0  0  0
   -4.8370   -4.7459    0.4278 C   0  0  0  0  0  0  0  0  0  0  0  0
   -5.0923   -5.7667    0.7507 H   0  0  0  0  0  0  0  0  0  0  0  0
   -3.4992   -4.3283    0.4409 C   0  0  0  0  0  0  0  0  0  0  0  0
   -2.7238   -5.0240    0.7936 H   0  0  0  0  0  0  0  0  0  0  0  0
   -1.7445   -2.5060    0.0422 C   0  0  1  0  0  3  0  0  0  0  0  0
   -0.6619   -3.4062    0.0444 C   0  0  0  0  0  0  0  0  0  0  0  0
   -0.9005   -4.4802    0.0410 H   0  0  0  0  0  0  0  0  0  0  0  0
    0.7081   -3.0657    0.0076 C   0  0  0  0  0  0  0  0  0  0  0  0
    2.9812   -4.2458   -0.0113 C   0  0  0  0  0  0  0  0  0  0  0  0
    3.8550   -3.2653    0.5097 C   0  0  0  0  0  0  0  0  0  0  0  0
    3.4503   -2.3318    0.9185 H   0  0  0  0  0  0  0  0  0  0  0  0
    5.2376   -3.4955    0.5108 C   0  0  0  0  0  0  0  0  0  0  0  0
    5.9024   -2.7200    0.9208 H   0  0  0  0  0  0  0  0  0  0  0  0
    5.7775   -4.6906    0.0118 C   0  0  0  0  0  0  0  0  0  0  0  0
    6.8646   -4.8576    0.0178 H   0  0  0  0  0  0  0  0  0  0  0  0
    4.9096   -5.6735   -0.4913 C   0  0  0  0  0  0  0  0  0  0  0  0
    5.3102   -6.6204   -0.8838 H   0  0  0  0  0  0  0  0  0  0  0  0
    3.5286   -5.4545   -0.5058 C   0  0  0  0  0  0  0  0  0  0  0  0
    2.8539   -6.2258   -0.9117 H   0  0  0  0  0  0  0  0  0  0  0  0
  1 19  1  0  0  0  0
  3 20  1  0  0  0  0
  3 19  1  0  0  0  0
  4  3  1  0  0  0  0
  5 14  1  0  0  0  0
  6  5  2  0  0  0  0
  7  6  1  0  0  0  0
  8  6  1  0  0  0  0
  8 10  2  0  0  0  0
  9  8  1  0  0  0  0
 10 12  1  0  0  0  0
 11 10  1  0  0  0  0
 12 14  2  0  0  0  0
 12 13  1  0  0  0  0
 14 15  1  0  0  0  0
 16  2  1  6  0  0  0
 16  5  1  0  0  0  0
 16 17  1  0  0  0  0
 18 17  1  0  0  0  0
 19 17  2  0  0  0  0
 20 21  1  0  0  0  0
 21 23  2  0  0  0  0
 21 22  1  0  0  0  0
 23 24  1  0  0  0  0
 25 26  1  0  0  0  0
 25 23  1  0  0  0  0
 27 25  2  0  0  0  0
 28 27  1  0  0  0  0
 29 27  1  0  0  0  0
 29 20  2  0  0  0  0
 30 29  1  0  0  0  0
M  END
