1,2
q = -1.0

 37 38  0  0  1  0  0  0  0  0999 V2000
   -2.4950   -2.5165   -0.1698 S   0  0  0  0  0  1  0  0  0  0  0  0
   -1.4501    0.2537    0.0094 O   0  5  0  0  0  0  0  0  0  0  0  0
   -3.7745   -0.0666    0.1527 N   0  0  0  0  0  0  0  0  0  0  0  0
   -5.0290   -1.9655    0.4157 N   0  0  0  0  0  0  0  0  0  0  0  0
   -3.8069   -1.4043    0.1697 C   0  0  1  0  0  3  0  0  0  0  0  0
   -2.6607    0.6597    0.0127 C   0  0  0  0  0  0  0  0  0  0  0  0
   -2.8297    2.1376   -0.1254 C   0  0  0  0  0  0  0  0  0  0  0  0
   -4.1109    2.7544   -0.0017 C   0  0  0  0  0  0  0  0  0  0  0  0
   -4.9795    2.1114    0.1964 H   0  0  0  0  0  0  0  0  0  0  0  0
   -4.2423    4.1268   -0.1218 C   0  0  0  0  0  0  0  0  0  0  0  0
   -5.2318    4.6001   -0.0216 H   0  0  0  0  0  0  0  0  0  0  0  0
   -3.1093    4.9582   -0.3741 C   0  0  0  0  0  0  0  0  0  0  0  0
   -3.2076    6.3739   -0.5005 C   0  0  0  0  0  0  0  0  0  0  0  0
   -4.1968    6.8476   -0.4004 H   0  0  0  0  0  0  0  0  0  0  0  0
   -2.0802    7.1456   -0.7455 C   0  0  0  0  0  0  0  0  0  0  0  0
   -2.1720    8.2383   -0.8409 H   0  0  0  0  0  0  0  0  0  0  0  0
   -0.8028    6.5342   -0.8753 C   0  0  0  0  0  0  0  0  0  0  0  0
    0.0824    7.1584   -1.0705 H   0  0  0  0  0  0  0  0  0  0  0  0
   -0.6724    5.1588   -0.7583 C   0  0  0  0  0  0  0  0  0  0  0  0
    0.3126    4.6758   -0.8591 H   0  0  0  0  0  0  0  0  0  0  0  0
   -1.8120    4.3372   -0.5053 C   0  0  0  0  0  0  0  0  0  0  0  0
   -1.7079    2.9269   -0.3762 C   0  0  0  0  0  0  0  0  0  0  0  0
   -0.7296    2.4346   -0.4780 H   0  0  0  0  0  0  0  0  0  0  0  0
   -6.2122   -1.1121    0.5708 C   0  0  0  0  0  0  0  0  0  0  0  0
   -7.0887   -1.7078    0.2415 H   0  0  0  0  0  0  0  0  0  0  0  0
   -6.1050   -0.2554   -0.1210 H   0  0  0  0  0  0  0  0  0  0  0  0
   -6.4016   -0.6097    2.0013 C   0  0  0  0  0  0  0  0  0  0  0  0
   -7.3281   -0.0056    2.0804 H   0  0  0  0  0  0  0  0  0  0  0  0
   -6.4799   -1.4495    2.7217 H   0  0  0  0  0  0  0  0  0  0  0  0
   -5.5439    0.0259    2.2956 H   0  0  0  0  0  0  0  0  0  0  0  0
   -5.2264   -3.4088    0.5318 C   0  0  0  0  0  0  0  0  0  0  0  0
   -6.0390   -3.5721    1.2707 H   0  0  0  0  0  0  0  0  0  0  0  0
   -4.2998   -3.8453    0.9581 H   0  0  0  0  0  0  0  0  0  0  0  0
   -5.5616   -4.0842   -0.7992 C   0  0  0  0  0  0  0  0  0  0  0  0
   -4.7280   -3.9542   -1.5171 H   0  0  0  0  0  0  0  0  0  0  0  0
   -5.7237   -5.1706   -0.6501 H   0  0  0  0  0  0  0  0  0  0  0  0
   -6.4820   -3.6596   -1.2496 H   0  0  0  0  0  0  0  0  0  0  0  0
  2  6  1  0  0  0  0
  3  5  1  0  0  0  0
  4 31  1  0  0  0  0
  4 24  1  0  0  0  0
  5  1  1  6  0  0  0
  5  4  1  0  0  0  0
  6  3  2  0  0  0  0
  7  8  1  0  0  0  0
  7  6  1  0  0  0  0
  8  9  1  0  0  0  0
 10 11  1  0  0  0  0
 10  8  2  0  0  0  0
 12 10  1  0  0  0  0
 13 14  1  0  0  0  0
 13 12  1  0  0  0  0
 15 13  2  0  0  0  0
 16 15  1  0  0  0  0
 17 19  2  0  0  0  0
 17 15  1  0  0  0  0
 18 17  1  0  0  0  0
 19 21  1  0  0  0  0
 20 19  1  0  0  0  0
 21 22  1  0  0  0  0
 21 12  2  0  0  0  0
 22  7  2  0  0  0  0
 23 22  1  0  0  0  0
 24 27  1  0  0  0  0
 25 24  1  0  0  0  0
 26 24  1  0  0  0  0
 27 28  1  0  0  0  0
 27 30  1  0  0  0  0
 27 29  1  0  0  0  0
 31 33  1  0  0  0  0
 31 32  1  0  0  0  0
 34 36  1  0  0  0  0
 34 31  1  0  0  0  0
 35 34  1  0  0  0  0
 37 34  1  0  0  0  0
M  CHG  1   2  -1
M  END
