6,10
q = -1.0, confidence = 0.0

 21 21  0  0  1  0  0  0  0  0999 V2000
    2.2623    5.1673   -0.0360 C   0  0  0  0  0  0  0  0  0  0  0  0
    3.3556    5.3183    0.0553 H   0  0  0  0  0  0  0  0  0  0  0  0
    1.7557    5.7037    0.7917 H   0  0  0  0  0  0  0  0  0  0  0  0
    1.9195    5.6454   -0.9773 H   0  0  0  0  0  0  0  0  0  0  0  0
    1.8985    3.6986   -0.0283 C   0  0  2  0  0  3  0  0  0  0  0  0
    0.2027    3.4076    0.0067 S   0  0  0  0  0  1  0  0  0  0  0  0
    2.9271    2.7551   -0.0402 C   0  0  0  0  0  0  0  0  0  0  0  0
    3.9499    3.1569   -0.0175 H   0  0  0  0  0  0  0  0  0  0  0  0
    2.7970    1.3384   -0.0353 C   0  0  0  0  0  0  0  0  0  0  0  0
    1.6799    0.7092   -0.0382 O   0  5  0  0  0  0  0  0  0  0  0  0
    4.0145    0.4706   -0.0069 C   0  0  0  0  0  0  0  0  0  0  0  0
    3.8618   -0.8910    0.3420 C   0  0  0  0  0  0  0  0  0  0  0  0
    2.8553   -1.2592    0.5826 H   0  0  0  0  0  0  0  0  0  0  0  0
    4.9650   -1.7511    0.3732 C   0  0  0  0  0  0  0  0  0  0  0  0
    4.8211   -2.8071    0.6481 H   0  0  0  0  0  0  0  0  0  0  0  0
    6.2448   -1.2718    0.0484 C   0  0  0  0  0  0  0  0  0  0  0  0
    7.1131   -1.9480    0.0690 H   0  0  0  0  0  0  0  0  0  0  0  0
    6.4096    0.0766   -0.3091 C   0  0  0  0  0  0  0  0  0  0  0  0
    7.4066    0.4585   -0.5767 H   0  0  0  0  0  0  0  0  0  0  0  0
    5.3069    0.9405   -0.3346 C   0  0  0  0  0  0  0  0  0  0  0  0
    5.4545    1.9865   -0.6393 H   0  0  0  0  0  0  0  0  0  0  0  0
  1  5  1  0  0  0  0
  1  2  1  0  0  0  0
  1  3  1  0  0  0  0
  4  1  1  0  0  0  0
  5  6  1  1  0  0  0
  7  9  2  0  0  0  0
  7  5  1  0  0  0  0
  7  8  1  0  0  0  0
  9 11  1  0  0  0  0
 10  9  1  0  0  0  0
 11 12  1  0  0  0  0
 12 14  2  0  0  0  0
 12 13  1  0  0  0  0
 14 15  1  0  0  0  0
 16 17  1  0  0  0  0
 16 14  1  0  0  0  0
 18 16  2  0  0  0  0
 19 18  1  0  0  0  0
 20 18  1  0  0  0  0
 20 11  2  0  0  0  0
 21 20  1  0  0  0  0
M  CHG  1  10  -1
M  END
