1,2
q = -1.0

 18 18  0  0  0  0  0  0  0  0999 V2000
    0.8942    1.6212    1.2539 S   0  0  0  0  0  1  0  0  0  0  0  0
    1.5542   -0.1893   -1.0778 O   0  5  0  0  0  0  0  0  0  0  0  0
    4.9974    0.6718   -0.4426 N   0  0  0  0  0  0  0  0  0  0  0  0
    3.6266    1.8832    1.0967 C   0  0  0  0  0  0  0  0  0  0  0  0
    3.5583    2.5912    1.9346 H   0  0  0  0  0  0  0  0  0  0  0  0
    2.5835    0.3722   -0.5420 C   0  0  0  0  0  0  0  0  0  0  0  0
    4.8744    1.5540    0.5914 C   0  0  0  0  0  3  0  0  0  0  0  0
    5.8085    1.9693    0.9907 H   0  0  0  0  0  0  0  0  0  0  0  0
    3.8930    0.0908   -1.0295 C   0  0  0  0  0  0  0  0  0  0  0  0
    6.3323    0.2978   -0.9038 C   0  0  0  0  0  0  0  0  0  0  0  0
    7.0845    0.8908   -0.3549 H   0  0  0  0  0  0  0  0  0  0  0  0
    6.4438    0.4909   -1.9881 H   0  0  0  0  0  0  0  0  0  0  0  0
    6.5158   -0.7791   -0.7166 H   0  0  0  0  0  0  0  0  0  0  0  0
    4.0668   -0.8524   -2.1770 C   0  0  0  0  0  0  0  0  0  0  0  0
    4.5041   -0.3577   -3.0717 H   0  0  0  0  0  0  0  0  0  0  0  0
    3.0619   -1.2276   -2.4419 H   0  0  0  0  0  0  0  0  0  0  0  0
    4.7096   -1.7201   -1.9223 H   0  0  0  0  0  0  0  0  0  0  0  0
    2.4510    1.2976    0.5779 C   0  0  0  0  0  0  0  0  0  0  0  0
  2  6  1  0  0  0  0
  3  7  1  0  0  0  0
  4  5  1  0  0  0  0
  6 18  1  0  0  0  0
  7  8  1  0  0  0  0
  7  4  1  0  0  0  0
  9  6  2  0  0  0  0
  9  3  1  0  0  0  0
 10 13  1  0  0  0  0
 10  3  1  0  0  0  0
 10 11  1  0  0  0  0
 12 10  1  0  0  0  0
 14 17  1  0  0  0  0
 14  9  1  0  0  0  0
 15 14  1  0  0  0  0
 16 14  1  0  0  0  0
 18  4  2  0  0  0  0
 18  1  1  0  0  0  0
M  CHG  1   2  -1
M  END
