1,2
q = -1.0, confidence = 0.018

 12 12  0  0  1  0  0  0  0  0999 V2000
   -1.1790    1.7266   -0.8998 S   0  0  0  0  0  1  0  0  0  0  0  0
   -1.7203    0.2396    1.1018 O   0  0  0  0  0  1  0  0  0  0  0  0
   -2.1789    1.1938    0.3941 C   0  0  2  0  0  3  0  0  0  0  0  0
   -4.2393    1.2940    1.7443 C   0  0  0  0  0  0  0  0  0  0  0  0
   -5.3907    2.0531    1.7221 C   0  0  0  0  0  0  0  0  0  0  0  0
   -5.2825    2.9820    0.6262 C   0  0  0  0  0  0  0  0  0  0  0  0
   -4.0683    2.7639    0.0099 C   0  0  0  0  0  0  0  0  0  0  0  0
   -3.4269    1.7297    0.6938 N   0  0  0  0  0  0  0  0  0  0  0  0
   -3.8959    0.4837    2.3931 H   0  0  0  0  0  0  0  0  0  0  0  0
   -6.2309    1.9586    2.4195 H   0  0  0  0  0  0  0  0  0  0  0  0
   -6.0235    3.7317    0.3266 H   0  0  0  0  0  0  0  0  0  0  0  0
   -3.5841    3.2359   -0.8508 H   0  0  0  0  0  0  0  0  0  0  0  0
  3  1  1  6  0  0  0
  3  8  1  0  0  0  0
  3  2  1  0  0  0  0
  4  9  1  0  0  0  0
  5  4  2  0  0  0  0
  5 10  1  0  0  0  0
  6  5  1  0  0  0  0
  7  6  2  0  0  0  0
  7  8  1  0  0  0  0
  8  4  1  0  0  0  0
 11  6  1  0  0  0  0
 12  7  1  0  0  0  0
M  END
