1,2
q = -2.0, confidence = 0.864

 18 18  0  0  0  0  0  0  0  0999 V2000
   -1.1571   -0.8631    0.0000 S   0  0  0  0  0  1  0  0  0  0  0  0
    0.4824    1.7940   -0.0003 O   0  5  0  0  0  0  0  0  0  0  0  0
   -1.3038    3.1622    0.0005 O   0  0  0  0  0  0  0  0  0  0  0  0
   -0.7773    2.0358    0.0001 C   0  0  0  0  0  0  0  0  0  0  0  0
   -1.7567    0.8012    0.0001 C   0  0  0  0  0  0  0  0  0  0  0  0
   -3.0947    1.1121    0.0001 C   0  0  0  0  0  0  0  0  0  0  0  0
   -3.2360    2.2084    0.0002 H   0  0  0  0  0  0  0  0  0  0  0  0
   -4.3125    0.3170    0.0000 C   0  0  0  0  0  0  0  0  0  0  0  0
   -4.3779   -1.1052    0.0001 C   0  0  0  0  0  0  0  0  0  0  0  0
   -3.4402   -1.6786    0.0002 H   0  0  0  0  0  0  0  0  0  0  0  0
   -5.6080   -1.7753    0.0000 C   0  0  0  0  0  0  0  0  0  0  0  0
   -5.6189   -2.8777    0.0001 H   0  0  0  0  0  0  0  0  0  0  0  0
   -6.8208   -1.0652   -0.0001 C   0  0  0  0  0  0  0  0  0  0  0  0
   -7.7841   -1.5996   -0.0002 H   0  0  0  0  0  0  0  0  0  0  0  0
   -6.7825    0.3411   -0.0002 C   0  0  0  0  0  0  0  0  0  0  0  0
   -7.7213    0.9189   -0.0003 H   0  0  0  0  0  0  0  0  0  0  0  0
   -5.5563    1.0129   -0.0001 C   0  0  0  0  0  0  0  0  0  0  0  0
   -5.5337    2.1145   -0.0002 H   0  0  0  0  0  0  0  0  0  0  0  0
  1  5  1  0  0  0  0
  2  4  1  0  0  0  0
  4  3  2  0  0  0  0
  5  6  2  0  0  0  0
  5  4  1  0  0  0  0
  6  7  1  0  0  0  0
  8  6  1  0  0  0  0
  8  9  1  0  0  0  0
  9 10  1  0  0  0  0
 11 12  1  0  0  0  0
 11  9  2  0  0  0  0
 13 11  1  0  0  0  0
 14 13  1  0  0  0  0
 15 13  2  0  0  0  0
 15 17  1  0  0  0  0
 16 15  1  0  0  0  0
 17  8  2  0  0  0  0
 18 17  1  0  0  0  0
M  CHG  1   2  -1
M  END
