1,3
q = -2.0, confidence = 0.844

 15 15  0  0  0  0  0  0  0  0999 V2000
   -1.2397   -0.7469   -0.0000 S   0  0  0  0  0  1  0  0  0  0  0  0
   -4.2648   -1.3253    0.0003 S   0  0  0  0  0  0  0  0  0  0  0  0
    0.5024    1.8672   -0.0005 O   0  5  0  0  0  0  0  0  0  0  0  0
   -1.2519    3.2821    0.0005 O   0  0  0  0  0  0  0  0  0  0  0  0
   -0.7514    2.1430    0.0001 C   0  0  0  0  0  0  0  0  0  0  0  0
   -1.7543    0.9421    0.0002 C   0  0  0  0  0  0  0  0  0  0  0  0
   -3.0894    1.2635    0.0002 C   0  0  0  0  0  0  0  0  0  0  0  0
   -3.2584    2.3553    0.0001 H   0  0  0  0  0  0  0  0  0  0  0  0
   -4.2668    0.4417    0.0001 C   0  0  0  0  0  0  0  0  0  0  0  0
   -5.5906    0.9060   -0.0001 C   0  0  0  0  0  0  0  0  0  0  0  0
   -5.8182    1.9813   -0.0003 H   0  0  0  0  0  0  0  0  0  0  0  0
   -6.5667   -0.1262   -0.0001 C   0  0  0  0  0  0  0  0  0  0  0  0
   -7.6522    0.0532   -0.0003 H   0  0  0  0  0  0  0  0  0  0  0  0
   -6.0028   -1.3916    0.0001 C   0  0  0  0  0  0  0  0  0  0  0  0
   -6.5123   -2.3635    0.0000 H   0  0  0  0  0  0  0  0  0  0  0  0
  1  6  1  0  0  0  0
  3  5  1  0  0  0  0
  5  6  1  0  0  0  0
  5  4  2  0  0  0  0
  7  6  2  0  0  0  0
  8  7  1  0  0  0  0
  9  7  1  0  0  0  0
  9  2  1  0  0  0  0
 10 12  1  0  0  0  0
 10  9  2  0  0  0  0
 11 10  1  0  0  0  0
 12 14  2  0  0  0  0
 13 12  1  0  0  0  0
 14  2  1  0  0  0  0
 15 14  1  0  0  0  0
M  CHG  1   3  -1
M  END
