1,2
q = -2.0, confidence = 0.822

 15 15  0  0  0  0  0  0  0  0999 V2000
   -1.3623   -0.9077    0.0000 S   0  0  0  0  0  1  0  0  0  0  0  0
    0.2542    1.7827    0.0002 O   0  5  0  0  0  0  0  0  0  0  0  0
   -1.5604    3.1187   -0.0001 O   0  0  0  0  0  0  0  0  0  0  0  0
   -5.6763    0.7325   -0.0002 O   0  0  0  0  0  0  0  0  0  0  0  0
   -1.0106    2.0032    0.0000 C   0  0  0  0  0  0  0  0  0  0  0  0
   -1.9613    0.7575    0.0000 C   0  0  0  0  0  0  0  0  0  0  0  0
   -3.3076    1.0272    0.0000 C   0  0  0  0  0  0  0  0  0  0  0  0
   -3.5320    2.1072   -0.0000 H   0  0  0  0  0  0  0  0  0  0  0  0
   -4.4259    0.1305    0.0000 C   0  0  0  0  0  0  0  0  0  0  0  0
   -4.6055   -1.2534    0.0002 C   0  0  0  0  0  0  0  0  0  0  0  0
   -3.7940   -1.9870    0.0004 H   0  0  0  0  0  0  0  0  0  0  0  0
   -6.0162   -1.4909    0.0001 C   0  0  0  0  0  0  0  0  0  0  0  0
   -6.5266   -2.4616    0.0002 H   0  0  0  0  0  0  0  0  0  0  0  0
   -6.6169   -0.2509   -0.0001 C   0  0  0  0  0  0  0  0  0  0  0  0
   -7.6598    0.0836   -0.0002 H   0  0  0  0  0  0  0  0  0  0  0  0
  3  5  2  0  0  0  0
  4 14  1  0  0  0  0
  4  9  1  0  0  0  0
  5  2  1  0  0  0  0
  6  1  1  0  0  0  0
  6  5  1  0  0  0  0
  7  6  2  0  0  0  0
  8  7  1  0  0  0  0
  9  7  1  0  0  0  0
  9 10  2  0  0  0  0
 10 11  1  0  0  0  0
 12 13  1  0  0  0  0
 12 10  1  0  0  0  0
 14 12  2  0  0  0  0
 15 14  1  0  0  0  0
M  CHG  1   2  -1
M  END
