2,4
q = -1.0

 37 37  0  0  1  0  0  0  0  0999 V2000
    7.7387   -3.8452    0.0762 Br  0  0  0  0  0  0  0  0  0  0  0  0
   -1.6712   -2.0065   -0.2510 S   0  0  0  0  0  1  0  0  0  0  0  0
   -1.5378   -4.9809   -0.2798 S   0  0  0  0  0  0  0  0  0  0  0  0
    1.4593   -1.2593   -0.1218 O   0  5  0  0  0  0  0  0  0  0  0  0
   -0.7051   -3.4235   -0.2253 C   0  0  1  0  0  3  0  0  0  0  0  0
    0.6949   -3.5475   -0.1712 C   0  0  0  0  0  0  0  0  0  0  0  0
    1.0716   -4.5797   -0.1275 H   0  0  0  0  0  0  0  0  0  0  0  0
    1.6731   -2.5268   -0.1394 C   0  0  0  0  0  0  0  0  0  0  0  0
    3.1224   -2.8918   -0.0969 C   0  0  0  0  0  0  0  0  0  0  0  0
    4.0507   -1.9056    0.3082 C   0  0  0  0  0  0  0  0  0  0  0  0
    3.6698   -0.9117    0.5832 H   0  0  0  0  0  0  0  0  0  0  0  0
    5.4202   -2.1813    0.3670 C   0  0  0  0  0  0  0  0  0  0  0  0
    6.1334   -1.4113    0.6935 H   0  0  0  0  0  0  0  0  0  0  0  0
    5.8792   -3.4590    0.0050 C   0  0  0  0  0  0  0  0  0  0  0  0
    4.9807   -4.4538   -0.4142 C   0  0  0  0  0  0  0  0  0  0  0  0
    5.3528   -5.4450   -0.7085 H   0  0  0  0  0  0  0  0  0  0  0  0
    3.6117   -4.1653   -0.4609 C   0  0  0  0  0  0  0  0  0  0  0  0
    2.9237   -4.9464   -0.8147 H   0  0  0  0  0  0  0  0  0  0  0  0
   -3.3142   -4.5572   -0.2959 C   0  0  0  0  0  0  0  0  0  0  0  0
   -3.5148   -3.8929    0.5689 H   0  0  0  0  0  0  0  0  0  0  0  0
   -3.5330   -3.9802   -1.2190 H   0  0  0  0  0  0  0  0  0  0  0  0
   -4.1392   -5.8448   -0.2344 C   0  0  0  0  0  0  0  0  0  0  0  0
   -3.9115   -6.3819    0.7123 H   0  0  0  0  0  0  0  0  0  0  0  0
   -3.8261   -6.5196   -1.0597 H   0  0  0  0  0  0  0  0  0  0  0  0
   -5.6500   -5.5893   -0.3353 C   0  0  0  0  0  0  0  0  0  0  0  0
   -5.8737   -5.0883   -1.3040 H   0  0  0  0  0  0  0  0  0  0  0  0
   -6.1675   -6.5723   -0.3793 H   0  0  0  0  0  0  0  0  0  0  0  0
   -6.2431   -4.7648    0.8119 C   0  0  0  0  0  0  0  0  0  0  0  0
   -5.7750   -3.7556    0.8386 H   0  0  0  0  0  0  0  0  0  0  0  0
   -5.9792   -5.2432    1.7828 H   0  0  0  0  0  0  0  0  0  0  0  0
   -7.7636   -4.6008    0.7231 C   0  0  0  0  0  0  0  0  0  0  0  0
   -8.0216   -4.1353   -0.2544 H   0  0  0  0  0  0  0  0  0  0  0  0
   -8.2383   -5.6073    0.7079 H   0  0  0  0  0  0  0  0  0  0  0  0
   -8.3533   -3.7685    1.8620 C   0  0  0  0  0  0  0  0  0  0  0  0
   -9.4535   -3.6676    1.7706 H   0  0  0  0  0  0  0  0  0  0  0  0
   -7.9236   -2.7450    1.8775 H   0  0  0  0  0  0  0  0  0  0  0  0
   -8.1407   -4.2286    2.8496 H   0  0  0  0  0  0  0  0  0  0  0  0
  3  5  1  0  0  0  0
  5  2  1  6  0  0  0
  5  6  1  0  0  0  0
  6  8  2  0  0  0  0
  6  7  1  0  0  0  0
  8  4  1  0  0  0  0
  8  9  1  0  0  0  0
  9 10  1  0  0  0  0
 10 12  2  0  0  0  0
 10 11  1  0  0  0  0
 12 13  1  0  0  0  0
 14  1  1  0  0  0  0
 14 12  1  0  0  0  0
 15 14  2  0  0  0  0
 16 15  1  0  0  0  0
 17 15  1  0  0  0  0
 17  9  2  0  0  0  0
 18 17  1  0  0  0  0
 19  3  1  0  0  0  0
 19 22  1  0  0  0  0
 19 20  1  0  0  0  0
 21 19  1  0  0  0  0
 22 23  1  0  0  0  0
 24 22  1  0  0  0  0
 25 22  1  0  0  0  0
 25 28  1  0  0  0  0
 26 25  1  0  0  0  0
 27 25  1  0  0  0  0
 28 29  1  0  0  0  0
 28 30  1  0  0  0  0
 31 28  1  0  0  0  0
 31 34  1  0  0  0  0
 32 31  1  0  0  0  0
 33 31  1  0  0  0  0
 34 36  1  0  0  0  0
 34 37  1  0  0  0  0
 35 34  1  0  0  0  0
M  CHG  1   4  -1
M  END
