1,3
q = -1.0, confidence = 0.002

 11 10  0  0  0  0  0  0  0  0999 V2000
   -2.0723    1.6952   -0.1277 S   0  0  0  0  0  0  0  0  0  0  0  0
   -5.0933   -0.7942   -0.5507 O   0  5  0  0  0  0  0  0  0  0  0  0
   -2.9341   -1.1677   -0.0276 O   0  0  0  0  0  0  0  0  0  0  0  0
   -3.9284   -0.4317   -0.4643 C   0  0  0  0  0  0  0  0  0  0  0  0
   -3.5632    0.9988   -0.9392 C   0  0  0  0  0  0  0  0  0  0  0  0
   -4.4225    1.6821   -0.7967 H   0  0  0  0  0  0  0  0  0  0  0  0
   -3.3173    0.9701   -2.0208 H   0  0  0  0  0  0  0  0  0  0  0  0
   -2.7447    1.8885    1.5602 C   0  0  0  0  0  0  0  0  0  0  0  0
   -3.5032    2.6950    1.5589 H   0  0  0  0  0  0  0  0  0  0  0  0
   -1.8998    2.1700    2.2143 H   0  0  0  0  0  0  0  0  0  0  0  0
   -3.1829    0.9329    1.9048 H   0  0  0  0  0  0  0  0  0  0  0  0
  1  8  1  0  0  0  0
  2  4  1  0  0  0  0
  4  3  2  0  0  0  0
  5  6  1  0  0  0  0
  5  4  1  0  0  0  0
  5  1  1  0  0  0  0
  7  5  1  0  0  0  0
  8 11  1  0  0  0  0
  8 10  1  0  0  0  0
  9  8  1  0  0  0  0
M  CHG  1   2  -1
M  END
