2,3
q = -1.0

 29 30  0  0  1  0  0  0  0  0999 V2000
   -0.2495    3.1752   -0.9533 Cl  0  0  0  0  0  0  0  0  0  0  0  0
   -1.8017   -2.0164    1.5376 S   0  0  0  0  0  1  0  0  0  0  0  0
   -1.0053    0.5058   -0.4274 O   0  5  0  0  0  0  0  0  0  0  0  0
   -3.1959   -0.2398   -0.1259 N   0  0  0  0  0  0  0  0  0  0  0  0
   -4.0442   -2.3279    0.1819 N   0  0  0  0  0  0  0  0  0  0  0  0
   -1.9954    3.1648   -1.0778 C   0  0  0  0  0  0  0  0  0  0  0  0
   -2.5807    4.3916   -1.4426 C   0  0  0  0  0  0  0  0  0  0  0  0
   -1.9229    5.2528   -1.6251 H   0  0  0  0  0  0  0  0  0  0  0  0
   -3.9692    4.5074   -1.5681 C   0  0  0  0  0  0  0  0  0  0  0  0
   -4.4096    5.4739   -1.8564 H   0  0  0  0  0  0  0  0  0  0  0  0
   -4.7858    3.3912   -1.3256 C   0  0  0  0  0  0  0  0  0  0  0  0
   -5.8790    3.4687   -1.4202 H   0  0  0  0  0  0  0  0  0  0  0  0
   -4.1988    2.1771   -0.9636 C   0  0  0  0  0  0  0  0  0  0  0  0
   -4.8079    1.2843   -0.7645 H   0  0  0  0  0  0  0  0  0  0  0  0
   -2.7990    2.0213   -0.8282 C   0  0  0  0  0  0  0  0  0  0  0  0
   -2.2622    0.6747   -0.4167 C   0  0  0  0  0  0  0  0  0  0  0  0
   -3.0426   -1.4465    0.4309 C   0  0  2  0  0  3  0  0  0  0  0  0
   -4.1413   -3.6762    0.7524 C   0  0  0  0  0  0  0  0  0  0  0  0
   -3.9703   -3.6499    1.8472 H   0  0  0  0  0  0  0  0  0  0  0  0
   -3.3494   -4.3288    0.3204 H   0  0  0  0  0  0  0  0  0  0  0  0
   -5.5557   -4.1279    0.3629 C   0  0  0  0  0  0  0  0  0  0  0  0
   -5.6376   -5.2286    0.2791 H   0  0  0  0  0  0  0  0  0  0  0  0
   -6.2835   -3.7955    1.1328 H   0  0  0  0  0  0  0  0  0  0  0  0
   -5.8109   -3.3879   -0.9576 C   0  0  0  0  0  0  0  0  0  0  0  0
   -6.8829   -3.3113   -1.2236 H   0  0  0  0  0  0  0  0  0  0  0  0
   -5.2931   -3.9052   -1.7924 H   0  0  0  0  0  0  0  0  0  0  0  0
   -5.1666   -2.0179   -0.7154 C   0  0  0  0  0  0  0  0  0  0  0  0
   -4.8006   -1.5218   -1.6341 H   0  0  0  0  0  0  0  0  0  0  0  0
   -5.8642   -1.3073   -0.2163 H   0  0  0  0  0  0  0  0  0  0  0  0
  3 16  1  0  0  0  0
  4 17  1  0  0  0  0
  5 17  1  0  0  0  0
  5 18  1  0  0  0  0
  6  1  1  0  0  0  0
  6 15  1  0  0  0  0
  7  6  2  0  0  0  0
  8  7  1  0  0  0  0
  9  7  1  0  0  0  0
  9 11  2  0  0  0  0
 10  9  1  0  0  0  0
 11 13  1  0  0  0  0
 12 11  1  0  0  0  0
 13 15  2  0  0  0  0
 13 14  1  0  0  0  0
 15 16  1  0  0  0  0
 16  4  2  0  0  0  0
 17  2  1  1  0  0  0
 18 19  1  0  0  0  0
 20 18  1  0  0  0  0
 21 18  1  0  0  0  0
 21 23  1  0  0  0  0
 22 21  1  0  0  0  0
 24 27  1  0  0  0  0
 24 21  1  0  0  0  0
 25 24  1  0  0  0  0
 26 24  1  0  0  0  0
 27 29  1  0  0  0  0
 27  5  1  0  0  0  0
 28 27  1  0  0  0  0
M  CHG  1   3  -1
M  END
