1,6
q = -1.0

 22 22  0  0  1  0  0  0  0  0999 V2000
   -1.2930   -2.5361   -0.2824 S   0  0  0  0  0  1  0  0  0  0  0  0
   -2.9010   -1.9483   -0.0822 C   0  0  1  0  0  3  0  0  0  0  0  0
   -3.3165   -0.6214    0.0559 C   0  0  0  0  0  0  0  0  0  0  0  0
   -4.3828   -0.4189    0.2063 H   0  0  0  0  0  0  0  0  0  0  0  0
   -2.4484    0.5020    0.0393 C   0  0  0  0  0  0  0  0  0  0  0  0
   -1.1737    0.4513   -0.0382 O   0  5  0  0  0  0  0  0  0  0  0  0
   -4.0395   -3.2990   -0.0931 S   0  0  0  0  0  0  0  0  0  0  0  0
   -5.6745   -2.5081   -0.1458 C   0  0  0  0  0  0  0  0  0  0  0  0
   -5.8905   -1.9440    0.7827 H   0  0  0  0  0  0  0  0  0  0  0  0
   -6.3958   -3.3433   -0.2315 H   0  0  0  0  0  0  0  0  0  0  0  0
   -5.7767   -1.8493   -1.0303 H   0  0  0  0  0  0  0  0  0  0  0  0
   -3.0076    1.8848    0.1426 C   0  0  0  0  0  0  0  0  0  0  0  0
   -4.3578    2.1932   -0.1326 C   0  0  0  0  0  0  0  0  0  0  0  0
   -5.0497    1.4039   -0.4607 H   0  0  0  0  0  0  0  0  0  0  0  0
   -4.8220    3.5113   -0.0272 C   0  0  0  0  0  0  0  0  0  0  0  0
   -5.8747    3.7384   -0.2541 H   0  0  0  0  0  0  0  0  0  0  0  0
   -3.9470    4.5403    0.3571 C   0  0  0  0  0  0  0  0  0  0  0  0
   -4.3148    5.5743    0.4412 H   0  0  0  0  0  0  0  0  0  0  0  0
   -2.6004    4.2444    0.6288 C   0  0  0  0  0  0  0  0  0  0  0  0
   -1.9092    5.0461    0.9309 H   0  0  0  0  0  0  0  0  0  0  0  0
   -2.1328    2.9301    0.5183 C   0  0  0  0  0  0  0  0  0  0  0  0
   -1.0827    2.6768    0.7241 H   0  0  0  0  0  0  0  0  0  0  0  0
  2  1  1  6  0  0  0
  2  3  1  0  0  0  0
  3  4  1  0  0  0  0
  5  3  2  0  0  0  0
  5 12  1  0  0  0  0
  6  5  1  0  0  0  0
  7  2  1  0  0  0  0
  8  7  1  0  0  0  0
  8  9  1  0  0  0  0
 10  8  1  0  0  0  0
 11  8  1  0  0  0  0
 12 21  1  0  0  0  0
 13 15  1  0  0  0  0
 13 12  2  0  0  0  0
 14 13  1  0  0  0  0
 15 17  2  0  0  0  0
 16 15  1  0  0  0  0
 17 18  1  0  0  0  0
 17 19  1  0  0  0  0
 19 20  1  0  0  0  0
 21 19  2  0  0  0  0
 21 22  1  0  0  0  0
M  CHG  1   6  -1
M  END
