1,6
q = -1.0

 19 19  0  0  1  0  0  0  0  0999 V2000
   -1.3490    1.0615   -0.0020 O   0  0  0  0  0  1  0  0  0  0  0  0
   -2.6303    1.0358   -0.0004 C   0  0  2  0  0  3  0  0  0  0  0  0
   -3.4858   -0.0953    0.0005 C   0  0  0  0  0  0  0  0  0  0  0  0
   -4.5637    0.1272    0.0017 H   0  0  0  0  0  0  0  0  0  0  0  0
   -3.1193   -1.4477   -0.0001 C   0  0  0  0  0  0  0  0  0  0  0  0
   -1.5566   -2.1547   -0.0010 S   0  0  0  0  0  1  0  0  0  0  0  0
   -4.5133   -2.5401    0.0000 S   0  0  0  0  0  0  0  0  0  0  0  0
   -3.7917   -4.2027    0.0005 C   0  0  0  0  0  0  0  0  0  0  0  0
   -3.1770   -4.3725   -0.9045 H   0  0  0  0  0  0  0  0  0  0  0  0
   -4.6578   -4.8921    0.0008 H   0  0  0  0  0  0  0  0  0  0  0  0
   -3.1768   -4.3719    0.9054 H   0  0  0  0  0  0  0  0  0  0  0  0
   -3.2474    2.3671    0.0004 C   0  0  0  0  0  0  0  0  0  0  0  0
   -2.6758    3.6289    0.0002 C   0  0  0  0  0  0  0  0  0  0  0  0
   -1.5998    3.8284   -0.0006 H   0  0  0  0  0  0  0  0  0  0  0  0
   -3.7570    4.5619    0.0014 C   0  0  0  0  0  0  0  0  0  0  0  0
   -3.6963    5.6556    0.0017 H   0  0  0  0  0  0  0  0  0  0  0  0
   -4.9114    3.8064    0.0023 C   0  0  0  0  0  0  0  0  0  0  0  0
   -5.9771    4.0576    0.0033 H   0  0  0  0  0  0  0  0  0  0  0  0
   -4.6152    2.4809    0.0017 O   0  0  0  0  0  0  0  0  0  0  0  0
  2  1  1  6  0  0  0
  2 12  1  0  0  0  0
  2  3  1  0  0  0  0
  3  4  1  0  0  0  0
  5  7  1  0  0  0  0
  5  3  2  0  0  0  0
  6  5  1  0  0  0  0
  7  8  1  0  0  0  0
  8 10  1  0  0  0  0
  8 11  1  0  0  0  0
  9  8  1  0  0  0  0
 12 19  1  0  0  0  0
 13 12  2  0  0  0  0
 13 15  1  0  0  0  0
 14 13  1  0  0  0  0
 15 16  1  0  0  0  0
 15 17  2  0  0  0  0
 17 18  1  0  0  0  0
 19 17  1  0  0  0  0
M  END
