1,5
q = -1.0

 39 41  0  0  1  0  0  0  0  0999 V2000
    1.4866   -1.3388    0.7053 S   0  0  0  0  0  1  0  0  0  0  0  0
    2.9260   -0.5287    0.0830 C   0  0  1  0  0  3  0  0  0  0  0  0
    2.9277    0.6508   -0.5065 N   0  0  0  0  0  0  0  0  0  0  0  0
    1.9714    1.2045   -1.2473 C   0  0  0  0  0  0  0  0  0  0  0  0
    1.0135    0.5732   -1.8341 O   0  5  0  0  0  0  0  0  0  0  0  0
    2.0279    2.6713   -1.4548 C   0  0  0  0  0  0  0  0  0  0  0  0
    0.8882    3.3306   -1.9656 C   0  0  0  0  0  0  0  0  0  0  0  0
    0.0088    2.7274   -2.2359 H   0  0  0  0  0  0  0  0  0  0  0  0
    0.8866    4.7260   -2.0796 C   0  0  0  0  0  0  0  0  0  0  0  0
   -0.0060    5.2421   -2.4638 H   0  0  0  0  0  0  0  0  0  0  0  0
    2.0158    5.4676   -1.6924 C   0  0  0  0  0  0  0  0  0  0  0  0
    2.0093    6.5649   -1.7808 H   0  0  0  0  0  0  0  0  0  0  0  0
    3.1550    4.8115   -1.1918 C   0  0  0  0  0  0  0  0  0  0  0  0
    4.0413    5.3939   -0.8973 H   0  0  0  0  0  0  0  0  0  0  0  0
    3.1644    3.4168   -1.0729 C   0  0  0  0  0  0  0  0  0  0  0  0
    4.0453    2.8808   -0.6898 H   0  0  0  0  0  0  0  0  0  0  0  0
    4.1455   -1.1103    0.3548 N   0  0  0  0  0  0  0  0  0  0  0  0
    5.3701   -0.3784    0.1684 C   0  0  0  0  0  0  0  0  0  0  0  0
    5.5737    0.8475    0.8297 C   0  0  0  0  0  0  0  0  0  0  0  0
    4.7783    1.2583    1.4666 H   0  0  0  0  0  0  0  0  0  0  0  0
    6.7843    1.5317    0.6609 C   0  0  0  0  0  0  0  0  0  0  0  0
    6.9420    2.4895    1.1794 H   0  0  0  0  0  0  0  0  0  0  0  0
    7.7962    0.9962   -0.1542 C   0  0  0  0  0  0  0  0  0  0  0  0
    8.7460    1.5366   -0.2820 H   0  0  0  0  0  0  0  0  0  0  0  0
    7.5925   -0.2332   -0.7994 C   0  0  0  0  0  0  0  0  0  0  0  0
    8.3806   -0.6606   -1.4372 H   0  0  0  0  0  0  0  0  0  0  0  0
    6.3813   -0.9223   -0.6417 C   0  0  0  0  0  0  0  0  0  0  0  0
    6.2111   -1.8856   -1.1440 H   0  0  0  0  0  0  0  0  0  0  0  0
    4.2635   -2.4759    0.7816 C   0  0  0  0  0  0  0  0  0  0  0  0
    3.7057   -3.5140    0.0101 C   0  0  0  0  0  0  0  0  0  0  0  0
    3.1499   -3.2733   -0.9075 H   0  0  0  0  0  0  0  0  0  0  0  0
    3.8581   -4.8426    0.4271 C   0  0  0  0  0  0  0  0  0  0  0  0
    3.4169   -5.6515   -0.1741 H   0  0  0  0  0  0  0  0  0  0  0  0
    4.5758   -5.1417    1.5970 C   0  0  0  0  0  0  0  0  0  0  0  0
    4.6956   -6.1872    1.9180 H   0  0  0  0  0  0  0  0  0  0  0  0
    5.1449   -4.1040    2.3523 C   0  0  0  0  0  0  0  0  0  0  0  0
    5.7095   -4.3321    3.2687 H   0  0  0  0  0  0  0  0  0  0  0  0
    4.9906   -2.7707    1.9486 C   0  0  0  0  0  0  0  0  0  0  0  0
    5.4295   -1.9488    2.5325 H   0  0  0  0  0  0  0  0  0  0  0  0
  2 17  1  0  0  0  0
  2  1  1  1  0  0  0
  3  2  1  0  0  0  0
  4  3  2  0  0  0  0
  5  4  1  0  0  0  0
  6  4  1  0  0  0  0
  6 15  1  0  0  0  0
  7  6  2  0  0  0  0
  8  7  1  0  0  0  0
  9  7  1  0  0  0  0
  9 11  2  0  0  0  0
 10  9  1  0  0  0  0
 11 13  1  0  0  0  0
 12 11  1  0  0  0  0
 13 15  2  0  0  0  0
 13 14  1  0  0  0  0
 15 16  1  0  0  0  0
 17 29  1  0  0  0  0
 18 17  1  0  0  0  0
 18 19  1  0  0  0  0
 19 20  1  0  0  0  0
 21 19  2  0  0  0  0
 21 22  1  0  0  0  0
 23 21  1  0  0  0  0
 24 23  1  0  0  0  0
 25 27  1  0  0  0  0
 25 23  2  0  0  0  0
 26 25  1  0  0  0  0
 27 18  2  0  0  0  0
 28 27  1  0  0  0  0
 29 38  1  0  0  0  0
 30 32  1  0  0  0  0
 30 29  2  0  0  0  0
 31 30  1  0  0  0  0
 32 34  2  0  0  0  0
 33 32  1  0  0  0  0
 34 35  1  0  0  0  0
 34 36  1  0  0  0  0
 36 37  1  0  0  0  0
 38 36  2  0  0  0  0
 38 39  1  0  0  0  0
M  CHG  1   5  -1
M  END
