1,5
q = -1.0, confidence = 0.002

 32 33  0  0  1  0  0  0  0  0999 V2000
    1.3317    1.4323    0.7530 S   0  0  0  0  0  1  0  0  0  0  0  0
    2.8988    0.9501    0.0488 C   0  0  2  0  0  3  0  0  0  0  0  0
    3.1120   -0.2299   -0.5146 N   0  0  0  0  0  0  0  0  0  0  0  0
    2.2659   -0.9757   -1.2128 C   0  0  0  0  0  0  0  0  0  0  0  0
    1.1937   -0.5363   -1.7987 O   0  5  0  0  0  0  0  0  0  0  0  0
    2.5610   -2.4178   -1.3797 C   0  0  0  0  0  0  0  0  0  0  0  0
    3.7595   -2.9821   -0.8918 C   0  0  0  0  0  0  0  0  0  0  0  0
    4.5111   -2.3192   -0.4393 H   0  0  0  0  0  0  0  0  0  0  0  0
    3.9691   -4.3634   -0.9763 C   0  0  0  0  0  0  0  0  0  0  0  0
    4.9031   -4.8017   -0.5929 H   0  0  0  0  0  0  0  0  0  0  0  0
    2.9866   -5.1902   -1.5505 C   0  0  0  0  0  0  0  0  0  0  0  0
    3.1506   -6.2771   -1.6111 H   0  0  0  0  0  0  0  0  0  0  0  0
    1.7946   -4.6311   -2.0411 C   0  0  0  0  0  0  0  0  0  0  0  0
    1.0220   -5.2798   -2.4804 H   0  0  0  0  0  0  0  0  0  0  0  0
    1.5769   -3.2507   -1.9571 C   0  0  0  0  0  0  0  0  0  0  0  0
    0.6380   -2.7934   -2.3023 H   0  0  0  0  0  0  0  0  0  0  0  0
    3.9517    1.8146    0.1232 N   0  0  0  0  0  0  0  0  0  0  0  0
    3.8926    3.0461    0.8477 C   0  0  0  0  0  0  0  0  0  0  0  0
    4.1925    4.2531    0.1887 C   0  0  0  0  0  0  0  0  0  0  0  0
    4.4278    4.2437   -0.8855 H   0  0  0  0  0  0  0  0  0  0  0  0
    4.1642    5.4611    0.8990 C   0  0  0  0  0  0  0  0  0  0  0  0
    4.3912    6.4028    0.3773 H   0  0  0  0  0  0  0  0  0  0  0  0
    3.8320    5.4717    2.2629 C   0  0  0  0  0  0  0  0  0  0  0  0
    3.8042    6.4220    2.8166 H   0  0  0  0  0  0  0  0  0  0  0  0
    3.5372    4.2657    2.9184 C   0  0  0  0  0  0  0  0  0  0  0  0
    3.2827    4.2656    3.9887 H   0  0  0  0  0  0  0  0  0  0  0  0
    3.5746    3.0520    2.2192 C   0  0  0  0  0  0  0  0  0  0  0  0
    3.3611    2.1032    2.7312 H   0  0  0  0  0  0  0  0  0  0  0  0
    5.1730    1.4983   -0.6208 C   0  0  0  0  0  0  0  0  0  0  0  0
    5.9930    2.1371   -0.2487 H   0  0  0  0  0  0  0  0  0  0  0  0
    5.0392    1.6605   -1.7106 H   0  0  0  0  0  0  0  0  0  0  0  0
    5.4229    0.4302   -0.4683 H   0  0  0  0  0  0  0  0  0  0  0  0
  2 17  1  0  0  0  0
  2  1  1  1  0  0  0
  3  2  1  0  0  0  0
  4  3  2  0  0  0  0
  5  4  1  0  0  0  0
  6  4  1  0  0  0  0
  6  7  1  0  0  0  0
  7  8  1  0  0  0  0
  9  7  2  0  0  0  0
  9 10  1  0  0  0  0
 11  9  1  0  0  0  0
 12 11  1  0  0  0  0
 13 15  1  0  0  0  0
 13 11  2  0  0  0  0
 14 13  1  0  0  0  0
 15  6  2  0  0  0  0
 16 15  1  0  0  0  0
 17 18  1  0  0  0  0
 18 27  1  0  0  0  0
 19 18  2  0  0  0  0
 19 21  1  0  0  0  0
 20 19  1  0  0  0  0
 21 23  2  0  0  0  0
 22 21  1  0  0  0  0
 23 24  1  0  0  0  0
 23 25  1  0  0  0  0
 25 26  1  0  0  0  0
 27 28  1  0  0  0  0
 27 25  2  0  0  0  0
 29 32  1  0  0  0  0
 29 30  1  0  0  0  0
 29 17  1  0  0  0  0
 31 29  1  0  0  0  0
M  CHG  1   5  -1
M  END
