1,2
q = 0.0, confidence = 1.0

 30 30  0  0  1  0  0  0  0  0999 V2000
   -2.3266    0.8296   -0.5945 S   0  0  0  0  0  1  0  0  0  0  0  0
    1.4616    0.3665   -1.4065 O   0  0  0  0  0  1  0  0  0  0  0  0
    2.3534   -0.4618   -0.9888 N   0  0  0  0  0  0  0  0  0  0  0  0
   -0.3126   -1.3876   -0.7060 N   0  0  0  0  0  0  0  0  0  0  0  0
   -1.5791   -1.7734   -0.5612 N   0  0  0  0  0  0  0  0  0  0  0  0
   -1.8021   -2.7300   -0.2474 H   0  0  0  0  0  0  0  0  0  0  0  0
   -3.8371   -1.3715   -0.4326 N   0  0  0  0  0  0  0  0  0  0  0  0
   -3.9400   -2.3768   -0.5993 H   0  0  0  0  0  0  0  0  0  0  0  0
    3.6497   -0.0056   -0.9177 C   0  0  0  0  0  3  0  0  0  0  0  0
    3.7375    1.0468   -1.2176 H   0  0  0  0  0  0  0  0  0  0  0  0
    4.6911   -0.8100   -0.4859 C   0  0  0  0  0  0  0  0  0  0  0  0
    5.7046   -0.3876   -0.4434 H   0  0  0  0  0  0  0  0  0  0  0  0
    4.4218   -2.1339   -0.0995 C   0  0  0  0  0  0  0  0  0  0  0  0
    5.2223   -2.7947    0.2603 H   0  0  0  0  0  0  0  0  0  0  0  0
    3.1059   -2.5880   -0.1637 C   0  0  0  0  0  0  0  0  0  0  0  0
    2.8727   -3.6076    0.1662 H   0  0  0  0  0  0  0  0  0  0  0  0
    2.0437   -1.7688   -0.6017 C   0  0  0  0  0  0  0  0  0  0  0  0
    0.6570   -2.2577   -0.6179 C   0  0  0  0  0  0  0  0  0  0  0  0
   -2.5991   -0.8276   -0.5272 C   0  0  1  0  0  3  0  0  0  0  0  0
   -5.0684   -0.5980   -0.3249 C   0  0  0  0  0  0  0  0  0  0  0  0
   -4.8356    0.3018    0.2804 H   0  0  0  0  0  0  0  0  0  0  0  0
   -5.3693   -0.2222   -1.3294 H   0  0  0  0  0  0  0  0  0  0  0  0
   -6.1808   -1.4266    0.3046 C   0  0  0  0  0  0  0  0  0  0  0  0
   -6.4204   -2.3253   -0.3025 H   0  0  0  0  0  0  0  0  0  0  0  0
   -7.1070   -0.8246    0.3760 H   0  0  0  0  0  0  0  0  0  0  0  0
   -5.9076   -1.7576    1.3266 H   0  0  0  0  0  0  0  0  0  0  0  0
    0.4038   -3.7262   -0.3754 C   0  0  0  0  0  0  0  0  0  0  0  0
    0.2950   -3.9329    0.7121 H   0  0  0  0  0  0  0  0  0  0  0  0
    1.2187   -4.3615   -0.7647 H   0  0  0  0  0  0  0  0  0  0  0  0
   -0.5204   -4.0636   -0.8877 H   0  0  0  0  0  0  0  0  0  0  0  0
  2  3  1  0  0  0  0
  3  9  1  0  0  0  0
  3 17  1  0  0  0  0
  4 18  2  0  0  0  0
  4  5  1  0  0  0  0
  5 19  1  0  0  0  0
  5  6  1  0  0  0  0
  7 20  1  0  0  0  0
  8  7  1  0  0  0  0
  9 11  1  0  0  0  0
 10  9  1  0  0  0  0
 11 12  1  0  0  0  0
 11 13  2  0  0  0  0
 13 14  1  0  0  0  0
 15 13  1  0  0  0  0
 15 16  1  0  0  0  0
 17 15  2  0  0  0  0
 18 17  1  0  0  0  0
 18 27  1  0  0  0  0
 19  1  1  1  0  0  0
 19  7  1  0  0  0  0
 20 21  1  0  0  0  0
 20 23  1  0  0  0  0
 22 20  1  0  0  0  0
 23 25  1  0  0  0  0
 23 26  1  0  0  0  0
 24 23  1  0  0  0  0
 27 28  1  0  0  0  0
 29 27  1  0  0  0  0
 30 27  1  0  0  0  0
M  END
