1,2
q = -1.0

 12 12  0  0  0  0  0  0  0  0999 V2000
    0.8484   -1.3948   -1.8047 S   0  0  0  0  0  1  0  0  0  0  0  0
   -0.5600   -1.3264    0.6968 O   0  0  0  0  0  1  0  0  0  0  0  0
   -0.6970   -2.4746    0.0865 N   0  0  0  0  0  0  0  0  0  0  0  0
   -1.4549   -3.4444    0.6848 C   0  0  0  0  0  3  0  0  0  0  0  0
   -1.8955   -3.1310    1.6400 H   0  0  0  0  0  0  0  0  0  0  0  0
   -1.6205   -4.6910    0.0996 C   0  0  0  0  0  0  0  0  0  0  0  0
   -2.2363   -5.4427    0.6112 H   0  0  0  0  0  0  0  0  0  0  0  0
   -0.9920   -4.9562   -1.1349 C   0  0  0  0  0  0  0  0  0  0  0  0
   -1.1052   -5.9359   -1.6212 H   0  0  0  0  0  0  0  0  0  0  0  0
   -0.2265   -3.9601   -1.7356 C   0  0  0  0  0  0  0  0  0  0  0  0
    0.2769   -4.1256   -2.6979 H   0  0  0  0  0  0  0  0  0  0  0  0
   -0.0625   -2.6869   -1.1371 C   0  0  0  0  0  0  0  0  0  0  0  0
  1 12  1  0  0  0  0
  3  4  1  0  0  0  0
  3  2  1  0  0  0  0
  4  5  1  0  0  0  0
  6  7  1  0  0  0  0
  6  4  1  0  0  0  0
  8  6  2  0  0  0  0
  9  8  1  0  0  0  0
 10 12  2  0  0  0  0
 10  8  1  0  0  0  0
 11 10  1  0  0  0  0
 12  3  1  0  0  0  0
M  END
