1,3
q = -1.0

 26 26  0  0  1  0  0  0  0  0999 V2000
   -1.7863    1.6093    0.0028 S   0  0  0  0  0  1  0  0  0  0  0  0
   -0.6453    4.3553   -0.0944 S   0  0  0  0  0  0  0  0  0  0  0  0
    0.8902   -0.1610    0.0716 O   0  5  0  0  0  0  0  0  0  0  0  0
    5.3115   -2.0398   -0.1976 O   0  0  0  0  0  0  0  0  0  0  0  0
   -0.3928    2.6058   -0.0355 C   0  0  1  0  0  3  0  0  0  0  0  0
    0.9657    2.2461   -0.0255 C   0  0  0  0  0  0  0  0  0  0  0  0
    1.6730    3.0853   -0.0829 H   0  0  0  0  0  0  0  0  0  0  0  0
    1.5336    0.9549    0.0381 C   0  0  0  0  0  0  0  0  0  0  0  0
    3.0216    0.7907    0.0601 C   0  0  0  0  0  0  0  0  0  0  0  0
    3.9182    1.8766    0.2140 C   0  0  0  0  0  0  0  0  0  0  0  0
    3.5499    2.9028    0.3441 H   0  0  0  0  0  0  0  0  0  0  0  0
    5.2953    1.6410    0.2263 C   0  0  0  0  0  0  0  0  0  0  0  0
    5.9903    2.4853    0.3508 H   0  0  0  0  0  0  0  0  0  0  0  0
    5.8147    0.3425    0.0875 C   0  0  0  0  0  0  0  0  0  0  0  0
    6.9019    0.1894    0.0991 H   0  0  0  0  0  0  0  0  0  0  0  0
    4.9253   -0.7430   -0.0597 C   0  0  0  0  0  0  0  0  0  0  0  0
    3.5362   -0.5120   -0.0691 C   0  0  0  0  0  0  0  0  0  0  0  0
    2.8488   -1.3623   -0.1763 H   0  0  0  0  0  0  0  0  0  0  0  0
    6.6940   -2.3353   -0.1894 C   0  0  0  0  0  0  0  0  0  0  0  0
    6.7808   -3.4309   -0.3102 H   0  0  0  0  0  0  0  0  0  0  0  0
    7.1777   -2.0389    0.7690 H   0  0  0  0  0  0  0  0  0  0  0  0
    7.2319   -1.8365   -1.0273 H   0  0  0  0  0  0  0  0  0  0  0  0
   -2.4471    4.5517   -0.1247 C   0  0  0  0  0  0  0  0  0  0  0  0
   -2.6171    5.6443   -0.1734 H   0  0  0  0  0  0  0  0  0  0  0  0
   -2.9104    4.1402    0.7928 H   0  0  0  0  0  0  0  0  0  0  0  0
   -2.8878    4.0621   -1.0146 H   0  0  0  0  0  0  0  0  0  0  0  0
  2  5  1  0  0  0  0
  4 19  1  0  0  0  0
  4 16  1  0  0  0  0
  5  6  1  0  0  0  0
  5  1  1  1  0  0  0
  6  8  2  0  0  0  0
  7  6  1  0  0  0  0
  8  9  1  0  0  0  0
  8  3  1  0  0  0  0
  9 10  1  0  0  0  0
 10 12  2  0  0  0  0
 10 11  1  0  0  0  0
 12 13  1  0  0  0  0
 14 15  1  0  0  0  0
 14 12  1  0  0  0  0
 16 14  2  0  0  0  0
 17 16  1  0  0  0  0
 17  9  2  0  0  0  0
 18 17  1  0  0  0  0
 19 21  1  0  0  0  0
 20 19  1  0  0  0  0
 22 19  1  0  0  0  0
 23  2  1  0  0  0  0
 23 25  1  0  0  0  0
 24 23  1  0  0  0  0
 26 23  1  0  0  0  0
M  CHG  1   3  -1
M  END
