1,3
q = -1.0

 23 23  0  0  1  0  0  0  0  0999 V2000
   -0.9586    1.9504    0.0589 S   0  0  0  0  0  1  0  0  0  0  0  0
    0.9900    4.0138   -0.1063 S   0  0  0  0  0  0  0  0  0  0  0  0
    0.7140   -0.7839    0.0367 O   0  5  0  0  0  0  0  0  0  0  0  0
    6.6634   -0.3646    0.2702 O   0  0  0  0  0  0  0  0  0  0  0  0
    7.3820   -1.0231    0.2440 H   0  0  0  0  0  0  0  0  0  0  0  0
    0.7319    2.2634   -0.0409 C   0  0  2  0  0  3  0  0  0  0  0  0
    1.8062    1.3647   -0.0745 C   0  0  0  0  0  0  0  0  0  0  0  0
    2.8072    1.7979   -0.1678 H   0  0  0  0  0  0  0  0  0  0  0  0
    1.7670   -0.0496   -0.0172 C   0  0  0  0  0  0  0  0  0  0  0  0
    3.0421   -0.8353   -0.0319 C   0  0  0  0  0  0  0  0  0  0  0  0
    2.9573   -2.2376   -0.2009 C   0  0  0  0  0  0  0  0  0  0  0  0
    1.9654   -2.6965   -0.3098 H   0  0  0  0  0  0  0  0  0  0  0  0
    4.1251   -3.0071   -0.2227 C   0  0  0  0  0  0  0  0  0  0  0  0
    4.0592   -4.0971   -0.3586 H   0  0  0  0  0  0  0  0  0  0  0  0
    5.3846   -2.4074   -0.0721 C   0  0  0  0  0  0  0  0  0  0  0  0
    6.3014   -3.0199   -0.0880 H   0  0  0  0  0  0  0  0  0  0  0  0
    5.4765   -1.0128    0.1069 C   0  0  0  0  0  0  0  0  0  0  0  0
    4.3065   -0.2335    0.1259 C   0  0  0  0  0  0  0  0  0  0  0  0
    4.4265    0.8459    0.2884 H   0  0  0  0  0  0  0  0  0  0  0  0
    2.7943    4.2146   -0.0715 C   0  0  0  0  0  0  0  0  0  0  0  0
    2.9562    5.3096   -0.0674 H   0  0  0  0  0  0  0  0  0  0  0  0
    3.2759    3.7864   -0.9724 H   0  0  0  0  0  0  0  0  0  0  0  0
    3.2361    3.7824    0.8476 H   0  0  0  0  0  0  0  0  0  0  0  0
  2 20  1  0  0  0  0
  2  6  1  0  0  0  0
  5  4  1  0  0  0  0
  6  1  1  6  0  0  0
  7  6  1  0  0  0  0
  7  9  2  0  0  0  0
  8  7  1  0  0  0  0
  9  3  1  0  0  0  0
 10  9  1  0  0  0  0
 10 18  1  0  0  0  0
 11 10  2  0  0  0  0
 12 11  1  0  0  0  0
 13 11  1  0  0  0  0
 13 15  2  0  0  0  0
 14 13  1  0  0  0  0
 15 17  1  0  0  0  0
 16 15  1  0  0  0  0
 17 18  2  0  0  0  0
 17  4  1  0  0  0  0
 18 19  1  0  0  0  0
 20 21  1  0  0  0  0
 20 23  1  0  0  0  0
 22 20  1  0  0  0  0
M  CHG  1   3  -1
M  END
