1,3
q = -1.0

 29 29  0  0  1  0  0  0  0  0999 V2000
    1.6468    1.4480   -0.0001 S   0  0  0  0  0  1  0  0  0  0  0  0
    0.2089    4.0538   -0.0000 S   0  0  0  0  0  0  0  0  0  0  0  0
   -0.8163   -0.6071   -0.0004 O   0  5  0  0  0  0  0  0  0  0  0  0
   -7.0422   -1.1430    0.0002 O   0  0  0  0  0  0  0  0  0  0  0  0
    0.1490    2.2859   -0.0001 C   0  0  2  0  0  3  0  0  0  0  0  0
   -1.1598    1.7785   -0.0000 C   0  0  0  0  0  0  0  0  0  0  0  0
   -1.9531    2.5393    0.0001 H   0  0  0  0  0  0  0  0  0  0  0  0
   -1.5844    0.4296   -0.0002 C   0  0  0  0  0  0  0  0  0  0  0  0
   -3.0353    0.0935   -0.0001 C   0  0  0  0  0  0  0  0  0  0  0  0
   -4.0650    1.0581   -0.0002 C   0  0  0  0  0  0  0  0  0  0  0  0
   -3.8280    2.1313   -0.0003 H   0  0  0  0  0  0  0  0  0  0  0  0
   -5.4155    0.6892   -0.0001 C   0  0  0  0  0  0  0  0  0  0  0  0
   -6.1844    1.4727   -0.0002 H   0  0  0  0  0  0  0  0  0  0  0  0
   -5.7681   -0.6779    0.0001 C   0  0  0  0  0  0  0  0  0  0  0  0
   -4.7472   -1.6561    0.0002 C   0  0  0  0  0  0  0  0  0  0  0  0
   -5.0410   -2.7156    0.0003 H   0  0  0  0  0  0  0  0  0  0  0  0
   -3.4096   -1.2756    0.0001 C   0  0  0  0  0  0  0  0  0  0  0  0
   -2.6120   -2.0322    0.0002 H   0  0  0  0  0  0  0  0  0  0  0  0
   -8.1064   -0.2082    0.0002 C   0  0  0  0  0  0  0  0  0  0  0  0
   -9.0409   -0.7987    0.0003 H   0  0  0  0  0  0  0  0  0  0  0  0
   -8.0876    0.4398   -0.9044 H   0  0  0  0  0  0  0  0  0  0  0  0
   -8.0874    0.4400    0.9046 H   0  0  0  0  0  0  0  0  0  0  0  0
    1.9921    4.4655    0.0001 C   0  0  0  0  0  0  0  0  0  0  0  0
    2.4571    4.0028    0.8944 H   0  0  0  0  0  0  0  0  0  0  0  0
    2.4571    4.0029   -0.8942 H   0  0  0  0  0  0  0  0  0  0  0  0
    2.1458    5.9833    0.0002 C   0  0  0  0  0  0  0  0  0  0  0  0
    3.2218    6.2482    0.0003 H   0  0  0  0  0  0  0  0  0  0  0  0
    1.6831    6.4408    0.8977 H   0  0  0  0  0  0  0  0  0  0  0  0
    1.6832    6.4409   -0.8973 H   0  0  0  0  0  0  0  0  0  0  0  0
  2 23  1  0  0  0  0
  3  8  1  0  0  0  0
  5  1  1  1  0  0  0
  5  6  1  0  0  0  0
  5  2  1  0  0  0  0
  6  7  1  0  0  0  0
  8  9  1  0  0  0  0
  8  6  2  0  0  0  0
  9 17  1  0  0  0  0
 10 12  1  0  0  0  0
 10  9  2  0  0  0  0
 11 10  1  0  0  0  0
 12 14  2  0  0  0  0
 13 12  1  0  0  0  0
 14 15  1  0  0  0  0
 14  4  1  0  0  0  0
 15 16  1  0  0  0  0
 17 18  1  0  0  0  0
 17 15  2  0  0  0  0
 19  4  1  0  0  0  0
 19 20  1  0  0  0  0
 19 22  1  0  0  0  0
 21 19  1  0  0  0  0
 23 26  1  0  0  0  0
 23 24  1  0  0  0  0
 25 23  1  0  0  0  0
 26 27  1  0  0  0  0
 26 28  1  0  0  0  0
 29 26  1  0  0  0  0
M  CHG  1   3  -1
M  END
