1,3
q = -1.0, confidence = 0.0

 26 26  0  0  1  0  0  0  0  0999 V2000
    1.3863    1.4532    0.0003 S   0  0  0  0  0  1  0  0  0  0  0  0
   -0.0639    4.0519    0.0001 S   0  0  0  0  0  0  0  0  0  0  0  0
   -1.0663   -0.6132    0.0003 O   0  5  0  0  0  0  0  0  0  0  0  0
   -7.3327   -1.0308   -0.0002 O   0  0  0  0  0  0  0  0  0  0  0  0
   -7.4155   -2.0031   -0.0002 H   0  0  0  0  0  0  0  0  0  0  0  0
   -0.1154    2.2842    0.0001 C   0  0  1  0  0  3  0  0  0  0  0  0
   -1.4221    1.7706   -0.0001 C   0  0  0  0  0  0  0  0  0  0  0  0
   -2.2191    2.5274   -0.0004 H   0  0  0  0  0  0  0  0  0  0  0  0
   -1.8396    0.4198    0.0001 C   0  0  0  0  0  0  0  0  0  0  0  0
   -3.2887    0.0768    0.0000 C   0  0  0  0  0  0  0  0  0  0  0  0
   -4.3276    1.0383    0.0000 C   0  0  0  0  0  0  0  0  0  0  0  0
   -4.0966    2.1127    0.0001 H   0  0  0  0  0  0  0  0  0  0  0  0
   -5.6694    0.6578   -0.0000 C   0  0  0  0  0  0  0  0  0  0  0  0
   -6.4745    1.4062   -0.0000 H   0  0  0  0  0  0  0  0  0  0  0  0
   -6.0146   -0.7103   -0.0001 C   0  0  0  0  0  0  0  0  0  0  0  0
   -4.9914   -1.6817   -0.0001 C   0  0  0  0  0  0  0  0  0  0  0  0
   -5.2539   -2.7528   -0.0002 H   0  0  0  0  0  0  0  0  0  0  0  0
   -3.6520   -1.2913   -0.0000 C   0  0  0  0  0  0  0  0  0  0  0  0
   -2.8497   -2.0429   -0.0001 H   0  0  0  0  0  0  0  0  0  0  0  0
    1.7173    4.4722   -0.0001 C   0  0  0  0  0  0  0  0  0  0  0  0
    2.1845    4.0121    0.8944 H   0  0  0  0  0  0  0  0  0  0  0  0
    2.1844    4.0117   -0.8944 H   0  0  0  0  0  0  0  0  0  0  0  0
    1.8635    5.9908   -0.0003 C   0  0  0  0  0  0  0  0  0  0  0  0
    2.9381    6.2609   -0.0005 H   0  0  0  0  0  0  0  0  0  0  0  0
    1.3986    6.4462    0.8971 H   0  0  0  0  0  0  0  0  0  0  0  0
    1.3984    6.4459   -0.8978 H   0  0  0  0  0  0  0  0  0  0  0  0
  4  5  1  0  0  0  0
  4 15  1  0  0  0  0
  6  2  1  0  0  0  0
  6  1  1  6  0  0  0
  7  6  1  0  0  0  0
  7  9  2  0  0  0  0
  8  7  1  0  0  0  0
  9  3  1  0  0  0  0
 10 11  1  0  0  0  0
 10  9  1  0  0  0  0
 11 12  1  0  0  0  0
 13 14  1  0  0  0  0
 13 11  2  0  0  0  0
 15 16  2  0  0  0  0
 15 13  1  0  0  0  0
 16 18  1  0  0  0  0
 17 16  1  0  0  0  0
 18 10  2  0  0  0  0
 19 18  1  0  0  0  0
 20  2  1  0  0  0  0
 20 21  1  0  0  0  0
 22 20  1  0  0  0  0
 23 20  1  0  0  0  0
 23 25  1  0  0  0  0
 24 23  1  0  0  0  0
 26 23  1  0  0  0  0
M  CHG  1   3  -1
M  END
