1,2
q = -1.0, confidence = 0.0

  8  7  0  0  1  0  0  0  0  0999 V2000
   -1.4843   -1.5615   -0.6987 S   0  0  0  0  0  1  0  0  0  0  0  0
   -1.7542    1.1732    0.7422 O   0  0  0  0  0  1  0  0  0  0  0  0
   -4.0111   -0.8232   -1.1093 O   0  0  0  0  0  0  0  0  0  0  0  0
   -3.9254    1.4907    0.0996 N   0  0  0  0  0  0  0  0  0  0  0  0
   -2.9115   -0.5564   -0.6299 C   0  0  0  0  0  0  0  0  0  0  0  0
   -2.7836    0.7952    0.1440 C   0  0  2  0  0  3  0  0  0  0  0  0
   -4.6945    1.0538   -0.4223 H   0  0  0  0  0  0  0  0  0  0  0  0
   -4.0092    2.4023    0.5488 H   0  0  0  0  0  0  0  0  0  0  0  0
  1  5  1  0  0  0  0
  3  5  2  0  0  0  0
  4  6  1  0  0  0  0
  4  8  1  0  0  0  0
  5  6  1  0  0  0  0
  6  2  1  1  0  0  0
  7  4  1  0  0  0  0
M  END
