1,2
q = -1.0, confidence = 0.0

  7  6  0  0  1  0  0  0  0  0999 V2000
   -2.6255    1.0135    0.7051 S   0  0  0  0  0  1  0  0  0  0  0  0
   -1.0525   -0.4717    2.1209 O   0  0  0  0  0  1  0  0  0  0  0  0
   -1.9179    0.4389    2.1783 C   0  0  1  0  0  3  0  0  0  0  0  0
   -2.3120    1.0416    3.5027 C   0  0  0  0  0  0  0  0  0  0  0  0
   -2.3252    0.2504    4.2778 H   0  0  0  0  0  0  0  0  0  0  0  0
   -3.2927    1.5484    3.4506 H   0  0  0  0  0  0  0  0  0  0  0  0
   -1.5465    1.7892    3.8005 H   0  0  0  0  0  0  0  0  0  0  0  0
  2  3  1  0  0  0  0
  3  1  1  6  0  0  0
  3  4  1  0  0  0  0
  4  7  1  0  0  0  0
  4  5  1  0  0  0  0
  6  4  1  0  0  0  0
M  END
