1,2
q = -1.0, confidence = 0.002

 16 15  0  0  0  0  0  0  0  0999 V2000
    2.0209    0.3000    0.6213 S   0  0  0  0  0  0  0  0  0  0  0  0
    0.6967   -2.3021    0.0343 O   0  0  0  0  0  1  0  0  0  0  0  0
    1.2536    3.1570    0.0549 O   0  0  0  0  0  0  0  0  0  0  0  0
    1.9307   -2.3978    0.7147 C   0  0  0  0  0  0  0  0  0  0  0  0
    2.9152   -1.2924    0.3230 C   0  0  0  0  0  0  0  0  0  0  0  0
    2.8405    1.4375   -0.5707 C   0  0  0  0  0  0  0  0  0  0  0  0
    1.8708    2.5097   -1.0515 C   0  0  0  0  0  0  0  0  0  0  0  0
    0.3159    3.2725   -0.1835 H   0  0  0  0  0  0  0  0  0  0  0  0
    2.3901   -3.3843    0.4768 H   0  0  0  0  0  0  0  0  0  0  0  0
    1.7640   -2.3711    1.8201 H   0  0  0  0  0  0  0  0  0  0  0  0
    3.1631   -1.3532   -0.7566 H   0  0  0  0  0  0  0  0  0  0  0  0
    3.8440   -1.3210    0.9274 H   0  0  0  0  0  0  0  0  0  0  0  0
    3.7071    1.8770   -0.0366 H   0  0  0  0  0  0  0  0  0  0  0  0
    3.2021    0.8438   -1.4338 H   0  0  0  0  0  0  0  0  0  0  0  0
    2.4547    3.2385   -1.6658 H   0  0  0  0  0  0  0  0  0  0  0  0
    1.1224    2.0245   -1.7116 H   0  0  0  0  0  0  0  0  0  0  0  0
  2  4  1  0  0  0  0
  4 10  1  0  0  0  0
  5  1  1  0  0  0  0
  5  4  1  0  0  0  0
  5 12  1  0  0  0  0
  6 13  1  0  0  0  0
  6  1  1  0  0  0  0
  7  6  1  0  0  0  0
  7  3  1  0  0  0  0
  8  3  1  0  0  0  0
  9  4  1  0  0  0  0
 11  5  1  0  0  0  0
 14  6  1  0  0  0  0
 15  7  1  0  0  0  0
 16  7  1  0  0  0  0
M  END
