1,2
q = -1.0

 25 25  0  0  0  0  0  0  0  0999 V2000
   -0.6467   -1.7618    0.3930 S   0  0  1  0  0  3  0  0  0  0  0  0
   -0.6136    0.2626   -1.8060 O   0  5  0  0  0  0  0  0  0  0  0  0
   -2.3907   -1.4928   -0.0648 C   0  0  0  0  0  0  0  0  0  0  0  0
   -4.1635   -0.5316   -1.3758 C   0  0  0  0  0  0  0  0  0  0  0  0
   -4.4637    0.0689   -2.2471 H   0  0  0  0  0  0  0  0  0  0  0  0
   -3.3238   -2.1145    0.7790 C   0  0  0  0  0  0  0  0  0  0  0  0
   -2.9562   -2.7224    1.6198 H   0  0  0  0  0  0  0  0  0  0  0  0
   -2.2897    0.2550   -3.2741 O   0  0  0  0  0  0  0  0  0  0  0  0
   -5.1101   -1.1284   -0.5339 C   0  0  0  0  0  0  0  0  0  0  0  0
   -6.1832   -0.9794   -0.7258 H   0  0  0  0  0  0  0  0  0  0  0  0
   -1.8539   -0.0091   -2.1586 C   0  0  0  0  0  0  0  0  0  0  0  0
   -0.6416   -2.3330    1.8023 O   0  0  0  0  0  1  0  0  0  0  0  0
   -4.6921   -1.9249    0.5456 C   0  0  0  0  0  0  0  0  0  0  0  0
   -5.4311   -2.4036    1.2054 H   0  0  0  0  0  0  0  0  0  0  0  0
    1.1328   -3.7552   -0.1952 C   0  0  0  0  0  0  0  0  0  0  0  0
    1.9465   -3.0128   -0.1044 H   0  0  0  0  0  0  0  0  0  0  0  0
    1.4843   -4.5673   -0.8622 H   0  0  0  0  0  0  0  0  0  0  0  0
    0.9410   -4.1833    0.8080 H   0  0  0  0  0  0  0  0  0  0  0  0
   -1.2675   -4.1832   -0.9062 C   0  0  0  0  0  0  0  0  0  0  0  0
   -1.5490   -4.5996    0.0817 H   0  0  0  0  0  0  0  0  0  0  0  0
   -0.9029   -5.0225   -1.5327 H   0  0  0  0  0  0  0  0  0  0  0  0
   -2.1697   -3.7654   -1.3896 H   0  0  0  0  0  0  0  0  0  0  0  0
   -0.1497   -3.1590   -0.7657 C   0  0  0  0  0  0  0  0  0  0  0  0
    0.0298   -2.6211   -1.7203 H   0  0  0  0  0  0  0  0  0  0  0  0
   -2.7790   -0.6837   -1.1526 C   0  0  0  0  0  0  0  0  0  0  0  0
  1 12  1  1  0  0  0
  3  1  1  0  0  0  0
  3  6  1  0  0  0  0
  4 25  1  0  0  0  0
  4  9  2  0  0  0  0
  5  4  1  0  0  0  0
  6  7  1  0  0  0  0
  8 11  2  0  0  0  0
  9 13  1  0  0  0  0
 10  9  1  0  0  0  0
 11  2  1  0  0  0  0
 11 25  1  0  0  0  0
 13  6  2  0  0  0  0
 13 14  1  0  0  0  0
 15 16  1  0  0  0  0
 15 18  1  0  0  0  0
 17 15  1  0  0  0  0
 19 23  1  0  0  0  0
 19 20  1  0  0  0  0
 21 19  1  0  0  0  0
 22 19  1  0  0  0  0
 23 15  1  0  0  0  0
 23  1  1  0  0  0  0
 24 23  1  0  0  0  0
 25  3  2  0  0  0  0
M  CHG  1   2  -1
M  END
