1,2
q = -1.0

 11 11  0  0  1  0  0  0  0  0999 V2000
   -1.2650    1.9519   -0.3555 S   0  0  0  0  0  1  0  0  0  0  0  0
   -1.6635   -1.0357    0.2164 O   0  0  0  0  0  1  0  0  0  0  0  0
   -3.9208    1.6889   -0.5232 N   0  0  0  0  0  0  0  0  0  0  0  0
   -3.9286   -1.0114   -0.0072 N   0  0  0  0  0  0  0  0  0  0  0  0
   -3.8951   -2.0211    0.1624 H   0  0  0  0  0  0  0  0  0  0  0  0
   -2.7058   -0.3820   -0.0085 C   0  0  2  0  0  3  0  0  0  0  0  0
   -2.7673    1.0711   -0.3011 C   0  0  0  0  0  0  0  0  0  0  0  0
   -5.1219   -0.3739   -0.2523 C   0  0  0  0  0  0  0  0  0  0  0  0
   -6.0350   -0.9831   -0.2350 H   0  0  0  0  0  0  0  0  0  0  0  0
   -5.0810    0.9807   -0.4985 C   0  0  0  0  0  0  0  0  0  0  0  0
   -6.0144    1.5344   -0.6911 H   0  0  0  0  0  0  0  0  0  0  0  0
  1  7  1  0  0  0  0
  3 10  1  0  0  0  0
  3  7  2  0  0  0  0
  4  5  1  0  0  0  0
  6  4  1  0  0  0  0
  6  2  1  6  0  0  0
  7  6  1  0  0  0  0
  8  9  1  0  0  0  0
  8  4  1  0  0  0  0
 10  8  2  0  0  0  0
 11 10  1  0  0  0  0
M  END
