2,3
q = -1.0

 39 41  0  0  1  0  0  0  0  0999 V2000
   -5.5171    2.1383    0.7313 Cl  0  0  0  0  0  0  0  0  0  0  0  0
   -1.2448   -1.4854    0.0217 S   0  0  0  0  0  1  0  0  0  0  0  0
   -1.1117    1.4962   -0.0771 O   0  5  0  0  0  0  0  0  0  0  0  0
   -3.2208    0.4696   -0.0378 N   0  0  0  0  0  0  0  0  0  0  0  0
   -3.8939   -1.7202    0.0170 N   0  0  0  0  0  0  0  0  0  0  0  0
   -4.3331    3.2377    0.0760 C   0  0  0  0  0  0  0  0  0  0  0  0
   -4.7689    4.5647   -0.1039 C   0  0  0  0  0  0  0  0  0  0  0  0
   -5.8112    4.8082    0.1451 H   0  0  0  0  0  0  0  0  0  0  0  0
   -3.8933    5.5486   -0.5765 C   0  0  0  0  0  0  0  0  0  0  0  0
   -4.2569    6.5787   -0.7109 H   0  0  0  0  0  0  0  0  0  0  0  0
   -2.5595    5.2162   -0.8631 C   0  0  0  0  0  0  0  0  0  0  0  0
   -1.8546    5.9809   -1.2211 H   0  0  0  0  0  0  0  0  0  0  0  0
   -2.1264    3.9015   -0.6832 C   0  0  0  0  0  0  0  0  0  0  0  0
   -1.0837    3.6183   -0.8817 H   0  0  0  0  0  0  0  0  0  0  0  0
   -2.9916    2.8771   -0.2253 C   0  0  0  0  0  0  0  0  0  0  0  0
   -2.3901    1.5100   -0.0953 C   0  0  0  0  0  0  0  0  0  0  0  0
   -2.8515   -0.8053    0.0196 C   0  0  1  0  0  3  0  0  0  0  0  0
   -3.7105   -3.1050    0.3346 C   0  0  0  0  0  0  0  0  0  0  0  0
   -3.1529   -3.4893    1.5698 C   0  0  0  0  0  0  0  0  0  0  0  0
   -2.8260   -2.7169    2.2800 H   0  0  0  0  0  0  0  0  0  0  0  0
   -3.0131   -4.8488    1.8754 C   0  0  0  0  0  0  0  0  0  0  0  0
   -2.5750   -5.1446    2.8405 H   0  0  0  0  0  0  0  0  0  0  0  0
   -3.4384   -5.8294    0.9634 C   0  0  0  0  0  0  0  0  0  0  0  0
   -3.3298   -6.8962    1.2098 H   0  0  0  0  0  0  0  0  0  0  0  0
   -4.0082   -5.4429   -0.2599 C   0  0  0  0  0  0  0  0  0  0  0  0
   -4.3464   -6.2052   -0.9780 H   0  0  0  0  0  0  0  0  0  0  0  0
   -4.1441   -4.0845   -0.5775 C   0  0  0  0  0  0  0  0  0  0  0  0
   -4.5891   -3.7687   -1.5321 H   0  0  0  0  0  0  0  0  0  0  0  0
   -5.2265   -1.3019   -0.3163 C   0  0  0  0  0  0  0  0  0  0  0  0
   -5.4882   -0.6377   -1.5286 C   0  0  0  0  0  0  0  0  0  0  0  0
   -4.6589   -0.4153   -2.2137 H   0  0  0  0  0  0  0  0  0  0  0  0
   -6.7966   -0.2481   -1.8375 C   0  0  0  0  0  0  0  0  0  0  0  0
   -6.9960    0.2799   -2.7821 H   0  0  0  0  0  0  0  0  0  0  0  0
   -7.8495   -0.5263   -0.9499 C   0  0  0  0  0  0  0  0  0  0  0  0
   -8.8761   -0.2158   -1.1958 H   0  0  0  0  0  0  0  0  0  0  0  0
   -7.5864   -1.2032    0.2511 C   0  0  0  0  0  0  0  0  0  0  0  0
   -8.4052   -1.4253    0.9520 H   0  0  0  0  0  0  0  0  0  0  0  0
   -6.2776   -1.5916    0.5708 C   0  0  0  0  0  0  0  0  0  0  0  0
   -6.0590   -2.1152    1.5128 H   0  0  0  0  0  0  0  0  0  0  0  0
  4 17  1  0  0  0  0
  5 17  1  0  0  0  0
  5 18  1  0  0  0  0
  6  1  1  0  0  0  0
  7  6  1  0  0  0  0
  7  8  1  0  0  0  0
  9  7  2  0  0  0  0
 10  9  1  0  0  0  0
 11 13  2  0  0  0  0
 11  9  1  0  0  0  0
 12 11  1  0  0  0  0
 13 15  1  0  0  0  0
 14 13  1  0  0  0  0
 15 16  1  0  0  0  0
 15  6  2  0  0  0  0
 16  3  1  0  0  0  0
 16  4  2  0  0  0  0
 17  2  1  6  0  0  0
 18 19  1  0  0  0  0
 19 21  2  0  0  0  0
 19 20  1  0  0  0  0
 21 22  1  0  0  0  0
 23 24  1  0  0  0  0
 23 21  1  0  0  0  0
 25 23  2  0  0  0  0
 26 25  1  0  0  0  0
 27 25  1  0  0  0  0
 27 18  2  0  0  0  0
 28 27  1  0  0  0  0
 29  5  1  0  0  0  0
 29 38  1  0  0  0  0
 30 29  2  0  0  0  0
 31 30  1  0  0  0  0
 32 30  1  0  0  0  0
 32 34  2  0  0  0  0
 33 32  1  0  0  0  0
 34 36  1  0  0  0  0
 35 34  1  0  0  0  0
 36 38  2  0  0  0  0
 36 37  1  0  0  0  0
 38 39  1  0  0  0  0
M  CHG  1   3  -1
M  END
