1,3
q = -1.0

 21 21  0  0  0  0  0  0  0  0999 V2000
   -1.4768   -2.4513   -0.0378 S   0  0  0  0  0  1  0  0  0  0  0  0
   -4.8492    2.1084    0.0978 S   0  0  0  0  0  0  0  0  0  0  0  0
   -1.2428    0.5389    0.0348 O   0  5  0  0  0  0  0  0  0  0  0  0
   -4.0091   -2.6288   -0.1433 O   0  0  0  0  0  0  0  0  0  0  0  0
   -3.3946   -0.4363   -0.0256 N   0  0  0  0  0  4  0  0  0  0  0  0
   -2.5155    0.5855    0.0375 C   0  0  0  0  0  0  0  0  0  0  0  0
   -3.0389   -1.7074   -0.0695 C   0  0  0  0  0  0  0  0  0  0  0  0
   -3.1156    1.9199    0.1157 C   0  0  0  0  0  0  0  0  0  0  0  0
   -2.4699    3.1487    0.2136 C   0  0  0  0  0  0  0  0  0  0  0  0
   -1.3748    3.2213    0.2434 H   0  0  0  0  0  0  0  0  0  0  0  0
   -3.3789    4.2389    0.2726 C   0  0  0  0  0  0  0  0  0  0  0  0
   -3.0796    5.2929    0.3525 H   0  0  0  0  0  0  0  0  0  0  0  0
   -4.7029    3.8247    0.2189 C   0  0  0  0  0  0  0  0  0  0  0  0
   -5.6045    4.4499    0.2455 H   0  0  0  0  0  0  0  0  0  0  0  0
   -5.3837   -2.1760   -0.1667 C   0  0  0  0  0  0  0  0  0  0  0  0
   -5.5225   -1.4989   -1.0351 H   0  0  0  0  0  0  0  0  0  0  0  0
   -5.5767   -1.5715    0.7439 H   0  0  0  0  0  0  0  0  0  0  0  0
   -6.2618   -3.4071   -0.2442 C   0  0  0  0  0  0  0  0  0  0  0  0
   -7.3279   -3.1060   -0.2646 H   0  0  0  0  0  0  0  0  0  0  0  0
   -6.1030   -4.0657    0.6323 H   0  0  0  0  0  0  0  0  0  0  0  0
   -6.0480   -3.9922   -1.1603 H   0  0  0  0  0  0  0  0  0  0  0  0
  2  8  1  0  0  0  0
  2 13  1  0  0  0  0
  3  6  1  0  0  0  0
  4  7  1  0  0  0  0
  5  6  2  0  0  0  0
  6  8  1  0  0  0  0
  7  1  1  0  0  0  0
  7  5  2  0  0  0  0
  8  9  2  0  0  0  0
  9 10  1  0  0  0  0
  9 11  1  0  0  0  0
 11 12  1  0  0  0  0
 13 14  1  0  0  0  0
 13 11  2  0  0  0  0
 15  4  1  0  0  0  0
 15 17  1  0  0  0  0
 16 15  1  0  0  0  0
 18 15  1  0  0  0  0
 18 20  1  0  0  0  0
 19 18  1  0  0  0  0
 21 18  1  0  0  0  0
M  CHG  1   3  -1
M  END
