1,2
q = -1.0, confidence = 0.002

 23 22  0  0  1  0  0  0  0  0999 V2000
   -1.8405   -0.4557   -1.7998 S   0  0  0  0  0  1  0  0  0  0  0  0
   -0.9466    0.5236    1.2027 O   0  5  0  0  0  0  0  0  0  0  0  0
   -3.1773    0.2928    0.5101 N   0  0  0  0  0  0  0  0  0  0  0  0
   -4.2201   -1.2377   -0.8484 N   0  0  0  0  0  0  0  0  0  0  0  0
   -2.5059    2.0201    1.8944 N   0  0  0  0  0  0  0  0  0  0  0  0
   -3.1201   -0.4552   -0.5808 C   0  0  1  0  0  3  0  0  0  0  0  0
   -2.1633    0.9096    1.1527 C   0  0  0  0  0  0  0  0  0  0  0  0
   -4.3551   -2.0536   -2.0391 C   0  0  0  0  0  0  0  0  0  0  0  0
   -4.8174   -3.0260   -1.7685 H   0  0  0  0  0  0  0  0  0  0  0  0
   -3.3592   -2.2285   -2.4849 H   0  0  0  0  0  0  0  0  0  0  0  0
   -5.0034   -1.5640   -2.8012 H   0  0  0  0  0  0  0  0  0  0  0  0
   -5.3879   -1.2095    0.0155 C   0  0  0  0  0  0  0  0  0  0  0  0
   -6.2685   -0.7935   -0.5239 H   0  0  0  0  0  0  0  0  0  0  0  0
   -5.1668   -0.5852    0.8973 H   0  0  0  0  0  0  0  0  0  0  0  0
   -5.6449   -2.2389    0.3460 H   0  0  0  0  0  0  0  0  0  0  0  0
   -1.5069    2.7126    2.6816 C   0  0  0  0  0  0  0  0  0  0  0  0
   -0.5214    2.2547    2.4905 H   0  0  0  0  0  0  0  0  0  0  0  0
   -1.7368    2.6461    3.7693 H   0  0  0  0  0  0  0  0  0  0  0  0
   -1.4723    3.7899    2.4070 H   0  0  0  0  0  0  0  0  0  0  0  0
   -3.8550    2.5392    1.9545 C   0  0  0  0  0  0  0  0  0  0  0  0
   -4.2396    2.5277    2.9996 H   0  0  0  0  0  0  0  0  0  0  0  0
   -4.5075    1.9178    1.3177 H   0  0  0  0  0  0  0  0  0  0  0  0
   -3.8896    3.5909    1.5922 H   0  0  0  0  0  0  0  0  0  0  0  0
  3  7  2  0  0  0  0
  4  6  1  0  0  0  0
  4 12  1  0  0  0  0
  5 20  1  0  0  0  0
  5 16  1  0  0  0  0
  6  1  1  6  0  0  0
  6  3  1  0  0  0  0
  7  2  1  0  0  0  0
  7  5  1  0  0  0  0
  8  9  1  0  0  0  0
  8  4  1  0  0  0  0
 10  8  1  0  0  0  0
 11  8  1  0  0  0  0
 12 15  1  0  0  0  0
 12 14  1  0  0  0  0
 13 12  1  0  0  0  0
 16 18  1  0  0  0  0
 17 16  1  0  0  0  0
 19 16  1  0  0  0  0
 20 21  1  0  0  0  0
 22 20  1  0  0  0  0
 23 20  1  0  0  0  0
M  CHG  1   2  -1
M  END
