1,11
q = -1.0

 31 31  0  0  1  0  0  0  0  0999 V2000
   -1.2280   -2.3634   -0.2153 S   0  0  0  0  0  1  0  0  0  0  0  0
   -5.2925    0.8294   -1.6075 Cl  0  0  0  0  0  0  0  0  0  0  0  0
   -2.9504    1.9385   -0.5931 C   0  0  0  0  0  0  0  0  0  0  0  0
   -4.2529    2.1446   -1.1092 C   0  0  0  0  0  0  0  0  0  0  0  0
   -4.7489    3.4443   -1.3122 C   0  0  0  0  0  0  0  0  0  0  0  0
   -3.9563    4.5577   -1.0058 C   0  0  0  0  0  0  0  0  0  0  0  0
   -2.6538    4.3756   -0.5146 C   0  0  0  0  0  0  0  0  0  0  0  0
   -2.1616    3.0815   -0.3237 C   0  0  0  0  0  0  0  0  0  0  0  0
   -3.6961   -2.4841    0.7889 N   0  0  0  0  0  0  0  0  0  0  0  0
   -3.1297   -0.3712    0.1148 N   0  0  0  0  0  0  0  0  0  0  0  0
   -1.0556    0.5906   -0.4179 O   0  5  0  0  0  0  0  0  0  0  0  0
   -3.4223   -3.8864    1.0942 C   0  0  0  0  0  0  0  0  0  0  0  0
   -2.3279    0.6047   -0.3057 C   0  0  0  0  0  0  0  0  0  0  0  0
   -2.7545   -1.6452    0.2696 C   0  0  2  0  0  3  0  0  0  0  0  0
   -3.7322   -4.8299   -0.0692 C   0  0  0  0  0  0  0  0  0  0  0  0
   -5.1648   -1.3922    2.4847 C   0  0  0  0  0  0  0  0  0  0  0  0
   -5.0460   -1.9823    1.0805 C   0  0  0  0  0  0  0  0  0  0  0  0
   -5.7608    3.5649   -1.7237 H   0  0  0  0  0  0  0  0  0  0  0  0
   -4.3596    5.5695   -1.1641 H   0  0  0  0  0  0  0  0  0  0  0  0
   -2.0183    5.2425   -0.2803 H   0  0  0  0  0  0  0  0  0  0  0  0
   -1.1412    2.9122    0.0502 H   0  0  0  0  0  0  0  0  0  0  0  0
   -2.3522   -3.9691    1.3754 H   0  0  0  0  0  0  0  0  0  0  0  0
   -4.0254   -4.1536    1.9874 H   0  0  0  0  0  0  0  0  0  0  0  0
   -3.5357   -5.8807    0.2240 H   0  0  0  0  0  0  0  0  0  0  0  0
   -3.0930   -4.5889   -0.9414 H   0  0  0  0  0  0  0  0  0  0  0  0
   -4.7936   -4.7546   -0.3821 H   0  0  0  0  0  0  0  0  0  0  0  0
   -6.2079   -1.0717    2.6807 H   0  0  0  0  0  0  0  0  0  0  0  0
   -4.5071   -0.5060    2.5764 H   0  0  0  0  0  0  0  0  0  0  0  0
   -4.8807   -2.1260    3.2669 H   0  0  0  0  0  0  0  0  0  0  0  0
   -5.2880   -1.2099    0.3275 H   0  0  0  0  0  0  0  0  0  0  0  0
   -5.7464   -2.8328    0.9455 H   0  0  0  0  0  0  0  0  0  0  0  0
  2  4  1  0  0  0  0
  3  8  1  0  0  0  0
  3 13  1  0  0  0  0
  4  3  2  0  0  0  0
  5  4  1  0  0  0  0
  5  6  2  0  0  0  0
  6  7  1  0  0  0  0
  7  8  2  0  0  0  0
  7 20  1  0  0  0  0
  8 21  1  0  0  0  0
  9 17  1  0  0  0  0
  9 12  1  0  0  0  0
 10 14  1  0  0  0  0
 11 13  1  0  0  0  0
 12 22  1  0  0  0  0
 12 23  1  0  0  0  0
 13 10  2  0  0  0  0
 14  1  1  6  0  0  0
 14  9  1  0  0  0  0
 15 24  1  0  0  0  0
 15 12  1  0  0  0  0
 16 28  1  0  0  0  0
 16 27  1  0  0  0  0
 16 29  1  0  0  0  0
 17 16  1  0  0  0  0
 18  5  1  0  0  0  0
 19  6  1  0  0  0  0
 25 15  1  0  0  0  0
 26 15  1  0  0  0  0
 30 17  1  0  0  0  0
 31 17  1  0  0  0  0
M  CHG  1  11  -1
M  END
