1,2
q = -1.0

 28 29  0  0  1  0  0  0  0  0999 V2000
   -2.4251   -2.1300   -0.5012 S   0  0  0  0  0  1  0  0  0  0  0  0
    0.1121   -0.7952   -1.4643 O   0  5  0  0  0  0  0  0  0  0  0  0
   -2.7173   -0.4465   -0.7637 C   0  0  2  0  0  3  0  0  0  0  0  0
   -1.8029    0.5479   -1.1202 C   0  0  0  0  0  0  0  0  0  0  0  0
   -0.4395    0.3536   -1.4776 C   0  0  0  0  0  0  0  0  0  0  0  0
   -4.1346   -0.0434   -0.5553 C   0  0  0  0  0  0  0  0  0  0  0  0
   -4.9005   -0.6012    0.4952 C   0  0  0  0  0  0  0  0  0  0  0  0
   -6.2209   -0.1879    0.7128 C   0  0  0  0  0  0  0  0  0  0  0  0
   -6.8061    0.7784   -0.1214 C   0  0  0  0  0  0  0  0  0  0  0  0
   -6.0612    1.3296   -1.1770 C   0  0  0  0  0  0  0  0  0  0  0  0
   -4.7372    0.9267   -1.3907 C   0  0  0  0  0  0  0  0  0  0  0  0
    0.4274    1.5030   -1.8684 C   0  0  0  0  0  0  0  0  0  0  0  0
    1.7157    1.2178   -2.3765 C   0  0  0  0  0  0  0  0  0  0  0  0
    2.5996    2.2538   -2.6959 C   0  0  0  0  0  0  0  0  0  0  0  0
    2.2161    3.5925   -2.5018 C   0  0  0  0  0  0  0  0  0  0  0  0
    0.9409    3.8869   -1.9908 C   0  0  0  0  0  0  0  0  0  0  0  0
    0.0492    2.8515   -1.6807 C   0  0  0  0  0  0  0  0  0  0  0  0
   -2.1933    1.5725   -1.1466 H   0  0  0  0  0  0  0  0  0  0  0  0
   -4.4355   -1.3543    1.1485 H   0  0  0  0  0  0  0  0  0  0  0  0
   -6.7975   -0.6238    1.5426 H   0  0  0  0  0  0  0  0  0  0  0  0
   -7.8453    1.0988    0.0475 H   0  0  0  0  0  0  0  0  0  0  0  0
   -6.5191    2.0736   -1.8463 H   0  0  0  0  0  0  0  0  0  0  0  0
   -4.1668    1.3417   -2.2348 H   0  0  0  0  0  0  0  0  0  0  0  0
    2.0058    0.1641   -2.4955 H   0  0  0  0  0  0  0  0  0  0  0  0
    3.5994    2.0167   -3.0896 H   0  0  0  0  0  0  0  0  0  0  0  0
    2.9125    4.4086   -2.7480 H   0  0  0  0  0  0  0  0  0  0  0  0
    0.6387    4.9328   -1.8297 H   0  0  0  0  0  0  0  0  0  0  0  0
   -0.9344    3.1019   -1.2592 H   0  0  0  0  0  0  0  0  0  0  0  0
  3  6  1  0  0  0  0
  3  1  1  1  0  0  0
  4  3  1  0  0  0  0
  5  2  1  0  0  0  0
  5  4  2  0  0  0  0
  6  7  1  0  0  0  0
  7  8  2  0  0  0  0
  7 19  1  0  0  0  0
  8 20  1  0  0  0  0
  9 21  1  0  0  0  0
  9  8  1  0  0  0  0
 10  9  2  0  0  0  0
 11 10  1  0  0  0  0
 11  6  2  0  0  0  0
 12 17  1  0  0  0  0
 12  5  1  0  0  0  0
 13 12  2  0  0  0  0
 14 15  2  0  0  0  0
 14 13  1  0  0  0  0
 15 16  1  0  0  0  0
 16 27  1  0  0  0  0
 16 17  2  0  0  0  0
 17 28  1  0  0  0  0
 18  4  1  0  0  0  0
 22 10  1  0  0  0  0
 23 11  1  0  0  0  0
 24 13  1  0  0  0  0
 25 14  1  0  0  0  0
 26 15  1  0  0  0  0
M  CHG  1   2  -1
M  END
