1,2
q = -1.0, confidence = 0.0

 15 15  0  0  1  0  0  0  0  0999 V2000
   -1.5440    1.5836    0.0000 S   0  0  0  0  0  1  0  0  0  0  0  0
   -1.3379   -1.3075   -0.0005 O   0  5  0  0  0  0  0  0  0  0  0  0
   -2.8693    0.4928    0.0000 C   0  0  1  0  0  3  0  0  0  0  0  0
   -2.5833   -0.9248   -0.0002 C   0  0  0  0  0  0  0  0  0  0  0  0
   -4.1706    0.8993    0.0003 N   0  0  0  0  0  0  0  0  0  0  0  0
   -3.6863   -1.8054    0.0001 C   0  0  0  0  0  0  0  0  0  0  0  0
   -5.2651    0.0608    0.0005 C   0  0  0  0  0  0  0  0  0  0  0  0
   -4.3283    1.9129    0.0005 H   0  0  0  0  0  0  0  0  0  0  0  0
   -5.0070   -1.3059    0.0004 C   0  0  0  0  0  0  0  0  0  0  0  0
   -3.4910   -2.8875    0.0002 H   0  0  0  0  0  0  0  0  0  0  0  0
   -6.6212    0.6971   -0.0006 C   0  0  0  0  0  0  0  0  0  0  0  0
   -5.8592   -2.0000    0.0006 H   0  0  0  0  0  0  0  0  0  0  0  0
   -6.7790    1.3432    0.8906 H   0  0  0  0  0  0  0  0  0  0  0  0
   -6.7838    1.3303   -0.9002 H   0  0  0  0  0  0  0  0  0  0  0  0
   -7.4073   -0.0798    0.0071 H   0  0  0  0  0  0  0  0  0  0  0  0
  2  4  1  0  0  0  0
  3  1  1  1  0  0  0
  3  5  1  0  0  0  0
  4  3  1  0  0  0  0
  4  6  2  0  0  0  0
  5  7  1  0  0  0  0
  5  8  1  0  0  0  0
  6 10  1  0  0  0  0
  6  9  1  0  0  0  0
  9  7  2  0  0  0  0
  9 12  1  0  0  0  0
 11  7  1  0  0  0  0
 11 15  1  0  0  0  0
 11 13  1  0  0  0  0
 14 11  1  0  0  0  0
M  CHG  1   2  -1
M  END
