1,3
q = -1.0

 32 33  0  0  1  0  0  0  0  0999 V2000
   -0.5552   -1.9390   -0.1906 S   0  0  0  0  0  1  0  0  0  0  0  0
   -5.8009   -0.4805   -0.5058 F   0  0  0  0  0  0  0  0  0  0  0  0
   -1.7686    0.7773   -0.1612 O   0  5  0  0  0  0  0  0  0  0  0  0
   -2.7762   -3.3282    0.1325 N   0  0  0  0  0  0  0  0  0  0  0  0
   -3.2011   -1.0777   -0.0232 N   0  0  0  0  0  0  0  0  0  0  0  0
   -2.2901   -2.0507   -0.0031 C   0  0  2  0  0  3  0  0  0  0  0  0
   -4.2077   -3.6082    0.1951 C   0  0  0  0  0  0  0  0  0  0  0  0
   -4.4702   -4.0524    1.1786 H   0  0  0  0  0  0  0  0  0  0  0  0
   -4.4886   -4.3323   -0.5977 H   0  0  0  0  0  0  0  0  0  0  0  0
   -4.7513   -2.6573    0.0558 H   0  0  0  0  0  0  0  0  0  0  0  0
   -1.8936   -4.4559    0.2240 C   0  0  0  0  0  0  0  0  0  0  0  0
   -1.6171   -5.2235   -0.9208 C   0  0  0  0  0  0  0  0  0  0  0  0
   -2.0474   -4.9207   -1.8868 H   0  0  0  0  0  0  0  0  0  0  0  0
   -0.7857   -6.3483   -0.8209 C   0  0  0  0  0  0  0  0  0  0  0  0
   -0.5643   -6.9451   -1.7185 H   0  0  0  0  0  0  0  0  0  0  0  0
   -0.2316   -6.7065    0.4183 C   0  0  0  0  0  0  0  0  0  0  0  0
    0.4232   -7.5877    0.4940 H   0  0  0  0  0  0  0  0  0  0  0  0
   -0.5115   -5.9393    1.5610 C   0  0  0  0  0  0  0  0  0  0  0  0
   -0.0765   -6.2169    2.5329 H   0  0  0  0  0  0  0  0  0  0  0  0
   -1.3441   -4.8160    1.4678 C   0  0  0  0  0  0  0  0  0  0  0  0
   -1.5656   -4.1979    2.3500 H   0  0  0  0  0  0  0  0  0  0  0  0
   -2.9177    0.2212   -0.1445 C   0  0  0  0  0  0  0  0  0  0  0  0
   -4.0661    1.1764   -0.2400 C   0  0  0  0  0  0  0  0  0  0  0  0
   -5.4225    0.8057   -0.4014 C   0  0  0  0  0  0  0  0  0  0  0  0
   -6.4426    1.7642   -0.4759 C   0  0  0  0  0  0  0  0  0  0  0  0
   -7.4763    1.4125   -0.6049 H   0  0  0  0  0  0  0  0  0  0  0  0
   -6.1292    3.1263   -0.3901 C   0  0  0  0  0  0  0  0  0  0  0  0
   -6.9344    3.8744   -0.4475 H   0  0  0  0  0  0  0  0  0  0  0  0
   -4.7909    3.5260   -0.2336 C   0  0  0  0  0  0  0  0  0  0  0  0
   -4.5325    4.5928   -0.1638 H   0  0  0  0  0  0  0  0  0  0  0  0
   -3.7821    2.5617   -0.1639 C   0  0  0  0  0  0  0  0  0  0  0  0
   -2.7281    2.8473   -0.0405 H   0  0  0  0  0  0  0  0  0  0  0  0
  2 24  1  0  0  0  0
  3 22  1  0  0  0  0
  4  7  1  0  0  0  0
  4 11  1  0  0  0  0
  5  6  1  0  0  0  0
  6  1  1  6  0  0  0
  6  4  1  0  0  0  0
  7  8  1  0  0  0  0
  9  7  1  0  0  0  0
 10  7  1  0  0  0  0
 11 20  1  0  0  0  0
 12 14  1  0  0  0  0
 12 11  2  0  0  0  0
 13 12  1  0  0  0  0
 14 16  2  0  0  0  0
 15 14  1  0  0  0  0
 16 17  1  0  0  0  0
 16 18  1  0  0  0  0
 18 19  1  0  0  0  0
 20 18  2  0  0  0  0
 20 21  1  0  0  0  0
 22  5  2  0  0  0  0
 23 31  1  0  0  0  0
 23 22  1  0  0  0  0
 24 23  2  0  0  0  0
 25 24  1  0  0  0  0
 25 27  2  0  0  0  0
 26 25  1  0  0  0  0
 27 29  1  0  0  0  0
 28 27  1  0  0  0  0
 29 31  2  0  0  0  0
 29 30  1  0  0  0  0
 31 32  1  0  0  0  0
M  CHG  1   3  -1
M  END
