1,3
q = -1.0

 37 37  0  0  1  0  0  0  0  0999 V2000
    1.4676   -2.0788   -0.1631 S   0  0  0  0  0  1  0  0  0  0  0  0
    4.7579    6.1027   -0.3584 F   0  0  0  0  0  0  0  0  0  0  0  0
    1.2665    0.8963   -0.1135 O   0  5  0  0  0  0  0  0  0  0  0  0
    4.0909   -2.2648    0.2106 N   0  0  0  0  0  0  0  0  0  0  0  0
    3.3996   -0.0870    0.0697 N   0  0  0  0  0  0  0  0  0  0  0  0
    3.0588   -1.3806    0.0595 C   0  0  1  0  0  3  0  0  0  0  0  0
    3.8973   -3.7110    0.1632 C   0  0  0  0  0  0  0  0  0  0  0  0
    3.0977   -3.9376   -0.5728 H   0  0  0  0  0  0  0  0  0  0  0  0
    4.8329   -4.1602   -0.2329 H   0  0  0  0  0  0  0  0  0  0  0  0
    3.5441   -4.3271    1.5231 C   0  0  0  0  0  0  0  0  0  0  0  0
    2.6235   -3.8304    1.8948 H   0  0  0  0  0  0  0  0  0  0  0  0
    4.3514   -4.0901    2.2499 H   0  0  0  0  0  0  0  0  0  0  0  0
    3.3325   -5.8373    1.4347 C   0  0  0  0  0  0  0  0  0  0  0  0
    3.0839   -6.2694    2.4241 H   0  0  0  0  0  0  0  0  0  0  0  0
    4.2400   -6.3573    1.0613 H   0  0  0  0  0  0  0  0  0  0  0  0
    2.4998   -6.0847    0.7439 H   0  0  0  0  0  0  0  0  0  0  0  0
    5.4532   -1.7712    0.4244 C   0  0  0  0  0  0  0  0  0  0  0  0
    5.9996   -2.5491    0.9987 H   0  0  0  0  0  0  0  0  0  0  0  0
    5.3994   -0.8646    1.0571 H   0  0  0  0  0  0  0  0  0  0  0  0
    6.1929   -1.4484   -0.8784 C   0  0  0  0  0  0  0  0  0  0  0  0
    6.2297   -2.3583   -1.5164 H   0  0  0  0  0  0  0  0  0  0  0  0
    5.5919   -0.6967   -1.4311 H   0  0  0  0  0  0  0  0  0  0  0  0
    7.6042   -0.9195   -0.6271 C   0  0  0  0  0  0  0  0  0  0  0  0
    8.1268   -0.6903   -1.5768 H   0  0  0  0  0  0  0  0  0  0  0  0
    8.2255   -1.6540   -0.0726 H   0  0  0  0  0  0  0  0  0  0  0  0
    7.5824    0.0137   -0.0256 H   0  0  0  0  0  0  0  0  0  0  0  0
    2.5420    0.9312   -0.0531 C   0  0  0  0  0  0  0  0  0  0  0  0
    3.1439    2.2963   -0.1299 C   0  0  0  0  0  0  0  0  0  0  0  0
    2.3064    3.4178   -0.3164 C   0  0  0  0  0  0  0  0  0  0  0  0
    1.2235    3.2502   -0.4058 H   0  0  0  0  0  0  0  0  0  0  0  0
    2.8448    4.7060   -0.3951 C   0  0  0  0  0  0  0  0  0  0  0  0
    2.2107    5.5919   -0.5432 H   0  0  0  0  0  0  0  0  0  0  0  0
    4.2332    4.8663   -0.2850 C   0  0  0  0  0  0  0  0  0  0  0  0
    5.0896    3.7717   -0.1025 C   0  0  0  0  0  0  0  0  0  0  0  0
    6.1726    3.9434   -0.0232 H   0  0  0  0  0  0  0  0  0  0  0  0
    4.5382    2.4881   -0.0274 C   0  0  0  0  0  0  0  0  0  0  0  0
    5.1791    1.6066    0.1127 H   0  0  0  0  0  0  0  0  0  0  0  0
  2 33  1  0  0  0  0
  3 27  1  0  0  0  0
  4 17  1  0  0  0  0
  6  1  1  6  0  0  0
  6  5  1  0  0  0  0
  6  4  1  0  0  0  0
  7  4  1  0  0  0  0
  7 10  1  0  0  0  0
  8  7  1  0  0  0  0
  9  7  1  0  0  0  0
 10 11  1  0  0  0  0
 10 12  1  0  0  0  0
 13 10  1  0  0  0  0
 13 14  1  0  0  0  0
 15 13  1  0  0  0  0
 16 13  1  0  0  0  0
 17 18  1  0  0  0  0
 17 19  1  0  0  0  0
 20 23  1  0  0  0  0
 20 17  1  0  0  0  0
 21 20  1  0  0  0  0
 22 20  1  0  0  0  0
 23 25  1  0  0  0  0
 23 26  1  0  0  0  0
 24 23  1  0  0  0  0
 27  5  2  0  0  0  0
 28 27  1  0  0  0  0
 28 36  1  0  0  0  0
 29 28  2  0  0  0  0
 30 29  1  0  0  0  0
 31 29  1  0  0  0  0
 31 33  2  0  0  0  0
 32 31  1  0  0  0  0
 33 34  1  0  0  0  0
 34 36  2  0  0  0  0
 34 35  1  0  0  0  0
 36 37  1  0  0  0  0
M  CHG  1   3  -1
M  END
