1,2
q = -1.0, confidence = 0.002

 14 13  0  0  0  0  0  0  0  0999 V2000
   -0.9166    0.8906   -1.1898 S   0  0  0  0  0  0  0  0  0  0  0  0
    0.9009    1.3437    1.0509 O   0  5  0  0  0  0  0  0  0  0  0  0
    0.6102    3.5734    1.2146 O   0  0  0  0  0  0  0  0  0  0  0  0
   -4.1548   -0.2991    0.7458 O   0  0  0  0  0  0  0  0  0  0  0  0
   -3.0375   -1.1232   -1.0419 O   0  0  0  0  0  0  0  0  0  0  0  0
   -0.1483    2.4975   -0.7858 C   0  0  0  0  0  0  0  0  0  0  0  0
    0.4924    2.5069    0.6209 C   0  0  0  0  0  0  0  0  0  0  0  0
   -2.3811    1.0204   -0.0995 C   0  0  0  0  0  0  0  0  0  0  0  0
   -3.1808   -0.2616   -0.1957 C   0  0  0  0  0  0  0  0  0  0  0  0
    0.6711    2.5783   -1.5292 H   0  0  0  0  0  0  0  0  0  0  0  0
   -0.8765    3.3216   -0.9085 H   0  0  0  0  0  0  0  0  0  0  0  0
   -2.0531    1.1678    0.9487 H   0  0  0  0  0  0  0  0  0  0  0  0
   -2.9989    1.8794   -0.4378 H   0  0  0  0  0  0  0  0  0  0  0  0
   -4.5778   -1.1768    0.6280 H   0  0  0  0  0  0  0  0  0  0  0  0
  1  6  1  0  0  0  0
  1  8  1  0  0  0  0
  5  9  2  0  0  0  0
  6  7  1  0  0  0  0
  7  2  1  0  0  0  0
  7  3  2  0  0  0  0
  8 12  1  0  0  0  0
  9  8  1  0  0  0  0
  9  4  1  0  0  0  0
 10  6  1  0  0  0  0
 11  6  1  0  0  0  0
 13  8  1  0  0  0  0
 14  4  1  0  0  0  0
M  CHG  1   2  -1
M  END
