1,2
q = -1.0

 33 33  0  0  1  0  0  0  0  0999 V2000
    1.4069   -1.1292    1.2977 S   0  0  0  0  0  1  0  0  0  0  0  0
    0.4275    1.5036    0.2532 O   0  5  0  0  0  0  0  0  0  0  0  0
    5.3773    1.7762    0.7669 O   0  0  0  0  0  0  0  0  0  0  0  0
    4.3945    1.6663    0.6926 H   0  0  0  0  0  0  0  0  0  0  0  0
    4.6439   -3.3369   -1.2156 O   0  0  0  0  0  0  0  0  0  0  0  0
    4.2009   -3.7076   -1.9983 H   0  0  0  0  0  0  0  0  0  0  0  0
    2.7322    1.0441    0.1593 N   0  0  0  0  0  0  0  0  0  0  0  0
    3.8979   -0.9212    0.3670 N   0  0  0  0  0  0  0  0  0  0  0  0
    2.7335   -0.2393    0.5482 C   0  0  1  0  0  3  0  0  0  0  0  0
    1.6425    1.8246    0.0306 C   0  0  0  0  0  0  0  0  0  0  0  0
    1.8542    3.2170   -0.4640 C   0  0  0  0  0  0  0  0  0  0  0  0
    3.1406    3.7228   -0.7549 C   0  0  0  0  0  0  0  0  0  0  0  0
    4.0297    3.0972   -0.5931 H   0  0  0  0  0  0  0  0  0  0  0  0
    3.2859    5.0344   -1.2260 C   0  0  0  0  0  0  0  0  0  0  0  0
    4.2923    5.4232   -1.4427 H   0  0  0  0  0  0  0  0  0  0  0  0
    2.1586    5.8491   -1.4199 C   0  0  0  0  0  0  0  0  0  0  0  0
    2.2790    6.8777   -1.7933 H   0  0  0  0  0  0  0  0  0  0  0  0
    0.8763    5.3491   -1.1345 C   0  0  0  0  0  0  0  0  0  0  0  0
   -0.0099    5.9842   -1.2851 H   0  0  0  0  0  0  0  0  0  0  0  0
    0.7234    4.0428   -0.6578 C   0  0  0  0  0  0  0  0  0  0  0  0
   -0.2692    3.6292   -0.4290 H   0  0  0  0  0  0  0  0  0  0  0  0
    4.9987   -0.3427   -0.4311 C   0  0  0  0  0  0  0  0  0  0  0  0
    4.5528    0.2337   -1.2657 H   0  0  0  0  0  0  0  0  0  0  0  0
    5.5427   -1.2015   -0.8670 H   0  0  0  0  0  0  0  0  0  0  0  0
    5.9436    0.5497    0.3719 C   0  0  0  0  0  0  0  0  0  0  0  0
    6.3145   -0.0324    1.2556 H   0  0  0  0  0  0  0  0  0  0  0  0
    6.8382    0.7475   -0.2635 H   0  0  0  0  0  0  0  0  0  0  0  0
    4.0925   -2.2801    0.8680 C   0  0  0  0  0  0  0  0  0  0  0  0
    3.4987   -2.4134    1.7937 H   0  0  0  0  0  0  0  0  0  0  0  0
    5.1630   -2.3856    1.1422 H   0  0  0  0  0  0  0  0  0  0  0  0
    3.7218   -3.3692   -0.1367 C   0  0  0  0  0  0  0  0  0  0  0  0
    3.7505   -4.3497    0.4020 H   0  0  0  0  0  0  0  0  0  0  0  0
    2.6756   -3.2088   -0.4797 H   0  0  0  0  0  0  0  0  0  0  0  0
  4  3  1  0  0  0  0
  5 31  1  0  0  0  0
  6  5  1  0  0  0  0
  7  9  1  0  0  0  0
  8  9  1  0  0  0  0
  8 28  1  0  0  0  0
  9  1  1  1  0  0  0
 10  7  2  0  0  0  0
 10  2  1  0  0  0  0
 11 10  1  0  0  0  0
 12 13  1  0  0  0  0
 12 11  2  0  0  0  0
 14 12  1  0  0  0  0
 15 14  1  0  0  0  0
 16 14  2  0  0  0  0
 16 18  1  0  0  0  0
 17 16  1  0  0  0  0
 18 20  2  0  0  0  0
 19 18  1  0  0  0  0
 20 11  1  0  0  0  0
 20 21  1  0  0  0  0
 22  8  1  0  0  0  0
 22 25  1  0  0  0  0
 23 22  1  0  0  0  0
 24 22  1  0  0  0  0
 25  3  1  0  0  0  0
 25 26  1  0  0  0  0
 27 25  1  0  0  0  0
 28 30  1  0  0  0  0
 28 29  1  0  0  0  0
 31 32  1  0  0  0  0
 31 28  1  0  0  0  0
 33 31  1  0  0  0  0
M  CHG  1   2  -1
M  END
