1,2
q = -1.0

 19 19  0  0  0  0  0  0  0  0999 V2000
    0.5487   -1.9628    0.1710 S   0  0  1  0  0  3  0  0  0  0  0  0
    0.6673    0.3037   -1.7887 O   0  5  0  0  0  0  0  0  0  0  0  0
    2.3963    0.4504   -3.1837 O   0  0  0  0  0  0  0  0  0  0  0  0
    0.4837   -2.6779    1.5053 O   0  0  0  0  0  1  0  0  0  0  0  0
    2.3050   -1.7979   -0.2880 C   0  0  0  0  0  0  0  0  0  0  0  0
    3.1756   -2.6271    0.4352 C   0  0  0  0  0  0  0  0  0  0  0  0
    2.7561   -3.3158    1.1847 H   0  0  0  0  0  0  0  0  0  0  0  0
    4.5551   -2.5357    0.2056 C   0  0  0  0  0  0  0  0  0  0  0  0
    5.2475   -3.1779    0.7700 H   0  0  0  0  0  0  0  0  0  0  0  0
    5.0416   -1.6238   -0.7458 C   0  0  0  0  0  0  0  0  0  0  0  0
    6.1232   -1.5475   -0.9325 H   0  0  0  0  0  0  0  0  0  0  0  0
    4.1534   -0.8180   -1.4690 C   0  0  0  0  0  0  0  0  0  0  0  0
    4.5061   -0.1222   -2.2444 H   0  0  0  0  0  0  0  0  0  0  0  0
    2.7608   -0.8716   -1.2501 C   0  0  0  0  0  0  0  0  0  0  0  0
    1.9058    0.0259   -2.1429 C   0  0  0  0  0  0  0  0  0  0  0  0
    0.0005   -3.1483   -1.0979 C   0  0  0  0  0  0  0  0  0  0  0  0
    0.6112   -4.0606   -0.9697 H   0  0  0  0  0  0  0  0  0  0  0  0
    0.1507   -2.6957   -2.0955 H   0  0  0  0  0  0  0  0  0  0  0  0
   -1.0686   -3.3572   -0.9082 H   0  0  0  0  0  0  0  0  0  0  0  0
  1  4  1  1  0  0  0
  3 15  2  0  0  0  0
  5  1  1  0  0  0  0
  5  6  1  0  0  0  0
  6  7  1  0  0  0  0
  8  6  2  0  0  0  0
  8  9  1  0  0  0  0
 10  8  1  0  0  0  0
 11 10  1  0  0  0  0
 12 14  1  0  0  0  0
 12 10  2  0  0  0  0
 13 12  1  0  0  0  0
 14  5  2  0  0  0  0
 15  2  1  0  0  0  0
 15 14  1  0  0  0  0
 16 17  1  0  0  0  0
 16 19  1  0  0  0  0
 16  1  1  0  0  0  0
 18 16  1  0  0  0  0
M  CHG  1   2  -1
M  END
