1,4
q = -2.0, confidence = 0.77

 12 12  0  0  0  0  0  0  0  0999 V2000
   -0.3843    2.2354    0.6224 S   0  0  0  0  0  1  0  0  0  0  0  0
    1.3566    2.5110    0.7753 C   0  0  0  0  0  0  0  0  0  0  0  0
    2.1799    1.3671    0.5668 C   0  0  0  0  0  0  0  0  0  0  0  0
    1.6560    0.1949    0.3012 O   0  5  0  0  0  0  0  0  0  0  0  0
    3.5868    1.5615    0.6650 C   0  0  0  0  0  0  0  0  0  0  0  0
    4.3939    0.4970    0.4752 F   0  0  0  0  0  0  0  0  0  0  0  0
    4.1344    2.8102    0.9419 C   0  0  0  0  0  0  0  0  0  0  0  0
    5.2234    2.9355    1.0097 H   0  0  0  0  0  0  0  0  0  0  0  0
    3.2913    3.9197    1.1413 C   0  0  0  0  0  0  0  0  0  0  0  0
    3.8210    5.1265    1.4084 F   0  0  0  0  0  0  0  0  0  0  0  0
    1.9017    3.7766    1.0618 C   0  0  0  0  0  0  0  0  0  0  0  0
    1.0970    4.8350    1.2501 F   0  0  0  0  0  0  0  0  0  0  0  0
  1  2  1  0  0  0  0
  2 11  1  0  0  0  0
  3  5  1  0  0  0  0
  3  2  2  0  0  0  0
  4  3  1  0  0  0  0
  5  7  2  0  0  0  0
  6  5  1  0  0  0  0
  7  8  1  0  0  0  0
  7  9  1  0  0  0  0
  9 10  1  0  0  0  0
 11  9  2  0  0  0  0
 11 12  1  0  0  0  0
M  CHG  1   4  -1
M  END
