1,2
q = -1.0

 14 14  0  0  1  0  0  0  0  0999 V2000
    1.7908    1.4736    1.8083 S   0  0  0  0  0  1  0  0  0  0  0  0
    1.8149    1.5263   -0.8079 O   0  0  0  0  0  1  0  0  0  0  0  0
    2.4713    1.7928    0.2419 C   0  0  2  0  0  3  0  0  0  0  0  0
    3.8650    2.3197    0.1113 C   0  0  0  0  0  0  0  0  0  0  0  0
    4.3776    2.5533   -1.1838 C   0  0  0  0  0  0  0  0  0  0  0  0
    3.7197    2.3561   -2.0426 H   0  0  0  0  0  0  0  0  0  0  0  0
    5.6876    3.0188   -1.3549 C   0  0  0  0  0  0  0  0  0  0  0  0
    6.0790    3.1975   -2.3684 H   0  0  0  0  0  0  0  0  0  0  0  0
    6.5016    3.2581   -0.2346 C   0  0  0  0  0  0  0  0  0  0  0  0
    7.5317    3.6228   -0.3686 H   0  0  0  0  0  0  0  0  0  0  0  0
    5.9975    3.0301    1.0578 C   0  0  0  0  0  0  0  0  0  0  0  0
    6.6330    3.2150    1.9374 H   0  0  0  0  0  0  0  0  0  0  0  0
    4.6883    2.5638    1.2306 C   0  0  0  0  0  0  0  0  0  0  0  0
    4.2793    2.3705    2.2339 H   0  0  0  0  0  0  0  0  0  0  0  0
  3  2  1  6  0  0  0
  3  1  1  0  0  0  0
  4  3  1  0  0  0  0
  4 13  1  0  0  0  0
  5  4  2  0  0  0  0
  6  5  1  0  0  0  0
  7  5  1  0  0  0  0
  7  9  2  0  0  0  0
  8  7  1  0  0  0  0
  9 11  1  0  0  0  0
 10  9  1  0  0  0  0
 11 13  2  0  0  0  0
 11 12  1  0  0  0  0
 13 14  1  0  0  0  0
M  END
