5,7
q = -2.0, confidence = 0.634

  7  6  0  0  0  0  0  0  0  0999 V2000
    2.4218   -0.4412    0.5879 C   0  0  0  0  0  0  0  0  0  0  0  0
    2.2797   -1.4926   -0.5225 C   0  0  0  0  0  0  0  0  0  0  0  0
    3.0417   -1.2752   -1.2987 H   0  0  0  0  0  0  0  0  0  0  0  0
    2.5467   -2.4802   -0.0952 H   0  0  0  0  0  0  0  0  0  0  0  0
    1.3423    0.3028    0.8450 O   0  5  0  0  0  0  0  0  0  0  0  0
    3.4616   -0.2860    1.1983 O   0  0  0  0  0  0  0  0  0  0  0  0
    0.6025   -1.5509   -1.2723 S   0  0  0  0  0  1  0  0  0  0  0  0
  1  5  1  0  0  0  0
  1  6  2  0  0  0  0
  2  4  1  0  0  0  0
  2  1  1  0  0  0  0
  3  2  1  0  0  0  0
  7  2  1  0  0  0  0
M  CHG  1   5  -1
M  END
