1,3
q = -1.0, confidence = 0.0

 31 33  0  0  0  0  0  0  0  0999 V2000
    0.7965   -2.5632    0.0546 S   0  0  0  0  0  1  0  0  0  0  0  0
   -3.6720   -1.8793   -0.1225 O   0  0  0  0  0  0  0  0  0  0  0  0
   -0.6812    0.0522    0.4326 O   0  5  0  0  0  0  0  0  0  0  0  0
   -0.9016   -2.3089    0.0043 C   0  0  0  0  0  0  0  0  0  0  0  0
   -3.2014   -3.1372   -0.2985 C   0  0  0  0  0  0  0  0  0  0  0  0
   -1.4511   -0.9828    0.2076 C   0  0  0  0  0  0  0  0  0  0  0  0
   -3.6092    0.4285    0.2618 C   0  0  0  0  0  0  0  0  0  0  0  0
   -2.8635   -0.8169    0.1266 C   0  0  0  0  0  0  0  0  0  0  0  0
   -1.8101   -3.4063   -0.2380 C   0  0  0  0  0  0  0  0  0  0  0  0
   -1.3978   -4.7539   -0.4328 C   0  0  0  0  0  3  0  0  0  0  0  0
   -0.3209   -4.9722   -0.3900 H   0  0  0  0  0  0  0  0  0  0  0  0
   -5.9523    3.8922    0.6094 O   0  0  0  0  0  0  0  0  0  0  0  0
   -4.1530   -4.1467   -0.5391 C   0  0  0  0  0  0  0  0  0  0  0  0
   -5.2180   -3.8773   -0.5721 H   0  0  0  0  0  0  0  0  0  0  0  0
   -4.9816    0.4735   -0.1216 C   0  0  0  0  0  0  0  0  0  0  0  0
   -5.4563   -0.4297   -0.5270 H   0  0  0  0  0  0  0  0  0  0  0  0
   -5.1431    2.8147    0.5267 C   0  0  0  0  0  0  0  0  0  0  0  0
   -2.3298   -5.7574   -0.6696 C   0  0  0  0  0  0  0  0  0  0  0  0
   -1.9925   -6.7938   -0.8162 H   0  0  0  0  0  0  0  0  0  0  0  0
   -3.0385    1.6164    0.7879 C   0  0  0  0  0  0  0  0  0  0  0  0
   -1.9917    1.5928    1.1098 H   0  0  0  0  0  0  0  0  0  0  0  0
   -3.7878    2.7894    0.9242 C   0  0  0  0  0  0  0  0  0  0  0  0
   -3.3108    3.6811    1.3524 H   0  0  0  0  0  0  0  0  0  0  0  0
   -3.7127   -5.4550   -0.7234 C   0  0  0  0  0  0  0  0  0  0  0  0
   -4.4445   -6.2545   -0.9103 H   0  0  0  0  0  0  0  0  0  0  0  0
   -5.7283    1.6369    0.0009 C   0  0  0  0  0  0  0  0  0  0  0  0
   -6.7844    1.6722   -0.3021 H   0  0  0  0  0  0  0  0  0  0  0  0
   -5.4370    5.1013    1.1460 C   0  0  0  0  0  0  0  0  0  0  0  0
   -5.0992    4.9715    2.1974 H   0  0  0  0  0  0  0  0  0  0  0  0
   -6.2666    5.8307    1.1203 H   0  0  0  0  0  0  0  0  0  0  0  0
   -4.5911    5.4915    0.5381 H   0  0  0  0  0  0  0  0  0  0  0  0
  2  8  1  0  0  0  0
  4  1  1  0  0  0  0
  4  6  1  0  0  0  0
  5  9  1  0  0  0  0
  5  2  1  0  0  0  0
  6  3  1  0  0  0  0
  7 20  1  0  0  0  0
  8  6  2  0  0  0  0
  8  7  1  0  0  0  0
  9  4  2  0  0  0  0
 10 11  1  0  0  0  0
 10  9  1  0  0  0  0
 12 28  1  0  0  0  0
 13  5  2  0  0  0  0
 14 13  1  0  0  0  0
 15 26  1  0  0  0  0
 15  7  2  0  0  0  0
 16 15  1  0  0  0  0
 17 12  1  0  0  0  0
 17 22  1  0  0  0  0
 18 10  1  0  0  0  0
 19 18  1  0  0  0  0
 20 22  2  0  0  0  0
 20 21  1  0  0  0  0
 22 23  1  0  0  0  0
 24 18  2  0  0  0  0
 24 13  1  0  0  0  0
 25 24  1  0  0  0  0
 26 17  2  0  0  0  0
 27 26  1  0  0  0  0
 28 29  1  0  0  0  0
 30 28  1  0  0  0  0
 31 28  1  0  0  0  0
M  CHG  1   3  -1
M  END
