1,3
q = -1.0

 41 41  0  0  0  0  0  0  0  0999 V2000
   -1.4743    1.7853   -0.3923 S   0  0  0  0  0  1  0  0  0  0  0  0
   -2.7152   -1.3112    0.3451 P   0  0  0  0  0  4  0  0  0  0  0  0
   -1.3539   -1.4541   -0.3936 O   0  0  0  0  0  1  0  0  0  0  0  0
   -6.0250    4.2004    0.0033 O   0  0  0  0  0  0  0  0  0  0  0  0
   -3.6497   -2.5725   -0.0721 O   0  0  0  0  0  0  0  0  0  0  0  0
   -2.5910   -1.4874    1.9423 O   0  0  0  0  0  0  0  0  0  0  0  0
   -3.5944    0.0273    0.0787 N   0  0  0  0  0  0  0  0  0  0  0  0
   -4.1044    2.1825   -0.5220 N   0  0  0  0  0  0  0  0  0  0  0  0
   -3.1562    1.2319   -0.2489 C   0  0  0  0  0  0  0  0  0  0  0  0
   -3.8265    3.5733   -0.8605 C   0  0  0  0  0  0  0  0  0  0  0  0
   -4.1040    3.7552   -1.9240 H   0  0  0  0  0  0  0  0  0  0  0  0
   -2.7442    3.7730   -0.7465 H   0  0  0  0  0  0  0  0  0  0  0  0
   -4.6405    4.4974    0.0506 C   0  0  0  0  0  0  0  0  0  0  0  0
   -4.2539    4.4020    1.0961 H   0  0  0  0  0  0  0  0  0  0  0  0
   -4.5228    5.5514   -0.2717 H   0  0  0  0  0  0  0  0  0  0  0  0
   -5.5309    1.8625   -0.4932 C   0  0  0  0  0  0  0  0  0  0  0  0
   -5.6395    0.8256   -0.1253 H   0  0  0  0  0  0  0  0  0  0  0  0
   -5.9376    1.9253   -1.5288 H   0  0  0  0  0  0  0  0  0  0  0  0
   -6.2640    2.8597    0.4043 C   0  0  0  0  0  0  0  0  0  0  0  0
   -7.3587    2.6956    0.3471 H   0  0  0  0  0  0  0  0  0  0  0  0
   -5.9387    2.7054    1.4632 H   0  0  0  0  0  0  0  0  0  0  0  0
   -4.0129   -2.7411   -1.4745 C   0  0  0  0  0  0  0  0  0  0  0  0
   -3.8842   -1.7597   -1.9851 H   0  0  0  0  0  0  0  0  0  0  0  0
   -5.4839   -3.1277   -1.5028 C   0  0  0  0  0  0  0  0  0  0  0  0
   -5.6431   -4.0765   -0.9513 H   0  0  0  0  0  0  0  0  0  0  0  0
   -5.8301   -3.2669   -2.5464 H   0  0  0  0  0  0  0  0  0  0  0  0
   -6.0995   -2.3403   -1.0264 H   0  0  0  0  0  0  0  0  0  0  0  0
   -3.0852   -3.7713   -2.1053 C   0  0  0  0  0  0  0  0  0  0  0  0
   -2.0324   -3.4398   -2.0229 H   0  0  0  0  0  0  0  0  0  0  0  0
   -3.3305   -3.9117   -3.1774 H   0  0  0  0  0  0  0  0  0  0  0  0
   -3.1887   -4.7486   -1.5916 H   0  0  0  0  0  0  0  0  0  0  0  0
   -1.6464   -2.4712    2.4960 C   0  0  0  0  0  0  0  0  0  0  0  0
   -0.9295   -2.7420    1.6918 H   0  0  0  0  0  0  0  0  0  0  0  0
   -2.4399   -3.6931    2.9357 C   0  0  0  0  0  0  0  0  0  0  0  0
   -3.1727   -3.4202    3.7221 H   0  0  0  0  0  0  0  0  0  0  0  0
   -1.7587   -4.4661    3.3447 H   0  0  0  0  0  0  0  0  0  0  0  0
   -2.9911   -4.1251    2.0781 H   0  0  0  0  0  0  0  0  0  0  0  0
   -0.8891   -1.7723    3.6120 C   0  0  0  0  0  0  0  0  0  0  0  0
   -0.3308   -0.9038    3.2116 H   0  0  0  0  0  0  0  0  0  0  0  0
   -0.1571   -2.4695    4.0659 H   0  0  0  0  0  0  0  0  0  0  0  0
   -1.5863   -1.4246    4.4013 H   0  0  0  0  0  0  0  0  0  0  0  0
  1  9  1  0  0  0  0
  2  6  1  0  0  0  0
  3  2  1  0  0  0  0
  4 13  1  0  0  0  0
  4 19  1  0  0  0  0
  5  2  1  0  0  0  0
  6 32  1  0  0  0  0
  7  2  1  0  0  0  0
  8 16  1  0  0  0  0
  8  9  1  0  0  0  0
  9  7  2  0  0  0  0
 10 12  1  0  0  0  0
 10  8  1  0  0  0  0
 10 13  1  0  0  0  0
 11 10  1  0  0  0  0
 13 14  1  0  0  0  0
 15 13  1  0  0  0  0
 16 17  1  0  0  0  0
 16 19  1  0  0  0  0
 18 16  1  0  0  0  0
 19 21  1  0  0  0  0
 20 19  1  0  0  0  0
 22  5  1  0  0  0  0
 23 22  1  0  0  0  0
 24 22  1  0  0  0  0
 24 27  1  0  0  0  0
 24 25  1  0  0  0  0
 26 24  1  0  0  0  0
 28 29  1  0  0  0  0
 28 31  1  0  0  0  0
 28 22  1  0  0  0  0
 30 28  1  0  0  0  0
 32 34  1  0  0  0  0
 32 38  1  0  0  0  0
 33 32  1  0  0  0  0
 34 36  1  0  0  0  0
 34 35  1  0  0  0  0
 37 34  1  0  0  0  0
 38 40  1  0  0  0  0
 38 41  1  0  0  0  0
 39 38  1  0  0  0  0
M  END
