1,3
q = -1.0

 35 37  0  0  0  0  0  0  0  0999 V2000
    1.3167   -2.6660   -0.8528 S   0  0  0  0  0  1  0  0  0  0  0  0
    2.2213    0.2572    0.1564 P   0  0  0  0  0  4  0  0  0  0  0  0
    0.6931    0.0811    0.3877 O   0  0  0  0  0  1  0  0  0  0  0  0
    2.5926    2.0371    0.1065 C   0  0  0  0  0  0  0  0  0  0  0  0
    1.9876    2.7774   -0.9332 C   0  0  0  0  0  0  0  0  0  0  0  0
    1.3378    2.2629   -1.6613 H   0  0  0  0  0  0  0  0  0  0  0  0
    2.2074    4.1578   -1.0134 C   0  0  0  0  0  0  0  0  0  0  0  0
    1.7362    4.7359   -1.8222 H   0  0  0  0  0  0  0  0  0  0  0  0
    3.0097    4.8043   -0.0574 C   0  0  0  0  0  0  0  0  0  0  0  0
    3.1774    5.8903   -0.1242 H   0  0  0  0  0  0  0  0  0  0  0  0
    3.5911    4.0700    0.9879 C   0  0  0  0  0  0  0  0  0  0  0  0
    4.2119    4.5774    1.7418 H   0  0  0  0  0  0  0  0  0  0  0  0
    3.3860    2.6833    1.0725 C   0  0  0  0  0  0  0  0  0  0  0  0
    3.8430    2.1041    1.8889 H   0  0  0  0  0  0  0  0  0  0  0  0
    3.1273   -0.5056    1.5349 C   0  0  0  0  0  0  0  0  0  0  0  0
    2.3813   -1.0589    2.5926 C   0  0  0  0  0  0  0  0  0  0  0  0
    1.2821   -1.0467    2.5376 H   0  0  0  0  0  0  0  0  0  0  0  0
    3.0518   -1.6547    3.6709 C   0  0  0  0  0  0  0  0  0  0  0  0
    2.4712   -2.1002    4.4927 H   0  0  0  0  0  0  0  0  0  0  0  0
    4.4549   -1.6956    3.6947 C   0  0  0  0  0  0  0  0  0  0  0  0
    4.9770   -2.1659    4.5420 H   0  0  0  0  0  0  0  0  0  0  0  0
    5.1968   -1.1506    2.6325 C   0  0  0  0  0  0  0  0  0  0  0  0
    6.2962   -1.1961    2.6457 H   0  0  0  0  0  0  0  0  0  0  0  0
    4.5358   -0.5598    1.5465 C   0  0  0  0  0  0  0  0  0  0  0  0
    5.1131   -0.1535    0.7012 H   0  0  0  0  0  0  0  0  0  0  0  0
    2.9142   -0.4426   -1.3784 C   0  0  0  0  0  0  0  0  0  0  0  0
    3.8951    0.2606   -2.1051 C   0  0  0  0  0  0  0  0  0  0  0  0
    4.1989    1.2678   -1.7833 H   0  0  0  0  0  0  0  0  0  0  0  0
    4.4813   -0.3164   -3.2408 C   0  0  0  0  0  0  0  0  0  0  0  0
    5.2477    0.2374   -3.8029 H   0  0  0  0  0  0  0  0  0  0  0  0
    4.0786   -1.5953   -3.6577 C   0  0  0  0  0  0  0  0  0  0  0  0
    4.5278   -2.0489   -4.5546 H   0  0  0  0  0  0  0  0  0  0  0  0
    3.0945   -2.2963   -2.9473 C   0  0  0  0  0  0  0  0  0  0  0  0
    2.7609   -3.2906   -3.2794 H   0  0  0  0  0  0  0  0  0  0  0  0
    2.5026   -1.7337   -1.8009 C   0  0  0  0  0  0  0  0  0  0  0  0
  2  3  1  0  0  0  0
  2 15  1  0  0  0  0
  4  2  1  0  0  0  0
  4 13  1  0  0  0  0
  5  4  2  0  0  0  0
  6  5  1  0  0  0  0
  7  5  1  0  0  0  0
  7  9  2  0  0  0  0
  8  7  1  0  0  0  0
  9 11  1  0  0  0  0
 10  9  1  0  0  0  0
 11 13  2  0  0  0  0
 11 12  1  0  0  0  0
 13 14  1  0  0  0  0
 15 24  2  0  0  0  0
 15 16  1  0  0  0  0
 16 18  2  0  0  0  0
 17 16  1  0  0  0  0
 18 20  1  0  0  0  0
 18 19  1  0  0  0  0
 20 21  1  0  0  0  0
 22 23  1  0  0  0  0
 22 20  2  0  0  0  0
 24 22  1  0  0  0  0
 25 24  1  0  0  0  0
 26  2  1  0  0  0  0
 27 28  1  0  0  0  0
 27 26  2  0  0  0  0
 29 27  1  0  0  0  0
 30 29  1  0  0  0  0
 31 29  2  0  0  0  0
 31 33  1  0  0  0  0
 32 31  1  0  0  0  0
 33 35  2  0  0  0  0
 34 33  1  0  0  0  0
 35 26  1  0  0  0  0
 35  1  1  0  0  0  0
M  END
