1,4
q = -1.0, confidence = 0.016

 35 36  0  0  0  0  0  0  0  0999 V2000
    1.7188    3.0669   -0.3901 S   0  0  0  0  0  1  0  0  0  0  0  0
    2.5225   -0.4400    0.1952 P   0  0  0  0  0  4  0  0  0  0  0  0
    2.9562    2.2932    1.0883 P   0  0  0  0  0  4  0  0  0  0  0  0
    1.4342    0.0205   -0.8429 O   0  0  0  0  0  1  0  0  0  0  0  0
    3.1825    0.6868    1.1628 N   0  0  0  0  0  2  0  0  0  0  0  0
    1.8223   -1.7372    1.2718 C   0  0  0  0  0  0  0  0  0  0  0  0
    1.6390   -3.0447    0.7791 C   0  0  0  0  0  0  0  0  0  0  0  0
    0.9973   -4.0087    1.5707 C   0  0  0  0  0  0  0  0  0  0  0  0
    0.5292   -3.6683    2.8513 C   0  0  0  0  0  0  0  0  0  0  0  0
    0.7057   -2.3640    3.3403 C   0  0  0  0  0  0  0  0  0  0  0  0
    1.3555   -1.4013    2.5554 C   0  0  0  0  0  0  0  0  0  0  0  0
    3.8240   -1.2516   -0.7908 C   0  0  0  0  0  0  0  0  0  0  0  0
    3.6119   -1.5139   -2.1577 C   0  0  0  0  0  0  0  0  0  0  0  0
    4.6177   -2.1382   -2.9123 C   0  0  0  0  0  0  0  0  0  0  0  0
    5.8318   -2.4980   -2.3060 C   0  0  0  0  0  0  0  0  0  0  0  0
    6.0465   -2.2284   -0.9432 C   0  0  0  0  0  0  0  0  0  0  0  0
    5.0462   -1.6044   -0.1850 C   0  0  0  0  0  0  0  0  0  0  0  0
    4.5728    3.1142    0.8558 C   0  0  0  0  0  0  0  0  0  0  0  0
    2.3441    2.8467    2.7193 C   0  0  0  0  0  0  0  0  0  0  0  0
    2.0047   -3.3098   -0.2254 H   0  0  0  0  0  0  0  0  0  0  0  0
    0.8612   -5.0313    1.1862 H   0  0  0  0  0  0  0  0  0  0  0  0
    0.0212   -4.4235    3.4705 H   0  0  0  0  0  0  0  0  0  0  0  0
    0.3319   -2.0949    4.3397 H   0  0  0  0  0  0  0  0  0  0  0  0
    1.5050   -0.3757    2.9240 H   0  0  0  0  0  0  0  0  0  0  0  0
    2.6590   -1.2091   -2.6162 H   0  0  0  0  0  0  0  0  0  0  0  0
    4.4541   -2.3414   -3.9818 H   0  0  0  0  0  0  0  0  0  0  0  0
    6.6191   -2.9876   -2.8995 H   0  0  0  0  0  0  0  0  0  0  0  0
    7.0020   -2.5039   -0.4710 H   0  0  0  0  0  0  0  0  0  0  0  0
    5.2086   -1.3768    0.8800 H   0  0  0  0  0  0  0  0  0  0  0  0
    4.4616    4.2149    0.8912 H   0  0  0  0  0  0  0  0  0  0  0  0
    5.2637    2.7728    1.6514 H   0  0  0  0  0  0  0  0  0  0  0  0
    4.9718    2.8097   -0.1303 H   0  0  0  0  0  0  0  0  0  0  0  0
    1.3180    2.4476    2.8412 H   0  0  0  0  0  0  0  0  0  0  0  0
    3.0006    2.4407    3.5143 H   0  0  0  0  0  0  0  0  0  0  0  0
    2.3118    3.9520    2.7641 H   0  0  0  0  0  0  0  0  0  0  0  0
  1  3  1  0  0  0  0
  2  5  1  0  0  0  0
  2  6  1  0  0  0  0
  3  5  1  0  0  0  0
  3 19  1  0  0  0  0
  4  2  1  0  0  0  0
  6 11  1  0  0  0  0
  7  6  2  0  0  0  0
  7  8  1  0  0  0  0
  8  9  2  0  0  0  0
  9 10  1  0  0  0  0
  9 22  1  0  0  0  0
 10 23  1  0  0  0  0
 11 24  1  0  0  0  0
 11 10  2  0  0  0  0
 12 17  1  0  0  0  0
 12  2  1  0  0  0  0
 13 12  2  0  0  0  0
 14 15  2  0  0  0  0
 14 13  1  0  0  0  0
 15 16  1  0  0  0  0
 16 28  1  0  0  0  0
 16 17  2  0  0  0  0
 17 29  1  0  0  0  0
 18 30  1  0  0  0  0
 18  3  1  0  0  0  0
 18 31  1  0  0  0  0
 19 35  1  0  0  0  0
 19 33  1  0  0  0  0
 19 34  1  0  0  0  0
 20  7  1  0  0  0  0
 21  8  1  0  0  0  0
 25 13  1  0  0  0  0
 26 14  1  0  0  0  0
 27 15  1  0  0  0  0
 32 18  1  0  0  0  0
M  END
