2,5
q = -1.0, confidence = 0.0

 35 36  0  0  0  0  0  0  0  0999 V2000
    3.5850   -1.0768   -1.0612 N   0  0  0  0  0  2  0  0  0  0  0  0
    1.2280   -2.3595   -1.5816 O   0  0  0  0  0  1  0  0  0  0  0  0
    2.7501   -2.4806   -1.2752 P   0  0  0  0  0  4  0  0  0  0  0  0
    3.0969    0.1572   -0.1462 P   0  0  0  0  0  4  0  0  0  0  0  0
    1.7962   -0.2150    1.4469 S   0  0  0  0  0  1  0  0  0  0  0  0
    3.5764   -3.2954   -2.6771 C   0  0  0  0  0  0  0  0  0  0  0  0
    3.1019   -4.2773   -2.8669 H   0  0  0  0  0  0  0  0  0  0  0  0
    4.6554   -3.4258   -2.4682 H   0  0  0  0  0  0  0  0  0  0  0  0
    3.4532   -2.6518   -3.5690 H   0  0  0  0  0  0  0  0  0  0  0  0
    3.0063   -3.5532    0.1821 C   0  0  0  0  0  0  0  0  0  0  0  0
    2.5955   -3.0154    1.0600 H   0  0  0  0  0  0  0  0  0  0  0  0
    4.0858   -3.7368    0.3455 H   0  0  0  0  0  0  0  0  0  0  0  0
    2.4667   -4.5109    0.0501 H   0  0  0  0  0  0  0  0  0  0  0  0
    4.5652    0.9391    0.6044 C   0  0  0  0  0  0  0  0  0  0  0  0
    4.4618    1.7751    1.7340 C   0  0  0  0  0  0  0  0  0  0  0  0
    3.4793    1.9346    2.2055 H   0  0  0  0  0  0  0  0  0  0  0  0
    5.6145    2.3750    2.2627 C   0  0  0  0  0  0  0  0  0  0  0  0
    5.5357    3.0243    3.1478 H   0  0  0  0  0  0  0  0  0  0  0  0
    6.8663    2.1389    1.6711 C   0  0  0  0  0  0  0  0  0  0  0  0
    7.7693    2.6086    2.0902 H   0  0  0  0  0  0  0  0  0  0  0  0
    6.9687    1.2955    0.5526 C   0  0  0  0  0  0  0  0  0  0  0  0
    7.9514    1.1015    0.0963 H   0  0  0  0  0  0  0  0  0  0  0  0
    5.8211    0.6924    0.0175 C   0  0  0  0  0  0  0  0  0  0  0  0
    5.8765    0.0143   -0.8476 H   0  0  0  0  0  0  0  0  0  0  0  0
    2.2960    1.4387   -1.1944 C   0  0  0  0  0  0  0  0  0  0  0  0
    2.3708    2.8112   -0.8878 C   0  0  0  0  0  0  0  0  0  0  0  0
    2.9821    3.1555   -0.0403 H   0  0  0  0  0  0  0  0  0  0  0  0
    1.6669    3.7412   -1.6673 C   0  0  0  0  0  0  0  0  0  0  0  0
    1.7352    4.8145   -1.4314 H   0  0  0  0  0  0  0  0  0  0  0  0
    0.8755    3.3058   -2.7440 C   0  0  0  0  0  0  0  0  0  0  0  0
    0.3162    4.0373   -3.3470 H   0  0  0  0  0  0  0  0  0  0  0  0
    0.8083    1.9383   -3.0553 C   0  0  0  0  0  0  0  0  0  0  0  0
    0.1885    1.5900   -3.8948 H   0  0  0  0  0  0  0  0  0  0  0  0
    1.5282    1.0052   -2.2942 C   0  0  0  0  0  0  0  0  0  0  0  0
    1.4813   -0.0690   -2.5359 H   0  0  0  0  0  0  0  0  0  0  0  0
  1  4  1  0  0  0  0
  2  3  1  0  0  0  0
  3  1  1  0  0  0  0
  3 10  1  0  0  0  0
  4 14  1  0  0  0  0
  4  5  1  0  0  0  0
  6  8  1  0  0  0  0
  6  3  1  0  0  0  0
  7  6  1  0  0  0  0
  9  6  1  0  0  0  0
 10 12  1  0  0  0  0
 10 11  1  0  0  0  0
 13 10  1  0  0  0  0
 14 15  1  0  0  0  0
 15 16  1  0  0  0  0
 15 17  2  0  0  0  0
 17 18  1  0  0  0  0
 19 20  1  0  0  0  0
 19 17  1  0  0  0  0
 21 19  2  0  0  0  0
 22 21  1  0  0  0  0
 23 21  1  0  0  0  0
 23 14  2  0  0  0  0
 24 23  1  0  0  0  0
 25 26  1  0  0  0  0
 25  4  1  0  0  0  0
 26 27  1  0  0  0  0
 28 29  1  0  0  0  0
 28 26  2  0  0  0  0
 30 28  1  0  0  0  0
 31 30  1  0  0  0  0
 32 30  2  0  0  0  0
 32 34  1  0  0  0  0
 33 32  1  0  0  0  0
 34 25  2  0  0  0  0
 35 34  1  0  0  0  0
M  END
