2,3
q = -1.0, confidence = 0.002

 37 37  0  0  1  0  0  0  0  0999 V2000
    5.4448    1.4340   -1.8169 Cl  0  0  0  0  0  0  0  0  0  0  0  0
    1.5722   -1.9724   -0.1726 S   0  0  0  0  0  1  0  0  0  0  0  0
    1.3652    1.1930   -0.1847 O   0  5  0  0  0  0  0  0  0  0  0  0
    3.4424    0.0961    0.0117 N   0  0  0  0  0  0  0  0  0  0  0  0
    4.1471   -2.0231    0.4790 N   0  0  0  0  0  0  0  0  0  0  0  0
    4.5482    2.7011   -1.0106 C   0  0  0  0  0  0  0  0  0  0  0  0
    5.0946    3.9943   -1.0861 C   0  0  0  0  0  0  0  0  0  0  0  0
    6.0560    4.1317   -1.6007 H   0  0  0  0  0  0  0  0  0  0  0  0
    4.4147    5.0819   -0.5243 C   0  0  0  0  0  0  0  0  0  0  0  0
    4.8572    6.0877   -0.5845 H   0  0  0  0  0  0  0  0  0  0  0  0
    3.1720    4.8832    0.0975 C   0  0  0  0  0  0  0  0  0  0  0  0
    2.6246    5.7319    0.5335 H   0  0  0  0  0  0  0  0  0  0  0  0
    2.6291    3.5964    0.1589 C   0  0  0  0  0  0  0  0  0  0  0  0
    1.6517    3.4169    0.6296 H   0  0  0  0  0  0  0  0  0  0  0  0
    3.3062    2.4735   -0.3704 C   0  0  0  0  0  0  0  0  0  0  0  0
    2.6409    1.1340   -0.1984 C   0  0  0  0  0  0  0  0  0  0  0  0
    3.1164   -1.1965    0.1330 C   0  0  2  0  0  3  0  0  0  0  0  0
    5.5098   -1.4875    0.5776 C   0  0  0  0  0  0  0  0  0  0  0  0
    5.6296   -0.7139   -0.2032 H   0  0  0  0  0  0  0  0  0  0  0  0
    6.2085   -2.3202    0.3499 H   0  0  0  0  0  0  0  0  0  0  0  0
    5.8296   -0.8752    1.9447 C   0  0  0  0  0  0  0  0  0  0  0  0
    5.0807   -0.0801    2.1394 H   0  0  0  0  0  0  0  0  0  0  0  0
    5.7016   -1.6414    2.7407 H   0  0  0  0  0  0  0  0  0  0  0  0
    7.2406   -0.2896    1.9846 C   0  0  0  0  0  0  0  0  0  0  0  0
    7.4635    0.1672    2.9691 H   0  0  0  0  0  0  0  0  0  0  0  0
    7.3613    0.4982    1.2121 H   0  0  0  0  0  0  0  0  0  0  0  0
    8.0127   -1.0645    1.7931 H   0  0  0  0  0  0  0  0  0  0  0  0
    3.9651   -3.4451    0.7492 C   0  0  0  0  0  0  0  0  0  0  0  0
    2.9556   -3.5882    1.1889 H   0  0  0  0  0  0  0  0  0  0  0  0
    4.7079   -3.7353    1.5229 H   0  0  0  0  0  0  0  0  0  0  0  0
    4.1188   -4.3343   -0.4921 C   0  0  0  0  0  0  0  0  0  0  0  0
    3.3778   -4.0035   -1.2501 H   0  0  0  0  0  0  0  0  0  0  0  0
    5.1234   -4.1677   -0.9382 H   0  0  0  0  0  0  0  0  0  0  0  0
    3.9200   -5.8137   -0.1675 C   0  0  0  0  0  0  0  0  0  0  0  0
    4.0369   -6.4450   -1.0704 H   0  0  0  0  0  0  0  0  0  0  0  0
    2.9059   -6.0013    0.2424 H   0  0  0  0  0  0  0  0  0  0  0  0
    4.6540   -6.1688    0.5863 H   0  0  0  0  0  0  0  0  0  0  0  0
  1  6  1  0  0  0  0
  4 17  1  0  0  0  0
  5 18  1  0  0  0  0
  5 28  1  0  0  0  0
  6 15  1  0  0  0  0
  7  6  2  0  0  0  0
  7  9  1  0  0  0  0
  8  7  1  0  0  0  0
  9 11  2  0  0  0  0
 10  9  1  0  0  0  0
 11 13  1  0  0  0  0
 11 12  1  0  0  0  0
 13 14  1  0  0  0  0
 15 16  1  0  0  0  0
 15 13  2  0  0  0  0
 16  3  1  0  0  0  0
 16  4  2  0  0  0  0
 17  2  1  6  0  0  0
 17  5  1  0  0  0  0
 18 21  1  0  0  0  0
 19 18  1  0  0  0  0
 20 18  1  0  0  0  0
 21 24  1  0  0  0  0
 21 22  1  0  0  0  0
 21 23  1  0  0  0  0
 24 25  1  0  0  0  0
 26 24  1  0  0  0  0
 27 24  1  0  0  0  0
 28 29  1  0  0  0  0
 28 30  1  0  0  0  0
 31 34  1  0  0  0  0
 31 28  1  0  0  0  0
 32 31  1  0  0  0  0
 33 31  1  0  0  0  0
 34 36  1  0  0  0  0
 34 37  1  0  0  0  0
 35 34  1  0  0  0  0
M  CHG  1   3  -1
M  END
