1,4
q = -1.0, confidence = 0.058

 32 33  0  0  0  0  0  0  0  0999 V2000
   -0.7789   -1.0393    0.4294 S   0  0  1  0  0  3  0  0  0  0  0  0
   -7.3896   -3.0186    0.1078 Cl  0  0  0  0  0  0  0  0  0  0  0  0
   -1.6999    5.8001    0.8823 Cl  0  0  0  0  0  0  0  0  0  0  0  0
    1.0178   -1.7702   -1.7208 O   0  5  0  0  0  0  0  0  0  0  0  0
   -1.2356   -1.2185    1.8689 O   0  0  0  0  0  1  0  0  0  0  0  0
   -5.8849   -2.1706   -0.0654 C   0  0  0  0  0  0  0  0  0  0  0  0
   -2.3523    2.3485   -1.0774 C   0  0  0  0  0  0  0  0  0  0  0  0
   -2.6010    2.0365   -2.1033 H   0  0  0  0  0  0  0  0  0  0  0  0
   -2.0910    1.3713   -0.0950 C   0  0  0  0  0  0  0  0  0  0  0  0
   -3.4538   -0.7877   -0.3439 C   0  0  0  0  0  0  0  0  0  0  0  0
   -1.8197    1.7909    1.2239 C   0  0  0  0  0  0  0  0  0  0  0  0
   -1.6409    1.0431    2.0105 H   0  0  0  0  0  0  0  0  0  0  0  0
   -4.2316   -0.6362    0.8227 C   0  0  0  0  0  0  0  0  0  0  0  0
   -3.8926    0.0300    1.6279 H   0  0  0  0  0  0  0  0  0  0  0  0
   -0.1318   -2.4082   -1.8226 C   0  0  0  0  0  0  0  0  0  0  0  0
   -0.6363   -2.7812   -2.8717 O   0  0  0  0  0  0  0  0  0  0  0  0
   -1.7399    3.1547    1.5373 C   0  0  0  0  0  0  0  0  0  0  0  0
   -1.5035    3.4808    2.5594 H   0  0  0  0  0  0  0  0  0  0  0  0
   -0.8561   -2.6240   -0.4733 C   0  0  0  0  0  0  0  0  0  0  0  0
   -0.2956   -3.3305    0.1701 H   0  0  0  0  0  0  0  0  0  0  0  0
   -1.9039   -2.9576   -0.5799 H   0  0  0  0  0  0  0  0  0  0  0  0
   -5.1236   -2.3360   -1.2360 C   0  0  0  0  0  0  0  0  0  0  0  0
   -5.4836   -3.0003   -2.0337 H   0  0  0  0  0  0  0  0  0  0  0  0
   -1.9360    4.1088    0.5281 C   0  0  0  0  0  0  0  0  0  0  0  0
   -5.4411   -1.3234    0.9664 C   0  0  0  0  0  0  0  0  0  0  0  0
   -6.0508   -1.2068    1.8730 H   0  0  0  0  0  0  0  0  0  0  0  0
   -2.1383   -0.0821   -0.5049 C   0  0  0  0  0  0  0  0  0  0  0  0
   -1.7902   -0.1804   -1.5540 H   0  0  0  0  0  0  0  0  0  0  0  0
   -3.9121   -1.6477   -1.3669 C   0  0  0  0  0  0  0  0  0  0  0  0
   -3.3041   -1.7935   -2.2749 H   0  0  0  0  0  0  0  0  0  0  0  0
   -2.2782    3.7128   -0.7762 C   0  0  0  0  0  0  0  0  0  0  0  0
   -2.4601    4.4727   -1.5489 H   0  0  0  0  0  0  0  0  0  0  0  0
  1  5  1  1  0  0  0
  6  2  1  0  0  0  0
  6 25  1  0  0  0  0
  7 31  2  0  0  0  0
  7  9  1  0  0  0  0
  8  7  1  0  0  0  0
  9 11  2  0  0  0  0
 10 13  1  0  0  0  0
 11 17  1  0  0  0  0
 11 12  1  0  0  0  0
 13 25  2  0  0  0  0
 13 14  1  0  0  0  0
 15  4  1  0  0  0  0
 15 19  1  0  0  0  0
 16 15  2  0  0  0  0
 17 18  1  0  0  0  0
 19 20  1  0  0  0  0
 19  1  1  0  0  0  0
 21 19  1  0  0  0  0
 22  6  2  0  0  0  0
 23 22  1  0  0  0  0
 24  3  1  0  0  0  0
 24 17  2  0  0  0  0
 25 26  1  0  0  0  0
 27 10  1  0  0  0  0
 27  9  1  0  0  0  0
 27  1  1  0  0  0  0
 28 27  1  0  0  0  0
 29 22  1  0  0  0  0
 29 10  2  0  0  0  0
 30 29  1  0  0  0  0
 31 24  1  0  0  0  0
 32 31  1  0  0  0  0
M  CHG  1   4  -1
M  END
