2,4
q = -1.0

 33 34  0  0  1  0  0  0  0  0999 V2000
   -0.8703    3.0735   -1.6615 Cl  0  0  0  0  0  0  0  0  0  0  0  0
   -1.4783   -2.2673   -0.2113 S   0  0  0  0  0  1  0  0  0  0  0  0
   -6.1607   -3.3828    0.0813 O   0  0  0  0  0  0  0  0  0  0  0  0
   -1.2339    0.6872   -0.1250 O   0  5  0  0  0  0  0  0  0  0  0  0
   -4.0820   -2.4311    0.0975 N   0  0  0  0  0  0  0  0  0  0  0  0
   -3.3909   -0.2420   -0.0362 N   0  0  0  0  0  0  0  0  0  0  0  0
   -3.0608   -1.5383   -0.0246 C   0  0  2  0  0  3  0  0  0  0  0  0
   -5.5471   -2.0929    0.1456 C   0  0  0  0  0  0  0  0  0  0  0  0
   -5.2730   -4.3264    0.6555 C   0  0  0  0  0  0  0  0  0  0  0  0
   -3.8952   -3.8748    0.1694 C   0  0  0  0  0  0  0  0  0  0  0  0
   -5.8936   -1.3975    1.4669 C   0  0  0  0  0  0  0  0  0  0  0  0
   -6.0196   -1.3186   -1.0796 C   0  0  0  0  0  0  0  0  0  0  0  0
   -2.5020    0.7549   -0.1420 C   0  0  0  0  0  0  0  0  0  0  0  0
   -3.0793    2.1351   -0.2485 C   0  0  0  0  0  0  0  0  0  0  0  0
   -2.4069    3.2285   -0.8569 C   0  0  0  0  0  0  0  0  0  0  0  0
   -3.0002    4.5042   -0.8819 C   0  0  0  0  0  0  0  0  0  0  0  0
   -4.2576    4.7169   -0.3051 C   0  0  0  0  0  0  0  0  0  0  0  0
   -4.9442    3.6462    0.2893 C   0  0  0  0  0  0  0  0  0  0  0  0
   -4.3579    2.3777    0.3037 C   0  0  0  0  0  0  0  0  0  0  0  0
   -5.5571   -5.3354    0.3001 H   0  0  0  0  0  0  0  0  0  0  0  0
   -5.3205   -4.3185    1.7713 H   0  0  0  0  0  0  0  0  0  0  0  0
   -3.0657   -4.1295    0.8608 H   0  0  0  0  0  0  0  0  0  0  0  0
   -3.6410   -4.2934   -0.8303 H   0  0  0  0  0  0  0  0  0  0  0  0
   -5.3419   -0.4431    1.5464 H   0  0  0  0  0  0  0  0  0  0  0  0
   -6.9826   -1.2013    1.5057 H   0  0  0  0  0  0  0  0  0  0  0  0
   -5.6159   -2.0327    2.3303 H   0  0  0  0  0  0  0  0  0  0  0  0
   -5.5800   -0.3060   -1.0912 H   0  0  0  0  0  0  0  0  0  0  0  0
   -5.7238   -1.8596   -1.9984 H   0  0  0  0  0  0  0  0  0  0  0  0
   -7.1244   -1.2513   -1.0508 H   0  0  0  0  0  0  0  0  0  0  0  0
   -2.4551    5.3247   -1.3691 H   0  0  0  0  0  0  0  0  0  0  0  0
   -4.7022    5.7233   -0.3286 H   0  0  0  0  0  0  0  0  0  0  0  0
   -5.9352    3.7998    0.7412 H   0  0  0  0  0  0  0  0  0  0  0  0
   -4.8769    1.5247    0.7615 H   0  0  0  0  0  0  0  0  0  0  0  0
  1 15  1  0  0  0  0
  3  8  1  0  0  0  0
  3  9  1  0  0  0  0
  5  8  1  0  0  0  0
  5 10  1  0  0  0  0
  6  7  1  0  0  0  0
  7  2  1  6  0  0  0
  7  5  1  0  0  0  0
  8 11  1  0  0  0  0
  9 21  1  0  0  0  0
 10  9  1  0  0  0  0
 10 22  1  0  0  0  0
 11 25  1  0  0  0  0
 11 24  1  0  0  0  0
 11 26  1  0  0  0  0
 12 29  1  0  0  0  0
 12  8  1  0  0  0  0
 13  4  1  0  0  0  0
 13  6  2  0  0  0  0
 14 13  1  0  0  0  0
 14 19  1  0  0  0  0
 15 14  2  0  0  0  0
 16 15  1  0  0  0  0
 16 17  2  0  0  0  0
 17 18  1  0  0  0  0
 18 19  2  0  0  0  0
 18 32  1  0  0  0  0
 19 33  1  0  0  0  0
 20  9  1  0  0  0  0
 23 10  1  0  0  0  0
 27 12  1  0  0  0  0
 28 12  1  0  0  0  0
 30 16  1  0  0  0  0
 31 17  1  0  0  0  0
M  CHG  1   4  -1
M  END
