1,2
q = -1.0

 37 37  0  0  1  0  0  0  0  0999 V2000
    0.1150    1.6255   -0.2399 S   0  0  0  0  0  1  0  0  0  0  0  0
    1.0649   -1.4292    0.0184 O   0  5  0  0  0  0  0  0  0  0  0  0
    2.2255   -0.9287   -0.1856 C   0  0  0  0  0  0  0  0  0  0  0  0
    3.3202   -1.9101   -0.4778 C   0  0  0  0  0  0  0  0  0  0  0  0
    2.9997   -3.2452   -0.8021 C   0  0  0  0  0  0  0  0  0  0  0  0
    1.9411   -3.5374   -0.8478 H   0  0  0  0  0  0  0  0  0  0  0  0
    4.0131   -4.1718   -1.0788 C   0  0  0  0  0  0  0  0  0  0  0  0
    3.7516   -5.2088   -1.3390 H   0  0  0  0  0  0  0  0  0  0  0  0
    5.3607   -3.7780   -1.0292 C   0  0  0  0  0  0  0  0  0  0  0  0
    6.1571   -4.5070   -1.2441 H   0  0  0  0  0  0  0  0  0  0  0  0
    5.6887   -2.4503   -0.7071 C   0  0  0  0  0  0  0  0  0  0  0  0
    6.7434   -2.1380   -0.6654 H   0  0  0  0  0  0  0  0  0  0  0  0
    4.6758   -1.5214   -0.4377 C   0  0  0  0  0  0  0  0  0  0  0  0
    4.9129   -0.4792   -0.1828 H   0  0  0  0  0  0  0  0  0  0  0  0
    2.5968    0.3507   -0.1326 N   0  0  0  0  0  0  0  0  0  0  0  0
    1.8506    1.4523   -0.0236 C   0  0  1  0  0  3  0  0  0  0  0  0
    2.5402    2.6097    0.2164 N   0  0  0  0  0  0  0  0  0  0  0  0
    4.0037    2.5920    0.2657 C   0  0  0  0  0  0  0  0  0  0  0  0
    4.3573    3.6028   -0.0280 H   0  0  0  0  0  0  0  0  0  0  0  0
    4.3636    1.8739   -0.4969 H   0  0  0  0  0  0  0  0  0  0  0  0
    4.5638    2.2086    1.6397 C   0  0  0  0  0  0  0  0  0  0  0  0
    4.1756    2.9151    2.4053 H   0  0  0  0  0  0  0  0  0  0  0  0
    4.1652    1.2066    1.9023 H   0  0  0  0  0  0  0  0  0  0  0  0
    6.0916    2.1938    1.6578 C   0  0  0  0  0  0  0  0  0  0  0  0
    6.4956    1.4627    0.9262 H   0  0  0  0  0  0  0  0  0  0  0  0
    6.4823    1.9144    2.6562 H   0  0  0  0  0  0  0  0  0  0  0  0
    6.5148    3.1871    1.3991 H   0  0  0  0  0  0  0  0  0  0  0  0
    1.8786    3.8946    0.4220 C   0  0  0  0  0  0  0  0  0  0  0  0
    2.5049    4.4847    1.1247 H   0  0  0  0  0  0  0  0  0  0  0  0
    0.9077    3.7079    0.9270 H   0  0  0  0  0  0  0  0  0  0  0  0
    1.6451    4.6849   -0.8723 C   0  0  0  0  0  0  0  0  0  0  0  0
    2.6218    4.8625   -1.3732 H   0  0  0  0  0  0  0  0  0  0  0  0
    1.0469    4.0529   -1.5619 H   0  0  0  0  0  0  0  0  0  0  0  0
    0.9301    6.0101   -0.6151 C   0  0  0  0  0  0  0  0  0  0  0  0
   -0.0665    5.8448   -0.1552 H   0  0  0  0  0  0  0  0  0  0  0  0
    0.7734    6.5743   -1.5555 H   0  0  0  0  0  0  0  0  0  0  0  0
    1.5094    6.6610    0.0730 H   0  0  0  0  0  0  0  0  0  0  0  0
  3 15  2  0  0  0  0
  3  2  1  0  0  0  0
  4 13  1  0  0  0  0
  4  3  1  0  0  0  0
  5  4  2  0  0  0  0
  6  5  1  0  0  0  0
  7  9  2  0  0  0  0
  7  5  1  0  0  0  0
  8  7  1  0  0  0  0
  9 11  1  0  0  0  0
 10  9  1  0  0  0  0
 11 12  1  0  0  0  0
 11 13  2  0  0  0  0
 13 14  1  0  0  0  0
 15 16  1  0  0  0  0
 16  1  1  6  0  0  0
 16 17  1  0  0  0  0
 17 18  1  0  0  0  0
 17 28  1  0  0  0  0
 18 21  1  0  0  0  0
 19 18  1  0  0  0  0
 20 18  1  0  0  0  0
 21 24  1  0  0  0  0
 21 23  1  0  0  0  0
 21 22  1  0  0  0  0
 24 26  1  0  0  0  0
 25 24  1  0  0  0  0
 27 24  1  0  0  0  0
 28 30  1  0  0  0  0
 28 29  1  0  0  0  0
 31 34  1  0  0  0  0
 31 28  1  0  0  0  0
 32 31  1  0  0  0  0
 33 31  1  0  0  0  0
 34 35  1  0  0  0  0
 34 37  1  0  0  0  0
 36 34  1  0  0  0  0
M  CHG  1   2  -1
M  END
