1,3
q = -1.0, confidence = 0.0

 22 22  0  0  1  0  0  0  0  0999 V2000
   -1.5777   -2.3656   -0.0191 S   0  0  0  0  0  1  0  0  0  0  0  0
   -4.5369   -2.6863    0.0602 S   0  0  0  0  0  0  0  0  0  0  0  0
   -1.3184    0.8448   -0.0171 O   0  0  0  0  0  1  0  0  0  0  0  0
   -2.3443    3.3231    0.3687 C   0  0  0  0  0  0  0  0  0  0  0  0
   -1.2973    3.1058    0.6239 H   0  0  0  0  0  0  0  0  0  0  0  0
   -2.8385    4.6323    0.3938 C   0  0  0  0  0  0  0  0  0  0  0  0
   -2.1727    5.4615    0.6779 H   0  0  0  0  0  0  0  0  0  0  0  0
   -4.1785    4.8887    0.0590 C   0  0  0  0  0  0  0  0  0  0  0  0
   -4.5668    5.9185    0.0760 H   0  0  0  0  0  0  0  0  0  0  0  0
   -5.0200    3.8246   -0.3032 C   0  0  0  0  0  0  0  0  0  0  0  0
   -6.0673    4.0184   -0.5801 H   0  0  0  0  0  0  0  0  0  0  0  0
   -4.5299    2.5121   -0.3221 C   0  0  0  0  0  0  0  0  0  0  0  0
   -5.1978    1.6959   -0.6330 H   0  0  0  0  0  0  0  0  0  0  0  0
   -3.1861    2.2424    0.0189 C   0  0  0  0  0  0  0  0  0  0  0  0
   -2.6029    0.8643    0.0071 C   0  0  2  0  0  3  0  0  0  0  0  0
   -3.4608   -0.2602    0.0438 C   0  0  0  0  0  0  0  0  0  0  0  0
   -4.5368   -0.0438    0.1140 H   0  0  0  0  0  0  0  0  0  0  0  0
   -3.1225   -1.6241    0.0282 C   0  0  0  0  0  0  0  0  0  0  0  0
   -3.8469   -4.3621    0.0739 C   0  0  0  0  0  0  0  0  0  0  0  0
   -4.7247   -5.0354    0.1095 H   0  0  0  0  0  0  0  0  0  0  0  0
   -3.2116   -4.5245    0.9661 H   0  0  0  0  0  0  0  0  0  0  0  0
   -3.2591   -4.5601   -0.8431 H   0  0  0  0  0  0  0  0  0  0  0  0
  1 18  1  0  0  0  0
  2 19  1  0  0  0  0
  4  6  1  0  0  0  0
  4  5  1  0  0  0  0
  6  7  1  0  0  0  0
  8  9  1  0  0  0  0
  8  6  2  0  0  0  0
 10  8  1  0  0  0  0
 11 10  1  0  0  0  0
 12 10  2  0  0  0  0
 12 14  1  0  0  0  0
 13 12  1  0  0  0  0
 14  4  2  0  0  0  0
 15  3  1  1  0  0  0
 15 14  1  0  0  0  0
 15 16  1  0  0  0  0
 16 17  1  0  0  0  0
 18 16  2  0  0  0  0
 18  2  1  0  0  0  0
 19 20  1  0  0  0  0
 19 21  1  0  0  0  0
 22 19  1  0  0  0  0
M  END
