1,3
q = -1.0, confidence = 0.0

 26 26  0  0  1  0  0  0  0  0999 V2000
    3.1724    1.5698   -0.0657 S   0  0  0  0  0  1  0  0  0  0  0  0
    3.5158    4.5302   -0.0297 S   0  0  0  0  0  0  0  0  0  0  0  0
   -0.0277    1.3389   -0.0432 O   0  0  0  0  0  1  0  0  0  0  0  0
   -5.3018    4.7944    0.0499 O   0  0  0  0  0  0  0  0  0  0  0  0
    1.0836    3.4750   -0.0105 C   0  0  0  0  0  0  0  0  0  0  0  0
   -2.5095    2.3754    0.3043 C   0  0  0  0  0  0  0  0  0  0  0  0
   -2.3014    1.3197    0.5309 H   0  0  0  0  0  0  0  0  0  0  0  0
   -1.6899    4.5699   -0.3122 C   0  0  0  0  0  0  0  0  0  0  0  0
   -0.8745    5.2505   -0.5960 H   0  0  0  0  0  0  0  0  0  0  0  0
   -1.4184    3.2130   -0.0126 C   0  0  0  0  0  0  0  0  0  0  0  0
   -0.0491    2.6189   -0.0302 C   0  0  2  0  0  3  0  0  0  0  0  0
   -2.9914    5.0662   -0.2870 C   0  0  0  0  0  0  0  0  0  0  0  0
   -3.2084    6.1166   -0.5282 H   0  0  0  0  0  0  0  0  0  0  0  0
    2.4399    3.1209   -0.0328 C   0  0  0  0  0  0  0  0  0  0  0  0
   -3.8209    2.8610    0.3416 C   0  0  0  0  0  0  0  0  0  0  0  0
   -4.6398    2.1783    0.6049 H   0  0  0  0  0  0  0  0  0  0  0  0
   -4.0723    4.2184    0.0453 C   0  0  0  0  0  0  0  0  0  0  0  0
    5.1885    3.8327   -0.0101 C   0  0  0  0  0  0  0  0  0  0  0  0
    5.8651    4.7087    0.0111 H   0  0  0  0  0  0  0  0  0  0  0  0
    5.3827    3.2308   -0.9187 H   0  0  0  0  0  0  0  0  0  0  0  0
    5.3512    3.2098    0.8906 H   0  0  0  0  0  0  0  0  0  0  0  0
   -6.4235    3.9923    0.3708 C   0  0  0  0  0  0  0  0  0  0  0  0
   -7.3075    4.6540    0.3146 H   0  0  0  0  0  0  0  0  0  0  0  0
   -6.3513    3.5713    1.3985 H   0  0  0  0  0  0  0  0  0  0  0  0
   -6.5527    3.1538   -0.3497 H   0  0  0  0  0  0  0  0  0  0  0  0
    0.8791    4.5539    0.0489 H   0  0  0  0  0  0  0  0  0  0  0  0
  1 14  1  0  0  0  0
  2 18  1  0  0  0  0
  4 22  1  0  0  0  0
  5 26  1  0  0  0  0
  6 15  1  0  0  0  0
  6  7  1  0  0  0  0
  8 12  2  0  0  0  0
  8 10  1  0  0  0  0
  9  8  1  0  0  0  0
 10  6  2  0  0  0  0
 11  3  1  1  0  0  0
 11 10  1  0  0  0  0
 11  5  1  0  0  0  0
 12 17  1  0  0  0  0
 13 12  1  0  0  0  0
 14  2  1  0  0  0  0
 14  5  2  0  0  0  0
 15 16  1  0  0  0  0
 17  4  1  0  0  0  0
 17 15  2  0  0  0  0
 18 19  1  0  0  0  0
 18 21  1  0  0  0  0
 20 18  1  0  0  0  0
 22 24  1  0  0  0  0
 23 22  1  0  0  0  0
 25 22  1  0  0  0  0
M  END
