1,4
q = 0.0, confidence = 0.986

 68 71  0  0  0  0  0  0  0  0999 V2000
    1.6582    2.2187   -0.8327 S   0  0  0  0  0  1  0  0  0  0  0  0
   -1.3704   -0.2694    0.7396 P   0  0  2  0  0  4  0  0  0  0  0  0
    1.9897    0.4353    0.0465 P   0  0  0  0  0  4  0  0  0  0  0  0
   -0.7826    0.5593   -0.4045 O   0  0  0  0  0  1  0  0  0  0  0  0
   -2.7047    0.3401    1.5664 N   0  0  0  0  0  0  0  0  0  0  0  0
   -0.0514   -0.3987    2.0052 C   0  0  0  0  0  0  0  0  0  0  0  0
    1.2849    0.0175    1.7411 C   0  0  0  0  0  0  0  0  0  0  0  0
    2.2038    0.0050    2.8131 C   0  0  0  0  0  0  0  0  0  0  0  0
    3.2376    0.3342    2.6427 H   0  0  0  0  0  0  0  0  0  0  0  0
    1.8382   -0.4386    4.0926 C   0  0  0  0  0  0  0  0  0  0  0  0
    2.5839   -0.4292    4.9016 H   0  0  0  0  0  0  0  0  0  0  0  0
    0.5384   -0.9024    4.3293 C   0  0  0  0  0  0  0  0  0  0  0  0
    0.2452   -1.2691    5.3243 H   0  0  0  0  0  0  0  0  0  0  0  0
   -0.3970   -0.8709    3.2876 C   0  0  0  0  0  0  0  0  0  0  0  0
   -1.4377   -1.1758    3.4739 H   0  0  0  0  0  0  0  0  0  0  0  0
    3.8119    0.3897    0.3548 C   0  0  0  0  0  0  0  0  0  0  0  0
    4.4954    1.5934    0.6250 C   0  0  0  0  0  0  0  0  0  0  0  0
    3.9374    2.5421    0.6171 H   0  0  0  0  0  0  0  0  0  0  0  0
    5.8742    1.5774    0.8769 C   0  0  0  0  0  0  0  0  0  0  0  0
    6.3992    2.5217    1.0861 H   0  0  0  0  0  0  0  0  0  0  0  0
    6.5840    0.3657    0.8491 C   0  0  0  0  0  0  0  0  0  0  0  0
    7.6683    0.3567    1.0380 H   0  0  0  0  0  0  0  0  0  0  0  0
    5.9092   -0.8316    0.5663 C   0  0  0  0  0  0  0  0  0  0  0  0
    6.4619   -1.7825    0.5272 H   0  0  0  0  0  0  0  0  0  0  0  0
    4.5273   -0.8241    0.3216 C   0  0  0  0  0  0  0  0  0  0  0  0
    4.0094   -1.7663    0.0913 H   0  0  0  0  0  0  0  0  0  0  0  0
    1.6690   -1.0628   -0.9479 C   0  0  0  0  0  0  0  0  0  0  0  0
    1.5517   -2.3294   -0.3341 C   0  0  0  0  0  0  0  0  0  0  0  0
    1.5623   -2.4247    0.7618 H   0  0  0  0  0  0  0  0  0  0  0  0
    1.4102   -3.4736   -1.1305 C   0  0  0  0  0  0  0  0  0  0  0  0
    1.3078   -4.4596   -0.6533 H   0  0  0  0  0  0  0  0  0  0  0  0
    1.3697   -3.3553   -2.5301 C   0  0  0  0  0  0  0  0  0  0  0  0
    1.2417   -4.2544   -3.1519 H   0  0  0  0  0  0  0  0  0  0  0  0
    1.4673   -2.0929   -3.1332 C   0  0  0  0  0  0  0  0  0  0  0  0
    1.3951   -1.9853   -4.2252 H   0  0  0  0  0  0  0  0  0  0  0  0
    1.6274   -0.9426   -2.3465 C   0  0  0  0  0  0  0  0  0  0  0  0
    1.6706    0.0496   -2.8171 H   0  0  0  0  0  0  0  0  0  0  0  0
   -1.7587   -1.9221    0.0912 C   0  0  0  0  0  0  0  0  0  0  0  0
   -1.7676   -2.0638   -1.3119 C   0  0  0  0  0  0  0  0  0  0  0  0
   -1.5457   -1.1987   -1.9623 H   0  0  0  0  0  0  0  0  0  0  0  0
   -2.0333   -3.3216   -1.8729 C   0  0  0  0  0  0  0  0  0  0  0  0
   -2.0438   -3.4288   -2.9677 H   0  0  0  0  0  0  0  0  0  0  0  0
   -2.2629   -4.4331   -1.0477 C   0  0  0  0  0  0  0  0  0  0  0  0
   -2.4638   -5.4191   -1.4942 H   0  0  0  0  0  0  0  0  0  0  0  0
   -2.2285   -4.2930    0.3509 C   0  0  0  0  0  0  0  0  0  0  0  0
   -2.4013   -5.1658    0.9986 H   0  0  0  0  0  0  0  0  0  0  0  0
   -1.9808   -3.0381    0.9228 C   0  0  0  0  0  0  0  0  0  0  0  0
   -1.9644   -2.9312    2.0175 H   0  0  0  0  0  0  0  0  0  0  0  0
   -2.4675    1.4954    2.4910 C   0  0  0  0  0  0  0  0  0  0  0  0
   -1.3938    1.4477    2.7622 H   0  0  0  0  0  0  0  0  0  0  0  0
   -3.2730    1.3102    3.7814 C   0  0  0  0  0  0  0  0  0  0  0  0
   -3.0445    0.3423    4.2702 H   0  0  0  0  0  0  0  0  0  0  0  0
   -4.3650    1.3456    3.5891 H   0  0  0  0  0  0  0  0  0  0  0  0
   -3.0401    2.1249    4.4956 H   0  0  0  0  0  0  0  0  0  0  0  0
   -2.6968    2.8650    1.8466 C   0  0  0  0  0  0  0  0  0  0  0  0
   -2.1038    3.0022    0.9200 H   0  0  0  0  0  0  0  0  0  0  0  0
   -2.4077    3.6610    2.5621 H   0  0  0  0  0  0  0  0  0  0  0  0
   -3.7624    3.0321    1.5880 H   0  0  0  0  0  0  0  0  0  0  0  0
   -4.0634    0.2968    0.9339 C   0  0  0  0  0  0  0  0  0  0  0  0
   -4.6286    1.0774    1.4815 H   0  0  0  0  0  0  0  0  0  0  0  0
   -4.0759    0.6998   -0.5471 C   0  0  0  0  0  0  0  0  0  0  0  0
   -3.5580    1.6632   -0.7259 H   0  0  0  0  0  0  0  0  0  0  0  0
   -5.1239    0.8020   -0.8943 H   0  0  0  0  0  0  0  0  0  0  0  0
   -3.5962   -0.0650   -1.1893 H   0  0  0  0  0  0  0  0  0  0  0  0
   -4.7860   -1.0291    1.1943 C   0  0  0  0  0  0  0  0  0  0  0  0
   -4.7363   -1.3022    2.2672 H   0  0  0  0  0  0  0  0  0  0  0  0
   -4.3560   -1.8600    0.6036 H   0  0  0  0  0  0  0  0  0  0  0  0
   -5.8534   -0.9348    0.9095 H   0  0  0  0  0  0  0  0  0  0  0  0
  1  3  1  0  0  0  0
  2  4  1  6  0  0  0
  2  5  1  0  0  0  0
  2  6  1  0  0  0  0
  3 16  1  0  0  0  0
  3  7  1  0  0  0  0
  5 49  1  0  0  0  0
  6 14  1  0  0  0  0
  7  6  2  0  0  0  0
  7  8  1  0  0  0  0
  8 10  2  0  0  0  0
  9  8  1  0  0  0  0
 10 12  1  0  0  0  0
 10 11  1  0  0  0  0
 12 13  1  0  0  0  0
 14 15  1  0  0  0  0
 14 12  2  0  0  0  0
 16 17  1  0  0  0  0
 17 19  2  0  0  0  0
 18 17  1  0  0  0  0
 19 20  1  0  0  0  0
 21 19  1  0  0  0  0
 21 22  1  0  0  0  0
 23 21  2  0  0  0  0
 24 23  1  0  0  0  0
 25 16  2  0  0  0  0
 25 23  1  0  0  0  0
 26 25  1  0  0  0  0
 27 28  1  0  0  0  0
 27  3  1  0  0  0  0
 28 29  1  0  0  0  0
 30 31  1  0  0  0  0
 30 28  2  0  0  0  0
 32 30  1  0  0  0  0
 33 32  1  0  0  0  0
 34 32  2  0  0  0  0
 34 36  1  0  0  0  0
 35 34  1  0  0  0  0
 36 27  2  0  0  0  0
 37 36  1  0  0  0  0
 38  2  1  0  0  0  0
 38 47  1  0  0  0  0
 39 38  2  0  0  0  0
 40 39  1  0  0  0  0
 41 39  1  0  0  0  0
 41 43  2  0  0  0  0
 42 41  1  0  0  0  0
 43 45  1  0  0  0  0
 44 43  1  0  0  0  0
 45 47  2  0  0  0  0
 45 46  1  0  0  0  0
 47 48  1  0  0  0  0
 49 50  1  0  0  0  0
 49 51  1  0  0  0  0
 51 52  1  0  0  0  0
 51 54  1  0  0  0  0
 53 51  1  0  0  0  0
 55 49  1  0  0  0  0
 55 57  1  0  0  0  0
 56 55  1  0  0  0  0
 58 55  1  0  0  0  0
 59 65  1  0  0  0  0
 59 60  1  0  0  0  0
 59  5  1  0  0  0  0
 61 59  1  0  0  0  0
 62 61  1  0  0  0  0
 63 61  1  0  0  0  0
 64 61  1  0  0  0  0
 65 66  1  0  0  0  0
 67 65  1  0  0  0  0
 68 65  1  0  0  0  0
M  END
