1,2
q = -1.0

 24 24  0  0  0  0  0  0  0  0999 V2000
    1.7246   -0.2742   -1.1805 S   0  0  0  0  0  0  0  0  0  0  0  0
    1.4617   -1.8179    1.3192 O   0  5  0  0  0  0  0  0  0  0  0  0
    3.6392   -2.0688    1.7621 O   0  0  0  0  0  0  0  0  0  0  0  0
    1.9294    1.3363   -0.3993 C   0  0  0  0  0  0  0  0  0  0  0  0
    3.0987   -1.3427   -0.4569 C   0  0  0  0  0  0  0  0  0  0  0  0
    2.7303   -1.7569    1.0008 C   0  0  0  0  0  0  0  0  0  0  0  0
    1.8353    1.5135    0.9952 C   0  0  0  0  0  0  0  0  0  0  0  0
    1.6618    0.6490    1.6528 H   0  0  0  0  0  0  0  0  0  0  0  0
    1.9448    2.8059    1.5253 C   0  0  0  0  0  0  0  0  0  0  0  0
    1.8731    2.9490    2.6139 H   0  0  0  0  0  0  0  0  0  0  0  0
    4.4267   -0.6031   -0.5172 C   0  0  0  0  0  0  0  0  0  0  0  0
    5.1867   -1.2506   -0.0371 H   0  0  0  0  0  0  0  0  0  0  0  0
    4.3948    0.3459    0.0516 H   0  0  0  0  0  0  0  0  0  0  0  0
    4.7271   -0.3908   -1.5628 H   0  0  0  0  0  0  0  0  0  0  0  0
    2.1199    2.4358   -1.2548 C   0  0  0  0  0  0  0  0  0  0  0  0
    2.1887    2.2770   -2.3413 H   0  0  0  0  0  0  0  0  0  0  0  0
    2.2134    3.7262   -0.7105 C   0  0  0  0  0  0  0  0  0  0  0  0
    2.3559    4.5894   -1.3778 H   0  0  0  0  0  0  0  0  0  0  0  0
    3.0928   -2.6075   -1.3294 C   0  0  0  0  0  0  0  0  0  0  0  0
    3.3653   -2.3774   -2.3789 H   0  0  0  0  0  0  0  0  0  0  0  0
    2.1032   -3.1070   -1.3110 H   0  0  0  0  0  0  0  0  0  0  0  0
    3.8388   -3.3142   -0.9145 H   0  0  0  0  0  0  0  0  0  0  0  0
    2.1269    3.9117    0.6774 C   0  0  0  0  0  0  0  0  0  0  0  0
    2.1994    4.9240    1.1024 H   0  0  0  0  0  0  0  0  0  0  0  0
  1  5  1  0  0  0  0
  1  4  1  0  0  0  0
  4  7  1  0  0  0  0
  5  6  1  0  0  0  0
  6  2  1  0  0  0  0
  6  3  2  0  0  0  0
  7  9  2  0  0  0  0
  7  8  1  0  0  0  0
  9 10  1  0  0  0  0
 11  5  1  0  0  0  0
 11 12  1  0  0  0  0
 11 13  1  0  0  0  0
 14 11  1  0  0  0  0
 15 17  1  0  0  0  0
 15  4  2  0  0  0  0
 16 15  1  0  0  0  0
 17 23  2  0  0  0  0
 18 17  1  0  0  0  0
 19 21  1  0  0  0  0
 19 22  1  0  0  0  0
 19  5  1  0  0  0  0
 20 19  1  0  0  0  0
 23 24  1  0  0  0  0
 23  9  1  0  0  0  0
M  CHG  1   2  -1
M  END
