1,2
q = -1.0

 24 24  0  0  0  0  0  0  0  0999 V2000
    1.4849   -2.5409    0.0412 S   0  0  0  0  0  1  0  0  0  0  0  0
    1.2385    0.4322   -0.0772 O   0  5  0  0  0  0  0  0  0  0  0  0
    4.0018   -2.6885    0.3226 O   0  0  0  0  0  0  0  0  0  0  0  0
    3.3878   -0.5058    0.0630 N   0  0  0  0  0  4  0  0  0  0  0  0
    3.0344   -1.7761    0.1487 C   0  0  0  0  0  0  0  0  0  0  0  0
    2.5097    0.5051   -0.0840 C   0  0  0  0  0  0  0  0  0  0  0  0
    3.0840    1.8683   -0.2649 C   0  0  0  0  0  0  0  0  0  0  0  0
    4.4762    2.0859   -0.1908 C   0  0  0  0  0  0  0  0  0  0  0  0
    5.1303    1.2250    0.0055 H   0  0  0  0  0  0  0  0  0  0  0  0
    4.9965    3.3748   -0.3618 C   0  0  0  0  0  0  0  0  0  0  0  0
    6.0829    3.5399   -0.3001 H   0  0  0  0  0  0  0  0  0  0  0  0
    4.1345    4.4560   -0.6120 C   0  0  0  0  0  0  0  0  0  0  0  0
    4.5458    5.4680   -0.7474 H   0  0  0  0  0  0  0  0  0  0  0  0
    2.7470    4.2440   -0.6917 C   0  0  0  0  0  0  0  0  0  0  0  0
    2.0713    5.0892   -0.8928 H   0  0  0  0  0  0  0  0  0  0  0  0
    2.2224    2.9582   -0.5184 C   0  0  0  0  0  0  0  0  0  0  0  0
    1.1417    2.7662   -0.5835 H   0  0  0  0  0  0  0  0  0  0  0  0
    5.3735   -2.2356    0.3891 C   0  0  0  0  0  0  0  0  0  0  0  0
    5.4751   -1.5237    1.2347 H   0  0  0  0  0  0  0  0  0  0  0  0
    5.6100   -1.6728   -0.5381 H   0  0  0  0  0  0  0  0  0  0  0  0
    6.2451   -3.4624    0.5602 C   0  0  0  0  0  0  0  0  0  0  0  0
    7.3098   -3.1611    0.6172 H   0  0  0  0  0  0  0  0  0  0  0  0
    5.9874   -4.0073    1.4897 H   0  0  0  0  0  0  0  0  0  0  0  0
    6.1252   -4.1580   -0.2935 H   0  0  0  0  0  0  0  0  0  0  0  0
  1  5  1  0  0  0  0
  3 18  1  0  0  0  0
  4  5  2  0  0  0  0
  5  3  1  0  0  0  0
  6  2  1  0  0  0  0
  6  4  2  0  0  0  0
  7  8  1  0  0  0  0
  7  6  1  0  0  0  0
  8  9  1  0  0  0  0
 10 11  1  0  0  0  0
 10  8  2  0  0  0  0
 12 10  1  0  0  0  0
 13 12  1  0  0  0  0
 14 12  2  0  0  0  0
 14 16  1  0  0  0  0
 15 14  1  0  0  0  0
 16  7  2  0  0  0  0
 17 16  1  0  0  0  0
 18 21  1  0  0  0  0
 18 19  1  0  0  0  0
 20 18  1  0  0  0  0
 21 22  1  0  0  0  0
 21 23  1  0  0  0  0
 24 21  1  0  0  0  0
M  CHG  1   2  -1
M  END
