1,2
q = -1.0

 14 14  0  0  0  0  0  0  0  0999 V2000
   -1.2954   -1.1196    0.6276 O   0  5  0  0  0  0  0  0  0  0  0  0
   -1.4210    1.6696   -0.5692 S   0  0  0  0  0  1  0  0  0  0  0  0
   -3.6166   -1.4824    0.6108 C   0  0  0  0  0  3  0  0  0  0  0  0
   -3.5711   -2.4962    1.0266 H   0  0  0  0  0  0  0  0  0  0  0  0
   -4.8768   -1.0836    0.3287 O   0  0  0  0  0  0  0  0  0  0  0  0
   -5.1280    0.1274   -0.1978 C   0  0  0  0  0  0  0  0  0  0  0  0
   -4.0821    0.9949   -0.4567 C   0  0  0  0  0  0  0  0  0  0  0  0
   -4.3042    1.9803   -0.8905 H   0  0  0  0  0  0  0  0  0  0  0  0
   -2.7342    0.6313   -0.2049 C   0  0  0  0  0  0  0  0  0  0  0  0
   -6.5783    0.3757   -0.4520 C   0  0  0  0  0  0  0  0  0  0  0  0
   -6.9838   -0.3600   -1.1781 H   0  0  0  0  0  0  0  0  0  0  0  0
   -6.7309    1.3915   -0.8589 H   0  0  0  0  0  0  0  0  0  0  0  0
   -7.1706    0.2743    0.4811 H   0  0  0  0  0  0  0  0  0  0  0  0
   -2.4771   -0.6967    0.3722 C   0  0  0  0  0  0  0  0  0  0  0  0
  2  9  1  0  0  0  0
  3  4  1  0  0  0  0
  5  3  1  0  0  0  0
  6  5  1  0  0  0  0
  7  9  1  0  0  0  0
  7  6  2  0  0  0  0
  8  7  1  0  0  0  0
  9 14  2  0  0  0  0
 10  6  1  0  0  0  0
 10 13  1  0  0  0  0
 11 10  1  0  0  0  0
 12 10  1  0  0  0  0
 14  3  1  0  0  0  0
 14  1  1  0  0  0  0
M  CHG  1   1  -1
M  END
