1,6
q = -1.0, confidence = 0.0

 36 38  0  0  1  0  0  0  0  0999 V2000
    1.4456   -0.9541   -0.0907 S   0  0  0  0  0  1  0  0  0  0  0  0
    3.1586    3.3533   -0.4439 C   0  0  0  0  0  0  0  0  0  0  0  0
    2.3749    4.4682   -0.5659 O   0  0  0  0  0  0  0  0  0  0  0  0
    4.5268    5.1213   -0.7036 C   0  0  0  0  0  0  0  0  0  0  0  0
    5.4072    5.7648   -0.8083 H   0  0  0  0  0  0  0  0  0  0  0  0
    1.2337    2.0472   -0.1891 O   0  5  0  0  0  0  0  0  0  0  0  0
    8.1047    0.0794    0.7896 C   0  0  0  0  0  0  0  0  0  0  0  0
    9.1458    0.3860    0.9700 H   0  0  0  0  0  0  0  0  0  0  0  0
    4.0045   -4.7602    1.0012 C   0  0  0  0  0  0  0  0  0  0  0  0
    4.2241   -5.3976    1.8709 H   0  0  0  0  0  0  0  0  0  0  0  0
    7.8146   -0.9256   -0.1458 C   0  0  0  0  0  0  0  0  0  0  0  0
    8.6273   -1.4112   -0.7070 H   0  0  0  0  0  0  0  0  0  0  0  0
    4.0935   -1.1375    0.0911 N   0  0  0  0  0  0  0  0  0  0  0  0
    3.3747    1.0339   -0.1651 N   0  0  0  0  0  0  0  0  0  0  0  0
    7.0546    0.6854    1.5001 C   0  0  0  0  0  0  0  0  0  0  0  0
    7.2710    1.4650    2.2464 H   0  0  0  0  0  0  0  0  0  0  0  0
    5.4355   -0.6988    0.3259 C   0  0  0  0  0  0  0  0  0  0  0  0
    3.8849   -2.5542   -0.0082 C   0  0  0  0  0  0  0  0  0  0  0  0
    3.4432   -3.1271   -1.2157 C   0  0  0  0  0  0  0  0  0  0  0  0
    3.2292   -2.4762   -2.0753 H   0  0  0  0  0  0  0  0  0  0  0  0
    5.7265    0.2988    1.2794 C   0  0  0  0  0  0  0  0  0  0  0  0
    4.9092    0.7689    1.8403 H   0  0  0  0  0  0  0  0  0  0  0  0
    2.5063    2.0537   -0.2562 C   0  0  0  0  0  0  0  0  0  0  0  0
    6.4882   -1.3137   -0.3803 C   0  0  0  0  0  0  0  0  0  0  0  0
    6.2584   -2.0973   -1.1165 H   0  0  0  0  0  0  0  0  0  0  0  0
    4.4984    3.7060   -0.5233 C   0  0  0  0  0  0  0  0  0  0  0  0
    5.3363    3.0048   -0.4534 H   0  0  0  0  0  0  0  0  0  0  0  0
    4.1707   -3.3721    1.0992 C   0  0  0  0  0  0  0  0  0  0  0  0
    4.5215   -2.9070    2.0317 H   0  0  0  0  0  0  0  0  0  0  0  0
    3.2724   -4.5150   -1.3038 C   0  0  0  0  0  0  0  0  0  0  0  0
    2.9238   -4.9607   -2.2476 H   0  0  0  0  0  0  0  0  0  0  0  0
    3.5517   -5.3342   -0.1977 C   0  0  0  0  0  0  0  0  0  0  0  0
    3.4185   -6.4240   -0.2712 H   0  0  0  0  0  0  0  0  0  0  0  0
    3.0387   -0.2425   -0.0560 C   0  0  1  0  0  3  0  0  0  0  0  0
    3.2063    5.5264   -0.7220 C   0  0  0  0  0  0  0  0  0  0  0  0
    2.7210    6.5016   -0.8348 H   0  0  0  0  0  0  0  0  0  0  0  0
  2 23  1  0  0  0  0
  3  2  1  0  0  0  0
  4 26  1  0  0  0  0
  5  4  1  0  0  0  0
  7  8  1  0  0  0  0
  7 15  1  0  0  0  0
  9 28  1  0  0  0  0
  9 10  1  0  0  0  0
 11  7  2  0  0  0  0
 12 11  1  0  0  0  0
 13 17  1  0  0  0  0
 14 34  1  0  0  0  0
 15 16  1  0  0  0  0
 17 21  1  0  0  0  0
 18 13  1  0  0  0  0
 18 28  2  0  0  0  0
 19 18  1  0  0  0  0
 20 19  1  0  0  0  0
 21 15  2  0  0  0  0
 21 22  1  0  0  0  0
 23  6  1  0  0  0  0
 23 14  2  0  0  0  0
 24 11  1  0  0  0  0
 24 17  2  0  0  0  0
 25 24  1  0  0  0  0
 26 27  1  0  0  0  0
 26  2  2  0  0  0  0
 28 29  1  0  0  0  0
 30 19  2  0  0  0  0
 30 32  1  0  0  0  0
 31 30  1  0  0  0  0
 32  9  2  0  0  0  0
 33 32  1  0  0  0  0
 34  1  1  6  0  0  0
 34 13  1  0  0  0  0
 35  4  2  0  0  0  0
 35  3  1  0  0  0  0
 36 35  1  0  0  0  0
M  CHG  1   6  -1
M  END
