1,2
q = -1.0

 14 14  0  0  0  0  0  0  0  0999 V2000
   -1.4824   -2.5575   -0.7694 S   0  0  0  0  0  1  0  0  0  0  0  0
   -0.8536    0.3192   -1.3475 O   0  0  0  0  0  1  0  0  0  0  0  0
   -2.9825   -1.6814   -0.6872 C   0  0  0  0  0  0  0  0  0  0  0  0
   -3.1670   -0.2900   -1.0052 C   0  0  0  0  0  0  0  0  0  0  0  0
   -4.4684    0.2864   -0.9561 C   0  0  0  0  0  0  0  0  0  0  0  0
   -4.5719    1.3555   -1.2012 H   0  0  0  0  0  0  0  0  0  0  0  0
   -5.5782   -0.4631   -0.5931 C   0  0  0  0  0  0  0  0  0  0  0  0
   -6.5754   -0.0027   -0.5430 H   0  0  0  0  0  0  0  0  0  0  0  0
   -5.4048   -1.8367   -0.2962 C   0  0  0  0  0  0  0  0  0  0  0  0
   -6.2753   -2.4497   -0.0148 H   0  0  0  0  0  0  0  0  0  0  0  0
   -4.1459   -2.4294   -0.3494 C   0  0  0  0  0  0  0  0  0  0  0  0
   -4.0250   -3.4973   -0.1137 H   0  0  0  0  0  0  0  0  0  0  0  0
   -2.0880    0.5560   -1.4229 C   0  0  0  0  0  3  0  0  0  0  0  0
   -2.3683    1.5347   -1.8784 H   0  0  0  0  0  0  0  0  0  0  0  0
  1  3  1  0  0  0  0
  3 11  1  0  0  0  0
  4  5  1  0  0  0  0
  4  3  2  0  0  0  0
  5  7  2  0  0  0  0
  6  5  1  0  0  0  0
  7  8  1  0  0  0  0
  7  9  1  0  0  0  0
  9 10  1  0  0  0  0
 11  9  2  0  0  0  0
 11 12  1  0  0  0  0
 13  2  1  0  0  0  0
 13  4  1  0  0  0  0
 14 13  1  0  0  0  0
M  END
