1,2
q = -1.0

 25 25  0  0  1  0  0  0  0  0999 V2000
    0.8275   -1.2823    0.0004 S   0  0  0  0  0  1  0  0  0  0  0  0
   -0.2265    1.5673    0.6679 O   0  5  0  0  0  0  0  0  0  0  0  0
    3.3804   -0.7188    0.0432 N   0  0  0  0  0  0  0  0  0  0  0  0
    4.1554   -0.0597    0.1662 H   0  0  0  0  0  0  0  0  0  0  0  0
    2.0703    1.2774   -0.1699 C   0  0  0  0  0  0  0  0  0  0  0  0
    0.9220    2.0467    0.2429 C   0  0  0  0  0  0  0  0  0  0  0  0
    1.0434    3.4710    0.2460 C   0  0  0  0  0  0  0  0  0  0  0  0
    0.1783    4.0426    0.6121 H   0  0  0  0  0  0  0  0  0  0  0  0
    2.1888    4.1139   -0.2016 C   0  0  0  0  0  0  0  0  0  0  0  0
    2.2302    5.2137   -0.2000 H   0  0  0  0  0  0  0  0  0  0  0  0
    3.2834    3.3640   -0.6899 C   0  0  0  0  0  0  0  0  0  0  0  0
    4.1689    3.8670   -1.1026 H   0  0  0  0  0  0  0  0  0  0  0  0
    3.2139    1.9785   -0.6629 C   0  0  0  0  0  0  0  0  0  0  0  0
    4.0521    1.4046   -1.0877 H   0  0  0  0  0  0  0  0  0  0  0  0
    2.1542   -0.1743   -0.0423 C   0  0  1  0  0  3  0  0  0  0  0  0
    3.7330   -2.1453    0.1006 C   0  0  0  0  0  0  0  0  0  0  0  0
    2.9484   -2.6786   -0.4784 H   0  0  0  0  0  0  0  0  0  0  0  0
    3.7150   -2.6533    1.5475 C   0  0  0  0  0  0  0  0  0  0  0  0
    4.4867   -2.1396    2.1561 H   0  0  0  0  0  0  0  0  0  0  0  0
    3.9288   -3.7399    1.5708 H   0  0  0  0  0  0  0  0  0  0  0  0
    2.7258   -2.4854    2.0159 H   0  0  0  0  0  0  0  0  0  0  0  0
    5.0856   -2.3435   -0.5839 C   0  0  0  0  0  0  0  0  0  0  0  0
    5.0659   -1.9929   -1.6344 H   0  0  0  0  0  0  0  0  0  0  0  0
    5.3580   -3.4162   -0.5837 H   0  0  0  0  0  0  0  0  0  0  0  0
    5.8899   -1.8002   -0.0438 H   0  0  0  0  0  0  0  0  0  0  0  0
  3 16  1  0  0  0  0
  3  4  1  0  0  0  0
  5 15  1  0  0  0  0
  5  6  1  0  0  0  0
  6  7  2  0  0  0  0
  6  2  1  0  0  0  0
  7  8  1  0  0  0  0
  9 10  1  0  0  0  0
  9  7  1  0  0  0  0
 11 13  1  0  0  0  0
 11  9  2  0  0  0  0
 12 11  1  0  0  0  0
 13  5  2  0  0  0  0
 14 13  1  0  0  0  0
 15  1  1  6  0  0  0
 15  3  1  0  0  0  0
 16 18  1  0  0  0  0
 17 16  1  0  0  0  0
 18 20  1  0  0  0  0
 18 21  1  0  0  0  0
 18 19  1  0  0  0  0
 22 24  1  0  0  0  0
 22 25  1  0  0  0  0
 22 16  1  0  0  0  0
 23 22  1  0  0  0  0
M  CHG  1   2  -1
M  END
