1,2
q = -1.0, confidence = 0.0

 34 34  0  0  1  0  0  0  0  0999 V2000
    1.6025   -2.2025   -0.2917 S   0  0  0  0  0  1  0  0  0  0  0  0
    1.3285    0.7530   -0.1852 O   0  5  0  0  0  0  0  0  0  0  0  0
    3.4710   -0.1725    0.0242 N   0  0  0  0  0  0  0  0  0  0  0  0
    4.1658   -2.3203    0.4175 N   0  0  0  0  0  0  0  0  0  0  0  0
    3.1487   -1.4652    0.0932 C   0  0  2  0  0  3  0  0  0  0  0  0
    5.5272   -1.8052    0.5959 C   0  0  0  0  0  0  0  0  0  0  0  0
    5.6727   -0.9796   -0.1265 H   0  0  0  0  0  0  0  0  0  0  0  0
    6.2256   -2.6237    0.3237 H   0  0  0  0  0  0  0  0  0  0  0  0
    5.7962   -1.3112    2.0167 C   0  0  0  0  0  0  0  0  0  0  0  0
    6.8451   -0.9654    2.1154 H   0  0  0  0  0  0  0  0  0  0  0  0
    5.6298   -2.1123    2.7658 H   0  0  0  0  0  0  0  0  0  0  0  0
    5.1249   -0.4638    2.2573 H   0  0  0  0  0  0  0  0  0  0  0  0
    3.9655   -3.7568    0.5957 C   0  0  0  0  0  0  0  0  0  0  0  0
    2.9378   -3.9099    0.9844 H   0  0  0  0  0  0  0  0  0  0  0  0
    4.6720   -4.0938    1.3834 H   0  0  0  0  0  0  0  0  0  0  0  0
    4.1651   -4.5616   -0.6897 C   0  0  0  0  0  0  0  0  0  0  0  0
    4.0271   -5.6437   -0.4929 H   0  0  0  0  0  0  0  0  0  0  0  0
    5.1829   -4.4170   -1.1063 H   0  0  0  0  0  0  0  0  0  0  0  0
    3.4267   -4.2522   -1.4555 H   0  0  0  0  0  0  0  0  0  0  0  0
    2.6033    0.8238   -0.1967 C   0  0  0  0  0  0  0  0  0  0  0  0
    3.1884    2.1807   -0.4331 C   0  0  0  0  0  0  0  0  0  0  0  0
    4.5502    2.3801   -0.1094 C   0  0  0  0  0  0  0  0  0  0  0  0
    5.1055    1.5225    0.2941 H   0  0  0  0  0  0  0  0  0  0  0  0
    5.1704    3.6199   -0.2836 C   0  0  0  0  0  0  0  0  0  0  0  0
    6.2296    3.7514   -0.0157 H   0  0  0  0  0  0  0  0  0  0  0  0
    4.4263    4.6899   -0.8035 C   0  0  0  0  0  0  0  0  0  0  0  0
    4.8948    5.6750   -0.9526 H   0  0  0  0  0  0  0  0  0  0  0  0
    3.0794    4.5001   -1.1387 C   0  0  0  0  0  0  0  0  0  0  0  0
    2.5029    5.3406   -1.5562 H   0  0  0  0  0  0  0  0  0  0  0  0
    2.4226    3.2632   -0.9648 C   0  0  0  0  0  0  0  0  0  0  0  0
    0.9732    3.1618   -1.3671 C   0  0  0  0  0  0  0  0  0  0  0  0
    0.6502    4.0934   -1.8715 H   0  0  0  0  0  0  0  0  0  0  0  0
    0.3128    2.9745   -0.4982 H   0  0  0  0  0  0  0  0  0  0  0  0
    0.7918    2.3049   -2.0450 H   0  0  0  0  0  0  0  0  0  0  0  0
  3  5  1  0  0  0  0
  4 13  1  0  0  0  0
  4  6  1  0  0  0  0
  5  1  1  6  0  0  0
  5  4  1  0  0  0  0
  6  9  1  0  0  0  0
  7  6  1  0  0  0  0
  8  6  1  0  0  0  0
  9 10  1  0  0  0  0
  9 12  1  0  0  0  0
  9 11  1  0  0  0  0
 13 14  1  0  0  0  0
 13 15  1  0  0  0  0
 16 17  1  0  0  0  0
 16 13  1  0  0  0  0
 18 16  1  0  0  0  0
 19 16  1  0  0  0  0
 20  2  1  0  0  0  0
 20  3  2  0  0  0  0
 21 20  1  0  0  0  0
 21 22  1  0  0  0  0
 22 23  1  0  0  0  0
 24 22  2  0  0  0  0
 24 25  1  0  0  0  0
 26 24  1  0  0  0  0
 27 26  1  0  0  0  0
 28 30  1  0  0  0  0
 28 26  2  0  0  0  0
 29 28  1  0  0  0  0
 30 21  2  0  0  0  0
 31 30  1  0  0  0  0
 31 33  1  0  0  0  0
 32 31  1  0  0  0  0
 34 31  1  0  0  0  0
M  CHG  1   2  -1
M  END
