1,2
q = -1.0

 23 23  0  0  1  0  0  0  0  0999 V2000
   -0.0337   -0.8573    1.0365 S   0  0  0  0  0  5  0  0  0  0  0  0
   -1.0460    1.7113    0.1619 O   0  0  0  0  0  1  0  0  0  0  0  0
   -0.1178   -0.2851    2.4247 O   0  0  0  0  0  0  0  0  0  0  0  0
    0.3491   -2.2995    0.8782 O   0  0  0  0  0  0  0  0  0  0  0  0
    4.9384   -0.6045   -0.4092 O   0  0  0  0  0  0  0  0  0  0  0  0
    0.0939    2.2277    0.2501 C   0  0  2  0  0  3  0  0  0  0  0  0
    0.1408    3.7136    0.5046 C   0  0  0  0  0  0  0  0  0  0  0  0
    1.3435    1.4748    0.1062 C   0  0  0  0  0  0  0  0  0  0  0  0
    1.3971    0.0754    0.3211 C   0  0  0  0  0  0  0  0  0  0  0  0
    2.5702   -0.6554    0.1688 C   0  0  0  0  0  0  0  0  0  0  0  0
    3.7564    0.0090   -0.2144 C   0  0  0  0  0  0  0  0  0  0  0  0
    3.7387    1.4129   -0.4131 C   0  0  0  0  0  0  0  0  0  0  0  0
    2.5585    2.1260   -0.2432 C   0  0  0  0  0  0  0  0  0  0  0  0
    5.0154   -2.0145   -0.2187 C   0  0  0  0  0  0  0  0  0  0  0  0
    0.8069    3.9507    1.3573 H   0  0  0  0  0  0  0  0  0  0  0  0
   -0.8813    4.0783    0.7075 H   0  0  0  0  0  0  0  0  0  0  0  0
    0.5370    4.2474   -0.3842 H   0  0  0  0  0  0  0  0  0  0  0  0
    2.5140   -1.7371    0.3629 H   0  0  0  0  0  0  0  0  0  0  0  0
    4.6734    1.9110   -0.7060 H   0  0  0  0  0  0  0  0  0  0  0  0
    2.5693    3.2127   -0.4099 H   0  0  0  0  0  0  0  0  0  0  0  0
    6.0621   -2.2961   -0.4317 H   0  0  0  0  0  0  0  0  0  0  0  0
    4.3385   -2.5546   -0.9145 H   0  0  0  0  0  0  0  0  0  0  0  0
    4.7620   -2.2969    0.8253 H   0  0  0  0  0  0  0  0  0  0  0  0
  1  3  2  0  0  0  0
  4  1  2  0  0  0  0
  5 14  1  0  0  0  0
  5 11  1  0  0  0  0
  6  2  1  6  0  0  0
  6  7  1  0  0  0  0
  7 16  1  0  0  0  0
  7 15  1  0  0  0  0
  8  6  1  0  0  0  0
  8  9  1  0  0  0  0
  9  1  1  0  0  0  0
 10  9  2  0  0  0  0
 10 18  1  0  0  0  0
 11 10  1  0  0  0  0
 12 13  1  0  0  0  0
 12 11  2  0  0  0  0
 13  8  2  0  0  0  0
 14 23  1  0  0  0  0
 17  7  1  0  0  0  0
 19 12  1  0  0  0  0
 20 13  1  0  0  0  0
 21 14  1  0  0  0  0
 22 14  1  0  0  0  0
M  END
