2,5
q = -1.0

 38 38  0  0  0  0  0  0  0  0999 V2000
    2.2282   -0.8395   -0.9504 P   0  0  0  0  0  4  0  0  0  0  0  0
    1.7902    2.1074    0.9608 S   0  0  0  0  0  1  0  0  0  0  0  0
    2.8536   -1.4167   -2.3119 O   0  0  0  0  0  0  0  0  0  0  0  0
    2.1944   -2.1729   -0.0187 O   0  0  0  0  0  0  0  0  0  0  0  0
    0.8325   -0.2973   -1.2971 O   0  0  0  0  0  1  0  0  0  0  0  0
    3.3344    0.1802   -0.2961 N   0  0  0  0  0  0  0  0  0  0  0  0
    4.5298    1.9295    0.7956 C   0  0  0  0  0  0  0  0  0  0  0  0
    3.2307    1.2909    0.3974 C   0  0  0  0  0  0  0  0  0  0  0  0
    4.1870   -2.0185   -2.3103 C   0  0  0  0  0  0  0  0  0  0  0  0
    1.9429   -2.0537    1.4268 C   0  0  0  0  0  0  0  0  0  0  0  0
    5.7361    1.2295    0.5630 C   0  0  0  0  0  0  0  0  0  0  0  0
    4.5941    3.2077    1.3924 C   0  0  0  0  0  0  0  0  0  0  0  0
    5.8281    3.7677    1.7464 C   0  0  0  0  0  0  0  0  0  0  0  0
    7.0193    3.0608    1.5147 C   0  0  0  0  0  0  0  0  0  0  0  0
    6.9681    1.7882    0.9217 C   0  0  0  0  0  0  0  0  0  0  0  0
    5.1125   -1.1026   -3.0962 C   0  0  0  0  0  0  0  0  0  0  0  0
    3.2743   -2.1589    2.1565 C   0  0  0  0  0  0  0  0  0  0  0  0
    4.0450   -3.4205   -2.8828 C   0  0  0  0  0  0  0  0  0  0  0  0
    0.9472   -3.1403    1.7947 C   0  0  0  0  0  0  0  0  0  0  0  0
    1.4759   -1.0644    1.6225 H   0  0  0  0  0  0  0  0  0  0  0  0
    7.9878    3.5020    1.7957 H   0  0  0  0  0  0  0  0  0  0  0  0
    4.5374   -2.0845   -1.2573 H   0  0  0  0  0  0  0  0  0  0  0  0
    3.6605    3.7608    1.5699 H   0  0  0  0  0  0  0  0  0  0  0  0
    5.6770    0.2364    0.0958 H   0  0  0  0  0  0  0  0  0  0  0  0
    5.8597    4.7670    2.2063 H   0  0  0  0  0  0  0  0  0  0  0  0
    7.8971    1.2272    0.7379 H   0  0  0  0  0  0  0  0  0  0  0  0
    4.7484   -0.9833   -4.1365 H   0  0  0  0  0  0  0  0  0  0  0  0
    3.1186   -2.0729    3.2504 H   0  0  0  0  0  0  0  0  0  0  0  0
    6.1381   -1.5222   -3.1287 H   0  0  0  0  0  0  0  0  0  0  0  0
    3.7524   -3.1379    1.9480 H   0  0  0  0  0  0  0  0  0  0  0  0
    3.9642   -1.3528    1.8401 H   0  0  0  0  0  0  0  0  0  0  0  0
    5.1540   -0.1038   -2.6196 H   0  0  0  0  0  0  0  0  0  0  0  0
    1.3686   -4.1435    1.5794 H   0  0  0  0  0  0  0  0  0  0  0  0
    3.6458   -3.3787   -3.9163 H   0  0  0  0  0  0  0  0  0  0  0  0
    0.7068   -3.0811    2.8746 H   0  0  0  0  0  0  0  0  0  0  0  0
    3.3509   -4.0176   -2.2603 H   0  0  0  0  0  0  0  0  0  0  0  0
    5.0284   -3.9313   -2.9064 H   0  0  0  0  0  0  0  0  0  0  0  0
    0.0060   -3.0152    1.2284 H   0  0  0  0  0  0  0  0  0  0  0  0
  1  6  1  0  0  0  0
  1  4  1  0  0  0  0
  3  9  1  0  0  0  0
  3  1  1  0  0  0  0
  4 10  1  0  0  0  0
  5  1  1  0  0  0  0
  6  8  2  0  0  0  0
  7 12  1  0  0  0  0
  8  7  1  0  0  0  0
  8  2  1  0  0  0  0
  9 22  1  0  0  0  0
 10 20  1  0  0  0  0
 10 19  1  0  0  0  0
 10 17  1  0  0  0  0
 11  7  2  0  0  0  0
 11 15  1  0  0  0  0
 12 23  1  0  0  0  0
 12 13  2  0  0  0  0
 13 25  1  0  0  0  0
 14 13  1  0  0  0  0
 14 21  1  0  0  0  0
 15 14  2  0  0  0  0
 16 32  1  0  0  0  0
 16  9  1  0  0  0  0
 17 28  1  0  0  0  0
 18  9  1  0  0  0  0
 18 36  1  0  0  0  0
 19 35  1  0  0  0  0
 24 11  1  0  0  0  0
 26 15  1  0  0  0  0
 27 16  1  0  0  0  0
 29 16  1  0  0  0  0
 30 17  1  0  0  0  0
 31 17  1  0  0  0  0
 33 19  1  0  0  0  0
 34 18  1  0  0  0  0
 37 18  1  0  0  0  0
 38 19  1  0  0  0  0
M  END
