1,5
q = -1.0

 14 13  0  0  1  0  0  0  0  0999 V2000
    3.2280   -1.3909    0.3697 S   0  0  0  0  0  1  0  0  0  0  0  0
    4.3622   -0.1256    0.1245 C   0  0  2  0  0  3  0  0  0  0  0  0
    5.7992   -0.5715    0.3000 C   0  0  0  0  0  0  0  0  0  0  0  0
    4.1255    1.2165   -0.1838 C   0  0  0  0  0  0  0  0  0  0  0  0
    1.7209    1.4284   -0.2476 O   0  5  0  0  0  0  0  0  0  0  0  0
    2.8914    1.9122   -0.3537 C   0  0  0  0  0  0  0  0  0  0  0  0
    2.9361    3.3907   -0.6884 C   0  0  0  0  0  0  0  0  0  0  0  0
    6.5082    0.1651   -0.1252 H   0  0  0  0  0  0  0  0  0  0  0  0
    5.9727   -1.5574   -0.1744 H   0  0  0  0  0  0  0  0  0  0  0  0
    6.0315   -0.6899    1.3797 H   0  0  0  0  0  0  0  0  0  0  0  0
    5.0261    1.8375   -0.3120 H   0  0  0  0  0  0  0  0  0  0  0  0
    2.3208    3.5799   -1.5911 H   0  0  0  0  0  0  0  0  0  0  0  0
    3.9619    3.7684   -0.8528 H   0  0  0  0  0  0  0  0  0  0  0  0
    2.4666    3.9673    0.1356 H   0  0  0  0  0  0  0  0  0  0  0  0
  2  3  1  0  0  0  0
  2  1  1  1  0  0  0
  3 10  1  0  0  0  0
  4  2  1  0  0  0  0
  6  5  1  0  0  0  0
  6  4  2  0  0  0  0
  7  6  1  0  0  0  0
  7 14  1  0  0  0  0
  8  3  1  0  0  0  0
  9  3  1  0  0  0  0
 11  4  1  0  0  0  0
 12  7  1  0  0  0  0
 13  7  1  0  0  0  0
M  CHG  1   5  -1
M  END
