1,2
q = -1.0

 25 25  0  0  1  0  0  0  0  0999 V2000
   -0.7361    1.7705    0.1507 S   0  0  0  0  0  1  0  0  0  0  0  0
   -2.3494   -0.9033   -0.2424 O   0  5  0  0  0  0  0  0  0  0  0  0
   -3.4655    1.1644   -0.0392 N   0  0  0  0  0  0  0  0  0  0  0  0
   -2.8066    3.3682   -0.1186 N   0  0  0  0  0  0  0  0  0  0  0  0
   -3.3805   -0.1697   -0.0931 C   0  0  0  0  0  0  0  0  0  0  0  0
   -4.6768   -0.9187    0.0056 C   0  0  0  0  0  0  0  0  0  0  0  0
   -4.6644   -2.3279   -0.0773 C   0  0  0  0  0  0  0  0  0  0  0  0
   -3.6979   -2.8341   -0.2164 H   0  0  0  0  0  0  0  0  0  0  0  0
   -5.8610   -3.0493    0.0173 C   0  0  0  0  0  0  0  0  0  0  0  0
   -5.8438   -4.1478   -0.0501 H   0  0  0  0  0  0  0  0  0  0  0  0
   -7.0802   -2.3748    0.1991 C   0  0  0  0  0  0  0  0  0  0  0  0
   -8.0199   -2.9436    0.2742 H   0  0  0  0  0  0  0  0  0  0  0  0
   -7.0982   -0.9725    0.2859 C   0  0  0  0  0  0  0  0  0  0  0  0
   -8.0515   -0.4413    0.4304 H   0  0  0  0  0  0  0  0  0  0  0  0
   -5.9035   -0.2477    0.1883 C   0  0  0  0  0  0  0  0  0  0  0  0
   -5.8983    0.8488    0.2558 H   0  0  0  0  0  0  0  0  0  0  0  0
   -2.4612    2.0428   -0.0265 C   0  0  1  0  0  3  0  0  0  0  0  0
   -4.1982    3.7912   -0.1573 C   0  0  0  0  0  0  0  0  0  0  0  0
   -4.3922    4.3979   -1.0672 H   0  0  0  0  0  0  0  0  0  0  0  0
   -4.4464    4.4070    0.7346 H   0  0  0  0  0  0  0  0  0  0  0  0
   -4.8359    2.8922   -0.1729 H   0  0  0  0  0  0  0  0  0  0  0  0
   -1.8025    4.4190   -0.0831 C   0  0  0  0  0  0  0  0  0  0  0  0
   -1.3573    4.5346    0.9300 H   0  0  0  0  0  0  0  0  0  0  0  0
   -2.2770    5.3742   -0.3757 H   0  0  0  0  0  0  0  0  0  0  0  0
   -0.9716    4.1939   -0.7825 H   0  0  0  0  0  0  0  0  0  0  0  0
  2  5  1  0  0  0  0
  3 17  1  0  0  0  0
  4 22  1  0  0  0  0
  4 17  1  0  0  0  0
  5  3  2  0  0  0  0
  5  6  1  0  0  0  0
  6 15  1  0  0  0  0
  7  6  2  0  0  0  0
  7  9  1  0  0  0  0
  8  7  1  0  0  0  0
  9 11  2  0  0  0  0
 10  9  1  0  0  0  0
 11 12  1  0  0  0  0
 11 13  1  0  0  0  0
 13 14  1  0  0  0  0
 15 16  1  0  0  0  0
 15 13  2  0  0  0  0
 17  1  1  1  0  0  0
 18  4  1  0  0  0  0
 18 20  1  0  0  0  0
 19 18  1  0  0  0  0
 21 18  1  0  0  0  0
 22 23  1  0  0  0  0
 24 22  1  0  0  0  0
 25 22  1  0  0  0  0
M  CHG  1   2  -1
M  END
