1,3
q = -1.0, confidence = 0.002

 30 29  0  0  0  0  0  0  0  0999 V2000
   -0.8558   -2.4675   -1.2432 S   0  0  0  0  0  1  0  0  0  0  0  0
   -2.4717    0.3364    0.0973 P   0  0  0  0  0  4  0  0  0  0  0  0
   -1.5214   -0.1619    1.2051 O   0  0  0  0  0  1  0  0  0  0  0  0
   -1.7691    1.5754   -0.6642 O   0  0  0  0  0  0  0  0  0  0  0  0
   -3.7695    1.0626    0.7391 O   0  0  0  0  0  0  0  0  0  0  0  0
   -3.0694   -0.7568   -0.9605 N   0  0  0  0  0  0  0  0  0  0  0  0
   -3.2461   -2.5947   -2.2932 N   0  0  0  0  0  0  0  0  0  0  0  0
   -4.2047   -2.3036   -2.4843 H   0  0  0  0  0  0  0  0  0  0  0  0
   -2.8705   -3.4544   -2.6880 H   0  0  0  0  0  0  0  0  0  0  0  0
   -2.4884   -1.8373   -1.4568 C   0  0  0  0  0  0  0  0  0  0  0  0
   -1.9755    1.8656   -2.0783 C   0  0  0  0  0  0  0  0  0  0  0  0
   -2.9145    1.3636   -2.3988 H   0  0  0  0  0  0  0  0  0  0  0  0
   -0.7997    1.3009   -2.8652 C   0  0  0  0  0  0  0  0  0  0  0  0
   -0.7274    0.2032   -2.7327 H   0  0  0  0  0  0  0  0  0  0  0  0
    0.1507    1.7416   -2.5052 H   0  0  0  0  0  0  0  0  0  0  0  0
   -0.9176    1.5215   -3.9455 H   0  0  0  0  0  0  0  0  0  0  0  0
   -2.1307    3.3748   -2.1938 C   0  0  0  0  0  0  0  0  0  0  0  0
   -2.9772    3.7251   -1.5718 H   0  0  0  0  0  0  0  0  0  0  0  0
   -2.3191    3.6650   -3.2467 H   0  0  0  0  0  0  0  0  0  0  0  0
   -1.2083    3.8847   -1.8494 H   0  0  0  0  0  0  0  0  0  0  0  0
   -4.7460    0.2641    1.4699 C   0  0  0  0  0  0  0  0  0  0  0  0
   -4.7487   -0.7579    1.0269 H   0  0  0  0  0  0  0  0  0  0  0  0
   -4.3453    0.1924    2.9385 C   0  0  0  0  0  0  0  0  0  0  0  0
   -3.3369   -0.2524    3.0409 H   0  0  0  0  0  0  0  0  0  0  0  0
   -5.0686   -0.4254    3.5080 H   0  0  0  0  0  0  0  0  0  0  0  0
   -4.3261    1.2087    3.3818 H   0  0  0  0  0  0  0  0  0  0  0  0
   -6.0989    0.9157    1.2278 C   0  0  0  0  0  0  0  0  0  0  0  0
   -6.3282    0.9411    0.1447 H   0  0  0  0  0  0  0  0  0  0  0  0
   -6.0990    1.9567    1.6098 H   0  0  0  0  0  0  0  0  0  0  0  0
   -6.8996    0.3522    1.7468 H   0  0  0  0  0  0  0  0  0  0  0  0
  2  5  1  0  0  0  0
  2  3  1  0  0  0  0
  4  2  1  0  0  0  0
  5 21  1  0  0  0  0
  6  2  1  0  0  0  0
  7 10  1  0  0  0  0
  8  7  1  0  0  0  0
  9  7  1  0  0  0  0
 10  1  1  0  0  0  0
 10  6  2  0  0  0  0
 11  4  1  0  0  0  0
 12 11  1  0  0  0  0
 13 14  1  0  0  0  0
 13 15  1  0  0  0  0
 13 11  1  0  0  0  0
 16 13  1  0  0  0  0
 17 11  1  0  0  0  0
 17 20  1  0  0  0  0
 17 18  1  0  0  0  0
 19 17  1  0  0  0  0
 21 23  1  0  0  0  0
 22 21  1  0  0  0  0
 23 24  1  0  0  0  0
 23 26  1  0  0  0  0
 23 25  1  0  0  0  0
 27 21  1  0  0  0  0
 27 29  1  0  0  0  0
 27 30  1  0  0  0  0
 28 27  1  0  0  0  0
M  END
