1,3
q = -1.0, confidence = 0.0

 30 31  0  0  1  0  0  0  0  0999 V2000
    1.4837   -2.1582   -0.1056 S   0  0  0  0  0  1  0  0  0  0  0  0
    4.7445    5.9117   -1.0714 F   0  0  0  0  0  0  0  0  0  0  0  0
    1.2421    0.8000   -0.1196 O   0  5  0  0  0  0  0  0  0  0  0  0
    6.1127   -4.0597    0.2454 O   0  0  0  0  0  0  0  0  0  0  0  0
    3.9767   -2.2927    0.8265 N   0  0  0  0  0  0  0  0  0  0  0  0
    2.2926    3.2556   -0.6850 C   0  0  0  0  0  0  0  0  0  0  0  0
    1.2122    3.0730   -0.7748 H   0  0  0  0  0  0  0  0  0  0  0  0
    2.8331    4.5184   -0.9457 C   0  0  0  0  0  0  0  0  0  0  0  0
    2.2033    5.3683   -1.2450 H   0  0  0  0  0  0  0  0  0  0  0  0
    4.2180    4.6997   -0.8231 C   0  0  0  0  0  0  0  0  0  0  0  0
    5.0684    3.6501   -0.4489 C   0  0  0  0  0  0  0  0  0  0  0  0
    6.1485    3.8370   -0.3646 H   0  0  0  0  0  0  0  0  0  0  0  0
    4.5146    2.3916   -0.1918 C   0  0  0  0  0  0  0  0  0  0  0  0
    5.1534    1.5487    0.1050 H   0  0  0  0  0  0  0  0  0  0  0  0
    3.1245    2.1788   -0.3050 C   0  0  0  0  0  0  0  0  0  0  0  0
    2.5162    0.8423   -0.0387 C   0  0  0  0  0  0  0  0  0  0  0  0
    3.3554   -0.1505    0.2806 N   0  0  0  0  0  0  0  0  0  0  0  0
    3.0068   -1.4357    0.3782 C   0  0  1  0  0  3  0  0  0  0  0  0
    5.3610   -1.8683    1.0287 C   0  0  0  0  0  0  0  0  0  0  0  0
    5.6462   -2.0722    2.0845 H   0  0  0  0  0  0  0  0  0  0  0  0
    5.4204   -0.7816    0.8421 H   0  0  0  0  0  0  0  0  0  0  0  0
    6.2731   -2.6596    0.0847 C   0  0  0  0  0  0  0  0  0  0  0  0
    6.0505   -2.3576   -0.9691 H   0  0  0  0  0  0  0  0  0  0  0  0
    7.3371   -2.4311    0.2959 H   0  0  0  0  0  0  0  0  0  0  0  0
    4.7699   -4.4535    0.0144 C   0  0  0  0  0  0  0  0  0  0  0  0
    4.7228   -5.5497    0.1708 H   0  0  0  0  0  0  0  0  0  0  0  0
    4.4672   -4.2321   -1.0393 H   0  0  0  0  0  0  0  0  0  0  0  0
    3.8094   -3.7350    0.9670 C   0  0  0  0  0  0  0  0  0  0  0  0
    2.7557   -4.0063    0.7667 H   0  0  0  0  0  0  0  0  0  0  0  0
    4.0568   -4.0163    2.0152 H   0  0  0  0  0  0  0  0  0  0  0  0
  2 10  1  0  0  0  0
  3 16  1  0  0  0  0
  5 28  1  0  0  0  0
  5 19  1  0  0  0  0
  6 15  1  0  0  0  0
  7  6  1  0  0  0  0
  8 10  1  0  0  0  0
  8  6  2  0  0  0  0
  9  8  1  0  0  0  0
 10 11  2  0  0  0  0
 11 12  1  0  0  0  0
 11 13  1  0  0  0  0
 13 14  1  0  0  0  0
 15 13  2  0  0  0  0
 15 16  1  0  0  0  0
 16 17  2  0  0  0  0
 17 18  1  0  0  0  0
 18  1  1  6  0  0  0
 18  5  1  0  0  0  0
 19 20  1  0  0  0  0
 21 19  1  0  0  0  0
 22  4  1  0  0  0  0
 22 24  1  0  0  0  0
 22 19  1  0  0  0  0
 23 22  1  0  0  0  0
 25 26  1  0  0  0  0
 25  4  1  0  0  0  0
 25 28  1  0  0  0  0
 27 25  1  0  0  0  0
 28 30  1  0  0  0  0
 29 28  1  0  0  0  0
M  CHG  1   3  -1
M  END
