1,2
q = -1.0

 34 34  0  0  1  0  0  0  0  0999 V2000
    3.2483    1.3351   -1.3541 S   0  0  0  0  0  1  0  0  0  0  0  0
    0.4760    0.5175   -0.7241 O   0  5  0  0  0  0  0  0  0  0  0  0
   -6.0335    3.5031   -1.9092 F   0  0  0  0  0  0  0  0  0  0  0  0
    0.9241    2.7900   -1.0123 N   0  0  0  0  0  0  0  0  0  0  0  0
    2.8927    3.9249   -0.6749 N   0  0  0  0  0  0  0  0  0  0  0  0
   -6.1698    1.4064   -2.5116 F   0  0  0  0  0  0  0  0  0  0  0  0
    2.1092    5.1451   -0.4436 C   0  0  0  0  0  0  0  0  0  0  0  0
    1.2422    5.1164   -1.1311 H   0  0  0  0  0  0  0  0  0  0  0  0
    2.7480    6.0065   -0.7273 H   0  0  0  0  0  0  0  0  0  0  0  0
   -6.0806    1.9313   -0.3959 F   0  0  0  0  0  0  0  0  0  0  0  0
    2.2525    2.7604   -0.9412 C   0  0  2  0  0  3  0  0  0  0  0  0
    1.6298    5.2638    1.0028 C   0  0  0  0  0  0  0  0  0  0  0  0
    1.0514    6.1993    1.1415 H   0  0  0  0  0  0  0  0  0  0  0  0
    2.4813    5.2787    1.7133 H   0  0  0  0  0  0  0  0  0  0  0  0
    0.9821    4.4029    1.2596 H   0  0  0  0  0  0  0  0  0  0  0  0
    4.3457    4.0202   -0.5231 C   0  0  0  0  0  0  0  0  0  0  0  0
    4.7111    3.0356   -0.1698 H   0  0  0  0  0  0  0  0  0  0  0  0
    4.5420    4.7612    0.2800 H   0  0  0  0  0  0  0  0  0  0  0  0
    0.1414    1.6968   -1.0383 C   0  0  0  0  0  0  0  0  0  0  0  0
   -2.0963    0.7783   -1.6798 C   0  0  0  0  0  0  0  0  0  0  0  0
   -1.6047   -0.2002   -1.7699 H   0  0  0  0  0  0  0  0  0  0  0  0
   -3.3042    3.2936   -1.3760 C   0  0  0  0  0  0  0  0  0  0  0  0
   -3.7896    4.2723   -1.2530 H   0  0  0  0  0  0  0  0  0  0  0  0
   -1.3057    1.9026   -1.3635 C   0  0  0  0  0  0  0  0  0  0  0  0
    5.0579    4.4152   -1.8160 C   0  0  0  0  0  0  0  0  0  0  0  0
    6.1470    4.5168   -1.6375 H   0  0  0  0  0  0  0  0  0  0  0  0
    4.6851    5.3821   -2.2114 H   0  0  0  0  0  0  0  0  0  0  0  0
    4.9061    3.6386   -2.5915 H   0  0  0  0  0  0  0  0  0  0  0  0
   -4.0895    2.1577   -1.6439 C   0  0  0  0  0  0  0  0  0  0  0  0
   -3.4801    0.9030   -1.8260 C   0  0  0  0  0  0  0  0  0  0  0  0
   -4.1014    0.0213   -2.0375 H   0  0  0  0  0  0  0  0  0  0  0  0
   -1.9159    3.1670   -1.2469 C   0  0  0  0  0  0  0  0  0  0  0  0
   -1.2867    4.0373   -1.0127 H   0  0  0  0  0  0  0  0  0  0  0  0
   -5.5956    2.2521   -1.6263 C   0  0  0  0  0  0  0  0  0  0  0  0
  3 34  1  0  0  0  0
  4 11  1  0  0  0  0
  5 16  1  0  0  0  0
  5  7  1  0  0  0  0
  6 34  1  0  0  0  0
  7 12  1  0  0  0  0
  8  7  1  0  0  0  0
  9  7  1  0  0  0  0
 11  1  1  6  0  0  0
 11  5  1  0  0  0  0
 12 13  1  0  0  0  0
 12 15  1  0  0  0  0
 12 14  1  0  0  0  0
 16 17  1  0  0  0  0
 16 18  1  0  0  0  0
 19  4  2  0  0  0  0
 19  2  1  0  0  0  0
 20 24  1  0  0  0  0
 21 20  1  0  0  0  0
 22 23  1  0  0  0  0
 22 32  1  0  0  0  0
 24 32  2  0  0  0  0
 24 19  1  0  0  0  0
 25 26  1  0  0  0  0
 25 16  1  0  0  0  0
 27 25  1  0  0  0  0
 28 25  1  0  0  0  0
 29 34  1  0  0  0  0
 29 22  2  0  0  0  0
 30 20  2  0  0  0  0
 30 29  1  0  0  0  0
 31 30  1  0  0  0  0
 32 33  1  0  0  0  0
 34 10  1  0  0  0  0
M  CHG  1   2  -1
M  END
