1,12
q = -1.0

 20 20  0  0  0  0  0  0  0  0999 V2000
   -1.2916   -0.1993   -1.5358 O   0  5  0  0  0  0  0  0  0  0  0  0
   -2.1098   -2.0252   -0.1934 C   0  0  0  0  0  0  0  0  0  0  0  0
   -2.2042   -1.1272   -1.2984 C   0  0  0  0  0  0  0  0  0  0  0  0
   -3.0926   -2.9831    0.1126 C   0  0  0  0  0  0  0  0  0  0  0  0
   -2.9823   -3.6072    1.0133 H   0  0  0  0  0  0  0  0  0  0  0  0
   -3.3399   -1.2883   -2.1414 C   0  0  0  0  0  0  0  0  0  0  0  0
   -3.4379   -0.6205   -3.0099 H   0  0  0  0  0  0  0  0  0  0  0  0
   -4.3078   -2.2520   -1.8532 C   0  0  0  0  0  0  0  0  0  0  0  0
   -5.1813   -2.3442   -2.5167 H   0  0  0  0  0  0  0  0  0  0  0  0
   -4.2040   -3.0984   -0.7252 C   0  0  0  0  0  0  0  0  0  0  0  0
   -4.9912   -3.8332   -0.5055 H   0  0  0  0  0  0  0  0  0  0  0  0
   -0.6543   -1.8313    0.8146 S   0  0  1  0  0  3  0  0  0  0  0  0
   -0.9676   -1.9750    2.2971 O   0  0  0  0  0  1  0  0  0  0  0  0
    0.3214   -3.3448    0.4080 C   0  0  0  0  0  0  0  0  0  0  0  0
   -0.4192   -4.1649    0.4947 H   0  0  0  0  0  0  0  0  0  0  0  0
    0.6135   -3.2461   -0.6562 H   0  0  0  0  0  0  0  0  0  0  0  0
    1.4870   -3.5158    1.3668 C   0  0  0  0  0  0  0  0  0  0  0  0
    2.2355   -2.7066    1.2629 H   0  0  0  0  0  0  0  0  0  0  0  0
    1.9968   -4.4795    1.1689 H   0  0  0  0  0  0  0  0  0  0  0  0
    1.1228   -3.5216    2.4120 H   0  0  0  0  0  0  0  0  0  0  0  0
  1  3  1  0  0  0  0
  2  4  1  0  0  0  0
  2 12  1  0  0  0  0
  3  2  2  0  0  0  0
  4  5  1  0  0  0  0
  6  8  2  0  0  0  0
  6  3  1  0  0  0  0
  7  6  1  0  0  0  0
  8 10  1  0  0  0  0
  9  8  1  0  0  0  0
 10 11  1  0  0  0  0
 10  4  2  0  0  0  0
 12 13  1  1  0  0  0
 14 15  1  0  0  0  0
 14 12  1  0  0  0  0
 14 17  1  0  0  0  0
 16 14  1  0  0  0  0
 17 20  1  0  0  0  0
 18 17  1  0  0  0  0
 19 17  1  0  0  0  0
M  CHG  1   1  -1
M  END
