1,2,3
 OpenBabel05122313063D

 45 44  0  0  0  0  0  0  0  0999 V2000
   -1.7664    0.0192   -0.6015 Si  0  0  0  0  0  3  0  0  0  0  0  0
    0.4840    2.2798   -0.3872 Si  0  0  0  0  0  3  0  0  0  0  0  0
   -0.2824    0.2487    2.2650 Si  0  0  0  0  0  3  0  0  0  0  0  0
   -1.4999    2.1903   -2.5582 C   0  0  0  0  0  0  0  0  0  0  0  0
   -0.5351    3.5478    0.6083 C   0  0  0  0  0  0  0  0  0  0  0  0
   -0.0405    2.5288   -2.2152 C   0  0  0  0  0  0  0  0  0  0  0  0
    2.2490    2.9773   -0.1984 C   0  0  0  0  0  0  0  0  0  0  0  0
   -3.7858   -1.9079   -1.2354 C   0  0  0  0  0  0  0  0  0  0  0  0
   -1.9120    1.1672    2.6548 C   0  0  0  0  0  0  0  0  0  0  0  0
   -3.0946    0.9592    0.3959 C   0  0  0  0  0  0  0  0  0  0  0  0
   -2.4208   -1.8070   -0.6401 C   0  0  0  0  0  0  0  0  0  0  0  0
   -1.8633    0.7065   -2.3872 C   0  0  0  0  0  0  0  0  0  0  0  0
   -4.9435   -2.0351   -0.5553 C   0  0  0  0  0  0  0  0  0  0  0  0
   -3.1586    0.6814    1.9031 C   0  0  0  0  0  0  0  0  0  0  0  0
    1.0816    1.1258    3.2687 C   0  0  0  0  0  0  0  0  0  0  0  0
   -0.5744   -1.4790    3.0270 C   0  0  0  0  0  0  0  0  0  0  0  0
    2.2127    4.0738   -0.3724 H   0  0  0  0  0  0  0  0  0  0  0  0
    2.9675    2.5432   -0.9176 H   0  0  0  0  0  0  0  0  0  0  0  0
    2.6430    2.8076    0.8232 H   0  0  0  0  0  0  0  0  0  0  0  0
   -0.3113    4.5389    0.1578 H   0  0  0  0  0  0  0  0  0  0  0  0
   -0.2288    3.5911    1.6721 H   0  0  0  0  0  0  0  0  0  0  0  0
   -1.6291    3.4010    0.5701 H   0  0  0  0  0  0  0  0  0  0  0  0
    0.8216    1.1264    4.3487 H   0  0  0  0  0  0  0  0  0  0  0  0
    1.1991    2.1790    2.9439 H   0  0  0  0  0  0  0  0  0  0  0  0
    2.0652    0.6284    3.1531 H   0  0  0  0  0  0  0  0  0  0  0  0
   -0.9475   -1.3560    4.0664 H   0  0  0  0  0  0  0  0  0  0  0  0
    0.3434   -2.0927    3.0644 H   0  0  0  0  0  0  0  0  0  0  0  0
   -1.3404   -2.0447    2.4597 H   0  0  0  0  0  0  0  0  0  0  0  0
   -2.4022   -2.1888    0.4015 H   0  0  0  0  0  0  0  0  0  0  0  0
   -1.6907   -2.4018   -1.2216 H   0  0  0  0  0  0  0  0  0  0  0  0
   -3.8362   -1.8328   -2.3379 H   0  0  0  0  0  0  0  0  0  0  0  0
    0.6462    1.9415   -2.8620 H   0  0  0  0  0  0  0  0  0  0  0  0
    0.1648    3.5990   -2.4454 H   0  0  0  0  0  0  0  0  0  0  0  0
   -1.7100    2.4976   -3.6077 H   0  0  0  0  0  0  0  0  0  0  0  0
   -2.1809    2.8113   -1.9341 H   0  0  0  0  0  0  0  0  0  0  0  0
   -2.9076    0.5318   -2.7298 H   0  0  0  0  0  0  0  0  0  0  0  0
   -1.2161    0.0776   -3.0370 H   0  0  0  0  0  0  0  0  0  0  0  0
   -1.7853    2.2589    2.5159 H   0  0  0  0  0  0  0  0  0  0  0  0
   -2.0427    1.0153    3.7507 H   0  0  0  0  0  0  0  0  0  0  0  0
   -4.0671    1.1607    2.3322 H   0  0  0  0  0  0  0  0  0  0  0  0
   -3.2994   -0.4100    2.0740 H   0  0  0  0  0  0  0  0  0  0  0  0
   -4.0478    0.6531   -0.0891 H   0  0  0  0  0  0  0  0  0  0  0  0
   -2.9991    2.0490    0.2108 H   0  0  0  0  0  0  0  0  0  0  0  0
   -5.9144   -2.0699   -1.0729 H   0  0  0  0  0  0  0  0  0  0  0  0
   -4.9574   -2.1110    0.5453 H   0  0  0  0  0  0  0  0  0  0  0  0
  1 10  1  0  0  0  0
  2  7  1  0  0  0  0
  2  5  1  0  0  0  0
  3  9  1  0  0  0  0
  3 16  1  0  0  0  0
  3 15  1  0  0  0  0
  4 12  1  0  0  0  0
  4  6  1  0  0  0  0
  4 35  1  0  0  0  0
  5 21  1  0  0  0  0
  6  2  1  0  0  0  0
  7 19  1  0  0  0  0
  8 11  1  0  0  0  0
  8 13  2  0  0  0  0
  9 39  1  0  0  0  0
 10 14  1  0  0  0  0
 11  1  1  0  0  0  0
 11 29  1  0  0  0  0
 12  1  1  0  0  0  0
 13 45  1  0  0  0  0
 14 41  1  0  0  0  0
 14 40  1  0  0  0  0
 14  9  1  0  0  0  0
 15 23  1  0  0  0  0
 16 27  1  0  0  0  0
 16 26  1  0  0  0  0
 17  7  1  0  0  0  0
 18  7  1  0  0  0  0
 20  5  1  0  0  0  0
 22  5  1  0  0  0  0
 24 15  1  0  0  0  0
 25 15  1  0  0  0  0
 28 16  1  0  0  0  0
 30 11  1  0  0  0  0
 31  8  1  0  0  0  0
 32  6  1  0  0  0  0
 33  6  1  0  0  0  0
 34  4  1  0  0  0  0
 36 12  1  0  0  0  0
 37 12  1  0  0  0  0
 38  9  1  0  0  0  0
 42 10  1  0  0  0  0
 43 10  1  0  0  0  0
 44 13  1  0  0  0  0
M  END
