1,3,12
q = 0.0, confidence = 0.976

 59 62  0  0  0  0  0  0  0  0999 V2000
    1.2522   -0.2972   -0.6148 P   0  0  0  0  0  0  0  0  0  0  0  0
   -1.7162    0.1932   -0.5167 P   0  0  0  0  0  4  0  0  0  0  0  0
    1.1588    0.6315    2.6535 O   0  5  0  0  0  0  0  0  0  0  0  0
    0.5598    2.7048    3.3355 O   0  0  0  0  0  0  0  0  0  0  0  0
    0.3844    1.6221    2.5940 C   0  0  0  0  0  0  0  0  0  0  0  0
    1.6922    2.7160    4.2281 C   0  0  0  0  0  0  0  0  0  0  0  0
    1.6234    3.6646    4.7867 H   0  0  0  0  0  0  0  0  0  0  0  0
    2.6361    2.6743    3.6492 H   0  0  0  0  0  0  0  0  0  0  0  0
    1.6520    1.8500    4.9165 H   0  0  0  0  0  0  0  0  0  0  0  0
   -0.7228    1.6064    1.6487 C   0  0  0  0  0  0  0  0  0  0  0  0
   -1.3232    2.5106    1.4597 H   0  0  0  0  0  0  0  0  0  0  0  0
   -0.8103    0.3977    1.0122 C   0  0  0  0  0  2  0  0  0  0  0  0
   -0.3268   -0.2637   -1.6473 C   0  0  0  0  0  0  0  0  0  0  0  0
   -0.2827    0.4127   -2.5218 H   0  0  0  0  0  0  0  0  0  0  0  0
   -0.4949   -1.2942   -2.0187 H   0  0  0  0  0  0  0  0  0  0  0  0
    1.9431    1.3969   -0.7386 C   0  0  0  0  0  0  0  0  0  0  0  0
    2.7709    1.8395    0.3150 C   0  0  0  0  0  0  0  0  0  0  0  0
    2.9433    1.1863    1.1824 H   0  0  0  0  0  0  0  0  0  0  0  0
    3.3711    3.1063    0.2558 C   0  0  0  0  0  0  0  0  0  0  0  0
    4.0197    3.4421    1.0791 H   0  0  0  0  0  0  0  0  0  0  0  0
    3.1502    3.9412   -0.8506 C   0  0  0  0  0  0  0  0  0  0  0  0
    3.6182    4.9358   -0.8939 H   0  0  0  0  0  0  0  0  0  0  0  0
    2.3429    3.4983   -1.9110 C   0  0  0  0  0  0  0  0  0  0  0  0
    2.1856    4.1399   -2.7910 H   0  0  0  0  0  0  0  0  0  0  0  0
    1.7468    2.2291   -1.8608 C   0  0  0  0  0  0  0  0  0  0  0  0
    1.1475    1.8879   -2.7181 H   0  0  0  0  0  0  0  0  0  0  0  0
    2.3922   -1.3137   -1.6352 C   0  0  0  0  0  0  0  0  0  0  0  0
    3.6249   -0.7896   -2.0773 C   0  0  0  0  0  0  0  0  0  0  0  0
    3.9014    0.2495   -1.8493 H   0  0  0  0  0  0  0  0  0  0  0  0
    4.5067   -1.5963   -2.8125 C   0  0  0  0  0  0  0  0  0  0  0  0
    5.4665   -1.1795   -3.1523 H   0  0  0  0  0  0  0  0  0  0  0  0
    4.1679   -2.9235   -3.1138 C   0  0  0  0  0  0  0  0  0  0  0  0
    4.8616   -3.5525   -3.6912 H   0  0  0  0  0  0  0  0  0  0  0  0
    2.9427   -3.4495   -2.6727 C   0  0  0  0  0  0  0  0  0  0  0  0
    2.6732   -4.4914   -2.9007 H   0  0  0  0  0  0  0  0  0  0  0  0
    2.0590   -2.6546   -1.9305 C   0  0  0  0  0  0  0  0  0  0  0  0
    1.1145   -3.0949   -1.5800 H   0  0  0  0  0  0  0  0  0  0  0  0
   -2.8995   -1.1600   -0.3749 C   0  0  0  0  0  0  0  0  0  0  0  0
   -3.3301   -1.8554   -1.5234 C   0  0  0  0  0  0  0  0  0  0  0  0
   -2.9460   -1.5905   -2.5209 H   0  0  0  0  0  0  0  0  0  0  0  0
   -4.2585   -2.8963   -1.3893 C   0  0  0  0  0  0  0  0  0  0  0  0
   -4.5946   -3.4463   -2.2805 H   0  0  0  0  0  0  0  0  0  0  0  0
   -4.7526   -3.2391   -0.1196 C   0  0  0  0  0  0  0  0  0  0  0  0
   -5.4749   -4.0628   -0.0184 H   0  0  0  0  0  0  0  0  0  0  0  0
   -4.3262   -2.5399    1.0211 C   0  0  0  0  0  0  0  0  0  0  0  0
   -4.7110   -2.8133    2.0145 H   0  0  0  0  0  0  0  0  0  0  0  0
   -3.3988   -1.4963    0.8999 C   0  0  0  0  0  0  0  0  0  0  0  0
   -3.0500   -0.9569    1.7936 H   0  0  0  0  0  0  0  0  0  0  0  0
   -2.5585    1.6766   -1.1293 C   0  0  0  0  0  0  0  0  0  0  0  0
   -1.7968    2.8399   -1.3836 C   0  0  0  0  0  0  0  0  0  0  0  0
   -0.7037    2.8365   -1.2506 H   0  0  0  0  0  0  0  0  0  0  0  0
   -2.4424    4.0099   -1.8039 C   0  0  0  0  0  0  0  0  0  0  0  0
   -1.8514    4.9161   -2.0032 H   0  0  0  0  0  0  0  0  0  0  0  0
   -3.8382    4.0262   -1.9677 C   0  0  0  0  0  0  0  0  0  0  0  0
   -4.3405    4.9472   -2.2991 H   0  0  0  0  0  0  0  0  0  0  0  0
   -4.5936    2.8720   -1.7078 C   0  0  0  0  0  0  0  0  0  0  0  0
   -5.6861    2.8863   -1.8344 H   0  0  0  0  0  0  0  0  0  0  0  0
   -3.9602    1.6940   -1.2851 C   0  0  0  0  0  0  0  0  0  0  0  0
   -4.5528    0.7904   -1.0792 H   0  0  0  0  0  0  0  0  0  0  0  0
  2 38  1  0  0  0  0
  2 12  1  0  0  0  0
  4  6  1  0  0  0  0
  5  3  1  0  0  0  0
  5  4  1  0  0  0  0
  6  7  1  0  0  0  0
  6  9  1  0  0  0  0
  8  6  1  0  0  0  0
 10  5  2  0  0  0  0
 11 10  1  0  0  0  0
 12 10  1  0  0  0  0
 13  1  1  0  0  0  0
 13  2  1  0  0  0  0
 14 13  1  0  0  0  0
 15 13  1  0  0  0  0
 16  1  1  0  0  0  0
 16 17  1  0  0  0  0
 17 18  1  0  0  0  0
 19 17  2  0  0  0  0
 19 20  1  0  0  0  0
 21 19  1  0  0  0  0
 22 21  1  0  0  0  0
 23 25  1  0  0  0  0
 23 21  2  0  0  0  0
 24 23  1  0  0  0  0
 25 16  2  0  0  0  0
 26 25  1  0  0  0  0
 27  1  1  0  0  0  0
 28 29  1  0  0  0  0
 28 27  2  0  0  0  0
 30 28  1  0  0  0  0
 31 30  1  0  0  0  0
 32 30  2  0  0  0  0
 32 34  1  0  0  0  0
 33 32  1  0  0  0  0
 34 36  2  0  0  0  0
 35 34  1  0  0  0  0
 36 27  1  0  0  0  0
 36 37  1  0  0  0  0
 38 47  1  0  0  0  0
 39 41  1  0  0  0  0
 39 38  2  0  0  0  0
 40 39  1  0  0  0  0
 41 43  2  0  0  0  0
 42 41  1  0  0  0  0
 43 44  1  0  0  0  0
 43 45  1  0  0  0  0
 45 46  1  0  0  0  0
 47 45  2  0  0  0  0
 47 48  1  0  0  0  0
 49  2  1  0  0  0  0
 50 51  1  0  0  0  0
 50 49  2  0  0  0  0
 52 50  1  0  0  0  0
 53 52  1  0  0  0  0
 54 52  2  0  0  0  0
 54 56  1  0  0  0  0
 55 54  1  0  0  0  0
 56 58  2  0  0  0  0
 57 56  1  0  0  0  0
 58 49  1  0  0  0  0
 58 59  1  0  0  0  0
M  CHG  1   3  -1
M  END
