11,16,21,42,54
q = -1.0

 54 55  0  0  1  0  0  0  0  0999 V2000
    0.7759   -2.0577    0.3784 N   0  0  0  0  0  0  0  0  0  0  0  0
    0.0363   -2.6718    1.5239 C   0  0  0  0  0  0  0  0  0  0  0  0
    0.4381   -2.1961    2.4403 H   0  0  0  0  0  0  0  0  0  0  0  0
    0.3092   -3.7513    1.5556 H   0  0  0  0  0  0  0  0  0  0  0  0
   -1.4761   -2.5121    1.5133 C   0  0  0  0  0  0  0  0  0  0  0  0
   -1.8634   -3.1111    2.3627 H   0  0  0  0  0  0  0  0  0  0  0  0
   -1.9448   -2.9604    0.6131 H   0  0  0  0  0  0  0  0  0  0  0  0
   -1.9322   -1.0799    1.7233 C   0  0  0  0  0  0  0  0  0  0  0  0
   -3.0270   -1.0202    1.9052 H   0  0  0  0  0  0  0  0  0  0  0  0
   -1.3945   -0.6494    2.5897 H   0  0  0  0  0  0  0  0  0  0  0  0
   -1.6595   -0.1861    0.5613 N   0  0  0  0  0  0  0  0  0  0  0  0
   -2.0041    1.2118    0.9928 C   0  0  0  0  0  0  0  0  0  0  0  0
   -3.1209    1.2862    0.9590 H   0  0  0  0  0  0  0  0  0  0  0  0
   -1.6648    1.3373    2.0416 H   0  0  0  0  0  0  0  0  0  0  0  0
   -1.2522    2.1865    0.1581 C   0  0  2  0  0  3  0  0  0  0  0  0
   -0.0798    1.6896   -0.2933 N   0  0  0  0  0  2  0  0  0  0  0  0
    0.8082    2.4370   -0.9782 C   0  0  0  0  0  0  0  0  0  0  0  0
    2.0076    1.6432   -1.4006 C   0  0  0  0  0  0  0  0  0  0  0  0
    2.9108    2.2778   -1.5386 H   0  0  0  0  0  0  0  0  0  0  0  0
    1.7613    1.1574   -2.3672 H   0  0  0  0  0  0  0  0  0  0  0  0
    2.2609    0.5475   -0.4222 N   0  0  0  0  0  0  0  0  0  0  0  0
    3.1024   -0.4742   -1.0852 C   0  0  0  0  0  0  0  0  0  0  0  0
    4.1057   -0.0409   -1.3029 H   0  0  0  0  0  0  0  0  0  0  0  0
    2.6302   -0.6789   -2.0631 H   0  0  0  0  0  0  0  0  0  0  0  0
    3.2653   -1.7931   -0.3150 C   0  0  0  0  0  0  0  0  0  0  0  0
    3.3418   -2.5996   -1.0721 H   0  0  0  0  0  0  0  0  0  0  0  0
    4.2331   -1.8083    0.2274 H   0  0  0  0  0  0  0  0  0  0  0  0
    2.2204   -2.1566    0.7393 C   0  0  0  0  0  0  0  0  0  0  0  0
    2.4230   -3.2067    1.0514 H   0  0  0  0  0  0  0  0  0  0  0  0
    2.3440   -1.5344    1.6454 H   0  0  0  0  0  0  0  0  0  0  0  0
   -1.5998    3.5155   -0.1211 C   0  0  0  0  0  0  0  0  0  0  0  0
   -2.5656    3.9084    0.2254 H   0  0  0  0  0  0  0  0  0  0  0  0
   -0.6936    4.3151   -0.8337 C   0  0  0  0  0  0  0  0  0  0  0  0
   -0.9422    5.3631   -1.0564 H   0  0  0  0  0  0  0  0  0  0  0  0
    0.5341    3.7795   -1.2599 C   0  0  0  0  0  0  0  0  0  0  0  0
    1.2650    4.3898   -1.8087 H   0  0  0  0  0  0  0  0  0  0  0  0
    0.4682   -2.7503   -0.9014 C   0  0  0  0  0  0  0  0  0  0  0  0
   -0.5604   -3.1572   -0.8464 H   0  0  0  0  0  0  0  0  0  0  0  0
    1.1491   -3.6077   -1.0769 H   0  0  0  0  0  0  0  0  0  0  0  0
    0.4832   -1.7824   -2.0987 C   0  0  0  0  0  0  0  0  0  0  0  0
    0.7691   -2.1618   -3.2269 O   0  5  0  0  0  0  0  0  0  0  0  0
    0.1378   -0.5578   -1.7764 O   0  0  0  0  0  0  0  0  0  0  0  0
   -2.5012   -0.5490   -0.6029 C   0  0  0  0  0  0  0  0  0  0  0  0
   -2.2260   -1.5533   -0.9631 H   0  0  0  0  0  0  0  0  0  0  0  0
   -2.2757    0.1502   -1.4295 H   0  0  0  0  0  0  0  0  0  0  0  0
   -4.1036   -0.5585   -0.3864 C   0  0  0  0  0  0  0  0  0  0  0  0
   -4.6583   -1.1627   -1.3148 O   0  5  0  0  0  0  0  0  0  0  0  0
   -4.5494    0.0402    0.6294 O   0  0  0  0  0  0  0  0  0  0  0  0
    2.8261    1.0615    0.8573 C   0  0  0  0  0  0  0  0  0  0  0  0
    3.1427    2.1190    0.7496 H   0  0  0  0  0  0  0  0  0  0  0  0
    3.7421    0.4952    1.1199 H   0  0  0  0  0  0  0  0  0  0  0  0
    1.8791    0.9702    2.0828 C   0  0  0  0  0  0  0  0  0  0  0  0
    2.2511    1.4284    3.1527 O   0  5  0  0  0  0  0  0  0  0  0  0
    0.7416    0.3458    1.8808 O   0  0  0  0  0  0  0  0  0  0  0  0
  1 28  1  0  0  0  0
  1  2  1  0  0  0  0
  2  4  1  0  0  0  0
  2  3  1  0  0  0  0
  5  2  1  0  0  0  0
  5  8  1  0  0  0  0
  5  6  1  0  0  0  0
  7  5  1  0  0  0  0
  8  9  1  0  0  0  0
  8 10  1  0  0  0  0
 11 12  1  0  0  0  0
 11  8  1  0  0  0  0
 12 14  1  0  0  0  0
 13 12  1  0  0  0  0
 15 16  1  1  0  0  0
 15 12  1  0  0  0  0
 17 16  1  0  0  0  0
 18 17  1  0  0  0  0
 18 21  1  0  0  0  0
 19 18  1  0  0  0  0
 20 18  1  0  0  0  0
 21 49  1  0  0  0  0
 22 21  1  0  0  0  0
 22 25  1  0  0  0  0
 23 22  1  0  0  0  0
 24 22  1  0  0  0  0
 25 27  1  0  0  0  0
 25 28  1  0  0  0  0
 26 25  1  0  0  0  0
 28 29  1  0  0  0  0
 28 30  1  0  0  0  0
 31 15  1  0  0  0  0
 31 32  1  0  0  0  0
 33 31  2  0  0  0  0
 34 33  1  0  0  0  0
 35 17  2  0  0  0  0
 35 33  1  0  0  0  0
 36 35  1  0  0  0  0
 37 38  1  0  0  0  0
 37  1  1  0  0  0  0
 39 37  1  0  0  0  0
 40 42  2  0  0  0  0
 40 37  1  0  0  0  0
 41 40  1  0  0  0  0
 43 46  1  0  0  0  0
 43 11  1  0  0  0  0
 44 43  1  0  0  0  0
 45 43  1  0  0  0  0
 46 48  2  0  0  0  0
 47 46  1  0  0  0  0
 49 51  1  0  0  0  0
 49 52  1  0  0  0  0
 50 49  1  0  0  0  0
 52 53  1  0  0  0  0
 54 52  2  0  0  0  0
M  CHG  3  41  -1  47  -1  53  -1
M  END
