1,10,19,26,33,39
q = -2.0, confidence = 0.836

 44 43  0  0  1  0  0  0  0  0999 V2000
    1.5649   -2.0140    0.4543 N   0  0  0  0  0  0  0  0  0  0  0  0
    1.0059   -2.8473    0.2047 H   0  0  0  0  0  0  0  0  0  0  0  0
    1.9883   -2.1645    1.3813 H   0  0  0  0  0  0  0  0  0  0  0  0
    2.6145   -1.7786   -0.5684 C   0  0  0  0  0  0  0  0  0  0  0  0
    3.4138   -1.1614   -0.1136 H   0  0  0  0  0  0  0  0  0  0  0  0
    3.0811   -2.7260   -0.9076 H   0  0  0  0  0  0  0  0  0  0  0  0
    1.9414   -1.0589   -1.7215 C   0  0  0  0  0  0  0  0  0  0  0  0
    2.6706   -0.7608   -2.5053 H   0  0  0  0  0  0  0  0  0  0  0  0
    1.1751   -1.7129   -2.1831 H   0  0  0  0  0  0  0  0  0  0  0  0
    1.2328    0.1414   -1.1848 N   0  0  0  0  0  0  0  0  0  0  0  0
    0.3204    0.6877   -2.2208 C   0  0  0  0  0  0  0  0  0  0  0  0
    0.9092    0.9240   -3.1351 H   0  0  0  0  0  0  0  0  0  0  0  0
   -0.3630   -0.1396   -2.4905 H   0  0  0  0  0  0  0  0  0  0  0  0
   -0.4576    1.9348   -1.7936 C   0  0  0  0  0  0  0  0  0  0  0  0
    0.1408    2.8501   -1.9788 H   0  0  0  0  0  0  0  0  0  0  0  0
   -1.3190    2.0266   -2.4880 H   0  0  0  0  0  0  0  0  0  0  0  0
   -0.9420    2.0332   -0.3335 C   0  0  2  0  0  0  0  0  0  0  0  0
   -0.0921    2.3374    0.3096 H   0  0  0  0  0  0  0  0  0  0  0  0
   -1.3521    0.6977    0.2320 N   0  0  0  0  0  0  0  0  0  0  0  0
   -1.7951    0.8432    1.6522 C   0  0  0  0  0  0  0  0  0  0  0  0
   -2.7716    1.3664    1.7095 H   0  0  0  0  0  0  0  0  0  0  0  0
   -1.0333    1.4573    2.1733 H   0  0  0  0  0  0  0  0  0  0  0  0
   -1.8851   -0.5307    2.2873 C   0  0  0  0  0  0  0  0  0  0  0  0
   -2.6672   -1.1498    1.8058 H   0  0  0  0  0  0  0  0  0  0  0  0
   -2.1444   -0.4512    3.3631 H   0  0  0  0  0  0  0  0  0  0  0  0
   -0.5740   -1.1892    2.0816 N   0  0  0  0  0  0  0  0  0  0  0  0
    0.1099   -0.8517    2.7800 H   0  0  0  0  0  0  0  0  0  0  0  0
   -0.6622   -2.2115    2.1724 H   0  0  0  0  0  0  0  0  0  0  0  0
    2.2039    1.1550   -0.6655 C   0  0  0  0  0  0  0  0  0  0  0  0
    3.2161    0.9871   -1.0838 H   0  0  0  0  0  0  0  0  0  0  0  0
    1.9042    2.1662   -0.9991 H   0  0  0  0  0  0  0  0  0  0  0  0
    2.2769    1.1928    0.8763 C   0  0  0  0  0  0  0  0  0  0  0  0
    1.2829    0.5509    1.4700 O   0  5  0  0  0  0  0  0  0  0  0  0
    3.1547    1.8043    1.4520 O   0  0  0  0  0  0  0  0  0  0  0  0
   -2.3965    0.0070   -0.5854 C   0  0  0  0  0  0  0  0  0  0  0  0
   -3.3950    0.0816   -0.1114 H   0  0  0  0  0  0  0  0  0  0  0  0
   -2.4944    0.5050   -1.5686 H   0  0  0  0  0  0  0  0  0  0  0  0
   -2.0729   -1.4762   -0.8671 C   0  0  0  0  0  0  0  0  0  0  0  0
   -0.8192   -1.8097   -0.6032 O   0  5  0  0  0  0  0  0  0  0  0  0
   -2.9082   -2.2256   -1.3327 O   0  0  0  0  0  0  0  0  0  0  0  0
   -2.0332    3.1040   -0.2272 C   0  0  0  0  0  0  0  0  0  0  0  0
   -2.2842    3.3577    0.8193 H   0  0  0  0  0  0  0  0  0  0  0  0
   -2.9604    2.8007   -0.7545 H   0  0  0  0  0  0  0  0  0  0  0  0
   -1.6729    4.0356   -0.7053 H   0  0  0  0  0  0  0  0  0  0  0  0
  1  3  1  0  0  0  0
  2  1  1  0  0  0  0
  4  5  1  0  0  0  0
  4  1  1  0  0  0  0
  6  4  1  0  0  0  0
  7 10  1  0  0  0  0
  7  4  1  0  0  0  0
  8  7  1  0  0  0  0
  9  7  1  0  0  0  0
 10 29  1  0  0  0  0
 11 14  1  0  0  0  0
 11 10  1  0  0  0  0
 12 11  1  0  0  0  0
 13 11  1  0  0  0  0
 14 17  1  0  0  0  0
 15 14  1  0  0  0  0
 16 14  1  0  0  0  0
 17 41  1  0  0  0  0
 17 19  1  0  0  0  0
 17 18  1  1  0  0  0
 19 20  1  0  0  0  0
 20 21  1  0  0  0  0
 20 22  1  0  0  0  0
 20 23  1  0  0  0  0
 23 25  1  0  0  0  0
 24 23  1  0  0  0  0
 26 28  1  0  0  0  0
 26 23  1  0  0  0  0
 26 27  1  0  0  0  0
 29 32  1  0  0  0  0
 30 29  1  0  0  0  0
 31 29  1  0  0  0  0
 32 34  2  0  0  0  0
 32 33  1  0  0  0  0
 35 36  1  0  0  0  0
 35 19  1  0  0  0  0
 37 35  1  0  0  0  0
 38 39  1  0  0  0  0
 38 35  1  0  0  0  0
 40 38  2  0  0  0  0
 41 42  1  0  0  0  0
 43 41  1  0  0  0  0
 44 41  1  0  0  0  0
M  CHG  2  33  -1  39  -1
M  END
