1,3,4,5,6,7
q = -2.0, confidence = 0.816

 58 59  0  0  0  0  0  0  0  0999 V2000
    1.6901    0.7230   -0.6366 O   0  5  0  0  0  0  0  0  0  0  0  0
   -0.3889    3.4650   -1.7138 O   0  0  0  0  0  0  0  0  0  0  0  0
   -1.5557    0.0591    1.2500 O   0  5  0  0  0  0  0  0  0  0  0  0
    1.0465   -0.0205    1.9003 N   0  0  0  0  0  0  0  0  0  0  0  0
    0.0052    2.2200    0.7649 N   0  0  0  0  0  0  0  0  0  0  0  0
   -0.7858    0.7276   -1.5280 N   0  0  0  0  0  0  0  0  0  0  0  0
    0.1474   -1.5681   -0.4149 N   0  0  0  0  0  0  0  0  0  0  0  0
    2.7717   -0.0519   -0.5005 C   0  0  0  0  0  0  0  0  0  0  0  0
    3.7276   -0.0289   -1.5550 C   0  0  0  0  0  0  0  0  0  0  0  0
    3.5067    0.6191   -2.4163 H   0  0  0  0  0  0  0  0  0  0  0  0
    4.9035   -0.7764   -1.4961 C   0  0  0  0  0  0  0  0  0  0  0  0
    5.6212   -0.7258   -2.3288 H   0  0  0  0  0  0  0  0  0  0  0  0
    5.1697   -1.5915   -0.3803 C   0  0  0  0  0  0  0  0  0  0  0  0
    6.0926   -2.1858   -0.3255 H   0  0  0  0  0  0  0  0  0  0  0  0
    4.2439   -1.6296    0.6651 C   0  0  0  0  0  0  0  0  0  0  0  0
    4.4506   -2.2583    1.5469 H   0  0  0  0  0  0  0  0  0  0  0  0
    3.0463   -0.8810    0.6358 C   0  0  0  0  0  0  0  0  0  0  0  0
    2.1087   -1.0397    1.8205 C   0  0  0  0  0  0  0  0  0  0  0  0
    1.6101   -2.0346    1.8143 H   0  0  0  0  0  0  0  0  0  0  0  0
    2.7013   -1.0220    2.7622 H   0  0  0  0  0  0  0  0  0  0  0  0
    1.5432    1.2903    2.3797 C   0  0  0  0  0  0  0  0  0  0  0  0
    2.4337    1.5527    1.7739 H   0  0  0  0  0  0  0  0  0  0  0  0
    1.8571    1.2338    3.4436 H   0  0  0  0  0  0  0  0  0  0  0  0
    0.4304    2.2959    2.1776 C   0  0  0  0  0  0  0  0  0  0  0  0
   -0.4483    2.0323    2.8015 H   0  0  0  0  0  0  0  0  0  0  0  0
    0.7493    3.3238    2.4542 H   0  0  0  0  0  0  0  0  0  0  0  0
   -1.2372    2.9646    0.5094 C   0  0  0  0  0  0  0  0  0  0  0  0
   -1.1354    3.9994    0.9082 H   0  0  0  0  0  0  0  0  0  0  0  0
   -2.0567    2.4580    1.0562 H   0  0  0  0  0  0  0  0  0  0  0  0
   -1.5369    3.0215   -0.9909 C   0  0  0  0  0  0  0  0  0  0  0  0
   -2.4076    3.6984   -1.1406 H   0  0  0  0  0  0  0  0  0  0  0  0
   -1.9201    1.6660   -1.5719 C   0  0  0  0  0  0  0  0  0  0  0  0
   -2.7696    1.2248   -1.0132 H   0  0  0  0  0  0  0  0  0  0  0  0
   -2.2358    1.8084   -2.6282 H   0  0  0  0  0  0  0  0  0  0  0  0
   -1.0691   -0.5262   -2.2674 C   0  0  0  0  0  0  0  0  0  0  0  0
   -1.0868   -0.3434   -3.3633 H   0  0  0  0  0  0  0  0  0  0  0  0
   -2.0715   -0.8838   -1.9651 H   0  0  0  0  0  0  0  0  0  0  0  0
   -0.0009   -1.5372   -1.8967 C   0  0  0  0  0  0  0  0  0  0  0  0
   -0.2502   -2.5450   -2.2901 H   0  0  0  0  0  0  0  0  0  0  0  0
    0.9813   -1.2385   -2.3144 H   0  0  0  0  0  0  0  0  0  0  0  0
   -0.7936   -2.4894    0.2908 C   0  0  0  0  0  0  0  0  0  0  0  0
   -0.4350   -2.5455    1.3425 H   0  0  0  0  0  0  0  0  0  0  0  0
   -0.7028   -3.5083   -0.1423 H   0  0  0  0  0  0  0  0  0  0  0  0
   -2.2230   -2.0330    0.2643 C   0  0  0  0  0  0  0  0  0  0  0  0
   -3.2579   -2.8515   -0.2193 C   0  0  0  0  0  0  0  0  0  0  0  0
   -3.0103   -3.8441   -0.6295 H   0  0  0  0  0  0  0  0  0  0  0  0
   -4.5947   -2.4277   -0.1736 C   0  0  0  0  0  0  0  0  0  0  0  0
   -5.3955   -3.0782   -0.5529 H   0  0  0  0  0  0  0  0  0  0  0  0
   -4.8970   -1.1683    0.3726 C   0  0  0  0  0  0  0  0  0  0  0  0
   -5.9432   -0.8305    0.4263 H   0  0  0  0  0  0  0  0  0  0  0  0
   -3.8778   -0.3329    0.8479 C   0  0  0  0  0  0  0  0  0  0  0  0
   -4.1099    0.6490    1.2883 H   0  0  0  0  0  0  0  0  0  0  0  0
   -2.5213   -0.7440    0.7997 C   0  0  0  0  0  0  0  0  0  0  0  0
    0.0412    1.1858   -1.9556 H   0  0  0  0  0  0  0  0  0  0  0  0
    0.2801   -0.3432    2.5157 H   0  0  0  0  0  0  0  0  0  0  0  0
    0.7510    2.5915    0.1471 H   0  0  0  0  0  0  0  0  0  0  0  0
    1.1142   -1.8845   -0.2291 H   0  0  0  0  0  0  0  0  0  0  0  0
   -0.3353    4.4371   -1.6748 H   0  0  0  0  0  0  0  0  0  0  0  0
  1  8  1  0  0  0  0
  2 58  1  0  0  0  0
  2 30  1  0  0  0  0
  4 21  1  0  0  0  0
  4 55  1  0  0  0  0
  5 24  1  0  0  0  0
  7 57  1  0  0  0  0
  7 41  1  0  0  0  0
  8 17  1  0  0  0  0
  9 11  1  0  0  0  0
  9  8  2  0  0  0  0
 10  9  1  0  0  0  0
 11 13  2  0  0  0  0
 12 11  1  0  0  0  0
 13 14  1  0  0  0  0
 13 15  1  0  0  0  0
 15 16  1  0  0  0  0
 17 15  2  0  0  0  0
 17 18  1  0  0  0  0
 18  4  1  0  0  0  0
 18 20  1  0  0  0  0
 19 18  1  0  0  0  0
 21 23  1  0  0  0  0
 22 21  1  0  0  0  0
 24 21  1  0  0  0  0
 24 26  1  0  0  0  0
 24 25  1  0  0  0  0
 27  5  1  0  0  0  0
 27 28  1  0  0  0  0
 27 29  1  0  0  0  0
 30 27  1  0  0  0  0
 31 30  1  0  0  0  0
 32  6  1  0  0  0  0
 32 33  1  0  0  0  0
 32 30  1  0  0  0  0
 34 32  1  0  0  0  0
 35 37  1  0  0  0  0
 35 38  1  0  0  0  0
 35  6  1  0  0  0  0
 36 35  1  0  0  0  0
 38  7  1  0  0  0  0
 39 38  1  0  0  0  0
 40 38  1  0  0  0  0
 41 42  1  0  0  0  0
 43 41  1  0  0  0  0
 44 41  1  0  0  0  0
 44 53  1  0  0  0  0
 45 47  1  0  0  0  0
 45 44  2  0  0  0  0
 46 45  1  0  0  0  0
 47 49  2  0  0  0  0
 48 47  1  0  0  0  0
 49 50  1  0  0  0  0
 49 51  1  0  0  0  0
 51 52  1  0  0  0  0
 53 51  2  0  0  0  0
 53  3  1  0  0  0  0
 54  6  1  0  0  0  0
 56  5  1  0  0  0  0
M  CHG  2   1  -1   3  -1
M  END
