5,7,9,10,11,12
q = -2.0, confidence = 0.814

 76 79  0  0  0  0  0  0  0  0999 V2000
    5.0605   -0.1524   -1.0254 S   0  0  0  0  0  0  0  0  0  0  0  0
    5.0606    0.1524    1.0254 S   0  0  0  0  0  0  0  0  0  0  0  0
   -0.8300    1.7596    1.5072 S   0  0  0  0  0  0  0  0  0  0  0  0
   -0.8301   -1.7596   -1.5071 S   0  0  0  0  0  0  0  0  0  0  0  0
   -0.9357    0.2435    1.5746 O   0  0  0  0  0  1  0  0  0  0  0  0
   -0.5250    2.4931    2.7596 O   0  0  0  0  0  1  0  0  0  0  0  0
   -0.9357   -0.2435   -1.5746 O   0  0  0  0  0  1  0  0  0  0  0  0
   -0.5251   -2.4930   -2.7595 O   0  0  0  0  0  1  0  0  0  0  0  0
    1.8590    0.3490   -1.3961 N   0  0  0  0  0  2  0  0  0  0  0  0
    0.3340    1.8513    0.3309 N   0  0  0  0  0  2  0  0  0  0  0  0
    1.8590   -0.3491    1.3962 N   0  0  0  0  0  2  0  0  0  0  0  0
    0.3339   -1.8513   -0.3308 N   0  0  0  0  0  2  0  0  0  0  0  0
    3.6990   -1.3614   -1.3341 C   0  0  0  0  0  0  0  0  0  0  0  0
    4.1287   -2.1949   -1.9273 H   0  0  0  0  0  0  0  0  0  0  0  0
    3.3883   -1.7712   -0.3559 H   0  0  0  0  0  0  0  0  0  0  0  0
    2.5254   -0.7518   -2.1037 C   0  0  0  0  0  0  0  0  0  0  0  0
    2.8855   -0.3834   -3.0888 H   0  0  0  0  0  0  0  0  0  0  0  0
    1.7875   -1.5506   -2.3118 H   0  0  0  0  0  0  0  0  0  0  0  0
    2.1490    1.5586   -1.8386 C   0  0  0  0  0  3  0  0  0  0  0  0
    2.8371    1.6127   -2.7035 H   0  0  0  0  0  0  0  0  0  0  0  0
    1.7161    2.8422   -1.3425 C   0  0  0  0  0  0  0  0  0  0  0  0
    2.2237    4.0057   -1.9805 C   0  0  0  0  0  0  0  0  0  0  0  0
    2.9173    3.8735   -2.8261 H   0  0  0  0  0  0  0  0  0  0  0  0
    1.8689    5.2857   -1.5625 C   0  0  0  0  0  0  0  0  0  0  0  0
    2.2745    6.1706   -2.0734 H   0  0  0  0  0  0  0  0  0  0  0  0
    0.9883    5.4313   -0.4682 C   0  0  0  0  0  0  0  0  0  0  0  0
    0.7096    6.4370   -0.1175 H   0  0  0  0  0  0  0  0  0  0  0  0
    0.4710    4.3157    0.1897 C   0  0  0  0  0  0  0  0  0  0  0  0
   -0.1886    4.4416    1.0586 H   0  0  0  0  0  0  0  0  0  0  0  0
    0.8096    3.0038   -0.2370 C   0  0  0  0  0  0  0  0  0  0  0  0
   -2.3766    2.3972    0.8708 C   0  0  0  0  0  0  0  0  0  0  0  0
   -2.9070    1.8761   -0.3225 C   0  0  0  0  0  0  0  0  0  0  0  0
   -2.3765    1.0837   -0.8733 H   0  0  0  0  0  0  0  0  0  0  0  0
   -4.1199    2.3896   -0.7912 C   0  0  0  0  0  0  0  0  0  0  0  0
   -4.5439    1.9876   -1.7250 H   0  0  0  0  0  0  0  0  0  0  0  0
   -4.8110    3.4085   -0.0967 C   0  0  0  0  0  0  0  0  0  0  0  0
   -4.2499    3.9027    1.0980 C   0  0  0  0  0  0  0  0  0  0  0  0
   -4.7754    4.6927    1.6569 H   0  0  0  0  0  0  0  0  0  0  0  0
   -3.0349    3.4056    1.5891 C   0  0  0  0  0  0  0  0  0  0  0  0
   -2.5929    3.7806    2.5233 H   0  0  0  0  0  0  0  0  0  0  0  0
   -6.1066    3.9559   -0.6365 C   0  0  0  0  0  0  0  0  0  0  0  0
   -6.5988    4.6353    0.0853 H   0  0  0  0  0  0  0  0  0  0  0  0
   -6.8164    3.1405   -0.8846 H   0  0  0  0  0  0  0  0  0  0  0  0
   -5.9351    4.5259   -1.5742 H   0  0  0  0  0  0  0  0  0  0  0  0
    3.6989    1.3613    1.3341 C   0  0  0  0  0  0  0  0  0  0  0  0
    4.1287    2.1948    1.9273 H   0  0  0  0  0  0  0  0  0  0  0  0
    3.3883    1.7712    0.3560 H   0  0  0  0  0  0  0  0  0  0  0  0
    2.5254    0.7517    2.1038 C   0  0  0  0  0  0  0  0  0  0  0  0
    2.8856    0.3833    3.0888 H   0  0  0  0  0  0  0  0  0  0  0  0
    1.7875    1.5505    2.3119 H   0  0  0  0  0  0  0  0  0  0  0  0
    2.1490   -1.5587    1.8386 C   0  0  0  0  0  3  0  0  0  0  0  0
    2.8371   -1.6128    2.7034 H   0  0  0  0  0  0  0  0  0  0  0  0
    1.7161   -2.8422    1.3424 C   0  0  0  0  0  0  0  0  0  0  0  0
    2.2237   -4.0057    1.9804 C   0  0  0  0  0  0  0  0  0  0  0  0
    2.9173   -3.8736    2.8260 H   0  0  0  0  0  0  0  0  0  0  0  0
    1.8689   -5.2858    1.5623 C   0  0  0  0  0  0  0  0  0  0  0  0
    2.2745   -6.1707    2.0732 H   0  0  0  0  0  0  0  0  0  0  0  0
    0.9882   -5.4313    0.4681 C   0  0  0  0  0  0  0  0  0  0  0  0
    0.7095   -6.4370    0.1174 H   0  0  0  0  0  0  0  0  0  0  0  0
    0.4709   -4.3157   -0.1898 C   0  0  0  0  0  0  0  0  0  0  0  0
   -0.1887   -4.4415   -1.0586 H   0  0  0  0  0  0  0  0  0  0  0  0
    0.8095   -3.0038    0.2369 C   0  0  0  0  0  0  0  0  0  0  0  0
   -2.3767   -2.3971   -0.8707 C   0  0  0  0  0  0  0  0  0  0  0  0
   -3.0350   -3.4055   -1.5891 C   0  0  0  0  0  0  0  0  0  0  0  0
   -2.5931   -3.7804   -2.5234 H   0  0  0  0  0  0  0  0  0  0  0  0
   -4.2500   -3.9025   -1.0980 C   0  0  0  0  0  0  0  0  0  0  0  0
   -4.7756   -4.6925   -1.6570 H   0  0  0  0  0  0  0  0  0  0  0  0
   -4.8111   -3.4084    0.0967 C   0  0  0  0  0  0  0  0  0  0  0  0
   -4.1200   -2.3895    0.7913 C   0  0  0  0  0  0  0  0  0  0  0  0
   -4.5440   -1.9875    1.7250 H   0  0  0  0  0  0  0  0  0  0  0  0
   -2.9070   -1.8761    0.3226 C   0  0  0  0  0  0  0  0  0  0  0  0
   -2.3766   -1.0837    0.8734 H   0  0  0  0  0  0  0  0  0  0  0  0
   -6.1066   -3.9559    0.6366 C   0  0  0  0  0  0  0  0  0  0  0  0
   -6.5998   -4.6338   -0.0860 H   0  0  0  0  0  0  0  0  0  0  0  0
   -6.8157   -3.1405    0.8868 H   0  0  0  0  0  0  0  0  0  0  0  0
   -5.9347   -4.5278    1.5731 H   0  0  0  0  0  0  0  0  0  0  0  0
  1  2  1  0  0  0  0
  2 45  1  0  0  0  0
  3  5  1  0  0  0  0
  3  6  1  0  0  0  0
  4 63  1  0  0  0  0
  4 12  1  0  0  0  0
  7  4  1  0  0  0  0
  8  4  1  0  0  0  0
 10  3  1  0  0  0  0
 11 51  1  0  0  0  0
 11 48  1  0  0  0  0
 12 62  1  0  0  0  0
 13  1  1  0  0  0  0
 13 15  1  0  0  0  0
 14 13  1  0  0  0  0
 16  9  1  0  0  0  0
 16 13  1  0  0  0  0
 17 16  1  0  0  0  0
 18 16  1  0  0  0  0
 19  9  1  0  0  0  0
 19 21  1  0  0  0  0
 20 19  1  0  0  0  0
 21 30  1  0  0  0  0
 22 24  1  0  0  0  0
 22 21  2  0  0  0  0
 23 22  1  0  0  0  0
 24 26  2  0  0  0  0
 25 24  1  0  0  0  0
 26 27  1  0  0  0  0
 26 28  1  0  0  0  0
 28 29  1  0  0  0  0
 30 28  2  0  0  0  0
 30 10  1  0  0  0  0
 31  3  1  0  0  0  0
 31 39  1  0  0  0  0
 32 31  2  0  0  0  0
 33 32  1  0  0  0  0
 34 32  1  0  0  0  0
 34 36  2  0  0  0  0
 35 34  1  0  0  0  0
 36 37  1  0  0  0  0
 37 39  2  0  0  0  0
 37 38  1  0  0  0  0
 39 40  1  0  0  0  0
 41 36  1  0  0  0  0
 41 42  1  0  0  0  0
 43 41  1  0  0  0  0
 44 41  1  0  0  0  0
 45 46  1  0  0  0  0
 45 48  1  0  0  0  0
 47 45  1  0  0  0  0
 48 50  1  0  0  0  0
 48 49  1  0  0  0  0
 51 52  1  0  0  0  0
 53 51  1  0  0  0  0
 53 54  1  0  0  0  0
 54 55  1  0  0  0  0
 56 54  2  0  0  0  0
 56 57  1  0  0  0  0
 58 56  1  0  0  0  0
 59 58  1  0  0  0  0
 60 62  1  0  0  0  0
 60 58  2  0  0  0  0
 61 60  1  0  0  0  0
 62 53  2  0  0  0  0
 63 71  1  0  0  0  0
 64 66  1  0  0  0  0
 64 63  2  0  0  0  0
 65 64  1  0  0  0  0
 66 68  2  0  0  0  0
 67 66  1  0  0  0  0
 68 73  1  0  0  0  0
 68 69  1  0  0  0  0
 69 70  1  0  0  0  0
 71 69  2  0  0  0  0
 71 72  1  0  0  0  0
 73 75  1  0  0  0  0
 73 76  1  0  0  0  0
 74 73  1  0  0  0  0
M  END
