1,2,3,4,7,8
q = -2.0, confidence = 0.8

 69 72  0  0  1  0  0  0  0  0999 V2000
    1.5230    1.8102    0.5712 N   0  0  0  0  0  0  0  0  0  0  0  0
   -1.5228    1.8100   -0.5716 N   0  0  0  0  0  0  0  0  0  0  0  0
    1.3945    0.1613   -1.6619 N   0  0  0  0  0  2  0  0  0  0  0  0
   -1.3946    0.1619    1.6621 N   0  0  0  0  0  2  0  0  0  0  0  0
    6.7199   -0.8074    0.5942 N   0  0  0  0  0  0  0  0  0  0  0  0
   -6.7199   -0.8075   -0.5946 N   0  0  0  0  0  0  0  0  0  0  0  0
    1.1633   -1.2592    0.9324 O   0  5  0  0  0  0  0  0  0  0  0  0
   -1.1633   -1.2596   -0.9313 O   0  5  0  0  0  0  0  0  0  0  0  0
    7.3658   -1.7958    0.2259 O   0  0  0  0  0  0  0  0  0  0  0  0
    7.2183    0.3032    0.8275 O   0  0  0  0  0  0  0  0  0  0  0  0
   -7.2182    0.3030   -0.8285 O   0  0  0  0  0  0  0  0  0  0  0  0
   -7.3660   -1.7957   -0.2261 O   0  0  0  0  0  0  0  0  0  0  0  0
    0.7837    2.9842    1.0563 C   0  0  0  0  0  0  0  0  0  0  0  0
    1.4724    3.6928    1.5806 H   0  0  0  0  0  0  0  0  0  0  0  0
    0.0931    2.6010    1.8363 H   0  0  0  0  0  0  0  0  0  0  0  0
   -0.7836    2.9839   -1.0570 C   0  0  0  0  0  0  0  0  0  0  0  0
   -1.4723    3.6923   -1.5815 H   0  0  0  0  0  0  0  0  0  0  0  0
   -0.0930    2.6006   -1.8370 H   0  0  0  0  0  0  0  0  0  0  0  0
    2.4126    2.0742   -0.5688 C   0  0  0  0  0  0  0  0  0  0  0  0
    3.4237    2.4077   -0.2435 H   0  0  0  0  0  0  0  0  0  0  0  0
    1.9865    2.9031   -1.1692 H   0  0  0  0  0  0  0  0  0  0  0  0
    2.5325    0.8625   -1.4699 C   0  0  2  0  0  3  0  0  0  0  0  0
    3.7331    0.5075   -2.1060 C   0  0  0  0  0  0  0  0  0  0  0  0
    4.6515    1.0765   -1.9008 H   0  0  0  0  0  0  0  0  0  0  0  0
    3.7421   -0.6028   -2.9575 C   0  0  0  0  0  0  0  0  0  0  0  0
    4.6756   -0.9153   -3.4490 H   0  0  0  0  0  0  0  0  0  0  0  0
    2.5539   -1.3258   -3.1512 C   0  0  0  0  0  0  0  0  0  0  0  0
    2.5232   -2.2118   -3.8008 H   0  0  0  0  0  0  0  0  0  0  0  0
    1.4007   -0.9145   -2.4750 C   0  0  0  0  0  0  0  0  0  0  0  0
    0.4440   -1.4587   -2.5329 H   0  0  0  0  0  0  0  0  0  0  0  0
    2.2771    1.1979    1.7076 C   0  0  0  0  0  0  0  0  0  0  0  0
    1.5150    0.8625    2.4428 H   0  0  0  0  0  0  0  0  0  0  0  0
    2.9068    1.9828    2.1905 H   0  0  0  0  0  0  0  0  0  0  0  0
    3.1319    0.0401    1.2858 C   0  0  0  0  0  0  0  0  0  0  0  0
    4.5213    0.1401    1.2034 C   0  0  0  0  0  0  0  0  0  0  0  0
    5.0524    1.0667    1.4667 H   0  0  0  0  0  0  0  0  0  0  0  0
    5.2760   -0.9517    0.7465 C   0  0  0  0  0  0  0  0  0  0  0  0
    4.6532   -2.1736    0.4136 C   0  0  0  0  0  0  0  0  0  0  0  0
    5.2865   -3.0039    0.0719 H   0  0  0  0  0  0  0  0  0  0  0  0
    3.2729   -2.2897    0.5090 C   0  0  0  0  0  0  0  0  0  0  0  0
    2.7595   -3.2250    0.2421 H   0  0  0  0  0  0  0  0  0  0  0  0
    2.4568   -1.1833    0.9180 C   0  0  0  0  0  0  0  0  0  0  0  0
   -2.4125    2.0744    0.5683 C   0  0  0  0  0  0  0  0  0  0  0  0
   -1.9866    2.9034    1.1684 H   0  0  0  0  0  0  0  0  0  0  0  0
   -3.4236    2.4078    0.2427 H   0  0  0  0  0  0  0  0  0  0  0  0
   -2.5325    0.8630    1.4697 C   0  0  2  0  0  3  0  0  0  0  0  0
   -3.7333    0.5081    2.1057 C   0  0  0  0  0  0  0  0  0  0  0  0
   -4.6517    1.0770    1.9001 H   0  0  0  0  0  0  0  0  0  0  0  0
   -3.7424   -0.6019    2.9575 C   0  0  0  0  0  0  0  0  0  0  0  0
   -4.6759   -0.9144    3.4489 H   0  0  0  0  0  0  0  0  0  0  0  0
   -2.5542   -1.3248    3.1516 C   0  0  0  0  0  0  0  0  0  0  0  0
   -2.5235   -2.2106    3.8015 H   0  0  0  0  0  0  0  0  0  0  0  0
   -1.4009   -0.9136    2.4756 C   0  0  0  0  0  0  0  0  0  0  0  0
   -0.4441   -1.4578    2.5338 H   0  0  0  0  0  0  0  0  0  0  0  0
   -2.2769    1.1973   -1.7079 C   0  0  0  0  0  0  0  0  0  0  0  0
   -1.5147    0.8616   -2.4428 H   0  0  0  0  0  0  0  0  0  0  0  0
   -2.9064    1.9820   -2.1911 H   0  0  0  0  0  0  0  0  0  0  0  0
   -3.1317    0.0397   -1.2857 C   0  0  0  0  0  0  0  0  0  0  0  0
   -4.5211    0.1398   -1.2036 C   0  0  0  0  0  0  0  0  0  0  0  0
   -5.0521    1.0663   -1.4673 H   0  0  0  0  0  0  0  0  0  0  0  0
   -5.2760   -0.9518   -0.7465 C   0  0  0  0  0  0  0  0  0  0  0  0
   -4.6533   -2.1737   -0.4130 C   0  0  0  0  0  0  0  0  0  0  0  0
   -5.2867   -3.0038   -0.0712 H   0  0  0  0  0  0  0  0  0  0  0  0
   -3.2730   -2.2898   -0.5082 C   0  0  0  0  0  0  0  0  0  0  0  0
   -2.7597   -3.2251   -0.2408 H   0  0  0  0  0  0  0  0  0  0  0  0
   -2.4567   -1.1837   -0.9173 C   0  0  0  0  0  0  0  0  0  0  0  0
    0.0001    3.7732   -0.0005 C   0  0  0  0  0  0  0  0  0  0  0  0
   -0.6786    4.4556    0.5533 H   0  0  0  0  0  0  0  0  0  0  0  0
    0.6788    4.4555   -0.5544 H   0  0  0  0  0  0  0  0  0  0  0  0
  1 13  1  0  0  0  0
  1 31  1  0  0  0  0
  2 43  1  0  0  0  0
  3 22  1  0  0  0  0
  4 53  1  0  0  0  0
  5 37  1  0  0  0  0
  5 10  2  0  0  0  0
  6 12  2  0  0  0  0
  8 66  1  0  0  0  0
  9  5  2  0  0  0  0
 11  6  2  0  0  0  0
 13 14  1  0  0  0  0
 13 15  1  0  0  0  0
 16  2  1  0  0  0  0
 16 67  1  0  0  0  0
 17 16  1  0  0  0  0
 18 16  1  0  0  0  0
 19 20  1  0  0  0  0
 19  1  1  0  0  0  0
 21 19  1  0  0  0  0
 22 19  1  6  0  0  0
 23 24  1  0  0  0  0
 23 22  1  0  0  0  0
 25 23  2  0  0  0  0
 26 25  1  0  0  0  0
 27 25  1  0  0  0  0
 27 29  2  0  0  0  0
 28 27  1  0  0  0  0
 29  3  1  0  0  0  0
 30 29  1  0  0  0  0
 31 33  1  0  0  0  0
 31 32  1  0  0  0  0
 34 31  1  0  0  0  0
 35 34  1  0  0  0  0
 35 36  1  0  0  0  0
 37 35  2  0  0  0  0
 38 40  2  0  0  0  0
 38 37  1  0  0  0  0
 39 38  1  0  0  0  0
 40 42  1  0  0  0  0
 41 40  1  0  0  0  0
 42  7  1  0  0  0  0
 42 34  2  0  0  0  0
 43 44  1  0  0  0  0
 45 43  1  0  0  0  0
 46 43  1  1  0  0  0
 46  4  1  0  0  0  0
 46 47  1  0  0  0  0
 47 49  2  0  0  0  0
 48 47  1  0  0  0  0
 49 51  1  0  0  0  0
 49 50  1  0  0  0  0
 51 52  1  0  0  0  0
 53 54  1  0  0  0  0
 53 51  2  0  0  0  0
 55 58  1  0  0  0  0
 55  2  1  0  0  0  0
 56 55  1  0  0  0  0
 57 55  1  0  0  0  0
 58 59  2  0  0  0  0
 58 66  1  0  0  0  0
 59 61  1  0  0  0  0
 60 59  1  0  0  0  0
 61  6  1  0  0  0  0
 61 62  2  0  0  0  0
 62 63  1  0  0  0  0
 64 62  1  0  0  0  0
 64 65  1  0  0  0  0
 66 64  2  0  0  0  0
 67 68  1  0  0  0  0
 67 13  1  0  0  0  0
 69 67  1  0  0  0  0
M  CHG  2   7  -1   8  -1
M  END
