1,2,4,6,7,11
q = -2.0, confidence = 0.992

 56 57  0  0  0  0  0  0  0  0999 V2000
   -1.0221   -1.9429   -1.1492 N   0  0  0  0  0  2  0  0  0  0  0  0
   -3.3787   -1.4251    0.4269 N   0  0  0  0  0  0  0  0  0  0  0  0
   -3.2018   -1.8808    1.3305 H   0  0  0  0  0  0  0  0  0  0  0  0
   -3.3788    1.4249   -0.4269 N   0  0  0  0  0  0  0  0  0  0  0  0
   -3.2020    1.8807   -1.3305 H   0  0  0  0  0  0  0  0  0  0  0  0
   -1.0222    1.9429    1.1492 N   0  0  0  0  0  2  0  0  0  0  0  0
   -0.0493    0.7186   -1.6496 O   0  5  0  0  0  0  0  0  0  0  0  0
    1.0210    2.9765   -1.4618 O   0  0  0  0  0  0  0  0  0  0  0  0
    0.3896    2.1782   -1.5926 H   0  0  0  0  0  0  0  0  0  0  0  0
    3.2587    3.1359   -1.3205 O   0  0  0  0  0  0  0  0  0  0  0  0
   -0.0493   -0.7186    1.6496 O   0  5  0  0  0  0  0  0  0  0  0  0
    1.0214   -2.9767    1.4615 O   0  0  0  0  0  0  0  0  0  0  0  0
    0.3897   -2.1786    1.5921 H   0  0  0  0  0  0  0  0  0  0  0  0
    3.2591   -3.1357    1.3206 O   0  0  0  0  0  0  0  0  0  0  0  0
    2.3221    0.9519   -1.6565 C   0  0  0  0  0  0  0  0  0  0  0  0
    3.5837    0.3501   -1.7309 C   0  0  0  0  0  0  0  0  0  0  0  0
    4.4545    1.0227   -1.6969 H   0  0  0  0  0  0  0  0  0  0  0  0
    3.7324   -1.0454   -1.8196 C   0  0  0  0  0  0  0  0  0  0  0  0
    4.7314   -1.5001   -1.8722 H   0  0  0  0  0  0  0  0  0  0  0  0
    2.5958   -1.8492   -1.7847 C   0  0  0  0  0  0  0  0  0  0  0  0
    2.7004   -2.9457   -1.7794 H   0  0  0  0  0  0  0  0  0  0  0  0
    1.2908   -1.2970   -1.6788 C   0  0  0  0  0  0  0  0  0  0  0  0
    1.1324    0.1442   -1.6711 C   0  0  0  0  0  0  0  0  0  0  0  0
    2.2613    2.4480   -1.4745 C   0  0  0  0  0  0  0  0  0  0  0  0
    0.2062   -2.2310   -1.4844 C   0  0  0  0  0  3  0  0  0  0  0  0
    0.4963   -3.3016   -1.5811 H   0  0  0  0  0  0  0  0  0  0  0  0
   -1.9547   -3.0090   -0.8362 C   0  0  0  0  0  0  0  0  0  0  0  0
   -1.6377   -3.5325    0.0983 H   0  0  0  0  0  0  0  0  0  0  0  0
   -1.9869   -3.7853   -1.6336 H   0  0  0  0  0  0  0  0  0  0  0  0
   -3.3617   -2.4300   -0.6489 C   0  0  0  0  0  0  0  0  0  0  0  0
   -3.6637   -1.9271   -1.5913 H   0  0  0  0  0  0  0  0  0  0  0  0
   -4.0948   -3.2486   -0.4621 H   0  0  0  0  0  0  0  0  0  0  0  0
   -4.5707   -0.5746    0.5130 C   0  0  0  0  0  0  0  0  0  0  0  0
   -4.6036   -0.1528    1.5384 H   0  0  0  0  0  0  0  0  0  0  0  0
   -5.5145   -1.1542    0.3788 H   0  0  0  0  0  0  0  0  0  0  0  0
   -4.5707    0.5744   -0.5129 C   0  0  0  0  0  0  0  0  0  0  0  0
   -4.6037    0.1526   -1.5383 H   0  0  0  0  0  0  0  0  0  0  0  0
   -5.5145    1.1540   -0.3786 H   0  0  0  0  0  0  0  0  0  0  0  0
   -3.3618    2.4299    0.6490 C   0  0  0  0  0  0  0  0  0  0  0  0
   -3.6637    1.9270    1.5914 H   0  0  0  0  0  0  0  0  0  0  0  0
   -4.0950    3.2484    0.4622 H   0  0  0  0  0  0  0  0  0  0  0  0
   -1.9549    3.0090    0.8362 C   0  0  0  0  0  0  0  0  0  0  0  0
   -1.6379    3.5325   -0.0982 H   0  0  0  0  0  0  0  0  0  0  0  0
   -1.9870    3.7852    1.6336 H   0  0  0  0  0  0  0  0  0  0  0  0
    0.2061    2.2310    1.4845 C   0  0  0  0  0  3  0  0  0  0  0  0
    0.4961    3.3016    1.5813 H   0  0  0  0  0  0  0  0  0  0  0  0
    1.2907    1.2971    1.6788 C   0  0  0  0  0  0  0  0  0  0  0  0
    2.5957    1.8493    1.7849 C   0  0  0  0  0  0  0  0  0  0  0  0
    2.7002    2.9458    1.7796 H   0  0  0  0  0  0  0  0  0  0  0  0
    3.7323    1.0456    1.8198 C   0  0  0  0  0  0  0  0  0  0  0  0
    4.7313    1.5004    1.8724 H   0  0  0  0  0  0  0  0  0  0  0  0
    3.5837   -0.3499    1.7309 C   0  0  0  0  0  0  0  0  0  0  0  0
    4.4546   -1.0225    1.6968 H   0  0  0  0  0  0  0  0  0  0  0  0
    2.3222   -0.9518    1.6564 C   0  0  0  0  0  0  0  0  0  0  0  0
    1.1324   -0.1442    1.6711 C   0  0  0  0  0  0  0  0  0  0  0  0
    2.2616   -2.4479    1.4741 C   0  0  0  0  0  0  0  0  0  0  0  0
  1 27  1  0  0  0  0
  2 33  1  0  0  0  0
  2  3  1  0  0  0  0
  4 39  1  0  0  0  0
  5  4  1  0  0  0  0
  6 45  1  0  0  0  0
  9  8  1  0  0  0  0
 11 55  1  0  0  0  0
 12 56  1  0  0  0  0
 12 13  1  0  0  0  0
 14 56  2  0  0  0  0
 15 24  1  0  0  0  0
 16 17  1  0  0  0  0
 16 15  2  0  0  0  0
 18 20  2  0  0  0  0
 18 16  1  0  0  0  0
 19 18  1  0  0  0  0
 20 21  1  0  0  0  0
 20 22  1  0  0  0  0
 22 23  2  0  0  0  0
 22 25  1  0  0  0  0
 23 15  1  0  0  0  0
 23  7  1  0  0  0  0
 24  8  1  0  0  0  0
 24 10  2  0  0  0  0
 25  1  1  0  0  0  0
 26 25  1  0  0  0  0
 27 30  1  0  0  0  0
 27 28  1  0  0  0  0
 29 27  1  0  0  0  0
 30 32  1  0  0  0  0
 30  2  1  0  0  0  0
 31 30  1  0  0  0  0
 33 34  1  0  0  0  0
 35 33  1  0  0  0  0
 36  4  1  0  0  0  0
 36 38  1  0  0  0  0
 36 33  1  0  0  0  0
 37 36  1  0  0  0  0
 39 42  1  0  0  0  0
 39 40  1  0  0  0  0
 41 39  1  0  0  0  0
 42  6  1  0  0  0  0
 42 44  1  0  0  0  0
 43 42  1  0  0  0  0
 45 46  1  0  0  0  0
 45 47  1  0  0  0  0
 47 48  1  0  0  0  0
 48 50  2  0  0  0  0
 49 48  1  0  0  0  0
 50 51  1  0  0  0  0
 52 50  1  0  0  0  0
 53 52  1  0  0  0  0
 54 55  1  0  0  0  0
 54 52  2  0  0  0  0
 55 47  2  0  0  0  0
 56 54  1  0  0  0  0
M  CHG  2   7  -1  11  -1
M  END
