1,2,3,4,5,6
q = 0.0, confidence = 0.64

 48 49  0  0  0  0  0  0  0  0999 V2000
    1.3077    0.9503    1.4641 N   0  0  0  0  0  2  0  0  0  0  0  0
   -1.3354    1.7465    1.2683 N   0  0  0  0  0  0  0  0  0  0  0  0
    0.3113    2.5130   -0.8670 N   0  0  0  0  0  0  0  0  0  0  0  0
   -1.4413    0.5340   -1.4305 N   0  0  0  0  0  2  0  0  0  0  0  0
    1.3932    0.0586   -1.2025 O   0  5  0  0  0  0  0  0  0  0  0  0
   -0.4993   -1.0514    0.7053 O   0  5  0  0  0  0  0  0  0  0  0  0
    2.3095   -0.7563   -0.7673 C   0  0  0  0  0  0  0  0  0  0  0  0
    2.7146   -1.8616   -1.5778 C   0  0  0  0  0  0  0  0  0  0  0  0
    3.8494   -2.6023   -1.2712 C   0  0  0  0  0  0  0  0  0  0  0  0
    4.5936   -2.3148   -0.0955 C   0  0  0  0  0  0  0  0  0  0  0  0
    4.1738   -1.3085    0.7635 C   0  0  0  0  0  0  0  0  0  0  0  0
    3.0053   -0.5313    0.4930 C   0  0  0  0  0  0  0  0  0  0  0  0
    2.5147    0.3566    1.4857 C   0  0  0  0  0  3  0  0  0  0  0  0
    0.8790    1.8269    2.3621 C   0  0  0  0  0  3  0  0  0  0  0  0
   -0.6074    1.9595    2.5456 C   0  0  0  0  0  0  0  0  0  0  0  0
   -1.6762    2.9767    0.5394 C   0  0  0  0  0  0  0  0  0  0  0  0
   -0.4209    3.5555   -0.1244 C   0  0  0  0  0  0  0  0  0  0  0  0
   -0.0019    2.3260   -2.2939 C   0  0  0  0  0  0  0  0  0  0  0  0
   -1.3323    1.5970   -2.4489 C   0  0  0  0  0  0  0  0  0  0  0  0
   -2.3705   -0.3360   -1.4560 C   0  0  0  0  0  2  0  0  0  0  0  0
   -2.5751   -1.4141   -0.5409 C   0  0  0  0  0  0  0  0  0  0  0  0
   -3.7391   -2.2237   -0.6578 C   0  0  0  0  0  0  0  0  0  0  0  0
   -3.9700   -3.3119    0.1764 C   0  0  0  0  0  0  0  0  0  0  0  0
   -3.0010   -3.6304    1.1576 C   0  0  0  0  0  0  0  0  0  0  0  0
   -1.8471   -2.8697    1.3070 C   0  0  0  0  0  0  0  0  0  0  0  0
   -1.5818   -1.7238    0.4865 C   0  0  0  0  0  0  0  0  0  0  0  0
   -2.1803    1.1856    1.4302 H   0  0  0  0  0  0  0  0  0  0  0  0
    1.3251    2.6177   -0.7483 H   0  0  0  0  0  0  0  0  0  0  0  0
    2.1313   -2.0458   -2.4922 H   0  0  0  0  0  0  0  0  0  0  0  0
    4.1787   -3.4087   -1.9445 H   0  0  0  0  0  0  0  0  0  0  0  0
    5.4910   -2.9047    0.1448 H   0  0  0  0  0  0  0  0  0  0  0  0
    4.7266   -1.1116    1.6966 H   0  0  0  0  0  0  0  0  0  0  0  0
    3.1143    0.4643    2.4123 H   0  0  0  0  0  0  0  0  0  0  0  0
    1.5573    2.2166    3.1477 H   0  0  0  0  0  0  0  0  0  0  0  0
   -0.8757    2.9320    3.0243 H   0  0  0  0  0  0  0  0  0  0  0  0
   -0.9750    1.1638    3.2374 H   0  0  0  0  0  0  0  0  0  0  0  0
   -2.4346    2.7150   -0.2224 H   0  0  0  0  0  0  0  0  0  0  0  0
   -2.1275    3.7465    1.2083 H   0  0  0  0  0  0  0  0  0  0  0  0
    0.2621    3.9386    0.6603 H   0  0  0  0  0  0  0  0  0  0  0  0
   -0.6998    4.4111   -0.7807 H   0  0  0  0  0  0  0  0  0  0  0  0
    0.8115    1.6945   -2.6970 H   0  0  0  0  0  0  0  0  0  0  0  0
   -0.0206    3.2943   -2.8439 H   0  0  0  0  0  0  0  0  0  0  0  0
   -2.1907    2.2967   -2.3361 H   0  0  0  0  0  0  0  0  0  0  0  0
   -1.4146    1.1625   -3.4654 H   0  0  0  0  0  0  0  0  0  0  0  0
   -4.4546   -1.9560   -1.4499 H   0  0  0  0  0  0  0  0  0  0  0  0
   -4.8784   -3.9218    0.0676 H   0  0  0  0  0  0  0  0  0  0  0  0
   -3.1565   -4.4995    1.8173 H   0  0  0  0  0  0  0  0  0  0  0  0
   -1.0916   -3.1201    2.0662 H   0  0  0  0  0  0  0  0  0  0  0  0
  1 13  1  0  0  0  0
  1 14  1  0  0  0  0
  2 27  1  0  0  0  0
  2 15  1  0  0  0  0
  3 28  1  0  0  0  0
  3 17  1  0  0  0  0
  5  7  1  0  0  0  0
  7 12  1  0  0  0  0
  8  9  1  0  0  0  0
  8  7  2  0  0  0  0
  9 10  2  0  0  0  0
 10 31  1  0  0  0  0
 10 11  1  0  0  0  0
 11 32  1  0  0  0  0
 12 11  2  0  0  0  0
 12 13  1  0  0  0  0
 13 33  1  0  0  0  0
 14 15  1  0  0  0  0
 14 34  1  0  0  0  0
 15 35  1  0  0  0  0
 15 36  1  0  0  0  0
 16 38  1  0  0  0  0
 16  2  1  0  0  0  0
 17 16  1  0  0  0  0
 17 39  1  0  0  0  0
 18  3  1  0  0  0  0
 19 43  1  0  0  0  0
 19 18  1  0  0  0  0
 19  4  1  0  0  0  0
 20  4  1  0  0  0  0
 20 21  1  0  0  0  0
 21 26  1  0  0  0  0
 22 21  2  0  0  0  0
 22 23  1  0  0  0  0
 23 24  2  0  0  0  0
 24 25  1  0  0  0  0
 24 47  1  0  0  0  0
 25 48  1  0  0  0  0
 26  6  1  0  0  0  0
 26 25  2  0  0  0  0
 29  8  1  0  0  0  0
 30  9  1  0  0  0  0
 37 16  1  0  0  0  0
 40 17  1  0  0  0  0
 41 18  1  0  0  0  0
 42 18  1  0  0  0  0
 44 19  1  0  0  0  0
 45 22  1  0  0  0  0
 46 23  1  0  0  0  0
M  CHG  2   5  -1   6  -1
M  END
