1,2,3,4,5,7
q = -2.0, confidence = 0.858

 84 85  0  0  0  0  0  0  0  0999 V2000
    1.8781    1.0648    0.3213 O   0  5  0  0  0  0  0  0  0  0  0  0
   -1.8781    1.0648   -0.3213 O   0  5  0  0  0  0  0  0  0  0  0  0
   -0.1595   -0.4395    1.3623 N   0  0  0  0  0  2  0  0  0  0  0  0
    0.1595   -0.4395   -1.3623 N   0  0  0  0  0  2  0  0  0  0  0  0
    0.2506    2.3520   -1.3661 N   0  0  0  0  0  0  0  0  0  0  0  0
   -0.6859    2.3642   -1.8039 H   0  0  0  0  0  0  0  0  0  0  0  0
   -0.2506    2.3520    1.3661 N   0  0  0  0  0  0  0  0  0  0  0  0
    0.6859    2.3642    1.8039 H   0  0  0  0  0  0  0  0  0  0  0  0
   -6.2498   -0.8672   -0.0554 N   0  0  0  0  0  0  0  0  0  0  0  0
    6.2498   -0.8672    0.0554 N   0  0  0  0  0  0  0  0  0  0  0  0
    3.0618   -2.2816    1.2888 C   0  0  0  0  0  0  0  0  0  0  0  0
    2.6881   -3.2120    1.7453 H   0  0  0  0  0  0  0  0  0  0  0  0
    4.9234   -0.9754    0.3889 C   0  0  0  0  0  0  0  0  0  0  0  0
    0.8231   -1.2791    1.6071 C   0  0  0  0  0  3  0  0  0  0  0  0
    0.6156   -2.0884    2.3375 H   0  0  0  0  0  0  0  0  0  0  0  0
   -3.0618   -2.2816   -1.2888 C   0  0  0  0  0  0  0  0  0  0  0  0
   -2.6881   -3.2120   -1.7453 H   0  0  0  0  0  0  0  0  0  0  0  0
   -2.6530    0.0160   -0.5224 C   0  0  0  0  0  0  0  0  0  0  0  0
    2.6530    0.0160    0.5224 C   0  0  0  0  0  0  0  0  0  0  0  0
   -1.2770   -0.3936    2.2962 C   0  0  0  0  0  0  0  0  0  0  0  0
   -1.2575   -1.3002    2.9382 H   0  0  0  0  0  0  0  0  0  0  0  0
   -2.2408   -0.3949    1.7492 H   0  0  0  0  0  0  0  0  0  0  0  0
    4.0217    0.1070    0.1969 C   0  0  0  0  0  0  0  0  0  0  0  0
    4.3563    1.0604   -0.2292 H   0  0  0  0  0  0  0  0  0  0  0  0
    1.2770   -0.3936   -2.2963 C   0  0  0  0  0  0  0  0  0  0  0  0
    1.2575   -1.3002   -2.9382 H   0  0  0  0  0  0  0  0  0  0  0  0
    2.2408   -0.3949   -1.7492 H   0  0  0  0  0  0  0  0  0  0  0  0
   -0.8231   -1.2791   -1.6071 C   0  0  0  0  0  3  0  0  0  0  0  0
   -0.6156   -2.0884   -2.3375 H   0  0  0  0  0  0  0  0  0  0  0  0
   -2.1465   -1.2116   -1.0864 C   0  0  0  0  0  0  0  0  0  0  0  0
    4.3976   -2.1931    0.9453 C   0  0  0  0  0  0  0  0  0  0  0  0
    5.0545   -3.0491    1.1368 H   0  0  0  0  0  0  0  0  0  0  0  0
   -4.0217    0.1070   -0.1969 C   0  0  0  0  0  0  0  0  0  0  0  0
   -4.3563    1.0604    0.2291 H   0  0  0  0  0  0  0  0  0  0  0  0
    2.1465   -1.2116    1.0864 C   0  0  0  0  0  0  0  0  0  0  0  0
    1.3055    2.1573   -2.3865 C   0  0  0  0  0  0  0  0  0  0  0  0
    2.2676    2.1609   -1.8366 H   0  0  0  0  0  0  0  0  0  0  0  0
    1.3061    3.0295   -3.0779 H   0  0  0  0  0  0  0  0  0  0  0  0
    0.4651    3.5974   -0.5979 C   0  0  0  0  0  0  0  0  0  0  0  0
    0.3149    4.5011   -1.2280 H   0  0  0  0  0  0  0  0  0  0  0  0
    1.5222    3.5890   -0.2629 H   0  0  0  0  0  0  0  0  0  0  0  0
   -4.3976   -2.1931   -0.9453 C   0  0  0  0  0  0  0  0  0  0  0  0
   -5.0545   -3.0491   -1.1368 H   0  0  0  0  0  0  0  0  0  0  0  0
   -1.3056    2.1573    2.3864 C   0  0  0  0  0  0  0  0  0  0  0  0
   -2.2676    2.1609    1.8366 H   0  0  0  0  0  0  0  0  0  0  0  0
   -1.3061    3.0295    3.0779 H   0  0  0  0  0  0  0  0  0  0  0  0
   -1.1721    0.8593    3.1741 C   0  0  0  0  0  0  0  0  0  0  0  0
   -1.9821    0.8413    3.9322 H   0  0  0  0  0  0  0  0  0  0  0  0
   -0.2123    0.8388    3.7357 H   0  0  0  0  0  0  0  0  0  0  0  0
    7.1701   -2.0017    0.1447 C   0  0  0  0  0  0  0  0  0  0  0  0
    7.9413   -1.8628   -0.6412 H   0  0  0  0  0  0  0  0  0  0  0  0
    6.6319   -2.9302   -0.1325 H   0  0  0  0  0  0  0  0  0  0  0  0
    6.8216    0.3928   -0.4148 C   0  0  0  0  0  0  0  0  0  0  0  0
    7.8913    0.4023   -0.1206 H   0  0  0  0  0  0  0  0  0  0  0  0
    6.3540    1.2324    0.1388 H   0  0  0  0  0  0  0  0  0  0  0  0
   -0.4651    3.5975    0.5979 C   0  0  0  0  0  0  0  0  0  0  0  0
   -0.3148    4.5011    1.2280 H   0  0  0  0  0  0  0  0  0  0  0  0
   -1.5221    3.5891    0.2629 H   0  0  0  0  0  0  0  0  0  0  0  0
   -4.9234   -0.9753   -0.3889 C   0  0  0  0  0  0  0  0  0  0  0  0
    7.8357   -2.1456    1.5147 C   0  0  0  0  0  0  0  0  0  0  0  0
    7.0841   -2.3157    2.3110 H   0  0  0  0  0  0  0  0  0  0  0  0
    8.4076   -1.2334    1.7796 H   0  0  0  0  0  0  0  0  0  0  0  0
    8.5414   -3.0002    1.5167 H   0  0  0  0  0  0  0  0  0  0  0  0
    1.1721    0.8593   -3.1741 C   0  0  0  0  0  0  0  0  0  0  0  0
    1.9821    0.8413   -3.9323 H   0  0  0  0  0  0  0  0  0  0  0  0
    0.2123    0.8388   -3.7357 H   0  0  0  0  0  0  0  0  0  0  0  0
    6.6926    0.5984   -1.9263 C   0  0  0  0  0  0  0  0  0  0  0  0
    5.6296    0.6160   -2.2400 H   0  0  0  0  0  0  0  0  0  0  0  0
    7.1953   -0.2170   -2.4843 H   0  0  0  0  0  0  0  0  0  0  0  0
    7.1601    1.5560   -2.2313 H   0  0  0  0  0  0  0  0  0  0  0  0
   -7.1701   -2.0017   -0.1447 C   0  0  0  0  0  0  0  0  0  0  0  0
   -7.9413   -1.8627    0.6412 H   0  0  0  0  0  0  0  0  0  0  0  0
   -6.6319   -2.9302    0.1325 H   0  0  0  0  0  0  0  0  0  0  0  0
   -6.8216    0.3928    0.4148 C   0  0  0  0  0  0  0  0  0  0  0  0
   -7.8913    0.4023    0.1206 H   0  0  0  0  0  0  0  0  0  0  0  0
   -6.3540    1.2324   -0.1388 H   0  0  0  0  0  0  0  0  0  0  0  0
   -6.6926    0.5984    1.9263 C   0  0  0  0  0  0  0  0  0  0  0  0
   -7.1953   -0.2170    2.4843 H   0  0  0  0  0  0  0  0  0  0  0  0
   -7.1601    1.5560    2.2313 H   0  0  0  0  0  0  0  0  0  0  0  0
   -5.6296    0.6160    2.2400 H   0  0  0  0  0  0  0  0  0  0  0  0
   -7.8357   -2.1456   -1.5147 C   0  0  0  0  0  0  0  0  0  0  0  0
   -8.5414   -3.0002   -1.5167 H   0  0  0  0  0  0  0  0  0  0  0  0
   -7.0841   -2.3157   -2.3110 H   0  0  0  0  0  0  0  0  0  0  0  0
   -8.4076   -1.2334   -1.7796 H   0  0  0  0  0  0  0  0  0  0  0  0
  1 19  1  0  0  0  0
  3 14  1  0  0  0  0
  3 20  1  0  0  0  0
  5 39  1  0  0  0  0
  6  5  1  0  0  0  0
  7  8  1  0  0  0  0
  7 44  1  0  0  0  0
  9 74  1  0  0  0  0
 10 50  1  0  0  0  0
 10 13  1  0  0  0  0
 11 12  1  0  0  0  0
 13 31  1  0  0  0  0
 14 15  1  0  0  0  0
 16 30  2  0  0  0  0
 16 42  1  0  0  0  0
 17 16  1  0  0  0  0
 18  2  1  0  0  0  0
 18 33  2  0  0  0  0
 19 35  2  0  0  0  0
 20 21  1  0  0  0  0
 20 47  1  0  0  0  0
 22 20  1  0  0  0  0
 23 13  2  0  0  0  0
 23 19  1  0  0  0  0
 24 23  1  0  0  0  0
 25 27  1  0  0  0  0
 25  4  1  0  0  0  0
 26 25  1  0  0  0  0
 28  4  1  0  0  0  0
 28 30  1  0  0  0  0
 29 28  1  0  0  0  0
 30 18  1  0  0  0  0
 31 32  1  0  0  0  0
 31 11  2  0  0  0  0
 33 34  1  0  0  0  0
 35 11  1  0  0  0  0
 35 14  1  0  0  0  0
 36 37  1  0  0  0  0
 36  5  1  0  0  0  0
 38 36  1  0  0  0  0
 39 41  1  0  0  0  0
 39 56  1  0  0  0  0
 40 39  1  0  0  0  0
 42 59  2  0  0  0  0
 43 42  1  0  0  0  0
 44 46  1  0  0  0  0
 44 47  1  0  0  0  0
 45 44  1  0  0  0  0
 47 49  1  0  0  0  0
 47 48  1  0  0  0  0
 50 60  1  0  0  0  0
 51 50  1  0  0  0  0
 52 50  1  0  0  0  0
 53 54  1  0  0  0  0
 53 10  1  0  0  0  0
 53 55  1  0  0  0  0
 56 57  1  0  0  0  0
 56  7  1  0  0  0  0
 58 56  1  0  0  0  0
 59 33  1  0  0  0  0
 59  9  1  0  0  0  0
 60 63  1  0  0  0  0
 60 62  1  0  0  0  0
 60 61  1  0  0  0  0
 64 36  1  0  0  0  0
 64 25  1  0  0  0  0
 65 64  1  0  0  0  0
 66 64  1  0  0  0  0
 67 53  1  0  0  0  0
 68 67  1  0  0  0  0
 69 67  1  0  0  0  0
 70 67  1  0  0  0  0
 71  9  1  0  0  0  0
 71 73  1  0  0  0  0
 71 72  1  0  0  0  0
 74 77  1  0  0  0  0
 75 74  1  0  0  0  0
 76 74  1  0  0  0  0
 77 79  1  0  0  0  0
 77 80  1  0  0  0  0
 77 78  1  0  0  0  0
 81 71  1  0  0  0  0
 82 81  1  0  0  0  0
 83 81  1  0  0  0  0
 84 81  1  0  0  0  0
M  CHG  2   1  -1   2  -1
M  END
