1,2,4,6,7,8
q = -2.0, confidence = 0.798

 62 65  0  0  0  0  0  0  0  0999 V2000
    1.6798    1.5517   -0.9083 N   0  0  0  0  0  2  0  0  0  0  0  0
   -0.5318    2.9841   -1.2714 N   0  0  0  0  0  0  0  0  0  0  0  0
   -1.4900    2.7705   -1.5780 H   0  0  0  0  0  0  0  0  0  0  0  0
    0.5317    2.9842    1.2714 N   0  0  0  0  0  0  0  0  0  0  0  0
    1.4900    2.7707    1.5779 H   0  0  0  0  0  0  0  0  0  0  0  0
   -1.6798    1.5517    0.9083 N   0  0  0  0  0  2  0  0  0  0  0  0
    0.5440    0.2481    1.2461 O   0  5  0  0  0  0  0  0  0  0  0  0
   -0.5439    0.2480   -1.2461 O   0  5  0  0  0  0  0  0  0  0  0  0
    4.6252   -3.5734    0.9732 C   0  0  0  0  0  0  0  0  0  0  0  0
    4.5976   -4.3733    1.7290 H   0  0  0  0  0  0  0  0  0  0  0  0
    5.6281   -3.5441    0.0130 C   0  0  0  0  0  0  0  0  0  0  0  0
    6.4088   -4.3182   -0.0043 H   0  0  0  0  0  0  0  0  0  0  0  0
    5.6315   -2.5072   -0.9471 C   0  0  0  0  0  0  0  0  0  0  0  0
    6.4179   -2.4767   -1.7162 H   0  0  0  0  0  0  0  0  0  0  0  0
    4.6476   -1.5211   -0.9373 C   0  0  0  0  0  0  0  0  0  0  0  0
    4.6928   -0.7451   -1.7144 H   0  0  0  0  0  0  0  0  0  0  0  0
    3.6109   -1.5149    0.0345 C   0  0  0  0  0  0  0  0  0  0  0  0
    3.6124   -2.5773    1.0037 C   0  0  0  0  0  0  0  0  0  0  0  0
    2.5761   -2.6189    1.9912 C   0  0  0  0  0  0  0  0  0  0  0  0
    2.5853   -3.4417    2.7234 H   0  0  0  0  0  0  0  0  0  0  0  0
    1.5757   -1.6776    2.0380 C   0  0  0  0  0  0  0  0  0  0  0  0
    0.7733   -1.7205    2.7877 H   0  0  0  0  0  0  0  0  0  0  0  0
    1.5310   -0.5968    1.0927 C   0  0  0  0  0  0  0  0  0  0  0  0
    2.5586   -0.5017    0.0953 C   0  0  0  0  0  0  0  0  0  0  0  0
    2.5680    0.5878   -0.8201 C   0  0  0  0  0  3  0  0  0  0  0  0
    3.4127    0.6420   -1.5314 H   0  0  0  0  0  0  0  0  0  0  0  0
    1.7893    2.5685   -1.9493 C   0  0  0  0  0  0  0  0  0  0  0  0
    2.4289    2.2273   -2.7905 H   0  0  0  0  0  0  0  0  0  0  0  0
    2.2638    3.4941   -1.5515 H   0  0  0  0  0  0  0  0  0  0  0  0
    0.3752    2.8545   -2.4445 C   0  0  0  0  0  0  0  0  0  0  0  0
    0.3303    3.7588   -3.0877 H   0  0  0  0  0  0  0  0  0  0  0  0
    0.0099    1.9815   -3.0177 H   0  0  0  0  0  0  0  0  0  0  0  0
   -0.5258    4.2881   -0.5571 C   0  0  0  0  0  0  0  0  0  0  0  0
   -1.5367    4.4377   -0.1351 H   0  0  0  0  0  0  0  0  0  0  0  0
   -0.3425    5.1298   -1.2588 H   0  0  0  0  0  0  0  0  0  0  0  0
    0.5257    4.2881    0.5570 C   0  0  0  0  0  0  0  0  0  0  0  0
    1.5365    4.4378    0.1350 H   0  0  0  0  0  0  0  0  0  0  0  0
    0.3423    5.1298    1.2587 H   0  0  0  0  0  0  0  0  0  0  0  0
   -0.3752    2.8545    2.4445 C   0  0  0  0  0  0  0  0  0  0  0  0
   -0.3303    3.7588    3.0877 H   0  0  0  0  0  0  0  0  0  0  0  0
   -0.0098    1.9815    3.0177 H   0  0  0  0  0  0  0  0  0  0  0  0
   -1.7893    2.5685    1.9493 C   0  0  0  0  0  0  0  0  0  0  0  0
   -2.4289    2.2272    2.7906 H   0  0  0  0  0  0  0  0  0  0  0  0
   -2.2639    3.4941    1.5515 H   0  0  0  0  0  0  0  0  0  0  0  0
   -2.5680    0.5877    0.8201 C   0  0  0  0  0  3  0  0  0  0  0  0
   -3.4127    0.6420    1.5314 H   0  0  0  0  0  0  0  0  0  0  0  0
   -2.5585   -0.5018   -0.0953 C   0  0  0  0  0  0  0  0  0  0  0  0
   -1.5309   -0.5968   -1.0927 C   0  0  0  0  0  0  0  0  0  0  0  0
   -1.5756   -1.6776   -2.0380 C   0  0  0  0  0  0  0  0  0  0  0  0
   -0.7733   -1.7206   -2.7877 H   0  0  0  0  0  0  0  0  0  0  0  0
   -2.5761   -2.6189   -1.9912 C   0  0  0  0  0  0  0  0  0  0  0  0
   -2.5853   -3.4417   -2.7234 H   0  0  0  0  0  0  0  0  0  0  0  0
   -3.6124   -2.5773   -1.0037 C   0  0  0  0  0  0  0  0  0  0  0  0
   -3.6108   -1.5149   -0.0345 C   0  0  0  0  0  0  0  0  0  0  0  0
   -4.6475   -1.5212    0.9374 C   0  0  0  0  0  0  0  0  0  0  0  0
   -4.6928   -0.7451    1.7144 H   0  0  0  0  0  0  0  0  0  0  0  0
   -5.6315   -2.5073    0.9471 C   0  0  0  0  0  0  0  0  0  0  0  0
   -6.4178   -2.4767    1.7162 H   0  0  0  0  0  0  0  0  0  0  0  0
   -5.6281   -3.5442   -0.0130 C   0  0  0  0  0  0  0  0  0  0  0  0
   -6.4088   -4.3183    0.0043 H   0  0  0  0  0  0  0  0  0  0  0  0
   -4.6251   -3.5734   -0.9732 C   0  0  0  0  0  0  0  0  0  0  0  0
   -4.5975   -4.3733   -1.7291 H   0  0  0  0  0  0  0  0  0  0  0  0
  1 25  1  0  0  0  0
  2 33  1  0  0  0  0
  3  2  1  0  0  0  0
  4  5  1  0  0  0  0
  4 39  1  0  0  0  0
  6 42  1  0  0  0  0
  8 48  1  0  0  0  0
  9 18  1  0  0  0  0
  9 10  1  0  0  0  0
 11  9  2  0  0  0  0
 12 11  1  0  0  0  0
 13 15  2  0  0  0  0
 13 11  1  0  0  0  0
 14 13  1  0  0  0  0
 15 17  1  0  0  0  0
 16 15  1  0  0  0  0
 17 24  2  0  0  0  0
 17 18  1  0  0  0  0
 18 19  2  0  0  0  0
 19 21  1  0  0  0  0
 19 20  1  0  0  0  0
 21 22  1  0  0  0  0
 23  7  1  0  0  0  0
 23 21  2  0  0  0  0
 24 23  1  0  0  0  0
 25 24  1  0  0  0  0
 26 25  1  0  0  0  0
 27 29  1  0  0  0  0
 27  1  1  0  0  0  0
 28 27  1  0  0  0  0
 30 27  1  0  0  0  0
 30  2  1  0  0  0  0
 31 30  1  0  0  0  0
 32 30  1  0  0  0  0
 33 34  1  0  0  0  0
 33 36  1  0  0  0  0
 35 33  1  0  0  0  0
 36 38  1  0  0  0  0
 36  4  1  0  0  0  0
 37 36  1  0  0  0  0
 39 41  1  0  0  0  0
 39 40  1  0  0  0  0
 42 39  1  0  0  0  0
 42 43  1  0  0  0  0
 44 42  1  0  0  0  0
 45  6  1  0  0  0  0
 45 46  1  0  0  0  0
 47 54  1  0  0  0  0
 47 45  1  0  0  0  0
 48 47  2  0  0  0  0
 49 51  2  0  0  0  0
 49 48  1  0  0  0  0
 50 49  1  0  0  0  0
 51 53  1  0  0  0  0
 52 51  1  0  0  0  0
 53 61  2  0  0  0  0
 53 54  1  0  0  0  0
 54 55  2  0  0  0  0
 55 57  1  0  0  0  0
 55 56  1  0  0  0  0
 57 58  1  0  0  0  0
 59 60  1  0  0  0  0
 59 57  2  0  0  0  0
 61 59  1  0  0  0  0
 62 61  1  0  0  0  0
M  CHG  2   7  -1   8  -1
M  END
