1,2,3
q = 0.0, confidence = 0.954

 51 51  0  0  0  0  0  0  0  0999 V2000
    1.3526    1.1945    1.0837 N   0  0  0  0  0  0  0  0  0  0  0  0
    1.3176   -1.1489    1.1392 N   0  0  0  0  0  0  0  0  0  0  0  0
    2.8667   -0.0375   -0.2569 N   0  0  0  0  0  0  0  0  0  0  0  0
    2.7258    1.1820    0.5387 C   0  0  0  0  0  0  0  0  0  0  0  0
    1.2100    0.0441    1.9843 C   0  0  0  0  0  0  0  0  0  0  0  0
    2.6863   -1.2151    0.5915 C   0  0  0  0  0  0  0  0  0  0  0  0
    0.9380    2.5097    1.7309 C   0  0  0  0  0  0  0  0  0  0  0  0
   -0.4706    2.3353    2.3281 C   0  0  0  0  0  0  0  0  0  0  0  0
    1.9216    2.9095    2.8519 C   0  0  0  0  0  0  0  0  0  0  0  0
    0.9056    3.6214    0.6727 C   0  0  0  0  0  0  0  0  0  0  0  0
    0.8493   -2.4201    1.8337 C   0  0  0  0  0  0  0  0  0  0  0  0
   -0.5689   -2.1804    2.3834 C   0  0  0  0  0  0  0  0  0  0  0  0
    1.7901   -2.7941    2.9993 C   0  0  0  0  0  0  0  0  0  0  0  0
    0.8191   -3.5753    0.8218 C   0  0  0  0  0  0  0  0  0  0  0  0
    4.0906   -0.0671   -1.1484 C   0  0  0  0  0  0  0  0  0  0  0  0
    5.3752    0.1941   -0.3324 C   0  0  0  0  0  0  0  0  0  0  0  0
    3.9403    0.9988   -2.2448 C   0  0  0  0  0  0  0  0  0  0  0  0
    4.1898   -1.4407   -1.8344 C   0  0  0  0  0  0  0  0  0  0  0  0
    3.4749    1.2311    1.3703 H   0  0  0  0  0  0  0  0  0  0  0  0
    2.8526    2.0551   -0.1221 H   0  0  0  0  0  0  0  0  0  0  0  0
    0.2109    0.0690    2.4391 H   0  0  0  0  0  0  0  0  0  0  0  0
    1.9860    0.0520    2.7929 H   0  0  0  0  0  0  0  0  0  0  0  0
    2.7634   -2.1181   -0.0323 H   0  0  0  0  0  0  0  0  0  0  0  0
    3.4435   -1.2643    1.4180 H   0  0  0  0  0  0  0  0  0  0  0  0
   -0.9128    3.3311    2.5179 H   0  0  0  0  0  0  0  0  0  0  0  0
   -0.4577    1.7988    3.2975 H   0  0  0  0  0  0  0  0  0  0  0  0
   -1.1324    1.7916    1.6276 H   0  0  0  0  0  0  0  0  0  0  0  0
    1.5419    3.8193    3.3568 H   0  0  0  0  0  0  0  0  0  0  0  0
    2.0229    2.1241    3.6277 H   0  0  0  0  0  0  0  0  0  0  0  0
    2.9303    3.1500    2.4614 H   0  0  0  0  0  0  0  0  0  0  0  0
    0.5588    4.5579    1.1508 H   0  0  0  0  0  0  0  0  0  0  0  0
    0.2294    3.3666   -0.1629 H   0  0  0  0  0  0  0  0  0  0  0  0
    1.9055    3.8260    0.2427 H   0  0  0  0  0  0  0  0  0  0  0  0
   -1.0387   -3.1533    2.6193 H   0  0  0  0  0  0  0  0  0  0  0  0
   -0.5658   -1.5902    3.3211 H   0  0  0  0  0  0  0  0  0  0  0  0
   -1.2002   -1.6612    1.6381 H   0  0  0  0  0  0  0  0  0  0  0  0
    1.3819   -3.6817    3.5214 H   0  0  0  0  0  0  0  0  0  0  0  0
    2.8079   -3.0595    2.6511 H   0  0  0  0  0  0  0  0  0  0  0  0
    1.8753   -1.9840    3.7512 H   0  0  0  0  0  0  0  0  0  0  0  0
    0.3758   -4.4660    1.3072 H   0  0  0  0  0  0  0  0  0  0  0  0
    1.8330   -3.8627    0.4804 H   0  0  0  0  0  0  0  0  0  0  0  0
    0.2251   -3.3152   -0.0732 H   0  0  0  0  0  0  0  0  0  0  0  0
    6.2619    0.0765   -0.9860 H   0  0  0  0  0  0  0  0  0  0  0  0
    5.4871   -0.5229    0.5067 H   0  0  0  0  0  0  0  0  0  0  0  0
    5.4090    1.2223    0.0805 H   0  0  0  0  0  0  0  0  0  0  0  0
    4.8292    0.9654   -2.9047 H   0  0  0  0  0  0  0  0  0  0  0  0
    3.0300    0.8188   -2.8454 H   0  0  0  0  0  0  0  0  0  0  0  0
    3.8744    2.0276   -1.8400 H   0  0  0  0  0  0  0  0  0  0  0  0
    4.9493   -1.3844   -2.6376 H   0  0  0  0  0  0  0  0  0  0  0  0
    4.5152   -2.2421   -1.1411 H   0  0  0  0  0  0  0  0  0  0  0  0
    3.2173   -1.7221   -2.2841 H   0  0  0  0  0  0  0  0  0  0  0  0
  1  7  1  0  0  0  0
  1  5  1  0  0  0  0
  2 11  1  0  0  0  0
  2  5  1  0  0  0  0
  3  4  1  0  0  0  0
  3  6  1  0  0  0  0
  4  1  1  0  0  0  0
  4 19  1  0  0  0  0
  5 21  1  0  0  0  0
  5 22  1  0  0  0  0
  6  2  1  0  0  0  0
  6 24  1  0  0  0  0
  7  8  1  0  0  0  0
  7  9  1  0  0  0  0
  8 25  1  0  0  0  0
  8 26  1  0  0  0  0
  9 28  1  0  0  0  0
  9 29  1  0  0  0  0
 10 31  1  0  0  0  0
 10  7  1  0  0  0  0
 11 12  1  0  0  0  0
 11 13  1  0  0  0  0
 12 34  1  0  0  0  0
 12 35  1  0  0  0  0
 13 37  1  0  0  0  0
 13 39  1  0  0  0  0
 14 40  1  0  0  0  0
 14 11  1  0  0  0  0
 15 16  1  0  0  0  0
 15  3  1  0  0  0  0
 16 45  1  0  0  0  0
 16 44  1  0  0  0  0
 17 48  1  0  0  0  0
 17 15  1  0  0  0  0
 18 15  1  0  0  0  0
 18 50  1  0  0  0  0
 20  4  1  0  0  0  0
 23  6  1  0  0  0  0
 27  8  1  0  0  0  0
 30  9  1  0  0  0  0
 32 10  1  0  0  0  0
 33 10  1  0  0  0  0
 36 12  1  0  0  0  0
 38 13  1  0  0  0  0
 41 14  1  0  0  0  0
 42 14  1  0  0  0  0
 43 16  1  0  0  0  0
 46 17  1  0  0  0  0
 47 17  1  0  0  0  0
 49 18  1  0  0  0  0
 51 18  1  0  0  0  0
M  END
