1,2,3
q = 0.0, confidence = 1.0

 29 31  0  0  1  0  0  0  0  0999 V2000
   -1.7574    0.0010    0.1383 N   0  0  0  0  0  2  0  0  0  0  0  0
   -0.2212   -2.0162   -0.2794 N   0  0  0  0  0  2  0  0  0  0  0  0
   -0.2188    2.0168   -0.2777 N   0  0  0  0  0  2  0  0  0  0  0  0
   -2.4133    1.2001    0.2431 C   0  0  0  0  0  0  0  0  0  0  0  0
   -3.7874    1.2179    0.5278 C   0  0  0  0  0  0  0  0  0  0  0  0
   -4.3228    2.1730    0.6147 H   0  0  0  0  0  0  0  0  0  0  0  0
   -4.4735    0.0024    0.6797 C   0  0  0  0  0  0  0  0  0  0  0  0
   -5.5504    0.0029    0.8982 H   0  0  0  0  0  0  0  0  0  0  0  0
   -3.7888   -1.2138    0.5269 C   0  0  0  0  0  0  0  0  0  0  0  0
   -4.3253   -2.1683    0.6130 H   0  0  0  0  0  0  0  0  0  0  0  0
   -2.4147   -1.1974    0.2422 C   0  0  0  0  0  0  0  0  0  0  0  0
   -1.5304   -2.3467    0.0130 C   0  0  1  0  0  3  0  0  0  0  0  0
    0.6659   -3.0069   -0.5226 C   0  0  0  0  0  0  0  0  0  0  0  0
    1.6855   -2.6816   -0.7745 H   0  0  0  0  0  0  0  0  0  0  0  0
    0.3151   -4.3582   -0.4777 C   0  0  0  0  0  0  0  0  0  0  0  0
    1.0746   -5.1237   -0.6898 H   0  0  0  0  0  0  0  0  0  0  0  0
   -1.0108   -4.7088   -0.1732 C   0  0  0  0  0  0  0  0  0  0  0  0
   -1.3200   -5.7631   -0.1348 H   0  0  0  0  0  0  0  0  0  0  0  0
   -1.9371   -3.6902    0.0720 C   0  0  0  0  0  0  0  0  0  0  0  0
   -2.9831   -3.9320    0.3045 H   0  0  0  0  0  0  0  0  0  0  0  0
   -1.5277    2.3486    0.0149 C   0  0  0  0  0  0  0  0  0  0  0  0
    0.6693    3.0068   -0.5202 C   0  0  0  0  0  0  0  0  0  0  0  0
    1.6886    2.6805   -0.7722 H   0  0  0  0  0  0  0  0  0  0  0  0
    0.3201    4.3584   -0.4743 C   0  0  0  0  0  0  0  0  0  0  0  0
    1.0804    5.1232   -0.6859 H   0  0  0  0  0  0  0  0  0  0  0  0
   -1.0055    4.7103   -0.1696 C   0  0  0  0  0  0  0  0  0  0  0  0
   -1.3135    5.7648   -0.1305 H   0  0  0  0  0  0  0  0  0  0  0  0
   -1.9329    3.6925    0.0748 C   0  0  0  0  0  0  0  0  0  0  0  0
   -2.9787    3.9353    0.3074 H   0  0  0  0  0  0  0  0  0  0  0  0
  1 11  1  0  0  0  0
  1  4  1  0  0  0  0
  2 12  1  0  0  0  0
  3 21  1  0  0  0  0
  4  5  1  0  0  0  0
  5  6  1  0  0  0  0
  5  7  2  0  0  0  0
  7  8  1  0  0  0  0
  9 10  1  0  0  0  0
  9  7  1  0  0  0  0
 11  9  2  0  0  0  0
 12 19  1  0  0  0  0
 12 11  1  6  0  0  0
 13 15  2  0  0  0  0
 13  2  1  0  0  0  0
 14 13  1  0  0  0  0
 15 17  1  0  0  0  0
 16 15  1  0  0  0  0
 17 18  1  0  0  0  0
 17 19  2  0  0  0  0
 19 20  1  0  0  0  0
 21 28  1  0  0  0  0
 21  4  2  0  0  0  0
 22 24  2  0  0  0  0
 22  3  1  0  0  0  0
 23 22  1  0  0  0  0
 24 26  1  0  0  0  0
 25 24  1  0  0  0  0
 26 27  1  0  0  0  0
 26 28  2  0  0  0  0
 28 29  1  0  0  0  0
M  END
