2,3
q = 0.0, confidence = 0.996

 46 48  0  0  1  0  0  0  0  0999 V2000
   -4.5055    1.2168   -1.8819 F   0  0  0  0  0  0  0  0  0  0  0  0
    2.1969    1.4221   -0.1891 N   0  0  0  0  0  2  0  0  0  0  0  0
    2.2682   -0.3860    1.8918 N   0  0  0  0  0  0  0  0  0  0  0  0
   -0.3527   -0.1523    0.6046 N   0  0  0  0  0  0  0  0  0  0  0  0
    3.1196    0.8272    1.9898 C   0  0  0  0  0  0  0  0  0  0  0  0
    3.1029    1.2543    3.0154 H   0  0  0  0  0  0  0  0  0  0  0  0
    4.1651    0.5087    1.7874 H   0  0  0  0  0  0  0  0  0  0  0  0
    2.7562    1.8758    0.9663 C   0  0  1  0  0  3  0  0  0  0  0  0
    3.0592    3.2315    1.1524 C   0  0  0  0  0  0  0  0  0  0  0  0
    3.5001    3.5659    2.1027 H   0  0  0  0  0  0  0  0  0  0  0  0
    2.8090    4.1400    0.1152 C   0  0  0  0  0  0  0  0  0  0  0  0
    3.0452    5.2069    0.2398 H   0  0  0  0  0  0  0  0  0  0  0  0
    2.2597    3.6622   -1.0839 C   0  0  0  0  0  0  0  0  0  0  0  0
    2.0574    4.3328   -1.9306 H   0  0  0  0  0  0  0  0  0  0  0  0
    1.9639    2.3019   -1.1958 C   0  0  0  0  0  0  0  0  0  0  0  0
    1.5294    1.8834   -2.1151 H   0  0  0  0  0  0  0  0  0  0  0  0
    1.0085   -0.3404    2.6867 C   0  0  0  0  0  0  0  0  0  0  0  0
    1.1868    0.1180    3.6836 H   0  0  0  0  0  0  0  0  0  0  0  0
    0.6942   -1.3887    2.8599 H   0  0  0  0  0  0  0  0  0  0  0  0
   -0.0788    0.4291    1.9537 C   0  0  0  0  0  0  0  0  0  0  0  0
    0.2266    1.4849    1.8099 H   0  0  0  0  0  0  0  0  0  0  0  0
   -0.9918    0.4524    2.5830 H   0  0  0  0  0  0  0  0  0  0  0  0
   -1.0592    0.8457   -0.2669 C   0  0  0  0  0  0  0  0  0  0  0  0
   -0.4550    1.7721   -0.2956 H   0  0  0  0  0  0  0  0  0  0  0  0
   -1.0980    0.4166   -1.2864 H   0  0  0  0  0  0  0  0  0  0  0  0
   -2.4844    1.1518    0.1821 C   0  0  0  0  0  0  0  0  0  0  0  0
   -2.9257    1.8446   -0.5563 H   0  0  0  0  0  0  0  0  0  0  0  0
   -2.4923    1.6834    1.1693 H   0  0  0  0  0  0  0  0  0  0  0  0
   -3.2664   -0.0772    0.2315 N   0  0  0  0  0  0  0  0  0  0  0  0
   -2.6790   -1.0581    1.1197 C   0  0  0  0  0  0  0  0  0  0  0  0
   -3.2480   -2.0067    1.0515 H   0  0  0  0  0  0  0  0  0  0  0  0
   -2.7209   -0.7463    2.1977 H   0  0  0  0  0  0  0  0  0  0  0  0
   -1.2413   -1.3634    0.6947 C   0  0  0  0  0  0  0  0  0  0  0  0
   -0.7830   -2.0938    1.3881 H   0  0  0  0  0  0  0  0  0  0  0  0
   -1.2509   -1.8187   -0.3136 H   0  0  0  0  0  0  0  0  0  0  0  0
   -4.6754    0.0276    0.1786 C   0  0  0  0  0  0  0  0  0  0  0  0
   -5.2931    0.6851   -0.9144 C   0  0  0  0  0  0  0  0  0  0  0  0
   -6.6765    0.7957   -1.0357 C   0  0  0  0  0  0  0  0  0  0  0  0
   -7.0864    1.3179   -1.9121 H   0  0  0  0  0  0  0  0  0  0  0  0
   -7.5043    0.2165   -0.0602 C   0  0  0  0  0  0  0  0  0  0  0  0
   -8.5970    0.2896   -0.1565 H   0  0  0  0  0  0  0  0  0  0  0  0
   -6.9266   -0.4563    1.0248 C   0  0  0  0  0  0  0  0  0  0  0  0
   -7.5646   -0.9148    1.7942 H   0  0  0  0  0  0  0  0  0  0  0  0
   -5.5308   -0.5415    1.1475 C   0  0  0  0  0  0  0  0  0  0  0  0
   -5.1014   -1.0565    2.0180 H   0  0  0  0  0  0  0  0  0  0  0  0
    2.8247   -1.1844    2.2219 H   0  0  0  0  0  0  0  0  0  0  0  0
  1 37  1  0  0  0  0
  2  8  1  0  0  0  0
  3  5  1  0  0  0  0
  3 46  1  0  0  0  0
  3 17  1  0  0  0  0
  4 33  1  0  0  0  0
  4 20  1  0  0  0  0
  5  6  1  0  0  0  0
  7  5  1  0  0  0  0
  8  9  1  0  0  0  0
  8  5  1  6  0  0  0
  9 10  1  0  0  0  0
 11 12  1  0  0  0  0
 11  9  2  0  0  0  0
 13 11  1  0  0  0  0
 14 13  1  0  0  0  0
 15 13  2  0  0  0  0
 15  2  1  0  0  0  0
 16 15  1  0  0  0  0
 17 19  1  0  0  0  0
 17 18  1  0  0  0  0
 20 22  1  0  0  0  0
 20 17  1  0  0  0  0
 21 20  1  0  0  0  0
 23 26  1  0  0  0  0
 23  4  1  0  0  0  0
 24 23  1  0  0  0  0
 25 23  1  0  0  0  0
 26 29  1  0  0  0  0
 26 28  1  0  0  0  0
 27 26  1  0  0  0  0
 29 30  1  0  0  0  0
 30 32  1  0  0  0  0
 31 30  1  0  0  0  0
 33 30  1  0  0  0  0
 33 34  1  0  0  0  0
 35 33  1  0  0  0  0
 36 29  1  0  0  0  0
 36 44  1  0  0  0  0
 37 36  2  0  0  0  0
 38 37  1  0  0  0  0
 38 40  2  0  0  0  0
 39 38  1  0  0  0  0
 40 42  1  0  0  0  0
 41 40  1  0  0  0  0
 42 44  2  0  0  0  0
 42 43  1  0  0  0  0
 44 45  1  0  0  0  0
M  END
