1,2,3
q = 0.0, confidence = 0.91

 55 57  0  0  1  0  0  0  0  0999 V2000
   -0.1304    2.4905    0.0020 N   0  0  0  0  0  2  0  0  0  0  0  0
   -1.9186    0.8401    0.1394 N   0  0  0  0  0  2  0  0  0  0  0  0
    1.8158    1.0302   -0.1484 N   0  0  0  0  0  2  0  0  0  0  0  0
   -1.3515    3.0977    0.1211 C   0  0  0  0  0  0  0  0  0  0  0  0
   -1.4484    4.5033    0.1398 C   0  0  0  0  0  0  0  0  0  0  0  0
   -2.4291    4.9903    0.2338 H   0  0  0  0  0  0  0  0  0  0  0  0
   -0.2688    5.2632    0.0323 C   0  0  0  0  0  0  0  0  0  0  0  0
   -0.3237    6.3616    0.0440 H   0  0  0  0  0  0  0  0  0  0  0  0
    0.9805    4.6270   -0.0892 C   0  0  0  0  0  0  0  0  0  0  0  0
    1.9078    5.2113   -0.1708 H   0  0  0  0  0  0  0  0  0  0  0  0
    1.0243    3.2186   -0.1002 C   0  0  0  0  0  0  0  0  0  0  0  0
    2.1605    2.3237   -0.2002 C   0  0  2  0  0  3  0  0  0  0  0  0
   -2.3921    2.0916    0.2050 C   0  0  0  0  0  0  0  0  0  0  0  0
   -3.8367    2.4514    0.3512 C   0  0  0  0  0  0  0  0  0  0  0  0
   -4.4590    1.5547    0.5266 H   0  0  0  0  0  0  0  0  0  0  0  0
   -4.2146    2.9646   -0.5596 H   0  0  0  0  0  0  0  0  0  0  0  0
   -3.9786    3.1582    1.1953 H   0  0  0  0  0  0  0  0  0  0  0  0
    3.5605    2.8295   -0.3488 C   0  0  0  0  0  0  0  0  0  0  0  0
    3.8905    3.3676    0.5663 H   0  0  0  0  0  0  0  0  0  0  0  0
    3.6246    3.5569   -1.1848 H   0  0  0  0  0  0  0  0  0  0  0  0
    4.2689    2.0024   -0.5385 H   0  0  0  0  0  0  0  0  0  0  0  0
    2.8240    0.0211   -0.1554 C   0  0  0  0  0  0  0  0  0  0  0  0
    3.0423   -0.7190   -1.3428 C   0  0  0  0  0  0  0  0  0  0  0  0
    3.9605   -1.7818   -1.3005 C   0  0  0  0  0  0  0  0  0  0  0  0
    4.1302   -2.3728   -2.2140 H   0  0  0  0  0  0  0  0  0  0  0  0
    4.6442   -2.1003   -0.1190 C   0  0  0  0  0  0  0  0  0  0  0  0
    5.3508   -2.9437   -0.1016 H   0  0  0  0  0  0  0  0  0  0  0  0
    4.4196   -1.3498    1.0420 C   0  0  0  0  0  0  0  0  0  0  0  0
    4.9466   -1.6045    1.9750 H   0  0  0  0  0  0  0  0  0  0  0  0
    3.5089   -0.2773    1.0479 C   0  0  0  0  0  0  0  0  0  0  0  0
    3.2352    0.5117    2.3024 C   0  0  0  0  0  0  0  0  0  0  0  0
    3.7160    1.5132    2.2771 H   0  0  0  0  0  0  0  0  0  0  0  0
    3.6189   -0.0161    3.1962 H   0  0  0  0  0  0  0  0  0  0  0  0
    2.1477    0.6896    2.4341 H   0  0  0  0  0  0  0  0  0  0  0  0
   -2.8227   -0.2635    0.1274 C   0  0  0  0  0  0  0  0  0  0  0  0
   -3.4493   -0.6243   -1.0902 C   0  0  0  0  0  0  0  0  0  0  0  0
   -4.2558   -1.7772   -1.1028 C   0  0  0  0  0  0  0  0  0  0  0  0
   -4.7362   -2.0797   -2.0466 H   0  0  0  0  0  0  0  0  0  0  0  0
   -4.4359   -2.5448    0.0549 C   0  0  0  0  0  0  0  0  0  0  0  0
   -5.0608   -3.4500    0.0239 H   0  0  0  0  0  0  0  0  0  0  0  0
   -3.8112   -2.1640    1.2506 C   0  0  0  0  0  0  0  0  0  0  0  0
   -3.9456   -2.7682    2.1613 H   0  0  0  0  0  0  0  0  0  0  0  0
   -2.9964   -1.0206    1.3110 C   0  0  0  0  0  0  0  0  0  0  0  0
   -2.3111   -0.5950    2.5790 C   0  0  0  0  0  0  0  0  0  0  0  0
   -1.2260   -0.4528    2.3922 H   0  0  0  0  0  0  0  0  0  0  0  0
   -2.4400   -1.3468    3.3802 H   0  0  0  0  0  0  0  0  0  0  0  0
   -2.7002    0.3779    2.9484 H   0  0  0  0  0  0  0  0  0  0  0  0
   -3.2215    0.1894   -2.3380 C   0  0  0  0  0  0  0  0  0  0  0  0
   -3.5500   -0.3622   -3.2394 H   0  0  0  0  0  0  0  0  0  0  0  0
   -2.1491    0.4527   -2.4525 H   0  0  0  0  0  0  0  0  0  0  0  0
   -3.7784    1.1507   -2.3149 H   0  0  0  0  0  0  0  0  0  0  0  0
    2.2940   -0.3602   -2.5958 C   0  0  0  0  0  0  0  0  0  0  0  0
    1.2057   -0.3053   -2.3828 H   0  0  0  0  0  0  0  0  0  0  0  0
    2.4642   -1.1049   -3.3959 H   0  0  0  0  0  0  0  0  0  0  0  0
    2.5933    0.6386   -2.9796 H   0  0  0  0  0  0  0  0  0  0  0  0
  1  4  1  0  0  0  0
  2 13  1  0  0  0  0
  4  5  1  0  0  0  0
  4 13  2  0  0  0  0
  5  6  1  0  0  0  0
  7  8  1  0  0  0  0
  7  5  2  0  0  0  0
  9  7  1  0  0  0  0
 10  9  1  0  0  0  0
 11  9  2  0  0  0  0
 11  1  1  0  0  0  0
 12  3  1  6  0  0  0
 12 11  1  0  0  0  0
 13 14  1  0  0  0  0
 14 15  1  0  0  0  0
 14 17  1  0  0  0  0
 16 14  1  0  0  0  0
 18 12  1  0  0  0  0
 18 19  1  0  0  0  0
 20 18  1  0  0  0  0
 21 18  1  0  0  0  0
 22  3  1  0  0  0  0
 22 30  1  0  0  0  0
 23 24  1  0  0  0  0
 23 22  2  0  0  0  0
 24 26  2  0  0  0  0
 25 24  1  0  0  0  0
 26 27  1  0  0  0  0
 26 28  1  0  0  0  0
 28 30  2  0  0  0  0
 28 29  1  0  0  0  0
 30 31  1  0  0  0  0
 31 34  1  0  0  0  0
 31 33  1  0  0  0  0
 32 31  1  0  0  0  0
 35  2  1  0  0  0  0
 35 43  1  0  0  0  0
 36 35  2  0  0  0  0
 37 36  1  0  0  0  0
 37 39  2  0  0  0  0
 38 37  1  0  0  0  0
 39 41  1  0  0  0  0
 40 39  1  0  0  0  0
 41 43  2  0  0  0  0
 41 42  1  0  0  0  0
 43 44  1  0  0  0  0
 44 47  1  0  0  0  0
 44 46  1  0  0  0  0
 45 44  1  0  0  0  0
 48 51  1  0  0  0  0
 48 36  1  0  0  0  0
 49 48  1  0  0  0  0
 50 48  1  0  0  0  0
 52 53  1  0  0  0  0
 52 23  1  0  0  0  0
 54 52  1  0  0  0  0
 55 52  1  0  0  0  0
M  END
