1,2,3
q = 0.0, confidence = 0.968

 66 69  0  0  1  0  0  0  0  0999 V2000
   -0.4496    1.8935   -1.4428 N   0  0  0  0  0  2  0  0  0  0  0  0
   -2.6023    1.1448    0.0496 N   0  0  0  0  0  2  0  0  0  0  0  0
   -0.3434    2.0995    1.3678 N   0  0  0  0  0  2  0  0  0  0  0  0
   -0.9865    3.2631   -1.3863 C   0  0  1  0  0  0  0  0  0  0  0  0
   -0.6852    3.7912   -2.3161 H   0  0  0  0  0  0  0  0  0  0  0  0
   -2.5193    3.1895   -1.3289 C   0  0  0  0  0  0  0  0  0  0  0  0
   -2.9290    4.2172   -1.4083 H   0  0  0  0  0  0  0  0  0  0  0  0
   -2.9066    2.6101   -2.1908 H   0  0  0  0  0  0  0  0  0  0  0  0
   -3.0049    2.5663   -0.0110 C   0  0  2  0  0  0  0  0  0  0  0  0
   -4.1144    2.6193    0.0169 H   0  0  0  0  0  0  0  0  0  0  0  0
   -2.4484    3.3380    1.1925 C   0  0  0  0  0  0  0  0  0  0  0  0
   -2.7722    2.8595    2.1384 H   0  0  0  0  0  0  0  0  0  0  0  0
   -2.8716    4.3632    1.1790 H   0  0  0  0  0  0  0  0  0  0  0  0
   -0.9180    3.4377    1.1501 C   0  0  2  0  0  0  0  0  0  0  0  0
   -0.5786    4.0964    1.9774 H   0  0  0  0  0  0  0  0  0  0  0  0
   -0.4304    4.0247   -0.1790 C   0  0  0  0  0  0  0  0  0  0  0  0
   -0.7746    5.0770   -0.2433 H   0  0  0  0  0  0  0  0  0  0  0  0
    0.6760    4.0373   -0.2073 H   0  0  0  0  0  0  0  0  0  0  0  0
    0.2214    1.5487   -2.5157 C   0  0  0  0  0  3  0  0  0  0  0  0
    0.4734    2.3571   -3.2297 H   0  0  0  0  0  0  0  0  0  0  0  0
    0.6282    0.1895   -2.8405 C   0  0  0  0  0  0  0  0  0  0  0  0
   -0.2534   -0.8790   -2.5543 C   0  0  0  0  0  0  0  0  0  0  0  0
   -1.2513   -0.6536   -2.1440 H   0  0  0  0  0  0  0  0  0  0  0  0
    0.1043   -2.1992   -2.8276 C   0  0  0  0  0  0  0  0  0  0  0  0
   -0.5940   -3.0175   -2.6008 H   0  0  0  0  0  0  0  0  0  0  0  0
    1.3602   -2.4628   -3.3990 C   0  0  0  0  0  0  0  0  0  0  0  0
    1.6619   -3.4993   -3.6111 H   0  0  0  0  0  0  0  0  0  0  0  0
    2.2286   -1.4075   -3.7154 C   0  0  0  0  0  0  0  0  0  0  0  0
    3.2070   -1.6262   -4.1698 H   0  0  0  0  0  0  0  0  0  0  0  0
    1.8854   -0.0669   -3.4612 C   0  0  0  0  0  0  0  0  0  0  0  0
    2.8328    1.0514   -3.8067 C   0  0  0  0  0  0  0  0  0  0  0  0
    3.7699    0.6583   -4.2427 H   0  0  0  0  0  0  0  0  0  0  0  0
    3.0950    1.6560   -2.9150 H   0  0  0  0  0  0  0  0  0  0  0  0
    2.3881    1.7464   -4.5512 H   0  0  0  0  0  0  0  0  0  0  0  0
   -3.5957    0.2781    0.0312 C   0  0  0  0  0  3  0  0  0  0  0  0
   -4.6074    0.7197    0.0067 H   0  0  0  0  0  0  0  0  0  0  0  0
   -3.5519   -1.1721    0.0144 C   0  0  0  0  0  0  0  0  0  0  0  0
   -2.3425   -1.9126    0.0470 C   0  0  0  0  0  0  0  0  0  0  0  0
   -1.3652   -1.4096    0.1254 H   0  0  0  0  0  0  0  0  0  0  0  0
   -2.3420   -3.3080   -0.0088 C   0  0  0  0  0  0  0  0  0  0  0  0
   -1.3870   -3.8508    0.0101 H   0  0  0  0  0  0  0  0  0  0  0  0
   -3.5604   -4.0001   -0.0891 C   0  0  0  0  0  0  0  0  0  0  0  0
   -3.5722   -5.0993   -0.1325 H   0  0  0  0  0  0  0  0  0  0  0  0
   -4.7670   -3.2860   -0.1102 C   0  0  0  0  0  0  0  0  0  0  0  0
   -5.7197   -3.8339   -0.1690 H   0  0  0  0  0  0  0  0  0  0  0  0
   -4.7980   -1.8819   -0.0605 C   0  0  0  0  0  0  0  0  0  0  0  0
   -6.1311   -1.1753   -0.0923 C   0  0  0  0  0  0  0  0  0  0  0  0
   -6.9584   -1.9075   -0.1363 H   0  0  0  0  0  0  0  0  0  0  0  0
   -6.2327   -0.5126   -0.9769 H   0  0  0  0  0  0  0  0  0  0  0  0
   -6.2947   -0.5486    0.8088 H   0  0  0  0  0  0  0  0  0  0  0  0
    0.4611    1.9572    2.3929 C   0  0  0  0  0  3  0  0  0  0  0  0
    0.7276    2.8896    2.9310 H   0  0  0  0  0  0  0  0  0  0  0  0
    1.0946    0.7328    2.8876 C   0  0  0  0  0  0  0  0  0  0  0  0
    2.4775    0.8093    3.1768 C   0  0  0  0  0  0  0  0  0  0  0  0
    3.0074    1.7592    3.0084 H   0  0  0  0  0  0  0  0  0  0  0  0
    3.1829   -0.3151    3.6180 C   0  0  0  0  0  0  0  0  0  0  0  0
    4.2639   -0.2477    3.8074 H   0  0  0  0  0  0  0  0  0  0  0  0
    2.4978   -1.5228    3.8125 C   0  0  0  0  0  0  0  0  0  0  0  0
    3.0380   -2.4168    4.1575 H   0  0  0  0  0  0  0  0  0  0  0  0
    1.1164   -1.5921    3.5765 C   0  0  0  0  0  0  0  0  0  0  0  0
    0.5829   -2.5384    3.7518 H   0  0  0  0  0  0  0  0  0  0  0  0
    0.3878   -0.4816    3.1188 C   0  0  0  0  0  0  0  0  0  0  0  0
   -1.1050   -0.5767    2.9621 C   0  0  0  0  0  0  0  0  0  0  0  0
   -1.6257   -0.1314    3.8372 H   0  0  0  0  0  0  0  0  0  0  0  0
   -1.4377   -1.6264    2.8657 H   0  0  0  0  0  0  0  0  0  0  0  0
   -1.4884   -0.0220    2.0783 H   0  0  0  0  0  0  0  0  0  0  0  0
  1  4  1  0  0  0  0
  3 51  1  0  0  0  0
  4  5  1  6  0  0  0
  4  6  1  0  0  0  0
  4 16  1  0  0  0  0
  6  9  1  0  0  0  0
  7  6  1  0  0  0  0
  8  6  1  0  0  0  0
  9 10  1  1  0  0  0
  9  2  1  0  0  0  0
  9 11  1  0  0  0  0
 11 12  1  0  0  0  0
 13 11  1  0  0  0  0
 14 11  1  0  0  0  0
 14  3  1  0  0  0  0
 14 15  1  1  0  0  0
 16 14  1  0  0  0  0
 17 16  1  0  0  0  0
 18 16  1  0  0  0  0
 19  1  1  0  0  0  0
 20 19  1  0  0  0  0
 21 22  1  0  0  0  0
 21 19  1  0  0  0  0
 22 23  1  0  0  0  0
 24 25  1  0  0  0  0
 24 22  2  0  0  0  0
 26 24  1  0  0  0  0
 27 26  1  0  0  0  0
 28 30  1  0  0  0  0
 28 26  2  0  0  0  0
 29 28  1  0  0  0  0
 30 21  2  0  0  0  0
 31 30  1  0  0  0  0
 31 33  1  0  0  0  0
 32 31  1  0  0  0  0
 34 31  1  0  0  0  0
 35  2  1  0  0  0  0
 36 35  1  0  0  0  0
 37 35  1  0  0  0  0
 37 38  1  0  0  0  0
 38 39  1  0  0  0  0
 40 41  1  0  0  0  0
 40 38  2  0  0  0  0
 42 40  1  0  0  0  0
 43 42  1  0  0  0  0
 44 42  2  0  0  0  0
 44 46  1  0  0  0  0
 45 44  1  0  0  0  0
 46 37  2  0  0  0  0
 47 46  1  0  0  0  0
 47 50  1  0  0  0  0
 48 47  1  0  0  0  0
 49 47  1  0  0  0  0
 51 53  1  0  0  0  0
 51 52  1  0  0  0  0
 53 62  2  0  0  0  0
 53 54  1  0  0  0  0
 54 56  2  0  0  0  0
 55 54  1  0  0  0  0
 56 57  1  0  0  0  0
 56 58  1  0  0  0  0
 58 59  1  0  0  0  0
 60 61  1  0  0  0  0
 60 58  2  0  0  0  0
 62 60  1  0  0  0  0
 63 62  1  0  0  0  0
 63 64  1  0  0  0  0
 65 63  1  0  0  0  0
 66 63  1  0  0  0  0
M  END
