1,2,3
q = -1.0, confidence = 0.002

 36 38  0  0  1  0  0  0  0  0999 V2000
   -0.2374    0.7905   -0.0065 N   0  0  0  0  0  2  0  0  0  0  0  0
    1.7470   -0.7845   -0.1129 N   0  0  0  0  0  2  0  0  0  0  0  0
   -2.0811   -1.0771    0.0999 N   0  0  0  0  0  0  0  0  0  0  0  0
    0.9638    1.4511    0.0718 C   0  0  0  0  0  0  0  0  0  0  0  0
    1.2629    2.8180    0.2544 C   0  0  0  0  0  0  0  0  0  0  0  0
    0.4690    3.5557    0.4051 H   0  0  0  0  0  0  0  0  0  0  0  0
    2.6078    3.2587    0.2843 C   0  0  0  0  0  0  0  0  0  0  0  0
    2.7961    4.3340    0.4277 H   0  0  0  0  0  0  0  0  0  0  0  0
    3.6860    2.3913    0.1410 C   0  0  0  0  0  0  0  0  0  0  0  0
    4.7222    2.7585    0.1564 H   0  0  0  0  0  0  0  0  0  0  0  0
    3.4374    0.9971   -0.0080 C   0  0  0  0  0  0  0  0  0  0  0  0
    4.4459    0.0006   -0.1338 C   0  0  0  0  0  0  0  0  0  0  0  0
    5.5048    0.3021   -0.1338 H   0  0  0  0  0  0  0  0  0  0  0  0
    4.0830   -1.3349   -0.2495 C   0  0  0  0  0  0  0  0  0  0  0  0
    4.8409   -2.1252   -0.3484 H   0  0  0  0  0  0  0  0  0  0  0  0
    2.7194   -1.7013   -0.2298 C   0  0  0  0  0  0  0  0  0  0  0  0
    2.3800   -2.7460   -0.2913 H   0  0  0  0  0  0  0  0  0  0  0  0
    2.0802    0.5476   -0.0203 C   0  0  1  0  0  3  0  0  0  0  0  0
   -1.5176    1.3027   -0.0695 C   0  0  0  0  0  0  0  0  0  0  0  0
   -1.9238    2.6549   -0.2361 C   0  0  0  0  0  0  0  0  0  0  0  0
   -1.1805    3.4453   -0.3780 H   0  0  0  0  0  0  0  0  0  0  0  0
   -3.2837    2.9880   -0.2678 C   0  0  0  0  0  0  0  0  0  0  0  0
   -3.5683    4.0430   -0.4016 H   0  0  0  0  0  0  0  0  0  0  0  0
   -4.2800    2.0071   -0.1410 C   0  0  0  0  0  0  0  0  0  0  0  0
   -5.3447    2.2801   -0.1591 H   0  0  0  0  0  0  0  0  0  0  0  0
   -3.8968    0.6617   -0.0109 C   0  0  0  0  0  0  0  0  0  0  0  0
   -4.6647   -0.1225    0.0642 H   0  0  0  0  0  0  0  0  0  0  0  0
   -2.5423    0.3221    0.0104 C   0  0  0  0  0  0  0  0  0  0  0  0
   -2.4671   -1.6753    1.4073 C   0  0  0  0  0  0  0  0  0  0  0  0
   -2.0576   -1.0485    2.2205 H   0  0  0  0  0  0  0  0  0  0  0  0
   -2.0332   -2.6904    1.4675 H   0  0  0  0  0  0  0  0  0  0  0  0
   -3.5735   -1.7182    1.5036 H   0  0  0  0  0  0  0  0  0  0  0  0
   -2.6276   -1.8778   -1.0301 C   0  0  0  0  0  0  0  0  0  0  0  0
   -3.7351   -1.9372   -0.9670 H   0  0  0  0  0  0  0  0  0  0  0  0
   -2.1835   -2.8889   -0.9868 H   0  0  0  0  0  0  0  0  0  0  0  0
   -2.3456   -1.3902   -1.9812 H   0  0  0  0  0  0  0  0  0  0  0  0
  1  4  1  0  0  0  0
  3 29  1  0  0  0  0
  4  5  2  0  0  0  0
  5  7  1  0  0  0  0
  5  6  1  0  0  0  0
  7  8  1  0  0  0  0
  9 10  1  0  0  0  0
  9  7  2  0  0  0  0
 11  9  1  0  0  0  0
 12 13  1  0  0  0  0
 12 11  2  0  0  0  0
 14 16  2  0  0  0  0
 14 12  1  0  0  0  0
 15 14  1  0  0  0  0
 16  2  1  0  0  0  0
 17 16  1  0  0  0  0
 18  2  1  1  0  0  0
 18 11  1  0  0  0  0
 18  4  1  0  0  0  0
 19  1  1  0  0  0  0
 19 28  1  0  0  0  0
 20 19  2  0  0  0  0
 21 20  1  0  0  0  0
 22 20  1  0  0  0  0
 22 24  2  0  0  0  0
 23 22  1  0  0  0  0
 24 26  1  0  0  0  0
 25 24  1  0  0  0  0
 26 28  2  0  0  0  0
 26 27  1  0  0  0  0
 28  3  1  0  0  0  0
 29 31  1  0  0  0  0
 29 32  1  0  0  0  0
 29 30  1  0  0  0  0
 33 35  1  0  0  0  0
 33 34  1  0  0  0  0
 33  3  1  0  0  0  0
 36 33  1  0  0  0  0
M  END
