1,3,5
q = 0.0, confidence = 0.996

 44 46  0  0  1  0  0  0  0  0999 V2000
    1.0133   -0.3056    1.6507 N   0  0  0  0  0  2  0  0  0  0  0  0
    2.2550   -0.6295    1.2021 N   0  0  0  0  0  0  0  0  0  0  0  0
    0.4158   -0.9908   -1.1393 N   0  0  0  0  0  2  0  0  0  0  0  0
    1.7535   -1.2274   -1.0727 N   0  0  0  0  0  0  0  0  0  0  0  0
    1.3549    1.6630   -0.4673 N   0  0  0  0  0  2  0  0  0  0  0  0
    2.5333    0.9878   -0.5559 N   0  0  0  0  0  0  0  0  0  0  0  0
   -0.1721   -0.2221    3.8126 C   0  0  0  0  0  0  0  0  0  0  0  0
   -0.9546    0.2637    3.1977 H   0  0  0  0  0  0  0  0  0  0  0  0
    0.0748    0.4450    4.6622 H   0  0  0  0  0  0  0  0  0  0  0  0
   -0.5835   -1.1578    4.2448 H   0  0  0  0  0  0  0  0  0  0  0  0
    1.0374   -0.4936    2.9796 C   0  0  2  0  0  3  0  0  0  0  0  0
    2.3265   -0.9479    3.3806 C   0  0  0  0  0  0  0  0  0  0  0  0
    2.6594   -1.1923    4.3949 H   0  0  0  0  0  0  0  0  0  0  0  0
    3.0961   -1.0205    2.2238 C   0  0  0  0  0  0  0  0  0  0  0  0
    4.5197   -1.4160    2.0115 C   0  0  0  0  0  0  0  0  0  0  0  0
    4.6209   -2.2685    1.3070 H   0  0  0  0  0  0  0  0  0  0  0  0
    4.9648   -1.7311    2.9724 H   0  0  0  0  0  0  0  0  0  0  0  0
    5.1370   -0.5775    1.6247 H   0  0  0  0  0  0  0  0  0  0  0  0
   -1.5137   -1.8156   -2.4315 C   0  0  0  0  0  0  0  0  0  0  0  0
   -1.9959   -0.9148   -2.0059 H   0  0  0  0  0  0  0  0  0  0  0  0
   -2.0317   -2.7131   -2.0336 H   0  0  0  0  0  0  0  0  0  0  0  0
   -1.6589   -1.8143   -3.5294 H   0  0  0  0  0  0  0  0  0  0  0  0
   -0.0615   -1.8178   -2.0836 C   0  0  1  0  0  3  0  0  0  0  0  0
    0.9983   -2.5986   -2.6240 C   0  0  0  0  0  0  0  0  0  0  0  0
    0.9311   -3.3601   -3.4081 H   0  0  0  0  0  0  0  0  0  0  0  0
    2.1570   -2.1993   -1.9639 C   0  0  0  0  0  0  0  0  0  0  0  0
    3.5733   -2.6489   -2.1050 C   0  0  0  0  0  0  0  0  0  0  0  0
    3.6338   -3.4547   -2.8584 H   0  0  0  0  0  0  0  0  0  0  0  0
    3.9830   -3.0539   -1.1557 H   0  0  0  0  0  0  0  0  0  0  0  0
    4.2438   -1.8317   -2.4458 H   0  0  0  0  0  0  0  0  0  0  0  0
    0.5229    3.9393   -0.9152 C   0  0  0  0  0  0  0  0  0  0  0  0
   -0.4688    3.4479   -0.8792 H   0  0  0  0  0  0  0  0  0  0  0  0
    0.5831    4.5628   -1.8280 H   0  0  0  0  0  0  0  0  0  0  0  0
    0.6021    4.6205   -0.0425 H   0  0  0  0  0  0  0  0  0  0  0  0
    1.6044    2.9108   -0.8938 C   0  0  1  0  0  3  0  0  0  0  0  0
    2.9744    3.0282   -1.2629 C   0  0  0  0  0  0  0  0  0  0  0  0
    3.4842    3.9178   -1.6474 H   0  0  0  0  0  0  0  0  0  0  0  0
    3.5521    1.7820   -1.0410 C   0  0  0  0  0  0  0  0  0  0  0  0
    4.9483    1.2965   -1.2481 C   0  0  0  0  0  0  0  0  0  0  0  0
    5.0039    0.4736   -1.9920 H   0  0  0  0  0  0  0  0  0  0  0  0
    5.4159    0.9387   -0.3065 H   0  0  0  0  0  0  0  0  0  0  0  0
    5.5747    2.1229   -1.6294 H   0  0  0  0  0  0  0  0  0  0  0  0
    2.5820   -0.4187   -0.1947 C   0  0  1  0  0  0  0  0  0  0  0  0
    3.6239   -0.7522   -0.3376 H   0  0  0  0  0  0  0  0  0  0  0  0
  1 11  1  0  0  0  0
  2  1  1  0  0  0  0
  2 14  1  0  0  0  0
  3  4  1  0  0  0  0
  4 43  1  0  0  0  0
  6  5  1  0  0  0  0
  6 43  1  0  0  0  0
  7 10  1  0  0  0  0
  7  9  1  0  0  0  0
  8  7  1  0  0  0  0
 11 12  1  0  0  0  0
 11  7  1  1  0  0  0
 12 13  1  0  0  0  0
 14 12  2  0  0  0  0
 15 14  1  0  0  0  0
 15 17  1  0  0  0  0
 16 15  1  0  0  0  0
 18 15  1  0  0  0  0
 19 21  1  0  0  0  0
 19 20  1  0  0  0  0
 22 19  1  0  0  0  0
 23 19  1  6  0  0  0
 23  3  1  0  0  0  0
 24 23  1  0  0  0  0
 24 26  2  0  0  0  0
 25 24  1  0  0  0  0
 26  4  1  0  0  0  0
 27 26  1  0  0  0  0
 27 29  1  0  0  0  0
 28 27  1  0  0  0  0
 30 27  1  0  0  0  0
 31 32  1  0  0  0  0
 31 34  1  0  0  0  0
 33 31  1  0  0  0  0
 35 31  1  1  0  0  0
 35  5  1  0  0  0  0
 36 38  2  0  0  0  0
 36 35  1  0  0  0  0
 37 36  1  0  0  0  0
 38  6  1  0  0  0  0
 39 38  1  0  0  0  0
 39 41  1  0  0  0  0
 40 39  1  0  0  0  0
 42 39  1  0  0  0  0
 43 44  1  6  0  0  0
 43  2  1  0  0  0  0
M  END
