1,14,27
q = 0.0, confidence = 0.986

 40 42  0  0  0  0  0  0  0  0999 V2000
    0.1882   -2.2614   -0.2195 N   0  0  0  0  0  2  0  0  0  0  0  0
   -0.0488   -3.3213    0.5737 C   0  0  0  0  0  3  0  0  0  0  0  0
   -0.2232   -3.1009    1.6407 H   0  0  0  0  0  0  0  0  0  0  0  0
   -0.0680   -4.6295    0.0719 C   0  0  0  0  0  0  0  0  0  0  0  0
   -0.2607   -5.4760    0.7461 H   0  0  0  0  0  0  0  0  0  0  0  0
    0.1562   -4.8211   -1.2990 C   0  0  0  0  0  0  0  0  0  0  0  0
    0.1394   -5.8324   -1.7323 H   0  0  0  0  0  0  0  0  0  0  0  0
    0.3983   -3.7068   -2.1164 C   0  0  0  0  0  0  0  0  0  0  0  0
    0.5766   -3.8247   -3.1958 H   0  0  0  0  0  0  0  0  0  0  0  0
    0.4170   -2.4280   -1.5364 C   0  0  0  0  0  0  0  0  0  0  0  0
    0.7655   -1.1892   -2.3448 C   0  0  0  0  0  0  0  0  0  0  0  0
    1.8398   -0.9615   -2.1711 H   0  0  0  0  0  0  0  0  0  0  0  0
    0.6613   -1.4132   -3.4325 H   0  0  0  0  0  0  0  0  0  0  0  0
    1.8644    1.2924   -0.2285 N   0  0  0  0  0  2  0  0  0  0  0  0
    2.9032    1.6182    0.5610 C   0  0  0  0  0  3  0  0  0  0  0  0
    2.8024    1.3592    1.6288 H   0  0  0  0  0  0  0  0  0  0  0  0
    4.0445    2.2542    0.0544 C   0  0  0  0  0  0  0  0  0  0  0  0
    4.8762    2.5115    0.7255 H   0  0  0  0  0  0  0  0  0  0  0  0
    4.0943    2.5413   -1.3173 C   0  0  0  0  0  0  0  0  0  0  0  0
    4.9774    3.0311   -1.7542 H   0  0  0  0  0  0  0  0  0  0  0  0
    3.0056    2.1926   -2.1307 C   0  0  0  0  0  0  0  0  0  0  0  0
    3.0155    2.4037   -3.2106 H   0  0  0  0  0  0  0  0  0  0  0  0
    1.8904    1.5710   -1.5460 C   0  0  0  0  0  0  0  0  0  0  0  0
    0.6409    1.2518   -2.3502 C   0  0  0  0  0  0  0  0  0  0  0  0
   -0.0927    2.0691   -2.1776 H   0  0  0  0  0  0  0  0  0  0  0  0
    0.8843    1.2699   -3.4386 H   0  0  0  0  0  0  0  0  0  0  0  0
   -2.0527    0.9665   -0.2253 N   0  0  0  0  0  2  0  0  0  0  0  0
   -2.8527    1.7040    0.5650 C   0  0  0  0  0  3  0  0  0  0  0  0
   -2.5748    1.7488    1.6320 H   0  0  0  0  0  0  0  0  0  0  0  0
   -3.9762    2.3723    0.0605 C   0  0  0  0  0  0  0  0  0  0  0  0
   -4.6135    2.9646    0.7323 H   0  0  0  0  0  0  0  0  0  0  0  0
   -4.2538    2.2688   -1.3102 C   0  0  0  0  0  0  0  0  0  0  0  0
   -5.1213    2.7869   -1.7456 H   0  0  0  0  0  0  0  0  0  0  0  0
   -3.4091    1.4996   -2.1246 C   0  0  0  0  0  0  0  0  0  0  0  0
   -3.5998    1.4003   -3.2037 H   0  0  0  0  0  0  0  0  0  0  0  0
   -2.3107    0.8468   -1.5418 C   0  0  0  0  0  0  0  0  0  0  0  0
   -1.4109   -0.0763   -2.3470 C   0  0  0  0  0  0  0  0  0  0  0  0
   -1.7513   -1.1202   -2.1727 H   0  0  0  0  0  0  0  0  0  0  0  0
   -1.5508    0.1243   -3.4353 H   0  0  0  0  0  0  0  0  0  0  0  0
   -0.0015   -0.0038   -1.9553 N   0  0  0  0  0  0  0  0  0  0  0  0
  1  2  1  0  0  0  0
  2  3  1  0  0  0  0
  4  2  1  0  0  0  0
  4  5  1  0  0  0  0
  6  4  2  0  0  0  0
  7  6  1  0  0  0  0
  8 10  2  0  0  0  0
  8  6  1  0  0  0  0
  9  8  1  0  0  0  0
 10  1  1  0  0  0  0
 11 12  1  0  0  0  0
 11 40  1  0  0  0  0
 11 10  1  0  0  0  0
 13 11  1  0  0  0  0
 14 15  1  0  0  0  0
 15 16  1  0  0  0  0
 17 15  1  0  0  0  0
 17 18  1  0  0  0  0
 19 17  2  0  0  0  0
 20 19  1  0  0  0  0
 21 23  2  0  0  0  0
 21 19  1  0  0  0  0
 22 21  1  0  0  0  0
 23 14  1  0  0  0  0
 24 25  1  0  0  0  0
 24 40  1  0  0  0  0
 24 23  1  0  0  0  0
 26 24  1  0  0  0  0
 27 28  1  0  0  0  0
 28 29  1  0  0  0  0
 30 28  1  0  0  0  0
 30 31  1  0  0  0  0
 32 30  2  0  0  0  0
 33 32  1  0  0  0  0
 34 36  2  0  0  0  0
 34 32  1  0  0  0  0
 35 34  1  0  0  0  0
 36 27  1  0  0  0  0
 37 38  1  0  0  0  0
 37 40  1  0  0  0  0
 37 36  1  0  0  0  0
 39 37  1  0  0  0  0
M  END
