1,2,3
q = -1.0, confidence = 0.156

 55 59  0  0  0  0  0  0  0  0999 V2000
    2.6341   -0.7669    0.7240 N   0  0  0  0  0  2  0  0  0  0  0  0
    2.0210    1.5802    0.5801 N   0  0  0  0  0  2  0  0  0  0  0  0
   -0.4507    1.3943   -0.2505 N   0  0  0  0  0  2  0  0  0  0  0  0
   -3.8145   -0.0687   -0.6197 N   0  0  0  0  0  0  0  0  0  0  0  0
    4.2135   -2.1532   -1.5279 C   0  0  0  0  0  0  0  0  0  0  0  0
    3.3186   -1.7032   -1.9851 H   0  0  0  0  0  0  0  0  0  0  0  0
    5.3523   -2.4115   -2.3031 C   0  0  0  0  0  0  0  0  0  0  0  0
    5.3542   -2.1582   -3.3740 H   0  0  0  0  0  0  0  0  0  0  0  0
    6.4854   -3.0028   -1.7188 C   0  0  0  0  0  0  0  0  0  0  0  0
    7.3768   -3.2090   -2.3298 H   0  0  0  0  0  0  0  0  0  0  0  0
    6.4758   -3.3343   -0.3554 C   0  0  0  0  0  0  0  0  0  0  0  0
    7.3584   -3.8019    0.1060 H   0  0  0  0  0  0  0  0  0  0  0  0
    5.3374   -3.0712    0.4234 C   0  0  0  0  0  0  0  0  0  0  0  0
    5.3312   -3.3351    1.4933 H   0  0  0  0  0  0  0  0  0  0  0  0
    4.1972   -2.4837   -0.1563 C   0  0  0  0  0  0  0  0  0  0  0  0
    2.9648   -2.1867    0.6757 C   0  0  0  0  0  0  0  0  0  0  0  0
    2.0814   -2.7323    0.2935 H   0  0  0  0  0  0  0  0  0  0  0  0
    3.1191   -2.5354    1.7252 H   0  0  0  0  0  0  0  0  0  0  0  0
    3.7073    0.0936    1.2050 C   0  0  0  0  0  0  0  0  0  0  0  0
    4.6670   -0.1358    0.6848 H   0  0  0  0  0  0  0  0  0  0  0  0
    3.9021   -0.0866    2.2930 H   0  0  0  0  0  0  0  0  0  0  0  0
    3.2999    1.5099    0.9851 C   0  0  0  0  0  0  0  0  0  0  0  0
    4.0549    2.6988    1.1052 C   0  0  0  0  0  0  0  0  0  0  0  0
    5.1004    2.6476    1.4398 H   0  0  0  0  0  0  0  0  0  0  0  0
    3.4647    3.9233    0.7828 C   0  0  0  0  0  0  0  0  0  0  0  0
    4.0491    4.8517    0.8725 H   0  0  0  0  0  0  0  0  0  0  0  0
    2.1162    3.9882    0.3253 C   0  0  0  0  0  0  0  0  0  0  0  0
    1.3910    5.1748   -0.0418 C   0  0  0  0  0  0  0  0  0  0  0  0
    1.8997    6.1483    0.0136 H   0  0  0  0  0  0  0  0  0  0  0  0
    0.0727    5.0981   -0.4471 C   0  0  0  0  0  0  0  0  0  0  0  0
   -0.4736    6.0158   -0.7113 H   0  0  0  0  0  0  0  0  0  0  0  0
   -0.6257    3.8412   -0.5333 C   0  0  0  0  0  0  0  0  0  0  0  0
   -1.9894    3.6698   -0.9004 C   0  0  0  0  0  0  0  0  0  0  0  0
   -2.6005    4.5431   -1.1756 H   0  0  0  0  0  0  0  0  0  0  0  0
   -2.5391    2.3970   -0.8885 C   0  0  0  0  0  0  0  0  0  0  0  0
   -3.5924    2.1985   -1.1336 H   0  0  0  0  0  0  0  0  0  0  0  0
   -1.7534    1.2551   -0.5516 C   0  0  0  0  0  0  0  0  0  0  0  0
    0.0798    2.6538   -0.2082 C   0  0  0  0  0  0  0  0  0  0  0  0
    1.4276    2.7524    0.2339 C   0  0  0  0  0  0  0  0  0  0  0  0
   -2.3809   -0.1156   -0.5372 C   0  0  0  0  0  0  0  0  0  0  0  0
   -1.9914   -0.6804    0.3447 H   0  0  0  0  0  0  0  0  0  0  0  0
   -1.9674   -0.6526   -1.4252 H   0  0  0  0  0  0  0  0  0  0  0  0
   -4.4782   -0.9813    0.0018 C   0  0  0  0  0  0  0  0  0  0  0  0
   -3.9556   -1.7636    0.6056 H   0  0  0  0  0  0  0  0  0  0  0  0
   -5.9401   -1.0828   -0.0306 C   0  0  0  0  0  0  0  0  0  0  0  0
   -6.5740   -2.0865    0.7353 C   0  0  0  0  0  0  0  0  0  0  0  0
   -5.9606   -2.7745    1.3388 H   0  0  0  0  0  0  0  0  0  0  0  0
   -7.9698   -2.2073    0.7301 C   0  0  0  0  0  0  0  0  0  0  0  0
   -8.4570   -2.9906    1.3294 H   0  0  0  0  0  0  0  0  0  0  0  0
   -8.7438   -1.3279   -0.0435 C   0  0  0  0  0  0  0  0  0  0  0  0
   -9.8402   -1.4228   -0.0508 H   0  0  0  0  0  0  0  0  0  0  0  0
   -8.1206   -0.3275   -0.8137 C   0  0  0  0  0  0  0  0  0  0  0  0
   -8.7316    0.3554   -1.4228 H   0  0  0  0  0  0  0  0  0  0  0  0
   -6.7288   -0.2042   -0.8096 C   0  0  0  0  0  0  0  0  0  0  0  0
   -6.2227    0.5648   -1.4112 H   0  0  0  0  0  0  0  0  0  0  0  0
  1 19  1  0  0  0  0
  2 22  1  0  0  0  0
  3 38  1  0  0  0  0
  4 40  1  0  0  0  0
  4 43  2  0  0  0  0
  5 15  1  0  0  0  0
  6  5  1  0  0  0  0
  7  9  1  0  0  0  0
  7  5  2  0  0  0  0
  8  7  1  0  0  0  0
  9 11  2  0  0  0  0
 10  9  1  0  0  0  0
 11 12  1  0  0  0  0
 11 13  1  0  0  0  0
 13 14  1  0  0  0  0
 15 13  2  0  0  0  0
 15 16  1  0  0  0  0
 16  1  1  0  0  0  0
 16 18  1  0  0  0  0
 17 16  1  0  0  0  0
 19 21  1  0  0  0  0
 20 19  1  0  0  0  0
 22 23  2  0  0  0  0
 22 19  1  0  0  0  0
 23 24  1  0  0  0  0
 25 26  1  0  0  0  0
 25 23  1  0  0  0  0
 27 25  2  0  0  0  0
 28 29  1  0  0  0  0
 28 27  1  0  0  0  0
 30 28  2  0  0  0  0
 31 30  1  0  0  0  0
 32 30  1  0  0  0  0
 32 38  1  0  0  0  0
 33 35  1  0  0  0  0
 33 32  2  0  0  0  0
 34 33  1  0  0  0  0
 35 37  2  0  0  0  0
 36 35  1  0  0  0  0
 37 40  1  0  0  0  0
 37  3  1  0  0  0  0
 38 39  2  0  0  0  0
 39 27  1  0  0  0  0
 39  2  1  0  0  0  0
 40 41  1  0  0  0  0
 42 40  1  0  0  0  0
 43 44  1  0  0  0  0
 45 43  1  0  0  0  0
 45 46  1  0  0  0  0
 46 47  1  0  0  0  0
 48 46  2  0  0  0  0
 48 49  1  0  0  0  0
 50 48  1  0  0  0  0
 51 50  1  0  0  0  0
 52 54  1  0  0  0  0
 52 50  2  0  0  0  0
 53 52  1  0  0  0  0
 54 45  2  0  0  0  0
 55 54  1  0  0  0  0
M  END
