2,3,4
q = -1.0, confidence = 0.0

 44 46  0  0  1  0  0  0  0  0999 V2000
    0.1769    3.4422    0.4465 O   0  0  0  0  0  0  0  0  0  0  0  0
   -0.4504    1.2156    0.1563 N   0  0  0  0  0  2  0  0  0  0  0  0
   -1.6823   -1.0646   -0.3205 N   0  0  0  0  0  2  0  0  0  0  0  0
    2.1094    0.3815    0.2216 N   0  0  0  0  0  0  0  0  0  0  0  0
   -1.8327    1.2760    0.2266 C   0  0  0  0  0  0  0  0  0  0  0  0
   -2.6273    2.4011    0.4994 C   0  0  0  0  0  0  0  0  0  0  0  0
   -2.1283    3.3578    0.6961 H   0  0  0  0  0  0  0  0  0  0  0  0
   -4.0381    2.2806    0.5091 C   0  0  0  0  0  0  0  0  0  0  0  0
   -4.6377    3.1775    0.7278 H   0  0  0  0  0  0  0  0  0  0  0  0
   -4.6832    1.0740    0.2539 C   0  0  0  0  0  0  0  0  0  0  0  0
   -5.7806    1.0016    0.2679 H   0  0  0  0  0  0  0  0  0  0  0  0
   -3.9138   -0.0892   -0.0326 C   0  0  0  0  0  0  0  0  0  0  0  0
   -4.4636   -1.3719   -0.3180 C   0  0  0  0  0  0  0  0  0  0  0  0
   -5.5575   -1.4980   -0.3184 H   0  0  0  0  0  0  0  0  0  0  0  0
   -3.6253   -2.4432   -0.5927 C   0  0  0  0  0  0  0  0  0  0  0  0
   -4.0282   -3.4412   -0.8161 H   0  0  0  0  0  0  0  0  0  0  0  0
   -2.2224   -2.2560   -0.5866 C   0  0  0  0  0  0  0  0  0  0  0  0
   -1.5026   -3.0651   -0.7904 H   0  0  0  0  0  0  0  0  0  0  0  0
   -2.4859    0.0240   -0.0421 C   0  0  1  0  0  3  0  0  0  0  0  0
    0.4355    2.2613    0.2101 C   0  0  0  0  0  0  0  0  0  0  0  0
    1.8451    1.7988   -0.2287 C   0  0  2  0  0  0  0  0  0  0  0  0
    2.6009    2.4645    0.2447 H   0  0  0  0  0  0  0  0  0  0  0  0
    3.3287   -0.2024   -0.4113 C   0  0  0  0  0  0  0  0  0  0  0  0
    4.2141    0.3231    0.0199 H   0  0  0  0  0  0  0  0  0  0  0  0
    3.3644   -1.2669   -0.1157 H   0  0  0  0  0  0  0  0  0  0  0  0
    3.3326   -0.0827   -1.9282 C   0  0  0  0  0  0  0  0  0  0  0  0
    2.4979   -0.6952   -2.3312 H   0  0  0  0  0  0  0  0  0  0  0  0
    4.2730   -0.5321   -2.3075 H   0  0  0  0  0  0  0  0  0  0  0  0
    3.1900    1.3756   -2.3615 C   0  0  0  0  0  0  0  0  0  0  0  0
    4.0716    1.9614   -2.0177 H   0  0  0  0  0  0  0  0  0  0  0  0
    3.1615    1.4619   -3.4670 H   0  0  0  0  0  0  0  0  0  0  0  0
    1.9108    1.9524   -1.7588 C   0  0  0  0  0  0  0  0  0  0  0  0
    1.0318    1.4308   -2.1960 H   0  0  0  0  0  0  0  0  0  0  0  0
    1.7920    3.0318   -1.9805 H   0  0  0  0  0  0  0  0  0  0  0  0
    2.2611    0.3864    1.7127 C   0  0  0  0  0  0  0  0  0  0  0  0
    3.1188    1.0560    1.9610 H   0  0  0  0  0  0  0  0  0  0  0  0
    1.3502    0.8659    2.1239 H   0  0  0  0  0  0  0  0  0  0  0  0
    2.4572   -0.9829    2.3602 C   0  0  0  0  0  0  0  0  0  0  0  0
    3.4591   -1.3870    2.1066 H   0  0  0  0  0  0  0  0  0  0  0  0
    1.7217   -1.6958    1.9301 H   0  0  0  0  0  0  0  0  0  0  0  0
    2.3050   -0.9006    3.8796 C   0  0  0  0  0  0  0  0  0  0  0  0
    3.0233   -0.1828    4.3287 H   0  0  0  0  0  0  0  0  0  0  0  0
    2.4813   -1.8872    4.3511 H   0  0  0  0  0  0  0  0  0  0  0  0
    1.2840   -0.5713    4.1641 H   0  0  0  0  0  0  0  0  0  0  0  0
  2 20  1  0  0  0  0
  2  5  1  0  0  0  0
  4 35  1  0  0  0  0
  5  6  2  0  0  0  0
  6  8  1  0  0  0  0
  6  7  1  0  0  0  0
  8  9  1  0  0  0  0
 10 11  1  0  0  0  0
 10  8  2  0  0  0  0
 12 10  1  0  0  0  0
 13 12  2  0  0  0  0
 14 13  1  0  0  0  0
 15 17  2  0  0  0  0
 15 13  1  0  0  0  0
 16 15  1  0  0  0  0
 17  3  1  0  0  0  0
 18 17  1  0  0  0  0
 19  3  1  6  0  0  0
 19 12  1  0  0  0  0
 19  5  1  0  0  0  0
 20  1  2  0  0  0  0
 21 20  1  0  0  0  0
 21  4  1  0  0  0  0
 21 22  1  1  0  0  0
 23 25  1  0  0  0  0
 23 24  1  0  0  0  0
 23  4  1  0  0  0  0
 26 23  1  0  0  0  0
 27 26  1  0  0  0  0
 28 26  1  0  0  0  0
 29 30  1  0  0  0  0
 29 26  1  0  0  0  0
 29 32  1  0  0  0  0
 31 29  1  0  0  0  0
 32 21  1  0  0  0  0
 33 32  1  0  0  0  0
 34 32  1  0  0  0  0
 35 36  1  0  0  0  0
 35 37  1  0  0  0  0
 35 38  1  0  0  0  0
 38 41  1  0  0  0  0
 39 38  1  0  0  0  0
 40 38  1  0  0  0  0
 41 44  1  0  0  0  0
 41 42  1  0  0  0  0
 41 43  1  0  0  0  0
M  END
