1,2,3
q = 0.0, confidence = 0.974

 38 41  0  0  0  0  0  0  0  0999 V2000
   -0.1639   -0.0075    0.0071 N   0  0  0  0  0  2  0  0  0  0  0  0
    1.4533    2.0139    0.0423 N   0  0  0  0  0  2  0  0  0  0  0  0
    1.4822   -2.0045   -0.0409 N   0  0  0  0  0  2  0  0  0  0  0  0
   -6.4676    1.0359   -0.7024 N   0  0  0  0  0  0  0  0  0  0  0  0
   -0.8157    1.1880    0.0310 C   0  0  0  0  0  0  0  0  0  0  0  0
   -2.2144    1.1959    0.0409 C   0  0  0  0  0  0  0  0  0  0  0  0
   -2.7594    2.1477    0.0914 H   0  0  0  0  0  0  0  0  0  0  0  0
   -2.9321   -0.0274    0.0211 C   0  0  0  0  0  0  0  0  0  0  0  0
   -2.1974   -1.2399   -0.0043 C   0  0  0  0  0  0  0  0  0  0  0  0
   -2.7293   -2.1997   -0.0460 H   0  0  0  0  0  0  0  0  0  0  0  0
   -0.7988   -1.2125   -0.0098 C   0  0  0  0  0  0  0  0  0  0  0  0
    0.1093    2.3402    0.0535 C   0  0  0  0  0  0  0  0  0  0  0  0
   -0.2880    3.6833    0.0827 C   0  0  0  0  0  0  0  0  0  0  0  0
   -1.3568    3.9369    0.0912 H   0  0  0  0  0  0  0  0  0  0  0  0
    0.6844    4.6932    0.1006 C   0  0  0  0  0  0  0  0  0  0  0  0
    0.3815    5.7501    0.1235 H   0  0  0  0  0  0  0  0  0  0  0  0
    2.0403    4.3383    0.0885 C   0  0  0  0  0  0  0  0  0  0  0  0
    2.8330    5.0994    0.1015 H   0  0  0  0  0  0  0  0  0  0  0  0
    2.3913    2.9836    0.0592 C   0  0  0  0  0  3  0  0  0  0  0  0
    3.4337    2.6273    0.0481 H   0  0  0  0  0  0  0  0  0  0  0  0
    0.1432   -2.3507   -0.0416 C   0  0  0  0  0  0  0  0  0  0  0  0
   -0.2337   -3.6997   -0.0724 C   0  0  0  0  0  0  0  0  0  0  0  0
   -1.2986   -3.9692   -0.0743 H   0  0  0  0  0  0  0  0  0  0  0  0
    0.7534   -4.6949   -0.1019 C   0  0  0  0  0  0  0  0  0  0  0  0
    0.4664   -5.7561   -0.1268 H   0  0  0  0  0  0  0  0  0  0  0  0
    2.1040   -4.3197   -0.0998 C   0  0  0  0  0  0  0  0  0  0  0  0
    2.9078   -5.0687   -0.1223 H   0  0  0  0  0  0  0  0  0  0  0  0
    2.4346   -2.9599   -0.0689 C   0  0  0  0  0  0  0  0  0  0  0  0
    3.4716   -2.5878   -0.0658 H   0  0  0  0  0  0  0  0  0  0  0  0
   -4.4072   -0.0335    0.0171 C   0  0  0  0  0  0  0  0  0  0  0  0
   -5.1352    0.9748   -0.6639 C   0  0  0  0  0  0  0  0  0  0  0  0
   -4.5957    1.7507   -1.2380 H   0  0  0  0  0  0  0  0  0  0  0  0
   -7.1619    0.0804   -0.0640 C   0  0  0  0  0  0  0  0  0  0  0  0
   -8.2619    0.1681   -0.0948 H   0  0  0  0  0  0  0  0  0  0  0  0
   -6.5520   -0.9857    0.6216 C   0  0  0  0  0  0  0  0  0  0  0  0
   -7.1647   -1.7454    1.1283 H   0  0  0  0  0  0  0  0  0  0  0  0
   -5.1562   -1.0408    0.6654 C   0  0  0  0  0  0  0  0  0  0  0  0
   -4.6510   -1.8395    1.2304 H   0  0  0  0  0  0  0  0  0  0  0  0
  1  5  1  0  0  0  0
  2 12  1  0  0  0  0
  2 19  1  0  0  0  0
  4 31  2  0  0  0  0
  4 33  1  0  0  0  0
  5  6  2  0  0  0  0
  5 12  1  0  0  0  0
  6  7  1  0  0  0  0
  8  6  1  0  0  0  0
  9  8  2  0  0  0  0
 10  9  1  0  0  0  0
 11  9  1  0  0  0  0
 11  1  1  0  0  0  0
 12 13  2  0  0  0  0
 13 14  1  0  0  0  0
 13 15  1  0  0  0  0
 15 16  1  0  0  0  0
 17 15  2  0  0  0  0
 17 18  1  0  0  0  0
 19 17  1  0  0  0  0
 20 19  1  0  0  0  0
 21  3  1  0  0  0  0
 21 11  2  0  0  0  0
 22 21  1  0  0  0  0
 23 22  1  0  0  0  0
 24 26  1  0  0  0  0
 24 22  2  0  0  0  0
 25 24  1  0  0  0  0
 26 28  2  0  0  0  0
 27 26  1  0  0  0  0
 28 29  1  0  0  0  0
 28  3  1  0  0  0  0
 30  8  1  0  0  0  0
 30 37  2  0  0  0  0
 31 30  1  0  0  0  0
 32 31  1  0  0  0  0
 33 35  2  0  0  0  0
 34 33  1  0  0  0  0
 35 37  1  0  0  0  0
 35 36  1  0  0  0  0
 37 38  1  0  0  0  0
M  END
