1,2,3
q = 0.0, confidence = 0.998

 31 31  0  0  1  0  0  0  0  0999 V2000
   -0.1873   -1.3512   -0.2700 N   0  0  0  0  0  2  0  0  0  0  0  0
   -1.2469    0.8653   -0.8980 N   0  0  0  0  0  2  0  0  0  0  0  0
    1.0426    2.2552    0.3598 N   0  0  0  0  0  0  0  0  0  0  0  0
    1.6363    2.4104   -0.4935 H   0  0  0  0  0  0  0  0  0  0  0  0
    0.4490   -2.4628    0.1570 C   0  0  0  0  0  3  0  0  0  0  0  0
    1.4284   -2.3266    0.6347 H   0  0  0  0  0  0  0  0  0  0  0  0
   -0.0946   -3.7366   -0.0120 C   0  0  0  0  0  0  0  0  0  0  0  0
    0.4727   -4.6093    0.3395 H   0  0  0  0  0  0  0  0  0  0  0  0
   -1.3517   -3.8701   -0.6293 C   0  0  0  0  0  0  0  0  0  0  0  0
   -1.8008   -4.8622   -0.7826 H   0  0  0  0  0  0  0  0  0  0  0  0
   -2.0312   -2.7194   -1.0248 C   0  0  0  0  0  0  0  0  0  0  0  0
   -3.0296   -2.7842   -1.4767 H   0  0  0  0  0  0  0  0  0  0  0  0
   -1.4401   -1.4551   -0.8234 C   0  0  0  0  0  0  0  0  0  0  0  0
   -2.0481   -0.1680   -1.1161 C   0  0  2  0  0  3  0  0  0  0  0  0
   -1.8321    2.1922   -0.9999 C   0  0  0  0  0  0  0  0  0  0  0  0
   -2.5885    2.2938   -0.1835 H   0  0  0  0  0  0  0  0  0  0  0  0
   -2.3880    2.2894   -1.9581 H   0  0  0  0  0  0  0  0  0  0  0  0
   -0.8134    3.3175   -0.8932 C   0  0  0  0  0  0  0  0  0  0  0  0
   -1.3606    4.2800   -0.9507 H   0  0  0  0  0  0  0  0  0  0  0  0
   -0.1211    3.2981   -1.7630 H   0  0  0  0  0  0  0  0  0  0  0  0
   -0.0056    3.2840    0.3966 C   0  0  0  0  0  0  0  0  0  0  0  0
    0.4811    4.2720    0.5612 H   0  0  0  0  0  0  0  0  0  0  0  0
   -0.6563    3.0868    1.2747 H   0  0  0  0  0  0  0  0  0  0  0  0
   -3.4471   -0.0304   -1.6416 C   0  0  0  0  0  0  0  0  0  0  0  0
   -4.0474    0.6314   -0.9879 H   0  0  0  0  0  0  0  0  0  0  0  0
   -3.9661   -1.0024   -1.6902 H   0  0  0  0  0  0  0  0  0  0  0  0
   -3.4465    0.4099   -2.6625 H   0  0  0  0  0  0  0  0  0  0  0  0
    1.9031    2.3131    1.5571 C   0  0  0  0  0  0  0  0  0  0  0  0
    2.2849    3.3469    1.7005 H   0  0  0  0  0  0  0  0  0  0  0  0
    2.7512    1.6198    1.4265 H   0  0  0  0  0  0  0  0  0  0  0  0
    1.3157    1.9946    2.4377 H   0  0  0  0  0  0  0  0  0  0  0  0
  1  5  1  0  0  0  0
  3 21  1  0  0  0  0
  3 28  1  0  0  0  0
  4  3  1  0  0  0  0
  5  6  1  0  0  0  0
  7  5  1  0  0  0  0
  7  8  1  0  0  0  0
  9  7  2  0  0  0  0
 10  9  1  0  0  0  0
 11 13  2  0  0  0  0
 11  9  1  0  0  0  0
 12 11  1  0  0  0  0
 13  1  1  0  0  0  0
 14  2  1  6  0  0  0
 14 13  1  0  0  0  0
 15  2  1  0  0  0  0
 15 18  1  0  0  0  0
 15 16  1  0  0  0  0
 17 15  1  0  0  0  0
 18 21  1  0  0  0  0
 19 18  1  0  0  0  0
 20 18  1  0  0  0  0
 21 22  1  0  0  0  0
 21 23  1  0  0  0  0
 24 14  1  0  0  0  0
 24 25  1  0  0  0  0
 26 24  1  0  0  0  0
 27 24  1  0  0  0  0
 28 29  1  0  0  0  0
 28 31  1  0  0  0  0
 30 28  1  0  0  0  0
M  END
