5,8,11
q = 0.0, confidence = 0.998

 51 51  0  0  1  0  0  0  0  0999 V2000
    1.3904    4.0676    0.8272 O   0  0  0  0  0  0  0  0  0  0  0  0
    2.9164    2.5477    0.0770 O   0  0  0  0  0  0  0  0  0  0  0  0
    1.3908   -4.0674   -0.8276 O   0  0  0  0  0  0  0  0  0  0  0  0
    2.9169   -2.5476   -0.0774 O   0  0  0  0  0  0  0  0  0  0  0  0
   -1.1592   -2.1969    0.7635 N   0  0  0  0  0  2  0  0  0  0  0  0
   -0.3858   -3.2105    1.1348 N   0  0  0  0  0  0  0  0  0  0  0  0
   -0.6258   -4.1486    0.7797 H   0  0  0  0  0  0  0  0  0  0  0  0
   -1.1596    2.1967   -0.7634 N   0  0  0  0  0  2  0  0  0  0  0  0
   -0.3864    3.2106   -1.1350 N   0  0  0  0  0  0  0  0  0  0  0  0
   -0.6264    4.1485   -0.7796 H   0  0  0  0  0  0  0  0  0  0  0  0
   -2.5632   -0.0002   -0.0000 N   0  0  0  0  0  2  0  0  0  0  0  0
    4.5018   -1.3659   -1.4248 C   0  0  0  0  0  0  0  0  0  0  0  0
    3.8397   -0.4787   -1.4619 H   0  0  0  0  0  0  0  0  0  0  0  0
    5.1056   -1.3953   -2.3539 H   0  0  0  0  0  0  0  0  0  0  0  0
    5.1918   -1.2636   -0.5636 H   0  0  0  0  0  0  0  0  0  0  0  0
    3.6651   -2.6228   -1.3182 C   0  0  0  0  0  0  0  0  0  0  0  0
    2.9369   -2.7074   -2.1489 H   0  0  0  0  0  0  0  0  0  0  0  0
    4.2815   -3.5476   -1.2964 H   0  0  0  0  0  0  0  0  0  0  0  0
    1.7871   -3.2596   -0.0062 C   0  0  0  0  0  0  0  0  0  0  0  0
    1.0329   -2.9584    1.2910 C   0  0  0  0  0  0  0  0  0  0  0  0
    1.4326   -3.6219    2.0879 H   0  0  0  0  0  0  0  0  0  0  0  0
    1.1838   -1.9117    1.6309 H   0  0  0  0  0  0  0  0  0  0  0  0
   -2.4142   -2.3854    0.4332 C   0  0  1  0  0  3  0  0  0  0  0  0
   -3.0037   -3.7667    0.3958 C   0  0  0  0  0  0  0  0  0  0  0  0
   -2.3934   -4.4239   -0.2638 H   0  0  0  0  0  0  0  0  0  0  0  0
   -4.0332   -3.7881    0.0007 H   0  0  0  0  0  0  0  0  0  0  0  0
   -3.0048   -4.2308    1.4069 H   0  0  0  0  0  0  0  0  0  0  0  0
   -3.2179   -1.1693    0.1822 C   0  0  1  0  0  3  0  0  0  0  0  0
   -4.6326   -1.1986    0.1788 C   0  0  0  0  0  0  0  0  0  0  0  0
   -5.1757   -2.1374    0.3450 H   0  0  0  0  0  0  0  0  0  0  0  0
   -5.3314   -0.0005   -0.0001 C   0  0  0  0  0  0  0  0  0  0  0  0
   -6.4318   -0.0006   -0.0002 H   0  0  0  0  0  0  0  0  0  0  0  0
   -4.6328    1.1978   -0.1789 C   0  0  0  0  0  0  0  0  0  0  0  0
   -5.1761    2.1365   -0.3452 H   0  0  0  0  0  0  0  0  0  0  0  0
   -3.2182    1.1688   -0.1823 C   0  0  0  0  0  0  0  0  0  0  0  0
   -2.4147    2.3851   -0.4333 C   0  0  2  0  0  3  0  0  0  0  0  0
   -3.0045    3.7662   -0.3962 C   0  0  0  0  0  0  0  0  0  0  0  0
   -2.3945    4.4237    0.2632 H   0  0  0  0  0  0  0  0  0  0  0  0
   -4.0340    3.7875   -0.0013 H   0  0  0  0  0  0  0  0  0  0  0  0
   -3.0055    4.2301   -1.4075 H   0  0  0  0  0  0  0  0  0  0  0  0
    1.0323    2.9585   -1.2913 C   0  0  0  0  0  0  0  0  0  0  0  0
    1.4319    3.6220   -2.0883 H   0  0  0  0  0  0  0  0  0  0  0  0
    1.1832    1.9117   -1.6312 H   0  0  0  0  0  0  0  0  0  0  0  0
    1.7866    3.2598    0.0058 C   0  0  0  0  0  0  0  0  0  0  0  0
    3.6647    2.6231    1.3177 C   0  0  0  0  0  0  0  0  0  0  0  0
    4.2809    3.5481    1.2958 H   0  0  0  0  0  0  0  0  0  0  0  0
    2.9366    2.7074    2.1485 H   0  0  0  0  0  0  0  0  0  0  0  0
    4.5018    1.3664    1.4241 C   0  0  0  0  0  0  0  0  0  0  0  0
    3.8399    0.4790    1.4614 H   0  0  0  0  0  0  0  0  0  0  0  0
    5.1058    1.3960    2.3531 H   0  0  0  0  0  0  0  0  0  0  0  0
    5.1917    1.2642    0.5627 H   0  0  0  0  0  0  0  0  0  0  0  0
  2 45  1  0  0  0  0
  3 19  2  0  0  0  0
  4 19  1  0  0  0  0
  5  6  1  0  0  0  0
  6 20  1  0  0  0  0
  7  6  1  0  0  0  0
  9 10  1  0  0  0  0
  9  8  1  0  0  0  0
 11 28  1  0  0  0  0
 12 16  1  0  0  0  0
 12 15  1  0  0  0  0
 13 12  1  0  0  0  0
 14 12  1  0  0  0  0
 16 18  1  0  0  0  0
 16  4  1  0  0  0  0
 17 16  1  0  0  0  0
 19 20  1  0  0  0  0
 20 22  1  0  0  0  0
 20 21  1  0  0  0  0
 23  5  1  1  0  0  0
 24 23  1  0  0  0  0
 24 27  1  0  0  0  0
 25 24  1  0  0  0  0
 26 24  1  0  0  0  0
 28 23  1  1  0  0  0
 29 28  1  0  0  0  0
 29 30  1  0  0  0  0
 31 29  2  0  0  0  0
 32 31  1  0  0  0  0
 33 31  1  0  0  0  0
 34 33  1  0  0  0  0
 35 33  2  0  0  0  0
 35 11  1  0  0  0  0
 36  8  1  6  0  0  0
 36 37  1  0  0  0  0
 36 35  1  0  0  0  0
 37 39  1  0  0  0  0
 37 38  1  0  0  0  0
 40 37  1  0  0  0  0
 41  9  1  0  0  0  0
 41 44  1  0  0  0  0
 42 41  1  0  0  0  0
 43 41  1  0  0  0  0
 44  2  1  0  0  0  0
 44  1  2  0  0  0  0
 45 48  1  0  0  0  0
 45 47  1  0  0  0  0
 46 45  1  0  0  0  0
 48 49  1  0  0  0  0
 48 50  1  0  0  0  0
 51 48  1  0  0  0  0
M  END
