1,13,24
q = 0.0, confidence = 0.998

 26 25  0  0  0  0  0  0  0  0999 V2000
   -2.0646    0.6990   -0.1628 N   0  0  0  0  0  0  0  0  0  0  0  0
   -2.2213    1.5998    0.3226 H   0  0  0  0  0  0  0  0  0  0  0  0
   -2.2874    0.8852   -1.1542 H   0  0  0  0  0  0  0  0  0  0  0  0
   -2.9296   -0.3756    0.3626 C   0  0  0  0  0  0  0  0  0  0  0  0
   -3.9907   -0.1439    0.1296 H   0  0  0  0  0  0  0  0  0  0  0  0
   -2.8300   -0.3829    1.4670 H   0  0  0  0  0  0  0  0  0  0  0  0
   -2.5492   -1.7355   -0.2123 C   0  0  0  0  0  0  0  0  0  0  0  0
   -2.5795   -1.7109   -1.3250 H   0  0  0  0  0  0  0  0  0  0  0  0
   -3.3295   -2.4649    0.0849 H   0  0  0  0  0  0  0  0  0  0  0  0
   -1.2134   -2.2819    0.2804 C   0  0  0  0  0  0  0  0  0  0  0  0
   -1.1562   -2.2018    1.3857 H   0  0  0  0  0  0  0  0  0  0  0  0
   -1.1445   -3.3644    0.0347 H   0  0  0  0  0  0  0  0  0  0  0  0
    0.0001   -1.6086   -0.2678 N   0  0  0  0  0  0  0  0  0  0  0  0
    0.0002   -1.7590   -1.2904 H   0  0  0  0  0  0  0  0  0  0  0  0
    1.2134   -2.2820    0.2807 C   0  0  0  0  0  0  0  0  0  0  0  0
    1.1560   -2.2018    1.3859 H   0  0  0  0  0  0  0  0  0  0  0  0
    1.1446   -3.3644    0.0349 H   0  0  0  0  0  0  0  0  0  0  0  0
    2.5493   -1.7355   -0.2118 C   0  0  0  0  0  0  0  0  0  0  0  0
    2.5800   -1.7114   -1.3245 H   0  0  0  0  0  0  0  0  0  0  0  0
    3.3295   -2.4649    0.0860 H   0  0  0  0  0  0  0  0  0  0  0  0
    2.9294   -0.3754    0.3627 C   0  0  0  0  0  0  0  0  0  0  0  0
    2.8292   -0.3822    1.4670 H   0  0  0  0  0  0  0  0  0  0  0  0
    3.9906   -0.1437    0.1302 H   0  0  0  0  0  0  0  0  0  0  0  0
    2.0645    0.6989   -0.1636 N   0  0  0  0  0  0  0  0  0  0  0  0
    2.2873    0.8841   -1.1551 H   0  0  0  0  0  0  0  0  0  0  0  0
    2.2214    1.6002    0.3210 H   0  0  0  0  0  0  0  0  0  0  0  0
  1  2  1  0  0  0  0
  1  4  1  0  0  0  0
  3  1  1  0  0  0  0
  4  6  1  0  0  0  0
  5  4  1  0  0  0  0
  7  9  1  0  0  0  0
  7 10  1  0  0  0  0
  7  4  1  0  0  0  0
  8  7  1  0  0  0  0
 10 11  1  0  0  0  0
 12 10  1  0  0  0  0
 13 10  1  0  0  0  0
 13 15  1  0  0  0  0
 14 13  1  0  0  0  0
 15 16  1  0  0  0  0
 17 15  1  0  0  0  0
 18 20  1  0  0  0  0
 18 15  1  0  0  0  0
 18 21  1  0  0  0  0
 19 18  1  0  0  0  0
 21 22  1  0  0  0  0
 23 21  1  0  0  0  0
 24 26  1  0  0  0  0
 24 21  1  0  0  0  0
 25 24  1  0  0  0  0
M  END
