1,3,5
q = 0.0, confidence = 0.994

 44 45  0  0  0  0  0  0  0  0999 V2000
   -2.3826   -0.0054    1.7485 N   0  0  0  0  0  0  0  0  0  0  0  0
   -2.8383    0.8438    2.1052 H   0  0  0  0  0  0  0  0  0  0  0  0
   -3.1864   -1.5625   -0.3750 N   0  0  0  0  0  0  0  0  0  0  0  0
   -3.7919   -1.6591   -1.2016 H   0  0  0  0  0  0  0  0  0  0  0  0
   -0.4219   -0.7857   -0.1041 N   0  0  0  0  0  0  0  0  0  0  0  0
    3.0513   -0.3400   -1.4200 N   0  0  0  0  0  0  0  0  0  0  0  0
    2.9176    0.5949   -1.8127 H   0  0  0  0  0  0  0  0  0  0  0  0
   -3.2135   -1.1956    2.0602 C   0  0  0  0  0  0  0  0  0  0  0  0
   -3.8840   -1.0034    2.9222 H   0  0  0  0  0  0  0  0  0  0  0  0
   -2.5441   -2.0212    2.3719 H   0  0  0  0  0  0  0  0  0  0  0  0
   -4.0431   -1.5991    0.8394 C   0  0  0  0  0  0  0  0  0  0  0  0
   -4.4936   -2.6036    0.9899 H   0  0  0  0  0  0  0  0  0  0  0  0
   -4.8567   -0.8674    0.6713 H   0  0  0  0  0  0  0  0  0  0  0  0
   -2.1135   -2.6174   -0.4124 C   0  0  0  0  0  0  0  0  0  0  0  0
   -2.3988   -3.4252   -1.1157 H   0  0  0  0  0  0  0  0  0  0  0  0
   -2.0610   -3.0896    0.5873 H   0  0  0  0  0  0  0  0  0  0  0  0
   -0.1915   -1.0200    1.3656 C   0  0  0  0  0  0  0  0  0  0  0  0
    0.8883   -0.9677    1.5926 H   0  0  0  0  0  0  0  0  0  0  0  0
   -0.4795   -2.0620    1.5997 H   0  0  0  0  0  0  0  0  0  0  0  0
   -0.7469   -2.0672   -0.8214 C   0  0  0  0  0  0  0  0  0  0  0  0
    0.0465   -2.8164   -0.6222 H   0  0  0  0  0  0  0  0  0  0  0  0
   -0.7381   -1.8335   -1.9026 H   0  0  0  0  0  0  0  0  0  0  0  0
   -0.9819   -0.0387    2.2157 C   0  0  0  0  0  0  0  0  0  0  0  0
   -0.9011   -0.3175    3.2894 H   0  0  0  0  0  0  0  0  0  0  0  0
   -0.5889    0.9897    2.0940 H   0  0  0  0  0  0  0  0  0  0  0  0
    0.7326   -0.0872   -0.7262 C   0  0  0  0  0  0  0  0  0  0  0  0
    0.8718    0.8748   -0.1904 H   0  0  0  0  0  0  0  0  0  0  0  0
    0.4550    0.1717   -1.7668 H   0  0  0  0  0  0  0  0  0  0  0  0
    2.0424   -0.9025   -0.7092 C   0  0  0  0  0  0  0  0  0  0  0  0
    4.4130   -0.8845   -1.4171 C   0  0  0  0  0  0  0  0  0  0  0  0
    4.8169   -0.8223   -2.4472 H   0  0  0  0  0  0  0  0  0  0  0  0
    4.3121   -1.9536   -1.1487 H   0  0  0  0  0  0  0  0  0  0  0  0
    5.3202   -0.1657   -0.4398 C   0  0  0  0  0  0  0  0  0  0  0  0
    6.2591    0.7820   -0.8876 C   0  0  0  0  0  0  0  0  0  0  0  0
    6.3655    0.9762   -1.9673 H   0  0  0  0  0  0  0  0  0  0  0  0
    7.0698    1.4709    0.0287 C   0  0  0  0  0  0  0  0  0  0  0  0
    7.8055    2.2044   -0.3338 H   0  0  0  0  0  0  0  0  0  0  0  0
    6.9461    1.2178    1.4031 C   0  0  0  0  0  0  0  0  0  0  0  0
    7.5848    1.7529    2.1217 H   0  0  0  0  0  0  0  0  0  0  0  0
    6.0128    0.2711    1.8588 C   0  0  0  0  0  0  0  0  0  0  0  0
    5.9247    0.0605    2.9355 H   0  0  0  0  0  0  0  0  0  0  0  0
    5.2046   -0.4174    0.9437 C   0  0  0  0  0  0  0  0  0  0  0  0
    4.4812   -1.1704    1.2945 H   0  0  0  0  0  0  0  0  0  0  0  0
    2.1362   -1.9723   -0.0968 O   0  0  0  0  0  0  0  0  0  0  0  0
  1  8  1  0  0  0  0
  1  2  1  0  0  0  0
  1 23  1  0  0  0  0
  3 11  1  0  0  0  0
  4  3  1  0  0  0  0
  5 17  1  0  0  0  0
  6 30  1  0  0  0  0
  6 29  1  0  0  0  0
  7  6  1  0  0  0  0
  8 10  1  0  0  0  0
  8  9  1  0  0  0  0
 11 12  1  0  0  0  0
 11  8  1  0  0  0  0
 13 11  1  0  0  0  0
 14  3  1  0  0  0  0
 14 16  1  0  0  0  0
 15 14  1  0  0  0  0
 17 18  1  0  0  0  0
 17 19  1  0  0  0  0
 17 23  1  0  0  0  0
 20 21  1  0  0  0  0
 20 14  1  0  0  0  0
 20  5  1  0  0  0  0
 22 20  1  0  0  0  0
 23 24  1  0  0  0  0
 25 23  1  0  0  0  0
 26 29  1  0  0  0  0
 26 27  1  0  0  0  0
 26  5  1  0  0  0  0
 28 26  1  0  0  0  0
 29 44  2  0  0  0  0
 30 32  1  0  0  0  0
 30 33  1  0  0  0  0
 31 30  1  0  0  0  0
 33 42  1  0  0  0  0
 34 33  2  0  0  0  0
 34 36  1  0  0  0  0
 35 34  1  0  0  0  0
 36 38  2  0  0  0  0
 37 36  1  0  0  0  0
 38 40  1  0  0  0  0
 38 39  1  0  0  0  0
 40 41  1  0  0  0  0
 42 43  1  0  0  0  0
 42 40  2  0  0  0  0
M  END
