1,2,3
q = -2.0, confidence = 0.84

 45 44  0  0  0  0  0  0  0  0999 V2000
   -1.3678   -1.5370   -0.7848 N   0  0  0  0  0  2  0  0  0  0  0  0
   -1.2300    1.7390   -0.6946 N   0  0  0  0  0  2  0  0  0  0  0  0
   -0.2047    0.0693   -2.7866 N   0  0  0  0  0  0  0  0  0  0  0  0
   -1.7885   -1.7252   -2.1645 C   0  0  0  0  0  0  0  0  0  0  0  0
   -0.6939   -1.2783   -3.1318 C   0  0  0  0  0  0  0  0  0  0  0  0
   -1.2094    1.1177   -3.0766 C   0  0  0  0  0  0  0  0  0  0  0  0
   -1.0922    2.2438   -2.0539 C   0  0  0  0  0  0  0  0  0  0  0  0
    1.0570    0.3676   -3.4666 C   0  0  0  0  0  0  0  0  0  0  0  0
   -3.2708   -3.8071   -0.3413 C   0  0  0  0  0  0  0  0  0  0  0  0
   -0.7744   -3.6002    1.4038 C   0  0  0  0  0  0  0  0  0  0  0  0
   -3.0674   -1.6627    1.8108 C   0  0  0  0  0  0  0  0  0  0  0  0
   -4.1788    1.2242   -0.5608 C   0  0  0  0  0  0  0  0  0  0  0  0
   -3.0923    4.0594   -0.1593 C   0  0  0  0  0  0  0  0  0  0  0  0
   -2.5827    1.9987    2.0029 C   0  0  0  0  0  0  0  0  0  0  0  0
   -2.0226   -2.7866   -2.4156 H   0  0  0  0  0  0  0  0  0  0  0  0
   -2.7336   -1.1695   -2.4002 H   0  0  0  0  0  0  0  0  0  0  0  0
    0.1700   -1.9701   -3.0520 H   0  0  0  0  0  0  0  0  0  0  0  0
   -1.0504   -1.3146   -4.1920 H   0  0  0  0  0  0  0  0  0  0  0  0
   -1.0989    1.4806   -4.1283 H   0  0  0  0  0  0  0  0  0  0  0  0
   -2.2170    0.6697   -2.9814 H   0  0  0  0  0  0  0  0  0  0  0  0
   -0.1031    2.7550   -2.2041 H   0  0  0  0  0  0  0  0  0  0  0  0
   -1.8444    3.0249   -2.3175 H   0  0  0  0  0  0  0  0  0  0  0  0
    1.4115    1.3769   -3.1826 H   0  0  0  0  0  0  0  0  0  0  0  0
    1.8311   -0.3680   -3.1769 H   0  0  0  0  0  0  0  0  0  0  0  0
    0.9409    0.3383   -4.5770 H   0  0  0  0  0  0  0  0  0  0  0  0
   -3.7231   -4.4506    0.4419 H   0  0  0  0  0  0  0  0  0  0  0  0
   -2.7650   -4.4772   -1.0675 H   0  0  0  0  0  0  0  0  0  0  0  0
   -4.1001   -3.2958   -0.8730 H   0  0  0  0  0  0  0  0  0  0  0  0
   -0.2700   -4.3465    0.7558 H   0  0  0  0  0  0  0  0  0  0  0  0
   -0.0108   -2.9470    1.8702 H   0  0  0  0  0  0  0  0  0  0  0  0
   -1.2807   -4.1602    2.2185 H   0  0  0  0  0  0  0  0  0  0  0  0
   -3.6485   -2.4091    2.3931 H   0  0  0  0  0  0  0  0  0  0  0  0
   -3.7802   -0.9273    1.3906 H   0  0  0  0  0  0  0  0  0  0  0  0
   -2.3888   -1.1380    2.5101 H   0  0  0  0  0  0  0  0  0  0  0  0
   -3.9450    0.1409   -0.5293 H   0  0  0  0  0  0  0  0  0  0  0  0
   -4.3614    1.4981   -1.6215 H   0  0  0  0  0  0  0  0  0  0  0  0
   -5.1214    1.3993   -0.0013 H   0  0  0  0  0  0  0  0  0  0  0  0
   -2.2517    4.7013    0.1788 H   0  0  0  0  0  0  0  0  0  0  0  0
   -3.3003    4.3031   -1.2214 H   0  0  0  0  0  0  0  0  0  0  0  0
   -3.9915    4.3495    0.4240 H   0  0  0  0  0  0  0  0  0  0  0  0
   -1.8902    2.7557    2.4223 H   0  0  0  0  0  0  0  0  0  0  0  0
   -3.5788    2.1497    2.4683 H   0  0  0  0  0  0  0  0  0  0  0  0
   -2.2082    0.9978    2.2811 H   0  0  0  0  0  0  0  0  0  0  0  0
   -2.0733   -2.5653    0.4750 Si  0  0  0  0  0  0  0  0  0  0  0  0
   -2.7076    2.2127    0.1339 Si  0  0  0  0  0  0  0  0  0  0  0  0
  1 44  1  0  0  0  0
  2 45  1  0  0  0  0
  4  1  1  0  0  0  0
  5 17  1  0  0  0  0
  5  3  1  0  0  0  0
  5  4  1  0  0  0  0
  6 20  1  0  0  0  0
  6  3  1  0  0  0  0
  6  7  1  0  0  0  0
  7  2  1  0  0  0  0
  8 23  1  0  0  0  0
  8 24  1  0  0  0  0
  8  3  1  0  0  0  0
  9 26  1  0  0  0  0
  9 44  1  0  0  0  0
 10 30  1  0  0  0  0
 10 31  1  0  0  0  0
 11 32  1  0  0  0  0
 11 34  1  0  0  0  0
 12 35  1  0  0  0  0
 12 37  1  0  0  0  0
 12 45  1  0  0  0  0
 13 45  1  0  0  0  0
 13 38  1  0  0  0  0
 13 40  1  0  0  0  0
 14 43  1  0  0  0  0
 14 41  1  0  0  0  0
 14 42  1  0  0  0  0
 15  4  1  0  0  0  0
 16  4  1  0  0  0  0
 18  5  1  0  0  0  0
 19  6  1  0  0  0  0
 21  7  1  0  0  0  0
 22  7  1  0  0  0  0
 25  8  1  0  0  0  0
 27  9  1  0  0  0  0
 28  9  1  0  0  0  0
 29 10  1  0  0  0  0
 33 11  1  0  0  0  0
 36 12  1  0  0  0  0
 39 13  1  0  0  0  0
 44 10  1  0  0  0  0
 44 11  1  0  0  0  0
 45 14  1  0  0  0  0
M  END
