1,5,6
q = -2.0, confidence = 0.95

 45 47  0  0  1  0  0  0  0  0999 V2000
   -1.7270    0.6613   -0.2517 N   0  0  0  0  0  2  0  0  0  0  0  0
   -4.2530    1.2690   -2.1684 Cl  0  0  0  0  0  0  0  0  0  0  0  0
   -1.7726   -0.7216    2.2929 Cl  0  0  0  0  0  0  0  0  0  0  0  0
    2.1654   -2.3987   -1.4187 Cl  0  0  0  0  0  0  0  0  0  0  0  0
    1.5095    0.4295   -1.0401 N   0  0  0  0  0  2  0  0  0  0  0  0
    0.4265    1.6088    1.2427 N   0  0  0  0  0  2  0  0  0  0  0  0
    1.0375    1.6300   -1.7177 C   0  0  0  0  0  0  0  0  0  0  0  0
    0.2780    2.7175    0.4696 C   0  0  1  0  0  3  0  0  0  0  0  0
   -3.0113    0.4519    0.1916 C   0  0  0  0  0  0  0  0  0  0  0  0
    2.8761    0.1823   -0.9687 C   0  0  0  0  0  0  0  0  0  0  0  0
   -0.0649    2.4796   -0.9894 C   0  0  0  0  0  0  0  0  0  0  0  0
   -0.1600    3.7866   -1.7950 C   0  0  0  0  0  0  0  0  0  0  0  0
    0.7598    1.7417    2.5421 C   0  0  0  0  0  0  0  0  0  0  0  0
    3.3639   -1.1482   -1.1623 C   0  0  0  0  0  0  0  0  0  0  0  0
   -1.4794    1.8099   -1.1106 C   0  0  0  0  0  0  0  0  0  0  0  0
   -3.2288   -0.1728    1.4590 C   0  0  0  0  0  0  0  0  0  0  0  0
    0.9488    2.9824    3.1560 C   0  0  0  0  0  0  0  0  0  0  0  0
    0.4305    3.9999    1.0303 C   0  0  0  0  0  0  0  0  0  0  0  0
   -4.2399    0.7682   -0.4819 C   0  0  0  0  0  0  0  0  0  0  0  0
    5.2670    0.7964   -0.6511 C   0  0  0  0  0  0  0  0  0  0  0  0
    0.7701    4.1361    2.3808 C   0  0  0  0  0  0  0  0  0  0  0  0
    5.6794   -0.5173   -0.9034 C   0  0  0  0  0  0  0  0  0  0  0  0
    3.4996    2.7553   -0.1339 Cl  0  0  0  0  0  0  0  0  0  0  0  0
    3.9038    1.1268   -0.6548 C   0  0  0  0  0  0  0  0  0  0  0  0
   -5.4995    0.5879    0.1105 C   0  0  0  0  0  0  0  0  0  0  0  0
   -4.4649   -0.3830    2.0630 C   0  0  0  0  0  0  0  0  0  0  0  0
    4.7138   -1.5057   -1.1383 C   0  0  0  0  0  0  0  0  0  0  0  0
   -5.6245    0.0276    1.3869 C   0  0  0  0  0  0  0  0  0  0  0  0
    0.5871    1.3464   -2.7001 H   0  0  0  0  0  0  0  0  0  0  0  0
    1.8841    2.3040   -1.9492 H   0  0  0  0  0  0  0  0  0  0  0  0
    0.7985    4.3413   -1.7789 H   0  0  0  0  0  0  0  0  0  0  0  0
   -0.9623    4.4493   -1.4161 H   0  0  0  0  0  0  0  0  0  0  0  0
   -0.3967    3.5545   -2.8523 H   0  0  0  0  0  0  0  0  0  0  0  0
    0.8780    0.8055    3.1096 H   0  0  0  0  0  0  0  0  0  0  0  0
   -2.2241    2.6035   -0.8837 H   0  0  0  0  0  0  0  0  0  0  0  0
   -1.5990    1.5736   -2.1942 H   0  0  0  0  0  0  0  0  0  0  0  0
    1.2251    3.0357    4.2185 H   0  0  0  0  0  0  0  0  0  0  0  0
    0.2975    4.8915    0.4057 H   0  0  0  0  0  0  0  0  0  0  0  0
    5.9956    1.5829   -0.4101 H   0  0  0  0  0  0  0  0  0  0  0  0
    0.8978    5.1360    2.8223 H   0  0  0  0  0  0  0  0  0  0  0  0
    6.7479   -0.7750   -0.8934 H   0  0  0  0  0  0  0  0  0  0  0  0
   -6.3891    0.8626   -0.4736 H   0  0  0  0  0  0  0  0  0  0  0  0
   -4.5130   -0.8603    3.0514 H   0  0  0  0  0  0  0  0  0  0  0  0
    4.9945   -2.5538   -1.3097 H   0  0  0  0  0  0  0  0  0  0  0  0
   -6.6156   -0.1169    1.8390 H   0  0  0  0  0  0  0  0  0  0  0  0
  1  9  1  0  0  0  0
  2 19  1  0  0  0  0
  4 14  1  0  0  0  0
  5 10  1  0  0  0  0
  6 13  1  0  0  0  0
  7  5  1  0  0  0  0
  7 11  1  0  0  0  0
  8 11  1  1  0  0  0
  8 18  1  0  0  0  0
  8  6  1  0  0  0  0
  9 16  1  0  0  0  0
 10 24  1  0  0  0  0
 12 31  1  0  0  0  0
 12 32  1  0  0  0  0
 12 11  1  0  0  0  0
 13 34  1  0  0  0  0
 13 17  2  0  0  0  0
 14 27  1  0  0  0  0
 14 10  2  0  0  0  0
 15 11  1  0  0  0  0
 15 35  1  0  0  0  0
 15  1  1  0  0  0  0
 16 26  2  0  0  0  0
 16  3  1  0  0  0  0
 17 37  1  0  0  0  0
 18 21  2  0  0  0  0
 19 25  1  0  0  0  0
 19  9  2  0  0  0  0
 20 39  1  0  0  0  0
 21 40  1  0  0  0  0
 21 17  1  0  0  0  0
 22 41  1  0  0  0  0
 22 20  1  0  0  0  0
 24 20  2  0  0  0  0
 24 23  1  0  0  0  0
 25 28  2  0  0  0  0
 26 43  1  0  0  0  0
 27 22  2  0  0  0  0
 28 45  1  0  0  0  0
 28 26  1  0  0  0  0
 29  7  1  0  0  0  0
 30  7  1  0  0  0  0
 33 12  1  0  0  0  0
 36 15  1  0  0  0  0
 38 18  1  0  0  0  0
 42 25  1  0  0  0  0
 44 27  1  0  0  0  0
M  END
