3,4,7
q = 0.0, confidence = 0.996

 38 37  0  0  0  0  0  0  0  0999 V2000
   -6.3436    0.6005    0.7164 O   0  0  0  0  0  0  0  0  0  0  0  0
   -5.9544   -1.2609   -0.5232 O   0  0  0  0  0  0  0  0  0  0  0  0
    0.2540    1.3491   -0.0998 N   0  0  0  0  0  0  0  0  0  0  0  0
    2.9011    1.2612    1.1101 N   0  0  0  0  0  0  0  0  0  0  0  0
    2.9216    0.9849    2.1026 H   0  0  0  0  0  0  0  0  0  0  0  0
    3.8924    1.3412    0.8423 H   0  0  0  0  0  0  0  0  0  0  0  0
    2.3265    0.5572   -1.9842 N   0  0  0  0  0  0  0  0  0  0  0  0
    3.3400    0.6718   -2.1277 H   0  0  0  0  0  0  0  0  0  0  0  0
    2.0362   -0.1153   -2.7089 H   0  0  0  0  0  0  0  0  0  0  0  0
    2.2150    2.5734    0.9604 C   0  0  0  0  0  0  0  0  0  0  0  0
    2.6117    3.0678    0.0553 H   0  0  0  0  0  0  0  0  0  0  0  0
    2.4462    3.2525    1.8077 H   0  0  0  0  0  0  0  0  0  0  0  0
    0.7023    2.3875    0.8829 C   0  0  0  0  0  0  0  0  0  0  0  0
    0.3301    2.0586    1.8743 H   0  0  0  0  0  0  0  0  0  0  0  0
    0.2252    3.3676    0.6679 H   0  0  0  0  0  0  0  0  0  0  0  0
    0.2503    1.8314   -1.5182 C   0  0  0  0  0  0  0  0  0  0  0  0
   -0.2070    2.8415   -1.5903 H   0  0  0  0  0  0  0  0  0  0  0  0
   -0.4084    1.1385   -2.0800 H   0  0  0  0  0  0  0  0  0  0  0  0
    1.6241    1.8544   -2.1818 C   0  0  0  0  0  0  0  0  0  0  0  0
    1.4944    2.0870   -3.2595 H   0  0  0  0  0  0  0  0  0  0  0  0
    2.2613    2.6578   -1.7702 H   0  0  0  0  0  0  0  0  0  0  0  0
   -1.1346    0.8757    0.2679 C   0  0  0  0  0  0  0  0  0  0  0  0
   -1.0623    0.4406    1.2846 H   0  0  0  0  0  0  0  0  0  0  0  0
   -1.3666    0.0357   -0.4146 H   0  0  0  0  0  0  0  0  0  0  0  0
   -2.2513    1.9203    0.2287 C   0  0  0  0  0  0  0  0  0  0  0  0
   -2.3547    2.3448   -0.7936 H   0  0  0  0  0  0  0  0  0  0  0  0
   -2.0097    2.7687    0.9025 H   0  0  0  0  0  0  0  0  0  0  0  0
   -3.5996    1.3257    0.6603 C   0  0  0  0  0  0  0  0  0  0  0  0
   -3.5157    0.9114    1.6884 H   0  0  0  0  0  0  0  0  0  0  0  0
   -4.3514    2.1365    0.7343 H   0  0  0  0  0  0  0  0  0  0  0  0
   -4.1529    0.2532   -0.2792 C   0  0  0  0  0  0  0  0  0  0  0  0
   -4.1383    0.6116   -1.3338 H   0  0  0  0  0  0  0  0  0  0  0  0
   -3.5659   -0.6883   -0.2744 H   0  0  0  0  0  0  0  0  0  0  0  0
   -5.6000   -0.0910    0.0477 C   0  0  0  0  0  0  0  0  0  0  0  0
   -7.3205   -1.6615   -0.3179 C   0  0  0  0  0  0  0  0  0  0  0  0
   -7.5339   -1.7818    0.7627 H   0  0  0  0  0  0  0  0  0  0  0  0
   -7.4386   -2.6237   -0.8456 H   0  0  0  0  0  0  0  0  0  0  0  0
   -8.0168   -0.9041   -0.7295 H   0  0  0  0  0  0  0  0  0  0  0  0
  2 35  1  0  0  0  0
  2 34  1  0  0  0  0
  3 22  1  0  0  0  0
  3 13  1  0  0  0  0
  4  5  1  0  0  0  0
  6  4  1  0  0  0  0
  8  7  1  0  0  0  0
  9  7  1  0  0  0  0
 10  4  1  0  0  0  0
 10 12  1  0  0  0  0
 11 10  1  0  0  0  0
 13 10  1  0  0  0  0
 13 14  1  0  0  0  0
 15 13  1  0  0  0  0
 16  3  1  0  0  0  0
 17 16  1  0  0  0  0
 18 16  1  0  0  0  0
 19  7  1  0  0  0  0
 19 21  1  0  0  0  0
 19 16  1  0  0  0  0
 20 19  1  0  0  0  0
 22 23  1  0  0  0  0
 24 22  1  0  0  0  0
 25 22  1  0  0  0  0
 25 28  1  0  0  0  0
 25 27  1  0  0  0  0
 26 25  1  0  0  0  0
 28 30  1  0  0  0  0
 28 29  1  0  0  0  0
 31 33  1  0  0  0  0
 31 34  1  0  0  0  0
 31 28  1  0  0  0  0
 32 31  1  0  0  0  0
 34  1  2  0  0  0  0
 35 36  1  0  0  0  0
 37 35  1  0  0  0  0
 38 35  1  0  0  0  0
M  END
