4,5,6
q = 0.0, confidence = 0.978

 43 44  0  0  1  0  0  0  0  0999 V2000
   -7.0951   -1.0019    0.0003 O   0  0  0  0  0  0  0  0  0  0  0  0
   -8.1262    1.0152   -0.0002 O   0  0  0  0  0  0  0  0  0  0  0  0
   -8.9074    0.4190   -0.0001 H   0  0  0  0  0  0  0  0  0  0  0  0
   -0.6378    0.5932   -0.0000 N   0  0  0  0  0  0  0  0  0  0  0  0
    1.8044    0.5049   -1.4048 N   0  0  0  0  0  2  0  0  0  0  0  0
    1.8044    0.5048    1.4049 N   0  0  0  0  0  2  0  0  0  0  0  0
    3.0775    0.5289   -1.8677 C   0  0  0  0  0  3  0  0  0  0  0  0
    3.6930   -0.3552   -1.6473 H   0  0  0  0  0  0  0  0  0  0  0  0
    3.5891    1.6113   -2.5879 C   0  0  0  0  0  0  0  0  0  0  0  0
    4.6262    1.5805   -2.9501 H   0  0  0  0  0  0  0  0  0  0  0  0
    2.7622    2.7187   -2.8256 C   0  0  0  0  0  0  0  0  0  0  0  0
    3.1374    3.5918   -3.3794 H   0  0  0  0  0  0  0  0  0  0  0  0
    1.4452    2.6933   -2.3476 C   0  0  0  0  0  0  0  0  0  0  0  0
    0.7638    3.5386   -2.5217 H   0  0  0  0  0  0  0  0  0  0  0  0
    0.9893    1.5656   -1.6510 C   0  0  0  0  0  0  0  0  0  0  0  0
   -0.4502    1.4076   -1.2366 C   0  0  0  0  0  0  0  0  0  0  0  0
   -0.9390    2.3998   -1.1445 H   0  0  0  0  0  0  0  0  0  0  0  0
   -0.9707    0.8662   -2.0559 H   0  0  0  0  0  0  0  0  0  0  0  0
   -0.4502    1.4075    1.2366 C   0  0  0  0  0  0  0  0  0  0  0  0
   -0.9707    0.8660    2.0558 H   0  0  0  0  0  0  0  0  0  0  0  0
   -0.9391    2.3997    1.1447 H   0  0  0  0  0  0  0  0  0  0  0  0
    0.9892    1.5655    1.6511 C   0  0  1  0  0  3  0  0  0  0  0  0
    1.4451    2.6932    2.3477 C   0  0  0  0  0  0  0  0  0  0  0  0
    0.7637    3.5385    2.5218 H   0  0  0  0  0  0  0  0  0  0  0  0
    2.7621    2.7186    2.8257 C   0  0  0  0  0  0  0  0  0  0  0  0
    3.1373    3.5916    3.3796 H   0  0  0  0  0  0  0  0  0  0  0  0
    3.5890    1.6111    2.5881 C   0  0  0  0  0  0  0  0  0  0  0  0
    4.6261    1.5804    2.9503 H   0  0  0  0  0  0  0  0  0  0  0  0
    3.0774    0.5288    1.8678 C   0  0  0  0  0  0  0  0  0  0  0  0
    3.6929   -0.3553    1.6475 H   0  0  0  0  0  0  0  0  0  0  0  0
   -2.0073   -0.0376   -0.0001 C   0  0  0  0  0  0  0  0  0  0  0  0
   -2.0501   -0.6999    0.8869 H   0  0  0  0  0  0  0  0  0  0  0  0
   -2.0500   -0.6999   -0.8871 H   0  0  0  0  0  0  0  0  0  0  0  0
   -3.2006    0.9180   -0.0000 C   0  0  0  0  0  0  0  0  0  0  0  0
   -3.1714    1.5830   -0.8906 H   0  0  0  0  0  0  0  0  0  0  0  0
   -3.1714    1.5830    0.8906 H   0  0  0  0  0  0  0  0  0  0  0  0
   -4.5152    0.1300   -0.0001 C   0  0  0  0  0  0  0  0  0  0  0  0
   -4.5547   -0.5445   -0.8814 H   0  0  0  0  0  0  0  0  0  0  0  0
   -4.5547   -0.5446    0.8812 H   0  0  0  0  0  0  0  0  0  0  0  0
   -5.7533    1.0216   -0.0000 C   0  0  0  0  0  0  0  0  0  0  0  0
   -5.7757    1.6970    0.8828 H   0  0  0  0  0  0  0  0  0  0  0  0
   -5.7757    1.6971   -0.8828 H   0  0  0  0  0  0  0  0  0  0  0  0
   -7.0388    0.2122    0.0000 C   0  0  0  0  0  0  0  0  0  0  0  0
  2  3  1  0  0  0  0
  2 43  1  0  0  0  0
  4 19  1  0  0  0  0
  6 22  1  0  0  0  0
  6 29  1  0  0  0  0
  7  8  1  0  0  0  0
  7  5  1  0  0  0  0
  9  7  1  0  0  0  0
 10  9  1  0  0  0  0
 11  9  2  0  0  0  0
 11 13  1  0  0  0  0
 12 11  1  0  0  0  0
 13 15  2  0  0  0  0
 14 13  1  0  0  0  0
 15  5  1  0  0  0  0
 15 16  1  0  0  0  0
 16 17  1  0  0  0  0
 16  4  1  0  0  0  0
 18 16  1  0  0  0  0
 19 20  1  0  0  0  0
 21 19  1  0  0  0  0
 22 19  1  1  0  0  0
 22 23  1  0  0  0  0
 23 24  1  0  0  0  0
 23 25  2  0  0  0  0
 25 26  1  0  0  0  0
 27 25  1  0  0  0  0
 27 28  1  0  0  0  0
 29 27  2  0  0  0  0
 30 29  1  0  0  0  0
 31 34  1  0  0  0  0
 31  4  1  0  0  0  0
 31 32  1  0  0  0  0
 33 31  1  0  0  0  0
 34 36  1  0  0  0  0
 35 34  1  0  0  0  0
 37 34  1  0  0  0  0
 37 40  1  0  0  0  0
 37 39  1  0  0  0  0
 38 37  1  0  0  0  0
 40 43  1  0  0  0  0
 40 41  1  0  0  0  0
 42 40  1  0  0  0  0
 43  1  2  0  0  0  0
M  END
