1,3,4
q = 0.0, confidence = 0.998

 43 47  0  0  1  0  0  0  0  0999 V2000
   -1.3343   -1.6222   -0.8429 N   0  0  0  0  0  2  0  0  0  0  0  0
   -2.3270   -3.6346   -0.6612 N   0  0  0  0  0  0  0  0  0  0  0  0
    1.0463   -2.2706   -0.5983 N   0  0  0  0  0  2  0  0  0  0  0  0
    2.0709   -0.0106   -0.6663 N   0  0  0  0  0  2  0  0  0  0  0  0
    4.2525   -0.5506   -0.5325 N   0  0  0  0  0  0  0  0  0  0  0  0
   -2.6971   -1.4174   -0.9446 C   0  0  0  0  0  0  0  0  0  0  0  0
   -3.4566   -0.2491   -1.1575 C   0  0  0  0  0  0  0  0  0  0  0  0
   -2.9672    0.7236   -1.2799 H   0  0  0  0  0  0  0  0  0  0  0  0
   -4.8430   -0.3903   -1.2283 C   0  0  0  0  0  0  0  0  0  0  0  0
   -5.4646    0.5013   -1.3948 H   0  0  0  0  0  0  0  0  0  0  0  0
   -5.4720   -1.6555   -1.1019 C   0  0  0  0  0  0  0  0  0  0  0  0
   -6.5679   -1.7192   -1.1671 H   0  0  0  0  0  0  0  0  0  0  0  0
   -4.7343   -2.8270   -0.9076 C   0  0  0  0  0  0  0  0  0  0  0  0
   -5.2331   -3.8028   -0.8246 H   0  0  0  0  0  0  0  0  0  0  0  0
   -3.3383   -2.6908   -0.8314 C   0  0  0  0  0  0  0  0  0  0  0  0
   -2.5085   -5.0674   -0.5038 C   0  0  0  0  0  0  0  0  0  0  0  0
   -2.0874   -5.6204   -1.3674 H   0  0  0  0  0  0  0  0  0  0  0  0
   -3.5886   -5.2865   -0.4453 H   0  0  0  0  0  0  0  0  0  0  0  0
   -2.0347   -5.4211    0.4328 H   0  0  0  0  0  0  0  0  0  0  0  0
   -1.1381   -2.9509   -0.6743 C   0  0  0  0  0  0  0  0  0  0  0  0
    0.2411   -3.3768   -0.5618 C   0  0  0  0  0  0  0  0  0  0  0  0
    0.8149   -4.6562   -0.4597 C   0  0  0  0  0  0  0  0  0  0  0  0
    0.1870   -5.5547   -0.4422 H   0  0  0  0  0  0  0  0  0  0  0  0
    2.2133   -4.7646   -0.3894 C   0  0  0  0  0  0  0  0  0  0  0  0
    2.6783   -5.7577   -0.3159 H   0  0  0  0  0  0  0  0  0  0  0  0
    3.0246   -3.6180   -0.4139 C   0  0  0  0  0  0  0  0  0  0  0  0
    4.1155   -3.7091   -0.3564 H   0  0  0  0  0  0  0  0  0  0  0  0
    2.4088   -2.3585   -0.5145 C   0  0  0  0  0  0  0  0  0  0  0  0
    2.9643   -1.0215   -0.5608 C   0  0  2  0  0  3  0  0  0  0  0  0
    5.4688   -1.3401   -0.4390 C   0  0  0  0  0  0  0  0  0  0  0  0
    5.4914   -1.9199    0.5050 H   0  0  0  0  0  0  0  0  0  0  0  0
    6.3379   -0.6601   -0.4467 H   0  0  0  0  0  0  0  0  0  0  0  0
    5.5602   -2.0285   -1.3024 H   0  0  0  0  0  0  0  0  0  0  0  0
    4.1774    0.8380   -0.6181 C   0  0  0  0  0  0  0  0  0  0  0  0
    5.1782    1.8235   -0.6420 C   0  0  0  0  0  0  0  0  0  0  0  0
    6.2470    1.5736   -0.5858 H   0  0  0  0  0  0  0  0  0  0  0  0
    4.7547    3.1520   -0.7420 C   0  0  0  0  0  0  0  0  0  0  0  0
    5.5076    3.9531   -0.7650 H   0  0  0  0  0  0  0  0  0  0  0  0
    3.3796    3.4911   -0.8111 C   0  0  0  0  0  0  0  0  0  0  0  0
    3.0924    4.5501   -0.8820 H   0  0  0  0  0  0  0  0  0  0  0  0
    2.3803    2.5162   -0.7851 C   0  0  0  0  0  0  0  0  0  0  0  0
    1.3200    2.7874   -0.8297 H   0  0  0  0  0  0  0  0  0  0  0  0
    2.7886    1.1693   -0.6929 C   0  0  0  0  0  0  0  0  0  0  0  0
  1 20  1  0  0  0  0
  2 16  1  0  0  0  0
  3 21  1  0  0  0  0
  3 28  1  0  0  0  0
  4 29  1  0  0  0  0
  5 30  1  0  0  0  0
  6  1  1  0  0  0  0
  6 15  1  0  0  0  0
  7  6  2  0  0  0  0
  8  7  1  0  0  0  0
  9  7  1  0  0  0  0
  9 11  2  0  0  0  0
 10  9  1  0  0  0  0
 11 13  1  0  0  0  0
 12 11  1  0  0  0  0
 13 15  2  0  0  0  0
 13 14  1  0  0  0  0
 15  2  1  0  0  0  0
 16 18  1  0  0  0  0
 16 19  1  0  0  0  0
 17 16  1  0  0  0  0
 20  2  1  0  0  0  0
 20 21  2  0  0  0  0
 21 22  1  0  0  0  0
 22 23  1  0  0  0  0
 22 24  2  0  0  0  0
 24 25  1  0  0  0  0
 26 24  1  0  0  0  0
 26 27  1  0  0  0  0
 28 26  2  0  0  0  0
 29  5  1  0  0  0  0
 29 28  1  6  0  0  0
 30 31  1  0  0  0  0
 32 30  1  0  0  0  0
 33 30  1  0  0  0  0
 34  5  1  0  0  0  0
 35 34  1  0  0  0  0
 35 36  1  0  0  0  0
 37 35  2  0  0  0  0
 38 37  1  0  0  0  0
 39 41  2  0  0  0  0
 39 37  1  0  0  0  0
 40 39  1  0  0  0  0
 41 43  1  0  0  0  0
 42 41  1  0  0  0  0
 43  4  1  0  0  0  0
 43 34  2  0  0  0  0
M  END
