1,8,18
q = -2.0, confidence = 0.946

 43 45  0  0  1  0  0  0  0  0999 V2000
   -0.0006   -2.5249    0.0000 N   0  0  0  0  0  2  0  0  0  0  0  0
    0.9831   -3.1543    0.6679 C   0  0  1  0  0  3  0  0  0  0  0  0
    1.0120   -4.5547    0.6818 C   0  0  0  0  0  0  0  0  0  0  0  0
   -0.0012   -5.2530    0.0001 C   0  0  0  0  0  0  0  0  0  0  0  0
   -1.0142   -4.5543   -0.6816 C   0  0  0  0  0  0  0  0  0  0  0  0
   -0.9846   -3.1539   -0.6679 C   0  0  0  0  0  0  0  0  0  0  0  0
   -1.9873   -2.2342   -1.3294 C   0  0  0  0  0  0  0  0  0  0  0  0
   -1.6469   -0.9158   -1.1695 N   0  0  0  0  0  2  0  0  0  0  0  0
   -2.5489    0.0821   -1.7188 C   0  0  0  0  0  0  0  0  0  0  0  0
   -3.3314    0.8168   -0.6476 C   0  0  0  0  0  0  0  0  0  0  0  0
   -3.3078    2.2200   -0.5555 C   0  0  0  0  0  0  0  0  0  0  0  0
   -4.0123    2.8869    0.4604 C   0  0  0  0  0  0  0  0  0  0  0  0
   -4.7544    2.1542    1.3990 C   0  0  0  0  0  0  0  0  0  0  0  0
   -4.7920    0.7510    1.3107 C   0  0  0  0  0  0  0  0  0  0  0  0
   -4.0856    0.0886    0.2969 C   0  0  0  0  0  0  0  0  0  0  0  0
   -2.9787   -2.6883   -1.9197 O   0  0  0  0  0  0  0  0  0  0  0  0
    1.9863   -2.2350    1.3294 C   0  0  0  0  0  0  0  0  0  0  0  0
    1.6463   -0.9165    1.1696 N   0  0  0  0  0  2  0  0  0  0  0  0
    2.5487    0.0811    1.7188 C   0  0  0  0  0  0  0  0  0  0  0  0
    3.3317    0.8153    0.6477 C   0  0  0  0  0  0  0  0  0  0  0  0
    4.0854    0.0867   -0.2969 C   0  0  0  0  0  0  0  0  0  0  0  0
    4.7922    0.7488   -1.3107 C   0  0  0  0  0  0  0  0  0  0  0  0
    4.7555    2.1521   -1.3988 C   0  0  0  0  0  0  0  0  0  0  0  0
    4.0139    2.8851   -0.4601 C   0  0  0  0  0  0  0  0  0  0  0  0
    3.3090    2.2185    0.5558 C   0  0  0  0  0  0  0  0  0  0  0  0
    2.9774   -2.6895    1.9196 O   0  0  0  0  0  0  0  0  0  0  0  0
    1.8276   -5.0521    1.2258 H   0  0  0  0  0  0  0  0  0  0  0  0
   -0.0015   -6.3537    0.0001 H   0  0  0  0  0  0  0  0  0  0  0  0
   -1.8299   -5.0513   -1.2256 H   0  0  0  0  0  0  0  0  0  0  0  0
   -1.9782    0.8210   -2.3220 H   0  0  0  0  0  0  0  0  0  0  0  0
   -3.2542   -0.4408   -2.4018 H   0  0  0  0  0  0  0  0  0  0  0  0
   -2.7124    2.7976   -1.2813 H   0  0  0  0  0  0  0  0  0  0  0  0
   -3.9740    3.9856    0.5218 H   0  0  0  0  0  0  0  0  0  0  0  0
   -5.3054    2.6736    2.1979 H   0  0  0  0  0  0  0  0  0  0  0  0
   -5.3784    0.1695    2.0387 H   0  0  0  0  0  0  0  0  0  0  0  0
   -4.1161   -1.0095    0.2219 H   0  0  0  0  0  0  0  0  0  0  0  0
    3.2537   -0.4421    2.4020 H   0  0  0  0  0  0  0  0  0  0  0  0
    1.9783    0.8203    2.3219 H   0  0  0  0  0  0  0  0  0  0  0  0
    4.1152   -1.0114   -0.2221 H   0  0  0  0  0  0  0  0  0  0  0  0
    5.3782    0.1670   -2.0388 H   0  0  0  0  0  0  0  0  0  0  0  0
    5.3068    2.6712   -2.1976 H   0  0  0  0  0  0  0  0  0  0  0  0
    3.9763    3.9838   -0.5214 H   0  0  0  0  0  0  0  0  0  0  0  0
    2.7140    2.7965    1.2816 H   0  0  0  0  0  0  0  0  0  0  0  0
  1  2  1  0  0  0  0
  2  3  1  0  0  0  0
  2 17  1  6  0  0  0
  3 27  1  0  0  0  0
  4 28  1  0  0  0  0
  4  3  2  0  0  0  0
  5  6  2  0  0  0  0
  5  4  1  0  0  0  0
  6  1  1  0  0  0  0
  7  8  1  0  0  0  0
  7  6  1  0  0  0  0
  9  8  1  0  0  0  0
  9 10  1  0  0  0  0
 10 11  2  0  0  0  0
 10 15  1  0  0  0  0
 11 12  1  0  0  0  0
 12 33  1  0  0  0  0
 12 13  2  0  0  0  0
 13 34  1  0  0  0  0
 14 13  1  0  0  0  0
 14 35  1  0  0  0  0
 15 14  2  0  0  0  0
 16  7  2  0  0  0  0
 17 26  2  0  0  0  0
 18 17  1  0  0  0  0
 18 19  1  0  0  0  0
 19 38  1  0  0  0  0
 19 37  1  0  0  0  0
 20 19  1  0  0  0  0
 21 39  1  0  0  0  0
 21 20  2  0  0  0  0
 22 21  1  0  0  0  0
 23 22  2  0  0  0  0
 23 24  1  0  0  0  0
 24 25  2  0  0  0  0
 25 20  1  0  0  0  0
 25 43  1  0  0  0  0
 29  5  1  0  0  0  0
 30  9  1  0  0  0  0
 31  9  1  0  0  0  0
 32 11  1  0  0  0  0
 36 15  1  0  0  0  0
 40 22  1  0  0  0  0
 41 23  1  0  0  0  0
 42 24  1  0  0  0  0
M  END
