3,4,6
q = -2.0, confidence = 0.986

 35 37  0  0  1  0  0  0  0  0999 V2000
   -2.5650   -2.4818    2.0834 O   0  0  0  0  0  0  0  0  0  0  0  0
   -1.5006    2.6182   -2.6380 O   0  0  0  0  0  0  0  0  0  0  0  0
   -1.8248   -0.0543   -0.3594 N   0  0  0  0  0  2  0  0  0  0  0  0
   -0.5730   -1.4872    1.3154 N   0  0  0  0  0  2  0  0  0  0  0  0
    1.5209   -2.4148    1.7827 N   0  0  0  0  0  0  0  0  0  0  0  0
    0.0110    1.3195   -1.3910 N   0  0  0  0  0  2  0  0  0  0  0  0
    2.2580    1.3902   -2.0457 N   0  0  0  0  0  0  0  0  0  0  0  0
   -2.6346   -0.8644    0.3361 C   0  0  2  0  0  3  0  0  0  0  0  0
   -4.0149   -0.8484    0.1138 C   0  0  0  0  0  0  0  0  0  0  0  0
   -4.6382   -1.5323    0.7067 H   0  0  0  0  0  0  0  0  0  0  0  0
   -4.5298    0.0474   -0.8391 C   0  0  0  0  0  0  0  0  0  0  0  0
   -5.6128    0.0830   -1.0362 H   0  0  0  0  0  0  0  0  0  0  0  0
   -3.6612    0.9096   -1.5271 C   0  0  0  0  0  0  0  0  0  0  0  0
   -3.9975    1.6518   -2.2645 H   0  0  0  0  0  0  0  0  0  0  0  0
   -2.2891    0.8290   -1.2529 C   0  0  0  0  0  0  0  0  0  0  0  0
   -1.2273    1.7026   -1.8467 C   0  0  0  0  0  0  0  0  0  0  0  0
    1.1327    2.0712   -1.7439 C   0  0  0  0  0  0  0  0  0  0  0  0
    1.1045    3.4929   -1.7492 C   0  0  0  0  0  0  0  0  0  0  0  0
    0.1669    4.0140   -1.5189 H   0  0  0  0  0  0  0  0  0  0  0  0
    2.2744    4.1887   -2.0566 C   0  0  0  0  0  0  0  0  0  0  0  0
    2.2753    5.2905   -2.0542 H   0  0  0  0  0  0  0  0  0  0  0  0
    3.4480    3.4727   -2.3534 C   0  0  0  0  0  0  0  0  0  0  0  0
    4.3926    3.9837   -2.5933 H   0  0  0  0  0  0  0  0  0  0  0  0
    3.3737    2.0724   -2.3286 C   0  0  0  0  0  0  0  0  0  0  0  0
    4.2688    1.4600   -2.5480 H   0  0  0  0  0  0  0  0  0  0  0  0
    0.2678   -2.1440    2.2092 C   0  0  0  0  0  0  0  0  0  0  0  0
   -0.1468   -2.5053    3.5253 C   0  0  0  0  0  0  0  0  0  0  0  0
   -1.1742   -2.2937    3.8414 H   0  0  0  0  0  0  0  0  0  0  0  0
    0.7669   -3.1341    4.3711 C   0  0  0  0  0  0  0  0  0  0  0  0
    0.4620   -3.4083    5.3941 H   0  0  0  0  0  0  0  0  0  0  0  0
    2.0708   -3.4048    3.9177 C   0  0  0  0  0  0  0  0  0  0  0  0
    2.8187   -3.8978    4.5570 H   0  0  0  0  0  0  0  0  0  0  0  0
    2.3840   -3.0140    2.6081 C   0  0  0  0  0  0  0  0  0  0  0  0
    3.3952   -3.1953    2.1950 H   0  0  0  0  0  0  0  0  0  0  0  0
   -1.9304   -1.7076    1.3512 C   0  0  0  0  0  0  0  0  0  0  0  0
  2 16  2  0  0  0  0
  3  8  1  0  0  0  0
  4 35  1  0  0  0  0
  4 26  1  0  0  0  0
  5 26  2  0  0  0  0
  5 33  1  0  0  0  0
  7 17  1  0  0  0  0
  8 35  1  1  0  0  0
  9  8  1  0  0  0  0
  9 10  1  0  0  0  0
 11  9  2  0  0  0  0
 12 11  1  0  0  0  0
 13 15  2  0  0  0  0
 13 11  1  0  0  0  0
 14 13  1  0  0  0  0
 15  3  1  0  0  0  0
 16  6  1  0  0  0  0
 16 15  1  0  0  0  0
 17  6  1  0  0  0  0
 18 17  2  0  0  0  0
 18 19  1  0  0  0  0
 20 21  1  0  0  0  0
 20 18  1  0  0  0  0
 22 24  1  0  0  0  0
 22 20  2  0  0  0  0
 23 22  1  0  0  0  0
 24  7  2  0  0  0  0
 25 24  1  0  0  0  0
 26 27  1  0  0  0  0
 27 28  1  0  0  0  0
 27 29  2  0  0  0  0
 29 30  1  0  0  0  0
 31 29  1  0  0  0  0
 31 32  1  0  0  0  0
 33 31  2  0  0  0  0
 34 33  1  0  0  0  0
 35  1  2  0  0  0  0
M  END
