1,2,25
q = 0.0, confidence = 0.996

 45 45  0  0  1  0  0  0  0  0999 V2000
   -0.0000    1.2307    0.0000 N   0  0  0  0  0  2  0  0  0  0  0  0
   -2.0901   -0.2624    0.3153 N   0  0  0  0  0  0  0  0  0  0  0  0
   -2.0182    0.9433    1.1943 C   0  0  0  0  0  0  0  0  0  0  0  0
   -1.6168    0.5924    2.1685 H   0  0  0  0  0  0  0  0  0  0  0  0
   -3.0136    1.4077    1.3651 H   0  0  0  0  0  0  0  0  0  0  0  0
   -1.0396    1.9044    0.5849 C   0  0  1  0  0  3  0  0  0  0  0  0
   -2.7489   -1.3892    1.0309 C   0  0  0  0  0  0  0  0  0  0  0  0
   -3.7872   -1.0965    1.3104 H   0  0  0  0  0  0  0  0  0  0  0  0
   -2.1727   -1.5318    1.9648 H   0  0  0  0  0  0  0  0  0  0  0  0
   -2.7914    0.0780   -0.9622 C   0  0  0  0  0  0  0  0  0  0  0  0
   -2.6240   -0.7630   -1.6576 H   0  0  0  0  0  0  0  0  0  0  0  0
   -2.2413    0.9297   -1.4076 H   0  0  0  0  0  0  0  0  0  0  0  0
   -2.7472   -2.6847    0.2333 C   0  0  0  0  0  0  0  0  0  0  0  0
   -3.1168   -3.5109    0.8718 H   0  0  0  0  0  0  0  0  0  0  0  0
   -1.7211   -2.9354   -0.1016 H   0  0  0  0  0  0  0  0  0  0  0  0
   -3.3911   -2.6401   -0.6674 H   0  0  0  0  0  0  0  0  0  0  0  0
   -1.0672    3.2983    0.5816 C   0  0  0  0  0  0  0  0  0  0  0  0
   -1.9177    3.8224    1.0418 H   0  0  0  0  0  0  0  0  0  0  0  0
   -4.2795    0.4069   -0.8528 C   0  0  0  0  0  0  0  0  0  0  0  0
   -4.4946    1.2523   -0.1678 H   0  0  0  0  0  0  0  0  0  0  0  0
   -4.8855   -0.4611   -0.5247 H   0  0  0  0  0  0  0  0  0  0  0  0
   -4.6496    0.7014   -1.8550 H   0  0  0  0  0  0  0  0  0  0  0  0
   -0.0001    4.0133    0.0002 C   0  0  0  0  0  0  0  0  0  0  0  0
   -0.0001    5.1121    0.0003 H   0  0  0  0  0  0  0  0  0  0  0  0
    2.0901   -0.2622   -0.3153 N   0  0  0  0  0  0  0  0  0  0  0  0
    2.0182    0.9435   -1.1942 C   0  0  0  0  0  0  0  0  0  0  0  0
    1.6168    0.5927   -2.1685 H   0  0  0  0  0  0  0  0  0  0  0  0
    3.0135    1.4080   -1.3649 H   0  0  0  0  0  0  0  0  0  0  0  0
    1.0395    1.9045   -0.5847 C   0  0  0  0  0  0  0  0  0  0  0  0
    2.7490   -1.3889   -1.0310 C   0  0  0  0  0  0  0  0  0  0  0  0
    3.7871   -1.0962   -1.3106 H   0  0  0  0  0  0  0  0  0  0  0  0
    2.1727   -1.5316   -1.9649 H   0  0  0  0  0  0  0  0  0  0  0  0
    2.7913    0.0780    0.9623 C   0  0  0  0  0  0  0  0  0  0  0  0
    2.6239   -0.7630    1.6576 H   0  0  0  0  0  0  0  0  0  0  0  0
    2.2412    0.9297    1.4077 H   0  0  0  0  0  0  0  0  0  0  0  0
    2.7475   -2.6845   -0.2334 C   0  0  0  0  0  0  0  0  0  0  0  0
    3.1169   -3.5107   -0.8721 H   0  0  0  0  0  0  0  0  0  0  0  0
    1.7215   -2.9353    0.1017 H   0  0  0  0  0  0  0  0  0  0  0  0
    3.3917   -2.6400    0.6671 H   0  0  0  0  0  0  0  0  0  0  0  0
    1.0670    3.2984   -0.5812 C   0  0  0  0  0  0  0  0  0  0  0  0
    1.9176    3.8226   -1.0414 H   0  0  0  0  0  0  0  0  0  0  0  0
    4.2795    0.4070    0.8531 C   0  0  0  0  0  0  0  0  0  0  0  0
    4.4946    1.2524    0.1682 H   0  0  0  0  0  0  0  0  0  0  0  0
    4.8855   -0.4610    0.5249 H   0  0  0  0  0  0  0  0  0  0  0  0
    4.6495    0.7014    1.8553 H   0  0  0  0  0  0  0  0  0  0  0  0
  1  6  1  0  0  0  0
  2  7  1  0  0  0  0
  2  3  1  0  0  0  0
  3  5  1  0  0  0  0
  3  4  1  0  0  0  0
  6  3  1  1  0  0  0
  7  8  1  0  0  0  0
  7  9  1  0  0  0  0
 10 19  1  0  0  0  0
 10  2  1  0  0  0  0
 11 10  1  0  0  0  0
 12 10  1  0  0  0  0
 13 14  1  0  0  0  0
 13  7  1  0  0  0  0
 15 13  1  0  0  0  0
 16 13  1  0  0  0  0
 17  6  1  0  0  0  0
 17 18  1  0  0  0  0
 19 21  1  0  0  0  0
 19 20  1  0  0  0  0
 22 19  1  0  0  0  0
 23 24  1  0  0  0  0
 23 17  2  0  0  0  0
 25 33  1  0  0  0  0
 26 29  1  0  0  0  0
 26 25  1  0  0  0  0
 27 26  1  0  0  0  0
 28 26  1  0  0  0  0
 29 40  2  0  0  0  0
 29  1  1  0  0  0  0
 30 25  1  0  0  0  0
 30 36  1  0  0  0  0
 31 30  1  0  0  0  0
 32 30  1  0  0  0  0
 33 35  1  0  0  0  0
 33 34  1  0  0  0  0
 36 38  1  0  0  0  0
 36 39  1  0  0  0  0
 37 36  1  0  0  0  0
 40 23  1  0  0  0  0
 41 40  1  0  0  0  0
 42 33  1  0  0  0  0
 42 45  1  0  0  0  0
 43 42  1  0  0  0  0
 44 42  1  0  0  0  0
M  END
