1,3,5
q = -1.0, confidence = 0.002

 53 55  0  0  0  0  0  0  0  0999 V2000
    2.7921   -0.4601    0.2217 N   0  0  0  0  0  2  0  0  0  0  0  0
    3.0497   -0.1706    1.5256 N   0  0  0  0  0  0  0  0  0  0  0  0
    1.0197    1.7844    0.5966 N   0  0  0  0  0  2  0  0  0  0  0  0
    1.5007    1.7598    1.8637 N   0  0  0  0  0  0  0  0  0  0  0  0
    0.1962   -0.9675    1.3724 N   0  0  0  0  0  2  0  0  0  0  0  0
    0.7907   -0.5548    2.5217 N   0  0  0  0  0  0  0  0  0  0  0  0
    1.9735    0.4263    2.4689 B   0  0  0  0  0  0  0  0  0  0  0  0
    2.4424    0.5991    3.5818 H   0  0  0  0  0  0  0  0  0  0  0  0
    4.3444   -0.4496    1.8002 C   0  0  0  0  0  3  0  0  0  0  0  0
    4.7410   -0.2763    2.8061 H   0  0  0  0  0  0  0  0  0  0  0  0
    4.9486   -0.9351    0.6401 C   0  0  0  0  0  0  0  0  0  0  0  0
    5.9879   -1.2516    0.5144 H   0  0  0  0  0  0  0  0  0  0  0  0
    3.9362   -0.9281   -0.3454 C   0  0  0  0  0  0  0  0  0  0  0  0
    4.0263   -1.3895   -1.7771 C   0  0  0  0  0  0  0  0  0  0  0  0
    3.2131   -0.8818   -2.3340 H   0  0  0  0  0  0  0  0  0  0  0  0
    5.3633   -0.9773   -2.4099 C   0  0  0  0  0  0  0  0  0  0  0  0
    5.5250    0.1169   -2.3438 H   0  0  0  0  0  0  0  0  0  0  0  0
    5.3831   -1.2641   -3.4803 H   0  0  0  0  0  0  0  0  0  0  0  0
    6.2213   -1.4821   -1.9185 H   0  0  0  0  0  0  0  0  0  0  0  0
    3.7993   -2.9105   -1.8692 C   0  0  0  0  0  0  0  0  0  0  0  0
    4.5827   -3.4616   -1.3084 H   0  0  0  0  0  0  0  0  0  0  0  0
    3.8373   -3.2396   -2.9275 H   0  0  0  0  0  0  0  0  0  0  0  0
    2.8083   -3.1858   -1.4608 H   0  0  0  0  0  0  0  0  0  0  0  0
    1.4723    3.0046    2.3984 C   0  0  0  0  0  3  0  0  0  0  0  0
    1.8259    3.1782    3.4204 H   0  0  0  0  0  0  0  0  0  0  0  0
    0.9487    3.8732    1.4398 C   0  0  0  0  0  0  0  0  0  0  0  0
    0.7848    4.9503    1.5389 H   0  0  0  0  0  0  0  0  0  0  0  0
    0.6772    3.0643    0.3086 C   0  0  0  0  0  0  0  0  0  0  0  0
    0.1370    3.4891   -1.0337 C   0  0  0  0  0  0  0  0  0  0  0  0
   -0.2626    2.5802   -1.5252 H   0  0  0  0  0  0  0  0  0  0  0  0
    1.2700    4.0424   -1.9174 C   0  0  0  0  0  0  0  0  0  0  0  0
    1.7281    4.9427   -1.4574 H   0  0  0  0  0  0  0  0  0  0  0  0
    0.8773    4.3285   -2.9146 H   0  0  0  0  0  0  0  0  0  0  0  0
    2.0568    3.2781   -2.0642 H   0  0  0  0  0  0  0  0  0  0  0  0
   -1.0130    4.4960   -0.8825 C   0  0  0  0  0  0  0  0  0  0  0  0
   -1.8328    4.0845   -0.2607 H   0  0  0  0  0  0  0  0  0  0  0  0
   -1.4317    4.7521   -1.8765 H   0  0  0  0  0  0  0  0  0  0  0  0
   -0.6668    5.4428   -0.4174 H   0  0  0  0  0  0  0  0  0  0  0  0
    0.2264   -1.1740    3.5868 C   0  0  0  0  0  3  0  0  0  0  0  0
    0.5820   -0.9649    4.6014 H   0  0  0  0  0  0  0  0  0  0  0  0
   -0.7746   -2.0214    3.1136 C   0  0  0  0  0  0  0  0  0  0  0  0
   -1.4322   -2.6684    3.7015 H   0  0  0  0  0  0  0  0  0  0  0  0
   -0.7608   -1.8696    1.7058 C   0  0  0  0  0  0  0  0  0  0  0  0
   -1.5974   -2.6068    0.6923 C   0  0  0  0  0  0  0  0  0  0  0  0
   -1.5819   -2.0182   -0.2434 H   0  0  0  0  0  0  0  0  0  0  0  0
   -0.9784   -3.9806    0.3754 C   0  0  0  0  0  0  0  0  0  0  0  0
    0.0474   -3.8640   -0.0235 H   0  0  0  0  0  0  0  0  0  0  0  0
   -1.5873   -4.5083   -0.3869 H   0  0  0  0  0  0  0  0  0  0  0  0
   -0.9373   -4.6168    1.2840 H   0  0  0  0  0  0  0  0  0  0  0  0
   -3.0574   -2.7305    1.1535 C   0  0  0  0  0  0  0  0  0  0  0  0
   -3.1560   -3.4452    1.9975 H   0  0  0  0  0  0  0  0  0  0  0  0
   -3.6904   -3.0961    0.3207 H   0  0  0  0  0  0  0  0  0  0  0  0
   -3.4608   -1.7523    1.4798 H   0  0  0  0  0  0  0  0  0  0  0  0
  1  2  1  0  0  0  0
  2  9  1  0  0  0  0
  2  7  1  0  0  0  0
  3  4  1  0  0  0  0
  4 24  1  0  0  0  0
  4  7  1  0  0  0  0
  5 43  1  0  0  0  0
  5  6  1  0  0  0  0
  6 39  1  0  0  0  0
  7  6  1  0  0  0  0
  7  8  1  0  0  0  0
  9 10  1  0  0  0  0
 11  9  1  0  0  0  0
 12 11  1  0  0  0  0
 13  1  1  0  0  0  0
 13 11  2  0  0  0  0
 14 13  1  0  0  0  0
 15 14  1  0  0  0  0
 16 17  1  0  0  0  0
 16 19  1  0  0  0  0
 16 14  1  0  0  0  0
 18 16  1  0  0  0  0
 20 14  1  0  0  0  0
 20 23  1  0  0  0  0
 20 21  1  0  0  0  0
 22 20  1  0  0  0  0
 24 25  1  0  0  0  0
 26 27  1  0  0  0  0
 26 24  1  0  0  0  0
 28  3  1  0  0  0  0
 28 26  2  0  0  0  0
 29 35  1  0  0  0  0
 29 28  1  0  0  0  0
 30 29  1  0  0  0  0
 31 32  1  0  0  0  0
 31 29  1  0  0  0  0
 33 31  1  0  0  0  0
 34 31  1  0  0  0  0
 35 38  1  0  0  0  0
 35 36  1  0  0  0  0
 37 35  1  0  0  0  0
 39 40  1  0  0  0  0
 41 39  1  0  0  0  0
 41 42  1  0  0  0  0
 43 41  2  0  0  0  0
 44 50  1  0  0  0  0
 44 43  1  0  0  0  0
 45 44  1  0  0  0  0
 46 44  1  0  0  0  0
 46 49  1  0  0  0  0
 47 46  1  0  0  0  0
 48 46  1  0  0  0  0
 50 53  1  0  0  0  0
 50 51  1  0  0  0  0
 52 50  1  0  0  0  0
M  END
