1,2,5
q = 0.0, confidence = 0.992

 37 40  0  0  1  0  0  0  0  0999 V2000
   -0.4220   -1.5181    0.9861 N   0  0  0  0  0  2  0  0  0  0  0  0
    1.9522   -0.8148    0.2239 N   0  0  0  0  0  2  0  0  0  0  0  0
    3.0654   -1.4499    2.0674 N   0  0  0  0  0  0  0  0  0  0  0  0
    3.2461   -1.8328    2.9947 H   0  0  0  0  0  0  0  0  0  0  0  0
   -1.9304   -0.9276   -1.0003 N   0  0  0  0  0  2  0  0  0  0  0  0
   -2.5364   -1.5448    0.0981 N   0  0  1  0  0  0  0  0  0  0  0  0
   -1.7126   -1.8908    1.1793 C   0  0  1  0  0  3  0  0  0  0  0  0
   -2.0992   -2.5540    2.3532 C   0  0  0  0  0  0  0  0  0  0  0  0
   -3.1358   -2.8557    2.5199 H   0  0  0  0  0  0  0  0  0  0  0  0
   -1.1199   -2.8350    3.3193 C   0  0  0  0  0  0  0  0  0  0  0  0
   -1.4095   -3.3577    4.2414 H   0  0  0  0  0  0  0  0  0  0  0  0
    0.2143   -2.4650    3.1107 C   0  0  0  0  0  0  0  0  0  0  0  0
    0.9862   -2.6968    3.8574 H   0  0  0  0  0  0  0  0  0  0  0  0
    0.5415   -1.8023    1.9197 C   0  0  0  0  0  0  0  0  0  0  0  0
    1.8406   -1.3593    1.4593 C   0  0  2  0  0  3  0  0  0  0  0  0
    3.3032   -0.5796    0.0110 C   0  0  0  0  0  0  0  0  0  0  0  0
    4.0199   -0.9663    1.1851 C   0  0  0  0  0  0  0  0  0  0  0  0
    5.4147   -0.8397    1.2832 C   0  0  0  0  0  0  0  0  0  0  0  0
    5.9621   -1.1322    2.1904 H   0  0  0  0  0  0  0  0  0  0  0  0
    6.0770   -0.3302    0.1617 C   0  0  0  0  0  0  0  0  0  0  0  0
    7.1706   -0.2167    0.1931 H   0  0  0  0  0  0  0  0  0  0  0  0
    5.3775    0.0307   -1.0195 C   0  0  0  0  0  0  0  0  0  0  0  0
    5.9471    0.4100   -1.8806 H   0  0  0  0  0  0  0  0  0  0  0  0
    3.9898   -0.0877   -1.1172 C   0  0  0  0  0  0  0  0  0  0  0  0
    3.4298    0.1761   -2.0257 H   0  0  0  0  0  0  0  0  0  0  0  0
   -3.8987   -1.6879   -0.1171 C   0  0  2  0  0  3  0  0  0  0  0  0
   -4.1444   -1.1590   -1.3749 C   0  0  0  0  0  0  0  0  0  0  0  0
   -5.1189   -1.1124   -1.8713 H   0  0  0  0  0  0  0  0  0  0  0  0
   -2.9035   -0.7001   -1.8988 C   0  0  0  0  0  0  0  0  0  0  0  0
   -4.8663   -2.2877    0.8448 C   0  0  0  0  0  0  0  0  0  0  0  0
   -5.8809   -2.2320    0.4110 H   0  0  0  0  0  0  0  0  0  0  0  0
   -4.8799   -1.7428    1.8110 H   0  0  0  0  0  0  0  0  0  0  0  0
   -4.6493   -3.3560    1.0502 H   0  0  0  0  0  0  0  0  0  0  0  0
   -2.6366   -0.0804   -3.2259 C   0  0  0  0  0  0  0  0  0  0  0  0
   -1.5488   -0.0116   -3.4147 H   0  0  0  0  0  0  0  0  0  0  0  0
   -3.0600    0.9436   -3.2708 H   0  0  0  0  0  0  0  0  0  0  0  0
   -3.1176   -0.6725   -4.0299 H   0  0  0  0  0  0  0  0  0  0  0  0
  1 14  1  0  0  0  0
  2 15  1  0  0  0  0
  3  4  1  0  0  0  0
  6  5  1  1  0  0  0
  6  7  1  0  0  0  0
  7  1  1  6  0  0  0
  7  8  1  0  0  0  0
  8  9  1  0  0  0  0
  8 10  2  0  0  0  0
 10 11  1  0  0  0  0
 12 10  1  0  0  0  0
 12 13  1  0  0  0  0
 14 12  2  0  0  0  0
 15 14  1  6  0  0  0
 15  3  1  0  0  0  0
 16  2  1  0  0  0  0
 16 17  1  0  0  0  0
 17 18  2  0  0  0  0
 17  3  1  0  0  0  0
 18 19  1  0  0  0  0
 20 21  1  0  0  0  0
 20 18  1  0  0  0  0
 22 20  2  0  0  0  0
 23 22  1  0  0  0  0
 24 22  1  0  0  0  0
 24 16  2  0  0  0  0
 25 24  1  0  0  0  0
 26  6  1  0  0  0  0
 26 30  1  1  0  0  0
 27 26  1  0  0  0  0
 28 27  1  0  0  0  0
 29 27  2  0  0  0  0
 29  5  1  0  0  0  0
 30 33  1  0  0  0  0
 30 32  1  0  0  0  0
 31 30  1  0  0  0  0
 34 29  1  0  0  0  0
 35 34  1  0  0  0  0
 36 34  1  0  0  0  0
 37 34  1  0  0  0  0
M  END
