1,2,4
q = 0.0, confidence = 0.998

 34 37  0  0  1  0  0  0  0  0999 V2000
   -0.1757   -1.7067    0.8702 N   0  0  0  0  0  2  0  0  0  0  0  0
    1.7543   -0.4397   -0.2385 N   0  0  0  0  0  2  0  0  0  0  0  0
    3.3302   -0.7718    1.3402 N   0  0  0  0  0  0  0  0  0  0  0  0
   -2.1341   -1.3998   -0.7655 N   0  0  0  0  0  2  0  0  0  0  0  0
   -2.3586   -2.1828    0.3556 N   0  0  2  0  0  0  0  0  0  0  0  0
   -1.2872   -2.3866    1.2396 C   0  0  1  0  0  3  0  0  0  0  0  0
   -1.3179   -3.1907    2.3828 C   0  0  0  0  0  0  0  0  0  0  0  0
   -2.2226   -3.7448    2.6638 H   0  0  0  0  0  0  0  0  0  0  0  0
   -0.1474   -3.2695    3.1535 C   0  0  0  0  0  0  0  0  0  0  0  0
   -0.1353   -3.8929    4.0582 H   0  0  0  0  0  0  0  0  0  0  0  0
    1.0084   -2.5709    2.7743 C   0  0  0  0  0  0  0  0  0  0  0  0
    1.9190   -2.6529    3.3767 H   0  0  0  0  0  0  0  0  0  0  0  0
    0.9813   -1.7894    1.6071 C   0  0  0  0  0  0  0  0  0  0  0  0
    2.0306   -1.0190    0.9606 C   0  0  2  0  0  3  0  0  0  0  0  0
    2.9139    0.1770   -0.6660 C   0  0  0  0  0  0  0  0  0  0  0  0
    3.9178   -0.0151    0.3294 C   0  0  0  0  0  0  0  0  0  0  0  0
    5.2138    0.5062    0.1754 C   0  0  0  0  0  0  0  0  0  0  0  0
    5.9977    0.3655    0.9328 H   0  0  0  0  0  0  0  0  0  0  0  0
    5.4729    1.2102   -1.0057 C   0  0  0  0  0  0  0  0  0  0  0  0
    6.4761    1.6318   -1.1647 H   0  0  0  0  0  0  0  0  0  0  0  0
    4.4844    1.3820   -2.0098 C   0  0  0  0  0  0  0  0  0  0  0  0
    4.7459    1.9290   -2.9272 H   0  0  0  0  0  0  0  0  0  0  0  0
    3.1949    0.8693   -1.8598 C   0  0  0  0  0  0  0  0  0  0  0  0
    2.4177    0.9710   -2.6292 H   0  0  0  0  0  0  0  0  0  0  0  0
   -3.6533   -2.6443    0.3692 C   0  0  0  0  0  3  0  0  0  0  0  0
   -4.0254   -3.2825    1.1764 H   0  0  0  0  0  0  0  0  0  0  0  0
   -4.2731   -2.1483   -0.7678 C   0  0  0  0  0  0  0  0  0  0  0  0
   -5.3101   -2.3148   -1.0745 H   0  0  0  0  0  0  0  0  0  0  0  0
   -3.2882   -1.3809   -1.4432 C   0  0  0  0  0  0  0  0  0  0  0  0
   -3.3455   -0.8212   -2.3823 H   0  0  0  0  0  0  0  0  0  0  0  0
    3.9735   -1.1861    2.5740 C   0  0  0  0  0  0  0  0  0  0  0  0
    3.3708   -0.8683    3.4472 H   0  0  0  0  0  0  0  0  0  0  0  0
    4.9624   -0.7002    2.6407 H   0  0  0  0  0  0  0  0  0  0  0  0
    4.1218   -2.2843    2.6016 H   0  0  0  0  0  0  0  0  0  0  0  0
  1 13  1  0  0  0  0
  2 14  1  0  0  0  0
  3 31  1  0  0  0  0
  5  4  1  6  0  0  0
  5 25  1  0  0  0  0
  5  6  1  0  0  0  0
  6  1  1  6  0  0  0
  6  7  1  0  0  0  0
  7  8  1  0  0  0  0
  7  9  2  0  0  0  0
  9 10  1  0  0  0  0
 11  9  1  0  0  0  0
 11 12  1  0  0  0  0
 13 11  2  0  0  0  0
 14  3  1  0  0  0  0
 14 13  1  6  0  0  0
 15  2  1  0  0  0  0
 15 16  1  0  0  0  0
 16  3  1  0  0  0  0
 17 16  2  0  0  0  0
 17 18  1  0  0  0  0
 19 17  1  0  0  0  0
 20 19  1  0  0  0  0
 21 23  1  0  0  0  0
 21 19  2  0  0  0  0
 22 21  1  0  0  0  0
 23 15  2  0  0  0  0
 24 23  1  0  0  0  0
 25 26  1  0  0  0  0
 27 25  1  0  0  0  0
 28 27  1  0  0  0  0
 29 27  2  0  0  0  0
 29  4  1  0  0  0  0
 30 29  1  0  0  0  0
 31 34  1  0  0  0  0
 31 33  1  0  0  0  0
 31 32  1  0  0  0  0
M  END
