27,28,51
q = 0.0, confidence = 0.988

 53 55  0  0  1  0  0  0  0  0999 V2000
    0.0007   -0.0003    2.5680 P   0  0  2  0  0  4  0  0  0  0  0  0
    0.0009   -0.0004    4.5126 S   0  0  0  0  0  1  0  0  0  0  0  0
    1.5368   -0.4520    1.7302 C   0  0  0  0  0  0  0  0  0  0  0  0
    2.7479   -0.8079    2.2865 C   0  0  0  0  0  0  0  0  0  0  0  0
    3.0558   -0.8982    3.3326 H   0  0  0  0  0  0  0  0  0  0  0  0
    2.8875   -0.8491    0.0442 C   0  0  1  0  0  3  0  0  0  0  0  0
    3.5358   -1.0398   -1.2989 C   0  0  0  0  0  0  0  0  0  0  0  0
    2.7607   -0.8121   -2.0526 H   0  0  0  0  0  0  0  0  0  0  0  0
    3.9742   -2.5021   -1.5016 C   0  0  0  0  0  0  0  0  0  0  0  0
    3.1197   -3.1987   -1.4005 H   0  0  0  0  0  0  0  0  0  0  0  0
    4.7566   -2.8030   -0.7738 H   0  0  0  0  0  0  0  0  0  0  0  0
    4.4022   -2.6309   -2.5148 H   0  0  0  0  0  0  0  0  0  0  0  0
    4.6954   -0.0468   -1.5019 C   0  0  0  0  0  0  0  0  0  0  0  0
    5.5162   -0.2166   -0.7741 H   0  0  0  0  0  0  0  0  0  0  0  0
    4.3533    1.0013   -1.4011 H   0  0  0  0  0  0  0  0  0  0  0  0
    5.1251   -0.1702   -2.5151 H   0  0  0  0  0  0  0  0  0  0  0  0
   -0.3762    1.5562    1.7307 C   0  0  0  0  0  0  0  0  0  0  0  0
   -0.6731    2.7829    2.2875 C   0  0  0  0  0  0  0  0  0  0  0  0
   -0.7483    3.0945    3.3337 H   0  0  0  0  0  0  0  0  0  0  0  0
   -0.7083    2.9249    0.0452 C   0  0  2  0  0  3  0  0  0  0  0  0
   -0.8682    3.5819   -1.2977 C   0  0  0  0  0  0  0  0  0  0  0  0
   -0.6781    2.7970   -2.0516 H   0  0  0  0  0  0  0  0  0  0  0  0
   -2.3081    4.0895   -1.4997 C   0  0  0  0  0  0  0  0  0  0  0  0
   -2.5711    4.8852   -0.7716 H   0  0  0  0  0  0  0  0  0  0  0  0
   -3.0446    3.2691   -1.3984 H   0  0  0  0  0  0  0  0  0  0  0  0
   -2.4169    4.5234   -2.5128 H   0  0  0  0  0  0  0  0  0  0  0  0
    1.6287   -0.4792    0.3424 N   0  0  0  0  0  2  0  0  0  0  0  0
   -0.3993    1.6497    0.3430 N   0  0  0  0  0  2  0  0  0  0  0  0
    3.5722   -1.0502    1.2131 N   0  0  0  0  0  0  0  0  0  0  0  0
    4.5515   -1.3378    1.2650 H   0  0  0  0  0  0  0  0  0  0  0  0
   -0.8757    3.6182    1.2144 N   0  0  0  0  0  0  0  0  0  0  0  0
   -1.1159    4.6102    1.2666 H   0  0  0  0  0  0  0  0  0  0  0  0
   -1.1590   -1.1047    1.7306 C   0  0  0  0  0  0  0  0  0  0  0  0
   -2.0729   -1.9751    2.2874 C   0  0  0  0  0  0  0  0  0  0  0  0
   -2.3050   -2.1962    3.3337 H   0  0  0  0  0  0  0  0  0  0  0  0
   -2.1792   -2.0759    0.0452 C   0  0  1  0  0  3  0  0  0  0  0  0
   -2.6692   -2.5420   -1.2976 C   0  0  0  0  0  0  0  0  0  0  0  0
   -2.0840   -1.9855   -2.0516 H   0  0  0  0  0  0  0  0  0  0  0  0
   -2.3909   -4.0431   -1.5001 C   0  0  0  0  0  0  0  0  0  0  0  0
   -1.3124   -4.2722   -1.3996 H   0  0  0  0  0  0  0  0  0  0  0  0
   -2.9488   -4.6680   -0.7717 H   0  0  0  0  0  0  0  0  0  0  0  0
   -2.7135   -4.3536   -2.5129 H   0  0  0  0  0  0  0  0  0  0  0  0
   -4.1544   -2.1888   -1.5002 C   0  0  0  0  0  0  0  0  0  0  0  0
   -4.8067   -2.7149   -0.7720 H   0  0  0  0  0  0  0  0  0  0  0  0
   -4.3291   -1.1003   -1.3995 H   0  0  0  0  0  0  0  0  0  0  0  0
   -4.4806   -2.4952   -2.5132 H   0  0  0  0  0  0  0  0  0  0  0  0
    0.1788    4.6929   -1.5009 C   0  0  0  0  0  0  0  0  0  0  0  0
    0.0485    5.5208   -0.7729 H   0  0  0  0  0  0  0  0  0  0  0  0
    1.2094    4.3013   -1.4004 H   0  0  0  0  0  0  0  0  0  0  0  0
    0.0757    5.1281   -2.5140 H   0  0  0  0  0  0  0  0  0  0  0  0
   -1.2289   -1.1710    0.3429 N   0  0  0  0  0  2  0  0  0  0  0  0
   -2.6955   -2.5678    1.2144 N   0  0  0  0  0  0  0  0  0  0  0  0
   -3.4346   -3.2717    1.2666 H   0  0  0  0  0  0  0  0  0  0  0  0
  1  2  1  1  0  0  0
  3  4  2  0  0  0  0
  3  1  1  0  0  0  0
  4  5  1  0  0  0  0
  6  7  1  1  0  0  0
  6 27  1  0  0  0  0
  6 29  1  0  0  0  0
  8  7  1  0  0  0  0
  9 10  1  0  0  0  0
  9  7  1  0  0  0  0
  9 11  1  0  0  0  0
 12  9  1  0  0  0  0
 13 15  1  0  0  0  0
 13  7  1  0  0  0  0
 13 14  1  0  0  0  0
 16 13  1  0  0  0  0
 17 18  2  0  0  0  0
 17  1  1  0  0  0  0
 18 19  1  0  0  0  0
 20 21  1  1  0  0  0
 20 28  1  0  0  0  0
 20 31  1  0  0  0  0
 22 21  1  0  0  0  0
 23 25  1  0  0  0  0
 23 21  1  0  0  0  0
 23 24  1  0  0  0  0
 26 23  1  0  0  0  0
 27  3  1  0  0  0  0
 28 17  1  0  0  0  0
 29 30  1  0  0  0  0
 29  4  1  0  0  0  0
 31 32  1  0  0  0  0
 31 18  1  0  0  0  0
 33 34  2  0  0  0  0
 33  1  1  0  0  0  0
 34 35  1  0  0  0  0
 36 37  1  1  0  0  0
 36 51  1  0  0  0  0
 36 52  1  0  0  0  0
 38 37  1  0  0  0  0
 39 40  1  0  0  0  0
 39 37  1  0  0  0  0
 39 41  1  0  0  0  0
 42 39  1  0  0  0  0
 43 45  1  0  0  0  0
 43 37  1  0  0  0  0
 43 44  1  0  0  0  0
 46 43  1  0  0  0  0
 47 49  1  0  0  0  0
 47 21  1  0  0  0  0
 47 48  1  0  0  0  0
 50 47  1  0  0  0  0
 51 33  1  0  0  0  0
 52 53  1  0  0  0  0
 52 34  1  0  0  0  0
M  END
