29,30,31
q = 0.0, confidence = 1.0

 34 36  0  0  1  0  0  0  0  0999 V2000
   -2.0202    0.0003    0.0004 P   0  0  2  0  0  0  0  0  0  0  0  0
   -1.0810    1.5196    0.3940 C   0  0  2  0  0  3  0  0  0  0  0  0
    0.5969    2.8773    0.7460 C   0  0  0  0  0  0  0  0  0  0  0  0
    1.6382    3.2056    0.8309 H   0  0  0  0  0  0  0  0  0  0  0  0
   -0.5627    3.6086    0.9357 C   0  0  0  0  0  0  0  0  0  0  0  0
   -0.7212    4.6572    1.2075 H   0  0  0  0  0  0  0  0  0  0  0  0
   -1.0812   -1.1006    1.1190 C   0  0  2  0  0  3  0  0  0  0  0  0
    0.5964   -2.0848    2.1187 C   0  0  0  0  0  0  0  0  0  0  0  0
    1.6377   -2.3229    2.3604 H   0  0  0  0  0  0  0  0  0  0  0  0
   -0.5632   -2.6145    2.6572 C   0  0  0  0  0  0  0  0  0  0  0  0
   -0.7219   -3.3743    3.4293 H   0  0  0  0  0  0  0  0  0  0  0  0
   -1.0814   -0.4183   -1.5126 C   0  0  2  0  0  3  0  0  0  0  0  0
    0.5960   -0.7927   -2.8649 C   0  0  0  0  0  0  0  0  0  0  0  0
    1.6372   -0.8834   -3.1920 H   0  0  0  0  0  0  0  0  0  0  0  0
   -0.5638   -0.9940   -3.5927 C   0  0  0  0  0  0  0  0  0  0  0  0
   -0.7227   -1.2830   -4.6367 H   0  0  0  0  0  0  0  0  0  0  0  0
   -3.0254    3.0947    0.8027 C   0  0  0  0  0  0  0  0  0  0  0  0
   -3.6358    2.2032    0.5700 H   0  0  0  0  0  0  0  0  0  0  0  0
   -3.2690    3.8967    0.0793 H   0  0  0  0  0  0  0  0  0  0  0  0
   -3.2695    3.4415    1.8254 H   0  0  0  0  0  0  0  0  0  0  0  0
   -3.0259   -2.2421    2.2784 C   0  0  0  0  0  0  0  0  0  0  0  0
   -3.2700   -3.3011    2.0666 H   0  0  0  0  0  0  0  0  0  0  0  0
   -3.6361   -1.5945    1.6231 H   0  0  0  0  0  0  0  0  0  0  0  0
   -3.2695   -2.0175    3.3348 H   0  0  0  0  0  0  0  0  0  0  0  0
   -3.0264   -0.8521   -3.0803 C   0  0  0  0  0  0  0  0  0  0  0  0
   -3.6365   -0.6038   -2.1930 H   0  0  0  0  0  0  0  0  0  0  0  0
   -3.2710   -1.8806   -3.4093 H   0  0  0  0  0  0  0  0  0  0  0  0
   -3.2698   -0.1427   -3.8948 H   0  0  0  0  0  0  0  0  0  0  0  0
    0.2618    1.5863    0.4112 N   0  0  0  0  0  2  0  0  0  0  0  0
    0.2615   -1.1492    1.1681 N   0  0  0  0  0  2  0  0  0  0  0  0
    0.2613   -0.4368   -1.5794 N   0  0  0  0  0  2  0  0  0  0  0  0
   -1.6134    2.7448    0.7118 N   0  0  0  0  0  0  0  0  0  0  0  0
   -1.6138   -1.9884    2.0212 N   0  0  0  0  0  0  0  0  0  0  0  0
   -1.6143   -0.7557   -2.7324 N   0  0  0  0  0  0  0  0  0  0  0  0
  2  1  1  1  0  0  0
  2 29  1  0  0  0  0
  2 32  1  0  0  0  0
  3  4  1  0  0  0  0
  3  5  2  0  0  0  0
  5  6  1  0  0  0  0
  7  1  1  6  0  0  0
  7 30  1  0  0  0  0
  7 33  1  0  0  0  0
  8  9  1  0  0  0  0
  8 10  2  0  0  0  0
 10 11  1  0  0  0  0
 12  1  1  6  0  0  0
 13 31  1  0  0  0  0
 14 13  1  0  0  0  0
 15 13  2  0  0  0  0
 15 34  1  0  0  0  0
 16 15  1  0  0  0  0
 17 20  1  0  0  0  0
 18 17  1  0  0  0  0
 19 17  1  0  0  0  0
 21 24  1  0  0  0  0
 22 21  1  0  0  0  0
 23 21  1  0  0  0  0
 25 34  1  0  0  0  0
 25 26  1  0  0  0  0
 27 25  1  0  0  0  0
 28 25  1  0  0  0  0
 29  3  1  0  0  0  0
 30  8  1  0  0  0  0
 31 12  1  0  0  0  0
 32 17  1  0  0  0  0
 32  5  1  0  0  0  0
 33 21  1  0  0  0  0
 33 10  1  0  0  0  0
 34 12  1  0  0  0  0
M  END
