1,2,3
q = 0.0, confidence = 0.998

 63 69  0  0  1  0  0  0  0  0999 V2000
   -0.0000    2.3211   -0.0003 N   0  0  0  0  0  2  0  0  0  0  0  0
    2.1154    0.7763    0.2779 N   0  0  0  0  0  2  0  0  0  0  0  0
   -2.1153    0.7762   -0.2782 N   0  0  0  0  0  2  0  0  0  0  0  0
   -1.1697    2.9743   -0.1344 C   0  0  0  0  0  0  0  0  0  0  0  0
   -1.2048    4.3835   -0.1403 C   0  0  0  0  0  0  0  0  0  0  0  0
   -2.1532    4.9245   -0.2537 H   0  0  0  0  0  0  0  0  0  0  0  0
   -0.0001    5.0838    0.0004 C   0  0  0  0  0  0  0  0  0  0  0  0
   -0.0002    6.1839    0.0007 H   0  0  0  0  0  0  0  0  0  0  0  0
    1.2046    4.3836    0.1407 C   0  0  0  0  0  0  0  0  0  0  0  0
    2.1529    4.9246    0.2545 H   0  0  0  0  0  0  0  0  0  0  0  0
    1.1697    2.9743    0.1341 C   0  0  0  0  0  0  0  0  0  0  0  0
    2.3703    2.1052    0.2601 C   0  0  2  0  0  3  0  0  0  0  0  0
    3.6839    2.5966    0.3357 C   0  0  0  0  0  0  0  0  0  0  0  0
    3.8870    3.6760    0.3279 H   0  0  0  0  0  0  0  0  0  0  0  0
    4.7456    1.6801    0.3951 C   0  0  0  0  0  0  0  0  0  0  0  0
    5.7852    2.0433    0.4247 H   0  0  0  0  0  0  0  0  0  0  0  0
    4.4809    0.3063    0.3938 C   0  0  0  0  0  0  0  0  0  0  0  0
    3.1177   -0.1056    0.3605 C   0  0  0  0  0  0  0  0  0  0  0  0
   -2.3703    2.1051   -0.2606 C   0  0  0  0  0  0  0  0  0  0  0  0
   -3.6840    2.5964   -0.3365 C   0  0  0  0  0  0  0  0  0  0  0  0
   -3.8870    3.6759   -0.3290 H   0  0  0  0  0  0  0  0  0  0  0  0
   -4.7456    1.6799   -0.3959 C   0  0  0  0  0  0  0  0  0  0  0  0
   -5.7852    2.0431   -0.4257 H   0  0  0  0  0  0  0  0  0  0  0  0
   -4.4809    0.3061   -0.3942 C   0  0  0  0  0  0  0  0  0  0  0  0
   -3.1177   -0.1057   -0.3608 C   0  0  0  0  0  0  0  0  0  0  0  0
    5.5429   -0.7749    0.3678 C   0  0  0  0  0  0  0  0  0  0  0  0
    6.2013   -0.6762    1.2592 H   0  0  0  0  0  0  0  0  0  0  0  0
    6.1992   -0.6185   -0.5164 H   0  0  0  0  0  0  0  0  0  0  0  0
    4.9012   -2.1724    0.3406 C   0  0  1  0  0  0  0  0  0  0  0  0
    5.6762   -2.9669    0.3275 H   0  0  0  0  0  0  0  0  0  0  0  0
    3.7984   -2.2192    1.4297 C   0  0  0  0  0  0  0  0  0  0  0  0
    3.4821   -3.2447    1.6895 H   0  0  0  0  0  0  0  0  0  0  0  0
    3.9705   -1.6501    2.3661 H   0  0  0  0  0  0  0  0  0  0  0  0
    2.8506   -1.5785    0.3747 C   0  0  2  0  0  0  0  0  0  0  0  0
    1.7721   -1.8093    0.3984 H   0  0  0  0  0  0  0  0  0  0  0  0
    3.7549   -2.2525   -0.7370 C   0  0  0  0  0  0  0  0  0  0  0  0
    3.9216   -1.5305   -2.0737 C   0  0  0  0  0  0  0  0  0  0  0  0
    2.9316   -1.4496   -2.5672 H   0  0  0  0  0  0  0  0  0  0  0  0
    4.6104   -2.0947   -2.7367 H   0  0  0  0  0  0  0  0  0  0  0  0
    4.3179   -0.5013   -1.9757 H   0  0  0  0  0  0  0  0  0  0  0  0
    3.2775   -3.6828   -1.0095 C   0  0  0  0  0  0  0  0  0  0  0  0
    3.1286   -4.2755   -0.0864 H   0  0  0  0  0  0  0  0  0  0  0  0
    4.0098   -4.2225   -1.6455 H   0  0  0  0  0  0  0  0  0  0  0  0
    2.3086   -3.6436   -1.5473 H   0  0  0  0  0  0  0  0  0  0  0  0
   -5.5428   -0.7751   -0.3681 C   0  0  0  0  0  0  0  0  0  0  0  0
   -6.2011   -0.6767   -1.2596 H   0  0  0  0  0  0  0  0  0  0  0  0
   -6.1992   -0.6184    0.5160 H   0  0  0  0  0  0  0  0  0  0  0  0
   -4.9011   -2.1726   -0.3404 C   0  0  1  0  0  0  0  0  0  0  0  0
   -5.6761   -2.9671   -0.3271 H   0  0  0  0  0  0  0  0  0  0  0  0
   -3.7982   -2.2197   -1.4294 C   0  0  0  0  0  0  0  0  0  0  0  0
   -3.9703   -1.6509   -2.3660 H   0  0  0  0  0  0  0  0  0  0  0  0
   -3.4819   -3.2453   -1.6888 H   0  0  0  0  0  0  0  0  0  0  0  0
   -2.8505   -1.5787   -0.3745 C   0  0  2  0  0  0  0  0  0  0  0  0
   -1.7721   -1.8094   -0.3981 H   0  0  0  0  0  0  0  0  0  0  0  0
   -3.7550   -2.2524    0.7374 C   0  0  0  0  0  0  0  0  0  0  0  0
   -3.2774   -3.6825    1.0103 C   0  0  0  0  0  0  0  0  0  0  0  0
   -3.1285   -4.2755    0.0874 H   0  0  0  0  0  0  0  0  0  0  0  0
   -4.0097   -4.2221    1.6464 H   0  0  0  0  0  0  0  0  0  0  0  0
   -2.3086   -3.6431    1.5481 H   0  0  0  0  0  0  0  0  0  0  0  0
   -3.9218   -1.5300    2.0738 C   0  0  0  0  0  0  0  0  0  0  0  0
   -4.6107   -2.0940    2.7369 H   0  0  0  0  0  0  0  0  0  0  0  0
   -4.3180   -0.5008    1.9756 H   0  0  0  0  0  0  0  0  0  0  0  0
   -2.9319   -1.4490    2.5675 H   0  0  0  0  0  0  0  0  0  0  0  0
  1 11  1  0  0  0  0
  2 18  1  0  0  0  0
  3 19  1  0  0  0  0
  4  1  1  0  0  0  0
  5  4  1  0  0  0  0
  5  7  2  0  0  0  0
  6  5  1  0  0  0  0
  7  8  1  0  0  0  0
  7  9  1  0  0  0  0
  9 10  1  0  0  0  0
 11  9  2  0  0  0  0
 12 11  1  6  0  0  0
 12  2  1  0  0  0  0
 12 13  1  0  0  0  0
 13 15  2  0  0  0  0
 14 13  1  0  0  0  0
 15 16  1  0  0  0  0
 17 15  1  0  0  0  0
 18 34  1  0  0  0  0
 18 17  2  0  0  0  0
 19  4  2  0  0  0  0
 20 21  1  0  0  0  0
 20 19  1  0  0  0  0
 22 24  1  0  0  0  0
 22 20  2  0  0  0  0
 23 22  1  0  0  0  0
 24 45  1  0  0  0  0
 24 25  2  0  0  0  0
 25  3  1  0  0  0  0
 26 17  1  0  0  0  0
 26 27  1  0  0  0  0
 28 26  1  0  0  0  0
 29 30  1  1  0  0  0
 29 26  1  0  0  0  0
 29 31  1  0  0  0  0
 31 32  1  0  0  0  0
 31 33  1  0  0  0  0
 34 35  1  1  0  0  0
 34 31  1  0  0  0  0
 36 29  1  0  0  0  0
 36 34  1  0  0  0  0
 37 40  1  0  0  0  0
 37 36  1  0  0  0  0
 38 37  1  0  0  0  0
 39 37  1  0  0  0  0
 41 36  1  0  0  0  0
 41 42  1  0  0  0  0
 43 41  1  0  0  0  0
 44 41  1  0  0  0  0
 45 48  1  0  0  0  0
 45 47  1  0  0  0  0
 46 45  1  0  0  0  0
 48 49  1  6  0  0  0
 48 55  1  0  0  0  0
 50 53  1  0  0  0  0
 50 48  1  0  0  0  0
 51 50  1  0  0  0  0
 52 50  1  0  0  0  0
 53 54  1  6  0  0  0
 53 25  1  0  0  0  0
 53 55  1  0  0  0  0
 55 56  1  0  0  0  0
 55 60  1  0  0  0  0
 56 59  1  0  0  0  0
 56 58  1  0  0  0  0
 57 56  1  0  0  0  0
 60 63  1  0  0  0  0
 60 61  1  0  0  0  0
 62 60  1  0  0  0  0
M  END
