1,2,3
q = -1.0, confidence = 0.118

 59 62  0  0  1  0  0  0  0  0999 V2000
   -1.2931    1.2802   -0.1339 N   0  0  0  0  0  2  0  0  0  0  0  0
    1.3907    0.6840   -0.1272 N   0  0  0  0  0  2  0  0  0  0  0  0
   -2.0679   -0.9694   -1.0809 N   0  0  0  0  0  2  0  0  0  0  0  0
    1.5495    2.0111   -0.1089 C   0  0  0  0  0  3  0  0  0  0  0  0
    2.5705    2.4056    0.0506 H   0  0  0  0  0  0  0  0  0  0  0  0
    2.5007   -0.1021    0.3452 C   0  0  0  0  0  0  0  0  0  0  0  0
   -1.8586    3.6597   -0.3626 C   0  0  0  0  0  0  0  0  0  0  0  0
   -2.9231    3.3970   -0.4193 H   0  0  0  0  0  0  0  0  0  0  0  0
    3.4682   -0.1983   -2.0314 C   0  0  0  0  0  0  0  0  0  0  0  0
    2.4887    0.2679   -2.2522 H   0  0  0  0  0  0  0  0  0  0  0  0
    0.4958    2.9666   -0.2365 C   0  0  0  0  0  0  0  0  0  0  0  0
    0.8497    4.3456   -0.3195 C   0  0  0  0  0  0  0  0  0  0  0  0
    1.9206    4.6028   -0.3028 H   0  0  0  0  0  0  0  0  0  0  0  0
   -4.7101   -1.9798   -0.8982 C   0  0  0  0  0  0  0  0  0  0  0  0
   -5.7182   -2.4087   -0.7969 H   0  0  0  0  0  0  0  0  0  0  0  0
   -3.0251   -0.3249   -0.3313 C   0  0  2  0  0  3  0  0  0  0  0  0
   -3.4301    1.5237    1.2010 C   0  0  0  0  0  0  0  0  0  0  0  0
   -3.1039    2.4386    1.7134 H   0  0  0  0  0  0  0  0  0  0  0  0
   -2.5932    0.9038    0.2552 C   0  0  0  0  0  0  0  0  0  0  0  0
   -4.3473   -0.8323   -0.1336 C   0  0  0  0  0  0  0  0  0  0  0  0
   -2.4642   -2.0147   -1.8396 C   0  0  0  0  0  0  0  0  0  0  0  0
   -1.6909   -2.4429   -2.4955 H   0  0  0  0  0  0  0  0  0  0  0  0
   -0.1058    5.3473   -0.4346 C   0  0  0  0  0  0  0  0  0  0  0  0
    0.2013    6.4008   -0.5103 H   0  0  0  0  0  0  0  0  0  0  0  0
    3.4524   -0.6236   -0.5701 C   0  0  0  0  0  0  0  0  0  0  0  0
    1.6600    0.3111    2.7414 C   0  0  0  0  0  0  0  0  0  0  0  0
    0.7115    0.5149    2.2042 H   0  0  0  0  0  0  0  0  0  0  0  0
   -0.9052    2.6165   -0.2221 C   0  0  0  0  0  0  0  0  0  0  0  0
    2.5996   -0.3589    1.7439 C   0  0  0  0  0  0  0  0  0  0  0  0
   -5.1804   -0.1585    0.8097 C   0  0  0  0  0  0  0  0  0  0  0  0
   -6.1904   -0.5462    1.0096 H   0  0  0  0  0  0  0  0  0  0  0  0
   -3.7738   -2.5292   -1.7794 C   0  0  0  0  0  0  0  0  0  0  0  0
   -4.0339   -3.3920   -2.4102 H   0  0  0  0  0  0  0  0  0  0  0  0
    4.5380   -1.7839    1.2927 C   0  0  0  0  0  0  0  0  0  0  0  0
    5.3285   -2.4548    1.6624 H   0  0  0  0  0  0  0  0  0  0  0  0
    4.4576   -1.4749   -0.0691 C   0  0  0  0  0  0  0  0  0  0  0  0
    5.2010   -1.8905   -0.7662 H   0  0  0  0  0  0  0  0  0  0  0  0
   -4.7042    0.9693    1.4763 C   0  0  0  0  0  0  0  0  0  0  0  0
   -5.3445    1.4678    2.2203 H   0  0  0  0  0  0  0  0  0  0  0  0
    4.5630    0.8612   -2.2559 C   0  0  0  0  0  0  0  0  0  0  0  0
    5.5733    0.4514   -2.0445 H   0  0  0  0  0  0  0  0  0  0  0  0
    4.4160    1.7412   -1.5975 H   0  0  0  0  0  0  0  0  0  0  0  0
    4.5515    1.2166   -3.3068 H   0  0  0  0  0  0  0  0  0  0  0  0
    2.2318    1.6630    3.2113 C   0  0  0  0  0  0  0  0  0  0  0  0
    2.3886    2.3581    2.3649 H   0  0  0  0  0  0  0  0  0  0  0  0
    3.2077    1.5191    3.7200 H   0  0  0  0  0  0  0  0  0  0  0  0
    1.5397    2.1531    3.9269 H   0  0  0  0  0  0  0  0  0  0  0  0
    3.6244   -1.2137    2.1899 C   0  0  0  0  0  0  0  0  0  0  0  0
    3.7147   -1.4331    3.2640 H   0  0  0  0  0  0  0  0  0  0  0  0
    3.6224   -1.3780   -3.0004 C   0  0  0  0  0  0  0  0  0  0  0  0
    4.5936   -1.9021   -2.8789 H   0  0  0  0  0  0  0  0  0  0  0  0
    3.5685   -1.0188   -4.0479 H   0  0  0  0  0  0  0  0  0  0  0  0
    2.8035   -2.1109   -2.8622 H   0  0  0  0  0  0  0  0  0  0  0  0
    1.3393   -0.5682    3.9588 C   0  0  0  0  0  0  0  0  0  0  0  0
    2.2069   -0.6566    4.6450 H   0  0  0  0  0  0  0  0  0  0  0  0
    1.0470   -1.5953    3.6631 H   0  0  0  0  0  0  0  0  0  0  0  0
    0.5084   -0.1274    4.5459 H   0  0  0  0  0  0  0  0  0  0  0  0
   -1.4736    4.9955   -0.4744 C   0  0  0  0  0  0  0  0  0  0  0  0
   -2.2425    5.7711   -0.6087 H   0  0  0  0  0  0  0  0  0  0  0  0
  1 19  1  0  0  0  0
  2  4  1  0  0  0  0
  2  6  1  0  0  0  0
  4  5  1  0  0  0  0
  6 29  1  0  0  0  0
  7 28  1  0  0  0  0
  8  7  1  0  0  0  0
  9 25  1  0  0  0  0
 10  9  1  0  0  0  0
 11 28  2  0  0  0  0
 11  4  1  0  0  0  0
 12 13  1  0  0  0  0
 12 11  1  0  0  0  0
 14 15  1  0  0  0  0
 14 20  2  0  0  0  0
 16  3  1  1  0  0  0
 16 20  1  0  0  0  0
 16 19  1  0  0  0  0
 17 38  1  0  0  0  0
 17 18  1  0  0  0  0
 19 17  2  0  0  0  0
 20 30  1  0  0  0  0
 21 32  2  0  0  0  0
 21  3  1  0  0  0  0
 22 21  1  0  0  0  0
 23 12  2  0  0  0  0
 24 23  1  0  0  0  0
 25 36  1  0  0  0  0
 25  6  2  0  0  0  0
 26 44  1  0  0  0  0
 26 54  1  0  0  0  0
 27 26  1  0  0  0  0
 28  1  1  0  0  0  0
 29 48  2  0  0  0  0
 29 26  1  0  0  0  0
 30 31  1  0  0  0  0
 30 38  2  0  0  0  0
 32 14  1  0  0  0  0
 33 32  1  0  0  0  0
 34 35  1  0  0  0  0
 34 48  1  0  0  0  0
 36 34  2  0  0  0  0
 37 36  1  0  0  0  0
 38 39  1  0  0  0  0
 40 41  1  0  0  0  0
 40  9  1  0  0  0  0
 40 42  1  0  0  0  0
 43 40  1  0  0  0  0
 44 46  1  0  0  0  0
 44 47  1  0  0  0  0
 45 44  1  0  0  0  0
 48 49  1  0  0  0  0
 50 51  1  0  0  0  0
 50 53  1  0  0  0  0
 50  9  1  0  0  0  0
 52 50  1  0  0  0  0
 54 57  1  0  0  0  0
 54 55  1  0  0  0  0
 56 54  1  0  0  0  0
 58 23  1  0  0  0  0
 58  7  2  0  0  0  0
 59 58  1  0  0  0  0
M  END
