2,3,5
q = -1.0, confidence = 0.074

 60 63  0  0  1  0  0  0  0  0999 V2000
   -1.3314    1.9257   -1.0334 Si  0  0  0  0  0  0  0  0  0  0  0  0
    2.0004    0.3633    0.3623 N   0  0  0  0  0  2  0  0  0  0  0  0
    0.0935    1.0683   -0.5316 N   0  0  0  0  0  2  0  0  0  0  0  0
   -2.7044    0.8940   -0.3783 N   0  0  0  0  0  0  0  0  0  0  0  0
   -1.6639   -1.0130   -1.2234 N   0  0  0  0  0  2  0  0  0  0  0  0
   -1.8804   -1.9667   -1.5450 H   0  0  0  0  0  0  0  0  0  0  0  0
    3.3625    0.3538    0.6994 C   0  0  0  0  0  0  0  0  0  0  0  0
    3.7466   -0.0894    1.9837 C   0  0  0  0  0  0  0  0  0  0  0  0
    2.9570   -0.3759    2.6938 H   0  0  0  0  0  0  0  0  0  0  0  0
    5.1023   -0.1526    2.3326 C   0  0  0  0  0  0  0  0  0  0  0  0
    5.3899   -0.4912    3.3401 H   0  0  0  0  0  0  0  0  0  0  0  0
    6.0925    0.2113    1.4035 C   0  0  0  0  0  0  0  0  0  0  0  0
    7.1567    0.1576    1.6781 H   0  0  0  0  0  0  0  0  0  0  0  0
    5.7140    0.6408    0.1205 C   0  0  0  0  0  0  0  0  0  0  0  0
    6.4829    0.9203   -0.6161 H   0  0  0  0  0  0  0  0  0  0  0  0
    4.3594    0.7108   -0.2351 C   0  0  0  0  0  0  0  0  0  0  0  0
    4.0537    1.0235   -1.2440 H   0  0  0  0  0  0  0  0  0  0  0  0
    1.3115    1.4085   -0.0916 C   0  0  2  0  0  3  0  0  0  0  0  0
    1.8595    2.7930   -0.1600 C   0  0  0  0  0  0  0  0  0  0  0  0
    2.3993    3.4152    0.9827 C   0  0  0  0  0  0  0  0  0  0  0  0
    2.4218    2.8688    1.9369 H   0  0  0  0  0  0  0  0  0  0  0  0
    2.8924    4.7246    0.8997 C   0  0  0  0  0  0  0  0  0  0  0  0
    3.3001    5.2126    1.7978 H   0  0  0  0  0  0  0  0  0  0  0  0
    2.8715    5.4112   -0.3256 C   0  0  0  0  0  0  0  0  0  0  0  0
    3.2660    6.4367   -0.3887 H   0  0  0  0  0  0  0  0  0  0  0  0
    2.3544    4.7856   -1.4721 C   0  0  0  0  0  0  0  0  0  0  0  0
    2.3521    5.3151   -2.4369 H   0  0  0  0  0  0  0  0  0  0  0  0
    1.8442    3.4824   -1.3897 C   0  0  0  0  0  0  0  0  0  0  0  0
    1.4521    2.9744   -2.2840 H   0  0  0  0  0  0  0  0  0  0  0  0
   -1.4978    3.6193   -0.2446 C   0  0  0  0  0  0  0  0  0  0  0  0
   -1.4897    3.5411    0.8606 H   0  0  0  0  0  0  0  0  0  0  0  0
   -2.4313    4.1306   -0.5489 H   0  0  0  0  0  0  0  0  0  0  0  0
   -0.6404    4.2498   -0.5522 H   0  0  0  0  0  0  0  0  0  0  0  0
   -1.5119    1.9369   -2.8988 C   0  0  0  0  0  0  0  0  0  0  0  0
   -1.3330    0.9211   -3.3009 H   0  0  0  0  0  0  0  0  0  0  0  0
   -0.7640    2.6191   -3.3511 H   0  0  0  0  0  0  0  0  0  0  0  0
   -2.5216    2.2787   -3.2043 H   0  0  0  0  0  0  0  0  0  0  0  0
   -3.5760    1.4025    0.6415 C   0  0  0  0  0  0  0  0  0  0  0  0
   -4.4968    2.4259    0.3494 C   0  0  0  0  0  0  0  0  0  0  0  0
   -4.5685    2.8100   -0.6794 H   0  0  0  0  0  0  0  0  0  0  0  0
   -5.3288    2.9295    1.3591 C   0  0  0  0  0  0  0  0  0  0  0  0
   -6.0498    3.7270    1.1236 H   0  0  0  0  0  0  0  0  0  0  0  0
   -5.2517    2.4099    2.6615 C   0  0  0  0  0  0  0  0  0  0  0  0
   -5.9089    2.8030    3.4516 H   0  0  0  0  0  0  0  0  0  0  0  0
   -4.3324    1.3888    2.9509 C   0  0  0  0  0  0  0  0  0  0  0  0
   -4.2629    0.9804    3.9704 H   0  0  0  0  0  0  0  0  0  0  0  0
   -3.4878    0.8887    1.9496 C   0  0  0  0  0  0  0  0  0  0  0  0
   -2.7449    0.1048    2.1645 H   0  0  0  0  0  0  0  0  0  0  0  0
   -2.7258   -0.4366   -0.6914 C   0  0  2  0  0  3  0  0  0  0  0  0
   -3.9551   -1.2422   -0.4363 C   0  0  0  0  0  0  0  0  0  0  0  0
   -5.2412   -0.7615   -0.7596 C   0  0  0  0  0  0  0  0  0  0  0  0
   -5.3549    0.2398   -1.1976 H   0  0  0  0  0  0  0  0  0  0  0  0
   -6.3662   -1.5653   -0.5391 C   0  0  0  0  0  0  0  0  0  0  0  0
   -7.3660   -1.1905   -0.8052 H   0  0  0  0  0  0  0  0  0  0  0  0
   -6.2189   -2.8463    0.0194 C   0  0  0  0  0  0  0  0  0  0  0  0
   -7.1061   -3.4724    0.1995 H   0  0  0  0  0  0  0  0  0  0  0  0
   -4.9409   -3.3282    0.3440 C   0  0  0  0  0  0  0  0  0  0  0  0
   -4.8219   -4.3301    0.7829 H   0  0  0  0  0  0  0  0  0  0  0  0
   -3.8093   -2.5350    0.1118 C   0  0  0  0  0  0  0  0  0  0  0  0
   -2.8037   -2.9037    0.3676 H   0  0  0  0  0  0  0  0  0  0  0  0
  1  3  1  0  0  0  0
  1  4  1  0  0  0  0
  1 30  1  0  0  0  0
  2  7  1  0  0  0  0
  4 38  1  0  0  0  0
  6  5  1  0  0  0  0
  7  8  1  0  0  0  0
  8 10  2  0  0  0  0
  8  9  1  0  0  0  0
 10 11  1  0  0  0  0
 12 13  1  0  0  0  0
 12 10  1  0  0  0  0
 14 12  2  0  0  0  0
 15 14  1  0  0  0  0
 16 14  1  0  0  0  0
 16  7  2  0  0  0  0
 17 16  1  0  0  0  0
 18  3  1  6  0  0  0
 18  2  1  0  0  0  0
 19 18  1  0  0  0  0
 19 20  1  0  0  0  0
 20 21  1  0  0  0  0
 22 20  2  0  0  0  0
 22 23  1  0  0  0  0
 24 22  1  0  0  0  0
 25 24  1  0  0  0  0
 26 28  1  0  0  0  0
 26 24  2  0  0  0  0
 27 26  1  0  0  0  0
 28 19  2  0  0  0  0
 29 28  1  0  0  0  0
 30 31  1  0  0  0  0
 32 30  1  0  0  0  0
 33 30  1  0  0  0  0
 34  1  1  0  0  0  0
 35 34  1  0  0  0  0
 36 34  1  0  0  0  0
 37 34  1  0  0  0  0
 38 47  1  0  0  0  0
 39 38  2  0  0  0  0
 39 41  1  0  0  0  0
 40 39  1  0  0  0  0
 41 43  2  0  0  0  0
 42 41  1  0  0  0  0
 43 45  1  0  0  0  0
 43 44  1  0  0  0  0
 45 46  1  0  0  0  0
 47 48  1  0  0  0  0
 47 45  2  0  0  0  0
 49  5  1  6  0  0  0
 49 50  1  0  0  0  0
 49  4  1  0  0  0  0
 50 59  1  0  0  0  0
 51 53  1  0  0  0  0
 51 50  2  0  0  0  0
 52 51  1  0  0  0  0
 53 55  2  0  0  0  0
 54 53  1  0  0  0  0
 55 56  1  0  0  0  0
 55 57  1  0  0  0  0
 57 58  1  0  0  0  0
 59 57  2  0  0  0  0
 59 60  1  0  0  0  0
M  END
