6,7,8
q = -2.0, confidence = 0.978

 56 59  0  0  1  0  0  0  0  0999 V2000
    2.1202   -4.1822   -0.1194 O   0  0  0  0  0  0  0  0  0  0  0  0
    4.0863    2.5802   -0.3602 O   0  0  0  0  0  0  0  0  0  0  0  0
   -4.6061    0.6366   -0.0149 O   0  0  0  0  0  0  0  0  0  0  0  0
   -3.8174   -1.8634   -1.5692 O   0  0  0  0  0  0  0  0  0  0  0  0
   -2.8779    2.9456   -0.5523 O   0  0  0  0  0  0  0  0  0  0  0  0
    0.9310   -2.1612    0.1814 N   0  0  0  0  0  2  0  0  0  0  0  0
    2.9112   -0.7492   -0.3320 N   0  0  0  0  0  2  0  0  0  0  0  0
    2.0015    1.5376    0.0322 N   0  0  0  0  0  2  0  0  0  0  0  0
    2.0290   -2.9432   -0.1057 C   0  0  0  0  0  0  0  0  0  0  0  0
    3.1974   -2.0671   -0.4344 C   0  0  2  0  0  3  0  0  0  0  0  0
    4.4872   -2.4916   -0.7702 C   0  0  0  0  0  0  0  0  0  0  0  0
    4.6677   -3.5742   -0.8392 H   0  0  0  0  0  0  0  0  0  0  0  0
    5.4858   -1.5220   -0.9877 C   0  0  0  0  0  0  0  0  0  0  0  0
    6.5084   -1.8297   -1.2555 H   0  0  0  0  0  0  0  0  0  0  0  0
    5.1717   -0.1576   -0.8420 C   0  0  0  0  0  0  0  0  0  0  0  0
    5.9065    0.6500   -0.9730 H   0  0  0  0  0  0  0  0  0  0  0  0
    3.8611    0.1989   -0.5037 C   0  0  0  0  0  0  0  0  0  0  0  0
    3.3510    1.5832   -0.2656 C   0  0  0  0  0  0  0  0  0  0  0  0
    1.3134    2.7404    0.2544 C   0  0  0  0  0  0  0  0  0  0  0  0
    1.8787    3.8307    0.9689 C   0  0  0  0  0  0  0  0  0  0  0  0
    2.9086    3.7487    1.3354 H   0  0  0  0  0  0  0  0  0  0  0  0
    1.1329    4.9942    1.1866 C   0  0  0  0  0  0  0  0  0  0  0  0
    1.5840    5.8244    1.7541 H   0  0  0  0  0  0  0  0  0  0  0  0
   -0.1835    5.1109    0.7085 C   0  0  0  0  0  0  0  0  0  0  0  0
   -0.7706    6.0242    0.9006 H   0  0  0  0  0  0  0  0  0  0  0  0
   -0.7522    4.0519   -0.0208 C   0  0  0  0  0  0  0  0  0  0  0  0
   -0.0035    2.8831   -0.2452 C   0  0  0  0  0  0  0  0  0  0  0  0
   -0.4477    2.0443   -0.7988 H   0  0  0  0  0  0  0  0  0  0  0  0
   -2.1540    4.1593   -0.5957 C   0  0  0  0  0  0  0  0  0  0  0  0
   -2.7090    4.9836   -0.0800 H   0  0  0  0  0  0  0  0  0  0  0  0
   -2.1028    4.4291   -1.6735 H   0  0  0  0  0  0  0  0  0  0  0  0
   -3.2361    2.5347    0.7595 C   0  0  0  0  0  0  0  0  0  0  0  0
   -4.1434    3.0968    1.0976 H   0  0  0  0  0  0  0  0  0  0  0  0
   -2.4137    2.7501    1.4830 H   0  0  0  0  0  0  0  0  0  0  0  0
   -3.4933    1.0373    0.7757 C   0  0  0  0  0  0  0  0  0  0  0  0
   -2.5545    0.5048    0.4915 H   0  0  0  0  0  0  0  0  0  0  0  0
   -3.7310    0.7395    1.8193 H   0  0  0  0  0  0  0  0  0  0  0  0
   -4.3640    0.5284   -1.4134 C   0  0  0  0  0  0  0  0  0  0  0  0
   -3.2964    0.7258   -1.6467 H   0  0  0  0  0  0  0  0  0  0  0  0
   -4.9615    1.2999   -1.9580 H   0  0  0  0  0  0  0  0  0  0  0  0
   -4.7379   -0.8555   -1.9322 C   0  0  0  0  0  0  0  0  0  0  0  0
   -5.7774   -1.1097   -1.6055 H   0  0  0  0  0  0  0  0  0  0  0  0
   -4.7427   -0.8171   -3.0447 H   0  0  0  0  0  0  0  0  0  0  0  0
   -4.0124   -2.4194   -0.2743 C   0  0  0  0  0  0  0  0  0  0  0  0
   -4.7655   -3.2479   -0.3206 H   0  0  0  0  0  0  0  0  0  0  0  0
   -4.4280   -1.6459    0.4100 H   0  0  0  0  0  0  0  0  0  0  0  0
   -2.7136   -2.9488    0.2879 C   0  0  0  0  0  0  0  0  0  0  0  0
   -2.7304   -4.0486    1.1675 C   0  0  0  0  0  0  0  0  0  0  0  0
   -3.6844   -4.5514    1.3983 H   0  0  0  0  0  0  0  0  0  0  0  0
   -1.5319   -4.5038    1.7380 C   0  0  0  0  0  0  0  0  0  0  0  0
   -1.5442   -5.3658    2.4248 H   0  0  0  0  0  0  0  0  0  0  0  0
   -0.3139   -3.8875    1.4284 C   0  0  0  0  0  0  0  0  0  0  0  0
    0.6263   -4.2659    1.8487 H   0  0  0  0  0  0  0  0  0  0  0  0
   -0.2776   -2.7883    0.5356 C   0  0  0  0  0  0  0  0  0  0  0  0
   -1.4924   -2.3267   -0.0174 C   0  0  0  0  0  0  0  0  0  0  0  0
   -1.4657   -1.4765   -0.7092 H   0  0  0  0  0  0  0  0  0  0  0  0
  1  9  2  0  0  0  0
  2 18  2  0  0  0  0
  3 35  1  0  0  0  0
  4 44  1  0  0  0  0
  5 32  1  0  0  0  0
  6 54  1  0  0  0  0
  8 19  1  0  0  0  0
  9  6  1  0  0  0  0
 10 11  1  1  0  0  0
 10  7  1  0  0  0  0
 10  9  1  0  0  0  0
 12 11  1  0  0  0  0
 13 15  1  0  0  0  0
 13 11  2  0  0  0  0
 14 13  1  0  0  0  0
 15 17  2  0  0  0  0
 16 15  1  0  0  0  0
 17  7  1  0  0  0  0
 17 18  1  0  0  0  0
 18  8  1  0  0  0  0
 19 20  1  0  0  0  0
 20 22  2  0  0  0  0
 20 21  1  0  0  0  0
 22 23  1  0  0  0  0
 24 25  1  0  0  0  0
 24 22  1  0  0  0  0
 26 24  2  0  0  0  0
 27 26  1  0  0  0  0
 27 19  2  0  0  0  0
 28 27  1  0  0  0  0
 29  5  1  0  0  0  0
 29 30  1  0  0  0  0
 29 26  1  0  0  0  0
 31 29  1  0  0  0  0
 32 35  1  0  0  0  0
 32 33  1  0  0  0  0
 32 34  1  0  0  0  0
 35 37  1  0  0  0  0
 36 35  1  0  0  0  0
 38  3  1  0  0  0  0
 39 38  1  0  0  0  0
 40 38  1  0  0  0  0
 41 42  1  0  0  0  0
 41  4  1  0  0  0  0
 41 38  1  0  0  0  0
 43 41  1  0  0  0  0
 44 47  1  0  0  0  0
 44 46  1  0  0  0  0
 45 44  1  0  0  0  0
 47 48  1  0  0  0  0
 48 49  1  0  0  0  0
 48 50  2  0  0  0  0
 50 51  1  0  0  0  0
 52 50  1  0  0  0  0
 52 53  1  0  0  0  0
 54 52  2  0  0  0  0
 55 47  2  0  0  0  0
 55 54  1  0  0  0  0
 56 55  1  0  0  0  0
M  END
