3,5,7
q = 0.0, confidence = 0.998

 41 41  0  0  0  0  0  0  0  0999 V2000
    1.5195    2.1653   -0.3197 N   0  0  0  0  0  0  0  0  0  0  0  0
    1.0089    2.1290    0.5737 H   0  0  0  0  0  0  0  0  0  0  0  0
   -1.1231    1.5545   -1.6546 N   0  0  0  0  0  0  0  0  0  0  0  0
   -0.6042    1.0609   -2.3984 H   0  0  0  0  0  0  0  0  0  0  0  0
   -2.7925   -0.4722   -0.6263 N   0  0  0  0  0  0  0  0  0  0  0  0
   -3.1292    0.1063    0.1764 H   0  0  0  0  0  0  0  0  0  0  0  0
   -1.0151   -2.0962    0.8149 N   0  0  0  0  0  0  0  0  0  0  0  0
   -0.5500   -2.6077    0.0087 H   0  0  0  0  0  0  0  0  0  0  0  0
    1.6320   -0.9527    1.6707 N   0  0  0  0  0  0  0  0  0  0  0  0
    1.1704   -0.1596    2.1326 H   0  0  0  0  0  0  0  0  0  0  0  0
    3.3342    1.3483   -1.4777 O   0  0  0  0  0  0  0  0  0  0  0  0
    3.3906   -1.5521    0.3136 O   0  0  0  0  0  0  0  0  0  0  0  0
    2.6007    1.4657    1.9710 F   0  0  0  0  0  0  0  0  0  0  0  0
    3.1323    0.7861    0.8652 C   0  0  0  0  0  0  0  0  0  0  0  0
    4.2385    0.8392    0.8990 H   0  0  0  0  0  0  0  0  0  0  0  0
    2.6783    1.4571   -0.4478 C   0  0  0  0  0  0  0  0  0  0  0  0
    0.9644    2.8983   -1.4349 C   0  0  0  0  0  0  0  0  0  0  0  0
    1.3901    2.4530   -2.3593 H   0  0  0  0  0  0  0  0  0  0  0  0
    1.2976    3.9621   -1.4188 H   0  0  0  0  0  0  0  0  0  0  0  0
   -0.5594    2.8915   -1.4680 C   0  0  0  0  0  0  0  0  0  0  0  0
   -0.9691    3.3099   -0.5217 H   0  0  0  0  0  0  0  0  0  0  0  0
   -0.8812    3.5875   -2.2811 H   0  0  0  0  0  0  0  0  0  0  0  0
   -2.5601    1.5634   -1.9336 C   0  0  0  0  0  0  0  0  0  0  0  0
   -2.8075    2.0501   -2.9074 H   0  0  0  0  0  0  0  0  0  0  0  0
   -3.0493    2.1655   -1.1380 H   0  0  0  0  0  0  0  0  0  0  0  0
   -3.1281    0.1442   -1.9038 C   0  0  0  0  0  0  0  0  0  0  0  0
   -4.2268    0.1802   -2.0939 H   0  0  0  0  0  0  0  0  0  0  0  0
   -2.6798   -0.4685   -2.7176 H   0  0  0  0  0  0  0  0  0  0  0  0
   -3.1055   -1.8875   -0.4489 C   0  0  0  0  0  0  0  0  0  0  0  0
   -2.6868   -2.4488   -1.3124 H   0  0  0  0  0  0  0  0  0  0  0  0
   -4.2021   -2.0877   -0.4204 H   0  0  0  0  0  0  0  0  0  0  0  0
   -2.4517   -2.3744    0.8451 C   0  0  0  0  0  0  0  0  0  0  0  0
   -2.8996   -1.8381    1.7114 H   0  0  0  0  0  0  0  0  0  0  0  0
   -2.6675   -3.4597    0.9883 H   0  0  0  0  0  0  0  0  0  0  0  0
   -0.3321   -2.4101    2.0675 C   0  0  0  0  0  0  0  0  0  0  0  0
   -0.5717   -3.4461    2.4089 H   0  0  0  0  0  0  0  0  0  0  0  0
   -0.7038   -1.7255    2.8642 H   0  0  0  0  0  0  0  0  0  0  0  0
    1.1843   -2.3045    1.9440 C   0  0  0  0  0  0  0  0  0  0  0  0
    1.6382   -2.6872    2.8868 H   0  0  0  0  0  0  0  0  0  0  0  0
    1.5594   -2.9446    1.1194 H   0  0  0  0  0  0  0  0  0  0  0  0
    2.7401   -0.7025    0.9144 C   0  0  0  0  0  0  0  0  0  0  0  0
  1  2  1  0  0  0  0
  3 20  1  0  0  0  0
  4  3  1  0  0  0  0
  5 29  1  0  0  0  0
  5  6  1  0  0  0  0
  7 32  1  0  0  0  0
  7 35  1  0  0  0  0
  8  7  1  0  0  0  0
  9 38  1  0  0  0  0
  9 10  1  0  0  0  0
 11 16  2  0  0  0  0
 12 41  2  0  0  0  0
 14 15  1  0  0  0  0
 14 41  1  0  0  0  0
 14 13  1  0  0  0  0
 16  1  1  0  0  0  0
 16 14  1  0  0  0  0
 17 19  1  0  0  0  0
 17  1  1  0  0  0  0
 18 17  1  0  0  0  0
 20 17  1  0  0  0  0
 20 21  1  0  0  0  0
 22 20  1  0  0  0  0
 23 26  1  0  0  0  0
 23  3  1  0  0  0  0
 23 25  1  0  0  0  0
 24 23  1  0  0  0  0
 26  5  1  0  0  0  0
 27 26  1  0  0  0  0
 28 26  1  0  0  0  0
 29 31  1  0  0  0  0
 29 32  1  0  0  0  0
 30 29  1  0  0  0  0
 32 34  1  0  0  0  0
 32 33  1  0  0  0  0
 35 36  1  0  0  0  0
 35 37  1  0  0  0  0
 38 35  1  0  0  0  0
 38 39  1  0  0  0  0
 40 38  1  0  0  0  0
 41  9  1  0  0  0  0
M  END
