1,3,5
q = -2.0, confidence = 0.842

 56 64  0  0  0  0  0  0  0  0999 V2000
    0.0489    1.9652    0.0042 N   0  0  0  0  0  2  0  0  0  0  0  0
    2.4302    2.3945   -0.1917 N   0  0  0  0  0  0  0  0  0  0  0  0
    1.9891    0.0008   -0.0879 N   0  0  0  0  0  0  0  0  0  0  0  0
    2.4320   -2.3926   -0.1915 N   0  0  0  0  0  0  0  0  0  0  0  0
    0.0505   -1.9651    0.0044 N   0  0  0  0  0  0  0  0  0  0  0  0
   -2.3551   -2.3811   -0.2537 N   0  0  0  0  0  0  0  0  0  0  0  0
   -1.9689   -0.0007   -0.1078 N   0  0  0  0  0  0  0  0  0  0  0  0
   -2.3570    2.3793   -0.2536 N   0  0  0  0  0  0  0  0  0  0  0  0
    1.1547    2.7697   -0.1510 C   0  0  0  0  0  0  0  0  0  0  0  0
    2.7933    1.1151   -0.1953 C   0  0  0  0  0  0  0  0  0  0  0  0
    4.1904    0.7085   -0.3689 C   0  0  0  0  0  0  0  0  0  0  0  0
    5.3776    1.4350   -0.5357 C   0  0  0  0  0  0  0  0  0  0  0  0
    5.3571    2.5349   -0.5374 H   0  0  0  0  0  0  0  0  0  0  0  0
    6.5698    0.7103   -0.6916 C   0  0  0  0  0  0  0  0  0  0  0  0
    7.5227    1.2484   -0.8161 H   0  0  0  0  0  0  0  0  0  0  0  0
    6.5703   -0.7052   -0.6916 C   0  0  0  0  0  0  0  0  0  0  0  0
    7.5237   -1.2425   -0.8160 H   0  0  0  0  0  0  0  0  0  0  0  0
    5.3787   -1.4308   -0.5356 C   0  0  0  0  0  0  0  0  0  0  0  0
    5.3591   -2.5307   -0.5371 H   0  0  0  0  0  0  0  0  0  0  0  0
    4.1909   -0.7052   -0.3689 C   0  0  0  0  0  0  0  0  0  0  0  0
    2.7942   -1.1129   -0.1952 C   0  0  0  0  0  0  0  0  0  0  0  0
    1.1569   -2.7688   -0.1508 C   0  0  0  0  0  0  0  0  0  0  0  0
    0.7405   -4.1554   -0.3710 C   0  0  0  0  0  0  0  0  0  0  0  0
    1.4578   -5.3427   -0.5762 C   0  0  0  0  0  3  0  0  0  0  0  0
    2.5578   -5.3334   -0.5647 H   0  0  0  0  0  0  0  0  0  0  0  0
    0.7241   -6.5200   -0.7884 C   0  0  0  0  0  0  0  0  0  0  0  0
    1.2543   -7.4733   -0.9407 H   0  0  0  0  0  0  0  0  0  0  0  0
   -0.6916   -6.5045   -0.8129 C   0  0  0  0  0  0  0  0  0  0  0  0
   -1.2363   -7.4464   -0.9837 H   0  0  0  0  0  0  0  0  0  0  0  0
   -1.4072   -5.3120   -0.6263 C   0  0  0  0  0  0  0  0  0  0  0  0
   -2.5064   -5.2778   -0.6521 H   0  0  0  0  0  0  0  0  0  0  0  0
   -0.6739   -4.1391   -0.3955 C   0  0  0  0  0  0  0  0  0  0  0  0
   -1.0792   -2.7464   -0.1826 C   0  0  0  0  0  0  0  0  0  0  0  0
   -2.7568   -1.1120   -0.2301 C   0  0  0  0  0  0  0  0  0  0  0  0
   -4.1604   -0.7106   -0.4079 C   0  0  0  0  0  0  0  0  0  0  0  0
   -5.3476   -1.4343   -0.5781 C   0  0  0  0  0  0  0  0  0  0  0  0
   -5.3294   -2.5344   -0.5802 H   0  0  0  0  0  0  0  0  0  0  0  0
   -6.5405   -0.7097   -0.7385 C   0  0  0  0  0  0  0  0  0  0  0  0
   -7.4928   -1.2482   -0.8667 H   0  0  0  0  0  0  0  0  0  0  0  0
   -6.5411    0.7046   -0.7385 C   0  0  0  0  0  0  0  0  0  0  0  0
   -7.4938    1.2423   -0.8666 H   0  0  0  0  0  0  0  0  0  0  0  0
   -5.3488    1.4301   -0.5780 C   0  0  0  0  0  0  0  0  0  0  0  0
   -5.3314    2.5302   -0.5800 H   0  0  0  0  0  0  0  0  0  0  0  0
   -4.1610    0.7074   -0.4079 C   0  0  0  0  0  0  0  0  0  0  0  0
   -2.7577    1.1098   -0.2300 C   0  0  0  0  0  0  0  0  0  0  0  0
   -1.0814    2.7456   -0.1826 C   0  0  0  0  0  0  0  0  0  0  0  0
   -0.6771    4.1386   -0.3954 C   0  0  0  0  0  0  0  0  0  0  0  0
   -1.4114    5.3109   -0.6261 C   0  0  0  0  0  0  0  0  0  0  0  0
   -2.5106    5.2759   -0.6518 H   0  0  0  0  0  0  0  0  0  0  0  0
   -0.6967    6.5040   -0.8127 C   0  0  0  0  0  0  0  0  0  0  0  0
   -1.2422    7.4455   -0.9834 H   0  0  0  0  0  0  0  0  0  0  0  0
    0.7190    6.5206   -0.7883 C   0  0  0  0  0  0  0  0  0  0  0  0
    1.2484    7.4743   -0.9406 H   0  0  0  0  0  0  0  0  0  0  0  0
    1.4536    5.3439   -0.5763 C   0  0  0  0  0  0  0  0  0  0  0  0
    2.5536    5.3354   -0.5649 H   0  0  0  0  0  0  0  0  0  0  0  0
    0.7373    4.1560   -0.3711 C   0  0  0  0  0  0  0  0  0  0  0  0
  2  9  2  0  0  0  0
  4 22  1  0  0  0  0
  6 34  2  0  0  0  0
  6 33  1  0  0  0  0
  8 45  1  0  0  0  0
  8 46  2  0  0  0  0
  9  1  1  0  0  0  0
 10  2  1  0  0  0  0
 10  3  2  0  0  0  0
 11 20  1  0  0  0  0
 11 10  1  0  0  0  0
 12 11  2  0  0  0  0
 13 12  1  0  0  0  0
 14 16  2  0  0  0  0
 14 12  1  0  0  0  0
 15 14  1  0  0  0  0
 16 18  1  0  0  0  0
 17 16  1  0  0  0  0
 18 20  2  0  0  0  0
 19 18  1  0  0  0  0
 20 21  1  0  0  0  0
 21  4  2  0  0  0  0
 21  3  1  0  0  0  0
 22  5  1  0  0  0  0
 23 22  2  0  0  0  0
 24 25  1  0  0  0  0
 24 23  1  0  0  0  0
 26 24  1  0  0  0  0
 27 26  1  0  0  0  0
 28 26  2  0  0  0  0
 28 30  1  0  0  0  0
 29 28  1  0  0  0  0
 30 32  2  0  0  0  0
 31 30  1  0  0  0  0
 32 23  1  0  0  0  0
 32 33  1  0  0  0  0
 33  5  2  0  0  0  0
 34  7  1  0  0  0  0
 35 44  1  0  0  0  0
 35 34  1  0  0  0  0
 36 35  2  0  0  0  0
 37 36  1  0  0  0  0
 38 40  2  0  0  0  0
 38 36  1  0  0  0  0
 39 38  1  0  0  0  0
 40 42  1  0  0  0  0
 41 40  1  0  0  0  0
 42 44  2  0  0  0  0
 43 42  1  0  0  0  0
 44 45  1  0  0  0  0
 45  7  2  0  0  0  0
 46  1  1  0  0  0  0
 47 56  1  0  0  0  0
 47 46  1  0  0  0  0
 48 47  2  0  0  0  0
 49 48  1  0  0  0  0
 50 52  2  0  0  0  0
 50 48  1  0  0  0  0
 51 50  1  0  0  0  0
 52 54  1  0  0  0  0
 53 52  1  0  0  0  0
 54 55  1  0  0  0  0
 54 56  2  0  0  0  0
 56  9  1  0  0  0  0
M  END
