1,25,50
q = 0.0, confidence = 0.96

 66 72  0  0  1  0  0  0  0  0999 V2000
    3.1042    0.0282   -0.3177 N   0  0  0  0  0  2  0  0  0  0  0  0
    3.9478    1.0908   -0.5512 C   0  0  0  0  0  0  0  0  0  0  0  0
    5.3539    0.9676   -0.6060 C   0  0  0  0  0  0  0  0  0  0  0  0
    5.9569    1.8617   -0.8182 H   0  0  0  0  0  0  0  0  0  0  0  0
    5.9290   -0.2500   -0.3055 C   0  0  0  0  0  0  0  0  0  0  0  0
    7.0211   -0.3705   -0.2482 H   0  0  0  0  0  0  0  0  0  0  0  0
    5.0934   -1.3711   -0.0719 C   0  0  0  0  0  0  0  0  0  0  0  0
    5.6736   -2.6347    0.2772 C   0  0  0  0  0  0  0  0  0  0  0  0
    6.7648   -2.6799    0.4124 H   0  0  0  0  0  0  0  0  0  0  0  0
    4.8939   -3.7491    0.4459 C   0  0  0  0  0  0  0  0  0  0  0  0
    5.3407   -4.7114    0.7389 H   0  0  0  0  0  0  0  0  0  0  0  0
    3.4884   -3.6955    0.1724 C   0  0  0  0  0  0  0  0  0  0  0  0
    2.7107   -4.8839    0.1938 C   0  0  0  0  0  0  0  0  0  0  0  0
    3.1965   -5.8223    0.5026 H   0  0  0  0  0  0  0  0  0  0  0  0
    1.3801   -4.8757   -0.2085 C   0  0  0  0  0  0  0  0  0  0  0  0
    0.7960   -5.8085   -0.2110 H   0  0  0  0  0  0  0  0  0  0  0  0
    0.7967   -3.6672   -0.6478 C   0  0  0  0  0  0  0  0  0  0  0  0
   -0.2309   -3.6571   -1.0392 H   0  0  0  0  0  0  0  0  0  0  0  0
    1.5182   -2.4786   -0.6107 C   0  0  0  0  0  3  0  0  0  0  0  0
    1.0620   -1.5507   -0.9814 H   0  0  0  0  0  0  0  0  0  0  0  0
    2.8684   -2.4480   -0.1897 C   0  0  0  0  0  0  0  0  0  0  0  0
    3.6632   -1.2290   -0.1904 C   0  0  0  0  0  0  0  0  0  0  0  0
    3.3202    2.3880   -0.6440 C   0  0  0  0  0  3  0  0  0  0  0  0
    3.9004    3.2818   -0.9411 H   0  0  0  0  0  0  0  0  0  0  0  0
    2.0628    2.3914   -0.3293 N   0  0  0  0  0  2  0  0  0  0  0  0
   -3.6344    0.3704    0.2670 N   0  0  0  0  0  0  0  0  0  0  0  0
   -2.3039    0.1663    0.2730 C   0  0  0  0  0  0  0  0  0  0  0  0
   -1.7259   -1.1233    0.1306 C   0  0  0  0  0  0  0  0  0  0  0  0
   -0.6384   -1.2381    0.1744 H   0  0  0  0  0  0  0  0  0  0  0  0
   -2.5750   -2.2099   -0.0097 C   0  0  0  0  0  0  0  0  0  0  0  0
   -2.1675   -3.2288   -0.0923 H   0  0  0  0  0  0  0  0  0  0  0  0
   -3.9793   -2.0205   -0.0402 C   0  0  0  0  0  0  0  0  0  0  0  0
   -4.9091   -3.1017   -0.1952 C   0  0  0  0  0  0  0  0  0  0  0  0
   -4.5144   -4.1244   -0.2979 H   0  0  0  0  0  0  0  0  0  0  0  0
   -6.2636   -2.8673   -0.2176 C   0  0  0  0  0  0  0  0  0  0  0  0
   -6.9695   -3.7038   -0.3392 H   0  0  0  0  0  0  0  0  0  0  0  0
   -6.7990   -1.5381   -0.0854 C   0  0  0  0  0  0  0  0  0  0  0  0
   -8.1986   -1.2940   -0.1102 C   0  0  0  0  0  0  0  0  0  0  0  0
   -8.8834   -2.1474   -0.2345 H   0  0  0  0  0  0  0  0  0  0  0  0
   -8.6984   -0.0019    0.0195 C   0  0  0  0  0  0  0  0  0  0  0  0
   -9.7848    0.1730   -0.0018 H   0  0  0  0  0  0  0  0  0  0  0  0
   -7.8105    1.0887    0.1784 C   0  0  0  0  0  0  0  0  0  0  0  0
   -8.2108    2.1090    0.2800 H   0  0  0  0  0  0  0  0  0  0  0  0
   -6.4345    0.8765    0.2057 C   0  0  0  0  0  0  0  0  0  0  0  0
   -5.7239    1.7060    0.3265 H   0  0  0  0  0  0  0  0  0  0  0  0
   -5.9045   -0.4298    0.0758 C   0  0  0  0  0  0  0  0  0  0  0  0
   -4.4671   -0.6748    0.1007 C   0  0  0  0  0  0  0  0  0  0  0  0
   -1.5667    1.4093    0.4874 C   0  0  0  0  0  3  0  0  0  0  0  0
   -2.2689    2.2318    0.7037 H   0  0  0  0  0  0  0  0  0  0  0  0
   -0.2953    1.6775    0.4613 N   0  0  0  0  0  2  0  0  0  0  0  0
    1.1421    3.4982   -0.2796 C   0  0  2  0  0  0  0  0  0  0  0  0
    0.6000    3.5150   -1.2556 H   0  0  0  0  0  0  0  0  0  0  0  0
    1.7495    4.8739    0.0030 C   0  0  0  0  0  0  0  0  0  0  0  0
    2.3771    4.8046    0.9190 H   0  0  0  0  0  0  0  0  0  0  0  0
    2.4209    5.1692   -0.8298 H   0  0  0  0  0  0  0  0  0  0  0  0
    0.6465    5.9209    0.2022 C   0  0  0  0  0  0  0  0  0  0  0  0
    1.0964    6.9037    0.4514 H   0  0  0  0  0  0  0  0  0  0  0  0
    0.0957    6.0607   -0.7541 H   0  0  0  0  0  0  0  0  0  0  0  0
   -0.3364    5.4876    1.2953 C   0  0  0  0  0  0  0  0  0  0  0  0
   -1.1377    6.2443    1.4180 H   0  0  0  0  0  0  0  0  0  0  0  0
    0.1966    5.4355    2.2703 H   0  0  0  0  0  0  0  0  0  0  0  0
   -0.9679    4.1198    0.9907 C   0  0  0  0  0  0  0  0  0  0  0  0
   -1.5836    4.1924    0.0673 H   0  0  0  0  0  0  0  0  0  0  0  0
   -1.6484    3.8294    1.8166 H   0  0  0  0  0  0  0  0  0  0  0  0
    0.1259    3.0684    0.7994 C   0  0  1  0  0  0  0  0  0  0  0  0
    0.6943    2.9654    1.7525 H   0  0  0  0  0  0  0  0  0  0  0  0
  1 22  1  0  0  0  0
  2  1  1  0  0  0  0
  3  2  2  0  0  0  0
  3  5  1  0  0  0  0
  4  3  1  0  0  0  0
  5  6  1  0  0  0  0
  5  7  2  0  0  0  0
  7  8  1  0  0  0  0
  8  9  1  0  0  0  0
  8 10  2  0  0  0  0
 10 11  1  0  0  0  0
 12 13  2  0  0  0  0
 12 10  1  0  0  0  0
 13 14  1  0  0  0  0
 15 13  1  0  0  0  0
 16 15  1  0  0  0  0
 17 19  1  0  0  0  0
 17 15  2  0  0  0  0
 18 17  1  0  0  0  0
 19 21  1  0  0  0  0
 20 19  1  0  0  0  0
 21 12  1  0  0  0  0
 22 21  2  0  0  0  0
 22  7  1  0  0  0  0
 23  2  1  0  0  0  0
 23 25  1  0  0  0  0
 24 23  1  0  0  0  0
 25 51  1  0  0  0  0
 26 27  1  0  0  0  0
 27 48  1  0  0  0  0
 28 29  1  0  0  0  0
 28 27  2  0  0  0  0
 30 28  1  0  0  0  0
 31 30  1  0  0  0  0
 32 30  2  0  0  0  0
 32 47  1  0  0  0  0
 33 32  1  0  0  0  0
 34 33  1  0  0  0  0
 35 33  2  0  0  0  0
 35 37  1  0  0  0  0
 36 35  1  0  0  0  0
 37 46  1  0  0  0  0
 38 37  2  0  0  0  0
 38 40  1  0  0  0  0
 39 38  1  0  0  0  0
 40 42  2  0  0  0  0
 41 40  1  0  0  0  0
 42 44  1  0  0  0  0
 42 43  1  0  0  0  0
 44 45  1  0  0  0  0
 46 47  1  0  0  0  0
 46 44  2  0  0  0  0
 47 26  2  0  0  0  0
 48 49  1  0  0  0  0
 50 48  1  0  0  0  0
 50 65  1  0  0  0  0
 51 52  1  6  0  0  0
 51 53  1  0  0  0  0
 51 65  1  0  0  0  0
 53 56  1  0  0  0  0
 53 54  1  0  0  0  0
 55 53  1  0  0  0  0
 56 57  1  0  0  0  0
 56 59  1  0  0  0  0
 58 56  1  0  0  0  0
 59 60  1  0  0  0  0
 59 61  1  0  0  0  0
 62 59  1  0  0  0  0
 62 64  1  0  0  0  0
 63 62  1  0  0  0  0
 65 62  1  0  0  0  0
 65 66  1  1  0  0  0
M  END
