1,2,3
q = 0.0, confidence = 1.0

 51 51  0  0  1  0  0  0  0  0999 V2000
    1.9367   -0.6116   -0.0927 N   0  0  0  0  0  0  0  0  0  0  0  0
   -1.0630   -1.3547   -0.6104 N   0  0  0  0  0  0  0  0  0  0  0  0
   -0.3515    1.1096    1.2301 N   0  0  0  0  0  0  0  0  0  0  0  0
    1.6480   -1.4212    1.1237 C   0  0  1  0  0  0  0  0  0  0  0  0
    1.1824   -0.5450    2.2983 C   0  0  0  0  0  0  0  0  0  0  0  0
   -0.2567   -0.0156    2.2059 C   0  0  2  0  0  0  0  0  0  0  0  0
   -1.2341   -1.1566    1.8881 C   0  0  0  0  0  0  0  0  0  0  0  0
   -0.8432   -2.0426    0.6934 C   0  0  2  0  0  0  0  0  0  0  0  0
    0.6126   -2.5175    0.8277 C   0  0  0  0  0  0  0  0  0  0  0  0
    3.2356    0.1434   -0.0103 C   0  0  0  0  0  0  0  0  0  0  0  0
    3.2538    1.3084   -0.9944 C   0  0  0  0  0  0  0  0  0  0  0  0
    4.4349   -0.7877   -0.2132 C   0  0  0  0  0  0  0  0  0  0  0  0
   -2.5096   -1.2824   -1.0149 C   0  0  0  0  0  0  0  0  0  0  0  0
   -2.7207   -0.2147   -2.0839 C   0  0  0  0  0  0  0  0  0  0  0  0
   -3.0330   -2.6470   -1.4747 C   0  0  0  0  0  0  0  0  0  0  0  0
   -1.6321    1.8940    1.2564 C   0  0  0  0  0  0  0  0  0  0  0  0
   -1.4607    3.1343    0.3814 C   0  0  0  0  0  0  0  0  0  0  0  0
   -2.0933    2.2759    2.6666 C   0  0  0  0  0  0  0  0  0  0  0  0
    2.5833   -1.9340    1.4437 H   0  0  0  0  0  0  0  0  0  0  0  0
    1.2486   -1.1624    3.2173 H   0  0  0  0  0  0  0  0  0  0  0  0
    1.8878    0.2964    2.4639 H   0  0  0  0  0  0  0  0  0  0  0  0
   -0.5175    0.3683    3.2157 H   0  0  0  0  0  0  0  0  0  0  0  0
   -1.2748   -1.8114    2.7825 H   0  0  0  0  0  0  0  0  0  0  0  0
   -2.2648   -0.7683    1.7682 H   0  0  0  0  0  0  0  0  0  0  0  0
   -1.4847   -2.9517    0.7324 H   0  0  0  0  0  0  0  0  0  0  0  0
    0.9135   -3.0966   -0.0740 H   0  0  0  0  0  0  0  0  0  0  0  0
    0.6482   -3.2421    1.6661 H   0  0  0  0  0  0  0  0  0  0  0  0
    3.2792    0.5625    1.0170 H   0  0  0  0  0  0  0  0  0  0  0  0
    3.1635    0.9548   -2.0423 H   0  0  0  0  0  0  0  0  0  0  0  0
    4.2075    1.8656   -0.9137 H   0  0  0  0  0  0  0  0  0  0  0  0
    2.4236    2.0142   -0.7947 H   0  0  0  0  0  0  0  0  0  0  0  0
    4.4371   -1.6408    0.4943 H   0  0  0  0  0  0  0  0  0  0  0  0
    5.3852   -0.2392   -0.0648 H   0  0  0  0  0  0  0  0  0  0  0  0
    4.4457   -1.1927   -1.2476 H   0  0  0  0  0  0  0  0  0  0  0  0
   -3.0654   -0.9739   -0.1045 H   0  0  0  0  0  0  0  0  0  0  0  0
   -2.4231    0.7874   -1.7184 H   0  0  0  0  0  0  0  0  0  0  0  0
   -3.7875   -0.1704   -2.3778 H   0  0  0  0  0  0  0  0  0  0  0  0
   -2.1336   -0.4381   -2.9988 H   0  0  0  0  0  0  0  0  0  0  0  0
   -2.5243   -2.9665   -2.4092 H   0  0  0  0  0  0  0  0  0  0  0  0
   -4.1176   -2.5957   -1.6918 H   0  0  0  0  0  0  0  0  0  0  0  0
   -2.8906   -3.4393   -0.7134 H   0  0  0  0  0  0  0  0  0  0  0  0
   -2.4045    1.2433    0.7928 H   0  0  0  0  0  0  0  0  0  0  0  0
   -0.6973    3.8192    0.8083 H   0  0  0  0  0  0  0  0  0  0  0  0
   -2.4107    3.6978    0.3159 H   0  0  0  0  0  0  0  0  0  0  0  0
   -1.1469    2.8660   -0.6460 H   0  0  0  0  0  0  0  0  0  0  0  0
   -2.3594    1.4008    3.2905 H   0  0  0  0  0  0  0  0  0  0  0  0
   -2.9964    2.9132    2.6036 H   0  0  0  0  0  0  0  0  0  0  0  0
   -1.3133    2.8597    3.1997 H   0  0  0  0  0  0  0  0  0  0  0  0
    2.0509   -1.2739   -0.8756 H   0  0  0  0  0  0  0  0  0  0  0  0
   -0.6051   -1.9315   -1.3334 H   0  0  0  0  0  0  0  0  0  0  0  0
    0.3958    1.7762    1.4807 H   0  0  0  0  0  0  0  0  0  0  0  0
  1 10  1  0  0  0  0
  1  4  1  0  0  0  0
  2  8  1  0  0  0  0
  3 16  1  0  0  0  0
  3 51  1  0  0  0  0
  3  6  1  0  0  0  0
  4 19  1  1  0  0  0
  4  5  1  0  0  0  0
  5 21  1  0  0  0  0
  5 20  1  0  0  0  0
  6  5  1  0  0  0  0
  6 22  1  1  0  0  0
  7  6  1  0  0  0  0
  7 23  1  0  0  0  0
  8 25  1  1  0  0  0
  8  9  1  0  0  0  0
  8  7  1  0  0  0  0
  9  4  1  0  0  0  0
  9 27  1  0  0  0  0
 10 28  1  0  0  0  0
 11 30  1  0  0  0  0
 11 31  1  0  0  0  0
 11 10  1  0  0  0  0
 12 33  1  0  0  0  0
 12 10  1  0  0  0  0
 12 32  1  0  0  0  0
 13  2  1  0  0  0  0
 13 35  1  0  0  0  0
 14 36  1  0  0  0  0
 14 13  1  0  0  0  0
 15 13  1  0  0  0  0
 15 41  1  0  0  0  0
 16 18  1  0  0  0  0
 17 43  1  0  0  0  0
 17 16  1  0  0  0  0
 18 48  1  0  0  0  0
 18 46  1  0  0  0  0
 24  7  1  0  0  0  0
 26  9  1  0  0  0  0
 29 11  1  0  0  0  0
 34 12  1  0  0  0  0
 37 14  1  0  0  0  0
 38 14  1  0  0  0  0
 39 15  1  0  0  0  0
 40 15  1  0  0  0  0
 42 16  1  0  0  0  0
 44 17  1  0  0  0  0
 45 17  1  0  0  0  0
 47 18  1  0  0  0  0
 49  1  1  0  0  0  0
 50  2  1  0  0  0  0
M  END
