2,3,4
q = 0.0, confidence = 0.994

 39 42  0  0  1  0  0  0  0  0999 V2000
    8.9383   -0.1668    1.2069 F   0  0  0  0  0  0  0  0  0  0  0  0
   -0.7221    2.2461   -1.0946 N   0  0  0  0  0  2  0  0  0  0  0  0
    0.7972    0.1826   -0.9696 N   0  0  0  0  0  2  0  0  0  0  0  0
   -0.7365   -1.7415   -1.6875 N   0  0  0  0  0  2  0  0  0  0  0  0
    0.5938    2.5273   -0.7816 C   0  0  1  0  0  3  0  0  0  0  0  0
    3.5223    0.0810   -0.3460 C   0  0  0  0  0  0  0  0  0  0  0  0
    4.9457    0.0170    0.0510 C   0  0  0  0  0  0  0  0  0  0  0  0
    0.9631   -3.4622   -1.5574 C   0  0  0  0  0  0  0  0  0  0  0  0
    1.9966   -3.7479   -1.3175 H   0  0  0  0  0  0  0  0  0  0  0  0
    0.5626   -2.1235   -1.4101 C   0  0  0  0  0  0  0  0  0  0  0  0
    1.4452   -1.0257   -0.9955 C   0  0  0  0  0  0  0  0  0  0  0  0
   -1.6026   -2.6544   -2.1803 C   0  0  0  0  0  0  0  0  0  0  0  0
   -2.5935   -2.2546   -2.4416 H   0  0  0  0  0  0  0  0  0  0  0  0
    2.8019   -1.0935   -0.6675 C   0  0  0  0  0  0  0  0  0  0  0  0
    3.3181   -2.0625   -0.6875 H   0  0  0  0  0  0  0  0  0  0  0  0
    1.4690    1.3500   -0.7128 C   0  0  0  0  0  0  0  0  0  0  0  0
   -1.5944    3.2634   -1.2618 C   0  0  0  0  0  0  0  0  0  0  0  0
   -2.6022    2.9534   -1.5790 H   0  0  0  0  0  0  0  0  0  0  0  0
   -1.2534   -3.9958   -2.3521 C   0  0  0  0  0  0  0  0  0  0  0  0
   -1.9977   -4.7019   -2.7462 H   0  0  0  0  0  0  0  0  0  0  0  0
    5.4447   -1.0895    0.7787 C   0  0  0  0  0  0  0  0  0  0  0  0
    4.7580   -1.8976    1.0712 H   0  0  0  0  0  0  0  0  0  0  0  0
    1.0122    3.8511   -0.5660 C   0  0  0  0  0  0  0  0  0  0  0  0
    2.0607    4.0544   -0.3075 H   0  0  0  0  0  0  0  0  0  0  0  0
   -1.2279    4.5974   -1.0664 C   0  0  0  0  0  0  0  0  0  0  0  0
   -1.9767    5.3894   -1.2084 H   0  0  0  0  0  0  0  0  0  0  0  0
    7.6480   -0.1078    0.8327 C   0  0  0  0  0  0  0  0  0  0  0  0
    2.8317    1.3139   -0.3996 C   0  0  0  0  0  0  0  0  0  0  0  0
    3.3558    2.2465   -0.1498 H   0  0  0  0  0  0  0  0  0  0  0  0
    5.8472    1.0584   -0.2722 C   0  0  0  0  0  0  0  0  0  0  0  0
    5.4969    1.9160   -0.8655 H   0  0  0  0  0  0  0  0  0  0  0  0
    0.0476   -4.4128   -2.0197 C   0  0  0  0  0  0  0  0  0  0  0  0
    0.3493   -5.4637   -2.1381 H   0  0  0  0  0  0  0  0  0  0  0  0
    0.0941    4.8983   -0.6983 C   0  0  0  0  0  0  0  0  0  0  0  0
    0.4102    5.9385   -0.5327 H   0  0  0  0  0  0  0  0  0  0  0  0
    7.1917    1.0038    0.1131 C   0  0  0  0  0  0  0  0  0  0  0  0
    7.8986    1.8044   -0.1473 H   0  0  0  0  0  0  0  0  0  0  0  0
    6.7866   -1.1593    1.1706 C   0  0  0  0  0  0  0  0  0  0  0  0
    7.1762   -2.0117    1.7452 H   0  0  0  0  0  0  0  0  0  0  0  0
  2  5  1  0  0  0  0
  3 16  1  0  0  0  0
  4 10  1  0  0  0  0
  5 16  1  6  0  0  0
  5 23  1  0  0  0  0
  6  7  1  0  0  0  0
  7 21  1  0  0  0  0
  8 10  1  0  0  0  0
  8  9  1  0  0  0  0
 10 11  2  0  0  0  0
 11  3  1  0  0  0  0
 11 14  1  0  0  0  0
 12  4  1  0  0  0  0
 13 12  1  0  0  0  0
 14  6  2  0  0  0  0
 15 14  1  0  0  0  0
 16 28  2  0  0  0  0
 17  2  1  0  0  0  0
 17 25  2  0  0  0  0
 18 17  1  0  0  0  0
 19 12  2  0  0  0  0
 19 32  1  0  0  0  0
 20 19  1  0  0  0  0
 21 22  1  0  0  0  0
 21 38  2  0  0  0  0
 23 24  1  0  0  0  0
 25 34  1  0  0  0  0
 26 25  1  0  0  0  0
 27 38  1  0  0  0  0
 27  1  1  0  0  0  0
 28  6  1  0  0  0  0
 28 29  1  0  0  0  0
 30  7  2  0  0  0  0
 30 36  1  0  0  0  0
 31 30  1  0  0  0  0
 32  8  2  0  0  0  0
 33 32  1  0  0  0  0
 34 23  2  0  0  0  0
 34 35  1  0  0  0  0
 36 27  2  0  0  0  0
 37 36  1  0  0  0  0
 38 39  1  0  0  0  0
M  END
