1,2,3
q = -1.0, confidence = 0.002

 43 42  0  0  0  0  0  0  0  0999 V2000
    0.0003   -1.1643    1.3742 N   0  0  0  0  0  2  0  0  0  0  0  0
   -2.2947   -0.2587    0.1538 N   0  0  0  0  0  0  0  0  0  0  0  0
    2.2941   -0.2591    0.1536 N   0  0  0  0  0  0  0  0  0  0  0  0
   -1.2376   -1.4738    2.0391 C   0  0  0  0  0  0  0  0  0  0  0  0
   -2.3304   -1.5040    0.9747 C   0  0  0  0  0  0  0  0  0  0  0  0
    1.2383   -1.4779    2.0370 C   0  0  0  0  0  0  0  0  0  0  0  0
    2.3300   -1.5062    0.9716 C   0  0  0  0  0  0  0  0  0  0  0  0
   -2.9573   -0.4712   -1.1765 C   0  0  0  0  0  0  0  0  0  0  0  0
   -4.4566   -0.7600   -1.1375 C   0  0  0  0  0  0  0  0  0  0  0  0
   -2.9638    0.8532    0.9082 C   0  0  0  0  0  0  0  0  0  0  0  0
   -3.0820    2.1672    0.1490 C   0  0  0  0  0  0  0  0  0  0  0  0
    2.9623    0.8514    0.9109 C   0  0  0  0  0  0  0  0  0  0  0  0
    3.0819    2.1667    0.1542 C   0  0  0  0  0  0  0  0  0  0  0  0
    2.9573   -0.4686   -1.1769 C   0  0  0  0  0  0  0  0  0  0  0  0
    4.4565   -0.7580   -1.1378 C   0  0  0  0  0  0  0  0  0  0  0  0
   -1.1943   -2.4700    2.5420 H   0  0  0  0  0  0  0  0  0  0  0  0
   -1.4670   -0.7286    2.8443 H   0  0  0  0  0  0  0  0  0  0  0  0
   -2.1199   -2.3472    0.2882 H   0  0  0  0  0  0  0  0  0  0  0  0
   -3.3359   -1.6495    1.4279 H   0  0  0  0  0  0  0  0  0  0  0  0
    1.4696   -0.7357    2.8445 H   0  0  0  0  0  0  0  0  0  0  0  0
    1.1940   -2.4755    2.5369 H   0  0  0  0  0  0  0  0  0  0  0  0
    3.3359   -1.6533    1.4235 H   0  0  0  0  0  0  0  0  0  0  0  0
    2.1184   -2.3477    0.2833 H   0  0  0  0  0  0  0  0  0  0  0  0
   -2.4149   -1.3036   -1.6614 H   0  0  0  0  0  0  0  0  0  0  0  0
   -2.7400    0.4244   -1.7890 H   0  0  0  0  0  0  0  0  0  0  0  0
   -4.8037   -0.9540   -2.1718 H   0  0  0  0  0  0  0  0  0  0  0  0
   -5.0549    0.0857   -0.7445 H   0  0  0  0  0  0  0  0  0  0  0  0
   -4.6987   -1.6617   -0.5395 H   0  0  0  0  0  0  0  0  0  0  0  0
   -3.9724    0.4928    1.2158 H   0  0  0  0  0  0  0  0  0  0  0  0
   -2.3740    1.0148    1.8286 H   0  0  0  0  0  0  0  0  0  0  0  0
   -3.4434    2.9480    0.8467 H   0  0  0  0  0  0  0  0  0  0  0  0
   -3.8012    2.1121   -0.6918 H   0  0  0  0  0  0  0  0  0  0  0  0
   -2.0995    2.4927   -0.2427 H   0  0  0  0  0  0  0  0  0  0  0  0
    2.3713    1.0116    1.8307 H   0  0  0  0  0  0  0  0  0  0  0  0
    3.9705    0.4903    1.2192 H   0  0  0  0  0  0  0  0  0  0  0  0
    3.4423    2.9462    0.8539 H   0  0  0  0  0  0  0  0  0  0  0  0
    2.1001    2.4931   -0.2386 H   0  0  0  0  0  0  0  0  0  0  0  0
    3.8025    2.1131   -0.6856 H   0  0  0  0  0  0  0  0  0  0  0  0
    2.4148   -1.2995   -1.6641 H   0  0  0  0  0  0  0  0  0  0  0  0
    2.7406    0.4287   -1.7873 H   0  0  0  0  0  0  0  0  0  0  0  0
    4.8042   -0.9487   -2.1725 H   0  0  0  0  0  0  0  0  0  0  0  0
    4.6980   -1.6617   -0.5426 H   0  0  0  0  0  0  0  0  0  0  0  0
    5.0547    0.0863   -0.7417 H   0  0  0  0  0  0  0  0  0  0  0  0
  1  6  1  0  0  0  0
  1  4  1  0  0  0  0
  2 10  1  0  0  0  0
  2  5  1  0  0  0  0
  3 12  1  0  0  0  0
  3  7  1  0  0  0  0
  4 16  1  0  0  0  0
  4 17  1  0  0  0  0
  5 19  1  0  0  0  0
  5  4  1  0  0  0  0
  6 21  1  0  0  0  0
  6 20  1  0  0  0  0
  7 22  1  0  0  0  0
  7  6  1  0  0  0  0
  8  9  1  0  0  0  0
  8  2  1  0  0  0  0
  9 27  1  0  0  0  0
  9 28  1  0  0  0  0
 10 29  1  0  0  0  0
 10 30  1  0  0  0  0
 11 31  1  0  0  0  0
 11 10  1  0  0  0  0
 12 35  1  0  0  0  0
 12 34  1  0  0  0  0
 13 36  1  0  0  0  0
 13 12  1  0  0  0  0
 14 15  1  0  0  0  0
 14  3  1  0  0  0  0
 15 43  1  0  0  0  0
 15 42  1  0  0  0  0
 18  5  1  0  0  0  0
 23  7  1  0  0  0  0
 24  8  1  0  0  0  0
 25  8  1  0  0  0  0
 26  9  1  0  0  0  0
 32 11  1  0  0  0  0
 33 11  1  0  0  0  0
 37 13  1  0  0  0  0
 38 13  1  0  0  0  0
 39 14  1  0  0  0  0
 40 14  1  0  0  0  0
 41 15  1  0  0  0  0
M  END
