2,4,11
q = 0.0, confidence = 0.984

 37 39  0  0  1  0  0  0  0  0999 V2000
   -0.9445   -1.4997    1.5415 N   0  0  0  0  0  0  0  0  0  0  0  0
   -1.3622   -0.2058    1.5470 N   0  0  0  0  0  2  0  0  0  0  0  0
   -1.3482   -1.9511   -0.7540 N   0  0  0  0  0  0  0  0  0  0  0  0
   -1.7168   -0.7195   -1.1783 N   0  0  0  0  0  2  0  0  0  0  0  0
    3.8687    0.8488    0.6958 C   0  0  0  0  0  0  0  0  0  0  0  0
   -1.9279   -2.9367   -1.5029 C   0  0  0  0  0  3  0  0  0  0  0  0
   -1.8158   -1.1658    3.5499 C   0  0  0  0  0  0  0  0  0  0  0  0
    4.0267   -0.5269   -1.3018 C   0  0  0  0  0  0  0  0  0  0  0  0
   -2.5534   -0.9192   -2.2140 C   0  0  0  0  0  0  0  0  0  0  0  0
   -1.2105   -2.1152    2.7331 C   0  0  0  0  0  3  0  0  0  0  0  0
    0.8435    0.1297   -0.0235 N   0  0  0  0  0  0  0  0  0  0  0  0
   -2.7151   -2.3007   -2.4581 C   0  0  0  0  0  0  0  0  0  0  0  0
   -0.3748   -2.0427    0.3179 C   0  0  1  0  0  0  0  0  0  0  0  0
    5.8671   -0.4720    0.2858 C   0  0  0  0  0  0  0  0  0  0  0  0
    5.3087   -0.9445   -0.9120 C   0  0  0  0  0  0  0  0  0  0  0  0
    3.2937    0.3705   -0.5010 C   0  0  0  0  0  0  0  0  0  0  0  0
    5.1464    0.4273    1.0895 C   0  0  0  0  0  0  0  0  0  0  0  0
    0.9397   -1.3459   -0.0753 C   0  0  0  0  0  0  0  0  0  0  0  0
   -1.8919    0.0064    2.7653 C   0  0  0  0  0  0  0  0  0  0  0  0
    1.8924    0.7893   -0.8732 C   0  0  0  0  0  0  0  0  0  0  0  0
    3.5971   -0.8887   -2.2501 H   0  0  0  0  0  0  0  0  0  0  0  0
    5.8775   -1.6367   -1.5505 H   0  0  0  0  0  0  0  0  0  0  0  0
    6.8738   -0.7956    0.5894 H   0  0  0  0  0  0  0  0  0  0  0  0
    5.5901    0.8142    2.0189 H   0  0  0  0  0  0  0  0  0  0  0  0
    3.3207    1.5784    1.3160 H   0  0  0  0  0  0  0  0  0  0  0  0
   -1.7343   -3.9967   -1.3030 H   0  0  0  0  0  0  0  0  0  0  0  0
   -2.1607   -1.3026    4.5796 H   0  0  0  0  0  0  0  0  0  0  0  0
   -3.0062   -0.0637   -2.7281 H   0  0  0  0  0  0  0  0  0  0  0  0
   -0.9475   -3.1651    2.9052 H   0  0  0  0  0  0  0  0  0  0  0  0
   -3.3305   -2.7739   -3.2296 H   0  0  0  0  0  0  0  0  0  0  0  0
   -0.1773   -3.1162    0.4931 H   0  0  0  0  0  0  0  0  0  0  0  0
    1.1865   -1.6602   -1.1083 H   0  0  0  0  0  0  0  0  0  0  0  0
    1.7575   -1.7110    0.5795 H   0  0  0  0  0  0  0  0  0  0  0  0
   -2.3050    0.9895    3.0192 H   0  0  0  0  0  0  0  0  0  0  0  0
    1.6607    0.5511   -1.9298 H   0  0  0  0  0  0  0  0  0  0  0  0
    1.7565    1.8803   -0.7428 H   0  0  0  0  0  0  0  0  0  0  0  0
    1.0616    0.3987    0.9471 H   0  0  0  0  0  0  0  0  0  0  0  0
  1  2  1  0  0  0  0
  1 10  1  0  0  0  0
  2 19  1  0  0  0  0
  3 13  1  0  0  0  0
  4  3  1  0  0  0  0
  5 17  1  0  0  0  0
  5 25  1  0  0  0  0
  6 26  1  0  0  0  0
  6  3  1  0  0  0  0
  7 27  1  0  0  0  0
  8 15  2  0  0  0  0
  8 16  1  0  0  0  0
  9  4  1  0  0  0  0
 10 29  1  0  0  0  0
 10  7  1  0  0  0  0
 11 37  1  0  0  0  0
 12  9  2  0  0  0  0
 12  6  1  0  0  0  0
 13 31  1  1  0  0  0
 13  1  1  0  0  0  0
 14 23  1  0  0  0  0
 14 17  2  0  0  0  0
 15 14  1  0  0  0  0
 16  5  2  0  0  0  0
 17 24  1  0  0  0  0
 18 11  1  0  0  0  0
 18 13  1  0  0  0  0
 18 33  1  0  0  0  0
 19 34  1  0  0  0  0
 19  7  2  0  0  0  0
 20 36  1  0  0  0  0
 20 16  1  0  0  0  0
 20 11  1  0  0  0  0
 21  8  1  0  0  0  0
 22 15  1  0  0  0  0
 28  9  1  0  0  0  0
 30 12  1  0  0  0  0
 32 18  1  0  0  0  0
 35 20  1  0  0  0  0
M  END
