1,2,19
q = 0.0, confidence = 0.996

 58 63  0  0  0  0  0  0  0  0999 V2000
    0.5257   -0.1660    2.2740 N   0  0  0  0  0  0  0  0  0  0  0  0
   -0.6779   -2.1256    0.6939 N   0  0  0  0  0  2  0  0  0  0  0  0
    0.1307    2.3542    0.7110 N   0  0  0  0  0  0  0  0  0  0  0  0
   -1.1972   -3.0831   -0.1335 C   0  0  0  0  0  0  0  0  0  0  0  0
   -0.6638    3.1800   -0.0304 C   0  0  0  0  0  0  0  0  0  0  0  0
    2.8410   -0.7541    1.5855 C   0  0  0  0  0  0  0  0  0  0  0  0
    5.7660    0.3255   -2.3420 C   0  0  0  0  0  0  0  0  0  0  0  0
    6.5783    0.5268   -3.0563 H   0  0  0  0  0  0  0  0  0  0  0  0
    1.6498   -1.0629    2.4798 C   0  0  0  0  0  0  0  0  0  0  0  0
    1.3076   -2.0873    2.2192 H   0  0  0  0  0  0  0  0  0  0  0  0
    1.9923   -1.0931    3.5455 H   0  0  0  0  0  0  0  0  0  0  0  0
    0.7653    1.2030    2.7390 C   0  0  0  0  0  0  0  0  0  0  0  0
    1.8237    1.4491    2.5174 H   0  0  0  0  0  0  0  0  0  0  0  0
    0.6244    1.2977    3.8448 H   0  0  0  0  0  0  0  0  0  0  0  0
    6.0627   -0.0217   -1.0327 C   0  0  0  0  0  3  0  0  0  0  0  0
    7.1073   -0.0999   -0.6936 H   0  0  0  0  0  0  0  0  0  0  0  0
    3.6475   -0.1801   -0.5372 C   0  0  0  0  0  0  0  0  0  0  0  0
   -1.7772    3.8888    0.5519 C   0  0  0  0  0  0  0  0  0  0  0  0
    2.6044   -0.4176    0.3182 N   0  0  0  0  0  2  0  0  0  0  0  0
   -0.4029    3.3253   -1.4227 C   0  0  0  0  0  0  0  0  0  0  0  0
    0.4398    2.7635   -1.8491 H   0  0  0  0  0  0  0  0  0  0  0  0
    5.2442   -0.6439    1.2552 C   0  0  0  0  0  0  0  0  0  0  0  0
    6.2773   -0.7269    1.6274 H   0  0  0  0  0  0  0  0  0  0  0  0
   -0.5581   -3.3399   -1.3780 C   0  0  0  0  0  0  0  0  0  0  0  0
    0.3346   -2.7479   -1.6298 H   0  0  0  0  0  0  0  0  0  0  0  0
    3.3727    0.1758   -1.8878 C   0  0  0  0  0  0  0  0  0  0  0  0
    2.3148    0.2440   -2.1939 H   0  0  0  0  0  0  0  0  0  0  0  0
    5.0166   -0.2841   -0.1018 C   0  0  0  0  0  0  0  0  0  0  0  0
   -0.1153    2.2036    2.0086 C   0  0  0  0  0  0  0  0  0  0  0  0
   -1.2833   -1.8489    1.8397 C   0  0  0  0  0  0  0  0  0  0  0  0
   -2.0006    3.7195    1.9433 C   0  0  0  0  0  0  0  0  0  0  0  0
   -2.8422    4.2431    2.4234 H   0  0  0  0  0  0  0  0  0  0  0  0
    4.1663   -0.8751    2.0925 C   0  0  0  0  0  0  0  0  0  0  0  0
    4.3140   -1.1476    3.1481 H   0  0  0  0  0  0  0  0  0  0  0  0
   -2.3844   -3.8191    0.2120 C   0  0  0  0  0  0  0  0  0  0  0  0
   -2.4496   -2.5441    2.2756 C   0  0  0  0  0  0  0  0  0  0  0  0
   -2.9107   -2.2834    3.2402 H   0  0  0  0  0  0  0  0  0  0  0  0
   -1.2173    4.1264   -2.2050 C   0  0  0  0  0  0  0  0  0  0  0  0
   -1.0231    4.2156   -3.2842 H   0  0  0  0  0  0  0  0  0  0  0  0
   -2.3206    4.8173   -1.6341 C   0  0  0  0  0  0  0  0  0  0  0  0
   -2.9653    5.4353   -2.2767 H   0  0  0  0  0  0  0  0  0  0  0  0
   -1.1682    2.8875    2.6759 C   0  0  0  0  0  0  0  0  0  0  0  0
   -1.3218    2.7341    3.7548 H   0  0  0  0  0  0  0  0  0  0  0  0
   -0.7606   -0.7009    2.6855 C   0  0  0  0  0  0  0  0  0  0  0  0
   -1.5103    0.1122    2.5739 H   0  0  0  0  0  0  0  0  0  0  0  0
   -0.7706   -1.0016    3.7662 H   0  0  0  0  0  0  0  0  0  0  0  0
   -2.5950    4.7038   -0.2810 C   0  0  0  0  0  0  0  0  0  0  0  0
   -3.4526    5.2298    0.1666 H   0  0  0  0  0  0  0  0  0  0  0  0
    4.4133    0.4227   -2.7703 C   0  0  0  0  0  0  0  0  0  0  0  0
    4.1913    0.6967   -3.8125 H   0  0  0  0  0  0  0  0  0  0  0  0
   -1.0776   -4.2875   -2.2470 C   0  0  0  0  0  0  0  0  0  0  0  0
   -0.5865   -4.4706   -3.2146 H   0  0  0  0  0  0  0  0  0  0  0  0
   -2.9966   -3.5170    1.4607 C   0  0  0  0  0  0  0  0  0  0  0  0
   -3.9089   -4.0571    1.7589 H   0  0  0  0  0  0  0  0  0  0  0  0
   -2.8907   -4.7874   -0.6988 C   0  0  0  0  0  3  0  0  0  0  0  0
   -3.8047   -5.3413   -0.4330 H   0  0  0  0  0  0  0  0  0  0  0  0
   -2.2487   -5.0170   -1.9070 C   0  0  0  0  0  0  0  0  0  0  0  0
   -2.6506   -5.7601   -2.6120 H   0  0  0  0  0  0  0  0  0  0  0  0
  1  9  1  0  0  0  0
  1 44  1  0  0  0  0
  1 12  1  0  0  0  0
  2 30  1  0  0  0  0
  3 29  1  0  0  0  0
  4 35  1  0  0  0  0
  4  2  1  0  0  0  0
  5 18  1  0  0  0  0
  5  3  2  0  0  0  0
  6 33  2  0  0  0  0
  6  9  1  0  0  0  0
  7 15  1  0  0  0  0
  8  7  1  0  0  0  0
  9 11  1  0  0  0  0
 10  9  1  0  0  0  0
 12 14  1  0  0  0  0
 13 12  1  0  0  0  0
 15 16  1  0  0  0  0
 15 28  1  0  0  0  0
 17 28  1  0  0  0  0
 17 19  1  0  0  0  0
 18 31  2  0  0  0  0
 19  6  1  0  0  0  0
 20  5  1  0  0  0  0
 21 20  1  0  0  0  0
 22 23  1  0  0  0  0
 22 33  1  0  0  0  0
 24  4  2  0  0  0  0
 25 24  1  0  0  0  0
 26 17  2  0  0  0  0
 27 26  1  0  0  0  0
 28 22  2  0  0  0  0
 29 42  2  0  0  0  0
 29 12  1  0  0  0  0
 30 36  2  0  0  0  0
 30 44  1  0  0  0  0
 31 32  1  0  0  0  0
 31 42  1  0  0  0  0
 33 34  1  0  0  0  0
 35 53  2  0  0  0  0
 36 37  1  0  0  0  0
 38 40  1  0  0  0  0
 38 20  2  0  0  0  0
 39 38  1  0  0  0  0
 40 47  2  0  0  0  0
 41 40  1  0  0  0  0
 42 43  1  0  0  0  0
 44 46  1  0  0  0  0
 45 44  1  0  0  0  0
 47 48  1  0  0  0  0
 47 18  1  0  0  0  0
 49  7  2  0  0  0  0
 49 26  1  0  0  0  0
 50 49  1  0  0  0  0
 51 57  2  0  0  0  0
 51 24  1  0  0  0  0
 52 51  1  0  0  0  0
 53 54  1  0  0  0  0
 53 36  1  0  0  0  0
 55 56  1  0  0  0  0
 55 35  1  0  0  0  0
 57 55  1  0  0  0  0
 58 57  1  0  0  0  0
M  END
