3,17,31
q = 0.0, confidence = 0.994

 43 45  0  0  1  0  0  0  0  0999 V2000
    2.0140   -0.0005   -0.0001 P   0  0  2  0  0  0  0  0  0  0  0  0
    1.2072    1.5445   -0.1670 N   0  0  0  0  0  0  0  0  0  0  0  0
   -0.1557    1.7049   -0.1847 N   0  0  0  0  0  2  0  0  0  0  0  0
    1.8615    2.7653   -0.2993 C   0  0  2  0  0  3  0  0  0  0  0  0
    0.8609    3.7194   -0.4028 C   0  0  0  0  0  0  0  0  0  0  0  0
    1.0055    4.7986   -0.5198 H   0  0  0  0  0  0  0  0  0  0  0  0
   -0.3785    3.0179   -0.3271 C   0  0  0  0  0  0  0  0  0  0  0  0
    3.3482    2.8994   -0.3138 C   0  0  0  0  0  0  0  0  0  0  0  0
    3.6227    3.9638   -0.4274 H   0  0  0  0  0  0  0  0  0  0  0  0
    3.8091    2.3398   -1.1539 H   0  0  0  0  0  0  0  0  0  0  0  0
    3.8095    2.5294    0.6252 H   0  0  0  0  0  0  0  0  0  0  0  0
   -1.7675    3.5600   -0.3861 C   0  0  0  0  0  0  0  0  0  0  0  0
   -2.5004    2.7363   -0.3001 H   0  0  0  0  0  0  0  0  0  0  0  0
   -1.9442    4.0963   -1.3403 H   0  0  0  0  0  0  0  0  0  0  0  0
   -1.9465    4.2836    0.4348 H   0  0  0  0  0  0  0  0  0  0  0  0
    1.2061   -0.9171   -1.2544 N   0  0  0  0  0  0  0  0  0  0  0  0
   -0.1569   -1.0118   -1.3838 N   0  0  0  0  0  2  0  0  0  0  0  0
    1.8595   -1.6428   -2.2455 C   0  0  2  0  0  3  0  0  0  0  0  0
    0.8582   -2.2092   -3.0194 C   0  0  0  0  0  0  0  0  0  0  0  0
    1.0020   -2.8504   -3.8954 H   0  0  0  0  0  0  0  0  0  0  0  0
   -0.3806   -1.7917   -2.4494 C   0  0  0  0  0  0  0  0  0  0  0  0
    3.3460   -1.7235   -2.3551 C   0  0  0  0  0  0  0  0  0  0  0  0
    3.8077   -0.7259   -2.5069 H   0  0  0  0  0  0  0  0  0  0  0  0
    3.6196   -2.3562   -3.2189 H   0  0  0  0  0  0  0  0  0  0  0  0
    3.8073   -2.1693   -1.4496 H   0  0  0  0  0  0  0  0  0  0  0  0
   -1.7700   -2.1132   -2.8887 C   0  0  0  0  0  0  0  0  0  0  0  0
   -1.9484   -3.2074   -2.8727 H   0  0  0  0  0  0  0  0  0  0  0  0
   -1.9482   -1.7671   -3.9270 H   0  0  0  0  0  0  0  0  0  0  0  0
   -2.5024   -1.6236   -2.2201 H   0  0  0  0  0  0  0  0  0  0  0  0
    1.2064   -0.6281    1.4211 N   0  0  0  0  0  0  0  0  0  0  0  0
   -0.1566   -0.6918    1.5685 N   0  0  0  0  0  2  0  0  0  0  0  0
    1.8599   -1.1246    2.5446 C   0  0  2  0  0  3  0  0  0  0  0  0
    0.8588   -1.5111    3.4224 C   0  0  0  0  0  0  0  0  0  0  0  0
    1.0027   -1.9496    4.4155 H   0  0  0  0  0  0  0  0  0  0  0  0
   -0.3802   -1.2250    2.7766 C   0  0  0  0  0  0  0  0  0  0  0  0
    3.3465   -1.1804    2.6686 C   0  0  0  0  0  0  0  0  0  0  0  0
    3.8086   -0.1737    2.6026 H   0  0  0  0  0  0  0  0  0  0  0  0
    3.8074   -1.8105    1.8799 H   0  0  0  0  0  0  0  0  0  0  0  0
    3.6202   -1.6131    3.6480 H   0  0  0  0  0  0  0  0  0  0  0  0
   -1.7694   -1.4439    3.2754 C   0  0  0  0  0  0  0  0  0  0  0  0
   -2.5021   -1.1058    2.5191 H   0  0  0  0  0  0  0  0  0  0  0  0
   -1.9457   -0.8859    4.2172 H   0  0  0  0  0  0  0  0  0  0  0  0
   -1.9493   -2.5166    3.4912 H   0  0  0  0  0  0  0  0  0  0  0  0
  1 16  1  6  0  0  0
  1 30  1  0  0  0  0
  2  1  1  0  0  0  0
  3  2  1  0  0  0  0
  4  8  1  6  0  0  0
  4  2  1  0  0  0  0
  5  7  2  0  0  0  0
  5  4  1  0  0  0  0
  6  5  1  0  0  0  0
  7  3  1  0  0  0  0
  8 11  1  0  0  0  0
  9  8  1  0  0  0  0
 10  8  1  0  0  0  0
 12  7  1  0  0  0  0
 12 13  1  0  0  0  0
 12 15  1  0  0  0  0
 14 12  1  0  0  0  0
 17 16  1  0  0  0  0
 18 22  1  1  0  0  0
 18 16  1  0  0  0  0
 19 21  2  0  0  0  0
 19 18  1  0  0  0  0
 20 19  1  0  0  0  0
 21 17  1  0  0  0  0
 22 25  1  0  0  0  0
 23 22  1  0  0  0  0
 24 22  1  0  0  0  0
 26 27  1  0  0  0  0
 26 21  1  0  0  0  0
 26 29  1  0  0  0  0
 28 26  1  0  0  0  0
 30 31  1  0  0  0  0
 30 32  1  0  0  0  0
 31 35  1  0  0  0  0
 32 36  1  1  0  0  0
 32 33  1  0  0  0  0
 33 34  1  0  0  0  0
 35 40  1  0  0  0  0
 35 33  2  0  0  0  0
 36 39  1  0  0  0  0
 37 36  1  0  0  0  0
 38 36  1  0  0  0  0
 40 43  1  0  0  0  0
 40 42  1  0  0  0  0
 41 40  1  0  0  0  0
M  END
