1,2,3
q = 0.0, confidence = 0.988

 65 67  0  0  0  0  0  0  0  0999 V2000
   -0.6511   -2.0291    0.0003 N   0  0  0  0  0  2  0  0  0  0  0  0
   -2.1240    0.1029    0.0001 N   0  0  0  0  0  2  0  0  0  0  0  0
   -0.3309    1.9736    0.0005 N   0  0  0  0  0  2  0  0  0  0  0  0
    0.1855   -3.0862    0.0004 C   0  0  0  0  0  3  0  0  0  0  0  0
    1.2573   -2.8373    0.0006 H   0  0  0  0  0  0  0  0  0  0  0  0
   -0.2806   -4.4039    0.0004 C   0  0  0  0  0  0  0  0  0  0  0  0
    0.4593   -5.2138    0.0006 H   0  0  0  0  0  0  0  0  0  0  0  0
   -1.6632   -4.6771    0.0002 C   0  0  0  0  0  0  0  0  0  0  0  0
   -2.5209   -3.5561   -0.0001 C   0  0  0  0  0  0  0  0  0  0  0  0
   -3.6103   -3.6967   -0.0002 H   0  0  0  0  0  0  0  0  0  0  0  0
   -2.0198   -2.2518   -0.0000 C   0  0  0  0  0  0  0  0  0  0  0  0
   -2.8603   -1.0361   -0.0002 C   0  0  0  0  0  0  0  0  0  0  0  0
   -4.2603   -0.9409   -0.0009 C   0  0  0  0  0  0  0  0  0  0  0  0
   -4.8647   -1.8557   -0.0012 H   0  0  0  0  0  0  0  0  0  0  0  0
   -4.8872    0.3248   -0.0012 C   0  0  0  0  0  0  0  0  0  0  0  0
   -4.0611    1.4765   -0.0009 C   0  0  0  0  0  0  0  0  0  0  0  0
   -4.5141    2.4769   -0.0012 H   0  0  0  0  0  0  0  0  0  0  0  0
   -2.6680    1.3489   -0.0002 C   0  0  0  0  0  0  0  0  0  0  0  0
   -1.6418    2.4127    0.0002 C   0  0  0  0  0  0  0  0  0  0  0  0
   -1.9314    3.7837    0.0004 C   0  0  0  0  0  0  0  0  0  0  0  0
   -2.9833    4.0940    0.0002 H   0  0  0  0  0  0  0  0  0  0  0  0
   -0.9074    4.7489    0.0009 C   0  0  0  0  0  0  0  0  0  0  0  0
    0.4171    4.2548    0.0013 C   0  0  0  0  0  0  0  0  0  0  0  0
    1.2767    4.9390    0.0017 H   0  0  0  0  0  0  0  0  0  0  0  0
    0.6681    2.8841    0.0010 C   0  0  0  0  0  0  0  0  0  0  0  0
    1.6853    2.4651    0.0012 H   0  0  0  0  0  0  0  0  0  0  0  0
   -2.2432   -6.0942    0.0002 C   0  0  0  0  0  0  0  0  0  0  0  0
   -3.1149   -6.2725    1.2662 C   0  0  0  0  0  0  0  0  0  0  0  0
   -3.5448   -7.2939    1.2835 H   0  0  0  0  0  0  0  0  0  0  0  0
   -3.9601   -5.5562    1.2974 H   0  0  0  0  0  0  0  0  0  0  0  0
   -2.5159   -6.1371    2.1888 H   0  0  0  0  0  0  0  0  0  0  0  0
   -3.1154   -6.2727   -1.2653 C   0  0  0  0  0  0  0  0  0  0  0  0
   -3.5451   -7.2941   -1.2825 H   0  0  0  0  0  0  0  0  0  0  0  0
   -2.5167   -6.1373   -2.1881 H   0  0  0  0  0  0  0  0  0  0  0  0
   -3.9607   -5.5564   -1.2963 H   0  0  0  0  0  0  0  0  0  0  0  0
   -1.1399   -7.1654    0.0001 C   0  0  0  0  0  0  0  0  0  0  0  0
   -1.6009   -8.1722    0.0001 H   0  0  0  0  0  0  0  0  0  0  0  0
   -0.4960   -7.0984    0.8999 H   0  0  0  0  0  0  0  0  0  0  0  0
   -0.4962   -7.0983   -0.8998 H   0  0  0  0  0  0  0  0  0  0  0  0
   -6.4132    0.4873   -0.0019 C   0  0  0  0  0  0  0  0  0  0  0  0
   -6.8295    1.2735   -1.2676 C   0  0  0  0  0  0  0  0  0  0  0  0
   -7.9301    1.4027   -1.2850 H   0  0  0  0  0  0  0  0  0  0  0  0
   -6.5327    0.7359   -2.1903 H   0  0  0  0  0  0  0  0  0  0  0  0
   -6.3769    2.2846   -1.3002 H   0  0  0  0  0  0  0  0  0  0  0  0
   -7.1380   -0.8692   -0.0025 C   0  0  0  0  0  0  0  0  0  0  0  0
   -8.2328   -0.7043   -0.0030 H   0  0  0  0  0  0  0  0  0  0  0  0
   -6.8980   -1.4695    0.8983 H   0  0  0  0  0  0  0  0  0  0  0  0
   -6.8971   -1.4692   -0.9033 H   0  0  0  0  0  0  0  0  0  0  0  0
   -6.8306    1.2730    1.2638 C   0  0  0  0  0  0  0  0  0  0  0  0
   -7.9312    1.4022    1.2804 H   0  0  0  0  0  0  0  0  0  0  0  0
   -6.3779    2.2840    1.2973 H   0  0  0  0  0  0  0  0  0  0  0  0
   -6.5345    0.7349    2.1865 H   0  0  0  0  0  0  0  0  0  0  0  0
   -1.1814    6.2549    0.0010 C   0  0  0  0  0  0  0  0  0  0  0  0
   -2.6871    6.5673    0.0014 C   0  0  0  0  0  0  0  0  0  0  0  0
   -2.8383    7.6642    0.0016 H   0  0  0  0  0  0  0  0  0  0  0  0
   -3.1947    6.1670    0.9024 H   0  0  0  0  0  0  0  0  0  0  0  0
   -3.1951    6.1673   -0.8995 H   0  0  0  0  0  0  0  0  0  0  0  0
   -0.5409    6.8732    1.2667 C   0  0  0  0  0  0  0  0  0  0  0  0
    0.5555    6.7181    1.2981 H   0  0  0  0  0  0  0  0  0  0  0  0
   -0.9752    6.4398    2.1898 H   0  0  0  0  0  0  0  0  0  0  0  0
   -0.7234    7.9663    1.2822 H   0  0  0  0  0  0  0  0  0  0  0  0
   -0.5415    6.8730   -1.2651 C   0  0  0  0  0  0  0  0  0  0  0  0
    0.5549    6.7177   -1.2969 H   0  0  0  0  0  0  0  0  0  0  0  0
   -0.7239    7.9661   -1.2807 H   0  0  0  0  0  0  0  0  0  0  0  0
   -0.9764    6.4394   -2.1878 H   0  0  0  0  0  0  0  0  0  0  0  0
  1  4  1  0  0  0  0
  3 25  1  0  0  0  0
  4  5  1  0  0  0  0
  6  4  1  0  0  0  0
  6  7  1  0  0  0  0
  8 27  1  0  0  0  0
  8  6  2  0  0  0  0
  9 11  2  0  0  0  0
  9  8  1  0  0  0  0
 10  9  1  0  0  0  0
 11  1  1  0  0  0  0
 12 11  1  0  0  0  0
 12  2  1  0  0  0  0
 13 12  2  0  0  0  0
 14 13  1  0  0  0  0
 15 16  2  0  0  0  0
 15 13  1  0  0  0  0
 16 18  1  0  0  0  0
 17 16  1  0  0  0  0
 18  2  1  0  0  0  0
 18 19  2  0  0  0  0
 19 20  1  0  0  0  0
 19  3  1  0  0  0  0
 20 22  2  0  0  0  0
 21 20  1  0  0  0  0
 22 53  1  0  0  0  0
 22 23  1  0  0  0  0
 23 24  1  0  0  0  0
 25 26  1  0  0  0  0
 25 23  2  0  0  0  0
 27 28  1  0  0  0  0
 28 29  1  0  0  0  0
 28 30  1  0  0  0  0
 28 31  1  0  0  0  0
 32 27  1  0  0  0  0
 33 32  1  0  0  0  0
 34 32  1  0  0  0  0
 35 32  1  0  0  0  0
 36 27  1  0  0  0  0
 36 38  1  0  0  0  0
 37 36  1  0  0  0  0
 39 36  1  0  0  0  0
 40 15  1  0  0  0  0
 40 49  1  0  0  0  0
 41 40  1  0  0  0  0
 42 41  1  0  0  0  0
 43 41  1  0  0  0  0
 44 41  1  0  0  0  0
 45 40  1  0  0  0  0
 45 47  1  0  0  0  0
 46 45  1  0  0  0  0
 48 45  1  0  0  0  0
 49 50  1  0  0  0  0
 49 51  1  0  0  0  0
 49 52  1  0  0  0  0
 53 54  1  0  0  0  0
 53 58  1  0  0  0  0
 54 55  1  0  0  0  0
 54 56  1  0  0  0  0
 57 54  1  0  0  0  0
 58 61  1  0  0  0  0
 58 59  1  0  0  0  0
 58 60  1  0  0  0  0
 62 53  1  0  0  0  0
 63 62  1  0  0  0  0
 64 62  1  0  0  0  0
 65 62  1  0  0  0  0
M  END
