1,2,3
q = 0.0, confidence = 1.0

 40 44  0  0  1  0  0  0  0  0999 V2000
    2.3391   -0.4873   -1.1000 N   0  0  1  0  0  0  0  0  0  0  0  0
    2.2821    2.0024    0.6177 N   0  0  1  0  0  0  0  0  0  0  0  0
    2.1911   -1.0358    1.8440 N   0  0  0  0  0  0  0  0  0  0  0  0
    2.3359   -0.6946    2.8021 H   0  0  0  0  0  0  0  0  0  0  0  0
    2.4153    1.7758   -2.1527 N   0  0  0  0  0  0  0  0  0  0  0  0
    2.2428    1.4990   -3.1213 H   0  0  0  0  0  0  0  0  0  0  0  0
    2.5848   -2.7108   -0.4325 N   0  0  2  0  0  0  0  0  0  0  0  0
    3.9818    0.4711    0.9800 N   0  0  2  0  0  0  0  0  0  0  0  0
    3.0792    0.7584   -1.3865 C   0  0  1  0  0  0  0  0  0  0  0  0
    4.0217    0.4967   -1.9319 H   0  0  0  0  0  0  0  0  0  0  0  0
    1.8898   -1.2781   -2.2650 C   0  0  0  0  0  0  0  0  0  0  0  0
    2.4634   -1.0084   -3.1823 H   0  0  0  0  0  0  0  0  0  0  0  0
    0.8172   -1.0995   -2.4716 H   0  0  0  0  0  0  0  0  0  0  0  0
    2.1969   -2.7554   -1.8497 C   0  0  0  0  0  0  0  0  0  0  0  0
    1.3309   -3.4278   -1.9959 H   0  0  0  0  0  0  0  0  0  0  0  0
    3.0400   -3.1541   -2.4498 H   0  0  0  0  0  0  0  0  0  0  0  0
    1.4603   -2.9236    0.4833 C   0  0  0  0  0  0  0  0  0  0  0  0
    1.2150   -4.0055    0.4933 H   0  0  0  0  0  0  0  0  0  0  0  0
    0.5326   -2.3774    0.1673 H   0  0  0  0  0  0  0  0  0  0  0  0
    1.8190   -2.4662    1.8873 C   0  0  0  0  0  0  0  0  0  0  0  0
    0.9486   -2.5960    2.5585 H   0  0  0  0  0  0  0  0  0  0  0  0
    2.6602   -3.0835    2.2817 H   0  0  0  0  0  0  0  0  0  0  0  0
    3.4613   -0.8813    1.0768 C   0  0  2  0  0  0  0  0  0  0  0  0
    4.2436   -1.5161    1.5575 H   0  0  0  0  0  0  0  0  0  0  0  0
    3.9455    1.3033    2.1917 C   0  0  0  0  0  0  0  0  0  0  0  0
    4.9107    1.8372    2.3093 H   0  0  0  0  0  0  0  0  0  0  0  0
    3.8129    0.6882    3.1031 H   0  0  0  0  0  0  0  0  0  0  0  0
    2.7878    2.3376    1.9655 C   0  0  0  0  0  0  0  0  0  0  0  0
    1.9765    2.2716    2.7177 H   0  0  0  0  0  0  0  0  0  0  0  0
    3.1926    3.3750    1.9892 H   0  0  0  0  0  0  0  0  0  0  0  0
    1.7585    3.0985   -0.2048 C   0  0  0  0  0  0  0  0  0  0  0  0
    2.5455    3.8747   -0.3694 H   0  0  0  0  0  0  0  0  0  0  0  0
    0.8999    3.5756    0.3075 H   0  0  0  0  0  0  0  0  0  0  0  0
    1.3146    2.5092   -1.5446 C   0  0  0  0  0  0  0  0  0  0  0  0
    0.3996    1.8860   -1.3634 H   0  0  0  0  0  0  0  0  0  0  0  0
    1.0205    3.3314   -2.2274 H   0  0  0  0  0  0  0  0  0  0  0  0
    3.4608    1.3628   -0.0332 C   0  0  1  0  0  0  0  0  0  0  0  0
    4.2300    2.1503   -0.2345 H   0  0  0  0  0  0  0  0  0  0  0  0
    3.2195   -1.4160   -0.3349 C   0  0  2  0  0  0  0  0  0  0  0  0
    4.2187   -1.4756   -0.8384 H   0  0  0  0  0  0  0  0  0  0  0  0
  1 11  1  6  0  0  0
  1 39  1  0  0  0  0
  2 31  1  6  0  0  0
  2 28  1  0  0  0  0
  3 20  1  0  0  0  0
  3  4  1  0  0  0  0
  5 34  1  0  0  0  0
  5  9  1  0  0  0  0
  6  5  1  0  0  0  0
  7 14  1  6  0  0  0
  7 39  1  0  0  0  0
  7 17  1  0  0  0  0
  8 23  1  0  0  0  0
  8 25  1  1  0  0  0
  9 10  1  6  0  0  0
  9  1  1  0  0  0  0
  9 37  1  0  0  0  0
 11 14  1  0  0  0  0
 12 11  1  0  0  0  0
 13 11  1  0  0  0  0
 15 14  1  0  0  0  0
 16 14  1  0  0  0  0
 17 18  1  0  0  0  0
 17 20  1  0  0  0  0
 19 17  1  0  0  0  0
 20 22  1  0  0  0  0
 20 21  1  0  0  0  0
 23 24  1  1  0  0  0
 23  3  1  0  0  0  0
 25 26  1  0  0  0  0
 25 27  1  0  0  0  0
 28 30  1  0  0  0  0
 28 25  1  0  0  0  0
 28 29  1  0  0  0  0
 31 33  1  0  0  0  0
 32 31  1  0  0  0  0
 34 35  1  0  0  0  0
 34 31  1  0  0  0  0
 36 34  1  0  0  0  0
 37 38  1  6  0  0  0
 37  2  1  0  0  0  0
 37  8  1  0  0  0  0
 39 40  1  6  0  0  0
 39 23  1  0  0  0  0
M  END
