1,2,23
q = -1.0, confidence = 0.0

 43 46  0  0  0  0  0  0  0  0999 V2000
   -0.0000    0.5350   -0.0000 N   0  0  0  0  0  2  0  0  0  0  0  0
    1.8094   -1.4316   -0.9064 N   0  0  0  0  0  2  0  0  0  0  0  0
    2.6384   -0.3507   -0.8326 N   0  0  0  0  0  0  0  0  0  0  0  0
    1.1426    1.2193    0.3712 C   0  0  0  0  0  0  0  0  0  0  0  0
    2.4493    0.7388    0.0618 C   0  0  0  0  0  0  0  0  0  0  0  0
    3.5999    1.3722    0.5738 C   0  0  0  0  0  0  0  0  0  0  0  0
    4.5846    0.9280    0.3650 H   0  0  0  0  0  0  0  0  0  0  0  0
    3.5232    2.5402    1.3433 C   0  0  0  0  0  0  0  0  0  0  0  0
    2.2321    3.0559    1.6057 C   0  0  0  0  0  0  0  0  0  0  0  0
    2.1275    3.9678    2.2153 H   0  0  0  0  0  0  0  0  0  0  0  0
    1.0863    2.4126    1.1470 C   0  0  0  0  0  0  0  0  0  0  0  0
    0.0930    2.8102    1.4005 H   0  0  0  0  0  0  0  0  0  0  0  0
    4.7573    3.2096    1.8920 C   0  0  0  0  0  0  0  0  0  0  0  0
    5.6816    2.6916    1.5700 H   0  0  0  0  0  0  0  0  0  0  0  0
    4.7518    3.2258    3.0026 H   0  0  0  0  0  0  0  0  0  0  0  0
    4.8289    4.2664    1.5584 H   0  0  0  0  0  0  0  0  0  0  0  0
    2.3519   -2.2724   -1.8134 C   0  0  0  0  0  3  0  0  0  0  0  0
    1.8420   -3.2108   -2.0517 H   0  0  0  0  0  0  0  0  0  0  0  0
    3.5439   -1.7323   -2.3339 C   0  0  0  0  0  0  0  0  0  0  0  0
    4.2000   -2.1680   -3.0930 H   0  0  0  0  0  0  0  0  0  0  0  0
    3.6919   -0.5051   -1.6968 C   0  0  0  0  0  0  0  0  0  0  0  0
    4.4365    0.2871   -1.8111 H   0  0  0  0  0  0  0  0  0  0  0  0
   -1.8093   -1.4316    0.9064 N   0  0  0  0  0  2  0  0  0  0  0  0
   -2.6386   -0.3510    0.8322 N   0  0  0  0  0  0  0  0  0  0  0  0
   -1.1426    1.2193   -0.3711 C   0  0  0  0  0  0  0  0  0  0  0  0
   -2.4494    0.7387   -0.0619 C   0  0  0  0  0  0  0  0  0  0  0  0
   -3.5999    1.3723   -0.5739 C   0  0  0  0  0  0  0  0  0  0  0  0
   -4.5846    0.9279   -0.3654 H   0  0  0  0  0  0  0  0  0  0  0  0
   -3.5232    2.5405   -1.3431 C   0  0  0  0  0  0  0  0  0  0  0  0
   -2.2320    3.0564   -1.6051 C   0  0  0  0  0  0  0  0  0  0  0  0
   -2.1274    3.9685   -2.2144 H   0  0  0  0  0  0  0  0  0  0  0  0
   -1.0863    2.4130   -1.1465 C   0  0  0  0  0  0  0  0  0  0  0  0
   -0.0930    2.8106   -1.3997 H   0  0  0  0  0  0  0  0  0  0  0  0
   -4.7572    3.2100   -1.8917 C   0  0  0  0  0  0  0  0  0  0  0  0
   -5.6815    2.6917   -1.5701 H   0  0  0  0  0  0  0  0  0  0  0  0
   -4.7515    3.2267   -3.0023 H   0  0  0  0  0  0  0  0  0  0  0  0
   -4.8290    4.2666   -1.5576 H   0  0  0  0  0  0  0  0  0  0  0  0
   -2.3519   -2.2725    1.8132 C   0  0  0  0  0  3  0  0  0  0  0  0
   -1.8417   -3.2108    2.0518 H   0  0  0  0  0  0  0  0  0  0  0  0
   -3.5443   -1.7328    2.3331 C   0  0  0  0  0  0  0  0  0  0  0  0
   -4.2006   -2.1687    3.0920 H   0  0  0  0  0  0  0  0  0  0  0  0
   -3.6924   -0.5058    1.6960 C   0  0  0  0  0  0  0  0  0  0  0  0
   -4.4373    0.2863    1.8100 H   0  0  0  0  0  0  0  0  0  0  0  0
  1  4  1  0  0  0  0
  2  3  1  0  0  0  0
  3  5  1  0  0  0  0
  4 11  1  0  0  0  0
  5  4  2  0  0  0  0
  5  6  1  0  0  0  0
  6  8  2  0  0  0  0
  7  6  1  0  0  0  0
  8  9  1  0  0  0  0
  8 13  1  0  0  0  0
  9 10  1  0  0  0  0
 11 12  1  0  0  0  0
 11  9  2  0  0  0  0
 13 15  1  0  0  0  0
 14 13  1  0  0  0  0
 16 13  1  0  0  0  0
 17  2  1  0  0  0  0
 18 17  1  0  0  0  0
 19 17  1  0  0  0  0
 19 21  2  0  0  0  0
 20 19  1  0  0  0  0
 21  3  1  0  0  0  0
 22 21  1  0  0  0  0
 23 38  1  0  0  0  0
 24 23  1  0  0  0  0
 24 42  1  0  0  0  0
 25 26  1  0  0  0  0
 25  1  1  0  0  0  0
 26 24  1  0  0  0  0
 27 28  1  0  0  0  0
 27 26  2  0  0  0  0
 29 27  1  0  0  0  0
 30 29  2  0  0  0  0
 30 32  1  0  0  0  0
 31 30  1  0  0  0  0
 32 25  2  0  0  0  0
 33 32  1  0  0  0  0
 34 35  1  0  0  0  0
 34 37  1  0  0  0  0
 34 29  1  0  0  0  0
 36 34  1  0  0  0  0
 38 39  1  0  0  0  0
 38 40  1  0  0  0  0
 40 41  1  0  0  0  0
 42 43  1  0  0  0  0
 42 40  2  0  0  0  0
M  END
