1,2,4
q = -1.0, confidence = 0.016

 49 52  0  0  1  0  0  0  0  0999 V2000
    0.0000    0.7551   -0.0000 N   0  0  0  0  0  2  0  0  0  0  0  0
    1.7869   -1.1487    0.9810 N   0  0  0  0  0  2  0  0  0  0  0  0
    2.6497   -0.1155    0.7338 N   0  0  0  0  0  0  0  0  0  0  0  0
   -1.7869   -1.1487   -0.9809 N   0  0  0  0  0  2  0  0  0  0  0  0
   -2.6498   -0.1155   -0.7336 N   0  0  0  0  0  0  0  0  0  0  0  0
    1.1186    1.4225   -0.4553 C   0  0  0  0  0  0  0  0  0  0  0  0
    2.4304    0.9130   -0.2237 C   0  0  0  0  0  0  0  0  0  0  0  0
    3.5557    1.4914   -0.8418 C   0  0  0  0  0  0  0  0  0  0  0  0
    4.5414    1.0264   -0.6879 H   0  0  0  0  0  0  0  0  0  0  0  0
    3.4517    2.6398   -1.6397 C   0  0  0  0  0  0  0  0  0  0  0  0
    2.1621    3.1964   -1.8078 C   0  0  0  0  0  0  0  0  0  0  0  0
    2.0403    4.1000   -2.4267 H   0  0  0  0  0  0  0  0  0  0  0  0
    1.0343    2.6031   -1.2449 C   0  0  0  0  0  0  0  0  0  0  0  0
    0.0361    3.0274   -1.4267 H   0  0  0  0  0  0  0  0  0  0  0  0
    4.6571    3.2472   -2.3114 C   0  0  0  0  0  0  0  0  0  0  0  0
    5.5948    2.7475   -1.9989 H   0  0  0  0  0  0  0  0  0  0  0  0
    4.7538    4.3274   -2.0745 H   0  0  0  0  0  0  0  0  0  0  0  0
    4.5899    3.1680   -3.4176 H   0  0  0  0  0  0  0  0  0  0  0  0
    1.6388   -3.0535    2.6069 C   0  0  0  0  0  0  0  0  0  0  0  0
    0.5569   -2.8619    2.7464 H   0  0  0  0  0  0  0  0  0  0  0  0
    2.0932   -3.2850    3.5888 H   0  0  0  0  0  0  0  0  0  0  0  0
    1.7305   -3.9542    1.9674 H   0  0  0  0  0  0  0  0  0  0  0  0
    2.3142   -1.8658    2.0057 C   0  0  2  0  0  3  0  0  0  0  0  0
    3.5408   -1.2838    2.4039 C   0  0  0  0  0  0  0  0  0  0  0  0
    4.1942   -1.6230    3.2135 H   0  0  0  0  0  0  0  0  0  0  0  0
    3.7172   -0.1757    1.5882 C   0  0  0  0  0  0  0  0  0  0  0  0
    4.4816    0.6058    1.5769 H   0  0  0  0  0  0  0  0  0  0  0  0
   -1.6392   -3.0538   -2.6065 C   0  0  0  0  0  0  0  0  0  0  0  0
   -1.7312   -3.9546   -1.9672 H   0  0  0  0  0  0  0  0  0  0  0  0
   -0.5573   -2.8623   -2.7458 H   0  0  0  0  0  0  0  0  0  0  0  0
   -2.0935   -3.2852   -3.5885 H   0  0  0  0  0  0  0  0  0  0  0  0
   -2.3146   -1.8661   -2.0053 C   0  0  2  0  0  3  0  0  0  0  0  0
   -3.5414   -1.2843   -2.4032 C   0  0  0  0  0  0  0  0  0  0  0  0
   -4.1949   -1.6237   -3.2125 H   0  0  0  0  0  0  0  0  0  0  0  0
   -3.7176   -0.1761   -1.5877 C   0  0  0  0  0  0  0  0  0  0  0  0
   -4.4820    0.6054   -1.5763 H   0  0  0  0  0  0  0  0  0  0  0  0
   -1.1185    1.4226    0.4551 C   0  0  0  0  0  0  0  0  0  0  0  0
   -2.4303    0.9131    0.2237 C   0  0  0  0  0  0  0  0  0  0  0  0
   -3.5556    1.4917    0.8418 C   0  0  0  0  0  0  0  0  0  0  0  0
   -4.5413    1.0267    0.6882 H   0  0  0  0  0  0  0  0  0  0  0  0
   -3.4515    2.6402    1.6394 C   0  0  0  0  0  0  0  0  0  0  0  0
   -2.1619    3.1969    1.8073 C   0  0  0  0  0  0  0  0  0  0  0  0
   -2.0401    4.1006    2.4259 H   0  0  0  0  0  0  0  0  0  0  0  0
   -1.0342    2.6034    1.2444 C   0  0  0  0  0  0  0  0  0  0  0  0
   -0.0360    3.0278    1.4260 H   0  0  0  0  0  0  0  0  0  0  0  0
   -4.6568    3.2477    2.3111 C   0  0  0  0  0  0  0  0  0  0  0  0
   -5.5945    2.7479    1.9990 H   0  0  0  0  0  0  0  0  0  0  0  0
   -4.7537    4.3279    2.0740 H   0  0  0  0  0  0  0  0  0  0  0  0
   -4.5894    3.1689    3.4174 H   0  0  0  0  0  0  0  0  0  0  0  0
  1 37  1  0  0  0  0
  2 23  1  0  0  0  0
  3  2  1  0  0  0  0
  3 26  1  0  0  0  0
  4  5  1  0  0  0  0
  5 38  1  0  0  0  0
  6  7  1  0  0  0  0
  6  1  1  0  0  0  0
  7  3  1  0  0  0  0
  8  9  1  0  0  0  0
  8  7  2  0  0  0  0
 10  8  1  0  0  0  0
 11 10  2  0  0  0  0
 11 13  1  0  0  0  0
 12 11  1  0  0  0  0
 13  6  2  0  0  0  0
 14 13  1  0  0  0  0
 15 17  1  0  0  0  0
 15 16  1  0  0  0  0
 15 10  1  0  0  0  0
 18 15  1  0  0  0  0
 19 20  1  0  0  0  0
 19 21  1  0  0  0  0
 22 19  1  0  0  0  0
 23 24  1  0  0  0  0
 23 19  1  1  0  0  0
 24 25  1  0  0  0  0
 26 24  2  0  0  0  0
 27 26  1  0  0  0  0
 28 29  1  0  0  0  0
 30 28  1  0  0  0  0
 31 28  1  0  0  0  0
 32 28  1  6  0  0  0
 32  4  1  0  0  0  0
 33 32  1  0  0  0  0
 33 35  2  0  0  0  0
 34 33  1  0  0  0  0
 35 36  1  0  0  0  0
 35  5  1  0  0  0  0
 37 44  1  0  0  0  0
 38 37  2  0  0  0  0
 38 39  1  0  0  0  0
 39 41  2  0  0  0  0
 40 39  1  0  0  0  0
 41 42  1  0  0  0  0
 41 46  1  0  0  0  0
 42 43  1  0  0  0  0
 44 45  1  0  0  0  0
 44 42  2  0  0  0  0
 46 49  1  0  0  0  0
 47 46  1  0  0  0  0
 48 46  1  0  0  0  0
M  END
