1,2,4
q = -1.0, confidence = 0.0

 40 43  0  0  0  0  0  0  0  0999 V2000
   -0.0234    0.6660    0.1410 N   0  0  0  0  0  2  0  0  0  0  0  0
   -1.2278   -1.8281    0.6928 N   0  0  0  0  0  2  0  0  0  0  0  0
   -2.3302   -1.0253    0.6569 N   0  0  0  0  0  0  0  0  0  0  0  0
    2.3274   -0.5847   -0.7868 N   0  0  0  0  0  2  0  0  0  0  0  0
    2.7995    0.6681   -0.5255 N   0  0  0  0  0  0  0  0  0  0  0  0
   -1.2962    1.0352   -0.2571 C   0  0  0  0  0  0  0  0  0  0  0  0
   -2.4199    0.1707   -0.1074 C   0  0  0  0  0  0  0  0  0  0  0  0
   -3.6762    0.5065   -0.6518 C   0  0  0  0  0  0  0  0  0  0  0  0
   -4.4983   -0.2202   -0.5711 H   0  0  0  0  0  0  0  0  0  0  0  0
   -3.9021    1.7295   -1.2963 C   0  0  0  0  0  0  0  0  0  0  0  0
   -2.8052    2.6174   -1.3980 C   0  0  0  0  0  0  0  0  0  0  0  0
   -2.9385    3.5859   -1.9062 H   0  0  0  0  0  0  0  0  0  0  0  0
   -1.5480    2.2767   -0.9078 C   0  0  0  0  0  0  0  0  0  0  0  0
   -0.7014    2.9664   -1.0366 H   0  0  0  0  0  0  0  0  0  0  0  0
   -5.2465    2.0801   -1.8807 C   0  0  0  0  0  0  0  0  0  0  0  0
   -5.9960    1.2880   -1.6880 H   0  0  0  0  0  0  0  0  0  0  0  0
   -5.1867    2.2246   -2.9804 H   0  0  0  0  0  0  0  0  0  0  0  0
   -5.6396    3.0277   -1.4558 H   0  0  0  0  0  0  0  0  0  0  0  0
   -1.5484   -2.8888    1.4646 C   0  0  0  0  0  3  0  0  0  0  0  0
   -0.8006   -3.6656    1.6513 H   0  0  0  0  0  0  0  0  0  0  0  0
   -2.8710   -2.7738    1.9345 C   0  0  0  0  0  0  0  0  0  0  0  0
   -3.4103   -3.4639    2.5898 H   0  0  0  0  0  0  0  0  0  0  0  0
   -3.3364   -1.5727    1.4108 C   0  0  0  0  0  0  0  0  0  0  0  0
   -4.2842   -1.0433    1.5395 H   0  0  0  0  0  0  0  0  0  0  0  0
    3.1428   -1.1170   -1.7223 C   0  0  0  0  0  3  0  0  0  0  0  0
    2.9430   -2.1236   -2.1023 H   0  0  0  0  0  0  0  0  0  0  0  0
    4.1538   -0.2010   -2.0723 C   0  0  0  0  0  0  0  0  0  0  0  0
    4.9512   -0.3345   -2.8091 H   0  0  0  0  0  0  0  0  0  0  0  0
    3.9005    0.9277   -1.3008 C   0  0  0  0  0  0  0  0  0  0  0  0
    4.3877    1.9056   -1.2635 H   0  0  0  0  0  0  0  0  0  0  0  0
    0.8413    1.5935    0.6885 C   0  0  0  0  0  0  0  0  0  0  0  0
    2.2509    1.5389    0.4562 C   0  0  0  0  0  0  0  0  0  0  0  0
    3.1340    2.3994    1.1373 C   0  0  0  0  0  0  0  0  0  0  0  0
    4.2162    2.2827    0.9821 H   0  0  0  0  0  0  0  0  0  0  0  0
    2.6523    3.3852    2.0026 C   0  0  0  0  0  0  0  0  0  0  0  0
    3.3538    4.0482    2.5285 H   0  0  0  0  0  0  0  0  0  0  0  0
    1.2630    3.4966    2.2014 C   0  0  0  0  0  0  0  0  0  0  0  0
    0.8626    4.2603    2.8856 H   0  0  0  0  0  0  0  0  0  0  0  0
    0.3857    2.6172    1.5686 C   0  0  0  0  0  0  0  0  0  0  0  0
   -0.6950    2.6811    1.7602 H   0  0  0  0  0  0  0  0  0  0  0  0
  1 31  1  0  0  0  0
  2 19  1  0  0  0  0
  3  2  1  0  0  0  0
  3 23  1  0  0  0  0
  4  5  1  0  0  0  0
  5 32  1  0  0  0  0
  6  7  1  0  0  0  0
  6  1  1  0  0  0  0
  7  3  1  0  0  0  0
  8  9  1  0  0  0  0
  8  7  2  0  0  0  0
 10  8  1  0  0  0  0
 11 10  2  0  0  0  0
 11 13  1  0  0  0  0
 12 11  1  0  0  0  0
 13  6  2  0  0  0  0
 14 13  1  0  0  0  0
 15 16  1  0  0  0  0
 15 18  1  0  0  0  0
 15 10  1  0  0  0  0
 17 15  1  0  0  0  0
 19 20  1  0  0  0  0
 19 21  1  0  0  0  0
 21 22  1  0  0  0  0
 23 24  1  0  0  0  0
 23 21  2  0  0  0  0
 25  4  1  0  0  0  0
 26 25  1  0  0  0  0
 27 25  1  0  0  0  0
 27 29  2  0  0  0  0
 28 27  1  0  0  0  0
 29 30  1  0  0  0  0
 29  5  1  0  0  0  0
 31 39  1  0  0  0  0
 32 31  2  0  0  0  0
 32 33  1  0  0  0  0
 33 35  2  0  0  0  0
 34 33  1  0  0  0  0
 35 37  1  0  0  0  0
 35 36  1  0  0  0  0
 37 38  1  0  0  0  0
 39 40  1  0  0  0  0
 39 37  2  0  0  0  0
M  END
