2,3,4
q = -1.0, confidence = 0.002

 44 46  0  0  0  0  0  0  0  0999 V2000
   -4.2812   -1.1395   -0.9610 O   0  0  0  0  0  0  0  0  0  0  0  0
    2.0349   -1.4362    0.2214 N   0  0  0  0  0  0  0  0  0  0  0  0
    0.7296    0.8216    0.0173 N   0  0  0  0  0  2  0  0  0  0  0  0
   -1.7040   -0.1399    0.0135 N   0  0  0  0  0  0  0  0  0  0  0  0
    2.3401   -1.9950    1.5662 C   0  0  0  0  0  0  0  0  0  0  0  0
    3.4055   -2.3060    1.6260 H   0  0  0  0  0  0  0  0  0  0  0  0
    1.6760   -2.8609    1.7434 H   0  0  0  0  0  0  0  0  0  0  0  0
    2.1469   -1.2162    2.3264 H   0  0  0  0  0  0  0  0  0  0  0  0
    2.2900   -2.4475   -0.8423 C   0  0  0  0  0  0  0  0  0  0  0  0
    2.0758   -1.9902   -1.8257 H   0  0  0  0  0  0  0  0  0  0  0  0
    1.6166   -3.3078   -0.6804 H   0  0  0  0  0  0  0  0  0  0  0  0
    3.3513   -2.7741   -0.8197 H   0  0  0  0  0  0  0  0  0  0  0  0
    2.8342   -0.2234   -0.0402 C   0  0  0  0  0  0  0  0  0  0  0  0
    4.2250   -0.2506   -0.1641 C   0  0  0  0  0  0  0  0  0  0  0  0
    4.7756   -1.1924   -0.0210 H   0  0  0  0  0  0  0  0  0  0  0  0
    4.9214    0.9247   -0.4926 C   0  0  0  0  0  0  0  0  0  0  0  0
    6.0159    0.9099   -0.5942 H   0  0  0  0  0  0  0  0  0  0  0  0
    4.1929    2.1039   -0.7193 C   0  0  0  0  0  0  0  0  0  0  0  0
    4.7194    3.0223   -1.0214 H   0  0  0  0  0  0  0  0  0  0  0  0
    2.7999    2.1400   -0.5800 C   0  0  0  0  0  0  0  0  0  0  0  0
    2.2638    3.0667   -0.8116 H   0  0  0  0  0  0  0  0  0  0  0  0
    2.0844    0.9725   -0.1936 C   0  0  0  0  0  0  0  0  0  0  0  0
   -0.2274    1.7990    0.1848 C   0  0  0  0  0  0  0  0  0  0  0  0
   -0.0175    3.1857    0.4127 C   0  0  0  0  0  0  0  0  0  0  0  0
    1.0006    3.5809    0.4895 H   0  0  0  0  0  0  0  0  0  0  0  0
   -1.1009    4.0471    0.6215 C   0  0  0  0  0  0  0  0  0  0  0  0
   -0.9049    5.1135    0.8123 H   0  0  0  0  0  0  0  0  0  0  0  0
   -2.4171    3.5659    0.6127 C   0  0  0  0  0  0  0  0  0  0  0  0
   -3.2682    4.2417    0.7775 H   0  0  0  0  0  0  0  0  0  0  0  0
   -2.6416    2.1925    0.4114 C   0  0  0  0  0  0  0  0  0  0  0  0
   -3.6700    1.8169    0.4329 H   0  0  0  0  0  0  0  0  0  0  0  0
   -1.5694    1.3170    0.2053 C   0  0  0  0  0  0  0  0  0  0  0  0
   -2.7287   -0.7822    0.9086 C   0  0  0  0  0  0  0  0  0  0  0  0
   -2.4276   -1.8437    0.9893 H   0  0  0  0  0  0  0  0  0  0  0  0
   -2.6451   -0.3135    1.9078 H   0  0  0  0  0  0  0  0  0  0  0  0
   -4.1747   -0.7337    0.3913 C   0  0  0  0  0  0  0  0  0  0  0  0
   -4.7699   -1.4527    0.9902 H   0  0  0  0  0  0  0  0  0  0  0  0
   -4.6478    0.2680    0.5283 H   0  0  0  0  0  0  0  0  0  0  0  0
   -3.4622   -0.3309   -1.7889 C   0  0  0  0  0  0  0  0  0  0  0  0
   -3.7672    0.7430   -1.7338 H   0  0  0  0  0  0  0  0  0  0  0  0
   -3.6171   -0.6709   -2.8327 H   0  0  0  0  0  0  0  0  0  0  0  0
   -1.9930   -0.5049   -1.4219 C   0  0  0  0  0  0  0  0  0  0  0  0
   -1.3297    0.1031   -2.0662 H   0  0  0  0  0  0  0  0  0  0  0  0
   -1.7275   -1.5761   -1.5273 H   0  0  0  0  0  0  0  0  0  0  0  0
  1 36  1  0  0  0  0
  2  5  1  0  0  0  0
  3 23  1  0  0  0  0
  4 32  1  0  0  0  0
  4 33  1  0  0  0  0
  5  6  1  0  0  0  0
  5  7  1  0  0  0  0
  5  8  1  0  0  0  0
  9 12  1  0  0  0  0
  9 11  1  0  0  0  0
  9  2  1  0  0  0  0
 10  9  1  0  0  0  0
 13  2  1  0  0  0  0
 14 13  1  0  0  0  0
 14 15  1  0  0  0  0
 16 14  2  0  0  0  0
 17 16  1  0  0  0  0
 18 20  2  0  0  0  0
 18 16  1  0  0  0  0
 19 18  1  0  0  0  0
 20 22  1  0  0  0  0
 21 20  1  0  0  0  0
 22 13  2  0  0  0  0
 22  3  1  0  0  0  0
 23 32  2  0  0  0  0
 23 24  1  0  0  0  0
 24 25  1  0  0  0  0
 24 26  2  0  0  0  0
 26 27  1  0  0  0  0
 28 26  1  0  0  0  0
 28 29  1  0  0  0  0
 30 31  1  0  0  0  0
 30 28  2  0  0  0  0
 32 30  1  0  0  0  0
 33 34  1  0  0  0  0
 33 35  1  0  0  0  0
 36 38  1  0  0  0  0
 36 33  1  0  0  0  0
 36 37  1  0  0  0  0
 39 40  1  0  0  0  0
 39 42  1  0  0  0  0
 39  1  1  0  0  0  0
 41 39  1  0  0  0  0
 42  4  1  0  0  0  0
 43 42  1  0  0  0  0
 44 42  1  0  0  0  0
M  END
