1,2,3
q = 0.0, confidence = 0.992

 35 37  0  0  1  0  0  0  0  0999 V2000
    2.0414   -0.5534   -0.1126 N   0  0  0  0  0  2  0  0  0  0  0  0
   -0.0000    1.4717   -0.0000 N   0  0  0  0  0  2  0  0  0  0  0  0
   -2.0414   -0.5534    0.1126 N   0  0  0  0  0  2  0  0  0  0  0  0
    2.7008   -1.4281   -0.9145 C   0  0  0  0  0  3  0  0  0  0  0  0
    2.0742   -2.1670   -1.4324 H   0  0  0  0  0  0  0  0  0  0  0  0
    4.0914   -1.4036   -1.0376 C   0  0  0  0  0  0  0  0  0  0  0  0
    4.5850   -2.1312   -1.6966 H   0  0  0  0  0  0  0  0  0  0  0  0
    4.8223   -0.4533   -0.3134 C   0  0  0  0  0  0  0  0  0  0  0  0
    5.9188   -0.4099   -0.3877 H   0  0  0  0  0  0  0  0  0  0  0  0
    4.1321    0.4437    0.5128 C   0  0  0  0  0  0  0  0  0  0  0  0
    4.6713    1.1984    1.1024 H   0  0  0  0  0  0  0  0  0  0  0  0
    2.7353    0.3744    0.6033 C   0  0  0  0  0  0  0  0  0  0  0  0
    1.9401    1.3093    1.4857 C   0  0  0  0  0  0  0  0  0  0  0  0
    1.3846    0.6992    2.2339 H   0  0  0  0  0  0  0  0  0  0  0  0
    2.6285    1.9721    2.0394 H   0  0  0  0  0  0  0  0  0  0  0  0
    0.9445    2.1432    0.7146 C   0  0  2  0  0  3  0  0  0  0  0  0
    0.9680    3.5440    0.7208 C   0  0  0  0  0  0  0  0  0  0  0  0
    1.7404    4.0676    1.3012 H   0  0  0  0  0  0  0  0  0  0  0  0
   -0.0000    4.2543   -0.0000 C   0  0  0  0  0  0  0  0  0  0  0  0
   -0.0000    5.3541   -0.0000 H   0  0  0  0  0  0  0  0  0  0  0  0
   -0.9681    3.5439   -0.7209 C   0  0  0  0  0  0  0  0  0  0  0  0
   -1.7404    4.0676   -1.3013 H   0  0  0  0  0  0  0  0  0  0  0  0
   -0.9445    2.1432   -0.7146 C   0  0  0  0  0  0  0  0  0  0  0  0
   -1.9401    1.3093   -1.4857 C   0  0  0  0  0  0  0  0  0  0  0  0
   -1.3846    0.6992   -2.2339 H   0  0  0  0  0  0  0  0  0  0  0  0
   -2.6285    1.9720   -2.0394 H   0  0  0  0  0  0  0  0  0  0  0  0
   -2.7353    0.3744   -0.6033 C   0  0  1  0  0  3  0  0  0  0  0  0
   -4.1321    0.4437   -0.5128 C   0  0  0  0  0  0  0  0  0  0  0  0
   -4.6713    1.1984   -1.1024 H   0  0  0  0  0  0  0  0  0  0  0  0
   -4.8222   -0.4533    0.3135 C   0  0  0  0  0  0  0  0  0  0  0  0
   -5.9188   -0.4099    0.3878 H   0  0  0  0  0  0  0  0  0  0  0  0
   -4.0914   -1.4036    1.0377 C   0  0  0  0  0  0  0  0  0  0  0  0
   -4.5850   -2.1312    1.6967 H   0  0  0  0  0  0  0  0  0  0  0  0
   -2.7008   -1.4281    0.9145 C   0  0  0  0  0  0  0  0  0  0  0  0
   -2.0742   -2.1670    1.4325 H   0  0  0  0  0  0  0  0  0  0  0  0
  1 12  1  0  0  0  0
  2 16  1  0  0  0  0
  3 34  1  0  0  0  0
  4  1  1  0  0  0  0
  5  4  1  0  0  0  0
  6  4  1  0  0  0  0
  6  8  2  0  0  0  0
  7  6  1  0  0  0  0
  8 10  1  0  0  0  0
  9  8  1  0  0  0  0
 10 12  2  0  0  0  0
 10 11  1  0  0  0  0
 12 13  1  0  0  0  0
 13 15  1  0  0  0  0
 13 14  1  0  0  0  0
 16 17  1  0  0  0  0
 16 13  1  1  0  0  0
 17 18  1  0  0  0  0
 19 17  2  0  0  0  0
 20 19  1  0  0  0  0
 21 23  2  0  0  0  0
 21 19  1  0  0  0  0
 22 21  1  0  0  0  0
 23  2  1  0  0  0  0
 24 23  1  0  0  0  0
 25 24  1  0  0  0  0
 26 24  1  0  0  0  0
 27 24  1  6  0  0  0
 27 28  1  0  0  0  0
 27  3  1  0  0  0  0
 28 30  2  0  0  0  0
 29 28  1  0  0  0  0
 30 31  1  0  0  0  0
 30 32  1  0  0  0  0
 32 33  1  0  0  0  0
 34 32  2  0  0  0  0
 34 35  1  0  0  0  0
M  END
