11,12,13
q = -2.0, confidence = 0.974

 41 43  0  0  1  0  0  0  0  0999 V2000
   -2.0005    2.9164   -1.9950 O   0  0  0  0  0  0  0  0  0  0  0  0
   -2.0005   -2.9165    1.9950 O   0  0  0  0  0  0  0  0  0  0  0  0
    3.8336    1.4388   -3.8470 O   0  0  0  0  0  0  0  0  0  0  0  0
    3.8337   -1.4387    3.8467 O   0  0  0  0  0  0  0  0  0  0  0  0
    4.5339    2.0957   -4.0357 H   0  0  0  0  0  0  0  0  0  0  0  0
    4.5340   -2.0956    4.0355 H   0  0  0  0  0  0  0  0  0  0  0  0
    4.2160    4.0493   -3.3861 O   0  0  0  0  0  0  0  0  0  0  0  0
    4.2160   -4.0492    3.3861 O   0  0  0  0  0  0  0  0  0  0  0  0
    4.2820    4.9643   -3.0613 H   0  0  0  0  0  0  0  0  0  0  0  0
    4.2820   -4.9643    3.0615 H   0  0  0  0  0  0  0  0  0  0  0  0
   -0.2941    1.4375   -1.3383 N   0  0  0  0  0  2  0  0  0  0  0  0
   -0.2941   -1.4375    1.3383 N   0  0  0  0  0  2  0  0  0  0  0  0
   -1.8545   -0.0000   -0.0000 N   0  0  0  0  0  2  0  0  0  0  0  0
   -1.5781    1.9126   -1.4001 C   0  0  0  0  0  0  0  0  0  0  0  0
   -1.5782   -1.9126    1.4001 C   0  0  0  0  0  0  0  0  0  0  0  0
   -2.4972    0.9678   -0.6761 C   0  0  1  0  0  3  0  0  0  0  0  0
   -2.4972   -0.9679    0.6761 C   0  0  0  0  0  0  0  0  0  0  0  0
   -3.8963    1.0074   -0.6836 C   0  0  0  0  0  0  0  0  0  0  0  0
   -3.8963   -1.0074    0.6836 C   0  0  0  0  0  0  0  0  0  0  0  0
   -4.3859    1.8202   -1.2380 H   0  0  0  0  0  0  0  0  0  0  0  0
   -4.3859   -1.8202    1.2380 H   0  0  0  0  0  0  0  0  0  0  0  0
   -4.5986   -0.0000    0.0000 C   0  0  0  0  0  0  0  0  0  0  0  0
   -5.6997   -0.0000    0.0000 H   0  0  0  0  0  0  0  0  0  0  0  0
    0.7689    2.1589   -1.9040 C   0  0  0  0  0  0  0  0  0  0  0  0
    0.7689   -2.1589    1.9040 C   0  0  0  0  0  0  0  0  0  0  0  0
    1.7368    1.4642   -2.6679 C   0  0  0  0  0  0  0  0  0  0  0  0
    1.7369   -1.4641    2.6678 C   0  0  0  0  0  0  0  0  0  0  0  0
    1.5957    0.3973   -2.8819 H   0  0  0  0  0  0  0  0  0  0  0  0
    1.5958   -0.3972    2.8817 H   0  0  0  0  0  0  0  0  0  0  0  0
    2.8792    2.1155   -3.1408 C   0  0  0  0  0  0  0  0  0  0  0  0
    2.8792   -2.1154    3.1407 C   0  0  0  0  0  0  0  0  0  0  0  0
    3.0528    3.4957   -2.8800 C   0  0  0  0  0  0  0  0  0  0  0  0
    3.0528   -3.4956    2.8800 C   0  0  0  0  0  0  0  0  0  0  0  0
    2.0790    4.2010   -2.1649 C   0  0  0  0  0  0  0  0  0  0  0  0
    2.0789   -4.2010    2.1650 C   0  0  0  0  0  0  0  0  0  0  0  0
    2.2206    5.2786   -1.9736 H   0  0  0  0  0  0  0  0  0  0  0  0
    2.2205   -5.2786    1.9739 H   0  0  0  0  0  0  0  0  0  0  0  0
    0.9422    3.5424   -1.6739 C   0  0  0  0  0  0  0  0  0  0  0  0
    0.9422   -3.5424    1.6741 C   0  0  0  0  0  0  0  0  0  0  0  0
    0.1764    4.0909   -1.1132 H   0  0  0  0  0  0  0  0  0  0  0  0
    0.1763   -4.0910    1.1135 H   0  0  0  0  0  0  0  0  0  0  0  0
  1 14  2  0  0  0  0
  3 30  1  0  0  0  0
  4  6  1  0  0  0  0
  5  3  1  0  0  0  0
  7  9  1  0  0  0  0
  7 32  1  0  0  0  0
 10  8  1  0  0  0  0
 12 15  1  0  0  0  0
 12 25  1  0  0  0  0
 13 17  1  0  0  0  0
 14 11  1  0  0  0  0
 15  2  2  0  0  0  0
 16 14  1  6  0  0  0
 16 13  1  0  0  0  0
 17 19  2  0  0  0  0
 17 15  1  0  0  0  0
 18 16  1  0  0  0  0
 18 22  2  0  0  0  0
 19 21  1  0  0  0  0
 20 18  1  0  0  0  0
 22 23  1  0  0  0  0
 22 19  1  0  0  0  0
 24 38  1  0  0  0  0
 24 11  1  0  0  0  0
 25 27  1  0  0  0  0
 26 24  2  0  0  0  0
 27 29  1  0  0  0  0
 27 31  2  0  0  0  0
 28 26  1  0  0  0  0
 30 32  2  0  0  0  0
 30 26  1  0  0  0  0
 31  4  1  0  0  0  0
 32 34  1  0  0  0  0
 33 31  1  0  0  0  0
 33  8  1  0  0  0  0
 34 36  1  0  0  0  0
 34 38  2  0  0  0  0
 35 33  2  0  0  0  0
 37 35  1  0  0  0  0
 38 40  1  0  0  0  0
 39 25  2  0  0  0  0
 39 35  1  0  0  0  0
 41 39  1  0  0  0  0
M  END
