16,18,20
q = 0.0, confidence = 0.618

 25 27  0  0  0  0  0  0  0  0999 V2000
    1.5549   -2.5241    0.6707 C   0  0  0  0  0  3  0  0  0  0  0  0
    1.5718   -2.8918    1.7027 H   0  0  0  0  0  0  0  0  0  0  0  0
    2.1614   -3.0535   -0.4859 C   0  0  0  0  0  0  0  0  0  0  0  0
    1.7759   -2.2071   -1.5333 C   0  0  0  0  0  0  0  0  0  0  0  0
    1.9807   -2.2574   -2.6070 H   0  0  0  0  0  0  0  0  0  0  0  0
    1.5565    2.5234    0.6707 C   0  0  0  0  0  3  0  0  0  0  0  0
    1.5736    2.8910    1.7026 H   0  0  0  0  0  0  0  0  0  0  0  0
    2.1632    3.0524   -0.4860 C   0  0  0  0  0  0  0  0  0  0  0  0
    1.7771    2.2062   -1.5334 C   0  0  0  0  0  0  0  0  0  0  0  0
    1.9819    2.2563   -2.6071 H   0  0  0  0  0  0  0  0  0  0  0  0
   -2.2394    0.0004   -2.1321 C   0  0  0  0  0  3  0  0  0  0  0  0
   -2.1328    0.0003   -3.2216 H   0  0  0  0  0  0  0  0  0  0  0  0
   -3.3746    0.0008   -1.3134 C   0  0  0  0  0  0  0  0  0  0  0  0
   -2.8792    0.0009    0.0114 C   0  0  0  0  0  0  0  0  0  0  0  0
   -3.4274    0.0011    0.9615 H   0  0  0  0  0  0  0  0  0  0  0  0
    0.8631   -1.4147    0.3527 N   0  0  0  0  0  2  0  0  0  0  0  0
    0.9908   -1.2288   -1.0201 N   0  0  0  0  0  0  0  0  0  0  0  0
    0.8640    1.4144    0.3527 N   0  0  0  0  0  2  0  0  0  0  0  0
    0.9916    1.2284   -1.0202 N   0  0  0  0  0  0  0  0  0  0  0  0
   -1.5384    0.0006   -0.0083 N   0  0  0  0  0  2  0  0  0  0  0  0
   -1.1542    0.0004   -1.3138 N   0  0  0  0  0  0  0  0  0  0  0  0
    3.3341   -4.7759   -0.6276 I   0  0  0  0  0  0  0  0  0  0  0  0
    3.3368    4.7742   -0.6278 I   0  0  0  0  0  0  0  0  0  0  0  0
   -5.3736    0.0012   -1.9267 I   0  0  0  0  0  0  0  0  0  0  0  0
    0.3414   -0.0000   -1.6189 B   0  0  0  0  0  0  0  0  0  0  0  0
  1  2  1  0  0  0  0
  3  1  1  0  0  0  0
  4 17  1  0  0  0  0
  4  3  2  0  0  0  0
  5  4  1  0  0  0  0
  6  7  1  0  0  0  0
  8  6  1  0  0  0  0
  9 19  1  0  0  0  0
  9  8  2  0  0  0  0
 10  9  1  0  0  0  0
 11 21  1  0  0  0  0
 11 13  1  0  0  0  0
 12 11  1  0  0  0  0
 13 14  2  0  0  0  0
 14 15  1  0  0  0  0
 16  1  1  0  0  0  0
 17 16  1  0  0  0  0
 18  6  1  0  0  0  0
 19 18  1  0  0  0  0
 20 14  1  0  0  0  0
 21 20  1  0  0  0  0
 22  3  1  0  0  0  0
 23  8  1  0  0  0  0
 24 13  1  0  0  0  0
 25 21  1  0  0  0  0
 25 19  1  0  0  0  0
 25 17  1  0  0  0  0
M  END
