4,12,20
q = 0.0, confidence = 0.984

 52 54  0  0  1  0  0  0  0  0999 V2000
    0.1663    1.9300   -0.2236 N   0  0  0  0  0  0  0  0  0  0  0  0
   -1.1462    2.5360   -0.3751 C   0  0  0  0  0  0  0  0  0  0  0  0
   -2.1104    1.9282    0.5251 N   0  0  0  0  0  0  0  0  0  0  0  0
   -2.2867    0.5844    0.4789 N   0  0  0  0  0  2  0  0  0  0  0  0
   -3.4127    0.3170    1.1612 C   0  0  1  0  0  3  0  0  0  0  0  0
   -3.9632    1.5318    1.6558 C   0  0  0  0  0  0  0  0  0  0  0  0
   -3.1173    2.5516    1.2243 C   0  0  0  0  0  0  0  0  0  0  0  0
   -3.9579   -1.0686    1.2723 C   0  0  0  0  0  0  0  0  0  0  0  0
   -3.2066    4.0323    1.4046 C   0  0  0  0  0  0  0  0  0  0  0  0
    0.8082    2.1529    1.0561 C   0  0  0  0  0  0  0  0  0  0  0  0
    1.5188    0.9803    1.5466 N   0  0  0  0  0  0  0  0  0  0  0  0
    0.8600   -0.2000    1.6685 N   0  0  0  0  0  2  0  0  0  0  0  0
    1.7181   -1.0416    2.2784 C   0  0  0  0  0  0  0  0  0  0  0  0
    2.9400   -0.3711    2.5530 C   0  0  0  0  0  0  0  0  0  0  0  0
    2.7864    0.9276    2.0716 C   0  0  2  0  0  3  0  0  0  0  0  0
    1.3738   -2.4663    2.5694 C   0  0  0  0  0  0  0  0  0  0  0  0
    3.7359    2.0803    2.0829 C   0  0  0  0  0  0  0  0  0  0  0  0
    0.9976    2.0397   -1.4130 C   0  0  0  0  0  0  0  0  0  0  0  0
    2.0790    1.0741   -1.3837 N   0  0  0  0  0  0  0  0  0  0  0  0
    1.8103   -0.2385   -1.1755 N   0  0  0  0  0  2  0  0  0  0  0  0
    2.9962   -0.8719   -1.1874 C   0  0  1  0  0  3  0  0  0  0  0  0
    4.0383    0.0661   -1.4313 C   0  0  0  0  0  0  0  0  0  0  0  0
    3.4225    1.3089   -1.5538 C   0  0  0  0  0  0  0  0  0  0  0  0
    3.1297   -2.3389   -0.9393 C   0  0  0  0  0  0  0  0  0  0  0  0
    4.0020    2.6532   -1.8578 C   0  0  0  0  0  0  0  0  0  0  0  0
   -1.1593    3.6318   -0.1713 H   0  0  0  0  0  0  0  0  0  0  0  0
   -1.4602    2.3512   -1.4241 H   0  0  0  0  0  0  0  0  0  0  0  0
   -4.8733    1.6496    2.2533 H   0  0  0  0  0  0  0  0  0  0  0  0
   -4.8952   -1.0706    1.8582 H   0  0  0  0  0  0  0  0  0  0  0  0
   -3.2299   -1.7633    1.7335 H   0  0  0  0  0  0  0  0  0  0  0  0
   -4.1602   -1.4648    0.2563 H   0  0  0  0  0  0  0  0  0  0  0  0
   -2.2818    4.4616    1.8438 H   0  0  0  0  0  0  0  0  0  0  0  0
   -3.4009    4.5623    0.4481 H   0  0  0  0  0  0  0  0  0  0  0  0
   -4.0410    4.2702    2.0895 H   0  0  0  0  0  0  0  0  0  0  0  0
    0.0117    2.4142    1.7842 H   0  0  0  0  0  0  0  0  0  0  0  0
    1.5452    2.9878    1.0292 H   0  0  0  0  0  0  0  0  0  0  0  0
    3.8292   -0.7828    3.0421 H   0  0  0  0  0  0  0  0  0  0  0  0
    1.7029   -3.1341    1.7462 H   0  0  0  0  0  0  0  0  0  0  0  0
    0.2819   -2.6004    2.6757 H   0  0  0  0  0  0  0  0  0  0  0  0
    1.8819   -2.8062    3.4920 H   0  0  0  0  0  0  0  0  0  0  0  0
    3.3433    2.9542    2.6438 H   0  0  0  0  0  0  0  0  0  0  0  0
    4.6805    1.7725    2.5675 H   0  0  0  0  0  0  0  0  0  0  0  0
    3.9863    2.4167    1.0556 H   0  0  0  0  0  0  0  0  0  0  0  0
    0.3400    1.8450   -2.2861 H   0  0  0  0  0  0  0  0  0  0  0  0
    1.4726    3.0431   -1.5204 H   0  0  0  0  0  0  0  0  0  0  0  0
    5.1104   -0.1408   -1.5147 H   0  0  0  0  0  0  0  0  0  0  0  0
    2.1478   -2.8476   -0.9762 H   0  0  0  0  0  0  0  0  0  0  0  0
    3.5744   -2.5158    0.0629 H   0  0  0  0  0  0  0  0  0  0  0  0
    3.8088   -2.7996   -1.6837 H   0  0  0  0  0  0  0  0  0  0  0  0
    3.7289    3.4218   -1.1043 H   0  0  0  0  0  0  0  0  0  0  0  0
    3.6760    3.0342   -2.8484 H   0  0  0  0  0  0  0  0  0  0  0  0
    5.1051    2.5827   -1.8754 H   0  0  0  0  0  0  0  0  0  0  0  0
  1 10  1  0  0  0  0
  2  1  1  0  0  0  0
  2 26  1  0  0  0  0
  2  3  1  0  0  0  0
  3  7  1  0  0  0  0
  4  3  1  0  0  0  0
  4  5  1  0  0  0  0
  5  8  1  6  0  0  0
  5  6  1  0  0  0  0
  6 28  1  0  0  0  0
  7  9  1  0  0  0  0
  7  6  2  0  0  0  0
  8 30  1  0  0  0  0
  8 29  1  0  0  0  0
  9 32  1  0  0  0  0
  9 34  1  0  0  0  0
 10 11  1  0  0  0  0
 10 35  1  0  0  0  0
 11 12  1  0  0  0  0
 11 15  1  0  0  0  0
 12 13  1  0  0  0  0
 13 14  2  0  0  0  0
 13 16  1  0  0  0  0
 14 37  1  0  0  0  0
 15 17  1  1  0  0  0
 15 14  1  0  0  0  0
 16 39  1  0  0  0  0
 16 40  1  0  0  0  0
 17 42  1  0  0  0  0
 17 41  1  0  0  0  0
 18 19  1  0  0  0  0
 18  1  1  0  0  0  0
 19 20  1  0  0  0  0
 21 20  1  0  0  0  0
 21 24  1  1  0  0  0
 22 21  1  0  0  0  0
 23 22  2  0  0  0  0
 23 19  1  0  0  0  0
 24 48  1  0  0  0  0
 25 23  1  0  0  0  0
 25 50  1  0  0  0  0
 27  2  1  0  0  0  0
 31  8  1  0  0  0  0
 33  9  1  0  0  0  0
 36 10  1  0  0  0  0
 38 16  1  0  0  0  0
 43 17  1  0  0  0  0
 44 18  1  0  0  0  0
 45 18  1  0  0  0  0
 46 22  1  0  0  0  0
 47 24  1  0  0  0  0
 49 24  1  0  0  0  0
 51 25  1  0  0  0  0
 52 25  1  0  0  0  0
M  END
