7,12,14
q = -1.0, confidence = 0.008

 25 25  0  0  1  0  0  0  0  0999 V2000
    3.2994    2.7754   -1.1443 S   0  0  0  0  0  0  0  0  0  0  0  0
    1.6949    0.9153   -2.0231 N   0  0  0  0  0  0  0  0  0  0  0  0
    3.4629    3.4860    0.5194 C   0  0  0  0  0  0  0  0  0  0  0  0
    2.5404    4.0168    0.8283 H   0  0  0  0  0  0  0  0  0  0  0  0
    4.2841    4.2234    0.4480 H   0  0  0  0  0  0  0  0  0  0  0  0
    3.7444    2.7145    1.2633 H   0  0  0  0  0  0  0  0  0  0  0  0
   -1.1803   -1.2969   -0.7280 N   0  0  0  0  0  2  0  0  0  0  0  0
    0.5996   -0.8374   -4.0558 C   0  0  0  0  0  0  0  0  0  0  0  0
    1.4131   -0.1107   -4.2308 H   0  0  0  0  0  0  0  0  0  0  0  0
   -0.2305   -0.6186   -4.7595 H   0  0  0  0  0  0  0  0  0  0  0  0
    0.9733   -1.8549   -4.2964 H   0  0  0  0  0  0  0  0  0  0  0  0
    0.6909    0.0881   -1.7509 N   0  0  0  0  0  2  0  0  0  0  0  0
    0.1472   -0.7451   -2.6361 C   0  0  1  0  0  3  0  0  0  0  0  0
    1.3511    1.3921    0.2354 N   0  0  0  0  0  2  0  0  0  0  0  0
    1.5542    1.9583    1.0625 H   0  0  0  0  0  0  0  0  0  0  0  0
    2.0018    1.6157   -0.8988 C   0  0  0  0  0  0  0  0  0  0  0  0
   -2.1646   -1.9521   -0.0922 C   0  0  0  0  0  3  0  0  0  0  0  0
   -2.3257   -1.6890    0.9637 H   0  0  0  0  0  0  0  0  0  0  0  0
   -2.9550   -2.9107   -0.7393 C   0  0  0  0  0  0  0  0  0  0  0  0
   -3.7527   -3.4229   -0.1845 H   0  0  0  0  0  0  0  0  0  0  0  0
   -2.7027   -3.1876   -2.0928 C   0  0  0  0  0  0  0  0  0  0  0  0
   -3.3033   -3.9366   -2.6296 H   0  0  0  0  0  0  0  0  0  0  0  0
   -1.6834   -2.4987   -2.7582 C   0  0  0  0  0  0  0  0  0  0  0  0
   -1.4679   -2.6905   -3.8181 H   0  0  0  0  0  0  0  0  0  0  0  0
   -0.9223   -1.5389   -2.0581 C   0  0  0  0  0  0  0  0  0  0  0  0
  1 16  1  0  0  0  0
  1  3  1  0  0  0  0
  2 12  1  0  0  0  0
  2 16  2  0  0  0  0
  3  4  1  0  0  0  0
  3  6  1  0  0  0  0
  5  3  1  0  0  0  0
  7 17  1  0  0  0  0
  8 13  1  0  0  0  0
  9  8  1  0  0  0  0
 10  8  1  0  0  0  0
 11  8  1  0  0  0  0
 13 25  1  0  0  0  0
 13 12  1  6  0  0  0
 14 15  1  0  0  0  0
 16 14  1  0  0  0  0
 17 18  1  0  0  0  0
 19 20  1  0  0  0  0
 19 17  1  0  0  0  0
 21 19  2  0  0  0  0
 22 21  1  0  0  0  0
 23 21  1  0  0  0  0
 23 25  2  0  0  0  0
 24 23  1  0  0  0  0
 25  7  1  0  0  0  0
M  END
