2,4,6
q = -1.0, confidence = 0.008

 25 25  0  0  0  0  0  0  0  0999 V2000
   -3.2991    2.7756    1.1444 S   0  0  0  0  0  0  0  0  0  0  0  0
   -0.6909    0.0880    1.7509 N   0  0  0  0  0  2  0  0  0  0  0  0
   -1.6948    0.9154    2.0231 N   0  0  0  0  0  0  0  0  0  0  0  0
   -1.3509    1.3923   -0.2353 N   0  0  0  0  0  2  0  0  0  0  0  0
   -1.5540    1.9585   -1.0624 H   0  0  0  0  0  0  0  0  0  0  0  0
    1.1802   -1.2971    0.7279 N   0  0  0  0  0  2  0  0  0  0  0  0
    0.9222   -1.5391    2.0580 C   0  0  0  0  0  0  0  0  0  0  0  0
   -0.1472   -0.7452    2.6361 C   0  0  0  0  0  0  0  0  0  0  0  0
   -3.4626    3.4862   -0.5193 C   0  0  0  0  0  0  0  0  0  0  0  0
   -2.5399    4.0167   -0.8284 H   0  0  0  0  0  0  0  0  0  0  0  0
   -4.2835    4.2240   -0.4478 H   0  0  0  0  0  0  0  0  0  0  0  0
   -3.7446    2.7148   -1.2631 H   0  0  0  0  0  0  0  0  0  0  0  0
   -0.5997   -0.8375    4.0558 C   0  0  0  0  0  0  0  0  0  0  0  0
    0.2304   -0.6186    4.7595 H   0  0  0  0  0  0  0  0  0  0  0  0
   -0.9732   -1.8551    4.2964 H   0  0  0  0  0  0  0  0  0  0  0  0
   -1.4133   -0.1110    4.2307 H   0  0  0  0  0  0  0  0  0  0  0  0
    2.1644   -1.9523    0.0921 C   0  0  0  0  0  0  0  0  0  0  0  0
    2.3255   -1.6892   -0.9638 H   0  0  0  0  0  0  0  0  0  0  0  0
   -2.0016    1.6159    0.8989 C   0  0  0  0  0  0  0  0  0  0  0  0
    2.9548   -2.9110    0.7392 C   0  0  0  0  0  0  0  0  0  0  0  0
    3.7524   -3.4233    0.1844 H   0  0  0  0  0  0  0  0  0  0  0  0
    1.6832   -2.4990    2.7582 C   0  0  0  0  0  0  0  0  0  0  0  0
    1.4676   -2.6908    3.8180 H   0  0  0  0  0  0  0  0  0  0  0  0
    2.7024   -3.1879    2.0927 C   0  0  0  0  0  0  0  0  0  0  0  0
    3.3030   -3.9370    2.6295 H   0  0  0  0  0  0  0  0  0  0  0  0
  2  3  1  0  0  0  0
  2  8  1  0  0  0  0
  4 19  1  0  0  0  0
  5  4  1  0  0  0  0
  6  7  1  0  0  0  0
  7  8  2  0  0  0  0
  7 22  1  0  0  0  0
  8 13  1  0  0  0  0
  9 11  1  0  0  0  0
  9  1  1  0  0  0  0
 10  9  1  0  0  0  0
 12  9  1  0  0  0  0
 13 16  1  0  0  0  0
 13 15  1  0  0  0  0
 13 14  1  0  0  0  0
 17  6  1  0  0  0  0
 17 20  2  0  0  0  0
 18 17  1  0  0  0  0
 19  1  1  0  0  0  0
 19  3  2  0  0  0  0
 20 24  1  0  0  0  0
 21 20  1  0  0  0  0
 22 23  1  0  0  0  0
 24 25  1  0  0  0  0
 24 22  2  0  0  0  0
M  END
