1,2,3
q = -1.0, confidence = 0.004

 41 43  0  0  1  0  0  0  0  0999 V2000
   -3.0585   -0.0011    0.0375 N   0  0  0  0  0  2  0  0  0  0  0  0
   -0.6414    0.3120   -0.9603 N   0  0  0  0  0  2  0  0  0  0  0  0
    0.5546   -1.0863    1.0591 N   0  0  0  0  0  2  0  0  0  0  0  0
    0.8662   -0.2449    1.5836 H   0  0  0  0  0  0  0  0  0  0  0  0
   -2.9585    0.3945   -1.2642 C   0  0  0  0  0  0  0  0  0  0  0  0
   -1.5886    0.4193   -1.8159 C   0  0  0  0  0  0  0  0  0  0  0  0
   -1.4407    0.5141   -2.9138 H   0  0  0  0  0  0  0  0  0  0  0  0
    0.7788    0.1838   -1.1715 C   0  0  2  0  0  0  0  0  0  0  0  0
    1.0393   -0.0518   -2.2289 H   0  0  0  0  0  0  0  0  0  0  0  0
    1.1655   -1.0810   -0.2652 C   0  0  1  0  0  0  0  0  0  0  0  0
    0.7430   -1.9529   -0.8054 H   0  0  0  0  0  0  0  0  0  0  0  0
    2.6649   -1.2746   -0.1277 C   0  0  0  0  0  0  0  0  0  0  0  0
    3.2975   -2.2839   -0.8810 C   0  0  0  0  0  0  0  0  0  0  0  0
    2.6868   -2.9316   -1.5291 H   0  0  0  0  0  0  0  0  0  0  0  0
    4.6859   -2.4659   -0.8104 C   0  0  0  0  0  0  0  0  0  0  0  0
    5.1656   -3.2536   -1.4112 H   0  0  0  0  0  0  0  0  0  0  0  0
    5.4594   -1.6518    0.0332 C   0  0  0  0  0  0  0  0  0  0  0  0
    6.5484   -1.7987    0.0962 H   0  0  0  0  0  0  0  0  0  0  0  0
    4.8365   -0.6557    0.8014 C   0  0  0  0  0  0  0  0  0  0  0  0
    5.4349   -0.0166    1.4681 H   0  0  0  0  0  0  0  0  0  0  0  0
    3.4499   -0.4660    0.7221 C   0  0  0  0  0  0  0  0  0  0  0  0
    2.9801    0.3267    1.3222 H   0  0  0  0  0  0  0  0  0  0  0  0
    1.4923    1.4527   -0.7531 C   0  0  0  0  0  0  0  0  0  0  0  0
    1.0500    2.2158    0.3482 C   0  0  0  0  0  0  0  0  0  0  0  0
    0.1284    1.9391    0.8850 H   0  0  0  0  0  0  0  0  0  0  0  0
    1.7950    3.3269    0.7736 C   0  0  0  0  0  0  0  0  0  0  0  0
    1.4442    3.9101    1.6387 H   0  0  0  0  0  0  0  0  0  0  0  0
    2.9744    3.6931    0.1063 C   0  0  0  0  0  0  0  0  0  0  0  0
    3.5536    4.5662    0.4435 H   0  0  0  0  0  0  0  0  0  0  0  0
    3.4086    2.9436   -0.9991 C   0  0  0  0  0  0  0  0  0  0  0  0
    4.3302    3.2244   -1.5312 H   0  0  0  0  0  0  0  0  0  0  0  0
    2.6714    1.8303   -1.4253 C   0  0  0  0  0  0  0  0  0  0  0  0
    3.0231    1.2324   -2.2806 H   0  0  0  0  0  0  0  0  0  0  0  0
   -4.1003    0.7665   -1.9908 C   0  0  0  0  0  0  0  0  0  0  0  0
   -3.9993    1.0794   -3.0403 H   0  0  0  0  0  0  0  0  0  0  0  0
   -5.3495    0.7461   -1.3537 C   0  0  0  0  0  0  0  0  0  0  0  0
   -6.2579    1.0330   -1.9038 H   0  0  0  0  0  0  0  0  0  0  0  0
   -5.4228    0.3655   -0.0067 C   0  0  0  0  0  0  0  0  0  0  0  0
   -6.3816    0.3418    0.5302 H   0  0  0  0  0  0  0  0  0  0  0  0
   -4.2417    0.0003    0.6586 C   0  0  0  0  0  0  0  0  0  0  0  0
   -4.2285   -0.3007    1.7179 H   0  0  0  0  0  0  0  0  0  0  0  0
  1 40  1  0  0  0  0
  3  4  1  0  0  0  0
  5  1  1  0  0  0  0
  6  5  2  0  0  0  0
  6  2  1  0  0  0  0
  7  6  1  0  0  0  0
  8  9  1  6  0  0  0
  8  2  1  0  0  0  0
  8 23  1  0  0  0  0
  8 10  1  0  0  0  0
 10 11  1  6  0  0  0
 10 12  1  0  0  0  0
 10  3  1  0  0  0  0
 12 21  1  0  0  0  0
 13 15  1  0  0  0  0
 13 12  2  0  0  0  0
 14 13  1  0  0  0  0
 15 17  2  0  0  0  0
 16 15  1  0  0  0  0
 17 18  1  0  0  0  0
 17 19  1  0  0  0  0
 19 20  1  0  0  0  0
 21 19  2  0  0  0  0
 21 22  1  0  0  0  0
 23 24  1  0  0  0  0
 24 26  2  0  0  0  0
 24 25  1  0  0  0  0
 26 27  1  0  0  0  0
 28 29  1  0  0  0  0
 28 26  1  0  0  0  0
 30 28  2  0  0  0  0
 31 30  1  0  0  0  0
 32 30  1  0  0  0  0
 32 23  2  0  0  0  0
 33 32  1  0  0  0  0
 34 36  2  0  0  0  0
 34  5  1  0  0  0  0
 35 34  1  0  0  0  0
 36 38  1  0  0  0  0
 37 36  1  0  0  0  0
 38 39  1  0  0  0  0
 38 40  2  0  0  0  0
 40 41  1  0  0  0  0
M  END
