1,2,3
q = 0.0, confidence = 0.946

 50 53  0  0  1  0  0  0  0  0999 V2000
    2.0466   -1.2654    0.1712 N   0  0  0  0  0  2  0  0  0  0  0  0
    1.1666    1.0709    0.5521 N   0  0  0  0  0  2  0  0  0  0  0  0
   -1.2160    0.7407    0.3278 N   0  0  0  0  0  2  0  0  0  0  0  0
    2.4595   -2.5151   -0.0736 C   0  0  0  0  0  0  0  0  0  0  0  0
    1.6607   -3.2455   -0.2814 H   0  0  0  0  0  0  0  0  0  0  0  0
    3.8323   -2.8568   -0.0614 C   0  0  0  0  0  0  0  0  0  0  0  0
    4.1123   -3.9019   -0.2555 H   0  0  0  0  0  0  0  0  0  0  0  0
    4.8121   -1.8912    0.1815 C   0  0  0  0  0  0  0  0  0  0  0  0
    5.8799   -2.1580    0.1807 H   0  0  0  0  0  0  0  0  0  0  0  0
    4.4085   -0.5529    0.4211 C   0  0  0  0  0  0  0  0  0  0  0  0
    5.2648    0.5801    0.6768 C   0  0  0  0  0  0  0  0  0  0  0  0
    6.3525    0.4153    0.7060 H   0  0  0  0  0  0  0  0  0  0  0  0
    4.7568    1.8532    0.8814 C   0  0  0  0  0  0  0  0  0  0  0  0
    5.4449    2.6924    1.0652 H   0  0  0  0  0  0  0  0  0  0  0  0
    3.3411    2.1117    0.8495 C   0  0  0  0  0  0  0  0  0  0  0  0
    2.6633    3.3630    1.0045 C   0  0  0  0  0  0  0  0  0  0  0  0
    3.2449    4.2790    1.1854 H   0  0  0  0  0  0  0  0  0  0  0  0
    1.2710    3.4287    0.9146 C   0  0  0  0  0  0  0  0  0  0  0  0
    0.7581    4.3953    1.0192 H   0  0  0  0  0  0  0  0  0  0  0  0
    0.5064    2.2525    0.6824 C   0  0  0  0  0  0  0  0  0  0  0  0
    2.5123    0.9919    0.6168 C   0  0  0  0  0  0  0  0  0  0  0  0
    3.0109   -0.3138    0.4063 C   0  0  0  0  0  0  0  0  0  0  0  0
   -0.9136    2.0257    0.5623 C   0  0  2  0  0  3  0  0  0  0  0  0
   -1.9489    3.0968    0.6982 C   0  0  0  0  0  0  0  0  0  0  0  0
   -2.7655    2.7715    1.3733 H   0  0  0  0  0  0  0  0  0  0  0  0
   -2.4205    3.3141   -0.2827 H   0  0  0  0  0  0  0  0  0  0  0  0
   -1.5099    4.0330    1.0889 H   0  0  0  0  0  0  0  0  0  0  0  0
   -2.5845    0.3379    0.2985 C   0  0  0  0  0  0  0  0  0  0  0  0
   -3.3470    0.4221   -0.8900 C   0  0  0  0  0  0  0  0  0  0  0  0
   -4.6937    0.0117   -0.8259 C   0  0  0  0  0  0  0  0  0  0  0  0
   -5.3061    0.0563   -1.7397 H   0  0  0  0  0  0  0  0  0  0  0  0
   -5.2548   -0.4636    0.3630 C   0  0  0  0  0  0  0  0  0  0  0  0
   -6.3073   -0.7848    0.3850 H   0  0  0  0  0  0  0  0  0  0  0  0
   -4.4738   -0.5500    1.5257 C   0  0  0  0  0  0  0  0  0  0  0  0
   -4.9191   -0.9418    2.4509 H   0  0  0  0  0  0  0  0  0  0  0  0
   -3.1261   -0.1602    1.5171 C   0  0  0  0  0  0  0  0  0  0  0  0
   -2.7562    0.8961   -2.1990 C   0  0  0  0  0  0  0  0  0  0  0  0
   -2.7501    0.0327   -2.8994 H   0  0  0  0  0  0  0  0  0  0  0  0
   -1.6837    1.1411   -2.0735 H   0  0  0  0  0  0  0  0  0  0  0  0
   -3.5023    2.0704   -2.8442 C   0  0  0  0  0  0  0  0  0  0  0  0
   -3.0184    2.3611   -3.7981 H   0  0  0  0  0  0  0  0  0  0  0  0
   -3.5081    2.9647   -2.1858 H   0  0  0  0  0  0  0  0  0  0  0  0
   -4.5611    1.8273   -3.0683 H   0  0  0  0  0  0  0  0  0  0  0  0
   -2.2300   -0.2742    2.7312 C   0  0  0  0  0  0  0  0  0  0  0  0
   -1.3140   -0.8133    2.4010 H   0  0  0  0  0  0  0  0  0  0  0  0
   -1.8739    0.7421    3.0173 H   0  0  0  0  0  0  0  0  0  0  0  0
   -2.8319   -0.9687    3.9486 C   0  0  0  0  0  0  0  0  0  0  0  0
   -2.0879   -1.0293    4.7674 H   0  0  0  0  0  0  0  0  0  0  0  0
   -3.1448   -2.0042    3.7049 H   0  0  0  0  0  0  0  0  0  0  0  0
   -3.7179   -0.4311    4.3449 H   0  0  0  0  0  0  0  0  0  0  0  0
  1 22  1  0  0  0  0
  2 21  1  0  0  0  0
  2 20  1  0  0  0  0
  4  6  2  0  0  0  0
  4  1  1  0  0  0  0
  5  4  1  0  0  0  0
  6  8  1  0  0  0  0
  7  6  1  0  0  0  0
  8 10  2  0  0  0  0
  9  8  1  0  0  0  0
 10 11  1  0  0  0  0
 11 12  1  0  0  0  0
 11 13  2  0  0  0  0
 13 14  1  0  0  0  0
 15 13  1  0  0  0  0
 15 16  2  0  0  0  0
 16 17  1  0  0  0  0
 18 16  1  0  0  0  0
 18 19  1  0  0  0  0
 20 18  2  0  0  0  0
 21 15  1  0  0  0  0
 22 10  1  0  0  0  0
 22 21  2  0  0  0  0
 23  3  1  1  0  0  0
 23 20  1  0  0  0  0
 23 24  1  0  0  0  0
 24 27  1  0  0  0  0
 24 25  1  0  0  0  0
 26 24  1  0  0  0  0
 28  3  1  0  0  0  0
 28 36  1  0  0  0  0
 29 30  1  0  0  0  0
 29 28  2  0  0  0  0
 30 32  2  0  0  0  0
 31 30  1  0  0  0  0
 32 33  1  0  0  0  0
 32 34  1  0  0  0  0
 34 35  1  0  0  0  0
 36 34  2  0  0  0  0
 36 44  1  0  0  0  0
 37 39  1  0  0  0  0
 37 29  1  0  0  0  0
 38 37  1  0  0  0  0
 40 37  1  0  0  0  0
 40 42  1  0  0  0  0
 41 40  1  0  0  0  0
 43 40  1  0  0  0  0
 44 46  1  0  0  0  0
 44 47  1  0  0  0  0
 45 44  1  0  0  0  0
 47 50  1  0  0  0  0
 47 48  1  0  0  0  0
 49 47  1  0  0  0  0
M  END
