1,2,3
q = 0.0, confidence = 1.0

 31 31  0  0  0  0  0  0  0  0999 V2000
   -2.1709   -0.2009    0.0468 N   0  0  0  0  0  2  0  0  0  0  0  0
    2.0890    0.1941   -1.3629 N   0  0  0  0  0  0  0  0  0  0  0  0
   -0.1586   -1.9465   -0.6086 N   0  0  0  0  0  2  0  0  0  0  0  0
   -3.1407    0.6878    0.2905 C   0  0  0  0  0  3  0  0  0  0  0  0
   -2.7963    1.6959    0.5828 H   0  0  0  0  0  0  0  0  0  0  0  0
   -4.5031    0.3627    0.1572 C   0  0  0  0  0  0  0  0  0  0  0  0
   -5.2713    1.1188    0.3739 H   0  0  0  0  0  0  0  0  0  0  0  0
   -4.8498   -0.9320   -0.2519 C   0  0  0  0  0  0  0  0  0  0  0  0
   -5.9055   -1.2209   -0.3652 H   0  0  0  0  0  0  0  0  0  0  0  0
   -3.8291   -1.8555   -0.5203 C   0  0  0  0  0  0  0  0  0  0  0  0
   -4.0568   -2.8795   -0.8527 H   0  0  0  0  0  0  0  0  0  0  0  0
   -2.4917   -1.4472   -0.3629 C   0  0  0  0  0  0  0  0  0  0  0  0
   -1.3684   -2.3658   -0.6392 C   0  0  0  0  0  3  0  0  0  0  0  0
   -1.6207   -3.4294   -0.8558 H   0  0  0  0  0  0  0  0  0  0  0  0
    0.9583   -2.8470   -0.7789 C   0  0  0  0  0  0  0  0  0  0  0  0
    0.6151   -3.8718   -1.0572 H   0  0  0  0  0  0  0  0  0  0  0  0
    1.4485   -2.9047    0.2208 H   0  0  0  0  0  0  0  0  0  0  0  0
    1.9867   -2.3345   -1.7959 C   0  0  0  0  0  0  0  0  0  0  0  0
    1.5001   -2.1868   -2.7833 H   0  0  0  0  0  0  0  0  0  0  0  0
    2.7192   -3.1545   -1.9466 H   0  0  0  0  0  0  0  0  0  0  0  0
    2.7955   -1.1020   -1.3815 C   0  0  0  0  0  0  0  0  0  0  0  0
    3.1919   -1.2617   -0.3566 H   0  0  0  0  0  0  0  0  0  0  0  0
    3.6783   -1.0184   -2.0660 H   0  0  0  0  0  0  0  0  0  0  0  0
    3.0104    1.2340   -0.8756 C   0  0  0  0  0  0  0  0  0  0  0  0
    3.3615    0.9639    0.1397 H   0  0  0  0  0  0  0  0  0  0  0  0
    2.4719    2.1996   -0.8142 H   0  0  0  0  0  0  0  0  0  0  0  0
    3.8936    1.3422   -1.5513 H   0  0  0  0  0  0  0  0  0  0  0  0
    1.5437    0.5699   -2.6713 C   0  0  0  0  0  0  0  0  0  0  0  0
    2.3436    0.6446   -3.4488 H   0  0  0  0  0  0  0  0  0  0  0  0
    1.0341    1.5489   -2.5758 H   0  0  0  0  0  0  0  0  0  0  0  0
    0.7928   -0.1712   -3.0066 H   0  0  0  0  0  0  0  0  0  0  0  0
  1  4  1  0  0  0  0
  2 24  1  0  0  0  0
  4  5  1  0  0  0  0
  6  4  1  0  0  0  0
  6  7  1  0  0  0  0
  8  6  2  0  0  0  0
  9  8  1  0  0  0  0
 10 12  2  0  0  0  0
 10  8  1  0  0  0  0
 11 10  1  0  0  0  0
 12  1  1  0  0  0  0
 13  3  1  0  0  0  0
 13 12  1  0  0  0  0
 14 13  1  0  0  0  0
 15  3  1  0  0  0  0
 15 17  1  0  0  0  0
 16 15  1  0  0  0  0
 18 21  1  0  0  0  0
 18 15  1  0  0  0  0
 19 18  1  0  0  0  0
 20 18  1  0  0  0  0
 21  2  1  0  0  0  0
 21 22  1  0  0  0  0
 23 21  1  0  0  0  0
 24 26  1  0  0  0  0
 24 25  1  0  0  0  0
 27 24  1  0  0  0  0
 28 30  1  0  0  0  0
 28  2  1  0  0  0  0
 29 28  1  0  0  0  0
 31 28  1  0  0  0  0
M  END
