3,5,6
q = 0.0, confidence = 0.998

 37 38  0  0  1  0  0  0  0  0999 V2000
    0.8853    4.9891   -0.0006 O   0  0  0  0  0  0  0  0  0  0  0  0
    0.5030    5.8845   -0.0009 H   0  0  0  0  0  0  0  0  0  0  0  0
   -0.5669   -0.9555    1.4059 N   0  0  0  0  0  2  0  0  0  0  0  0
   -2.4602   -0.4320    2.4323 N   0  0  0  0  0  0  0  0  0  0  0  0
   -0.3167    1.4759   -0.0002 N   0  0  0  0  0  0  0  0  0  0  0  0
   -0.5664   -0.9556   -1.4063 N   0  0  0  0  0  2  0  0  0  0  0  0
   -2.4601   -0.4326   -2.4322 N   0  0  0  0  0  0  0  0  0  0  0  0
   -1.0468   -2.0942    2.0163 C   0  0  0  0  0  0  0  0  0  0  0  0
   -0.5239   -3.0535    1.9478 H   0  0  0  0  0  0  0  0  0  0  0  0
   -2.2237   -1.7786    2.6669 C   0  0  0  0  0  0  0  0  0  0  0  0
   -2.9073   -2.3869    3.2672 H   0  0  0  0  0  0  0  0  0  0  0  0
   -1.4332    0.0327    1.6623 C   0  0  1  0  0  3  0  0  0  0  0  0
   -1.1544    1.4383    1.2419 C   0  0  0  0  0  0  0  0  0  0  0  0
   -0.5663    1.9409    2.0402 H   0  0  0  0  0  0  0  0  0  0  0  0
   -2.0907    2.0242    1.1192 H   0  0  0  0  0  0  0  0  0  0  0  0
   -1.1543    1.4381   -1.2424 C   0  0  0  0  0  0  0  0  0  0  0  0
   -2.0906    2.0240   -1.1198 H   0  0  0  0  0  0  0  0  0  0  0  0
   -0.5661    1.9407   -2.0406 H   0  0  0  0  0  0  0  0  0  0  0  0
   -1.4329    0.0324   -1.6627 C   0  0  2  0  0  3  0  0  0  0  0  0
   -2.2235   -1.7793   -2.6666 C   0  0  0  0  0  0  0  0  0  0  0  0
   -2.9072   -2.3878   -3.2665 H   0  0  0  0  0  0  0  0  0  0  0  0
   -1.0463   -2.0945   -2.0163 C   0  0  0  0  0  0  0  0  0  0  0  0
   -0.5232   -3.0536   -1.9478 H   0  0  0  0  0  0  0  0  0  0  0  0
   -3.5551    0.3503    2.9913 C   0  0  0  0  0  0  0  0  0  0  0  0
   -3.2224    0.9263    3.8781 H   0  0  0  0  0  0  0  0  0  0  0  0
   -4.3682   -0.3324    3.2957 H   0  0  0  0  0  0  0  0  0  0  0  0
   -3.9549    1.0499    2.2328 H   0  0  0  0  0  0  0  0  0  0  0  0
    0.5585    2.6885   -0.0002 C   0  0  0  0  0  0  0  0  0  0  0  0
    1.2182    2.6316   -0.8872 H   0  0  0  0  0  0  0  0  0  0  0  0
    1.2181    2.6317    0.8868 H   0  0  0  0  0  0  0  0  0  0  0  0
   -0.1544    4.0442   -0.0003 C   0  0  0  0  0  0  0  0  0  0  0  0
   -0.8162    4.1367   -0.8987 H   0  0  0  0  0  0  0  0  0  0  0  0
   -0.8159    4.1370    0.8982 H   0  0  0  0  0  0  0  0  0  0  0  0
   -3.5552    0.3493   -2.9914 C   0  0  0  0  0  0  0  0  0  0  0  0
   -3.9526    1.0517   -2.2342 H   0  0  0  0  0  0  0  0  0  0  0  0
   -4.3697   -0.3333   -3.2923 H   0  0  0  0  0  0  0  0  0  0  0  0
   -3.2235    0.9224   -3.8805 H   0  0  0  0  0  0  0  0  0  0  0  0
  1 31  1  0  0  0  0
  2  1  1  0  0  0  0
  3 12  1  0  0  0  0
  3  8  1  0  0  0  0
  4 10  1  0  0  0  0
  4 24  1  0  0  0  0
  5 13  1  0  0  0  0
  7 19  1  0  0  0  0
  8 10  2  0  0  0  0
  9  8  1  0  0  0  0
 10 11  1  0  0  0  0
 12 13  1  1  0  0  0
 12  4  1  0  0  0  0
 13 14  1  0  0  0  0
 15 13  1  0  0  0  0
 16 17  1  0  0  0  0
 16  5  1  0  0  0  0
 18 16  1  0  0  0  0
 19  6  1  0  0  0  0
 19 16  1  6  0  0  0
 20  7  1  0  0  0  0
 20 22  2  0  0  0  0
 21 20  1  0  0  0  0
 22 23  1  0  0  0  0
 22  6  1  0  0  0  0
 24 26  1  0  0  0  0
 24 25  1  0  0  0  0
 27 24  1  0  0  0  0
 28  5  1  0  0  0  0
 28 30  1  0  0  0  0
 29 28  1  0  0  0  0
 31 28  1  0  0  0  0
 31 33  1  0  0  0  0
 32 31  1  0  0  0  0
 34  7  1  0  0  0  0
 34 35  1  0  0  0  0
 36 34  1  0  0  0  0
 37 34  1  0  0  0  0
M  END
