1,4,11
q = 0.0, confidence = 1.0

 44 45  0  0  0  0  0  0  0  0999 V2000
    1.1159    0.6298   -0.9030 N   0  0  0  0  0  2  0  0  0  0  0  0
    1.9007   -1.6019   -0.5702 C   0  0  0  0  0  0  0  0  0  0  0  0
    2.1435   -0.1392   -0.7682 C   0  0  0  0  0  0  0  0  0  0  0  0
    0.6249   -1.9830   -0.3533 N   0  0  0  0  0  2  0  0  0  0  0  0
    3.5571    0.3477   -0.7568 C   0  0  0  0  0  0  0  0  0  0  0  0
    0.3279   -3.2782   -0.2103 C   0  0  0  0  0  0  0  0  0  0  0  0
   -0.7390   -3.5126   -0.0501 H   0  0  0  0  0  0  0  0  0  0  0  0
    1.2105    2.0624   -1.0747 C   0  0  0  0  0  0  0  0  0  0  0  0
    1.0297    2.2823   -2.1508 H   0  0  0  0  0  0  0  0  0  0  0  0
    2.2182    2.4663   -0.8333 H   0  0  0  0  0  0  0  0  0  0  0  0
   -1.2040    2.2856   -0.3647 N   0  0  0  0  0  0  0  0  0  0  0  0
   -1.7372    2.3924   -1.7411 C   0  0  0  0  0  0  0  0  0  0  0  0
   -2.7040    1.8513   -1.7595 H   0  0  0  0  0  0  0  0  0  0  0  0
   -1.0742    1.7990   -2.4035 H   0  0  0  0  0  0  0  0  0  0  0  0
    5.5641    0.8807    0.5157 C   0  0  0  0  0  0  0  0  0  0  0  0
    6.0960    0.9271    1.4779 H   0  0  0  0  0  0  0  0  0  0  0  0
    4.1944    0.7828   -1.9357 C   0  0  0  0  0  0  0  0  0  0  0  0
    3.6537    0.7424   -2.8937 H   0  0  0  0  0  0  0  0  0  0  0  0
    6.1999    1.3053   -0.6626 C   0  0  0  0  0  0  0  0  0  0  0  0
    7.2341    1.6795   -0.6260 H   0  0  0  0  0  0  0  0  0  0  0  0
    5.5148    1.2549   -1.8870 C   0  0  0  0  0  0  0  0  0  0  0  0
    6.0107    1.5870   -2.8115 H   0  0  0  0  0  0  0  0  0  0  0  0
    4.2485    0.3969    0.4723 C   0  0  0  0  0  0  0  0  0  0  0  0
    3.7378    0.0707    1.3922 H   0  0  0  0  0  0  0  0  0  0  0  0
    2.9467   -2.5423   -0.6362 C   0  0  0  0  0  0  0  0  0  0  0  0
    3.9774   -2.2067   -0.8164 H   0  0  0  0  0  0  0  0  0  0  0  0
    2.6414   -3.9024   -0.4792 C   0  0  0  0  0  0  0  0  0  0  0  0
    3.4398   -4.6579   -0.5274 H   0  0  0  0  0  0  0  0  0  0  0  0
    1.3102   -4.2825   -0.2657 C   0  0  0  0  0  0  0  0  0  0  0  0
    1.0278   -5.3377   -0.1404 H   0  0  0  0  0  0  0  0  0  0  0  0
   -2.0625    2.9083    0.6719 C   0  0  0  0  0  0  0  0  0  0  0  0
   -2.0123    4.0221    0.5872 H   0  0  0  0  0  0  0  0  0  0  0  0
   -1.6004    2.6434    1.6466 H   0  0  0  0  0  0  0  0  0  0  0  0
   -1.9034    3.8095   -2.2937 C   0  0  0  0  0  0  0  0  0  0  0  0
   -2.6095    4.4127   -1.6883 H   0  0  0  0  0  0  0  0  0  0  0  0
   -2.3101    3.7616   -3.3234 H   0  0  0  0  0  0  0  0  0  0  0  0
   -0.9438    4.3638   -2.3441 H   0  0  0  0  0  0  0  0  0  0  0  0
   -3.5132    2.4473    0.6585 C   0  0  0  0  0  0  0  0  0  0  0  0
   -4.0700    2.7994   -0.2326 H   0  0  0  0  0  0  0  0  0  0  0  0
   -4.0296    2.8491    1.5523 H   0  0  0  0  0  0  0  0  0  0  0  0
   -3.5903    1.3413    0.6881 H   0  0  0  0  0  0  0  0  0  0  0  0
    0.1707    2.7856   -0.2102 C   0  0  0  0  0  0  0  0  0  0  0  0
    0.4426    2.6416    0.8567 H   0  0  0  0  0  0  0  0  0  0  0  0
    0.2398    3.8797   -0.4232 H   0  0  0  0  0  0  0  0  0  0  0  0
  1  3  1  0  0  0  0
  2  4  1  0  0  0  0
  3  5  1  0  0  0  0
  3  2  2  0  0  0  0
  4  6  1  0  0  0  0
  5 23  1  0  0  0  0
  6  7  1  0  0  0  0
  8  1  1  0  0  0  0
  8 10  1  0  0  0  0
  8 42  1  0  0  0  0
  9  8  1  0  0  0  0
 11 42  1  0  0  0  0
 11 31  1  0  0  0  0
 12 11  1  0  0  0  0
 13 12  1  0  0  0  0
 14 12  1  0  0  0  0
 15 16  1  0  0  0  0
 17 21  1  0  0  0  0
 17  5  2  0  0  0  0
 18 17  1  0  0  0  0
 19 20  1  0  0  0  0
 19 15  1  0  0  0  0
 21 19  2  0  0  0  0
 22 21  1  0  0  0  0
 23 15  2  0  0  0  0
 23 24  1  0  0  0  0
 25  2  1  0  0  0  0
 25 27  2  0  0  0  0
 26 25  1  0  0  0  0
 27 29  1  0  0  0  0
 28 27  1  0  0  0  0
 29  6  2  0  0  0  0
 29 30  1  0  0  0  0
 31 33  1  0  0  0  0
 32 31  1  0  0  0  0
 34 12  1  0  0  0  0
 34 35  1  0  0  0  0
 36 34  1  0  0  0  0
 37 34  1  0  0  0  0
 38 31  1  0  0  0  0
 38 41  1  0  0  0  0
 38 40  1  0  0  0  0
 39 38  1  0  0  0  0
 42 43  1  0  0  0  0
 44 42  1  0  0  0  0
M  END
