8,31,56
q = 0.0, confidence = 0.942

 60 63  0  0  1  0  0  0  0  0999 V2000
    2.3026    1.5789   -0.7076 C   0  0  1  0  0  0  0  0  0  0  0  0
    1.4915    2.2194    0.4448 C   0  0  0  0  0  0  0  0  0  0  0  0
    2.1969    2.3979    1.2880 H   0  0  0  0  0  0  0  0  0  0  0  0
    1.1684    3.2209    0.1035 H   0  0  0  0  0  0  0  0  0  0  0  0
    0.3017    1.4710    0.9504 C   0  0  0  0  0  0  0  0  0  0  0  0
   -0.9536    1.9560    1.2966 C   0  0  0  0  0  0  0  0  0  0  0  0
   -1.3994    2.9543    1.2577 H   0  0  0  0  0  0  0  0  0  0  0  0
    0.2819    0.1216    1.2069 N   0  0  0  0  0  2  0  0  0  0  0  0
   -0.8998   -0.2432    1.6726 N   0  0  0  0  0  2  0  0  0  0  0  0
   -1.6389    0.8630    1.7340 N   0  0  0  0  0  0  0  0  0  0  0  0
   -3.0219    0.8016    2.2390 C   0  0  0  0  0  0  0  0  0  0  0  0
   -2.9980    0.9710    3.3343 H   0  0  0  0  0  0  0  0  0  0  0  0
   -3.3535   -0.2388    2.0557 H   0  0  0  0  0  0  0  0  0  0  0  0
   -3.9054    1.8093    1.5462 C   0  0  0  0  0  0  0  0  0  0  0  0
   -4.1842    1.6704    0.1709 C   0  0  0  0  0  0  0  0  0  0  0  0
   -3.7745    0.8142   -0.3870 H   0  0  0  0  0  0  0  0  0  0  0  0
   -4.9935    2.6090   -0.4817 C   0  0  0  0  0  0  0  0  0  0  0  0
   -5.2165    2.4861   -1.5523 H   0  0  0  0  0  0  0  0  0  0  0  0
   -5.5336    3.6931    0.2312 C   0  0  0  0  0  0  0  0  0  0  0  0
   -6.1737    4.4264   -0.2816 H   0  0  0  0  0  0  0  0  0  0  0  0
   -5.2613    3.8355    1.6002 C   0  0  0  0  0  0  0  0  0  0  0  0
   -5.6860    4.6795    2.1636 H   0  0  0  0  0  0  0  0  0  0  0  0
   -4.4469    2.8976    2.2551 C   0  0  0  0  0  0  0  0  0  0  0  0
   -4.2370    3.0084    3.3308 H   0  0  0  0  0  0  0  0  0  0  0  0
    1.4882    1.2779   -1.9898 C   0  0  0  0  0  0  0  0  0  0  0  0
    1.0345    2.2305   -2.3233 H   0  0  0  0  0  0  0  0  0  0  0  0
    2.2219    1.0122   -2.7849 H   0  0  0  0  0  0  0  0  0  0  0  0
    0.4422    0.2027   -1.9662 C   0  0  0  0  0  0  0  0  0  0  0  0
   -0.7257    0.1174   -2.7189 C   0  0  0  0  0  0  0  0  0  0  0  0
   -1.2076    0.8192   -3.4063 H   0  0  0  0  0  0  0  0  0  0  0  0
    0.5516   -0.9934   -1.2945 N   0  0  0  0  0  2  0  0  0  0  0  0
   -0.4554   -1.7900   -1.5979 N   0  0  0  0  0  2  0  0  0  0  0  0
   -1.2225   -1.1257   -2.4584 N   0  0  0  0  0  0  0  0  0  0  0  0
   -2.4758   -1.7412   -2.9156 C   0  0  0  0  0  0  0  0  0  0  0  0
   -2.2375   -2.8069   -3.1023 H   0  0  0  0  0  0  0  0  0  0  0  0
   -2.7371   -1.2745   -3.8832 H   0  0  0  0  0  0  0  0  0  0  0  0
   -3.6085   -1.6036   -1.9162 C   0  0  0  0  0  0  0  0  0  0  0  0
   -4.8209   -1.0029   -2.3067 C   0  0  0  0  0  0  0  0  0  0  0  0
   -4.9304   -0.6029   -3.3275 H   0  0  0  0  0  0  0  0  0  0  0  0
   -5.8980   -0.9276   -1.4094 C   0  0  0  0  0  0  0  0  0  0  0  0
   -6.8422   -0.4603   -1.7257 H   0  0  0  0  0  0  0  0  0  0  0  0
   -5.7684   -1.4474   -0.1130 C   0  0  0  0  0  0  0  0  0  0  0  0
   -6.6132   -1.3920    0.5893 H   0  0  0  0  0  0  0  0  0  0  0  0
   -4.5596   -2.0457    0.2824 C   0  0  0  0  0  0  0  0  0  0  0  0
   -4.4602   -2.4772    1.2903 H   0  0  0  0  0  0  0  0  0  0  0  0
   -3.4816   -2.1261   -0.6118 C   0  0  0  0  0  0  0  0  0  0  0  0
   -2.5427   -2.6075   -0.2976 H   0  0  0  0  0  0  0  0  0  0  0  0
    3.3318    2.6693   -1.1254 C   0  0  0  0  0  0  0  0  0  0  0  0
    5.6554    3.2379   -1.2062 C   0  0  0  0  0  0  0  0  0  0  0  0
    6.5364    2.6023   -1.4134 H   0  0  0  0  0  0  0  0  0  0  0  0
    5.3622    3.7798   -2.1266 H   0  0  0  0  0  0  0  0  0  0  0  0
    5.8883    4.1849   -0.0462 C   0  0  0  0  0  0  0  0  0  0  0  0
    6.7413    4.8516   -0.2828 H   0  0  0  0  0  0  0  0  0  0  0  0
    6.1360    3.6337    0.8823 H   0  0  0  0  0  0  0  0  0  0  0  0
    5.0013    4.8234    0.1321 H   0  0  0  0  0  0  0  0  0  0  0  0
    2.9763    0.3472   -0.2254 N   0  0  0  0  0  0  0  0  0  0  0  0
    3.6442    0.6163    0.5121 H   0  0  0  0  0  0  0  0  0  0  0  0
    3.5865   -0.0039   -0.9787 H   0  0  0  0  0  0  0  0  0  0  0  0
    2.9882    3.7353   -1.5939 O   0  0  0  0  0  0  0  0  0  0  0  0
    4.5932    2.2764   -0.8941 O   0  0  0  0  0  0  0  0  0  0  0  0
  1 48  1  6  0  0  0
  1 56  1  0  0  0  0
  1  2  1  0  0  0  0
  2  5  1  0  0  0  0
  2  3  1  0  0  0  0
  4  2  1  0  0  0  0
  5  8  1  0  0  0  0
  5  6  2  0  0  0  0
  6 10  1  0  0  0  0
  7  6  1  0  0  0  0
  8  9  1  0  0  0  0
  9 10  1  0  0  0  0
 10 11  1  0  0  0  0
 11 12  1  0  0  0  0
 13 11  1  0  0  0  0
 14 11  1  0  0  0  0
 14 23  1  0  0  0  0
 15 14  2  0  0  0  0
 16 15  1  0  0  0  0
 17 15  1  0  0  0  0
 17 19  2  0  0  0  0
 18 17  1  0  0  0  0
 19 21  1  0  0  0  0
 20 19  1  0  0  0  0
 21 22  1  0  0  0  0
 21 23  2  0  0  0  0
 23 24  1  0  0  0  0
 25 28  1  0  0  0  0
 25  1  1  0  0  0  0
 26 25  1  0  0  0  0
 27 25  1  0  0  0  0
 28 31  1  0  0  0  0
 29 33  1  0  0  0  0
 29 28  2  0  0  0  0
 30 29  1  0  0  0  0
 32 31  1  0  0  0  0
 33 32  1  0  0  0  0
 34 33  1  0  0  0  0
 34 37  1  0  0  0  0
 35 34  1  0  0  0  0
 36 34  1  0  0  0  0
 37 46  1  0  0  0  0
 38 37  2  0  0  0  0
 38 40  1  0  0  0  0
 39 38  1  0  0  0  0
 40 42  2  0  0  0  0
 41 40  1  0  0  0  0
 42 44  1  0  0  0  0
 42 43  1  0  0  0  0
 44 45  1  0  0  0  0
 46 47  1  0  0  0  0
 46 44  2  0  0  0  0
 48 60  1  0  0  0  0
 49 60  1  0  0  0  0
 49 52  1  0  0  0  0
 50 49  1  0  0  0  0
 51 49  1  0  0  0  0
 52 55  1  0  0  0  0
 52 54  1  0  0  0  0
 53 52  1  0  0  0  0
 56 57  1  0  0  0  0
 58 56  1  0  0  0  0
 59 48  2  0  0  0  0
M  END
