2,3,4
q = 0.0, confidence = 0.994

 44 46  0  0  1  0  0  0  0  0999 V2000
    2.1552   -2.1511   -0.4418 O   0  0  0  0  0  0  0  0  0  0  0  0
   -0.7252    1.5569    0.9201 N   0  0  0  0  0  2  0  0  0  0  0  0
    0.7596   -0.1947   -0.7094 N   0  0  0  0  0  0  0  0  0  0  0  0
   -1.1012   -1.3149    0.8593 N   0  0  0  0  0  2  0  0  0  0  0  0
    2.6655    1.2279   -0.3279 N   0  0  0  0  0  0  0  0  0  0  0  0
   -1.5758    2.5180    1.3173 C   0  0  0  0  0  3  0  0  0  0  0  0
   -2.6394    2.2250    1.3577 H   0  0  0  0  0  0  0  0  0  0  0  0
   -1.1456    3.8131    1.6334 C   0  0  0  0  0  0  0  0  0  0  0  0
   -1.8710    4.5760    1.9520 H   0  0  0  0  0  0  0  0  0  0  0  0
    0.2228    4.1057    1.5263 C   0  0  0  0  0  0  0  0  0  0  0  0
    0.6008    5.1121    1.7621 H   0  0  0  0  0  0  0  0  0  0  0  0
    1.1049    3.1011    1.0983 C   0  0  0  0  0  0  0  0  0  0  0  0
    2.1825    3.2749    0.9752 H   0  0  0  0  0  0  0  0  0  0  0  0
    0.5806    1.8362    0.7914 C   0  0  0  0  0  0  0  0  0  0  0  0
    1.4929    0.6931    0.3212 C   0  0  1  0  0  0  0  0  0  0  0  0
    1.7600    0.0644    1.1946 H   0  0  0  0  0  0  0  0  0  0  0  0
    0.8341   -1.6594   -0.4670 C   0  0  2  0  0  0  0  0  0  0  0  0
    0.2417   -2.0976   -1.3117 H   0  0  0  0  0  0  0  0  0  0  0  0
    0.0926   -1.9559    0.8085 C   0  0  2  0  0  3  0  0  0  0  0  0
    0.5327   -2.8075    1.8223 C   0  0  0  0  0  0  0  0  0  0  0  0
    1.5208   -3.2783    1.7273 H   0  0  0  0  0  0  0  0  0  0  0  0
   -0.3076   -3.0249    2.9266 C   0  0  0  0  0  0  0  0  0  0  0  0
    0.0037   -3.6908    3.7448 H   0  0  0  0  0  0  0  0  0  0  0  0
   -1.5542   -2.3786    2.9604 C   0  0  0  0  0  0  0  0  0  0  0  0
   -2.2488   -2.5264    3.7998 H   0  0  0  0  0  0  0  0  0  0  0  0
   -1.9220   -1.5263    1.9149 C   0  0  0  0  0  0  0  0  0  0  0  0
   -2.8888   -1.0033    1.8619 H   0  0  0  0  0  0  0  0  0  0  0  0
    1.3866    0.1559   -2.0247 C   0  0  0  0  0  0  0  0  0  0  0  0
    0.5961    0.3387   -2.7748 H   0  0  0  0  0  0  0  0  0  0  0  0
    2.0496   -0.6733   -2.3404 H   0  0  0  0  0  0  0  0  0  0  0  0
    2.2042    1.4142   -1.7091 C   0  0  0  0  0  0  0  0  0  0  0  0
    3.0554    1.5714   -2.3979 H   0  0  0  0  0  0  0  0  0  0  0  0
    1.5380    2.3015   -1.7592 H   0  0  0  0  0  0  0  0  0  0  0  0
    3.9187    0.4757   -0.1805 C   0  0  0  0  0  0  0  0  0  0  0  0
    4.6567    0.9766   -0.8411 H   0  0  0  0  0  0  0  0  0  0  0  0
    3.8241   -0.5795   -0.5293 H   0  0  0  0  0  0  0  0  0  0  0  0
    4.4373    0.4913    1.2532 C   0  0  0  0  0  0  0  0  0  0  0  0
    5.4256   -0.0068    1.3102 H   0  0  0  0  0  0  0  0  0  0  0  0
    3.7620   -0.0546    1.9439 H   0  0  0  0  0  0  0  0  0  0  0  0
    4.5437    1.5291    1.6288 H   0  0  0  0  0  0  0  0  0  0  0  0
    2.3639   -3.3098   -1.2399 C   0  0  0  0  0  0  0  0  0  0  0  0
    3.4436   -3.5472   -1.1886 H   0  0  0  0  0  0  0  0  0  0  0  0
    2.0784   -3.1360   -2.3015 H   0  0  0  0  0  0  0  0  0  0  0  0
    1.7865   -4.1831   -0.8614 H   0  0  0  0  0  0  0  0  0  0  0  0
  2  6  1  0  0  0  0
  3 17  1  0  0  0  0
  3 15  1  0  0  0  0
  4 26  1  0  0  0  0
  5 34  1  0  0  0  0
  5 15  1  0  0  0  0
  6  7  1  0  0  0  0
  6  8  1  0  0  0  0
  8  9  1  0  0  0  0
 10  8  2  0  0  0  0
 10 11  1  0  0  0  0
 12 10  1  0  0  0  0
 13 12  1  0  0  0  0
 14  2  1  0  0  0  0
 14 12  2  0  0  0  0
 15 14  1  0  0  0  0
 15 16  1  1  0  0  0
 17 18  1  6  0  0  0
 17  1  1  0  0  0  0
 19 17  1  6  0  0  0
 19  4  1  0  0  0  0
 19 20  1  0  0  0  0
 20 22  2  0  0  0  0
 21 20  1  0  0  0  0
 22 24  1  0  0  0  0
 22 23  1  0  0  0  0
 24 25  1  0  0  0  0
 26 24  2  0  0  0  0
 27 26  1  0  0  0  0
 28 31  1  0  0  0  0
 28  3  1  0  0  0  0
 29 28  1  0  0  0  0
 30 28  1  0  0  0  0
 31  5  1  0  0  0  0
 32 31  1  0  0  0  0
 33 31  1  0  0  0  0
 34 37  1  0  0  0  0
 35 34  1  0  0  0  0
 36 34  1  0  0  0  0
 37 38  1  0  0  0  0
 37 40  1  0  0  0  0
 37 39  1  0  0  0  0
 41 42  1  0  0  0  0
 41 44  1  0  0  0  0
 41  1  1  0  0  0  0
 43 41  1  0  0  0  0
M  END
