2,3,4
q = 0.0, confidence = 0.996

 43 46  0  0  1  0  0  0  0  0999 V2000
   -8.3113   -0.3643   -0.1747 O   0  0  0  0  0  0  0  0  0  0  0  0
    1.6960    2.0287   -0.0546 N   0  0  0  0  0  2  0  0  0  0  0  0
    0.1337   -0.0229   -0.0133 N   0  0  0  0  0  2  0  0  0  0  0  0
    1.8105   -1.9811    0.0679 N   0  0  0  0  0  2  0  0  0  0  0  0
    2.6170    3.0124   -0.0757 C   0  0  0  0  0  3  0  0  0  0  0  0
    3.6614    2.6602   -0.0519 H   0  0  0  0  0  0  0  0  0  0  0  0
    2.2435    4.3586   -0.1240 C   0  0  0  0  0  0  0  0  0  0  0  0
    3.0213    5.1348   -0.1403 H   0  0  0  0  0  0  0  0  0  0  0  0
    0.8790    4.6900   -0.1510 C   0  0  0  0  0  0  0  0  0  0  0  0
    0.5582    5.7412   -0.1898 H   0  0  0  0  0  0  0  0  0  0  0  0
   -0.0737    3.6650   -0.1285 C   0  0  0  0  0  0  0  0  0  0  0  0
   -1.1476    3.8957   -0.1492 H   0  0  0  0  0  0  0  0  0  0  0  0
    0.3484    2.3274   -0.0798 C   0  0  0  0  0  0  0  0  0  0  0  0
   -0.5487    1.1578   -0.0527 C   0  0  1  0  0  3  0  0  0  0  0  0
   -1.9471    1.1324   -0.0734 C   0  0  0  0  0  0  0  0  0  0  0  0
   -2.5095    2.0734   -0.1377 H   0  0  0  0  0  0  0  0  0  0  0  0
   -2.6410   -0.1034   -0.0516 C   0  0  0  0  0  0  0  0  0  0  0  0
   -1.8775   -1.2970   -0.0106 C   0  0  0  0  0  0  0  0  0  0  0  0
   -2.3858   -2.2692    0.0369 H   0  0  0  0  0  0  0  0  0  0  0  0
   -0.4799   -1.2412    0.0077 C   0  0  0  0  0  0  0  0  0  0  0  0
    0.4822   -2.3570    0.0585 C   0  0  2  0  0  3  0  0  0  0  0  0
    0.1366   -3.7168    0.0964 C   0  0  0  0  0  0  0  0  0  0  0  0
   -0.9224   -4.0091    0.0894 H   0  0  0  0  0  0  0  0  0  0  0  0
    1.1458   -4.6852    0.1437 C   0  0  0  0  0  0  0  0  0  0  0  0
    0.8851   -5.7532    0.1743 H   0  0  0  0  0  0  0  0  0  0  0  0
    2.4892   -4.2758    0.1517 C   0  0  0  0  0  0  0  0  0  0  0  0
    3.3098   -5.0059    0.1879 H   0  0  0  0  0  0  0  0  0  0  0  0
    2.7857   -2.9102    0.1127 C   0  0  0  0  0  0  0  0  0  0  0  0
    3.8084   -2.4988    0.1153 H   0  0  0  0  0  0  0  0  0  0  0  0
   -4.1183   -0.1473   -0.0711 C   0  0  0  0  0  0  0  0  0  0  0  0
   -4.8904    0.8660    0.5366 C   0  0  0  0  0  0  0  0  0  0  0  0
   -4.3871    1.6900    1.0646 H   0  0  0  0  0  0  0  0  0  0  0  0
   -6.2909    0.8336    0.5283 C   0  0  0  0  0  0  0  0  0  0  0  0
   -6.8486    1.6360    1.0287 H   0  0  0  0  0  0  0  0  0  0  0  0
   -6.9631   -0.2334   -0.1050 C   0  0  0  0  0  0  0  0  0  0  0  0
   -6.2059   -1.2559   -0.7205 C   0  0  0  0  0  0  0  0  0  0  0  0
   -6.7446   -2.0727   -1.2219 H   0  0  0  0  0  0  0  0  0  0  0  0
   -4.8140   -1.2108   -0.6994 C   0  0  0  0  0  0  0  0  0  0  0  0
   -4.2490   -2.0029   -1.2133 H   0  0  0  0  0  0  0  0  0  0  0  0
   -9.1212    0.6369    0.4163 C   0  0  0  0  0  0  0  0  0  0  0  0
   -8.9470    1.6347   -0.0448 H   0  0  0  0  0  0  0  0  0  0  0  0
  -10.1697    0.3360    0.2376 H   0  0  0  0  0  0  0  0  0  0  0  0
   -8.9488    0.7140    1.5131 H   0  0  0  0  0  0  0  0  0  0  0  0
  1 35  1  0  0  0  0
  1 40  1  0  0  0  0
  3 20  1  0  0  0  0
  4 28  1  0  0  0  0
  5  2  1  0  0  0  0
  5  6  1  0  0  0  0
  7  5  1  0  0  0  0
  8  7  1  0  0  0  0
  9 11  1  0  0  0  0
  9  7  2  0  0  0  0
 10  9  1  0  0  0  0
 11 13  2  0  0  0  0
 12 11  1  0  0  0  0
 13  2  1  0  0  0  0
 14 13  1  6  0  0  0
 14  3  1  0  0  0  0
 15 14  1  0  0  0  0
 15 17  2  0  0  0  0
 16 15  1  0  0  0  0
 17 18  1  0  0  0  0
 18 20  2  0  0  0  0
 18 19  1  0  0  0  0
 21 20  1  1  0  0  0
 21  4  1  0  0  0  0
 21 22  1  0  0  0  0
 22 24  2  0  0  0  0
 23 22  1  0  0  0  0
 24 26  1  0  0  0  0
 24 25  1  0  0  0  0
 26 27  1  0  0  0  0
 28 29  1  0  0  0  0
 28 26  2  0  0  0  0
 30 17  1  0  0  0  0
 30 31  1  0  0  0  0
 31 32  1  0  0  0  0
 33 31  2  0  0  0  0
 33 34  1  0  0  0  0
 35 33  1  0  0  0  0
 36 38  1  0  0  0  0
 36 35  2  0  0  0  0
 37 36  1  0  0  0  0
 38 30  2  0  0  0  0
 39 38  1  0  0  0  0
 40 43  1  0  0  0  0
 41 40  1  0  0  0  0
 42 40  1  0  0  0  0
M  END
