1,2,3
q = 0.0, confidence = 0.998

 39 39  0  0  1  0  0  0  0  0999 V2000
    0.2976   -2.1063   -0.3799 N   0  0  0  0  0  0  0  0  0  0  0  0
    1.4238    0.3487   -0.2684 N   0  0  0  0  0  2  0  0  0  0  0  0
   -0.5507    2.1304   -0.6824 N   0  0  0  0  0  0  0  0  0  0  0  0
    1.6617   -2.0074    0.1904 C   0  0  2  0  0  0  0  0  0  0  0  0
    1.4895   -1.8790    1.2866 H   0  0  0  0  0  0  0  0  0  0  0  0
    2.2845   -0.6856   -0.2432 C   0  0  2  0  0  3  0  0  0  0  0  0
    3.6435   -0.4824   -0.5292 C   0  0  0  0  0  0  0  0  0  0  0  0
    4.3497   -1.3227   -0.5236 H   0  0  0  0  0  0  0  0  0  0  0  0
    4.0821    0.8187   -0.8251 C   0  0  0  0  0  0  0  0  0  0  0  0
    5.1400    1.0004   -1.0681 H   0  0  0  0  0  0  0  0  0  0  0  0
    3.1714    1.8827   -0.8034 C   0  0  0  0  0  0  0  0  0  0  0  0
    3.4898    2.9146   -1.0126 H   0  0  0  0  0  0  0  0  0  0  0  0
    1.8276    1.6044   -0.5040 C   0  0  0  0  0  0  0  0  0  0  0  0
    0.7679    2.6824   -0.3033 C   0  0  2  0  0  0  0  0  0  0  0  0
    1.0183    3.5457   -0.9697 H   0  0  0  0  0  0  0  0  0  0  0  0
   -0.5430   -3.0898    0.3142 C   0  0  0  0  0  0  0  0  0  0  0  0
   -0.1928   -4.1370    0.1583 H   0  0  0  0  0  0  0  0  0  0  0  0
   -1.5766   -2.9943   -0.0721 H   0  0  0  0  0  0  0  0  0  0  0  0
   -0.5593   -2.8543    1.3964 H   0  0  0  0  0  0  0  0  0  0  0  0
    0.2840   -2.3175   -1.8321 C   0  0  0  0  0  0  0  0  0  0  0  0
    0.6264   -3.3386   -2.1189 H   0  0  0  0  0  0  0  0  0  0  0  0
    0.9391   -1.5741   -2.3295 H   0  0  0  0  0  0  0  0  0  0  0  0
   -0.7512   -2.1633   -2.1959 H   0  0  0  0  0  0  0  0  0  0  0  0
    2.5639   -3.2234   -0.0339 C   0  0  0  0  0  0  0  0  0  0  0  0
    2.0451   -4.1525    0.2705 H   0  0  0  0  0  0  0  0  0  0  0  0
    3.4802   -3.1506    0.5837 H   0  0  0  0  0  0  0  0  0  0  0  0
    2.8710   -3.3304   -1.0935 H   0  0  0  0  0  0  0  0  0  0  0  0
    0.8499    3.1571    1.1561 C   0  0  0  0  0  0  0  0  0  0  0  0
    0.1953    4.0311    1.3339 H   0  0  0  0  0  0  0  0  0  0  0  0
    1.8897    3.4623    1.3831 H   0  0  0  0  0  0  0  0  0  0  0  0
    0.5646    2.3350    1.8454 H   0  0  0  0  0  0  0  0  0  0  0  0
   -0.6524    2.0559   -2.1471 C   0  0  0  0  0  0  0  0  0  0  0  0
   -0.6608    3.0733   -2.6065 H   0  0  0  0  0  0  0  0  0  0  0  0
   -1.5751    1.5083   -2.4190 H   0  0  0  0  0  0  0  0  0  0  0  0
    0.2114    1.4962   -2.5581 H   0  0  0  0  0  0  0  0  0  0  0  0
   -1.7090    2.8361   -0.1202 C   0  0  0  0  0  0  0  0  0  0  0  0
   -1.7393    3.9094   -0.4256 H   0  0  0  0  0  0  0  0  0  0  0  0
   -1.7075    2.7609    0.9824 H   0  0  0  0  0  0  0  0  0  0  0  0
   -2.6209    2.3256   -0.4856 H   0  0  0  0  0  0  0  0  0  0  0  0
  1  4  1  0  0  0  0
  1 16  1  0  0  0  0
  2  6  1  0  0  0  0
  3 14  1  0  0  0  0
  3 36  1  0  0  0  0
  4  5  1  1  0  0  0
  6  4  1  1  0  0  0
  7  8  1  0  0  0  0
  7  6  1  0  0  0  0
  9 11  1  0  0  0  0
  9  7  2  0  0  0  0
 10  9  1  0  0  0  0
 11 13  2  0  0  0  0
 12 11  1  0  0  0  0
 13 14  1  0  0  0  0
 13  2  1  0  0  0  0
 14 15  1  6  0  0  0
 14 28  1  0  0  0  0
 16 19  1  0  0  0  0
 17 16  1  0  0  0  0
 18 16  1  0  0  0  0
 20  1  1  0  0  0  0
 21 20  1  0  0  0  0
 22 20  1  0  0  0  0
 23 20  1  0  0  0  0
 24  4  1  0  0  0  0
 24 25  1  0  0  0  0
 24 26  1  0  0  0  0
 27 24  1  0  0  0  0
 28 29  1  0  0  0  0
 28 30  1  0  0  0  0
 28 31  1  0  0  0  0
 32  3  1  0  0  0  0
 33 32  1  0  0  0  0
 34 32  1  0  0  0  0
 35 32  1  0  0  0  0
 36 38  1  0  0  0  0
 37 36  1  0  0  0  0
 39 36  1  0  0  0  0
M  END
