5,6,8
q = 0.0, confidence = 0.992

 40 40  0  0  1  0  0  0  0  0999 V2000
    2.6202   -2.6085   -0.4201 O   0  0  0  0  0  0  0  0  0  0  0  0
    3.2862    1.5077   -1.5246 O   0  0  0  0  0  0  0  0  0  0  0  0
    0.4576    2.6815    1.6796 O   0  0  0  0  0  0  0  0  0  0  0  0
   -0.1784   -1.2884    2.8074 O   0  0  0  0  0  0  0  0  0  0  0  0
    1.3831   -2.2495    0.1064 N   0  0  0  0  0  2  0  0  0  0  0  0
    2.6123    0.3031   -1.5619 N   0  0  0  0  0  2  0  0  0  0  0  0
    0.7958    2.4528    0.3679 N   0  0  0  0  0  0  0  0  0  0  0  0
   -0.1263   -0.0712    2.1063 N   0  0  0  0  0  2  0  0  0  0  0  0
    2.7637   -2.0618   -1.7402 C   0  0  0  0  0  0  0  0  0  0  0  0
    3.4199   -0.7038   -1.7080 C   0  0  2  0  0  3  0  0  0  0  0  0
    4.9090   -0.5468   -1.7713 C   0  0  0  0  0  0  0  0  0  0  0  0
    2.3669    2.6131   -1.3744 C   0  0  0  0  0  0  0  0  0  0  0  0
    1.9980    2.8376    0.0656 C   0  0  0  0  0  0  0  0  0  0  0  0
    2.9978    3.4161    1.0197 C   0  0  0  0  0  0  0  0  0  0  0  0
   -0.8606    2.2024    1.9607 C   0  0  0  0  0  0  0  0  0  0  0  0
   -0.8820    0.8386    2.6279 C   0  0  1  0  0  3  0  0  0  0  0  0
   -1.8544    0.6371    3.7464 C   0  0  0  0  0  0  0  0  0  0  0  0
   -0.1768   -2.3936    1.8867 C   0  0  0  0  0  0  0  0  0  0  0  0
    1.1914   -2.6740    1.3182 C   0  0  2  0  0  3  0  0  0  0  0  0
    2.2100   -3.3835    2.1547 C   0  0  0  0  0  0  0  0  0  0  0  0
    1.7645   -2.0053   -2.2188 H   0  0  0  0  0  0  0  0  0  0  0  0
    3.3997   -2.7837   -2.2889 H   0  0  0  0  0  0  0  0  0  0  0  0
    5.1942    0.0947   -2.6312 H   0  0  0  0  0  0  0  0  0  0  0  0
    5.4180   -1.5235   -1.8598 H   0  0  0  0  0  0  0  0  0  0  0  0
    5.2790   -0.0210   -0.8665 H   0  0  0  0  0  0  0  0  0  0  0  0
    1.4582    2.4301   -1.9820 H   0  0  0  0  0  0  0  0  0  0  0  0
    2.9258    3.4795   -1.7820 H   0  0  0  0  0  0  0  0  0  0  0  0
    2.7749    3.1072    2.0573 H   0  0  0  0  0  0  0  0  0  0  0  0
    2.9793    4.5272    0.9859 H   0  0  0  0  0  0  0  0  0  0  0  0
    4.0199    3.0905    0.7416 H   0  0  0  0  0  0  0  0  0  0  0  0
   -1.4570    2.1491    1.0252 H   0  0  0  0  0  0  0  0  0  0  0  0
   -1.3169    2.9489    2.6403 H   0  0  0  0  0  0  0  0  0  0  0  0
   -1.7367    1.4169    4.5255 H   0  0  0  0  0  0  0  0  0  0  0  0
   -1.7594   -0.3656    4.1935 H   0  0  0  0  0  0  0  0  0  0  0  0
   -2.8695    0.7387    3.3039 H   0  0  0  0  0  0  0  0  0  0  0  0
   -0.9269   -2.2255    1.0843 H   0  0  0  0  0  0  0  0  0  0  0  0
   -0.4969   -3.2530    2.5102 H   0  0  0  0  0  0  0  0  0  0  0  0
    3.2353   -3.2209    1.7777 H   0  0  0  0  0  0  0  0  0  0  0  0
    2.0125   -4.4773    2.1629 H   0  0  0  0  0  0  0  0  0  0  0  0
    2.1280   -3.0267    3.2010 H   0  0  0  0  0  0  0  0  0  0  0  0
  1  5  1  0  0  0  0
  2 12  1  0  0  0  0
  3 15  1  0  0  0  0
  5 19  1  0  0  0  0
  6  2  1  0  0  0  0
  7  3  1  0  0  0  0
  8 16  1  0  0  0  0
  8  4  1  0  0  0  0
  9 10  1  0  0  0  0
  9  1  1  0  0  0  0
 10 11  1  1  0  0  0
 10  6  1  0  0  0  0
 11 25  1  0  0  0  0
 12 13  1  0  0  0  0
 13  7  2  0  0  0  0
 13 14  1  0  0  0  0
 14 28  1  0  0  0  0
 15 16  1  0  0  0  0
 15 32  1  0  0  0  0
 16 17  1  6  0  0  0
 17 34  1  0  0  0  0
 17 33  1  0  0  0  0
 18 37  1  0  0  0  0
 18  4  1  0  0  0  0
 19 18  1  0  0  0  0
 19 20  1  1  0  0  0
 20 39  1  0  0  0  0
 20 40  1  0  0  0  0
 21  9  1  0  0  0  0
 22  9  1  0  0  0  0
 23 11  1  0  0  0  0
 24 11  1  0  0  0  0
 26 12  1  0  0  0  0
 27 12  1  0  0  0  0
 29 14  1  0  0  0  0
 30 14  1  0  0  0  0
 31 15  1  0  0  0  0
 35 17  1  0  0  0  0
 36 18  1  0  0  0  0
 38 20  1  0  0  0  0
M  END
