1,3,5
q = 0.0, confidence = 0.996

 35 34  0  0  1  0  0  0  0  0999 V2000
   -0.5784    0.0058    2.0662 N   0  0  0  0  0  0  0  0  0  0  0  0
    0.1801   -0.6521    2.3055 H   0  0  0  0  0  0  0  0  0  0  0  0
    0.5247    1.7755   -0.0202 N   0  0  0  0  0  0  0  0  0  0  0  0
    3.0538   -0.1557   -0.2530 N   0  0  0  0  0  0  0  0  0  0  0  0
    1.1380   -1.4219    0.1608 N   0  0  0  0  0  2  0  0  0  0  0  0
    0.8840   -2.3683    0.4648 H   0  0  0  0  0  0  0  0  0  0  0  0
   -0.0955    1.3745    2.3716 C   0  0  0  0  0  0  0  0  0  0  0  0
    0.2851    1.4439    3.4146 H   0  0  0  0  0  0  0  0  0  0  0  0
   -0.9667    2.0569    2.3086 H   0  0  0  0  0  0  0  0  0  0  0  0
    0.9973    1.7901    1.3990 C   0  0  0  0  0  0  0  0  0  0  0  0
    1.3717    2.8052    1.6630 H   0  0  0  0  0  0  0  0  0  0  0  0
    1.8567    1.0960    1.4759 H   0  0  0  0  0  0  0  0  0  0  0  0
    1.6899    1.8904   -0.9507 C   0  0  0  0  0  0  0  0  0  0  0  0
    2.4058    2.6369   -0.5359 H   0  0  0  0  0  0  0  0  0  0  0  0
    1.3092    2.3150   -1.9001 H   0  0  0  0  0  0  0  0  0  0  0  0
    2.3984    0.5943   -1.3259 C   0  0  0  0  0  0  0  0  0  0  0  0
    1.6873   -0.0848   -1.8312 H   0  0  0  0  0  0  0  0  0  0  0  0
    3.1769    0.8543   -2.0730 H   0  0  0  0  0  0  0  0  0  0  0  0
   -1.7734   -0.3594    2.8622 C   0  0  0  0  0  0  0  0  0  0  0  0
   -1.5941   -0.2249    3.9498 H   0  0  0  0  0  0  0  0  0  0  0  0
   -2.0425   -1.4124    2.6623 H   0  0  0  0  0  0  0  0  0  0  0  0
   -2.6241    0.2778    2.5562 H   0  0  0  0  0  0  0  0  0  0  0  0
   -0.3427    2.9628   -0.2636 C   0  0  0  0  0  0  0  0  0  0  0  0
    0.2469    3.9007   -0.1641 H   0  0  0  0  0  0  0  0  0  0  0  0
   -1.1789    2.9907    0.4556 H   0  0  0  0  0  0  0  0  0  0  0  0
   -0.7694    2.9027   -1.2807 H   0  0  0  0  0  0  0  0  0  0  0  0
    4.4666    0.1399   -0.0286 C   0  0  0  0  0  0  0  0  0  0  0  0
    4.7928   -0.1848    0.9746 H   0  0  0  0  0  0  0  0  0  0  0  0
    4.6212    1.2345   -0.0882 H   0  0  0  0  0  0  0  0  0  0  0  0
    5.1174   -0.3422   -0.7907 H   0  0  0  0  0  0  0  0  0  0  0  0
    2.4448   -1.2572    0.2665 C   0  0  2  0  0  3  0  0  0  0  0  0
    3.3010   -2.2822    0.9663 C   0  0  0  0  0  0  0  0  0  0  0  0
    3.7103   -1.8827    1.9170 H   0  0  0  0  0  0  0  0  0  0  0  0
    4.1626   -2.5889    0.3411 H   0  0  0  0  0  0  0  0  0  0  0  0
    2.7058   -3.1806    1.2110 H   0  0  0  0  0  0  0  0  0  0  0  0
  1  2  1  0  0  0  0
  1  7  1  0  0  0  0
  1 19  1  0  0  0  0
  3 10  1  0  0  0  0
  4 27  1  0  0  0  0
  4 31  1  0  0  0  0
  5  6  1  0  0  0  0
  7  8  1  0  0  0  0
  9  7  1  0  0  0  0
 10 12  1  0  0  0  0
 10 11  1  0  0  0  0
 10  7  1  0  0  0  0
 13 14  1  0  0  0  0
 13  3  1  0  0  0  0
 15 13  1  0  0  0  0
 16 13  1  0  0  0  0
 16  4  1  0  0  0  0
 17 16  1  0  0  0  0
 18 16  1  0  0  0  0
 19 20  1  0  0  0  0
 21 19  1  0  0  0  0
 22 19  1  0  0  0  0
 23 24  1  0  0  0  0
 23  3  1  0  0  0  0
 23 25  1  0  0  0  0
 26 23  1  0  0  0  0
 27 28  1  0  0  0  0
 29 27  1  0  0  0  0
 30 27  1  0  0  0  0
 31  5  1  1  0  0  0
 31 32  1  0  0  0  0
 32 35  1  0  0  0  0
 32 33  1  0  0  0  0
 34 32  1  0  0  0  0
M  END
