1,2,3
q = 0.0, confidence = 0.926

 62 65  0  0  1  0  0  0  0  0999 V2000
   -4.7000   -1.6655    0.1592 N   0  0  0  0  0  2  0  0  0  0  0  0
   -2.7240   -0.0221   -0.0325 N   0  0  0  0  0  2  0  0  0  0  0  0
   -3.9372    2.2519   -0.0632 N   0  0  0  0  0  2  0  0  0  0  0  0
   -5.7617   -2.4945    0.2620 C   0  0  0  0  0  3  0  0  0  0  0  0
   -6.7543   -2.0261    0.3034 H   0  0  0  0  0  0  0  0  0  0  0  0
   -5.5903   -3.8823    0.3122 C   0  0  0  0  0  0  0  0  0  0  0  0
   -6.4729   -4.5386    0.3959 H   0  0  0  0  0  0  0  0  0  0  0  0
   -4.3819   -4.4702    0.2628 N   0  0  0  0  0  0  0  0  0  0  0  0
   -3.3320   -3.6474    0.1614 C   0  0  0  0  0  0  0  0  0  0  0  0
   -2.3330   -4.1140    0.1200 H   0  0  0  0  0  0  0  0  0  0  0  0
   -3.4475   -2.2476    0.1071 C   0  0  0  0  0  0  0  0  0  0  0  0
   -2.3170   -1.3124   -0.0041 C   0  0  2  0  0  3  0  0  0  0  0  0
   -0.9485   -1.6099   -0.0679 C   0  0  0  0  0  0  0  0  0  0  0  0
   -0.6069   -2.6517   -0.0121 H   0  0  0  0  0  0  0  0  0  0  0  0
   -0.0027   -0.5593   -0.1646 C   0  0  0  0  0  0  0  0  0  0  0  0
   -0.4844    0.7730   -0.1937 C   0  0  0  0  0  0  0  0  0  0  0  0
    0.2199    1.6080   -0.3015 H   0  0  0  0  0  0  0  0  0  0  0  0
   -1.8627    1.0179   -0.1232 C   0  0  0  0  0  0  0  0  0  0  0  0
   -2.5588    2.3139   -0.1441 C   0  0  1  0  0  3  0  0  0  0  0  0
   -1.9266    3.5657   -0.2382 C   0  0  0  0  0  0  0  0  0  0  0  0
   -0.8263    3.6170   -0.3032 H   0  0  0  0  0  0  0  0  0  0  0  0
   -2.5899    4.7274   -0.2546 N   0  0  0  0  0  0  0  0  0  0  0  0
   -3.9297    4.6432   -0.1752 C   0  0  0  0  0  0  0  0  0  0  0  0
   -4.5008    5.5868   -0.1867 H   0  0  0  0  0  0  0  0  0  0  0  0
   -4.6093    3.4238   -0.0801 C   0  0  0  0  0  0  0  0  0  0  0  0
   -5.7043    3.3685   -0.0158 H   0  0  0  0  0  0  0  0  0  0  0  0
    1.4453   -0.8447   -0.2317 C   0  0  0  0  0  0  0  0  0  0  0  0
    1.9343   -2.0286   -0.8395 C   0  0  0  0  0  0  0  0  0  0  0  0
    1.2297   -2.7360   -1.3018 H   0  0  0  0  0  0  0  0  0  0  0  0
    3.2985   -2.2989   -0.9063 C   0  0  0  0  0  0  0  0  0  0  0  0
    3.6785   -3.2085   -1.3930 H   0  0  0  0  0  0  0  0  0  0  0  0
    4.2353   -1.3930   -0.3567 C   0  0  0  0  0  0  0  0  0  0  0  0
    5.5378   -1.7416   -0.4664 O   0  0  0  0  0  0  0  0  0  0  0  0
    3.7683   -0.2100    0.2574 C   0  0  0  0  0  0  0  0  0  0  0  0
    4.4673    0.5067    0.7075 H   0  0  0  0  0  0  0  0  0  0  0  0
    2.3936    0.0502    0.3093 C   0  0  0  0  0  0  0  0  0  0  0  0
    2.0514    0.9628    0.8201 H   0  0  0  0  0  0  0  0  0  0  0  0
    6.5398   -0.8676    0.0549 C   0  0  0  0  0  0  0  0  0  0  0  0
    6.3816   -0.7190    1.1488 H   0  0  0  0  0  0  0  0  0  0  0  0
    6.4598    0.1331   -0.4308 H   0  0  0  0  0  0  0  0  0  0  0  0
    7.9008   -1.4885   -0.2124 C   0  0  0  0  0  0  0  0  0  0  0  0
    7.9294   -2.4964    0.2547 H   0  0  0  0  0  0  0  0  0  0  0  0
    8.0083   -1.6500   -1.3066 H   0  0  0  0  0  0  0  0  0  0  0  0
    9.0543   -0.6289    0.3102 C   0  0  0  0  0  0  0  0  0  0  0  0
    8.9341   -0.4683    1.4059 H   0  0  0  0  0  0  0  0  0  0  0  0
    8.9956    0.3817   -0.1507 H   0  0  0  0  0  0  0  0  0  0  0  0
   10.4325   -1.2438    0.0421 C   0  0  0  0  0  0  0  0  0  0  0  0
   10.4542   -2.2687    0.4730 H   0  0  0  0  0  0  0  0  0  0  0  0
   10.5643   -1.3766   -1.0557 H   0  0  0  0  0  0  0  0  0  0  0  0
   11.6129   -0.4397    0.6019 C   0  0  0  0  0  0  0  0  0  0  0  0
   11.4859   -0.3178    1.7018 H   0  0  0  0  0  0  0  0  0  0  0  0
   12.5436   -1.0347    0.4736 H   0  0  0  0  0  0  0  0  0  0  0  0
   11.8185    0.9375   -0.0380 C   0  0  0  0  0  0  0  0  0  0  0  0
   10.9170    1.5707    0.1199 H   0  0  0  0  0  0  0  0  0  0  0  0
   11.9101    0.8181   -1.1421 H   0  0  0  0  0  0  0  0  0  0  0  0
   13.0456    1.6844    0.4939 C   0  0  0  0  0  0  0  0  0  0  0  0
   12.9537    1.7939    1.5977 H   0  0  0  0  0  0  0  0  0  0  0  0
   13.9511    1.0579    0.3320 H   0  0  0  0  0  0  0  0  0  0  0  0
   13.2484    3.0586   -0.1450 C   0  0  0  0  0  0  0  0  0  0  0  0
   13.3789    2.9768   -1.2445 H   0  0  0  0  0  0  0  0  0  0  0  0
   14.1431    3.5731    0.2598 H   0  0  0  0  0  0  0  0  0  0  0  0
   12.3741    3.7195    0.0332 H   0  0  0  0  0  0  0  0  0  0  0  0
  1  4  1  0  0  0  0
  2 12  1  0  0  0  0
  4  5  1  0  0  0  0
  4  6  1  0  0  0  0
  6  7  1  0  0  0  0
  8  6  2  0  0  0  0
  9  8  1  0  0  0  0
 10  9  1  0  0  0  0
 11  1  1  0  0  0  0
 11  9  2  0  0  0  0
 12 11  1  1  0  0  0
 13 14  1  0  0  0  0
 13 12  1  0  0  0  0
 15 13  2  0  0  0  0
 16 15  1  0  0  0  0
 16 18  2  0  0  0  0
 17 16  1  0  0  0  0
 18  2  1  0  0  0  0
 19 18  1  6  0  0  0
 19  3  1  0  0  0  0
 20 19  1  0  0  0  0
 21 20  1  0  0  0  0
 22 20  2  0  0  0  0
 22 23  1  0  0  0  0
 23 25  2  0  0  0  0
 24 23  1  0  0  0  0
 25  3  1  0  0  0  0
 25 26  1  0  0  0  0
 27 15  1  0  0  0  0
 27 36  1  0  0  0  0
 28 27  2  0  0  0  0
 29 28  1  0  0  0  0
 30 28  1  0  0  0  0
 30 32  2  0  0  0  0
 31 30  1  0  0  0  0
 32 34  1  0  0  0  0
 33 32  1  0  0  0  0
 33 38  1  0  0  0  0
 34 36  2  0  0  0  0
 34 35  1  0  0  0  0
 36 37  1  0  0  0  0
 38 39  1  0  0  0  0
 40 38  1  0  0  0  0
 41 38  1  0  0  0  0
 41 42  1  0  0  0  0
 41 44  1  0  0  0  0
 43 41  1  0  0  0  0
 44 45  1  0  0  0  0
 46 44  1  0  0  0  0
 47 44  1  0  0  0  0
 47 48  1  0  0  0  0
 47 50  1  0  0  0  0
 49 47  1  0  0  0  0
 50 51  1  0  0  0  0
 52 50  1  0  0  0  0
 53 54  1  0  0  0  0
 53 56  1  0  0  0  0
 53 50  1  0  0  0  0
 55 53  1  0  0  0  0
 56 57  1  0  0  0  0
 58 56  1  0  0  0  0
 59 62  1  0  0  0  0
 59 61  1  0  0  0  0
 59 56  1  0  0  0  0
 60 59  1  0  0  0  0
M  END
