4,5,6
q = 0.0, confidence = 0.992

 60 63  0  0  1  0  0  0  0  0999 V2000
   -3.8102    0.4791    2.7503 O   0  0  0  0  0  0  0  0  0  0  0  0
   -0.0034    4.5636   -1.0282 O   0  0  0  0  0  0  0  0  0  0  0  0
    3.8121    0.4835    2.7477 O   0  0  0  0  0  0  0  0  0  0  0  0
   -1.5579   -2.2123   -1.0379 N   0  0  0  0  0  2  0  0  0  0  0  0
   -0.0006   -0.3706   -2.7427 N   0  0  0  0  0  2  0  0  0  0  0  0
    1.5597   -2.2106   -1.0388 N   0  0  0  0  0  2  0  0  0  0  0  0
    1.3070   -3.1467   -2.1336 C   0  0  2  0  0  0  0  0  0  0  0  0
    2.1470   -3.8773   -2.1820 H   0  0  0  0  0  0  0  0  0  0  0  0
    1.2633   -2.3803   -3.4739 C   0  0  0  0  0  0  0  0  0  0  0  0
    2.1718   -1.7536   -3.5751 H   0  0  0  0  0  0  0  0  0  0  0  0
    1.2871   -3.1249   -4.2968 H   0  0  0  0  0  0  0  0  0  0  0  0
    0.0015   -3.9431   -1.9124 C   0  0  0  0  0  0  0  0  0  0  0  0
    0.0018   -4.7841   -2.6365 H   0  0  0  0  0  0  0  0  0  0  0  0
    0.0021   -4.3904   -0.8983 H   0  0  0  0  0  0  0  0  0  0  0  0
   -0.0002   -1.5139   -3.6603 C   0  0  1  0  0  0  0  0  0  0  0  0
   -0.0007   -1.1338   -4.7081 H   0  0  0  0  0  0  0  0  0  0  0  0
   -1.2627   -2.3816   -3.4732 C   0  0  0  0  0  0  0  0  0  0  0  0
   -2.1719   -1.7560   -3.5740 H   0  0  0  0  0  0  0  0  0  0  0  0
   -1.2861   -3.1263   -4.2961 H   0  0  0  0  0  0  0  0  0  0  0  0
   -1.3048   -3.1481   -2.1329 C   0  0  2  0  0  0  0  0  0  0  0  0
   -2.1441   -3.8795   -2.1808 H   0  0  0  0  0  0  0  0  0  0  0  0
    2.6830   -2.2674   -0.3789 C   0  0  0  0  0  0  0  0  0  0  0  0
    3.4053   -3.0793   -0.6201 H   0  0  0  0  0  0  0  0  0  0  0  0
    3.0477   -1.3300    0.6391 C   0  0  0  0  0  0  0  0  0  0  0  0
    2.3822   -0.4728    0.8143 H   0  0  0  0  0  0  0  0  0  0  0  0
    4.1947   -1.4688    1.3799 C   0  0  0  0  0  3  0  0  0  0  0  0
    4.8677   -2.3221    1.1920 H   0  0  0  0  0  0  0  0  0  0  0  0
   -2.6808   -2.2701   -0.3775 C   0  0  0  0  0  0  0  0  0  0  0  0
   -3.4027   -3.0826   -0.6186 H   0  0  0  0  0  0  0  0  0  0  0  0
   -3.0458   -1.3332    0.6408 C   0  0  0  0  0  0  0  0  0  0  0  0
   -2.3807   -0.4756    0.8160 H   0  0  0  0  0  0  0  0  0  0  0  0
   -4.1923   -1.4730    1.3822 C   0  0  0  0  0  3  0  0  0  0  0  0
   -4.8649   -2.3267    1.1944 H   0  0  0  0  0  0  0  0  0  0  0  0
   -0.0016    0.8364   -3.2382 C   0  0  0  0  0  0  0  0  0  0  0  0
   -0.0021    0.9555   -4.3463 H   0  0  0  0  0  0  0  0  0  0  0  0
   -0.0022    2.0359   -2.4537 C   0  0  0  0  0  0  0  0  0  0  0  0
   -0.0016    1.9547   -1.3533 H   0  0  0  0  0  0  0  0  0  0  0  0
   -0.0033    3.2664   -3.0659 C   0  0  0  0  0  3  0  0  0  0  0  0
   -0.0038    3.3255   -4.1677 H   0  0  0  0  0  0  0  0  0  0  0  0
    4.6114   -0.5908    2.4226 C   0  0  0  0  0  0  0  0  0  0  0  0
    5.6101    0.5391    4.1078 C   0  0  0  0  0  0  0  0  0  0  0  0
    6.3043    0.8643    4.8899 H   0  0  0  0  0  0  0  0  0  0  0  0
    4.4220    1.1512    3.7569 C   0  0  0  0  0  0  0  0  0  0  0  0
    3.8997    2.0396    4.1279 H   0  0  0  0  0  0  0  0  0  0  0  0
    5.7356   -0.5872    3.2479 C   0  0  0  0  0  0  0  0  0  0  0  0
    6.5500   -1.3199    3.2228 H   0  0  0  0  0  0  0  0  0  0  0  0
   -4.6090   -0.5956    2.4254 C   0  0  0  0  0  0  0  0  0  0  0  0
   -5.7326   -0.5930    3.2514 C   0  0  0  0  0  0  0  0  0  0  0  0
   -6.5466   -1.3262    3.2267 H   0  0  0  0  0  0  0  0  0  0  0  0
   -5.6073    0.5332    4.1116 C   0  0  0  0  0  0  0  0  0  0  0  0
   -6.3012    0.8576    4.8943 H   0  0  0  0  0  0  0  0  0  0  0  0
   -0.0039    4.5288   -2.4042 C   0  0  0  0  0  0  0  0  0  0  0  0
   -0.0051    5.8358   -2.8930 C   0  0  0  0  0  0  0  0  0  0  0  0
   -0.0057    6.1238   -3.9502 H   0  0  0  0  0  0  0  0  0  0  0  0
   -4.4199    1.1461    3.7601 C   0  0  0  0  0  0  0  0  0  0  0  0
   -3.8979    2.0348    4.1310 H   0  0  0  0  0  0  0  0  0  0  0  0
   -0.0042    5.8650   -0.6563 C   0  0  0  0  0  0  0  0  0  0  0  0
   -0.0039    6.0555    0.4223 H   0  0  0  0  0  0  0  0  0  0  0  0
   -0.0052    6.6964   -1.7607 C   0  0  0  0  0  0  0  0  0  0  0  0
   -0.0060    7.7915   -1.7523 H   0  0  0  0  0  0  0  0  0  0  0  0
  1 55  1  0  0  0  0
  2 57  1  0  0  0  0
  3 43  1  0  0  0  0
  4 28  1  0  0  0  0
  6 22  1  0  0  0  0
  7  8  1  6  0  0  0
  7 12  1  0  0  0  0
  7  6  1  0  0  0  0
  9  7  1  0  0  0  0
 10  9  1  0  0  0  0
 11  9  1  0  0  0  0
 12 14  1  0  0  0  0
 13 12  1  0  0  0  0
 15 16  1  6  0  0  0
 15  9  1  0  0  0  0
 15 17  1  0  0  0  0
 15  5  1  0  0  0  0
 17 20  1  0  0  0  0
 18 17  1  0  0  0  0
 19 17  1  0  0  0  0
 20 21  1  6  0  0  0
 20 12  1  0  0  0  0
 20  4  1  0  0  0  0
 22 24  2  0  0  0  0
 23 22  1  0  0  0  0
 24 25  1  0  0  0  0
 24 26  1  0  0  0  0
 26 40  1  0  0  0  0
 27 26  1  0  0  0  0
 28 30  2  0  0  0  0
 29 28  1  0  0  0  0
 30 31  1  0  0  0  0
 30 32  1  0  0  0  0
 32 47  1  0  0  0  0
 33 32  1  0  0  0  0
 34  5  1  0  0  0  0
 34 36  2  0  0  0  0
 35 34  1  0  0  0  0
 36 37  1  0  0  0  0
 38 36  1  0  0  0  0
 38 52  1  0  0  0  0
 39 38  1  0  0  0  0
 40  3  1  0  0  0  0
 40 45  2  0  0  0  0
 41 42  1  0  0  0  0
 43 41  2  0  0  0  0
 43 44  1  0  0  0  0
 45 41  1  0  0  0  0
 46 45  1  0  0  0  0
 47  1  1  0  0  0  0
 47 48  2  0  0  0  0
 48 50  1  0  0  0  0
 49 48  1  0  0  0  0
 50 51  1  0  0  0  0
 52  2  1  0  0  0  0
 53 52  2  0  0  0  0
 53 59  1  0  0  0  0
 54 53  1  0  0  0  0
 55 50  2  0  0  0  0
 55 56  1  0  0  0  0
 57 58  1  0  0  0  0
 59 60  1  0  0  0  0
 59 57  2  0  0  0  0
M  END
