1,2,3
q = -1.0, confidence = 0.06

 69 71  0  0  0  0  0  0  0  0999 V2000
   -1.9888   -0.8520    0.0715 N   0  0  0  0  0  0  0  0  0  0  0  0
   -0.0980    1.3704    0.0054 N   0  0  0  0  0  0  0  0  0  0  0  0
    2.0568   -0.5664   -0.3405 N   0  0  0  0  0  0  0  0  0  0  0  0
   -2.7379   -1.9371   -0.2072 C   0  0  0  0  0  0  0  0  0  0  0  0
   -4.1499   -1.6416   -0.0319 C   0  0  0  0  0  0  0  0  0  0  0  0
   -4.2386   -0.3079    0.3452 C   0  0  0  0  0  0  0  0  0  0  0  0
   -2.8750    0.1938    0.3646 C   0  0  0  0  0  3  0  0  0  0  0  0
   -2.5126    1.5250    0.4746 C   0  0  0  0  0  3  0  0  0  0  0  0
   -3.3229    2.2326    0.7038 H   0  0  0  0  0  0  0  0  0  0  0  0
   -1.2309    2.0901    0.2960 C   0  0  0  0  0  3  0  0  0  0  0  0
   -0.9015    3.4909    0.4668 C   0  0  0  0  0  0  0  0  0  0  0  0
    0.4792    3.5902    0.3126 C   0  0  0  0  0  0  0  0  0  0  0  0
    0.9581    2.2467    0.0535 C   0  0  0  0  0  0  0  0  0  0  0  0
    2.3152    1.8689   -0.0504 C   0  0  0  0  0  3  0  0  0  0  0  0
    3.0478    2.6886   -0.0075 H   0  0  0  0  0  0  0  0  0  0  0  0
    2.8313    0.5966   -0.2240 C   0  0  0  0  0  3  0  0  0  0  0  0
    4.2208    0.2816   -0.5127 C   0  0  0  0  0  0  0  0  0  0  0  0
    4.2439   -1.0605   -0.8680 C   0  0  0  0  0  0  0  0  0  0  0  0
    2.8768   -1.5460   -0.7689 C   0  0  0  0  0  0  0  0  0  0  0  0
   -2.2280   -3.2496   -0.6946 C   0  0  0  0  0  0  0  0  0  0  0  0
   -1.1737   -3.1861   -1.0108 H   0  0  0  0  0  0  0  0  0  0  0  0
   -2.8532   -3.6022   -1.5409 H   0  0  0  0  0  0  0  0  0  0  0  0
   -2.2809   -4.0189    0.1029 H   0  0  0  0  0  0  0  0  0  0  0  0
   -5.2682   -2.6137   -0.2768 C   0  0  0  0  0  0  0  0  0  0  0  0
   -4.9481   -3.6316    0.0318 H   0  0  0  0  0  0  0  0  0  0  0  0
   -6.1245   -2.3541    0.3814 H   0  0  0  0  0  0  0  0  0  0  0  0
   -5.7502   -2.6540   -1.7374 C   0  0  0  0  0  0  0  0  0  0  0  0
   -6.1300   -1.6632   -2.0585 H   0  0  0  0  0  0  0  0  0  0  0  0
   -6.5660   -3.3931   -1.8712 H   0  0  0  0  0  0  0  0  0  0  0  0
   -4.9279   -2.9284   -2.4289 H   0  0  0  0  0  0  0  0  0  0  0  0
   -5.4722    0.5118    0.5827 C   0  0  0  0  0  0  0  0  0  0  0  0
   -5.2948    1.2215    1.4193 H   0  0  0  0  0  0  0  0  0  0  0  0
   -6.2873   -0.1596    0.9261 H   0  0  0  0  0  0  0  0  0  0  0  0
   -5.9495    1.2933   -0.6548 C   0  0  0  0  0  0  0  0  0  0  0  0
   -5.1713    1.9992   -1.0099 H   0  0  0  0  0  0  0  0  0  0  0  0
   -6.8652    1.8771   -0.4307 H   0  0  0  0  0  0  0  0  0  0  0  0
   -6.1771    0.6076   -1.4953 H   0  0  0  0  0  0  0  0  0  0  0  0
   -1.8902    4.5944    0.7069 C   0  0  0  0  0  0  0  0  0  0  0  0
   -2.6404    4.2727    1.4615 H   0  0  0  0  0  0  0  0  0  0  0  0
   -1.3646    5.4599    1.1621 H   0  0  0  0  0  0  0  0  0  0  0  0
   -2.6156    5.0535   -0.5697 C   0  0  0  0  0  0  0  0  0  0  0  0
   -1.8925    5.4182   -1.3269 H   0  0  0  0  0  0  0  0  0  0  0  0
   -3.3313    5.8729   -0.3546 H   0  0  0  0  0  0  0  0  0  0  0  0
   -3.1805    4.2185   -1.0327 H   0  0  0  0  0  0  0  0  0  0  0  0
    1.3288    4.8270    0.3509 C   0  0  0  0  0  0  0  0  0  0  0  0
    0.8113    5.6045    0.9512 H   0  0  0  0  0  0  0  0  0  0  0  0
    2.2772    4.6178    0.8914 H   0  0  0  0  0  0  0  0  0  0  0  0
    1.6496    5.3903   -1.0441 C   0  0  0  0  0  0  0  0  0  0  0  0
    2.1932    4.6460   -1.6612 H   0  0  0  0  0  0  0  0  0  0  0  0
    2.2757    6.3032   -0.9768 H   0  0  0  0  0  0  0  0  0  0  0  0
    0.7200    5.6507   -1.5894 H   0  0  0  0  0  0  0  0  0  0  0  0
    5.3715    1.2372   -0.4123 C   0  0  0  0  0  0  0  0  0  0  0  0
    5.0803    2.2262   -0.8279 H   0  0  0  0  0  0  0  0  0  0  0  0
    6.2024    0.8754   -1.0535 H   0  0  0  0  0  0  0  0  0  0  0  0
    5.8802    1.4204    1.0285 C   0  0  0  0  0  0  0  0  0  0  0  0
    5.0785    1.8079    1.6890 H   0  0  0  0  0  0  0  0  0  0  0  0
    6.7317    2.1298    1.0663 H   0  0  0  0  0  0  0  0  0  0  0  0
    6.2177    0.4542    1.4546 H   0  0  0  0  0  0  0  0  0  0  0  0
    5.4290   -1.9014   -1.2418 C   0  0  0  0  0  0  0  0  0  0  0  0
    6.2386   -1.2446   -1.6244 H   0  0  0  0  0  0  0  0  0  0  0  0
    5.1600   -2.5736   -2.0852 H   0  0  0  0  0  0  0  0  0  0  0  0
    5.9665   -2.7464   -0.0739 C   0  0  0  0  0  0  0  0  0  0  0  0
    6.2872   -2.0993    0.7674 H   0  0  0  0  0  0  0  0  0  0  0  0
    6.8356   -3.3597   -0.3875 H   0  0  0  0  0  0  0  0  0  0  0  0
    5.1890   -3.4327    0.3180 H   0  0  0  0  0  0  0  0  0  0  0  0
    2.4557   -2.9118   -1.1885 C   0  0  0  0  0  0  0  0  0  0  0  0
    2.7278   -3.6707   -0.4272 H   0  0  0  0  0  0  0  0  0  0  0  0
    2.9733   -3.1836   -2.1325 H   0  0  0  0  0  0  0  0  0  0  0  0
    1.3639   -2.9750   -1.3308 H   0  0  0  0  0  0  0  0  0  0  0  0
  1  7  1  0  0  0  0
  2 13  2  0  0  0  0
  2 10  1  0  0  0  0
  3 16  1  0  0  0  0
  4  5  1  0  0  0  0
  4  1  2  0  0  0  0
  5  6  2  0  0  0  0
  6  7  1  0  0  0  0
  6 31  1  0  0  0  0
  7  8  1  0  0  0  0
  8  9  1  0  0  0  0
 10 11  1  0  0  0  0
 10  8  1  0  0  0  0
 11 38  1  0  0  0  0
 12 45  1  0  0  0  0
 12 11  2  0  0  0  0
 13 12  1  0  0  0  0
 14 15  1  0  0  0  0
 14 13  1  0  0  0  0
 16 14  1  0  0  0  0
 17 52  1  0  0  0  0
 17 16  1  0  0  0  0
 18 19  1  0  0  0  0
 18 17  2  0  0  0  0
 19  3  2  0  0  0  0
 20  4  1  0  0  0  0
 20 23  1  0  0  0  0
 21 20  1  0  0  0  0
 22 20  1  0  0  0  0
 24  5  1  0  0  0  0
 24 25  1  0  0  0  0
 24 26  1  0  0  0  0
 27 24  1  0  0  0  0
 28 27  1  0  0  0  0
 29 27  1  0  0  0  0
 30 27  1  0  0  0  0
 31 33  1  0  0  0  0
 31 32  1  0  0  0  0
 34 36  1  0  0  0  0
 34 31  1  0  0  0  0
 35 34  1  0  0  0  0
 37 34  1  0  0  0  0
 38 40  1  0  0  0  0
 38 39  1  0  0  0  0
 41 43  1  0  0  0  0
 41 38  1  0  0  0  0
 42 41  1  0  0  0  0
 44 41  1  0  0  0  0
 45 47  1  0  0  0  0
 45 46  1  0  0  0  0
 48 50  1  0  0  0  0
 48 45  1  0  0  0  0
 49 48  1  0  0  0  0
 51 48  1  0  0  0  0
 52 55  1  0  0  0  0
 53 52  1  0  0  0  0
 54 52  1  0  0  0  0
 55 57  1  0  0  0  0
 55 58  1  0  0  0  0
 55 56  1  0  0  0  0
 59 18  1  0  0  0  0
 59 62  1  0  0  0  0
 60 59  1  0  0  0  0
 61 59  1  0  0  0  0
 62 65  1  0  0  0  0
 62 63  1  0  0  0  0
 64 62  1  0  0  0  0
 66 19  1  0  0  0  0
 66 67  1  0  0  0  0
 68 66  1  0  0  0  0
 69 66  1  0  0  0  0
M  END
