2,4,5
q = -1.0, confidence = 0.0

 45 46  0  0  1  0  0  0  0  0999 V2000
    6.5763   -0.3326   -0.1113 Cl  0  0  0  0  0  0  0  0  0  0  0  0
    0.7404    0.9417    0.0184 N   0  0  0  0  0  2  0  0  0  0  0  0
    0.5079    2.1979    0.0433 N   0  0  0  0  0  0  0  0  0  0  0  0
   -2.0832    0.7976   -0.4551 N   0  0  0  0  0  2  0  0  0  0  0  0
   -2.2400   -1.9420   -0.0502 N   0  0  0  0  0  0  0  0  0  0  0  0
    4.8717    0.0377   -0.0698 C   0  0  0  0  0  0  0  0  0  0  0  0
    4.4049    1.0626    0.7709 C   0  0  0  0  0  0  0  0  0  0  0  0
    5.1140    1.6175    1.4008 H   0  0  0  0  0  0  0  0  0  0  0  0
    3.0387    1.3592    0.7982 C   0  0  0  0  0  0  0  0  0  0  0  0
    2.6497    2.1600    1.4414 H   0  0  0  0  0  0  0  0  0  0  0  0
    2.1383    0.6235    0.0046 C   0  0  0  0  0  0  0  0  0  0  0  0
    2.6158   -0.4019   -0.8310 C   0  0  0  0  0  0  0  0  0  0  0  0
    1.9067   -0.9623   -1.4541 H   0  0  0  0  0  0  0  0  0  0  0  0
    3.9830   -0.6910   -0.8777 C   0  0  0  0  0  0  0  0  0  0  0  0
    4.3660   -1.4837   -1.5346 H   0  0  0  0  0  0  0  0  0  0  0  0
   -0.7173    2.7821   -0.0077 C   0  0  0  0  0  0  0  0  0  0  0  0
   -0.6758    4.2025    0.1544 C   0  0  0  0  0  0  0  0  0  0  0  0
    0.3196    4.6380    0.3213 H   0  0  0  0  0  0  0  0  0  0  0  0
   -1.8152    4.9847    0.1118 C   0  0  0  0  0  0  0  0  0  0  0  0
   -1.7572    6.0733    0.2513 H   0  0  0  0  0  0  0  0  0  0  0  0
   -3.0633    4.3504   -0.1213 C   0  0  0  0  0  0  0  0  0  0  0  0
   -3.9838    4.9542   -0.1566 H   0  0  0  0  0  0  0  0  0  0  0  0
   -3.1546    2.9799   -0.3073 C   0  0  0  0  0  0  0  0  0  0  0  0
   -4.1426    2.5362   -0.4822 H   0  0  0  0  0  0  0  0  0  0  0  0
   -1.9986    2.1221   -0.2643 C   0  0  1  0  0  3  0  0  0  0  0  0
   -3.3875    0.1799   -0.6473 C   0  0  0  0  0  0  0  0  0  0  0  0
   -3.9443    0.6560   -1.4864 H   0  0  0  0  0  0  0  0  0  0  0  0
   -4.0263    0.3148    0.2593 H   0  0  0  0  0  0  0  0  0  0  0  0
   -3.2104   -1.2928   -0.9719 C   0  0  0  0  0  0  0  0  0  0  0  0
   -4.1884   -1.8235   -0.9563 H   0  0  0  0  0  0  0  0  0  0  0  0
   -2.7956   -1.3883   -1.9922 H   0  0  0  0  0  0  0  0  0  0  0  0
   -2.7329   -2.0316    1.3633 C   0  0  0  0  0  0  0  0  0  0  0  0
   -2.9122   -0.9955    1.7120 H   0  0  0  0  0  0  0  0  0  0  0  0
   -1.8671   -2.4078    1.9442 H   0  0  0  0  0  0  0  0  0  0  0  0
   -3.9742   -2.8914    1.5978 C   0  0  0  0  0  0  0  0  0  0  0  0
   -4.2285   -2.8582    2.6756 H   0  0  0  0  0  0  0  0  0  0  0  0
   -3.8121   -3.9546    1.3333 H   0  0  0  0  0  0  0  0  0  0  0  0
   -4.8626   -2.5269    1.0432 H   0  0  0  0  0  0  0  0  0  0  0  0
   -1.8489   -3.2938   -0.5556 C   0  0  0  0  0  0  0  0  0  0  0  0
   -2.7754   -3.8959   -0.6912 H   0  0  0  0  0  0  0  0  0  0  0  0
   -1.2440   -3.7521    0.2501 H   0  0  0  0  0  0  0  0  0  0  0  0
   -1.0257   -3.2873   -1.8357 C   0  0  0  0  0  0  0  0  0  0  0  0
   -0.7810   -4.3335   -2.1070 H   0  0  0  0  0  0  0  0  0  0  0  0
   -0.0747   -2.7457   -1.6672 H   0  0  0  0  0  0  0  0  0  0  0  0
   -1.5533   -2.8395   -2.7010 H   0  0  0  0  0  0  0  0  0  0  0  0
  1  6  1  0  0  0  0
  2  3  1  0  0  0  0
  5 32  1  0  0  0  0
  6  7  1  0  0  0  0
  7  9  2  0  0  0  0
  7  8  1  0  0  0  0
  9 10  1  0  0  0  0
 11  2  1  0  0  0  0
 11  9  1  0  0  0  0
 12 11  2  0  0  0  0
 13 12  1  0  0  0  0
 14 12  1  0  0  0  0
 14  6  2  0  0  0  0
 15 14  1  0  0  0  0
 16  3  2  0  0  0  0
 16 17  1  0  0  0  0
 17 18  1  0  0  0  0
 19 17  2  0  0  0  0
 19 20  1  0  0  0  0
 21 19  1  0  0  0  0
 22 21  1  0  0  0  0
 23 25  1  0  0  0  0
 23 21  2  0  0  0  0
 24 23  1  0  0  0  0
 25  4  1  6  0  0  0
 25 16  1  0  0  0  0
 26  4  1  0  0  0  0
 26 28  1  0  0  0  0
 27 26  1  0  0  0  0
 29 30  1  0  0  0  0
 29 26  1  0  0  0  0
 29  5  1  0  0  0  0
 31 29  1  0  0  0  0
 32 35  1  0  0  0  0
 32 33  1  0  0  0  0
 32 34  1  0  0  0  0
 35 36  1  0  0  0  0
 37 35  1  0  0  0  0
 38 35  1  0  0  0  0
 39  5  1  0  0  0  0
 39 41  1  0  0  0  0
 40 39  1  0  0  0  0
 42 44  1  0  0  0  0
 42 39  1  0  0  0  0
 43 42  1  0  0  0  0
 45 42  1  0  0  0  0
M  END
