1,3,5
q = -1.0, confidence = 0.0

 35 38  0  0  0  0  0  0  0  0999 V2000
   -0.3445    2.2255   -0.0074 N   0  0  0  0  0  2  0  0  0  0  0  0
   -2.7611    2.2815   -0.3230 N   0  0  0  0  0  2  0  0  0  0  0  0
   -2.0939   -0.0441   -0.2227 N   0  0  0  0  0  0  0  0  0  0  0  0
   -2.2629   -2.4575   -0.1158 N   0  0  0  0  0  0  0  0  0  0  0  0
    0.0364   -1.8903   -0.7110 N   0  0  0  0  0  2  0  0  0  0  0  0
    0.7455    2.9746    0.3110 C   0  0  0  0  0  3  0  0  0  0  0  0
    0.7613    4.3657    0.2937 C   0  0  0  0  0  0  0  0  0  0  0  0
   -0.4156    5.0529   -0.0601 C   0  0  0  0  0  0  0  0  0  0  0  0
   -1.5574    4.3049   -0.3068 C   0  0  0  0  0  0  0  0  0  0  0  0
   -1.5389    2.8813   -0.2382 C   0  0  0  0  0  0  0  0  0  0  0  0
   -2.9962    0.9989   -0.2455 C   0  0  0  0  0  0  0  0  0  0  0  0
   -4.3566    0.4335   -0.1215 C   0  0  0  0  0  3  0  0  0  0  0  0
   -5.6183    1.0330   -0.0891 C   0  0  0  0  0  0  0  0  0  0  0  0
   -6.7360    0.1910    0.0636 C   0  0  0  0  0  0  0  0  0  0  0  0
   -6.5854   -1.2068    0.1785 C   0  0  0  0  0  0  0  0  0  0  0  0
   -5.3125   -1.8062    0.1408 C   0  0  0  0  0  0  0  0  0  0  0  0
   -4.2060   -0.9652   -0.0061 C   0  0  0  0  0  0  0  0  0  0  0  0
   -2.7580   -1.2444   -0.1101 C   0  0  0  0  0  0  0  0  0  0  0  0
   -0.9803   -2.7897   -0.4468 C   0  0  0  0  0  0  0  0  0  0  0  0
   -0.7305   -4.1889   -0.5532 C   0  0  0  0  0  0  0  0  0  0  0  0
    0.4897   -4.6719   -1.0040 C   0  0  0  0  0  0  0  0  0  0  0  0
    1.4708   -3.7359   -1.3788 C   0  0  0  0  0  0  0  0  0  0  0  0
    1.1979   -2.3809   -1.2220 C   0  0  0  0  0  0  0  0  0  0  0  0
    1.6356    2.4119    0.6138 H   0  0  0  0  0  0  0  0  0  0  0  0
    1.6874    4.8951    0.5571 H   0  0  0  0  0  0  0  0  0  0  0  0
   -0.4405    6.1517   -0.1095 H   0  0  0  0  0  0  0  0  0  0  0  0
   -2.5304    4.7631   -0.5283 H   0  0  0  0  0  0  0  0  0  0  0  0
   -5.7175    2.1241   -0.1848 H   0  0  0  0  0  0  0  0  0  0  0  0
   -7.7459    0.6278    0.0915 H   0  0  0  0  0  0  0  0  0  0  0  0
   -7.4801   -1.8371    0.2960 H   0  0  0  0  0  0  0  0  0  0  0  0
   -5.1769   -2.8947    0.2210 H   0  0  0  0  0  0  0  0  0  0  0  0
   -1.5699   -4.8479   -0.2946 H   0  0  0  0  0  0  0  0  0  0  0  0
    0.6709   -5.7535   -1.0908 H   0  0  0  0  0  0  0  0  0  0  0  0
    2.4451   -4.0431   -1.7825 H   0  0  0  0  0  0  0  0  0  0  0  0
    1.9414   -1.6326   -1.5143 H   0  0  0  0  0  0  0  0  0  0  0  0
  1  6  1  0  0  0  0
  2 11  1  0  0  0  0
  2 10  1  0  0  0  0
  3 18  1  0  0  0  0
  4 18  1  0  0  0  0
  5 19  1  0  0  0  0
  6 24  1  0  0  0  0
  7  6  1  0  0  0  0
  7 25  1  0  0  0  0
  8  7  2  0  0  0  0
  9 10  2  0  0  0  0
  9  8  1  0  0  0  0
 10  1  1  0  0  0  0
 11  3  2  0  0  0  0
 11 12  1  0  0  0  0
 12 13  1  0  0  0  0
 12 17  1  0  0  0  0
 13 14  2  0  0  0  0
 14 29  1  0  0  0  0
 14 15  1  0  0  0  0
 15 30  1  0  0  0  0
 16 15  2  0  0  0  0
 16 31  1  0  0  0  0
 17 16  1  0  0  0  0
 18 17  2  0  0  0  0
 19  4  2  0  0  0  0
 20 19  1  0  0  0  0
 20 32  1  0  0  0  0
 21 20  2  0  0  0  0
 22 23  2  0  0  0  0
 22 21  1  0  0  0  0
 23  5  1  0  0  0  0
 26  8  1  0  0  0  0
 27  9  1  0  0  0  0
 28 13  1  0  0  0  0
 33 21  1  0  0  0  0
 34 22  1  0  0  0  0
 35 23  1  0  0  0  0
M  END
