1,2,3
q = 0.0, confidence = 0.992

 79 81  0  0  1  0  0  0  0  0999 V2000
   -2.2462   -0.1923    0.5192 N   0  0  0  0  0  2  0  0  0  0  0  0
    0.0000   -1.1227    1.6597 N   0  0  0  0  0  2  0  0  0  0  0  0
    2.2462   -0.1921    0.5193 N   0  0  0  0  0  2  0  0  0  0  0  0
   -2.4097   -1.0086    1.5061 C   0  0  0  0  0  0  0  0  0  0  0  0
   -1.1701   -1.5888    2.1193 C   0  0  0  0  0  0  0  0  0  0  0  0
   -1.2103   -2.5828    3.1204 C   0  0  0  0  0  0  0  0  0  0  0  0
   -2.1673   -2.9691    3.4945 H   0  0  0  0  0  0  0  0  0  0  0  0
    0.0000   -3.0808    3.6193 C   0  0  0  0  0  0  0  0  0  0  0  0
    0.0000   -3.8623    4.3933 H   0  0  0  0  0  0  0  0  0  0  0  0
    1.2103   -2.5828    3.1204 C   0  0  0  0  0  0  0  0  0  0  0  0
    2.1674   -2.9690    3.4946 H   0  0  0  0  0  0  0  0  0  0  0  0
    1.1701   -1.5889    2.1193 C   0  0  0  0  0  0  0  0  0  0  0  0
    2.4097   -1.0086    1.5060 C   0  0  1  0  0  3  0  0  0  0  0  0
   -3.7459   -1.4078    2.0683 C   0  0  0  0  0  0  0  0  0  0  0  0
   -4.5514   -0.7969    1.6220 H   0  0  0  0  0  0  0  0  0  0  0  0
   -3.7669   -1.2935    3.1705 H   0  0  0  0  0  0  0  0  0  0  0  0
   -3.9569   -2.4739    1.8412 H   0  0  0  0  0  0  0  0  0  0  0  0
    3.7460   -1.4081    2.0680 C   0  0  0  0  0  0  0  0  0  0  0  0
    4.5515   -0.7974    1.6216 H   0  0  0  0  0  0  0  0  0  0  0  0
    3.9567   -2.4742    1.8413 H   0  0  0  0  0  0  0  0  0  0  0  0
    3.7670   -1.2934    3.1702 H   0  0  0  0  0  0  0  0  0  0  0  0
   -3.3143    0.4320   -0.1689 C   0  0  0  0  0  0  0  0  0  0  0  0
   -3.4882    1.8288    0.0389 C   0  0  0  0  0  0  0  0  0  0  0  0
   -4.5115    2.4771   -0.6701 C   0  0  0  0  0  0  0  0  0  0  0  0
   -4.6718    3.5541   -0.5176 H   0  0  0  0  0  0  0  0  0  0  0  0
   -5.3188    1.7768   -1.5778 C   0  0  0  0  0  0  0  0  0  0  0  0
   -6.1130    2.3032   -2.1282 H   0  0  0  0  0  0  0  0  0  0  0  0
   -5.0974    0.4137   -1.8006 C   0  0  0  0  0  0  0  0  0  0  0  0
   -5.7115   -0.1225   -2.5406 H   0  0  0  0  0  0  0  0  0  0  0  0
   -4.0913   -0.2918   -1.1122 C   0  0  0  0  0  0  0  0  0  0  0  0
   -2.6062    2.5569    1.0444 C   0  0  0  0  0  0  0  0  0  0  0  0
   -1.6304    2.0253    1.0361 H   0  0  0  0  0  0  0  0  0  0  0  0
   -3.1919    2.4530    2.4648 C   0  0  0  0  0  0  0  0  0  0  0  0
   -2.5171    2.9284    3.2065 H   0  0  0  0  0  0  0  0  0  0  0  0
   -3.3477    1.3998    2.7746 H   0  0  0  0  0  0  0  0  0  0  0  0
   -4.1760    2.9633    2.5221 H   0  0  0  0  0  0  0  0  0  0  0  0
   -2.3171    4.0122    0.6629 C   0  0  0  0  0  0  0  0  0  0  0  0
   -1.8833    4.0646   -0.3541 H   0  0  0  0  0  0  0  0  0  0  0  0
   -1.5807    4.4491    1.3680 H   0  0  0  0  0  0  0  0  0  0  0  0
   -3.2266    4.6472    0.7061 H   0  0  0  0  0  0  0  0  0  0  0  0
   -3.8123   -1.7517   -1.4538 C   0  0  0  0  0  0  0  0  0  0  0  0
   -2.9986   -2.1182   -0.7960 H   0  0  0  0  0  0  0  0  0  0  0  0
   -3.2793   -1.8790   -2.8921 C   0  0  0  0  0  0  0  0  0  0  0  0
   -3.0189   -2.9334   -3.1143 H   0  0  0  0  0  0  0  0  0  0  0  0
   -2.3577   -1.2812   -3.0261 H   0  0  0  0  0  0  0  0  0  0  0  0
   -4.0325   -1.5406   -3.6337 H   0  0  0  0  0  0  0  0  0  0  0  0
   -5.0453   -2.6444   -1.2347 C   0  0  0  0  0  0  0  0  0  0  0  0
   -4.7943   -3.7075   -1.4267 H   0  0  0  0  0  0  0  0  0  0  0  0
   -5.8718   -2.3713   -1.9231 H   0  0  0  0  0  0  0  0  0  0  0  0
   -5.4383   -2.5642   -0.2008 H   0  0  0  0  0  0  0  0  0  0  0  0
    3.3142    0.4323   -0.1688 C   0  0  0  0  0  0  0  0  0  0  0  0
    4.0915   -0.2913   -1.1120 C   0  0  0  0  0  0  0  0  0  0  0  0
    5.0975    0.4144   -1.8003 C   0  0  0  0  0  0  0  0  0  0  0  0
    5.7117   -0.1216   -2.5403 H   0  0  0  0  0  0  0  0  0  0  0  0
    5.3186    1.7776   -1.5774 C   0  0  0  0  0  0  0  0  0  0  0  0
    6.1128    2.3042   -2.1278 H   0  0  0  0  0  0  0  0  0  0  0  0
    4.5111    2.4776   -0.6698 C   0  0  0  0  0  0  0  0  0  0  0  0
    4.6711    3.5547   -0.5172 H   0  0  0  0  0  0  0  0  0  0  0  0
    3.4878    1.8292    0.0391 C   0  0  0  0  0  0  0  0  0  0  0  0
    3.8130   -1.7513   -1.4536 C   0  0  0  0  0  0  0  0  0  0  0  0
    2.9991   -2.1180   -0.7962 H   0  0  0  0  0  0  0  0  0  0  0  0
    3.2806   -1.8788   -2.8922 C   0  0  0  0  0  0  0  0  0  0  0  0
    3.0206   -2.9332   -3.1145 H   0  0  0  0  0  0  0  0  0  0  0  0
    4.0340   -1.5401   -3.6335 H   0  0  0  0  0  0  0  0  0  0  0  0
    2.3588   -1.2813   -3.0265 H   0  0  0  0  0  0  0  0  0  0  0  0
    5.0461   -2.6437   -1.2342 C   0  0  0  0  0  0  0  0  0  0  0  0
    4.7954   -3.7069   -1.4262 H   0  0  0  0  0  0  0  0  0  0  0  0
    5.4387   -2.5635   -0.2001 H   0  0  0  0  0  0  0  0  0  0  0  0
    5.8728   -2.3704   -1.9223 H   0  0  0  0  0  0  0  0  0  0  0  0
    2.6056    2.5570    1.0445 C   0  0  0  0  0  0  0  0  0  0  0  0
    1.6299    2.0253    1.0360 H   0  0  0  0  0  0  0  0  0  0  0  0
    2.3164    4.0123    0.6631 C   0  0  0  0  0  0  0  0  0  0  0  0
    1.8828    4.0648   -0.3539 H   0  0  0  0  0  0  0  0  0  0  0  0
    3.2259    4.6474    0.7066 H   0  0  0  0  0  0  0  0  0  0  0  0
    1.5798    4.4490    1.3681 H   0  0  0  0  0  0  0  0  0  0  0  0
    3.1911    2.4530    2.4650 C   0  0  0  0  0  0  0  0  0  0  0  0
    3.3470    1.3997    2.7747 H   0  0  0  0  0  0  0  0  0  0  0  0
    2.5162    2.9282    3.2067 H   0  0  0  0  0  0  0  0  0  0  0  0
    4.1752    2.9634    2.5225 H   0  0  0  0  0  0  0  0  0  0  0  0
  1  4  1  0  0  0  0
  2 12  1  0  0  0  0
  2  5  1  0  0  0  0
  4 14  1  0  0  0  0
  4  5  2  0  0  0  0
  5  6  1  0  0  0  0
  6  7  1  0  0  0  0
  6  8  2  0  0  0  0
  8  9  1  0  0  0  0
 10 11  1  0  0  0  0
 10  8  1  0  0  0  0
 12 10  2  0  0  0  0
 13  3  1  6  0  0  0
 13 18  1  0  0  0  0
 13 12  1  0  0  0  0
 14 16  1  0  0  0  0
 15 14  1  0  0  0  0
 17 14  1  0  0  0  0
 18 21  1  0  0  0  0
 19 18  1  0  0  0  0
 20 18  1  0  0  0  0
 22 23  1  0  0  0  0
 22  1  1  0  0  0  0
 23 31  1  0  0  0  0
 24 25  1  0  0  0  0
 24 23  2  0  0  0  0
 26 24  1  0  0  0  0
 27 26  1  0  0  0  0
 28 26  2  0  0  0  0
 28 30  1  0  0  0  0
 29 28  1  0  0  0  0
 30 22  2  0  0  0  0
 31 33  1  0  0  0  0
 32 31  1  0  0  0  0
 33 36  1  0  0  0  0
 33 35  1  0  0  0  0
 33 34  1  0  0  0  0
 37 40  1  0  0  0  0
 37 31  1  0  0  0  0
 37 39  1  0  0  0  0
 38 37  1  0  0  0  0
 41 47  1  0  0  0  0
 41 30  1  0  0  0  0
 41 42  1  0  0  0  0
 43 41  1  0  0  0  0
 44 43  1  0  0  0  0
 45 43  1  0  0  0  0
 46 43  1  0  0  0  0
 47 50  1  0  0  0  0
 48 47  1  0  0  0  0
 49 47  1  0  0  0  0
 51 59  1  0  0  0  0
 51  3  1  0  0  0  0
 52 51  2  0  0  0  0
 53 55  2  0  0  0  0
 53 52  1  0  0  0  0
 54 53  1  0  0  0  0
 55 57  1  0  0  0  0
 56 55  1  0  0  0  0
 57 58  1  0  0  0  0
 57 59  2  0  0  0  0
 59 70  1  0  0  0  0
 60 66  1  0  0  0  0
 60 52  1  0  0  0  0
 60 61  1  0  0  0  0
 62 60  1  0  0  0  0
 63 62  1  0  0  0  0
 64 62  1  0  0  0  0
 65 62  1  0  0  0  0
 66 68  1  0  0  0  0
 67 66  1  0  0  0  0
 69 66  1  0  0  0  0
 70 76  1  0  0  0  0
 71 70  1  0  0  0  0
 72 74  1  0  0  0  0
 72 70  1  0  0  0  0
 72 75  1  0  0  0  0
 73 72  1  0  0  0  0
 76 79  1  0  0  0  0
 76 77  1  0  0  0  0
 76 78  1  0  0  0  0
M  END
