1,3,5
q = -1.0, confidence = 0.016

 41 44  0  0  0  0  0  0  0  0999 V2000
   -0.9165    0.0088   -0.5798 N   0  0  0  0  0  0  0  0  0  0  0  0
   -0.5673   -2.2978   -1.2179 N   0  0  0  0  0  0  0  0  0  0  0  0
    1.5484   -1.1471   -0.9068 N   0  0  0  0  0  2  0  0  0  0  0  0
   -2.0724    2.0694   -0.0172 N   0  0  0  0  0  0  0  0  0  0  0  0
    0.2782    2.4126   -0.4699 N   0  0  0  0  0  2  0  0  0  0  0  0
   -2.0286    0.7795   -0.2449 C   0  0  0  0  0  0  0  0  0  0  0  0
   -3.2077   -0.0975   -0.2319 C   0  0  0  0  0  0  0  0  0  0  0  0
   -2.7680   -1.3868   -0.6127 C   0  0  0  0  0  3  0  0  0  0  0  0
   -1.3179   -1.2982   -0.8280 C   0  0  0  0  0  0  0  0  0  0  0  0
   -4.5553    0.1565    0.0470 C   0  0  0  0  0  0  0  0  0  0  0  0
   -4.8814    1.1664    0.3354 H   0  0  0  0  0  0  0  0  0  0  0  0
   -5.4567   -0.9185   -0.0508 C   0  0  0  0  0  0  0  0  0  0  0  0
   -6.5224   -0.7568    0.1721 H   0  0  0  0  0  0  0  0  0  0  0  0
   -5.0178   -2.2053   -0.4314 C   0  0  0  0  0  0  0  0  0  0  0  0
   -5.7490   -3.0252   -0.4999 H   0  0  0  0  0  0  0  0  0  0  0  0
   -3.6650   -2.4550   -0.7237 C   0  0  0  0  0  0  0  0  0  0  0  0
   -3.3082   -3.4504   -1.0257 H   0  0  0  0  0  0  0  0  0  0  0  0
    0.7795   -2.2289   -1.3469 C   0  0  0  0  0  0  0  0  0  0  0  0
    1.3938   -3.3695   -1.9442 C   0  0  0  0  0  0  0  0  0  0  0  0
    0.7122   -4.1622   -2.2800 H   0  0  0  0  0  0  0  0  0  0  0  0
    2.7678   -3.4597   -2.0586 C   0  0  0  0  0  0  0  0  0  0  0  0
    3.2469   -4.3375   -2.5161 H   0  0  0  0  0  0  0  0  0  0  0  0
    3.5409   -2.4064   -1.5231 C   0  0  0  0  0  0  0  0  0  0  0  0
    4.6394   -2.4566   -1.5227 H   0  0  0  0  0  0  0  0  0  0  0  0
    2.9258   -1.2955   -0.9529 C   0  0  0  0  0  0  0  0  0  0  0  0
    3.7893   -0.2263   -0.3421 C   0  0  0  0  0  0  0  0  0  0  0  0
    4.1805    0.4780   -1.1039 H   0  0  0  0  0  0  0  0  0  0  0  0
    4.6647   -0.6872    0.1547 H   0  0  0  0  0  0  0  0  0  0  0  0
    3.2364    0.3485    0.4218 H   0  0  0  0  0  0  0  0  0  0  0  0
   -0.9987    2.8823   -0.1835 C   0  0  0  0  0  0  0  0  0  0  0  0
   -1.2461    4.2820   -0.0879 C   0  0  0  0  0  0  0  0  0  0  0  0
   -2.2776    4.5763    0.1475 H   0  0  0  0  0  0  0  0  0  0  0  0
   -0.2338    5.2004   -0.3080 C   0  0  0  0  0  0  0  0  0  0  0  0
   -0.4253    6.2816   -0.2457 H   0  0  0  0  0  0  0  0  0  0  0  0
    1.0504    4.7107   -0.6338 C   0  0  0  0  0  0  0  0  0  0  0  0
    1.8855    5.3950   -0.8418 H   0  0  0  0  0  0  0  0  0  0  0  0
    1.2724    3.3386   -0.6949 C   0  0  0  0  0  0  0  0  0  0  0  0
    2.6252    2.7767   -1.0103 C   0  0  0  0  0  0  0  0  0  0  0  0
    3.2103    2.5735   -0.0905 H   0  0  0  0  0  0  0  0  0  0  0  0
    3.2187    3.4615   -1.6457 H   0  0  0  0  0  0  0  0  0  0  0  0
    2.5033    1.8126   -1.5565 H   0  0  0  0  0  0  0  0  0  0  0  0
  1  6  1  0  0  0  0
  2  9  1  0  0  0  0
  5 30  1  0  0  0  0
  6  7  2  0  0  0  0
  6  4  1  0  0  0  0
  7 10  1  0  0  0  0
  8  7  1  0  0  0  0
  9  8  1  0  0  0  0
  9  1  2  0  0  0  0
 10 11  1  0  0  0  0
 12 10  2  0  0  0  0
 12 13  1  0  0  0  0
 14 12  1  0  0  0  0
 15 14  1  0  0  0  0
 16  8  1  0  0  0  0
 16 14  2  0  0  0  0
 17 16  1  0  0  0  0
 18  2  2  0  0  0  0
 18  3  1  0  0  0  0
 19 18  1  0  0  0  0
 20 19  1  0  0  0  0
 21 19  2  0  0  0  0
 21 23  1  0  0  0  0
 22 21  1  0  0  0  0
 23 24  1  0  0  0  0
 23 25  2  0  0  0  0
 25  3  1  0  0  0  0
 25 26  1  0  0  0  0
 26 28  1  0  0  0  0
 26 29  1  0  0  0  0
 27 26  1  0  0  0  0
 30 31  1  0  0  0  0
 30  4  2  0  0  0  0
 31 32  1  0  0  0  0
 33 34  1  0  0  0  0
 33 31  2  0  0  0  0
 35 33  1  0  0  0  0
 36 35  1  0  0  0  0
 37 35  2  0  0  0  0
 37  5  1  0  0  0  0
 38 37  1  0  0  0  0
 38 39  1  0  0  0  0
 40 38  1  0  0  0  0
 41 38  1  0  0  0  0
M  END
