1,4,7
q = 0.0, confidence = 0.98

 33 35  0  0  1  0  0  0  0  0999 V2000
   -1.3636   -0.8719    1.1542 N   0  0  0  0  0  2  0  0  0  0  0  0
   -0.9601    1.1954    2.2693 N   0  0  0  0  0  0  0  0  0  0  0  0
   -1.4658    1.9331    2.7601 H   0  0  0  0  0  0  0  0  0  0  0  0
    1.2286    0.4888    1.6966 N   0  0  0  0  0  2  0  0  0  0  0  0
    3.4342   -0.3119    1.3506 N   0  0  0  0  0  0  0  0  0  0  0  0
    4.4107   -0.0845    1.5398 H   0  0  0  0  0  0  0  0  0  0  0  0
    2.1042   -2.0545    0.4140 N   0  0  0  0  0  2  0  0  0  0  0  0
   -2.1470   -1.9557    0.9562 C   0  0  0  0  0  3  0  0  0  0  0  0
   -1.8181   -2.6282    0.1457 H   0  0  0  0  0  0  0  0  0  0  0  0
   -3.3278   -2.1784    1.6665 C   0  0  0  0  0  0  0  0  0  0  0  0
   -3.9368   -3.0680    1.4584 H   0  0  0  0  0  0  0  0  0  0  0  0
   -3.7199   -1.2211    2.6161 C   0  0  0  0  0  0  0  0  0  0  0  0
   -4.6488   -1.3475    3.1915 H   0  0  0  0  0  0  0  0  0  0  0  0
   -2.9184   -0.0987    2.8250 C   0  0  0  0  0  0  0  0  0  0  0  0
   -3.1939    0.6629    3.5699 H   0  0  0  0  0  0  0  0  0  0  0  0
   -1.7289    0.0435    2.0713 C   0  0  0  0  0  0  0  0  0  0  0  0
    0.4063    1.4339    2.2007 C   0  0  2  0  0  3  0  0  0  0  0  0
    0.8817    2.6758    2.6854 C   0  0  0  0  0  0  0  0  0  0  0  0
    0.1832    3.4324    3.0697 H   0  0  0  0  0  0  0  0  0  0  0  0
    2.2608    2.8968    2.6801 C   0  0  0  0  0  0  0  0  0  0  0  0
    2.6661    3.8469    3.0589 H   0  0  0  0  0  0  0  0  0  0  0  0
    3.1284    1.8999    2.2253 C   0  0  0  0  0  0  0  0  0  0  0  0
    4.2188    2.0380    2.2476 H   0  0  0  0  0  0  0  0  0  0  0  0
    2.5620    0.6923    1.7538 C   0  0  0  0  0  0  0  0  0  0  0  0
    3.2458   -1.6520    1.0043 C   0  0  1  0  0  3  0  0  0  0  0  0
    4.3107   -2.5537    1.2480 C   0  0  0  0  0  0  0  0  0  0  0  0
    5.2339   -2.2006    1.7317 H   0  0  0  0  0  0  0  0  0  0  0  0
    4.1598   -3.8909    0.8830 C   0  0  0  0  0  0  0  0  0  0  0  0
    4.9745   -4.6063    1.0696 H   0  0  0  0  0  0  0  0  0  0  0  0
    2.9578   -4.3096    0.2856 C   0  0  0  0  0  0  0  0  0  0  0  0
    2.7977   -5.3529   -0.0185 H   0  0  0  0  0  0  0  0  0  0  0  0
    1.9645   -3.3534    0.0668 C   0  0  0  0  0  0  0  0  0  0  0  0
    1.0219   -3.5993   -0.4517 H   0  0  0  0  0  0  0  0  0  0  0  0
  1 16  1  0  0  0  0
  2  3  1  0  0  0  0
  4 24  1  0  0  0  0
  4 17  1  0  0  0  0
  5  6  1  0  0  0  0
  5 24  1  0  0  0  0
  7 25  1  0  0  0  0
  8  1  1  0  0  0  0
  8 10  1  0  0  0  0
  9  8  1  0  0  0  0
 10 12  2  0  0  0  0
 11 10  1  0  0  0  0
 12 14  1  0  0  0  0
 12 13  1  0  0  0  0
 14 15  1  0  0  0  0
 16  2  1  0  0  0  0
 16 14  2  0  0  0  0
 17  2  1  1  0  0  0
 17 18  1  0  0  0  0
 18 19  1  0  0  0  0
 20 18  2  0  0  0  0
 20 21  1  0  0  0  0
 22 23  1  0  0  0  0
 22 20  1  0  0  0  0
 24 22  2  0  0  0  0
 25 26  1  0  0  0  0
 25  5  1  6  0  0  0
 26 27  1  0  0  0  0
 28 29  1  0  0  0  0
 28 26  2  0  0  0  0
 30 28  1  0  0  0  0
 31 30  1  0  0  0  0
 32 30  2  0  0  0  0
 32  7  1  0  0  0  0
 33 32  1  0  0  0  0
M  END
