1,3,5
q = -1.0, confidence = 0.002

 50 51  0  0  1  0  0  0  0  0999 V2000
   -0.5831   -1.5695   -0.6246 N   0  0  0  0  0  2  0  0  0  0  0  0
   -1.5833   -1.0078    0.0967 N   0  0  0  0  0  0  0  0  0  0  0  0
   -0.1691    1.2745   -1.1221 N   0  0  0  0  0  2  0  0  0  0  0  0
   -1.2073    1.3324   -0.2550 N   0  0  0  0  0  0  0  0  0  0  0  0
    1.5454   -0.0503    1.0653 N   0  0  0  0  0  2  0  0  0  0  0  0
    0.1582    0.2310    2.0029 Si  0  0  0  0  0  0  0  0  0  0  0  0
   -1.0542   -2.7357   -1.0958 C   0  0  2  0  0  3  0  0  0  0  0  0
   -2.3902   -2.9229   -0.6508 C   0  0  0  0  0  0  0  0  0  0  0  0
   -2.7067   -1.7942    0.1080 C   0  0  0  0  0  0  0  0  0  0  0  0
   -0.1978   -3.6264   -1.9375 C   0  0  0  0  0  0  0  0  0  0  0  0
   -3.9552   -1.4214    0.8370 C   0  0  0  0  0  0  0  0  0  0  0  0
   -0.2395    2.3797   -1.8826 C   0  0  1  0  0  3  0  0  0  0  0  0
   -1.3492    3.1674   -1.4749 C   0  0  0  0  0  0  0  0  0  0  0  0
   -1.9552    2.4689   -0.4280 C   0  0  0  0  0  0  0  0  0  0  0  0
    0.7725    2.6403   -2.9519 C   0  0  0  0  0  0  0  0  0  0  0  0
   -3.1462    2.7968    0.4109 C   0  0  0  0  0  0  0  0  0  0  0  0
   -1.3491    0.2763    0.7408 C   0  0  2  0  0  0  0  0  0  0  0  0
   -0.3507   -1.1223    3.2365 C   0  0  0  0  0  0  0  0  0  0  0  0
    0.0580    1.9157    2.8777 C   0  0  0  0  0  0  0  0  0  0  0  0
    2.9030    0.0487    1.5940 C   0  0  0  0  0  0  0  0  0  0  0  0
    3.6570   -1.2807    1.4280 C   0  0  0  0  0  0  0  0  0  0  0  0
    3.6723    1.2013    0.9268 C   0  0  0  0  0  0  0  0  0  0  0  0
   -3.0476   -3.7749   -0.8541 H   0  0  0  0  0  0  0  0  0  0  0  0
    0.7136   -3.0879   -2.2580 H   0  0  0  0  0  0  0  0  0  0  0  0
   -0.7434   -3.9713   -2.8383 H   0  0  0  0  0  0  0  0  0  0  0  0
    0.1145   -4.5301   -1.3740 H   0  0  0  0  0  0  0  0  0  0  0  0
   -4.7248   -2.1998    0.6840 H   0  0  0  0  0  0  0  0  0  0  0  0
   -4.3768   -0.4586    0.4787 H   0  0  0  0  0  0  0  0  0  0  0  0
   -3.7855   -1.3279    1.9304 H   0  0  0  0  0  0  0  0  0  0  0  0
   -1.6742    4.1279   -1.8888 H   0  0  0  0  0  0  0  0  0  0  0  0
    1.4145    1.7509   -3.0948 H   0  0  0  0  0  0  0  0  0  0  0  0
    0.2847    2.8861   -3.9164 H   0  0  0  0  0  0  0  0  0  0  0  0
    1.4247    3.4973   -2.6838 H   0  0  0  0  0  0  0  0  0  0  0  0
   -3.6007    3.7422    0.0627 H   0  0  0  0  0  0  0  0  0  0  0  0
   -2.8762    2.9275    1.4800 H   0  0  0  0  0  0  0  0  0  0  0  0
   -3.9279    2.0098    0.3559 H   0  0  0  0  0  0  0  0  0  0  0  0
   -2.2506    0.5103    1.3347 H   0  0  0  0  0  0  0  0  0  0  0  0
   -1.3039   -0.8979    3.7614 H   0  0  0  0  0  0  0  0  0  0  0  0
    0.4360   -1.2410    4.0107 H   0  0  0  0  0  0  0  0  0  0  0  0
   -0.4496   -2.0971    2.7165 H   0  0  0  0  0  0  0  0  0  0  0  0
   -0.8719    2.0412    3.4719 H   0  0  0  0  0  0  0  0  0  0  0  0
    0.9141    2.0325    3.5747 H   0  0  0  0  0  0  0  0  0  0  0  0
    0.1249    2.7389    2.1368 H   0  0  0  0  0  0  0  0  0  0  0  0
    2.8773    0.2707    2.6925 H   0  0  0  0  0  0  0  0  0  0  0  0
    4.6904   -1.2329    1.8323 H   0  0  0  0  0  0  0  0  0  0  0  0
    3.7183   -1.5411    0.3494 H   0  0  0  0  0  0  0  0  0  0  0  0
    3.1126   -2.0996    1.9397 H   0  0  0  0  0  0  0  0  0  0  0  0
    4.7062    1.3036    1.3197 H   0  0  0  0  0  0  0  0  0  0  0  0
    3.1382    2.1611    1.0782 H   0  0  0  0  0  0  0  0  0  0  0  0
    3.7349    1.0215   -0.1684 H   0  0  0  0  0  0  0  0  0  0  0  0
  1  2  1  0  0  0  0
  2  9  1  0  0  0  0
  2 17  1  0  0  0  0
  3  4  1  0  0  0  0
  4 17  1  0  0  0  0
  5 20  1  0  0  0  0
  5  6  1  0  0  0  0
  6 19  1  0  0  0  0
  6 18  1  0  0  0  0
  7 10  1  1  0  0  0
  7  8  1  0  0  0  0
  7  1  1  0  0  0  0
  8  9  2  0  0  0  0
  9 11  1  0  0  0  0
 10 26  1  0  0  0  0
 11 29  1  0  0  0  0
 12 15  1  1  0  0  0
 12 13  1  0  0  0  0
 12  3  1  0  0  0  0
 13 14  2  0  0  0  0
 14  4  1  0  0  0  0
 14 16  1  0  0  0  0
 15 33  1  0  0  0  0
 16 35  1  0  0  0  0
 17 37  1  1  0  0  0
 17  6  1  0  0  0  0
 18 38  1  0  0  0  0
 18 39  1  0  0  0  0
 19 41  1  0  0  0  0
 19 42  1  0  0  0  0
 20 44  1  0  0  0  0
 21 20  1  0  0  0  0
 21 45  1  0  0  0  0
 21 47  1  0  0  0  0
 22 49  1  0  0  0  0
 22 48  1  0  0  0  0
 22 20  1  0  0  0  0
 23  8  1  0  0  0  0
 24 10  1  0  0  0  0
 25 10  1  0  0  0  0
 27 11  1  0  0  0  0
 28 11  1  0  0  0  0
 30 13  1  0  0  0  0
 31 15  1  0  0  0  0
 32 15  1  0  0  0  0
 34 16  1  0  0  0  0
 36 16  1  0  0  0  0
 40 18  1  0  0  0  0
 43 19  1  0  0  0  0
 46 21  1  0  0  0  0
 50 22  1  0  0  0  0
M  END
