1,2,5
q = 0.0, confidence = 0.98

 45 47  0  0  1  0  0  0  0  0999 V2000
   -1.1553    1.5240    0.1834 N   0  0  0  0  0  0  0  0  0  0  0  0
    1.3008    1.3645   -0.6001 N   0  0  0  0  0  0  0  0  0  0  0  0
   -3.5817   -1.2091   -0.3447 N   0  0  0  0  0  0  0  0  0  0  0  0
   -2.0032   -0.4106   -1.7111 N   0  0  0  0  0  0  0  0  0  0  0  0
    1.6627   -1.0147    0.3837 N   0  0  0  0  0  2  0  0  0  0  0  0
    3.7728   -1.3791   -0.1803 N   0  0  0  0  0  0  0  0  0  0  0  0
   -4.4086   -1.3621    0.8418 C   0  0  0  0  0  0  0  0  0  0  0  0
   -5.0789   -0.4905    0.9736 H   0  0  0  0  0  0  0  0  0  0  0  0
   -3.7602   -1.4749    1.7350 H   0  0  0  0  0  0  0  0  0  0  0  0
   -5.0332   -2.2664    0.7342 H   0  0  0  0  0  0  0  0  0  0  0  0
   -3.4022   -2.1484   -1.3450 C   0  0  0  0  0  0  0  0  0  0  0  0
   -3.9822   -3.0765   -1.3711 H   0  0  0  0  0  0  0  0  0  0  0  0
   -2.4247   -1.6345   -2.1794 C   0  0  0  0  0  0  0  0  0  0  0  0
   -2.0128   -2.0803   -3.0923 H   0  0  0  0  0  0  0  0  0  0  0  0
   -2.7117   -0.1838   -0.6047 C   0  0  0  0  0  0  0  0  0  0  0  0
   -2.5475    1.0145    0.2866 C   0  0  0  0  0  0  0  0  0  0  0  0
   -3.2532    1.8409    0.0325 H   0  0  0  0  0  0  0  0  0  0  0  0
   -2.7204    0.7217    1.3388 H   0  0  0  0  0  0  0  0  0  0  0  0
   -0.9605    2.2377   -1.1245 C   0  0  0  0  0  0  0  0  0  0  0  0
   -1.2145    3.3099   -0.9957 H   0  0  0  0  0  0  0  0  0  0  0  0
   -1.6572    1.7861   -1.8494 H   0  0  0  0  0  0  0  0  0  0  0  0
    0.4658    2.0115   -1.6478 C   0  0  0  0  0  0  0  0  0  0  0  0
    0.4155    1.2946   -2.4882 H   0  0  0  0  0  0  0  0  0  0  0  0
    0.9433    2.9495   -2.0093 H   0  0  0  0  0  0  0  0  0  0  0  0
    1.6943    2.2899    0.5138 C   0  0  0  0  0  0  0  0  0  0  0  0
    2.4923    2.9732    0.1411 H   0  0  0  0  0  0  0  0  0  0  0  0
    2.1397    1.6588    1.3083 H   0  0  0  0  0  0  0  0  0  0  0  0
    0.5384    3.1414    1.0548 C   0  0  0  0  0  0  0  0  0  0  0  0
    0.8803    3.6079    2.0003 H   0  0  0  0  0  0  0  0  0  0  0  0
    0.3590    3.9877    0.3618 H   0  0  0  0  0  0  0  0  0  0  0  0
   -0.7824    2.4112    1.3274 C   0  0  0  0  0  0  0  0  0  0  0  0
   -1.5837    3.1688    1.4870 H   0  0  0  0  0  0  0  0  0  0  0  0
   -0.7341    1.7684    2.2288 H   0  0  0  0  0  0  0  0  0  0  0  0
    2.4987    0.6670   -1.1633 C   0  0  0  0  0  0  0  0  0  0  0  0
    3.3827    1.3415   -1.1907 H   0  0  0  0  0  0  0  0  0  0  0  0
    2.2664    0.3863   -2.2124 H   0  0  0  0  0  0  0  0  0  0  0  0
    2.7033   -0.5521   -0.3280 C   0  0  1  0  0  3  0  0  0  0  0  0
    2.0641   -2.1731    1.0128 C   0  0  0  0  0  0  0  0  0  0  0  0
    1.3842   -2.7221    1.6716 H   0  0  0  0  0  0  0  0  0  0  0  0
    3.3785   -2.4124    0.6616 C   0  0  0  0  0  0  0  0  0  0  0  0
    4.0661   -3.2172    0.9398 H   0  0  0  0  0  0  0  0  0  0  0  0
    5.0663   -1.2603   -0.8407 C   0  0  0  0  0  0  0  0  0  0  0  0
    5.3201   -0.1940   -0.9872 H   0  0  0  0  0  0  0  0  0  0  0  0
    5.0593   -1.7711   -1.8246 H   0  0  0  0  0  0  0  0  0  0  0  0
    5.8445   -1.7186   -0.2038 H   0  0  0  0  0  0  0  0  0  0  0  0
  1 16  1  0  0  0  0
  1 31  1  0  0  0  0
  2 25  1  0  0  0  0
  3  7  1  0  0  0  0
  4 15  2  0  0  0  0
  5 38  1  0  0  0  0
  6 40  1  0  0  0  0
  7  8  1  0  0  0  0
  7  9  1  0  0  0  0
 10  7  1  0  0  0  0
 11  3  1  0  0  0  0
 12 11  1  0  0  0  0
 13  4  1  0  0  0  0
 13 11  2  0  0  0  0
 14 13  1  0  0  0  0
 15  3  1  0  0  0  0
 15 16  1  0  0  0  0
 16 18  1  0  0  0  0
 17 16  1  0  0  0  0
 19 20  1  0  0  0  0
 19  1  1  0  0  0  0
 21 19  1  0  0  0  0
 22 19  1  0  0  0  0
 22  2  1  0  0  0  0
 23 22  1  0  0  0  0
 24 22  1  0  0  0  0
 25 28  1  0  0  0  0
 25 27  1  0  0  0  0
 26 25  1  0  0  0  0
 28 31  1  0  0  0  0
 28 29  1  0  0  0  0
 30 28  1  0  0  0  0
 31 32  1  0  0  0  0
 31 33  1  0  0  0  0
 34  2  1  0  0  0  0
 35 34  1  0  0  0  0
 36 34  1  0  0  0  0
 37 34  1  6  0  0  0
 37  6  1  0  0  0  0
 37  5  1  0  0  0  0
 38 39  1  0  0  0  0
 40 41  1  0  0  0  0
 40 38  2  0  0  0  0
 42 45  1  0  0  0  0
 42  6  1  0  0  0  0
 43 42  1  0  0  0  0
 44 42  1  0  0  0  0
M  END
