2,4,6
q = 0.0, confidence = 0.988

 48 51  0  0  1  0  0  0  0  0999 V2000
   -1.1062   -1.4543    0.0348 N   0  0  0  0  0  2  0  0  0  0  0  0
   -0.3554   -0.3943    0.1193 N   0  0  0  0  0  2  0  0  0  0  0  0
   -1.1258    0.7200    0.0442 N   0  0  0  0  0  0  0  0  0  0  0  0
    1.8034    1.9083   -0.4248 N   0  0  0  0  0  0  0  0  0  0  0  0
    2.0435    2.2198    0.5237 H   0  0  0  0  0  0  0  0  0  0  0  0
    3.3762   -0.2954   -0.0612 N   0  0  0  0  0  2  0  0  0  0  0  0
   -2.4297    0.3414   -0.0770 C   0  0  0  0  0  0  0  0  0  0  0  0
   -3.2362    1.0743   -0.1380 H   0  0  0  0  0  0  0  0  0  0  0  0
   -2.4082   -1.0567   -0.0857 C   0  0  0  0  0  0  0  0  0  0  0  0
   -3.5070   -2.0235   -0.1953 C   0  0  0  0  0  0  0  0  0  0  0  0
   -4.8548   -1.6040   -0.2207 C   0  0  0  0  0  0  0  0  0  0  0  0
   -5.0996   -0.5331   -0.1508 H   0  0  0  0  0  0  0  0  0  0  0  0
   -5.8895   -2.5423   -0.3273 C   0  0  0  0  0  0  0  0  0  0  0  0
   -6.9355   -2.2007   -0.3448 H   0  0  0  0  0  0  0  0  0  0  0  0
   -5.5945   -3.9131   -0.4084 C   0  0  0  0  0  0  0  0  0  0  0  0
   -6.4082   -4.6494   -0.4913 H   0  0  0  0  0  0  0  0  0  0  0  0
   -4.2559   -4.3382   -0.3832 C   0  0  0  0  0  0  0  0  0  0  0  0
   -4.0169   -5.4105   -0.4480 H   0  0  0  0  0  0  0  0  0  0  0  0
   -3.2183   -3.4039   -0.2785 C   0  0  0  0  0  0  0  0  0  0  0  0
   -2.1667   -3.7246   -0.2638 H   0  0  0  0  0  0  0  0  0  0  0  0
   -0.5579    2.0803    0.1816 C   0  0  2  0  0  0  0  0  0  0  0  0
   -0.0545    2.0648    1.1743 H   0  0  0  0  0  0  0  0  0  0  0  0
   -1.6835    3.0927    0.2058 C   0  0  0  0  0  0  0  0  0  0  0  0
   -2.1698    3.5662    1.4389 C   0  0  0  0  0  0  0  0  0  0  0  0
   -1.7121    3.2042    2.3730 H   0  0  0  0  0  0  0  0  0  0  0  0
   -3.2279    4.4868    1.4818 C   0  0  0  0  0  0  0  0  0  0  0  0
   -3.5970    4.8510    2.4524 H   0  0  0  0  0  0  0  0  0  0  0  0
   -3.8120    4.9418    0.2896 C   0  0  0  0  0  0  0  0  0  0  0  0
   -4.6417    5.6640    0.3217 H   0  0  0  0  0  0  0  0  0  0  0  0
   -3.3333    4.4748   -0.9456 C   0  0  0  0  0  0  0  0  0  0  0  0
   -3.7873    4.8292   -1.8833 H   0  0  0  0  0  0  0  0  0  0  0  0
   -2.2743    3.5563   -0.9878 C   0  0  0  0  0  0  0  0  0  0  0  0
   -1.9112    3.1890   -1.9601 H   0  0  0  0  0  0  0  0  0  0  0  0
    0.5282    2.3858   -0.8893 C   0  0  0  0  0  0  0  0  0  0  0  0
    0.2808    1.8660   -1.8408 H   0  0  0  0  0  0  0  0  0  0  0  0
    0.4950    3.4855   -1.0925 H   0  0  0  0  0  0  0  0  0  0  0  0
    2.9383    1.7593   -1.3014 C   0  0  0  0  0  0  0  0  0  0  0  0
    3.4695    2.7061   -1.5687 H   0  0  0  0  0  0  0  0  0  0  0  0
    2.5735    1.2936   -2.2469 H   0  0  0  0  0  0  0  0  0  0  0  0
    3.9188    0.7776   -0.6903 C   0  0  2  0  0  3  0  0  0  0  0  0
    5.3092    0.9109   -0.7931 C   0  0  0  0  0  0  0  0  0  0  0  0
    5.7293    1.7958   -1.2934 H   0  0  0  0  0  0  0  0  0  0  0  0
    6.1387   -0.0859   -0.2593 C   0  0  0  0  0  0  0  0  0  0  0  0
    7.2330    0.0045   -0.3309 H   0  0  0  0  0  0  0  0  0  0  0  0
    5.5512   -1.1972    0.3598 C   0  0  0  0  0  0  0  0  0  0  0  0
    6.1610   -2.0102    0.7785 H   0  0  0  0  0  0  0  0  0  0  0  0
    4.1563   -1.2721    0.4436 C   0  0  0  0  0  0  0  0  0  0  0  0
    3.6145   -2.1361    0.8689 H   0  0  0  0  0  0  0  0  0  0  0  0
  1  2  1  0  0  0  0
  3  2  1  0  0  0  0
  3 21  1  0  0  0  0
  4  5  1  0  0  0  0
  6 47  1  0  0  0  0
  7  3  1  0  0  0  0
  8  7  1  0  0  0  0
  9  7  2  0  0  0  0
  9  1  1  0  0  0  0
 10  9  1  0  0  0  0
 11 10  1  0  0  0  0
 11 12  1  0  0  0  0
 13 11  2  0  0  0  0
 14 13  1  0  0  0  0
 15 17  2  0  0  0  0
 15 13  1  0  0  0  0
 16 15  1  0  0  0  0
 17 19  1  0  0  0  0
 18 17  1  0  0  0  0
 19 20  1  0  0  0  0
 19 10  2  0  0  0  0
 21 23  1  0  0  0  0
 21 22  1  1  0  0  0
 23 24  1  0  0  0  0
 24 26  2  0  0  0  0
 24 25  1  0  0  0  0
 26 27  1  0  0  0  0
 28 29  1  0  0  0  0
 28 26  1  0  0  0  0
 30 28  2  0  0  0  0
 31 30  1  0  0  0  0
 32 30  1  0  0  0  0
 32 23  2  0  0  0  0
 33 32  1  0  0  0  0
 34  4  1  0  0  0  0
 34 21  1  0  0  0  0
 35 34  1  0  0  0  0
 36 34  1  0  0  0  0
 37  4  1  0  0  0  0
 38 37  1  0  0  0  0
 39 37  1  0  0  0  0
 40 37  1  6  0  0  0
 40  6  1  0  0  0  0
 41 40  1  0  0  0  0
 41 43  2  0  0  0  0
 42 41  1  0  0  0  0
 43 45  1  0  0  0  0
 44 43  1  0  0  0  0
 45 47  2  0  0  0  0
 45 46  1  0  0  0  0
 47 48  1  0  0  0  0
M  END
