1,3,5
q = -1.0, confidence = 0.072

 53 58  0  0  0  0  0  0  0  0999 V2000
   -2.9139    2.0659    0.0775 N   0  0  0  0  0  2  0  0  0  0  0  0
   -0.4925    2.3885    0.0846 N   0  0  0  0  0  0  0  0  0  0  0  0
   -0.9105    0.0131   -0.1776 N   0  0  0  0  0  0  0  0  0  0  0  0
   -0.4984   -2.3763   -0.2543 N   0  0  0  0  0  0  0  0  0  0  0  0
   -2.9191   -2.0513   -0.2014 N   0  0  0  0  0  2  0  0  0  0  0  0
    2.4068    1.4229   -0.0504 N   0  0  0  0  0  0  0  0  0  0  0  0
    2.3979   -1.4222   -0.0472 N   0  0  0  0  0  0  0  0  0  0  0  0
   -4.1221    2.6964   -0.0242 C   0  0  0  0  0  0  0  0  0  0  0  0
   -4.9947    2.0302   -0.0311 H   0  0  0  0  0  0  0  0  0  0  0  0
   -4.2687    4.0779   -0.0834 C   0  0  0  0  0  0  0  0  0  0  0  0
   -5.2808    4.4984   -0.1615 H   0  0  0  0  0  0  0  0  0  0  0  0
   -3.1239    4.8937   -0.0358 C   0  0  0  0  0  0  0  0  0  0  0  0
   -3.2016    5.9906   -0.0692 H   0  0  0  0  0  0  0  0  0  0  0  0
   -1.8884    4.2703    0.0436 C   0  0  0  0  0  0  0  0  0  0  0  0
   -0.9405    4.8235    0.0664 H   0  0  0  0  0  0  0  0  0  0  0  0
   -1.7722    2.8500    0.0743 C   0  0  0  0  0  0  0  0  0  0  0  0
   -0.1255    1.1462   -0.0368 C   0  0  0  0  0  0  0  0  0  0  0  0
    1.2887    0.7068   -0.0442 C   0  0  0  0  0  0  0  0  0  0  0  0
    1.2866   -0.6992   -0.1218 C   0  0  0  0  0  3  0  0  0  0  0  0
   -0.1279   -1.1300   -0.2033 C   0  0  0  0  0  0  0  0  0  0  0  0
   -1.7793   -2.8298   -0.3171 C   0  0  0  0  0  0  0  0  0  0  0  0
   -1.8993   -4.2332   -0.5365 C   0  0  0  0  0  0  0  0  0  0  0  0
   -0.9527   -4.7863   -0.5919 H   0  0  0  0  0  0  0  0  0  0  0  0
   -3.1368   -4.8383   -0.6908 C   0  0  0  0  0  0  0  0  0  0  0  0
   -3.2175   -5.9209   -0.8692 H   0  0  0  0  0  0  0  0  0  0  0  0
   -4.2798   -4.0214   -0.6223 C   0  0  0  0  0  0  0  0  0  0  0  0
   -5.2933   -4.4259   -0.7499 H   0  0  0  0  0  0  0  0  0  0  0  0
   -4.1293   -2.6606   -0.3795 C   0  0  0  0  0  0  0  0  0  0  0  0
   -5.0001   -1.9977   -0.2921 H   0  0  0  0  0  0  0  0  0  0  0  0
    3.5619    0.7169   -0.0757 C   0  0  0  0  0  0  0  0  0  0  0  0
    3.5538   -0.7233    0.0472 C   0  0  0  0  0  0  0  0  0  0  0  0
    4.7907    1.5239   -0.2874 C   0  0  0  0  0  0  0  0  0  0  0  0
    4.8628    2.8229    0.2629 C   0  0  0  0  0  0  0  0  0  0  0  0
    4.0101    3.1888    0.8527 H   0  0  0  0  0  0  0  0  0  0  0  0
    5.9936    3.6222    0.0534 C   0  0  0  0  0  0  0  0  0  0  0  0
    6.0427    4.6270    0.5000 H   0  0  0  0  0  0  0  0  0  0  0  0
    7.0589    3.1467   -0.7287 C   0  0  0  0  0  0  0  0  0  0  0  0
    7.9463    3.7758   -0.8962 H   0  0  0  0  0  0  0  0  0  0  0  0
    6.9822    1.8683   -1.3065 C   0  0  0  0  0  0  0  0  0  0  0  0
    7.8034    1.4981   -1.9388 H   0  0  0  0  0  0  0  0  0  0  0  0
    5.8598    1.0605   -1.0869 C   0  0  0  0  0  0  0  0  0  0  0  0
    5.8045    0.0649   -1.5498 H   0  0  0  0  0  0  0  0  0  0  0  0
    4.7627   -1.5375    0.3325 C   0  0  0  0  0  0  0  0  0  0  0  0
    5.7851   -1.0793    1.1938 C   0  0  0  0  0  0  0  0  0  0  0  0
    5.7084   -0.0827    1.6515 H   0  0  0  0  0  0  0  0  0  0  0  0
    6.8872   -1.8937    1.4812 C   0  0  0  0  0  0  0  0  0  0  0  0
    7.6713   -1.5275    2.1610 H   0  0  0  0  0  0  0  0  0  0  0  0
    6.9902   -3.1736    0.9110 C   0  0  0  0  0  0  0  0  0  0  0  0
    7.8620   -3.8080    1.1323 H   0  0  0  0  0  0  0  0  0  0  0  0
    5.9706   -3.6440    0.0675 C   0  0  0  0  0  0  0  0  0  0  0  0
    6.0397   -4.6501   -0.3735 H   0  0  0  0  0  0  0  0  0  0  0  0
    4.8593   -2.8380   -0.2104 C   0  0  0  0  0  0  0  0  0  0  0  0
    4.0408   -3.2000   -0.8490 H   0  0  0  0  0  0  0  0  0  0  0  0
  3 17  1  0  0  0  0
  4 20  1  0  0  0  0
  6 18  1  0  0  0  0
  7 31  2  0  0  0  0
  8  1  1  0  0  0  0
  9  8  1  0  0  0  0
 10 12  1  0  0  0  0
 10  8  2  0  0  0  0
 11 10  1  0  0  0  0
 12 14  2  0  0  0  0
 13 12  1  0  0  0  0
 14 15  1  0  0  0  0
 14 16  1  0  0  0  0
 16  1  1  0  0  0  0
 16  2  2  0  0  0  0
 17  2  1  0  0  0  0
 18 17  2  0  0  0  0
 19  7  1  0  0  0  0
 19 18  1  0  0  0  0
 20  3  2  0  0  0  0
 20 19  1  0  0  0  0
 21  4  2  0  0  0  0
 21  5  1  0  0  0  0
 22 21  1  0  0  0  0
 23 22  1  0  0  0  0
 24 26  1  0  0  0  0
 24 22  2  0  0  0  0
 25 24  1  0  0  0  0
 26 28  2  0  0  0  0
 27 26  1  0  0  0  0
 28 29  1  0  0  0  0
 28  5  1  0  0  0  0
 30  6  2  0  0  0  0
 30 31  1  0  0  0  0
 31 43  1  0  0  0  0
 32 30  1  0  0  0  0
 32 33  1  0  0  0  0
 33 34  1  0  0  0  0
 35 33  2  0  0  0  0
 35 36  1  0  0  0  0
 37 35  1  0  0  0  0
 38 37  1  0  0  0  0
 39 41  1  0  0  0  0
 39 37  2  0  0  0  0
 40 39  1  0  0  0  0
 41 32  2  0  0  0  0
 42 41  1  0  0  0  0
 43 44  1  0  0  0  0
 44 46  2  0  0  0  0
 44 45  1  0  0  0  0
 46 47  1  0  0  0  0
 48 49  1  0  0  0  0
 48 46  1  0  0  0  0
 50 48  2  0  0  0  0
 51 50  1  0  0  0  0
 52 50  1  0  0  0  0
 52 43  2  0  0  0  0
 53 52  1  0  0  0  0
M  END
