1,3,4
q = 0.0, confidence = 0.998

 46 50  0  0  1  0  0  0  0  0999 V2000
   -0.3711   -0.0001   -1.0734 N   0  0  0  0  0  2  0  0  0  0  0  0
   -3.0515    0.0004   -0.6069 N   0  0  0  0  0  0  0  0  0  0  0  0
    1.1538   -2.1770   -0.6443 N   0  0  0  0  0  2  0  0  0  0  0  0
    1.1545    2.1766   -0.6449 N   0  0  0  0  0  2  0  0  0  0  0  0
   -2.5729   -3.4693    0.0625 N   0  0  0  0  0  0  0  0  0  0  0  0
   -2.4056   -1.1723   -0.6974 C   0  0  0  0  0  0  0  0  0  0  0  0
   -2.4053    1.1728   -0.6973 C   0  0  0  0  0  0  0  0  0  0  0  0
   -1.0025    1.1747   -0.9603 C   0  0  2  0  0  3  0  0  0  0  0  0
   -1.0029   -1.1747   -0.9601 C   0  0  0  0  0  0  0  0  0  0  0  0
   -2.5714    3.4702    0.0617 N   0  0  0  0  0  0  0  0  0  0  0  0
   -3.2232   -2.3813   -0.3912 C   0  0  0  0  0  0  0  0  0  0  0  0
   -0.0904   -2.3448   -1.1399 C   0  0  1  0  0  3  0  0  0  0  0  0
   -3.2224    2.3821   -0.3907 C   0  0  0  0  0  0  0  0  0  0  0  0
   -0.0898    2.3445   -1.1406 C   0  0  2  0  0  3  0  0  0  0  0  0
   -0.4355   -3.4919   -1.8791 C   0  0  0  0  0  0  0  0  0  0  0  0
   -1.4403   -3.5904   -2.3095 H   0  0  0  0  0  0  0  0  0  0  0  0
   -4.6295   -2.3341   -0.5104 C   0  0  0  0  0  0  0  0  0  0  0  0
   -5.1097   -1.4130   -0.8661 H   0  0  0  0  0  0  0  0  0  0  0  0
   -0.4346    3.4915   -1.8802 C   0  0  0  0  0  0  0  0  0  0  0  0
   -1.4393    3.5901   -2.3106 H   0  0  0  0  0  0  0  0  0  0  0  0
    0.5296   -4.4860   -2.0721 C   0  0  0  0  0  0  0  0  0  0  0  0
    0.2858   -5.3869   -2.6552 H   0  0  0  0  0  0  0  0  0  0  0  0
    2.0783   -3.1348   -0.8159 C   0  0  0  0  0  0  0  0  0  0  0  0
    3.0749   -2.9214   -0.3921 H   0  0  0  0  0  0  0  0  0  0  0  0
    2.0792    3.1340   -0.8170 C   0  0  0  0  0  0  0  0  0  0  0  0
    3.0758    2.9205   -0.3931 H   0  0  0  0  0  0  0  0  0  0  0  0
    1.8093    4.3154   -1.5208 C   0  0  0  0  0  0  0  0  0  0  0  0
    2.5944    5.0748   -1.6451 H   0  0  0  0  0  0  0  0  0  0  0  0
   -4.6287    2.3350   -0.5084 C   0  0  0  0  0  0  0  0  0  0  0  0
   -5.1094    1.4137   -0.8630 H   0  0  0  0  0  0  0  0  0  0  0  0
    0.5309    4.4852   -2.0737 C   0  0  0  0  0  0  0  0  0  0  0  0
    0.2874    5.3859   -2.6571 H   0  0  0  0  0  0  0  0  0  0  0  0
   -3.2897   -4.5431    0.4117 C   0  0  0  0  0  0  0  0  0  0  0  0
   -2.7182   -5.4100    0.7885 H   0  0  0  0  0  0  0  0  0  0  0  0
    1.8081   -4.3164   -1.5193 C   0  0  0  0  0  0  0  0  0  0  0  0
    2.5930   -5.0761   -1.6433 H   0  0  0  0  0  0  0  0  0  0  0  0
   -5.3698   -3.4671   -0.1550 C   0  0  0  0  0  0  0  0  0  0  0  0
   -6.4670   -3.4656   -0.2427 H   0  0  0  0  0  0  0  0  0  0  0  0
   -4.6913   -4.5990    0.3209 C   0  0  0  0  0  0  0  0  0  0  0  0
   -5.2335   -5.5084    0.6195 H   0  0  0  0  0  0  0  0  0  0  0  0
   -5.3686    3.4682   -0.1527 C   0  0  0  0  0  0  0  0  0  0  0  0
   -6.4658    3.4668   -0.2392 H   0  0  0  0  0  0  0  0  0  0  0  0
   -4.6894    4.6003    0.3219 C   0  0  0  0  0  0  0  0  0  0  0  0
   -5.2311    5.5099    0.6207 H   0  0  0  0  0  0  0  0  0  0  0  0
   -3.2877    4.5443    0.4112 C   0  0  0  0  0  0  0  0  0  0  0  0
   -2.7157    5.4113    0.7869 H   0  0  0  0  0  0  0  0  0  0  0  0
  1  9  1  0  0  0  0
  5 33  1  0  0  0  0
  6  2  1  0  0  0  0
  6 11  1  0  0  0  0
  7  2  2  0  0  0  0
  7 13  1  0  0  0  0
  8  1  1  6  0  0  0
  8  7  1  0  0  0  0
  9  6  2  0  0  0  0
 10 45  1  0  0  0  0
 11  5  2  0  0  0  0
 12  9  1  6  0  0  0
 12  3  1  0  0  0  0
 13 10  2  0  0  0  0
 14 19  1  6  0  0  0
 14  8  1  0  0  0  0
 14  4  1  0  0  0  0
 15 12  1  0  0  0  0
 16 15  1  0  0  0  0
 17 11  1  0  0  0  0
 17 37  2  0  0  0  0
 18 17  1  0  0  0  0
 20 19  1  0  0  0  0
 21 15  2  0  0  0  0
 21 35  1  0  0  0  0
 22 21  1  0  0  0  0
 23  3  1  0  0  0  0
 23 24  1  0  0  0  0
 25  4  1  0  0  0  0
 25 26  1  0  0  0  0
 27 25  2  0  0  0  0
 28 27  1  0  0  0  0
 29 13  1  0  0  0  0
 29 41  2  0  0  0  0
 30 29  1  0  0  0  0
 31 19  2  0  0  0  0
 31 27  1  0  0  0  0
 32 31  1  0  0  0  0
 33 34  1  0  0  0  0
 35 23  2  0  0  0  0
 36 35  1  0  0  0  0
 37 39  1  0  0  0  0
 38 37  1  0  0  0  0
 39 33  2  0  0  0  0
 39 40  1  0  0  0  0
 41 43  1  0  0  0  0
 42 41  1  0  0  0  0
 43 45  2  0  0  0  0
 43 44  1  0  0  0  0
 45 46  1  0  0  0  0
M  END
