2,4,5
q = -1.0, confidence = 0.0

 27 28  0  0  1  0  0  0  0  0999 V2000
   -2.1044   -1.8168   -2.8844 O   0  0  0  0  0  0  0  0  0  0  0  0
    0.6969    1.8070   -0.5637 N   0  0  0  0  0  2  0  0  0  0  0  0
    1.9593    3.5994   -0.7162 N   0  0  0  0  0  0  0  0  0  0  0  0
   -0.7846   -0.2581   -1.7551 N   0  0  0  0  0  2  0  0  0  0  0  0
   -0.7735   -1.6489    0.4177 N   0  0  0  0  0  2  0  0  0  0  0  0
    0.2376    2.5616   -1.6365 C   0  0  0  0  0  0  0  0  0  0  0  0
    1.0324    3.6916   -1.7348 C   0  0  0  0  0  0  0  0  0  0  0  0
    1.7387    2.4542   -0.0258 C   0  0  0  0  0  3  0  0  0  0  0  0
   -0.8858    2.1055   -2.5069 C   0  0  0  0  0  0  0  0  0  0  0  0
   -0.7347    0.6308   -2.9006 C   0  0  0  0  0  0  0  0  0  0  0  0
   -1.4827   -1.4181   -1.8896 C   0  0  0  0  0  0  0  0  0  0  0  0
   -1.4341   -2.2196   -0.6178 C   0  0  2  0  0  3  0  0  0  0  0  0
   -2.0350   -3.4784   -0.5079 C   0  0  0  0  0  0  0  0  0  0  0  0
   -1.9422   -4.1661    0.7082 C   0  0  0  0  0  0  0  0  0  0  0  0
   -1.2510   -3.5659    1.7731 C   0  0  0  0  0  0  0  0  0  0  0  0
   -0.6759   -2.3020    1.5941 C   0  0  0  0  0  0  0  0  0  0  0  0
   -0.1208   -1.7911    2.3922 H   0  0  0  0  0  0  0  0  0  0  0  0
   -1.1503   -4.0675    2.7459 H   0  0  0  0  0  0  0  0  0  0  0  0
   -2.4001   -5.1592    0.8285 H   0  0  0  0  0  0  0  0  0  0  0  0
   -2.5532   -3.8709   -1.3951 H   0  0  0  0  0  0  0  0  0  0  0  0
   -1.5383    0.3331   -3.6062 H   0  0  0  0  0  0  0  0  0  0  0  0
    0.2293    0.5120   -3.4527 H   0  0  0  0  0  0  0  0  0  0  0  0
   -1.8582    2.2570   -1.9916 H   0  0  0  0  0  0  0  0  0  0  0  0
   -0.9098    2.7328   -3.4191 H   0  0  0  0  0  0  0  0  0  0  0  0
    1.0082    4.5291   -2.4381 H   0  0  0  0  0  0  0  0  0  0  0  0
    2.6992    4.2740   -0.5132 H   0  0  0  0  0  0  0  0  0  0  0  0
    2.3324    2.1313    0.8344 H   0  0  0  0  0  0  0  0  0  0  0  0
  1 11  2  0  0  0  0
  2  8  1  0  0  0  0
  3 26  1  0  0  0  0
  3  8  1  0  0  0  0
  5 16  1  0  0  0  0
  6  2  1  0  0  0  0
  7  6  2  0  0  0  0
  7  3  1  0  0  0  0
  8 27  1  0  0  0  0
  9 23  1  0  0  0  0
  9  6  1  0  0  0  0
 10  9  1  0  0  0  0
 10  4  1  0  0  0  0
 11  4  1  0  0  0  0
 12 11  1  1  0  0  0
 12 13  1  0  0  0  0
 12  5  1  0  0  0  0
 13 14  2  0  0  0  0
 14 19  1  0  0  0  0
 14 15  1  0  0  0  0
 15 18  1  0  0  0  0
 16 15  2  0  0  0  0
 16 17  1  0  0  0  0
 20 13  1  0  0  0  0
 21 10  1  0  0  0  0
 22 10  1  0  0  0  0
 24  9  1  0  0  0  0
 25  7  1  0  0  0  0
M  END
