2,5,8
q = -1.0, confidence = 0.05

 39 39  0  0  1  0  0  0  0  0999 V2000
    1.4979   -1.1917   -0.5242 O   0  0  0  0  0  0  0  0  0  0  0  0
   -0.4694   -2.3370   -0.1777 N   0  0  0  0  0  2  0  0  0  0  0  0
   -0.9881   -3.2069   -0.0536 H   0  0  0  0  0  0  0  0  0  0  0  0
    1.5796   -3.4536   -0.6613 N   0  0  0  0  0  0  0  0  0  0  0  0
    0.6568   -0.0420   -0.4147 N   0  0  0  0  0  2  0  0  0  0  0  0
    0.5587    2.2722   -0.1357 N   0  0  0  0  0  0  0  0  0  0  0  0
   -1.2607    3.7002   -0.2495 N   0  0  0  0  0  0  0  0  0  0  0  0
   -1.6500    1.4714    0.3227 N   0  0  0  0  0  2  0  0  0  0  0  0
   -2.6272    1.6979    0.5225 H   0  0  0  0  0  0  0  0  0  0  0  0
    0.8162   -2.3517   -0.4390 C   0  0  1  0  0  3  0  0  0  0  0  0
    0.9584   -4.7611   -0.5310 C   0  0  0  0  0  0  0  0  0  0  0  0
    0.7540   -5.0335    0.5295 H   0  0  0  0  0  0  0  0  0  0  0  0
    1.6370   -5.5199   -0.9617 H   0  0  0  0  0  0  0  0  0  0  0  0
    0.0083   -4.8004   -1.1019 H   0  0  0  0  0  0  0  0  0  0  0  0
    3.0355   -3.3775   -0.6963 C   0  0  0  0  0  0  0  0  0  0  0  0
    3.3561   -2.3536   -0.9532 H   0  0  0  0  0  0  0  0  0  0  0  0
    3.4206   -4.0738   -1.4675 H   0  0  0  0  0  0  0  0  0  0  0  0
    3.4828   -3.6509    0.2853 H   0  0  0  0  0  0  0  0  0  0  0  0
    1.2461    1.1411   -0.1878 C   0  0  0  0  0  0  0  0  0  0  0  0
    2.7269    1.2182   -0.0210 C   0  0  0  0  0  0  0  0  0  0  0  0
    3.4737    2.1468   -0.7698 C   0  0  0  0  0  0  0  0  0  0  0  0
    2.9543    2.7795   -1.5044 H   0  0  0  0  0  0  0  0  0  0  0  0
    4.8576    2.2528   -0.5735 C   0  0  0  0  0  0  0  0  0  0  0  0
    5.4415    2.9715   -1.1683 H   0  0  0  0  0  0  0  0  0  0  0  0
    5.4969    1.4483    0.3841 C   0  0  0  0  0  0  0  0  0  0  0  0
    6.5827    1.5374    0.5414 H   0  0  0  0  0  0  0  0  0  0  0  0
    4.7481    0.5391    1.1500 C   0  0  0  0  0  0  0  0  0  0  0  0
    5.2432   -0.0730    1.9193 H   0  0  0  0  0  0  0  0  0  0  0  0
    3.3666    0.4167    0.9474 C   0  0  0  0  0  0  0  0  0  0  0  0
    2.7608   -0.2688    1.5589 H   0  0  0  0  0  0  0  0  0  0  0  0
   -0.7866    2.4272   -0.0272 C   0  0  2  0  0  3  0  0  0  0  0  0
   -0.3784    4.8530   -0.2787 C   0  0  0  0  0  0  0  0  0  0  0  0
   -0.6255    5.5608    0.5435 H   0  0  0  0  0  0  0  0  0  0  0  0
   -0.4711    5.3953   -1.2446 H   0  0  0  0  0  0  0  0  0  0  0  0
    0.6610    4.5023   -0.1596 H   0  0  0  0  0  0  0  0  0  0  0  0
   -2.6873    3.9487   -0.3104 C   0  0  0  0  0  0  0  0  0  0  0  0
   -3.1975    3.1289   -0.8564 H   0  0  0  0  0  0  0  0  0  0  0  0
   -2.8661    4.8892   -0.8661 H   0  0  0  0  0  0  0  0  0  0  0  0
   -3.1561    4.0542    0.6965 H   0  0  0  0  0  0  0  0  0  0  0  0
  1  5  1  0  0  0  0
  2  3  1  0  0  0  0
  4 11  1  0  0  0  0
  4 10  1  0  0  0  0
  5 19  1  0  0  0  0
  7 31  1  0  0  0  0
  8  9  1  0  0  0  0
 10  1  1  6  0  0  0
 10  2  1  0  0  0  0
 11 12  1  0  0  0  0
 13 11  1  0  0  0  0
 14 11  1  0  0  0  0
 15  4  1  0  0  0  0
 15 18  1  0  0  0  0
 16 15  1  0  0  0  0
 17 15  1  0  0  0  0
 19  6  2  0  0  0  0
 19 20  1  0  0  0  0
 20 29  1  0  0  0  0
 21 23  1  0  0  0  0
 21 20  2  0  0  0  0
 22 21  1  0  0  0  0
 23 25  2  0  0  0  0
 24 23  1  0  0  0  0
 25 26  1  0  0  0  0
 25 27  1  0  0  0  0
 27 28  1  0  0  0  0
 29 27  2  0  0  0  0
 29 30  1  0  0  0  0
 31  6  1  1  0  0  0
 31  8  1  0  0  0  0
 32  7  1  0  0  0  0
 32 35  1  0  0  0  0
 32 33  1  0  0  0  0
 34 32  1  0  0  0  0
 36  7  1  0  0  0  0
 36 39  1  0  0  0  0
 37 36  1  0  0  0  0
 38 36  1  0  0  0  0
M  END
