3,5,6
q = -2.0, confidence = 0.84

 48 50  0  0  1  0  0  0  0  0999 V2000
    2.3928   -1.8095    0.9084 S   0  0  0  0  0  0  0  0  0  0  0  0
   -3.6444    1.8593    0.4906 S   0  0  0  0  0  0  0  0  0  0  0  0
    1.0417    0.4538    0.1562 N   0  0  0  0  0  2  0  0  0  0  0  0
    3.3786    0.3646   -0.2800 N   0  0  0  0  0  2  0  0  0  0  0  0
   -2.6781   -0.4343   -0.4449 N   0  0  0  0  0  2  0  0  0  0  0  0
   -1.2026    1.2316   -0.7686 N   0  0  0  0  0  2  0  0  0  0  0  0
    1.0117    1.8739   -0.2373 C   0  0  2  0  0  0  0  0  0  0  0  0
    1.3477    1.9528   -1.3013 H   0  0  0  0  0  0  0  0  0  0  0  0
    1.8663    2.8496    0.5831 C   0  0  0  0  0  0  0  0  0  0  0  0
    2.9241    2.5303    0.5423 H   0  0  0  0  0  0  0  0  0  0  0  0
    1.5398    2.8097    1.6462 H   0  0  0  0  0  0  0  0  0  0  0  0
    1.7043    4.2707    0.0191 C   0  0  0  0  0  0  0  0  0  0  0  0
    2.2901    4.9905    0.6281 H   0  0  0  0  0  0  0  0  0  0  0  0
    2.1469    4.2989   -1.0016 H   0  0  0  0  0  0  0  0  0  0  0  0
    0.2367    4.7206   -0.0588 C   0  0  0  0  0  0  0  0  0  0  0  0
   -0.1615    4.8434    0.9734 H   0  0  0  0  0  0  0  0  0  0  0  0
    0.1615    5.7177   -0.5408 H   0  0  0  0  0  0  0  0  0  0  0  0
   -0.6389    3.7023   -0.8053 C   0  0  0  0  0  0  0  0  0  0  0  0
   -0.3559    3.6478   -1.8789 H   0  0  0  0  0  0  0  0  0  0  0  0
   -1.7089    3.9981   -0.7670 H   0  0  0  0  0  0  0  0  0  0  0  0
   -0.4543    2.3198   -0.1725 C   0  0  1  0  0  0  0  0  0  0  0  0
   -0.7320    2.4106    0.9095 H   0  0  0  0  0  0  0  0  0  0  0  0
    5.5576   -0.3577   -1.1345 C   0  0  0  0  0  0  0  0  0  0  0  0
    5.8923    0.6898   -1.2689 H   0  0  0  0  0  0  0  0  0  0  0  0
    5.0826   -0.6872   -2.0803 H   0  0  0  0  0  0  0  0  0  0  0  0
    6.4493   -0.9897   -0.9448 H   0  0  0  0  0  0  0  0  0  0  0  0
    5.1914    0.0790    1.3287 C   0  0  0  0  0  0  0  0  0  0  0  0
    5.4171    1.1592    1.2312 H   0  0  0  0  0  0  0  0  0  0  0  0
    6.1333   -0.4584    1.5644 H   0  0  0  0  0  0  0  0  0  0  0  0
    4.4865   -0.0553    2.1741 H   0  0  0  0  0  0  0  0  0  0  0  0
    4.5573   -0.4469    0.0255 C   0  0  0  0  0  0  0  0  0  0  0  0
    4.0799   -1.9199    0.2178 C   0  0  0  0  0  0  0  0  0  0  0  0
    4.7324   -2.4913    0.9071 H   0  0  0  0  0  0  0  0  0  0  0  0
    4.0366   -2.4539   -0.7548 H   0  0  0  0  0  0  0  0  0  0  0  0
    2.2732   -0.1298    0.1819 C   0  0  2  0  0  3  0  0  0  0  0  0
   -4.9490   -0.7727   -1.2530 C   0  0  0  0  0  0  0  0  0  0  0  0
   -4.9849    0.2469   -1.6862 H   0  0  0  0  0  0  0  0  0  0  0  0
   -5.9811   -1.0829   -0.9913 H   0  0  0  0  0  0  0  0  0  0  0  0
   -4.5557   -1.4624   -2.0250 H   0  0  0  0  0  0  0  0  0  0  0  0
   -4.0501   -2.1784    0.6456 C   0  0  0  0  0  0  0  0  0  0  0  0
   -3.7544   -2.9591   -0.0832 H   0  0  0  0  0  0  0  0  0  0  0  0
   -5.0684   -2.4214    1.0092 H   0  0  0  0  0  0  0  0  0  0  0  0
   -3.3448   -2.2193    1.4964 H   0  0  0  0  0  0  0  0  0  0  0  0
   -4.0314   -0.7968   -0.0149 C   0  0  0  0  0  0  0  0  0  0  0  0
   -4.4647    0.2969    1.0089 C   0  0  0  0  0  0  0  0  0  0  0  0
   -4.1171    0.0454    2.0320 H   0  0  0  0  0  0  0  0  0  0  0  0
   -5.5616    0.4461    1.0266 H   0  0  0  0  0  0  0  0  0  0  0  0
   -2.4083    0.8690   -0.3545 C   0  0  2  0  0  3  0  0  0  0  0  0
  2 45  1  0  0  0  0
  4 31  1  0  0  0  0
  4 35  1  0  0  0  0
  5 48  1  0  0  0  0
  5 44  1  0  0  0  0
  6 21  1  0  0  0  0
  7  8  1  6  0  0  0
  7 21  1  0  0  0  0
  7  3  1  0  0  0  0
  7  9  1  0  0  0  0
  9 11  1  0  0  0  0
 10  9  1  0  0  0  0
 12  9  1  0  0  0  0
 12 13  1  0  0  0  0
 14 12  1  0  0  0  0
 15 12  1  0  0  0  0
 15 16  1  0  0  0  0
 17 15  1  0  0  0  0
 18 20  1  0  0  0  0
 18 21  1  0  0  0  0
 18 15  1  0  0  0  0
 19 18  1  0  0  0  0
 21 22  1  1  0  0  0
 23 26  1  0  0  0  0
 23 31  1  0  0  0  0
 24 23  1  0  0  0  0
 25 23  1  0  0  0  0
 27 29  1  0  0  0  0
 27 30  1  0  0  0  0
 28 27  1  0  0  0  0
 31 32  1  0  0  0  0
 31 27  1  0  0  0  0
 32 33  1  0  0  0  0
 32  1  1  0  0  0  0
 34 32  1  0  0  0  0
 35  3  1  6  0  0  0
 35  1  1  0  0  0  0
 36 38  1  0  0  0  0
 36 44  1  0  0  0  0
 37 36  1  0  0  0  0
 39 36  1  0  0  0  0
 40 42  1  0  0  0  0
 40 43  1  0  0  0  0
 41 40  1  0  0  0  0
 44 40  1  0  0  0  0
 44 45  1  0  0  0  0
 45 47  1  0  0  0  0
 45 46  1  0  0  0  0
 48  6  1  1  0  0  0
 48  2  1  0  0  0  0
M  END
