3,4,13
q = 0.0, confidence = 0.99

 56 59  0  0  1  0  0  0  0  0999 V2000
    4.6074    4.1190    0.2255 O   0  0  0  0  0  0  0  0  0  0  0  0
   -2.5379    3.1276   -1.1956 O   0  0  0  0  0  0  0  0  0  0  0  0
    0.3870    0.1260   -1.0688 N   0  0  0  0  0  2  0  0  0  0  0  0
   -0.1945   -1.0502    1.1025 N   0  0  0  0  0  2  0  0  0  0  0  0
   -2.3693   -0.6260    1.1875 N   0  0  0  0  0  0  0  0  0  0  0  0
   -0.2476    2.4758   -0.7820 C   0  0  0  0  0  0  0  0  0  0  0  0
    0.0888    3.4596   -0.4373 H   0  0  0  0  0  0  0  0  0  0  0  0
    2.0730    1.5878   -0.2874 C   0  0  1  0  0  3  0  0  0  0  0  0
    4.5723    1.7633    0.8794 C   0  0  0  0  0  0  0  0  0  0  0  0
    5.5571    1.7677    1.3627 H   0  0  0  0  0  0  0  0  0  0  0  0
   -5.7370   -0.7628   -0.3878 C   0  0  0  0  0  0  0  0  0  0  0  0
   -6.3474   -1.4641   -0.9782 H   0  0  0  0  0  0  0  0  0  0  0  0
    2.6275    0.4627    0.2657 N   0  0  0  0  0  2  0  0  0  0  0  0
   -1.9421    0.8815   -1.6554 C   0  0  0  0  0  0  0  0  0  0  0  0
   -1.8213    0.8638   -2.7614 H   0  0  0  0  0  0  0  0  0  0  0  0
   -3.0127    0.6952   -1.4496 H   0  0  0  0  0  0  0  0  0  0  0  0
   -7.6403    0.9034   -0.5201 C   0  0  0  0  0  0  0  0  0  0  0  0
   -7.7677    2.0026   -0.5449 H   0  0  0  0  0  0  0  0  0  0  0  0
   -8.4033    0.4989    0.1788 H   0  0  0  0  0  0  0  0  0  0  0  0
   -7.8772    0.4999   -1.5239 H   0  0  0  0  0  0  0  0  0  0  0  0
   -2.2760    4.4819   -0.8103 C   0  0  0  0  0  0  0  0  0  0  0  0
   -3.2302    5.0237   -0.9286 H   0  0  0  0  0  0  0  0  0  0  0  0
   -1.5038    4.9352   -1.4657 H   0  0  0  0  0  0  0  0  0  0  0  0
   -1.9462    4.5287    0.2484 H   0  0  0  0  0  0  0  0  0  0  0  0
   -1.5484    2.2413   -1.1661 C   0  0  2  0  0  3  0  0  0  0  0  0
   -3.9179   -2.5368   -0.3062 C   0  0  0  0  0  0  0  0  0  0  0  0
   -4.7080   -3.1814   -0.7331 H   0  0  0  0  0  0  0  0  0  0  0  0
   -3.5014   -3.0476    0.5854 H   0  0  0  0  0  0  0  0  0  0  0  0
   -3.0958   -2.4906   -1.0521 H   0  0  0  0  0  0  0  0  0  0  0  0
    0.6972    1.3851   -0.7952 C   0  0  0  0  0  0  0  0  0  0  0  0
    4.0195    2.9213    0.2854 C   0  0  0  0  0  0  0  0  0  0  0  0
   -1.9997   -1.1314    2.4289 C   0  0  0  0  0  0  0  0  0  0  0  0
   -2.7325   -1.2539    3.2320 H   0  0  0  0  0  0  0  0  0  0  0  0
   -5.4630    1.3876    0.6878 C   0  0  0  0  0  0  0  0  0  0  0  0
   -5.8544    2.3858    0.9393 H   0  0  0  0  0  0  0  0  0  0  0  0
    2.7343    2.8151   -0.2958 C   0  0  0  0  0  0  0  0  0  0  0  0
    2.2904    3.7028   -0.7656 H   0  0  0  0  0  0  0  0  0  0  0  0
   -4.1801    1.0319    1.1398 C   0  0  0  0  0  0  0  0  0  0  0  0
   -3.3489    1.9809    1.9643 C   0  0  0  0  0  0  0  0  0  0  0  0
   -3.3312    1.6783    3.0325 H   0  0  0  0  0  0  0  0  0  0  0  0
   -3.7601    3.0068    1.9204 H   0  0  0  0  0  0  0  0  0  0  0  0
   -2.2917    2.0086    1.6298 H   0  0  0  0  0  0  0  0  0  0  0  0
   -0.6452   -1.3954    2.3580 C   0  0  0  0  0  0  0  0  0  0  0  0
    0.0218   -1.8142    3.1185 H   0  0  0  0  0  0  0  0  0  0  0  0
   -3.7007   -0.2490    0.7893 C   0  0  0  0  0  0  0  0  0  0  0  0
   -4.4608   -1.1722    0.0350 C   0  0  0  0  0  0  0  0  0  0  0  0
   -6.2564    0.5098   -0.0755 C   0  0  0  0  0  0  0  0  0  0  0  0
   -1.0531   -0.2086   -1.0516 C   0  0  2  0  0  0  0  0  0  0  0  0
   -1.1865   -1.1294   -1.6577 H   0  0  0  0  0  0  0  0  0  0  0  0
    5.9165    4.2840    0.7784 C   0  0  0  0  0  0  0  0  0  0  0  0
    6.1918    5.3377    0.5982 H   0  0  0  0  0  0  0  0  0  0  0  0
    6.6494    3.6200    0.2739 H   0  0  0  0  0  0  0  0  0  0  0  0
    5.9177    4.0844    1.8706 H   0  0  0  0  0  0  0  0  0  0  0  0
   -1.2500   -0.5835    0.4109 C   0  0  2  0  0  3  0  0  0  0  0  0
    3.8446    0.5727    0.8397 C   0  0  0  0  0  0  0  0  0  0  0  0
    4.2563   -0.3460    1.2827 H   0  0  0  0  0  0  0  0  0  0  0  0
  1 31  1  0  0  0  0
  1 50  1  0  0  0  0
  2 21  1  0  0  0  0
  3 48  1  0  0  0  0
  3 30  1  0  0  0  0
  4 43  1  0  0  0  0
  5 32  1  0  0  0  0
  6  7  1  0  0  0  0
  8 30  1  1  0  0  0
  8 13  1  0  0  0  0
  9 10  1  0  0  0  0
 11 47  2  0  0  0  0
 11 46  1  0  0  0  0
 12 11  1  0  0  0  0
 13 55  1  0  0  0  0
 14 16  1  0  0  0  0
 14 25  1  0  0  0  0
 14 48  1  0  0  0  0
 15 14  1  0  0  0  0
 17 47  1  0  0  0  0
 17 19  1  0  0  0  0
 18 17  1  0  0  0  0
 20 17  1  0  0  0  0
 21 24  1  0  0  0  0
 22 21  1  0  0  0  0
 23 21  1  0  0  0  0
 25  2  1  6  0  0  0
 25  6  1  0  0  0  0
 26 46  1  0  0  0  0
 26 28  1  0  0  0  0
 27 26  1  0  0  0  0
 29 26  1  0  0  0  0
 30  6  2  0  0  0  0
 31  9  1  0  0  0  0
 32 33  1  0  0  0  0
 34 35  1  0  0  0  0
 34 38  2  0  0  0  0
 36  8  1  0  0  0  0
 36 31  2  0  0  0  0
 37 36  1  0  0  0  0
 38 39  1  0  0  0  0
 39 40  1  0  0  0  0
 41 39  1  0  0  0  0
 42 39  1  0  0  0  0
 43 32  2  0  0  0  0
 43 44  1  0  0  0  0
 45 38  1  0  0  0  0
 45  5  1  0  0  0  0
 46 45  2  0  0  0  0
 47 34  1  0  0  0  0
 48 49  1  6  0  0  0
 48 54  1  0  0  0  0
 50 53  1  0  0  0  0
 51 50  1  0  0  0  0
 52 50  1  0  0  0  0
 54  4  1  6  0  0  0
 54  5  1  0  0  0  0
 55  9  2  0  0  0  0
 55 56  1  0  0  0  0
M  END
