3,4,5
q = 0.0, confidence = 0.982

 32 34  0  0  1  0  0  0  0  0999 V2000
   -4.0888    2.9081    0.2546 Br  0  0  0  0  0  0  0  0  0  0  0  0
   -3.6974   -2.8393   -0.9180 Br  0  0  0  0  0  0  0  0  0  0  0  0
    0.2856    1.3163   -0.1589 N   0  0  0  0  0  2  0  0  0  0  0  0
    1.8073   -0.2552    1.6423 N   0  0  0  0  0  2  0  0  0  0  0  0
    0.7279   -1.1925   -0.6344 N   0  0  0  0  0  2  0  0  0  0  0  0
    0.3215   -1.1007    3.0593 N   0  0  0  0  0  0  0  0  0  0  0  0
   -1.1348   -2.1137   -1.9262 C   0  0  0  0  0  0  0  0  0  0  0  0
   -1.4917   -2.3599   -2.9353 H   0  0  0  0  0  0  0  0  0  0  0  0
   -0.2316   -0.9578    0.4892 C   0  0  2  0  0  0  0  0  0  0  0  0
   -2.0436    0.9163    0.3394 C   0  0  0  0  0  0  0  0  0  0  0  0
   -2.8529    0.2251    0.6089 H   0  0  0  0  0  0  0  0  0  0  0  0
    2.3175   -0.1300    2.9129 C   0  0  0  0  0  0  0  0  0  0  0  0
    3.2889    0.3332    3.1121 H   0  0  0  0  0  0  0  0  0  0  0  0
    0.2306   -1.6761   -1.7463 C   0  0  0  0  0  0  0  0  0  0  0  0
    0.9163   -1.7164   -2.6094 H   0  0  0  0  0  0  0  0  0  0  0  0
   -0.7234    0.4826    0.2102 C   0  0  1  0  0  3  0  0  0  0  0  0
   -0.8783   -1.6887    3.6465 C   0  0  0  0  0  0  0  0  0  0  0  0
   -1.7742   -1.0871    3.4004 H   0  0  0  0  0  0  0  0  0  0  0  0
   -0.7609   -1.6951    4.7441 H   0  0  0  0  0  0  0  0  0  0  0  0
   -1.0238   -2.7312    3.3073 H   0  0  0  0  0  0  0  0  0  0  0  0
    0.6135   -0.8532    1.7442 C   0  0  1  0  0  3  0  0  0  0  0  0
   -1.9242   -2.2464   -0.8237 C   0  0  2  0  0  3  0  0  0  0  0  0
   -1.2826    3.1449   -0.2570 C   0  0  0  0  0  0  0  0  0  0  0  0
   -1.4650    4.2110   -0.4469 H   0  0  0  0  0  0  0  0  0  0  0  0
   -1.3478   -2.0084    0.5440 C   0  0  0  0  0  0  0  0  0  0  0  0
   -0.9303   -2.9708    0.9170 H   0  0  0  0  0  0  0  0  0  0  0  0
   -2.1402   -1.7165    1.2561 H   0  0  0  0  0  0  0  0  0  0  0  0
   -2.3262    2.2761    0.1006 C   0  0  0  0  0  0  0  0  0  0  0  0
    0.0066    2.6179   -0.3821 C   0  0  0  0  0  0  0  0  0  0  0  0
    0.8512    3.2569   -0.6790 H   0  0  0  0  0  0  0  0  0  0  0  0
    1.4036   -0.6547    3.8046 C   0  0  0  0  0  0  0  0  0  0  0  0
    1.4253   -0.7523    4.8945 H   0  0  0  0  0  0  0  0  0  0  0  0
  4 12  1  0  0  0  0
  6 17  1  0  0  0  0
  6 31  1  0  0  0  0
  7 14  2  0  0  0  0
  7 22  1  0  0  0  0
  8  7  1  0  0  0  0
  9  5  1  6  0  0  0
  9 25  1  0  0  0  0
  9 21  1  0  0  0  0
 10 11  1  0  0  0  0
 12 13  1  0  0  0  0
 12 31  2  0  0  0  0
 14  5  1  0  0  0  0
 15 14  1  0  0  0  0
 16  3  1  1  0  0  0
 16 10  1  0  0  0  0
 16  9  1  0  0  0  0
 17 19  1  0  0  0  0
 18 17  1  0  0  0  0
 20 17  1  0  0  0  0
 21  4  1  1  0  0  0
 21  6  1  0  0  0  0
 22  2  1  1  0  0  0
 22 25  1  0  0  0  0
 23 28  1  0  0  0  0
 24 23  1  0  0  0  0
 25 26  1  0  0  0  0
 25 27  1  0  0  0  0
 28  1  1  0  0  0  0
 28 10  2  0  0  0  0
 29 23  2  0  0  0  0
 29  3  1  0  0  0  0
 30 29  1  0  0  0  0
 31 32  1  0  0  0  0
M  END
