3,4,5
q = -2.0, confidence = 0.91

 57 59  0  0  1  0  0  0  0  0999 V2000
   -1.3092    0.2338    2.9119 Si  0  0  0  0  0  0  0  0  0  0  0  0
    3.4055   -1.3047    0.6061 Si  0  0  0  0  0  0  0  0  0  0  0  0
   -1.3780    0.3891    1.1467 N   0  0  0  0  0  2  0  0  0  0  0  0
    0.2949    0.6195   -1.0155 N   0  0  0  0  0  2  0  0  0  0  0  0
    1.8791   -0.7259   -0.0831 N   0  0  0  0  0  2  0  0  0  0  0  0
   -2.0618    1.4543    0.5570 C   0  0  0  0  0  0  0  0  0  0  0  0
   -3.2998    1.8835    1.0886 C   0  0  0  0  0  0  0  0  0  0  0  0
   -3.7172    1.3195    1.9355 H   0  0  0  0  0  0  0  0  0  0  0  0
   -4.0116    2.9947    0.5906 C   0  0  0  0  0  0  0  0  0  0  0  0
   -4.9668    3.2770    1.0607 H   0  0  0  0  0  0  0  0  0  0  0  0
   -3.5112    3.7279   -0.4730 C   0  0  0  0  0  0  0  0  0  0  0  0
   -4.0449    4.6088   -0.8602 H   0  0  0  0  0  0  0  0  0  0  0  0
   -2.2847    3.3419   -1.0875 C   0  0  0  0  0  0  0  0  0  0  0  0
   -1.7722    4.1076   -2.1780 C   0  0  0  0  0  0  0  0  0  0  0  0
   -2.3462    4.9854   -2.5122 H   0  0  0  0  0  0  0  0  0  0  0  0
   -0.5864    3.7594   -2.8024 C   0  0  0  0  0  0  0  0  0  0  0  0
   -0.1970    4.3610   -3.6379 H   0  0  0  0  0  0  0  0  0  0  0  0
    0.1163    2.6091   -2.3806 C   0  0  0  0  0  0  0  0  0  0  0  0
    1.0382    2.2970   -2.8927 H   0  0  0  0  0  0  0  0  0  0  0  0
   -0.3506    1.8235   -1.3208 C   0  0  0  0  0  0  0  0  0  0  0  0
   -1.5556    2.1828   -0.6092 C   0  0  0  0  0  0  0  0  0  0  0  0
    1.5229    0.5044   -0.5065 C   0  0  2  0  0  3  0  0  0  0  0  0
    2.3821    1.7117   -0.2793 C   0  0  0  0  0  0  0  0  0  0  0  0
    2.0050    2.6402    0.7111 C   0  0  0  0  0  0  0  0  0  0  0  0
    1.0686    2.4807    1.2673 H   0  0  0  0  0  0  0  0  0  0  0  0
    2.8182    3.7495    0.9798 C   0  0  0  0  0  0  0  0  0  0  0  0
    2.5224    4.4663    1.7609 H   0  0  0  0  0  0  0  0  0  0  0  0
    4.0021    3.9505    0.2508 C   0  0  0  0  0  0  0  0  0  0  0  0
    4.6374    4.8244    0.4606 H   0  0  0  0  0  0  0  0  0  0  0  0
    4.3686    3.0396   -0.7530 C   0  0  0  0  0  0  0  0  0  0  0  0
    5.2884    3.2008   -1.3356 H   0  0  0  0  0  0  0  0  0  0  0  0
    3.5622    1.9219   -1.0163 C   0  0  0  0  0  0  0  0  0  0  0  0
    3.8463    1.2069   -1.8032 H   0  0  0  0  0  0  0  0  0  0  0  0
    0.2622   -0.7739    3.2646 C   0  0  0  0  0  0  0  0  0  0  0  0
    0.3656   -0.9193    4.3603 H   0  0  0  0  0  0  0  0  0  0  0  0
    1.1709   -0.2512    2.9037 H   0  0  0  0  0  0  0  0  0  0  0  0
    0.2310   -1.7975    2.8304 H   0  0  0  0  0  0  0  0  0  0  0  0
   -2.7567   -0.7280    3.6746 C   0  0  0  0  0  0  0  0  0  0  0  0
   -2.6011   -0.8759    4.7639 H   0  0  0  0  0  0  0  0  0  0  0  0
   -2.8214   -1.7316    3.2046 H   0  0  0  0  0  0  0  0  0  0  0  0
   -3.7329   -0.2196    3.5403 H   0  0  0  0  0  0  0  0  0  0  0  0
   -1.1230    1.9287    3.7324 C   0  0  0  0  0  0  0  0  0  0  0  0
   -1.0445    1.8186    4.8336 H   0  0  0  0  0  0  0  0  0  0  0  0
   -1.9808    2.5932    3.5101 H   0  0  0  0  0  0  0  0  0  0  0  0
   -0.2026    2.4327    3.3723 H   0  0  0  0  0  0  0  0  0  0  0  0
    4.2205   -0.1054    1.8219 C   0  0  0  0  0  0  0  0  0  0  0  0
    3.5036    0.2061    2.6086 H   0  0  0  0  0  0  0  0  0  0  0  0
    4.6006    0.8101    1.3287 H   0  0  0  0  0  0  0  0  0  0  0  0
    5.0729   -0.6108    2.3228 H   0  0  0  0  0  0  0  0  0  0  0  0
    2.9979   -2.9034    1.5264 C   0  0  0  0  0  0  0  0  0  0  0  0
    2.4130   -2.6991    2.4454 H   0  0  0  0  0  0  0  0  0  0  0  0
    3.9350   -3.4141    1.8301 H   0  0  0  0  0  0  0  0  0  0  0  0
    2.4061   -3.6131    0.9139 H   0  0  0  0  0  0  0  0  0  0  0  0
    4.6130   -1.7114   -0.7997 C   0  0  0  0  0  0  0  0  0  0  0  0
    4.9064   -0.8038   -1.3646 H   0  0  0  0  0  0  0  0  0  0  0  0
    4.1657   -2.4310   -1.5165 H   0  0  0  0  0  0  0  0  0  0  0  0
    5.5398   -2.1708   -0.3973 H   0  0  0  0  0  0  0  0  0  0  0  0
  1 34  1  0  0  0  0
  1 38  1  0  0  0  0
  1 42  1  0  0  0  0
  2 50  1  0  0  0  0
  2 46  1  0  0  0  0
  3  1  1  0  0  0  0
  5  2  1  0  0  0  0
  6  7  1  0  0  0  0
  6  3  1  0  0  0  0
  7  8  1  0  0  0  0
  9 10  1  0  0  0  0
  9  7  2  0  0  0  0
 11  9  1  0  0  0  0
 12 11  1  0  0  0  0
 13 21  1  0  0  0  0
 13 11  2  0  0  0  0
 14 13  1  0  0  0  0
 15 14  1  0  0  0  0
 16 18  1  0  0  0  0
 16 14  2  0  0  0  0
 17 16  1  0  0  0  0
 18 20  2  0  0  0  0
 19 18  1  0  0  0  0
 20  4  1  0  0  0  0
 20 21  1  0  0  0  0
 21  6  2  0  0  0  0
 22  4  1  1  0  0  0
 22 23  1  0  0  0  0
 22  5  1  0  0  0  0
 23 24  1  0  0  0  0
 24 26  2  0  0  0  0
 24 25  1  0  0  0  0
 26 27  1  0  0  0  0
 28 29  1  0  0  0  0
 28 26  1  0  0  0  0
 30 28  2  0  0  0  0
 31 30  1  0  0  0  0
 32 30  1  0  0  0  0
 32 23  2  0  0  0  0
 33 32  1  0  0  0  0
 34 35  1  0  0  0  0
 36 34  1  0  0  0  0
 37 34  1  0  0  0  0
 38 39  1  0  0  0  0
 40 38  1  0  0  0  0
 41 38  1  0  0  0  0
 42 43  1  0  0  0  0
 44 42  1  0  0  0  0
 45 42  1  0  0  0  0
 46 49  1  0  0  0  0
 46 47  1  0  0  0  0
 48 46  1  0  0  0  0
 50 52  1  0  0  0  0
 50 51  1  0  0  0  0
 53 50  1  0  0  0  0
 54 57  1  0  0  0  0
 54  2  1  0  0  0  0
 55 54  1  0  0  0  0
 56 54  1  0  0  0  0
M  END
