2,3,4
q = 0.0, confidence = 0.996

 49 53  0  0  0  0  0  0  0  0999 V2000
    7.5037   -0.7817   -0.7289 O   0  0  0  0  0  0  0  0  0  0  0  0
   -2.3321    2.0070   -0.3256 N   0  0  0  0  0  2  0  0  0  0  0  0
   -0.8728   -0.1134   -0.0557 N   0  0  0  0  0  2  0  0  0  0  0  0
   -2.6618   -1.9569    0.2439 N   0  0  0  0  0  2  0  0  0  0  0  0
   -3.1944    3.0372   -0.4543 C   0  0  0  0  0  3  0  0  0  0  0  0
   -4.2601    2.7651   -0.3914 H   0  0  0  0  0  0  0  0  0  0  0  0
   -2.7431    4.3468   -0.6528 C   0  0  0  0  0  0  0  0  0  0  0  0
   -3.4759    5.1594   -0.7534 H   0  0  0  0  0  0  0  0  0  0  0  0
   -1.3641    4.5916   -0.7184 C   0  0  0  0  0  0  0  0  0  0  0  0
   -0.9828    5.6113   -0.8738 H   0  0  0  0  0  0  0  0  0  0  0  0
   -0.4708    3.5199   -0.5835 C   0  0  0  0  0  0  0  0  0  0  0  0
    0.6141    3.6857   -0.6304 H   0  0  0  0  0  0  0  0  0  0  0  0
   -0.9674    2.2244   -0.3870 C   0  0  0  0  0  0  0  0  0  0  0  0
   -0.1313    1.0168   -0.2281 C   0  0  0  0  0  0  0  0  0  0  0  0
    1.2622    0.9190   -0.2425 C   0  0  0  0  0  0  0  0  0  0  0  0
    1.8767    1.8115   -0.4173 H   0  0  0  0  0  0  0  0  0  0  0  0
    1.8944   -0.3446   -0.0796 C   0  0  0  0  0  0  0  0  0  0  0  0
    1.0636   -1.4858    0.0889 C   0  0  0  0  0  0  0  0  0  0  0  0
    1.5259   -2.4702    0.2413 H   0  0  0  0  0  0  0  0  0  0  0  0
   -0.3279   -1.3517    0.0981 C   0  0  0  0  0  0  0  0  0  0  0  0
   -1.3524   -2.4020    0.2750 C   0  0  0  0  0  0  0  0  0  0  0  0
   -1.0783   -3.7629    0.4645 C   0  0  0  0  0  0  0  0  0  0  0  0
   -0.0364   -4.1097    0.4900 H   0  0  0  0  0  0  0  0  0  0  0  0
   -2.1367   -4.6686    0.6211 C   0  0  0  0  0  0  0  0  0  0  0  0
   -1.9300   -5.7382    0.7711 H   0  0  0  0  0  0  0  0  0  0  0  0
   -3.4553   -4.1941    0.5846 C   0  0  0  0  0  0  0  0  0  0  0  0
   -4.3127   -4.8711    0.7030 H   0  0  0  0  0  0  0  0  0  0  0  0
   -3.6828   -2.8266    0.3935 C   0  0  0  0  0  0  0  0  0  0  0  0
   -4.6883   -2.3782    0.3536 H   0  0  0  0  0  0  0  0  0  0  0  0
    3.3575   -0.4853   -0.1442 C   0  0  0  0  0  0  0  0  0  0  0  0
    3.8962   -1.5207   -0.9181 C   0  0  0  0  0  0  0  0  0  0  0  0
    3.2157   -2.2152   -1.4343 H   0  0  0  0  0  0  0  0  0  0  0  0
    5.2803   -1.6648   -1.1355 C   0  0  0  0  0  0  0  0  0  0  0  0
    5.6394   -2.4757   -1.7812 H   0  0  0  0  0  0  0  0  0  0  0  0
    6.1706   -0.7525   -0.5605 C   0  0  0  0  0  0  0  0  0  0  0  0
    5.6776    0.3058    0.2883 C   0  0  0  0  0  0  0  0  0  0  0  0
    6.5822    1.1992    0.9245 C   0  0  0  0  0  0  0  0  0  0  0  0
    7.6561    1.0816    0.7273 H   0  0  0  0  0  0  0  0  0  0  0  0
    6.1194    2.1834    1.7868 C   0  0  0  0  0  0  0  0  0  0  0  0
    6.8284    2.8673    2.2758 H   0  0  0  0  0  0  0  0  0  0  0  0
    4.7339    2.2849    2.0586 C   0  0  0  0  0  0  0  0  0  0  0  0
    4.3702    3.0357    2.7761 H   0  0  0  0  0  0  0  0  0  0  0  0
    3.8303    1.4283    1.4414 C   0  0  0  0  0  0  0  0  0  0  0  0
    2.7655    1.4984    1.7052 H   0  0  0  0  0  0  0  0  0  0  0  0
    4.2613    0.4336    0.5152 C   0  0  0  0  0  0  0  0  0  0  0  0
    8.0854   -1.8024   -1.5333 C   0  0  0  0  0  0  0  0  0  0  0  0
    9.1747   -1.6216   -1.5192 H   0  0  0  0  0  0  0  0  0  0  0  0
    7.7176   -1.7493   -2.5803 H   0  0  0  0  0  0  0  0  0  0  0  0
    7.8748   -2.8114   -1.1187 H   0  0  0  0  0  0  0  0  0  0  0  0
  1 35  1  0  0  0  0
  3 20  1  0  0  0  0
  4 21  1  0  0  0  0
  4 28  1  0  0  0  0
  5  6  1  0  0  0  0
  5  2  1  0  0  0  0
  7  5  1  0  0  0  0
  8  7  1  0  0  0  0
  9  7  2  0  0  0  0
  9 11  1  0  0  0  0
 10  9  1  0  0  0  0
 11 13  2  0  0  0  0
 12 11  1  0  0  0  0
 13  2  1  0  0  0  0
 13 14  1  0  0  0  0
 14  3  1  0  0  0  0
 15 14  2  0  0  0  0
 15 17  1  0  0  0  0
 16 15  1  0  0  0  0
 17 18  2  0  0  0  0
 18 20  1  0  0  0  0
 18 19  1  0  0  0  0
 20 21  2  0  0  0  0
 21 22  1  0  0  0  0
 22 23  1  0  0  0  0
 22 24  2  0  0  0  0
 24 25  1  0  0  0  0
 26 24  1  0  0  0  0
 26 27  1  0  0  0  0
 28 26  2  0  0  0  0
 29 28  1  0  0  0  0
 30 17  1  0  0  0  0
 30 45  1  0  0  0  0
 31 30  2  0  0  0  0
 32 31  1  0  0  0  0
 33 31  1  0  0  0  0
 33 35  2  0  0  0  0
 34 33  1  0  0  0  0
 35 36  1  0  0  0  0
 36 45  2  0  0  0  0
 36 37  1  0  0  0  0
 37 39  2  0  0  0  0
 38 37  1  0  0  0  0
 39 41  1  0  0  0  0
 39 40  1  0  0  0  0
 41 42  1  0  0  0  0
 43 44  1  0  0  0  0
 43 41  2  0  0  0  0
 45 43  1  0  0  0  0
 46 47  1  0  0  0  0
 46 49  1  0  0  0  0
 46  1  1  0  0  0  0
 48 46  1  0  0  0  0
M  END
