3,4,5
q = -1.0, confidence = 0.064

 55 60  0  0  1  0  0  0  0  0999 V2000
   -1.2000    2.5807   -3.0388 O   0  0  0  0  0  0  0  0  0  0  0  0
    0.4025   -3.5587    2.1461 O   0  0  0  0  0  0  0  0  0  0  0  0
   -0.1989    1.3156   -1.4108 N   0  0  0  0  0  2  0  0  0  0  0  0
   -1.6617   -0.8813   -0.5116 N   0  0  0  0  0  0  0  0  0  0  0  0
    0.5971   -1.6784    0.8609 N   0  0  0  0  0  2  0  0  0  0  0  0
    0.6758    2.5030   -1.6512 C   0  0  1  0  0  0  0  0  0  0  0  0
    1.7356    2.2063   -1.7271 H   0  0  0  0  0  0  0  0  0  0  0  0
    0.1711    2.9929   -3.0203 C   0  0  0  0  0  0  0  0  0  0  0  0
    0.2202    4.0904   -3.1489 H   0  0  0  0  0  0  0  0  0  0  0  0
    0.7162    2.4929   -3.8538 H   0  0  0  0  0  0  0  0  0  0  0  0
   -1.2827    1.5158   -2.1782 C   0  0  0  0  0  0  0  0  0  0  0  0
   -2.4597    0.7642   -2.1726 C   0  0  0  0  0  0  0  0  0  0  0  0
   -3.2598    1.0628   -2.8605 H   0  0  0  0  0  0  0  0  0  0  0  0
   -2.6210   -0.3606   -1.3717 C   0  0  0  0  0  0  0  0  0  0  0  0
   -3.8159   -1.1954   -1.3518 C   0  0  0  0  0  3  0  0  0  0  0  0
   -3.5412   -2.2658   -0.4620 C   0  0  0  0  0  0  0  0  0  0  0  0
   -2.1842   -2.0526    0.0272 C   0  0  0  0  0  0  0  0  0  0  0  0
   -1.5128   -2.9075    0.8931 C   0  0  0  0  0  0  0  0  0  0  0  0
   -2.0224   -3.7898    1.2985 H   0  0  0  0  0  0  0  0  0  0  0  0
   -0.1874   -2.6820    1.2766 C   0  0  0  0  0  0  0  0  0  0  0  0
    1.5986   -2.9148    2.5979 C   0  0  0  0  0  0  0  0  0  0  0  0
    2.3809   -3.6791    2.7634 H   0  0  0  0  0  0  0  0  0  0  0  0
    1.3863   -2.3805    3.5518 H   0  0  0  0  0  0  0  0  0  0  0  0
    1.9279   -1.9219    1.4634 C   0  0  1  0  0  0  0  0  0  0  0  0
    2.3312   -0.9842    1.8923 H   0  0  0  0  0  0  0  0  0  0  0  0
   -5.0577   -1.1043   -2.0033 C   0  0  0  0  0  0  0  0  0  0  0  0
   -5.2788   -0.2763   -2.6940 H   0  0  0  0  0  0  0  0  0  0  0  0
   -6.0174   -2.0943   -1.7472 C   0  0  0  0  0  0  0  0  0  0  0  0
   -6.9996   -2.0411   -2.2409 H   0  0  0  0  0  0  0  0  0  0  0  0
   -5.7433   -3.1611   -0.8605 C   0  0  0  0  0  0  0  0  0  0  0  0
   -6.5158   -3.9230   -0.6763 H   0  0  0  0  0  0  0  0  0  0  0  0
   -4.5033   -3.2591   -0.2127 C   0  0  0  0  0  0  0  0  0  0  0  0
   -4.2960   -4.0925    0.4759 H   0  0  0  0  0  0  0  0  0  0  0  0
    2.9326   -2.4832    0.4703 C   0  0  0  0  0  0  0  0  0  0  0  0
    2.5217   -3.2941   -0.6052 C   0  0  0  0  0  0  0  0  0  0  0  0
    1.4491   -3.4891   -0.7544 H   0  0  0  0  0  0  0  0  0  0  0  0
    3.4660   -3.8238   -1.4968 C   0  0  0  0  0  0  0  0  0  0  0  0
    3.1311   -4.4526   -2.3361 H   0  0  0  0  0  0  0  0  0  0  0  0
    4.8329   -3.5514   -1.3243 C   0  0  0  0  0  0  0  0  0  0  0  0
    5.5727   -3.9623   -2.0280 H   0  0  0  0  0  0  0  0  0  0  0  0
    5.2508   -2.7546   -0.2464 C   0  0  0  0  0  0  0  0  0  0  0  0
    6.3199   -2.5342   -0.1043 H   0  0  0  0  0  0  0  0  0  0  0  0
    4.3053   -2.2286    0.6460 C   0  0  0  0  0  0  0  0  0  0  0  0
    4.6347   -1.5895    1.4806 H   0  0  0  0  0  0  0  0  0  0  0  0
    0.5424    3.5707   -0.5770 C   0  0  0  0  0  0  0  0  0  0  0  0
   -0.7239    4.0259   -0.1566 C   0  0  0  0  0  0  0  0  0  0  0  0
   -1.6335    3.5734   -0.5775 H   0  0  0  0  0  0  0  0  0  0  0  0
   -0.8334    5.0370    0.8073 C   0  0  0  0  0  0  0  0  0  0  0  0
   -1.8298    5.3733    1.1316 H   0  0  0  0  0  0  0  0  0  0  0  0
    0.3207    5.6113    1.3663 C   0  0  0  0  0  0  0  0  0  0  0  0
    0.2326    6.3973    2.1315 H   0  0  0  0  0  0  0  0  0  0  0  0
    1.5853    5.1744    0.9445 C   0  0  0  0  0  0  0  0  0  0  0  0
    2.4955    5.6199    1.3747 H   0  0  0  0  0  0  0  0  0  0  0  0
    1.6924    4.1635   -0.0238 C   0  0  0  0  0  0  0  0  0  0  0  0
    2.6855    3.8170   -0.3504 H   0  0  0  0  0  0  0  0  0  0  0  0
  1  8  1  0  0  0  0
  1 11  1  0  0  0  0
  2 21  1  0  0  0  0
  4 17  1  0  0  0  0
  5 20  1  0  0  0  0
  5 24  1  0  0  0  0
  6  7  1  6  0  0  0
  6  3  1  0  0  0  0
  6 45  1  0  0  0  0
  8  6  1  0  0  0  0
  9  8  1  0  0  0  0
 10  8  1  0  0  0  0
 11 12  2  0  0  0  0
 11  3  1  0  0  0  0
 12 14  1  0  0  0  0
 13 12  1  0  0  0  0
 14 15  1  0  0  0  0
 14  4  2  0  0  0  0
 15 16  1  0  0  0  0
 16 32  1  0  0  0  0
 16 17  2  0  0  0  0
 17 18  1  0  0  0  0
 18 20  2  0  0  0  0
 18 19  1  0  0  0  0
 20  2  1  0  0  0  0
 21 22  1  0  0  0  0
 21 23  1  0  0  0  0
 24 25  1  1  0  0  0
 24 21  1  0  0  0  0
 26 28  2  0  0  0  0
 26 15  1  0  0  0  0
 27 26  1  0  0  0  0
 28 30  1  0  0  0  0
 29 28  1  0  0  0  0
 30 31  1  0  0  0  0
 30 32  2  0  0  0  0
 32 33  1  0  0  0  0
 34 43  1  0  0  0  0
 34 24  1  0  0  0  0
 35 34  2  0  0  0  0
 36 35  1  0  0  0  0
 37 39  2  0  0  0  0
 37 35  1  0  0  0  0
 38 37  1  0  0  0  0
 39 41  1  0  0  0  0
 40 39  1  0  0  0  0
 41 42  1  0  0  0  0
 41 43  2  0  0  0  0
 43 44  1  0  0  0  0
 45 46  2  0  0  0  0
 45 54  1  0  0  0  0
 46 48  1  0  0  0  0
 47 46  1  0  0  0  0
 48 49  1  0  0  0  0
 48 50  2  0  0  0  0
 50 51  1  0  0  0  0
 52 50  1  0  0  0  0
 52 53  1  0  0  0  0
 54 52  2  0  0  0  0
 55 54  1  0  0  0  0
M  END
