6,25,29
q = 0.0, confidence = 0.99

 45 47  0  0  1  0  0  0  0  0999 V2000
    3.0406   -1.1989    0.5257 C   0  0  0  0  0  0  0  0  0  0  0  0
    2.1321   -1.5656    1.2663 O   0  0  0  0  0  0  0  0  0  0  0  0
   -2.1325   -1.5652    1.2668 O   0  0  0  0  0  0  0  0  0  0  0  0
    3.1915    0.1383    0.1040 N   0  0  0  0  0  0  0  0  0  0  0  0
    4.0829    0.4231   -0.3203 H   0  0  0  0  0  0  0  0  0  0  0  0
    2.1892    1.0136    0.2040 N   0  0  0  0  0  2  0  0  0  0  0  0
    3.7510    2.8249   -0.3928 C   0  0  0  0  0  0  0  0  0  0  0  0
    4.4933    2.5620    0.3911 H   0  0  0  0  0  0  0  0  0  0  0  0
    4.1120    2.4004   -1.3562 H   0  0  0  0  0  0  0  0  0  0  0  0
    3.7596    3.9209   -0.5100 H   0  0  0  0  0  0  0  0  0  0  0  0
    2.3949    2.2826   -0.0496 C   0  0  0  0  0  0  0  0  0  0  0  0
    1.1824    3.1348   -0.0114 C   0  0  0  0  0  0  0  0  0  0  0  0
    1.2136    4.5451   -0.0200 C   0  0  0  0  0  0  0  0  0  0  0  0
    2.1654    5.0912   -0.0226 H   0  0  0  0  0  0  0  0  0  0  0  0
    0.0001    5.2445   -0.0126 C   0  0  0  0  0  0  0  0  0  0  0  0
    0.0001    6.3442   -0.0051 H   0  0  0  0  0  0  0  0  0  0  0  0
   -1.2134    4.5452   -0.0201 C   0  0  0  0  0  0  0  0  0  0  0  0
   -2.1652    5.0914   -0.0228 H   0  0  0  0  0  0  0  0  0  0  0  0
   -1.1824    3.1349   -0.0113 C   0  0  0  0  0  0  0  0  0  0  0  0
   -2.3949    2.2827   -0.0495 C   0  0  1  0  0  3  0  0  0  0  0  0
   -3.7509    2.8251   -0.3927 C   0  0  0  0  0  0  0  0  0  0  0  0
   -4.4941    2.5590    0.3892 H   0  0  0  0  0  0  0  0  0  0  0  0
   -3.7603    3.9216   -0.5060 H   0  0  0  0  0  0  0  0  0  0  0  0
   -4.1103    2.4037   -1.3580 H   0  0  0  0  0  0  0  0  0  0  0  0
   -2.1892    1.0137    0.2040 N   0  0  0  0  0  2  0  0  0  0  0  0
   -3.1914    0.1383    0.1036 N   0  0  0  0  0  0  0  0  0  0  0  0
   -4.0827    0.4230   -0.3212 H   0  0  0  0  0  0  0  0  0  0  0  0
   -3.0408   -1.1986    0.5258 C   0  0  0  0  0  0  0  0  0  0  0  0
    0.0000    2.4819    0.0015 N   0  0  0  0  0  2  0  0  0  0  0  0
   -4.0885   -2.0817    0.0215 C   0  0  0  0  0  0  0  0  0  0  0  0
   -4.1848   -3.3022    0.6265 O   0  0  0  0  0  0  0  0  0  0  0  0
   -5.1705   -3.9836    0.0038 C   0  0  0  0  0  0  0  0  0  0  0  0
   -5.3710   -4.9905    0.3854 H   0  0  0  0  0  0  0  0  0  0  0  0
   -5.7272   -3.2296   -1.0125 C   0  0  0  0  0  0  0  0  0  0  0  0
   -6.5338   -3.5344   -1.6877 H   0  0  0  0  0  0  0  0  0  0  0  0
   -5.0238   -1.9921   -1.0050 C   0  0  0  0  0  0  0  0  0  0  0  0
   -5.1677   -1.1573   -1.7011 H   0  0  0  0  0  0  0  0  0  0  0  0
    4.0885   -2.0817    0.0215 C   0  0  0  0  0  0  0  0  0  0  0  0
    4.1844   -3.3025    0.6260 O   0  0  0  0  0  0  0  0  0  0  0  0
    5.0244   -1.9917   -1.0044 C   0  0  0  0  0  0  0  0  0  0  0  0
    5.1687   -1.1566   -1.7000 H   0  0  0  0  0  0  0  0  0  0  0  0
    5.7278   -3.2292   -1.0120 C   0  0  0  0  0  0  0  0  0  0  0  0
    6.5348   -3.5337   -1.6869 H   0  0  0  0  0  0  0  0  0  0  0  0
    5.1704   -3.9837    0.0035 C   0  0  0  0  0  0  0  0  0  0  0  0
    5.3707   -4.9908    0.3848 H   0  0  0  0  0  0  0  0  0  0  0  0
  1  2  2  0  0  0  0
  4  6  1  0  0  0  0
  4  1  1  0  0  0  0
  5  4  1  0  0  0  0
  7 11  1  0  0  0  0
  7  8  1  0  0  0  0
  9  7  1  0  0  0  0
 10  7  1  0  0  0  0
 11 12  2  0  0  0  0
 11  6  1  0  0  0  0
 12 29  1  0  0  0  0
 13 15  2  0  0  0  0
 13 12  1  0  0  0  0
 14 13  1  0  0  0  0
 15 16  1  0  0  0  0
 17 15  1  0  0  0  0
 17 19  2  0  0  0  0
 18 17  1  0  0  0  0
 19 29  1  0  0  0  0
 20 19  1  0  0  0  0
 20 25  1  6  0  0  0
 21 20  1  0  0  0  0
 21 22  1  0  0  0  0
 23 21  1  0  0  0  0
 24 21  1  0  0  0  0
 26 25  1  0  0  0  0
 26 28  1  0  0  0  0
 27 26  1  0  0  0  0
 28  3  2  0  0  0  0
 30 28  1  0  0  0  0
 30 31  1  0  0  0  0
 32 33  1  0  0  0  0
 32 31  1  0  0  0  0
 34 36  1  0  0  0  0
 34 32  2  0  0  0  0
 35 34  1  0  0  0  0
 36 30  2  0  0  0  0
 37 36  1  0  0  0  0
 38  1  1  0  0  0  0
 38 39  1  0  0  0  0
 40 38  2  0  0  0  0
 41 40  1  0  0  0  0
 42 40  1  0  0  0  0
 42 44  2  0  0  0  0
 43 42  1  0  0  0  0
 44 45  1  0  0  0  0
 44 39  1  0  0  0  0
M  END
