1,2,16
q = 0.0, confidence = 0.992

 28 29  0  0  1  0  0  0  0  0999 V2000
    0.4091   -0.0004   -1.9216 N   0  0  0  0  0  0  0  0  0  0  0  0
   -0.4019   -1.3660    0.2643 N   0  0  0  0  0  2  0  0  0  0  0  0
   -1.0261   -1.7188   -0.8893 C   0  0  1  0  0  3  0  0  0  0  0  0
   -0.8870   -1.8308    1.4384 C   0  0  0  0  0  0  0  0  0  0  0  0
   -0.3484   -1.5310    2.3487 H   0  0  0  0  0  0  0  0  0  0  0  0
   -0.3496   -1.2539   -2.1503 C   0  0  0  0  0  0  0  0  0  0  0  0
    0.3850   -2.0316   -2.4524 H   0  0  0  0  0  0  0  0  0  0  0  0
   -1.0747   -1.1500   -2.9852 H   0  0  0  0  0  0  0  0  0  0  0  0
   -2.1686   -2.5300   -0.8948 C   0  0  0  0  0  0  0  0  0  0  0  0
   -2.6510   -2.7878   -1.8488 H   0  0  0  0  0  0  0  0  0  0  0  0
   -2.0123   -2.6576    1.5083 C   0  0  0  0  0  0  0  0  0  0  0  0
   -2.3625   -3.0140    2.4872 H   0  0  0  0  0  0  0  0  0  0  0  0
   -2.6711   -3.0100    0.3221 C   0  0  0  0  0  0  0  0  0  0  0  0
   -3.5638   -3.6520    0.3430 H   0  0  0  0  0  0  0  0  0  0  0  0
    1.2165   -0.0010   -2.5552 H   0  0  0  0  0  0  0  0  0  0  0  0
   -0.3999    1.3666    0.2642 N   0  0  0  0  0  2  0  0  0  0  0  0
   -1.0236    1.7202   -0.8894 C   0  0  2  0  0  3  0  0  0  0  0  0
   -0.8842    1.8323    1.4383 C   0  0  0  0  0  0  0  0  0  0  0  0
   -0.3461    1.5318    2.3486 H   0  0  0  0  0  0  0  0  0  0  0  0
   -0.3477    1.2542   -2.1504 C   0  0  0  0  0  0  0  0  0  0  0  0
    0.3879    2.0308   -2.4526 H   0  0  0  0  0  0  0  0  0  0  0  0
   -1.0731    1.1512   -2.9852 H   0  0  0  0  0  0  0  0  0  0  0  0
   -2.1648    2.5332   -0.8949 C   0  0  0  0  0  0  0  0  0  0  0  0
   -2.6469    2.7916   -1.8490 H   0  0  0  0  0  0  0  0  0  0  0  0
   -2.0083    2.6607    1.5081 C   0  0  0  0  0  0  0  0  0  0  0  0
   -2.3579    3.0178    2.4870 H   0  0  0  0  0  0  0  0  0  0  0  0
   -2.6666    3.0140    0.3218 C   0  0  0  0  0  0  0  0  0  0  0  0
   -3.5583    3.6574    0.3428 H   0  0  0  0  0  0  0  0  0  0  0  0
  2  4  1  0  0  0  0
  3  6  1  6  0  0  0
  3  2  1  0  0  0  0
  4 11  2  0  0  0  0
  4  5  1  0  0  0  0
  6  1  1  0  0  0  0
  7  6  1  0  0  0  0
  8  6  1  0  0  0  0
  9  3  1  0  0  0  0
  9 13  2  0  0  0  0
 10  9  1  0  0  0  0
 11 12  1  0  0  0  0
 13 14  1  0  0  0  0
 13 11  1  0  0  0  0
 15  1  1  0  0  0  0
 16 18  1  0  0  0  0
 17 20  1  6  0  0  0
 17 16  1  0  0  0  0
 18 25  2  0  0  0  0
 18 19  1  0  0  0  0
 20  1  1  0  0  0  0
 21 20  1  0  0  0  0
 22 20  1  0  0  0  0
 23 17  1  0  0  0  0
 23 27  2  0  0  0  0
 24 23  1  0  0  0  0
 25 26  1  0  0  0  0
 27 28  1  0  0  0  0
 27 25  1  0  0  0  0
M  END
