1,2,3
q = 0.0, confidence = 1.0

 46 47  0  0  1  0  0  0  0  0999 V2000
    1.8564    0.5509   -0.0619 N   0  0  0  0  0  2  0  0  0  0  0  0
   -0.3175   -1.8559    0.2498 N   0  0  0  0  0  0  0  0  0  0  0  0
   -2.0457    0.5841   -0.0206 N   0  0  0  0  0  0  0  0  0  0  0  0
   -1.1053   -2.3441   -0.9142 C   0  0  0  0  0  0  0  0  0  0  0  0
   -1.7035   -1.2251   -1.7769 C   0  0  0  0  0  0  0  0  0  0  0  0
   -2.6676   -0.2353   -1.1177 C   0  0  0  0  0  0  0  0  0  0  0  0
   -1.0268   -2.0149    1.5376 C   0  0  0  0  0  0  0  0  0  0  0  0
   -2.4242   -1.3974    1.5657 C   0  0  0  0  0  0  0  0  0  0  0  0
   -2.5291    0.1093    1.3167 C   0  0  0  0  0  0  0  0  0  0  0  0
    1.0349   -2.4388    0.3046 C   0  0  0  0  0  0  0  0  0  0  0  0
    2.0098   -1.8294   -0.7265 C   0  0  0  0  0  0  0  0  0  0  0  0
    2.6559   -0.5284   -0.3112 C   0  0  2  0  0  3  0  0  0  0  0  0
    4.0514   -0.4264   -0.1766 C   0  0  0  0  0  0  0  0  0  0  0  0
    4.6358    0.7850    0.2138 C   0  0  0  0  0  0  0  0  0  0  0  0
    3.8030    1.8837    0.4694 C   0  0  0  0  0  0  0  0  0  0  0  0
    2.4246    1.7236    0.3188 C   0  0  0  0  0  0  0  0  0  0  0  0
   -2.3345    2.0561   -0.2188 C   0  0  0  0  0  0  0  0  0  0  0  0
   -1.6421    2.5643   -1.4852 C   0  0  0  0  0  0  0  0  0  0  0  0
   -1.8772    2.8888    0.9793 C   0  0  0  0  0  0  0  0  0  0  0  0
    4.6762   -1.3069   -0.3849 H   0  0  0  0  0  0  0  0  0  0  0  0
    5.7279    0.8703    0.3146 H   0  0  0  0  0  0  0  0  0  0  0  0
    4.2107    2.8579    0.7736 H   0  0  0  0  0  0  0  0  0  0  0  0
    1.7352    2.5631    0.4943 H   0  0  0  0  0  0  0  0  0  0  0  0
   -0.4409   -2.9506   -1.5624 H   0  0  0  0  0  0  0  0  0  0  0  0
   -1.8962   -3.0468   -0.5697 H   0  0  0  0  0  0  0  0  0  0  0  0
   -0.8681   -0.6413   -2.2276 H   0  0  0  0  0  0  0  0  0  0  0  0
   -2.2361   -1.7004   -2.6284 H   0  0  0  0  0  0  0  0  0  0  0  0
   -3.5709   -0.7511   -0.7305 H   0  0  0  0  0  0  0  0  0  0  0  0
   -3.0356    0.4526   -1.9010 H   0  0  0  0  0  0  0  0  0  0  0  0
   -1.1135   -3.0977    1.8032 H   0  0  0  0  0  0  0  0  0  0  0  0
   -0.3946   -1.5455    2.3215 H   0  0  0  0  0  0  0  0  0  0  0  0
   -3.1007   -1.9542    0.8866 H   0  0  0  0  0  0  0  0  0  0  0  0
   -2.8386   -1.5775    2.5787 H   0  0  0  0  0  0  0  0  0  0  0  0
   -1.9512    0.6417    2.0957 H   0  0  0  0  0  0  0  0  0  0  0  0
   -3.5962    0.4120    1.4398 H   0  0  0  0  0  0  0  0  0  0  0  0
    1.4374   -2.2763    1.3253 H   0  0  0  0  0  0  0  0  0  0  0  0
    0.9918   -3.5443    0.1579 H   0  0  0  0  0  0  0  0  0  0  0  0
    2.8150   -2.5641   -0.9198 H   0  0  0  0  0  0  0  0  0  0  0  0
    1.4874   -1.6938   -1.6987 H   0  0  0  0  0  0  0  0  0  0  0  0
   -3.4407    2.1643   -0.3303 H   0  0  0  0  0  0  0  0  0  0  0  0
   -0.5394    2.4799   -1.3650 H   0  0  0  0  0  0  0  0  0  0  0  0
   -1.9272    2.0114   -2.4006 H   0  0  0  0  0  0  0  0  0  0  0  0
   -1.8956    3.6287   -1.6539 H   0  0  0  0  0  0  0  0  0  0  0  0
   -1.9647    3.9645    0.7350 H   0  0  0  0  0  0  0  0  0  0  0  0
   -2.4678    2.7124    1.8968 H   0  0  0  0  0  0  0  0  0  0  0  0
   -0.8067    2.6766    1.1984 H   0  0  0  0  0  0  0  0  0  0  0  0
  1 16  1  0  0  0  0
  2 10  1  0  0  0  0
  2  7  1  0  0  0  0
  3  9  1  0  0  0  0
  4 25  1  0  0  0  0
  4  2  1  0  0  0  0
  5  6  1  0  0  0  0
  5  4  1  0  0  0  0
  6 28  1  0  0  0  0
  6  3  1  0  0  0  0
  7  8  1  0  0  0  0
  7 30  1  0  0  0  0
  7 31  1  0  0  0  0
  8 33  1  0  0  0  0
  9 35  1  0  0  0  0
  9  8  1  0  0  0  0
  9 34  1  0  0  0  0
 10 36  1  0  0  0  0
 11 10  1  0  0  0  0
 12 11  1  1  0  0  0
 12 13  1  0  0  0  0
 12  1  1  0  0  0  0
 13 14  2  0  0  0  0
 14 21  1  0  0  0  0
 14 15  1  0  0  0  0
 15 22  1  0  0  0  0
 16 15  2  0  0  0  0
 16 23  1  0  0  0  0
 17  3  1  0  0  0  0
 17 19  1  0  0  0  0
 18 41  1  0  0  0  0
 18 17  1  0  0  0  0
 19 46  1  0  0  0  0
 19 45  1  0  0  0  0
 20 13  1  0  0  0  0
 24  4  1  0  0  0  0
 26  5  1  0  0  0  0
 27  5  1  0  0  0  0
 29  6  1  0  0  0  0
 32  8  1  0  0  0  0
 37 10  1  0  0  0  0
 38 11  1  0  0  0  0
 39 11  1  0  0  0  0
 40 17  1  0  0  0  0
 42 18  1  0  0  0  0
 43 18  1  0  0  0  0
 44 19  1  0  0  0  0
M  END
