1,2,3
q = 0.0, confidence = 0.996

 56 58  0  0  0  0  0  0  0  0999 V2000
   -1.5669    1.7919   -0.0314 N   0  0  0  0  0  2  0  0  0  0  0  0
   -2.9966   -1.1345    0.1087 N   0  0  0  0  0  0  0  0  0  0  0  0
   -0.0795   -1.7946    0.3028 N   0  0  0  0  0  0  0  0  0  0  0  0
   -0.7629    2.7687    0.4608 C   0  0  0  0  0  3  0  0  0  0  0  0
   -1.1558    4.1061    0.5337 C   0  0  0  0  0  0  0  0  0  0  0  0
   -2.4358    4.4526    0.0781 C   0  0  0  0  0  0  0  0  0  0  0  0
   -3.2676    3.4453   -0.4269 C   0  0  0  0  0  0  0  0  0  0  0  0
   -2.8172    2.1145   -0.4765 C   0  0  0  0  0  0  0  0  0  0  0  0
   -3.7009    1.0145   -1.0170 C   0  0  0  0  0  0  0  0  0  0  0  0
   -4.0470   -0.1086   -0.0147 C   0  0  0  0  0  0  0  0  0  0  0  0
   -3.0722   -1.8303    1.4115 C   0  0  0  0  0  0  0  0  0  0  0  0
   -1.9872   -2.8850    1.6251 C   0  0  0  0  0  0  0  0  0  0  0  0
   -0.5327   -2.4160    1.5873 C   0  0  0  0  0  0  0  0  0  0  0  0
   -2.9599   -2.0652   -1.0517 C   0  0  0  0  0  0  0  0  0  0  0  0
   -1.5812   -2.1763   -1.7165 C   0  0  0  0  0  0  0  0  0  0  0  0
   -0.3985   -2.6680   -0.8757 C   0  0  0  0  0  0  0  0  0  0  0  0
    1.3838   -1.5173    0.3936 C   0  0  0  0  0  0  0  0  0  0  0  0
    1.8924   -0.5607   -0.6891 C   0  0  0  0  0  0  0  0  0  0  0  0
    3.3314   -0.1630   -0.4552 C   0  0  0  0  0  0  0  0  0  0  0  0
    3.6535    0.8534    0.4649 C   0  0  0  0  0  0  0  0  0  0  0  0
    4.9873    1.1963    0.7238 C   0  0  0  0  0  0  0  0  0  0  0  0
    6.0489    0.5354    0.0727 C   0  0  0  0  0  0  0  0  0  0  0  0
    5.7219   -0.4840   -0.8458 C   0  0  0  0  0  0  0  0  0  0  0  0
    4.3889   -0.8275   -1.1057 C   0  0  0  0  0  0  0  0  0  0  0  0
    7.4839    0.9201    0.3241 C   0  0  0  0  0  0  0  0  0  0  0  0
    0.2378    2.4525    0.7919 H   0  0  0  0  0  0  0  0  0  0  0  0
   -0.4625    4.8591    0.9335 H   0  0  0  0  0  0  0  0  0  0  0  0
   -2.7823    5.4961    0.1124 H   0  0  0  0  0  0  0  0  0  0  0  0
   -4.2765    3.6844   -0.7929 H   0  0  0  0  0  0  0  0  0  0  0  0
   -4.6470    1.4751   -1.3611 H   0  0  0  0  0  0  0  0  0  0  0  0
   -3.2349    0.5733   -1.9252 H   0  0  0  0  0  0  0  0  0  0  0  0
   -5.0174   -0.5742   -0.3101 H   0  0  0  0  0  0  0  0  0  0  0  0
   -4.2092    0.3376    0.9878 H   0  0  0  0  0  0  0  0  0  0  0  0
   -3.0006   -1.0541    2.2033 H   0  0  0  0  0  0  0  0  0  0  0  0
   -4.0700   -2.3201    1.5340 H   0  0  0  0  0  0  0  0  0  0  0  0
   -2.1532   -3.3265    2.6290 H   0  0  0  0  0  0  0  0  0  0  0  0
   -2.1339   -3.7308    0.9227 H   0  0  0  0  0  0  0  0  0  0  0  0
    0.1222   -3.2917    1.8089 H   0  0  0  0  0  0  0  0  0  0  0  0
   -0.3508   -1.6714    2.3899 H   0  0  0  0  0  0  0  0  0  0  0  0
   -3.3392   -3.0663   -0.7495 H   0  0  0  0  0  0  0  0  0  0  0  0
   -3.6750   -1.7039   -1.8186 H   0  0  0  0  0  0  0  0  0  0  0  0
   -1.6773   -2.8542   -2.5916 H   0  0  0  0  0  0  0  0  0  0  0  0
   -1.3115   -1.1786   -2.1337 H   0  0  0  0  0  0  0  0  0  0  0  0
    0.4919   -2.6913   -1.5329 H   0  0  0  0  0  0  0  0  0  0  0  0
   -0.5500   -3.7145   -0.5342 H   0  0  0  0  0  0  0  0  0  0  0  0
    1.5687   -1.0626    1.3878 H   0  0  0  0  0  0  0  0  0  0  0  0
    1.9545   -2.4752    0.3701 H   0  0  0  0  0  0  0  0  0  0  0  0
    1.7863   -1.0173   -1.6955 H   0  0  0  0  0  0  0  0  0  0  0  0
    1.2295    0.3373   -0.6784 H   0  0  0  0  0  0  0  0  0  0  0  0
    2.8453    1.3920    0.9885 H   0  0  0  0  0  0  0  0  0  0  0  0
    5.2129    1.9972    1.4453 H   0  0  0  0  0  0  0  0  0  0  0  0
    6.5302   -1.0182   -1.3695 H   0  0  0  0  0  0  0  0  0  0  0  0
    4.1654   -1.6260   -1.8316 H   0  0  0  0  0  0  0  0  0  0  0  0
    7.8733    1.5560   -0.4995 H   0  0  0  0  0  0  0  0  0  0  0  0
    8.1402    0.0289    0.3793 H   0  0  0  0  0  0  0  0  0  0  0  0
    7.5968    1.4924    1.2649 H   0  0  0  0  0  0  0  0  0  0  0  0
  1  4  1  0  0  0  0
  2 11  1  0  0  0  0
  3 17  1  0  0  0  0
  3 13  1  0  0  0  0
  4  5  1  0  0  0  0
  4 26  1  0  0  0  0
  5 27  1  0  0  0  0
  6 28  1  0  0  0  0
  6  5  2  0  0  0  0
  7  6  1  0  0  0  0
  8  7  2  0  0  0  0
  8  1  1  0  0  0  0
  9  8  1  0  0  0  0
  9 10  1  0  0  0  0
 10  2  1  0  0  0  0
 10 33  1  0  0  0  0
 11 35  1  0  0  0  0
 11 12  1  0  0  0  0
 11 34  1  0  0  0  0
 12 36  1  0  0  0  0
 13 12  1  0  0  0  0
 13 38  1  0  0  0  0
 13 39  1  0  0  0  0
 14 40  1  0  0  0  0
 14  2  1  0  0  0  0
 15 14  1  0  0  0  0
 15 16  1  0  0  0  0
 16 45  1  0  0  0  0
 16  3  1  0  0  0  0
 17 46  1  0  0  0  0
 18 49  1  0  0  0  0
 18 19  1  0  0  0  0
 18 17  1  0  0  0  0
 19 20  1  0  0  0  0
 20 21  2  0  0  0  0
 20 50  1  0  0  0  0
 21 51  1  0  0  0  0
 22 25  1  0  0  0  0
 22 21  1  0  0  0  0
 23 22  2  0  0  0  0
 24 23  1  0  0  0  0
 24 19  2  0  0  0  0
 25 55  1  0  0  0  0
 25 56  1  0  0  0  0
 29  7  1  0  0  0  0
 30  9  1  0  0  0  0
 31  9  1  0  0  0  0
 32 10  1  0  0  0  0
 37 12  1  0  0  0  0
 41 14  1  0  0  0  0
 42 15  1  0  0  0  0
 43 15  1  0  0  0  0
 44 16  1  0  0  0  0
 47 17  1  0  0  0  0
 48 18  1  0  0  0  0
 52 23  1  0  0  0  0
 53 24  1  0  0  0  0
 54 25  1  0  0  0  0
M  END
