2,4,5
q = -2.0, confidence = 0.644

 64 68  0  0  0  0  0  0  0  0999 V2000
   -2.8770   -0.2666   -0.4683 N   0  0  0  0  0  0  0  0  0  0  0  0
    1.8692   -1.0110   -0.4554 N   0  0  0  0  0  2  0  0  0  0  0  0
    2.9613   -0.3161   -0.2135 N   0  0  0  0  0  2  0  0  0  0  0  0
    0.6284    1.2654   -0.2838 N   0  0  0  0  0  2  0  0  0  0  0  0
   -1.6767    0.3763   -0.2571 N   0  0  0  0  0  2  0  0  0  0  0  0
    1.8497    1.8311   -0.0985 C   0  0  0  0  0  0  0  0  0  0  0  0
    2.1787   -2.3414   -0.8673 C   0  0  0  0  0  0  0  0  0  0  0  0
    1.5143   -2.9125   -1.9713 C   0  0  0  0  0  0  0  0  0  0  0  0
    0.8033   -2.2943   -2.5379 H   0  0  0  0  0  0  0  0  0  0  0  0
    0.3067    3.5187   -0.2574 C   0  0  0  0  0  0  0  0  0  0  0  0
   -0.1853    4.4977   -0.2808 H   0  0  0  0  0  0  0  0  0  0  0  0
   -0.3367    2.2490   -0.3622 C   0  0  0  0  0  0  0  0  0  0  0  0
    4.3592    1.5304    0.3286 C   0  0  0  0  0  0  0  0  0  0  0  0
    3.0128    0.9892    0.0191 C   0  0  0  0  0  0  0  0  0  0  0  0
   -3.5206   -0.9572    0.5540 C   0  0  0  0  0  0  0  0  0  0  0  0
   -1.6556    1.7338   -0.3705 C   0  0  0  0  0  0  0  0  0  0  0  0
   -2.8593    2.5798   -0.4732 C   0  0  0  0  0  0  0  0  0  0  0  0
    1.6724    3.2612   -0.1055 C   0  0  0  0  0  0  0  0  0  0  0  0
    2.4739    4.0012   -0.0168 H   0  0  0  0  0  0  0  0  0  0  0  0
    1.7743   -4.2371   -2.3484 C   0  0  0  0  0  0  0  0  0  0  0  0
    1.2462   -4.6681   -3.2132 H   0  0  0  0  0  0  0  0  0  0  0  0
   -4.7608   -1.5872    0.2891 C   0  0  0  0  0  0  0  0  0  0  0  0
   -5.2138   -1.4914   -0.7106 H   0  0  0  0  0  0  0  0  0  0  0  0
    3.4086   -4.4246   -0.5668 C   0  0  0  0  0  0  0  0  0  0  0  0
    4.1588   -5.0122   -0.0148 H   0  0  0  0  0  0  0  0  0  0  0  0
   -4.0071    4.4926   -1.4808 C   0  0  0  0  0  0  0  0  0  0  0  0
   -4.0054    5.3200   -2.2081 H   0  0  0  0  0  0  0  0  0  0  0  0
    4.5470    2.6291    1.1954 C   0  0  0  0  0  0  0  0  0  0  0  0
    3.6758    3.0957    1.6770 H   0  0  0  0  0  0  0  0  0  0  0  0
   -4.8213   -2.4669    2.5619 C   0  0  0  0  0  0  0  0  0  0  0  0
   -5.3256   -3.0552    3.3422 H   0  0  0  0  0  0  0  0  0  0  0  0
   -5.1379    4.2939   -0.6650 C   0  0  0  0  0  0  0  0  0  0  0  0
    3.1502   -3.1035   -0.1818 C   0  0  0  0  0  0  0  0  0  0  0  0
    3.6881   -2.6324    0.6530 H   0  0  0  0  0  0  0  0  0  0  0  0
   -2.9473   -1.0764    1.8410 C   0  0  0  0  0  0  0  0  0  0  0  0
   -1.9926   -0.5717    2.0434 H   0  0  0  0  0  0  0  0  0  0  0  0
    6.7916    1.3936    0.0880 C   0  0  0  0  0  0  0  0  0  0  0  0
    7.6710    0.8965   -0.3534 H   0  0  0  0  0  0  0  0  0  0  0  0
    2.7159   -5.0047   -1.6443 C   0  0  0  0  0  0  0  0  0  0  0  0
    2.9204   -6.0441   -1.9419 H   0  0  0  0  0  0  0  0  0  0  0  0
   -3.9931    2.3801    0.3543 C   0  0  0  0  0  0  0  0  0  0  0  0
   -3.9881    1.5772    1.1058 H   0  0  0  0  0  0  0  0  0  0  0  0
   -2.8882    3.6541   -1.3914 C   0  0  0  0  0  0  0  0  0  0  0  0
   -2.0227    3.8163   -2.0506 H   0  0  0  0  0  0  0  0  0  0  0  0
   -3.5960   -1.8341    2.8252 C   0  0  0  0  0  0  0  0  0  0  0  0
   -3.1349   -1.9219    3.8212 H   0  0  0  0  0  0  0  0  0  0  0  0
    6.9816    2.5058    0.9378 C   0  0  0  0  0  0  0  0  0  0  0  0
   -5.4009   -2.3276    1.2879 C   0  0  0  0  0  0  0  0  0  0  0  0
   -6.3670   -2.8067    1.0662 H   0  0  0  0  0  0  0  0  0  0  0  0
    5.8332    3.1057    1.4879 C   0  0  0  0  0  0  0  0  0  0  0  0
    5.9482    3.9601    2.1746 H   0  0  0  0  0  0  0  0  0  0  0  0
    8.3647    3.0310    1.2298 C   0  0  0  0  0  0  0  0  0  0  0  0
    8.3566    3.7653    2.0590 H   0  0  0  0  0  0  0  0  0  0  0  0
    8.8000    3.5378    0.3415 H   0  0  0  0  0  0  0  0  0  0  0  0
    9.0627    2.2129    1.5035 H   0  0  0  0  0  0  0  0  0  0  0  0
    5.5136    0.9149   -0.2107 C   0  0  0  0  0  0  0  0  0  0  0  0
    5.3787    0.0466   -0.8719 H   0  0  0  0  0  0  0  0  0  0  0  0
   -5.1039    3.2219    0.2546 C   0  0  0  0  0  0  0  0  0  0  0  0
   -5.9673    3.0512    0.9175 H   0  0  0  0  0  0  0  0  0  0  0  0
   -6.3450    5.1915   -0.7559 C   0  0  0  0  0  0  0  0  0  0  0  0
   -6.5387    5.7031    0.2103 H   0  0  0  0  0  0  0  0  0  0  0  0
   -7.2612    4.6134   -0.9988 H   0  0  0  0  0  0  0  0  0  0  0  0
   -6.2188    5.9706   -1.5321 H   0  0  0  0  0  0  0  0  0  0  0  0
   -3.4680    0.1192   -1.2125 H   0  0  0  0  0  0  0  0  0  0  0  0
  1  5  1  0  0  0  0
  1 15  1  0  0  0  0
  2  3  1  0  0  0  0
  3 14  1  0  0  0  0
  4  6  1  0  0  0  0
  6 14  2  0  0  0  0
  7  2  1  0  0  0  0
  7 33  1  0  0  0  0
  8  7  2  0  0  0  0
  9  8  1  0  0  0  0
 10 18  2  0  0  0  0
 11 10  1  0  0  0  0
 12  4  1  0  0  0  0
 12 10  1  0  0  0  0
 13 28  1  0  0  0  0
 14 13  1  0  0  0  0
 15 35  1  0  0  0  0
 16 12  2  0  0  0  0
 16  5  1  0  0  0  0
 17 16  1  0  0  0  0
 17 41  1  0  0  0  0
 18  6  1  0  0  0  0
 18 19  1  0  0  0  0
 20  8  1  0  0  0  0
 20 39  2  0  0  0  0
 21 20  1  0  0  0  0
 22 15  2  0  0  0  0
 22 48  1  0  0  0  0
 23 22  1  0  0  0  0
 24 33  2  0  0  0  0
 24 25  1  0  0  0  0
 26 43  1  0  0  0  0
 26 32  2  0  0  0  0
 27 26  1  0  0  0  0
 28 50  2  0  0  0  0
 28 29  1  0  0  0  0
 30 45  1  0  0  0  0
 30 31  1  0  0  0  0
 32 58  1  0  0  0  0
 33 34  1  0  0  0  0
 35 36  1  0  0  0  0
 35 45  2  0  0  0  0
 37 47  2  0  0  0  0
 38 37  1  0  0  0  0
 39 24  1  0  0  0  0
 40 39  1  0  0  0  0
 41 42  1  0  0  0  0
 43 17  2  0  0  0  0
 44 43  1  0  0  0  0
 45 46  1  0  0  0  0
 47 52  1  0  0  0  0
 47 50  1  0  0  0  0
 48 30  2  0  0  0  0
 49 48  1  0  0  0  0
 50 51  1  0  0  0  0
 52 55  1  0  0  0  0
 52 53  1  0  0  0  0
 54 52  1  0  0  0  0
 56 37  1  0  0  0  0
 56 13  2  0  0  0  0
 57 56  1  0  0  0  0
 58 41  2  0  0  0  0
 58 59  1  0  0  0  0
 60 32  1  0  0  0  0
 60 61  1  0  0  0  0
 62 60  1  0  0  0  0
 63 60  1  0  0  0  0
 64  1  1  0  0  0  0
M  END
