1,2,3
q = -1.0, confidence = 0.0

 47 50  0  0  1  0  0  0  0  0999 V2000
    2.5814    1.2448    0.3169 N   0  0  0  0  0  2  0  0  0  0  0  0
    0.5056    0.5284   -1.1847 N   0  0  0  0  0  2  0  0  0  0  0  0
    0.0138   -0.5780    1.1058 N   0  0  0  0  0  2  0  0  0  0  0  0
   -2.1879   -0.3663    1.1362 N   0  0  0  0  0  0  0  0  0  0  0  0
   -0.4200   -0.8562    2.3845 C   0  0  0  0  0  0  0  0  0  0  0  0
    0.2766   -1.1324    3.1831 H   0  0  0  0  0  0  0  0  0  0  0  0
    3.7135    1.5203    1.0066 C   0  0  0  0  0  3  0  0  0  0  0  0
    4.2110    0.6588    1.4757 H   0  0  0  0  0  0  0  0  0  0  0  0
   -1.7951   -0.7246    2.4250 C   0  0  0  0  0  0  0  0  0  0  0  0
   -2.5262   -0.8456    3.2301 H   0  0  0  0  0  0  0  0  0  0  0  0
   -4.1563    1.0735    0.8586 C   0  0  0  0  0  0  0  0  0  0  0  0
   -3.5362   -0.1819    0.6755 C   0  0  0  0  0  0  0  0  0  0  0  0
    2.3920    3.5849   -0.2408 C   0  0  0  0  0  0  0  0  0  0  0  0
    1.8514    4.3777   -0.7747 H   0  0  0  0  0  0  0  0  0  0  0  0
    4.2327    2.8100    1.1153 C   0  0  0  0  0  0  0  0  0  0  0  0
    5.1553    2.9796    1.6875 H   0  0  0  0  0  0  0  0  0  0  0  0
    1.8995    2.2642   -0.2926 C   0  0  0  0  0  0  0  0  0  0  0  0
   -3.4117    2.2121    1.5016 C   0  0  0  0  0  0  0  0  0  0  0  0
   -3.0342    1.9437    2.5093 H   0  0  0  0  0  0  0  0  0  0  0  0
   -4.0567    3.1053    1.5997 H   0  0  0  0  0  0  0  0  0  0  0  0
   -2.5247    2.4875    0.8916 H   0  0  0  0  0  0  0  0  0  0  0  0
    3.5613    3.8635    0.4669 C   0  0  0  0  0  0  0  0  0  0  0  0
    3.9547    4.8900    0.5099 H   0  0  0  0  0  0  0  0  0  0  0  0
   -1.6220    2.3130   -1.7008 C   0  0  0  0  0  0  0  0  0  0  0  0
   -2.3506    3.0297   -2.1130 H   0  0  0  0  0  0  0  0  0  0  0  0
   -6.1515    0.1769   -0.2688 C   0  0  0  0  0  0  0  0  0  0  0  0
   -5.4908   -1.0550   -0.4307 C   0  0  0  0  0  0  0  0  0  0  0  0
   -6.0102   -1.8847   -0.9363 H   0  0  0  0  0  0  0  0  0  0  0  0
   -0.8740    0.0280   -1.1179 C   0  0  2  0  0  0  0  0  0  0  0  0
   -0.9046   -0.9505   -1.6502 H   0  0  0  0  0  0  0  0  0  0  0  0
   -4.1801   -1.2628    0.0355 C   0  0  0  0  0  0  0  0  0  0  0  0
   -0.3894    2.7933   -1.1419 C   0  0  0  0  0  0  0  0  0  0  0  0
   -0.2394    3.8589   -0.9302 H   0  0  0  0  0  0  0  0  0  0  0  0
   -1.8741    0.9725   -1.7492 C   0  0  0  0  0  0  0  0  0  0  0  0
   -2.7749    0.5617   -2.2265 H   0  0  0  0  0  0  0  0  0  0  0  0
   -1.0666   -0.2874    0.3679 C   0  0  2  0  0  3  0  0  0  0  0  0
    0.6330    1.8674   -0.9259 C   0  0  0  0  0  0  0  0  0  0  0  0
   -3.4748   -2.5811   -0.1552 C   0  0  0  0  0  0  0  0  0  0  0  0
   -2.6408   -2.5026   -0.8848 H   0  0  0  0  0  0  0  0  0  0  0  0
   -4.1714   -3.3549   -0.5282 H   0  0  0  0  0  0  0  0  0  0  0  0
   -3.0235   -2.9447    0.7904 H   0  0  0  0  0  0  0  0  0  0  0  0
   -5.4673    1.2253    0.3769 C   0  0  0  0  0  0  0  0  0  0  0  0
   -5.9662    2.1997    0.5020 H   0  0  0  0  0  0  0  0  0  0  0  0
   -7.5690    0.3639   -0.7477 C   0  0  0  0  0  0  0  0  0  0  0  0
   -8.2922    0.1838    0.0767 H   0  0  0  0  0  0  0  0  0  0  0  0
   -7.8215   -0.3398   -1.5646 H   0  0  0  0  0  0  0  0  0  0  0  0
   -7.7438    1.3957   -1.1115 H   0  0  0  0  0  0  0  0  0  0  0  0
  1  7  1  0  0  0  0
  2 29  1  0  0  0  0
  2 37  1  0  0  0  0
  3  5  1  0  0  0  0
  4  9  1  0  0  0  0
  5  9  2  0  0  0  0
  5  6  1  0  0  0  0
  7 15  1  0  0  0  0
  7  8  1  0  0  0  0
  9 10  1  0  0  0  0
 11 18  1  0  0  0  0
 12 11  1  0  0  0  0
 12  4  1  0  0  0  0
 13 22  1  0  0  0  0
 14 13  1  0  0  0  0
 15 16  1  0  0  0  0
 17 13  2  0  0  0  0
 17  1  1  0  0  0  0
 18 20  1  0  0  0  0
 18 19  1  0  0  0  0
 21 18  1  0  0  0  0
 22 23  1  0  0  0  0
 22 15  2  0  0  0  0
 24 32  1  0  0  0  0
 25 24  1  0  0  0  0
 26 42  1  0  0  0  0
 27 26  2  0  0  0  0
 27 31  1  0  0  0  0
 28 27  1  0  0  0  0
 29 30  1  6  0  0  0
 29 36  1  0  0  0  0
 31 12  2  0  0  0  0
 32 33  1  0  0  0  0
 32 37  2  0  0  0  0
 34 24  2  0  0  0  0
 34 29  1  0  0  0  0
 35 34  1  0  0  0  0
 36  3  1  6  0  0  0
 36  4  1  0  0  0  0
 37 17  1  0  0  0  0
 38 31  1  0  0  0  0
 38 41  1  0  0  0  0
 39 38  1  0  0  0  0
 40 38  1  0  0  0  0
 42 43  1  0  0  0  0
 42 11  2  0  0  0  0
 44 26  1  0  0  0  0
 44 45  1  0  0  0  0
 46 44  1  0  0  0  0
 47 44  1  0  0  0  0
M  END
