1,2,3
q = -1.0, confidence = 0.0

 42 45  0  0  1  0  0  0  0  0999 V2000
    0.4560    1.0469    0.0917 N   0  0  0  0  0  2  0  0  0  0  0  0
   -1.9902   -0.4849    0.2136 N   0  0  0  0  0  2  0  0  0  0  0  0
    1.9744   -1.0911   -0.3309 N   0  0  0  0  0  2  0  0  0  0  0  0
   -1.8028    1.9787   -0.1393 C   0  0  0  0  0  0  0  0  0  0  0  0
    0.1330    3.3423   -0.7148 C   0  0  0  0  0  0  0  0  0  0  0  0
    1.2131    3.4416   -0.8816 H   0  0  0  0  0  0  0  0  0  0  0  0
    1.8022    1.1872    0.3845 C   0  0  0  0  0  0  0  0  0  0  0  0
    4.0419    0.0570    0.3099 C   0  0  0  0  0  0  0  0  0  0  0  0
   -2.1002    4.3094   -0.8480 C   0  0  0  0  0  0  0  0  0  0  0  0
   -2.7606    5.1586   -1.0734 H   0  0  0  0  0  0  0  0  0  0  0  0
   -0.3728    2.0981   -0.2305 C   0  0  0  0  0  0  0  0  0  0  0  0
    2.6221    0.0368    0.1150 C   0  0  1  0  0  3  0  0  0  0  0  0
    3.8354    2.3130    1.1802 C   0  0  0  0  0  0  0  0  0  0  0  0
    4.2881    3.2085    1.6332 H   0  0  0  0  0  0  0  0  0  0  0  0
   -2.6303    3.0950   -0.4217 C   0  0  0  0  0  3  0  0  0  0  0  0
   -3.7162    2.9693   -0.3142 H   0  0  0  0  0  0  0  0  0  0  0  0
   -0.7042    4.4126   -1.0160 C   0  0  0  0  0  0  0  0  0  0  0  0
   -0.2621    5.3435   -1.4041 H   0  0  0  0  0  0  0  0  0  0  0  0
    4.6425    1.2293    0.8473 C   0  0  0  0  0  0  0  0  0  0  0  0
    5.7292    1.2525    1.0132 H   0  0  0  0  0  0  0  0  0  0  0  0
    2.4398    2.3058    0.9574 C   0  0  0  0  0  0  0  0  0  0  0  0
    1.8435    3.1801    1.2490 H   0  0  0  0  0  0  0  0  0  0  0  0
   -3.7567    0.8459    0.6175 O   0  0  0  0  0  0  0  0  0  0  0  0
    2.6700   -2.1861   -0.6501 C   0  0  0  0  0  0  0  0  0  0  0  0
    2.0682   -3.0459   -0.9853 H   0  0  0  0  0  0  0  0  0  0  0  0
    4.0779   -2.2296   -0.5224 C   0  0  0  0  0  0  0  0  0  0  0  0
    4.6077   -3.1526   -0.7976 H   0  0  0  0  0  0  0  0  0  0  0  0
   -3.0985   -1.4346    0.5633 C   0  0  0  0  0  0  0  0  0  0  0  0
    4.7587   -1.1240   -0.0349 C   0  0  0  0  0  0  0  0  0  0  0  0
    5.8516   -1.1456    0.0974 H   0  0  0  0  0  0  0  0  0  0  0  0
   -2.4621    0.7390    0.2367 C   0  0  0  0  0  0  0  0  0  0  0  0
   -3.5935   -2.1188   -0.7197 C   0  0  0  0  0  0  0  0  0  0  0  0
   -4.4410   -2.7937   -0.4819 H   0  0  0  0  0  0  0  0  0  0  0  0
   -3.9394   -1.3644   -1.4550 H   0  0  0  0  0  0  0  0  0  0  0  0
   -2.7743   -2.7118   -1.1678 H   0  0  0  0  0  0  0  0  0  0  0  0
   -2.6790   -2.4422    1.6342 C   0  0  0  0  0  0  0  0  0  0  0  0
   -3.5629   -3.0291    1.9585 H   0  0  0  0  0  0  0  0  0  0  0  0
   -1.9171   -3.1350    1.2301 H   0  0  0  0  0  0  0  0  0  0  0  0
   -2.2589   -1.9212    2.5174 H   0  0  0  0  0  0  0  0  0  0  0  0
   -4.1575   -0.4471    1.1119 C   0  0  0  0  0  0  0  0  0  0  0  0
   -5.1828   -0.6577    0.7525 H   0  0  0  0  0  0  0  0  0  0  0  0
   -4.1579   -0.4031    2.2227 H   0  0  0  0  0  0  0  0  0  0  0  0
  1  7  1  0  0  0  0
  2 31  1  0  0  0  0
  2 28  1  0  0  0  0
  4 31  2  0  0  0  0
  5 11  2  0  0  0  0
  6  5  1  0  0  0  0
  7 21  2  0  0  0  0
  8 19  1  0  0  0  0
  9 15  1  0  0  0  0
 10  9  1  0  0  0  0
 11  4  1  0  0  0  0
 11  1  1  0  0  0  0
 12  3  1  1  0  0  0
 12  8  1  0  0  0  0
 12  7  1  0  0  0  0
 13 14  1  0  0  0  0
 15 16  1  0  0  0  0
 15  4  1  0  0  0  0
 17  9  2  0  0  0  0
 17  5  1  0  0  0  0
 18 17  1  0  0  0  0
 19 20  1  0  0  0  0
 19 13  2  0  0  0  0
 21 13  1  0  0  0  0
 21 22  1  0  0  0  0
 23 40  1  0  0  0  0
 24 26  2  0  0  0  0
 24  3  1  0  0  0  0
 25 24  1  0  0  0  0
 26 29  1  0  0  0  0
 27 26  1  0  0  0  0
 28 40  1  0  0  0  0
 28 36  1  0  0  0  0
 29 30  1  0  0  0  0
 29  8  2  0  0  0  0
 31 23  1  0  0  0  0
 32 33  1  0  0  0  0
 32 28  1  0  0  0  0
 34 32  1  0  0  0  0
 35 32  1  0  0  0  0
 36 37  1  0  0  0  0
 36 39  1  0  0  0  0
 38 36  1  0  0  0  0
 40 42  1  0  0  0  0
 41 40  1  0  0  0  0
M  END
