1,21,29
q = 0.0, confidence = 0.994

 31 32  0  0  0  0  0  0  0  0999 V2000
    0.7950   -0.6433    0.0015 N   0  0  0  0  0  2  0  0  0  0  0  0
    1.4393   -1.7749    0.4214 C   0  0  0  0  0  3  0  0  0  0  0  0
    0.7934   -2.6568    0.5561 H   0  0  0  0  0  0  0  0  0  0  0  0
    2.7360   -1.8937    0.6584 N   0  0  0  0  0  0  0  0  0  0  0  0
    3.5692   -0.8364    0.4860 C   0  0  0  0  0  0  0  0  0  0  0  0
    3.0119    0.3935    0.0272 C   0  0  0  0  0  0  0  0  0  0  0  0
    3.5775    1.6113   -0.2807 N   0  0  0  0  0  0  0  0  0  0  0  0
    2.5728    2.3505   -0.6958 C   0  0  0  0  0  0  0  0  0  0  0  0
    2.6387    3.3895   -1.0479 H   0  0  0  0  0  0  0  0  0  0  0  0
    1.3441    1.6817   -0.6732 N   0  0  0  0  0  0  0  0  0  0  0  0
    1.6228    0.4120   -0.2059 C   0  0  0  0  0  0  0  0  0  0  0  0
    4.8754   -0.9849    0.7450 N   0  0  0  0  0  0  0  0  0  0  0  0
    5.2242   -1.8953    1.0474 H   0  0  0  0  0  0  0  0  0  0  0  0
    5.5186   -0.2069    0.6006 H   0  0  0  0  0  0  0  0  0  0  0  0
    0.0733    2.1589   -1.1979 C   0  0  0  0  0  0  0  0  0  0  0  0
   -0.3532    1.3663   -1.8500 H   0  0  0  0  0  0  0  0  0  0  0  0
    0.2781    3.0412   -1.8352 H   0  0  0  0  0  0  0  0  0  0  0  0
   -0.9473    2.5494   -0.1303 C   0  0  0  0  0  0  0  0  0  0  0  0
   -0.6017    3.4337    0.4477 H   0  0  0  0  0  0  0  0  0  0  0  0
   -1.8785    2.8432   -0.6538 H   0  0  0  0  0  0  0  0  0  0  0  0
   -1.2666    1.4390    0.8119 N   0  0  0  0  0  0  0  0  0  0  0  0
   -0.5593    1.4391    1.5609 H   0  0  0  0  0  0  0  0  0  0  0  0
   -2.6192    1.5670    1.4402 C   0  0  0  0  0  0  0  0  0  0  0  0
   -2.8434    2.6245    1.6984 H   0  0  0  0  0  0  0  0  0  0  0  0
   -2.6017    0.9891    2.3862 H   0  0  0  0  0  0  0  0  0  0  0  0
   -3.6772    0.9997    0.4996 C   0  0  0  0  0  0  0  0  0  0  0  0
   -4.6804    1.0401    0.9730 H   0  0  0  0  0  0  0  0  0  0  0  0
   -3.7341    1.5953   -0.4334 H   0  0  0  0  0  0  0  0  0  0  0  0
   -3.2940   -0.3878    0.1292 N   0  0  0  0  0  0  0  0  0  0  0  0
   -3.7458   -0.7113   -0.7401 H   0  0  0  0  0  0  0  0  0  0  0  0
   -3.5658   -1.0690    0.8561 H   0  0  0  0  0  0  0  0  0  0  0  0
  1  2  1  0  0  0  0
  2  3  1  0  0  0  0
  2  4  1  0  0  0  0
  5  4  2  0  0  0  0
  5 12  1  0  0  0  0
  6  5  1  0  0  0  0
  7  6  1  0  0  0  0
  8 10  1  0  0  0  0
  8  7  2  0  0  0  0
  9  8  1  0  0  0  0
 10 11  1  0  0  0  0
 11  1  1  0  0  0  0
 11  6  2  0  0  0  0
 12 13  1  0  0  0  0
 14 12  1  0  0  0  0
 15 10  1  0  0  0  0
 15 18  1  0  0  0  0
 16 15  1  0  0  0  0
 17 15  1  0  0  0  0
 18 19  1  0  0  0  0
 18 21  1  0  0  0  0
 20 18  1  0  0  0  0
 21 23  1  0  0  0  0
 21 22  1  0  0  0  0
 23 24  1  0  0  0  0
 23 25  1  0  0  0  0
 26 27  1  0  0  0  0
 26 23  1  0  0  0  0
 28 26  1  0  0  0  0
 29 26  1  0  0  0  0
 29 31  1  0  0  0  0
 30 29  1  0  0  0  0
M  END
