1,2,3
q = 0.0, confidence = 0.942

 51 54  0  0  1  0  0  0  0  0999 V2000
   -0.1432    2.1396   -0.2095 N   0  0  0  0  0  2  0  0  0  0  0  0
    1.7837    0.5351   -0.2428 N   0  0  0  0  0  2  0  0  0  0  0  0
   -0.2833   -1.0719   -0.4623 N   0  0  0  0  0  2  0  0  0  0  0  0
   -1.2860    2.8597   -0.3179 C   0  0  0  0  0  3  0  0  0  0  0  0
   -2.2111    2.3071   -0.0962 H   0  0  0  0  0  0  0  0  0  0  0  0
   -1.2782    4.2138   -0.6478 C   0  0  0  0  0  0  0  0  0  0  0  0
   -2.2307    4.7544   -0.7385 H   0  0  0  0  0  0  0  0  0  0  0  0
   -0.0433    4.8691   -0.8372 C   0  0  0  0  0  0  0  0  0  0  0  0
   -0.0102    5.9441   -1.0682 H   0  0  0  0  0  0  0  0  0  0  0  0
    1.1381    4.1357   -0.7357 C   0  0  0  0  0  0  0  0  0  0  0  0
    2.1156    4.6135   -0.8886 H   0  0  0  0  0  0  0  0  0  0  0  0
    1.0693    2.7546   -0.4549 C   0  0  0  0  0  0  0  0  0  0  0  0
    2.1871    1.8231   -0.4794 C   0  0  0  0  0  0  0  0  0  0  0  0
    3.5433    2.1120   -0.7680 C   0  0  0  0  0  0  0  0  0  0  0  0
    3.8646    3.1558   -0.8886 H   0  0  0  0  0  0  0  0  0  0  0  0
    4.4488    1.0702   -0.8791 C   0  0  0  0  0  0  0  0  0  0  0  0
    5.5164    1.2684   -1.0546 H   0  0  0  0  0  0  0  0  0  0  0  0
    3.9894   -0.2833   -0.8423 C   0  0  0  0  0  0  0  0  0  0  0  0
    2.5940   -0.5130   -0.5810 C   0  0  0  0  0  0  0  0  0  0  0  0
    4.8320   -1.3994   -1.0822 C   0  0  0  0  0  3  0  0  0  0  0  0
    5.9094   -1.2325   -1.2316 H   0  0  0  0  0  0  0  0  0  0  0  0
    4.2907   -2.6812   -1.1500 C   0  0  0  0  0  0  0  0  0  0  0  0
    4.9471   -3.5450   -1.3320 H   0  0  0  0  0  0  0  0  0  0  0  0
    2.9018   -2.8836   -1.0390 C   0  0  0  0  0  0  0  0  0  0  0  0
    2.5033   -3.8980   -1.1724 H   0  0  0  0  0  0  0  0  0  0  0  0
    2.0170   -1.8224   -0.7608 C   0  0  0  0  0  0  0  0  0  0  0  0
    0.5694   -1.9990   -0.8895 C   0  0  2  0  0  3  0  0  0  0  0  0
    0.0609   -3.2340   -1.5857 C   0  0  0  0  0  0  0  0  0  0  0  0
    0.2345   -4.1299   -0.9526 H   0  0  0  0  0  0  0  0  0  0  0  0
    0.5925   -3.4021   -2.5436 H   0  0  0  0  0  0  0  0  0  0  0  0
   -1.0235   -3.1626   -1.7820 H   0  0  0  0  0  0  0  0  0  0  0  0
   -1.6785   -1.1139   -0.8045 C   0  0  0  0  0  0  0  0  0  0  0  0
   -2.0949   -0.4087   -1.9608 C   0  0  0  0  0  0  0  0  0  0  0  0
   -3.4718   -0.3497   -2.2388 C   0  0  0  0  0  0  0  0  0  0  0  0
   -3.8076    0.2037   -3.1308 H   0  0  0  0  0  0  0  0  0  0  0  0
   -4.4237   -0.9783   -1.4161 C   0  0  0  0  0  0  0  0  0  0  0  0
   -3.9620   -1.7102   -0.3043 C   0  0  0  0  0  0  0  0  0  0  0  0
   -4.6901   -2.2289    0.3401 H   0  0  0  0  0  0  0  0  0  0  0  0
   -2.6009   -1.8015    0.0248 C   0  0  0  0  0  0  0  0  0  0  0  0
   -1.0838    0.2189   -2.8847 C   0  0  0  0  0  0  0  0  0  0  0  0
   -0.3068    0.7658   -2.3170 H   0  0  0  0  0  0  0  0  0  0  0  0
   -1.5671    0.9180   -3.5934 H   0  0  0  0  0  0  0  0  0  0  0  0
   -0.5553   -0.5546   -3.4830 H   0  0  0  0  0  0  0  0  0  0  0  0
   -5.8997   -0.8656   -1.7017 C   0  0  0  0  0  0  0  0  0  0  0  0
   -6.0928   -0.4939   -2.7268 H   0  0  0  0  0  0  0  0  0  0  0  0
   -6.3880   -0.1615   -0.9941 H   0  0  0  0  0  0  0  0  0  0  0  0
   -6.4127   -1.8418   -1.5853 H   0  0  0  0  0  0  0  0  0  0  0  0
   -2.1320   -2.6050    1.2042 C   0  0  0  0  0  0  0  0  0  0  0  0
   -1.4558   -2.0089    1.8522 H   0  0  0  0  0  0  0  0  0  0  0  0
   -1.5549   -3.4970    0.8797 H   0  0  0  0  0  0  0  0  0  0  0  0
   -2.9886   -2.9564    1.8090 H   0  0  0  0  0  0  0  0  0  0  0  0
  4  1  1  0  0  0  0
  4  5  1  0  0  0  0
  6  4  1  0  0  0  0
  7  6  1  0  0  0  0
  8 10  1  0  0  0  0
  8  6  2  0  0  0  0
  9  8  1  0  0  0  0
 10 12  2  0  0  0  0
 11 10  1  0  0  0  0
 12  1  1  0  0  0  0
 13 12  1  0  0  0  0
 13  2  1  0  0  0  0
 14 13  2  0  0  0  0
 15 14  1  0  0  0  0
 16 18  2  0  0  0  0
 16 14  1  0  0  0  0
 17 16  1  0  0  0  0
 18 19  1  0  0  0  0
 19  2  1  0  0  0  0
 20 18  1  0  0  0  0
 21 20  1  0  0  0  0
 22 20  1  0  0  0  0
 22 24  2  0  0  0  0
 23 22  1  0  0  0  0
 24 26  1  0  0  0  0
 25 24  1  0  0  0  0
 26 19  2  0  0  0  0
 27 26  1  0  0  0  0
 27  3  1  6  0  0  0
 28 29  1  0  0  0  0
 28 27  1  0  0  0  0
 30 28  1  0  0  0  0
 31 28  1  0  0  0  0
 32  3  1  0  0  0  0
 32 39  1  0  0  0  0
 33 32  2  0  0  0  0
 34 33  1  0  0  0  0
 34 36  2  0  0  0  0
 35 34  1  0  0  0  0
 36 37  1  0  0  0  0
 37 39  2  0  0  0  0
 37 38  1  0  0  0  0
 39 48  1  0  0  0  0
 40 41  1  0  0  0  0
 40 33  1  0  0  0  0
 42 40  1  0  0  0  0
 43 40  1  0  0  0  0
 44 47  1  0  0  0  0
 44 36  1  0  0  0  0
 44 46  1  0  0  0  0
 45 44  1  0  0  0  0
 48 51  1  0  0  0  0
 48 49  1  0  0  0  0
 50 48  1  0  0  0  0
M  END
