1,3,5
q = 0.0, confidence = 0.996

 62 64  0  0  1  0  0  0  0  0999 V2000
    0.1501    1.6578   -0.8272 N   0  0  0  0  0  2  0  0  0  0  0  0
    1.3548    1.2382   -0.3490 N   0  0  0  0  0  0  0  0  0  0  0  0
   -0.4934    0.1558    1.5076 N   0  0  0  0  0  2  0  0  0  0  0  0
    0.7947   -0.2740    1.4165 N   0  0  0  0  0  0  0  0  0  0  0  0
   -0.3471   -1.2120   -0.9884 N   0  0  0  0  0  2  0  0  0  0  0  0
    0.9952   -1.0856   -0.8210 N   0  0  0  0  0  0  0  0  0  0  0  0
    1.4807   -0.1199    0.1462 C   0  0  1  0  0  0  0  0  0  0  0  0
    0.2640    2.9822   -1.0120 C   0  0  2  0  0  3  0  0  0  0  0  0
    1.5675    3.4135   -0.6312 C   0  0  0  0  0  0  0  0  0  0  0  0
    2.2459    2.2780   -0.1942 C   0  0  0  0  0  0  0  0  0  0  0  0
   -0.9144    3.7862   -1.4720 C   0  0  0  0  0  0  0  0  0  0  0  0
   -1.9166    4.0713   -0.3399 C   0  0  0  0  0  0  0  0  0  0  0  0
    3.6312    2.0857    0.3468 C   0  0  0  0  0  0  0  0  0  0  0  0
    4.4530    3.3750    0.3733 C   0  0  0  0  0  0  0  0  0  0  0  0
   -0.9835   -0.3625    2.6410 C   0  0  2  0  0  3  0  0  0  0  0  0
    0.0164   -1.1541    3.2830 C   0  0  0  0  0  0  0  0  0  0  0  0
    1.1428   -1.1006    2.4657 C   0  0  0  0  0  0  0  0  0  0  0  0
   -2.4302   -0.1601    2.9745 C   0  0  0  0  0  0  0  0  0  0  0  0
   -3.2923   -1.3473    2.5119 C   0  0  0  0  0  0  0  0  0  0  0  0
    2.4937   -1.7422    2.5754 C   0  0  0  0  0  0  0  0  0  0  0  0
    2.6774   -2.5482    3.8618 C   0  0  0  0  0  0  0  0  0  0  0  0
   -0.5192   -2.0469   -2.0240 C   0  0  1  0  0  3  0  0  0  0  0  0
    0.7516   -2.4488   -2.5340 C   0  0  0  0  0  0  0  0  0  0  0  0
    1.7116   -1.8041   -1.7553 C   0  0  0  0  0  0  0  0  0  0  0  0
   -1.9062   -2.4471   -2.4230 C   0  0  0  0  0  0  0  0  0  0  0  0
   -2.4204   -3.6573   -1.6275 C   0  0  0  0  0  0  0  0  0  0  0  0
    3.2102   -1.7946   -1.8115 C   0  0  0  0  0  0  0  0  0  0  0  0
    3.7792   -2.7079   -2.8980 C   0  0  0  0  0  0  0  0  0  0  0  0
    2.5547   -0.3174    0.3111 H   0  0  0  0  0  0  0  0  0  0  0  0
    1.9637    4.4326   -0.6804 H   0  0  0  0  0  0  0  0  0  0  0  0
   -0.5441    4.7336   -1.9152 H   0  0  0  0  0  0  0  0  0  0  0  0
   -1.4269    3.2231   -2.2800 H   0  0  0  0  0  0  0  0  0  0  0  0
   -1.4247    4.5901    0.5081 H   0  0  0  0  0  0  0  0  0  0  0  0
   -2.7402    4.7159   -0.7065 H   0  0  0  0  0  0  0  0  0  0  0  0
   -2.3761    3.1321    0.0347 H   0  0  0  0  0  0  0  0  0  0  0  0
    3.5691    1.6652    1.3768 H   0  0  0  0  0  0  0  0  0  0  0  0
    4.1646    1.3182   -0.2600 H   0  0  0  0  0  0  0  0  0  0  0  0
    4.5656    3.7988   -0.6443 H   0  0  0  0  0  0  0  0  0  0  0  0
    3.9685    4.1434    1.0078 H   0  0  0  0  0  0  0  0  0  0  0  0
    5.4658    3.1888    0.7794 H   0  0  0  0  0  0  0  0  0  0  0  0
   -0.0751   -1.6929    4.2316 H   0  0  0  0  0  0  0  0  0  0  0  0
   -2.5458    0.0021    4.0665 H   0  0  0  0  0  0  0  0  0  0  0  0
   -2.7789    0.7519    2.4474 H   0  0  0  0  0  0  0  0  0  0  0  0
   -3.0059   -2.2891    3.0241 H   0  0  0  0  0  0  0  0  0  0  0  0
   -4.3634   -1.1499    2.7127 H   0  0  0  0  0  0  0  0  0  0  0  0
   -3.1841   -1.4958    1.4188 H   0  0  0  0  0  0  0  0  0  0  0  0
    2.6574   -2.4072    1.6962 H   0  0  0  0  0  0  0  0  0  0  0  0
    3.2839   -0.9589    2.5114 H   0  0  0  0  0  0  0  0  0  0  0  0
    3.6854   -3.0042    3.9019 H   0  0  0  0  0  0  0  0  0  0  0  0
    2.5566   -1.9061    4.7568 H   0  0  0  0  0  0  0  0  0  0  0  0
    1.9320   -3.3653    3.9294 H   0  0  0  0  0  0  0  0  0  0  0  0
    0.9413   -3.1320   -3.3681 H   0  0  0  0  0  0  0  0  0  0  0  0
   -2.5861   -1.5870   -2.2236 H   0  0  0  0  0  0  0  0  0  0  0  0
   -1.9241   -2.6639   -3.5109 H   0  0  0  0  0  0  0  0  0  0  0  0
   -2.4339   -3.4238   -0.5437 H   0  0  0  0  0  0  0  0  0  0  0  0
   -3.4571   -3.9068   -1.9283 H   0  0  0  0  0  0  0  0  0  0  0  0
   -1.7877   -4.5568   -1.7773 H   0  0  0  0  0  0  0  0  0  0  0  0
    3.5670   -0.7523   -1.9793 H   0  0  0  0  0  0  0  0  0  0  0  0
    3.6227   -2.0969   -0.8210 H   0  0  0  0  0  0  0  0  0  0  0  0
    3.4723   -3.7603   -2.7368 H   0  0  0  0  0  0  0  0  0  0  0  0
    3.4225   -2.4024   -3.9016 H   0  0  0  0  0  0  0  0  0  0  0  0
    4.8857   -2.6719   -2.9051 H   0  0  0  0  0  0  0  0  0  0  0  0
  1  2  1  0  0  0  0
  2 10  1  0  0  0  0
  2  7  1  0  0  0  0
  3 15  1  0  0  0  0
  4  3  1  0  0  0  0
  4 17  1  0  0  0  0
  5  6  1  0  0  0  0
  6  7  1  0  0  0  0
  7 29  1  1  0  0  0
  7  4  1  0  0  0  0
  8 11  1  1  0  0  0
  8  1  1  0  0  0  0
  8  9  1  0  0  0  0
  9 10  2  0  0  0  0
 10 13  1  0  0  0  0
 11 12  1  0  0  0  0
 12 35  1  0  0  0  0
 12 33  1  0  0  0  0
 13 14  1  0  0  0  0
 13 36  1  0  0  0  0
 14 40  1  0  0  0  0
 14 39  1  0  0  0  0
 15 18  1  6  0  0  0
 15 16  1  0  0  0  0
 16 41  1  0  0  0  0
 17 20  1  0  0  0  0
 17 16  2  0  0  0  0
 18 42  1  0  0  0  0
 19 45  1  0  0  0  0
 19 18  1  0  0  0  0
 19 44  1  0  0  0  0
 20 21  1  0  0  0  0
 21 49  1  0  0  0  0
 21 51  1  0  0  0  0
 21 50  1  0  0  0  0
 22 25  1  1  0  0  0
 22  5  1  0  0  0  0
 23 22  1  0  0  0  0
 23 24  2  0  0  0  0
 24  6  1  0  0  0  0
 25 53  1  0  0  0  0
 25 26  1  0  0  0  0
 26 55  1  0  0  0  0
 27 24  1  0  0  0  0
 27 59  1  0  0  0  0
 28 60  1  0  0  0  0
 28 27  1  0  0  0  0
 30  9  1  0  0  0  0
 31 11  1  0  0  0  0
 32 11  1  0  0  0  0
 34 12  1  0  0  0  0
 37 13  1  0  0  0  0
 38 14  1  0  0  0  0
 43 18  1  0  0  0  0
 46 19  1  0  0  0  0
 47 20  1  0  0  0  0
 48 20  1  0  0  0  0
 52 23  1  0  0  0  0
 54 25  1  0  0  0  0
 56 26  1  0  0  0  0
 57 26  1  0  0  0  0
 58 27  1  0  0  0  0
 61 28  1  0  0  0  0
 62 28  1  0  0  0  0
M  END
