1,3,4
q = 0.0, confidence = 0.892

 35 37  0  0  1  0  0  0  0  0999 V2000
    2.0888    0.4238   -0.0414 N   0  0  0  0  0  2  0  0  0  0  0  0
    2.3308    1.6686   -0.2442 N   0  0  0  0  0  2  0  0  0  0  0  0
   -0.0043    1.8287   -0.2540 N   0  0  0  0  0  2  0  0  0  0  0  0
   -2.1368    0.5655    0.2502 N   0  0  0  0  0  2  0  0  0  0  0  0
   -2.3315    1.7617   -0.2085 N   0  0  0  0  0  2  0  0  0  0  0  0
    1.1951    2.4543   -0.1542 C   0  0  2  0  0  3  0  0  0  0  0  0
    3.1739   -0.4489   -0.2151 C   0  0  0  0  0  0  0  0  0  0  0  0
   -1.1736    3.9168   -0.1103 C   0  0  0  0  0  0  0  0  0  0  0  0
   -2.1345    4.4487   -0.0924 H   0  0  0  0  0  0  0  0  0  0  0  0
   -1.1798    2.5090   -0.1812 C   0  0  0  0  0  0  0  0  0  0  0  0
    2.9372   -1.7219   -0.7805 C   0  0  0  0  0  0  0  0  0  0  0  0
    1.9317   -1.9405   -1.1663 H   0  0  0  0  0  0  0  0  0  0  0  0
    1.2607    3.8546   -0.0672 C   0  0  0  0  0  0  0  0  0  0  0  0
    2.2468    4.3372   -0.0337 H   0  0  0  0  0  0  0  0  0  0  0  0
   -3.1746   -0.3606    0.0479 C   0  0  0  0  0  0  0  0  0  0  0  0
    4.4791   -0.0889    0.1959 C   0  0  0  0  0  0  0  0  0  0  0  0
    4.6366    0.9092    0.6270 H   0  0  0  0  0  0  0  0  0  0  0  0
    0.0577    4.5842   -0.0389 C   0  0  0  0  0  0  0  0  0  0  0  0
    0.0832    5.6804    0.0435 H   0  0  0  0  0  0  0  0  0  0  0  0
    3.9958   -2.6263   -0.9205 C   0  0  0  0  0  0  0  0  0  0  0  0
    3.8135   -3.6071   -1.3857 H   0  0  0  0  0  0  0  0  0  0  0  0
    5.5210   -1.0134    0.0738 C   0  0  0  0  0  0  0  0  0  0  0  0
    6.5309   -0.7406    0.4164 H   0  0  0  0  0  0  0  0  0  0  0  0
    5.2872   -2.2842   -0.4824 C   0  0  0  0  0  0  0  0  0  0  0  0
    6.1130   -3.0046   -0.5800 H   0  0  0  0  0  0  0  0  0  0  0  0
   -4.2674   -2.3878    0.8198 C   0  0  0  0  0  0  0  0  0  0  0  0
   -4.3414   -3.2203    1.5358 H   0  0  0  0  0  0  0  0  0  0  0  0
   -5.1960   -2.2781   -0.2307 C   0  0  0  0  0  0  0  0  0  0  0  0
   -5.9893   -3.0328   -0.3434 H   0  0  0  0  0  0  0  0  0  0  0  0
   -4.1072   -0.2462   -1.0069 C   0  0  0  0  0  0  0  0  0  0  0  0
   -4.0072    0.5962   -1.7052 H   0  0  0  0  0  0  0  0  0  0  0  0
   -5.1129   -1.2078   -1.1412 C   0  0  0  0  0  0  0  0  0  0  0  0
   -5.8371   -1.1318   -1.9666 H   0  0  0  0  0  0  0  0  0  0  0  0
   -3.2507   -1.4372    0.9588 C   0  0  0  0  0  0  0  0  0  0  0  0
   -2.5116   -1.4803    1.7701 H   0  0  0  0  0  0  0  0  0  0  0  0
  2  1  1  0  0  0  0
  3 10  1  0  0  0  0
  3  6  1  0  0  0  0
  5 10  1  0  0  0  0
  5  4  1  0  0  0  0
  6  2  1  6  0  0  0
  6 13  1  0  0  0  0
  7  1  1  0  0  0  0
  7 16  1  0  0  0  0
  8  9  1  0  0  0  0
  8 18  1  0  0  0  0
 10  8  2  0  0  0  0
 11  7  2  0  0  0  0
 12 11  1  0  0  0  0
 13 18  2  0  0  0  0
 13 14  1  0  0  0  0
 15  4  1  0  0  0  0
 15 34  1  0  0  0  0
 16 17  1  0  0  0  0
 18 19  1  0  0  0  0
 20 11  1  0  0  0  0
 20 24  2  0  0  0  0
 21 20  1  0  0  0  0
 22 16  2  0  0  0  0
 22 23  1  0  0  0  0
 24 22  1  0  0  0  0
 25 24  1  0  0  0  0
 26 34  2  0  0  0  0
 26 27  1  0  0  0  0
 28 26  1  0  0  0  0
 29 28  1  0  0  0  0
 30 15  2  0  0  0  0
 31 30  1  0  0  0  0
 32 30  1  0  0  0  0
 32 28  2  0  0  0  0
 33 32  1  0  0  0  0
 34 35  1  0  0  0  0
M  END
