1,2,3
q = 0.0, confidence = 0.98

 28 27  0  0  0  0  0  0  0  0999 V2000
   -1.9766    0.5073    0.7660 N   0  0  0  0  0  0  0  0  0  0  0  0
   -0.6695   -1.7250    0.0510 N   0  0  0  0  0  0  0  0  0  0  0  0
    1.4101   -0.2942   -0.9364 N   0  0  0  0  0  0  0  0  0  0  0  0
    1.5539    0.3761    1.8560 N   0  0  0  0  0  0  0  0  0  0  0  0
   -2.6420   -0.7819    1.0792 C   0  0  0  0  0  0  0  0  0  0  0  0
   -2.1521   -1.8012    0.0596 C   0  0  0  0  0  0  0  0  0  0  0  0
    0.0276   -2.2977   -1.1258 C   0  0  0  0  0  0  0  0  0  0  0  0
    1.4561   -1.7757   -1.0852 C   0  0  0  0  0  0  0  0  0  0  0  0
    2.6397    0.3131   -0.3573 C   0  0  0  0  0  0  0  0  0  0  0  0
    2.7819    0.0232    1.1380 C   0  0  0  0  0  0  0  0  0  0  0  0
   -2.4179    1.0052   -0.0303 H   0  0  0  0  0  0  0  0  0  0  0  0
   -2.0112    1.1602    1.5626 H   0  0  0  0  0  0  0  0  0  0  0  0
   -3.7489   -0.7002    1.0698 H   0  0  0  0  0  0  0  0  0  0  0  0
   -2.3419   -1.0877    2.1027 H   0  0  0  0  0  0  0  0  0  0  0  0
   -2.5073   -1.5325   -0.9563 H   0  0  0  0  0  0  0  0  0  0  0  0
   -2.5204   -2.8252    0.2851 H   0  0  0  0  0  0  0  0  0  0  0  0
   -0.3016   -2.1666    0.9102 H   0  0  0  0  0  0  0  0  0  0  0  0
   -0.4972   -1.9378   -2.0343 H   0  0  0  0  0  0  0  0  0  0  0  0
   -0.0037   -3.4092   -1.1378 H   0  0  0  0  0  0  0  0  0  0  0  0
    1.9834   -2.1909   -0.2028 H   0  0  0  0  0  0  0  0  0  0  0  0
    2.0339   -2.0822   -1.9826 H   0  0  0  0  0  0  0  0  0  0  0  0
    1.2557    0.1300   -1.8639 H   0  0  0  0  0  0  0  0  0  0  0  0
    2.5440    1.4046   -0.5177 H   0  0  0  0  0  0  0  0  0  0  0  0
    3.5417   -0.0390   -0.9034 H   0  0  0  0  0  0  0  0  0  0  0  0
    2.9883   -1.0555    1.3070 H   0  0  0  0  0  0  0  0  0  0  0  0
    3.6940    0.5603    1.4877 H   0  0  0  0  0  0  0  0  0  0  0  0
    1.6204    0.0809    2.8382 H   0  0  0  0  0  0  0  0  0  0  0  0
    1.4385    1.4000    1.8665 H   0  0  0  0  0  0  0  0  0  0  0  0
  1  5  1  0  0  0  0
  1 12  1  0  0  0  0
  2  6  1  0  0  0  0
  2 17  1  0  0  0  0
  3  9  1  0  0  0  0
  4 28  1  0  0  0  0
  4 27  1  0  0  0  0
  5 14  1  0  0  0  0
  6 16  1  0  0  0  0
  6  5  1  0  0  0  0
  7  8  1  0  0  0  0
  7  2  1  0  0  0  0
  8  3  1  0  0  0  0
  8 20  1  0  0  0  0
  9 10  1  0  0  0  0
 10 25  1  0  0  0  0
 10 26  1  0  0  0  0
 10  4  1  0  0  0  0
 11  1  1  0  0  0  0
 13  5  1  0  0  0  0
 15  6  1  0  0  0  0
 18  7  1  0  0  0  0
 19  7  1  0  0  0  0
 21  8  1  0  0  0  0
 22  3  1  0  0  0  0
 23  9  1  0  0  0  0
 24  9  1  0  0  0  0
M  END
