1,2,3
q = 0.0, confidence = 0.982

 35 37  0  0  1  0  0  0  0  0999 V2000
   -0.0805   -1.6474    0.0045 N   0  0  0  0  0  2  0  0  0  0  0  0
    0.8153    0.4975   -1.3523 N   0  0  0  0  0  2  0  0  0  0  0  0
    0.8293    0.5054    1.3395 N   0  0  0  0  0  2  0  0  0  0  0  0
    2.2781   -0.9527   -0.0097 C   0  0  1  0  0  0  0  0  0  0  0  0
    1.2132   -2.0656   -0.0021 C   0  0  1  0  0  3  0  0  0  0  0  0
    1.5272   -3.4340   -0.0015 C   0  0  0  0  0  0  0  0  0  0  0  0
    0.4978   -4.3866    0.0063 C   0  0  0  0  0  0  0  0  0  0  0  0
   -0.8306   -3.9368    0.0138 C   0  0  0  0  0  0  0  0  0  0  0  0
   -1.0837   -2.5661    0.0128 C   0  0  0  0  0  0  0  0  0  0  0  0
    2.0429   -0.0790   -1.2565 C   0  0  1  0  0  3  0  0  0  0  0  0
    3.0145    0.1274   -2.2487 C   0  0  0  0  0  0  0  0  0  0  0  0
    2.7207    0.9374   -3.3555 C   0  0  0  0  0  0  0  0  0  0  0  0
    1.4490    1.5230   -3.4380 C   0  0  0  0  0  0  0  0  0  0  0  0
    0.5236    1.2834   -2.4236 C   0  0  0  0  0  0  0  0  0  0  0  0
    2.0550   -0.0736    1.2354 C   0  0  2  0  0  3  0  0  0  0  0  0
    3.0356    0.1355    2.2182 C   0  0  0  0  0  0  0  0  0  0  0  0
    2.7531    0.9512    3.3237 C   0  0  0  0  0  0  0  0  0  0  0  0
    1.4837    1.5406    3.4140 C   0  0  0  0  0  0  0  0  0  0  0  0
    0.5490    1.2981    2.4088 C   0  0  0  0  0  0  0  0  0  0  0  0
    3.6892   -1.5454   -0.0153 C   0  0  0  0  0  0  0  0  0  0  0  0
    2.5737   -3.7618   -0.0071 H   0  0  0  0  0  0  0  0  0  0  0  0
    0.7345   -5.4611    0.0066 H   0  0  0  0  0  0  0  0  0  0  0  0
   -1.6776   -4.6374    0.0202 H   0  0  0  0  0  0  0  0  0  0  0  0
   -2.0985   -2.1498    0.0188 H   0  0  0  0  0  0  0  0  0  0  0  0
    4.0020   -0.3416   -2.1626 H   0  0  0  0  0  0  0  0  0  0  0  0
    3.4760    1.1051   -4.1378 H   0  0  0  0  0  0  0  0  0  0  0  0
    1.1633    2.1664   -4.2822 H   0  0  0  0  0  0  0  0  0  0  0  0
   -0.4869    1.7102   -2.4280 H   0  0  0  0  0  0  0  0  0  0  0  0
    4.0214   -0.3360    2.1257 H   0  0  0  0  0  0  0  0  0  0  0  0
    3.5153    1.1206    4.0989 H   0  0  0  0  0  0  0  0  0  0  0  0
    1.2067    2.1889    4.2574 H   0  0  0  0  0  0  0  0  0  0  0  0
   -0.4600    1.7283    2.4192 H   0  0  0  0  0  0  0  0  0  0  0  0
    3.8482   -2.1756   -0.9098 H   0  0  0  0  0  0  0  0  0  0  0  0
    4.4525   -0.7454   -0.0201 H   0  0  0  0  0  0  0  0  0  0  0  0
    3.8564   -2.1728    0.8797 H   0  0  0  0  0  0  0  0  0  0  0  0
  1  9  1  0  0  0  0
  2 10  1  0  0  0  0
  3 19  1  0  0  0  0
  4 20  1  6  0  0  0
  5  4  1  1  0  0  0
  5  6  1  0  0  0  0
  5  1  1  0  0  0  0
  6  7  2  0  0  0  0
  7 22  1  0  0  0  0
  7  8  1  0  0  0  0
  8 23  1  0  0  0  0
  9  8  2  0  0  0  0
  9 24  1  0  0  0  0
 10  4  1  6  0  0  0
 11 25  1  0  0  0  0
 11 10  1  0  0  0  0
 12 11  2  0  0  0  0
 13 12  1  0  0  0  0
 13 14  2  0  0  0  0
 14  2  1  0  0  0  0
 15  4  1  1  0  0  0
 15  3  1  0  0  0  0
 15 16  1  0  0  0  0
 16 17  2  0  0  0  0
 17 18  1  0  0  0  0
 17 30  1  0  0  0  0
 18 31  1  0  0  0  0
 19 32  1  0  0  0  0
 19 18  2  0  0  0  0
 20 35  1  0  0  0  0
 21  6  1  0  0  0  0
 26 12  1  0  0  0  0
 27 13  1  0  0  0  0
 28 14  1  0  0  0  0
 29 16  1  0  0  0  0
 33 20  1  0  0  0  0
 34 20  1  0  0  0  0
M  END
