1,2,3
q = 0.0, confidence = 0.996

 81 85  0  0  0  0  0  0  0  0999 V2000
    2.2288    2.9721    0.1613 N   0  0  0  0  0  2  0  0  0  0  0  0
    0.0000    4.4370    0.0000 N   0  0  0  0  0  2  0  0  0  0  0  0
   -2.2288    2.9721   -0.1613 N   0  0  0  0  0  2  0  0  0  0  0  0
    3.2658    2.0491    0.1576 C   0  0  0  0  0  0  0  0  0  0  0  0
   -9.3051   -4.3062   -0.3031 C   0  0  0  0  0  0  0  0  0  0  0  0
   -9.0190   -5.3345   -0.5584 H   0  0  0  0  0  0  0  0  0  0  0  0
   -3.9340   -0.2656   -0.5013 C   0  0  0  0  0  0  0  0  0  0  0  0
   -3.6677   -1.3015   -0.7635 H   0  0  0  0  0  0  0  0  0  0  0  0
   -5.5946    1.3831    0.1556 C   0  0  0  0  0  0  0  0  0  0  0  0
   -6.6248    1.6551    0.4289 H   0  0  0  0  0  0  0  0  0  0  0  0
    2.3744    4.2613    0.1330 C   0  0  0  0  0  3  0  0  0  0  0  0
    3.3578    4.7745    0.1617 H   0  0  0  0  0  0  0  0  0  0  0  0
   -6.2752   -1.0293   -0.2168 C   0  0  0  0  0  0  0  0  0  0  0  0
   -5.8749   -2.0198   -0.4917 H   0  0  0  0  0  0  0  0  0  0  0  0
  -11.6432   -4.9664   -0.0032 N   0  0  0  0  0  0  0  0  0  0  0  0
   -1.1734    5.0970   -0.0675 C   0  0  0  0  0  0  0  0  0  0  0  0
   -4.6136    2.3656    0.1683 C   0  0  0  0  0  0  0  0  0  0  0  0
   -4.8843    3.3896    0.4659 H   0  0  0  0  0  0  0  0  0  0  0  0
   -3.2658    2.0492   -0.1576 C   0  0  0  0  0  0  0  0  0  0  0  0
    1.1734    5.0970    0.0676 C   0  0  0  0  0  0  0  0  0  0  0  0
   -8.6080   -1.9720    0.0302 C   0  0  0  0  0  0  0  0  0  0  0  0
   -8.3199   -3.3246   -0.2906 C   0  0  0  0  0  0  0  0  0  0  0  0
   -7.2886   -3.6179   -0.5375 H   0  0  0  0  0  0  0  0  0  0  0  0
    1.2105    6.5096    0.0691 C   0  0  0  0  0  0  0  0  0  0  0  0
    2.1756    7.0340    0.1261 H   0  0  0  0  0  0  0  0  0  0  0  0
   -7.6108   -0.9160    0.0564 C   0  0  0  0  0  0  0  0  0  0  0  0
   -8.0057    0.0776    0.3310 H   0  0  0  0  0  0  0  0  0  0  0  0
    3.9339   -0.2657    0.5009 C   0  0  0  0  0  0  0  0  0  0  0  0
    3.6675   -1.3016    0.7627 H   0  0  0  0  0  0  0  0  0  0  0  0
   -2.9391    0.7071   -0.4790 C   0  0  0  0  0  0  0  0  0  0  0  0
   -1.8952    0.4670   -0.7363 H   0  0  0  0  0  0  0  0  0  0  0  0
   -5.2863    0.0346   -0.1870 C   0  0  0  0  0  0  0  0  0  0  0  0
  -10.9611   -2.6397    0.3317 C   0  0  0  0  0  0  0  0  0  0  0  0
  -11.9871   -2.3407    0.5807 H   0  0  0  0  0  0  0  0  0  0  0  0
  -10.6630   -3.9946    0.0084 C   0  0  0  0  0  0  0  0  0  0  0  0
    5.2862    0.0345    0.1868 C   0  0  0  0  0  0  0  0  0  0  0  0
   -9.9591   -1.6716    0.3389 C   0  0  0  0  0  0  0  0  0  0  0  0
  -10.2255   -0.6334    0.5942 H   0  0  0  0  0  0  0  0  0  0  0  0
    4.6137    2.3656   -0.1681 C   0  0  0  0  0  0  0  0  0  0  0  0
    4.8844    3.3897   -0.4654 H   0  0  0  0  0  0  0  0  0  0  0  0
   -2.3744    4.2613   -0.1330 C   0  0  0  0  0  0  0  0  0  0  0  0
   -3.3578    4.7745   -0.1617 H   0  0  0  0  0  0  0  0  0  0  0  0
   -1.2105    6.5096   -0.0690 C   0  0  0  0  0  0  0  0  0  0  0  0
   -2.1756    7.0340   -0.1260 H   0  0  0  0  0  0  0  0  0  0  0  0
    2.9390    0.7071    0.4787 C   0  0  0  0  0  0  0  0  0  0  0  0
    1.8951    0.4668    0.7357 H   0  0  0  0  0  0  0  0  0  0  0  0
    6.2751   -1.0294    0.2164 C   0  0  0  0  0  0  0  0  0  0  0  0
    5.8748   -2.0200    0.4908 H   0  0  0  0  0  0  0  0  0  0  0  0
    0.0000    7.2134    0.0001 C   0  0  0  0  0  0  0  0  0  0  0  0
   -0.0000    8.3137    0.0001 H   0  0  0  0  0  0  0  0  0  0  0  0
    9.3050   -4.3064    0.3022 C   0  0  0  0  0  0  0  0  0  0  0  0
    9.0187   -5.3347    0.5570 H   0  0  0  0  0  0  0  0  0  0  0  0
    5.5946    1.3831   -0.1555 C   0  0  0  0  0  0  0  0  0  0  0  0
    6.6249    1.6552   -0.4286 H   0  0  0  0  0  0  0  0  0  0  0  0
   11.6430   -4.9666    0.0024 N   0  0  0  0  0  0  0  0  0  0  0  0
    9.9592   -1.6715   -0.3382 C   0  0  0  0  0  0  0  0  0  0  0  0
   10.2257   -0.6332   -0.5928 H   0  0  0  0  0  0  0  0  0  0  0  0
    8.6080   -1.9720   -0.0302 C   0  0  0  0  0  0  0  0  0  0  0  0
    7.6108   -0.9160   -0.0563 C   0  0  0  0  0  0  0  0  0  0  0  0
    8.0059    0.0777   -0.3303 H   0  0  0  0  0  0  0  0  0  0  0  0
    8.3198   -3.3248    0.2898 C   0  0  0  0  0  0  0  0  0  0  0  0
    7.2884   -3.6181    0.5363 H   0  0  0  0  0  0  0  0  0  0  0  0
   10.6629   -3.9947   -0.0088 C   0  0  0  0  0  0  0  0  0  0  0  0
   10.9612   -2.6396   -0.3311 C   0  0  0  0  0  0  0  0  0  0  0  0
   11.9873   -2.3404   -0.5794 H   0  0  0  0  0  0  0  0  0  0  0  0
  -11.3049   -6.3370   -0.3306 C   0  0  0  0  0  0  0  0  0  0  0  0
  -10.8781   -6.4304   -1.3547 H   0  0  0  0  0  0  0  0  0  0  0  0
  -12.2167   -6.9594   -0.2872 H   0  0  0  0  0  0  0  0  0  0  0  0
  -10.5646   -6.7681    0.3807 H   0  0  0  0  0  0  0  0  0  0  0  0
   11.3049   -6.3370    0.3307 C   0  0  0  0  0  0  0  0  0  0  0  0
   10.8796   -6.4303    1.3555 H   0  0  0  0  0  0  0  0  0  0  0  0
   12.2164   -6.9597    0.2858 H   0  0  0  0  0  0  0  0  0  0  0  0
   10.5634   -6.7679   -0.3794 H   0  0  0  0  0  0  0  0  0  0  0  0
   13.0118   -4.6177   -0.3195 C   0  0  0  0  0  0  0  0  0  0  0  0
   13.1084   -4.2053   -1.3494 H   0  0  0  0  0  0  0  0  0  0  0  0
   13.6452   -5.5206   -0.2561 H   0  0  0  0  0  0  0  0  0  0  0  0
   13.4272   -3.8603    0.3834 H   0  0  0  0  0  0  0  0  0  0  0  0
  -13.0115   -4.6179    0.3210 C   0  0  0  0  0  0  0  0  0  0  0  0
  -13.1070   -4.2080    1.3521 H   0  0  0  0  0  0  0  0  0  0  0  0
  -13.6452   -5.5205    0.2559 H   0  0  0  0  0  0  0  0  0  0  0  0
  -13.4273   -3.8588   -0.3796 H   0  0  0  0  0  0  0  0  0  0  0  0
  2 20  1  0  0  0  0
  3 19  1  0  0  0  0
  3 41  1  0  0  0  0
  4  1  1  0  0  0  0
  4 45  1  0  0  0  0
  5 22  2  0  0  0  0
  5 35  1  0  0  0  0
  6  5  1  0  0  0  0
  7 30  2  0  0  0  0
  7 32  1  0  0  0  0
  8  7  1  0  0  0  0
  9 17  1  0  0  0  0
  9 10  1  0  0  0  0
 11  1  1  0  0  0  0
 11 12  1  0  0  0  0
 13 32  1  0  0  0  0
 13 26  2  0  0  0  0
 14 13  1  0  0  0  0
 15 35  1  0  0  0  0
 15 78  1  0  0  0  0
 16  2  1  0  0  0  0
 17 18  1  0  0  0  0
 19 17  2  0  0  0  0
 20 24  2  0  0  0  0
 20 11  1  0  0  0  0
 21 26  1  0  0  0  0
 21 37  2  0  0  0  0
 22 21  1  0  0  0  0
 23 22  1  0  0  0  0
 24 25  1  0  0  0  0
 26 27  1  0  0  0  0
 28 29  1  0  0  0  0
 30 19  1  0  0  0  0
 31 30  1  0  0  0  0
 32  9  2  0  0  0  0
 33 37  1  0  0  0  0
 33 34  1  0  0  0  0
 35 33  2  0  0  0  0
 36 47  1  0  0  0  0
 36 28  1  0  0  0  0
 37 38  1  0  0  0  0
 39 53  1  0  0  0  0
 39  4  2  0  0  0  0
 40 39  1  0  0  0  0
 41 16  2  0  0  0  0
 42 41  1  0  0  0  0
 43 16  1  0  0  0  0
 43 49  2  0  0  0  0
 44 43  1  0  0  0  0
 45 28  2  0  0  0  0
 45 46  1  0  0  0  0
 47 48  1  0  0  0  0
 49 50  1  0  0  0  0
 49 24  1  0  0  0  0
 51 52  1  0  0  0  0
 53 36  2  0  0  0  0
 54 53  1  0  0  0  0
 55 70  1  0  0  0  0
 56 64  2  0  0  0  0
 56 58  1  0  0  0  0
 57 56  1  0  0  0  0
 58 61  2  0  0  0  0
 59 58  1  0  0  0  0
 59 47  2  0  0  0  0
 60 59  1  0  0  0  0
 61 51  1  0  0  0  0
 61 62  1  0  0  0  0
 63 55  1  0  0  0  0
 63 51  2  0  0  0  0
 64 63  1  0  0  0  0
 65 64  1  0  0  0  0
 66 68  1  0  0  0  0
 66 15  1  0  0  0  0
 66 69  1  0  0  0  0
 67 66  1  0  0  0  0
 70 71  1  0  0  0  0
 72 70  1  0  0  0  0
 73 70  1  0  0  0  0
 74 76  1  0  0  0  0
 74 55  1  0  0  0  0
 74 77  1  0  0  0  0
 75 74  1  0  0  0  0
 78 79  1  0  0  0  0
 80 78  1  0  0  0  0
 81 78  1  0  0  0  0
M  END
