1,2,3
q = 0.0, confidence = 0.972

 38 41  0  0  1  0  0  0  0  0999 V2000
    0.9769   -2.1684   -0.0000 N   0  0  0  0  0  2  0  0  0  0  0  0
   -0.5911    0.0229    0.1240 N   0  0  0  0  0  2  0  0  0  0  0  0
    0.8708    2.3012   -0.0210 N   0  0  0  0  0  2  0  0  0  0  0  0
   -7.6857   -0.1130   -0.3501 N   0  0  0  0  0  0  0  0  0  0  0  0
   -6.9614    0.8432   -0.9523 C   0  0  0  0  0  0  0  0  0  0  0  0
   -7.5260    1.5970   -1.5296 H   0  0  0  0  0  0  0  0  0  0  0  0
   -5.5620    0.9199   -0.8871 C   0  0  0  0  0  0  0  0  0  0  0  0
   -5.0281    1.7165   -1.4267 H   0  0  0  0  0  0  0  0  0  0  0  0
   -7.0134   -1.0421    0.3474 C   0  0  0  0  0  0  0  0  0  0  0  0
   -7.6215   -1.8192    0.8441 H   0  0  0  0  0  0  0  0  0  0  0  0
   -5.6163   -1.0638    0.4736 C   0  0  0  0  0  0  0  0  0  0  0  0
   -5.1296   -1.8409    1.0820 H   0  0  0  0  0  0  0  0  0  0  0  0
   -4.8549   -0.0575   -0.1563 C   0  0  0  0  0  0  0  0  0  0  0  0
    1.6716    3.3758    0.0116 C   0  0  0  0  0  3  0  0  0  0  0  0
    2.7425    3.1775   -0.1671 H   0  0  0  0  0  0  0  0  0  0  0  0
    1.1791    4.6674    0.2550 C   0  0  0  0  0  0  0  0  0  0  0  0
    1.8650    5.5262    0.2753 H   0  0  0  0  0  0  0  0  0  0  0  0
   -0.1957    4.8230    0.4782 C   0  0  0  0  0  0  0  0  0  0  0  0
   -0.6213    5.8158    0.6873 H   0  0  0  0  0  0  0  0  0  0  0  0
   -1.0273    3.6960    0.4415 C   0  0  0  0  0  0  0  0  0  0  0  0
   -2.1039    3.8007    0.6328 H   0  0  0  0  0  0  0  0  0  0  0  0
   -0.4565    2.4340    0.1823 C   0  0  0  0  0  0  0  0  0  0  0  0
    1.8353   -3.1968    0.0000 C   0  0  0  0  0  3  0  0  0  0  0  0
    2.9035   -2.9255   -0.0266 H   0  0  0  0  0  0  0  0  0  0  0  0
    1.3933   -4.5285    0.0347 C   0  0  0  0  0  0  0  0  0  0  0  0
    2.1213   -5.3520    0.0272 H   0  0  0  0  0  0  0  0  0  0  0  0
    0.0139   -4.7714    0.0840 C   0  0  0  0  0  0  0  0  0  0  0  0
   -0.3731   -5.8008    0.1212 H   0  0  0  0  0  0  0  0  0  0  0  0
   -0.8747   -3.6880    0.0914 C   0  0  0  0  0  0  0  0  0  0  0  0
   -1.9570   -3.8666    0.1431 H   0  0  0  0  0  0  0  0  0  0  0  0
   -0.3542   -2.3793    0.0437 C   0  0  0  0  0  0  0  0  0  0  0  0
   -3.3751   -0.0292   -0.0539 C   0  0  0  0  0  0  0  0  0  0  0  0
   -2.6756    1.1911    0.0231 C   0  0  0  0  0  0  0  0  0  0  0  0
   -3.2319    2.1375    0.0167 H   0  0  0  0  0  0  0  0  0  0  0  0
   -1.2707    1.1799    0.1129 C   0  0  1  0  0  3  0  0  0  0  0  0
   -2.6260   -1.2218   -0.0420 C   0  0  0  0  0  0  0  0  0  0  0  0
   -3.1419   -2.1856   -0.1410 H   0  0  0  0  0  0  0  0  0  0  0  0
   -1.2219   -1.1595    0.0443 C   0  0  0  0  0  0  0  0  0  0  0  0
  1 23  1  0  0  0  0
  1 31  1  0  0  0  0
  3 14  1  0  0  0  0
  3 22  1  0  0  0  0
  4  9  1  0  0  0  0
  5  7  1  0  0  0  0
  5  4  2  0  0  0  0
  6  5  1  0  0  0  0
  7 13  2  0  0  0  0
  8  7  1  0  0  0  0
  9 11  2  0  0  0  0
  9 10  1  0  0  0  0
 11 12  1  0  0  0  0
 13 32  1  0  0  0  0
 13 11  1  0  0  0  0
 14 16  1  0  0  0  0
 15 14  1  0  0  0  0
 16 17  1  0  0  0  0
 16 18  2  0  0  0  0
 18 19  1  0  0  0  0
 20 18  1  0  0  0  0
 20 21  1  0  0  0  0
 22 20  2  0  0  0  0
 23 25  1  0  0  0  0
 24 23  1  0  0  0  0
 25 27  2  0  0  0  0
 26 25  1  0  0  0  0
 27 29  1  0  0  0  0
 27 28  1  0  0  0  0
 29 30  1  0  0  0  0
 31 38  1  0  0  0  0
 31 29  2  0  0  0  0
 32 36  1  0  0  0  0
 32 33  2  0  0  0  0
 33 35  1  0  0  0  0
 34 33  1  0  0  0  0
 35  2  1  0  0  0  0
 35 22  1  6  0  0  0
 36 38  2  0  0  0  0
 37 36  1  0  0  0  0
 38  2  1  0  0  0  0
M  END
