3,4,5
q = -2.0, confidence = 0.98

 59 62  0  0  0  0  0  0  0  0999 V2000
   -2.4963   -1.8074    1.2702 S   0  0  0  0  0  0  0  0  0  0  0  0
    1.5040   -0.7603   -2.0123 S   0  0  0  0  0  0  0  0  0  0  0  0
   -1.1057   -0.8050    1.4362 N   0  0  0  0  0  2  0  0  0  0  0  0
    1.1429    0.5187    1.4619 N   0  0  0  0  0  2  0  0  0  0  0  0
    2.1361   -1.1682   -0.4964 N   0  0  0  0  0  2  0  0  0  0  0  0
   -3.3657   -1.7115    2.4663 O   0  0  0  0  0  0  0  0  0  0  0  0
   -2.0211   -3.1110    0.7886 O   0  0  0  0  0  0  0  0  0  0  0  0
    2.5784   -0.8308   -3.0265 O   0  0  0  0  0  0  0  0  0  0  0  0
    0.2612   -1.5527   -2.1499 O   0  0  0  0  0  0  0  0  0  0  0  0
   -1.1565    0.4169    2.0622 C   0  0  0  0  0  0  0  0  0  0  0  0
    0.0540    1.1996    1.9807 C   0  0  0  0  0  0  0  0  0  0  0  0
    0.0808    2.5535    2.3795 C   0  0  0  0  0  0  0  0  0  0  0  0
    0.9934    3.1463    2.2227 H   0  0  0  0  0  0  0  0  0  0  0  0
   -1.0519    3.1301    2.9510 C   0  0  0  0  0  0  0  0  0  0  0  0
   -1.0342    4.1812    3.2744 H   0  0  0  0  0  0  0  0  0  0  0  0
   -2.2171    2.3469    3.1264 C   0  0  0  0  0  0  0  0  0  0  0  0
   -3.1048    2.7946    3.5990 H   0  0  0  0  0  0  0  0  0  0  0  0
   -2.2773    1.0186    2.7104 C   0  0  0  0  0  0  0  0  0  0  0  0
   -3.1772    0.4159    2.8754 H   0  0  0  0  0  0  0  0  0  0  0  0
    2.4006    0.8486    1.6316 C   0  0  0  0  0  3  0  0  0  0  0  0
    2.6325    1.6406    2.3713 H   0  0  0  0  0  0  0  0  0  0  0  0
    3.5257    0.2736    0.9431 C   0  0  0  0  0  0  0  0  0  0  0  0
    3.3801   -0.6780   -0.1259 C   0  0  0  0  0  0  0  0  0  0  0  0
    4.5465   -1.1158   -0.8010 C   0  0  0  0  0  0  0  0  0  0  0  0
    4.4207   -1.8268   -1.6272 H   0  0  0  0  0  0  0  0  0  0  0  0
    5.8078   -0.6427   -0.4336 C   0  0  0  0  0  0  0  0  0  0  0  0
    6.6953   -0.9973   -0.9797 H   0  0  0  0  0  0  0  0  0  0  0  0
    5.9575    0.2639    0.6377 C   0  0  0  0  0  0  0  0  0  0  0  0
    6.9568    0.6127    0.9358 H   0  0  0  0  0  0  0  0  0  0  0  0
    4.8263    0.7108    1.3143 C   0  0  0  0  0  0  0  0  0  0  0  0
    4.9242    1.4252    2.1470 H   0  0  0  0  0  0  0  0  0  0  0  0
   -3.3197   -0.9809   -0.0994 C   0  0  0  0  0  0  0  0  0  0  0  0
   -2.8377   -1.2105   -1.3996 C   0  0  0  0  0  0  0  0  0  0  0  0
   -1.9819   -1.8800   -1.5649 H   0  0  0  0  0  0  0  0  0  0  0  0
   -3.4436   -0.5457   -2.4704 C   0  0  0  0  0  0  0  0  0  0  0  0
   -3.0573   -0.7119   -3.4883 H   0  0  0  0  0  0  0  0  0  0  0  0
   -4.5284    0.3376   -2.2686 C   0  0  0  0  0  0  0  0  0  0  0  0
   -4.9998    0.5283   -0.9538 C   0  0  0  0  0  0  0  0  0  0  0  0
   -5.8549    1.2000   -0.7788 H   0  0  0  0  0  0  0  0  0  0  0  0
   -4.4049   -0.1267    0.1350 C   0  0  0  0  0  0  0  0  0  0  0  0
   -4.7863    0.0052    1.1569 H   0  0  0  0  0  0  0  0  0  0  0  0
   -5.1642    1.0429   -3.4384 C   0  0  0  0  0  0  0  0  0  0  0  0
   -5.9509    1.7508   -3.1144 H   0  0  0  0  0  0  0  0  0  0  0  0
   -5.6282    0.3158   -4.1375 H   0  0  0  0  0  0  0  0  0  0  0  0
   -4.4097    1.6091   -4.0229 H   0  0  0  0  0  0  0  0  0  0  0  0
    1.0441    0.9641   -1.7952 C   0  0  0  0  0  0  0  0  0  0  0  0
    2.0348    1.9546   -1.8605 C   0  0  0  0  0  0  0  0  0  0  0  0
    3.0532    1.6931   -2.1818 H   0  0  0  0  0  0  0  0  0  0  0  0
    1.6977    3.2700   -1.5061 C   0  0  0  0  0  0  0  0  0  0  0  0
    2.4703    4.0540   -1.5470 H   0  0  0  0  0  0  0  0  0  0  0  0
    0.3905    3.6091   -1.0991 C   0  0  0  0  0  0  0  0  0  0  0  0
   -0.5885    2.5916   -1.0749 C   0  0  0  0  0  0  0  0  0  0  0  0
   -1.6178    2.8310   -0.7648 H   0  0  0  0  0  0  0  0  0  0  0  0
   -0.2717    1.2736   -1.4159 C   0  0  0  0  0  0  0  0  0  0  0  0
   -1.0324    0.4829   -1.3775 H   0  0  0  0  0  0  0  0  0  0  0  0
    0.0340    5.0134   -0.6859 C   0  0  0  0  0  0  0  0  0  0  0  0
   -0.3597    5.0286    0.3524 H   0  0  0  0  0  0  0  0  0  0  0  0
   -0.7627    5.4339   -1.3342 H   0  0  0  0  0  0  0  0  0  0  0  0
    0.9065    5.6928   -0.7349 H   0  0  0  0  0  0  0  0  0  0  0  0
  1  3  1  0  0  0  0
  1  6  2  0  0  0  0
  2 46  1  0  0  0  0
  2  5  1  0  0  0  0
  3 10  1  0  0  0  0
  4 20  1  0  0  0  0
  4 11  1  0  0  0  0
  5 23  1  0  0  0  0
  7  1  2  0  0  0  0
  8  2  2  0  0  0  0
  9  2  2  0  0  0  0
 10 18  1  0  0  0  0
 11 10  2  0  0  0  0
 11 12  1  0  0  0  0
 12 14  2  0  0  0  0
 13 12  1  0  0  0  0
 14 16  1  0  0  0  0
 14 15  1  0  0  0  0
 16 17  1  0  0  0  0
 18 19  1  0  0  0  0
 18 16  2  0  0  0  0
 20 21  1  0  0  0  0
 22 30  1  0  0  0  0
 22 20  1  0  0  0  0
 23 22  2  0  0  0  0
 24 26  2  0  0  0  0
 24 23  1  0  0  0  0
 25 24  1  0  0  0  0
 26 28  1  0  0  0  0
 27 26  1  0  0  0  0
 28 29  1  0  0  0  0
 28 30  2  0  0  0  0
 30 31  1  0  0  0  0
 32 40  1  0  0  0  0
 32  1  1  0  0  0  0
 33 32  2  0  0  0  0
 34 33  1  0  0  0  0
 35 37  2  0  0  0  0
 35 33  1  0  0  0  0
 36 35  1  0  0  0  0
 37 38  1  0  0  0  0
 38 39  1  0  0  0  0
 38 40  2  0  0  0  0
 40 41  1  0  0  0  0
 42 43  1  0  0  0  0
 42 37  1  0  0  0  0
 44 42  1  0  0  0  0
 45 42  1  0  0  0  0
 46 54  1  0  0  0  0
 47 46  2  0  0  0  0
 47 49  1  0  0  0  0
 48 47  1  0  0  0  0
 49 51  2  0  0  0  0
 50 49  1  0  0  0  0
 51 52  1  0  0  0  0
 51 56  1  0  0  0  0
 52 53  1  0  0  0  0
 54 55  1  0  0  0  0
 54 52  2  0  0  0  0
 56 57  1  0  0  0  0
 58 56  1  0  0  0  0
 59 56  1  0  0  0  0
M  END
