2,14,15
q = -1.0, confidence = 0.0

 27 29  0  0  0  0  0  0  0  0999 V2000
    2.8284    2.2053   -0.0005 S   0  0  0  0  0  0  0  0  0  0  0  0
   -2.7608   -0.4047   -0.0003 N   0  0  0  0  0  2  0  0  0  0  0  0
   -3.2104    0.8898    0.0002 C   0  0  0  0  0  0  0  0  0  0  0  0
   -4.5979    1.1623    0.0004 C   0  0  0  0  0  0  0  0  0  0  0  0
   -4.9424    2.2062    0.0008 H   0  0  0  0  0  0  0  0  0  0  0  0
   -5.5015    0.0980   -0.0000 C   0  0  0  0  0  0  0  0  0  0  0  0
   -6.5843    0.2939    0.0001 H   0  0  0  0  0  0  0  0  0  0  0  0
   -5.0179   -1.2234   -0.0006 C   0  0  0  0  0  0  0  0  0  0  0  0
   -5.6979   -2.0860   -0.0009 H   0  0  0  0  0  0  0  0  0  0  0  0
   -3.6328   -1.4268   -0.0007 C   0  0  0  0  0  0  0  0  0  0  0  0
   -3.1894   -2.4341   -0.0011 H   0  0  0  0  0  0  0  0  0  0  0  0
   -2.1826    1.9009    0.0005 C   0  0  0  0  0  0  0  0  0  0  0  0
   -2.4021    2.9815    0.0007 H   0  0  0  0  0  0  0  0  0  0  0  0
    1.2103    0.1554    0.0009 N   0  0  0  0  0  2  0  0  0  0  0  0
   -0.9440    1.4481    0.0003 N   0  0  0  0  0  2  0  0  0  0  0  0
    0.1059    2.2610    0.0003 N   0  0  0  0  0  0  0  0  0  0  0  0
    1.2184    1.5018    0.0004 C   0  0  0  0  0  0  0  0  0  0  0  0
    3.5196    0.5827   -0.0002 C   0  0  0  0  0  0  0  0  0  0  0  0
    2.4797   -0.3925    0.0005 C   0  0  0  0  0  0  0  0  0  0  0  0
    2.8012   -1.7633    0.0008 C   0  0  0  0  0  0  0  0  0  0  0  0
    1.9909   -2.5059    0.0014 H   0  0  0  0  0  0  0  0  0  0  0  0
    4.1514   -2.1310    0.0004 C   0  0  0  0  0  0  0  0  0  0  0  0
    4.4181   -3.1983    0.0007 H   0  0  0  0  0  0  0  0  0  0  0  0
    5.1754   -1.1599   -0.0003 C   0  0  0  0  0  0  0  0  0  0  0  0
    6.2288   -1.4767   -0.0006 H   0  0  0  0  0  0  0  0  0  0  0  0
    4.8701    0.2095   -0.0006 C   0  0  0  0  0  0  0  0  0  0  0  0
    5.6674    0.9667   -0.0011 H   0  0  0  0  0  0  0  0  0  0  0  0
  1 18  1  0  0  0  0
  1 17  1  0  0  0  0
  2  3  1  0  0  0  0
  3  4  1  0  0  0  0
  3 12  2  0  0  0  0
  4  5  1  0  0  0  0
  6  7  1  0  0  0  0
  6  4  2  0  0  0  0
  8  6  1  0  0  0  0
  9  8  1  0  0  0  0
 10  8  2  0  0  0  0
 10  2  1  0  0  0  0
 11 10  1  0  0  0  0
 12 13  1  0  0  0  0
 15 16  1  0  0  0  0
 15 12  1  0  0  0  0
 16 17  2  0  0  0  0
 17 14  1  0  0  0  0
 18 19  1  0  0  0  0
 19 20  2  0  0  0  0
 19 14  1  0  0  0  0
 20 21  1  0  0  0  0
 22 23  1  0  0  0  0
 22 20  1  0  0  0  0
 24 22  2  0  0  0  0
 25 24  1  0  0  0  0
 26 24  1  0  0  0  0
 26 18  2  0  0  0  0
 27 26  1  0  0  0  0
M  END
