5,7,9
q = -1.0, confidence = 0.03

 49 52  0  0  1  0  0  0  0  0999 V2000
   -2.6157   -0.0139   -1.2612 P   0  0  1  0  0  0  0  0  0  0  0  0
   -3.5477   -0.0213   -2.4284 O   0  0  0  0  0  0  0  0  0  0  0  0
   -1.6182   -1.3761   -1.0721 N   0  0  0  0  0  0  0  0  0  0  0  0
   -1.6341    1.3598   -1.0760 N   0  0  0  0  0  0  0  0  0  0  0  0
    0.2466    0.0043   -0.4920 N   0  0  0  0  0  2  0  0  0  0  0  0
    0.4597    2.2776   -0.4507 N   0  0  0  0  0  0  0  0  0  0  0  0
    1.7684    2.0240   -0.0784 N   0  0  0  0  0  2  0  0  0  0  0  0
    0.4880   -2.2667   -0.4478 N   0  0  0  0  0  0  0  0  0  0  0  0
    1.7912   -1.9912   -0.0766 N   0  0  0  0  0  2  0  0  0  0  0  0
   -3.4882   -0.0168    0.2500 N   0  0  0  0  0  0  0  0  0  0  0  0
   -2.7369   -0.0092    1.3921 N   0  0  0  0  0  0  0  0  0  0  0  0
   -0.3931   -1.1820   -0.6983 C   0  0  0  0  0  0  0  0  0  0  0  0
   -0.4068    1.1824   -0.7004 C   0  0  0  0  0  0  0  0  0  0  0  0
   -1.0472   -4.2416   -0.8427 C   0  0  0  0  0  0  0  0  0  0  0  0
   -0.9572   -5.3422   -0.7888 H   0  0  0  0  0  0  0  0  0  0  0  0
   -1.3741   -3.9444   -1.8582 H   0  0  0  0  0  0  0  0  0  0  0  0
   -1.8487   -3.9000   -0.1587 H   0  0  0  0  0  0  0  0  0  0  0  0
    0.2609   -3.6251   -0.4892 C   0  0  2  0  0  3  0  0  0  0  0  0
    1.4696   -4.2160   -0.1352 C   0  0  0  0  0  0  0  0  0  0  0  0
    1.6646   -5.2906   -0.0613 H   0  0  0  0  0  0  0  0  0  0  0  0
    2.4022   -3.1725    0.1164 C   0  0  0  0  0  0  0  0  0  0  0  0
    3.8291   -3.2940    0.5255 C   0  0  0  0  0  0  0  0  0  0  0  0
    4.4975   -2.8349   -0.2292 H   0  0  0  0  0  0  0  0  0  0  0  0
    4.0965   -4.3583    0.6572 H   0  0  0  0  0  0  0  0  0  0  0  0
    4.0217   -2.7393    1.4644 H   0  0  0  0  0  0  0  0  0  0  0  0
   -1.1102    4.2275   -0.8404 C   0  0  0  0  0  0  0  0  0  0  0  0
   -1.0392    5.3293   -0.7837 H   0  0  0  0  0  0  0  0  0  0  0  0
   -1.9053    3.8701   -0.1571 H   0  0  0  0  0  0  0  0  0  0  0  0
   -1.4322    3.9271   -1.8564 H   0  0  0  0  0  0  0  0  0  0  0  0
    0.2088    3.6332   -0.4886 C   0  0  1  0  0  3  0  0  0  0  0  0
    1.4045    4.2448   -0.1328 C   0  0  0  0  0  0  0  0  0  0  0  0
    1.5787    5.3228   -0.0562 H   0  0  0  0  0  0  0  0  0  0  0  0
    2.3561    3.2157    0.1166 C   0  0  0  0  0  0  0  0  0  0  0  0
    3.7826    3.3614    0.5190 C   0  0  0  0  0  0  0  0  0  0  0  0
    3.8657    4.0300    1.3990 H   0  0  0  0  0  0  0  0  0  0  0  0
    4.3652    3.8258   -0.3034 H   0  0  0  0  0  0  0  0  0  0  0  0
    4.2293    2.3758    0.7525 H   0  0  0  0  0  0  0  0  0  0  0  0
   -3.1582   -0.0064    3.8199 C   0  0  0  0  0  0  0  0  0  0  0  0
   -2.0526    0.0008    3.8580 H   0  0  0  0  0  0  0  0  0  0  0  0
   -3.5230   -0.8998    4.3679 H   0  0  0  0  0  0  0  0  0  0  0  0
   -3.5344    0.8848    4.3636 H   0  0  0  0  0  0  0  0  0  0  0  0
   -3.6183   -0.0128    2.3955 C   0  0  0  0  0  0  0  0  0  0  0  0
   -4.9574   -0.0228    1.8930 C   0  0  0  0  0  0  0  0  0  0  0  0
   -5.8901   -0.0276    2.4684 H   0  0  0  0  0  0  0  0  0  0  0  0
   -4.8489   -0.0252    0.5068 C   0  0  0  0  0  0  0  0  0  0  0  0
   -5.8970   -0.0346   -0.5563 C   0  0  0  0  0  0  0  0  0  0  0  0
   -6.9000   -0.0397   -0.0905 H   0  0  0  0  0  0  0  0  0  0  0  0
   -5.7981   -0.9184   -1.2169 H   0  0  0  0  0  0  0  0  0  0  0  0
   -5.8091    0.8467   -1.2217 H   0  0  0  0  0  0  0  0  0  0  0  0
  1  2  2  6  0  0  0
  1  4  1  0  0  0  0
  1  3  1  0  0  0  0
  1 10  1  0  0  0  0
  3 12  2  0  0  0  0
  4 13  2  0  0  0  0
  6  7  1  0  0  0  0
  7 33  1  0  0  0  0
  8  9  1  0  0  0  0
  9 21  1  0  0  0  0
 10 45  1  0  0  0  0
 10 11  1  0  0  0  0
 11 42  2  0  0  0  0
 12  5  1  0  0  0  0
 12  8  1  0  0  0  0
 13  5  1  0  0  0  0
 13  6  1  0  0  0  0
 14 15  1  0  0  0  0
 14 17  1  0  0  0  0
 16 14  1  0  0  0  0
 18 14  1  1  0  0  0
 18  8  1  0  0  0  0
 18 19  1  0  0  0  0
 19 20  1  0  0  0  0
 19 21  2  0  0  0  0
 21 22  1  0  0  0  0
 22 24  1  0  0  0  0
 22 25  1  0  0  0  0
 23 22  1  0  0  0  0
 26 27  1  0  0  0  0
 26 28  1  0  0  0  0
 29 26  1  0  0  0  0
 30 26  1  1  0  0  0
 30  6  1  0  0  0  0
 30 31  1  0  0  0  0
 31 32  1  0  0  0  0
 31 33  2  0  0  0  0
 33 34  1  0  0  0  0
 34 37  1  0  0  0  0
 34 35  1  0  0  0  0
 36 34  1  0  0  0  0
 38 39  1  0  0  0  0
 38 41  1  0  0  0  0
 38 40  1  0  0  0  0
 42 38  1  0  0  0  0
 43 42  1  0  0  0  0
 43 44  1  0  0  0  0
 45 43  2  0  0  0  0
 46 47  1  0  0  0  0
 46 45  1  0  0  0  0
 48 46  1  0  0  0  0
 49 46  1  0  0  0  0
M  END
