1,3,5
q = 0.0, confidence = 1.0

 65 68  0  0  1  0  0  0  0  0999 V2000
    0.5136    0.3226    1.3317 N   0  0  0  0  0  2  0  0  0  0  0  0
    1.8562    0.5807    1.2606 N   0  0  0  0  0  0  0  0  0  0  0  0
   -1.8436    0.3459   -0.6891 N   0  0  0  0  0  2  0  0  0  0  0  0
   -1.5099    1.5846   -1.1807 N   0  0  0  0  0  0  0  0  0  0  0  0
    1.0727    0.0586   -1.4458 N   0  0  0  0  0  0  0  0  0  0  0  0
   -0.0050    1.1781    2.2422 C   0  0  2  0  0  3  0  0  0  0  0  0
    1.0318    1.9992    2.7565 C   0  0  0  0  0  0  0  0  0  0  0  0
    0.9374    2.7912    3.5052 H   0  0  0  0  0  0  0  0  0  0  0  0
    2.1922    1.5957    2.1106 C   0  0  0  0  0  0  0  0  0  0  0  0
    3.2237    1.9579    2.1675 H   0  0  0  0  0  0  0  0  0  0  0  0
    2.7220   -0.1579    0.4070 C   0  0  0  0  0  0  0  0  0  0  0  0
    3.9384   -0.6215    0.9207 C   0  0  0  0  0  0  0  0  0  0  0  0
    4.1699   -0.4255    1.9782 H   0  0  0  0  0  0  0  0  0  0  0  0
    4.8375   -1.3667    0.1310 C   0  0  0  0  0  0  0  0  0  0  0  0
    4.4621   -1.6351   -1.1966 C   0  0  0  0  0  0  0  0  0  0  0  0
    5.1329   -2.2219   -1.8418 H   0  0  0  0  0  0  0  0  0  0  0  0
    3.2469   -1.1730   -1.7267 C   0  0  0  0  0  0  0  0  0  0  0  0
    3.0053   -1.4021   -2.7715 H   0  0  0  0  0  0  0  0  0  0  0  0
    2.3563   -0.4311   -0.9412 C   0  0  0  0  0  0  0  0  0  0  0  0
    6.1168   -1.8994    0.7166 C   0  0  0  0  0  0  0  0  0  0  0  0
    6.5963   -1.1638    1.3919 H   0  0  0  0  0  0  0  0  0  0  0  0
    6.8424   -2.1744   -0.0719 H   0  0  0  0  0  0  0  0  0  0  0  0
    5.9180   -2.8122    1.3175 H   0  0  0  0  0  0  0  0  0  0  0  0
   -3.1762    0.1924   -0.9111 C   0  0  2  0  0  3  0  0  0  0  0  0
   -3.6881    1.3463   -1.5561 C   0  0  0  0  0  0  0  0  0  0  0  0
   -4.7183    1.5161   -1.8821 H   0  0  0  0  0  0  0  0  0  0  0  0
   -2.6133    2.1992   -1.7160 C   0  0  0  0  0  0  0  0  0  0  0  0
   -2.5312    3.1778   -2.1975 H   0  0  0  0  0  0  0  0  0  0  0  0
   -0.2304    2.2004   -1.0966 C   0  0  0  0  0  0  0  0  0  0  0  0
   -0.2171    3.5970   -0.8886 C   0  0  0  0  0  0  0  0  0  0  0  0
   -1.1667    4.1013   -0.6613 H   0  0  0  0  0  0  0  0  0  0  0  0
    0.9593    4.3583   -0.9497 C   0  0  0  0  0  0  0  0  0  0  0  0
    2.1589    3.6756   -1.2357 C   0  0  0  0  0  0  0  0  0  0  0  0
    3.1030    4.2343   -1.3212 H   0  0  0  0  0  0  0  0  0  0  0  0
    2.1667    2.2889   -1.3942 C   0  0  0  0  0  0  0  0  0  0  0  0
    3.1162    1.7722   -1.5926 H   0  0  0  0  0  0  0  0  0  0  0  0
    0.9903    1.5218   -1.3007 C   0  0  0  0  0  0  0  0  0  0  0  0
    0.9458    5.8433   -0.7085 C   0  0  0  0  0  0  0  0  0  0  0  0
    1.4277    6.3870   -1.5462 H   0  0  0  0  0  0  0  0  0  0  0  0
    1.5163    6.0994    0.2084 H   0  0  0  0  0  0  0  0  0  0  0  0
   -0.0816    6.2355   -0.5892 H   0  0  0  0  0  0  0  0  0  0  0  0
   -1.4623    1.1652    2.6168 C   0  0  0  0  0  0  0  0  0  0  0  0
   -1.9664    0.5023    1.8852 H   0  0  0  0  0  0  0  0  0  0  0  0
   -1.6593    0.5667    4.0212 C   0  0  0  0  0  0  0  0  0  0  0  0
   -1.1634    1.1881    4.7946 H   0  0  0  0  0  0  0  0  0  0  0  0
   -1.2477   -0.4590    4.0860 H   0  0  0  0  0  0  0  0  0  0  0  0
   -2.7388    0.5165    4.2671 H   0  0  0  0  0  0  0  0  0  0  0  0
   -2.0866    2.5642    2.4957 C   0  0  0  0  0  0  0  0  0  0  0  0
   -1.9567    2.9812    1.4777 H   0  0  0  0  0  0  0  0  0  0  0  0
   -1.6333    3.2754    3.2163 H   0  0  0  0  0  0  0  0  0  0  0  0
   -3.1722    2.5183    2.7124 H   0  0  0  0  0  0  0  0  0  0  0  0
   -3.9813   -1.0101   -0.4954 C   0  0  0  0  0  0  0  0  0  0  0  0
   -3.2696   -1.8103   -0.2231 H   0  0  0  0  0  0  0  0  0  0  0  0
   -4.8475   -1.5297   -1.6541 C   0  0  0  0  0  0  0  0  0  0  0  0
   -4.2298   -1.7946   -2.5346 H   0  0  0  0  0  0  0  0  0  0  0  0
   -5.6029   -0.7819   -1.9710 H   0  0  0  0  0  0  0  0  0  0  0  0
   -5.3954   -2.4383   -1.3365 H   0  0  0  0  0  0  0  0  0  0  0  0
   -4.8232   -0.6824    0.7528 C   0  0  0  0  0  0  0  0  0  0  0  0
   -5.5587    0.1205    0.5414 H   0  0  0  0  0  0  0  0  0  0  0  0
   -4.1886   -0.3543    1.5997 H   0  0  0  0  0  0  0  0  0  0  0  0
   -5.3825   -1.5809    1.0803 H   0  0  0  0  0  0  0  0  0  0  0  0
    0.7817   -0.3005   -2.8632 C   0  0  0  0  0  0  0  0  0  0  0  0
    1.5050    0.1844   -3.5509 H   0  0  0  0  0  0  0  0  0  0  0  0
   -0.2371    0.0523   -3.1027 H   0  0  0  0  0  0  0  0  0  0  0  0
    0.8119   -1.3965   -2.9898 H   0  0  0  0  0  0  0  0  0  0  0  0
  1  6  1  0  0  0  0
  2  1  1  0  0  0  0
  2  9  1  0  0  0  0
  4 29  1  0  0  0  0
  4  3  1  0  0  0  0
  5 37  1  0  0  0  0
  5 19  1  0  0  0  0
  6 42  1  1  0  0  0
  6  7  1  0  0  0  0
  7  8  1  0  0  0  0
  9 10  1  0  0  0  0
  9  7  2  0  0  0  0
 11 12  1  0  0  0  0
 11  2  1  0  0  0  0
 12 13  1  0  0  0  0
 14 20  1  0  0  0  0
 14 12  2  0  0  0  0
 15 14  1  0  0  0  0
 16 15  1  0  0  0  0
 17 15  2  0  0  0  0
 17 19  1  0  0  0  0
 18 17  1  0  0  0  0
 19 11  2  0  0  0  0
 20 23  1  0  0  0  0
 20 21  1  0  0  0  0
 22 20  1  0  0  0  0
 24  3  1  0  0  0  0
 24 52  1  1  0  0  0
 25 24  1  0  0  0  0
 26 25  1  0  0  0  0
 27 25  2  0  0  0  0
 27  4  1  0  0  0  0
 28 27  1  0  0  0  0
 29 30  1  0  0  0  0
 30 31  1  0  0  0  0
 32 30  2  0  0  0  0
 32 38  1  0  0  0  0
 33 32  1  0  0  0  0
 34 33  1  0  0  0  0
 35 37  1  0  0  0  0
 35 33  2  0  0  0  0
 36 35  1  0  0  0  0
 37 29  2  0  0  0  0
 38 41  1  0  0  0  0
 38 40  1  0  0  0  0
 39 38  1  0  0  0  0
 42 44  1  0  0  0  0
 43 42  1  0  0  0  0
 44 46  1  0  0  0  0
 44 47  1  0  0  0  0
 44 45  1  0  0  0  0
 48 42  1  0  0  0  0
 48 51  1  0  0  0  0
 48 50  1  0  0  0  0
 49 48  1  0  0  0  0
 52 53  1  0  0  0  0
 52 58  1  0  0  0  0
 54 57  1  0  0  0  0
 54 52  1  0  0  0  0
 55 54  1  0  0  0  0
 56 54  1  0  0  0  0
 58 61  1  0  0  0  0
 58 60  1  0  0  0  0
 59 58  1  0  0  0  0
 62  5  1  0  0  0  0
 63 62  1  0  0  0  0
 64 62  1  0  0  0  0
 65 62  1  0  0  0  0
M  END
