1,2,3
q = 0.0, confidence = 0.996

 40 44  0  0  1  0  0  0  0  0999 V2000
   -2.9776   -1.2546   -0.0317 N   0  0  0  0  0  2  0  0  0  0  0  0
   -1.9611    1.1514   -0.1519 N   0  0  0  0  0  2  0  0  0  0  0  0
    0.6613    0.9420   -0.2196 N   0  0  0  0  0  2  0  0  0  0  0  0
    4.2904    1.6062   -0.0083 N   0  0  0  0  0  0  0  0  0  0  0  0
   -3.3653   -2.5342   -0.0117 C   0  0  0  0  0  3  0  0  0  0  0  0
   -2.5458   -3.2720   -0.0440 H   0  0  0  0  0  0  0  0  0  0  0  0
   -4.7210   -2.8939    0.0202 C   0  0  0  0  0  0  0  0  0  0  0  0
   -5.0128   -3.9535    0.0413 H   0  0  0  0  0  0  0  0  0  0  0  0
   -5.6831   -1.8726    0.0188 C   0  0  0  0  0  0  0  0  0  0  0  0
   -6.7561   -2.1153    0.0400 H   0  0  0  0  0  0  0  0  0  0  0  0
   -5.2672   -0.5347   -0.0174 C   0  0  0  0  0  0  0  0  0  0  0  0
   -6.0081    0.2766   -0.0319 H   0  0  0  0  0  0  0  0  0  0  0  0
   -3.8867   -0.2599   -0.0408 C   0  0  0  0  0  0  0  0  0  0  0  0
   -3.3035    1.1112   -0.0903 C   0  0  1  0  0  3  0  0  0  0  0  0
   -4.0598    2.2997   -0.0741 C   0  0  0  0  0  0  0  0  0  0  0  0
   -5.1562    2.2733   -0.0203 H   0  0  0  0  0  0  0  0  0  0  0  0
   -3.3796    3.5234   -0.1245 C   0  0  0  0  0  0  0  0  0  0  0  0
   -3.9434    4.4679   -0.1175 H   0  0  0  0  0  0  0  0  0  0  0  0
   -1.9798    3.5431   -0.1762 C   0  0  0  0  0  0  0  0  0  0  0  0
   -1.4402    4.4984   -0.2099 H   0  0  0  0  0  0  0  0  0  0  0  0
   -1.2864    2.3153   -0.1819 C   0  0  0  0  0  0  0  0  0  0  0  0
    0.1969    2.1864   -0.1857 C   0  0  0  0  0  0  0  0  0  0  0  0
    1.0688    3.3219   -0.1165 C   0  0  0  0  0  0  0  0  0  0  0  0
    0.6568    4.3398   -0.0941 H   0  0  0  0  0  0  0  0  0  0  0  0
    2.4321    3.1237   -0.0667 C   0  0  0  0  0  0  0  0  0  0  0  0
    3.1458    3.9583   -0.0088 H   0  0  0  0  0  0  0  0  0  0  0  0
    6.1658    0.1208    0.0659 C   0  0  0  0  0  0  0  0  0  0  0  0
    6.8086    1.0110    0.1203 H   0  0  0  0  0  0  0  0  0  0  0  0
    6.6813   -1.1613    0.0684 C   0  0  0  0  0  0  0  0  0  0  0  0
    7.7700   -1.3136    0.1264 H   0  0  0  0  0  0  0  0  0  0  0  0
    5.8199   -2.3005   -0.0036 C   0  0  0  0  0  0  0  0  0  0  0  0
    6.2570   -3.3103   -0.0009 H   0  0  0  0  0  0  0  0  0  0  0  0
    4.4505   -2.1383   -0.0761 C   0  0  0  0  0  0  0  0  0  0  0  0
    3.7743   -3.0047   -0.1335 H   0  0  0  0  0  0  0  0  0  0  0  0
    2.4892   -0.6177   -0.1546 C   0  0  0  0  0  0  0  0  0  0  0  0
    1.7790   -1.4577   -0.2306 H   0  0  0  0  0  0  0  0  0  0  0  0
    2.9624    1.7932   -0.0764 C   0  0  0  0  0  0  0  0  0  0  0  0
    2.0051    0.7052   -0.1569 C   0  0  2  0  0  3  0  0  0  0  0  0
    4.7518    0.3368   -0.0085 C   0  0  0  0  0  0  0  0  0  0  0  0
    3.8755   -0.8263   -0.0800 C   0  0  0  0  0  0  0  0  0  0  0  0
  1  5  1  0  0  0  0
  2 14  1  0  0  0  0
  3 22  1  0  0  0  0
  5  7  1  0  0  0  0
  6  5  1  0  0  0  0
  7  8  1  0  0  0  0
  9  7  2  0  0  0  0
  9 10  1  0  0  0  0
 11  9  1  0  0  0  0
 12 11  1  0  0  0  0
 13  1  1  0  0  0  0
 13 11  2  0  0  0  0
 14 15  1  0  0  0  0
 14 13  1  1  0  0  0
 15 16  1  0  0  0  0
 17 18  1  0  0  0  0
 17 15  2  0  0  0  0
 19 17  1  0  0  0  0
 20 19  1  0  0  0  0
 21 19  2  0  0  0  0
 21  2  1  0  0  0  0
 22 21  1  0  0  0  0
 22 23  2  0  0  0  0
 23 24  1  0  0  0  0
 23 25  1  0  0  0  0
 25 26  1  0  0  0  0
 27 29  2  0  0  0  0
 27 28  1  0  0  0  0
 29 30  1  0  0  0  0
 31 32  1  0  0  0  0
 31 29  1  0  0  0  0
 33 31  2  0  0  0  0
 34 33  1  0  0  0  0
 35 40  2  0  0  0  0
 36 35  1  0  0  0  0
 37 25  2  0  0  0  0
 37  4  1  0  0  0  0
 38  3  1  1  0  0  0
 38 35  1  0  0  0  0
 38 37  1  0  0  0  0
 39  4  2  0  0  0  0
 39 27  1  0  0  0  0
 40 33  1  0  0  0  0
 40 39  1  0  0  0  0
M  END
