1,2,4
q = 0.0, confidence = 0.998

 55 59  0  0  0  0  0  0  0  0999 V2000
   -1.4257    1.9449   -0.4532 N   0  0  0  0  0  2  0  0  0  0  0  0
    2.4775   -0.1988    0.5836 N   0  0  0  0  0  2  0  0  0  0  0  0
   -1.8440   -1.1316    0.6013 N   0  0  0  0  0  0  0  0  0  0  0  0
    0.1002    0.4094    2.0785 N   0  0  0  0  0  0  0  0  0  0  0  0
   -2.1254    1.9549   -1.6026 C   0  0  0  0  0  3  0  0  0  0  0  0
   -1.7275    1.3221   -2.4125 H   0  0  0  0  0  0  0  0  0  0  0  0
   -3.2856    2.7194   -1.7722 C   0  0  0  0  0  0  0  0  0  0  0  0
   -3.8227    2.7012   -2.7309 H   0  0  0  0  0  0  0  0  0  0  0  0
   -3.7309    3.4941   -0.6931 C   0  0  0  0  0  0  0  0  0  0  0  0
   -4.6421    4.1057   -0.7784 H   0  0  0  0  0  0  0  0  0  0  0  0
   -2.9939    3.4860    0.4979 C   0  0  0  0  0  0  0  0  0  0  0  0
   -3.3106    4.0923    1.3593 H   0  0  0  0  0  0  0  0  0  0  0  0
   -1.8257    2.7039    0.5927 C   0  0  0  0  0  0  0  0  0  0  0  0
   -0.9805    2.7107    1.8437 C   0  0  0  0  0  0  0  0  0  0  0  0
   -1.4019    3.4604    2.5412 H   0  0  0  0  0  0  0  0  0  0  0  0
    0.0367    3.0579    1.5594 H   0  0  0  0  0  0  0  0  0  0  0  0
   -0.9055    1.3662    2.5904 C   0  0  0  0  0  0  0  0  0  0  0  0
   -0.7069    1.5606    3.6725 H   0  0  0  0  0  0  0  0  0  0  0  0
   -1.8951    0.8717    2.5422 H   0  0  0  0  0  0  0  0  0  0  0  0
    1.4414    0.7486    2.5718 C   0  0  0  0  0  0  0  0  0  0  0  0
    1.5052    0.6005    3.6774 H   0  0  0  0  0  0  0  0  0  0  0  0
    1.6189    1.8249    2.3619 H   0  0  0  0  0  0  0  0  0  0  0  0
    2.5644   -0.0115    1.8952 C   0  0  0  0  0  0  0  0  0  0  0  0
    3.6973   -0.4387    2.6422 C   0  0  0  0  0  0  0  0  0  0  0  0
    3.7240   -0.2764    3.7297 H   0  0  0  0  0  0  0  0  0  0  0  0
    4.7465   -1.0549    1.9811 C   0  0  0  0  0  0  0  0  0  0  0  0
    5.6346   -1.4007    2.5331 H   0  0  0  0  0  0  0  0  0  0  0  0
    4.6839   -1.2468    0.5739 C   0  0  0  0  0  0  0  0  0  0  0  0
    5.7274   -1.8578   -0.1790 C   0  0  0  0  0  3  0  0  0  0  0  0
    6.6288   -2.2074    0.3476 H   0  0  0  0  0  0  0  0  0  0  0  0
    5.6047   -2.0001   -1.5523 C   0  0  0  0  0  0  0  0  0  0  0  0
    6.4133   -2.4700   -2.1319 H   0  0  0  0  0  0  0  0  0  0  0  0
    4.4397   -1.5345   -2.2218 C   0  0  0  0  0  0  0  0  0  0  0  0
    4.3609   -1.6441   -3.3136 H   0  0  0  0  0  0  0  0  0  0  0  0
    3.4014   -0.9421   -1.5201 C   0  0  0  0  0  0  0  0  0  0  0  0
    2.5077   -0.5652   -2.0358 H   0  0  0  0  0  0  0  0  0  0  0  0
    3.4987   -0.7896   -0.1079 C   0  0  0  0  0  0  0  0  0  0  0  0
   -0.2519   -0.9777    2.4309 C   0  0  0  0  0  0  0  0  0  0  0  0
   -0.2439   -1.1190    3.5392 H   0  0  0  0  0  0  0  0  0  0  0  0
    0.5274   -1.6450    2.0041 H   0  0  0  0  0  0  0  0  0  0  0  0
   -1.5980   -1.4018    1.8773 C   0  0  0  0  0  0  0  0  0  0  0  0
   -2.5351   -2.0651    2.7222 C   0  0  0  0  0  0  0  0  0  0  0  0
   -2.2782   -2.2616    3.7737 H   0  0  0  0  0  0  0  0  0  0  0  0
   -3.7646   -2.4337    2.2041 C   0  0  0  0  0  0  0  0  0  0  0  0
   -4.5185   -2.9321    2.8337 H   0  0  0  0  0  0  0  0  0  0  0  0
   -4.0600   -2.1651    0.8402 C   0  0  0  0  0  0  0  0  0  0  0  0
   -5.2974   -2.5163    0.2284 C   0  0  0  0  0  0  0  0  0  0  0  0
   -6.0720   -3.0065    0.8388 H   0  0  0  0  0  0  0  0  0  0  0  0
   -5.5115   -2.2543   -1.1160 C   0  0  0  0  0  0  0  0  0  0  0  0
   -6.4669   -2.5320   -1.5864 H   0  0  0  0  0  0  0  0  0  0  0  0
   -4.4908   -1.6482   -1.8981 C   0  0  0  0  0  0  0  0  0  0  0  0
   -4.6604   -1.4790   -2.9723 H   0  0  0  0  0  0  0  0  0  0  0  0
   -3.2773   -1.2854   -1.3338 C   0  0  0  0  0  0  0  0  0  0  0  0
   -2.4603   -0.8648   -1.9375 H   0  0  0  0  0  0  0  0  0  0  0  0
   -3.0367   -1.5165    0.0528 C   0  0  0  0  0  0  0  0  0  0  0  0
  1 13  1  0  0  0  0
  2 23  1  0  0  0  0
  3 41  1  0  0  0  0
  4 38  1  0  0  0  0
  4 20  1  0  0  0  0
  4 17  1  0  0  0  0
  5  1  1  0  0  0  0
  6  5  1  0  0  0  0
  7  5  1  0  0  0  0
  7  9  2  0  0  0  0
  8  7  1  0  0  0  0
  9 11  1  0  0  0  0
 10  9  1  0  0  0  0
 11 13  2  0  0  0  0
 11 12  1  0  0  0  0
 13 14  1  0  0  0  0
 14 15  1  0  0  0  0
 14 17  1  0  0  0  0
 16 14  1  0  0  0  0
 17 18  1  0  0  0  0
 19 17  1  0  0  0  0
 20 21  1  0  0  0  0
 22 20  1  0  0  0  0
 23 20  1  0  0  0  0
 23 24  2  0  0  0  0
 24 25  1  0  0  0  0
 26 27  1  0  0  0  0
 26 24  1  0  0  0  0
 28 26  2  0  0  0  0
 29 30  1  0  0  0  0
 29 28  1  0  0  0  0
 31 29  1  0  0  0  0
 32 31  1  0  0  0  0
 33 31  2  0  0  0  0
 33 35  1  0  0  0  0
 34 33  1  0  0  0  0
 35 37  2  0  0  0  0
 36 35  1  0  0  0  0
 37 28  1  0  0  0  0
 37  2  1  0  0  0  0
 38 39  1  0  0  0  0
 40 38  1  0  0  0  0
 41 38  1  0  0  0  0
 41 42  2  0  0  0  0
 42 43  1  0  0  0  0
 44 42  1  0  0  0  0
 44 45  1  0  0  0  0
 46 44  2  0  0  0  0
 47 48  1  0  0  0  0
 47 46  1  0  0  0  0
 49 47  2  0  0  0  0
 50 49  1  0  0  0  0
 51 53  2  0  0  0  0
 51 49  1  0  0  0  0
 52 51  1  0  0  0  0
 53 55  1  0  0  0  0
 54 53  1  0  0  0  0
 55  3  2  0  0  0  0
 55 46  1  0  0  0  0
M  END
