1,8,15
q = 0.0, confidence = 1.0

 51 51  0  0  0  0  0  0  0  0999 V2000
    0.3839    1.5387   -0.9499 N   0  0  0  0  0  0  0  0  0  0  0  0
    1.1357    0.8908   -2.0689 C   0  0  0  0  0  0  0  0  0  0  0  0
    0.4160    0.6315   -2.8685 H   0  0  0  0  0  0  0  0  0  0  0  0
    1.8386    1.6153   -2.5304 H   0  0  0  0  0  0  0  0  0  0  0  0
    1.9237   -0.3560   -1.6414 C   0  0  0  0  0  0  0  0  0  0  0  0
    2.7886   -0.0461   -1.0326 H   0  0  0  0  0  0  0  0  0  0  0  0
    2.3265   -0.8627   -2.5480 H   0  0  0  0  0  0  0  0  0  0  0  0
    1.1184   -1.2981   -0.8183 N   0  0  0  0  0  0  0  0  0  0  0  0
    0.0254   -1.9125   -1.6316 C   0  0  0  0  0  0  0  0  0  0  0  0
   -0.0017   -1.4111   -2.6180 H   0  0  0  0  0  0  0  0  0  0  0  0
    0.2570   -2.9755   -1.8497 H   0  0  0  0  0  0  0  0  0  0  0  0
   -1.3568   -1.8308   -0.9716 C   0  0  0  0  0  0  0  0  0  0  0  0
   -1.4013   -2.5113   -0.0990 H   0  0  0  0  0  0  0  0  0  0  0  0
   -2.1161   -2.1875   -1.7022 H   0  0  0  0  0  0  0  0  0  0  0  0
   -1.6780   -0.4715   -0.4656 N   0  0  0  0  0  0  0  0  0  0  0  0
   -1.8456    0.5224   -1.5635 C   0  0  0  0  0  0  0  0  0  0  0  0
   -2.9114    0.8076   -1.6766 H   0  0  0  0  0  0  0  0  0  0  0  0
   -1.5705    0.0417   -2.5222 H   0  0  0  0  0  0  0  0  0  0  0  0
   -1.0270    1.8037   -1.3441 C   0  0  0  0  0  0  0  0  0  0  0  0
   -1.4901    2.3846   -0.5298 H   0  0  0  0  0  0  0  0  0  0  0  0
   -1.0721    2.4321   -2.2627 H   0  0  0  0  0  0  0  0  0  0  0  0
    1.0846    2.7755   -0.4199 C   0  0  0  0  0  0  0  0  0  0  0  0
    1.1562    3.4893   -1.2751 H   0  0  0  0  0  0  0  0  0  0  0  0
    2.4961    2.4309    0.0605 C   0  0  0  0  0  0  0  0  0  0  0  0
    2.9809    3.3464    0.4489 H   0  0  0  0  0  0  0  0  0  0  0  0
    3.1529    2.0409   -0.7399 H   0  0  0  0  0  0  0  0  0  0  0  0
    2.4583    1.6991    0.8952 H   0  0  0  0  0  0  0  0  0  0  0  0
    0.3062    3.4362    0.7203 C   0  0  0  0  0  0  0  0  0  0  0  0
    0.9090    4.2731    1.1214 H   0  0  0  0  0  0  0  0  0  0  0  0
    0.1417    2.7215    1.5539 H   0  0  0  0  0  0  0  0  0  0  0  0
   -0.6629    3.8694    0.4101 H   0  0  0  0  0  0  0  0  0  0  0  0
    1.9715   -2.3379   -0.1158 C   0  0  0  0  0  0  0  0  0  0  0  0
    2.4406   -2.9551   -0.9191 H   0  0  0  0  0  0  0  0  0  0  0  0
    3.0734   -1.7002    0.7336 C   0  0  0  0  0  0  0  0  0  0  0  0
    3.8398   -1.1620    0.1449 H   0  0  0  0  0  0  0  0  0  0  0  0
    3.6058   -2.5009    1.2812 H   0  0  0  0  0  0  0  0  0  0  0  0
    2.6408   -1.0159    1.4932 H   0  0  0  0  0  0  0  0  0  0  0  0
    1.1056   -3.2431    0.7640 C   0  0  0  0  0  0  0  0  0  0  0  0
    0.3519   -3.8205    0.1958 H   0  0  0  0  0  0  0  0  0  0  0  0
    0.5986   -2.6537    1.5571 H   0  0  0  0  0  0  0  0  0  0  0  0
    1.7547   -3.9833    1.2689 H   0  0  0  0  0  0  0  0  0  0  0  0
   -2.8162   -0.5039    0.5350 C   0  0  0  0  0  0  0  0  0  0  0  0
   -2.4488   -1.1916    1.3276 H   0  0  0  0  0  0  0  0  0  0  0  0
   -3.0273    0.8630    1.1829 C   0  0  0  0  0  0  0  0  0  0  0  0
   -2.0941    1.2504    1.6382 H   0  0  0  0  0  0  0  0  0  0  0  0
   -3.7657    0.7638    2.0014 H   0  0  0  0  0  0  0  0  0  0  0  0
   -3.4360    1.6095    0.4719 H   0  0  0  0  0  0  0  0  0  0  0  0
   -4.1158   -1.0659   -0.0463 C   0  0  0  0  0  0  0  0  0  0  0  0
   -4.8856   -1.1028    0.7484 H   0  0  0  0  0  0  0  0  0  0  0  0
   -4.0031   -2.0956   -0.4366 H   0  0  0  0  0  0  0  0  0  0  0  0
   -4.5212   -0.4266   -0.8576 H   0  0  0  0  0  0  0  0  0  0  0  0
  1 22  1  0  0  0  0
  2  5  1  0  0  0  0
  2  1  1  0  0  0  0
  3  2  1  0  0  0  0
  4  2  1  0  0  0  0
  5  6  1  0  0  0  0
  5  8  1  0  0  0  0
  7  5  1  0  0  0  0
  8 32  1  0  0  0  0
  9 12  1  0  0  0  0
  9  8  1  0  0  0  0
 10  9  1  0  0  0  0
 11  9  1  0  0  0  0
 12 15  1  0  0  0  0
 12 13  1  0  0  0  0
 14 12  1  0  0  0  0
 15 42  1  0  0  0  0
 16 19  1  0  0  0  0
 16 15  1  0  0  0  0
 17 16  1  0  0  0  0
 18 16  1  0  0  0  0
 19  1  1  0  0  0  0
 19 20  1  0  0  0  0
 21 19  1  0  0  0  0
 22 24  1  0  0  0  0
 22 28  1  0  0  0  0
 23 22  1  0  0  0  0
 24 25  1  0  0  0  0
 24 27  1  0  0  0  0
 26 24  1  0  0  0  0
 28 29  1  0  0  0  0
 28 30  1  0  0  0  0
 31 28  1  0  0  0  0
 32 34  1  0  0  0  0
 32 38  1  0  0  0  0
 33 32  1  0  0  0  0
 34 36  1  0  0  0  0
 34 37  1  0  0  0  0
 35 34  1  0  0  0  0
 38 41  1  0  0  0  0
 38 40  1  0  0  0  0
 39 38  1  0  0  0  0
 42 44  1  0  0  0  0
 42 43  1  0  0  0  0
 44 45  1  0  0  0  0
 44 46  1  0  0  0  0
 47 44  1  0  0  0  0
 48 42  1  0  0  0  0
 48 49  1  0  0  0  0
 50 48  1  0  0  0  0
 51 48  1  0  0  0  0
M  END
