1,2,3
q = 0.0, confidence = 0.998

 63 69  0  0  1  0  0  0  0  0999 V2000
    0.0546    2.1857   -0.2608 N   0  0  0  0  0  2  0  0  0  0  0  0
    2.0772    0.6164    0.2916 N   0  0  0  0  0  2  0  0  0  0  0  0
   -2.0225    0.6086   -0.1701 N   0  0  0  0  0  2  0  0  0  0  0  0
   -1.1304    2.8404   -0.3594 C   0  0  0  0  0  0  0  0  0  0  0  0
   -1.1391    4.2396   -0.4866 C   0  0  0  0  0  0  0  0  0  0  0  0
   -2.0888    4.7825   -0.5756 H   0  0  0  0  0  0  0  0  0  0  0  0
    0.0794    4.9318   -0.4715 C   0  0  0  0  0  0  0  0  0  0  0  0
    0.0897    6.0274   -0.5617 H   0  0  0  0  0  0  0  0  0  0  0  0
    1.2823    4.2310   -0.3103 C   0  0  0  0  0  0  0  0  0  0  0  0
    2.2384    4.7670   -0.2521 H   0  0  0  0  0  0  0  0  0  0  0  0
    1.2443    2.8315   -0.1890 C   0  0  0  0  0  0  0  0  0  0  0  0
    2.3841    1.9350    0.0243 C   0  0  2  0  0  3  0  0  0  0  0  0
    3.7072    2.3735   -0.1031 C   0  0  0  0  0  0  0  0  0  0  0  0
    3.9124    3.4318   -0.3106 H   0  0  0  0  0  0  0  0  0  0  0  0
    4.7497    1.4480   -0.0152 C   0  0  0  0  0  0  0  0  0  0  0  0
    5.7968    1.7650   -0.1342 H   0  0  0  0  0  0  0  0  0  0  0  0
    4.4417    0.1016    0.1856 C   0  0  0  0  0  0  0  0  0  0  0  0
    3.0793   -0.2908    0.3469 C   0  0  0  0  0  0  0  0  0  0  0  0
   -2.2958    1.9516   -0.3307 C   0  0  0  0  0  0  0  0  0  0  0  0
   -3.6025    2.4167   -0.5196 C   0  0  0  0  0  0  0  0  0  0  0  0
   -3.7895    3.4935   -0.6215 H   0  0  0  0  0  0  0  0  0  0  0  0
   -4.6533    1.4985   -0.5983 C   0  0  0  0  0  0  0  0  0  0  0  0
   -5.6906    1.8404   -0.7334 H   0  0  0  0  0  0  0  0  0  0  0  0
   -4.3638    0.1336   -0.5550 C   0  0  0  0  0  0  0  0  0  0  0  0
   -3.0158   -0.2906   -0.3527 C   0  0  0  0  0  0  0  0  0  0  0  0
    5.4653   -0.9966    0.2081 C   0  0  1  0  0  0  0  0  0  0  0  0
    6.4948   -0.6032    0.0848 H   0  0  0  0  0  0  0  0  0  0  0  0
    5.1380   -1.9377    1.4042 C   0  0  0  0  0  0  0  0  0  0  0  0
    5.9794   -2.6087    1.6539 H   0  0  0  0  0  0  0  0  0  0  0  0
    4.7660   -1.4589    2.3323 H   0  0  0  0  0  0  0  0  0  0  0  0
    4.0879   -2.5862    0.4656 C   0  0  1  0  0  0  0  0  0  0  0  0
    3.8616   -3.6650    0.5858 H   0  0  0  0  0  0  0  0  0  0  0  0
    2.8009   -1.7571    0.5157 C   0  0  0  0  0  0  0  0  0  0  0  0
    2.0612   -2.0572   -0.2574 H   0  0  0  0  0  0  0  0  0  0  0  0
    2.2591   -1.9138    1.4707 H   0  0  0  0  0  0  0  0  0  0  0  0
    4.9929   -2.1675   -0.7492 C   0  0  0  0  0  0  0  0  0  0  0  0
    4.3231   -1.8091   -2.0753 C   0  0  0  0  0  0  0  0  0  0  0  0
    5.0490   -1.3157   -2.7552 H   0  0  0  0  0  0  0  0  0  0  0  0
    3.4433   -1.1447   -1.9763 H   0  0  0  0  0  0  0  0  0  0  0  0
    3.9692   -2.7315   -2.5805 H   0  0  0  0  0  0  0  0  0  0  0  0
    6.1257   -3.1657   -1.0122 C   0  0  0  0  0  0  0  0  0  0  0  0
    6.6737   -3.4580   -0.0958 H   0  0  0  0  0  0  0  0  0  0  0  0
    6.8626   -2.7398   -1.7245 H   0  0  0  0  0  0  0  0  0  0  0  0
    5.7179   -4.0918   -1.4675 H   0  0  0  0  0  0  0  0  0  0  0  0
   -2.7432   -1.7661   -0.3802 C   0  0  0  0  0  0  0  0  0  0  0  0
   -2.2396   -2.0582    0.5649 H   0  0  0  0  0  0  0  0  0  0  0  0
   -1.9656   -1.9491   -1.1552 H   0  0  0  0  0  0  0  0  0  0  0  0
   -4.0212   -2.5685   -0.6367 C   0  0  2  0  0  0  0  0  0  0  0  0
   -3.8014   -3.6547   -0.6703 H   0  0  0  0  0  0  0  0  0  0  0  0
   -4.8114   -1.9349   -1.8110 C   0  0  0  0  0  0  0  0  0  0  0  0
   -5.5870   -2.6013   -2.2295 H   0  0  0  0  0  0  0  0  0  0  0  0
   -4.2256   -1.4909   -2.6409 H   0  0  0  0  0  0  0  0  0  0  0  0
   -5.3868   -0.9502   -0.7475 C   0  0  1  0  0  0  0  0  0  0  0  0
   -6.4071   -0.5358   -0.8790 H   0  0  0  0  0  0  0  0  0  0  0  0
   -5.1758   -2.0962    0.3216 C   0  0  0  0  0  0  0  0  0  0  0  0
   -6.3568   -3.0729    0.3419 C   0  0  0  0  0  0  0  0  0  0  0  0
   -6.6702   -3.4018   -0.6676 H   0  0  0  0  0  0  0  0  0  0  0  0
   -7.2372   -2.6108    0.8348 H   0  0  0  0  0  0  0  0  0  0  0  0
   -6.0885   -3.9809    0.9205 H   0  0  0  0  0  0  0  0  0  0  0  0
   -4.8272   -1.7051    1.7567 C   0  0  0  0  0  0  0  0  0  0  0  0
   -3.9892   -0.9873    1.8360 H   0  0  0  0  0  0  0  0  0  0  0  0
   -4.5392   -2.6056    2.3372 H   0  0  0  0  0  0  0  0  0  0  0  0
   -5.7066   -1.2507    2.2591 H   0  0  0  0  0  0  0  0  0  0  0  0
  1 11  1  0  0  0  0
  2 18  1  0  0  0  0
  4 19  2  0  0  0  0
  4  1  1  0  0  0  0
  5  7  2  0  0  0  0
  5  4  1  0  0  0  0
  6  5  1  0  0  0  0
  7  9  1  0  0  0  0
  8  7  1  0  0  0  0
  9 10  1  0  0  0  0
  9 11  2  0  0  0  0
 12 11  1  6  0  0  0
 12  2  1  0  0  0  0
 13 15  2  0  0  0  0
 13 12  1  0  0  0  0
 14 13  1  0  0  0  0
 15 17  1  0  0  0  0
 16 15  1  0  0  0  0
 17 26  1  0  0  0  0
 17 18  2  0  0  0  0
 18 33  1  0  0  0  0
 19  3  1  0  0  0  0
 20 19  1  0  0  0  0
 21 20  1  0  0  0  0
 22 24  1  0  0  0  0
 22 20  2  0  0  0  0
 23 22  1  0  0  0  0
 24 25  2  0  0  0  0
 25  3  1  0  0  0  0
 26 27  1  6  0  0  0
 26 28  1  0  0  0  0
 28 29  1  0  0  0  0
 28 30  1  0  0  0  0
 31 33  1  0  0  0  0
 31 32  1  1  0  0  0
 31 28  1  0  0  0  0
 33 35  1  0  0  0  0
 34 33  1  0  0  0  0
 36 26  1  0  0  0  0
 36 31  1  0  0  0  0
 37 39  1  0  0  0  0
 37 36  1  0  0  0  0
 38 37  1  0  0  0  0
 40 37  1  0  0  0  0
 41 36  1  0  0  0  0
 41 42  1  0  0  0  0
 43 41  1  0  0  0  0
 44 41  1  0  0  0  0
 45 25  1  0  0  0  0
 45 46  1  0  0  0  0
 47 45  1  0  0  0  0
 48 49  1  6  0  0  0
 48 45  1  0  0  0  0
 48 55  1  0  0  0  0
 50 53  1  0  0  0  0
 50 48  1  0  0  0  0
 51 50  1  0  0  0  0
 52 50  1  0  0  0  0
 53 54  1  6  0  0  0
 53 24  1  0  0  0  0
 53 55  1  0  0  0  0
 55 56  1  0  0  0  0
 55 60  1  0  0  0  0
 56 58  1  0  0  0  0
 56 59  1  0  0  0  0
 57 56  1  0  0  0  0
 60 61  1  0  0  0  0
 60 63  1  0  0  0  0
 60 62  1  0  0  0  0
M  END
