3,4,5
q = 0.0, confidence = 0.996

 43 45  0  0  1  0  0  0  0  0999 V2000
    5.0561   -1.0657   -0.0010 S   0  0  0  0  0  0  0  0  0  0  0  0
   -5.0816   -1.0707    0.6444 S   0  0  0  0  0  0  0  0  0  0  0  0
    2.0804    0.2031    0.3597 N   0  0  0  0  0  0  0  0  0  0  0  0
   -2.1087    0.0347   -0.0956 N   0  0  0  0  0  0  0  0  0  0  0  0
   -0.0522    1.7628   -0.1141 N   0  0  0  0  0  2  0  0  0  0  0  0
    4.1883    0.1238   -1.0783 C   0  0  0  0  0  0  0  0  0  0  0  0
    4.5284    1.1594   -0.8585 H   0  0  0  0  0  0  0  0  0  0  0  0
    4.5119   -0.1015   -2.1138 H   0  0  0  0  0  0  0  0  0  0  0  0
    2.6692   -0.0179   -1.0085 C   0  0  0  0  0  0  0  0  0  0  0  0
    2.1805    0.7077   -1.6915 H   0  0  0  0  0  0  0  0  0  0  0  0
    2.3576   -1.0299   -1.3312 H   0  0  0  0  0  0  0  0  0  0  0  0
    4.1872   -0.6043    1.5362 C   0  0  0  0  0  0  0  0  0  0  0  0
    4.5202   -1.3258    2.3085 H   0  0  0  0  0  0  0  0  0  0  0  0
    4.5089    0.4034    1.8779 H   0  0  0  0  0  0  0  0  0  0  0  0
    2.6716   -0.7102    1.3906 C   0  0  0  0  0  0  0  0  0  0  0  0
    2.3841   -1.7394    1.1029 H   0  0  0  0  0  0  0  0  0  0  0  0
    2.1632   -0.4824    2.3501 H   0  0  0  0  0  0  0  0  0  0  0  0
    2.1733    1.6490    0.7697 C   0  0  0  0  0  0  0  0  0  0  0  0
    3.1685    2.0760    0.5309 H   0  0  0  0  0  0  0  0  0  0  0  0
    2.0662    1.6863    1.8750 H   0  0  0  0  0  0  0  0  0  0  0  0
    1.0644    2.4753    0.1630 C   0  0  2  0  0  3  0  0  0  0  0  0
    1.0609    3.8581   -0.0579 C   0  0  0  0  0  0  0  0  0  0  0  0
    1.9595    4.4573    0.1466 H   0  0  0  0  0  0  0  0  0  0  0  0
   -0.1178    4.4610   -0.5317 C   0  0  0  0  0  0  0  0  0  0  0  0
   -0.1445    5.5478   -0.6987 H   0  0  0  0  0  0  0  0  0  0  0  0
   -1.2621    3.6875   -0.7966 C   0  0  0  0  0  0  0  0  0  0  0  0
   -2.1850    4.1529   -1.1707 H   0  0  0  0  0  0  0  0  0  0  0  0
   -1.1971    2.3040   -0.5919 C   0  0  0  0  0  0  0  0  0  0  0  0
   -2.2525    1.2782   -0.9319 C   0  0  0  0  0  0  0  0  0  0  0  0
   -2.1084    0.9741   -1.9909 H   0  0  0  0  0  0  0  0  0  0  0  0
   -3.2715    1.7084   -0.8565 H   0  0  0  0  0  0  0  0  0  0  0  0
   -2.6818    0.2220    1.2818 C   0  0  0  0  0  0  0  0  0  0  0  0
   -2.1915    1.1133    1.7251 H   0  0  0  0  0  0  0  0  0  0  0  0
   -2.3790   -0.6652    1.8718 H   0  0  0  0  0  0  0  0  0  0  0  0
   -4.2025    0.3780    1.3211 C   0  0  0  0  0  0  0  0  0  0  0  0
   -4.5408    1.3086    0.8159 H   0  0  0  0  0  0  0  0  0  0  0  0
   -4.5185    0.4631    2.3798 H   0  0  0  0  0  0  0  0  0  0  0  0
   -2.6883   -1.1686   -0.7754 C   0  0  0  0  0  0  0  0  0  0  0  0
   -2.4177   -2.0371   -0.1439 H   0  0  0  0  0  0  0  0  0  0  0  0
   -2.1641   -1.2771   -1.7463 H   0  0  0  0  0  0  0  0  0  0  0  0
   -4.2028   -1.1206   -0.9560 C   0  0  0  0  0  0  0  0  0  0  0  0
   -4.5290   -2.0547   -1.4549 H   0  0  0  0  0  0  0  0  0  0  0  0
   -4.5259   -0.2806   -1.6078 H   0  0  0  0  0  0  0  0  0  0  0  0
  1 12  1  0  0  0  0
  2 35  1  0  0  0  0
  3 18  1  0  0  0  0
  3 15  1  0  0  0  0
  4 32  1  0  0  0  0
  5 21  1  0  0  0  0
  6  9  1  0  0  0  0
  6  7  1  0  0  0  0
  6  1  1  0  0  0  0
  8  6  1  0  0  0  0
  9  3  1  0  0  0  0
 10  9  1  0  0  0  0
 11  9  1  0  0  0  0
 12 14  1  0  0  0  0
 12 13  1  0  0  0  0
 15 12  1  0  0  0  0
 15 17  1  0  0  0  0
 16 15  1  0  0  0  0
 18 20  1  0  0  0  0
 19 18  1  0  0  0  0
 21 18  1  1  0  0  0
 22 23  1  0  0  0  0
 22 21  1  0  0  0  0
 24 22  2  0  0  0  0
 25 24  1  0  0  0  0
 26 28  2  0  0  0  0
 26 24  1  0  0  0  0
 27 26  1  0  0  0  0
 28  5  1  0  0  0  0
 29 31  1  0  0  0  0
 29 28  1  0  0  0  0
 29  4  1  0  0  0  0
 30 29  1  0  0  0  0
 32 35  1  0  0  0  0
 32 33  1  0  0  0  0
 32 34  1  0  0  0  0
 35 37  1  0  0  0  0
 36 35  1  0  0  0  0
 38 39  1  0  0  0  0
 38  4  1  0  0  0  0
 40 38  1  0  0  0  0
 41 38  1  0  0  0  0
 41  2  1  0  0  0  0
 42 41  1  0  0  0  0
 43 41  1  0  0  0  0
M  END
