1,2,3
q = 0.0, confidence = 0.992

 44 46  0  0  0  0  0  0  0  0999 V2000
    0.0736    0.9987    0.9978 N   0  0  0  0  0  0  0  0  0  0  0  0
   -1.9793   -1.1651   -0.3512 N   0  0  0  0  0  2  0  0  0  0  0  0
    1.7558   -1.4141   -0.2387 N   0  0  0  0  0  2  0  0  0  0  0  0
    0.2020    2.1626    0.1363 C   0  0  0  0  0  0  0  0  0  0  0  0
   -0.3861    3.4044    0.4433 C   0  0  0  0  0  0  0  0  0  0  0  0
   -0.2140    4.4959   -0.4233 C   0  0  0  0  0  0  0  0  0  0  0  0
    0.5533    4.3652   -1.5899 C   0  0  0  0  0  0  0  0  0  0  0  0
    1.1508    3.1308   -1.8916 C   0  0  0  0  0  0  0  0  0  0  0  0
    0.9723    2.0352   -1.0368 C   0  0  0  0  0  0  0  0  0  0  0  0
   -2.3890   -2.3117   -0.9534 C   0  0  0  0  0  3  0  0  0  0  0  0
   -3.7225   -2.7211   -0.9760 C   0  0  0  0  0  0  0  0  0  0  0  0
   -4.6771   -1.9183   -0.3353 C   0  0  0  0  0  0  0  0  0  0  0  0
   -4.2551   -0.7418    0.2935 C   0  0  0  0  0  0  0  0  0  0  0  0
   -2.8972   -0.3732    0.2705 C   0  0  0  0  0  0  0  0  0  0  0  0
   -2.4519    0.9290    0.8905 C   0  0  0  0  0  0  0  0  0  0  0  0
   -1.1880    0.9175    1.7651 C   0  0  0  0  0  0  0  0  0  0  0  0
    2.4070   -1.8933   -1.3281 C   0  0  0  0  0  3  0  0  0  0  0  0
    3.7670   -2.2074   -1.3132 C   0  0  0  0  0  0  0  0  0  0  0  0
    4.4861   -2.0221   -0.1227 C   0  0  0  0  0  0  0  0  0  0  0  0
    3.8150   -1.5239    1.0015 C   0  0  0  0  0  0  0  0  0  0  0  0
    2.4446   -1.2247    0.9244 C   0  0  0  0  0  0  0  0  0  0  0  0
    1.6847   -0.6463    2.0902 C   0  0  0  0  0  0  0  0  0  0  0  0
    1.2571    0.8242    1.8823 C   0  0  0  0  0  0  0  0  0  0  0  0
   -0.9785    3.5348    1.3600 H   0  0  0  0  0  0  0  0  0  0  0  0
   -0.6815    5.4607   -0.1760 H   0  0  0  0  0  0  0  0  0  0  0  0
    0.6855    5.2239   -2.2641 H   0  0  0  0  0  0  0  0  0  0  0  0
    1.7543    3.0166   -2.8043 H   0  0  0  0  0  0  0  0  0  0  0  0
    1.4364    1.0638   -1.2695 H   0  0  0  0  0  0  0  0  0  0  0  0
   -1.6034   -2.9149   -1.4319 H   0  0  0  0  0  0  0  0  0  0  0  0
   -4.0004   -3.6550   -1.4842 H   0  0  0  0  0  0  0  0  0  0  0  0
   -5.7386   -2.2071   -0.3225 H   0  0  0  0  0  0  0  0  0  0  0  0
   -4.9782   -0.0917    0.8068 H   0  0  0  0  0  0  0  0  0  0  0  0
   -3.2889    1.3133    1.5043 H   0  0  0  0  0  0  0  0  0  0  0  0
   -2.3174    1.6775    0.0781 H   0  0  0  0  0  0  0  0  0  0  0  0
   -1.1514   -0.0140    2.3681 H   0  0  0  0  0  0  0  0  0  0  0  0
   -1.2506    1.7510    2.5033 H   0  0  0  0  0  0  0  0  0  0  0  0
    1.8010   -2.0334   -2.2361 H   0  0  0  0  0  0  0  0  0  0  0  0
    4.2479   -2.5999   -2.2201 H   0  0  0  0  0  0  0  0  0  0  0  0
    5.5575   -2.2653   -0.0698 H   0  0  0  0  0  0  0  0  0  0  0  0
    4.3486   -1.3659    1.9499 H   0  0  0  0  0  0  0  0  0  0  0  0
    0.7905   -1.2721    2.3061 H   0  0  0  0  0  0  0  0  0  0  0  0
    2.3228   -0.6940    2.9940 H   0  0  0  0  0  0  0  0  0  0  0  0
    2.0993    1.3890    1.4400 H   0  0  0  0  0  0  0  0  0  0  0  0
    1.0505    1.2900    2.8729 H   0  0  0  0  0  0  0  0  0  0  0  0
  1 16  1  0  0  0  0
  1 23  1  0  0  0  0
  2 14  1  0  0  0  0
  3 21  1  0  0  0  0
  4  5  1  0  0  0  0
  4  1  1  0  0  0  0
  5 24  1  0  0  0  0
  6 25  1  0  0  0  0
  6  5  2  0  0  0  0
  7  6  1  0  0  0  0
  8  7  2  0  0  0  0
  8  9  1  0  0  0  0
  9  4  2  0  0  0  0
 10  2  1  0  0  0  0
 11 10  1  0  0  0  0
 11 12  2  0  0  0  0
 12 31  1  0  0  0  0
 12 13  1  0  0  0  0
 13 32  1  0  0  0  0
 14 13  2  0  0  0  0
 14 15  1  0  0  0  0
 15 33  1  0  0  0  0
 15 16  1  0  0  0  0
 16 35  1  0  0  0  0
 16 36  1  0  0  0  0
 17 18  1  0  0  0  0
 17  3  1  0  0  0  0
 18 19  2  0  0  0  0
 19 39  1  0  0  0  0
 19 20  1  0  0  0  0
 20 40  1  0  0  0  0
 21 20  2  0  0  0  0
 21 22  1  0  0  0  0
 22 41  1  0  0  0  0
 22 42  1  0  0  0  0
 23 22  1  0  0  0  0
 23 44  1  0  0  0  0
 26  7  1  0  0  0  0
 27  8  1  0  0  0  0
 28  9  1  0  0  0  0
 29 10  1  0  0  0  0
 30 11  1  0  0  0  0
 34 15  1  0  0  0  0
 37 17  1  0  0  0  0
 38 18  1  0  0  0  0
 43 23  1  0  0  0  0
M  END
