1,2,3
q = 0.0, confidence = 0.996

 39 42  0  0  0  0  0  0  0  0999 V2000
    1.4721    2.0090   -0.0435 N   0  0  0  0  0  2  0  0  0  0  0  0
   -0.1588   -0.0000   -0.0000 N   0  0  0  0  0  2  0  0  0  0  0  0
    1.4721   -2.0090    0.0435 N   0  0  0  0  0  2  0  0  0  0  0  0
    2.4173    2.9718   -0.0676 C   0  0  0  0  0  3  0  0  0  0  0  0
    3.4569    2.6075   -0.0601 H   0  0  0  0  0  0  0  0  0  0  0  0
    2.0764    4.3289   -0.0997 C   0  0  0  0  0  0  0  0  0  0  0  0
    2.8745    5.0840   -0.1188 H   0  0  0  0  0  0  0  0  0  0  0  0
    0.7229    4.6935   -0.1073 C   0  0  0  0  0  0  0  0  0  0  0  0
    0.4279    5.7525   -0.1331 H   0  0  0  0  0  0  0  0  0  0  0  0
   -0.2566    3.6908   -0.0817 C   0  0  0  0  0  0  0  0  0  0  0  0
   -1.3236    3.9516   -0.0876 H   0  0  0  0  0  0  0  0  0  0  0  0
    0.1304    2.3448   -0.0495 C   0  0  0  0  0  0  0  0  0  0  0  0
   -0.8032    1.1994   -0.0202 C   0  0  0  0  0  0  0  0  0  0  0  0
   -2.2015    1.2167   -0.0202 C   0  0  0  0  0  0  0  0  0  0  0  0
   -2.7393    2.1728   -0.0649 H   0  0  0  0  0  0  0  0  0  0  0  0
   -2.9311    0.0000    0.0000 C   0  0  0  0  0  0  0  0  0  0  0  0
   -2.2015   -1.2167    0.0202 C   0  0  0  0  0  0  0  0  0  0  0  0
   -2.7393   -2.1728    0.0649 H   0  0  0  0  0  0  0  0  0  0  0  0
   -0.8032   -1.1994    0.0202 C   0  0  0  0  0  0  0  0  0  0  0  0
    0.1304   -2.3448    0.0495 C   0  0  0  0  0  0  0  0  0  0  0  0
   -0.2566   -3.6908    0.0817 C   0  0  0  0  0  0  0  0  0  0  0  0
   -1.3236   -3.9516    0.0876 H   0  0  0  0  0  0  0  0  0  0  0  0
    0.7229   -4.6935    0.1072 C   0  0  0  0  0  0  0  0  0  0  0  0
    0.4279   -5.7525    0.1331 H   0  0  0  0  0  0  0  0  0  0  0  0
    2.0764   -4.3289    0.0997 C   0  0  0  0  0  0  0  0  0  0  0  0
    2.8745   -5.0840    0.1188 H   0  0  0  0  0  0  0  0  0  0  0  0
    2.4173   -2.9718    0.0675 C   0  0  0  0  0  0  0  0  0  0  0  0
    3.4569   -2.6075    0.0601 H   0  0  0  0  0  0  0  0  0  0  0  0
   -4.4084    0.0000    0.0000 C   0  0  0  0  0  0  0  0  0  0  0  0
   -5.1302    1.0352    0.6400 C   0  0  0  0  0  0  0  0  0  0  0  0
   -4.5922    1.8312    1.1766 H   0  0  0  0  0  0  0  0  0  0  0  0
   -6.5300    1.0311    0.6435 C   0  0  0  0  0  0  0  0  0  0  0  0
   -7.0767    1.8338    1.1599 H   0  0  0  0  0  0  0  0  0  0  0  0
   -7.2338    0.0000    0.0000 C   0  0  0  0  0  0  0  0  0  0  0  0
   -8.3338    0.0000    0.0000 H   0  0  0  0  0  0  0  0  0  0  0  0
   -6.5300   -1.0311   -0.6435 C   0  0  0  0  0  0  0  0  0  0  0  0
   -7.0767   -1.8338   -1.1598 H   0  0  0  0  0  0  0  0  0  0  0  0
   -5.1302   -1.0352   -0.6400 C   0  0  0  0  0  0  0  0  0  0  0  0
   -4.5922   -1.8312   -1.1766 H   0  0  0  0  0  0  0  0  0  0  0  0
  2 19  1  0  0  0  0
  3 20  1  0  0  0  0
  3 27  1  0  0  0  0
  4  5  1  0  0  0  0
  4  1  1  0  0  0  0
  6  4  1  0  0  0  0
  7  6  1  0  0  0  0
  8  6  2  0  0  0  0
  8 10  1  0  0  0  0
  9  8  1  0  0  0  0
 10 12  2  0  0  0  0
 11 10  1  0  0  0  0
 12  1  1  0  0  0  0
 12 13  1  0  0  0  0
 13  2  1  0  0  0  0
 14 13  2  0  0  0  0
 14 16  1  0  0  0  0
 15 14  1  0  0  0  0
 16 29  1  0  0  0  0
 16 17  2  0  0  0  0
 17 18  1  0  0  0  0
 19 17  1  0  0  0  0
 19 20  2  0  0  0  0
 20 21  1  0  0  0  0
 21 22  1  0  0  0  0
 21 23  2  0  0  0  0
 23 24  1  0  0  0  0
 25 23  1  0  0  0  0
 25 26  1  0  0  0  0
 27 25  2  0  0  0  0
 28 27  1  0  0  0  0
 29 30  1  0  0  0  0
 30 32  2  0  0  0  0
 30 31  1  0  0  0  0
 32 33  1  0  0  0  0
 34 35  1  0  0  0  0
 34 32  1  0  0  0  0
 36 38  1  0  0  0  0
 36 34  2  0  0  0  0
 37 36  1  0  0  0  0
 38 29  2  0  0  0  0
 39 38  1  0  0  0  0
M  END
