5,6,7
q = 0.0, confidence = 0.944

 50 52  0  0  1  0  0  0  0  0999 V2000
    2.9182   -1.8236    1.9240 Cl  0  0  0  0  0  0  0  0  0  0  0  0
    2.5633    2.9064   -0.7263 Cl  0  0  0  0  0  0  0  0  0  0  0  0
   -3.8166   -0.3692   -0.6336 Cl  0  0  0  0  0  0  0  0  0  0  0  0
   -0.1270   -3.3801    1.9847 Cl  0  0  0  0  0  0  0  0  0  0  0  0
    1.4474    0.4804    0.6278 N   0  0  0  0  0  2  0  0  0  0  0  0
   -1.1635   -0.8604    0.6700 N   0  0  0  0  0  2  0  0  0  0  0  0
   -0.7506    1.4720   -0.8316 N   0  0  0  0  0  2  0  0  0  0  0  0
    0.8990    1.1666    1.5840 C   0  0  2  0  0  3  0  0  0  0  0  0
   -0.6173    1.3194    1.5677 C   0  0  2  0  0  0  0  0  0  0  0  0
   -0.9178    1.9139    2.4449 H   0  0  0  0  0  0  0  0  0  0  0  0
   -1.3767   -0.0051    1.6235 C   0  0  1  0  0  3  0  0  0  0  0  0
   -1.0587    2.0495    0.2920 C   0  0  2  0  0  3  0  0  0  0  0  0
   -1.8319    3.2983    0.3855 C   0  0  0  0  0  0  0  0  0  0  0  0
   -1.6514    4.2038    1.4582 C   0  0  0  0  0  0  0  0  0  0  0  0
   -0.9186    3.9913    2.2510 H   0  0  0  0  0  0  0  0  0  0  0  0
   -2.3682    5.4057    1.5000 C   0  0  0  0  0  0  0  0  0  0  0  0
   -2.2055    6.1097    2.3291 H   0  0  0  0  0  0  0  0  0  0  0  0
   -3.2902    5.7119    0.4860 C   0  0  0  0  0  0  0  0  0  0  0  0
   -3.8600    6.6520    0.5264 H   0  0  0  0  0  0  0  0  0  0  0  0
   -3.4919    4.8128   -0.5754 C   0  0  0  0  0  0  0  0  0  0  0  0
   -4.2275    5.0412   -1.3605 H   0  0  0  0  0  0  0  0  0  0  0  0
   -2.7688    3.6173   -0.6288 C   0  0  0  0  0  0  0  0  0  0  0  0
   -2.9622    2.9025   -1.4438 H   0  0  0  0  0  0  0  0  0  0  0  0
    2.8706    0.4752    0.4777 C   0  0  0  0  0  0  0  0  0  0  0  0
    3.6635   -0.5894    0.9555 C   0  0  0  0  0  0  0  0  0  0  0  0
    5.0413   -0.6335    0.6968 C   0  0  0  0  0  0  0  0  0  0  0  0
    5.6304   -1.4788    1.0776 H   0  0  0  0  0  0  0  0  0  0  0  0
    5.6393    0.4022   -0.0332 C   0  0  0  0  0  0  0  0  0  0  0  0
    6.7177    0.3659   -0.2448 H   0  0  0  0  0  0  0  0  0  0  0  0
    4.8825    1.4942   -0.4808 C   0  0  0  0  0  0  0  0  0  0  0  0
    5.3451    2.3223   -1.0344 H   0  0  0  0  0  0  0  0  0  0  0  0
    3.5076    1.5309   -0.2142 C   0  0  0  0  0  0  0  0  0  0  0  0
   -1.9915   -2.0210    0.5521 C   0  0  0  0  0  0  0  0  0  0  0  0
   -3.2334   -1.9328   -0.1178 C   0  0  0  0  0  0  0  0  0  0  0  0
   -4.0102   -3.0741   -0.3552 C   0  0  0  0  0  0  0  0  0  0  0  0
   -4.9632   -2.9744   -0.8919 H   0  0  0  0  0  0  0  0  0  0  0  0
   -3.5556   -4.3197    0.1004 C   0  0  0  0  0  0  0  0  0  0  0  0
   -4.1584   -5.2196   -0.0885 H   0  0  0  0  0  0  0  0  0  0  0  0
   -2.3525   -4.4279    0.8104 C   0  0  0  0  0  0  0  0  0  0  0  0
   -2.0022   -5.3941    1.1978 H   0  0  0  0  0  0  0  0  0  0  0  0
   -1.5809   -3.2793    1.0403 C   0  0  0  0  0  0  0  0  0  0  0  0
    1.6496    1.8921    2.6522 C   0  0  0  0  0  0  0  0  0  0  0  0
    2.7198    1.6195    2.6676 H   0  0  0  0  0  0  0  0  0  0  0  0
    1.2010    1.6880    3.6455 H   0  0  0  0  0  0  0  0  0  0  0  0
    1.5717    2.9870    2.4758 H   0  0  0  0  0  0  0  0  0  0  0  0
   -2.3714   -0.1734    2.7230 C   0  0  0  0  0  0  0  0  0  0  0  0
   -2.8352   -1.1755    2.7188 H   0  0  0  0  0  0  0  0  0  0  0  0
   -3.1701    0.5919    2.6158 H   0  0  0  0  0  0  0  0  0  0  0  0
   -1.8859    0.0036    3.7049 H   0  0  0  0  0  0  0  0  0  0  0  0
   -1.0329    1.9951   -1.6707 H   0  0  0  0  0  0  0  0  0  0  0  0
  2 32  1  0  0  0  0
  3 34  1  0  0  0  0
  8  5  1  6  0  0  0
  8 42  1  0  0  0  0
  9  8  1  0  0  0  0
  9 11  1  0  0  0  0
  9 10  1  1  0  0  0
 11  6  1  6  0  0  0
 11 46  1  0  0  0  0
 12  7  1  6  0  0  0
 12 13  1  0  0  0  0
 12  9  1  0  0  0  0
 13 14  1  0  0  0  0
 14 16  2  0  0  0  0
 14 15  1  0  0  0  0
 16 17  1  0  0  0  0
 18 19  1  0  0  0  0
 18 16  1  0  0  0  0
 20 18  2  0  0  0  0
 21 20  1  0  0  0  0
 22 20  1  0  0  0  0
 22 13  2  0  0  0  0
 23 22  1  0  0  0  0
 24  5  1  0  0  0  0
 24 25  1  0  0  0  0
 25  1  1  0  0  0  0
 26 25  2  0  0  0  0
 26 27  1  0  0  0  0
 28 26  1  0  0  0  0
 29 28  1  0  0  0  0
 30 32  1  0  0  0  0
 30 28  2  0  0  0  0
 31 30  1  0  0  0  0
 32 24  2  0  0  0  0
 33  6  1  0  0  0  0
 33 41  1  0  0  0  0
 34 33  2  0  0  0  0
 35 34  1  0  0  0  0
 35 37  2  0  0  0  0
 36 35  1  0  0  0  0
 37 39  1  0  0  0  0
 38 37  1  0  0  0  0
 39 41  2  0  0  0  0
 39 40  1  0  0  0  0
 41  4  1  0  0  0  0
 42 43  1  0  0  0  0
 42 44  1  0  0  0  0
 45 42  1  0  0  0  0
 46 49  1  0  0  0  0
 47 46  1  0  0  0  0
 48 46  1  0  0  0  0
 50  7  1  0  0  0  0
M  END
