17,20,21
q = -1.0, confidence = 0.004

 25 24  0  0  0  0  0  0  0  0999 V2000
   -0.7903   -0.2830    2.5076 C   0  0  0  0  0  0  0  0  0  0  0  0
   -0.8551    0.8227    2.5426 H   0  0  0  0  0  0  0  0  0  0  0  0
   -1.0660   -0.6710    3.5112 H   0  0  0  0  0  0  0  0  0  0  0  0
   -1.7092   -0.8519    1.4496 C   0  0  0  0  0  0  0  0  0  0  0  0
   -1.6286   -1.9580    1.4712 H   0  0  0  0  0  0  0  0  0  0  0  0
   -2.7907   -0.6290    1.5881 H   0  0  0  0  0  0  0  0  0  0  0  0
   -1.6219   -1.4025   -0.9489 C   0  0  0  0  0  0  0  0  0  0  0  0
   -2.6968   -1.6762   -0.8406 H   0  0  0  0  0  0  0  0  0  0  0  0
   -1.4947   -0.9215   -1.9400 H   0  0  0  0  0  0  0  0  0  0  0  0
   -0.6874   -2.5899   -0.8152 C   0  0  0  0  0  0  0  0  0  0  0  0
   -0.8438   -3.2935   -1.6585 H   0  0  0  0  0  0  0  0  0  0  0  0
   -0.8976   -3.1594    0.1118 H   0  0  0  0  0  0  0  0  0  0  0  0
   -2.1414    0.8807   -0.2432 C   0  0  0  0  0  0  0  0  0  0  0  0
   -1.7885    1.2701   -1.2179 H   0  0  0  0  0  0  0  0  0  0  0  0
   -1.9027    1.6521    0.5155 H   0  0  0  0  0  0  0  0  0  0  0  0
   -3.7138    0.6824   -0.2929 C   0  0  0  0  0  0  0  0  0  0  0  0
    0.6150   -0.6386    2.1460 N   0  0  0  0  0  0  0  0  0  0  0  0
    0.7670   -1.6462    2.3047 H   0  0  0  0  0  0  0  0  0  0  0  0
    1.2882   -0.1577    2.7588 H   0  0  0  0  0  0  0  0  0  0  0  0
   -1.3206   -0.3551    0.0813 N   0  0  0  0  0  0  0  0  0  0  0  0
    0.7382   -2.1332   -0.7486 N   0  0  0  0  0  0  0  0  0  0  0  0
    1.1402   -2.1003   -1.6955 H   0  0  0  0  0  0  0  0  0  0  0  0
    1.3163   -2.8197   -0.2438 H   0  0  0  0  0  0  0  0  0  0  0  0
   -4.1429   -0.4546    0.0767 O   0  5  0  0  0  0  0  0  0  0  0  0
   -4.3075    1.6994   -0.6767 O   0  0  0  0  0  0  0  0  0  0  0  0
  1  2  1  0  0  0  0
  1  3  1  0  0  0  0
  4  5  1  0  0  0  0
  4  6  1  0  0  0  0
  4  1  1  0  0  0  0
  7  8  1  0  0  0  0
  7 10  1  0  0  0  0
  7 20  1  0  0  0  0
  9  7  1  0  0  0  0
 10 21  1  0  0  0  0
 10 12  1  0  0  0  0
 11 10  1  0  0  0  0
 13 20  1  0  0  0  0
 13 15  1  0  0  0  0
 14 13  1  0  0  0  0
 16 13  1  0  0  0  0
 16 24  1  0  0  0  0
 17 18  1  0  0  0  0
 17  1  1  0  0  0  0
 17 19  1  0  0  0  0
 20  4  1  0  0  0  0
 21 23  1  0  0  0  0
 22 21  1  0  0  0  0
 25 16  2  0  0  0  0
M  CHG  1  24  -1
M  END
