1,2,3
q = 0.0, confidence = 1.0

 33 35  0  0  1  0  0  0  0  0999 V2000
   -0.4024    2.2946   -0.2701 N   0  0  0  0  0  2  0  0  0  0  0  0
    0.3490   -0.1957   -0.3579 N   0  0  0  0  0  2  0  0  0  0  0  0
   -1.8224   -1.6303   -0.2565 N   0  0  0  0  0  2  0  0  0  0  0  0
   -0.9207    3.5268   -0.3138 C   0  0  0  0  0  3  0  0  0  0  0  0
   -2.0242    3.5670   -0.2819 H   0  0  0  0  0  0  0  0  0  0  0  0
   -0.1088    4.6683   -0.4030 C   0  0  0  0  0  0  0  0  0  0  0  0
   -0.5618    5.6696   -0.4333 H   0  0  0  0  0  0  0  0  0  0  0  0
    1.2820    4.4952   -0.4542 C   0  0  0  0  0  0  0  0  0  0  0  0
    1.9518    5.3652   -0.5268 H   0  0  0  0  0  0  0  0  0  0  0  0
    1.8154    3.1989   -0.4194 C   0  0  0  0  0  0  0  0  0  0  0  0
    2.9019    3.0442   -0.4766 H   0  0  0  0  0  0  0  0  0  0  0  0
    0.9334    2.1075   -0.3247 C   0  0  0  0  0  0  0  0  0  0  0  0
    1.3613    0.6785   -0.2890 C   0  0  1  0  0  3  0  0  0  0  0  0
    2.6954    0.2492   -0.1766 C   0  0  0  0  0  0  0  0  0  0  0  0
    3.5083    0.9819   -0.1127 H   0  0  0  0  0  0  0  0  0  0  0  0
    2.9563   -1.1365   -0.1224 C   0  0  0  0  0  0  0  0  0  0  0  0
    1.8646   -2.0360   -0.1751 C   0  0  0  0  0  0  0  0  0  0  0  0
    2.0427   -3.1184   -0.1070 H   0  0  0  0  0  0  0  0  0  0  0  0
    0.5670   -1.5194   -0.2848 C   0  0  0  0  0  0  0  0  0  0  0  0
   -0.6768   -2.3423   -0.3131 C   0  0  2  0  0  3  0  0  0  0  0  0
   -0.6975   -3.7456   -0.4032 C   0  0  0  0  0  0  0  0  0  0  0  0
    0.2366   -4.3217   -0.4601 H   0  0  0  0  0  0  0  0  0  0  0  0
   -1.9371   -4.3999   -0.4329 C   0  0  0  0  0  0  0  0  0  0  0  0
   -1.9794   -5.4973   -0.5020 H   0  0  0  0  0  0  0  0  0  0  0  0
   -3.1164   -3.6424   -0.3811 C   0  0  0  0  0  0  0  0  0  0  0  0
   -4.1055   -4.1218   -0.4078 H   0  0  0  0  0  0  0  0  0  0  0  0
   -3.0096   -2.2457   -0.2953 C   0  0  0  0  0  0  0  0  0  0  0  0
   -3.8833   -1.5707   -0.2627 H   0  0  0  0  0  0  0  0  0  0  0  0
    4.5581   -1.8505    0.0240 S   0  0  0  0  0  0  0  0  0  0  0  0
    5.6544   -0.4095    0.1171 C   0  0  0  0  0  0  0  0  0  0  0  0
    6.6747   -0.8239    0.2222 H   0  0  0  0  0  0  0  0  0  0  0  0
    5.6104    0.1994   -0.8074 H   0  0  0  0  0  0  0  0  0  0  0  0
    5.4296    0.2152    1.0038 H   0  0  0  0  0  0  0  0  0  0  0  0
  2 13  1  0  0  0  0
  2 19  1  0  0  0  0
  4  5  1  0  0  0  0
  4  1  1  0  0  0  0
  6  4  1  0  0  0  0
  7  6  1  0  0  0  0
  8 10  1  0  0  0  0
  8  6  2  0  0  0  0
  9  8  1  0  0  0  0
 10 12  2  0  0  0  0
 11 10  1  0  0  0  0
 12  1  1  0  0  0  0
 13 12  1  1  0  0  0
 13 14  1  0  0  0  0
 14 16  2  0  0  0  0
 14 15  1  0  0  0  0
 16 29  1  0  0  0  0
 17 16  1  0  0  0  0
 17 18  1  0  0  0  0
 19 17  2  0  0  0  0
 20 19  1  6  0  0  0
 20  3  1  0  0  0  0
 21 20  1  0  0  0  0
 22 21  1  0  0  0  0
 23 21  2  0  0  0  0
 23 25  1  0  0  0  0
 24 23  1  0  0  0  0
 25 27  2  0  0  0  0
 26 25  1  0  0  0  0
 27 28  1  0  0  0  0
 27  3  1  0  0  0  0
 29 30  1  0  0  0  0
 30 31  1  0  0  0  0
 30 33  1  0  0  0  0
 32 30  1  0  0  0  0
M  END
