1,3,4
q = 0.0, confidence = 0.956

 49 53  0  0  1  0  0  0  0  0999 V2000
    1.5097    0.9380   -0.1527 N   0  0  0  0  0  2  0  0  0  0  0  0
    2.8479   -1.1432   -0.3136 C   0  0  0  0  0  0  0  0  0  0  0  0
   -1.9297   -0.7166    0.3309 N   0  0  0  0  0  2  0  0  0  0  0  0
    0.4600   -1.6023    0.1851 N   0  0  0  0  0  2  0  0  0  0  0  0
    3.7077    1.2063   -0.3910 N   0  0  0  0  0  0  0  0  0  0  0  0
    4.6957    0.9703   -0.4464 H   0  0  0  0  0  0  0  0  0  0  0  0
    2.6705    0.2973   -0.2981 C   0  0  2  0  0  3  0  0  0  0  0  0
    1.7666   -2.0433   -0.0103 C   0  0  0  0  0  0  0  0  0  0  0  0
    4.1286   -1.6626   -0.5855 C   0  0  0  0  0  0  0  0  0  0  0  0
    4.9442   -0.9796   -0.8637 H   0  0  0  0  0  0  0  0  0  0  0  0
    3.3930   -3.9177   -0.1721 C   0  0  0  0  0  3  0  0  0  0  0  0
    3.5862   -4.9982   -0.0956 H   0  0  0  0  0  0  0  0  0  0  0  0
    4.4056   -3.0380   -0.5256 C   0  0  0  0  0  0  0  0  0  0  0  0
    5.4176   -3.4053   -0.7492 H   0  0  0  0  0  0  0  0  0  0  0  0
    2.9189    4.8481   -0.1331 C   0  0  0  0  0  0  0  0  0  0  0  0
    3.3400    5.8645   -0.1302 H   0  0  0  0  0  0  0  0  0  0  0  0
    2.0768   -3.4518    0.0944 C   0  0  0  0  0  0  0  0  0  0  0  0
    3.1856    2.4820   -0.2795 C   0  0  0  0  0  0  0  0  0  0  0  0
   -0.2160   -3.9093    0.7154 C   0  0  0  0  0  0  0  0  0  0  0  0
   -1.0349   -4.5806    1.0112 H   0  0  0  0  0  0  0  0  0  0  0  0
    1.7818    2.3011   -0.1323 C   0  0  0  0  0  0  0  0  0  0  0  0
   -0.5006   -2.5340    0.5513 C   0  0  0  0  0  0  0  0  0  0  0  0
    1.0569   -4.3754    0.4765 C   0  0  0  0  0  0  0  0  0  0  0  0
    1.3083   -5.4413    0.5731 H   0  0  0  0  0  0  0  0  0  0  0  0
   -3.2265   -0.1839    0.0420 C   0  0  0  0  0  0  0  0  0  0  0  0
   -1.8226   -1.9999    0.6116 C   0  0  0  0  0  3  0  0  0  0  0  0
   -2.7043   -2.6405    0.7814 H   0  0  0  0  0  0  0  0  0  0  0  0
    3.7791    3.7541   -0.2842 C   0  0  0  0  0  0  0  0  0  0  0  0
    4.8647    3.8872   -0.3978 H   0  0  0  0  0  0  0  0  0  0  0  0
   -3.1915   -1.5712   -2.1050 C   0  0  0  0  0  0  0  0  0  0  0  0
   -3.7111   -1.5757   -3.0820 H   0  0  0  0  0  0  0  0  0  0  0  0
   -3.1849   -2.6153   -1.7281 H   0  0  0  0  0  0  0  0  0  0  0  0
   -2.1382   -1.2681   -2.2687 H   0  0  0  0  0  0  0  0  0  0  0  0
   -5.1098    1.2418    0.5691 C   0  0  0  0  0  0  0  0  0  0  0  0
   -5.5957    1.9626    1.2451 H   0  0  0  0  0  0  0  0  0  0  0  0
    0.9302    3.4105    0.0157 C   0  0  0  0  0  0  0  0  0  0  0  0
   -0.1540    3.2694    0.1087 H   0  0  0  0  0  0  0  0  0  0  0  0
   -3.8663   -0.6156   -1.1526 C   0  0  0  0  0  0  0  0  0  0  0  0
    1.5193    4.6779    0.0145 C   0  0  0  0  0  0  0  0  0  0  0  0
    0.8819    5.5673    0.1265 H   0  0  0  0  0  0  0  0  0  0  0  0
   -3.8312    0.7595    0.9086 C   0  0  0  0  0  0  0  0  0  0  0  0
   -5.1374   -0.0928   -1.4507 C   0  0  0  0  0  0  0  0  0  0  0  0
   -5.6358   -0.4113   -2.3796 H   0  0  0  0  0  0  0  0  0  0  0  0
   -5.7619    0.8249   -0.5972 C   0  0  0  0  0  0  0  0  0  0  0  0
   -6.7582    1.2212   -0.8452 H   0  0  0  0  0  0  0  0  0  0  0  0
   -3.1470    1.2439    2.1562 C   0  0  0  0  0  0  0  0  0  0  0  0
   -2.3198    1.9430    1.9147 H   0  0  0  0  0  0  0  0  0  0  0  0
   -2.6634    0.4233    2.7200 H   0  0  0  0  0  0  0  0  0  0  0  0
   -3.8616    1.7711    2.8170 H   0  0  0  0  0  0  0  0  0  0  0  0
  1 21  1  0  0  0  0
  2  8  2  0  0  0  0
  3 26  1  0  0  0  0
  4 22  1  0  0  0  0
  5  7  1  0  0  0  0
  5 18  1  0  0  0  0
  6  5  1  0  0  0  0
  7  2  1  1  0  0  0
  7  1  1  0  0  0  0
  8 17  1  0  0  0  0
  8  4  1  0  0  0  0
  9 13  2  0  0  0  0
  9  2  1  0  0  0  0
 10  9  1  0  0  0  0
 11 12  1  0  0  0  0
 11 17  1  0  0  0  0
 13 11  1  0  0  0  0
 14 13  1  0  0  0  0
 15 16  1  0  0  0  0
 15 39  1  0  0  0  0
 17 23  2  0  0  0  0
 18 21  2  0  0  0  0
 19 20  1  0  0  0  0
 21 36  1  0  0  0  0
 22 26  1  0  0  0  0
 22 19  2  0  0  0  0
 23 24  1  0  0  0  0
 23 19  1  0  0  0  0
 25  3  1  0  0  0  0
 25 41  1  0  0  0  0
 26 27  1  0  0  0  0
 28 18  1  0  0  0  0
 28 15  2  0  0  0  0
 29 28  1  0  0  0  0
 30 32  1  0  0  0  0
 30 38  1  0  0  0  0
 31 30  1  0  0  0  0
 33 30  1  0  0  0  0
 34 41  2  0  0  0  0
 34 35  1  0  0  0  0
 36 37  1  0  0  0  0
 38 25  2  0  0  0  0
 39 36  2  0  0  0  0
 39 40  1  0  0  0  0
 41 46  1  0  0  0  0
 42 38  1  0  0  0  0
 42 44  2  0  0  0  0
 43 42  1  0  0  0  0
 44 34  1  0  0  0  0
 45 44  1  0  0  0  0
 46 48  1  0  0  0  0
 46 49  1  0  0  0  0
 47 46  1  0  0  0  0
M  END
