1,2,3
q = 0.0, confidence = 0.946

 52 56  0  0  1  0  0  0  0  0999 V2000
   -0.7446    1.3090    0.1735 N   0  0  0  0  0  2  0  0  0  0  0  0
   -1.5977   -1.1952   -0.2592 N   0  0  0  0  0  2  0  0  0  0  0  0
    0.8339   -1.4513   -0.2957 N   0  0  0  0  0  2  0  0  0  0  0  0
   -2.0731    1.5831    0.0947 C   0  0  1  0  0  3  0  0  0  0  0  0
    2.2218   -1.1911   -0.5011 C   0  0  0  0  0  0  0  0  0  0  0  0
    6.3857   -0.2186   -1.1293 C   0  0  0  0  0  0  0  0  0  0  0  0
    7.0095   -1.1324   -1.2166 H   0  0  0  0  0  0  0  0  0  0  0  0
    6.7843    0.3577   -0.2678 H   0  0  0  0  0  0  0  0  0  0  0  0
    6.5401    0.3886   -2.0421 H   0  0  0  0  0  0  0  0  0  0  0  0
   -2.2593    2.9461    0.0144 N   0  0  0  0  0  0  0  0  0  0  0  0
   -3.1596    3.3996   -0.1284 H   0  0  0  0  0  0  0  0  0  0  0  0
    4.9318   -0.5633   -0.9263 C   0  0  0  0  0  0  0  0  0  0  0  0
   -3.5304   -2.8851   -1.3611 C   0  0  0  0  0  0  0  0  0  0  0  0
   -4.3111   -3.5655   -1.7326 H   0  0  0  0  0  0  0  0  0  0  0  0
    3.1953   -1.7340    0.3749 C   0  0  0  0  0  0  0  0  0  0  0  0
   -3.9160   -1.6029   -0.8491 C   0  0  0  0  0  0  0  0  0  0  0  0
    0.2057   -2.4556   -0.9244 C   0  0  0  0  0  3  0  0  0  0  0  0
    0.7668   -3.2153   -1.4897 H   0  0  0  0  0  0  0  0  0  0  0  0
    2.7955   -2.5848    1.5444 C   0  0  0  0  0  0  0  0  0  0  0  0
    2.2722   -1.9527    2.2953 H   0  0  0  0  0  0  0  0  0  0  0  0
    3.6794   -3.0551    2.0152 H   0  0  0  0  0  0  0  0  0  0  0  0
    2.0720   -3.3750    1.2640 H   0  0  0  0  0  0  0  0  0  0  0  0
   -5.5451    0.1538   -0.3685 C   0  0  0  0  0  0  0  0  0  0  0  0
   -6.5885    0.4987   -0.3282 H   0  0  0  0  0  0  0  0  0  0  0  0
    4.5385   -1.4067    0.1312 C   0  0  0  0  0  0  0  0  0  0  0  0
    5.3062   -1.8213    0.8047 H   0  0  0  0  0  0  0  0  0  0  0  0
    3.9345   -0.0504   -1.7745 C   0  0  0  0  0  0  0  0  0  0  0  0
    4.2201    0.6072   -2.6114 H   0  0  0  0  0  0  0  0  0  0  0  0
   -4.5110    1.0357   -0.0037 C   0  0  0  0  0  0  0  0  0  0  0  0
   -4.7723    2.0630    0.2936 H   0  0  0  0  0  0  0  0  0  0  0  0
   -3.1626    0.6285   -0.0221 C   0  0  0  0  0  0  0  0  0  0  0  0
   -0.0665    2.5258    0.1005 C   0  0  0  0  0  0  0  0  0  0  0  0
    2.5743   -0.3540   -1.5881 C   0  0  0  0  0  0  0  0  0  0  0  0
   -1.0230    3.5717   -0.0063 C   0  0  0  0  0  0  0  0  0  0  0  0
   -1.2187   -2.3632   -0.8753 C   0  0  0  0  0  0  0  0  0  0  0  0
   -2.1952   -3.2379   -1.4267 C   0  0  0  0  0  0  0  0  0  0  0  0
   -1.8758   -4.1909   -1.8722 H   0  0  0  0  0  0  0  0  0  0  0  0
   -2.8714   -0.7424   -0.3543 C   0  0  0  0  0  0  0  0  0  0  0  0
   -5.2524   -1.1359   -0.8175 C   0  0  0  0  0  3  0  0  0  0  0  0
   -6.0578   -1.8049   -1.1568 H   0  0  0  0  0  0  0  0  0  0  0  0
   -0.6495    4.9190   -0.1296 C   0  0  0  0  0  0  0  0  0  0  0  0
   -1.3949    5.7232   -0.2112 H   0  0  0  0  0  0  0  0  0  0  0  0
    1.5183    0.1853   -2.5186 C   0  0  0  0  0  0  0  0  0  0  0  0
    1.9137    1.0166   -3.1324 H   0  0  0  0  0  0  0  0  0  0  0  0
    0.6348    0.5462   -1.9563 H   0  0  0  0  0  0  0  0  0  0  0  0
    1.1507   -0.6020   -3.2114 H   0  0  0  0  0  0  0  0  0  0  0  0
    1.3114    2.8083    0.0718 C   0  0  0  0  0  0  0  0  0  0  0  0
    2.0423    1.9964    0.1752 H   0  0  0  0  0  0  0  0  0  0  0  0
    0.7249    5.1869   -0.1507 C   0  0  0  0  0  0  0  0  0  0  0  0
    1.0655    6.2289   -0.2456 H   0  0  0  0  0  0  0  0  0  0  0  0
    1.6855    4.1498   -0.0560 C   0  0  0  0  0  0  0  0  0  0  0  0
    2.7545    4.4079   -0.0776 H   0  0  0  0  0  0  0  0  0  0  0  0
  4 31  1  6  0  0  0
  4  1  1  0  0  0  0
  5  3  1  0  0  0  0
  5 15  1  0  0  0  0
  6 12  1  0  0  0  0
  6  8  1  0  0  0  0
  7  6  1  0  0  0  0
  9  6  1  0  0  0  0
 10  4  1  0  0  0  0
 11 10  1  0  0  0  0
 12 25  1  0  0  0  0
 13 16  2  0  0  0  0
 14 13  1  0  0  0  0
 15 19  1  0  0  0  0
 16 39  1  0  0  0  0
 16 38  1  0  0  0  0
 17 35  1  0  0  0  0
 17  3  1  0  0  0  0
 18 17  1  0  0  0  0
 19 21  1  0  0  0  0
 19 20  1  0  0  0  0
 22 19  1  0  0  0  0
 23 24  1  0  0  0  0
 23 29  2  0  0  0  0
 25 15  2  0  0  0  0
 25 26  1  0  0  0  0
 27 33  1  0  0  0  0
 27 12  2  0  0  0  0
 28 27  1  0  0  0  0
 29 30  1  0  0  0  0
 31 29  1  0  0  0  0
 32  1  1  0  0  0  0
 33  5  2  0  0  0  0
 34 10  1  0  0  0  0
 34 32  2  0  0  0  0
 35  2  1  0  0  0  0
 36 13  1  0  0  0  0
 36 35  2  0  0  0  0
 37 36  1  0  0  0  0
 38  2  1  0  0  0  0
 38 31  2  0  0  0  0
 39 23  1  0  0  0  0
 40 39  1  0  0  0  0
 41 34  1  0  0  0  0
 42 41  1  0  0  0  0
 43 45  1  0  0  0  0
 43 33  1  0  0  0  0
 44 43  1  0  0  0  0
 46 43  1  0  0  0  0
 47 32  1  0  0  0  0
 47 48  1  0  0  0  0
 49 41  2  0  0  0  0
 49 51  1  0  0  0  0
 50 49  1  0  0  0  0
 51 47  2  0  0  0  0
 52 51  1  0  0  0  0
M  END
