4,5,6
q = 0.0, confidence = 0.994

 54 57  0  0  1  0  0  0  0  0999 V2000
   -1.6211   -0.6820   -1.6774 O   0  0  0  0  0  0  0  0  0  0  0  0
   -1.8880   -1.0526   -2.5487 H   0  0  0  0  0  0  0  0  0  0  0  0
   -1.4953   -2.8840   -1.1711 O   0  0  0  0  0  0  0  0  0  0  0  0
    3.1217   -1.0198   -0.0026 N   0  0  0  0  0  2  0  0  0  0  0  0
    1.5406    1.4409    1.3744 N   0  0  0  0  0  2  0  0  0  0  0  0
    0.4586   -1.1138    0.7162 N   0  0  0  0  0  0  0  0  0  0  0  0
   -5.3983   -1.1562    1.2039 N   0  0  0  0  0  0  0  0  0  0  0  0
    4.4602   -0.8199   -0.0467 C   0  0  0  0  0  3  0  0  0  0  0  0
    4.7940    0.1788   -0.3643 H   0  0  0  0  0  0  0  0  0  0  0  0
    5.3766   -1.8236    0.2787 C   0  0  0  0  0  0  0  0  0  0  0  0
    6.4540   -1.6151    0.2215 H   0  0  0  0  0  0  0  0  0  0  0  0
    4.8926   -3.0797    0.6705 C   0  0  0  0  0  0  0  0  0  0  0  0
    5.5860   -3.8924    0.9327 H   0  0  0  0  0  0  0  0  0  0  0  0
    3.5069   -3.2827    0.7302 C   0  0  0  0  0  0  0  0  0  0  0  0
    3.0888   -4.2509    1.0414 H   0  0  0  0  0  0  0  0  0  0  0  0
    2.6435   -2.2350    0.3809 C   0  0  0  0  0  0  0  0  0  0  0  0
    1.1441   -2.3984    0.3753 C   0  0  0  0  0  0  0  0  0  0  0  0
    0.8064   -2.7189   -0.6307 H   0  0  0  0  0  0  0  0  0  0  0  0
    0.8374   -3.2058    1.0767 H   0  0  0  0  0  0  0  0  0  0  0  0
    1.8393    2.7459    1.5916 C   0  0  0  0  0  3  0  0  0  0  0  0
    2.2660    3.2943    0.7393 H   0  0  0  0  0  0  0  0  0  0  0  0
    1.6130    3.3723    2.8189 C   0  0  0  0  0  0  0  0  0  0  0  0
    1.8724    4.4327    2.9437 H   0  0  0  0  0  0  0  0  0  0  0  0
    1.0435    2.6279    3.8622 C   0  0  0  0  0  0  0  0  0  0  0  0
    0.8376    3.0927    4.8375 H   0  0  0  0  0  0  0  0  0  0  0  0
    0.7357    1.2801    3.6391 C   0  0  0  0  0  0  0  0  0  0  0  0
    0.2880    0.6640    4.4324 H   0  0  0  0  0  0  0  0  0  0  0  0
    1.0033    0.7100    2.3860 C   0  0  0  0  0  0  0  0  0  0  0  0
    0.8058   -0.7620    2.1306 C   0  0  0  0  0  0  0  0  0  0  0  0
    0.0585   -1.1899    2.8307 H   0  0  0  0  0  0  0  0  0  0  0  0
    1.7702   -1.2563    2.3720 H   0  0  0  0  0  0  0  0  0  0  0  0
   -1.4170   -1.7164   -0.8437 C   0  0  0  0  0  0  0  0  0  0  0  0
   -1.0420   -1.2654    0.5813 C   0  0  2  0  0  0  0  0  0  0  0  0
   -1.3275   -2.1330    1.2184 H   0  0  0  0  0  0  0  0  0  0  0  0
   -1.8426   -0.0357    1.0360 C   0  0  0  0  0  0  0  0  0  0  0  0
   -1.5909    0.2006    2.0905 H   0  0  0  0  0  0  0  0  0  0  0  0
   -1.5479    0.8458    0.4364 H   0  0  0  0  0  0  0  0  0  0  0  0
   -3.3200   -0.2818    0.8929 C   0  0  0  0  0  0  0  0  0  0  0  0
   -4.2192    0.3364   -0.0534 C   0  0  0  0  0  0  0  0  0  0  0  0
   -4.0721    1.3165   -1.0616 C   0  0  0  0  0  0  0  0  0  0  0  0
   -3.0946    1.7791   -1.2603 H   0  0  0  0  0  0  0  0  0  0  0  0
   -5.1945    1.6895   -1.8062 C   0  0  0  0  0  0  0  0  0  0  0  0
   -5.0941    2.4531   -2.5919 H   0  0  0  0  0  0  0  0  0  0  0  0
   -6.4642    1.1068   -1.5683 C   0  0  0  0  0  0  0  0  0  0  0  0
   -7.3263    1.4244   -2.1733 H   0  0  0  0  0  0  0  0  0  0  0  0
   -6.6429    0.1373   -0.5764 C   0  0  0  0  0  0  0  0  0  0  0  0
   -7.6299   -0.3110   -0.3924 H   0  0  0  0  0  0  0  0  0  0  0  0
   -5.5126   -0.2365    0.1728 C   0  0  0  0  0  0  0  0  0  0  0  0
   -4.0860   -1.1801    1.6312 C   0  0  0  0  0  0  0  0  0  0  0  0
   -3.7941   -1.8443    2.4547 H   0  0  0  0  0  0  0  0  0  0  0  0
   -6.4888   -1.9495    1.7323 C   0  0  0  0  0  0  0  0  0  0  0  0
   -6.9277   -2.5958    0.9442 H   0  0  0  0  0  0  0  0  0  0  0  0
   -7.2913   -1.3003    2.1397 H   0  0  0  0  0  0  0  0  0  0  0  0
   -6.1133   -2.5958    2.5464 H   0  0  0  0  0  0  0  0  0  0  0  0
  1 32  1  0  0  0  0
  2  1  1  0  0  0  0
  3 32  2  0  0  0  0
  4 16  1  0  0  0  0
  5 20  1  0  0  0  0
  5 28  1  0  0  0  0
  6 29  1  0  0  0  0
  7 49  1  0  0  0  0
  7 51  1  0  0  0  0
  8  4  1  0  0  0  0
  8 10  1  0  0  0  0
  9  8  1  0  0  0  0
 10 12  2  0  0  0  0
 11 10  1  0  0  0  0
 12 14  1  0  0  0  0
 12 13  1  0  0  0  0
 14 15  1  0  0  0  0
 16 14  2  0  0  0  0
 17 16  1  0  0  0  0
 17  6  1  0  0  0  0
 17 19  1  0  0  0  0
 18 17  1  0  0  0  0
 20 22  1  0  0  0  0
 21 20  1  0  0  0  0
 22 23  1  0  0  0  0
 22 24  2  0  0  0  0
 24 25  1  0  0  0  0
 26 24  1  0  0  0  0
 26 27  1  0  0  0  0
 28 26  2  0  0  0  0
 29 31  1  0  0  0  0
 29 28  1  0  0  0  0
 29 30  1  0  0  0  0
 32 33  1  0  0  0  0
 33  6  1  0  0  0  0
 33 35  1  0  0  0  0
 33 34  1  1  0  0  0
 35 36  1  0  0  0  0
 37 35  1  0  0  0  0
 38 35  1  0  0  0  0
 38 49  2  0  0  0  0
 39 48  1  0  0  0  0
 39 38  1  0  0  0  0
 40 39  2  0  0  0  0
 41 40  1  0  0  0  0
 42 44  2  0  0  0  0
 42 40  1  0  0  0  0
 43 42  1  0  0  0  0
 44 46  1  0  0  0  0
 45 44  1  0  0  0  0
 46 47  1  0  0  0  0
 46 48  2  0  0  0  0
 48  7  1  0  0  0  0
 49 50  1  0  0  0  0
 51 53  1  0  0  0  0
 51 54  1  0  0  0  0
 52 51  1  0  0  0  0
M  END
