1,2,4
q = 0.0, confidence = 0.996

 37 39  0  0  1  0  0  0  0  0999 V2000
    0.0000    1.0789   -0.0000 N   0  0  0  0  0  2  0  0  0  0  0  0
    1.9953   -0.5286   -0.0003 N   0  0  0  0  0  2  0  0  0  0  0  0
    2.2778    0.8361   -0.0002 N   0  0  0  0  0  0  0  0  0  0  0  0
   -1.9953   -0.5286    0.0001 N   0  0  0  0  0  2  0  0  0  0  0  0
   -2.2778    0.8361    0.0002 N   0  0  0  0  0  0  0  0  0  0  0  0
    3.1681   -1.1809   -0.0001 C   0  0  1  0  0  3  0  0  0  0  0  0
    1.1928    1.7207   -0.0001 C   0  0  1  0  0  3  0  0  0  0  0  0
   -1.1928    1.7207    0.0000 C   0  0  0  0  0  0  0  0  0  0  0  0
   -3.1681   -1.1809   -0.0000 C   0  0  2  0  0  3  0  0  0  0  0  0
    3.6529    1.0396    0.0002 C   0  0  0  0  0  0  0  0  0  0  0  0
   -3.6529    1.0396    0.0001 C   0  0  0  0  0  0  0  0  0  0  0  0
    4.2220   -0.2234    0.0002 C   0  0  0  0  0  0  0  0  0  0  0  0
    5.2942   -0.4451    0.0003 H   0  0  0  0  0  0  0  0  0  0  0  0
    1.2285    3.1238   -0.0002 C   0  0  0  0  0  0  0  0  0  0  0  0
    2.1707    3.6781   -0.0004 H   0  0  0  0  0  0  0  0  0  0  0  0
    3.2799   -2.6631   -0.0000 C   0  0  0  0  0  0  0  0  0  0  0  0
    2.7731   -3.0972    0.8845 H   0  0  0  0  0  0  0  0  0  0  0  0
    4.3424   -2.9643   -0.0032 H   0  0  0  0  0  0  0  0  0  0  0  0
    2.7671   -3.0979   -0.8806 H   0  0  0  0  0  0  0  0  0  0  0  0
   -4.2220   -0.2234   -0.0000 C   0  0  0  0  0  0  0  0  0  0  0  0
   -5.2942   -0.4451   -0.0001 H   0  0  0  0  0  0  0  0  0  0  0  0
   -4.3248    2.3692    0.0002 C   0  0  0  0  0  0  0  0  0  0  0  0
   -5.4186    2.2147    0.0004 H   0  0  0  0  0  0  0  0  0  0  0  0
   -4.0721    2.9665   -0.8998 H   0  0  0  0  0  0  0  0  0  0  0  0
   -4.0718    2.9665    0.9001 H   0  0  0  0  0  0  0  0  0  0  0  0
    0.0000    3.8022   -0.0002 C   0  0  0  0  0  0  0  0  0  0  0  0
    0.0000    4.9017   -0.0003 H   0  0  0  0  0  0  0  0  0  0  0  0
   -1.2285    3.1238   -0.0001 C   0  0  0  0  0  0  0  0  0  0  0  0
   -2.1707    3.6781   -0.0000 H   0  0  0  0  0  0  0  0  0  0  0  0
    4.3248    2.3692    0.0003 C   0  0  0  0  0  0  0  0  0  0  0  0
    5.4186    2.2147    0.0005 H   0  0  0  0  0  0  0  0  0  0  0  0
    4.0718    2.9665    0.9003 H   0  0  0  0  0  0  0  0  0  0  0  0
    4.0721    2.9665   -0.8996 H   0  0  0  0  0  0  0  0  0  0  0  0
   -3.2799   -2.6631    0.0000 C   0  0  0  0  0  0  0  0  0  0  0  0
   -2.7686   -3.0977   -0.8815 H   0  0  0  0  0  0  0  0  0  0  0  0
   -4.3425   -2.9643   -0.0016 H   0  0  0  0  0  0  0  0  0  0  0  0
   -2.7716   -3.0974    0.8835 H   0  0  0  0  0  0  0  0  0  0  0  0
  1  8  1  0  0  0  0
  2  3  1  0  0  0  0
  2  6  1  0  0  0  0
  3 10  1  0  0  0  0
  4  5  1  0  0  0  0
  6 16  1  1  0  0  0
  6 12  1  0  0  0  0
  7  3  1  6  0  0  0
  7  1  1  0  0  0  0
  8  5  1  0  0  0  0
  9 34  1  1  0  0  0
  9  4  1  0  0  0  0
 10 30  1  0  0  0  0
 11  5  1  0  0  0  0
 11 22  1  0  0  0  0
 12 10  2  0  0  0  0
 12 13  1  0  0  0  0
 14 26  2  0  0  0  0
 14  7  1  0  0  0  0
 15 14  1  0  0  0  0
 16 17  1  0  0  0  0
 18 16  1  0  0  0  0
 19 16  1  0  0  0  0
 20  9  1  0  0  0  0
 20 11  2  0  0  0  0
 21 20  1  0  0  0  0
 22 23  1  0  0  0  0
 22 25  1  0  0  0  0
 24 22  1  0  0  0  0
 26 28  1  0  0  0  0
 27 26  1  0  0  0  0
 28 29  1  0  0  0  0
 28  8  2  0  0  0  0
 30 31  1  0  0  0  0
 30 32  1  0  0  0  0
 33 30  1  0  0  0  0
 34 37  1  0  0  0  0
 35 34  1  0  0  0  0
 36 34  1  0  0  0  0
M  END
