2,22
q = 0.0, confidence = 0.974

 35 37  0  0  1  0  0  0  0  0999 V2000
   -1.0289    1.3458    0.1606 N   0  0  1  0  0  0  0  0  0  0  0  0
   -1.0292   -0.8109    1.0854 N   0  0  1  0  0  0  0  0  0  0  0  0
   -1.3335    1.9893    1.4556 C   0  0  0  0  0  0  0  0  0  0  0  0
   -0.8893    1.1275    2.6282 C   0  0  0  0  0  0  0  0  0  0  0  0
   -1.3330   -0.3164    2.4446 C   0  0  0  0  0  0  0  0  0  0  0  0
   -1.3364   -2.2538    0.9957 C   0  0  0  0  0  0  0  0  0  0  0  0
   -0.8963   -2.8402   -0.3377 C   0  0  0  0  0  0  0  0  0  0  0  0
   -1.6649    0.0008    0.0008 C   0  0  1  0  0  0  0  0  0  0  0  0
   -3.1992    0.0016    0.0018 C   0  0  0  0  0  0  0  0  0  0  0  0
   -2.4230    2.2309    1.5168 H   0  0  0  0  0  0  0  0  0  0  0  0
   -0.7898    2.9539    1.4649 H   0  0  0  0  0  0  0  0  0  0  0  0
    0.2145    1.1594    2.7020 H   0  0  0  0  0  0  0  0  0  0  0  0
   -1.3073    1.5321    3.5720 H   0  0  0  0  0  0  0  0  0  0  0  0
   -0.7883   -0.9745    3.1491 H   0  0  0  0  0  0  0  0  0  0  0  0
   -2.4222   -0.4390    2.6628 H   0  0  0  0  0  0  0  0  0  0  0  0
   -2.4259   -2.4253    1.1764 H   0  0  0  0  0  0  0  0  0  0  0  0
   -0.7922   -2.7450    1.8255 H   0  0  0  0  0  0  0  0  0  0  0  0
    0.2070   -2.9264   -0.3484 H   0  0  0  0  0  0  0  0  0  0  0  0
   -1.3195   -3.8577   -0.4586 H   0  0  0  0  0  0  0  0  0  0  0  0
   -3.6022   -1.0211   -0.1174 H   0  0  0  0  0  0  0  0  0  0  0  0
   -3.6003    0.4099    0.9477 H   0  0  0  0  0  0  0  0  0  0  0  0
   -1.0305   -0.5335   -1.2446 N   0  0  1  0  0  0  0  0  0  0  0  0
   -1.3351    2.2754   -0.9467 C   0  0  0  0  0  0  0  0  0  0  0  0
   -1.3376   -1.9572   -1.4958 C   0  0  0  0  0  0  0  0  0  0  0  0
   -3.6016    0.6170   -0.8239 H   0  0  0  0  0  0  0  0  0  0  0  0
   -1.3365    0.2661   -2.4493 C   0  0  0  0  0  0  0  0  0  0  0  0
   -0.8940    1.7133   -2.2901 C   0  0  0  0  0  0  0  0  0  0  0  0
   -2.4246    2.5249   -0.9472 H   0  0  0  0  0  0  0  0  0  0  0  0
   -0.7905    3.2148   -0.7300 H   0  0  0  0  0  0  0  0  0  0  0  0
   -2.4273   -2.0819   -1.7105 H   0  0  0  0  0  0  0  0  0  0  0  0
   -0.7943   -2.2398   -2.4183 H   0  0  0  0  0  0  0  0  0  0  0  0
   -0.7931   -0.2080   -3.2895 H   0  0  0  0  0  0  0  0  0  0  0  0
   -2.4262    0.1973   -2.6884 H   0  0  0  0  0  0  0  0  0  0  0  0
    0.2095    1.7635   -2.3580 H   0  0  0  0  0  0  0  0  0  0  0  0
   -1.3152    2.3276   -3.1112 H   0  0  0  0  0  0  0  0  0  0  0  0
  1 23  1  6  0  0  0
  1  3  1  0  0  0  0
  2  6  1  1  0  0  0
  2  5  1  0  0  0  0
  3 11  1  0  0  0  0
  3 10  1  0  0  0  0
  3  4  1  0  0  0  0
  4 12  1  0  0  0  0
  4 13  1  0  0  0  0
  5  4  1  0  0  0  0
  5 15  1  0  0  0  0
  5 14  1  0  0  0  0
  6 16  1  0  0  0  0
  6 17  1  0  0  0  0
  7  6  1  0  0  0  0
  8  9  1  1  0  0  0
  8  1  1  0  0  0  0
  8  2  1  0  0  0  0
  9 21  1  0  0  0  0
 18  7  1  0  0  0  0
 19  7  1  0  0  0  0
 20  9  1  0  0  0  0
 22 26  1  6  0  0  0
 22  8  1  0  0  0  0
 23 29  1  0  0  0  0
 24 22  1  0  0  0  0
 24  7  1  0  0  0  0
 25  9  1  0  0  0  0
 26 27  1  0  0  0  0
 27 23  1  0  0  0  0
 28 23  1  0  0  0  0
 30 24  1  0  0  0  0
 31 24  1  0  0  0  0
 32 26  1  0  0  0  0
 33 26  1  0  0  0  0
 34 27  1  0  0  0  0
 35 27  1  0  0  0  0
M  END
