1,2,3
q = 0.0, confidence = 0.96

 58 61  0  0  1  0  0  0  0  0999 V2000
   -1.9638    0.7211    0.1664 N   0  0  0  0  0  2  0  0  0  0  0  0
    0.3708    1.5129   -0.0419 N   0  0  0  0  0  2  0  0  0  0  0  0
    1.6272   -0.5905   -0.0024 N   0  0  0  0  0  2  0  0  0  0  0  0
    1.7319    1.7628   -0.1410 C   0  0  0  0  0  0  0  0  0  0  0  0
    3.7587    0.1151   -0.2184 N   0  0  0  0  0  0  0  0  0  0  0  0
    2.1871    3.0917   -0.2141 C   0  0  0  0  0  0  0  0  0  0  0  0
    3.2587    3.3141   -0.2836 H   0  0  0  0  0  0  0  0  0  0  0  0
   -0.5400    2.5480    0.0309 C   0  0  0  0  0  0  0  0  0  0  0  0
    3.7922   -1.2779   -0.1180 C   0  0  0  0  0  0  0  0  0  0  0  0
    2.4369   -1.7051    0.0128 C   0  0  0  0  0  0  0  0  0  0  0  0
   -3.2305    0.0716    0.0141 C   0  0  0  0  0  0  0  0  0  0  0  0
    1.2636    4.1512   -0.1729 C   0  0  0  0  0  0  0  0  0  0  0  0
    1.6226    5.1884   -0.2283 H   0  0  0  0  0  0  0  0  0  0  0  0
    2.4292    0.4905   -0.1303 C   0  0  0  0  0  0  0  0  0  0  0  0
   -5.6902   -1.2691   -0.3606 C   0  0  0  0  0  0  0  0  0  0  0  0
    2.1049   -3.0660    0.1380 C   0  0  0  0  0  0  0  0  0  0  0  0
    1.0501   -3.3602    0.2169 H   0  0  0  0  0  0  0  0  0  0  0  0
   -5.0123   -0.6844   -1.4451 C   0  0  0  0  0  0  0  0  0  0  0  0
   -5.4449   -0.7573   -2.4563 H   0  0  0  0  0  0  0  0  0  0  0  0
   -1.8953    2.0535    0.1293 C   0  0  1  0  0  3  0  0  0  0  0  0
   -3.0758    2.9750    0.1347 C   0  0  0  0  0  0  0  0  0  0  0  0
   -4.0161    2.4113    0.2727 H   0  0  0  0  0  0  0  0  0  0  0  0
   -3.1480    3.5492   -0.8135 H   0  0  0  0  0  0  0  0  0  0  0  0
   -2.9829    3.7155    0.9561 H   0  0  0  0  0  0  0  0  0  0  0  0
   -3.7909   -0.0087   -1.2875 C   0  0  0  0  0  0  0  0  0  0  0  0
   -0.1060    3.8834   -0.0446 C   0  0  0  0  0  0  0  0  0  0  0  0
   -0.8426    4.6968    0.0054 H   0  0  0  0  0  0  0  0  0  0  0  0
   -3.8866   -0.4970    1.1316 C   0  0  0  0  0  0  0  0  0  0  0  0
    4.8451   -2.2127   -0.1192 C   0  0  0  0  0  0  0  0  0  0  0  0
    5.8967   -1.9126   -0.2110 H   0  0  0  0  0  0  0  0  0  0  0  0
    4.5017   -3.5646    0.0099 C   0  0  0  0  0  0  0  0  0  0  0  0
    5.3040   -4.3174    0.0137 H   0  0  0  0  0  0  0  0  0  0  0  0
    3.1554   -3.9867    0.1356 C   0  0  0  0  0  0  0  0  0  0  0  0
    2.9361   -5.0603    0.2310 H   0  0  0  0  0  0  0  0  0  0  0  0
   -6.9796   -2.0239   -0.5662 C   0  0  0  0  0  0  0  0  0  0  0  0
   -7.6091   -2.0149    0.3456 H   0  0  0  0  0  0  0  0  0  0  0  0
   -6.7817   -3.0890   -0.8156 H   0  0  0  0  0  0  0  0  0  0  0  0
   -7.5734   -1.6011   -1.4011 H   0  0  0  0  0  0  0  0  0  0  0  0
    4.9211    0.9979   -0.4057 C   0  0  0  0  0  0  0  0  0  0  0  0
    4.5004    2.0140   -0.5012 H   0  0  0  0  0  0  0  0  0  0  0  0
   -3.0981    0.6143   -2.4719 C   0  0  0  0  0  0  0  0  0  0  0  0
   -3.1770    1.7226   -2.4631 H   0  0  0  0  0  0  0  0  0  0  0  0
   -3.5450    0.2588   -3.4197 H   0  0  0  0  0  0  0  0  0  0  0  0
   -2.0219    0.3526   -2.4717 H   0  0  0  0  0  0  0  0  0  0  0  0
    5.6514    0.6913   -1.7186 C   0  0  0  0  0  0  0  0  0  0  0  0
    4.9511    0.7330   -2.5755 H   0  0  0  0  0  0  0  0  0  0  0  0
    6.1225   -0.3100   -1.7113 H   0  0  0  0  0  0  0  0  0  0  0  0
    6.4504    1.4403   -1.8855 H   0  0  0  0  0  0  0  0  0  0  0  0
    5.8301    0.9848    0.8285 C   0  0  0  0  0  0  0  0  0  0  0  0
    5.2578    1.2503    1.7387 H   0  0  0  0  0  0  0  0  0  0  0  0
    6.6489    1.7205    0.7033 H   0  0  0  0  0  0  0  0  0  0  0  0
    6.2884   -0.0097    0.9919 H   0  0  0  0  0  0  0  0  0  0  0  0
   -5.1128   -1.1519    0.9156 C   0  0  0  0  0  0  0  0  0  0  0  0
   -5.6332   -1.5849    1.7856 H   0  0  0  0  0  0  0  0  0  0  0  0
   -3.3070   -0.3953    2.5152 C   0  0  0  0  0  0  0  0  0  0  0  0
   -4.0376   -0.7302    3.2761 H   0  0  0  0  0  0  0  0  0  0  0  0
   -2.9877    0.6384    2.7572 H   0  0  0  0  0  0  0  0  0  0  0  0
   -2.3840   -1.0025    2.6124 H   0  0  0  0  0  0  0  0  0  0  0  0
  2  8  1  0  0  0  0
  3 10  1  0  0  0  0
  4 14  2  0  0  0  0
  4  2  1  0  0  0  0
  5 14  1  0  0  0  0
  5  9  1  0  0  0  0
  6 12  2  0  0  0  0
  6  4  1  0  0  0  0
  7  6  1  0  0  0  0
  8 20  1  0  0  0  0
  9 10  1  0  0  0  0
 10 16  2  0  0  0  0
 11  1  1  0  0  0  0
 11 28  1  0  0  0  0
 12 26  1  0  0  0  0
 13 12  1  0  0  0  0
 14  3  1  0  0  0  0
 15 53  1  0  0  0  0
 16 17  1  0  0  0  0
 18 25  1  0  0  0  0
 18 15  2  0  0  0  0
 19 18  1  0  0  0  0
 20 21  1  0  0  0  0
 20  1  1  6  0  0  0
 21 22  1  0  0  0  0
 21 24  1  0  0  0  0
 23 21  1  0  0  0  0
 25 11  2  0  0  0  0
 26 27  1  0  0  0  0
 26  8  2  0  0  0  0
 28 55  1  0  0  0  0
 29  9  2  0  0  0  0
 29 31  1  0  0  0  0
 30 29  1  0  0  0  0
 31 32  1  0  0  0  0
 31 33  2  0  0  0  0
 33 16  1  0  0  0  0
 33 34  1  0  0  0  0
 35 15  1  0  0  0  0
 35 36  1  0  0  0  0
 37 35  1  0  0  0  0
 38 35  1  0  0  0  0
 39  5  1  0  0  0  0
 39 49  1  0  0  0  0
 40 39  1  0  0  0  0
 41 44  1  0  0  0  0
 41 42  1  0  0  0  0
 41 25  1  0  0  0  0
 43 41  1  0  0  0  0
 45 47  1  0  0  0  0
 45 39  1  0  0  0  0
 46 45  1  0  0  0  0
 48 45  1  0  0  0  0
 49 52  1  0  0  0  0
 49 50  1  0  0  0  0
 51 49  1  0  0  0  0
 53 28  2  0  0  0  0
 53 54  1  0  0  0  0
 55 58  1  0  0  0  0
 55 57  1  0  0  0  0
 55 56  1  0  0  0  0
M  END
