2,3,4
q = -2.0, confidence = 0.968

 29 31  0  0  1  0  0  0  0  0999 V2000
   -3.1267   -0.8522   -0.1251 N   0  0  0  0  0  0  0  0  0  0  0  0
   -2.0267   -0.1172    0.0072 N   0  0  0  0  0  2  0  0  0  0  0  0
   -0.0000    1.5242    0.1331 N   0  0  0  0  0  2  0  0  0  0  0  0
    2.0266   -0.1172    0.0068 N   0  0  0  0  0  0  0  0  0  0  0  0
    3.1267   -0.8522   -0.1253 N   0  0  0  0  0  0  0  0  0  0  0  0
   -5.5643   -0.4645   -0.3658 C   0  0  0  0  0  0  0  0  0  0  0  0
   -4.1571    0.0262   -0.1930 C   0  0  0  0  0  0  0  0  0  0  0  0
   -3.7190    1.3632   -0.1013 C   0  0  0  0  0  0  0  0  0  0  0  0
   -4.3266    2.2724   -0.1324 H   0  0  0  0  0  0  0  0  0  0  0  0
   -2.3258    1.2410    0.0263 C   0  0  0  0  0  0  0  0  0  0  0  0
   -1.2036    2.1619    0.0944 C   0  0  2  0  0  3  0  0  0  0  0  0
   -1.2243    3.5701    0.0817 C   0  0  0  0  0  0  0  0  0  0  0  0
   -2.1821    4.1063    0.0586 H   0  0  0  0  0  0  0  0  0  0  0  0
   -0.0001    4.2577    0.0869 C   0  0  0  0  0  0  0  0  0  0  0  0
   -0.0001    5.3579    0.0805 H   0  0  0  0  0  0  0  0  0  0  0  0
    1.2242    3.5701    0.0814 C   0  0  0  0  0  0  0  0  0  0  0  0
    2.1819    4.1063    0.0581 H   0  0  0  0  0  0  0  0  0  0  0  0
    1.2035    2.1620    0.0941 C   0  0  0  0  0  0  0  0  0  0  0  0
    2.3257    1.2411    0.0259 C   0  0  0  0  0  3  0  0  0  0  0  0
    3.7190    1.3632   -0.1016 C   0  0  0  0  0  0  0  0  0  0  0  0
    4.3265    2.2725   -0.1328 H   0  0  0  0  0  0  0  0  0  0  0  0
    4.1571    0.0263   -0.1933 C   0  0  0  0  0  0  0  0  0  0  0  0
    5.5643   -0.4644   -0.3659 C   0  0  0  0  0  0  0  0  0  0  0  0
   -5.9433   -1.2971    0.6288 F   0  0  0  0  0  0  0  0  0  0  0  0
   -6.4281    0.5827   -0.3784 F   0  0  0  0  0  0  0  0  0  0  0  0
   -5.7261   -1.1382   -1.5312 F   0  0  0  0  0  0  0  0  0  0  0  0
    6.4280    0.5829   -0.3786 F   0  0  0  0  0  0  0  0  0  0  0  0
    5.7263   -1.1383   -1.5311 F   0  0  0  0  0  0  0  0  0  0  0  0
    5.9432   -1.2968    0.6289 F   0  0  0  0  0  0  0  0  0  0  0  0
  1  2  1  0  0  0  0
  2 10  1  0  0  0  0
  4 19  1  0  0  0  0
  5  4  2  0  0  0  0
  6  7  1  0  0  0  0
  6 24  1  0  0  0  0
  7  1  2  0  0  0  0
  7  8  1  0  0  0  0
  8 10  2  0  0  0  0
  9  8  1  0  0  0  0
 11 10  1  6  0  0  0
 11  3  1  0  0  0  0
 12 14  2  0  0  0  0
 12 11  1  0  0  0  0
 13 12  1  0  0  0  0
 15 14  1  0  0  0  0
 16 14  1  0  0  0  0
 16 18  2  0  0  0  0
 17 16  1  0  0  0  0
 18  3  1  0  0  0  0
 19 18  1  0  0  0  0
 20 19  1  0  0  0  0
 21 20  1  0  0  0  0
 22  5  1  0  0  0  0
 22 20  2  0  0  0  0
 23 22  1  0  0  0  0
 23 29  1  0  0  0  0
 25  6  1  0  0  0  0
 26  6  1  0  0  0  0
 27 23  1  0  0  0  0
 28 23  1  0  0  0  0
M  END
