2,8,15
q = 0.0, confidence = 0.996

 78 84  0  0  1  0  0  0  0  0999 V2000
    0.1857    0.9328   -0.8086 P   0  0  0  0  0  4  0  0  0  0  0  0
   -0.5202    0.0683    0.3599 N   0  0  0  0  0  2  0  0  0  0  0  0
    0.3938   -0.8685    1.3895 P   0  0  0  0  0  4  0  0  0  0  0  0
    1.9825   -0.4699    1.3807 N   0  0  0  0  0  2  0  0  0  0  0  0
    2.7082    0.2629    0.1278 P   0  0  0  0  0  4  0  0  0  0  0  0
    1.7574    1.1630   -0.9073 N   0  0  0  0  0  2  0  0  0  0  0  0
   -0.6772    2.4378   -0.7795 N   0  0  0  0  0  0  0  0  0  0  0  0
   -2.0230    2.2915   -0.5344 N   0  0  0  0  0  2  0  0  0  0  0  0
   -2.5462    3.5288   -0.5580 C   0  0  2  0  0  3  0  0  0  0  0  0
   -1.5181    4.4745   -0.8317 C   0  0  0  0  0  0  0  0  0  0  0  0
   -0.3310    3.7615   -0.9740 C   0  0  0  0  0  0  0  0  0  0  0  0
   -3.9980    3.7564   -0.2999 C   0  0  0  0  0  0  0  0  0  0  0  0
    1.0580    4.2293   -1.2502 C   0  0  0  0  0  0  0  0  0  0  0  0
   -0.4660    0.2365   -2.2761 N   0  0  0  0  0  0  0  0  0  0  0  0
   -1.7683   -0.1926   -2.1498 N   0  0  0  0  0  2  0  0  0  0  0  0
   -2.1037   -0.7337   -3.3347 C   0  0  1  0  0  3  0  0  0  0  0  0
   -1.0008   -0.6399   -4.2287 C   0  0  0  0  0  0  0  0  0  0  0  0
    0.0353   -0.0142   -3.5382 C   0  0  0  0  0  0  0  0  0  0  0  0
   -3.4566   -1.3251   -3.5491 C   0  0  0  0  0  0  0  0  0  0  0  0
    1.4213    0.3307   -3.9675 C   0  0  0  0  0  0  0  0  0  0  0  0
   -0.2408   -0.6766    3.0641 C   0  0  0  0  0  0  0  0  0  0  0  0
    0.4770    0.0891    4.0021 C   0  0  0  0  0  0  0  0  0  0  0  0
   -0.0788    0.3224    5.2679 C   0  0  0  0  0  0  0  0  0  0  0  0
   -1.3464   -0.1947    5.5843 C   0  0  0  0  0  0  0  0  0  0  0  0
   -2.0586   -0.9572    4.6445 C   0  0  0  0  0  0  0  0  0  0  0  0
   -1.5061   -1.2112    3.3819 C   0  0  0  0  0  0  0  0  0  0  0  0
    0.1709   -2.6068    0.9076 C   0  0  0  0  0  0  0  0  0  0  0  0
   -0.3518   -2.9337   -0.3573 C   0  0  0  0  0  0  0  0  0  0  0  0
   -0.3858   -4.2739   -0.7680 C   0  0  0  0  0  0  0  0  0  0  0  0
    0.1028   -5.2833    0.0759 C   0  0  0  0  0  0  0  0  0  0  0  0
    0.6193   -4.9570    1.3422 C   0  0  0  0  0  0  0  0  0  0  0  0
    0.6524   -3.6202    1.7622 C   0  0  0  0  0  0  0  0  0  0  0  0
    3.9645    1.3977    0.7803 C   0  0  0  0  0  0  0  0  0  0  0  0
    4.3396    2.5475    0.0585 C   0  0  0  0  0  0  0  0  0  0  0  0
    5.3295    3.3989    0.5721 C   0  0  0  0  0  0  0  0  0  0  0  0
    5.9400    3.1060    1.8024 C   0  0  0  0  0  0  0  0  0  0  0  0
    5.5598    1.9621    2.5242 C   0  0  0  0  0  0  0  0  0  0  0  0
    4.5729    1.1051    2.0165 C   0  0  0  0  0  0  0  0  0  0  0  0
    3.5856   -0.9601   -0.9074 C   0  0  0  0  0  0  0  0  0  0  0  0
    4.4360   -0.5395   -1.9511 C   0  0  0  0  0  0  0  0  0  0  0  0
    5.0344   -1.4897   -2.7899 C   0  0  0  0  0  0  0  0  0  0  0  0
    4.7851   -2.8594   -2.5932 C   0  0  0  0  0  0  0  0  0  0  0  0
    3.9458   -3.2782   -1.5495 C   0  0  0  0  0  0  0  0  0  0  0  0
    3.3499   -2.3320   -0.7013 C   0  0  0  0  0  0  0  0  0  0  0  0
   -1.6289    5.5616   -0.9061 H   0  0  0  0  0  0  0  0  0  0  0  0
   -4.2820    3.3516    0.6925 H   0  0  0  0  0  0  0  0  0  0  0  0
   -4.6224    3.2219   -1.0432 H   0  0  0  0  0  0  0  0  0  0  0  0
   -4.2381    4.8351   -0.3343 H   0  0  0  0  0  0  0  0  0  0  0  0
    1.4833    3.7550   -2.1583 H   0  0  0  0  0  0  0  0  0  0  0  0
    1.7442    3.9857   -0.4141 H   0  0  0  0  0  0  0  0  0  0  0  0
    1.0534    5.3250   -1.3965 H   0  0  0  0  0  0  0  0  0  0  0  0
   -0.9617   -0.9959   -5.2638 H   0  0  0  0  0  0  0  0  0  0  0  0
   -3.5110   -1.8418   -4.5252 H   0  0  0  0  0  0  0  0  0  0  0  0
   -4.2428   -0.5442   -3.5115 H   0  0  0  0  0  0  0  0  0  0  0  0
   -3.6960   -2.0408   -2.7369 H   0  0  0  0  0  0  0  0  0  0  0  0
    1.6468    1.4057   -3.8160 H   0  0  0  0  0  0  0  0  0  0  0  0
    1.5428    0.0943   -5.0406 H   0  0  0  0  0  0  0  0  0  0  0  0
    2.1825   -0.2359   -3.3939 H   0  0  0  0  0  0  0  0  0  0  0  0
    1.4611    0.4955    3.7233 H   0  0  0  0  0  0  0  0  0  0  0  0
    0.4756    0.9181    6.0089 H   0  0  0  0  0  0  0  0  0  0  0  0
   -1.7866    0.0032    6.5736 H   0  0  0  0  0  0  0  0  0  0  0  0
   -3.0577   -1.3465    4.8873 H   0  0  0  0  0  0  0  0  0  0  0  0
   -2.0650   -1.7984    2.6379 H   0  0  0  0  0  0  0  0  0  0  0  0
   -0.7604   -2.1400   -0.9984 H   0  0  0  0  0  0  0  0  0  0  0  0
   -0.8100   -4.5289   -1.7505 H   0  0  0  0  0  0  0  0  0  0  0  0
    0.0695   -6.3348   -0.2478 H   0  0  0  0  0  0  0  0  0  0  0  0
    0.9909   -5.7502    2.0084 H   0  0  0  0  0  0  0  0  0  0  0  0
    1.0538   -3.3592    2.7540 H   0  0  0  0  0  0  0  0  0  0  0  0
    3.8390    2.7767   -0.8941 H   0  0  0  0  0  0  0  0  0  0  0  0
    5.6208    4.3005    0.0123 H   0  0  0  0  0  0  0  0  0  0  0  0
    6.7136    3.7774    2.2050 H   0  0  0  0  0  0  0  0  0  0  0  0
    6.0323    1.7391    3.4927 H   0  0  0  0  0  0  0  0  0  0  0  0
    4.2536    0.2124    2.5755 H   0  0  0  0  0  0  0  0  0  0  0  0
    4.6321    0.5325   -2.1075 H   0  0  0  0  0  0  0  0  0  0  0  0
    5.6995   -1.1611   -3.6029 H   0  0  0  0  0  0  0  0  0  0  0  0
    5.2532   -3.6029   -3.2561 H   0  0  0  0  0  0  0  0  0  0  0  0
    3.7491   -4.3491   -1.3894 H   0  0  0  0  0  0  0  0  0  0  0  0
    2.6959   -2.6522    0.1224 H   0  0  0  0  0  0  0  0  0  0  0  0
  1  7  1  0  0  0  0
  1  2  1  0  0  0  0
  2  3  1  0  0  0  0
  3 21  1  0  0  0  0
  4  3  1  0  0  0  0
  5 33  1  0  0  0  0
  5  4  1  0  0  0  0
  6  1  1  0  0  0  0
  6  5  1  0  0  0  0
  7  8  1  0  0  0  0
  9  8  1  0  0  0  0
  9 12  1  1  0  0  0
 10  9  1  0  0  0  0
 11 10  2  0  0  0  0
 11  7  1  0  0  0  0
 12 46  1  0  0  0  0
 13 11  1  0  0  0  0
 13 50  1  0  0  0  0
 14 15  1  0  0  0  0
 14  1  1  0  0  0  0
 16 19  1  1  0  0  0
 16 15  1  0  0  0  0
 17 18  2  0  0  0  0
 17 16  1  0  0  0  0
 18 14  1  0  0  0  0
 19 54  1  0  0  0  0
 19 55  1  0  0  0  0
 20 56  1  0  0  0  0
 20 18  1  0  0  0  0
 20 58  1  0  0  0  0
 21 26  2  0  0  0  0
 21 22  1  0  0  0  0
 22 23  2  0  0  0  0
 23 24  1  0  0  0  0
 23 60  1  0  0  0  0
 24 61  1  0  0  0  0
 25 62  1  0  0  0  0
 25 24  2  0  0  0  0
 26 25  1  0  0  0  0
 27  3  1  0  0  0  0
 27 32  1  0  0  0  0
 28 27  2  0  0  0  0
 29 28  1  0  0  0  0
 29 30  2  0  0  0  0
 30 31  1  0  0  0  0
 31 32  2  0  0  0  0
 31 67  1  0  0  0  0
 32 68  1  0  0  0  0
 33 38  1  0  0  0  0
 34 35  1  0  0  0  0
 34 33  2  0  0  0  0
 35 36  2  0  0  0  0
 36 71  1  0  0  0  0
 36 37  1  0  0  0  0
 37 72  1  0  0  0  0
 38 37  2  0  0  0  0
 38 73  1  0  0  0  0
 39 44  1  0  0  0  0
 39  5  1  0  0  0  0
 40 39  2  0  0  0  0
 41 42  2  0  0  0  0
 41 40  1  0  0  0  0
 42 43  1  0  0  0  0
 43 77  1  0  0  0  0
 43 44  2  0  0  0  0
 44 78  1  0  0  0  0
 45 10  1  0  0  0  0
 47 12  1  0  0  0  0
 48 12  1  0  0  0  0
 49 13  1  0  0  0  0
 51 13  1  0  0  0  0
 52 17  1  0  0  0  0
 53 19  1  0  0  0  0
 57 20  1  0  0  0  0
 59 22  1  0  0  0  0
 63 26  1  0  0  0  0
 64 28  1  0  0  0  0
 65 29  1  0  0  0  0
 66 30  1  0  0  0  0
 69 34  1  0  0  0  0
 70 35  1  0  0  0  0
 74 40  1  0  0  0  0
 75 41  1  0  0  0  0
 76 42  1  0  0  0  0
M  END
