1,2,3
q = -1.0, confidence = 0.02

 32 34  0  0  1  0  0  0  0  0999 V2000
   -1.1813   -2.1714    0.4683 N   0  0  0  0  0  2  0  0  0  0  0  0
   -1.0465   -0.7377   -1.7230 N   0  0  0  0  0  2  0  0  0  0  0  0
    1.0672    1.0203   -0.6485 N   0  0  0  0  0  0  0  0  0  0  0  0
    2.2969    1.2796   -0.1776 N   0  0  0  0  0  2  0  0  0  0  0  0
   -1.2429   -2.8150    1.6620 C   0  0  0  0  0  3  0  0  0  0  0  0
   -0.6836   -2.3494    2.4859 H   0  0  0  0  0  0  0  0  0  0  0  0
   -1.9664   -3.9923    1.8453 C   0  0  0  0  0  0  0  0  0  0  0  0
   -1.9827   -4.4676    2.8362 H   0  0  0  0  0  0  0  0  0  0  0  0
   -2.6659   -4.5418    0.7557 C   0  0  0  0  0  0  0  0  0  0  0  0
   -3.2463   -5.4688    0.8657 H   0  0  0  0  0  0  0  0  0  0  0  0
   -2.6163   -3.8773   -0.4729 C   0  0  0  0  0  0  0  0  0  0  0  0
   -3.1621   -4.2758   -1.3385 H   0  0  0  0  0  0  0  0  0  0  0  0
   -1.8755   -2.6884   -0.6011 C   0  0  0  0  0  0  0  0  0  0  0  0
   -1.7917   -1.8908   -1.8306 C   0  0  1  0  0  3  0  0  0  0  0  0
   -2.4379   -2.2383   -3.0282 C   0  0  0  0  0  0  0  0  0  0  0  0
   -3.0114   -3.1720   -3.0929 H   0  0  0  0  0  0  0  0  0  0  0  0
   -2.3503   -1.3799   -4.1263 C   0  0  0  0  0  0  0  0  0  0  0  0
   -2.8362   -1.6363   -5.0787 H   0  0  0  0  0  0  0  0  0  0  0  0
   -1.6616   -0.1697   -3.9752 C   0  0  0  0  0  0  0  0  0  0  0  0
   -1.6184    0.5592   -4.7967 H   0  0  0  0  0  0  0  0  0  0  0  0
   -1.0350    0.1504   -2.7592 C   0  0  0  0  0  0  0  0  0  0  0  0
   -0.4655    1.5326   -2.5486 C   0  0  0  0  0  0  0  0  0  0  0  0
   -1.2547    2.0523   -1.9509 H   0  0  0  0  0  0  0  0  0  0  0  0
   -0.4051    2.0457   -3.5258 H   0  0  0  0  0  0  0  0  0  0  0  0
    0.8487    1.6473   -1.8409 C   0  0  0  0  0  0  0  0  0  0  0  0
    2.0059    2.3721   -2.1611 C   0  0  0  0  0  0  0  0  0  0  0  0
    2.1878    3.0076   -3.0334 H   0  0  0  0  0  0  0  0  0  0  0  0
    2.8750    2.0987   -1.0787 C   0  0  0  0  0  0  0  0  0  0  0  0
    4.2774    2.5655   -0.8691 C   0  0  0  0  0  0  0  0  0  0  0  0
    4.7071    3.3036   -1.9249 F   0  0  0  0  0  0  0  0  0  0  0  0
    5.1468    1.5240   -0.7275 F   0  0  0  0  0  0  0  0  0  0  0  0
    4.4219    3.3317    0.2421 F   0  0  0  0  0  0  0  0  0  0  0  0
  1  5  1  0  0  0  0
  3  4  1  0  0  0  0
  5  7  1  0  0  0  0
  5  6  1  0  0  0  0
  7  8  1  0  0  0  0
  9 10  1  0  0  0  0
  9  7  2  0  0  0  0
 11  9  1  0  0  0  0
 12 11  1  0  0  0  0
 13 11  2  0  0  0  0
 13  1  1  0  0  0  0
 14  2  1  0  0  0  0
 14 13  1  1  0  0  0
 15 14  1  0  0  0  0
 16 15  1  0  0  0  0
 17 19  1  0  0  0  0
 17 15  2  0  0  0  0
 18 17  1  0  0  0  0
 19 21  2  0  0  0  0
 20 19  1  0  0  0  0
 21 22  1  0  0  0  0
 21  2  1  0  0  0  0
 22 23  1  0  0  0  0
 22 25  1  0  0  0  0
 24 22  1  0  0  0  0
 25  3  2  0  0  0  0
 26 25  1  0  0  0  0
 26 28  2  0  0  0  0
 27 26  1  0  0  0  0
 28 29  1  0  0  0  0
 28  4  1  0  0  0  0
 29 31  1  0  0  0  0
 29 32  1  0  0  0  0
 30 29  1  0  0  0  0
M  END
