1,2,4
q = 0.0, confidence = 0.998

 28 27  0  0  0  0  0  0  0  0999 V2000
    0.8783   -0.9870   -0.4882 N   0  0  0  0  0  0  0  0  0  0  0  0
   -1.3400   -1.1010    1.0751 N   0  0  0  0  0  0  0  0  0  0  0  0
    2.6363    1.4028    0.9399 N   0  0  0  0  0  0  0  0  0  0  0  0
    0.5347    1.5909   -0.8950 N   0  0  0  0  0  0  0  0  0  0  0  0
   -0.5102   -2.3251    1.0175 C   0  0  0  0  0  0  0  0  0  0  0  0
    0.1750   -2.3023   -0.3405 C   0  0  0  0  0  0  0  0  0  0  0  0
    2.1987   -0.9813    0.2477 C   0  0  0  0  0  0  0  0  0  0  0  0
    2.3428    0.0354    1.3875 C   0  0  0  0  0  0  0  0  0  0  0  0
    0.9983   -0.5753   -1.9219 C   0  0  0  0  0  0  0  0  0  0  0  0
    1.3009    0.9194   -1.9810 C   0  0  0  0  0  0  0  0  0  0  0  0
   -1.6644   -0.8646    2.0238 H   0  0  0  0  0  0  0  0  0  0  0  0
   -2.1888   -1.1817    0.4566 H   0  0  0  0  0  0  0  0  0  0  0  0
    3.6036    1.4650    0.5930 H   0  0  0  0  0  0  0  0  0  0  0  0
    2.5919    2.0459    1.7420 H   0  0  0  0  0  0  0  0  0  0  0  0
   -0.0715    2.3607   -1.2110 H   0  0  0  0  0  0  0  0  0  0  0  0
    1.2467    1.9357   -0.1952 H   0  0  0  0  0  0  0  0  0  0  0  0
    0.2320   -2.3022    1.8418 H   0  0  0  0  0  0  0  0  0  0  0  0
   -1.1105   -3.2512    1.1440 H   0  0  0  0  0  0  0  0  0  0  0  0
   -0.5941   -2.3586   -1.1362 H   0  0  0  0  0  0  0  0  0  0  0  0
    0.8774   -3.1520   -0.4800 H   0  0  0  0  0  0  0  0  0  0  0  0
    2.3454   -1.9921    0.6768 H   0  0  0  0  0  0  0  0  0  0  0  0
    3.0147   -0.8462   -0.4934 H   0  0  0  0  0  0  0  0  0  0  0  0
    3.1203   -0.3672    2.0785 H   0  0  0  0  0  0  0  0  0  0  0  0
    1.3909    0.0561    1.9604 H   0  0  0  0  0  0  0  0  0  0  0  0
    1.7643   -1.1842   -2.4530 H   0  0  0  0  0  0  0  0  0  0  0  0
    0.0150   -0.7764   -2.3904 H   0  0  0  0  0  0  0  0  0  0  0  0
    1.0360    1.3233   -2.9767 H   0  0  0  0  0  0  0  0  0  0  0  0
    2.3813    1.1186   -1.8242 H   0  0  0  0  0  0  0  0  0  0  0  0
  1  6  1  0  0  0  0
  1  7  1  0  0  0  0
  2 11  1  0  0  0  0
  3  8  1  0  0  0  0
  3 14  1  0  0  0  0
  4 16  1  0  0  0  0
  5  2  1  0  0  0  0
  5 18  1  0  0  0  0
  5 17  1  0  0  0  0
  6  5  1  0  0  0  0
  7 21  1  0  0  0  0
  7  8  1  0  0  0  0
  8 24  1  0  0  0  0
  8 23  1  0  0  0  0
  9  1  1  0  0  0  0
 10  9  1  0  0  0  0
 10 28  1  0  0  0  0
 10  4  1  0  0  0  0
 12  2  1  0  0  0  0
 13  3  1  0  0  0  0
 15  4  1  0  0  0  0
 19  6  1  0  0  0  0
 20  6  1  0  0  0  0
 22  7  1  0  0  0  0
 25  9  1  0  0  0  0
 26  9  1  0  0  0  0
 27 10  1  0  0  0  0
M  END
