2,8,15
q = 0.0, confidence = 0.974

 58 62  0  0  1  0  0  0  0  0999 V2000
   -0.9547   -0.8530   -0.0079 P   0  0  2  0  0  4  0  0  0  0  0  0
   -0.2644    0.6015   -0.1887 N   0  0  0  0  0  2  0  0  0  0  0  0
   -1.1332    1.9872    0.0548 P   0  0  1  0  0  4  0  0  0  0  0  0
   -2.7305    1.7162   -0.0013 N   0  0  0  0  0  2  0  0  0  0  0  0
   -3.4732    0.2959    0.1247 P   0  0  1  0  0  4  0  0  0  0  0  0
   -2.5362   -1.0528   -0.0402 N   0  0  0  0  0  2  0  0  0  0  0  0
   -0.2369   -1.4814    1.4455 N   0  0  0  0  0  0  0  0  0  0  0  0
    1.0862   -1.1275    1.5959 N   0  0  0  0  0  2  0  0  0  0  0  0
    1.4778   -1.6325    2.7790 C   0  0  2  0  0  3  0  0  0  0  0  0
    0.3891   -2.3206    3.3853 C   0  0  0  0  0  0  0  0  0  0  0  0
   -0.6987   -2.2149    2.5223 C   0  0  0  0  0  0  0  0  0  0  0  0
    2.8630   -1.4069    3.2842 C   0  0  0  0  0  0  0  0  0  0  0  0
   -2.0967   -2.7242    2.6356 C   0  0  0  0  0  0  0  0  0  0  0  0
   -0.1631   -1.8092   -1.2114 N   0  0  0  0  0  0  0  0  0  0  0  0
    1.1725   -1.5003   -1.3559 N   0  0  0  0  0  2  0  0  0  0  0  0
    1.6492   -2.3326   -2.2990 C   0  0  1  0  0  3  0  0  0  0  0  0
    0.6050   -3.1890   -2.7489 C   0  0  0  0  0  0  0  0  0  0  0  0
   -0.5440   -2.8478   -2.0405 C   0  0  0  0  0  0  0  0  0  0  0  0
    3.0730   -2.2559   -2.7363 C   0  0  0  0  0  0  0  0  0  0  0  0
   -1.9274   -3.4029   -2.0876 C   0  0  0  0  0  0  0  0  0  0  0  0
   -0.6545    2.6959    1.4402 O   0  0  0  0  0  0  0  0  0  0  0  0
   -0.0183    3.9776    1.2061 C   0  0  0  0  0  0  0  0  0  0  0  0
    0.3623    4.0431   -0.2823 C   0  0  0  0  0  0  0  0  0  0  0  0
   -0.6466    3.2210   -0.9576 N   0  0  0  0  0  0  0  0  0  0  0  0
   -0.5567    3.0367   -2.3982 C   0  0  0  0  0  0  0  0  0  0  0  0
   -4.3251    0.1002    1.5231 O   0  0  0  0  0  0  0  0  0  0  0  0
   -5.7453    0.1359    1.2847 C   0  0  0  0  0  0  0  0  0  0  0  0
   -5.9645   -0.3299   -0.1609 C   0  0  0  0  0  0  0  0  0  0  0  0
   -4.8284    0.2375   -0.8726 N   0  0  0  0  0  0  0  0  0  0  0  0
   -4.7039    0.0757   -2.3054 C   0  0  0  0  0  0  0  0  0  0  0  0
    0.3940   -2.8288    4.3555 H   0  0  0  0  0  0  0  0  0  0  0  0
    3.6145   -1.7598    2.5501 H   0  0  0  0  0  0  0  0  0  0  0  0
    3.0499   -0.3218    3.4193 H   0  0  0  0  0  0  0  0  0  0  0  0
    3.0210   -1.9250    4.2480 H   0  0  0  0  0  0  0  0  0  0  0  0
   -2.8399   -1.9028    2.5834 H   0  0  0  0  0  0  0  0  0  0  0  0
   -2.3469   -3.4282    1.8149 H   0  0  0  0  0  0  0  0  0  0  0  0
   -2.2166   -3.2561    3.5972 H   0  0  0  0  0  0  0  0  0  0  0  0
    0.6812   -3.9686   -3.5144 H   0  0  0  0  0  0  0  0  0  0  0  0
    3.2747   -2.9768   -3.5499 H   0  0  0  0  0  0  0  0  0  0  0  0
    3.3123   -1.2307   -3.0852 H   0  0  0  0  0  0  0  0  0  0  0  0
    3.7600   -2.4594   -1.8906 H   0  0  0  0  0  0  0  0  0  0  0  0
   -1.9681   -4.2307   -2.8189 H   0  0  0  0  0  0  0  0  0  0  0  0
   -2.2522   -3.7898   -1.1000 H   0  0  0  0  0  0  0  0  0  0  0  0
   -2.6692   -2.6315   -2.3785 H   0  0  0  0  0  0  0  0  0  0  0  0
   -0.7447    4.7714    1.4795 H   0  0  0  0  0  0  0  0  0  0  0  0
    0.8744    4.0271    1.8565 H   0  0  0  0  0  0  0  0  0  0  0  0
    1.3876    3.6454   -0.4577 H   0  0  0  0  0  0  0  0  0  0  0  0
    0.3185    5.0876   -0.6574 H   0  0  0  0  0  0  0  0  0  0  0  0
   -1.3159    2.2974   -2.7218 H   0  0  0  0  0  0  0  0  0  0  0  0
    0.4486    2.6795   -2.7112 H   0  0  0  0  0  0  0  0  0  0  0  0
   -0.7770    3.9936   -2.9161 H   0  0  0  0  0  0  0  0  0  0  0  0
   -6.1121    1.1756    1.4252 H   0  0  0  0  0  0  0  0  0  0  0  0
   -6.2323   -0.5264    2.0258 H   0  0  0  0  0  0  0  0  0  0  0  0
   -5.9948   -1.4459   -0.2317 H   0  0  0  0  0  0  0  0  0  0  0  0
   -6.9201    0.0640   -0.5686 H   0  0  0  0  0  0  0  0  0  0  0  0
   -3.7933    0.6013   -2.6554 H   0  0  0  0  0  0  0  0  0  0  0  0
   -4.6345   -0.9937   -2.6179 H   0  0  0  0  0  0  0  0  0  0  0  0
   -5.5726    0.5341   -2.8223 H   0  0  0  0  0  0  0  0  0  0  0  0
  1 14  1  6  0  0  0
  1  7  1  0  0  0  0
  2  1  1  0  0  0  0
  3  2  1  6  0  0  0
  3 21  1  0  0  0  0
  4  3  1  0  0  0  0
  4  5  1  0  0  0  0
  5  6  1  6  0  0  0
  5 26  1  0  0  0  0
  6  1  1  0  0  0  0
  7  8  1  0  0  0  0
  7 11  1  0  0  0  0
  8  9  1  0  0  0  0
  9 12  1  1  0  0  0
  9 10  1  0  0  0  0
 10 31  1  0  0  0  0
 11 13  1  0  0  0  0
 11 10  2  0  0  0  0
 12 33  1  0  0  0  0
 12 34  1  0  0  0  0
 13 37  1  0  0  0  0
 15 14  1  0  0  0  0
 16 19  1  6  0  0  0
 16 15  1  0  0  0  0
 17 16  1  0  0  0  0
 17 18  2  0  0  0  0
 18 14  1  0  0  0  0
 19 41  1  0  0  0  0
 20 18  1  0  0  0  0
 20 43  1  0  0  0  0
 22 21  1  0  0  0  0
 22 45  1  0  0  0  0
 22 46  1  0  0  0  0
 23 22  1  0  0  0  0
 24 23  1  0  0  0  0
 24  3  1  0  0  0  0
 25 24  1  0  0  0  0
 27 52  1  0  0  0  0
 27 26  1  0  0  0  0
 27 53  1  0  0  0  0
 28 27  1  0  0  0  0
 29 28  1  0  0  0  0
 29  5  1  0  0  0  0
 30 29  1  0  0  0  0
 32 12  1  0  0  0  0
 35 13  1  0  0  0  0
 36 13  1  0  0  0  0
 38 17  1  0  0  0  0
 39 19  1  0  0  0  0
 40 19  1  0  0  0  0
 42 20  1  0  0  0  0
 44 20  1  0  0  0  0
 47 23  1  0  0  0  0
 48 23  1  0  0  0  0
 49 25  1  0  0  0  0
 50 25  1  0  0  0  0
 51 25  1  0  0  0  0
 54 28  1  0  0  0  0
 55 28  1  0  0  0  0
 56 30  1  0  0  0  0
 57 30  1  0  0  0  0
 58 30  1  0  0  0  0
M  END
