1,2,3
q = 0.0, confidence = 0.99

 69 72  0  0  1  0  0  0  0  0999 V2000
   -2.6334   -1.8594    0.0194 N   0  0  0  0  0  2  0  0  0  0  0  0
   -0.3649   -2.1432    2.0035 N   0  0  0  0  0  2  0  0  0  0  0  0
    0.0777   -2.9802   -0.8184 N   0  0  0  0  0  2  0  0  0  0  0  0
   -2.8448   -3.2522    0.3861 C   0  0  2  0  0  0  0  0  0  0  0  0
   -3.9314   -3.5027    0.2978 H   0  0  0  0  0  0  0  0  0  0  0  0
   -2.4341   -3.4964    1.8579 C   0  0  0  0  0  0  0  0  0  0  0  0
   -2.8205   -4.4946    2.1550 H   0  0  0  0  0  0  0  0  0  0  0  0
   -2.9287   -2.7474    2.5086 H   0  0  0  0  0  0  0  0  0  0  0  0
   -0.9122   -3.4885    2.1185 C   0  0  1  0  0  0  0  0  0  0  0  0
   -0.7410   -3.8743    3.1539 H   0  0  0  0  0  0  0  0  0  0  0  0
   -0.2050   -4.4540    1.1411 C   0  0  0  0  0  0  0  0  0  0  0  0
    0.8922   -4.4007    1.2912 H   0  0  0  0  0  0  0  0  0  0  0  0
   -0.5224   -5.4871    1.3982 H   0  0  0  0  0  0  0  0  0  0  0  0
   -0.5369   -4.2150   -0.3502 C   0  0  1  0  0  0  0  0  0  0  0  0
   -0.1229   -5.0803   -0.9249 H   0  0  0  0  0  0  0  0  0  0  0  0
   -2.0667   -4.1948   -0.5606 C   0  0  0  0  0  0  0  0  0  0  0  0
   -2.4423   -5.2265   -0.3925 H   0  0  0  0  0  0  0  0  0  0  0  0
   -2.2943   -3.9316   -1.6130 H   0  0  0  0  0  0  0  0  0  0  0  0
   -3.6560   -1.0907   -0.2247 C   0  0  0  0  0  0  0  0  0  0  0  0
   -4.6928   -1.5021   -0.1699 H   0  0  0  0  0  0  0  0  0  0  0  0
   -3.4674    0.2960   -0.5566 C   0  0  0  0  0  0  0  0  0  0  0  0
   -2.4103    0.6207   -0.5864 H   0  0  0  0  0  0  0  0  0  0  0  0
   -4.4829    1.1734   -0.8037 C   0  0  0  0  0  3  0  0  0  0  0  0
   -5.5256    0.8070   -0.7651 H   0  0  0  0  0  0  0  0  0  0  0  0
   -4.3159    2.5889   -1.1207 C   0  0  0  0  0  0  0  0  0  0  0  0
   -5.4592    3.3792   -1.3956 C   0  0  0  0  0  0  0  0  0  0  0  0
   -6.4545    2.9075   -1.3640 H   0  0  0  0  0  0  0  0  0  0  0  0
   -5.3403    4.7395   -1.7061 C   0  0  0  0  0  0  0  0  0  0  0  0
   -6.2414    5.3354   -1.9174 H   0  0  0  0  0  0  0  0  0  0  0  0
   -4.0719    5.3401   -1.7466 C   0  0  0  0  0  0  0  0  0  0  0  0
   -3.9738    6.4093   -1.9893 H   0  0  0  0  0  0  0  0  0  0  0  0
   -2.9267    4.5691   -1.4732 C   0  0  0  0  0  0  0  0  0  0  0  0
   -1.9301    5.0355   -1.5010 H   0  0  0  0  0  0  0  0  0  0  0  0
   -3.0392    3.2108   -1.1629 C   0  0  0  0  0  0  0  0  0  0  0  0
   -2.1298    2.6260   -0.9471 H   0  0  0  0  0  0  0  0  0  0  0  0
    0.3256   -1.6393    2.9880 C   0  0  0  0  0  0  0  0  0  0  0  0
    0.4775   -2.2291    3.9234 H   0  0  0  0  0  0  0  0  0  0  0  0
    0.9077   -0.3298    2.8808 C   0  0  0  0  0  0  0  0  0  0  0  0
    0.7124    0.1815    1.9189 H   0  0  0  0  0  0  0  0  0  0  0  0
    1.6597    0.2603    3.8553 C   0  0  0  0  0  3  0  0  0  0  0  0
    1.8318   -0.2858    4.8015 H   0  0  0  0  0  0  0  0  0  0  0  0
    2.2775    1.5793    3.7586 C   0  0  0  0  0  0  0  0  0  0  0  0
    3.0206    2.0815    4.8555 C   0  0  0  0  0  0  0  0  0  0  0  0
    3.1160    1.4641    5.7631 H   0  0  0  0  0  0  0  0  0  0  0  0
    3.6291    3.3414    4.8003 C   0  0  0  0  0  0  0  0  0  0  0  0
    4.2019    3.7130    5.6637 H   0  0  0  0  0  0  0  0  0  0  0  0
    3.5074    4.1274    3.6433 C   0  0  0  0  0  0  0  0  0  0  0  0
    3.9849    5.1181    3.5952 H   0  0  0  0  0  0  0  0  0  0  0  0
    2.7732    3.6422    2.5450 C   0  0  0  0  0  0  0  0  0  0  0  0
    2.6759    4.2539    1.6350 H   0  0  0  0  0  0  0  0  0  0  0  0
    2.1634    2.3854    2.5941 C   0  0  0  0  0  0  0  0  0  0  0  0
    1.5948    2.0229    1.7216 H   0  0  0  0  0  0  0  0  0  0  0  0
    1.1265   -3.0339   -1.5905 C   0  0  0  0  0  0  0  0  0  0  0  0
    1.5281   -4.0213   -1.9230 H   0  0  0  0  0  0  0  0  0  0  0  0
    1.7921   -1.8299   -2.0070 C   0  0  0  0  0  0  0  0  0  0  0  0
    1.3322   -0.8971   -1.6292 H   0  0  0  0  0  0  0  0  0  0  0  0
    2.9198   -1.8004   -2.7755 C   0  0  0  0  0  3  0  0  0  0  0  0
    3.3470   -2.7558   -3.1333 H   0  0  0  0  0  0  0  0  0  0  0  0
    3.6368   -0.5927   -3.1733 C   0  0  0  0  0  0  0  0  0  0  0  0
    4.7677   -0.7021   -4.0198 C   0  0  0  0  0  0  0  0  0  0  0  0
    5.0827   -1.7005   -4.3635 H   0  0  0  0  0  0  0  0  0  0  0  0
    5.4817    0.4331   -4.4228 C   0  0  0  0  0  0  0  0  0  0  0  0
    6.3570    0.3260   -5.0818 H   0  0  0  0  0  0  0  0  0  0  0  0
    5.0801    1.7050   -3.9844 C   0  0  0  0  0  0  0  0  0  0  0  0
    5.6398    2.5998   -4.2972 H   0  0  0  0  0  0  0  0  0  0  0  0
    3.9607    1.8299   -3.1406 C   0  0  0  0  0  0  0  0  0  0  0  0
    3.6438    2.8244   -2.7908 H   0  0  0  0  0  0  0  0  0  0  0  0
    3.2437    0.7006   -2.7353 C   0  0  0  0  0  0  0  0  0  0  0  0
    2.3741    0.8198   -2.0678 H   0  0  0  0  0  0  0  0  0  0  0  0
  1  4  1  0  0  0  0
  2  9  1  0  0  0  0
  2 36  1  0  0  0  0
  3 14  1  0  0  0  0
  4  5  1  6  0  0  0
  4  6  1  0  0  0  0
  6  9  1  0  0  0  0
  6  7  1  0  0  0  0
  6  8  1  0  0  0  0
  9 10  1  1  0  0  0
 11 12  1  0  0  0  0
 11 13  1  0  0  0  0
 11  9  1  0  0  0  0
 14 15  1  6  0  0  0
 14 11  1  0  0  0  0
 16 17  1  0  0  0  0
 16 14  1  0  0  0  0
 16  4  1  0  0  0  0
 18 16  1  0  0  0  0
 19 20  1  0  0  0  0
 19  1  1  0  0  0  0
 21 19  2  0  0  0  0
 22 21  1  0  0  0  0
 23 24  1  0  0  0  0
 23 21  1  0  0  0  0
 25 23  1  0  0  0  0
 26 27  1  0  0  0  0
 26 25  2  0  0  0  0
 28 26  1  0  0  0  0
 29 28  1  0  0  0  0
 30 28  2  0  0  0  0
 30 32  1  0  0  0  0
 31 30  1  0  0  0  0
 32 34  2  0  0  0  0
 33 32  1  0  0  0  0
 34 25  1  0  0  0  0
 34 35  1  0  0  0  0
 36 37  1  0  0  0  0
 38 36  2  0  0  0  0
 38 40  1  0  0  0  0
 39 38  1  0  0  0  0
 40 41  1  0  0  0  0
 42 40  1  0  0  0  0
 42 43  1  0  0  0  0
 43 44  1  0  0  0  0
 45 43  2  0  0  0  0
 45 46  1  0  0  0  0
 47 45  1  0  0  0  0
 48 47  1  0  0  0  0
 49 51  1  0  0  0  0
 49 47  2  0  0  0  0
 50 49  1  0  0  0  0
 51 42  2  0  0  0  0
 52 51  1  0  0  0  0
 53  3  1  0  0  0  0
 54 53  1  0  0  0  0
 55 56  1  0  0  0  0
 55 53  2  0  0  0  0
 57 55  1  0  0  0  0
 58 57  1  0  0  0  0
 59 57  1  0  0  0  0
 59 68  1  0  0  0  0
 60 59  2  0  0  0  0
 61 60  1  0  0  0  0
 62 60  1  0  0  0  0
 62 64  2  0  0  0  0
 63 62  1  0  0  0  0
 64 66  1  0  0  0  0
 65 64  1  0  0  0  0
 66 67  1  0  0  0  0
 66 68  2  0  0  0  0
 68 69  1  0  0  0  0
M  END
