2,3,4
q = 0.0, confidence = 0.94

 51 54  0  0  1  0  0  0  0  0999 V2000
    1.5795   -0.1458    0.0189 Si  0  0  2  0  0  0  0  0  0  0  0  0
   -0.3179    1.9467   -0.0605 N   0  0  0  0  0  2  0  0  0  0  0  0
   -0.4529   -1.0340   -1.6412 N   0  0  0  0  0  2  0  0  0  0  0  0
   -0.4786   -0.8708    1.7436 N   0  0  0  0  0  2  0  0  0  0  0  0
    1.0086    1.6465   -0.2142 C   0  0  1  0  0  3  0  0  0  0  0  0
    1.9794    2.6262   -0.4929 C   0  0  0  0  0  0  0  0  0  0  0  0
    3.0294    2.3290   -0.6205 H   0  0  0  0  0  0  0  0  0  0  0  0
    1.5960    3.9666   -0.5954 C   0  0  0  0  0  0  0  0  0  0  0  0
    2.3303    4.7537   -0.8238 H   0  0  0  0  0  0  0  0  0  0  0  0
    0.2523    4.2765   -0.3754 C   0  0  0  0  0  0  0  0  0  0  0  0
   -0.0957    5.3188   -0.4119 H   0  0  0  0  0  0  0  0  0  0  0  0
   -0.6906    3.2662   -0.1020 C   0  0  0  0  0  0  0  0  0  0  0  0
   -2.1109    3.6665    0.1569 C   0  0  0  0  0  0  0  0  0  0  0  0
   -2.4540    3.3008    1.1427 H   0  0  0  0  0  0  0  0  0  0  0  0
   -2.8017    3.2382   -0.5930 H   0  0  0  0  0  0  0  0  0  0  0  0
   -2.2056    4.7680    0.1343 H   0  0  0  0  0  0  0  0  0  0  0  0
    0.8571   -1.2621   -1.3229 C   0  0  2  0  0  3  0  0  0  0  0  0
    1.6168   -2.2874   -1.9137 C   0  0  0  0  0  0  0  0  0  0  0  0
    2.6439   -2.4742   -1.5691 H   0  0  0  0  0  0  0  0  0  0  0  0
    1.0477   -3.0620   -2.9290 C   0  0  0  0  0  0  0  0  0  0  0  0
    1.6072   -3.8820   -3.4040 H   0  0  0  0  0  0  0  0  0  0  0  0
   -0.2480   -2.7409   -3.3417 C   0  0  0  0  0  0  0  0  0  0  0  0
   -0.7218   -3.2837   -4.1722 H   0  0  0  0  0  0  0  0  0  0  0  0
   -0.9856   -1.7280   -2.6961 C   0  0  0  0  0  0  0  0  0  0  0  0
   -2.3626   -1.4164   -3.1997 C   0  0  0  0  0  0  0  0  0  0  0  0
   -2.4780   -0.3348   -3.3965 H   0  0  0  0  0  0  0  0  0  0  0  0
   -3.1414   -1.6882   -2.4626 H   0  0  0  0  0  0  0  0  0  0  0  0
   -2.5585   -1.9737   -4.1347 H   0  0  0  0  0  0  0  0  0  0  0  0
    0.8865   -0.8743    1.6202 C   0  0  1  0  0  3  0  0  0  0  0  0
    1.7372   -1.4955    2.5510 C   0  0  0  0  0  0  0  0  0  0  0  0
    2.8219   -1.5031    2.3772 H   0  0  0  0  0  0  0  0  0  0  0  0
    1.1894   -2.1186    3.6758 C   0  0  0  0  0  0  0  0  0  0  0  0
    1.8274   -2.6178    4.4206 H   0  0  0  0  0  0  0  0  0  0  0  0
   -0.1985   -2.0922    3.8174 C   0  0  0  0  0  0  0  0  0  0  0  0
   -0.6816   -2.5661    4.6839 H   0  0  0  0  0  0  0  0  0  0  0  0
   -1.0191   -1.4744    2.8509 C   0  0  0  0  0  0  0  0  0  0  0  0
   -2.5003   -1.5022    3.0716 C   0  0  0  0  0  0  0  0  0  0  0  0
   -3.0340   -1.9131    2.1958 H   0  0  0  0  0  0  0  0  0  0  0  0
   -2.9033   -0.4844    3.2324 H   0  0  0  0  0  0  0  0  0  0  0  0
   -2.7401   -2.1169    3.9589 H   0  0  0  0  0  0  0  0  0  0  0  0
    3.4729   -0.0897    0.0017 C   0  0  0  0  0  0  0  0  0  0  0  0
    4.1784    0.3422    1.1514 C   0  0  0  0  0  0  0  0  0  0  0  0
    3.6315    0.5641    2.0813 H   0  0  0  0  0  0  0  0  0  0  0  0
    5.5697    0.5214    1.1284 C   0  0  0  0  0  0  0  0  0  0  0  0
    6.0938    0.8554    2.0369 H   0  0  0  0  0  0  0  0  0  0  0  0
    6.2896    0.2844   -0.0534 C   0  0  0  0  0  0  0  0  0  0  0  0
    7.3812    0.4237   -0.0735 H   0  0  0  0  0  0  0  0  0  0  0  0
    5.6078   -0.1163   -1.2124 C   0  0  0  0  0  0  0  0  0  0  0  0
    6.1621   -0.2853   -2.1484 H   0  0  0  0  0  0  0  0  0  0  0  0
    4.2155   -0.2955   -1.1845 C   0  0  0  0  0  0  0  0  0  0  0  0
    3.7001   -0.5837   -2.1133 H   0  0  0  0  0  0  0  0  0  0  0  0
  1 41  1  6  0  0  0
  3 17  1  0  0  0  0
  4 36  1  0  0  0  0
  5  2  1  0  0  0  0
  5  1  1  1  0  0  0
  6  5  1  0  0  0  0
  7  6  1  0  0  0  0
  8  6  2  0  0  0  0
  8 10  1  0  0  0  0
  9  8  1  0  0  0  0
 10 12  2  0  0  0  0
 11 10  1  0  0  0  0
 12  2  1  0  0  0  0
 12 13  1  0  0  0  0
 13 14  1  0  0  0  0
 15 13  1  0  0  0  0
 16 13  1  0  0  0  0
 17  1  1  1  0  0  0
 18 19  1  0  0  0  0
 18 17  1  0  0  0  0
 20 18  2  0  0  0  0
 21 20  1  0  0  0  0
 22 20  1  0  0  0  0
 22 24  2  0  0  0  0
 23 22  1  0  0  0  0
 24  3  1  0  0  0  0
 25 24  1  0  0  0  0
 25 27  1  0  0  0  0
 26 25  1  0  0  0  0
 28 25  1  0  0  0  0
 29  1  1  6  0  0  0
 29  4  1  0  0  0  0
 29 30  1  0  0  0  0
 30 32  2  0  0  0  0
 31 30  1  0  0  0  0
 32 34  1  0  0  0  0
 32 33  1  0  0  0  0
 34 35  1  0  0  0  0
 36 37  1  0  0  0  0
 36 34  2  0  0  0  0
 37 39  1  0  0  0  0
 37 40  1  0  0  0  0
 38 37  1  0  0  0  0
 41 42  1  0  0  0  0
 42 43  1  0  0  0  0
 44 42  2  0  0  0  0
 44 45  1  0  0  0  0
 46 44  1  0  0  0  0
 47 46  1  0  0  0  0
 48 50  1  0  0  0  0
 48 46  2  0  0  0  0
 49 48  1  0  0  0  0
 50 41  2  0  0  0  0
 51 50  1  0  0  0  0
M  END
