2,3,4
q = 0.0, confidence = 0.994

 49 51  0  0  1  0  0  0  0  0999 V2000
   -0.1981    0.4019    2.2488 N   0  0  0  0  0  0  0  0  0  0  0  0
   -1.8015   -0.3845   -0.2901 N   0  0  0  0  0  2  0  0  0  0  0  0
    0.1218    1.6071   -0.6675 N   0  0  0  0  0  2  0  0  0  0  0  0
    2.0254   -0.4064   -0.1368 N   0  0  0  0  0  2  0  0  0  0  0  0
   -1.3654   -0.3106    2.8077 C   0  0  0  0  0  0  0  0  0  0  0  0
   -1.9083   -1.4561    1.9416 C   0  0  0  0  0  0  0  0  0  0  0  0
   -2.5598   -0.9944    0.6667 C   0  0  1  0  0  3  0  0  0  0  0  0
   -3.9411   -1.1651    0.4551 C   0  0  0  0  0  0  0  0  0  0  0  0
   -4.5378   -0.7326   -0.7337 C   0  0  0  0  0  0  0  0  0  0  0  0
   -3.7329   -0.1267   -1.7087 C   0  0  0  0  0  0  0  0  0  0  0  0
   -2.3708    0.0227   -1.4495 C   0  0  0  0  0  0  0  0  0  0  0  0
   -0.3726    1.8518    2.3747 C   0  0  0  0  0  0  0  0  0  0  0  0
   -1.2431    2.4312    1.2482 C   0  0  0  0  0  0  0  0  0  0  0  0
   -0.5131    2.6462   -0.0507 C   0  0  1  0  0  3  0  0  0  0  0  0
   -0.4703    3.9351   -0.6197 C   0  0  0  0  0  0  0  0  0  0  0  0
    0.1996    4.1658   -1.8242 C   0  0  0  0  0  0  0  0  0  0  0  0
    0.8357    3.0838   -2.4492 C   0  0  0  0  0  0  0  0  0  0  0  0
    0.7717    1.8319   -1.8392 C   0  0  0  0  0  0  0  0  0  0  0  0
    1.0600   -0.0965    2.8200 C   0  0  0  0  0  0  0  0  0  0  0  0
    2.3357    0.4698    2.1751 C   0  0  0  0  0  0  0  0  0  0  0  0
    2.8525   -0.1705    0.9138 C   0  0  2  0  0  3  0  0  0  0  0  0
    4.2203   -0.4973    0.8160 C   0  0  0  0  0  0  0  0  0  0  0  0
    4.7388   -1.0564   -0.3549 C   0  0  0  0  0  0  0  0  0  0  0  0
    3.8640   -1.3026   -1.4220 C   0  0  0  0  0  0  0  0  0  0  0  0
    2.5178   -0.9751   -1.2674 C   0  0  0  0  0  0  0  0  0  0  0  0
   -1.1161   -0.7117    3.8171 H   0  0  0  0  0  0  0  0  0  0  0  0
   -2.1822    0.4207    2.9731 H   0  0  0  0  0  0  0  0  0  0  0  0
   -2.6636   -2.0039    2.5377 H   0  0  0  0  0  0  0  0  0  0  0  0
   -4.5376   -1.6568    1.2367 H   0  0  0  0  0  0  0  0  0  0  0  0
   -5.6154   -0.8761   -0.9017 H   0  0  0  0  0  0  0  0  0  0  0  0
   -4.1445    0.2151   -2.6683 H   0  0  0  0  0  0  0  0  0  0  0  0
   -1.6974    0.4672   -2.1946 H   0  0  0  0  0  0  0  0  0  0  0  0
   -0.8219    2.1177    3.3612 H   0  0  0  0  0  0  0  0  0  0  0  0
    0.6126    2.3550    2.3517 H   0  0  0  0  0  0  0  0  0  0  0  0
   -2.1235    1.7749    1.0866 H   0  0  0  0  0  0  0  0  0  0  0  0
   -0.9814    4.7573   -0.0984 H   0  0  0  0  0  0  0  0  0  0  0  0
    0.2233    5.1715   -2.2690 H   0  0  0  0  0  0  0  0  0  0  0  0
    1.3722    3.1969   -3.4015 H   0  0  0  0  0  0  0  0  0  0  0  0
    1.2502    0.9609   -2.3071 H   0  0  0  0  0  0  0  0  0  0  0  0
    1.1053    0.1285    3.9152 H   0  0  0  0  0  0  0  0  0  0  0  0
    1.0604   -1.2021    2.7267 H   0  0  0  0  0  0  0  0  0  0  0  0
    3.1453    0.4050    2.9268 H   0  0  0  0  0  0  0  0  0  0  0  0
    4.8725   -0.3038    1.6797 H   0  0  0  0  0  0  0  0  0  0  0  0
    5.8072   -1.3075   -0.4289 H   0  0  0  0  0  0  0  0  0  0  0  0
    4.2070   -1.7577   -2.3615 H   0  0  0  0  0  0  0  0  0  0  0  0
    1.7783   -1.1987   -2.0535 H   0  0  0  0  0  0  0  0  0  0  0  0
   -1.6465    3.4089    1.5740 H   0  0  0  0  0  0  0  0  0  0  0  0
    2.2163    1.5584    1.9848 H   0  0  0  0  0  0  0  0  0  0  0  0
   -1.1019   -2.1753    1.6953 H   0  0  0  0  0  0  0  0  0  0  0  0
  1 12  1  0  0  0  0
  1  5  1  0  0  0  0
  1 19  1  0  0  0  0
  2  7  1  0  0  0  0
  3 14  1  0  0  0  0
  4 21  1  0  0  0  0
  5 27  1  0  0  0  0
  5 26  1  0  0  0  0
  6 28  1  0  0  0  0
  6  5  1  0  0  0  0
  7  6  1  1  0  0  0
  8  7  1  0  0  0  0
  8 29  1  0  0  0  0
  9  8  2  0  0  0  0
 10 11  2  0  0  0  0
 10  9  1  0  0  0  0
 11  2  1  0  0  0  0
 12 33  1  0  0  0  0
 13 47  1  0  0  0  0
 13 12  1  0  0  0  0
 14 13  1  1  0  0  0
 15 36  1  0  0  0  0
 15 14  1  0  0  0  0
 16 15  2  0  0  0  0
 17 18  2  0  0  0  0
 17 16  1  0  0  0  0
 18  3  1  0  0  0  0
 19 40  1  0  0  0  0
 20 19  1  0  0  0  0
 20 42  1  0  0  0  0
 21 20  1  6  0  0  0
 22 21  1  0  0  0  0
 22 43  1  0  0  0  0
 23 22  2  0  0  0  0
 24 25  2  0  0  0  0
 24 23  1  0  0  0  0
 25  4  1  0  0  0  0
 30  9  1  0  0  0  0
 31 10  1  0  0  0  0
 32 11  1  0  0  0  0
 34 12  1  0  0  0  0
 35 13  1  0  0  0  0
 37 16  1  0  0  0  0
 38 17  1  0  0  0  0
 39 18  1  0  0  0  0
 41 19  1  0  0  0  0
 44 23  1  0  0  0  0
 45 24  1  0  0  0  0
 46 25  1  0  0  0  0
 48 20  1  0  0  0  0
 49  6  1  0  0  0  0
M  END
