2,3,4
q = 0.0, confidence = 0.99

 66 68  0  0  1  0  0  0  0  0999 V2000
   -0.2220    0.6326   -1.3041 O   0  0  0  0  0  0  0  0  0  0  0  0
   -0.5922   -2.2011    0.0558 N   0  0  0  0  0  0  0  0  0  0  0  0
   -0.1791   -0.2544    1.7757 N   0  0  0  0  0  2  0  0  0  0  0  0
   -2.8471   -1.1687   -0.7126 N   0  0  0  0  0  2  0  0  0  0  0  0
    0.2503   -2.0114   -1.1919 C   0  0  0  0  0  0  0  0  0  0  0  0
    1.3755   -1.0340   -1.0342 C   0  0  0  0  0  0  0  0  0  0  0  0
    2.6869   -1.4910   -0.8100 C   0  0  0  0  0  0  0  0  0  0  0  0
    3.7474   -0.5941   -0.6365 C   0  0  0  0  0  0  0  0  0  0  0  0
    3.4388    0.7792   -0.7425 C   0  0  0  0  0  0  0  0  0  0  0  0
    2.1564    1.3004   -0.9932 C   0  0  0  0  0  0  0  0  0  0  0  0
    1.0985    0.3543   -1.1197 C   0  0  0  0  0  0  0  0  0  0  0  0
    5.1927   -1.0379   -0.3567 C   0  0  0  0  0  0  0  0  0  0  0  0
    5.3133   -2.5679   -0.2562 C   0  0  0  0  0  0  0  0  0  0  0  0
    5.6631   -0.4220    0.9809 C   0  0  0  0  0  0  0  0  0  0  0  0
    6.1091   -0.5469   -1.5006 C   0  0  0  0  0  0  0  0  0  0  0  0
    1.9355    2.8201   -1.1300 C   0  0  0  0  0  0  0  0  0  0  0  0
    3.2538    3.6104   -1.0248 C   0  0  0  0  0  0  0  0  0  0  0  0
    1.3361    3.1355   -2.5227 C   0  0  0  0  0  0  0  0  0  0  0  0
    1.0215    3.3134    0.0165 C   0  0  0  0  0  0  0  0  0  0  0  0
    0.2499   -2.5455    1.2366 C   0  0  0  0  0  0  0  0  0  0  0  0
    0.7198   -1.2733    1.8835 C   0  0  2  0  0  3  0  0  0  0  0  0
    1.9057   -1.1224    2.6063 C   0  0  0  0  0  0  0  0  0  0  0  0
    2.1563    0.0988    3.2490 C   0  0  0  0  0  0  0  0  0  0  0  0
    1.2085    1.1284    3.1551 C   0  0  0  0  0  0  0  0  0  0  0  0
    0.0523    0.9209    2.3979 C   0  0  0  0  0  0  0  0  0  0  0  0
   -1.6798   -3.1874   -0.2125 C   0  0  0  0  0  0  0  0  0  0  0  0
   -2.7388   -2.4911   -1.0218 C   0  0  1  0  0  3  0  0  0  0  0  0
   -3.5736   -3.0879   -1.9691 C   0  0  0  0  0  0  0  0  0  0  0  0
   -4.5462   -2.2991   -2.6051 C   0  0  0  0  0  0  0  0  0  0  0  0
   -4.6402   -0.9377   -2.2829 C   0  0  0  0  0  0  0  0  0  0  0  0
   -3.7661   -0.4000   -1.3326 C   0  0  0  0  0  0  0  0  0  0  0  0
    4.6896   -2.9796    0.5644 H   0  0  0  0  0  0  0  0  0  0  0  0
    5.0201   -3.0696   -1.2004 H   0  0  0  0  0  0  0  0  0  0  0  0
    2.8623   -2.5762   -0.7762 H   0  0  0  0  0  0  0  0  0  0  0  0
    4.2627    1.4952   -0.6326 H   0  0  0  0  0  0  0  0  0  0  0  0
    2.6256   -1.9511    2.6549 H   0  0  0  0  0  0  0  0  0  0  0  0
    3.0864    0.2442    3.8176 H   0  0  0  0  0  0  0  0  0  0  0  0
    1.3636    2.0959    3.6524 H   0  0  0  0  0  0  0  0  0  0  0  0
   -0.7200    1.6911    2.2579 H   0  0  0  0  0  0  0  0  0  0  0  0
   -3.4626   -4.1559   -2.2048 H   0  0  0  0  0  0  0  0  0  0  0  0
   -5.2185   -2.7447   -3.3528 H   0  0  0  0  0  0  0  0  0  0  0  0
   -5.3813   -0.2866   -2.7671 H   0  0  0  0  0  0  0  0  0  0  0  0
   -3.7737    0.6608   -1.0451 H   0  0  0  0  0  0  0  0  0  0  0  0
    0.6515   -3.0134   -1.4591 H   0  0  0  0  0  0  0  0  0  0  0  0
   -0.4469   -1.6866   -1.9882 H   0  0  0  0  0  0  0  0  0  0  0  0
    6.3633   -2.8510   -0.0450 H   0  0  0  0  0  0  0  0  0  0  0  0
    5.6288    0.6854    0.9621 H   0  0  0  0  0  0  0  0  0  0  0  0
    5.0268   -0.7657    1.8224 H   0  0  0  0  0  0  0  0  0  0  0  0
    6.7086   -0.7203    1.1995 H   0  0  0  0  0  0  0  0  0  0  0  0
    7.1588   -0.8531   -1.3152 H   0  0  0  0  0  0  0  0  0  0  0  0
    5.7923   -0.9738   -2.4732 H   0  0  0  0  0  0  0  0  0  0  0  0
    6.0944    0.5570   -1.5952 H   0  0  0  0  0  0  0  0  0  0  0  0
    3.0398    4.6915   -1.1384 H   0  0  0  0  0  0  0  0  0  0  0  0
    3.7480    3.4746   -0.0420 H   0  0  0  0  0  0  0  0  0  0  0  0
    3.9725    3.3299   -1.8202 H   0  0  0  0  0  0  0  0  0  0  0  0
    0.3684    2.6404   -2.7222 H   0  0  0  0  0  0  0  0  0  0  0  0
    1.1654    4.2262   -2.6246 H   0  0  0  0  0  0  0  0  0  0  0  0
    2.0411    2.8238   -3.3188 H   0  0  0  0  0  0  0  0  0  0  0  0
    0.0687    2.7581    0.0832 H   0  0  0  0  0  0  0  0  0  0  0  0
    1.5428    3.2027    0.9883 H   0  0  0  0  0  0  0  0  0  0  0  0
    0.7725    4.3851   -0.1206 H   0  0  0  0  0  0  0  0  0  0  0  0
   -0.3907   -3.0917    1.9606 H   0  0  0  0  0  0  0  0  0  0  0  0
    1.0919   -3.2122    0.9571 H   0  0  0  0  0  0  0  0  0  0  0  0
   -0.5001    1.5800   -1.4208 H   0  0  0  0  0  0  0  0  0  0  0  0
   -1.2896   -4.0970   -0.7180 H   0  0  0  0  0  0  0  0  0  0  0  0
   -2.1135   -3.4941    0.7623 H   0  0  0  0  0  0  0  0  0  0  0  0
  1 11  1  0  0  0  0
  2 20  1  0  0  0  0
  3 21  1  0  0  0  0
  3 25  1  0  0  0  0
  5  6  1  0  0  0  0
  5  2  1  0  0  0  0
  6  7  1  0  0  0  0
  7 34  1  0  0  0  0
  7  8  2  0  0  0  0
  8 12  1  0  0  0  0
  9  8  1  0  0  0  0
  9 35  1  0  0  0  0
 10  9  2  0  0  0  0
 11  6  2  0  0  0  0
 11 10  1  0  0  0  0
 12 13  1  0  0  0  0
 12 14  1  0  0  0  0
 13 46  1  0  0  0  0
 13 32  1  0  0  0  0
 14 49  1  0  0  0  0
 14 48  1  0  0  0  0
 15 50  1  0  0  0  0
 15 12  1  0  0  0  0
 16 17  1  0  0  0  0
 16 10  1  0  0  0  0
 16 19  1  0  0  0  0
 17 54  1  0  0  0  0
 18 16  1  0  0  0  0
 19 59  1  0  0  0  0
 19 60  1  0  0  0  0
 20 62  1  0  0  0  0
 21 20  1  1  0  0  0
 21 22  1  0  0  0  0
 22 36  1  0  0  0  0
 22 23  2  0  0  0  0
 23 37  1  0  0  0  0
 24 23  1  0  0  0  0
 24 38  1  0  0  0  0
 25 24  2  0  0  0  0
 26  2  1  0  0  0  0
 26 66  1  0  0  0  0
 27  4  1  0  0  0  0
 27 26  1  1  0  0  0
 28 27  1  0  0  0  0
 29 30  1  0  0  0  0
 29 28  2  0  0  0  0
 30 31  2  0  0  0  0
 31 43  1  0  0  0  0
 31  4  1  0  0  0  0
 33 13  1  0  0  0  0
 39 25  1  0  0  0  0
 40 28  1  0  0  0  0
 41 29  1  0  0  0  0
 42 30  1  0  0  0  0
 44  5  1  0  0  0  0
 45  5  1  0  0  0  0
 47 14  1  0  0  0  0
 51 15  1  0  0  0  0
 52 15  1  0  0  0  0
 53 17  1  0  0  0  0
 55 17  1  0  0  0  0
 56 18  1  0  0  0  0
 57 18  1  0  0  0  0
 58 18  1  0  0  0  0
 61 19  1  0  0  0  0
 63 20  1  0  0  0  0
 64  1  1  0  0  0  0
 65 26  1  0  0  0  0
M  END
