1,2,3
q = 0.0, confidence = 0.994

 40 43  0  0  0  0  0  0  0  0999 V2000
   -1.9568   -0.9551   -0.3734 N   0  0  0  0  0  2  0  0  0  0  0  0
   -0.1167    0.9195    0.0842 N   0  0  0  0  0  2  0  0  0  0  0  0
    2.0455   -0.9549    0.7484 N   0  0  0  0  0  0  0  0  0  0  0  0
   -2.8309   -1.9221   -0.6771 C   0  0  0  0  0  0  0  0  0  0  0  0
   -4.2168   -1.6572   -0.7654 C   0  0  0  0  0  0  0  0  0  0  0  0
   -4.7000   -0.3750   -0.5262 C   0  0  0  0  0  0  0  0  0  0  0  0
   -3.7875    0.6664   -0.2069 C   0  0  0  0  0  0  0  0  0  0  0  0
   -2.4092    0.3202   -0.1495 C   0  0  0  0  0  0  0  0  0  0  0  0
   -1.4243    1.3219    0.1212 C   0  0  0  0  0  0  0  0  0  0  0  0
   -1.8120    2.6667    0.3595 C   0  0  0  0  0  0  0  0  0  0  0  0
   -0.7591    3.5904    0.6034 C   0  0  0  0  0  0  0  0  0  0  0  0
    0.5605    3.1727    0.5081 C   0  0  0  0  0  0  0  0  0  0  0  0
    0.8833    1.8187    0.1888 C   0  0  0  0  0  0  0  0  0  0  0  0
    2.7742    0.0717   -0.0122 C   0  0  0  0  0  0  0  0  0  0  0  0
    2.2603    1.3985   -0.1514 C   0  0  0  0  0  0  0  0  0  0  0  0
    3.0712    2.3676   -0.7883 C   0  0  0  0  0  0  0  0  0  0  0  0
    4.3313    2.0603   -1.3089 C   0  0  0  0  0  0  0  0  0  0  0  0
    4.8057    0.7495   -1.2046 C   0  0  0  0  0  0  0  0  0  0  0  0
    4.0351   -0.2271   -0.5568 C   0  0  0  0  0  0  0  0  0  0  0  0
   -4.1607    2.0309    0.0584 C   0  0  0  0  0  0  0  0  0  0  0  0
   -3.2119    2.9911    0.3370 C   0  0  0  0  0  0  0  0  0  0  0  0
    1.8864   -0.5259    2.1785 C   0  0  0  0  0  0  0  0  0  0  0  0
    2.7298   -2.2782    0.7626 C   0  0  0  0  0  0  0  0  0  0  0  0
   -2.4006   -2.9245   -0.8283 H   0  0  0  0  0  0  0  0  0  0  0  0
   -4.8968   -2.4828   -1.0180 H   0  0  0  0  0  0  0  0  0  0  0  0
   -5.7774   -0.1586   -0.5829 H   0  0  0  0  0  0  0  0  0  0  0  0
   -0.9942    4.6363    0.8512 H   0  0  0  0  0  0  0  0  0  0  0  0
    1.3766    3.8853    0.6848 H   0  0  0  0  0  0  0  0  0  0  0  0
    2.6723    3.3812   -0.9321 H   0  0  0  0  0  0  0  0  0  0  0  0
    4.9233    2.8368   -1.8135 H   0  0  0  0  0  0  0  0  0  0  0  0
    5.7852    0.4727   -1.6210 H   0  0  0  0  0  0  0  0  0  0  0  0
    4.4485   -1.2371   -0.4733 H   0  0  0  0  0  0  0  0  0  0  0  0
   -5.2278    2.2966    0.0319 H   0  0  0  0  0  0  0  0  0  0  0  0
   -3.5146    4.0298    0.5357 H   0  0  0  0  0  0  0  0  0  0  0  0
    1.2939   -1.2895    2.7139 H   0  0  0  0  0  0  0  0  0  0  0  0
    1.3703    0.4463    2.2456 H   0  0  0  0  0  0  0  0  0  0  0  0
    2.8898   -0.4377    2.6454 H   0  0  0  0  0  0  0  0  0  0  0  0
    2.1002   -2.9825    1.3289 H   0  0  0  0  0  0  0  0  0  0  0  0
    3.7224   -2.1844    1.2482 H   0  0  0  0  0  0  0  0  0  0  0  0
    2.8292   -2.6689   -0.2638 H   0  0  0  0  0  0  0  0  0  0  0  0
  1  8  1  0  0  0  0
  2  9  1  0  0  0  0
  2 13  1  0  0  0  0
  3 23  1  0  0  0  0
  3 22  1  0  0  0  0
  4  1  1  0  0  0  0
  5  4  2  0  0  0  0
  5  6  1  0  0  0  0
  6  7  2  0  0  0  0
  7  8  1  0  0  0  0
  7 20  1  0  0  0  0
  8  9  2  0  0  0  0
  9 10  1  0  0  0  0
 10 11  2  0  0  0  0
 11 27  1  0  0  0  0
 12 11  1  0  0  0  0
 12 28  1  0  0  0  0
 13 12  2  0  0  0  0
 14  3  1  0  0  0  0
 15 14  1  0  0  0  0
 15 13  1  0  0  0  0
 16 15  2  0  0  0  0
 17 18  2  0  0  0  0
 17 16  1  0  0  0  0
 18 19  1  0  0  0  0
 19 32  1  0  0  0  0
 19 14  2  0  0  0  0
 20 21  2  0  0  0  0
 21 10  1  0  0  0  0
 21 34  1  0  0  0  0
 22 36  1  0  0  0  0
 22 37  1  0  0  0  0
 22 35  1  0  0  0  0
 23 39  1  0  0  0  0
 23 38  1  0  0  0  0
 24  4  1  0  0  0  0
 25  5  1  0  0  0  0
 26  6  1  0  0  0  0
 29 16  1  0  0  0  0
 30 17  1  0  0  0  0
 31 18  1  0  0  0  0
 33 20  1  0  0  0  0
 40 23  1  0  0  0  0
M  END
