1,3,5
q = -1.0, confidence = 0.0

 68 76  0  0  0  0  0  0  0  0999 V2000
   -1.4353   -0.9468    0.9367 N   0  0  0  0  0  2  0  0  0  0  0  0
   -0.9246   -1.0576    2.1924 N   0  0  0  0  0  0  0  0  0  0  0  0
   -0.0915    1.5339    0.9257 N   0  0  0  0  0  2  0  0  0  0  0  0
    0.2004    1.1914    2.2074 N   0  0  0  0  0  0  0  0  0  0  0  0
    1.7388   -1.0456    0.7530 N   0  0  0  0  0  2  0  0  0  0  0  0
    1.6169   -0.8999    2.0897 N   0  0  0  0  0  0  0  0  0  0  0  0
   -1.7133   -1.8739    2.9443 C   0  0  0  0  0  3  0  0  0  0  0  0
   -2.7743   -2.3125    2.1550 C   0  0  0  0  0  0  0  0  0  0  0  0
   -3.9555   -3.2057    2.3867 C   0  0  0  0  0  0  0  0  0  0  0  0
   -4.3318   -3.8751    1.0506 C   0  0  0  0  0  0  0  0  0  0  0  0
   -4.4848   -2.8701   -0.0747 C   0  0  0  0  0  0  0  0  0  0  0  0
   -5.4968   -2.9896   -1.0405 C   0  0  0  0  0  0  0  0  0  0  0  0
   -5.6237   -2.0527   -2.0787 C   0  0  0  0  0  0  0  0  0  0  0  0
   -4.7422   -0.9629   -2.1480 C   0  0  0  0  0  0  0  0  0  0  0  0
   -3.7285   -0.8217   -1.1922 C   0  0  0  0  0  0  0  0  0  0  0  0
   -3.5726   -1.7783   -0.1681 C   0  0  0  0  0  0  0  0  0  0  0  0
   -2.5759   -1.6793    0.9004 C   0  0  0  0  0  0  0  0  0  0  0  0
    0.3715    2.3111    2.9628 C   0  0  0  0  0  3  0  0  0  0  0  0
    0.1848    3.4247    2.1466 C   0  0  0  0  0  0  0  0  0  0  0  0
    0.2316    4.9061    2.3693 C   0  0  0  0  0  0  0  0  0  0  0  0
    0.6729    5.5836    1.0579 C   0  0  0  0  0  0  0  0  0  0  0  0
   -0.1469    5.1268   -0.1333 C   0  0  0  0  0  0  0  0  0  0  0  0
   -0.5346    6.0181   -1.1464 C   0  0  0  0  0  0  0  0  0  0  0  0
   -1.2845    5.5816   -2.2503 C   0  0  0  0  0  0  0  0  0  0  0  0
   -1.6749    4.2367   -2.3410 C   0  0  0  0  0  0  0  0  0  0  0  0
   -1.3034    3.3315   -1.3390 C   0  0  0  0  0  0  0  0  0  0  0  0
   -0.5226    3.7555   -0.2441 C   0  0  0  0  0  0  0  0  0  0  0  0
   -0.1310    2.8886    0.8703 C   0  0  0  0  0  0  0  0  0  0  0  0
    2.7877   -1.2023    2.7321 C   0  0  0  0  0  3  0  0  0  0  0  0
    3.7180   -1.5624    1.7610 C   0  0  0  0  0  0  0  0  0  0  0  0
    5.1447   -2.0223    1.7845 C   0  0  0  0  0  0  0  0  0  0  0  0
    5.8394   -1.5534    0.4916 C   0  0  0  0  0  0  0  0  0  0  0  0
    5.0513   -1.8734   -0.7657 C   0  0  0  0  0  0  0  0  0  0  0  0
    5.6939   -2.2117   -1.9680 C   0  0  0  0  0  0  0  0  0  0  0  0
    4.9618   -2.4456   -3.1432 C   0  0  0  0  0  0  0  0  0  0  0  0
    3.5612   -2.3501   -3.1237 C   0  0  0  0  0  0  0  0  0  0  0  0
    2.9008   -2.0238   -1.9324 C   0  0  0  0  0  0  0  0  0  0  0  0
    3.6295   -1.7761   -0.7521 C   0  0  0  0  0  0  0  0  0  0  0  0
    3.0064   -1.4497    0.5312 C   0  0  0  0  0  0  0  0  0  0  0  0
    0.3354   -0.2862    2.6694 B   0  0  0  0  0  0  0  0  0  0  0  0
   -1.4575   -2.0705    3.9908 H   0  0  0  0  0  0  0  0  0  0  0  0
   -4.8191   -2.6102    2.7613 H   0  0  0  0  0  0  0  0  0  0  0  0
   -3.7373   -3.9704    3.1587 H   0  0  0  0  0  0  0  0  0  0  0  0
   -5.2615   -4.4689    1.1550 H   0  0  0  0  0  0  0  0  0  0  0  0
   -3.5235   -4.5929    0.7802 H   0  0  0  0  0  0  0  0  0  0  0  0
   -6.2014   -3.8339   -0.9751 H   0  0  0  0  0  0  0  0  0  0  0  0
   -6.4234   -2.1673   -2.8261 H   0  0  0  0  0  0  0  0  0  0  0  0
   -4.8500   -0.2121   -2.9452 H   0  0  0  0  0  0  0  0  0  0  0  0
   -3.0436    0.0389   -1.2246 H   0  0  0  0  0  0  0  0  0  0  0  0
    0.6110    2.2229    4.0277 H   0  0  0  0  0  0  0  0  0  0  0  0
    0.9215    5.1684    3.1961 H   0  0  0  0  0  0  0  0  0  0  0  0
   -0.7755    5.2816    2.6619 H   0  0  0  0  0  0  0  0  0  0  0  0
    1.7413    5.3255    0.8742 H   0  0  0  0  0  0  0  0  0  0  0  0
    0.6245    6.6870    1.1480 H   0  0  0  0  0  0  0  0  0  0  0  0
   -0.2429    7.0775   -1.0666 H   0  0  0  0  0  0  0  0  0  0  0  0
   -1.5755    6.2979   -3.0336 H   0  0  0  0  0  0  0  0  0  0  0  0
   -2.2806    3.8910   -3.1923 H   0  0  0  0  0  0  0  0  0  0  0  0
   -1.6174    2.2776   -1.3892 H   0  0  0  0  0  0  0  0  0  0  0  0
    2.8606   -1.1341    3.8232 H   0  0  0  0  0  0  0  0  0  0  0  0
    5.1834   -3.1344    1.8426 H   0  0  0  0  0  0  0  0  0  0  0  0
    5.6843   -1.6410    2.6748 H   0  0  0  0  0  0  0  0  0  0  0  0
    6.8592   -1.9816    0.4158 H   0  0  0  0  0  0  0  0  0  0  0  0
    5.9660   -0.4472    0.5471 H   0  0  0  0  0  0  0  0  0  0  0  0
    6.7930   -2.2890   -1.9836 H   0  0  0  0  0  0  0  0  0  0  0  0
    5.4868   -2.7091   -4.0739 H   0  0  0  0  0  0  0  0  0  0  0  0
    2.9789   -2.5406   -4.0380 H   0  0  0  0  0  0  0  0  0  0  0  0
    1.8050   -1.9711   -1.8984 H   0  0  0  0  0  0  0  0  0  0  0  0
    0.3831   -0.3146    3.8904 H   0  0  0  0  0  0  0  0  0  0  0  0
  1  2  1  0  0  0  0
  2 40  1  0  0  0  0
  2  7  1  0  0  0  0
  3  4  1  0  0  0  0
  4 40  1  0  0  0  0
  4 18  1  0  0  0  0
  5  6  1  0  0  0  0
  6 40  1  0  0  0  0
  6 29  1  0  0  0  0
  7 41  1  0  0  0  0
  8  9  1  0  0  0  0
  8  7  1  0  0  0  0
  9 42  1  0  0  0  0
  9 43  1  0  0  0  0
 10 44  1  0  0  0  0
 10  9  1  0  0  0  0
 11 10  1  0  0  0  0
 12 46  1  0  0  0  0
 12 11  2  0  0  0  0
 13 12  1  0  0  0  0
 14 13  2  0  0  0  0
 14 15  1  0  0  0  0
 15 16  2  0  0  0  0
 16 11  1  0  0  0  0
 16 17  1  0  0  0  0
 17  1  1  0  0  0  0
 17  8  2  0  0  0  0
 18 50  1  0  0  0  0
 19 20  1  0  0  0  0
 19 18  1  0  0  0  0
 20 52  1  0  0  0  0
 20 51  1  0  0  0  0
 21 54  1  0  0  0  0
 21 20  1  0  0  0  0
 22 21  1  0  0  0  0
 23 55  1  0  0  0  0
 23 22  2  0  0  0  0
 24 23  1  0  0  0  0
 25 24  2  0  0  0  0
 25 26  1  0  0  0  0
 26 27  2  0  0  0  0
 27 22  1  0  0  0  0
 27 28  1  0  0  0  0
 28  3  1  0  0  0  0
 28 19  2  0  0  0  0
 29 59  1  0  0  0  0
 30 31  1  0  0  0  0
 30 29  1  0  0  0  0
 31 60  1  0  0  0  0
 31 61  1  0  0  0  0
 32 63  1  0  0  0  0
 32 31  1  0  0  0  0
 33 38  1  0  0  0  0
 33 32  1  0  0  0  0
 34 33  2  0  0  0  0
 35 36  2  0  0  0  0
 35 34  1  0  0  0  0
 36 37  1  0  0  0  0
 37 67  1  0  0  0  0
 37 38  2  0  0  0  0
 38 39  1  0  0  0  0
 39  5  1  0  0  0  0
 39 30  2  0  0  0  0
 40 68  1  0  0  0  0
 45 10  1  0  0  0  0
 47 13  1  0  0  0  0
 48 14  1  0  0  0  0
 49 15  1  0  0  0  0
 53 21  1  0  0  0  0
 56 24  1  0  0  0  0
 57 25  1  0  0  0  0
 58 26  1  0  0  0  0
 62 32  1  0  0  0  0
 64 34  1  0  0  0  0
 65 35  1  0  0  0  0
 66 36  1  0  0  0  0
M  END
