1,8,10
q = 0.0, confidence = 0.998

 45 45  0  0  1  0  0  0  0  0999 V2000
    2.1405    0.1410   -0.5379 N   0  0  0  0  0  0  0  0  0  0  0  0
    2.4482    1.4056    0.1770 C   0  0  0  0  0  0  0  0  0  0  0  0
    1.2566    2.3322    0.1614 C   0  0  1  0  0  3  0  0  0  0  0  0
    1.3158    3.7261    0.2701 C   0  0  0  0  0  0  0  0  0  0  0  0
    0.1238    4.4679    0.2167 C   0  0  0  0  0  0  0  0  0  0  0  0
   -1.0936    3.8017   -0.0057 C   0  0  0  0  0  0  0  0  0  0  0  0
   -1.0969    2.4097   -0.1401 C   0  0  0  0  0  0  0  0  0  0  0  0
    0.0586    1.7068    0.0106 N   0  0  0  0  0  2  0  0  0  0  0  0
   -2.2768    1.5706   -0.5495 C   0  0  0  0  0  0  0  0  0  0  0  0
   -2.1521    0.1760   -0.0497 N   0  0  0  0  0  0  0  0  0  0  0  0
    3.2658   -0.8767   -0.5864 C   0  0  0  0  0  0  0  0  0  0  0  0
    4.6392   -0.1875   -0.7059 C   0  0  0  0  0  0  0  0  0  0  0  0
    3.0286   -1.7356   -1.8375 C   0  0  0  0  0  0  0  0  0  0  0  0
    3.2168   -1.7527    0.6692 C   0  0  0  0  0  0  0  0  0  0  0  0
   -3.2623   -0.7596   -0.4983 C   0  0  0  0  0  0  0  0  0  0  0  0
   -4.6319   -0.0666   -0.3432 C   0  0  0  0  0  0  0  0  0  0  0  0
   -3.2124   -1.9721    0.4441 C   0  0  0  0  0  0  0  0  0  0  0  0
   -3.0488   -1.2049   -1.9471 C   0  0  0  0  0  0  0  0  0  0  0  0
    1.9322    0.3878   -1.5304 H   0  0  0  0  0  0  0  0  0  0  0  0
    2.7290    1.1604    1.2226 H   0  0  0  0  0  0  0  0  0  0  0  0
    3.3184    1.9369   -0.2630 H   0  0  0  0  0  0  0  0  0  0  0  0
    2.2890    4.2244    0.3885 H   0  0  0  0  0  0  0  0  0  0  0  0
    0.1468    5.5624    0.3190 H   0  0  0  0  0  0  0  0  0  0  0  0
   -2.0365    4.3598   -0.0974 H   0  0  0  0  0  0  0  0  0  0  0  0
   -3.2203    2.0525   -0.2214 H   0  0  0  0  0  0  0  0  0  0  0  0
   -2.2703    1.5307   -1.6606 H   0  0  0  0  0  0  0  0  0  0  0  0
   -2.2288    0.2166    0.9941 H   0  0  0  0  0  0  0  0  0  0  0  0
    4.9257    0.3698    0.2088 H   0  0  0  0  0  0  0  0  0  0  0  0
    5.4156   -0.9592   -0.8740 H   0  0  0  0  0  0  0  0  0  0  0  0
    4.6728    0.5071   -1.5708 H   0  0  0  0  0  0  0  0  0  0  0  0
    3.0819   -1.1183   -2.7574 H   0  0  0  0  0  0  0  0  0  0  0  0
    3.8077   -2.5208   -1.9013 H   0  0  0  0  0  0  0  0  0  0  0  0
    2.0331   -2.2188   -1.7924 H   0  0  0  0  0  0  0  0  0  0  0  0
    2.2573   -2.3061    0.6873 H   0  0  0  0  0  0  0  0  0  0  0  0
    4.0500   -2.4828    0.6535 H   0  0  0  0  0  0  0  0  0  0  0  0
    3.3288   -1.1499    1.5946 H   0  0  0  0  0  0  0  0  0  0  0  0
   -4.7827    0.7515   -1.0754 H   0  0  0  0  0  0  0  0  0  0  0  0
   -5.4346   -0.8094   -0.5178 H   0  0  0  0  0  0  0  0  0  0  0  0
   -4.7707    0.3396    0.6808 H   0  0  0  0  0  0  0  0  0  0  0  0
   -4.0531   -2.6556    0.2141 H   0  0  0  0  0  0  0  0  0  0  0  0
   -2.2629   -2.5225    0.2953 H   0  0  0  0  0  0  0  0  0  0  0  0
   -3.2919   -1.6579    1.5045 H   0  0  0  0  0  0  0  0  0  0  0  0
   -3.0259   -0.3481   -2.6489 H   0  0  0  0  0  0  0  0  0  0  0  0
   -2.0929   -1.7533   -2.0424 H   0  0  0  0  0  0  0  0  0  0  0  0
   -3.8824   -1.8704   -2.2490 H   0  0  0  0  0  0  0  0  0  0  0  0
  1  2  1  0  0  0  0
  2 20  1  0  0  0  0
  3  2  1  6  0  0  0
  3  4  1  0  0  0  0
  4 22  1  0  0  0  0
  5  4  2  0  0  0  0
  5 23  1  0  0  0  0
  6  5  1  0  0  0  0
  7  6  2  0  0  0  0
  7  8  1  0  0  0  0
  8  3  1  0  0  0  0
  9 25  1  0  0  0  0
  9  7  1  0  0  0  0
  9 10  1  0  0  0  0
 10 27  1  0  0  0  0
 11  1  1  0  0  0  0
 11 14  1  0  0  0  0
 12 11  1  0  0  0  0
 12 28  1  0  0  0  0
 13 33  1  0  0  0  0
 13 11  1  0  0  0  0
 14 34  1  0  0  0  0
 14 36  1  0  0  0  0
 15 16  1  0  0  0  0
 15 10  1  0  0  0  0
 15 17  1  0  0  0  0
 16 39  1  0  0  0  0
 17 42  1  0  0  0  0
 18 15  1  0  0  0  0
 19  1  1  0  0  0  0
 21  2  1  0  0  0  0
 24  6  1  0  0  0  0
 26  9  1  0  0  0  0
 29 12  1  0  0  0  0
 30 12  1  0  0  0  0
 31 13  1  0  0  0  0
 32 13  1  0  0  0  0
 35 14  1  0  0  0  0
 37 16  1  0  0  0  0
 38 16  1  0  0  0  0
 40 17  1  0  0  0  0
 41 17  1  0  0  0  0
 43 18  1  0  0  0  0
 44 18  1  0  0  0  0
 45 18  1  0  0  0  0
M  END
