3,4,5
q = -1.0, confidence = 0.006

 36 38  0  0  1  0  0  0  0  0999 V2000
   -4.7712   -1.8264    0.1447 O   0  0  0  0  0  0  0  0  0  0  0  0
   -5.6624    0.2437    0.2612 O   0  0  0  0  0  0  0  0  0  0  0  0
   -0.0662   -1.9113   -0.5060 N   0  0  0  0  0  2  0  0  0  0  0  0
   -1.0892    0.3352   -0.2078 N   0  0  0  0  0  0  0  0  0  0  0  0
    0.7128    2.0874   -0.3686 N   0  0  0  0  0  2  0  0  0  0  0  0
    0.6025   -3.0661   -0.6920 C   0  0  0  0  0  3  0  0  0  0  0  0
    1.6874   -2.9666   -0.8468 H   0  0  0  0  0  0  0  0  0  0  0  0
   -0.0257   -4.3149   -0.6971 C   0  0  0  0  0  0  0  0  0  0  0  0
    0.5714   -5.2242   -0.8529 H   0  0  0  0  0  0  0  0  0  0  0  0
   -1.4172   -4.3634   -0.5069 C   0  0  0  0  0  0  0  0  0  0  0  0
   -1.9482   -5.3274   -0.5065 H   0  0  0  0  0  0  0  0  0  0  0  0
   -2.1303   -3.1762   -0.3221 C   0  0  0  0  0  0  0  0  0  0  0  0
   -3.2184   -3.1494   -0.1721 H   0  0  0  0  0  0  0  0  0  0  0  0
   -1.4518   -1.9400   -0.3251 C   0  0  0  0  0  0  0  0  0  0  0  0
   -2.0413   -0.6182   -0.1564 C   0  0  0  0  0  0  0  0  0  0  0  0
   -3.3075    0.0714    0.0291 C   0  0  0  0  0  0  0  0  0  0  0  0
   -3.0155    1.4790    0.0671 C   0  0  0  0  0  0  0  0  0  0  0  0
   -1.6032    1.5926   -0.0918 C   0  0  0  0  0  3  0  0  0  0  0  0
   -0.5706    2.6042   -0.1843 C   0  0  2  0  0  3  0  0  0  0  0  0
   -0.7576    4.0008   -0.1093 C   0  0  0  0  0  0  0  0  0  0  0  0
   -1.7734    4.3927    0.0294 H   0  0  0  0  0  0  0  0  0  0  0  0
    0.3376    4.8621   -0.2174 C   0  0  0  0  0  0  0  0  0  0  0  0
    0.1907    5.9511   -0.1610 H   0  0  0  0  0  0  0  0  0  0  0  0
    1.6214    4.3225   -0.4053 C   0  0  0  0  0  0  0  0  0  0  0  0
    2.5092    4.9626   -0.5025 H   0  0  0  0  0  0  0  0  0  0  0  0
    1.7561    2.9322   -0.4799 C   0  0  0  0  0  0  0  0  0  0  0  0
    2.7357    2.4575   -0.6418 H   0  0  0  0  0  0  0  0  0  0  0  0
   -4.5974   -0.6093    0.1457 C   0  0  0  0  0  0  0  0  0  0  0  0
   -6.9351   -0.3927    0.3713 C   0  0  0  0  0  0  0  0  0  0  0  0
   -6.9817   -1.0470    1.2660 H   0  0  0  0  0  0  0  0  0  0  0  0
   -7.1473   -1.0203   -0.5184 H   0  0  0  0  0  0  0  0  0  0  0  0
   -7.6781    0.4216    0.4522 H   0  0  0  0  0  0  0  0  0  0  0  0
   -3.9467    2.6428    0.2266 C   0  0  0  0  0  0  0  0  0  0  0  0
   -3.6399    3.2871    1.0785 H   0  0  0  0  0  0  0  0  0  0  0  0
   -4.9832    2.3109    0.3974 H   0  0  0  0  0  0  0  0  0  0  0  0
   -3.9378    3.2856   -0.6805 H   0  0  0  0  0  0  0  0  0  0  0  0
  1 28  2  0  0  0  0
  2 29  1  0  0  0  0
  3 14  1  0  0  0  0
  4 15  2  0  0  0  0
  4 18  1  0  0  0  0
  5 19  1  0  0  0  0
  6  3  1  0  0  0  0
  7  6  1  0  0  0  0
  8  6  1  0  0  0  0
  8 10  2  0  0  0  0
  9  8  1  0  0  0  0
 10 11  1  0  0  0  0
 10 12  1  0  0  0  0
 12 13  1  0  0  0  0
 14 12  2  0  0  0  0
 14 15  1  0  0  0  0
 15 16  1  0  0  0  0
 16 17  2  0  0  0  0
 16 28  1  0  0  0  0
 17 33  1  0  0  0  0
 18 17  1  0  0  0  0
 19 20  1  0  0  0  0
 19 18  1  6  0  0  0
 20 21  1  0  0  0  0
 22 23  1  0  0  0  0
 22 20  2  0  0  0  0
 24 22  1  0  0  0  0
 25 24  1  0  0  0  0
 26 24  2  0  0  0  0
 26  5  1  0  0  0  0
 27 26  1  0  0  0  0
 28  2  1  0  0  0  0
 29 32  1  0  0  0  0
 29 30  1  0  0  0  0
 31 29  1  0  0  0  0
 33 35  1  0  0  0  0
 33 34  1  0  0  0  0
 36 33  1  0  0  0  0
M  END
