1,15,50
q = 0.0, confidence = 0.938

 64 65  0  0  1  0  0  0  0  0999 V2000
    0.4215    1.9527    0.4253 N   0  0  0  0  0  2  0  0  0  0  0  0
   -0.7969    2.4967    0.7682 C   0  0  0  0  0  0  0  0  0  0  0  0
   -0.8614    3.8037    1.2816 C   0  0  0  0  0  0  0  0  0  0  0  0
   -1.8351    4.2331    1.5546 H   0  0  0  0  0  0  0  0  0  0  0  0
    0.3235    4.5435    1.4291 C   0  0  0  0  0  0  0  0  0  0  0  0
    0.2877    5.5644    1.8351 H   0  0  0  0  0  0  0  0  0  0  0  0
    1.5528    3.9873    1.0373 C   0  0  0  0  0  0  0  0  0  0  0  0
    2.4816    4.5684    1.1185 H   0  0  0  0  0  0  0  0  0  0  0  0
    1.5871    2.6836    0.5114 C   0  0  0  0  0  0  0  0  0  0  0  0
   -1.8689    1.5390    0.5788 C   0  0  0  0  0  0  0  0  0  0  0  0
   -3.2929    1.8735    0.8988 C   0  0  0  0  0  0  0  0  0  0  0  0
   -3.6814    2.5970    0.1499 H   0  0  0  0  0  0  0  0  0  0  0  0
   -3.3876    2.3518    1.8943 H   0  0  0  0  0  0  0  0  0  0  0  0
   -3.9322    0.9733    0.8691 H   0  0  0  0  0  0  0  0  0  0  0  0
   -1.4442    0.3672    0.1089 N   0  0  0  0  0  2  0  0  0  0  0  0
   -2.3344   -0.7585    0.1150 C   0  0  0  0  0  0  0  0  0  0  0  0
   -3.0550   -1.0989   -1.0552 C   0  0  0  0  0  0  0  0  0  0  0  0
   -3.9228   -2.2061   -0.9996 C   0  0  0  0  0  0  0  0  0  0  0  0
   -4.4935   -2.4832   -1.8992 H   0  0  0  0  0  0  0  0  0  0  0  0
   -4.0689   -2.9559    0.1724 C   0  0  0  0  0  0  0  0  0  0  0  0
   -4.7544   -3.8167    0.1967 H   0  0  0  0  0  0  0  0  0  0  0  0
   -3.3310   -2.6136    1.3123 C   0  0  0  0  0  0  0  0  0  0  0  0
   -3.4377   -3.2145    2.2282 H   0  0  0  0  0  0  0  0  0  0  0  0
   -2.4462   -1.5206    1.3114 C   0  0  0  0  0  0  0  0  0  0  0  0
   -2.8793   -0.3254   -2.3526 C   0  0  0  0  0  0  0  0  0  0  0  0
   -2.2457    0.5588   -2.1409 H   0  0  0  0  0  0  0  0  0  0  0  0
   -2.1039   -1.1773   -3.3726 C   0  0  0  0  0  0  0  0  0  0  0  0
   -2.6782   -2.0825   -3.6625 H   0  0  0  0  0  0  0  0  0  0  0  0
   -1.1339   -1.5020   -2.9482 H   0  0  0  0  0  0  0  0  0  0  0  0
   -1.8916   -0.5900   -4.2889 H   0  0  0  0  0  0  0  0  0  0  0  0
   -4.2137    0.1791   -2.9223 C   0  0  0  0  0  0  0  0  0  0  0  0
   -4.8847   -0.6552   -3.2158 H   0  0  0  0  0  0  0  0  0  0  0  0
   -4.0386    0.7950   -3.8280 H   0  0  0  0  0  0  0  0  0  0  0  0
   -4.7599    0.8030   -2.1851 H   0  0  0  0  0  0  0  0  0  0  0  0
   -1.6565   -1.1743    2.5704 C   0  0  0  0  0  0  0  0  0  0  0  0
   -0.8568   -0.4693    2.2663 H   0  0  0  0  0  0  0  0  0  0  0  0
   -2.5452   -0.4788    3.6176 C   0  0  0  0  0  0  0  0  0  0  0  0
   -3.3618   -1.1525    3.9520 H   0  0  0  0  0  0  0  0  0  0  0  0
   -3.0175    0.4404    3.2207 H   0  0  0  0  0  0  0  0  0  0  0  0
   -1.9518   -0.1982    4.5123 H   0  0  0  0  0  0  0  0  0  0  0  0
   -0.9609   -2.4017    3.1793 C   0  0  0  0  0  0  0  0  0  0  0  0
   -1.6910   -3.1381    3.5746 H   0  0  0  0  0  0  0  0  0  0  0  0
   -0.3156   -2.0932    4.0274 H   0  0  0  0  0  0  0  0  0  0  0  0
   -0.3258   -2.9025    2.4243 H   0  0  0  0  0  0  0  0  0  0  0  0
    2.7081    1.9283   -0.0227 C   0  0  2  0  0  3  0  0  0  0  0  0
    4.0973    2.4874   -0.1077 C   0  0  0  0  0  0  0  0  0  0  0  0
    4.1858    3.4379    0.4480 H   0  0  0  0  0  0  0  0  0  0  0  0
    4.3738    2.6884   -1.1648 H   0  0  0  0  0  0  0  0  0  0  0  0
    4.8491    1.7836    0.2990 H   0  0  0  0  0  0  0  0  0  0  0  0
    2.3536    0.7281   -0.4634 N   0  0  0  0  0  2  0  0  0  0  0  0
    3.3300   -0.1675   -1.0727 C   0  0  0  0  0  0  0  0  0  0  0  0
    2.7648   -0.8375   -1.7499 H   0  0  0  0  0  0  0  0  0  0  0  0
    4.0470    0.4100   -1.6974 H   0  0  0  0  0  0  0  0  0  0  0  0
    4.0843   -1.0191   -0.0404 C   0  0  0  0  0  0  0  0  0  0  0  0
    3.3339   -1.5125    0.6084 H   0  0  0  0  0  0  0  0  0  0  0  0
    4.7051   -0.3680    0.6134 H   0  0  0  0  0  0  0  0  0  0  0  0
    4.9670   -2.0826   -0.7117 C   0  0  0  0  0  0  0  0  0  0  0  0
    4.3248   -2.7672   -1.3059 H   0  0  0  0  0  0  0  0  0  0  0  0
    5.6530   -1.5825   -1.4349 H   0  0  0  0  0  0  0  0  0  0  0  0
    5.7778   -2.8720    0.2764 C   0  0  0  0  0  0  0  0  0  0  0  0
    6.5115   -2.2931    0.8696 H   0  0  0  0  0  0  0  0  0  0  0  0
    5.6599   -4.1917    0.5011 C   0  0  0  0  0  0  0  0  0  0  0  0
    4.9354   -4.8053   -0.0604 H   0  0  0  0  0  0  0  0  0  0  0  0
    6.2793   -4.7076    1.2513 H   0  0  0  0  0  0  0  0  0  0  0  0
  1  9  1  0  0  0  0
  1  2  1  0  0  0  0
  2  3  1  0  0  0  0
  3  5  2  0  0  0  0
  3  4  1  0  0  0  0
  5  6  1  0  0  0  0
  7  8  1  0  0  0  0
  7  5  1  0  0  0  0
  9  7  2  0  0  0  0
 10  2  2  0  0  0  0
 10 11  1  0  0  0  0
 11 13  1  0  0  0  0
 12 11  1  0  0  0  0
 14 11  1  0  0  0  0
 15 16  1  0  0  0  0
 15 10  1  0  0  0  0
 16 24  1  0  0  0  0
 17 18  1  0  0  0  0
 17 16  2  0  0  0  0
 18 20  2  0  0  0  0
 19 18  1  0  0  0  0
 20 21  1  0  0  0  0
 20 22  1  0  0  0  0
 22 23  1  0  0  0  0
 24 22  2  0  0  0  0
 24 35  1  0  0  0  0
 25 26  1  0  0  0  0
 25 17  1  0  0  0  0
 27 29  1  0  0  0  0
 27 25  1  0  0  0  0
 28 27  1  0  0  0  0
 30 27  1  0  0  0  0
 31 25  1  0  0  0  0
 31 34  1  0  0  0  0
 32 31  1  0  0  0  0
 33 31  1  0  0  0  0
 35 41  1  0  0  0  0
 35 37  1  0  0  0  0
 36 35  1  0  0  0  0
 37 38  1  0  0  0  0
 37 40  1  0  0  0  0
 39 37  1  0  0  0  0
 41 42  1  0  0  0  0
 41 43  1  0  0  0  0
 44 41  1  0  0  0  0
 45 50  1  6  0  0  0
 45  9  1  0  0  0  0
 46 45  1  0  0  0  0
 46 49  1  0  0  0  0
 46 47  1  0  0  0  0
 48 46  1  0  0  0  0
 51 50  1  0  0  0  0
 51 54  1  0  0  0  0
 52 51  1  0  0  0  0
 53 51  1  0  0  0  0
 54 55  1  0  0  0  0
 54 56  1  0  0  0  0
 57 54  1  0  0  0  0
 57 60  1  0  0  0  0
 58 57  1  0  0  0  0
 59 57  1  0  0  0  0
 60 62  2  0  0  0  0
 60 61  1  0  0  0  0
 62 64  1  0  0  0  0
 63 62  1  0  0  0  0
M  END
