1,14,35
q = 0.0, confidence = 1.0

 51 55  0  0  1  0  0  0  0  0999 V2000
    2.7200    0.0023   -0.0018 N   0  0  0  0  0  2  0  0  0  0  0  0
    3.3884    1.0117    0.5909 C   0  0  2  0  0  3  0  0  0  0  0  0
    4.7920    1.0548    0.5953 C   0  0  0  0  0  0  0  0  0  0  0  0
    5.3228    1.8968    1.0632 H   0  0  0  0  0  0  0  0  0  0  0  0
    5.5008   -0.0011    0.0052 C   0  0  0  0  0  0  0  0  0  0  0  0
    6.6008   -0.0023    0.0078 H   0  0  0  0  0  0  0  0  0  0  0  0
    4.7925   -1.0553   -0.5885 C   0  0  0  0  0  0  0  0  0  0  0  0
    5.3236   -1.8986   -1.0538 H   0  0  0  0  0  0  0  0  0  0  0  0
    3.3890   -1.0089   -0.5910 C   0  0  0  0  0  0  0  0  0  0  0  0
    2.5669    2.0473    1.3470 C   0  0  0  0  0  0  0  0  0  0  0  0
    2.1681    1.5668    2.2686 H   0  0  0  0  0  0  0  0  0  0  0  0
    3.2224    2.8753    1.6714 H   0  0  0  0  0  0  0  0  0  0  0  0
    1.4504    2.6441    0.6275 N   0  0  0  0  0  0  0  0  0  0  0  0
    0.3795    1.8897    0.2615 N   0  0  0  0  0  2  0  0  0  0  0  0
   -0.5667    2.7455   -0.2028 C   0  0  2  0  0  3  0  0  0  0  0  0
   -0.0827    4.0775   -0.1007 C   0  0  0  0  0  0  0  0  0  0  0  0
   -0.5966    4.9939   -0.4058 H   0  0  0  0  0  0  0  0  0  0  0  0
    1.1966    3.9717    0.4316 C   0  0  0  0  0  0  0  0  0  0  0  0
    1.9397    4.7354    0.6869 H   0  0  0  0  0  0  0  0  0  0  0  0
   -1.8675    2.2502   -0.6739 C   0  0  0  0  0  0  0  0  0  0  0  0
   -3.0422    2.9899   -0.4107 C   0  0  0  0  0  0  0  0  0  0  0  0
   -2.9732    3.9481    0.1259 H   0  0  0  0  0  0  0  0  0  0  0  0
   -4.2938    2.4903   -0.7931 C   0  0  0  0  0  0  0  0  0  0  0  0
   -5.2020    3.0708   -0.5732 H   0  0  0  0  0  0  0  0  0  0  0  0
   -4.3916    1.2486   -1.4434 C   0  0  0  0  0  0  0  0  0  0  0  0
   -5.3765    0.8561   -1.7370 H   0  0  0  0  0  0  0  0  0  0  0  0
   -3.2297    0.5147   -1.7261 C   0  0  0  0  0  0  0  0  0  0  0  0
   -3.2985   -0.4539   -2.2427 H   0  0  0  0  0  0  0  0  0  0  0  0
   -1.9768    1.0155   -1.3527 C   0  0  0  0  0  0  0  0  0  0  0  0
   -1.0652    0.4480   -1.6059 H   0  0  0  0  0  0  0  0  0  0  0  0
    2.5682   -2.0429   -1.3501 C   0  0  0  0  0  0  0  0  0  0  0  0
    2.1688   -1.5602   -2.2703 H   0  0  0  0  0  0  0  0  0  0  0  0
    3.2240   -2.8698   -1.6765 H   0  0  0  0  0  0  0  0  0  0  0  0
    1.4522   -2.6420   -0.6315 N   0  0  0  0  0  0  0  0  0  0  0  0
    0.3816   -1.8887   -0.2625 N   0  0  0  0  0  2  0  0  0  0  0  0
   -0.5640   -2.7459    0.2007 C   0  0  2  0  0  3  0  0  0  0  0  0
   -0.0799   -4.0775    0.0947 C   0  0  0  0  0  0  0  0  0  0  0  0
   -0.5933   -4.9948    0.3980 H   0  0  0  0  0  0  0  0  0  0  0  0
    1.1990   -3.9701   -0.4387 C   0  0  0  0  0  0  0  0  0  0  0  0
    1.9420   -4.7329   -0.6966 H   0  0  0  0  0  0  0  0  0  0  0  0
   -1.8643   -2.2518    0.6743 C   0  0  0  0  0  0  0  0  0  0  0  0
   -1.9730   -1.0187    1.3560 C   0  0  0  0  0  0  0  0  0  0  0  0
   -1.0612   -0.4518    1.6095 H   0  0  0  0  0  0  0  0  0  0  0  0
   -3.2256   -0.5187    1.7316 C   0  0  0  0  0  0  0  0  0  0  0  0
   -3.2939    0.4487    2.2505 H   0  0  0  0  0  0  0  0  0  0  0  0
   -4.3877   -1.2519    1.4482 C   0  0  0  0  0  0  0  0  0  0  0  0
   -5.3723   -0.8601    1.7437 H   0  0  0  0  0  0  0  0  0  0  0  0
   -4.2905   -2.4922    0.7951 C   0  0  0  0  0  0  0  0  0  0  0  0
   -5.1990   -3.0722    0.5747 H   0  0  0  0  0  0  0  0  0  0  0  0
   -3.0393   -2.9909    0.4105 C   0  0  0  0  0  0  0  0  0  0  0  0
   -2.9707   -3.9480   -0.1284 H   0  0  0  0  0  0  0  0  0  0  0  0
  1  2  1  0  0  0  0
  2  3  1  0  0  0  0
  2 10  1  1  0  0  0
  3  4  1  0  0  0  0
  5  6  1  0  0  0  0
  5  3  2  0  0  0  0
  7  5  1  0  0  0  0
  8  7  1  0  0  0  0
  9  7  2  0  0  0  0
  9  1  1  0  0  0  0
 10 12  1  0  0  0  0
 10 11  1  0  0  0  0
 13 10  1  0  0  0  0
 14 13  1  0  0  0  0
 15 20  1  1  0  0  0
 15 16  1  0  0  0  0
 15 14  1  0  0  0  0
 16 18  2  0  0  0  0
 17 16  1  0  0  0  0
 18 13  1  0  0  0  0
 18 19  1  0  0  0  0
 20 21  1  0  0  0  0
 21 22  1  0  0  0  0
 23 24  1  0  0  0  0
 23 21  2  0  0  0  0
 25 23  1  0  0  0  0
 26 25  1  0  0  0  0
 27 25  2  0  0  0  0
 27 29  1  0  0  0  0
 28 27  1  0  0  0  0
 29 20  2  0  0  0  0
 30 29  1  0  0  0  0
 31 34  1  0  0  0  0
 31  9  1  0  0  0  0
 32 31  1  0  0  0  0
 33 31  1  0  0  0  0
 34 39  1  0  0  0  0
 34 35  1  0  0  0  0
 35 36  1  0  0  0  0
 36 41  1  6  0  0  0
 37 36  1  0  0  0  0
 37 38  1  0  0  0  0
 39 37  2  0  0  0  0
 40 39  1  0  0  0  0
 41 42  1  0  0  0  0
 42 43  1  0  0  0  0
 42 44  2  0  0  0  0
 44 45  1  0  0  0  0
 46 44  1  0  0  0  0
 46 47  1  0  0  0  0
 48 46  2  0  0  0  0
 49 48  1  0  0  0  0
 50 41  2  0  0  0  0
 50 48  1  0  0  0  0
 51 50  1  0  0  0  0
M  END
