2,3,5
q = 0.0, confidence = 0.998

 42 43  0  0  1  0  0  0  0  0999 V2000
    3.6786    1.1118   -0.3324 O   0  0  0  0  0  0  0  0  0  0  0  0
    0.9958    0.1823   -0.1264 N   0  0  0  0  0  0  0  0  0  0  0  0
   -1.5202    0.6428   -1.3107 N   0  0  0  0  0  2  0  0  0  0  0  0
   -0.9455    2.5251   -2.3291 N   0  0  0  0  0  0  0  0  0  0  0  0
   -1.2805    0.5952    1.4835 N   0  0  0  0  0  2  0  0  0  0  0  0
   -0.5331    2.4433    2.4511 N   0  0  0  0  0  0  0  0  0  0  0  0
    0.9172    1.0496   -1.3521 C   0  0  0  0  0  0  0  0  0  0  0  0
    1.6020    1.9162   -1.2630 H   0  0  0  0  0  0  0  0  0  0  0  0
    1.2960    0.4396   -2.2007 H   0  0  0  0  0  0  0  0  0  0  0  0
   -0.4938    1.4398   -1.6364 C   0  0  2  0  0  3  0  0  0  0  0  0
   -2.3223    2.3998   -2.4431 C   0  0  0  0  0  0  0  0  0  0  0  0
   -2.9271    3.1476   -2.9653 H   0  0  0  0  0  0  0  0  0  0  0  0
   -2.6689    1.2287   -1.7977 C   0  0  0  0  0  0  0  0  0  0  0  0
   -3.6565    0.7795   -1.6523 H   0  0  0  0  0  0  0  0  0  0  0  0
   -0.1337    3.5759   -2.9297 C   0  0  0  0  0  0  0  0  0  0  0  0
    0.7248    3.8148   -2.2747 H   0  0  0  0  0  0  0  0  0  0  0  0
   -0.7480    4.4865   -3.0481 H   0  0  0  0  0  0  0  0  0  0  0  0
    0.2457    3.2671   -3.9244 H   0  0  0  0  0  0  0  0  0  0  0  0
    1.1313    0.9981    1.1296 C   0  0  0  0  0  0  0  0  0  0  0  0
    1.6389    0.3511    1.8774 H   0  0  0  0  0  0  0  0  0  0  0  0
    1.8004    1.8654    0.9630 H   0  0  0  0  0  0  0  0  0  0  0  0
   -0.2093    1.3802    1.6593 C   0  0  1  0  0  3  0  0  0  0  0  0
   -1.8727    2.3157    2.7879 C   0  0  0  0  0  0  0  0  0  0  0  0
   -2.3777    3.0469    3.4266 H   0  0  0  0  0  0  0  0  0  0  0  0
   -2.3289    1.1663    2.1723 C   0  0  0  0  0  0  0  0  0  0  0  0
   -3.3297    0.7230    2.1786 H   0  0  0  0  0  0  0  0  0  0  0  0
    0.3730    3.4742    2.9411 C   0  0  0  0  0  0  0  0  0  0  0  0
    0.9058    3.1363    3.8526 H   0  0  0  0  0  0  0  0  0  0  0  0
   -0.2071    4.3831    3.1822 H   0  0  0  0  0  0  0  0  0  0  0  0
    1.1162    3.7288    2.1627 H   0  0  0  0  0  0  0  0  0  0  0  0
    2.1311   -0.7697   -0.2450 C   0  0  0  0  0  0  0  0  0  0  0  0
    1.9685   -1.4183   -1.1280 H   0  0  0  0  0  0  0  0  0  0  0  0
    2.1260   -1.4486    0.6304 H   0  0  0  0  0  0  0  0  0  0  0  0
    3.5021   -0.0982   -0.3547 C   0  0  0  0  0  0  0  0  0  0  0  0
    4.4492   -1.0253   -0.4797 O   0  0  0  0  0  0  0  0  0  0  0  0
    5.8354   -0.5694   -0.5751 C   0  0  0  0  0  0  0  0  0  0  0  0
    6.3391   -1.3689   -1.1496 H   0  0  0  0  0  0  0  0  0  0  0  0
    5.8501    0.3715   -1.1598 H   0  0  0  0  0  0  0  0  0  0  0  0
    6.4449   -0.3852    0.8011 C   0  0  0  0  0  0  0  0  0  0  0  0
    7.5164   -0.1220    0.6975 H   0  0  0  0  0  0  0  0  0  0  0  0
    6.3782   -1.3162    1.3974 H   0  0  0  0  0  0  0  0  0  0  0  0
    5.9466    0.4362    1.3524 H   0  0  0  0  0  0  0  0  0  0  0  0
  2 19  1  0  0  0  0
  4 10  1  0  0  0  0
  5 22  1  0  0  0  0
  5 25  1  0  0  0  0
  6 23  1  0  0  0  0
  6 27  1  0  0  0  0
  7  8  1  0  0  0  0
  7  2  1  0  0  0  0
  9  7  1  0  0  0  0
 10  7  1  6  0  0  0
 10  3  1  0  0  0  0
 11  4  1  0  0  0  0
 11 13  2  0  0  0  0
 12 11  1  0  0  0  0
 13 14  1  0  0  0  0
 13  3  1  0  0  0  0
 15  4  1  0  0  0  0
 15 16  1  0  0  0  0
 17 15  1  0  0  0  0
 18 15  1  0  0  0  0
 19 20  1  0  0  0  0
 21 19  1  0  0  0  0
 22 19  1  1  0  0  0
 22  6  1  0  0  0  0
 23 24  1  0  0  0  0
 25 26  1  0  0  0  0
 25 23  2  0  0  0  0
 27 29  1  0  0  0  0
 27 28  1  0  0  0  0
 30 27  1  0  0  0  0
 31  2  1  0  0  0  0
 31 33  1  0  0  0  0
 32 31  1  0  0  0  0
 34  1  2  0  0  0  0
 34 31  1  0  0  0  0
 35 34  1  0  0  0  0
 36 35  1  0  0  0  0
 36 39  1  0  0  0  0
 37 36  1  0  0  0  0
 38 36  1  0  0  0  0
 39 42  1  0  0  0  0
 39 41  1  0  0  0  0
 40 39  1  0  0  0  0
M  END
