2,3,5
q = -1.0, confidence = 0.006

 29 30  0  0  1  0  0  0  0  0999 V2000
   -2.7711    2.9990   -0.5750 O   0  0  0  0  0  0  0  0  0  0  0  0
    2.1068   -0.4537   -0.0327 N   0  0  0  0  0  2  0  0  0  0  0  0
    0.2641    1.4482   -0.0018 N   0  0  0  0  0  2  0  0  0  0  0  0
   -0.6653    2.3533   -0.1236 N   0  0  0  0  0  2  0  0  0  0  0  0
   -1.9703   -0.4615    0.0699 N   0  0  0  0  0  2  0  0  0  0  0  0
    2.9782   -1.4788   -0.0719 C   0  0  0  0  0  0  0  0  0  0  0  0
    2.5195   -2.4710   -0.2086 H   0  0  0  0  0  0  0  0  0  0  0  0
    4.3574   -1.2810    0.0581 C   0  0  0  0  0  0  0  0  0  0  0  0
    5.0342   -2.1453    0.0174 H   0  0  0  0  0  0  0  0  0  0  0  0
    4.8373    0.0265    0.2427 C   0  0  0  0  0  0  0  0  0  0  0  0
    5.9153    0.2160    0.3560 H   0  0  0  0  0  0  0  0  0  0  0  0
    3.9335    1.0897    0.2830 C   0  0  0  0  0  0  0  0  0  0  0  0
    4.2813    2.1204    0.4295 H   0  0  0  0  0  0  0  0  0  0  0  0
    2.5483    0.8374    0.1362 C   0  0  0  0  0  0  0  0  0  0  0  0
    1.5414    1.8683    0.1270 C   0  0  0  0  0  0  0  0  0  0  0  0
   -1.9956    2.0821   -0.2819 C   0  0  0  0  0  0  0  0  0  0  0  0
   -2.6394    0.7129   -0.0195 C   0  0  2  0  0  3  0  0  0  0  0  0
   -4.0397    0.7524    0.1324 C   0  0  0  0  0  0  0  0  0  0  0  0
   -4.5159    1.7357    0.0230 H   0  0  0  0  0  0  0  0  0  0  0  0
   -4.7539   -0.4164    0.3987 C   0  0  0  0  0  0  0  0  0  0  0  0
   -5.8467   -0.3883    0.5257 H   0  0  0  0  0  0  0  0  0  0  0  0
   -4.0444   -1.6202    0.4961 C   0  0  0  0  0  0  0  0  0  0  0  0
   -4.5456   -2.5768    0.7013 H   0  0  0  0  0  0  0  0  0  0  0  0
   -2.6599   -1.6049    0.3212 C   0  0  0  0  0  0  0  0  0  0  0  0
   -2.0505   -2.5207    0.3571 H   0  0  0  0  0  0  0  0  0  0  0  0
    1.8898    3.3220    0.1991 C   0  0  0  0  0  0  0  0  0  0  0  0
    0.9864    3.9223   -0.0061 H   0  0  0  0  0  0  0  0  0  0  0  0
    2.6789    3.5827   -0.5359 H   0  0  0  0  0  0  0  0  0  0  0  0
    2.2714    3.5942    1.2068 H   0  0  0  0  0  0  0  0  0  0  0  0
  1 16  2  0  0  0  0
  2 14  1  0  0  0  0
  3 15  1  0  0  0  0
  4  3  1  0  0  0  0
  5 24  1  0  0  0  0
  6  2  1  0  0  0  0
  6  8  2  0  0  0  0
  7  6  1  0  0  0  0
  8 10  1  0  0  0  0
  9  8  1  0  0  0  0
 10 12  2  0  0  0  0
 10 11  1  0  0  0  0
 12 13  1  0  0  0  0
 14 12  1  0  0  0  0
 15 14  2  0  0  0  0
 15 26  1  0  0  0  0
 16  4  1  0  0  0  0
 17 16  1  1  0  0  0
 17  5  1  0  0  0  0
 17 18  1  0  0  0  0
 18 20  2  0  0  0  0
 19 18  1  0  0  0  0
 20 22  1  0  0  0  0
 20 21  1  0  0  0  0
 22 23  1  0  0  0  0
 24 25  1  0  0  0  0
 24 22  2  0  0  0  0
 26 29  1  0  0  0  0
 27 26  1  0  0  0  0
 28 26  1  0  0  0  0
M  END
