1,7,13
q = -1.0, confidence = 0.0

 41 44  0  0  0  0  0  0  0  0999 V2000
   -0.1525   -1.6223   -1.7984 N   0  0  0  0  0  2  0  0  0  0  0  0
   -1.3985   -1.8918   -2.2360 C   0  0  0  0  0  3  0  0  0  0  0  0
   -2.2171   -1.3952   -1.6896 H   0  0  0  0  0  0  0  0  0  0  0  0
   -1.6787   -2.7363   -3.3095 C   0  0  0  0  0  0  0  0  0  0  0  0
   -2.7219   -2.9040   -3.6154 H   0  0  0  0  0  0  0  0  0  0  0  0
    2.2196   -2.0491   -2.0517 N   0  0  0  0  0  2  0  0  0  0  0  0
    2.1805   -0.0693   -0.6032 N   0  0  0  0  0  0  0  0  0  0  0  0
   -0.6060   -3.3682   -3.9815 C   0  0  0  0  0  0  0  0  0  0  0  0
    3.1103    1.7170    0.7837 N   0  0  0  0  0  2  0  0  0  0  0  0
    0.6820   -3.1003   -3.5129 C   0  0  0  0  0  0  0  0  0  0  0  0
    1.5688   -3.5630   -3.9688 H   0  0  0  0  0  0  0  0  0  0  0  0
    0.9092   -2.2143   -2.4203 C   0  0  0  0  0  0  0  0  0  0  0  0
    0.7727    1.8279    1.3352 N   0  0  0  0  0  2  0  0  0  0  0  0
   -0.8538   -4.2928   -5.1427 C   0  0  0  0  0  0  0  0  0  0  0  0
    0.0885   -4.7178   -5.5372 H   0  0  0  0  0  0  0  0  0  0  0  0
   -1.3659   -3.7588   -5.9701 H   0  0  0  0  0  0  0  0  0  0  0  0
   -1.5167   -5.1321   -4.8468 H   0  0  0  0  0  0  0  0  0  0  0  0
    2.7478   -1.1465   -1.2644 C   0  0  0  0  0  0  0  0  0  0  0  0
    4.2080   -1.1660   -0.9820 C   0  0  0  0  0  3  0  0  0  0  0  0
    5.2265   -2.0298   -1.3948 C   0  0  0  0  0  0  0  0  0  0  0  0
    4.9958   -2.8848   -2.0472 H   0  0  0  0  0  0  0  0  0  0  0  0
    6.5317   -1.7589   -0.9445 C   0  0  0  0  0  0  0  0  0  0  0  0
    7.3600   -2.4191   -1.2448 H   0  0  0  0  0  0  0  0  0  0  0  0
    6.8000   -0.6502   -0.1132 C   0  0  0  0  0  0  0  0  0  0  0  0
    7.8328   -0.4644    0.2197 H   0  0  0  0  0  0  0  0  0  0  0  0
    5.7702    0.2187    0.2919 C   0  0  0  0  0  0  0  0  0  0  0  0
    5.9588    1.0912    0.9348 H   0  0  0  0  0  0  0  0  0  0  0  0
    4.4752   -0.0621   -0.1538 C   0  0  0  0  0  0  0  0  0  0  0  0
    3.1753    0.6212    0.0735 C   0  0  0  0  0  0  0  0  0  0  0  0
   -0.2496    2.5768    1.7925 C   0  0  0  0  0  3  0  0  0  0  0  0
   -1.2075    2.0429    1.9190 H   0  0  0  0  0  0  0  0  0  0  0  0
   -0.1519    3.9426    2.0574 C   0  0  0  0  0  0  0  0  0  0  0  0
   -1.0338    4.4987    2.4078 H   0  0  0  0  0  0  0  0  0  0  0  0
    1.0899    4.5907    1.8561 C   0  0  0  0  0  0  0  0  0  0  0  0
    2.1616    3.8008    1.4337 C   0  0  0  0  0  0  0  0  0  0  0  0
    3.1662    4.2231    1.2882 H   0  0  0  0  0  0  0  0  0  0  0  0
    1.9900    2.4138    1.1616 C   0  0  0  0  0  0  0  0  0  0  0  0
    1.2369    6.0710    2.0859 C   0  0  0  0  0  0  0  0  0  0  0  0
    0.6409    6.6407    1.3413 H   0  0  0  0  0  0  0  0  0  0  0  0
    2.2907    6.3980    2.0011 H   0  0  0  0  0  0  0  0  0  0  0  0
    0.8586    6.3626    3.0870 H   0  0  0  0  0  0  0  0  0  0  0  0
  2  1  1  0  0  0  0
  2  3  1  0  0  0  0
  4  2  1  0  0  0  0
  5  4  1  0  0  0  0
  6 18  1  0  0  0  0
  7 29  1  0  0  0  0
  8 10  1  0  0  0  0
  8  4  2  0  0  0  0
  9 37  1  0  0  0  0
 10 12  2  0  0  0  0
 11 10  1  0  0  0  0
 12  6  1  0  0  0  0
 12  1  1  0  0  0  0
 13 30  1  0  0  0  0
 14 17  1  0  0  0  0
 14  8  1  0  0  0  0
 15 14  1  0  0  0  0
 16 14  1  0  0  0  0
 18 19  1  0  0  0  0
 18  7  2  0  0  0  0
 19 28  1  0  0  0  0
 20 19  1  0  0  0  0
 20 22  2  0  0  0  0
 21 20  1  0  0  0  0
 22 24  1  0  0  0  0
 23 22  1  0  0  0  0
 24 25  1  0  0  0  0
 24 26  2  0  0  0  0
 26 27  1  0  0  0  0
 28 29  2  0  0  0  0
 28 26  1  0  0  0  0
 29  9  1  0  0  0  0
 30 31  1  0  0  0  0
 30 32  1  0  0  0  0
 32 33  1  0  0  0  0
 34 32  2  0  0  0  0
 34 38  1  0  0  0  0
 35 34  1  0  0  0  0
 36 35  1  0  0  0  0
 37 13  1  0  0  0  0
 37 35  2  0  0  0  0
 38 41  1  0  0  0  0
 39 38  1  0  0  0  0
 40 38  1  0  0  0  0
M  END
