4,9,19
q = 0.0, confidence = 0.992

 58 60  0  0  0  0  0  0  0  0999 V2000
   -2.0791   -1.2889   -0.2417 N   0  0  0  0  0  0  0  0  0  0  0  0
   -3.9955    0.3611   -0.4391 C   0  0  0  0  0  0  0  0  0  0  0  0
    3.9134   -1.1217   -0.0382 C   0  0  0  0  0  0  0  0  0  0  0  0
   -0.0254   -3.2086   -1.3800 N   0  0  0  0  0  0  0  0  0  0  0  0
   -5.7158    2.8928    1.5451 F   0  0  0  0  0  0  0  0  0  0  0  0
   -2.5692   -0.0127   -0.8024 C   0  0  0  0  0  0  0  0  0  0  0  0
   -2.4527   -0.0754   -1.9035 H   0  0  0  0  0  0  0  0  0  0  0  0
   -1.9007    0.8021   -0.4663 H   0  0  0  0  0  0  0  0  0  0  0  0
    0.0273   -0.7982    1.8856 N   0  0  0  0  0  0  0  0  0  0  0  0
   -4.2068    1.4831    0.3858 C   0  0  0  0  0  0  0  0  0  0  0  0
   -3.3569    2.0972    0.7206 H   0  0  0  0  0  0  0  0  0  0  0  0
    1.0544   -4.1377   -1.0310 C   0  0  0  0  0  0  0  0  0  0  0  0
    0.7539   -5.2038   -1.1809 H   0  0  0  0  0  0  0  0  0  0  0  0
    1.8985   -3.9487   -1.7255 H   0  0  0  0  0  0  0  0  0  0  0  0
   -6.6251    1.0773    0.3461 C   0  0  0  0  0  0  0  0  0  0  0  0
   -7.6432    1.3552    0.6482 H   0  0  0  0  0  0  0  0  0  0  0  0
   -5.0990   -0.4006   -0.8772 C   0  0  0  0  0  0  0  0  0  0  0  0
   -4.9797   -1.2688   -1.5395 H   0  0  0  0  0  0  0  0  0  0  0  0
    2.1138   -2.6719    0.7092 N   0  0  0  0  0  0  0  0  0  0  0  0
   -7.4389   -0.7585   -0.8985 F   0  0  0  0  0  0  0  0  0  0  0  0
    3.4870   -0.4872   -1.2205 C   0  0  0  0  0  0  0  0  0  0  0  0
    2.9122   -1.0248   -1.9895 H   0  0  0  0  0  0  0  0  0  0  0  0
   -5.5133    1.8208    0.7597 C   0  0  0  0  0  0  0  0  0  0  0  0
    4.5643    1.5918   -0.5098 C   0  0  0  0  0  0  0  0  0  0  0  0
    4.8003    2.6485   -0.6833 H   0  0  0  0  0  0  0  0  0  0  0  0
   -1.3983   -0.5441    2.0714 C   0  0  0  0  0  0  0  0  0  0  0  0
   -1.7183   -0.6820    3.1338 H   0  0  0  0  0  0  0  0  0  0  0  0
   -1.5698    0.5206    1.8187 H   0  0  0  0  0  0  0  0  0  0  0  0
   -6.3870   -0.0308   -0.4762 C   0  0  0  0  0  0  0  0  0  0  0  0
    3.8247    0.8529   -1.4396 C   0  0  0  0  0  0  0  0  0  0  0  0
    3.4372    1.4451   -2.5773 F   0  0  0  0  0  0  0  0  0  0  0  0
   -2.2902   -1.4414    1.2003 C   0  0  0  0  0  0  0  0  0  0  0  0
   -3.3555   -1.2513    1.4791 H   0  0  0  0  0  0  0  0  0  0  0  0
   -2.0960   -2.5025    1.4609 H   0  0  0  0  0  0  0  0  0  0  0  0
   -1.3466   -3.5963   -0.8769 C   0  0  0  0  0  0  0  0  0  0  0  0
   -1.7314   -4.5132   -1.3866 H   0  0  0  0  0  0  0  0  0  0  0  0
   -1.2368   -3.8672    0.1930 H   0  0  0  0  0  0  0  0  0  0  0  0
    3.5008   -2.5531    0.2208 C   0  0  0  0  0  0  0  0  0  0  0  0
    3.5726   -3.1196   -0.7288 H   0  0  0  0  0  0  0  0  0  0  0  0
    4.2126   -3.0371    0.9356 H   0  0  0  0  0  0  0  0  0  0  0  0
    4.6683   -0.4047    0.9059 C   0  0  0  0  0  0  0  0  0  0  0  0
    5.0273   -0.8729    1.8336 H   0  0  0  0  0  0  0  0  0  0  0  0
    0.5852   -1.9376    2.5918 C   0  0  0  0  0  0  0  0  0  0  0  0
    0.6305   -1.7816    3.6996 H   0  0  0  0  0  0  0  0  0  0  0  0
   -0.0866   -2.8120    2.4469 H   0  0  0  0  0  0  0  0  0  0  0  0
    2.0035   -2.2700    2.1182 C   0  0  0  0  0  0  0  0  0  0  0  0
    2.4398   -3.0505    2.7929 H   0  0  0  0  0  0  0  0  0  0  0  0
    2.6229   -1.3586    2.2437 H   0  0  0  0  0  0  0  0  0  0  0  0
    5.6845    1.6244    1.5669 F   0  0  0  0  0  0  0  0  0  0  0  0
    4.9722    0.9399    0.6559 C   0  0  0  0  0  0  0  0  0  0  0  0
   -2.3984   -2.4864   -1.0103 C   0  0  0  0  0  0  0  0  0  0  0  0
   -3.3897   -2.9317   -0.7400 H   0  0  0  0  0  0  0  0  0  0  0  0
   -2.4725   -2.1943   -2.0794 H   0  0  0  0  0  0  0  0  0  0  0  0
    1.5403   -3.9846    0.4194 C   0  0  0  0  0  0  0  0  0  0  0  0
    2.2617   -4.8122    0.6385 H   0  0  0  0  0  0  0  0  0  0  0  0
    0.6828   -4.1466    1.1022 H   0  0  0  0  0  0  0  0  0  0  0  0
    0.5831    0.0587    2.0438 H   0  0  0  0  0  0  0  0  0  0  0  0
   -0.0686   -3.0996   -2.3995 H   0  0  0  0  0  0  0  0  0  0  0  0
  1 32  1  0  0  0  0
  2 10  1  0  0  0  0
  3 38  1  0  0  0  0
  3 41  1  0  0  0  0
  4 12  1  0  0  0  0
  4 35  1  0  0  0  0
  6  8  1  0  0  0  0
  6  2  1  0  0  0  0
  6  1  1  0  0  0  0
  7  6  1  0  0  0  0
  9 57  1  0  0  0  0
  9 26  1  0  0  0  0
  9 43  1  0  0  0  0
 10 11  1  0  0  0  0
 10 23  2  0  0  0  0
 12 54  1  0  0  0  0
 13 12  1  0  0  0  0
 14 12  1  0  0  0  0
 15 16  1  0  0  0  0
 15 23  1  0  0  0  0
 17 29  1  0  0  0  0
 17  2  2  0  0  0  0
 18 17  1  0  0  0  0
 19 46  1  0  0  0  0
 20 29  1  0  0  0  0
 21  3  2  0  0  0  0
 22 21  1  0  0  0  0
 23  5  1  0  0  0  0
 24 50  1  0  0  0  0
 25 24  1  0  0  0  0
 26 27  1  0  0  0  0
 28 26  1  0  0  0  0
 29 15  2  0  0  0  0
 30 21  1  0  0  0  0
 30 24  2  0  0  0  0
 31 30  1  0  0  0  0
 32 34  1  0  0  0  0
 32 33  1  0  0  0  0
 32 26  1  0  0  0  0
 35 37  1  0  0  0  0
 36 35  1  0  0  0  0
 38 19  1  0  0  0  0
 38 40  1  0  0  0  0
 39 38  1  0  0  0  0
 41 42  1  0  0  0  0
 43 44  1  0  0  0  0
 45 43  1  0  0  0  0
 46 48  1  0  0  0  0
 46 43  1  0  0  0  0
 46 47  1  0  0  0  0
 50 41  2  0  0  0  0
 50 49  1  0  0  0  0
 51 35  1  0  0  0  0
 51 52  1  0  0  0  0
 51  1  1  0  0  0  0
 53 51  1  0  0  0  0
 54 55  1  0  0  0  0
 54 19  1  0  0  0  0
 54 56  1  0  0  0  0
 58  4  1  0  0  0  0
M  END
