1,12,32
q = -2.0, confidence = 0.852

 49 51  0  0  1  0  0  0  0  0999 V2000
   -0.0000    1.9773   -0.2127 N   0  0  0  0  0  2  0  0  0  0  0  0
   -1.1809    2.6233   -0.1915 C   0  0  2  0  0  3  0  0  0  0  0  0
   -1.2200    4.0237   -0.1846 C   0  0  0  0  0  0  0  0  0  0  0  0
   -2.2024    4.5173   -0.1686 H   0  0  0  0  0  0  0  0  0  0  0  0
   -0.0000    4.7272   -0.1879 C   0  0  0  0  0  0  0  0  0  0  0  0
   -0.0000    5.8286   -0.1820 H   0  0  0  0  0  0  0  0  0  0  0  0
    1.2200    4.0237   -0.1846 C   0  0  0  0  0  0  0  0  0  0  0  0
    2.2024    4.5173   -0.1685 H   0  0  0  0  0  0  0  0  0  0  0  0
    1.1809    2.6233   -0.1915 C   0  0  0  0  0  0  0  0  0  0  0  0
   -2.3529    1.6829   -0.1571 C   0  0  0  0  0  0  0  0  0  0  0  0
   -3.5262    2.0908   -0.1330 O   0  0  0  0  0  0  0  0  0  0  0  0
   -1.9094    0.3824   -0.1596 N   0  0  0  0  0  2  0  0  0  0  0  0
   -2.8700   -0.6551   -0.1423 C   0  0  0  0  0  0  0  0  0  0  0  0
   -3.6167   -0.9324    1.0333 C   0  0  0  0  0  0  0  0  0  0  0  0
   -4.5192   -2.0122    1.0179 C   0  0  0  0  0  0  0  0  0  0  0  0
   -5.0965   -2.2324    1.9307 H   0  0  0  0  0  0  0  0  0  0  0  0
   -4.6819   -2.8097   -0.1238 C   0  0  0  0  0  0  0  0  0  0  0  0
   -5.3874   -3.6556   -0.1121 H   0  0  0  0  0  0  0  0  0  0  0  0
   -3.9356   -2.5303   -1.2774 C   0  0  0  0  0  0  0  0  0  0  0  0
   -4.0555   -3.1523   -2.1796 H   0  0  0  0  0  0  0  0  0  0  0  0
   -3.0294   -1.4545   -1.3060 C   0  0  0  0  0  0  0  0  0  0  0  0
   -3.4208   -0.0886    2.2626 C   0  0  0  0  0  0  0  0  0  0  0  0
   -2.3488   -0.0569    2.5472 H   0  0  0  0  0  0  0  0  0  0  0  0
   -3.9983   -0.4879    3.1191 H   0  0  0  0  0  0  0  0  0  0  0  0
   -3.7471    0.9534    2.0619 H   0  0  0  0  0  0  0  0  0  0  0  0
   -2.2233   -1.1340   -2.5353 C   0  0  0  0  0  0  0  0  0  0  0  0
   -2.3499   -1.9041   -3.3214 H   0  0  0  0  0  0  0  0  0  0  0  0
   -1.1462   -1.0441   -2.2751 H   0  0  0  0  0  0  0  0  0  0  0  0
   -2.5105   -0.1471   -2.9559 H   0  0  0  0  0  0  0  0  0  0  0  0
    2.3529    1.6828   -0.1571 C   0  0  0  0  0  0  0  0  0  0  0  0
    3.5262    2.0908   -0.1329 O   0  0  0  0  0  0  0  0  0  0  0  0
    1.9093    0.3824   -0.1596 N   0  0  0  0  0  2  0  0  0  0  0  0
    2.8700   -0.6551   -0.1423 C   0  0  0  0  0  0  0  0  0  0  0  0
    3.6166   -0.9325    1.0334 C   0  0  0  0  0  0  0  0  0  0  0  0
    4.5192   -2.0122    1.0179 C   0  0  0  0  0  0  0  0  0  0  0  0
    5.0965   -2.2324    1.9307 H   0  0  0  0  0  0  0  0  0  0  0  0
    4.6820   -2.8097   -0.1238 C   0  0  0  0  0  0  0  0  0  0  0  0
    5.3875   -3.6555   -0.1121 H   0  0  0  0  0  0  0  0  0  0  0  0
    3.9357   -2.5302   -1.2774 C   0  0  0  0  0  0  0  0  0  0  0  0
    4.0556   -3.1522   -2.1797 H   0  0  0  0  0  0  0  0  0  0  0  0
    3.0295   -1.4545   -1.3060 C   0  0  0  0  0  0  0  0  0  0  0  0
    3.4207   -0.0887    2.2626 C   0  0  0  0  0  0  0  0  0  0  0  0
    3.9982   -0.4880    3.1192 H   0  0  0  0  0  0  0  0  0  0  0  0
    2.3487   -0.0570    2.5473 H   0  0  0  0  0  0  0  0  0  0  0  0
    3.7470    0.9533    2.0620 H   0  0  0  0  0  0  0  0  0  0  0  0
    2.2234   -1.1339   -2.5353 C   0  0  0  0  0  0  0  0  0  0  0  0
    2.3501   -1.9040   -3.3215 H   0  0  0  0  0  0  0  0  0  0  0  0
    2.5106   -0.1470   -2.9559 H   0  0  0  0  0  0  0  0  0  0  0  0
    1.1463   -1.0440   -2.2752 H   0  0  0  0  0  0  0  0  0  0  0  0
  1  2  1  0  0  0  0
  1  9  1  0  0  0  0
  2  3  1  0  0  0  0
  2 10  1  1  0  0  0
  3  4  1  0  0  0  0
  5  3  2  0  0  0  0
  5  7  1  0  0  0  0
  5  6  1  0  0  0  0
  7  8  1  0  0  0  0
  9  7  2  0  0  0  0
  9 30  1  0  0  0  0
 10 11  2  0  0  0  0
 12 10  1  0  0  0  0
 12 13  1  0  0  0  0
 13 14  1  0  0  0  0
 14 22  1  0  0  0  0
 15 14  2  0  0  0  0
 15 16  1  0  0  0  0
 17 18  1  0  0  0  0
 17 15  1  0  0  0  0
 19 17  2  0  0  0  0
 20 19  1  0  0  0  0
 21 19  1  0  0  0  0
 21 13  2  0  0  0  0
 22 23  1  0  0  0  0
 22 24  1  0  0  0  0
 25 22  1  0  0  0  0
 26 28  1  0  0  0  0
 26 21  1  0  0  0  0
 27 26  1  0  0  0  0
 29 26  1  0  0  0  0
 30 31  2  0  0  0  0
 32 30  1  0  0  0  0
 32 33  1  0  0  0  0
 33 34  1  0  0  0  0
 34 42  1  0  0  0  0
 35 34  2  0  0  0  0
 35 36  1  0  0  0  0
 37 38  1  0  0  0  0
 37 35  1  0  0  0  0
 39 37  2  0  0  0  0
 40 39  1  0  0  0  0
 41 39  1  0  0  0  0
 41 33  2  0  0  0  0
 42 44  1  0  0  0  0
 42 43  1  0  0  0  0
 45 42  1  0  0  0  0
 46 49  1  0  0  0  0
 46 41  1  0  0  0  0
 47 46  1  0  0  0  0
 48 46  1  0  0  0  0
M  END
