7,9,11
q = 0.0, confidence = 0.994

 37 39  0  0  1  0  0  0  0  0999 V2000
   -4.9385   -2.6272    0.0148 F   0  0  0  0  0  0  0  0  0  0  0  0
   -5.7952   -0.7867    0.8145 F   0  0  0  0  0  0  0  0  0  0  0  0
   -4.2179   -1.8292    1.9132 F   0  0  0  0  0  0  0  0  0  0  0  0
   -2.2396    2.4682   -2.9017 F   0  0  0  0  0  0  0  0  0  0  0  0
   -3.4192    3.2755   -1.2583 F   0  0  0  0  0  0  0  0  0  0  0  0
   -1.2572    3.0773   -1.0468 F   0  0  0  0  0  0  0  0  0  0  0  0
    2.0748   -1.2054   -1.1916 N   0  0  0  0  0  2  0  0  0  0  0  0
    1.9877   -2.4198   -0.5151 N   0  0  0  0  0  0  0  0  0  0  0  0
   -0.2045   -1.8177   -0.2070 N   0  0  0  0  0  2  0  0  0  0  0  0
   -2.3257   -0.9523   -0.3312 N   0  0  0  0  0  0  0  0  0  0  0  0
   -1.6794    0.1364   -0.9090 N   0  0  0  0  0  2  0  0  0  0  0  0
    3.8128    0.1184   -2.3523 C   0  0  0  0  0  0  0  0  0  0  0  0
    2.9666    0.6033   -2.8821 H   0  0  0  0  0  0  0  0  0  0  0  0
    4.6190   -0.1474   -3.0619 H   0  0  0  0  0  0  0  0  0  0  0  0
    4.2213    0.8691   -1.6409 H   0  0  0  0  0  0  0  0  0  0  0  0
    3.3389   -1.0887   -1.6225 C   0  0  1  0  0  3  0  0  0  0  0  0
    4.0760   -2.2390   -1.2235 C   0  0  0  0  0  0  0  0  0  0  0  0
    5.1349   -2.4353   -1.4199 H   0  0  0  0  0  0  0  0  0  0  0  0
    3.2138   -3.0663   -0.5208 C   0  0  0  0  0  0  0  0  0  0  0  0
    3.4989   -4.3710    0.1402 C   0  0  0  0  0  0  0  0  0  0  0  0
    4.5816   -4.5793    0.0628 H   0  0  0  0  0  0  0  0  0  0  0  0
    2.9622   -5.2169   -0.3378 H   0  0  0  0  0  0  0  0  0  0  0  0
    3.2336   -4.3506    1.2171 H   0  0  0  0  0  0  0  0  0  0  0  0
    0.7268   -2.8005   -0.0397 C   0  0  1  0  0  3  0  0  0  0  0  0
    0.3645   -4.0415    0.4973 C   0  0  0  0  0  0  0  0  0  0  0  0
    1.1031   -4.8313    0.6557 H   0  0  0  0  0  0  0  0  0  0  0  0
   -0.9924   -4.2700    0.7774 C   0  0  0  0  0  0  0  0  0  0  0  0
   -1.3042   -5.2449    1.1770 H   0  0  0  0  0  0  0  0  0  0  0  0
   -1.9663   -3.2984    0.5012 C   0  0  0  0  0  0  0  0  0  0  0  0
   -3.0264   -3.5216    0.6409 H   0  0  0  0  0  0  0  0  0  0  0  0
   -1.5289   -2.0665    0.0029 C   0  0  0  0  0  0  0  0  0  0  0  0
   -4.6466   -1.4702    0.6665 C   0  0  0  0  0  0  0  0  0  0  0  0
   -3.6453   -0.6261   -0.0524 C   0  0  1  0  0  3  0  0  0  0  0  0
   -3.8403    0.6813   -0.4666 C   0  0  0  0  0  0  0  0  0  0  0  0
   -4.7636    1.2597   -0.3906 H   0  0  0  0  0  0  0  0  0  0  0  0
   -2.6036    1.1157   -0.9866 C   0  0  0  0  0  0  0  0  0  0  0  0
   -2.3518    2.4854   -1.5673 C   0  0  0  0  0  0  0  0  0  0  0  0
  1 32  1  0  0  0  0
  4 37  1  0  0  0  0
  7  8  1  0  0  0  0
  9 24  1  0  0  0  0
  9 31  1  0  0  0  0
 10 33  1  0  0  0  0
 10 31  1  0  0  0  0
 11 10  1  0  0  0  0
 12 15  1  0  0  0  0
 13 12  1  0  0  0  0
 14 12  1  0  0  0  0
 16 12  1  1  0  0  0
 16 17  1  0  0  0  0
 16  7  1  0  0  0  0
 17 19  2  0  0  0  0
 18 17  1  0  0  0  0
 19  8  1  0  0  0  0
 19 20  1  0  0  0  0
 20 23  1  0  0  0  0
 21 20  1  0  0  0  0
 22 20  1  0  0  0  0
 24  8  1  6  0  0  0
 24 25  1  0  0  0  0
 25 26  1  0  0  0  0
 25 27  2  0  0  0  0
 27 28  1  0  0  0  0
 29 30  1  0  0  0  0
 29 27  1  0  0  0  0
 31 29  2  0  0  0  0
 32  2  1  0  0  0  0
 32  3  1  0  0  0  0
 33 32  1  1  0  0  0
 34 35  1  0  0  0  0
 34 33  1  0  0  0  0
 36 11  1  0  0  0  0
 36 34  2  0  0  0  0
 37  5  1  0  0  0  0
 37  6  1  0  0  0  0
 37 36  1  0  0  0  0
M  END
