1,3,6
q = 0.0, confidence = 0.948

 60 64  0  0  1  0  0  0  0  0999 V2000
    2.0994    0.3797    0.0048 N   0  0  0  0  0  2  0  0  0  0  0  0
    2.7994    1.5331   -0.1031 C   0  0  0  0  0  0  0  0  0  0  0  0
    0.6545   -1.7121    0.0633 N   0  0  0  0  0  2  0  0  0  0  0  0
    4.2090    1.4947   -0.3163 C   0  0  0  0  0  0  0  0  0  0  0  0
    4.7465    2.4512   -0.3750 H   0  0  0  0  0  0  0  0  0  0  0  0
   -1.6174   -0.8612    0.2310 N   0  0  0  0  0  2  0  0  0  0  0  0
    4.9063    0.2940   -0.4016 C   0  0  0  0  0  0  0  0  0  0  0  0
    5.9978    0.2865   -0.5419 H   0  0  0  0  0  0  0  0  0  0  0  0
    4.1888   -0.9261   -0.2967 C   0  0  0  0  0  0  0  0  0  0  0  0
    4.7351   -2.2558   -0.3717 C   0  0  0  0  0  0  0  0  0  0  0  0
    5.8218   -2.3647   -0.5088 H   0  0  0  0  0  0  0  0  0  0  0  0
    3.9372   -3.3849   -0.2779 C   0  0  0  0  0  0  0  0  0  0  0  0
    4.3934   -4.3849   -0.3345 H   0  0  0  0  0  0  0  0  0  0  0  0
    2.5131   -3.2832   -0.1166 C   0  0  0  0  0  0  0  0  0  0  0  0
    1.5711   -4.3520   -0.0104 C   0  0  0  0  0  0  0  0  0  0  0  0
    1.9212   -5.3939   -0.0480 H   0  0  0  0  0  0  0  0  0  0  0  0
    0.2131   -4.0719    0.1488 C   0  0  0  0  0  0  0  0  0  0  0  0
   -0.5160   -4.8894    0.2403 H   0  0  0  0  0  0  0  0  0  0  0  0
   -0.2516   -2.7310    0.1882 C   0  0  0  0  0  0  0  0  0  0  0  0
    1.9850   -1.9707   -0.0519 C   0  0  0  0  0  0  0  0  0  0  0  0
    2.7870   -0.8027   -0.1064 C   0  0  0  0  0  0  0  0  0  0  0  0
    2.0875    2.8241    0.0108 C   0  0  0  0  0  0  0  0  0  0  0  0
    1.0550    2.9981    0.9590 C   0  0  0  0  0  0  0  0  0  0  0  0
    0.8186    2.1782    1.6562 H   0  0  0  0  0  0  0  0  0  0  0  0
    0.3702    4.2163    1.0418 C   0  0  0  0  0  0  0  0  0  0  0  0
   -0.4305    4.3368    1.7872 H   0  0  0  0  0  0  0  0  0  0  0  0
    0.7016    5.2763    0.1829 C   0  0  0  0  0  0  0  0  0  0  0  0
    0.1557    6.2300    0.2436 H   0  0  0  0  0  0  0  0  0  0  0  0
    1.7347    5.1152   -0.7547 C   0  0  0  0  0  0  0  0  0  0  0  0
    1.9946    5.9386   -1.4371 H   0  0  0  0  0  0  0  0  0  0  0  0
    2.4273    3.9004   -0.8373 C   0  0  0  0  0  0  0  0  0  0  0  0
    3.2107    3.7690   -1.5990 H   0  0  0  0  0  0  0  0  0  0  0  0
   -1.5923   -2.1987    0.2663 C   0  0  2  0  0  3  0  0  0  0  0  0
   -2.8024   -3.0777    0.3090 C   0  0  0  0  0  0  0  0  0  0  0  0
   -3.7093   -2.4948    0.5512 H   0  0  0  0  0  0  0  0  0  0  0  0
   -2.6728   -3.8710    1.0730 H   0  0  0  0  0  0  0  0  0  0  0  0
   -2.9677   -3.5832   -0.6663 H   0  0  0  0  0  0  0  0  0  0  0  0
   -2.8499   -0.1833   -0.0282 C   0  0  0  0  0  0  0  0  0  0  0  0
   -3.4141   -0.2842   -1.3333 C   0  0  0  0  0  0  0  0  0  0  0  0
   -4.6142    0.4058   -1.5867 C   0  0  0  0  0  0  0  0  0  0  0  0
   -5.0640    0.3425   -2.5884 H   0  0  0  0  0  0  0  0  0  0  0  0
   -5.2379    1.1750   -0.5983 C   0  0  0  0  0  0  0  0  0  0  0  0
   -6.1764    1.7050   -0.8211 H   0  0  0  0  0  0  0  0  0  0  0  0
   -4.6577    1.2728    0.6715 C   0  0  0  0  0  0  0  0  0  0  0  0
   -5.1393    1.8789    1.4550 H   0  0  0  0  0  0  0  0  0  0  0  0
   -3.4566    0.6093    0.9818 C   0  0  0  0  0  0  0  0  0  0  0  0
   -2.8841    0.7164    2.3748 C   0  0  0  0  0  0  0  0  0  0  0  0
   -1.7959    0.9231    2.3216 H   0  0  0  0  0  0  0  0  0  0  0  0
   -3.3581    1.5847    2.8774 H   0  0  0  0  0  0  0  0  0  0  0  0
   -3.0791   -0.5414    3.2331 C   0  0  0  0  0  0  0  0  0  0  0  0
   -2.6943   -0.3733    4.2588 H   0  0  0  0  0  0  0  0  0  0  0  0
   -2.5131   -1.3980    2.8180 H   0  0  0  0  0  0  0  0  0  0  0  0
   -4.1494   -0.8255    3.3044 H   0  0  0  0  0  0  0  0  0  0  0  0
   -2.7593   -1.0978   -2.4350 C   0  0  0  0  0  0  0  0  0  0  0  0
   -1.7101   -1.3036   -2.1524 H   0  0  0  0  0  0  0  0  0  0  0  0
   -3.2710   -2.0859   -2.5043 H   0  0  0  0  0  0  0  0  0  0  0  0
   -2.7582   -0.4291   -3.8128 C   0  0  0  0  0  0  0  0  0  0  0  0
   -2.2255   -1.0649   -4.5483 H   0  0  0  0  0  0  0  0  0  0  0  0
   -2.2321    0.5441   -3.7567 H   0  0  0  0  0  0  0  0  0  0  0  0
   -3.7793   -0.2559   -4.2083 H   0  0  0  0  0  0  0  0  0  0  0  0
  2  1  1  0  0  0  0
  2 22  1  0  0  0  0
  3 19  1  0  0  0  0
  4  2  2  0  0  0  0
  5  4  1  0  0  0  0
  7  4  1  0  0  0  0
  7  9  2  0  0  0  0
  8  7  1  0  0  0  0
  9 21  1  0  0  0  0
 10  9  1  0  0  0  0
 10 12  2  0  0  0  0
 11 10  1  0  0  0  0
 12 14  1  0  0  0  0
 13 12  1  0  0  0  0
 14 20  1  0  0  0  0
 14 15  2  0  0  0  0
 15 17  1  0  0  0  0
 16 15  1  0  0  0  0
 17 19  2  0  0  0  0
 17 18  1  0  0  0  0
 19 33  1  0  0  0  0
 20  3  1  0  0  0  0
 21 20  2  0  0  0  0
 21  1  1  0  0  0  0
 22 23  1  0  0  0  0
 23 25  2  0  0  0  0
 23 24  1  0  0  0  0
 25 26  1  0  0  0  0
 27 28  1  0  0  0  0
 27 25  1  0  0  0  0
 29 27  2  0  0  0  0
 30 29  1  0  0  0  0
 31 29  1  0  0  0  0
 31 22  2  0  0  0  0
 32 31  1  0  0  0  0
 33  6  1  6  0  0  0
 33 34  1  0  0  0  0
 34 35  1  0  0  0  0
 34 36  1  0  0  0  0
 37 34  1  0  0  0  0
 38  6  1  0  0  0  0
 38 46  1  0  0  0  0
 39 38  2  0  0  0  0
 40 39  1  0  0  0  0
 40 42  2  0  0  0  0
 41 40  1  0  0  0  0
 42 44  1  0  0  0  0
 43 42  1  0  0  0  0
 44 46  2  0  0  0  0
 44 45  1  0  0  0  0
 46 47  1  0  0  0  0
 47 49  1  0  0  0  0
 47 50  1  0  0  0  0
 48 47  1  0  0  0  0
 50 53  1  0  0  0  0
 50 51  1  0  0  0  0
 52 50  1  0  0  0  0
 54 55  1  0  0  0  0
 54 39  1  0  0  0  0
 56 54  1  0  0  0  0
 57 59  1  0  0  0  0
 57 54  1  0  0  0  0
 58 57  1  0  0  0  0
 60 57  1  0  0  0  0
M  END
