1,2,3
q = 0.0, confidence = 0.996

 35 38  0  0  1  0  0  0  0  0999 V2000
    1.9289   -1.3295   -0.0001 N   0  0  0  0  0  2  0  0  0  0  0  0
    0.8593    1.0066   -0.0005 N   0  0  0  0  0  2  0  0  0  0  0  0
   -1.6079    0.5116   -0.0002 N   0  0  0  0  0  2  0  0  0  0  0  0
   -1.2450    1.8470   -0.0003 N   0  0  0  0  0  0  0  0  0  0  0  0
   -3.5960   -1.4960   -1.0921 F   0  0  0  0  0  0  0  0  0  0  0  0
   -3.5965   -1.4949    1.0933 F   0  0  0  0  0  0  0  0  0  0  0  0
   -5.1066   -0.3666   -0.0004 F   0  0  0  0  0  0  0  0  0  0  0  0
    2.4301   -2.5672   -0.0004 C   0  0  0  0  0  0  0  0  0  0  0  0
    1.6924   -3.3853   -0.0004 H   0  0  0  0  0  0  0  0  0  0  0  0
    3.8287   -2.7914   -0.0004 C   0  0  0  0  0  0  0  0  0  0  0  0
    4.1947   -3.8279   -0.0006 H   0  0  0  0  0  0  0  0  0  0  0  0
    4.7218   -1.7204   -0.0002 C   0  0  0  0  0  0  0  0  0  0  0  0
    5.8084   -1.8945   -0.0001 H   0  0  0  0  0  0  0  0  0  0  0  0
    4.2096   -0.3954    0.0000 C   0  0  0  0  0  0  0  0  0  0  0  0
    2.7974   -0.2741   -0.0000 C   0  0  0  0  0  0  0  0  0  0  0  0
    4.9846    0.8246    0.0002 C   0  0  0  0  0  0  0  0  0  0  0  0
    6.0818    0.7421    0.0003 H   0  0  0  0  0  0  0  0  0  0  0  0
    4.3930    2.0740    0.0002 C   0  0  0  0  0  0  0  0  0  0  0  0
    5.0187    2.9787    0.0004 H   0  0  0  0  0  0  0  0  0  0  0  0
    2.9593    2.2146    0.0001 C   0  0  0  0  0  0  0  0  0  0  0  0
    2.2033    1.0173   -0.0001 C   0  0  0  0  0  0  0  0  0  0  0  0
    2.1945    3.4145    0.0001 C   0  0  0  0  0  0  0  0  0  0  0  0
    2.7057    4.3887    0.0002 H   0  0  0  0  0  0  0  0  0  0  0  0
    0.7944    3.3833   -0.0001 C   0  0  0  0  0  0  0  0  0  0  0  0
    0.2302    4.3207   -0.0000 H   0  0  0  0  0  0  0  0  0  0  0  0
    0.1405    2.1248   -0.0003 C   0  0  0  0  0  0  0  0  0  0  0  0
   -2.3177    4.1629   -0.0003 C   0  0  0  0  0  0  0  0  0  0  0  0
   -1.8103    4.5668    0.8994 H   0  0  0  0  0  0  0  0  0  0  0  0
   -3.3537    4.5458   -0.0003 H   0  0  0  0  0  0  0  0  0  0  0  0
   -1.8103    4.5668   -0.9000 H   0  0  0  0  0  0  0  0  0  0  0  0
   -2.3535    2.6737   -0.0003 C   0  0  1  0  0  3  0  0  0  0  0  0
   -3.4576    1.8281   -0.0003 C   0  0  0  0  0  0  0  0  0  0  0  0
   -4.5106    2.1241   -0.0003 H   0  0  0  0  0  0  0  0  0  0  0  0
   -2.9496    0.5097   -0.0002 C   0  0  0  0  0  0  0  0  0  0  0  0
   -3.8112   -0.7421    0.0001 C   0  0  0  0  0  0  0  0  0  0  0  0
  1 15  1  0  0  0  0
  2 26  1  0  0  0  0
  2 21  1  0  0  0  0
  3 34  1  0  0  0  0
  4 31  1  0  0  0  0
  4  3  1  0  0  0  0
  5 35  1  0  0  0  0
  7 35  1  0  0  0  0
  8  1  1  0  0  0  0
  9  8  1  0  0  0  0
 10  8  2  0  0  0  0
 10 12  1  0  0  0  0
 11 10  1  0  0  0  0
 12 13  1  0  0  0  0
 12 14  2  0  0  0  0
 14 16  1  0  0  0  0
 15 14  1  0  0  0  0
 16 18  2  0  0  0  0
 16 17  1  0  0  0  0
 18 19  1  0  0  0  0
 20 18  1  0  0  0  0
 21 15  2  0  0  0  0
 21 20  1  0  0  0  0
 22 20  2  0  0  0  0
 22 23  1  0  0  0  0
 24 25  1  0  0  0  0
 24 22  1  0  0  0  0
 26  4  1  0  0  0  0
 26 24  2  0  0  0  0
 27 29  1  0  0  0  0
 27 28  1  0  0  0  0
 30 27  1  0  0  0  0
 31 27  1  6  0  0  0
 31 32  1  0  0  0  0
 32 33  1  0  0  0  0
 32 34  2  0  0  0  0
 34 35  1  0  0  0  0
 35  6  1  0  0  0  0
M  END
