1,15,50
q = 0.0, confidence = 0.924

 67 68  0  0  1  0  0  0  0  0999 V2000
   -0.1320    2.2448    0.3209 N   0  0  0  0  0  2  0  0  0  0  0  0
   -1.3636    2.6198    0.7791 C   0  0  0  0  0  0  0  0  0  0  0  0
   -1.5878    3.9522    1.1840 C   0  0  0  0  0  0  0  0  0  0  0  0
   -2.5758    4.2544    1.5562 H   0  0  0  0  0  0  0  0  0  0  0  0
   -0.5366    4.8766    1.1019 C   0  0  0  0  0  0  0  0  0  0  0  0
   -0.6950    5.9185    1.4150 H   0  0  0  0  0  0  0  0  0  0  0  0
    0.7188    4.4727    0.6162 C   0  0  0  0  0  0  0  0  0  0  0  0
    1.5497    5.1871    0.5444 H   0  0  0  0  0  0  0  0  0  0  0  0
    0.9000    3.1336    0.2226 C   0  0  0  0  0  0  0  0  0  0  0  0
   -2.3167    1.5252    0.7737 C   0  0  0  0  0  0  0  0  0  0  0  0
   -3.7184    1.7665    1.2487 C   0  0  0  0  0  0  0  0  0  0  0  0
   -4.3390    0.8568    1.1817 H   0  0  0  0  0  0  0  0  0  0  0  0
   -4.1985    2.5661    0.6466 H   0  0  0  0  0  0  0  0  0  0  0  0
   -3.7159    2.1148    2.3030 H   0  0  0  0  0  0  0  0  0  0  0  0
   -1.8499    0.3566    0.3270 N   0  0  0  0  0  2  0  0  0  0  0  0
   -2.7674   -0.7553    0.3049 C   0  0  0  0  0  0  0  0  0  0  0  0
   -2.8937   -1.5834    1.4539 C   0  0  0  0  0  0  0  0  0  0  0  0
   -3.7748   -2.6801    1.3882 C   0  0  0  0  0  0  0  0  0  0  0  0
   -3.8771   -3.3319    2.2695 H   0  0  0  0  0  0  0  0  0  0  0  0
   -4.5243   -2.9506    0.2385 C   0  0  0  0  0  0  0  0  0  0  0  0
   -5.2049   -3.8150    0.2097 H   0  0  0  0  0  0  0  0  0  0  0  0
   -4.4156   -2.1000   -0.8671 C   0  0  0  0  0  0  0  0  0  0  0  0
   -5.0226   -2.2936   -1.7648 H   0  0  0  0  0  0  0  0  0  0  0  0
   -3.5489   -0.9903   -0.8599 C   0  0  0  0  0  0  0  0  0  0  0  0
   -2.1503   -1.3048    2.7541 C   0  0  0  0  0  0  0  0  0  0  0  0
   -1.4357   -0.4793    2.5712 H   0  0  0  0  0  0  0  0  0  0  0  0
   -1.3085   -2.5074    3.2077 C   0  0  0  0  0  0  0  0  0  0  0  0
   -1.9364   -3.3925    3.4425 H   0  0  0  0  0  0  0  0  0  0  0  0
   -0.7329   -2.2479    4.1188 H   0  0  0  0  0  0  0  0  0  0  0  0
   -0.5730   -2.7896    2.4303 H   0  0  0  0  0  0  0  0  0  0  0  0
   -3.1238   -0.8688    3.8641 C   0  0  0  0  0  0  0  0  0  0  0  0
   -3.7225    0.0140    3.5645 H   0  0  0  0  0  0  0  0  0  0  0  0
   -2.5663   -0.6052    4.7863 H   0  0  0  0  0  0  0  0  0  0  0  0
   -3.8367   -1.6801    4.1225 H   0  0  0  0  0  0  0  0  0  0  0  0
   -3.5081   -0.0674   -2.0703 C   0  0  0  0  0  0  0  0  0  0  0  0
   -2.6801    0.6529   -1.9248 H   0  0  0  0  0  0  0  0  0  0  0  0
   -4.8211    0.7238   -2.2069 C   0  0  0  0  0  0  0  0  0  0  0  0
   -4.7575    1.4363   -3.0549 H   0  0  0  0  0  0  0  0  0  0  0  0
   -5.0487    1.3050   -1.2915 H   0  0  0  0  0  0  0  0  0  0  0  0
   -5.6843    0.0509   -2.3956 H   0  0  0  0  0  0  0  0  0  0  0  0
   -3.1899   -0.8260   -3.3677 C   0  0  0  0  0  0  0  0  0  0  0  0
   -3.9928   -1.5421   -3.6428 H   0  0  0  0  0  0  0  0  0  0  0  0
   -2.2391   -1.3858   -3.2773 H   0  0  0  0  0  0  0  0  0  0  0  0
   -3.0691   -0.1117   -4.2066 H   0  0  0  0  0  0  0  0  0  0  0  0
    2.1123    2.5163   -0.3044 C   0  0  1  0  0  3  0  0  0  0  0  0
    3.3403    3.3643   -0.4687 C   0  0  0  0  0  0  0  0  0  0  0  0
    4.1654    2.8421   -0.9809 H   0  0  0  0  0  0  0  0  0  0  0  0
    3.7125    3.7007    0.5221 H   0  0  0  0  0  0  0  0  0  0  0  0
    3.0980    4.2776   -1.0500 H   0  0  0  0  0  0  0  0  0  0  0  0
    2.0151    1.2253   -0.5870 N   0  0  0  0  0  2  0  0  0  0  0  0
    3.1963    0.5043   -1.0530 C   0  0  0  0  0  0  0  0  0  0  0  0
    3.7704    1.1132   -1.7856 H   0  0  0  0  0  0  0  0  0  0  0  0
    2.8437   -0.3836   -1.6058 H   0  0  0  0  0  0  0  0  0  0  0  0
    4.0968    0.0771    0.1132 C   0  0  0  0  0  0  0  0  0  0  0  0
    4.4788    0.9830    0.6319 H   0  0  0  0  0  0  0  0  0  0  0  0
    3.4653   -0.4472    0.8614 H   0  0  0  0  0  0  0  0  0  0  0  0
    5.2707   -0.7942   -0.3341 C   0  0  0  0  0  0  0  0  0  0  0  0
    4.8888   -1.6903   -0.8744 H   0  0  0  0  0  0  0  0  0  0  0  0
    5.8964   -0.2472   -1.0739 H   0  0  0  0  0  0  0  0  0  0  0  0
    6.1561   -1.2519    0.8373 C   0  0  0  0  0  0  0  0  0  0  0  0
    6.5565   -0.3646    1.3738 H   0  0  0  0  0  0  0  0  0  0  0  0
    5.5117   -1.7926    1.5679 H   0  0  0  0  0  0  0  0  0  0  0  0
    7.2863   -2.1445    0.4116 C   0  0  0  0  0  0  0  0  0  0  0  0
    6.9911   -3.0880   -0.0863 H   0  0  0  0  0  0  0  0  0  0  0  0
    8.5943   -1.8784    0.5697 C   0  0  0  0  0  0  0  0  0  0  0  0
    8.9350   -0.9493    1.0575 H   0  0  0  0  0  0  0  0  0  0  0  0
    9.3726   -2.5773    0.2257 H   0  0  0  0  0  0  0  0  0  0  0  0
  1  2  1  0  0  0  0
  2  3  1  0  0  0  0
  3  4  1  0  0  0  0
  5  3  2  0  0  0  0
  5  6  1  0  0  0  0
  7  5  1  0  0  0  0
  8  7  1  0  0  0  0
  9  1  1  0  0  0  0
  9  7  2  0  0  0  0
 10  2  2  0  0  0  0
 10 11  1  0  0  0  0
 11 14  1  0  0  0  0
 12 11  1  0  0  0  0
 13 11  1  0  0  0  0
 15 10  1  0  0  0  0
 16 15  1  0  0  0  0
 16 17  1  0  0  0  0
 17 25  1  0  0  0  0
 18 17  2  0  0  0  0
 18 19  1  0  0  0  0
 20 18  1  0  0  0  0
 21 20  1  0  0  0  0
 22 24  1  0  0  0  0
 22 20  2  0  0  0  0
 23 22  1  0  0  0  0
 24 16  2  0  0  0  0
 25 27  1  0  0  0  0
 25 31  1  0  0  0  0
 26 25  1  0  0  0  0
 27 28  1  0  0  0  0
 27 29  1  0  0  0  0
 30 27  1  0  0  0  0
 31 34  1  0  0  0  0
 31 33  1  0  0  0  0
 32 31  1  0  0  0  0
 35 36  1  0  0  0  0
 35 24  1  0  0  0  0
 37 35  1  0  0  0  0
 37 39  1  0  0  0  0
 38 37  1  0  0  0  0
 40 37  1  0  0  0  0
 41 43  1  0  0  0  0
 41 35  1  0  0  0  0
 42 41  1  0  0  0  0
 44 41  1  0  0  0  0
 45 50  1  1  0  0  0
 45  9  1  0  0  0  0
 46 45  1  0  0  0  0
 46 48  1  0  0  0  0
 47 46  1  0  0  0  0
 49 46  1  0  0  0  0
 51 50  1  0  0  0  0
 51 54  1  0  0  0  0
 52 51  1  0  0  0  0
 53 51  1  0  0  0  0
 54 55  1  0  0  0  0
 54 56  1  0  0  0  0
 57 54  1  0  0  0  0
 57 60  1  0  0  0  0
 58 57  1  0  0  0  0
 59 57  1  0  0  0  0
 60 61  1  0  0  0  0
 60 62  1  0  0  0  0
 63 65  2  0  0  0  0
 63 60  1  0  0  0  0
 64 63  1  0  0  0  0
 65 66  1  0  0  0  0
 67 65  1  0  0  0  0
M  END
