4,7,8
q = 0.0, confidence = 0.994

 26 25  0  0  0  0  0  0  0  0999 V2000
    4.3963   -0.0015    1.7691 O   0  0  0  0  0  0  0  0  0  0  0  0
    5.3639   -0.0013    1.5882 H   0  0  0  0  0  0  0  0  0  0  0  0
    4.2975    0.0008   -0.4983 O   0  0  0  0  0  0  0  0  0  0  0  0
   -0.5190   -2.0568   -0.1859 N   0  0  0  0  0  0  0  0  0  0  0  0
   -0.8650   -2.5602    0.6471 H   0  0  0  0  0  0  0  0  0  0  0  0
   -1.1566   -2.3270   -0.9536 H   0  0  0  0  0  0  0  0  0  0  0  0
    1.4357    0.0003   -0.4219 N   0  0  0  0  0  0  0  0  0  0  0  0
   -0.5195    2.0570   -0.1853 N   0  0  0  0  0  0  0  0  0  0  0  0
   -1.1568    2.3271   -0.9531 H   0  0  0  0  0  0  0  0  0  0  0  0
   -0.8659    2.5601    0.6477 H   0  0  0  0  0  0  0  0  0  0  0  0
    0.9045   -2.4241   -0.5007 C   0  0  0  0  0  0  0  0  0  0  0  0
    0.9490   -3.3369   -1.1283 H   0  0  0  0  0  0  0  0  0  0  0  0
    1.4056   -2.6715    0.4552 H   0  0  0  0  0  0  0  0  0  0  0  0
    1.6121   -1.2692   -1.2117 C   0  0  0  0  0  0  0  0  0  0  0  0
    2.6876   -1.4912   -1.3649 H   0  0  0  0  0  0  0  0  0  0  0  0
    1.1564   -1.0927   -2.2056 H   0  0  0  0  0  0  0  0  0  0  0  0
    1.6120    1.2703   -1.2109 C   0  0  0  0  0  0  0  0  0  0  0  0
    1.1566    1.0942   -2.2051 H   0  0  0  0  0  0  0  0  0  0  0  0
    2.6875    1.4925   -1.3638 H   0  0  0  0  0  0  0  0  0  0  0  0
    0.9040    2.4246   -0.4994 C   0  0  0  0  0  0  0  0  0  0  0  0
    1.4049    2.6714    0.4567 H   0  0  0  0  0  0  0  0  0  0  0  0
    0.9486    3.3378   -1.1265 H   0  0  0  0  0  0  0  0  0  0  0  0
    2.2444    0.0000    0.8240 C   0  0  0  0  0  0  0  0  0  0  0  0
    1.9758   -0.8760    1.4450 H   0  0  0  0  0  0  0  0  0  0  0  0
    1.9762    0.8761    1.4450 H   0  0  0  0  0  0  0  0  0  0  0  0
    3.7584   -0.0002    0.5919 C   0  0  0  0  0  0  0  0  0  0  0  0
  2  1  1  0  0  0  0
  3 26  2  0  0  0  0
  4  5  1  0  0  0  0
  6  4  1  0  0  0  0
  7 23  1  0  0  0  0
  8 10  1  0  0  0  0
  9  8  1  0  0  0  0
 11  4  1  0  0  0  0
 11 13  1  0  0  0  0
 12 11  1  0  0  0  0
 14 11  1  0  0  0  0
 14  7  1  0  0  0  0
 15 14  1  0  0  0  0
 16 14  1  0  0  0  0
 17 20  1  0  0  0  0
 17  7  1  0  0  0  0
 18 17  1  0  0  0  0
 19 17  1  0  0  0  0
 20  8  1  0  0  0  0
 20 21  1  0  0  0  0
 22 20  1  0  0  0  0
 23 24  1  0  0  0  0
 23 25  1  0  0  0  0
 26 23  1  0  0  0  0
 26  1  1  0  0  0  0
M  END
