1,2,3
q = -2.0, confidence = 0.828

 57 58  0  0  1  0  0  0  0  0999 V2000
    1.9977    0.4131    0.2485 N   0  0  0  0  0  2  0  0  0  0  0  0
   -0.2642    0.9162   -0.7885 N   0  0  0  0  0  2  0  0  0  0  0  0
   -1.5447   -0.8348   -0.3592 N   0  0  0  0  0  2  0  0  0  0  0  0
   -2.8553   -2.0284   -0.3668 Si  0  0  0  0  0  0  0  0  0  0  0  0
    3.6031   -0.2173    0.6877 Si  0  0  0  0  0  0  0  0  0  0  0  0
    1.8761    1.7666   -0.3057 C   0  0  1  0  0  0  0  0  0  0  0  0
    2.2075    1.7590   -1.3779 H   0  0  0  0  0  0  0  0  0  0  0  0
    0.3805    2.1366   -0.3350 C   0  0  1  0  0  0  0  0  0  0  0  0
    0.0686    2.3554    0.7176 H   0  0  0  0  0  0  0  0  0  0  0  0
    0.1472    3.4071   -1.1603 C   0  0  0  0  0  0  0  0  0  0  0  0
   -0.9326    3.6564   -1.1872 H   0  0  0  0  0  0  0  0  0  0  0  0
    0.4659    3.2184   -2.2090 H   0  0  0  0  0  0  0  0  0  0  0  0
    0.9479    4.5662   -0.5477 C   0  0  0  0  0  0  0  0  0  0  0  0
    0.8305    5.4822   -1.1636 H   0  0  0  0  0  0  0  0  0  0  0  0
    0.5179    4.8063    0.4505 H   0  0  0  0  0  0  0  0  0  0  0  0
    2.4349    4.2219   -0.3830 C   0  0  0  0  0  0  0  0  0  0  0  0
    2.9651    5.0513    0.1300 H   0  0  0  0  0  0  0  0  0  0  0  0
    2.8996    4.1329   -1.3904 H   0  0  0  0  0  0  0  0  0  0  0  0
    2.6548    2.9029    0.3762 C   0  0  0  0  0  0  0  0  0  0  0  0
    2.3151    2.9942    1.4318 H   0  0  0  0  0  0  0  0  0  0  0  0
    3.7384    2.6728    0.4112 H   0  0  0  0  0  0  0  0  0  0  0  0
   -1.4835    0.4939   -0.4247 C   0  0  1  0  0  3  0  0  0  0  0  0
   -2.6066    1.4087   -0.0558 C   0  0  0  0  0  0  0  0  0  0  0  0
   -3.0915    1.4435    1.2670 C   0  0  0  0  0  0  0  0  0  0  0  0
   -2.6309    0.7944    2.0269 H   0  0  0  0  0  0  0  0  0  0  0  0
   -4.1448    2.3037    1.6098 C   0  0  0  0  0  0  0  0  0  0  0  0
   -4.5102    2.3341    2.6474 H   0  0  0  0  0  0  0  0  0  0  0  0
   -4.7346    3.1198    0.6310 C   0  0  0  0  0  0  0  0  0  0  0  0
   -5.5674    3.7875    0.8992 H   0  0  0  0  0  0  0  0  0  0  0  0
   -4.2608    3.0831   -0.6906 C   0  0  0  0  0  0  0  0  0  0  0  0
   -4.7249    3.7177   -1.4608 H   0  0  0  0  0  0  0  0  0  0  0  0
   -3.1933    2.2400   -1.0320 C   0  0  0  0  0  0  0  0  0  0  0  0
   -2.8150    2.2070   -2.0648 H   0  0  0  0  0  0  0  0  0  0  0  0
   -2.0013   -3.6989   -0.5027 C   0  0  0  0  0  0  0  0  0  0  0  0
   -1.4124   -3.7577   -1.4394 H   0  0  0  0  0  0  0  0  0  0  0  0
   -2.7321   -4.5328   -0.4866 H   0  0  0  0  0  0  0  0  0  0  0  0
   -1.2908   -3.8294    0.3385 H   0  0  0  0  0  0  0  0  0  0  0  0
   -3.9165   -1.9666    1.1992 C   0  0  0  0  0  0  0  0  0  0  0  0
   -3.2985   -2.0934    2.1111 H   0  0  0  0  0  0  0  0  0  0  0  0
   -4.6626   -2.7885    1.1802 H   0  0  0  0  0  0  0  0  0  0  0  0
   -4.4665   -1.0081    1.2821 H   0  0  0  0  0  0  0  0  0  0  0  0
   -3.9366   -1.6690   -1.8754 C   0  0  0  0  0  0  0  0  0  0  0  0
   -4.3918   -0.6597   -1.8013 H   0  0  0  0  0  0  0  0  0  0  0  0
   -4.7584   -2.4090   -1.9676 H   0  0  0  0  0  0  0  0  0  0  0  0
   -3.3328   -1.7066   -2.8051 H   0  0  0  0  0  0  0  0  0  0  0  0
    4.2404    0.4912    2.3312 C   0  0  0  0  0  0  0  0  0  0  0  0
    4.4064    1.5854    2.2966 H   0  0  0  0  0  0  0  0  0  0  0  0
    5.2037    0.0091    2.6008 H   0  0  0  0  0  0  0  0  0  0  0  0
    3.5182    0.2838    3.1462 H   0  0  0  0  0  0  0  0  0  0  0  0
    4.8590    0.1778   -0.6855 C   0  0  0  0  0  0  0  0  0  0  0  0
    4.5892   -0.3535   -1.6214 H   0  0  0  0  0  0  0  0  0  0  0  0
    5.8728   -0.1614   -0.3866 H   0  0  0  0  0  0  0  0  0  0  0  0
    4.9237    1.2598   -0.9184 H   0  0  0  0  0  0  0  0  0  0  0  0
    3.5502   -2.0970    0.8803 C   0  0  0  0  0  0  0  0  0  0  0  0
    2.8539   -2.4077    1.6827 H   0  0  0  0  0  0  0  0  0  0  0  0
    4.5710   -2.4521    1.1335 H   0  0  0  0  0  0  0  0  0  0  0  0
    3.2246   -2.6005   -0.0516 H   0  0  0  0  0  0  0  0  0  0  0  0
  1  5  1  0  0  0  0
  2  8  1  0  0  0  0
  4  3  1  0  0  0  0
  4 38  1  0  0  0  0
  5 54  1  0  0  0  0
  5 46  1  0  0  0  0
  6  7  1  6  0  0  0
  6  1  1  0  0  0  0
  6 19  1  0  0  0  0
  8  6  1  0  0  0  0
  8  9  1  1  0  0  0
 10 13  1  0  0  0  0
 10  8  1  0  0  0  0
 11 10  1  0  0  0  0
 12 10  1  0  0  0  0
 13 16  1  0  0  0  0
 13 15  1  0  0  0  0
 14 13  1  0  0  0  0
 16 17  1  0  0  0  0
 16 19  1  0  0  0  0
 18 16  1  0  0  0  0
 19 21  1  0  0  0  0
 19 20  1  0  0  0  0
 22  2  1  1  0  0  0
 22  3  1  0  0  0  0
 22 23  1  0  0  0  0
 23 24  1  0  0  0  0
 24 26  2  0  0  0  0
 24 25  1  0  0  0  0
 26 27  1  0  0  0  0
 28 29  1  0  0  0  0
 28 26  1  0  0  0  0
 30 28  2  0  0  0  0
 31 30  1  0  0  0  0
 32 30  1  0  0  0  0
 32 23  2  0  0  0  0
 33 32  1  0  0  0  0
 34 36  1  0  0  0  0
 34  4  1  0  0  0  0
 34 37  1  0  0  0  0
 35 34  1  0  0  0  0
 38 41  1  0  0  0  0
 38 39  1  0  0  0  0
 40 38  1  0  0  0  0
 42 43  1  0  0  0  0
 42  4  1  0  0  0  0
 44 42  1  0  0  0  0
 45 42  1  0  0  0  0
 46 48  1  0  0  0  0
 46 49  1  0  0  0  0
 47 46  1  0  0  0  0
 50 52  1  0  0  0  0
 50  5  1  0  0  0  0
 51 50  1  0  0  0  0
 53 50  1  0  0  0  0
 54 56  1  0  0  0  0
 54 55  1  0  0  0  0
 57 54  1  0  0  0  0
M  END
