1,14,27
q = -1.0, confidence = 0.0

 27 28  0  0  1  0  0  0  0  0999 V2000
   -2.0323   -0.0516    0.0239 N   0  0  0  0  0  2  0  0  0  0  0  0
   -2.9576   -1.0326   -0.0769 C   0  0  0  0  0  3  0  0  0  0  0  0
   -2.5654   -2.0618   -0.0764 H   0  0  0  0  0  0  0  0  0  0  0  0
   -4.3142   -0.7171   -0.1685 C   0  0  0  0  0  0  0  0  0  0  0  0
   -5.0523   -1.5278   -0.2414 H   0  0  0  0  0  0  0  0  0  0  0  0
   -4.7008    0.6320   -0.1694 C   0  0  0  0  0  0  0  0  0  0  0  0
   -5.7634    0.9053   -0.2512 H   0  0  0  0  0  0  0  0  0  0  0  0
   -3.7247    1.6337   -0.0714 C   0  0  0  0  0  0  0  0  0  0  0  0
   -4.0016    2.6974   -0.0759 H   0  0  0  0  0  0  0  0  0  0  0  0
   -2.3759    1.2741    0.0331 C   0  0  0  0  0  0  0  0  0  0  0  0
   -1.2363    2.2425    0.2221 C   0  0  0  0  0  0  0  0  0  0  0  0
   -1.4578    3.2066   -0.2904 H   0  0  0  0  0  0  0  0  0  0  0  0
   -1.1895    2.4817    1.3186 H   0  0  0  0  0  0  0  0  0  0  0  0
   -0.0000    1.6727   -0.2970 N   0  0  0  0  0  2  0  0  0  0  0  0
    1.2363    2.2425    0.2221 C   0  0  0  0  0  0  0  0  0  0  0  0
    1.1895    2.4817    1.3186 H   0  0  0  0  0  0  0  0  0  0  0  0
    1.4577    3.2066   -0.2905 H   0  0  0  0  0  0  0  0  0  0  0  0
    2.3759    1.2741    0.0331 C   0  0  1  0  0  3  0  0  0  0  0  0
    3.7247    1.6337   -0.0713 C   0  0  0  0  0  0  0  0  0  0  0  0
    4.0016    2.6974   -0.0758 H   0  0  0  0  0  0  0  0  0  0  0  0
    4.7008    0.6320   -0.1694 C   0  0  0  0  0  0  0  0  0  0  0  0
    5.7634    0.9053   -0.2511 H   0  0  0  0  0  0  0  0  0  0  0  0
    4.3142   -0.7171   -0.1685 C   0  0  0  0  0  0  0  0  0  0  0  0
    5.0523   -1.5278   -0.2415 H   0  0  0  0  0  0  0  0  0  0  0  0
    2.9576   -1.0326   -0.0770 C   0  0  0  0  0  0  0  0  0  0  0  0
    2.5654   -2.0618   -0.0765 H   0  0  0  0  0  0  0  0  0  0  0  0
    2.0323   -0.0516    0.0238 N   0  0  0  0  0  2  0  0  0  0  0  0
  1 10  1  0  0  0  0
  2  3  1  0  0  0  0
  2  1  1  0  0  0  0
  4  2  1  0  0  0  0
  5  4  1  0  0  0  0
  6  4  2  0  0  0  0
  6  8  1  0  0  0  0
  7  6  1  0  0  0  0
  8 10  2  0  0  0  0
  9  8  1  0  0  0  0
 10 11  1  0  0  0  0
 11 13  1  0  0  0  0
 12 11  1  0  0  0  0
 14 15  1  0  0  0  0
 14 11  1  0  0  0  0
 15 16  1  0  0  0  0
 17 15  1  0  0  0  0
 18 15  1  1  0  0  0
 19 18  1  0  0  0  0
 20 19  1  0  0  0  0
 21 23  1  0  0  0  0
 21 19  2  0  0  0  0
 22 21  1  0  0  0  0
 23 25  2  0  0  0  0
 24 23  1  0  0  0  0
 25 26  1  0  0  0  0
 25 27  1  0  0  0  0
 27 18  1  0  0  0  0
M  END
