1,3,5
q = 0.0, confidence = 0.998

 42 46  0  0  1  0  0  0  0  0999 V2000
    2.3413   -1.3215   -0.9625 N   0  0  0  0  0  2  0  0  0  0  0  0
    2.0826   -2.4466   -0.1789 N   0  0  0  0  0  0  0  0  0  0  0  0
   -0.0762   -1.6938   -0.2516 N   0  0  0  0  0  2  0  0  0  0  0  0
   -2.0855   -0.6455   -0.5859 N   0  0  0  0  0  0  0  0  0  0  0  0
   -1.3159    0.2159   -1.3820 N   0  0  0  0  0  2  0  0  0  0  0  0
    4.2602   -0.3362   -2.1666 C   0  0  0  0  0  0  0  0  0  0  0  0
    4.8631   -0.8382   -2.9494 H   0  0  0  0  0  0  0  0  0  0  0  0
    4.9346    0.3405   -1.6028 H   0  0  0  0  0  0  0  0  0  0  0  0
    3.4687    0.2697   -2.6508 H   0  0  0  0  0  0  0  0  0  0  0  0
    3.6450   -1.3533   -1.2691 C   0  0  2  0  0  3  0  0  0  0  0  0
    4.2471   -2.4835   -0.6449 C   0  0  0  0  0  0  0  0  0  0  0  0
    5.3010   -2.7759   -0.6963 H   0  0  0  0  0  0  0  0  0  0  0  0
    3.2492   -3.1630    0.0379 C   0  0  0  0  0  0  0  0  0  0  0  0
    3.3496   -4.4017    0.8612 C   0  0  0  0  0  0  0  0  0  0  0  0
    2.9672   -4.2470    1.8915 H   0  0  0  0  0  0  0  0  0  0  0  0
    4.4118   -4.6988    0.9330 H   0  0  0  0  0  0  0  0  0  0  0  0
    2.7946   -5.2531    0.4145 H   0  0  0  0  0  0  0  0  0  0  0  0
    0.7466   -2.6947    0.1676 C   0  0  1  0  0  3  0  0  0  0  0  0
    0.2277   -3.8117    0.8355 C   0  0  0  0  0  0  0  0  0  0  0  0
    0.8756   -4.6163    1.1915 H   0  0  0  0  0  0  0  0  0  0  0  0
   -1.1642   -3.8929    1.0085 C   0  0  0  0  0  0  0  0  0  0  0  0
   -1.5951   -4.7766    1.4991 H   0  0  0  0  0  0  0  0  0  0  0  0
   -2.0131   -2.8779    0.5402 C   0  0  0  0  0  0  0  0  0  0  0  0
   -3.1016   -2.9639    0.6164 H   0  0  0  0  0  0  0  0  0  0  0  0
   -1.4246   -1.7667   -0.0694 C   0  0  0  0  0  0  0  0  0  0  0  0
   -3.4022   -0.2315   -0.6212 C   0  0  1  0  0  3  0  0  0  0  0  0
   -4.7000   -0.4792   -0.0040 C   0  0  0  0  0  0  0  0  0  0  0  0
   -5.1738   -1.3545    0.9918 C   0  0  0  0  0  0  0  0  0  0  0  0
   -4.5029   -2.0590    1.5003 H   0  0  0  0  0  0  0  0  0  0  0  0
   -6.5265   -1.2993    1.3660 C   0  0  0  0  0  0  0  0  0  0  0  0
   -6.8975   -1.9833    2.1442 H   0  0  0  0  0  0  0  0  0  0  0  0
   -7.4062   -0.3829    0.7675 C   0  0  0  0  0  0  0  0  0  0  0  0
   -8.4631   -0.3581    1.0719 H   0  0  0  0  0  0  0  0  0  0  0  0
   -6.9361    0.5167   -0.2090 C   0  0  0  0  0  0  0  0  0  0  0  0
   -7.6192    1.2516   -0.6625 H   0  0  0  0  0  0  0  0  0  0  0  0
   -5.5944    0.4792   -0.5881 C   0  0  0  0  0  0  0  0  0  0  0  0
   -4.8657    1.3846   -1.5699 C   0  0  0  0  0  0  0  0  0  0  0  0
   -5.2965    1.3171   -2.5926 H   0  0  0  0  0  0  0  0  0  0  0  0
   -4.9386    2.4515   -1.2658 H   0  0  0  0  0  0  0  0  0  0  0  0
   -3.4649    0.8583   -1.4975 C   0  0  0  0  0  0  0  0  0  0  0  0
   -2.1508    1.0988   -1.9490 C   0  0  0  0  0  0  0  0  0  0  0  0
   -1.7215    1.8376   -2.6344 H   0  0  0  0  0  0  0  0  0  0  0  0
  1  2  1  0  0  0  0
  2 13  1  0  0  0  0
  3 25  1  0  0  0  0
  3 18  1  0  0  0  0
  4 25  1  0  0  0  0
  5  4  1  0  0  0  0
  6  8  1  0  0  0  0
  7  6  1  0  0  0  0
  9  6  1  0  0  0  0
 10  6  1  6  0  0  0
 10  1  1  0  0  0  0
 10 11  1  0  0  0  0
 11 13  2  0  0  0  0
 12 11  1  0  0  0  0
 13 14  1  0  0  0  0
 14 16  1  0  0  0  0
 14 15  1  0  0  0  0
 17 14  1  0  0  0  0
 18  2  1  6  0  0  0
 18 19  1  0  0  0  0
 19 21  2  0  0  0  0
 19 20  1  0  0  0  0
 21 22  1  0  0  0  0
 23 24  1  0  0  0  0
 23 21  1  0  0  0  0
 25 23  2  0  0  0  0
 26 40  1  1  0  0  0
 26  4  1  0  0  0  0
 26 27  1  0  0  0  0
 27 28  1  0  0  0  0
 28 30  2  0  0  0  0
 28 29  1  0  0  0  0
 30 31  1  0  0  0  0
 32 33  1  0  0  0  0
 32 30  1  0  0  0  0
 34 32  2  0  0  0  0
 35 34  1  0  0  0  0
 36 34  1  0  0  0  0
 36 27  2  0  0  0  0
 37 40  1  0  0  0  0
 37 39  1  0  0  0  0
 37 36  1  0  0  0  0
 38 37  1  0  0  0  0
 41 40  2  0  0  0  0
 41  5  1  0  0  0  0
 42 41  1  0  0  0  0
M  END
