2,3,4
q = 0.0, confidence = 0.994

 42 46  0  0  0  0  0  0  0  0999 V2000
    4.4951   -1.4570   -0.0140 S   0  0  0  0  0  0  0  0  0  0  0  0
   -2.2519   -1.9966    0.0020 N   0  0  0  0  0  2  0  0  0  0  0  0
   -0.6388    0.0255    0.0001 N   0  0  0  0  0  2  0  0  0  0  0  0
   -2.2836    2.0218   -0.0015 N   0  0  0  0  0  2  0  0  0  0  0  0
   -0.9075   -2.3216    0.0020 C   0  0  0  0  0  0  0  0  0  0  0  0
   -0.5093   -3.6647    0.0030 C   0  0  0  0  0  0  0  0  0  0  0  0
    0.5599   -3.9165    0.0029 H   0  0  0  0  0  0  0  0  0  0  0  0
   -1.4805   -4.6757    0.0039 C   0  0  0  0  0  0  0  0  0  0  0  0
   -1.1767   -5.7325    0.0046 H   0  0  0  0  0  0  0  0  0  0  0  0
   -2.8370   -4.3221    0.0039 C   0  0  0  0  0  0  0  0  0  0  0  0
   -3.6288   -5.0840    0.0046 H   0  0  0  0  0  0  0  0  0  0  0  0
   -3.1890   -2.9675    0.0029 C   0  0  0  0  0  3  0  0  0  0  0  0
   -4.2316   -2.6115    0.0028 H   0  0  0  0  0  0  0  0  0  0  0  0
    0.0164   -1.1678    0.0009 C   0  0  0  0  0  0  0  0  0  0  0  0
    1.4123   -1.1761    0.0010 C   0  0  0  0  0  0  0  0  0  0  0  0
    1.9525   -2.1328    0.0026 H   0  0  0  0  0  0  0  0  0  0  0  0
    2.1379    0.0484   -0.0000 C   0  0  0  0  0  0  0  0  0  0  0  0
    1.3939    1.2621   -0.0011 C   0  0  0  0  0  0  0  0  0  0  0  0
    1.9152    2.2272   -0.0031 H   0  0  0  0  0  0  0  0  0  0  0  0
   -0.0010    1.2305   -0.0009 C   0  0  0  0  0  0  0  0  0  0  0  0
   -0.9446    2.3689   -0.0020 C   0  0  0  0  0  0  0  0  0  0  0  0
   -0.5705    3.7190   -0.0034 C   0  0  0  0  0  0  0  0  0  0  0  0
    0.4940    3.9899   -0.0038 H   0  0  0  0  0  0  0  0  0  0  0  0
   -1.5585    4.7133   -0.0044 C   0  0  0  0  0  0  0  0  0  0  0  0
   -1.2727    5.7751   -0.0056 H   0  0  0  0  0  0  0  0  0  0  0  0
   -2.9088    4.3369   -0.0039 C   0  0  0  0  0  0  0  0  0  0  0  0
   -3.7136    5.0852   -0.0046 H   0  0  0  0  0  0  0  0  0  0  0  0
   -3.2372    2.9767   -0.0024 C   0  0  0  0  0  0  0  0  0  0  0  0
   -4.2735    2.6025   -0.0019 H   0  0  0  0  0  0  0  0  0  0  0  0
    3.5910    0.0605   -0.0000 C   0  0  0  0  0  0  0  0  0  0  0  0
    4.4404    1.1604    0.0102 C   0  0  0  0  0  0  0  0  0  0  0  0
    4.0912    2.2018    0.0208 H   0  0  0  0  0  0  0  0  0  0  0  0
    5.8263    0.8152    0.0075 C   0  0  0  0  0  0  0  0  0  0  0  0
    6.9641    1.6623    0.0158 C   0  0  0  0  0  0  0  0  0  0  0  0
    6.8331    2.7546    0.0260 H   0  0  0  0  0  0  0  0  0  0  0  0
    8.2364    1.0958    0.0107 C   0  0  0  0  0  0  0  0  0  0  0  0
    9.1241    1.7447    0.0170 H   0  0  0  0  0  0  0  0  0  0  0  0
    8.4041   -0.3111   -0.0025 C   0  0  0  0  0  0  0  0  0  0  0  0
    9.4193   -0.7349   -0.0062 H   0  0  0  0  0  0  0  0  0  0  0  0
    7.3040   -1.1749   -0.0108 C   0  0  0  0  0  0  0  0  0  0  0  0
    7.4426   -2.2653   -0.0209 H   0  0  0  0  0  0  0  0  0  0  0  0
    6.0207   -0.6040   -0.0056 C   0  0  0  0  0  0  0  0  0  0  0  0
  1 42  1  0  0  0  0
  1 30  1  0  0  0  0
  2  5  1  0  0  0  0
  2 12  1  0  0  0  0
  3 14  1  0  0  0  0
  5  6  2  0  0  0  0
  6  8  1  0  0  0  0
  7  6  1  0  0  0  0
  8  9  1  0  0  0  0
 10  8  2  0  0  0  0
 10 11  1  0  0  0  0
 12 10  1  0  0  0  0
 13 12  1  0  0  0  0
 14 15  2  0  0  0  0
 14  5  1  0  0  0  0
 15 16  1  0  0  0  0
 17 15  1  0  0  0  0
 18 20  1  0  0  0  0
 18 17  2  0  0  0  0
 19 18  1  0  0  0  0
 20  3  1  0  0  0  0
 21  4  1  0  0  0  0
 21 20  2  0  0  0  0
 22 21  1  0  0  0  0
 23 22  1  0  0  0  0
 24 26  1  0  0  0  0
 24 22  2  0  0  0  0
 25 24  1  0  0  0  0
 26 28  2  0  0  0  0
 27 26  1  0  0  0  0
 28 29  1  0  0  0  0
 28  4  1  0  0  0  0
 30 17  1  0  0  0  0
 30 31  2  0  0  0  0
 31 32  1  0  0  0  0
 33 31  1  0  0  0  0
 33 34  1  0  0  0  0
 34 35  1  0  0  0  0
 36 34  2  0  0  0  0
 36 37  1  0  0  0  0
 38 36  1  0  0  0  0
 39 38  1  0  0  0  0
 40 42  1  0  0  0  0
 40 38  2  0  0  0  0
 41 40  1  0  0  0  0
 42 33  2  0  0  0  0
M  END
