1,2,3
q = 0.0, confidence = 0.95

 64 67  0  0  0  0  0  0  0  0999 V2000
   -0.4825   -2.0127    0.0873 N   0  0  0  0  0  2  0  0  0  0  0  0
   -3.0857   -2.2197    0.2933 N   0  0  0  0  0  0  0  0  0  0  0  0
   -0.1897    0.4992   -0.0835 N   0  0  0  0  0  2  0  0  0  0  0  0
    2.3711    0.1123   -0.2142 C   0  0  0  0  0  0  0  0  0  0  0  0
    3.1443    1.2675   -0.3247 C   0  0  0  0  0  0  0  0  0  0  0  0
    2.6790    2.2631   -0.3556 H   0  0  0  0  0  0  0  0  0  0  0  0
    4.5608    1.1289   -0.3865 C   0  0  0  0  0  0  0  0  0  0  0  0
    5.1727    2.0396   -0.4738 H   0  0  0  0  0  0  0  0  0  0  0  0
    5.1984   -0.1117   -0.3335 C   0  0  0  0  0  0  0  0  0  0  0  0
    6.2970   -0.1697   -0.3775 H   0  0  0  0  0  0  0  0  0  0  0  0
    4.4331   -1.3146   -0.2198 C   0  0  0  0  0  0  0  0  0  0  0  0
    4.9282   -2.6549   -0.1440 C   0  0  0  0  0  0  0  0  0  0  0  0
    6.0132   -2.8375   -0.1783 H   0  0  0  0  0  0  0  0  0  0  0  0
    4.0419   -3.7250   -0.0221 C   0  0  0  0  0  0  0  0  0  0  0  0
    4.4451   -4.7473    0.0398 H   0  0  0  0  0  0  0  0  0  0  0  0
    2.6281   -3.5504    0.0258 C   0  0  0  0  0  0  0  0  0  0  0  0
    1.9780   -4.4315    0.1280 H   0  0  0  0  0  0  0  0  0  0  0  0
    2.1080   -2.2582   -0.0572 C   0  0  0  0  0  0  0  0  0  0  0  0
    3.0297   -1.1598   -0.1696 C   0  0  0  0  0  0  0  0  0  0  0  0
    0.7852   -1.6380   -0.0564 C   0  0  0  0  0  0  0  0  0  0  0  0
    0.9412   -0.1971   -0.1430 C   0  0  0  0  0  0  0  0  0  0  0  0
   -0.9310   -3.3943    0.1849 C   0  0  0  0  0  0  0  0  0  0  0  0
   -0.8026   -3.7609    1.2284 H   0  0  0  0  0  0  0  0  0  0  0  0
   -0.3231   -4.0537   -0.4703 H   0  0  0  0  0  0  0  0  0  0  0  0
   -2.3934   -3.4134   -0.2579 C   0  0  0  0  0  0  0  0  0  0  0  0
   -2.4343   -3.3233   -1.3598 H   0  0  0  0  0  0  0  0  0  0  0  0
   -2.9066   -4.3523    0.0520 H   0  0  0  0  0  0  0  0  0  0  0  0
   -3.2941   -2.3624    1.7502 C   0  0  0  0  0  0  0  0  0  0  0  0
   -3.9250   -3.2542    1.9683 H   0  0  0  0  0  0  0  0  0  0  0  0
   -3.7804   -1.4471    2.1308 H   0  0  0  0  0  0  0  0  0  0  0  0
   -2.3235   -2.4694    2.2698 H   0  0  0  0  0  0  0  0  0  0  0  0
   -4.3807   -1.9955   -0.3780 C   0  0  0  0  0  0  0  0  0  0  0  0
   -5.0699   -2.8548   -0.2129 H   0  0  0  0  0  0  0  0  0  0  0  0
   -4.2002   -1.8511   -1.4590 H   0  0  0  0  0  0  0  0  0  0  0  0
   -4.8281   -1.0722    0.0345 H   0  0  0  0  0  0  0  0  0  0  0  0
   -0.0996    1.9158    0.1128 C   0  0  0  0  0  0  0  0  0  0  0  0
   -0.1917    2.7894   -0.9979 C   0  0  0  0  0  0  0  0  0  0  0  0
   -0.0268    4.1684   -0.7678 C   0  0  0  0  0  0  0  0  0  0  0  0
   -0.0892    4.8642   -1.6182 H   0  0  0  0  0  0  0  0  0  0  0  0
    0.2154    4.6651    0.5186 C   0  0  0  0  0  0  0  0  0  0  0  0
    0.3474    5.7464    0.6771 H   0  0  0  0  0  0  0  0  0  0  0  0
    0.2755    3.7843    1.6060 C   0  0  0  0  0  0  0  0  0  0  0  0
    0.4481    4.1815    2.6180 H   0  0  0  0  0  0  0  0  0  0  0  0
    0.1125    2.3981    1.4331 C   0  0  0  0  0  0  0  0  0  0  0  0
    0.1697    1.4630    2.6370 C   0  0  0  0  0  0  0  0  0  0  0  0
   -0.1819    0.4703    2.2905 H   0  0  0  0  0  0  0  0  0  0  0  0
    1.6064    1.3067    3.1661 C   0  0  0  0  0  0  0  0  0  0  0  0
    1.6342    0.5987    4.0201 H   0  0  0  0  0  0  0  0  0  0  0  0
    2.0055    2.2793    3.5230 H   0  0  0  0  0  0  0  0  0  0  0  0
    2.2943    0.9298    2.3845 H   0  0  0  0  0  0  0  0  0  0  0  0
   -0.7886    1.9092    3.7527 C   0  0  0  0  0  0  0  0  0  0  0  0
   -0.7916    1.1653    4.5760 H   0  0  0  0  0  0  0  0  0  0  0  0
   -1.8207    2.0026    3.3635 H   0  0  0  0  0  0  0  0  0  0  0  0
   -0.4872    2.8829    4.1917 H   0  0  0  0  0  0  0  0  0  0  0  0
   -0.5003    2.2630   -2.3903 C   0  0  0  0  0  0  0  0  0  0  0  0
   -0.3771    1.1622   -2.3695 H   0  0  0  0  0  0  0  0  0  0  0  0
    0.4484    2.8164   -3.4630 C   0  0  0  0  0  0  0  0  0  0  0  0
    1.5088    2.6152   -3.2075 H   0  0  0  0  0  0  0  0  0  0  0  0
    0.3344    3.9123   -3.5997 H   0  0  0  0  0  0  0  0  0  0  0  0
    0.2379    2.3412   -4.4427 H   0  0  0  0  0  0  0  0  0  0  0  0
   -1.9767    2.5323   -2.7320 C   0  0  0  0  0  0  0  0  0  0  0  0
   -2.6410    2.0947   -1.9613 H   0  0  0  0  0  0  0  0  0  0  0  0
   -2.2404    2.0743   -3.7068 H   0  0  0  0  0  0  0  0  0  0  0  0
   -2.1820    3.6223   -2.7889 H   0  0  0  0  0  0  0  0  0  0  0  0
  1 22  1  0  0  0  0
  2 28  1  0  0  0  0
  3 36  1  0  0  0  0
  4 19  1  0  0  0  0
  4 21  1  0  0  0  0
  5  4  2  0  0  0  0
  6  5  1  0  0  0  0
  7  9  2  0  0  0  0
  7  5  1  0  0  0  0
  8  7  1  0  0  0  0
  9 11  1  0  0  0  0
 10  9  1  0  0  0  0
 11 19  2  0  0  0  0
 11 12  1  0  0  0  0
 12 14  2  0  0  0  0
 13 12  1  0  0  0  0
 14 16  1  0  0  0  0
 14 15  1  0  0  0  0
 16 17  1  0  0  0  0
 18 20  1  0  0  0  0
 18 16  2  0  0  0  0
 19 18  1  0  0  0  0
 20  1  1  0  0  0  0
 21  3  1  0  0  0  0
 21 20  2  0  0  0  0
 22 23  1  0  0  0  0
 24 22  1  0  0  0  0
 25 27  1  0  0  0  0
 25 22  1  0  0  0  0
 25  2  1  0  0  0  0
 26 25  1  0  0  0  0
 28 29  1  0  0  0  0
 28 30  1  0  0  0  0
 28 31  1  0  0  0  0
 32 33  1  0  0  0  0
 32 35  1  0  0  0  0
 32  2  1  0  0  0  0
 34 32  1  0  0  0  0
 36 44  1  0  0  0  0
 37 38  1  0  0  0  0
 37 36  2  0  0  0  0
 38 40  2  0  0  0  0
 39 38  1  0  0  0  0
 40 41  1  0  0  0  0
 40 42  1  0  0  0  0
 42 43  1  0  0  0  0
 44 42  2  0  0  0  0
 44 45  1  0  0  0  0
 45 47  1  0  0  0  0
 45 51  1  0  0  0  0
 46 45  1  0  0  0  0
 47 49  1  0  0  0  0
 47 48  1  0  0  0  0
 50 47  1  0  0  0  0
 51 54  1  0  0  0  0
 51 52  1  0  0  0  0
 53 51  1  0  0  0  0
 55 56  1  0  0  0  0
 55 37  1  0  0  0  0
 57 58  1  0  0  0  0
 57 55  1  0  0  0  0
 59 57  1  0  0  0  0
 60 57  1  0  0  0  0
 61 55  1  0  0  0  0
 61 62  1  0  0  0  0
 63 61  1  0  0  0  0
 64 61  1  0  0  0  0
M  END
