1,2,3
q = -1.0, confidence = 0.014

 42 42  0  0  1  0  0  0  0  0999 V2000
    0.7006    0.8585   -0.0569 N   0  0  0  0  0  2  0  0  0  0  0  0
    0.2778   -1.2060   -0.7602 N   0  0  0  0  0  2  0  0  0  0  0  0
   -1.3971   -2.3161    0.9555 N   0  0  0  0  0  0  0  0  0  0  0  0
    1.2694    2.5037    0.2640 Si  0  0  0  0  0  0  0  0  0  0  0  0
    1.2232   -0.3026   -0.4702 C   0  0  2  0  0  3  0  0  0  0  0  0
    2.6803   -0.6136   -0.5437 C   0  0  0  0  0  0  0  0  0  0  0  0
    3.5450   -0.2610    0.5129 C   0  0  0  0  0  0  0  0  0  0  0  0
    4.9102   -0.5709    0.4435 C   0  0  0  0  0  0  0  0  0  0  0  0
    5.4276   -1.2255   -0.6866 C   0  0  0  0  0  0  0  0  0  0  0  0
    4.5721   -1.5812   -1.7422 C   0  0  0  0  0  0  0  0  0  0  0  0
    3.2036   -1.2863   -1.6677 C   0  0  0  0  0  0  0  0  0  0  0  0
    0.3639   -2.6429   -0.7617 C   0  0  0  0  0  0  0  0  0  0  0  0
   -0.9975   -3.1169   -0.2311 C   0  0  0  0  0  0  0  0  0  0  0  0
   -0.5216   -2.5998    2.1110 C   0  0  0  0  0  0  0  0  0  0  0  0
   -2.8081   -2.5543    1.3124 C   0  0  0  0  0  0  0  0  0  0  0  0
    2.6815    2.9582   -0.9089 C   0  0  0  0  0  0  0  0  0  0  0  0
    1.7940    2.6713    2.0741 C   0  0  0  0  0  0  0  0  0  0  0  0
   -0.2333    3.6010   -0.0311 C   0  0  0  0  0  0  0  0  0  0  0  0
    3.1324    0.2486    1.3954 H   0  0  0  0  0  0  0  0  0  0  0  0
    5.5759   -0.2991    1.2767 H   0  0  0  0  0  0  0  0  0  0  0  0
    6.5013   -1.4606   -0.7442 H   0  0  0  0  0  0  0  0  0  0  0  0
    4.9755   -2.0894   -2.6312 H   0  0  0  0  0  0  0  0  0  0  0  0
    2.5306   -1.5536   -2.4962 H   0  0  0  0  0  0  0  0  0  0  0  0
    0.5048   -3.0657   -1.7830 H   0  0  0  0  0  0  0  0  0  0  0  0
    1.2090   -3.0349   -0.1472 H   0  0  0  0  0  0  0  0  0  0  0  0
   -0.9972   -4.2058    0.0123 H   0  0  0  0  0  0  0  0  0  0  0  0
   -1.7642   -2.9305   -1.0087 H   0  0  0  0  0  0  0  0  0  0  0  0
   -0.8280   -1.9614    2.9598 H   0  0  0  0  0  0  0  0  0  0  0  0
   -0.5777   -3.6750    2.3993 H   0  0  0  0  0  0  0  0  0  0  0  0
    0.5297   -2.3548    1.8644 H   0  0  0  0  0  0  0  0  0  0  0  0
   -3.0854   -1.8755    2.1410 H   0  0  0  0  0  0  0  0  0  0  0  0
   -2.9726   -3.6117    1.6257 H   0  0  0  0  0  0  0  0  0  0  0  0
   -3.4468   -2.3183    0.4416 H   0  0  0  0  0  0  0  0  0  0  0  0
    2.9690    4.0212   -0.7697 H   0  0  0  0  0  0  0  0  0  0  0  0
    2.3710    2.8237   -1.9652 H   0  0  0  0  0  0  0  0  0  0  0  0
    3.5810    2.3346   -0.7347 H   0  0  0  0  0  0  0  0  0  0  0  0
    1.8639    3.7409    2.3615 H   0  0  0  0  0  0  0  0  0  0  0  0
    1.0280    2.1896    2.7165 H   0  0  0  0  0  0  0  0  0  0  0  0
    2.7772    2.2036    2.2832 H   0  0  0  0  0  0  0  0  0  0  0  0
   -0.0034    4.6677    0.1684 H   0  0  0  0  0  0  0  0  0  0  0  0
   -0.5941    3.5060   -1.0746 H   0  0  0  0  0  0  0  0  0  0  0  0
   -1.0574    3.2904    0.6442 H   0  0  0  0  0  0  0  0  0  0  0  0
  1  4  1  0  0  0  0
  3 15  1  0  0  0  0
  3 14  1  0  0  0  0
  4 17  1  0  0  0  0
  5  2  1  1  0  0  0
  5  1  1  0  0  0  0
  6  5  1  0  0  0  0
  6  7  1  0  0  0  0
  7 19  1  0  0  0  0
  8  7  2  0  0  0  0
  8 20  1  0  0  0  0
  9  8  1  0  0  0  0
 10 11  1  0  0  0  0
 10  9  2  0  0  0  0
 11  6  2  0  0  0  0
 12  2  1  0  0  0  0
 12 13  1  0  0  0  0
 12 25  1  0  0  0  0
 13 26  1  0  0  0  0
 13  3  1  0  0  0  0
 14 29  1  0  0  0  0
 14 28  1  0  0  0  0
 15 32  1  0  0  0  0
 15 31  1  0  0  0  0
 16 34  1  0  0  0  0
 16 36  1  0  0  0  0
 16  4  1  0  0  0  0
 17 39  1  0  0  0  0
 17 37  1  0  0  0  0
 17 38  1  0  0  0  0
 18 40  1  0  0  0  0
 18  4  1  0  0  0  0
 18 42  1  0  0  0  0
 21  9  1  0  0  0  0
 22 10  1  0  0  0  0
 23 11  1  0  0  0  0
 24 12  1  0  0  0  0
 27 13  1  0  0  0  0
 30 14  1  0  0  0  0
 33 15  1  0  0  0  0
 35 16  1  0  0  0  0
 41 18  1  0  0  0  0
M  END
