2,5,6
q = -1.0, confidence = 0.0

 29 30  0  0  0  0  0  0  0  0999 V2000
    0.1313    3.3389    0.4859 O   0  0  0  0  0  0  0  0  0  0  0  0
    1.2577   -0.0620   -1.6309 N   0  0  0  0  0  0  0  0  0  0  0  0
    1.7188   -0.7140   -2.2787 H   0  0  0  0  0  0  0  0  0  0  0  0
    0.6210    0.5372   -2.1783 H   0  0  0  0  0  0  0  0  0  0  0  0
   -0.5154    1.1433    0.0207 N   0  0  0  0  0  2  0  0  0  0  0  0
   -1.8974   -0.7385   -1.2640 N   0  0  0  0  0  0  0  0  0  0  0  0
   -1.7003   -0.5787   -2.2662 H   0  0  0  0  0  0  0  0  0  0  0  0
   -2.4650   -1.5959   -1.2347 H   0  0  0  0  0  0  0  0  0  0  0  0
    2.2502    0.7649   -0.9643 C   0  0  0  0  0  0  0  0  0  0  0  0
    3.6110    0.4956   -1.1675 C   0  0  0  0  0  0  0  0  0  0  0  0
    3.9103   -0.3126   -1.8540 H   0  0  0  0  0  0  0  0  0  0  0  0
    4.5855    1.2461   -0.4936 C   0  0  0  0  0  0  0  0  0  0  0  0
    5.6505    1.0184   -0.6492 H   0  0  0  0  0  0  0  0  0  0  0  0
    4.1964    2.2858    0.3640 C   0  0  0  0  0  0  0  0  0  0  0  0
    4.9560    2.8851    0.8873 H   0  0  0  0  0  0  0  0  0  0  0  0
    2.8355    2.5568    0.5521 C   0  0  0  0  0  0  0  0  0  0  0  0
    2.4946    3.3762    1.2018 H   0  0  0  0  0  0  0  0  0  0  0  0
    1.8391    1.7884   -0.0770 C   0  0  0  0  0  0  0  0  0  0  0  0
    0.3924    2.1668    0.1859 C   0  0  0  0  0  0  0  0  0  0  0  0
   -1.8934    1.3918   -0.0625 C   0  0  0  0  0  0  0  0  0  0  0  0
   -2.6565    0.3906   -0.7221 C   0  0  0  0  0  0  0  0  0  0  0  0
   -4.0434    0.4836   -0.8638 C   0  0  0  0  0  0  0  0  0  0  0  0
   -4.5966   -0.3191   -1.3776 H   0  0  0  0  0  0  0  0  0  0  0  0
   -4.7190    1.6010   -0.3477 C   0  0  0  0  0  0  0  0  0  0  0  0
   -5.8122    1.6759   -0.4399 H   0  0  0  0  0  0  0  0  0  0  0  0
   -3.9805    2.6133    0.2857 C   0  0  0  0  0  0  0  0  0  0  0  0
   -4.5015    3.4941    0.6913 H   0  0  0  0  0  0  0  0  0  0  0  0
   -2.5887    2.5245    0.4289 C   0  0  0  0  0  0  0  0  0  0  0  0
   -2.0098    3.3143    0.9193 H   0  0  0  0  0  0  0  0  0  0  0  0
  2  9  1  0  0  0  0
  3  2  1  0  0  0  0
  4  2  1  0  0  0  0
  5 19  1  0  0  0  0
  6  8  1  0  0  0  0
  6 21  1  0  0  0  0
  7  6  1  0  0  0  0
  9 18  1  0  0  0  0
 10  9  2  0  0  0  0
 10 12  1  0  0  0  0
 11 10  1  0  0  0  0
 12 14  2  0  0  0  0
 13 12  1  0  0  0  0
 14 16  1  0  0  0  0
 14 15  1  0  0  0  0
 16 17  1  0  0  0  0
 18 19  1  0  0  0  0
 18 16  2  0  0  0  0
 19  1  2  0  0  0  0
 20  5  1  0  0  0  0
 20 28  1  0  0  0  0
 21 20  2  0  0  0  0
 22 21  1  0  0  0  0
 22 24  2  0  0  0  0
 23 22  1  0  0  0  0
 24 26  1  0  0  0  0
 25 24  1  0  0  0  0
 26 28  2  0  0  0  0
 26 27  1  0  0  0  0
 28 29  1  0  0  0  0
M  END
