1,3,5
q = -1.0, confidence = 0.062

 49 51  0  0  0  0  0  0  0  0999 V2000
   -0.3270   -0.0232   -0.0414 N   0  0  0  0  0  0  0  0  0  0  0  0
   -0.1701    2.3812    0.0506 N   0  0  0  0  0  0  0  0  0  0  0  0
   -2.0856   -2.1737   -0.1127 N   0  0  0  0  0  2  0  0  0  0  0  0
   -2.9569   -2.7239   -0.1227 H   0  0  0  0  0  0  0  0  0  0  0  0
   -2.4660    1.7453    0.0272 N   0  0  0  0  0  2  0  0  0  0  0  0
   -3.4300    2.1093    0.0377 H   0  0  0  0  0  0  0  0  0  0  0  0
    4.9699    2.7468   -0.9490 C   0  0  0  0  0  0  0  0  0  0  0  0
    5.8378    2.6092   -1.6117 H   0  0  0  0  0  0  0  0  0  0  0  0
   -1.5021    2.6522    0.0571 C   0  0  0  0  0  0  0  0  0  0  0  0
    2.8472    1.9196   -0.0564 C   0  0  0  0  0  0  0  0  0  0  0  0
   -1.0209   -4.3902   -0.1908 C   0  0  0  0  0  0  0  0  0  0  0  0
   -0.5857   -4.7035   -1.1649 H   0  0  0  0  0  0  0  0  0  0  0  0
   -2.0801   -4.7203   -0.1925 H   0  0  0  0  0  0  0  0  0  0  0  0
    0.5662   -1.0618   -0.0890 C   0  0  0  0  0  0  0  0  0  0  0  0
    4.8566    3.9093   -0.1673 C   0  0  0  0  0  0  0  0  0  0  0  0
    5.6392    4.6822   -0.2087 H   0  0  0  0  0  0  0  0  0  0  0  0
    1.9431   -0.4982   -0.0595 C   0  0  0  0  0  0  0  0  0  0  0  0
    4.4462   -3.2805   -0.6953 C   0  0  0  0  0  0  0  0  0  0  0  0
    4.5290   -4.1924   -1.3063 H   0  0  0  0  0  0  0  0  0  0  0  0
    3.9777    1.7621   -0.8947 C   0  0  0  0  0  0  0  0  0  0  0  0
    4.0643    0.8590   -1.5159 H   0  0  0  0  0  0  0  0  0  0  0  0
    0.2896   -2.3510   -0.1319 N   0  0  0  0  0  0  0  0  0  0  0  0
    4.2276   -0.9549    0.8552 C   0  0  0  0  0  0  0  0  0  0  0  0
    4.1353   -0.0510    1.4744 H   0  0  0  0  0  0  0  0  0  0  0  0
   -1.8372    4.1303    0.1026 C   0  0  0  0  0  0  0  0  0  0  0  0
   -1.3347    4.5390    1.0059 H   0  0  0  0  0  0  0  0  0  0  0  0
   -1.2985    4.5982   -0.7491 H   0  0  0  0  0  0  0  0  0  0  0  0
    5.3851   -1.7375    0.9272 C   0  0  0  0  0  0  0  0  0  0  0  0
    6.2023   -1.4398    1.6015 H   0  0  0  0  0  0  0  0  0  0  0  0
   -0.9616   -2.8767   -0.1429 C   0  0  0  0  0  0  0  0  0  0  0  0
   -3.3176    4.4957    0.0868 C   0  0  0  0  0  0  0  0  0  0  0  0
   -3.8233    4.1350   -0.8330 H   0  0  0  0  0  0  0  0  0  0  0  0
   -3.4468    5.5947    0.1200 H   0  0  0  0  0  0  0  0  0  0  0  0
   -3.8580    4.0776    0.9615 H   0  0  0  0  0  0  0  0  0  0  0  0
    3.1586   -1.3213    0.0019 C   0  0  0  0  0  0  0  0  0  0  0  0
    3.2819   -2.5035   -0.7665 C   0  0  0  0  0  0  0  0  0  0  0  0
    2.4528   -2.8049   -1.4198 H   0  0  0  0  0  0  0  0  0  0  0  0
    3.7366    4.0817    0.6609 C   0  0  0  0  0  0  0  0  0  0  0  0
    3.6391    4.9911    1.2734 H   0  0  0  0  0  0  0  0  0  0  0  0
    0.3491    1.1700    0.0110 C   0  0  0  0  0  3  0  0  0  0  0  0
    1.8093    0.8810   -0.0091 C   0  0  0  0  0  0  0  0  0  0  0  0
    2.7364    3.1015    0.7139 C   0  0  0  0  0  0  0  0  0  0  0  0
    1.8555    3.2415    1.3536 H   0  0  0  0  0  0  0  0  0  0  0  0
    5.5018   -2.9019    0.1487 C   0  0  0  0  0  0  0  0  0  0  0  0
    6.4138   -3.5155    0.2047 H   0  0  0  0  0  0  0  0  0  0  0  0
   -0.2383   -5.0483    0.9505 C   0  0  0  0  0  0  0  0  0  0  0  0
   -0.2365   -6.1508    0.8426 H   0  0  0  0  0  0  0  0  0  0  0  0
   -0.6809   -4.7992    1.9359 H   0  0  0  0  0  0  0  0  0  0  0  0
    0.8097   -4.6903    0.9465 H   0  0  0  0  0  0  0  0  0  0  0  0
  1 40  1  0  0  0  0
  2  9  2  0  0  0  0
  4  3  1  0  0  0  0
  5  6  1  0  0  0  0
  5  9  1  0  0  0  0
  7 20  2  0  0  0  0
  7 15  1  0  0  0  0
  8  7  1  0  0  0  0
  9 25  1  0  0  0  0
 10 41  1  0  0  0  0
 10 42  2  0  0  0  0
 11 30  1  0  0  0  0
 11 46  1  0  0  0  0
 12 11  1  0  0  0  0
 13 11  1  0  0  0  0
 14 17  1  0  0  0  0
 14  1  2  0  0  0  0
 15 38  2  0  0  0  0
 16 15  1  0  0  0  0
 17 41  2  0  0  0  0
 17 35  1  0  0  0  0
 18 44  1  0  0  0  0
 19 18  1  0  0  0  0
 20 10  1  0  0  0  0
 21 20  1  0  0  0  0
 22 14  1  0  0  0  0
 23 28  1  0  0  0  0
 23 24  1  0  0  0  0
 25 26  1  0  0  0  0
 27 25  1  0  0  0  0
 28 29  1  0  0  0  0
 30 22  2  0  0  0  0
 30  3  1  0  0  0  0
 31 25  1  0  0  0  0
 31 33  1  0  0  0  0
 31 34  1  0  0  0  0
 32 31  1  0  0  0  0
 35 23  2  0  0  0  0
 36 18  2  0  0  0  0
 36 35  1  0  0  0  0
 37 36  1  0  0  0  0
 38 42  1  0  0  0  0
 38 39  1  0  0  0  0
 40  2  1  0  0  0  0
 41 40  1  0  0  0  0
 42 43  1  0  0  0  0
 44 45  1  0  0  0  0
 44 28  2  0  0  0  0
 46 48  1  0  0  0  0
 47 46  1  0  0  0  0
 49 46  1  0  0  0  0
M  END
