1,8,15
q = 0.0, confidence = 0.984

 57 56  0  0  0  0  0  0  0  0999 V2000
    1.6051    0.1694   -0.5764 N   0  0  0  0  0  2  0  0  0  0  0  0
    2.2396    1.3897   -1.0739 C   0  0  0  0  0  0  0  0  0  0  0  0
    3.1126    1.1596   -1.7245 H   0  0  0  0  0  0  0  0  0  0  0  0
    2.5826    2.0293   -0.2316 H   0  0  0  0  0  0  0  0  0  0  0  0
    1.1710    2.1172   -1.8666 C   0  0  0  0  0  0  0  0  0  0  0  0
    1.5203    3.1077   -2.2335 H   0  0  0  0  0  0  0  0  0  0  0  0
    0.9069    1.5054   -2.7522 H   0  0  0  0  0  0  0  0  0  0  0  0
   -0.0518    2.2780   -1.0225 N   0  0  0  0  0  0  0  0  0  0  0  0
   -1.2661    2.0463   -1.8442 C   0  0  0  0  0  0  0  0  0  0  0  0
   -1.1884    2.5606   -2.8316 H   0  0  0  0  0  0  0  0  0  0  0  0
   -2.1288    2.4883   -1.3048 H   0  0  0  0  0  0  0  0  0  0  0  0
   -1.5063    0.5432   -1.9808 C   0  0  0  0  0  0  0  0  0  0  0  0
   -2.4731    0.3737   -2.5033 H   0  0  0  0  0  0  0  0  0  0  0  0
   -0.7085    0.0699   -2.5934 H   0  0  0  0  0  0  0  0  0  0  0  0
   -1.4828    0.0229   -0.6215 N   0  0  0  0  0  2  0  0  0  0  0  0
    2.3621   -0.9146   -0.4311 C   0  0  0  0  0  3  0  0  0  0  0  0
    3.7234   -0.8103   -0.1980 N   0  0  0  0  0  0  0  0  0  0  0  0
    4.2371    0.1372    0.7777 C   0  0  0  0  0  0  0  0  0  0  0  0
    3.3950    0.6231    1.3131 H   0  0  0  0  0  0  0  0  0  0  0  0
    4.8690    0.9237    0.3054 H   0  0  0  0  0  0  0  0  0  0  0  0
    4.8665   -0.3987    1.5238 H   0  0  0  0  0  0  0  0  0  0  0  0
    4.6851   -1.6983   -0.8181 C   0  0  0  0  0  0  0  0  0  0  0  0
    4.1785   -2.3180   -1.5808 H   0  0  0  0  0  0  0  0  0  0  0  0
    5.1726   -2.3801   -0.0826 H   0  0  0  0  0  0  0  0  0  0  0  0
    5.4922   -1.1110   -1.3122 H   0  0  0  0  0  0  0  0  0  0  0  0
    1.8639   -2.1888   -0.5641 N   0  0  0  0  0  0  0  0  0  0  0  0
    2.2308   -3.2346    0.3812 C   0  0  0  0  0  0  0  0  0  0  0  0
    3.0972   -2.9107    0.9838 H   0  0  0  0  0  0  0  0  0  0  0  0
    2.4892   -4.1763   -0.1505 H   0  0  0  0  0  0  0  0  0  0  0  0
    1.3866   -3.4134    1.0819 H   0  0  0  0  0  0  0  0  0  0  0  0
    0.6111   -2.4101   -1.2556 C   0  0  0  0  0  0  0  0  0  0  0  0
    0.4950   -1.6520   -2.0518 H   0  0  0  0  0  0  0  0  0  0  0  0
   -0.2428   -2.3195   -0.5487 H   0  0  0  0  0  0  0  0  0  0  0  0
    0.6219   -3.4226   -1.7131 H   0  0  0  0  0  0  0  0  0  0  0  0
   -0.0793    3.6196   -0.4098 C   0  0  0  0  0  0  0  0  0  0  0  0
   -0.0811    4.4187   -1.1876 H   0  0  0  0  0  0  0  0  0  0  0  0
    0.7868    3.7198    0.2715 H   0  0  0  0  0  0  0  0  0  0  0  0
   -0.9898    3.7181    0.2121 H   0  0  0  0  0  0  0  0  0  0  0  0
   -2.6190   -0.3961   -0.0720 C   0  0  0  0  0  3  0  0  0  0  0  0
   -3.5889   -1.0834   -0.7955 N   0  0  0  0  0  0  0  0  0  0  0  0
   -3.2259   -2.0602   -1.7994 C   0  0  0  0  0  0  0  0  0  0  0  0
   -2.1416   -2.2624   -1.7371 H   0  0  0  0  0  0  0  0  0  0  0  0
   -3.4635   -1.7232   -2.8361 H   0  0  0  0  0  0  0  0  0  0  0  0
   -3.7724   -3.0153   -1.6262 H   0  0  0  0  0  0  0  0  0  0  0  0
   -5.0050   -0.8326   -0.6193 C   0  0  0  0  0  0  0  0  0  0  0  0
   -5.1435   -0.0224    0.1197 H   0  0  0  0  0  0  0  0  0  0  0  0
   -5.5506   -1.7343   -0.2566 H   0  0  0  0  0  0  0  0  0  0  0  0
   -5.4753   -0.5218   -1.5813 H   0  0  0  0  0  0  0  0  0  0  0  0
   -2.9152   -0.1231    1.2441 N   0  0  0  0  0  0  0  0  0  0  0  0
   -3.4051   -1.1645    2.1362 C   0  0  0  0  0  0  0  0  0  0  0  0
   -3.8572   -1.9833    1.5477 H   0  0  0  0  0  0  0  0  0  0  0  0
   -4.1694   -0.7591    2.8325 H   0  0  0  0  0  0  0  0  0  0  0  0
   -2.5475   -1.5768    2.7141 H   0  0  0  0  0  0  0  0  0  0  0  0
   -2.2670    0.9951    1.9124 C   0  0  0  0  0  0  0  0  0  0  0  0
   -1.7311    1.6270    1.1598 H   0  0  0  0  0  0  0  0  0  0  0  0
   -1.5292    0.6518    2.6645 H   0  0  0  0  0  0  0  0  0  0  0  0
   -3.0227    1.6546    2.3960 H   0  0  0  0  0  0  0  0  0  0  0  0
  1 16  1  0  0  0  0
  2  1  1  0  0  0  0
  2  4  1  0  0  0  0
  3  2  1  0  0  0  0
  5  2  1  0  0  0  0
  5  8  1  0  0  0  0
  6  5  1  0  0  0  0
  7  5  1  0  0  0  0
  8 35  1  0  0  0  0
  9 11  1  0  0  0  0
  9  8  1  0  0  0  0
 10  9  1  0  0  0  0
 12  9  1  0  0  0  0
 12 15  1  0  0  0  0
 13 12  1  0  0  0  0
 14 12  1  0  0  0  0
 15 39  1  0  0  0  0
 16 17  1  0  0  0  0
 17 18  1  0  0  0  0
 18 19  1  0  0  0  0
 18 21  1  0  0  0  0
 20 18  1  0  0  0  0
 22 17  1  0  0  0  0
 22 24  1  0  0  0  0
 23 22  1  0  0  0  0
 25 22  1  0  0  0  0
 26 16  1  0  0  0  0
 26 27  1  0  0  0  0
 27 28  1  0  0  0  0
 27 30  1  0  0  0  0
 29 27  1  0  0  0  0
 31 26  1  0  0  0  0
 31 33  1  0  0  0  0
 32 31  1  0  0  0  0
 34 31  1  0  0  0  0
 35 38  1  0  0  0  0
 35 37  1  0  0  0  0
 36 35  1  0  0  0  0
 39 49  1  0  0  0  0
 40 45  1  0  0  0  0
 40 39  1  0  0  0  0
 41 42  1  0  0  0  0
 41 44  1  0  0  0  0
 41 40  1  0  0  0  0
 43 41  1  0  0  0  0
 45 47  1  0  0  0  0
 45 46  1  0  0  0  0
 48 45  1  0  0  0  0
 49 54  1  0  0  0  0
 49 50  1  0  0  0  0
 50 53  1  0  0  0  0
 50 52  1  0  0  0  0
 51 50  1  0  0  0  0
 54 57  1  0  0  0  0
 54 56  1  0  0  0  0
 55 54  1  0  0  0  0
M  END
