1,4,5
q = -1.0, confidence = 0.098

 63 67  0  0  1  0  0  0  0  0999 V2000
    1.8689   -0.8786    0.1321 N   0  0  0  0  0  2  0  0  0  0  0  0
   -2.6564    0.1284   -0.6097 N   0  0  0  0  0  2  0  0  0  0  0  0
    2.7493    0.0707    0.0063 N   0  0  0  0  0  0  0  0  0  0  0  0
   -1.7407   -0.7817   -0.6761 N   0  0  0  0  0  2  0  0  0  0  0  0
    0.0397    1.0925   -0.1623 N   0  0  0  0  0  0  0  0  0  0  0  0
   -2.1681   -1.9875   -1.3059 C   0  0  0  0  0  0  0  0  0  0  0  0
   -1.2432   -2.6864   -2.1082 C   0  0  0  0  0  0  0  0  0  0  0  0
   -0.2597   -2.2366   -2.3098 H   0  0  0  0  0  0  0  0  0  0  0  0
   -1.0816    1.8911   -0.0989 C   0  0  0  0  0  3  0  0  0  0  0  0
    3.6474    2.2494   -0.3081 C   0  0  0  0  0  0  0  0  0  0  0  0
   -3.4769   -2.4835   -1.1301 C   0  0  0  0  0  0  0  0  0  0  0  0
   -4.1901   -1.9053   -0.5261 H   0  0  0  0  0  0  0  0  0  0  0  0
    1.1428    1.8997   -0.1310 C   0  0  0  0  0  0  0  0  0  0  0  0
   -4.7864    1.9986   -0.6612 C   0  0  0  0  0  0  0  0  0  0  0  0
   -4.7881    1.2396   -1.4564 H   0  0  0  0  0  0  0  0  0  0  0  0
    1.9745   -3.2879   -0.3697 C   0  0  0  0  0  0  0  0  0  0  0  0
    1.0981   -3.1776   -1.0206 H   0  0  0  0  0  0  0  0  0  0  0  0
   -5.9424    3.7465    0.6076 C   0  0  0  0  0  0  0  0  0  0  0  0
   -2.9046   -4.4182   -2.4968 C   0  0  0  0  0  0  0  0  0  0  0  0
   -3.1939   -5.3738   -2.9583 H   0  0  0  0  0  0  0  0  0  0  0  0
    4.2649   -3.5391    1.2327 C   0  0  0  0  0  0  0  0  0  0  0  0
    5.1607   -3.6346    1.8642 H   0  0  0  0  0  0  0  0  0  0  0  0
    3.7197   -4.6752    0.6074 C   0  0  0  0  0  0  0  0  0  0  0  0
    4.1917   -5.6596    0.7407 H   0  0  0  0  0  0  0  0  0  0  0  0
    3.6745   -2.2826    1.0599 C   0  0  0  0  0  0  0  0  0  0  0  0
    4.0886   -1.3879    1.5435 H   0  0  0  0  0  0  0  0  0  0  0  0
   -1.6147   -3.9002   -2.7010 C   0  0  0  0  0  0  0  0  0  0  0  0
   -0.8983   -4.4359   -3.3414 H   0  0  0  0  0  0  0  0  0  0  0  0
    4.8442    1.9744    0.3954 C   0  0  0  0  0  0  0  0  0  0  0  0
    4.8720    1.1202    1.0867 H   0  0  0  0  0  0  0  0  0  0  0  0
   -3.8337   -3.7027   -1.7195 C   0  0  0  0  0  0  0  0  0  0  0  0
   -4.8486   -4.1007   -1.5710 H   0  0  0  0  0  0  0  0  0  0  0  0
    2.5075   -2.1566    0.2762 C   0  0  0  0  0  0  0  0  0  0  0  0
   -5.9272    2.7603   -0.4057 C   0  0  0  0  0  0  0  0  0  0  0  0
   -6.8337    2.5940   -1.0085 H   0  0  0  0  0  0  0  0  0  0  0  0
   -2.4058    1.3815   -0.1769 C   0  0  1  0  0  3  0  0  0  0  0  0
   -3.6004    2.2057    0.0846 C   0  0  0  0  0  0  0  0  0  0  0  0
    3.6380    3.3380   -1.2103 C   0  0  0  0  0  0  0  0  0  0  0  0
    2.7473    3.5311   -1.8259 H   0  0  0  0  0  0  0  0  0  0  0  0
    2.4667    1.3774   -0.1335 C   0  0  0  0  0  0  0  0  0  0  0  0
    5.9703    2.7812    0.2298 C   0  0  0  0  0  0  0  0  0  0  0  0
    6.8859    2.5556    0.7986 H   0  0  0  0  0  0  0  0  0  0  0  0
    2.5814   -4.5412   -0.2027 C   0  0  0  0  0  0  0  0  0  0  0  0
    2.1694   -5.4171   -0.7263 H   0  0  0  0  0  0  0  0  0  0  0  0
   -3.6148    3.1753    1.1139 C   0  0  0  0  0  0  0  0  0  0  0  0
   -2.7286    3.3108    1.7512 H   0  0  0  0  0  0  0  0  0  0  0  0
    4.7745    4.1380   -1.3748 C   0  0  0  0  0  0  0  0  0  0  0  0
    4.7495    4.9697   -2.0957 H   0  0  0  0  0  0  0  0  0  0  0  0
   -4.7665    3.9291    1.3653 C   0  0  0  0  0  0  0  0  0  0  0  0
   -4.7605    4.6686    2.1809 H   0  0  0  0  0  0  0  0  0  0  0  0
    5.9597    3.8849   -0.6541 C   0  0  0  0  0  0  0  0  0  0  0  0
    0.7151    3.2821   -0.0477 C   0  0  0  0  0  0  0  0  0  0  0  0
    1.3783    4.1507    0.0094 H   0  0  0  0  0  0  0  0  0  0  0  0
   -0.6627    3.2757   -0.0372 C   0  0  0  0  0  0  0  0  0  0  0  0
   -1.3354    4.1388   -0.0109 H   0  0  0  0  0  0  0  0  0  0  0  0
   -7.1723    4.5760    0.8562 C   0  0  0  0  0  0  0  0  0  0  0  0
   -7.2990    5.3371    0.0565 H   0  0  0  0  0  0  0  0  0  0  0  0
   -7.1194    5.1138    1.8218 H   0  0  0  0  0  0  0  0  0  0  0  0
   -8.0897    3.9538    0.8512 H   0  0  0  0  0  0  0  0  0  0  0  0
    7.1785    4.7521   -0.8148 C   0  0  0  0  0  0  0  0  0  0  0  0
    7.3727    5.3344    0.1109 H   0  0  0  0  0  0  0  0  0  0  0  0
    7.0661    5.4715   -1.6477 H   0  0  0  0  0  0  0  0  0  0  0  0
    8.0856    4.1421   -1.0021 H   0  0  0  0  0  0  0  0  0  0  0  0
  1 33  1  0  0  0  0
  3  1  1  0  0  0  0
  4  2  1  0  0  0  0
  5 13  2  0  0  0  0
  5  9  1  0  0  0  0
  6 11  1  0  0  0  0
  6  4  1  0  0  0  0
  7  6  2  0  0  0  0
  8  7  1  0  0  0  0
  9 54  1  0  0  0  0
 10 40  1  0  0  0  0
 10 29  1  0  0  0  0
 11 12  1  0  0  0  0
 13 52  1  0  0  0  0
 14 34  2  0  0  0  0
 14 37  1  0  0  0  0
 15 14  1  0  0  0  0
 16 43  2  0  0  0  0
 16 33  1  0  0  0  0
 17 16  1  0  0  0  0
 18 56  1  0  0  0  0
 18 49  2  0  0  0  0
 19 31  1  0  0  0  0
 20 19  1  0  0  0  0
 21 22  1  0  0  0  0
 23 24  1  0  0  0  0
 23 21  2  0  0  0  0
 25 21  1  0  0  0  0
 25 26  1  0  0  0  0
 27 19  2  0  0  0  0
 27  7  1  0  0  0  0
 28 27  1  0  0  0  0
 29 30  1  0  0  0  0
 31 32  1  0  0  0  0
 31 11  2  0  0  0  0
 33 25  2  0  0  0  0
 34 18  1  0  0  0  0
 35 34  1  0  0  0  0
 36  2  1  6  0  0  0
 36  9  1  0  0  0  0
 36 37  1  0  0  0  0
 37 45  2  0  0  0  0
 38 10  2  0  0  0  0
 39 38  1  0  0  0  0
 40 13  1  0  0  0  0
 40  3  2  0  0  0  0
 41 29  2  0  0  0  0
 41 42  1  0  0  0  0
 43 23  1  0  0  0  0
 44 43  1  0  0  0  0
 45 49  1  0  0  0  0
 45 46  1  0  0  0  0
 47 38  1  0  0  0  0
 47 51  2  0  0  0  0
 48 47  1  0  0  0  0
 49 50  1  0  0  0  0
 51 41  1  0  0  0  0
 52 54  2  0  0  0  0
 52 53  1  0  0  0  0
 54 55  1  0  0  0  0
 56 58  1  0  0  0  0
 57 56  1  0  0  0  0
 59 56  1  0  0  0  0
 60 51  1  0  0  0  0
 60 61  1  0  0  0  0
 62 60  1  0  0  0  0
 63 60  1  0  0  0  0
M  END
