2,3,5
q = -1.0, confidence = 0.072

 76 80  0  0  0  0  0  0  0  0999 V2000
    2.8141    0.4567   -1.7510 P   0  0  0  0  0  4  0  0  0  0  0  0
    1.3220   -0.2609    0.3033 N   0  0  0  0  0  2  0  0  0  0  0  0
   -0.9833   -1.1007    0.0911 N   0  0  0  0  0  2  0  0  0  0  0  0
   -3.2657    0.5433   -0.0763 N   0  0  0  0  0  2  0  0  0  0  0  0
   -2.1435    1.2060   -0.1482 N   0  0  0  0  0  2  0  0  0  0  0  0
    2.5229    0.3536   -0.0694 N   0  0  0  0  0  0  0  0  0  0  0  0
   -0.0386   -2.1058    0.2525 C   0  0  0  0  0  0  0  0  0  0  0  0
    1.2886   -1.6413    0.2688 C   0  0  0  0  0  0  0  0  0  0  0  0
   -4.7695   -1.2840    0.2537 C   0  0  0  0  0  0  0  0  0  0  0  0
   -0.7353   -3.3359    0.4900 C   0  0  0  0  0  0  0  0  0  0  0  0
   -0.2738   -4.3116    0.6806 H   0  0  0  0  0  0  0  0  0  0  0  0
   -3.3842   -0.7660    0.1420 C   0  0  0  0  0  0  0  0  0  0  0  0
   -2.3175    2.5486   -0.6113 C   0  0  0  0  0  0  0  0  0  0  0  0
   -1.5318    3.0292   -1.6773 C   0  0  0  0  0  0  0  0  0  0  0  0
   -0.8441    2.3341   -2.1827 H   0  0  0  0  0  0  0  0  0  0  0  0
   -2.2328   -1.6174    0.2296 C   0  0  0  0  0  0  0  0  0  0  0  0
    4.7929   -4.1490   -0.1668 C   0  0  0  0  0  0  0  0  0  0  0  0
    3.2287    1.1040    0.9105 C   0  0  0  0  0  0  0  0  0  0  0  0
    3.6813   -2.2203    0.8671 C   0  0  0  0  0  0  0  0  0  0  0  0
    3.7249   -1.3802    1.5739 H   0  0  0  0  0  0  0  0  0  0  0  0
    4.8082   -3.0306    0.6971 C   0  0  0  0  0  0  0  0  0  0  0  0
    5.7252   -2.8001    1.2620 H   0  0  0  0  0  0  0  0  0  0  0  0
   -2.0929   -3.0357    0.4776 C   0  0  0  0  0  0  0  0  0  0  0  0
   -2.9212   -3.7284    0.6561 H   0  0  0  0  0  0  0  0  0  0  0  0
   -5.7501   -0.5244    0.9303 C   0  0  0  0  0  0  0  0  0  0  0  0
   -5.4598    0.4368    1.3793 H   0  0  0  0  0  0  0  0  0  0  0  0
    4.4366   -0.2338   -2.1770 C   0  0  0  0  0  0  0  0  0  0  0  0
    5.2606    0.3481   -1.7259 H   0  0  0  0  0  0  0  0  0  0  0  0
    4.5495   -0.2418   -3.2795 H   0  0  0  0  0  0  0  0  0  0  0  0
    4.4700   -1.2698   -1.7827 H   0  0  0  0  0  0  0  0  0  0  0  0
   -3.2645    3.3990   -0.0076 C   0  0  0  0  0  0  0  0  0  0  0  0
   -3.8902    3.0027    0.8042 H   0  0  0  0  0  0  0  0  0  0  0  0
    2.4578   -3.6231   -0.6908 C   0  0  0  0  0  0  0  0  0  0  0  0
    1.5365   -3.8560   -1.2468 H   0  0  0  0  0  0  0  0  0  0  0  0
   -5.1656   -2.5048   -0.3331 C   0  0  0  0  0  0  0  0  0  0  0  0
   -4.4432   -3.0899   -0.9206 H   0  0  0  0  0  0  0  0  0  0  0  0
   -6.4873   -2.9577   -0.2228 C   0  0  0  0  0  0  0  0  0  0  0  0
   -6.7734   -3.9084   -0.6997 H   0  0  0  0  0  0  0  0  0  0  0  0
   -7.4630   -2.2125    0.4679 C   0  0  0  0  0  0  0  0  0  0  0  0
   -1.6608    4.3571   -2.1086 C   0  0  0  0  0  0  0  0  0  0  0  0
   -1.0552    4.7191   -2.9538 H   0  0  0  0  0  0  0  0  0  0  0  0
    3.4675    1.7712    3.2431 C   0  0  0  0  0  0  0  0  0  0  0  0
    3.1145    1.7071    4.2834 H   0  0  0  0  0  0  0  0  0  0  0  0
    2.4805   -2.4954    0.1677 C   0  0  0  0  0  0  0  0  0  0  0  0
    4.5763    2.5726    2.9235 C   0  0  0  0  0  0  0  0  0  0  0  0
    5.1020    3.1387    3.7056 H   0  0  0  0  0  0  0  0  0  0  0  0
    2.7966    1.0406    2.2543 C   0  0  0  0  0  0  0  0  0  0  0  0
    1.9210    0.4262    2.5007 H   0  0  0  0  0  0  0  0  0  0  0  0
    3.5915   -4.4282   -0.8529 C   0  0  0  0  0  0  0  0  0  0  0  0
    3.5456   -5.2946   -1.5310 H   0  0  0  0  0  0  0  0  0  0  0  0
    2.6405    2.1609   -2.3627 C   0  0  0  0  0  0  0  0  0  0  0  0
    1.6105    2.4913   -2.1203 H   0  0  0  0  0  0  0  0  0  0  0  0
    2.7935    2.1786   -3.4599 H   0  0  0  0  0  0  0  0  0  0  0  0
    3.3624    2.8417   -1.8771 H   0  0  0  0  0  0  0  0  0  0  0  0
    5.0122    2.6275    1.5914 C   0  0  0  0  0  0  0  0  0  0  0  0
    5.8867    3.2373    1.3193 H   0  0  0  0  0  0  0  0  0  0  0  0
   -3.3878    4.7249   -0.4421 C   0  0  0  0  0  0  0  0  0  0  0  0
   -4.1232    5.3861    0.0406 H   0  0  0  0  0  0  0  0  0  0  0  0
   -7.0665   -0.9814    1.0344 C   0  0  0  0  0  0  0  0  0  0  0  0
   -7.8096   -0.3714    1.5723 H   0  0  0  0  0  0  0  0  0  0  0  0
    4.3487    1.9027    0.5891 C   0  0  0  0  0  0  0  0  0  0  0  0
    4.7351    1.9669   -0.4367 H   0  0  0  0  0  0  0  0  0  0  0  0
    6.0002   -5.0354   -0.3136 C   0  0  0  0  0  0  0  0  0  0  0  0
    6.9444   -4.4685   -0.1957 H   0  0  0  0  0  0  0  0  0  0  0  0
    6.0174   -5.5490   -1.2943 H   0  0  0  0  0  0  0  0  0  0  0  0
    5.9989   -5.8262    0.4674 H   0  0  0  0  0  0  0  0  0  0  0  0
   -2.5828    5.2139   -1.4860 C   0  0  0  0  0  0  0  0  0  0  0  0
   -2.6896    6.2544   -1.8263 H   0  0  0  0  0  0  0  0  0  0  0  0
   -8.8784   -2.7089    0.6100 C   0  0  0  0  0  0  0  0  0  0  0  0
   -9.6136   -1.9045    0.4058 H   0  0  0  0  0  0  0  0  0  0  0  0
   -9.0729   -3.0655    1.6442 H   0  0  0  0  0  0  0  0  0  0  0  0
   -9.0888   -3.5514   -0.0765 H   0  0  0  0  0  0  0  0  0  0  0  0
    1.5506   -0.5256   -2.5788 C   0  0  0  0  0  0  0  0  0  0  0  0
    1.7325   -1.6021   -2.4049 H   0  0  0  0  0  0  0  0  0  0  0  0
    1.6039   -0.2980   -3.6615 H   0  0  0  0  0  0  0  0  0  0  0  0
    0.5571   -0.2483   -2.1660 H   0  0  0  0  0  0  0  0  0  0  0  0
  1  6  1  0  0  0  0
  3 16  1  0  0  0  0
  3  7  1  0  0  0  0
  4 12  1  0  0  0  0
  5  4  1  0  0  0  0
  6  2  1  0  0  0  0
  6 18  1  0  0  0  0
  7  8  2  0  0  0  0
  7 10  1  0  0  0  0
  8  2  1  0  0  0  0
  9 25  1  0  0  0  0
 10 11  1  0  0  0  0
 12 16  2  0  0  0  0
 12  9  1  0  0  0  0
 13  5  1  0  0  0  0
 13 31  1  0  0  0  0
 14 13  2  0  0  0  0
 15 14  1  0  0  0  0
 16 23  1  0  0  0  0
 17 21  1  0  0  0  0
 18 47  1  0  0  0  0
 19 20  1  0  0  0  0
 21 19  2  0  0  0  0
 21 22  1  0  0  0  0
 23 10  2  0  0  0  0
 23 24  1  0  0  0  0
 25 59  2  0  0  0  0
 25 26  1  0  0  0  0
 27 30  1  0  0  0  0
 27  1  1  0  0  0  0
 27 28  1  0  0  0  0
 29 27  1  0  0  0  0
 31 32  1  0  0  0  0
 33 44  2  0  0  0  0
 34 33  1  0  0  0  0
 35 37  1  0  0  0  0
 35  9  2  0  0  0  0
 36 35  1  0  0  0  0
 37 39  2  0  0  0  0
 38 37  1  0  0  0  0
 39 69  1  0  0  0  0
 39 59  1  0  0  0  0
 40 14  1  0  0  0  0
 40 67  2  0  0  0  0
 41 40  1  0  0  0  0
 42 43  1  0  0  0  0
 44  8  1  0  0  0  0
 44 19  1  0  0  0  0
 45 42  1  0  0  0  0
 45 46  1  0  0  0  0
 47 48  1  0  0  0  0
 47 42  2  0  0  0  0
 49 33  1  0  0  0  0
 49 17  2  0  0  0  0
 50 49  1  0  0  0  0
 51 52  1  0  0  0  0
 51 54  1  0  0  0  0
 51  1  1  0  0  0  0
 53 51  1  0  0  0  0
 55 45  2  0  0  0  0
 56 55  1  0  0  0  0
 57 31  2  0  0  0  0
 57 58  1  0  0  0  0
 59 60  1  0  0  0  0
 61 18  2  0  0  0  0
 61 55  1  0  0  0  0
 62 61  1  0  0  0  0
 63 64  1  0  0  0  0
 63 17  1  0  0  0  0
 63 66  1  0  0  0  0
 65 63  1  0  0  0  0
 67 57  1  0  0  0  0
 68 67  1  0  0  0  0
 69 71  1  0  0  0  0
 70 69  1  0  0  0  0
 72 69  1  0  0  0  0
 73 74  1  0  0  0  0
 73 76  1  0  0  0  0
 73  1  1  0  0  0  0
 75 73  1  0  0  0  0
M  END
