1,2,3
q = 0.0, confidence = 1.0

 31 31  0  0  0  0  0  0  0  0999 V2000
   -2.0898   -0.3956   -0.0532 N   0  0  0  0  0  2  0  0  0  0  0  0
   -0.7513    1.4563    1.2838 N   0  0  0  0  0  2  0  0  0  0  0  0
    1.9466    1.0933    0.8101 N   0  0  0  0  0  0  0  0  0  0  0  0
   -2.8160    0.4704    0.6863 C   0  0  0  0  0  0  0  0  0  0  0  0
   -4.2167    0.3865    0.7750 C   0  0  0  0  0  0  0  0  0  0  0  0
   -4.7784    1.1076    1.3879 H   0  0  0  0  0  0  0  0  0  0  0  0
   -4.8681   -0.6355    0.0690 C   0  0  0  0  0  0  0  0  0  0  0  0
   -5.9633   -0.7314    0.1128 H   0  0  0  0  0  0  0  0  0  0  0  0
   -4.1028   -1.5341   -0.6883 C   0  0  0  0  0  0  0  0  0  0  0  0
   -4.5763   -2.3499   -1.2532 H   0  0  0  0  0  0  0  0  0  0  0  0
   -2.7052   -1.3780   -0.7153 C   0  0  0  0  0  0  0  0  0  0  0  0
   -2.0467   -2.0646   -1.2734 H   0  0  0  0  0  0  0  0  0  0  0  0
   -2.0280    1.5051    1.3836 C   0  0  0  0  0  0  0  0  0  0  0  0
   -2.5662    2.2953    1.9514 H   0  0  0  0  0  0  0  0  0  0  0  0
    0.1661    2.4274    1.8289 C   0  0  0  0  0  0  0  0  0  0  0  0
   -0.2078    2.9044    2.7621 H   0  0  0  0  0  0  0  0  0  0  0  0
    0.2819    3.2305    1.0647 H   0  0  0  0  0  0  0  0  0  0  0  0
    1.5245    1.7488    2.0443 C   0  0  0  0  0  0  0  0  0  0  0  0
    2.2622    2.4984    2.4187 H   0  0  0  0  0  0  0  0  0  0  0  0
    1.4284    0.9664    2.8275 H   0  0  0  0  0  0  0  0  0  0  0  0
    3.1618    0.2758    0.9231 C   0  0  0  0  0  0  0  0  0  0  0  0
    2.9046   -0.6156    1.5357 H   0  0  0  0  0  0  0  0  0  0  0  0
    3.9704    0.8333    1.4584 H   0  0  0  0  0  0  0  0  0  0  0  0
    3.6562   -0.1783   -0.4479 C   0  0  0  0  0  0  0  0  0  0  0  0
    2.8082   -0.6566   -0.9814 H   0  0  0  0  0  0  0  0  0  0  0  0
    3.9422    0.7121   -1.0513 H   0  0  0  0  0  0  0  0  0  0  0  0
    4.8245   -1.1565   -0.3481 C   0  0  0  0  0  0  0  0  0  0  0  0
    5.6827   -0.7221    0.2074 H   0  0  0  0  0  0  0  0  0  0  0  0
    5.1898   -1.4481   -1.3525 H   0  0  0  0  0  0  0  0  0  0  0  0
    4.5140   -2.0833    0.1767 H   0  0  0  0  0  0  0  0  0  0  0  0
    2.0505    1.7827    0.0474 H   0  0  0  0  0  0  0  0  0  0  0  0
  1  4  1  0  0  0  0
  2 13  1  0  0  0  0
  2 15  1  0  0  0  0
  3 21  1  0  0  0  0
  3 18  1  0  0  0  0
  4  5  1  0  0  0  0
  4 13  2  0  0  0  0
  5  6  1  0  0  0  0
  7  8  1  0  0  0  0
  7  5  2  0  0  0  0
  9  7  1  0  0  0  0
 10  9  1  0  0  0  0
 11  9  2  0  0  0  0
 11  1  1  0  0  0  0
 12 11  1  0  0  0  0
 13 14  1  0  0  0  0
 15 18  1  0  0  0  0
 15 16  1  0  0  0  0
 17 15  1  0  0  0  0
 18 19  1  0  0  0  0
 18 20  1  0  0  0  0
 21 23  1  0  0  0  0
 21 22  1  0  0  0  0
 24 27  1  0  0  0  0
 24 21  1  0  0  0  0
 25 24  1  0  0  0  0
 26 24  1  0  0  0  0
 27 30  1  0  0  0  0
 27 28  1  0  0  0  0
 29 27  1  0  0  0  0
 31  3  1  0  0  0  0
M  END
