1,3,5
q = -1.0, confidence = 0.0

 33 34  0  0  1  0  0  0  0  0999 V2000
    0.2515    1.1016    0.0214 N   0  0  0  0  0  2  0  0  0  0  0  0
   -0.6840    1.9821    0.0672 N   0  0  0  0  0  0  0  0  0  0  0  0
    2.2361   -0.7564    0.0411 N   0  0  0  0  0  0  0  0  0  0  0  0
    2.5644   -1.2752   -0.7903 H   0  0  0  0  0  0  0  0  0  0  0  0
   -1.8784   -0.8369   -0.0842 N   0  0  0  0  0  2  0  0  0  0  0  0
    1.5811    1.6007   -0.0428 C   0  0  0  0  0  0  0  0  0  0  0  0
    1.8942    2.9746   -0.1097 C   0  0  0  0  0  0  0  0  0  0  0  0
    1.0676    3.6960   -0.0911 H   0  0  0  0  0  0  0  0  0  0  0  0
    3.2304    3.3739   -0.2099 C   0  0  0  0  0  0  0  0  0  0  0  0
    3.4699    4.4464   -0.2666 H   0  0  0  0  0  0  0  0  0  0  0  0
    4.2670    2.4229   -0.2491 C   0  0  0  0  0  0  0  0  0  0  0  0
    5.3146    2.7446   -0.3400 H   0  0  0  0  0  0  0  0  0  0  0  0
    3.9592    1.0562   -0.1729 C   0  0  0  0  0  0  0  0  0  0  0  0
    4.7607    0.3026   -0.2005 H   0  0  0  0  0  0  0  0  0  0  0  0
    2.6238    0.6489   -0.0684 C   0  0  0  0  0  0  0  0  0  0  0  0
    2.7974   -1.4290    1.2493 C   0  0  0  0  0  0  0  0  0  0  0  0
    2.4414   -2.4758    1.2388 H   0  0  0  0  0  0  0  0  0  0  0  0
    3.9059   -1.3909    1.2449 H   0  0  0  0  0  0  0  0  0  0  0  0
    2.4140   -0.9152    2.1490 H   0  0  0  0  0  0  0  0  0  0  0  0
   -1.9949    1.6486    0.0799 C   0  0  0  0  0  0  0  0  0  0  0  0
   -2.8515    2.7984    0.1638 C   0  0  0  0  0  0  0  0  0  0  0  0
   -2.3377    3.7689    0.2130 H   0  0  0  0  0  0  0  0  0  0  0  0
   -4.2256    2.7030    0.1833 C   0  0  0  0  0  0  0  0  0  0  0  0
   -4.8540    3.6023    0.2504 H   0  0  0  0  0  0  0  0  0  0  0  0
   -4.8126    1.4093    0.1117 C   0  0  0  0  0  0  0  0  0  0  0  0
   -5.9088    1.3054    0.1247 H   0  0  0  0  0  0  0  0  0  0  0  0
   -4.0365    0.2696    0.0246 C   0  0  0  0  0  0  0  0  0  0  0  0
   -4.5405   -0.7011   -0.0283 H   0  0  0  0  0  0  0  0  0  0  0  0
   -2.5914    0.3043    0.0048 C   0  0  1  0  0  3  0  0  0  0  0  0
   -2.6140   -2.0968   -0.1752 C   0  0  0  0  0  0  0  0  0  0  0  0
   -1.8974   -2.9316   -0.2414 H   0  0  0  0  0  0  0  0  0  0  0  0
   -3.2550   -2.2498    0.7200 H   0  0  0  0  0  0  0  0  0  0  0  0
   -3.2651   -2.1123   -1.0759 H   0  0  0  0  0  0  0  0  0  0  0  0
  1  2  1  0  0  0  0
  2 20  2  0  0  0  0
  3 16  1  0  0  0  0
  4  3  1  0  0  0  0
  6  1  1  0  0  0  0
  7  8  1  0  0  0  0
  7  6  2  0  0  0  0
  9  7  1  0  0  0  0
 10  9  1  0  0  0  0
 11  9  2  0  0  0  0
 11 13  1  0  0  0  0
 12 11  1  0  0  0  0
 13 15  2  0  0  0  0
 14 13  1  0  0  0  0
 15  6  1  0  0  0  0
 15  3  1  0  0  0  0
 16 19  1  0  0  0  0
 17 16  1  0  0  0  0
 18 16  1  0  0  0  0
 20 21  1  0  0  0  0
 21 23  2  0  0  0  0
 21 22  1  0  0  0  0
 23 24  1  0  0  0  0
 25 26  1  0  0  0  0
 25 23  1  0  0  0  0
 27 25  2  0  0  0  0
 28 27  1  0  0  0  0
 29  5  1  6  0  0  0
 29 27  1  0  0  0  0
 29 20  1  0  0  0  0
 30  5  1  0  0  0  0
 30 32  1  0  0  0  0
 31 30  1  0  0  0  0
 33 30  1  0  0  0  0
M  END
