2,3,28
q = -1.0, confidence = 0.124

 51 52  0  0  0  0  0  0  0  0999 V2000
    5.2201    2.8416    0.0513 O   0  0  0  0  0  0  0  0  0  0  0  0
   -0.0000    0.8302    0.0001 N   0  0  0  0  0  2  0  0  0  0  0  0
    1.9110   -0.6995   -0.1942 N   0  0  0  0  0  2  0  0  0  0  0  0
    1.2381    1.5027    0.0616 C   0  0  0  0  0  0  0  0  0  0  0  0
    2.3447    0.6157   -0.1121 C   0  0  0  0  0  0  0  0  0  0  0  0
    3.6606    1.0951   -0.1279 C   0  0  0  0  0  0  0  0  0  0  0  0
    4.5240    0.4384   -0.2816 H   0  0  0  0  0  0  0  0  0  0  0  0
    3.9068    2.4673    0.0936 C   0  0  0  0  0  0  0  0  0  0  0  0
    2.8333    3.3352    0.3606 C   0  0  0  0  0  0  0  0  0  0  0  0
    3.0027    4.3959    0.5857 H   0  0  0  0  0  0  0  0  0  0  0  0
    1.5101    2.8495    0.3493 C   0  0  0  0  0  0  0  0  0  0  0  0
    0.7034    3.5415    0.6109 H   0  0  0  0  0  0  0  0  0  0  0  0
    2.7797   -1.8779   -0.3410 C   0  0  0  0  0  0  0  0  0  0  0  0
    2.0745   -2.7521   -0.3353 H   0  0  0  0  0  0  0  0  0  0  0  0
    3.7134   -2.0931    0.8576 C   0  0  0  0  0  0  0  0  0  0  0  0
    3.4765   -1.9186   -1.7072 C   0  0  0  0  0  0  0  0  0  0  0  0
    5.5318    4.1975    0.2930 C   0  0  0  0  0  0  0  0  0  0  0  0
    4.2265   -3.0705    0.7626 H   0  0  0  0  0  0  0  0  0  0  0  0
    3.1352   -2.0945    1.8017 H   0  0  0  0  0  0  0  0  0  0  0  0
    4.4872   -1.3058    0.9257 H   0  0  0  0  0  0  0  0  0  0  0  0
    2.7304   -1.8423   -2.5217 H   0  0  0  0  0  0  0  0  0  0  0  0
    4.0276   -2.8725   -1.8258 H   0  0  0  0  0  0  0  0  0  0  0  0
    4.1991   -1.0878   -1.8196 H   0  0  0  0  0  0  0  0  0  0  0  0
    6.6305    4.2895    0.2040 H   0  0  0  0  0  0  0  0  0  0  0  0
    5.0516    4.8748   -0.4498 H   0  0  0  0  0  0  0  0  0  0  0  0
    5.2251    4.5215    1.3139 H   0  0  0  0  0  0  0  0  0  0  0  0
   -5.2201    2.8415   -0.0515 O   0  0  0  0  0  0  0  0  0  0  0  0
   -1.9110   -0.6995    0.1942 N   0  0  0  0  0  2  0  0  0  0  0  0
   -1.2381    1.5027   -0.0615 C   0  0  0  0  0  0  0  0  0  0  0  0
   -2.3447    0.6157    0.1121 C   0  0  0  0  0  0  0  0  0  0  0  0
   -3.6607    1.0950    0.1277 C   0  0  0  0  0  0  0  0  0  0  0  0
   -4.5240    0.4382    0.2813 H   0  0  0  0  0  0  0  0  0  0  0  0
   -3.9068    2.4673   -0.0937 C   0  0  0  0  0  0  0  0  0  0  0  0
   -2.8333    3.3352   -0.3604 C   0  0  0  0  0  0  0  0  0  0  0  0
   -3.0028    4.3959   -0.5853 H   0  0  0  0  0  0  0  0  0  0  0  0
   -1.5101    2.8495   -0.3490 C   0  0  0  0  0  0  0  0  0  0  0  0
   -0.7035    3.5416   -0.6104 H   0  0  0  0  0  0  0  0  0  0  0  0
   -2.7797   -1.8780    0.3408 C   0  0  0  0  0  0  0  0  0  0  0  0
   -2.0744   -2.7521    0.3352 H   0  0  0  0  0  0  0  0  0  0  0  0
   -3.7132   -2.0931   -0.8579 C   0  0  0  0  0  0  0  0  0  0  0  0
   -3.4766   -1.9187    1.7070 C   0  0  0  0  0  0  0  0  0  0  0  0
   -5.5319    4.1975   -0.2930 C   0  0  0  0  0  0  0  0  0  0  0  0
   -4.2263   -3.0706   -0.7630 H   0  0  0  0  0  0  0  0  0  0  0  0
   -3.1348   -2.0945   -1.8019 H   0  0  0  0  0  0  0  0  0  0  0  0
   -4.4870   -1.3058   -0.9260 H   0  0  0  0  0  0  0  0  0  0  0  0
   -2.7306   -1.8424    2.5215 H   0  0  0  0  0  0  0  0  0  0  0  0
   -4.0276   -2.8726    1.8255 H   0  0  0  0  0  0  0  0  0  0  0  0
   -4.1993   -1.0880    1.8192 H   0  0  0  0  0  0  0  0  0  0  0  0
   -6.6306    4.2894   -0.2040 H   0  0  0  0  0  0  0  0  0  0  0  0
   -5.0518    4.8746    0.4501 H   0  0  0  0  0  0  0  0  0  0  0  0
   -5.2251    4.5217   -1.3137 H   0  0  0  0  0  0  0  0  0  0  0  0
  1  8  1  0  0  0  0
  1 17  1  0  0  0  0
  2  4  1  0  0  0  0
  3  5  1  0  0  0  0
  4 11  1  0  0  0  0
  5  4  2  0  0  0  0
  6  5  1  0  0  0  0
  6  8  2  0  0  0  0
  7  6  1  0  0  0  0
  8  9  1  0  0  0  0
  9 10  1  0  0  0  0
 11  9  2  0  0  0  0
 11 12  1  0  0  0  0
 13 14  1  0  0  0  0
 13  3  1  0  0  0  0
 13 15  1  0  0  0  0
 15 20  1  0  0  0  0
 15 19  1  0  0  0  0
 16 13  1  0  0  0  0
 17 26  1  0  0  0  0
 18 15  1  0  0  0  0
 21 16  1  0  0  0  0
 22 16  1  0  0  0  0
 23 16  1  0  0  0  0
 24 17  1  0  0  0  0
 25 17  1  0  0  0  0
 28 38  1  0  0  0  0
 29  2  1  0  0  0  0
 29 30  1  0  0  0  0
 30 31  2  0  0  0  0
 30 28  1  0  0  0  0
 31 32  1  0  0  0  0
 33 27  1  0  0  0  0
 33 31  1  0  0  0  0
 34 36  1  0  0  0  0
 34 33  2  0  0  0  0
 35 34  1  0  0  0  0
 36 29  2  0  0  0  0
 37 36  1  0  0  0  0
 38 41  1  0  0  0  0
 39 38  1  0  0  0  0
 40 43  1  0  0  0  0
 40 38  1  0  0  0  0
 41 48  1  0  0  0  0
 41 47  1  0  0  0  0
 41 46  1  0  0  0  0
 42 49  1  0  0  0  0
 42 27  1  0  0  0  0
 42 50  1  0  0  0  0
 44 40  1  0  0  0  0
 45 40  1  0  0  0  0
 51 42  1  0  0  0  0
M  END
