5,6,7
q = -2.0, confidence = 0.828

 41 42  0  0  0  0  0  0  0  0999 V2000
   -4.8854    2.0019   -3.1300 Cl  0  0  0  0  0  0  0  0  0  0  0  0
   -5.5445    1.2792    2.2121 Cl  0  0  0  0  0  0  0  0  0  0  0  0
    6.3668    0.5922   -2.1133 Cl  0  0  0  0  0  0  0  0  0  0  0  0
    3.9082    3.2137    1.9620 Cl  0  0  0  0  0  0  0  0  0  0  0  0
   -0.0371   -2.9571    0.3302 N   0  0  0  0  0  0  0  0  0  0  0  0
    1.9570   -1.1134    0.0100 N   0  0  0  0  0  2  0  0  0  0  0  0
   -1.7804   -1.1180   -0.4019 N   0  0  0  0  0  2  0  0  0  0  0  0
    2.2339   -2.4610   -0.4659 C   0  0  0  0  0  0  0  0  0  0  0  0
    1.3625   -3.4262    0.3251 C   0  0  0  0  0  0  0  0  0  0  0  0
   -0.7055   -3.2004   -0.9647 C   0  0  0  0  0  0  0  0  0  0  0  0
   -2.0127   -2.4192   -1.0137 C   0  0  0  0  0  0  0  0  0  0  0  0
   -2.8999   -0.2358   -0.4253 C   0  0  0  0  0  0  0  0  0  0  0  0
   -3.3026    0.3692   -1.6351 C   0  0  0  0  0  0  0  0  0  0  0  0
   -4.3983    1.2428   -1.6362 C   0  0  0  0  0  0  0  0  0  0  0  0
   -5.1059    1.5391   -0.4594 C   0  0  0  0  0  0  0  0  0  0  0  0
   -4.6916    0.9250    0.7324 C   0  0  0  0  0  0  0  0  0  0  0  0
   -3.6079    0.0357    0.7621 C   0  0  0  0  0  0  0  0  0  0  0  0
    3.0087   -0.1931   -0.0107 C   0  0  0  0  0  0  0  0  0  0  0  0
    4.0747   -0.2774   -0.9414 C   0  0  0  0  0  0  0  0  0  0  0  0
    5.0651    0.7141   -0.9524 C   0  0  0  0  0  0  0  0  0  0  0  0
    5.0399    1.8104   -0.0773 C   0  0  0  0  0  0  0  0  0  0  0  0
    3.9806    1.8740    0.8433 C   0  0  0  0  0  0  0  0  0  0  0  0
    2.9907    0.8894    0.9048 C   0  0  0  0  0  0  0  0  0  0  0  0
   -0.7971   -3.5480    1.4419 C   0  0  0  0  0  0  0  0  0  0  0  0
    3.3000   -2.7277   -0.2967 H   0  0  0  0  0  0  0  0  0  0  0  0
    2.0672   -2.5728   -1.5660 H   0  0  0  0  0  0  0  0  0  0  0  0
    1.4385   -4.4689   -0.0640 H   0  0  0  0  0  0  0  0  0  0  0  0
    1.7080   -3.4294    1.3775 H   0  0  0  0  0  0  0  0  0  0  0  0
   -0.8762   -4.2898   -1.1334 H   0  0  0  0  0  0  0  0  0  0  0  0
   -0.0286   -2.8426   -1.7683 H   0  0  0  0  0  0  0  0  0  0  0  0
   -2.3495   -2.3286   -2.0719 H   0  0  0  0  0  0  0  0  0  0  0  0
   -2.8285   -2.9640   -0.4805 H   0  0  0  0  0  0  0  0  0  0  0  0
   -2.7451    0.1781   -2.5617 H   0  0  0  0  0  0  0  0  0  0  0  0
   -5.9546    2.2344   -0.4713 H   0  0  0  0  0  0  0  0  0  0  0  0
   -3.2949   -0.4315    1.7052 H   0  0  0  0  0  0  0  0  0  0  0  0
    4.1228   -1.0858   -1.6813 H   0  0  0  0  0  0  0  0  0  0  0  0
    5.8190    2.5815   -0.1055 H   0  0  0  0  0  0  0  0  0  0  0  0
    2.2123    0.9427    1.6765 H   0  0  0  0  0  0  0  0  0  0  0  0
   -0.8871   -4.6531    1.3276 H   0  0  0  0  0  0  0  0  0  0  0  0
   -1.8089   -3.1054    1.4853 H   0  0  0  0  0  0  0  0  0  0  0  0
   -0.2872   -3.3218    2.3952 H   0  0  0  0  0  0  0  0  0  0  0  0
  1 14  1  0  0  0  0
  3 20  1  0  0  0  0
  5 24  1  0  0  0  0
  8 25  1  0  0  0  0
  8  6  1  0  0  0  0
  8  9  1  0  0  0  0
  9  5  1  0  0  0  0
  9 28  1  0  0  0  0
 10  5  1  0  0  0  0
 11 10  1  0  0  0  0
 11 32  1  0  0  0  0
 11  7  1  0  0  0  0
 12  7  1  0  0  0  0
 12 17  1  0  0  0  0
 13 12  2  0  0  0  0
 14 13  1  0  0  0  0
 14 15  2  0  0  0  0
 15 16  1  0  0  0  0
 16 17  2  0  0  0  0
 16  2  1  0  0  0  0
 17 35  1  0  0  0  0
 18  6  1  0  0  0  0
 18 23  1  0  0  0  0
 19 18  2  0  0  0  0
 20 19  1  0  0  0  0
 20 21  2  0  0  0  0
 21 22  1  0  0  0  0
 22 23  2  0  0  0  0
 22  4  1  0  0  0  0
 23 38  1  0  0  0  0
 24 40  1  0  0  0  0
 24 41  1  0  0  0  0
 26  8  1  0  0  0  0
 27  9  1  0  0  0  0
 29 10  1  0  0  0  0
 30 10  1  0  0  0  0
 31 11  1  0  0  0  0
 33 13  1  0  0  0  0
 34 15  1  0  0  0  0
 36 19  1  0  0  0  0
 37 21  1  0  0  0  0
 39 24  1  0  0  0  0
M  END
