1,10,18
q = 0.0, confidence = 1.0

 31 31  0  0  0  0  0  0  0  0999 V2000
   -3.2817    0.2227   -0.3219 N   0  0  0  0  0  0  0  0  0  0  0  0
   -3.7305    0.8770    0.3375 H   0  0  0  0  0  0  0  0  0  0  0  0
   -3.3224    0.6237   -1.2728 H   0  0  0  0  0  0  0  0  0  0  0  0
   -3.8908   -1.1261   -0.2705 C   0  0  0  0  0  0  0  0  0  0  0  0
   -4.8662   -1.1722   -0.7997 H   0  0  0  0  0  0  0  0  0  0  0  0
   -4.0733   -1.3643    0.7973 H   0  0  0  0  0  0  0  0  0  0  0  0
   -2.8939   -2.1258   -0.8604 C   0  0  0  0  0  0  0  0  0  0  0  0
   -3.2687   -3.1699   -0.7726 H   0  0  0  0  0  0  0  0  0  0  0  0
   -2.7040   -1.9015   -1.9294 H   0  0  0  0  0  0  0  0  0  0  0  0
   -1.6317   -1.9150   -0.1359 N   0  0  0  0  0  0  0  0  0  0  0  0
   -1.7574   -2.1020    0.8762 H   0  0  0  0  0  0  0  0  0  0  0  0
   -0.3798   -2.5022   -0.6266 C   0  0  0  0  0  0  0  0  0  0  0  0
   -0.3419   -3.6064   -0.4948 H   0  0  0  0  0  0  0  0  0  0  0  0
   -0.3023   -2.2626   -1.7056 H   0  0  0  0  0  0  0  0  0  0  0  0
    0.7467   -1.8139    0.1484 C   0  0  0  0  0  0  0  0  0  0  0  0
    1.7449   -2.0925   -0.2466 H   0  0  0  0  0  0  0  0  0  0  0  0
    0.7144   -2.1202    1.2178 H   0  0  0  0  0  0  0  0  0  0  0  0
    0.5162   -0.3641    0.0771 N   0  0  0  0  0  2  0  0  0  0  0  0
    1.4672    0.5134    0.0015 C   0  0  0  0  0  3  0  0  0  0  0  0
    1.1146    1.5565   -0.1180 H   0  0  0  0  0  0  0  0  0  0  0  0
    2.9146    0.2543    0.0355 C   0  0  0  0  0  0  0  0  0  0  0  0
    3.5109   -0.5467    1.0357 C   0  0  0  0  0  0  0  0  0  0  0  0
    2.8865   -0.9689    1.8373 H   0  0  0  0  0  0  0  0  0  0  0  0
    4.8990   -0.7400    1.0436 C   0  0  0  0  0  0  0  0  0  0  0  0
    5.3605   -1.3491    1.8354 H   0  0  0  0  0  0  0  0  0  0  0  0
    5.6994   -0.1477    0.0532 C   0  0  0  0  0  0  0  0  0  0  0  0
    6.7887   -0.3052    0.0602 H   0  0  0  0  0  0  0  0  0  0  0  0
    5.1123    0.6580   -0.9373 C   0  0  0  0  0  0  0  0  0  0  0  0
    5.7395    1.1276   -1.7099 H   0  0  0  0  0  0  0  0  0  0  0  0
    3.7286    0.8733   -0.9409 C   0  0  0  0  0  0  0  0  0  0  0  0
    3.2534    1.4961   -1.7145 H   0  0  0  0  0  0  0  0  0  0  0  0
  1  4  1  0  0  0  0
  1  2  1  0  0  0  0
  3  1  1  0  0  0  0
  4  6  1  0  0  0  0
  5  4  1  0  0  0  0
  7  8  1  0  0  0  0
  7  4  1  0  0  0  0
  7 10  1  0  0  0  0
  9  7  1  0  0  0  0
 10 11  1  0  0  0  0
 12 13  1  0  0  0  0
 12 10  1  0  0  0  0
 12 15  1  0  0  0  0
 14 12  1  0  0  0  0
 15 17  1  0  0  0  0
 16 15  1  0  0  0  0
 18 15  1  0  0  0  0
 19 21  1  0  0  0  0
 19 18  1  0  0  0  0
 20 19  1  0  0  0  0
 21 22  1  0  0  0  0
 22 24  2  0  0  0  0
 22 23  1  0  0  0  0
 24 25  1  0  0  0  0
 26 27  1  0  0  0  0
 26 24  1  0  0  0  0
 28 26  2  0  0  0  0
 29 28  1  0  0  0  0
 30 28  1  0  0  0  0
 30 21  2  0  0  0  0
 31 30  1  0  0  0  0
M  END
