4,8,15
q = -1.0, confidence = 0.0

 33 35  0  0  0  0  0  0  0  0999 V2000
   -4.2534   -3.3825    0.1274 C   0  0  0  0  0  0  0  0  0  0  0  0
   -3.0550   -3.9921    0.5397 C   0  0  0  0  0  0  0  0  0  0  0  0
   -1.8675   -3.2541    0.4695 C   0  0  0  0  0  3  0  0  0  0  0  0
   -1.8447   -1.9841    0.0316 N   0  0  0  0  0  2  0  0  0  0  0  0
   -3.0090   -1.3688   -0.3904 C   0  0  0  0  0  0  0  0  0  0  0  0
   -4.2349   -2.0666   -0.3399 C   0  0  0  0  0  0  0  0  0  0  0  0
   -2.9590   -0.0734   -0.8480 N   0  0  0  0  0  2  0  0  0  0  0  0
   -1.7508    0.3947   -0.8832 N   0  0  0  0  0  2  0  0  0  0  0  0
   -1.4278    1.6670   -1.2678 C   0  0  0  0  0  0  0  0  0  0  0  0
   -2.3846    2.6532   -1.6341 C   0  0  0  0  0  0  0  0  0  0  0  0
   -1.9403    3.9132   -1.9855 C   0  0  0  0  0  0  0  0  0  0  0  0
   -0.5400    4.2054   -1.9840 C   0  0  0  0  0  0  0  0  0  0  0  0
    0.4122    3.2631   -1.6353 C   0  0  0  0  0  0  0  0  0  0  0  0
   -0.0001    1.9433   -1.2649 C   0  0  0  0  0  0  0  0  0  0  0  0
    0.8267    0.9196   -0.9586 N   0  0  0  0  0  2  0  0  0  0  0  0
    2.2208    1.0311   -0.8029 C   0  0  0  0  0  0  0  0  0  0  0  0
    3.0563    0.1338   -1.5065 C   0  0  0  0  0  0  0  0  0  0  0  0
    4.4355    0.2051   -1.2862 C   0  0  0  0  0  0  0  0  0  0  0  0
    4.9345    1.1656   -0.3906 C   0  0  0  0  0  0  0  0  0  0  0  0
    4.0196    2.0210    0.2436 C   0  0  0  0  0  0  0  0  0  0  0  0
    2.6909    1.9557    0.0568 N   0  0  0  0  0  0  0  0  0  0  0  0
   -5.2016   -3.9385    0.1666 H   0  0  0  0  0  0  0  0  0  0  0  0
   -3.0327   -5.0257    0.9105 H   0  0  0  0  0  0  0  0  0  0  0  0
   -0.8998   -3.6815    0.7711 H   0  0  0  0  0  0  0  0  0  0  0  0
   -5.1405   -1.5502   -0.6845 H   0  0  0  0  0  0  0  0  0  0  0  0
   -3.4484    2.3817   -1.6228 H   0  0  0  0  0  0  0  0  0  0  0  0
   -2.6588    4.6949   -2.2697 H   0  0  0  0  0  0  0  0  0  0  0  0
   -0.2075    5.2146   -2.2713 H   0  0  0  0  0  0  0  0  0  0  0  0
    1.4799    3.5128   -1.6318 H   0  0  0  0  0  0  0  0  0  0  0  0
    2.6020   -0.5776   -2.2113 H   0  0  0  0  0  0  0  0  0  0  0  0
    5.1182   -0.4727   -1.8209 H   0  0  0  0  0  0  0  0  0  0  0  0
    6.0118    1.2588   -0.1920 H   0  0  0  0  0  0  0  0  0  0  0  0
    4.3740    2.7941    0.9474 H   0  0  0  0  0  0  0  0  0  0  0  0
  1 22  1  0  0  0  0
  1  2  2  0  0  0  0
  2 23  1  0  0  0  0
  3  2  1  0  0  0  0
  3 24  1  0  0  0  0
  4  3  1  0  0  0  0
  5  6  2  0  0  0  0
  5  4  1  0  0  0  0
  6  1  1  0  0  0  0
  7  5  1  0  0  0  0
  8  7  1  0  0  0  0
  9 14  1  0  0  0  0
  9  8  1  0  0  0  0
 10 26  1  0  0  0  0
 10  9  2  0  0  0  0
 11 12  2  0  0  0  0
 11 10  1  0  0  0  0
 12 13  1  0  0  0  0
 13 29  1  0  0  0  0
 13 14  2  0  0  0  0
 14 15  1  0  0  0  0
 15 16  1  0  0  0  0
 16 21  1  0  0  0  0
 17 18  1  0  0  0  0
 17 16  2  0  0  0  0
 18 19  2  0  0  0  0
 19 32  1  0  0  0  0
 19 20  1  0  0  0  0
 20 33  1  0  0  0  0
 21 20  2  0  0  0  0
 25  6  1  0  0  0  0
 27 11  1  0  0  0  0
 28 12  1  0  0  0  0
 30 17  1  0  0  0  0
 31 18  1  0  0  0  0
M  END
