1,4,5
q = 0.0, confidence = 0.994

 26 25  0  0  0  0  0  0  0  0999 V2000
    0.8625    1.2858    1.3725 N   0  0  0  0  0  0  0  0  0  0  0  0
    1.7042    1.7661    1.0202 H   0  0  0  0  0  0  0  0  0  0  0  0
    1.0795    0.6956    2.1951 H   0  0  0  0  0  0  0  0  0  0  0  0
   -1.6115    0.6976    0.2549 N   0  0  0  0  0  0  0  0  0  0  0  0
   -0.1857   -1.3012   -1.3894 N   0  0  0  0  0  0  0  0  0  0  0  0
    0.6584   -1.9113   -1.3978 H   0  0  0  0  0  0  0  0  0  0  0  0
   -0.1451   -0.7013   -2.2420 H   0  0  0  0  0  0  0  0  0  0  0  0
   -0.2582    2.1925    1.6632 C   0  0  0  0  0  0  0  0  0  0  0  0
   -0.2380    3.0074    0.9140 H   0  0  0  0  0  0  0  0  0  0  0  0
   -0.1673    2.6614    2.6662 H   0  0  0  0  0  0  0  0  0  0  0  0
   -1.5420    1.3771    1.5819 C   0  0  0  0  0  0  0  0  0  0  0  0
   -1.5129    0.5875    2.3570 H   0  0  0  0  0  0  0  0  0  0  0  0
   -2.4463    2.0058    1.7471 H   0  0  0  0  0  0  0  0  0  0  0  0
   -2.5900   -0.4234    0.2973 C   0  0  0  0  0  0  0  0  0  0  0  0
   -3.5965    0.0013    0.5241 H   0  0  0  0  0  0  0  0  0  0  0  0
   -2.3121   -1.0766    1.1478 H   0  0  0  0  0  0  0  0  0  0  0  0
   -2.6626   -1.2432   -0.9914 C   0  0  0  0  0  0  0  0  0  0  0  0
   -3.5264   -1.9324   -0.8936 H   0  0  0  0  0  0  0  0  0  0  0  0
   -2.9057   -0.5888   -1.8549 H   0  0  0  0  0  0  0  0  0  0  0  0
   -1.4229   -2.0872   -1.2823 C   0  0  0  0  0  0  0  0  0  0  0  0
   -1.2680   -2.8213   -0.4693 H   0  0  0  0  0  0  0  0  0  0  0  0
   -1.5833   -2.6590   -2.2226 H   0  0  0  0  0  0  0  0  0  0  0  0
   -2.0248    1.6769   -0.7767 C   0  0  0  0  0  0  0  0  0  0  0  0
   -3.0832    1.9798   -0.6139 H   0  0  0  0  0  0  0  0  0  0  0  0
   -1.3822    2.5720   -0.7295 H   0  0  0  0  0  0  0  0  0  0  0  0
   -1.9105    1.2530   -1.7877 H   0  0  0  0  0  0  0  0  0  0  0  0
  1  8  1  0  0  0  0
  1  3  1  0  0  0  0
  2  1  1  0  0  0  0
  4 14  1  0  0  0  0
  4 11  1  0  0  0  0
  5 20  1  0  0  0  0
  6  5  1  0  0  0  0
  7  5  1  0  0  0  0
  8 10  1  0  0  0  0
  9  8  1  0  0  0  0
 11  8  1  0  0  0  0
 11 13  1  0  0  0  0
 11 12  1  0  0  0  0
 14 15  1  0  0  0  0
 14 16  1  0  0  0  0
 17 18  1  0  0  0  0
 17 14  1  0  0  0  0
 19 17  1  0  0  0  0
 20 17  1  0  0  0  0
 20 21  1  0  0  0  0
 22 20  1  0  0  0  0
 23 25  1  0  0  0  0
 23 24  1  0  0  0  0
 23  4  1  0  0  0  0
 26 23  1  0  0  0  0
M  END
