1,2,3
q = 0.0, confidence = 0.998

 31 31  0  0  0  0  0  0  0  0999 V2000
   -1.7202    1.2560    0.0348 N   0  0  0  0  0  2  0  0  0  0  0  0
   -0.6948   -0.6891    1.5171 N   0  0  0  0  0  2  0  0  0  0  0  0
    1.8194   -1.2951    0.4984 N   0  0  0  0  0  0  0  0  0  0  0  0
   -2.5922    0.4955    0.7352 C   0  0  0  0  0  0  0  0  0  0  0  0
   -3.9740    0.7515    0.7325 C   0  0  0  0  0  0  0  0  0  0  0  0
   -4.6559    0.1019    1.3004 H   0  0  0  0  0  0  0  0  0  0  0  0
   -4.4495    1.8393   -0.0110 C   0  0  0  0  0  0  0  0  0  0  0  0
   -5.5252    2.0689   -0.0349 H   0  0  0  0  0  0  0  0  0  0  0  0
   -3.5361    2.6271   -0.7287 C   0  0  0  0  0  0  0  0  0  0  0  0
   -3.8705    3.4894   -1.3230 H   0  0  0  0  0  0  0  0  0  0  0  0
   -2.1727    2.2929   -0.6788 C   0  0  0  0  0  0  0  0  0  0  0  0
   -1.4097    2.8726   -1.2246 H   0  0  0  0  0  0  0  0  0  0  0  0
   -1.9794   -0.6072    1.5041 C   0  0  0  0  0  0  0  0  0  0  0  0
   -2.6375   -1.3091    2.0548 H   0  0  0  0  0  0  0  0  0  0  0  0
    0.0368   -1.7481    2.1657 C   0  0  0  0  0  0  0  0  0  0  0  0
   -0.6226   -2.5499    2.5669 H   0  0  0  0  0  0  0  0  0  0  0  0
    0.5914   -1.3043    3.0242 H   0  0  0  0  0  0  0  0  0  0  0  0
    1.0411   -2.3470    1.1677 C   0  0  0  0  0  0  0  0  0  0  0  0
    1.6727   -3.0899    1.7040 H   0  0  0  0  0  0  0  0  0  0  0  0
    0.4804   -2.8938    0.3813 H   0  0  0  0  0  0  0  0  0  0  0  0
    2.6391   -1.7757   -0.6497 C   0  0  0  0  0  0  0  0  0  0  0  0
    1.9065   -2.2355   -1.3481 H   0  0  0  0  0  0  0  0  0  0  0  0
    3.2918   -0.5881   -1.3540 C   0  0  0  0  0  0  0  0  0  0  0  0
    2.5338    0.1157   -1.7456 H   0  0  0  0  0  0  0  0  0  0  0  0
    3.9047   -0.9442   -2.2049 H   0  0  0  0  0  0  0  0  0  0  0  0
    3.9567   -0.0161   -0.6728 H   0  0  0  0  0  0  0  0  0  0  0  0
    3.6780   -2.8260   -0.2378 C   0  0  0  0  0  0  0  0  0  0  0  0
    4.4059   -2.3994    0.4853 H   0  0  0  0  0  0  0  0  0  0  0  0
    4.2512   -3.1654   -1.1231 H   0  0  0  0  0  0  0  0  0  0  0  0
    3.2201   -3.7256    0.2195 H   0  0  0  0  0  0  0  0  0  0  0  0
    2.4462   -0.8309    1.1750 H   0  0  0  0  0  0  0  0  0  0  0  0
  1  4  1  0  0  0  0
  2 15  1  0  0  0  0
  3 18  1  0  0  0  0
  3 31  1  0  0  0  0
  4 13  2  0  0  0  0
  5  4  1  0  0  0  0
  5  6  1  0  0  0  0
  7  5  2  0  0  0  0
  8  7  1  0  0  0  0
  9 11  2  0  0  0  0
  9  7  1  0  0  0  0
 10  9  1  0  0  0  0
 11  1  1  0  0  0  0
 12 11  1  0  0  0  0
 13  2  1  0  0  0  0
 13 14  1  0  0  0  0
 15 16  1  0  0  0  0
 15 17  1  0  0  0  0
 18 19  1  0  0  0  0
 18 15  1  0  0  0  0
 20 18  1  0  0  0  0
 21 27  1  0  0  0  0
 21  3  1  0  0  0  0
 22 21  1  0  0  0  0
 23 26  1  0  0  0  0
 23 21  1  0  0  0  0
 24 23  1  0  0  0  0
 25 23  1  0  0  0  0
 27 30  1  0  0  0  0
 27 28  1  0  0  0  0
 29 27  1  0  0  0  0
M  END
