1,2,3
q = -1.0, confidence = 0.0

 26 29  0  0  0  0  0  0  0  0999 V2000
    0.9343    1.1007   -1.0724 N   0  0  0  0  0  2  0  0  0  0  0  0
    1.6782   -0.8504    0.3685 N   0  0  0  0  0  2  0  0  0  0  0  0
   -0.3634   -1.3414    1.6164 N   0  0  0  0  0  0  0  0  0  0  0  0
   -1.4086   -1.7573    2.3158 N   0  0  0  0  0  2  0  0  0  0  0  0
   -1.0120   -2.8031    3.0483 N   0  0  0  0  0  0  0  0  0  0  0  0
    0.2879   -3.0775    2.8345 N   0  0  0  0  0  0  0  0  0  0  0  0
    0.4989    2.1351   -1.8106 C   0  0  0  0  0  0  0  0  0  0  0  0
   -0.5573    2.4174   -1.6867 H   0  0  0  0  0  0  0  0  0  0  0  0
    1.3506    2.8362   -2.6928 C   0  0  0  0  0  0  0  0  0  0  0  0
    0.9367    3.6763   -3.2685 H   0  0  0  0  0  0  0  0  0  0  0  0
    2.6939    2.4778   -2.8229 C   0  0  0  0  0  0  0  0  0  0  0  0
    3.3615    3.0281   -3.5027 H   0  0  0  0  0  0  0  0  0  0  0  0
    3.1918    1.3929   -2.0535 C   0  0  0  0  0  0  0  0  0  0  0  0
    4.5456    0.8932   -2.0440 C   0  0  0  0  0  0  0  0  0  0  0  0
    5.2845    1.3827   -2.6961 H   0  0  0  0  0  0  0  0  0  0  0  0
    4.9334   -0.1643   -1.2382 C   0  0  0  0  0  0  0  0  0  0  0  0
    5.9791   -0.5075   -1.2547 H   0  0  0  0  0  0  0  0  0  0  0  0
    4.0007   -0.8271   -0.3665 C   0  0  0  0  0  0  0  0  0  0  0  0
    4.2484   -1.9103    0.5296 C   0  0  0  0  0  0  0  0  0  0  0  0
    5.2601   -2.3370    0.6017 H   0  0  0  0  0  0  0  0  0  0  0  0
    3.2179   -2.4196    1.3241 C   0  0  0  0  0  0  0  0  0  0  0  0
    3.3940   -3.2420    2.0309 H   0  0  0  0  0  0  0  0  0  0  0  0
    1.9140   -1.8652    1.2385 C   0  0  0  0  0  0  0  0  0  0  0  0
    2.6711   -0.3399   -0.3889 C   0  0  0  0  0  0  0  0  0  0  0  0
    2.2568    0.7476   -1.2024 C   0  0  0  0  0  0  0  0  0  0  0  0
    0.6871   -2.1657    1.9402 C   0  0  0  0  0  0  0  0  0  0  0  0
  2 23  1  0  0  0  0
  3 26  2  0  0  0  0
  3  4  1  0  0  0  0
  4  5  1  0  0  0  0
  6  5  2  0  0  0  0
  7  8  1  0  0  0  0
  7  1  1  0  0  0  0
  9  7  2  0  0  0  0
 10  9  1  0  0  0  0
 11  9  1  0  0  0  0
 11 13  2  0  0  0  0
 12 11  1  0  0  0  0
 13 14  1  0  0  0  0
 13 25  1  0  0  0  0
 14 16  2  0  0  0  0
 15 14  1  0  0  0  0
 16 18  1  0  0  0  0
 17 16  1  0  0  0  0
 18 19  2  0  0  0  0
 19 20  1  0  0  0  0
 19 21  1  0  0  0  0
 21 22  1  0  0  0  0
 23 21  2  0  0  0  0
 23 26  1  0  0  0  0
 24 18  1  0  0  0  0
 24  2  1  0  0  0  0
 25  1  1  0  0  0  0
 25 24  2  0  0  0  0
 26  6  1  0  0  0  0
M  END
