3,4,5
q = 0.0, confidence = 0.998

 39 41  0  0  1  0  0  0  0  0999 V2000
    3.4961    1.6659   -0.1472 O   0  0  0  0  0  0  0  0  0  0  0  0
   -3.5226    0.9223   -0.6708 O   0  0  0  0  0  0  0  0  0  0  0  0
    1.9818    0.0146    0.1761 N   0  0  0  0  0  2  0  0  0  0  0  0
   -0.0138    1.3193   -0.4721 N   0  0  0  0  0  2  0  0  0  0  0  0
   -1.7611   -0.4114   -0.1860 N   0  0  0  0  0  2  0  0  0  0  0  0
    3.2702   -0.6509    0.5328 C   0  0  0  0  0  0  0  0  0  0  0  0
    4.2977    0.4815    0.1858 C   0  0  0  0  0  0  0  0  0  0  0  0
    4.9537    0.7543    1.0337 H   0  0  0  0  0  0  0  0  0  0  0  0
    4.9154    0.2484   -0.7039 H   0  0  0  0  0  0  0  0  0  0  0  0
    2.2384    1.2538   -0.1623 C   0  0  1  0  0  3  0  0  0  0  0  0
    1.0993    2.0921   -0.5250 C   0  0  0  0  0  0  0  0  0  0  0  0
    1.0195    3.4504   -0.8589 C   0  0  0  0  0  0  0  0  0  0  0  0
    1.9314    4.0617   -0.9003 H   0  0  0  0  0  0  0  0  0  0  0  0
   -0.2523    3.9918   -1.1280 C   0  0  0  0  0  0  0  0  0  0  0  0
   -0.3471    5.0551   -1.3907 H   0  0  0  0  0  0  0  0  0  0  0  0
   -1.4022    3.1847   -1.0540 C   0  0  0  0  0  0  0  0  0  0  0  0
   -2.4068    3.5854   -1.2454 H   0  0  0  0  0  0  0  0  0  0  0  0
   -1.2405    1.8348   -0.7166 C   0  0  0  0  0  0  0  0  0  0  0  0
   -2.2186    0.7671   -0.5296 C   0  0  0  0  0  0  0  0  0  0  0  0
   -4.0980   -0.4135   -0.4791 C   0  0  0  0  0  0  0  0  0  0  0  0
   -4.4609   -0.7540   -1.4700 H   0  0  0  0  0  0  0  0  0  0  0  0
   -4.9501   -0.3130    0.2178 H   0  0  0  0  0  0  0  0  0  0  0  0
   -2.9368   -1.2978    0.0818 C   0  0  0  0  0  0  0  0  0  0  0  0
    3.2739   -0.9821    2.0304 C   0  0  0  0  0  0  0  0  0  0  0  0
    3.1287   -0.0672    2.6392 H   0  0  0  0  0  0  0  0  0  0  0  0
    4.2441   -1.4388    2.3107 H   0  0  0  0  0  0  0  0  0  0  0  0
    2.4617   -1.6963    2.2607 H   0  0  0  0  0  0  0  0  0  0  0  0
    3.4837   -1.8919   -0.3377 C   0  0  0  0  0  0  0  0  0  0  0  0
    2.7349   -2.6639   -0.0823 H   0  0  0  0  0  0  0  0  0  0  0  0
    4.4973   -2.3040   -0.1609 H   0  0  0  0  0  0  0  0  0  0  0  0
    3.3759   -1.6393   -1.4100 H   0  0  0  0  0  0  0  0  0  0  0  0
   -3.0661   -1.4949    1.5987 C   0  0  0  0  0  0  0  0  0  0  0  0
   -2.1740   -2.0210    1.9865 H   0  0  0  0  0  0  0  0  0  0  0  0
   -3.9661   -2.1024    1.8212 H   0  0  0  0  0  0  0  0  0  0  0  0
   -3.1521   -0.5123    2.1027 H   0  0  0  0  0  0  0  0  0  0  0  0
   -2.8199   -2.6206   -0.6749 C   0  0  0  0  0  0  0  0  0  0  0  0
   -2.6719   -2.4463   -1.7590 H   0  0  0  0  0  0  0  0  0  0  0  0
   -3.7459   -3.2140   -0.5385 H   0  0  0  0  0  0  0  0  0  0  0  0
   -1.9654   -3.2042   -0.2862 H   0  0  0  0  0  0  0  0  0  0  0  0
  1  7  1  0  0  0  0
  2 19  1  0  0  0  0
  2 20  1  0  0  0  0
  3  6  1  0  0  0  0
  5 23  1  0  0  0  0
  6 24  1  0  0  0  0
  7  6  1  0  0  0  0
  7  8  1  0  0  0  0
  9  7  1  0  0  0  0
 10 11  1  1  0  0  0
 10  1  1  0  0  0  0
 10  3  1  0  0  0  0
 11  4  1  0  0  0  0
 12 11  2  0  0  0  0
 13 12  1  0  0  0  0
 14 16  2  0  0  0  0
 14 12  1  0  0  0  0
 15 14  1  0  0  0  0
 16 18  1  0  0  0  0
 17 16  1  0  0  0  0
 18 19  2  0  0  0  0
 18  4  1  0  0  0  0
 19  5  1  0  0  0  0
 20 23  1  0  0  0  0
 20 22  1  0  0  0  0
 21 20  1  0  0  0  0
 23 32  1  0  0  0  0
 24 27  1  0  0  0  0
 24 26  1  0  0  0  0
 24 25  1  0  0  0  0
 28 30  1  0  0  0  0
 28 29  1  0  0  0  0
 28  6  1  0  0  0  0
 31 28  1  0  0  0  0
 32 34  1  0  0  0  0
 32 33  1  0  0  0  0
 32 35  1  0  0  0  0
 36 38  1  0  0  0  0
 36 39  1  0  0  0  0
 36 23  1  0  0  0  0
 37 36  1  0  0  0  0
M  END
