1,2,3
q = 0.0, confidence = 1.0

 63 66  0  0  1  0  0  0  0  0999 V2000
    0.9512   -1.3665   -0.7837 N   0  0  2  0  0  0  0  0  0  0  0  0
   -1.6781   -0.3958   -0.7875 N   0  0  1  0  0  0  0  0  0  0  0  0
    0.4998    1.4083   -0.7912 N   0  0  1  0  0  0  0  0  0  0  0  0
    0.0062   -1.8948   -1.8159 C   0  0  0  0  0  0  0  0  0  0  0  0
   -1.4327   -1.7575   -1.3480 C   0  0  0  0  0  0  0  0  0  0  0  0
   -1.6228    0.6716   -1.8284 C   0  0  0  0  0  0  0  0  0  0  0  0
   -0.8108    1.8562   -1.3261 C   0  0  0  0  0  0  0  0  0  0  0  0
    1.3669    0.8299   -1.8559 C   0  0  0  0  0  0  0  0  0  0  0  0
    1.9722   -0.4873   -1.4038 C   0  0  0  0  0  0  0  0  0  0  0  0
    1.6005   -2.4988   -0.0273 C   0  0  0  0  0  0  0  0  0  0  0  0
    2.6217   -3.3423   -0.8492 C   0  0  0  0  0  0  0  0  0  0  0  0
    4.0072   -2.9855   -0.2848 C   0  0  0  0  0  0  0  0  0  0  0  0
    3.7200   -2.7616    1.2074 C   0  0  0  0  0  0  0  0  0  0  0  0
    2.3738   -2.0140    1.2260 C   0  0  0  0  0  0  0  0  0  0  0  0
   -3.0020   -0.4019   -0.0631 C   0  0  0  0  0  0  0  0  0  0  0  0
   -4.2060   -0.9178   -0.8958 C   0  0  0  0  0  0  0  0  0  0  0  0
   -5.4586   -0.3022   -0.2123 C   0  0  0  0  0  0  0  0  0  0  0  0
   -4.9127    0.5657    0.9462 C   0  0  0  0  0  0  0  0  0  0  0  0
   -3.4927    0.9350    0.5042 C   0  0  0  0  0  0  0  0  0  0  0  0
    1.1626    2.5478   -0.0859 C   0  0  0  0  0  0  0  0  0  0  0  0
    1.4951    3.8037   -0.9380 C   0  0  0  0  0  0  0  0  0  0  0  0
    2.7637    4.4108   -0.2766 C   0  0  0  0  0  0  0  0  0  0  0  0
    2.9906    3.5895    1.0110 C   0  0  0  0  0  0  0  0  0  0  0  0
    2.4640    2.1981    0.6447 C   0  0  0  0  0  0  0  0  0  0  0  0
    0.2201   -2.9593   -2.0459 H   0  0  0  0  0  0  0  0  0  0  0  0
    0.1658   -1.3449   -2.7654 H   0  0  0  0  0  0  0  0  0  0  0  0
   -2.1254   -1.9885   -2.1893 H   0  0  0  0  0  0  0  0  0  0  0  0
   -1.6235   -2.4598   -0.5124 H   0  0  0  0  0  0  0  0  0  0  0  0
   -2.6411    1.0100   -2.1113 H   0  0  0  0  0  0  0  0  0  0  0  0
   -1.1786    0.2551   -2.7533 H   0  0  0  0  0  0  0  0  0  0  0  0
   -0.6907    2.6021   -2.1483 H   0  0  0  0  0  0  0  0  0  0  0  0
   -1.3343    2.3495   -0.4850 H   0  0  0  0  0  0  0  0  0  0  0  0
    2.1811    1.5306   -2.1359 H   0  0  0  0  0  0  0  0  0  0  0  0
    0.7709    0.6872   -2.7780 H   0  0  0  0  0  0  0  0  0  0  0  0
    2.4765   -0.9847   -2.2649 H   0  0  0  0  0  0  0  0  0  0  0  0
    2.7472   -0.2944   -0.6418 H   0  0  0  0  0  0  0  0  0  0  0  0
    0.7449   -3.1107    0.3132 H   0  0  0  0  0  0  0  0  0  0  0  0
    2.4170   -4.4175   -0.6650 H   0  0  0  0  0  0  0  0  0  0  0  0
    2.5388   -3.1975   -1.9460 H   0  0  0  0  0  0  0  0  0  0  0  0
    4.7695   -3.7673   -0.4783 H   0  0  0  0  0  0  0  0  0  0  0  0
    4.3854   -2.0469   -0.7458 H   0  0  0  0  0  0  0  0  0  0  0  0
    3.6121   -3.7454    1.7132 H   0  0  0  0  0  0  0  0  0  0  0  0
    4.5268   -2.2158    1.7365 H   0  0  0  0  0  0  0  0  0  0  0  0
    2.5341   -0.9151    1.1856 H   0  0  0  0  0  0  0  0  0  0  0  0
    1.7664   -2.1891    2.1329 H   0  0  0  0  0  0  0  0  0  0  0  0
   -2.8242   -1.0811    0.7955 H   0  0  0  0  0  0  0  0  0  0  0  0
   -4.1317   -0.5758   -1.9509 H   0  0  0  0  0  0  0  0  0  0  0  0
   -4.2394   -2.0244   -0.9240 H   0  0  0  0  0  0  0  0  0  0  0  0
   -6.0193    0.3255   -0.9349 H   0  0  0  0  0  0  0  0  0  0  0  0
   -6.1648   -1.0781    0.1432 H   0  0  0  0  0  0  0  0  0  0  0  0
   -5.5444    1.4494    1.1631 H   0  0  0  0  0  0  0  0  0  0  0  0
   -4.8558   -0.0310    1.8804 H   0  0  0  0  0  0  0  0  0  0  0  0
   -2.8406    1.3079    1.3166 H   0  0  0  0  0  0  0  0  0  0  0  0
   -3.5497    1.7133   -0.2901 H   0  0  0  0  0  0  0  0  0  0  0  0
    0.4410    2.8185    0.7118 H   0  0  0  0  0  0  0  0  0  0  0  0
    1.6894    3.5470   -2.0010 H   0  0  0  0  0  0  0  0  0  0  0  0
    0.6444    4.5138   -0.9415 H   0  0  0  0  0  0  0  0  0  0  0  0
    3.6364    4.2924   -0.9522 H   0  0  0  0  0  0  0  0  0  0  0  0
    2.6638    5.4960   -0.0777 H   0  0  0  0  0  0  0  0  0  0  0  0
    4.0462    3.5880    1.3469 H   0  0  0  0  0  0  0  0  0  0  0  0
    2.3805    3.9986    1.8437 H   0  0  0  0  0  0  0  0  0  0  0  0
    2.2664    1.5459    1.5178 H   0  0  0  0  0  0  0  0  0  0  0  0
    3.1934    1.6922   -0.0258 H   0  0  0  0  0  0  0  0  0  0  0  0
  1 10  1  6  0  0  0
  2 15  1  6  0  0  0
  3 20  1  6  0  0  0
  4  5  1  0  0  0  0
  4  1  1  0  0  0  0
  5  2  1  0  0  0  0
  5 28  1  0  0  0  0
  6  7  1  0  0  0  0
  6  2  1  0  0  0  0
  7  3  1  0  0  0  0
  7 32  1  0  0  0  0
  8  9  1  0  0  0  0
  8  3  1  0  0  0  0
  9  1  1  0  0  0  0
  9 36  1  0  0  0  0
 10 37  1  0  0  0  0
 10 14  1  0  0  0  0
 11 38  1  0  0  0  0
 11 12  1  0  0  0  0
 11 10  1  0  0  0  0
 12 13  1  0  0  0  0
 13 14  1  0  0  0  0
 13 42  1  0  0  0  0
 13 43  1  0  0  0  0
 14 45  1  0  0  0  0
 15 19  1  0  0  0  0
 15 46  1  0  0  0  0
 16 17  1  0  0  0  0
 16 15  1  0  0  0  0
 17 50  1  0  0  0  0
 17 18  1  0  0  0  0
 18 51  1  0  0  0  0
 18 52  1  0  0  0  0
 19 18  1  0  0  0  0
 19 53  1  0  0  0  0
 20 24  1  0  0  0  0
 20 55  1  0  0  0  0
 21 22  1  0  0  0  0
 21 20  1  0  0  0  0
 22 59  1  0  0  0  0
 22 23  1  0  0  0  0
 23 60  1  0  0  0  0
 23 61  1  0  0  0  0
 24 23  1  0  0  0  0
 24 62  1  0  0  0  0
 25  4  1  0  0  0  0
 26  4  1  0  0  0  0
 27  5  1  0  0  0  0
 29  6  1  0  0  0  0
 30  6  1  0  0  0  0
 31  7  1  0  0  0  0
 33  8  1  0  0  0  0
 34  8  1  0  0  0  0
 35  9  1  0  0  0  0
 39 11  1  0  0  0  0
 40 12  1  0  0  0  0
 41 12  1  0  0  0  0
 44 14  1  0  0  0  0
 47 16  1  0  0  0  0
 48 16  1  0  0  0  0
 49 17  1  0  0  0  0
 54 19  1  0  0  0  0
 56 21  1  0  0  0  0
 57 21  1  0  0  0  0
 58 22  1  0  0  0  0
 63 24  1  0  0  0  0
M  END
