3,5,6
q = 0.0, confidence = 0.998

 45 49  0  0  1  0  0  0  0  0999 V2000
    0.8844    3.6239   -0.9789 S   0  0  0  0  0  0  0  0  0  0  0  0
    2.6050   -2.8361    0.0440 S   0  0  0  0  0  0  0  0  0  0  0  0
   -0.8383    1.6554   -0.0180 N   0  0  0  0  0  2  0  0  0  0  0  0
   -1.7382    3.6952   -0.2971 N   0  0  0  0  0  0  0  0  0  0  0  0
    2.4249    0.4640   -0.0622 N   0  0  0  0  0  2  0  0  0  0  0  0
    0.1954   -1.7117   -0.8296 N   0  0  0  0  0  2  0  0  0  0  0  0
    0.0957   -3.8508   -0.1465 N   0  0  0  0  0  0  0  0  0  0  0  0
   -2.9297    0.5634    0.9336 C   0  0  0  0  0  0  0  0  0  0  0  0
   -4.2668    0.8283    1.2537 C   0  0  0  0  0  0  0  0  0  0  0  0
   -4.8445    2.1046    1.0520 C   0  0  0  0  0  0  0  0  0  0  0  0
   -4.0993    3.1743    0.5354 C   0  0  0  0  0  0  0  0  0  0  0  0
   -2.7603    2.9061    0.2151 C   0  0  0  0  0  0  0  0  0  0  0  0
   -2.1770    1.6199    0.3918 C   0  0  0  0  0  0  0  0  0  0  0  0
   -0.6139    2.9049   -0.4124 C   0  0  1  0  0  3  0  0  0  0  0  0
    1.7582    2.1519   -1.6771 C   0  0  0  0  0  0  0  0  0  0  0  0
    2.8035    1.5518   -0.7782 C   0  0  2  0  0  3  0  0  0  0  0  0
    4.1115    2.0607   -0.7284 C   0  0  0  0  0  0  0  0  0  0  0  0
    5.0633    1.4110    0.0683 C   0  0  0  0  0  0  0  0  0  0  0  0
    4.6857    0.2465    0.7498 C   0  0  0  0  0  0  0  0  0  0  0  0
    3.3614   -0.2159    0.6536 C   0  0  0  0  0  0  0  0  0  0  0  0
    2.9214   -1.4954    1.2920 C   0  0  0  0  0  0  0  0  0  0  0  0
    0.8828   -2.7274   -0.3049 C   0  0  1  0  0  3  0  0  0  0  0  0
   -1.1794   -3.5475   -0.5860 C   0  0  0  0  0  0  0  0  0  0  0  0
   -1.0963   -2.1887   -1.0141 C   0  0  0  0  0  0  0  0  0  0  0  0
   -2.3718   -4.2841   -0.6573 C   0  0  0  0  0  0  0  0  0  0  0  0
   -3.4931   -3.6194   -1.1719 C   0  0  0  0  0  0  0  0  0  0  0  0
   -3.4243   -2.2720   -1.6039 C   0  0  0  0  0  0  0  0  0  0  0  0
   -2.2334   -1.5416   -1.5302 C   0  0  0  0  0  0  0  0  0  0  0  0
   -2.4467   -0.4030    1.1368 H   0  0  0  0  0  0  0  0  0  0  0  0
   -4.8820    0.0244    1.6846 H   0  0  0  0  0  0  0  0  0  0  0  0
   -5.8999    2.2674    1.3176 H   0  0  0  0  0  0  0  0  0  0  0  0
   -4.5438    4.1700    0.3928 H   0  0  0  0  0  0  0  0  0  0  0  0
   -1.8022    4.6716   -0.5830 H   0  0  0  0  0  0  0  0  0  0  0  0
    0.9881    1.3835   -1.8983 H   0  0  0  0  0  0  0  0  0  0  0  0
    2.2075    2.5228   -2.6189 H   0  0  0  0  0  0  0  0  0  0  0  0
    4.3764    2.9518   -1.3168 H   0  0  0  0  0  0  0  0  0  0  0  0
    6.0940    1.7902    0.1333 H   0  0  0  0  0  0  0  0  0  0  0  0
    5.4142   -0.3199    1.3484 H   0  0  0  0  0  0  0  0  0  0  0  0
    3.7097   -1.9143    1.9460 H   0  0  0  0  0  0  0  0  0  0  0  0
    1.9664   -1.3584    1.8706 H   0  0  0  0  0  0  0  0  0  0  0  0
    0.4089   -4.7092    0.3063 H   0  0  0  0  0  0  0  0  0  0  0  0
   -2.4303   -5.3287   -0.3185 H   0  0  0  0  0  0  0  0  0  0  0  0
   -4.4509   -4.1570   -1.2384 H   0  0  0  0  0  0  0  0  0  0  0  0
   -4.3312   -1.7880   -1.9960 H   0  0  0  0  0  0  0  0  0  0  0  0
   -2.1738   -0.4911   -1.8465 H   0  0  0  0  0  0  0  0  0  0  0  0
  2 21  1  0  0  0  0
  3 13  1  0  0  0  0
  4 12  1  0  0  0  0
  5 20  1  0  0  0  0
  6 22  1  0  0  0  0
  7 41  1  0  0  0  0
  8 29  1  0  0  0  0
  8  9  1  0  0  0  0
  9 30  1  0  0  0  0
 10  9  2  0  0  0  0
 10 31  1  0  0  0  0
 11 10  1  0  0  0  0
 12 13  1  0  0  0  0
 12 11  2  0  0  0  0
 13  8  2  0  0  0  0
 14  1  1  1  0  0  0
 14  4  1  0  0  0  0
 14  3  1  0  0  0  0
 15  1  1  0  0  0  0
 16 15  1  6  0  0  0
 16 17  1  0  0  0  0
 16  5  1  0  0  0  0
 17 18  2  0  0  0  0
 18 37  1  0  0  0  0
 18 19  1  0  0  0  0
 19 38  1  0  0  0  0
 20 19  2  0  0  0  0
 20 21  1  0  0  0  0
 21 40  1  0  0  0  0
 21 39  1  0  0  0  0
 22  7  1  0  0  0  0
 22  2  1  6  0  0  0
 23  7  1  0  0  0  0
 24  6  1  0  0  0  0
 24 23  2  0  0  0  0
 25 23  1  0  0  0  0
 25 42  1  0  0  0  0
 26 25  2  0  0  0  0
 27 28  2  0  0  0  0
 27 26  1  0  0  0  0
 28 24  1  0  0  0  0
 32 11  1  0  0  0  0
 33  4  1  0  0  0  0
 34 15  1  0  0  0  0
 35 15  1  0  0  0  0
 36 17  1  0  0  0  0
 43 26  1  0  0  0  0
 44 27  1  0  0  0  0
 45 28  1  0  0  0  0
M  END
