1,2,4
q = -1.0, confidence = 0.006

 37 40  0  0  0  0  0  0  0  0999 V2000
   -2.0243    0.0002   -0.0004 N   0  0  0  0  0  2  0  0  0  0  0  0
   -0.1458   -1.0266    1.5790 N   0  0  0  0  0  2  0  0  0  0  0  0
   -1.1019   -1.9503    1.8554 N   0  0  0  0  0  0  0  0  0  0  0  0
   -0.1452    1.0266   -1.5789 N   0  0  0  0  0  2  0  0  0  0  0  0
   -1.1007    1.9508   -1.8552 N   0  0  0  0  0  0  0  0  0  0  0  0
    0.6656   -0.9663    2.6509 C   0  0  0  0  0  3  0  0  0  0  0  0
    1.5104   -0.2726    2.6458 H   0  0  0  0  0  0  0  0  0  0  0  0
    0.2347   -1.8762    3.6372 C   0  0  0  0  0  0  0  0  0  0  0  0
    0.6819   -2.0585    4.6187 H   0  0  0  0  0  0  0  0  0  0  0  0
   -0.8978   -2.4824    3.1020 C   0  0  0  0  0  0  0  0  0  0  0  0
   -1.5976   -3.2128    3.5172 H   0  0  0  0  0  0  0  0  0  0  0  0
   -2.6948   -1.1935    0.1455 C   0  0  0  0  0  0  0  0  0  0  0  0
   -2.1764   -2.2324    0.9757 C   0  0  0  0  0  0  0  0  0  0  0  0
   -2.7675   -3.5063    1.0073 C   0  0  0  0  0  0  0  0  0  0  0  0
   -2.3013   -4.2978    1.6117 H   0  0  0  0  0  0  0  0  0  0  0  0
   -3.9278   -3.7717    0.2726 C   0  0  0  0  0  0  0  0  0  0  0  0
   -4.3799   -4.7733    0.2995 H   0  0  0  0  0  0  0  0  0  0  0  0
   -4.4934   -2.7454   -0.5081 C   0  0  0  0  0  0  0  0  0  0  0  0
   -5.4049   -2.9371   -1.0948 H   0  0  0  0  0  0  0  0  0  0  0  0
   -3.8852   -1.4911   -0.5770 C   0  0  0  0  0  0  0  0  0  0  0  0
   -4.3070   -0.7027   -1.2173 H   0  0  0  0  0  0  0  0  0  0  0  0
    0.6666    0.9664   -2.6506 C   0  0  0  0  0  3  0  0  0  0  0  0
    1.5112    0.2723   -2.6454 H   0  0  0  0  0  0  0  0  0  0  0  0
    0.2363    1.8768   -3.6367 C   0  0  0  0  0  0  0  0  0  0  0  0
    0.6839    2.0593   -4.6180 H   0  0  0  0  0  0  0  0  0  0  0  0
   -0.8961    2.4833   -3.1016 C   0  0  0  0  0  0  0  0  0  0  0  0
   -1.5955    3.2141   -3.5168 H   0  0  0  0  0  0  0  0  0  0  0  0
   -2.6944    1.1940   -0.1460 C   0  0  0  0  0  0  0  0  0  0  0  0
   -2.1755    2.2330   -0.9758 C   0  0  0  0  0  0  0  0  0  0  0  0
   -2.7661    3.5071   -1.0072 C   0  0  0  0  0  0  0  0  0  0  0  0
   -2.2995    4.2986   -1.6113 H   0  0  0  0  0  0  0  0  0  0  0  0
   -3.9266    3.7727   -0.2728 C   0  0  0  0  0  0  0  0  0  0  0  0
   -4.3783    4.7745   -0.2995 H   0  0  0  0  0  0  0  0  0  0  0  0
   -4.4928    2.7464    0.5075 C   0  0  0  0  0  0  0  0  0  0  0  0
   -5.4043    2.9382    1.0939 H   0  0  0  0  0  0  0  0  0  0  0  0
   -3.8850    1.4919    0.5762 C   0  0  0  0  0  0  0  0  0  0  0  0
   -4.3072    0.7034    1.2162 H   0  0  0  0  0  0  0  0  0  0  0  0
  1 12  1  0  0  0  0
  2  3  1  0  0  0  0
  2  6  1  0  0  0  0
  3 10  1  0  0  0  0
  5  4  1  0  0  0  0
  5 29  1  0  0  0  0
  6  8  1  0  0  0  0
  7  6  1  0  0  0  0
  8  9  1  0  0  0  0
 10 11  1  0  0  0  0
 10  8  2  0  0  0  0
 12 13  1  0  0  0  0
 13 14  2  0  0  0  0
 13  3  1  0  0  0  0
 14 15  1  0  0  0  0
 16 17  1  0  0  0  0
 16 14  1  0  0  0  0
 18 16  2  0  0  0  0
 19 18  1  0  0  0  0
 20 18  1  0  0  0  0
 20 12  2  0  0  0  0
 21 20  1  0  0  0  0
 22 23  1  0  0  0  0
 22  4  1  0  0  0  0
 24 26  2  0  0  0  0
 24 22  1  0  0  0  0
 25 24  1  0  0  0  0
 26  5  1  0  0  0  0
 27 26  1  0  0  0  0
 28  1  1  0  0  0  0
 28 36  1  0  0  0  0
 29 28  2  0  0  0  0
 30 29  1  0  0  0  0
 30 32  2  0  0  0  0
 31 30  1  0  0  0  0
 32 34  1  0  0  0  0
 33 32  1  0  0  0  0
 34 36  2  0  0  0  0
 34 35  1  0  0  0  0
 36 37  1  0  0  0  0
M  END
