2,3,5
q = 0.0, confidence = 0.998

 36 37  0  0  1  0  0  0  0  0999 V2000
   -0.9904   -0.0797    1.4431 O   0  0  0  0  0  0  0  0  0  0  0  0
    1.3689    0.5401   -0.6471 N   0  0  0  0  0  2  0  0  0  0  0  0
   -0.9508    1.8931   -0.7389 N   0  0  0  0  0  0  0  0  0  0  0  0
   -0.8775    2.1262   -1.7360 H   0  0  0  0  0  0  0  0  0  0  0  0
    0.7329   -2.1232   -0.7082 N   0  0  0  0  0  0  0  0  0  0  0  0
    0.3834   -2.7960   -1.3999 H   0  0  0  0  0  0  0  0  0  0  0  0
    2.4172   -0.3099   -0.6070 C   0  0  1  0  0  3  0  0  0  0  0  0
    3.6549    0.0875   -0.0921 C   0  0  0  0  0  0  0  0  0  0  0  0
    4.5026   -0.6135   -0.0677 H   0  0  0  0  0  0  0  0  0  0  0  0
    1.4534    1.7692   -0.1105 C   0  0  0  0  0  0  0  0  0  0  0  0
    3.7842    1.4007    0.3994 C   0  0  0  0  0  0  0  0  0  0  0  0
    4.7465    1.7480    0.8034 H   0  0  0  0  0  0  0  0  0  0  0  0
   -2.2944    2.2344   -0.2644 C   0  0  0  0  0  0  0  0  0  0  0  0
   -3.0012    2.0486   -1.1025 H   0  0  0  0  0  0  0  0  0  0  0  0
   -2.4028    3.3241   -0.0355 H   0  0  0  0  0  0  0  0  0  0  0  0
    2.6677    2.2497    0.4074 C   0  0  0  0  0  0  0  0  0  0  0  0
    2.7342    3.2671    0.8220 H   0  0  0  0  0  0  0  0  0  0  0  0
    2.0898   -1.6973   -1.1311 C   0  0  0  0  0  0  0  0  0  0  0  0
    2.0924   -1.6664   -2.2416 H   0  0  0  0  0  0  0  0  0  0  0  0
    2.8739   -2.4233   -0.8193 H   0  0  0  0  0  0  0  0  0  0  0  0
    0.1441    2.5381   -0.0062 C   0  0  0  0  0  0  0  0  0  0  0  0
   -0.1343    2.5593    1.0695 H   0  0  0  0  0  0  0  0  0  0  0  0
    0.2931    3.6011   -0.3054 H   0  0  0  0  0  0  0  0  0  0  0  0
   -2.2074    0.4789    1.6840 C   0  0  0  0  0  0  0  0  0  0  0  0
   -2.7514    0.0690    2.5541 H   0  0  0  0  0  0  0  0  0  0  0  0
   -2.7821    1.4591    0.9357 C   0  0  0  0  0  0  0  0  0  0  0  0
   -3.7662    1.7842    1.3112 H   0  0  0  0  0  0  0  0  0  0  0  0
    0.6711   -2.7742    0.6210 C   0  0  0  0  0  0  0  0  0  0  0  0
    1.5200   -3.4892    0.7281 H   0  0  0  0  0  0  0  0  0  0  0  0
   -0.2579   -3.3811    0.6421 H   0  0  0  0  0  0  0  0  0  0  0  0
    0.6803   -1.8377    1.8428 C   0  0  0  0  0  0  0  0  0  0  0  0
    1.0044   -2.4556    2.7065 H   0  0  0  0  0  0  0  0  0  0  0  0
    1.4543   -1.0483    1.7467 H   0  0  0  0  0  0  0  0  0  0  0  0
   -0.6413   -1.2162    2.2754 C   0  0  0  0  0  0  0  0  0  0  0  0
   -1.4636   -1.9641    2.2213 H   0  0  0  0  0  0  0  0  0  0  0  0
   -0.5659   -0.8582    3.3243 H   0  0  0  0  0  0  0  0  0  0  0  0
  1 24  1  0  0  0  0
  1 34  1  0  0  0  0
  2 10  1  0  0  0  0
  3 13  1  0  0  0  0
  3 21  1  0  0  0  0
  4  3  1  0  0  0  0
  5 28  1  0  0  0  0
  6  5  1  0  0  0  0
  7  2  1  1  0  0  0
  7  8  1  0  0  0  0
  8  9  1  0  0  0  0
  8 11  2  0  0  0  0
 10 21  1  0  0  0  0
 10 16  2  0  0  0  0
 11 16  1  0  0  0  0
 11 12  1  0  0  0  0
 13 15  1  0  0  0  0
 13 26  1  0  0  0  0
 14 13  1  0  0  0  0
 16 17  1  0  0  0  0
 18 20  1  0  0  0  0
 18  5  1  0  0  0  0
 18  7  1  0  0  0  0
 19 18  1  0  0  0  0
 21 22  1  0  0  0  0
 23 21  1  0  0  0  0
 24 25  1  0  0  0  0
 26 27  1  0  0  0  0
 26 24  2  0  0  0  0
 28 30  1  0  0  0  0
 28 29  1  0  0  0  0
 28 31  1  0  0  0  0
 31 34  1  0  0  0  0
 31 32  1  0  0  0  0
 33 31  1  0  0  0  0
 34 36  1  0  0  0  0
 35 34  1  0  0  0  0
M  END
