1,4,7
q = 0.0, confidence = 1.0

 25 27  0  0  1  0  0  0  0  0999 V2000
    0.8638    1.2701   -0.6880 N   0  0  0  0  0  2  0  0  0  0  0  0
   -2.4123    2.5357    0.9517 N   0  0  0  0  0  0  0  0  0  0  0  0
   -3.2733    1.9917    1.0242 H   0  0  0  0  0  0  0  0  0  0  0  0
   -1.3360    1.9943    0.3666 N   0  0  0  0  0  2  0  0  0  0  0  0
    0.2825   -2.3383   -1.9836 N   0  0  0  0  0  0  0  0  0  0  0  0
   -0.5872   -2.8611   -1.8712 H   0  0  0  0  0  0  0  0  0  0  0  0
    0.3744   -1.0977   -1.4838 N   0  0  0  0  0  2  0  0  0  0  0  0
    1.8913    0.7385   -1.4139 C   0  0  0  0  0  0  0  0  0  0  0  0
    3.0394    1.5006   -1.6770 C   0  0  0  0  0  0  0  0  0  0  0  0
    3.8612    1.0687   -2.2637 H   0  0  0  0  0  0  0  0  0  0  0  0
    3.1066    2.8145   -1.1876 C   0  0  0  0  0  0  0  0  0  0  0  0
    3.9986    3.4271   -1.3809 H   0  0  0  0  0  0  0  0  0  0  0  0
    2.0250    3.3594   -0.4768 C   0  0  0  0  0  0  0  0  0  0  0  0
    2.0461    4.3974   -0.1186 H   0  0  0  0  0  0  0  0  0  0  0  0
    0.8905    2.5646   -0.2533 C   0  0  0  0  0  0  0  0  0  0  0  0
   -0.3660    2.9530    0.3737 C   0  0  1  0  0  3  0  0  0  0  0  0
   -0.8666    4.1260    0.9893 C   0  0  0  0  0  0  0  0  0  0  0  0
   -0.3448    5.0724    1.1565 H   0  0  0  0  0  0  0  0  0  0  0  0
   -2.1770    3.8210    1.3463 C   0  0  0  0  0  0  0  0  0  0  0  0
   -2.9497    4.4144    1.8459 H   0  0  0  0  0  0  0  0  0  0  0  0
    1.6045   -0.6247   -1.8417 C   0  0  0  0  0  0  0  0  0  0  0  0
    2.2917   -1.6157   -2.5857 C   0  0  0  0  0  0  0  0  0  0  0  0
    3.2939   -1.5544   -3.0185 H   0  0  0  0  0  0  0  0  0  0  0  0
    1.4155   -2.6950   -2.6576 C   0  0  0  0  0  0  0  0  0  0  0  0
    1.5111   -3.6772   -3.1317 H   0  0  0  0  0  0  0  0  0  0  0  0
  1 15  1  0  0  0  0
  2  3  1  0  0  0  0
  2 19  1  0  0  0  0
  4 16  1  0  0  0  0
  4  2  1  0  0  0  0
  5  6  1  0  0  0  0
  5  7  1  0  0  0  0
  8  1  1  0  0  0  0
  9  8  1  0  0  0  0
  9 11  2  0  0  0  0
 10  9  1  0  0  0  0
 11 13  1  0  0  0  0
 12 11  1  0  0  0  0
 13 15  2  0  0  0  0
 13 14  1  0  0  0  0
 16 15  1  6  0  0  0
 16 17  1  0  0  0  0
 17 18  1  0  0  0  0
 17 19  2  0  0  0  0
 19 20  1  0  0  0  0
 21  7  1  0  0  0  0
 21  8  2  0  0  0  0
 22 21  1  0  0  0  0
 23 22  1  0  0  0  0
 24 22  2  0  0  0  0
 24  5  1  0  0  0  0
 25 24  1  0  0  0  0
M  END
