41,44,46
q = 0.0, confidence = 0.666

 52 54  0  0  0  0  0  0  0  0999 V2000
    1.4824   -2.4359   -0.5983 C   0  0  0  0  0  0  0  0  0  0  0  0
    1.1008   -3.1858   -1.3203 H   0  0  0  0  0  0  0  0  0  0  0  0
    0.6302   -2.1810    0.0632 H   0  0  0  0  0  0  0  0  0  0  0  0
    2.6333   -3.0348    0.2054 C   0  0  0  0  0  0  0  0  0  0  0  0
    2.2710   -3.8954    0.8090 H   0  0  0  0  0  0  0  0  0  0  0  0
    3.4282   -3.4091   -0.4697 H   0  0  0  0  0  0  0  0  0  0  0  0
    2.4068   -1.6289    2.2597 C   0  0  0  0  0  0  0  0  0  0  0  0
    2.7298   -2.1980    3.1547 H   0  0  0  0  0  0  0  0  0  0  0  0
    1.3633   -1.9367    2.0473 H   0  0  0  0  0  0  0  0  0  0  0  0
    2.4404   -0.1314    2.5338 C   0  0  0  0  0  0  0  0  0  0  0  0
    1.6925    0.1164    3.3203 H   0  0  0  0  0  0  0  0  0  0  0  0
    3.4336    0.1853    2.9134 H   0  0  0  0  0  0  0  0  0  0  0  0
    2.0567    2.0726    1.4795 C   0  0  0  0  0  0  0  0  0  0  0  0
    3.0776    2.5034    1.5032 H   0  0  0  0  0  0  0  0  0  0  0  0
    1.5798    2.2830    2.4629 H   0  0  0  0  0  0  0  0  0  0  0  0
    1.2415    2.7535    0.3760 C   0  0  0  0  0  0  0  0  0  0  0  0
    1.4284    3.8426    0.4282 H   0  0  0  0  0  0  0  0  0  0  0  0
    1.5986    2.4194   -0.6194 H   0  0  0  0  0  0  0  0  0  0  0  0
   -0.8401    1.4173    0.0759 C   0  0  0  0  0  0  0  0  0  0  0  0
   -2.3295    1.4394   -0.0052 C   0  0  0  0  0  0  0  0  0  0  0  0
   -3.0818    2.6287   -0.1649 C   0  0  0  0  0  0  0  0  0  0  0  0
   -2.5817    3.6044   -0.2718 H   0  0  0  0  0  0  0  0  0  0  0  0
   -4.4754    2.5747   -0.2363 C   0  0  0  0  0  0  0  0  0  0  0  0
   -5.0858    3.4804   -0.3681 H   0  0  0  0  0  0  0  0  0  0  0  0
   -5.1420    1.3374   -0.1522 C   0  0  0  0  0  0  0  0  0  0  0  0
   -4.3963    0.1454   -0.0058 C   0  0  0  0  0  0  0  0  0  0  0  0
   -2.9969    0.2044    0.0591 C   0  0  0  0  0  0  0  0  0  0  0  0
   -2.4359   -0.7344    0.1675 H   0  0  0  0  0  0  0  0  0  0  0  0
   -5.0647   -1.1966    0.0817 C   0  0  0  0  0  0  0  0  0  0  0  0
   -6.5509   -1.2159    0.0053 C   0  0  0  0  0  0  0  0  0  0  0  0
   -7.2187   -2.4533    0.0821 C   0  0  0  0  0  0  0  0  0  0  0  0
   -6.6109   -3.3629    0.1957 H   0  0  0  0  0  0  0  0  0  0  0  0
   -8.6159   -2.5046    0.0140 C   0  0  0  0  0  0  0  0  0  0  0  0
   -9.1332   -3.4738    0.0744 H   0  0  0  0  0  0  0  0  0  0  0  0
   -9.3608   -1.3185   -0.1316 C   0  0  0  0  0  0  0  0  0  0  0  0
  -10.4589   -1.3626   -0.1849 H   0  0  0  0  0  0  0  0  0  0  0  0
   -8.7077   -0.0827   -0.2091 C   0  0  0  0  0  0  0  0  0  0  0  0
   -9.2631    0.8598   -0.3232 H   0  0  0  0  0  0  0  0  0  0  0  0
   -7.3029   -0.0192   -0.1419 C   0  0  0  0  0  0  0  0  0  0  0  0
   -6.6427    1.3137   -0.2283 C   0  0  0  0  0  0  0  0  0  0  0  0
    1.9005   -1.1783   -1.2779 N   0  0  0  0  0  0  0  0  0  0  0  0
    1.0891   -0.5319   -1.2841 H   0  0  0  0  0  0  0  0  0  0  0  0
    2.1534   -1.3578   -2.2582 H   0  0  0  0  0  0  0  0  0  0  0  0
    3.2464   -1.9853    1.0717 N   0  0  0  0  0  0  0  0  0  0  0  0
    4.1578   -2.3296    1.4008 H   0  0  0  0  0  0  0  0  0  0  0  0
    2.1599    0.6017    1.2778 N   0  0  0  0  0  0  0  0  0  0  0  0
    1.2287    0.3103    0.8979 H   0  0  0  0  0  0  0  0  0  0  0  0
   -0.2072    2.5592    0.4512 N   0  0  0  0  0  0  0  0  0  0  0  0
   -0.7834    3.3543    0.7317 H   0  0  0  0  0  0  0  0  0  0  0  0
   -0.1950    0.3675   -0.1699 O   0  0  0  0  0  0  0  0  0  0  0  0
   -4.3941   -2.2208    0.2114 O   0  0  0  0  0  0  0  0  0  0  0  0
   -7.2772    2.3586   -0.3557 O   0  0  0  0  0  0  0  0  0  0  0  0
  1  3  1  0  0  0  0
  1  4  1  0  0  0  0
  2  1  1  0  0  0  0
  4  5  1  0  0  0  0
  4 44  1  0  0  0  0
  6  4  1  0  0  0  0
  7 10  1  0  0  0  0
  7  8  1  0  0  0  0
  9  7  1  0  0  0  0
 10 12  1  0  0  0  0
 10 11  1  0  0  0  0
 13 14  1  0  0  0  0
 13 15  1  0  0  0  0
 16 17  1  0  0  0  0
 16 48  1  0  0  0  0
 16 13  1  0  0  0  0
 18 16  1  0  0  0  0
 19 48  1  0  0  0  0
 20 27  1  0  0  0  0
 20 19  1  0  0  0  0
 21 20  2  0  0  0  0
 22 21  1  0  0  0  0
 23 21  1  0  0  0  0
 23 25  2  0  0  0  0
 24 23  1  0  0  0  0
 25 26  1  0  0  0  0
 26 27  2  0  0  0  0
 26 29  1  0  0  0  0
 27 28  1  0  0  0  0
 29 51  2  0  0  0  0
 30 29  1  0  0  0  0
 30 31  1  0  0  0  0
 31 32  1  0  0  0  0
 33 34  1  0  0  0  0
 33 31  2  0  0  0  0
 35 33  1  0  0  0  0
 36 35  1  0  0  0  0
 37 39  1  0  0  0  0
 37 35  2  0  0  0  0
 38 37  1  0  0  0  0
 39 30  2  0  0  0  0
 40 25  1  0  0  0  0
 40 39  1  0  0  0  0
 41  1  1  0  0  0  0
 42 41  1  0  0  0  0
 43 41  1  0  0  0  0
 44 45  1  0  0  0  0
 44  7  1  0  0  0  0
 46 13  1  0  0  0  0
 46 10  1  0  0  0  0
 47 46  1  0  0  0  0
 48 49  1  0  0  0  0
 50 19  2  0  0  0  0
 52 40  2  0  0  0  0
M  END
