1,2,3
q = -1.0, confidence = 0.0

 29 29  0  0  0  0  0  0  0  0999 V2000
    1.9090   -0.2495    0.0242 N   0  0  0  0  0  2  0  0  0  0  0  0
    0.2122    1.7322    0.0843 N   0  0  0  0  0  2  0  0  0  0  0  0
   -2.2310   -0.2384    0.0538 N   0  0  0  0  0  0  0  0  0  0  0  0
    2.9224   -1.1366   -0.0121 C   0  0  0  0  0  3  0  0  0  0  0  0
    2.7201   -2.2143   -0.0149 H   0  0  0  0  0  0  0  0  0  0  0  0
    4.1596   -0.4361   -0.0510 C   0  0  0  0  0  0  0  0  0  0  0  0
    5.1531   -0.8987   -0.0831 H   0  0  0  0  0  0  0  0  0  0  0  0
    3.8641    0.9374   -0.0416 C   0  0  0  0  0  0  0  0  0  0  0  0
    4.5721    1.7744   -0.0633 H   0  0  0  0  0  0  0  0  0  0  0  0
    2.4480    1.0343    0.0066 C   0  0  0  0  0  0  0  0  0  0  0  0
    1.4912    2.0708    0.0371 C   0  0  0  0  0  0  0  0  0  0  0  0
    1.7821    3.1378    0.0199 H   0  0  0  0  0  0  0  0  0  0  0  0
   -0.8236    2.7397    0.1563 C   0  0  0  0  0  0  0  0  0  0  0  0
   -0.4808    3.6736   -0.3433 H   0  0  0  0  0  0  0  0  0  0  0  0
   -1.0222    3.0033    1.2236 H   0  0  0  0  0  0  0  0  0  0  0  0
   -2.1349    2.2681   -0.4714 C   0  0  0  0  0  0  0  0  0  0  0  0
   -1.9742    2.0014   -1.5370 H   0  0  0  0  0  0  0  0  0  0  0  0
   -2.8450    3.1206   -0.4678 H   0  0  0  0  0  0  0  0  0  0  0  0
   -2.7942    1.1200    0.2907 C   0  0  0  0  0  0  0  0  0  0  0  0
   -2.7164    1.3200    1.3791 H   0  0  0  0  0  0  0  0  0  0  0  0
   -3.8816    1.0754    0.0494 H   0  0  0  0  0  0  0  0  0  0  0  0
   -2.6568   -0.7503   -1.2732 C   0  0  0  0  0  0  0  0  0  0  0  0
   -3.7687   -0.8046   -1.3235 H   0  0  0  0  0  0  0  0  0  0  0  0
   -2.2132   -1.7528   -1.4159 H   0  0  0  0  0  0  0  0  0  0  0  0
   -2.2863   -0.0833   -2.0727 H   0  0  0  0  0  0  0  0  0  0  0  0
   -2.7476   -1.1449    1.1108 C   0  0  0  0  0  0  0  0  0  0  0  0
   -2.4004   -0.7885    2.0984 H   0  0  0  0  0  0  0  0  0  0  0  0
   -2.3419   -2.1578    0.9367 H   0  0  0  0  0  0  0  0  0  0  0  0
   -3.8612   -1.1572    1.0912 H   0  0  0  0  0  0  0  0  0  0  0  0
  2 13  1  0  0  0  0
  3 19  1  0  0  0  0
  3 26  1  0  0  0  0
  4  1  1  0  0  0  0
  5  4  1  0  0  0  0
  6  8  2  0  0  0  0
  6  4  1  0  0  0  0
  7  6  1  0  0  0  0
  8 10  1  0  0  0  0
  9  8  1  0  0  0  0
 10  1  1  0  0  0  0
 10 11  2  0  0  0  0
 11  2  1  0  0  0  0
 12 11  1  0  0  0  0
 13 15  1  0  0  0  0
 14 13  1  0  0  0  0
 16 18  1  0  0  0  0
 16 13  1  0  0  0  0
 16 19  1  0  0  0  0
 17 16  1  0  0  0  0
 19 20  1  0  0  0  0
 21 19  1  0  0  0  0
 22  3  1  0  0  0  0
 23 22  1  0  0  0  0
 24 22  1  0  0  0  0
 25 22  1  0  0  0  0
 26 27  1  0  0  0  0
 28 26  1  0  0  0  0
 29 26  1  0  0  0  0
M  END
