5,6,41
q = 0.0, confidence = 0.984

 72 78  0  0  1  0  0  0  0  0999 V2000
   -2.3166   -0.0000   -0.0000 P   0  0  0  0  0  4  0  0  0  0  0  0
    0.0454    0.2998   -1.3577 P   0  0  1  0  0  4  0  0  0  0  0  0
    0.7889    1.6119   -2.0269 O   0  0  0  0  0  0  0  0  0  0  0  0
   -3.2901    1.1845    0.5963 O   0  0  0  0  0  0  0  0  0  0  0  0
    3.0563    0.9501   -1.6726 N   0  0  0  0  0  2  0  0  0  0  0  0
    0.8341    0.0000    0.0000 N   0  0  0  0  0  2  0  0  0  0  0  0
   -1.5273    0.5674   -1.2982 N   0  0  0  0  0  2  0  0  0  0  0  0
   -4.1691    1.9291   -0.1442 C   0  0  0  0  0  0  0  0  0  0  0  0
    0.5125   -0.7755   -2.5343 O   0  0  0  0  0  0  0  0  0  0  0  0
   -0.4560   -2.4314   -1.2553 N   0  0  0  0  0  0  0  0  0  0  0  0
    0.3241   -2.1150   -2.2824 C   0  0  0  0  0  0  0  0  0  0  0  0
    2.1186    1.6537   -2.3467 C   0  0  2  0  0  3  0  0  0  0  0  0
    0.9613   -3.0499   -3.1150 C   0  0  0  0  0  0  0  0  0  0  0  0
    1.6254   -2.7091   -3.9194 H   0  0  0  0  0  0  0  0  0  0  0  0
    4.3440    1.0196   -2.1058 C   0  0  0  0  0  0  0  0  0  0  0  0
    5.0450    0.3745   -1.5609 H   0  0  0  0  0  0  0  0  0  0  0  0
    4.7442    1.8228   -3.1697 C   0  0  0  0  0  0  0  0  0  0  0  0
    5.8023    1.8435   -3.4642 H   0  0  0  0  0  0  0  0  0  0  0  0
    2.4463    2.4889   -3.4312 C   0  0  0  0  0  0  0  0  0  0  0  0
    1.6289    3.0283   -3.9275 H   0  0  0  0  0  0  0  0  0  0  0  0
   -4.5733    3.1609    0.4102 C   0  0  0  0  0  0  0  0  0  0  0  0
   -4.1719    3.4823    1.3810 H   0  0  0  0  0  0  0  0  0  0  0  0
   -4.5927    1.4563   -1.3111 N   0  0  0  0  0  0  0  0  0  0  0  0
   -5.9413    3.4445   -1.5661 C   0  0  0  0  0  0  0  0  0  0  0  0
   -6.6539    4.0194   -2.1748 H   0  0  0  0  0  0  0  0  0  0  0  0
    0.7366   -4.3992   -2.8328 C   0  0  0  0  0  0  0  0  0  0  0  0
    1.2179   -5.1751   -3.4469 H   0  0  0  0  0  0  0  0  0  0  0  0
    3.7753    2.5892   -3.8388 C   0  0  0  0  0  0  0  0  0  0  0  0
    4.0493    3.2405   -4.6819 H   0  0  0  0  0  0  0  0  0  0  0  0
   -0.6564   -3.7321   -0.9829 C   0  0  0  0  0  0  0  0  0  0  0  0
   -1.3001   -3.9494   -0.1132 H   0  0  0  0  0  0  0  0  0  0  0  0
   -0.0879   -4.7565   -1.7483 C   0  0  0  0  0  0  0  0  0  0  0  0
   -0.2739   -5.8104   -1.4969 H   0  0  0  0  0  0  0  0  0  0  0  0
   -5.4824    3.9253   -0.3262 C   0  0  0  0  0  0  0  0  0  0  0  0
   -5.8291    4.8949    0.0627 H   0  0  0  0  0  0  0  0  0  0  0  0
   -5.4623    2.2045   -2.0102 C   0  0  0  0  0  0  0  0  0  0  0  0
   -5.7929    1.7871   -2.9776 H   0  0  0  0  0  0  0  0  0  0  0  0
    0.0454   -0.2998    1.3577 P   0  0  2  0  0  4  0  0  0  0  0  0
    0.7890   -1.6118    2.0270 O   0  0  0  0  0  0  0  0  0  0  0  0
   -3.2901   -1.1846   -0.5963 O   0  0  0  0  0  0  0  0  0  0  0  0
    3.0563   -0.9499    1.6727 N   0  0  0  0  0  2  0  0  0  0  0  0
   -1.5273   -0.5675    1.2982 N   0  0  0  0  0  2  0  0  0  0  0  0
   -4.1691   -1.9293    0.1441 C   0  0  0  0  0  0  0  0  0  0  0  0
    0.5124    0.7755    2.5343 O   0  0  0  0  0  0  0  0  0  0  0  0
   -0.4563    2.4312    1.2553 N   0  0  0  0  0  0  0  0  0  0  0  0
    0.3238    2.1150    2.2824 C   0  0  0  0  0  0  0  0  0  0  0  0
    2.1186   -1.6537    2.3468 C   0  0  2  0  0  3  0  0  0  0  0  0
    0.9610    3.0500    3.1149 C   0  0  0  0  0  0  0  0  0  0  0  0
    1.6251    2.7094    3.9192 H   0  0  0  0  0  0  0  0  0  0  0  0
    4.3440   -1.0194    2.1059 C   0  0  0  0  0  0  0  0  0  0  0  0
    5.0450   -0.3743    1.5611 H   0  0  0  0  0  0  0  0  0  0  0  0
    4.7442   -1.8226    3.1698 C   0  0  0  0  0  0  0  0  0  0  0  0
    5.8023   -1.8433    3.4643 H   0  0  0  0  0  0  0  0  0  0  0  0
    2.4464   -2.4888    3.4313 C   0  0  0  0  0  0  0  0  0  0  0  0
    1.6289   -3.0283    3.9275 H   0  0  0  0  0  0  0  0  0  0  0  0
   -4.5732   -3.1610   -0.4103 C   0  0  0  0  0  0  0  0  0  0  0  0
   -4.1718   -3.4825   -1.3811 H   0  0  0  0  0  0  0  0  0  0  0  0
   -4.5927   -1.4565    1.3111 N   0  0  0  0  0  0  0  0  0  0  0  0
   -5.9412   -3.4446    1.5661 C   0  0  0  0  0  0  0  0  0  0  0  0
   -6.6538   -4.0196    2.1748 H   0  0  0  0  0  0  0  0  0  0  0  0
    0.7361    4.3992    2.8325 C   0  0  0  0  0  0  0  0  0  0  0  0
    1.2173    5.1753    3.4466 H   0  0  0  0  0  0  0  0  0  0  0  0
    3.7754   -2.5890    3.8388 C   0  0  0  0  0  0  0  0  0  0  0  0
    4.0493   -3.2403    4.6820 H   0  0  0  0  0  0  0  0  0  0  0  0
   -0.6568    3.7318    0.9828 C   0  0  0  0  0  0  0  0  0  0  0  0
   -1.3005    3.9490    0.1130 H   0  0  0  0  0  0  0  0  0  0  0  0
   -0.0884    4.7564    1.7481 C   0  0  0  0  0  0  0  0  0  0  0  0
   -0.2746    5.8103    1.4966 H   0  0  0  0  0  0  0  0  0  0  0  0
   -5.4823   -3.9254    0.3262 C   0  0  0  0  0  0  0  0  0  0  0  0
   -5.8289   -4.8951   -0.0627 H   0  0  0  0  0  0  0  0  0  0  0  0
   -5.4623   -2.2046    2.0102 C   0  0  0  0  0  0  0  0  0  0  0  0
   -5.7929   -1.7872    2.9776 H   0  0  0  0  0  0  0  0  0  0  0  0
  1  4  1  0  0  0  0
  1 42  1  0  0  0  0
  2  9  1  6  0  0  0
  2  7  1  0  0  0  0
  2  6  1  0  0  0  0
  3  2  1  0  0  0  0
  6 38  1  0  0  0  0
  7  1  1  0  0  0  0
  8 21  1  0  0  0  0
  8  4  1  0  0  0  0
  9 11  1  0  0  0  0
 10 30  1  0  0  0  0
 11 10  2  0  0  0  0
 12  3  1  1  0  0  0
 12  5  1  0  0  0  0
 13 26  2  0  0  0  0
 13 11  1  0  0  0  0
 14 13  1  0  0  0  0
 15  5  1  0  0  0  0
 15 16  1  0  0  0  0
 17 15  2  0  0  0  0
 18 17  1  0  0  0  0
 19 12  1  0  0  0  0
 20 19  1  0  0  0  0
 21 22  1  0  0  0  0
 23  8  2  0  0  0  0
 24 34  1  0  0  0  0
 25 24  1  0  0  0  0
 26 32  1  0  0  0  0
 27 26  1  0  0  0  0
 28 19  2  0  0  0  0
 28 17  1  0  0  0  0
 29 28  1  0  0  0  0
 30 31  1  0  0  0  0
 32 33  1  0  0  0  0
 32 30  2  0  0  0  0
 34 35  1  0  0  0  0
 34 21  2  0  0  0  0
 36 24  2  0  0  0  0
 36 23  1  0  0  0  0
 37 36  1  0  0  0  0
 38 39  1  1  0  0  0
 38 44  1  0  0  0  0
 40  1  1  0  0  0  0
 40 43  1  0  0  0  0
 41 50  1  0  0  0  0
 41 47  1  0  0  0  0
 42 38  1  0  0  0  0
 43 58  1  0  0  0  0
 45 46  1  0  0  0  0
 46 44  1  0  0  0  0
 46 48  2  0  0  0  0
 47 39  1  6  0  0  0
 47 54  1  0  0  0  0
 48 49  1  0  0  0  0
 50 52  2  0  0  0  0
 51 50  1  0  0  0  0
 52 53  1  0  0  0  0
 52 63  1  0  0  0  0
 54 63  2  0  0  0  0
 54 55  1  0  0  0  0
 56 43  2  0  0  0  0
 56 69  1  0  0  0  0
 57 56  1  0  0  0  0
 58 71  2  0  0  0  0
 59 71  1  0  0  0  0
 59 60  1  0  0  0  0
 61 48  1  0  0  0  0
 61 62  1  0  0  0  0
 63 64  1  0  0  0  0
 65 45  2  0  0  0  0
 65 67  1  0  0  0  0
 66 65  1  0  0  0  0
 67 61  2  0  0  0  0
 68 67  1  0  0  0  0
 69 59  2  0  0  0  0
 70 69  1  0  0  0  0
 71 72  1  0  0  0  0
M  END
