1,2,3
q = -2.0, confidence = 0.932

 23 25  0  0  0  0  0  0  0  0999 V2000
    0.1994   -1.9992    0.1485 N   0  0  0  0  0  2  0  0  0  0  0  0
    1.8751   -0.0000   -0.0000 N   0  0  0  0  0  2  0  0  0  0  0  0
    0.1995    1.9992   -0.1486 N   0  0  0  0  0  0  0  0  0  0  0  0
    1.7627   -3.6215    0.2631 N   0  0  0  0  0  0  0  0  0  0  0  0
    1.7630    3.6214   -0.2630 N   0  0  0  0  0  0  0  0  0  0  0  0
   -0.4705   -3.1928    0.2530 C   0  0  0  0  0  3  0  0  0  0  0  0
   -1.5641   -3.2552    0.2840 H   0  0  0  0  0  0  0  0  0  0  0  0
    0.5175   -4.1828    0.3203 C   0  0  0  0  0  0  0  0  0  0  0  0
    0.3778   -5.2674    0.4102 H   0  0  0  0  0  0  0  0  0  0  0  0
    1.5575   -2.3130    0.1618 C   0  0  0  0  0  0  0  0  0  0  0  0
    2.4959   -1.2070    0.0809 C   0  0  0  0  0  0  0  0  0  0  0  0
    3.9008   -1.2270    0.0816 C   0  0  0  0  0  0  0  0  0  0  0  0
    4.4219   -2.1915    0.1465 H   0  0  0  0  0  0  0  0  0  0  0  0
    4.5840   -0.0001    0.0000 C   0  0  0  0  0  0  0  0  0  0  0  0
    5.6842   -0.0002    0.0000 H   0  0  0  0  0  0  0  0  0  0  0  0
    3.9009    1.2267   -0.0816 C   0  0  0  0  0  0  0  0  0  0  0  0
    4.4220    2.1912   -0.1465 H   0  0  0  0  0  0  0  0  0  0  0  0
    2.4960    1.2069   -0.0809 C   0  0  0  0  0  0  0  0  0  0  0  0
    1.5577    2.3129   -0.1618 C   0  0  0  0  0  3  0  0  0  0  0  0
    0.5178    4.1828   -0.3201 C   0  0  0  0  0  0  0  0  0  0  0  0
    0.3782    5.2674   -0.4099 H   0  0  0  0  0  0  0  0  0  0  0  0
   -0.4703    3.1928   -0.2530 C   0  0  0  0  0  0  0  0  0  0  0  0
   -1.5639    3.2553   -0.2839 H   0  0  0  0  0  0  0  0  0  0  0  0
  1 10  1  0  0  0  0
  1  6  1  0  0  0  0
  2 11  1  0  0  0  0
  4  8  2  0  0  0  0
  5 19  1  0  0  0  0
  6  7  1  0  0  0  0
  6  8  1  0  0  0  0
  8  9  1  0  0  0  0
 10  4  1  0  0  0  0
 11 12  1  0  0  0  0
 11 10  2  0  0  0  0
 12 13  1  0  0  0  0
 14 15  1  0  0  0  0
 14 12  2  0  0  0  0
 16 18  2  0  0  0  0
 16 14  1  0  0  0  0
 17 16  1  0  0  0  0
 18  2  1  0  0  0  0
 19  3  1  0  0  0  0
 19 18  1  0  0  0  0
 20  5  2  0  0  0  0
 20 22  1  0  0  0  0
 21 20  1  0  0  0  0
 22  3  2  0  0  0  0
 23 22  1  0  0  0  0
M  END
