2,9,10
q = -2.0, confidence = 0.936

 63 65  0  0  1  0  0  0  0  0999 V2000
   -2.4186    1.6759   -0.5192 C   0  0  0  0  0  0  0  0  0  0  0  0
   -0.0371    1.9601   -0.5928 N   0  0  0  0  0  2  0  0  0  0  0  0
   -1.2367    2.5583   -0.7959 C   0  0  1  0  0  3  0  0  0  0  0  0
   -1.3193    3.8885   -1.2292 C   0  0  0  0  0  0  0  0  0  0  0  0
   -0.1331    4.6025   -1.4536 C   0  0  0  0  0  0  0  0  0  0  0  0
    1.1018    3.9723   -1.2419 C   0  0  0  0  0  0  0  0  0  0  0  0
    1.1161    2.6393   -0.8091 C   0  0  0  0  0  0  0  0  0  0  0  0
    2.3592    1.8405   -0.5463 C   0  0  0  0  0  0  0  0  0  0  0  0
    2.0023    0.5176   -0.1014 N   0  0  0  0  0  2  0  0  0  0  0  0
   -1.9660    0.3755   -0.0955 N   0  0  0  0  0  2  0  0  0  0  0  0
    3.0977   -0.3659    0.1383 C   0  0  0  0  0  0  0  0  0  0  0  0
    3.6212   -0.5151    1.4551 C   0  0  0  0  0  0  0  0  0  0  0  0
    4.6420   -1.4591    1.6824 C   0  0  0  0  0  0  0  0  0  0  0  0
    5.1590   -2.2299    0.6366 C   0  0  0  0  0  0  0  0  0  0  0  0
    4.6714   -2.0514   -0.6660 C   0  0  0  0  0  0  0  0  0  0  0  0
    3.6521   -1.1231   -0.9415 C   0  0  0  0  0  0  0  0  0  0  0  0
    3.1530   -0.9043   -2.3565 C   0  0  0  0  0  0  0  0  0  0  0  0
    3.2776   -2.0937   -3.3092 C   0  0  0  0  0  0  0  0  0  0  0  0
    3.1582    0.3593    2.6000 C   0  0  0  0  0  0  0  0  0  0  0  0
    4.1760    1.4526    2.9601 C   0  0  0  0  0  0  0  0  0  0  0  0
   -2.9955   -0.5679    0.2002 C   0  0  0  0  0  0  0  0  0  0  0  0
   -3.4831   -1.4389   -0.8199 C   0  0  0  0  0  0  0  0  0  0  0  0
   -4.4305   -2.4243   -0.4836 C   0  0  0  0  0  0  0  0  0  0  0  0
   -4.9122   -2.5522    0.8248 C   0  0  0  0  0  0  0  0  0  0  0  0
   -4.4609   -1.6711    1.8152 C   0  0  0  0  0  0  0  0  0  0  0  0
   -3.5139   -0.6707    1.5261 C   0  0  0  0  0  0  0  0  0  0  0  0
   -3.0441   -1.2996   -2.2615 C   0  0  0  0  0  0  0  0  0  0  0  0
   -4.1243   -0.6767   -3.1592 C   0  0  0  0  0  0  0  0  0  0  0  0
   -3.1048    0.2950    2.6170 C   0  0  0  0  0  0  0  0  0  0  0  0
   -4.1985    1.3213    2.9508 C   0  0  0  0  0  0  0  0  0  0  0  0
   -3.0684    2.1768    0.2444 H   0  0  0  0  0  0  0  0  0  0  0  0
   -3.0550    1.6318   -1.4408 H   0  0  0  0  0  0  0  0  0  0  0  0
   -2.3038    4.3524   -1.3870 H   0  0  0  0  0  0  0  0  0  0  0  0
   -0.1711    5.6482   -1.7938 H   0  0  0  0  0  0  0  0  0  0  0  0
    2.0501    4.5032   -1.4095 H   0  0  0  0  0  0  0  0  0  0  0  0
    2.9801    1.8332   -1.4793 H   0  0  0  0  0  0  0  0  0  0  0  0
    2.9863    2.3904    0.2024 H   0  0  0  0  0  0  0  0  0  0  0  0
    5.0336   -1.5853    2.7049 H   0  0  0  0  0  0  0  0  0  0  0  0
    5.9487   -2.9714    0.8324 H   0  0  0  0  0  0  0  0  0  0  0  0
    5.0917   -2.6526   -1.4856 H   0  0  0  0  0  0  0  0  0  0  0  0
    2.0937   -0.5822   -2.2948 H   0  0  0  0  0  0  0  0  0  0  0  0
    3.6969   -0.0332   -2.7911 H   0  0  0  0  0  0  0  0  0  0  0  0
    2.8191   -1.8552   -4.2897 H   0  0  0  0  0  0  0  0  0  0  0  0
    2.7594   -2.9856   -2.9027 H   0  0  0  0  0  0  0  0  0  0  0  0
    4.3328   -2.3745   -3.5043 H   0  0  0  0  0  0  0  0  0  0  0  0
    2.1873    0.8209    2.3360 H   0  0  0  0  0  0  0  0  0  0  0  0
    2.9722   -0.2751    3.4924 H   0  0  0  0  0  0  0  0  0  0  0  0
    3.8150    2.0745    3.8048 H   0  0  0  0  0  0  0  0  0  0  0  0
    4.3651    2.1259    2.0984 H   0  0  0  0  0  0  0  0  0  0  0  0
    5.1538    1.0174    3.2522 H   0  0  0  0  0  0  0  0  0  0  0  0
   -4.7892   -3.1088   -1.2696 H   0  0  0  0  0  0  0  0  0  0  0  0
   -5.6407   -3.3392    1.0730 H   0  0  0  0  0  0  0  0  0  0  0  0
   -4.8433   -1.7610    2.8450 H   0  0  0  0  0  0  0  0  0  0  0  0
   -2.7745   -2.3016   -2.6574 H   0  0  0  0  0  0  0  0  0  0  0  0
   -2.1201   -0.6905   -2.3017 H   0  0  0  0  0  0  0  0  0  0  0  0
   -4.4029    0.3393   -2.8104 H   0  0  0  0  0  0  0  0  0  0  0  0
   -5.0522   -1.2847   -3.1598 H   0  0  0  0  0  0  0  0  0  0  0  0
   -3.7740   -0.5918   -4.2083 H   0  0  0  0  0  0  0  0  0  0  0  0
   -2.8526   -0.2791    3.5337 H   0  0  0  0  0  0  0  0  0  0  0  0
   -2.1761    0.8150    2.3113 H   0  0  0  0  0  0  0  0  0  0  0  0
   -5.1309    0.8253    3.2902 H   0  0  0  0  0  0  0  0  0  0  0  0
   -4.4622    1.9341    2.0639 H   0  0  0  0  0  0  0  0  0  0  0  0
   -3.8694    2.0110    3.7548 H   0  0  0  0  0  0  0  0  0  0  0  0
  1 10  1  0  0  0  0
  1 31  1  0  0  0  0
  3  2  1  0  0  0  0
  3  1  1  6  0  0  0
  4  3  1  0  0  0  0
  5  6  1  0  0  0  0
  5  4  2  0  0  0  0
  6  7  2  0  0  0  0
  7  2  1  0  0  0  0
  7  8  1  0  0  0  0
  8  9  1  0  0  0  0
  8 37  1  0  0  0  0
  9 11  1  0  0  0  0
 10 21  1  0  0  0  0
 11 12  1  0  0  0  0
 12 13  2  0  0  0  0
 12 19  1  0  0  0  0
 13 38  1  0  0  0  0
 14 39  1  0  0  0  0
 14 13  1  0  0  0  0
 15 14  2  0  0  0  0
 16 15  1  0  0  0  0
 16 11  2  0  0  0  0
 17 41  1  0  0  0  0
 17 16  1  0  0  0  0
 18 44  1  0  0  0  0
 18 17  1  0  0  0  0
 19 20  1  0  0  0  0
 19 47  1  0  0  0  0
 20 50  1  0  0  0  0
 20 48  1  0  0  0  0
 21 26  1  0  0  0  0
 22 23  1  0  0  0  0
 22 21  2  0  0  0  0
 23 24  2  0  0  0  0
 24 52  1  0  0  0  0
 24 25  1  0  0  0  0
 25 53  1  0  0  0  0
 26 25  2  0  0  0  0
 26 29  1  0  0  0  0
 27 22  1  0  0  0  0
 28 56  1  0  0  0  0
 28 27  1  0  0  0  0
 29 30  1  0  0  0  0
 29 59  1  0  0  0  0
 30 61  1  0  0  0  0
 30 63  1  0  0  0  0
 32  1  1  0  0  0  0
 33  4  1  0  0  0  0
 34  5  1  0  0  0  0
 35  6  1  0  0  0  0
 36  8  1  0  0  0  0
 40 15  1  0  0  0  0
 42 17  1  0  0  0  0
 43 18  1  0  0  0  0
 45 18  1  0  0  0  0
 46 19  1  0  0  0  0
 49 20  1  0  0  0  0
 51 23  1  0  0  0  0
 54 27  1  0  0  0  0
 55 27  1  0  0  0  0
 57 28  1  0  0  0  0
 58 28  1  0  0  0  0
 60 29  1  0  0  0  0
 62 30  1  0  0  0  0
M  END
