4,6,8
q = -1.0, confidence = 0.004

 56 61  0  0  1  0  0  0  0  0999 V2000
    4.7508   -1.9964   -1.4302 S   0  0  0  0  0  0  0  0  0  0  0  0
   -5.5054    0.3403   -0.6091 S   0  0  0  0  0  0  0  0  0  0  0  0
    2.5277    4.2534    1.5543 S   0  0  0  0  0  0  0  0  0  0  0  0
    1.1463   -1.5646    0.1195 N   0  0  0  0  0  2  0  0  0  0  0  0
    0.8331   -2.0623    1.3484 N   0  0  0  0  0  0  0  0  0  0  0  0
   -1.8981   -0.8928    0.4028 N   0  0  0  0  0  2  0  0  0  0  0  0
   -1.6354   -1.4490    1.6173 N   0  0  0  0  0  0  0  0  0  0  0  0
    0.2950    0.9632    1.3765 N   0  0  0  0  0  2  0  0  0  0  0  0
    0.1841    0.1117    2.4352 N   0  0  0  0  0  0  0  0  0  0  0  0
    1.6343   -3.7729    3.0278 C   0  0  0  0  0  0  0  0  0  0  0  0
    1.8008   -3.1060    3.8999 H   0  0  0  0  0  0  0  0  0  0  0  0
    2.4056   -4.5662    3.0546 H   0  0  0  0  0  0  0  0  0  0  0  0
    0.6433   -4.2501    3.1738 H   0  0  0  0  0  0  0  0  0  0  0  0
    1.7174   -3.0363    1.7295 C   0  0  1  0  0  3  0  0  0  0  0  0
    2.6420   -3.1711    0.6973 C   0  0  0  0  0  0  0  0  0  0  0  0
    3.4802   -3.8734    0.6427 H   0  0  0  0  0  0  0  0  0  0  0  0
    2.2572   -2.2288   -0.2955 C   0  0  0  0  0  0  0  0  0  0  0  0
    2.9946   -1.9729   -1.5302 C   0  0  0  0  0  0  0  0  0  0  0  0
    2.5926   -1.7176   -2.8329 C   0  0  0  0  0  0  0  0  0  0  0  0
    1.5403   -1.6640   -3.1314 H   0  0  0  0  0  0  0  0  0  0  0  0
    3.6860   -1.5479   -3.7326 C   0  0  0  0  0  0  0  0  0  0  0  0
    3.5612   -1.3311   -4.8028 H   0  0  0  0  0  0  0  0  0  0  0  0
    4.9198   -1.6793   -3.1228 C   0  0  0  0  0  0  0  0  0  0  0  0
    5.9173   -1.5901   -3.5699 H   0  0  0  0  0  0  0  0  0  0  0  0
   -2.8134   -2.5475    3.5649 C   0  0  0  0  0  0  0  0  0  0  0  0
   -2.1623   -3.4450    3.6091 H   0  0  0  0  0  0  0  0  0  0  0  0
   -3.8483   -2.8617    3.8000 H   0  0  0  0  0  0  0  0  0  0  0  0
   -2.4724   -1.8641    4.3708 H   0  0  0  0  0  0  0  0  0  0  0  0
   -2.7815   -1.8937    2.2208 C   0  0  2  0  0  3  0  0  0  0  0  0
   -3.8310   -1.6157    1.3492 C   0  0  0  0  0  0  0  0  0  0  0  0
   -4.8908   -1.8539    1.4864 H   0  0  0  0  0  0  0  0  0  0  0  0
   -3.2422   -0.9885    0.2178 C   0  0  0  0  0  0  0  0  0  0  0  0
   -3.9846   -0.4796   -0.9325 C   0  0  0  0  0  0  0  0  0  0  0  0
   -3.7478   -0.5298   -2.2983 C   0  0  0  0  0  0  0  0  0  0  0  0
   -2.8549   -0.9922   -2.7330 H   0  0  0  0  0  0  0  0  0  0  0  0
   -4.7801    0.0835   -3.0674 C   0  0  0  0  0  0  0  0  0  0  0  0
   -4.7607    0.1489   -4.1643 H   0  0  0  0  0  0  0  0  0  0  0  0
   -5.8065    0.5934   -2.2939 C   0  0  0  0  0  0  0  0  0  0  0  0
   -6.7124    1.1191   -2.6193 H   0  0  0  0  0  0  0  0  0  0  0  0
    0.6211    0.0200    4.9226 C   0  0  0  0  0  0  0  0  0  0  0  0
   -0.3884   -0.3403    5.2098 H   0  0  0  0  0  0  0  0  0  0  0  0
    0.9677    0.7268    5.7005 H   0  0  0  0  0  0  0  0  0  0  0  0
    1.2940   -0.8628    4.9395 H   0  0  0  0  0  0  0  0  0  0  0  0
    0.6186    0.7013    3.5916 C   0  0  2  0  0  3  0  0  0  0  0  0
    1.0232    1.9928    3.2637 C   0  0  0  0  0  0  0  0  0  0  0  0
    1.4021    2.7627    3.9438 H   0  0  0  0  0  0  0  0  0  0  0  0
    0.8076    2.1231    1.8647 C   0  0  0  0  0  0  0  0  0  0  0  0
    1.1270    3.3059    1.0726 C   0  0  0  0  0  0  0  0  0  0  0  0
    0.5144    3.8819   -0.0309 C   0  0  0  0  0  0  0  0  0  0  0  0
   -0.3776    3.4577   -0.5038 H   0  0  0  0  0  0  0  0  0  0  0  0
    1.1647    5.0709   -0.4742 C   0  0  0  0  0  0  0  0  0  0  0  0
    0.8267    5.6593   -1.3386 H   0  0  0  0  0  0  0  0  0  0  0  0
    2.2668    5.4065    0.2902 C   0  0  0  0  0  0  0  0  0  0  0  0
    2.9503    6.2559    0.1708 H   0  0  0  0  0  0  0  0  0  0  0  0
   -0.2276   -1.3678    2.2294 B   0  0  2  0  0  0  0  0  0  0  0  0
   -0.2470   -1.9179    3.3137 H   0  0  0  0  0  0  0  0  0  0  0  0
  4  5  1  0  0  0  0
  5 14  1  0  0  0  0
  5 55  1  0  0  0  0
  6  7  1  0  0  0  0
  7 29  1  0  0  0  0
  7 55  1  0  0  0  0
  8 47  1  0  0  0  0
  8  9  1  0  0  0  0
  9 44  1  0  0  0  0
 10 12  1  0  0  0  0
 10 13  1  0  0  0  0
 10 11  1  0  0  0  0
 14 10  1  6  0  0  0
 15 14  1  0  0  0  0
 16 15  1  0  0  0  0
 17  4  1  0  0  0  0
 17 15  2  0  0  0  0
 18  1  1  0  0  0  0
 18 17  1  0  0  0  0
 19 18  2  0  0  0  0
 20 19  1  0  0  0  0
 21 23  2  0  0  0  0
 21 19  1  0  0  0  0
 22 21  1  0  0  0  0
 23  1  1  0  0  0  0
 24 23  1  0  0  0  0
 25 26  1  0  0  0  0
 25 27  1  0  0  0  0
 25 28  1  0  0  0  0
 29 25  1  6  0  0  0
 30 31  1  0  0  0  0
 30 29  1  0  0  0  0
 32  6  1  0  0  0  0
 32 30  2  0  0  0  0
 33  2  1  0  0  0  0
 33 32  1  0  0  0  0
 34 33  2  0  0  0  0
 35 34  1  0  0  0  0
 36 34  1  0  0  0  0
 36 38  2  0  0  0  0
 37 36  1  0  0  0  0
 38  2  1  0  0  0  0
 39 38  1  0  0  0  0
 40 43  1  0  0  0  0
 40 41  1  0  0  0  0
 40 42  1  0  0  0  0
 44 40  1  1  0  0  0
 45 44  1  0  0  0  0
 45 46  1  0  0  0  0
 47 45  2  0  0  0  0
 48  3  1  0  0  0  0
 48 47  1  0  0  0  0
 49 48  2  0  0  0  0
 50 49  1  0  0  0  0
 51 49  1  0  0  0  0
 51 53  2  0  0  0  0
 52 51  1  0  0  0  0
 53  3  1  0  0  0  0
 54 53  1  0  0  0  0
 55  9  1  0  0  0  0
 55 56  1  1  0  0  0
M  END
