1,4,5
q = 0.0, confidence = 0.996

 28 29  0  0  1  0  0  0  0  0999 V2000
    1.9882   -0.1546    0.1646 N   0  0  0  0  0  2  0  0  0  0  0  0
    1.1138    1.9753    0.4614 N   0  0  0  0  0  0  0  0  0  0  0  0
    1.1702    2.9811    0.2768 H   0  0  0  0  0  0  0  0  0  0  0  0
   -0.0757    1.3404    0.3626 N   0  0  0  0  0  2  0  0  0  0  0  0
   -1.9197   -0.3324    0.0635 N   0  0  0  0  0  2  0  0  0  0  0  0
   -1.2109    1.9444    0.0840 C   0  0  0  0  0  0  0  0  0  0  0  0
   -3.6629    1.3502   -0.1804 C   0  0  0  0  0  0  0  0  0  0  0  0
   -3.9416    2.4119   -0.2361 H   0  0  0  0  0  0  0  0  0  0  0  0
    3.5228    1.7230    0.1255 C   0  0  0  0  0  0  0  0  0  0  0  0
    3.6765    2.8089    0.2042 H   0  0  0  0  0  0  0  0  0  0  0  0
    2.2311    1.1812    0.2410 C   0  0  1  0  0  3  0  0  0  0  0  0
   -2.3079    0.9941   -0.0312 C   0  0  0  0  0  0  0  0  0  0  0  0
    4.3450   -0.5297   -0.1900 C   0  0  0  0  0  0  0  0  0  0  0  0
    5.1560   -1.2496   -0.3647 H   0  0  0  0  0  0  0  0  0  0  0  0
   -2.8819   -1.2826    0.0012 C   0  0  0  0  0  0  0  0  0  0  0  0
   -2.5302   -2.3220    0.0677 H   0  0  0  0  0  0  0  0  0  0  0  0
   -4.2371   -0.9885   -0.1571 C   0  0  0  0  0  0  0  0  0  0  0  0
   -4.9633   -1.8117   -0.2123 H   0  0  0  0  0  0  0  0  0  0  0  0
   -4.6421    0.3564   -0.2511 C   0  0  0  0  0  0  0  0  0  0  0  0
   -5.7019    0.6222   -0.3743 H   0  0  0  0  0  0  0  0  0  0  0  0
   -1.3281    3.4281   -0.0846 C   0  0  0  0  0  0  0  0  0  0  0  0
   -1.2019    3.9704    0.8780 H   0  0  0  0  0  0  0  0  0  0  0  0
   -2.3090    3.7145   -0.5027 H   0  0  0  0  0  0  0  0  0  0  0  0
   -0.5574    3.8057   -0.7918 H   0  0  0  0  0  0  0  0  0  0  0  0
    3.0279   -0.9855   -0.0505 C   0  0  0  0  0  0  0  0  0  0  0  0
    2.7766   -2.0547   -0.0996 H   0  0  0  0  0  0  0  0  0  0  0  0
    4.5930    0.8477   -0.0948 C   0  0  0  0  0  0  0  0  0  0  0  0
    5.6144    1.2438   -0.1925 H   0  0  0  0  0  0  0  0  0  0  0  0
  1 11  1  0  0  0  0
  3  2  1  0  0  0  0
  4  2  1  0  0  0  0
  6  4  1  0  0  0  0
  7 12  1  0  0  0  0
  8  7  1  0  0  0  0
  9 10  1  0  0  0  0
  9 11  1  0  0  0  0
 11  2  1  1  0  0  0
 12  5  1  0  0  0  0
 12  6  2  0  0  0  0
 13 27  1  0  0  0  0
 13 25  2  0  0  0  0
 14 13  1  0  0  0  0
 15  5  1  0  0  0  0
 15 16  1  0  0  0  0
 17 15  2  0  0  0  0
 18 17  1  0  0  0  0
 19  7  2  0  0  0  0
 19 17  1  0  0  0  0
 20 19  1  0  0  0  0
 21  6  1  0  0  0  0
 21 22  1  0  0  0  0
 23 21  1  0  0  0  0
 24 21  1  0  0  0  0
 25  1  1  0  0  0  0
 26 25  1  0  0  0  0
 27  9  2  0  0  0  0
 28 27  1  0  0  0  0
M  END
