1,3,5
q = 0.0, confidence = 0.998

 62 64  0  0  0  0  0  0  0  0999 V2000
    0.9487   -1.5219   -1.1785 N   0  0  0  0  0  2  0  0  0  0  0  0
    2.2200   -1.2085   -1.5194 N   0  0  0  0  0  0  0  0  0  0  0  0
    1.9497   -0.0001    1.2463 N   0  0  0  0  0  2  0  0  0  0  0  0
    3.0173   -0.0008    0.4131 N   0  0  0  0  0  0  0  0  0  0  0  0
    0.9496    1.5207   -1.1795 N   0  0  0  0  0  2  0  0  0  0  0  0
    2.2208    1.2063   -1.5201 N   0  0  0  0  0  0  0  0  0  0  0  0
    2.8611   -0.0012   -1.0303 C   0  0  0  0  0  0  0  0  0  0  0  0
    2.7682   -2.1418   -2.3611 C   0  0  0  0  0  3  0  0  0  0  0  0
    1.7917   -3.1044   -2.5667 C   0  0  0  0  0  0  0  0  0  0  0  0
    0.6636   -2.6771   -1.8063 C   0  0  0  0  0  0  0  0  0  0  0  0
   -0.6980   -3.3410   -1.6635 C   0  0  0  0  0  0  0  0  0  0  0  0
   -1.7841   -2.3914   -2.2185 C   0  0  0  0  0  0  0  0  0  0  0  0
   -0.9690   -3.6395   -0.1722 C   0  0  0  0  0  0  0  0  0  0  0  0
   -0.7202   -4.6582   -2.4587 C   0  0  0  0  0  0  0  0  0  0  0  0
    4.2001   -0.0011    1.1051 C   0  0  0  0  0  3  0  0  0  0  0  0
    3.8686   -0.0006    2.4512 C   0  0  0  0  0  0  0  0  0  0  0  0
    2.4442    0.0001    2.4980 C   0  0  0  0  0  0  0  0  0  0  0  0
    1.5289    0.0008    3.7126 C   0  0  0  0  0  0  0  0  0  0  0  0
    2.3733    0.0010    4.9990 C   0  0  0  0  0  0  0  0  0  0  0  0
    0.6439    1.2671    3.6809 C   0  0  0  0  0  0  0  0  0  0  0  0
    0.6430   -1.2649    3.6818 C   0  0  0  0  0  0  0  0  0  0  0  0
    2.7698    2.1389   -2.3621 C   0  0  0  0  0  3  0  0  0  0  0  0
    1.7939    3.1021   -2.5682 C   0  0  0  0  0  0  0  0  0  0  0  0
    0.6654    2.6758   -1.8078 C   0  0  0  0  0  0  0  0  0  0  0  0
   -0.6958    3.3407   -1.6654 C   0  0  0  0  0  0  0  0  0  0  0  0
   -0.7172    4.6574   -2.4613 C   0  0  0  0  0  0  0  0  0  0  0  0
   -0.9665    3.6403   -0.1743 C   0  0  0  0  0  0  0  0  0  0  0  0
   -1.7825    2.3914   -2.2197 C   0  0  0  0  0  0  0  0  0  0  0  0
    3.8823   -0.0016   -1.4506 H   0  0  0  0  0  0  0  0  0  0  0  0
    3.7926   -2.0479   -2.7392 H   0  0  0  0  0  0  0  0  0  0  0  0
    1.8801   -4.0018   -3.1848 H   0  0  0  0  0  0  0  0  0  0  0  0
   -1.6128   -2.1721   -3.2913 H   0  0  0  0  0  0  0  0  0  0  0  0
   -1.7955   -1.4286   -1.6701 H   0  0  0  0  0  0  0  0  0  0  0  0
   -2.7850   -2.8586   -2.1181 H   0  0  0  0  0  0  0  0  0  0  0  0
   -1.9611   -4.1207   -0.0547 H   0  0  0  0  0  0  0  0  0  0  0  0
   -0.9633   -2.7114    0.4337 H   0  0  0  0  0  0  0  0  0  0  0  0
   -0.2033   -4.3241    0.2441 H   0  0  0  0  0  0  0  0  0  0  0  0
   -0.5454   -4.4868   -3.5398 H   0  0  0  0  0  0  0  0  0  0  0  0
   -1.7096   -5.1451   -2.3537 H   0  0  0  0  0  0  0  0  0  0  0  0
    0.0444   -5.3709   -2.0897 H   0  0  0  0  0  0  0  0  0  0  0  0
    5.1682   -0.0017    0.5914 H   0  0  0  0  0  0  0  0  0  0  0  0
    4.5639   -0.0006    3.2948 H   0  0  0  0  0  0  0  0  0  0  0  0
    1.7087    0.0015    5.8850 H   0  0  0  0  0  0  0  0  0  0  0  0
    3.0186    0.9000    5.0646 H   0  0  0  0  0  0  0  0  0  0  0  0
    3.0181   -0.8983    5.0652 H   0  0  0  0  0  0  0  0  0  0  0  0
   -0.0297    1.2823    4.5612 H   0  0  0  0  0  0  0  0  0  0  0  0
    0.0154    1.2972    2.7677 H   0  0  0  0  0  0  0  0  0  0  0  0
    1.2612    2.1873    3.7026 H   0  0  0  0  0  0  0  0  0  0  0  0
   -0.0306   -1.2790    4.5621 H   0  0  0  0  0  0  0  0  0  0  0  0
    1.2598   -2.1855    3.7043 H   0  0  0  0  0  0  0  0  0  0  0  0
    0.0147   -1.2953    2.7686 H   0  0  0  0  0  0  0  0  0  0  0  0
    3.7942    2.0443   -2.7399 H   0  0  0  0  0  0  0  0  0  0  0  0
    1.8829    3.9991   -3.1866 H   0  0  0  0  0  0  0  0  0  0  0  0
   -1.7063    5.1449   -2.3567 H   0  0  0  0  0  0  0  0  0  0  0  0
   -0.5424    4.4851   -3.5424 H   0  0  0  0  0  0  0  0  0  0  0  0
    0.0478    5.3699   -2.0928 H   0  0  0  0  0  0  0  0  0  0  0  0
   -1.9583    4.1221   -0.0569 H   0  0  0  0  0  0  0  0  0  0  0  0
   -0.2004    4.3246    0.2416 H   0  0  0  0  0  0  0  0  0  0  0  0
   -0.9614    2.7125    0.4323 H   0  0  0  0  0  0  0  0  0  0  0  0
   -2.7831    2.8593   -2.1195 H   0  0  0  0  0  0  0  0  0  0  0  0
   -1.7946    1.4290   -1.6708 H   0  0  0  0  0  0  0  0  0  0  0  0
   -1.6114    2.1713   -3.2924 H   0  0  0  0  0  0  0  0  0  0  0  0
  2  1  1  0  0  0  0
  2  7  1  0  0  0  0
  3 17  1  0  0  0  0
  4 15  1  0  0  0  0
  4  3  1  0  0  0  0
  6  5  1  0  0  0  0
  6  7  1  0  0  0  0
  7  4  1  0  0  0  0
  8  2  1  0  0  0  0
  9  8  1  0  0  0  0
  9 10  2  0  0  0  0
 10 11  1  0  0  0  0
 10  1  1  0  0  0  0
 11 13  1  0  0  0  0
 12 34  1  0  0  0  0
 12 33  1  0  0  0  0
 12 11  1  0  0  0  0
 13 35  1  0  0  0  0
 13 37  1  0  0  0  0
 13 36  1  0  0  0  0
 14 39  1  0  0  0  0
 14 40  1  0  0  0  0
 14 11  1  0  0  0  0
 15 16  1  0  0  0  0
 16 17  2  0  0  0  0
 16 42  1  0  0  0  0
 17 18  1  0  0  0  0
 18 19  1  0  0  0  0
 19 44  1  0  0  0  0
 19 45  1  0  0  0  0
 19 43  1  0  0  0  0
 20 48  1  0  0  0  0
 20 18  1  0  0  0  0
 20 46  1  0  0  0  0
 21 50  1  0  0  0  0
 21 18  1  0  0  0  0
 21 49  1  0  0  0  0
 22  6  1  0  0  0  0
 23 22  1  0  0  0  0
 23 24  2  0  0  0  0
 24 25  1  0  0  0  0
 24  5  1  0  0  0  0
 25 27  1  0  0  0  0
 26 54  1  0  0  0  0
 26 56  1  0  0  0  0
 26 25  1  0  0  0  0
 27 57  1  0  0  0  0
 27 58  1  0  0  0  0
 27 59  1  0  0  0  0
 28 60  1  0  0  0  0
 28 61  1  0  0  0  0
 28 25  1  0  0  0  0
 29  7  1  0  0  0  0
 30  8  1  0  0  0  0
 31  9  1  0  0  0  0
 32 12  1  0  0  0  0
 38 14  1  0  0  0  0
 41 15  1  0  0  0  0
 47 20  1  0  0  0  0
 51 21  1  0  0  0  0
 52 22  1  0  0  0  0
 53 23  1  0  0  0  0
 55 26  1  0  0  0  0
 62 28  1  0  0  0  0
M  END
