1,2,3
q = 0.0, confidence = 0.946

 41 41  0  0  1  0  0  0  0  0999 V2000
   -0.0000    1.4055    0.0430 N   0  0  0  0  0  2  0  0  0  0  0  0
   -2.0084   -0.1319    0.0861 N   0  0  0  0  0  2  0  0  0  0  0  0
    2.0084   -0.1319    0.0861 N   0  0  0  0  0  2  0  0  0  0  0  0
   -1.2044    2.0760   -0.0097 C   0  0  0  0  0  0  0  0  0  0  0  0
   -1.2155    3.4802   -0.0927 C   0  0  0  0  0  0  0  0  0  0  0  0
    0.0000    4.1817   -0.1286 C   0  0  0  0  0  0  0  0  0  0  0  0
    1.2155    3.4802   -0.0927 C   0  0  0  0  0  0  0  0  0  0  0  0
    1.2044    2.0759   -0.0097 C   0  0  0  0  0  0  0  0  0  0  0  0
   -2.3339    1.1591    0.0440 C   0  0  0  0  0  0  0  0  0  0  0  0
   -3.0836   -1.1337    0.2357 C   0  0  0  0  0  0  0  0  0  0  0  0
   -3.2997   -1.8702   -1.0926 C   0  0  0  0  0  0  0  0  0  0  0  0
   -2.7672   -2.0785    1.4001 C   0  0  0  0  0  0  0  0  0  0  0  0
    2.3338    1.1590    0.0440 C   0  0  1  0  0  3  0  0  0  0  0  0
   -3.7454    1.6809    0.0727 C   0  0  0  0  0  0  0  0  0  0  0  0
    3.0836   -1.1337    0.2357 C   0  0  0  0  0  0  0  0  0  0  0  0
    2.7672   -2.0787    1.4000 C   0  0  0  0  0  0  0  0  0  0  0  0
    3.3002   -1.8700   -1.0926 C   0  0  0  0  0  0  0  0  0  0  0  0
    3.7454    1.6808    0.0728 C   0  0  0  0  0  0  0  0  0  0  0  0
   -2.1699    4.0221   -0.1322 H   0  0  0  0  0  0  0  0  0  0  0  0
    0.0001    5.2790   -0.1932 H   0  0  0  0  0  0  0  0  0  0  0  0
    2.1700    4.0220   -0.1322 H   0  0  0  0  0  0  0  0  0  0  0  0
   -4.0239   -0.6018    0.4901 H   0  0  0  0  0  0  0  0  0  0  0  0
   -4.1449   -2.5806   -0.9917 H   0  0  0  0  0  0  0  0  0  0  0  0
   -2.3856   -2.4318   -1.3662 H   0  0  0  0  0  0  0  0  0  0  0  0
   -3.5394   -1.1575   -1.9076 H   0  0  0  0  0  0  0  0  0  0  0  0
   -3.6249   -2.7629    1.5603 H   0  0  0  0  0  0  0  0  0  0  0  0
   -2.5968   -1.5081    2.3349 H   0  0  0  0  0  0  0  0  0  0  0  0
   -1.8635   -2.6776    1.1783 H   0  0  0  0  0  0  0  0  0  0  0  0
   -4.3798    1.1887   -0.6909 H   0  0  0  0  0  0  0  0  0  0  0  0
   -3.7700    2.7672   -0.1241 H   0  0  0  0  0  0  0  0  0  0  0  0
   -4.2258    1.5132    1.0597 H   0  0  0  0  0  0  0  0  0  0  0  0
    4.0238   -0.6017    0.4904 H   0  0  0  0  0  0  0  0  0  0  0  0
    3.6250   -2.7629    1.5603 H   0  0  0  0  0  0  0  0  0  0  0  0
    1.8637   -2.6779    1.1780 H   0  0  0  0  0  0  0  0  0  0  0  0
    2.5965   -1.5084    2.3348 H   0  0  0  0  0  0  0  0  0  0  0  0
    4.1456   -2.5802   -0.9917 H   0  0  0  0  0  0  0  0  0  0  0  0
    3.5399   -1.1572   -1.9075 H   0  0  0  0  0  0  0  0  0  0  0  0
    2.3863   -2.4318   -1.3665 H   0  0  0  0  0  0  0  0  0  0  0  0
    4.2257    1.5130    1.0598 H   0  0  0  0  0  0  0  0  0  0  0  0
    3.7700    2.7670   -0.1240 H   0  0  0  0  0  0  0  0  0  0  0  0
    4.3798    1.1886   -0.6908 H   0  0  0  0  0  0  0  0  0  0  0  0
  2 10  1  0  0  0  0
  3 15  1  0  0  0  0
  4  1  1  0  0  0  0
  4  9  2  0  0  0  0
  5  4  1  0  0  0  0
  6  5  2  0  0  0  0
  6  7  1  0  0  0  0
  7  8  2  0  0  0  0
  8  1  1  0  0  0  0
  8 13  1  0  0  0  0
  9 14  1  0  0  0  0
  9  2  1  0  0  0  0
 10 22  1  0  0  0  0
 10 12  1  0  0  0  0
 11 23  1  0  0  0  0
 11 10  1  0  0  0  0
 12 26  1  0  0  0  0
 12 27  1  0  0  0  0
 13 18  1  0  0  0  0
 13  3  1  1  0  0  0
 14 31  1  0  0  0  0
 15 32  1  0  0  0  0
 15 16  1  0  0  0  0
 16 33  1  0  0  0  0
 16 35  1  0  0  0  0
 17 36  1  0  0  0  0
 17 15  1  0  0  0  0
 18 39  1  0  0  0  0
 19  5  1  0  0  0  0
 20  6  1  0  0  0  0
 21  7  1  0  0  0  0
 24 11  1  0  0  0  0
 25 11  1  0  0  0  0
 28 12  1  0  0  0  0
 29 14  1  0  0  0  0
 30 14  1  0  0  0  0
 34 16  1  0  0  0  0
 37 17  1  0  0  0  0
 38 17  1  0  0  0  0
 40 18  1  0  0  0  0
 41 18  1  0  0  0  0
M  END
