1,2,3
q = 0.0, confidence = 0.98

 77 78  0  0  1  0  0  0  0  0999 V2000
   -2.1855    0.3250   -0.0824 N   0  0  0  0  0  2  0  0  0  0  0  0
   -0.5065    2.3238   -0.1118 N   0  0  0  0  0  2  0  0  0  0  0  0
    1.8219    1.4991    0.7274 N   0  0  0  0  0  2  0  0  0  0  0  0
    4.3193   -1.0020   -0.2175 N   0  0  0  0  0  0  0  0  0  0  0  0
   -4.0874    1.6092   -1.0252 C   0  0  0  0  0  0  0  0  0  0  0  0
   -4.6972    0.7190   -0.7871 H   0  0  0  0  0  0  0  0  0  0  0  0
   -4.0974    1.7528   -2.1266 H   0  0  0  0  0  0  0  0  0  0  0  0
   -4.5531    2.5069   -0.5720 H   0  0  0  0  0  0  0  0  0  0  0  0
   -2.6752    1.4255   -0.5514 C   0  0  0  0  0  0  0  0  0  0  0  0
   -1.7253    2.5828   -0.6017 C   0  0  0  0  0  0  0  0  0  0  0  0
   -2.0478    3.8629   -1.0916 C   0  0  0  0  0  0  0  0  0  0  0  0
   -3.0432    4.0800   -1.5013 H   0  0  0  0  0  0  0  0  0  0  0  0
   -1.0565    4.8578   -1.0457 C   0  0  0  0  0  0  0  0  0  0  0  0
   -1.2751    5.8688   -1.4204 H   0  0  0  0  0  0  0  0  0  0  0  0
    0.2119    4.5613   -0.5317 C   0  0  0  0  0  0  0  0  0  0  0  0
    0.9953    5.3306   -0.5014 H   0  0  0  0  0  0  0  0  0  0  0  0
    0.4676    3.2490   -0.0727 C   0  0  0  0  0  0  0  0  0  0  0  0
    1.7773    2.7659    0.4432 C   0  0  2  0  0  3  0  0  0  0  0  0
    2.9184    3.7394    0.5639 C   0  0  0  0  0  0  0  0  0  0  0  0
    3.7861    3.2845    1.0752 H   0  0  0  0  0  0  0  0  0  0  0  0
    2.6179    4.6456    1.1285 H   0  0  0  0  0  0  0  0  0  0  0  0
    3.2555    4.0755   -0.4391 H   0  0  0  0  0  0  0  0  0  0  0  0
    2.9931    0.7718    1.0878 C   0  0  0  0  0  0  0  0  0  0  0  0
    2.6627   -0.1312    1.6367 H   0  0  0  0  0  0  0  0  0  0  0  0
    3.6989    1.3505    1.7229 H   0  0  0  0  0  0  0  0  0  0  0  0
    3.7385    0.2921   -0.2531 C   0  0  0  0  0  0  0  0  0  0  0  0
    2.9688    0.3268   -1.0521 H   0  0  0  0  0  0  0  0  0  0  0  0
    4.5004    1.0638   -0.4952 H   0  0  0  0  0  0  0  0  0  0  0  0
    5.6618   -1.2128    0.3138 C   0  0  0  0  0  0  0  0  0  0  0  0
    5.8504   -2.3025    0.2168 H   0  0  0  0  0  0  0  0  0  0  0  0
    6.7331   -0.5002   -0.5283 C   0  0  0  0  0  0  0  0  0  0  0  0
    6.6501   -0.7926   -1.5935 H   0  0  0  0  0  0  0  0  0  0  0  0
    7.7515   -0.7534   -0.1698 H   0  0  0  0  0  0  0  0  0  0  0  0
    6.6310    0.6037   -0.4678 H   0  0  0  0  0  0  0  0  0  0  0  0
    5.8001   -0.8599    1.8072 C   0  0  0  0  0  0  0  0  0  0  0  0
    5.0273   -1.3738    2.4109 H   0  0  0  0  0  0  0  0  0  0  0  0
    5.6941    0.2326    1.9716 H   0  0  0  0  0  0  0  0  0  0  0  0
    6.7975   -1.1544    2.1937 H   0  0  0  0  0  0  0  0  0  0  0  0
    3.4511   -2.1573   -0.4996 C   0  0  0  0  0  0  0  0  0  0  0  0
    2.4440   -1.7307   -0.6875 H   0  0  0  0  0  0  0  0  0  0  0  0
    3.8929   -2.8727   -1.7856 C   0  0  0  0  0  0  0  0  0  0  0  0
    3.8994   -2.1651   -2.6380 H   0  0  0  0  0  0  0  0  0  0  0  0
    3.1999   -3.7029   -2.0312 H   0  0  0  0  0  0  0  0  0  0  0  0
    4.9113   -3.3049   -1.6819 H   0  0  0  0  0  0  0  0  0  0  0  0
    3.3097   -3.1303    0.6796 C   0  0  0  0  0  0  0  0  0  0  0  0
    2.8981   -2.6193    1.5709 H   0  0  0  0  0  0  0  0  0  0  0  0
    4.2742   -3.6134    0.9432 H   0  0  0  0  0  0  0  0  0  0  0  0
    2.5956   -3.9355    0.4154 H   0  0  0  0  0  0  0  0  0  0  0  0
   -2.9700   -0.8375    0.1340 C   0  0  0  0  0  0  0  0  0  0  0  0
   -3.2450   -1.7371   -0.9252 C   0  0  0  0  0  0  0  0  0  0  0  0
   -4.0353   -2.8654   -0.6325 C   0  0  0  0  0  0  0  0  0  0  0  0
   -4.2644   -3.5785   -1.4395 H   0  0  0  0  0  0  0  0  0  0  0  0
   -4.5123   -3.1067    0.6605 C   0  0  0  0  0  0  0  0  0  0  0  0
   -5.1316   -3.9934    0.8639 H   0  0  0  0  0  0  0  0  0  0  0  0
   -4.1721   -2.2338    1.7032 C   0  0  0  0  0  0  0  0  0  0  0  0
   -4.5167   -2.4466    2.7259 H   0  0  0  0  0  0  0  0  0  0  0  0
   -3.3837   -1.0954    1.4684 C   0  0  0  0  0  0  0  0  0  0  0  0
   -2.6148   -1.5706   -2.3008 C   0  0  0  0  0  0  0  0  0  0  0  0
   -2.0735   -0.6030   -2.3242 H   0  0  0  0  0  0  0  0  0  0  0  0
   -3.6500   -1.5669   -3.4351 C   0  0  0  0  0  0  0  0  0  0  0  0
   -4.4104   -0.7710   -3.2943 H   0  0  0  0  0  0  0  0  0  0  0  0
   -4.1908   -2.5339   -3.5032 H   0  0  0  0  0  0  0  0  0  0  0  0
   -3.1535   -1.3975   -4.4123 H   0  0  0  0  0  0  0  0  0  0  0  0
   -1.5399   -2.6549   -2.5016 C   0  0  0  0  0  0  0  0  0  0  0  0
   -0.8040   -2.6206   -1.6750 H   0  0  0  0  0  0  0  0  0  0  0  0
   -0.9868   -2.4830   -3.4465 H   0  0  0  0  0  0  0  0  0  0  0  0
   -1.9919   -3.6686   -2.5320 H   0  0  0  0  0  0  0  0  0  0  0  0
   -2.9962   -0.1367    2.5871 C   0  0  0  0  0  0  0  0  0  0  0  0
   -2.0747    0.3803    2.2452 H   0  0  0  0  0  0  0  0  0  0  0  0
   -4.0873    0.9260    2.8081 C   0  0  0  0  0  0  0  0  0  0  0  0
   -4.3085    1.4912    1.8798 H   0  0  0  0  0  0  0  0  0  0  0  0
   -3.7800    1.6559    3.5856 H   0  0  0  0  0  0  0  0  0  0  0  0
   -5.0359    0.4539    3.1394 H   0  0  0  0  0  0  0  0  0  0  0  0
   -2.6342   -0.8573    3.8909 C   0  0  0  0  0  0  0  0  0  0  0  0
   -1.8287   -1.5943    3.7069 H   0  0  0  0  0  0  0  0  0  0  0  0
   -3.5055   -1.3773    4.3408 H   0  0  0  0  0  0  0  0  0  0  0  0
   -2.2675   -0.1269    4.6408 H   0  0  0  0  0  0  0  0  0  0  0  0
  1 49  1  0  0  0  0
  2 17  1  0  0  0  0
  3 23  1  0  0  0  0
  4 29  1  0  0  0  0
  5  6  1  0  0  0  0
  5  8  1  0  0  0  0
  5  9  1  0  0  0  0
  7  5  1  0  0  0  0
  9  1  1  0  0  0  0
 10  9  2  0  0  0  0
 10  2  1  0  0  0  0
 11 13  2  0  0  0  0
 11 10  1  0  0  0  0
 12 11  1  0  0  0  0
 13 15  1  0  0  0  0
 14 13  1  0  0  0  0
 15 16  1  0  0  0  0
 15 17  2  0  0  0  0
 17 18  1  0  0  0  0
 18 19  1  0  0  0  0
 18  3  1  6  0  0  0
 19 20  1  0  0  0  0
 19 21  1  0  0  0  0
 22 19  1  0  0  0  0
 23 24  1  0  0  0  0
 23 25  1  0  0  0  0
 26  4  1  0  0  0  0
 26 23  1  0  0  0  0
 27 26  1  0  0  0  0
 28 26  1  0  0  0  0
 29 35  1  0  0  0  0
 30 29  1  0  0  0  0
 31 34  1  0  0  0  0
 31 33  1  0  0  0  0
 31 29  1  0  0  0  0
 32 31  1  0  0  0  0
 35 37  1  0  0  0  0
 35 38  1  0  0  0  0
 35 36  1  0  0  0  0
 39  4  1  0  0  0  0
 39 45  1  0  0  0  0
 40 39  1  0  0  0  0
 41 44  1  0  0  0  0
 41 39  1  0  0  0  0
 42 41  1  0  0  0  0
 43 41  1  0  0  0  0
 45 47  1  0  0  0  0
 45 46  1  0  0  0  0
 48 45  1  0  0  0  0
 49 57  1  0  0  0  0
 50 51  1  0  0  0  0
 50 49  2  0  0  0  0
 51 53  2  0  0  0  0
 52 51  1  0  0  0  0
 53 54  1  0  0  0  0
 53 55  1  0  0  0  0
 55 56  1  0  0  0  0
 57 55  2  0  0  0  0
 57 68  1  0  0  0  0
 58 50  1  0  0  0  0
 59 58  1  0  0  0  0
 60 61  1  0  0  0  0
 60 58  1  0  0  0  0
 62 60  1  0  0  0  0
 63 60  1  0  0  0  0
 64 58  1  0  0  0  0
 64 65  1  0  0  0  0
 66 64  1  0  0  0  0
 67 64  1  0  0  0  0
 68 70  1  0  0  0  0
 68 74  1  0  0  0  0
 69 68  1  0  0  0  0
 70 73  1  0  0  0  0
 70 72  1  0  0  0  0
 71 70  1  0  0  0  0
 74 76  1  0  0  0  0
 74 77  1  0  0  0  0
 75 74  1  0  0  0  0
M  END
