2,4,6
q = -1.0, confidence = 0.0

 58 62  0  0  1  0  0  0  0  0999 V2000
   -1.8363   -0.8886   -1.1742 N   0  0  0  0  0  0  0  0  0  0  0  0
   -0.6812   -1.3458   -0.6309 N   0  0  0  0  0  2  0  0  0  0  0  0
   -2.6151    0.3860    0.8557 N   0  0  0  0  0  0  0  0  0  0  0  0
   -1.5821    0.0990    1.7037 N   0  0  0  0  0  2  0  0  0  0  0  0
   -1.4905    1.6012   -1.0691 N   0  0  0  0  0  0  0  0  0  0  0  0
   -0.2517    1.6250   -0.5285 N   0  0  0  0  0  2  0  0  0  0  0  0
   -3.5266   -1.5110   -2.9357 C   0  0  0  0  0  0  0  0  0  0  0  0
   -3.4915   -0.5658   -3.5154 H   0  0  0  0  0  0  0  0  0  0  0  0
   -4.4180   -1.4561   -2.2783 H   0  0  0  0  0  0  0  0  0  0  0  0
   -3.6764   -2.3425   -3.6491 H   0  0  0  0  0  0  0  0  0  0  0  0
   -2.2715   -1.7339   -2.1558 C   0  0  2  0  0  3  0  0  0  0  0  0
   -1.3433   -2.7754   -2.2414 C   0  0  0  0  0  0  0  0  0  0  0  0
   -1.3937   -3.6494   -2.8982 H   0  0  0  0  0  0  0  0  0  0  0  0
   -0.3601   -2.5021   -1.2578 C   0  0  0  0  0  0  0  0  0  0  0  0
    0.8144   -3.3196   -0.9088 C   0  0  0  0  0  0  0  0  0  0  0  0
    1.2058   -3.5075    0.4358 C   0  0  0  0  0  0  0  0  0  0  0  0
    0.6280   -3.0179    1.2330 H   0  0  0  0  0  0  0  0  0  0  0  0
    2.3218   -4.2954    0.7467 C   0  0  0  0  0  0  0  0  0  0  0  0
    2.6163   -4.4294    1.7988 H   0  0  0  0  0  0  0  0  0  0  0  0
    3.0586   -4.9164   -0.2750 C   0  0  0  0  0  0  0  0  0  0  0  0
    3.9366   -5.5326   -0.0283 H   0  0  0  0  0  0  0  0  0  0  0  0
    2.6682   -4.7487   -1.6133 C   0  0  0  0  0  0  0  0  0  0  0  0
    3.2419   -5.2298   -2.4201 H   0  0  0  0  0  0  0  0  0  0  0  0
    1.5549   -3.9576   -1.9281 C   0  0  0  0  0  0  0  0  0  0  0  0
    1.2627   -3.8083   -2.9787 H   0  0  0  0  0  0  0  0  0  0  0  0
   -5.0998    0.8055    0.9357 C   0  0  0  0  0  0  0  0  0  0  0  0
   -5.4128    0.0158    0.2227 H   0  0  0  0  0  0  0  0  0  0  0  0
   -5.0829    1.7620    0.3752 H   0  0  0  0  0  0  0  0  0  0  0  0
   -5.8728    0.8822    1.7228 H   0  0  0  0  0  0  0  0  0  0  0  0
   -3.7770    0.5014    1.5616 C   0  0  1  0  0  3  0  0  0  0  0  0
   -3.4715    0.2777    2.9071 C   0  0  0  0  0  0  0  0  0  0  0  0
   -4.1691    0.2908    3.7506 H   0  0  0  0  0  0  0  0  0  0  0  0
   -2.0849    0.0237    2.9585 C   0  0  0  0  0  0  0  0  0  0  0  0
   -1.2637   -0.2934    4.1641 C   0  0  0  0  0  0  0  0  0  0  0  0
   -0.6249   -1.1824    3.9949 H   0  0  0  0  0  0  0  0  0  0  0  0
   -1.9259   -0.4983    5.0258 H   0  0  0  0  0  0  0  0  0  0  0  0
   -0.5946    0.5449    4.4438 H   0  0  0  0  0  0  0  0  0  0  0  0
   -2.9037    2.8339   -2.7547 C   0  0  0  0  0  0  0  0  0  0  0  0
   -3.1625    1.9735   -3.4060 H   0  0  0  0  0  0  0  0  0  0  0  0
   -2.7943    3.7258   -3.3992 H   0  0  0  0  0  0  0  0  0  0  0  0
   -3.7677    3.0013   -2.0798 H   0  0  0  0  0  0  0  0  0  0  0  0
   -1.6387    2.5989   -1.9939 C   0  0  1  0  0  3  0  0  0  0  0  0
   -0.4242    3.2889   -2.0421 C   0  0  0  0  0  0  0  0  0  0  0  0
   -0.1927    4.1707   -2.6480 H   0  0  0  0  0  0  0  0  0  0  0  0
    0.4222    2.6473   -1.0995 C   0  0  0  0  0  0  0  0  0  0  0  0
    2.7127    3.4181   -1.7400 C   0  0  0  0  0  0  0  0  0  0  0  0
    2.3729    3.4725   -2.7855 H   0  0  0  0  0  0  0  0  0  0  0  0
    4.0370    3.7411   -1.4134 C   0  0  0  0  0  0  0  0  0  0  0  0
    4.7313    4.0628   -2.2046 H   0  0  0  0  0  0  0  0  0  0  0  0
    4.4815    3.6412   -0.0851 C   0  0  0  0  0  0  0  0  0  0  0  0
    5.5236    3.8875    0.1694 H   0  0  0  0  0  0  0  0  0  0  0  0
    3.5879    3.2285    0.9166 C   0  0  0  0  0  0  0  0  0  0  0  0
    3.9237    3.1562    1.9624 H   0  0  0  0  0  0  0  0  0  0  0  0
    2.2617    2.9129    0.5935 C   0  0  0  0  0  0  0  0  0  0  0  0
    1.5565    2.6039    1.3772 H   0  0  0  0  0  0  0  0  0  0  0  0
    1.8091    2.9901   -0.7423 C   0  0  0  0  0  0  0  0  0  0  0  0
   -2.4401    0.4502   -0.6834 B   0  0  1  0  0  0  0  0  0  0  0  0
   -3.5238    0.6205   -1.2034 H   0  0  0  0  0  0  0  0  0  0  0  0
  1 57  1  0  0  0  0
  1  2  1  0  0  0  0
  3 30  1  0  0  0  0
  3  4  1  0  0  0  0
  4 33  1  0  0  0  0
  5 57  1  0  0  0  0
  5  6  1  0  0  0  0
  7  9  1  0  0  0  0
  8  7  1  0  0  0  0
 10  7  1  0  0  0  0
 11  7  1  1  0  0  0
 11  1  1  0  0  0  0
 12 11  1  0  0  0  0
 12 14  2  0  0  0  0
 13 12  1  0  0  0  0
 14 15  1  0  0  0  0
 14  2  1  0  0  0  0
 15 16  1  0  0  0  0
 16 18  2  0  0  0  0
 16 17  1  0  0  0  0
 18 19  1  0  0  0  0
 20 21  1  0  0  0  0
 20 18  1  0  0  0  0
 22 20  2  0  0  0  0
 23 22  1  0  0  0  0
 24 22  1  0  0  0  0
 24 15  2  0  0  0  0
 25 24  1  0  0  0  0
 26 29  1  0  0  0  0
 27 26  1  0  0  0  0
 28 26  1  0  0  0  0
 30 26  1  6  0  0  0
 30 31  1  0  0  0  0
 31 33  2  0  0  0  0
 31 32  1  0  0  0  0
 33 34  1  0  0  0  0
 34 37  1  0  0  0  0
 34 36  1  0  0  0  0
 35 34  1  0  0  0  0
 38 41  1  0  0  0  0
 39 38  1  0  0  0  0
 40 38  1  0  0  0  0
 42 38  1  1  0  0  0
 42  5  1  0  0  0  0
 43 42  1  0  0  0  0
 43 45  2  0  0  0  0
 44 43  1  0  0  0  0
 45 56  1  0  0  0  0
 45  6  1  0  0  0  0
 46 48  2  0  0  0  0
 46 56  1  0  0  0  0
 47 46  1  0  0  0  0
 48 50  1  0  0  0  0
 49 48  1  0  0  0  0
 50 51  1  0  0  0  0
 50 52  2  0  0  0  0
 52 53  1  0  0  0  0
 54 52  1  0  0  0  0
 54 55  1  0  0  0  0
 56 54  2  0  0  0  0
 57 58  1  6  0  0  0
 57  3  1  0  0  0  0
M  END
