32,33,34
q = -1.0, confidence = 0.002

 37 38  0  0  1  0  0  0  0  0999 V2000
   -2.9857   -1.5770    0.2080 C   0  0  0  0  0  0  0  0  0  0  0  0
   -2.6113   -2.6128    0.2373 H   0  0  0  0  0  0  0  0  0  0  0  0
   -4.3569   -1.2385    0.2770 C   0  0  0  0  0  0  0  0  0  0  0  0
   -5.0987   -2.0444    0.3680 H   0  0  0  0  0  0  0  0  0  0  0  0
   -4.7424    0.0939    0.2289 C   0  0  0  0  0  0  0  0  0  0  0  0
   -5.8055    0.3752    0.2814 H   0  0  0  0  0  0  0  0  0  0  0  0
   -3.7588    1.1185    0.1113 C   0  0  0  0  0  0  0  0  0  0  0  0
   -4.0485    2.5112    0.0571 C   0  0  0  0  0  0  0  0  0  0  0  0
   -5.0961    2.8426    0.1042 H   0  0  0  0  0  0  0  0  0  0  0  0
   -3.0080    3.4294   -0.0540 C   0  0  0  0  0  0  0  0  0  0  0  0
   -3.2389    4.5049   -0.0954 H   0  0  0  0  0  0  0  0  0  0  0  0
   -1.6517    3.0293   -0.1178 C   0  0  0  0  0  0  0  0  0  0  0  0
   -0.8385    3.7601   -0.2042 H   0  0  0  0  0  0  0  0  0  0  0  0
   -1.3236    1.6656   -0.0692 C   0  0  0  0  0  0  0  0  0  0  0  0
   -2.3902    0.7063    0.0455 C   0  0  1  0  0  3  0  0  0  0  0  0
    1.1490    1.7402   -0.1335 C   0  0  0  0  0  0  0  0  0  0  0  0
    2.3544    0.7609    0.0463 C   0  0  2  0  0  0  0  0  0  0  0  0
    2.5333    0.7606    1.1437 H   0  0  0  0  0  0  0  0  0  0  0  0
    3.5995    1.2629   -0.6849 C   0  0  0  0  0  0  0  0  0  0  0  0
    3.5138    2.3700   -0.6834 H   0  0  0  0  0  0  0  0  0  0  0  0
    3.5288    0.9544   -1.7532 H   0  0  0  0  0  0  0  0  0  0  0  0
    4.9713    0.8560   -0.1078 C   0  0  0  0  0  0  0  0  0  0  0  0
    5.7225    1.2940   -0.8023 H   0  0  0  0  0  0  0  0  0  0  0  0
    5.2113   -0.6605   -0.0860 C   0  0  0  0  0  0  0  0  0  0  0  0
    4.5866   -1.1665    0.6828 H   0  0  0  0  0  0  0  0  0  0  0  0
    6.2641   -0.8926    0.1732 H   0  0  0  0  0  0  0  0  0  0  0  0
    5.0001   -1.1321   -1.0683 H   0  0  0  0  0  0  0  0  0  0  0  0
    5.2171    1.4740    1.2749 C   0  0  0  0  0  0  0  0  0  0  0  0
    4.5178    1.0686    2.0371 H   0  0  0  0  0  0  0  0  0  0  0  0
    5.0882    2.5749    1.2563 H   0  0  0  0  0  0  0  0  0  0  0  0
    6.2435    1.2550    1.6325 H   0  0  0  0  0  0  0  0  0  0  0  0
   -2.0429   -0.6345    0.0960 N   0  0  0  0  0  2  0  0  0  0  0  0
   -0.0574    1.0958   -0.1032 N   0  0  0  0  0  2  0  0  0  0  0  0
    1.9792   -0.6549   -0.3024 N   0  0  0  0  0  0  0  0  0  0  0  0
    2.5336   -1.3385    0.2346 H   0  0  0  0  0  0  0  0  0  0  0  0
    2.2011   -0.8374   -1.2948 H   0  0  0  0  0  0  0  0  0  0  0  0
    1.3323    2.9567   -0.2144 O   0  0  0  0  0  0  0  0  0  0  0  0
  1  2  1  0  0  0  0
  1  3  2  0  0  0  0
  3  4  1  0  0  0  0
  5  3  1  0  0  0  0
  5  6  1  0  0  0  0
  7  5  2  0  0  0  0
  8  9  1  0  0  0  0
  8  7  1  0  0  0  0
 10  8  2  0  0  0  0
 11 10  1  0  0  0  0
 12 14  2  0  0  0  0
 12 10  1  0  0  0  0
 13 12  1  0  0  0  0
 15 14  1  1  0  0  0
 15 32  1  0  0  0  0
 15  7  1  0  0  0  0
 16 33  1  0  0  0  0
 16 17  1  0  0  0  0
 17 18  1  1  0  0  0
 19 20  1  0  0  0  0
 19 22  1  0  0  0  0
 19 17  1  0  0  0  0
 21 19  1  0  0  0  0
 22 24  1  0  0  0  0
 22 28  1  0  0  0  0
 23 22  1  0  0  0  0
 24 26  1  0  0  0  0
 24 25  1  0  0  0  0
 27 24  1  0  0  0  0
 28 31  1  0  0  0  0
 28 29  1  0  0  0  0
 30 28  1  0  0  0  0
 32  1  1  0  0  0  0
 33 14  1  0  0  0  0
 34 17  1  0  0  0  0
 34 35  1  0  0  0  0
 36 34  1  0  0  0  0
 37 16  2  0  0  0  0
M  END
