5,6,7
q = 0.0, confidence = 0.958

 43 45  0  0  1  0  0  0  0  0999 V2000
   -4.1502   -3.2119   -2.1437 Cl  0  0  0  0  0  0  0  0  0  0  0  0
   -5.1316   -1.4600    2.8994 Cl  0  0  0  0  0  0  0  0  0  0  0  0
    5.6436   -1.1940    2.6341 Cl  0  0  0  0  0  0  0  0  0  0  0  0
    3.6385   -3.7277   -1.7268 Cl  0  0  0  0  0  0  0  0  0  0  0  0
   -1.8124    0.9606   -0.2104 N   0  0  0  0  0  2  0  0  0  0  0  0
    0.0827    2.4992   -0.3721 N   0  0  0  0  0  2  0  0  0  0  0  0
    1.9408    0.9158   -0.2686 N   0  0  0  0  0  2  0  0  0  0  0  0
    3.8080    2.5598   -0.5998 C   0  0  0  0  0  0  0  0  0  0  0  0
    4.4330    1.6991   -0.8993 H   0  0  0  0  0  0  0  0  0  0  0  0
    4.2207    2.9610    0.3499 H   0  0  0  0  0  0  0  0  0  0  0  0
    3.9048    3.3563   -1.3636 H   0  0  0  0  0  0  0  0  0  0  0  0
    2.3722    2.1619   -0.4498 C   0  0  0  0  0  0  0  0  0  0  0  0
    1.2862    3.1255   -0.5161 C   0  0  0  0  0  0  0  0  0  0  0  0
    1.3213    4.5207   -0.6804 C   0  0  0  0  0  0  0  0  0  0  0  0
    2.2819    5.0427   -0.7930 H   0  0  0  0  0  0  0  0  0  0  0  0
    0.1087    5.2327   -0.6890 C   0  0  0  0  0  0  0  0  0  0  0  0
    0.1183    6.3256   -0.8060 H   0  0  0  0  0  0  0  0  0  0  0  0
   -1.1181    4.5554   -0.5539 C   0  0  0  0  0  0  0  0  0  0  0  0
   -2.0686    5.1068   -0.5640 H   0  0  0  0  0  0  0  0  0  0  0  0
   -1.1092    3.1600   -0.4039 C   0  0  0  0  0  0  0  0  0  0  0  0
   -2.2146    2.2214   -0.2791 C   0  0  2  0  0  3  0  0  0  0  0  0
   -3.6438    2.6552   -0.2247 C   0  0  0  0  0  0  0  0  0  0  0  0
   -3.8015    3.5736   -0.8217 H   0  0  0  0  0  0  0  0  0  0  0  0
   -3.9328    2.8761    0.8246 H   0  0  0  0  0  0  0  0  0  0  0  0
   -4.3179    1.8613   -0.5954 H   0  0  0  0  0  0  0  0  0  0  0  0
   -2.7359   -0.1067   -0.0298 C   0  0  0  0  0  0  0  0  0  0  0  0
   -2.9414   -1.0248   -1.0736 C   0  0  0  0  0  0  0  0  0  0  0  0
   -2.3511   -0.9342   -1.9971 H   0  0  0  0  0  0  0  0  0  0  0  0
   -3.8617   -2.0608   -0.8669 C   0  0  0  0  0  0  0  0  0  0  0  0
   -4.5589   -2.2030    0.3448 C   0  0  0  0  0  0  0  0  0  0  0  0
   -5.2731   -3.0236    0.4890 H   0  0  0  0  0  0  0  0  0  0  0  0
   -4.3043   -1.2809    1.3722 C   0  0  0  0  0  0  0  0  0  0  0  0
   -3.3954   -0.2291    1.2078 C   0  0  0  0  0  0  0  0  0  0  0  0
   -3.1197    0.4504    2.0275 H   0  0  0  0  0  0  0  0  0  0  0  0
    2.8308   -0.1686   -0.0535 C   0  0  0  0  0  0  0  0  0  0  0  0
    3.7027   -0.1351    1.0517 C   0  0  0  0  0  0  0  0  0  0  0  0
    3.6909    0.7099    1.7518 H   0  0  0  0  0  0  0  0  0  0  0  0
    4.5588   -1.2234    1.2680 C   0  0  0  0  0  0  0  0  0  0  0  0
    4.5581   -2.3362    0.4144 C   0  0  0  0  0  0  0  0  0  0  0  0
    5.2311   -3.1840    0.5944 H   0  0  0  0  0  0  0  0  0  0  0  0
    3.6622   -2.3440   -0.6695 C   0  0  0  0  0  0  0  0  0  0  0  0
    2.7878   -1.2794   -0.9155 C   0  0  0  0  0  0  0  0  0  0  0  0
    2.0547   -1.2914   -1.7376 H   0  0  0  0  0  0  0  0  0  0  0  0
  1 29  1  0  0  0  0
  4 41  1  0  0  0  0
  5 26  1  0  0  0  0
  7 35  1  0  0  0  0
  8 12  1  0  0  0  0
  8 10  1  0  0  0  0
  9  8  1  0  0  0  0
 11  8  1  0  0  0  0
 12  7  1  0  0  0  0
 13 12  2  0  0  0  0
 13  6  1  0  0  0  0
 14 13  1  0  0  0  0
 15 14  1  0  0  0  0
 16 14  2  0  0  0  0
 16 18  1  0  0  0  0
 17 16  1  0  0  0  0
 18 20  2  0  0  0  0
 19 18  1  0  0  0  0
 20  6  1  0  0  0  0
 20 21  1  0  0  0  0
 21 22  1  0  0  0  0
 21  5  1  1  0  0  0
 22 24  1  0  0  0  0
 23 22  1  0  0  0  0
 25 22  1  0  0  0  0
 26 33  1  0  0  0  0
 27 29  1  0  0  0  0
 27 26  2  0  0  0  0
 28 27  1  0  0  0  0
 29 30  2  0  0  0  0
 30 31  1  0  0  0  0
 30 32  1  0  0  0  0
 32  2  1  0  0  0  0
 33 32  2  0  0  0  0
 33 34  1  0  0  0  0
 35 36  1  0  0  0  0
 36 38  2  0  0  0  0
 36 37  1  0  0  0  0
 38  3  1  0  0  0  0
 39 40  1  0  0  0  0
 39 38  1  0  0  0  0
 41 39  2  0  0  0  0
 42 41  1  0  0  0  0
 42 35  2  0  0  0  0
 43 42  1  0  0  0  0
M  END
