6,7,8
q = -1.0, confidence = 0.084

 34 36  0  0  1  0  0  0  0  0999 V2000
   -2.4147   -3.2694   -0.0857 O   0  5  0  0  0  0  0  0  0  0  0  0
   -1.6018   -2.3841   -2.0106 O   0  0  0  0  0  0  0  0  0  0  0  0
    2.4967   -2.2543    1.1501 O   0  0  0  0  0  0  0  0  0  0  0  0
    3.7300   -2.7139   -0.6945 O   0  0  0  0  0  0  0  0  0  0  0  0
    3.7053   -3.6160   -0.3022 H   0  0  0  0  0  0  0  0  0  0  0  0
   -2.0774   -0.0465   -0.4033 N   0  0  0  0  0  2  0  0  0  0  0  0
   -0.1996    1.6975   -0.1855 N   0  0  0  0  0  2  0  0  0  0  0  0
    2.0120    0.3110   -0.2693 N   0  0  0  0  0  2  0  0  0  0  0  0
   -2.9705   -1.0350   -0.6297 C   0  0  2  0  0  3  0  0  0  0  0  0
   -4.3542   -0.8143   -0.5356 C   0  0  0  0  0  0  0  0  0  0  0  0
   -5.0418   -1.6596   -0.6770 H   0  0  0  0  0  0  0  0  0  0  0  0
   -4.8154    0.4792   -0.2700 C   0  0  0  0  0  0  0  0  0  0  0  0
   -5.8935    0.6846   -0.1993 H   0  0  0  0  0  0  0  0  0  0  0  0
   -3.8885    1.5198   -0.1062 C   0  0  0  0  0  0  0  0  0  0  0  0
   -4.2289    2.5473    0.0779 H   0  0  0  0  0  0  0  0  0  0  0  0
   -2.5194    1.2336   -0.1725 C   0  0  0  0  0  0  0  0  0  0  0  0
   -1.4494    2.2386   -0.0852 C   0  0  2  0  0  3  0  0  0  0  0  0
   -1.5940    3.6307    0.0089 C   0  0  0  0  0  0  0  0  0  0  0  0
   -2.5930    4.0771    0.1018 H   0  0  0  0  0  0  0  0  0  0  0  0
   -0.4518    4.4444   -0.0319 C   0  0  0  0  0  0  0  0  0  0  0  0
   -0.5519    5.5362    0.0435 H   0  0  0  0  0  0  0  0  0  0  0  0
    0.8174    3.8662   -0.1833 C   0  0  0  0  0  0  0  0  0  0  0  0
    1.7136    4.4990   -0.2301 H   0  0  0  0  0  0  0  0  0  0  0  0
    0.9256    2.4681   -0.2598 C   0  0  0  0  0  0  0  0  0  0  0  0
    2.1635    1.6814   -0.3905 C   0  0  2  0  0  3  0  0  0  0  0  0
    3.4198    2.2618   -0.6333 C   0  0  0  0  0  0  0  0  0  0  0  0
    3.5037    3.3522   -0.7328 H   0  0  0  0  0  0  0  0  0  0  0  0
    4.5474    1.4486   -0.7762 C   0  0  0  0  0  0  0  0  0  0  0  0
    5.5308    1.8865   -0.9984 H   0  0  0  0  0  0  0  0  0  0  0  0
    4.3985    0.0648   -0.6154 C   0  0  0  0  0  0  0  0  0  0  0  0
    5.2558   -0.6181   -0.6907 H   0  0  0  0  0  0  0  0  0  0  0  0
    3.1313   -0.4627   -0.3212 C   0  0  0  0  0  0  0  0  0  0  0  0
   -2.3255   -2.3736   -0.9292 C   0  0  0  0  0  0  0  0  0  0  0  0
    3.0404   -1.9028    0.1152 C   0  0  0  0  0  0  0  0  0  0  0  0
  2 33  2  0  0  0  0
  4  5  1  0  0  0  0
  4 34  1  0  0  0  0
  6 16  1  0  0  0  0
  7 17  1  0  0  0  0
  9 33  1  1  0  0  0
  9 10  1  0  0  0  0
  9  6  1  0  0  0  0
 10 12  2  0  0  0  0
 11 10  1  0  0  0  0
 12 13  1  0  0  0  0
 12 14  1  0  0  0  0
 14 15  1  0  0  0  0
 16 14  2  0  0  0  0
 17 16  1  6  0  0  0
 17 18  1  0  0  0  0
 18 19  1  0  0  0  0
 20 18  2  0  0  0  0
 20 21  1  0  0  0  0
 22 20  1  0  0  0  0
 23 22  1  0  0  0  0
 24  7  1  0  0  0  0
 24 22  2  0  0  0  0
 25  8  1  0  0  0  0
 25 24  1  6  0  0  0
 26 25  1  0  0  0  0
 27 26  1  0  0  0  0
 28 26  2  0  0  0  0
 28 30  1  0  0  0  0
 29 28  1  0  0  0  0
 30 32  2  0  0  0  0
 31 30  1  0  0  0  0
 32  8  1  0  0  0  0
 32 34  1  0  0  0  0
 33  1  1  0  0  0  0
 34  3  2  0  0  0  0
M  CHG  1   1  -1
M  END
