1,2,7
q = 0.0, confidence = 1.0

 41 45  0  0  1  0  0  0  0  0999 V2000
   -0.0001    0.9651   -0.0005 N   0  0  0  0  0  2  0  0  0  0  0  0
    1.8593   -1.4510   -0.1005 N   0  0  0  0  0  2  0  0  0  0  0  0
    2.3776    0.9561    0.0417 N   0  0  0  0  0  0  0  0  0  0  0  0
    3.9726   -0.6224   -0.2419 N   0  0  2  0  0  0  0  0  0  0  0  0
   -3.9718   -0.6228    0.2479 N   0  0  2  0  0  0  0  0  0  0  0  0
   -2.3779    0.9560   -0.0405 N   0  0  1  0  0  0  0  0  0  0  0  0
   -1.8589   -1.4512    0.0983 N   0  0  0  0  0  2  0  0  0  0  0  0
    2.6239   -0.3920   -0.1149 C   0  0  1  0  0  3  0  0  0  0  0  0
   -1.1644    1.6574   -0.0096 C   0  0  2  0  0  3  0  0  0  0  0  0
   -2.6235   -0.3922    0.1163 C   0  0  2  0  0  3  0  0  0  0  0  0
    4.1861   -2.0421    0.0421 C   0  0  0  0  0  0  0  0  0  0  0  0
    4.4676   -2.1858    1.1126 H   0  0  0  0  0  0  0  0  0  0  0  0
    4.9790   -2.4805   -0.5933 H   0  0  0  0  0  0  0  0  0  0  0  0
    2.7722   -2.6067   -0.2700 C   0  0  0  0  0  0  0  0  0  0  0  0
    2.7070   -2.9767   -1.3162 H   0  0  0  0  0  0  0  0  0  0  0  0
    2.4808   -3.4365    0.4006 H   0  0  0  0  0  0  0  0  0  0  0  0
    1.1641    1.6574    0.0079 C   0  0  0  0  0  0  0  0  0  0  0  0
    1.2095    3.0706   -0.0091 C   0  0  0  0  0  0  0  0  0  0  0  0
    2.1580    3.6178   -0.0302 H   0  0  0  0  0  0  0  0  0  0  0  0
    3.6853    1.6563    0.0486 C   0  0  0  0  0  0  0  0  0  0  0  0
    3.7211    2.4114    0.8564 H   0  0  0  0  0  0  0  0  0  0  0  0
    3.8440    2.1694   -0.9241 H   0  0  0  0  0  0  0  0  0  0  0  0
   -4.1862   -2.0422   -0.0366 C   0  0  0  0  0  0  0  0  0  0  0  0
   -4.4718   -2.1850   -1.1062 H   0  0  0  0  0  0  0  0  0  0  0  0
   -4.9767   -2.4813    0.6013 H   0  0  0  0  0  0  0  0  0  0  0  0
   -1.2097    3.0706    0.0049 C   0  0  0  0  0  0  0  0  0  0  0  0
   -2.1582    3.6178    0.0251 H   0  0  0  0  0  0  0  0  0  0  0  0
   -0.0001    3.7661   -0.0029 C   0  0  0  0  0  0  0  0  0  0  0  0
   -0.0001    4.8658   -0.0040 H   0  0  0  0  0  0  0  0  0  0  0  0
   -4.7072    0.5211   -0.2648 C   0  0  0  0  0  0  0  0  0  0  0  0
   -5.6526    0.6999    0.2828 H   0  0  0  0  0  0  0  0  0  0  0  0
   -4.9470    0.3930   -1.3475 H   0  0  0  0  0  0  0  0  0  0  0  0
   -3.6856    1.6561   -0.0435 C   0  0  0  0  0  0  0  0  0  0  0  0
   -3.7241    2.4107   -0.8516 H   0  0  0  0  0  0  0  0  0  0  0  0
   -3.8410    2.1698    0.9294 H   0  0  0  0  0  0  0  0  0  0  0  0
    4.7061    0.5214    0.2737 C   0  0  0  0  0  0  0  0  0  0  0  0
    5.6536    0.7003   -0.2703 H   0  0  0  0  0  0  0  0  0  0  0  0
    4.9418    0.3932    1.3573 H   0  0  0  0  0  0  0  0  0  0  0  0
   -2.7711   -2.6072    0.2696 C   0  0  0  0  0  0  0  0  0  0  0  0
   -2.7021   -2.9785    1.3151 H   0  0  0  0  0  0  0  0  0  0  0  0
   -2.4821   -3.4360   -0.4032 H   0  0  0  0  0  0  0  0  0  0  0  0
  1 17  1  0  0  0  0
  3 20  1  0  0  0  0
  4  8  1  0  0  0  0
  4 11  1  1  0  0  0
  4 36  1  0  0  0  0
  5 30  1  6  0  0  0
  6 33  1  1  0  0  0
  6  9  1  0  0  0  0
  6 10  1  0  0  0  0
  7 39  1  0  0  0  0
  8  2  1  1  0  0  0
  8  3  1  0  0  0  0
  9  1  1  6  0  0  0
  9 26  1  0  0  0  0
 10  7  1  6  0  0  0
 10  5  1  0  0  0  0
 11 12  1  0  0  0  0
 13 11  1  0  0  0  0
 14  2  1  0  0  0  0
 14 11  1  0  0  0  0
 14 16  1  0  0  0  0
 15 14  1  0  0  0  0
 17  3  1  0  0  0  0
 18 28  1  0  0  0  0
 18 17  2  0  0  0  0
 19 18  1  0  0  0  0
 20 36  1  0  0  0  0
 20 21  1  0  0  0  0
 22 20  1  0  0  0  0
 23  5  1  0  0  0  0
 23 39  1  0  0  0  0
 23 25  1  0  0  0  0
 24 23  1  0  0  0  0
 26 27  1  0  0  0  0
 28 26  2  0  0  0  0
 29 28  1  0  0  0  0
 30 33  1  0  0  0  0
 30 31  1  0  0  0  0
 32 30  1  0  0  0  0
 33 35  1  0  0  0  0
 34 33  1  0  0  0  0
 36 38  1  0  0  0  0
 37 36  1  0  0  0  0
 39 40  1  0  0  0  0
 41 39  1  0  0  0  0
M  END
