1,3,4
q = -2.0, confidence = 0.72

 27 28  0  0  0  0  0  0  0  0999 V2000
   -0.9694    0.1352   -1.6045 N   0  0  0  0  0  2  0  0  0  0  0  0
   -1.9560   -0.1114   -1.7728 H   0  0  0  0  0  0  0  0  0  0  0  0
    1.4209    0.6602   -1.1279 N   0  0  0  0  0  2  0  0  0  0  0  0
    1.3920   -1.9203   -0.1586 N   0  0  0  0  0  2  0  0  0  0  0  0
    1.1149   -2.9083   -0.0331 H   0  0  0  0  0  0  0  0  0  0  0  0
   -0.5024    1.2010   -2.3398 C   0  0  0  0  0  0  0  0  0  0  0  0
   -1.2365    1.9409   -3.2933 C   0  0  0  0  0  0  0  0  0  0  0  0
   -2.2875    1.6846   -3.4944 H   0  0  0  0  0  0  0  0  0  0  0  0
   -0.6095    2.9917   -3.9658 C   0  0  0  0  0  0  0  0  0  0  0  0
   -1.1744    3.5763   -4.7066 H   0  0  0  0  0  0  0  0  0  0  0  0
    0.7407    3.3162   -3.7034 C   0  0  0  0  0  0  0  0  0  0  0  0
    1.2140    4.1548   -4.2338 H   0  0  0  0  0  0  0  0  0  0  0  0
    1.4813    2.5833   -2.7710 C   0  0  0  0  0  0  0  0  0  0  0  0
    2.5302    2.8499   -2.5781 H   0  0  0  0  0  0  0  0  0  0  0  0
    0.8569    1.5296   -2.0765 C   0  0  0  0  0  0  0  0  0  0  0  0
    2.7335    0.5512   -0.9764 C   0  0  0  0  0  3  0  0  0  0  0  0
    3.3747    1.3195   -1.4457 H   0  0  0  0  0  0  0  0  0  0  0  0
    3.4094   -0.5350   -0.3498 C   0  0  0  0  0  0  0  0  0  0  0  0
    2.7513   -1.7890   -0.0497 C   0  0  0  0  0  0  0  0  0  0  0  0
    3.5559   -2.8924    0.3546 C   0  0  0  0  0  0  0  0  0  0  0  0
    3.0599   -3.8523    0.5683 H   0  0  0  0  0  0  0  0  0  0  0  0
    4.9305   -2.7657    0.5047 C   0  0  0  0  0  0  0  0  0  0  0  0
    5.5216   -3.6319    0.8376 H   0  0  0  0  0  0  0  0  0  0  0  0
    5.5771   -1.5314    0.2373 C   0  0  0  0  0  0  0  0  0  0  0  0
    6.6657   -1.4412    0.3589 H   0  0  0  0  0  0  0  0  0  0  0  0
    4.8282   -0.4494   -0.1953 C   0  0  0  0  0  0  0  0  0  0  0  0
    5.3223    0.5033   -0.4407 H   0  0  0  0  0  0  0  0  0  0  0  0
  2  1  1  0  0  0  0
  3 16  1  0  0  0  0
  4 19  1  0  0  0  0
  4  5  1  0  0  0  0
  6 15  1  0  0  0  0
  6  1  1  0  0  0  0
  7  6  2  0  0  0  0
  8  7  1  0  0  0  0
  9 11  2  0  0  0  0
  9  7  1  0  0  0  0
 10  9  1  0  0  0  0
 11 13  1  0  0  0  0
 12 11  1  0  0  0  0
 13 14  1  0  0  0  0
 13 15  2  0  0  0  0
 15  3  1  0  0  0  0
 16 18  1  0  0  0  0
 17 16  1  0  0  0  0
 18 26  2  0  0  0  0
 18 19  1  0  0  0  0
 19 20  2  0  0  0  0
 20 22  1  0  0  0  0
 20 21  1  0  0  0  0
 22 23  1  0  0  0  0
 24 25  1  0  0  0  0
 24 22  2  0  0  0  0
 26 24  1  0  0  0  0
 27 26  1  0  0  0  0
M  END
