2,5,8
q = -1.0, confidence = 0.03

 41 43  0  0  1  0  0  0  0  0999 V2000
   -0.7350   -1.0485    1.0104 N   0  0  0  0  0  0  0  0  0  0  0  0
    0.6022   -1.1901    1.1861 N   0  0  0  0  0  2  0  0  0  0  0  0
   -0.4610   -2.6317    2.5544 N   0  0  0  0  0  0  0  0  0  0  0  0
   -0.7582    1.3984    0.4000 N   0  0  0  0  0  0  0  0  0  0  0  0
    0.5751    1.6292    0.4923 N   0  0  0  0  0  2  0  0  0  0  0  0
   -0.5225    3.5278    1.0135 N   0  0  0  0  0  0  0  0  0  0  0  0
   -0.7129   -0.3537   -1.4121 N   0  0  0  0  0  0  0  0  0  0  0  0
    0.6277   -0.3779   -1.6134 N   0  0  0  0  0  2  0  0  0  0  0  0
   -0.4018   -0.8838   -3.5539 N   0  0  0  0  0  0  0  0  0  0  0  0
   -1.2928   -0.0081   -0.0074 B   0  0  1  0  0  0  0  0  0  0  0  0
    0.7196   -2.1408    2.1207 C   0  0  1  0  0  3  0  0  0  0  0  0
   -1.3457   -1.9304    1.8487 C   0  0  0  0  0  0  0  0  0  0  0  0
    2.0695   -2.6587    2.5652 C   0  0  0  0  0  0  0  0  0  0  0  0
   -2.8494   -2.0835    1.9641 C   0  0  0  0  0  0  0  0  0  0  0  0
    0.6694    2.9104    0.8672 C   0  0  2  0  0  3  0  0  0  0  0  0
   -1.3898    2.5613    0.7199 C   0  0  0  0  0  0  0  0  0  0  0  0
    2.0068    3.6007    1.0174 C   0  0  0  0  0  0  0  0  0  0  0  0
   -2.8967    2.7250    0.7439 C   0  0  0  0  0  0  0  0  0  0  0  0
    0.7677   -0.6925   -2.9067 C   0  0  2  0  0  3  0  0  0  0  0  0
   -1.3032   -0.6624   -2.5994 C   0  0  0  0  0  0  0  0  0  0  0  0
    2.1293   -0.8938   -3.5339 C   0  0  0  0  0  0  0  0  0  0  0  0
   -2.8035   -0.7358   -2.8031 C   0  0  0  0  0  0  0  0  0  0  0  0
    2.9745   -1.6508    2.6040 F   0  0  0  0  0  0  0  0  0  0  0  0
    2.5315   -3.5869    1.6987 F   0  0  0  0  0  0  0  0  0  0  0  0
    1.9939   -3.2127    3.7804 F   0  0  0  0  0  0  0  0  0  0  0  0
   -3.1531   -3.0228    2.8642 F   0  0  0  0  0  0  0  0  0  0  0  0
   -3.3851   -2.4351    0.7739 F   0  0  0  0  0  0  0  0  0  0  0  0
   -3.4180   -0.9178    2.3461 F   0  0  0  0  0  0  0  0  0  0  0  0
    1.9150    4.6490    1.8437 F   0  0  0  0  0  0  0  0  0  0  0  0
    2.9314    2.7410    1.5091 F   0  0  0  0  0  0  0  0  0  0  0  0
    2.4534    4.0374   -0.1807 F   0  0  0  0  0  0  0  0  0  0  0  0
   -3.2229    3.9745    1.0862 F   0  0  0  0  0  0  0  0  0  0  0  0
   -3.4239    2.4575   -0.4718 F   0  0  0  0  0  0  0  0  0  0  0  0
   -3.4536    1.8730    1.6335 F   0  0  0  0  0  0  0  0  0  0  0  0
    2.0723   -0.7463   -4.8620 F   0  0  0  0  0  0  0  0  0  0  0  0
    2.6009   -2.1301   -3.2592 F   0  0  0  0  0  0  0  0  0  0  0  0
    3.0173    0.0007   -3.0361 F   0  0  0  0  0  0  0  0  0  0  0  0
   -3.0854   -1.0653   -4.0667 F   0  0  0  0  0  0  0  0  0  0  0  0
   -3.3799    0.4557   -2.5275 F   0  0  0  0  0  0  0  0  0  0  0  0
   -3.3507   -1.6600   -1.9822 F   0  0  0  0  0  0  0  0  0  0  0  0
   -2.4946   -0.0234   -0.0228 H   0  0  0  0  0  0  0  0  0  0  0  0
  1  2  1  0  0  0  0
  1 12  1  0  0  0  0
  2 11  1  0  0  0  0
  4  5  1  0  0  0  0
  4 16  1  0  0  0  0
  5 15  1  0  0  0  0
  7 10  1  0  0  0  0
  8  7  1  0  0  0  0
  9 19  1  0  0  0  0
  9 20  2  0  0  0  0
 10 41  1  6  0  0  0
 10  4  1  0  0  0  0
 10  1  1  0  0  0  0
 11  3  1  0  0  0  0
 11 13  1  6  0  0  0
 12 14  1  0  0  0  0
 12  3  2  0  0  0  0
 13 23  1  0  0  0  0
 13 25  1  0  0  0  0
 14 28  1  0  0  0  0
 14 26  1  0  0  0  0
 15  6  1  0  0  0  0
 15 17  1  6  0  0  0
 16 18  1  0  0  0  0
 16  6  2  0  0  0  0
 17 30  1  0  0  0  0
 17 29  1  0  0  0  0
 18 32  1  0  0  0  0
 18 34  1  0  0  0  0
 19 21  1  1  0  0  0
 19  8  1  0  0  0  0
 20  7  1  0  0  0  0
 21 36  1  0  0  0  0
 21 37  1  0  0  0  0
 22 20  1  0  0  0  0
 22 39  1  0  0  0  0
 22 40  1  0  0  0  0
 24 13  1  0  0  0  0
 27 14  1  0  0  0  0
 31 17  1  0  0  0  0
 33 18  1  0  0  0  0
 35 21  1  0  0  0  0
 38 22  1  0  0  0  0
M  END
