1,2,3
q = 0.0, confidence = 0.994

 65 67  0  0  1  0  0  0  0  0999 V2000
    2.0276   -1.0492   -0.0000 N   0  0  0  0  0  2  0  0  0  0  0  0
    0.0046    0.6031    0.0003 N   0  0  0  0  0  2  0  0  0  0  0  0
   -2.0090   -1.0627   -0.0001 N   0  0  0  0  0  2  0  0  0  0  0  0
    2.9858   -1.9860   -0.0000 C   0  0  0  0  0  3  0  0  0  0  0  0
    2.6290   -3.0282   -0.0002 H   0  0  0  0  0  0  0  0  0  0  0  0
    4.3407   -1.6332    0.0001 C   0  0  0  0  0  0  0  0  0  0  0  0
    5.0835   -2.4403    0.0001 H   0  0  0  0  0  0  0  0  0  0  0  0
    4.7302   -0.2804    0.0003 C   0  0  0  0  0  0  0  0  0  0  0  0
    3.6898    0.6783    0.0003 C   0  0  0  0  0  0  0  0  0  0  0  0
    3.9281    1.7505    0.0004 H   0  0  0  0  0  0  0  0  0  0  0  0
    2.3500    0.2905    0.0001 C   0  0  0  0  0  0  0  0  0  0  0  0
    1.2006    1.2258    0.0002 C   0  0  1  0  0  3  0  0  0  0  0  0
    1.2128    2.6291    0.0001 C   0  0  0  0  0  0  0  0  0  0  0  0
    2.1713    3.1609   -0.0000 H   0  0  0  0  0  0  0  0  0  0  0  0
   -0.0025    3.3489   -0.0000 C   0  0  0  0  0  0  0  0  0  0  0  0
   -1.2167    2.6178    0.0000 C   0  0  0  0  0  0  0  0  0  0  0  0
   -2.1784    3.1473   -0.0001 H   0  0  0  0  0  0  0  0  0  0  0  0
   -1.1988    1.2188    0.0001 C   0  0  0  0  0  0  0  0  0  0  0  0
   -2.3413    0.2743    0.0001 C   0  0  1  0  0  3  0  0  0  0  0  0
   -3.6840    0.6517    0.0002 C   0  0  0  0  0  0  0  0  0  0  0  0
   -3.9311    1.7219    0.0004 H   0  0  0  0  0  0  0  0  0  0  0  0
   -4.7171   -0.3148    0.0001 C   0  0  0  0  0  0  0  0  0  0  0  0
   -4.3174   -1.6647   -0.0001 C   0  0  0  0  0  0  0  0  0  0  0  0
   -5.0540   -2.4774   -0.0001 H   0  0  0  0  0  0  0  0  0  0  0  0
   -2.9600   -2.0069   -0.0002 C   0  0  0  0  0  0  0  0  0  0  0  0
   -2.5952   -3.0464   -0.0003 H   0  0  0  0  0  0  0  0  0  0  0  0
    6.1918    0.1726    0.0003 C   0  0  0  0  0  0  0  0  0  0  0  0
    7.1622   -1.0202    0.0006 C   0  0  0  0  0  0  0  0  0  0  0  0
    7.0404   -1.6556   -0.8996 H   0  0  0  0  0  0  0  0  0  0  0  0
    7.0401   -1.6553    0.9009 H   0  0  0  0  0  0  0  0  0  0  0  0
    8.2049   -0.6480    0.0007 H   0  0  0  0  0  0  0  0  0  0  0  0
    6.4430    1.0255   -1.2666 C   0  0  0  0  0  0  0  0  0  0  0  0
    6.2549    0.4409   -2.1891 H   0  0  0  0  0  0  0  0  0  0  0  0
    7.4984    1.3627   -1.2839 H   0  0  0  0  0  0  0  0  0  0  0  0
    5.8051    1.9314   -1.2971 H   0  0  0  0  0  0  0  0  0  0  0  0
    6.4429    1.0259    1.2670 C   0  0  0  0  0  0  0  0  0  0  0  0
    6.2546    0.4418    2.1897 H   0  0  0  0  0  0  0  0  0  0  0  0
    5.8051    1.9320    1.2970 H   0  0  0  0  0  0  0  0  0  0  0  0
    7.4983    1.3632    1.2843 H   0  0  0  0  0  0  0  0  0  0  0  0
   -0.0443    4.8817   -0.0001 C   0  0  0  0  0  0  0  0  0  0  0  0
    1.3648    5.4977   -0.0001 C   0  0  0  0  0  0  0  0  0  0  0  0
    1.9441    5.2130    0.9014 H   0  0  0  0  0  0  0  0  0  0  0  0
    1.2846    6.6018   -0.0002 H   0  0  0  0  0  0  0  0  0  0  0  0
    1.9442    5.2128   -0.9016 H   0  0  0  0  0  0  0  0  0  0  0  0
   -0.7963    5.3551    1.2670 C   0  0  0  0  0  0  0  0  0  0  0  0
   -0.2851    5.0151    2.1897 H   0  0  0  0  0  0  0  0  0  0  0  0
   -1.8410    4.9872    1.2981 H   0  0  0  0  0  0  0  0  0  0  0  0
   -0.8350    6.4624    1.2846 H   0  0  0  0  0  0  0  0  0  0  0  0
   -0.7962    5.3550   -1.2673 C   0  0  0  0  0  0  0  0  0  0  0  0
   -0.8349    6.4622   -1.2851 H   0  0  0  0  0  0  0  0  0  0  0  0
   -1.8410    4.9871   -1.2984 H   0  0  0  0  0  0  0  0  0  0  0  0
   -0.2850    5.0148   -2.1899 H   0  0  0  0  0  0  0  0  0  0  0  0
   -6.1821    0.1269    0.0003 C   0  0  0  0  0  0  0  0  0  0  0  0
   -7.1432   -1.0736   -0.0000 C   0  0  0  0  0  0  0  0  0  0  0  0
   -7.0164   -1.7080    0.9000 H   0  0  0  0  0  0  0  0  0  0  0  0
   -7.0164   -1.7076   -0.9004 H   0  0  0  0  0  0  0  0  0  0  0  0
   -8.1888   -0.7095    0.0001 H   0  0  0  0  0  0  0  0  0  0  0  0
   -6.4401    0.9774    1.2674 C   0  0  0  0  0  0  0  0  0  0  0  0
   -6.2471    0.3942    2.1898 H   0  0  0  0  0  0  0  0  0  0  0  0
   -7.4981    1.3062    1.2849 H   0  0  0  0  0  0  0  0  0  0  0  0
   -5.8095    1.8885    1.2981 H   0  0  0  0  0  0  0  0  0  0  0  0
   -6.4402    0.9782   -1.2663 C   0  0  0  0  0  0  0  0  0  0  0  0
   -7.4983    1.3070   -1.2835 H   0  0  0  0  0  0  0  0  0  0  0  0
   -6.2473    0.3955   -2.1890 H   0  0  0  0  0  0  0  0  0  0  0  0
   -5.8097    1.8893   -1.2965 H   0  0  0  0  0  0  0  0  0  0  0  0
  1 11  1  0  0  0  0
  3 19  1  0  0  0  0
  4  1  1  0  0  0  0
  4  6  1  0  0  0  0
  5  4  1  0  0  0  0
  6  8  2  0  0  0  0
  7  6  1  0  0  0  0
  8  9  1  0  0  0  0
  8 27  1  0  0  0  0
  9 10  1  0  0  0  0
 11  9  2  0  0  0  0
 12 11  1  6  0  0  0
 12  2  1  0  0  0  0
 13 12  1  0  0  0  0
 14 13  1  0  0  0  0
 15 16  1  0  0  0  0
 15 13  2  0  0  0  0
 16 18  2  0  0  0  0
 17 16  1  0  0  0  0
 18  2  1  0  0  0  0
 19 18  1  6  0  0  0
 19 20  1  0  0  0  0
 20 21  1  0  0  0  0
 22 20  2  0  0  0  0
 22 53  1  0  0  0  0
 23 22  1  0  0  0  0
 24 23  1  0  0  0  0
 25  3  1  0  0  0  0
 25 23  2  0  0  0  0
 26 25  1  0  0  0  0
 27 28  1  0  0  0  0
 27 36  1  0  0  0  0
 28 31  1  0  0  0  0
 28 30  1  0  0  0  0
 29 28  1  0  0  0  0
 32 27  1  0  0  0  0
 33 32  1  0  0  0  0
 34 32  1  0  0  0  0
 35 32  1  0  0  0  0
 36 39  1  0  0  0  0
 36 38  1  0  0  0  0
 36 37  1  0  0  0  0
 40 15  1  0  0  0  0
 40 45  1  0  0  0  0
 41 40  1  0  0  0  0
 41 42  1  0  0  0  0
 43 41  1  0  0  0  0
 44 41  1  0  0  0  0
 45 48  1  0  0  0  0
 45 47  1  0  0  0  0
 45 46  1  0  0  0  0
 49 40  1  0  0  0  0
 50 49  1  0  0  0  0
 51 49  1  0  0  0  0
 52 49  1  0  0  0  0
 53 58  1  0  0  0  0
 54 57  1  0  0  0  0
 54 53  1  0  0  0  0
 54 55  1  0  0  0  0
 56 54  1  0  0  0  0
 58 60  1  0  0  0  0
 58 61  1  0  0  0  0
 58 59  1  0  0  0  0
 62 53  1  0  0  0  0
 63 62  1  0  0  0  0
 64 62  1  0  0  0  0
 65 62  1  0  0  0  0
M  END
