1,3,4
q = 0.0, confidence = 0.996

 33 35  0  0  1  0  0  0  0  0999 V2000
    1.6196   -0.2053    0.6984 N   0  0  0  0  0  2  0  0  0  0  0  0
    3.1515    0.2265    2.2600 N   0  0  0  0  0  0  0  0  0  0  0  0
   -1.1804   -0.5588    1.7304 N   0  0  0  0  0  2  0  0  0  0  0  0
   -2.2933   -0.4790   -0.5992 N   0  0  0  0  0  2  0  0  0  0  0  0
    2.8822   -0.1863    0.0834 C   0  0  0  0  0  0  0  0  0  0  0  0
    3.2874   -0.4128   -1.2472 C   0  0  0  0  0  0  0  0  0  0  0  0
    2.5509   -0.6311   -2.0304 H   0  0  0  0  0  0  0  0  0  0  0  0
    4.6560   -0.3333   -1.5337 C   0  0  0  0  0  0  0  0  0  0  0  0
    4.9899   -0.4953   -2.5692 H   0  0  0  0  0  0  0  0  0  0  0  0
    5.6150   -0.0417   -0.5363 C   0  0  0  0  0  0  0  0  0  0  0  0
    6.6796    0.0155   -0.8076 H   0  0  0  0  0  0  0  0  0  0  0  0
    5.2331    0.1754    0.7934 C   0  0  0  0  0  0  0  0  0  0  0  0
    5.9726    0.3968    1.5768 H   0  0  0  0  0  0  0  0  0  0  0  0
    3.8625    0.0956    1.0782 C   0  0  0  0  0  0  0  0  0  0  0  0
    1.8170    0.0424    2.0024 C   0  0  1  0  0  3  0  0  0  0  0  0
    0.7809    0.1794    3.0558 C   0  0  0  0  0  0  0  0  0  0  0  0
    0.3422    1.2179    3.0142 H   0  0  0  0  0  0  0  0  0  0  0  0
    1.2560    0.0489    4.0490 H   0  0  0  0  0  0  0  0  0  0  0  0
   -0.4130   -0.7755    2.9465 C   0  0  0  0  0  0  0  0  0  0  0  0
   -0.0840   -1.8389    2.9235 H   0  0  0  0  0  0  0  0  0  0  0  0
   -1.0601   -0.6322    3.8361 H   0  0  0  0  0  0  0  0  0  0  0  0
   -2.4883   -0.5813    1.7539 C   0  0  0  0  0  0  0  0  0  0  0  0
   -3.0552   -0.6604    2.6947 H   0  0  0  0  0  0  0  0  0  0  0  0
   -3.1550   -0.5196    0.4709 C   0  0  0  0  0  0  0  0  0  0  0  0
   -4.5476   -0.5099    0.2845 C   0  0  0  0  0  0  0  0  0  0  0  0
   -5.2038   -0.5327    1.1652 H   0  0  0  0  0  0  0  0  0  0  0  0
   -5.0627   -0.4382   -1.0113 C   0  0  0  0  0  0  0  0  0  0  0  0
   -6.1495   -0.4180   -1.1792 H   0  0  0  0  0  0  0  0  0  0  0  0
   -4.1698   -0.3758   -2.0971 C   0  0  0  0  0  0  0  0  0  0  0  0
   -4.5323   -0.3026   -3.1320 H   0  0  0  0  0  0  0  0  0  0  0  0
   -2.7945   -0.3980   -1.8518 C   0  0  0  0  0  0  0  0  0  0  0  0
   -2.0435   -0.3472   -2.6549 H   0  0  0  0  0  0  0  0  0  0  0  0
    3.5366    0.4497    3.1769 H   0  0  0  0  0  0  0  0  0  0  0  0
  1 15  1  0  0  0  0
  2 33  1  0  0  0  0
  3 22  1  0  0  0  0
  3 19  1  0  0  0  0
  4 24  1  0  0  0  0
  5  1  1  0  0  0  0
  5 14  1  0  0  0  0
  6  5  2  0  0  0  0
  7  6  1  0  0  0  0
  8  6  1  0  0  0  0
  8 10  2  0  0  0  0
  9  8  1  0  0  0  0
 10 12  1  0  0  0  0
 11 10  1  0  0  0  0
 12 14  2  0  0  0  0
 12 13  1  0  0  0  0
 14  2  1  0  0  0  0
 15  2  1  0  0  0  0
 15 16  1  6  0  0  0
 16 18  1  0  0  0  0
 17 16  1  0  0  0  0
 19 16  1  0  0  0  0
 19 21  1  0  0  0  0
 20 19  1  0  0  0  0
 22 23  1  0  0  0  0
 24 22  2  0  0  0  0
 25 24  1  0  0  0  0
 25 26  1  0  0  0  0
 27 25  2  0  0  0  0
 28 27  1  0  0  0  0
 29 31  2  0  0  0  0
 29 27  1  0  0  0  0
 30 29  1  0  0  0  0
 31  4  1  0  0  0  0
 32 31  1  0  0  0  0
M  END
