1,3,5
q = -1.0, confidence = 0.0

 39 40  0  0  1  0  0  0  0  0999 V2000
   -2.1919   -0.9601   -0.1734 N   0  0  0  0  0  0  0  0  0  0  0  0
   -2.3671   -1.5108   -1.0289 H   0  0  0  0  0  0  0  0  0  0  0  0
   -0.3882    1.0677   -0.0388 N   0  0  0  0  0  2  0  0  0  0  0  0
    0.4611    2.0216    0.0694 N   0  0  0  0  0  0  0  0  0  0  0  0
    1.8970   -0.6634    0.0954 N   0  0  0  0  0  2  0  0  0  0  0  0
   -2.6885    0.4004   -0.3323 C   0  0  0  0  0  0  0  0  0  0  0  0
   -4.0407    0.6876   -0.5599 C   0  0  0  0  0  0  0  0  0  0  0  0
   -4.7647   -0.1361   -0.6519 H   0  0  0  0  0  0  0  0  0  0  0  0
   -4.4637    2.0204   -0.6738 C   0  0  0  0  0  0  0  0  0  0  0  0
   -5.5237    2.2456   -0.8605 H   0  0  0  0  0  0  0  0  0  0  0  0
   -3.5254    3.0620   -0.5496 C   0  0  0  0  0  0  0  0  0  0  0  0
   -3.8550    4.1084   -0.6358 H   0  0  0  0  0  0  0  0  0  0  0  0
   -2.1732    2.7853   -0.3279 C   0  0  0  0  0  0  0  0  0  0  0  0
   -1.4215    3.5802   -0.2426 H   0  0  0  0  0  0  0  0  0  0  0  0
   -1.7443    1.4445   -0.2206 C   0  0  0  0  0  0  0  0  0  0  0  0
    1.7924    1.8196    0.1648 C   0  0  0  0  0  0  0  0  0  0  0  0
    2.5322    3.0470    0.2711 C   0  0  0  0  0  0  0  0  0  0  0  0
    1.9286    3.9656    0.2799 H   0  0  0  0  0  0  0  0  0  0  0  0
    3.9058    3.0808    0.3509 C   0  0  0  0  0  0  0  0  0  0  0  0
    4.4456    4.0350    0.4290 H   0  0  0  0  0  0  0  0  0  0  0  0
    4.6132    1.8452    0.3154 C   0  0  0  0  0  0  0  0  0  0  0  0
    5.7136    1.8455    0.3577 H   0  0  0  0  0  0  0  0  0  0  0  0
    3.9530    0.6372    0.2192 C   0  0  0  0  0  0  0  0  0  0  0  0
    4.5513   -0.2794    0.1783 H   0  0  0  0  0  0  0  0  0  0  0  0
    2.5092    0.5292    0.1554 C   0  0  1  0  0  3  0  0  0  0  0  0
   -2.8055   -1.7054    0.9750 C   0  0  0  0  0  0  0  0  0  0  0  0
   -2.3955   -2.7319    0.9002 H   0  0  0  0  0  0  0  0  0  0  0  0
   -3.9066   -1.7510    0.8225 H   0  0  0  0  0  0  0  0  0  0  0  0
   -2.4730   -1.0787    2.3183 C   0  0  0  0  0  0  0  0  0  0  0  0
   -2.9648   -1.6523    3.1282 H   0  0  0  0  0  0  0  0  0  0  0  0
   -2.8227   -0.0285    2.3835 H   0  0  0  0  0  0  0  0  0  0  0  0
   -1.3784   -1.0950    2.4946 H   0  0  0  0  0  0  0  0  0  0  0  0
    2.7005   -1.8909    0.1212 C   0  0  0  0  0  0  0  0  0  0  0  0
    2.0626   -2.6926    0.5361 H   0  0  0  0  0  0  0  0  0  0  0  0
    3.5561   -1.7611    0.8171 H   0  0  0  0  0  0  0  0  0  0  0  0
    3.1733   -2.3150   -1.2699 C   0  0  0  0  0  0  0  0  0  0  0  0
    3.7873   -3.2357   -1.1999 H   0  0  0  0  0  0  0  0  0  0  0  0
    3.7793   -1.5267   -1.7611 H   0  0  0  0  0  0  0  0  0  0  0  0
    2.2948   -2.5384   -1.9063 H   0  0  0  0  0  0  0  0  0  0  0  0
  1 26  1  0  0  0  0
  2  1  1  0  0  0  0
  3  4  1  0  0  0  0
  4 16  2  0  0  0  0
  5 33  1  0  0  0  0
  6 15  1  0  0  0  0
  6  1  1  0  0  0  0
  7  6  2  0  0  0  0
  8  7  1  0  0  0  0
  9  7  1  0  0  0  0
  9 11  2  0  0  0  0
 10  9  1  0  0  0  0
 11 13  1  0  0  0  0
 12 11  1  0  0  0  0
 13 14  1  0  0  0  0
 13 15  2  0  0  0  0
 15  3  1  0  0  0  0
 16 17  1  0  0  0  0
 17 18  1  0  0  0  0
 17 19  2  0  0  0  0
 19 20  1  0  0  0  0
 21 19  1  0  0  0  0
 21 22  1  0  0  0  0
 23 21  2  0  0  0  0
 24 23  1  0  0  0  0
 25  5  1  1  0  0  0
 25 16  1  0  0  0  0
 25 23  1  0  0  0  0
 26 29  1  0  0  0  0
 27 26  1  0  0  0  0
 28 26  1  0  0  0  0
 29 31  1  0  0  0  0
 29 32  1  0  0  0  0
 29 30  1  0  0  0  0
 33 34  1  0  0  0  0
 33 35  1  0  0  0  0
 36 37  1  0  0  0  0
 36 33  1  0  0  0  0
 38 36  1  0  0  0  0
 39 36  1  0  0  0  0
M  END
