71,73,75
q = 0.0, confidence = 0.988

 79 81  0  0  0  0  0  0  0  0999 V2000
   -4.5505   -1.3675   -0.3626 C   0  0  0  0  0  0  0  0  0  0  0  0
   -5.5980   -1.4382   -0.7494 H   0  0  0  0  0  0  0  0  0  0  0  0
   -4.5287   -1.9890    0.5569 H   0  0  0  0  0  0  0  0  0  0  0  0
   -3.6072   -1.9982   -1.3921 C   0  0  0  0  0  0  0  0  0  0  0  0
   -4.0160   -2.9959   -1.6807 H   0  0  0  0  0  0  0  0  0  0  0  0
   -3.5939   -1.3942   -2.3246 H   0  0  0  0  0  0  0  0  0  0  0  0
   -1.2784   -2.6402   -1.9098 C   0  0  0  0  0  0  0  0  0  0  0  0
   -1.3132   -1.9749   -2.7971 H   0  0  0  0  0  0  0  0  0  0  0  0
   -1.6061   -3.6522   -2.2482 H   0  0  0  0  0  0  0  0  0  0  0  0
    0.1198   -2.6969   -1.3545 C   0  0  0  0  0  0  0  0  0  0  0  0
    0.5159   -3.7586   -0.5206 C   0  0  0  0  0  0  0  0  0  0  0  0
   -0.1833   -4.5879   -0.3222 H   0  0  0  0  0  0  0  0  0  0  0  0
    1.7933   -3.7999    0.0600 C   0  0  0  0  0  0  0  0  0  0  0  0
    2.0669   -4.6435    0.7070 H   0  0  0  0  0  0  0  0  0  0  0  0
    2.7128   -2.7660   -0.2178 C   0  0  0  0  0  0  0  0  0  0  0  0
    2.3364   -1.7070   -1.0731 C   0  0  0  0  0  0  0  0  0  0  0  0
    3.0774   -0.9271   -1.2957 H   0  0  0  0  0  0  0  0  0  0  0  0
    1.0519   -1.6672   -1.6162 C   0  0  0  0  0  0  0  0  0  0  0  0
    0.7744   -0.8244   -2.2709 H   0  0  0  0  0  0  0  0  0  0  0  0
    4.4078   -3.7143    1.1762 C   0  0  0  0  0  0  0  0  0  0  0  0
    5.4400   -3.4496    1.4681 H   0  0  0  0  0  0  0  0  0  0  0  0
    4.4151   -4.7059    0.6733 H   0  0  0  0  0  0  0  0  0  0  0  0
    3.7754   -3.7736    2.0894 H   0  0  0  0  0  0  0  0  0  0  0  0
   -4.5458    0.3685    1.3747 C   0  0  0  0  0  0  0  0  0  0  0  0
   -5.5926    0.0695    1.6327 H   0  0  0  0  0  0  0  0  0  0  0  0
   -4.5230    1.4756    1.4532 H   0  0  0  0  0  0  0  0  0  0  0  0
   -3.5992   -0.2081    2.4325 C   0  0  0  0  0  0  0  0  0  0  0  0
   -4.0049    0.0404    3.4422 H   0  0  0  0  0  0  0  0  0  0  0  0
   -3.5866   -1.3177    2.3754 H   0  0  0  0  0  0  0  0  0  0  0  0
   -1.2682   -0.3374    3.2399 C   0  0  0  0  0  0  0  0  0  0  0  0
   -1.3027   -1.4383    3.1053 H   0  0  0  0  0  0  0  0  0  0  0  0
   -1.5938   -0.1269    4.2867 H   0  0  0  0  0  0  0  0  0  0  0  0
    0.1293    0.1732    3.0097 C   0  0  0  0  0  0  0  0  0  0  0  0
    1.0611   -0.5662    2.2464 C   0  0  0  0  0  0  0  0  0  0  0  0
    0.7839   -1.5542    1.8425 H   0  0  0  0  0  0  0  0  0  0  0  0
    2.3447   -0.0744    2.0085 C   0  0  0  0  0  0  0  0  0  0  0  0
    3.0856   -0.6554    1.4422 H   0  0  0  0  0  0  0  0  0  0  0  0
    2.7206    1.1954    2.4994 C   0  0  0  0  0  0  0  0  0  0  0  0
    1.8014    1.9510    3.2581 C   0  0  0  0  0  0  0  0  0  0  0  0
    2.0746    2.9327    3.6663 H   0  0  0  0  0  0  0  0  0  0  0  0
    0.5249    1.4259    3.5135 C   0  0  0  0  0  0  0  0  0  0  0  0
   -0.1741    2.0106    4.1344 H   0  0  0  0  0  0  0  0  0  0  0  0
    4.4143    2.8779    2.6247 C   0  0  0  0  0  0  0  0  0  0  0  0
    5.4461    2.9998    2.2488 H   0  0  0  0  0  0  0  0  0  0  0  0
    4.4227    2.9362    3.7350 H   0  0  0  0  0  0  0  0  0  0  0  0
    3.7809    3.6988    2.2216 H   0  0  0  0  0  0  0  0  0  0  0  0
   -4.5504    1.0049   -0.9973 C   0  0  0  0  0  0  0  0  0  0  0  0
   -5.5971    1.3768   -0.8637 H   0  0  0  0  0  0  0  0  0  0  0  0
   -4.5306    0.5196   -1.9955 H   0  0  0  0  0  0  0  0  0  0  0  0
   -3.6052    2.2104   -1.0298 C   0  0  0  0  0  0  0  0  0  0  0  0
   -4.0137    2.9599   -1.7490 H   0  0  0  0  0  0  0  0  0  0  0  0
   -3.5903    2.7159   -0.0405 H   0  0  0  0  0  0  0  0  0  0  0  0
   -1.2755    2.9760   -1.3267 C   0  0  0  0  0  0  0  0  0  0  0  0
   -1.3088    3.4093   -0.3057 H   0  0  0  0  0  0  0  0  0  0  0  0
   -1.6021    3.7774   -2.0317 H   0  0  0  0  0  0  0  0  0  0  0  0
    0.1217    2.5216   -1.6554 C   0  0  0  0  0  0  0  0  0  0  0  0
    1.0542    2.2300   -0.6341 C   0  0  0  0  0  0  0  0  0  0  0  0
    0.7775    2.3739    0.4236 H   0  0  0  0  0  0  0  0  0  0  0  0
    2.3376    1.7779   -0.9421 C   0  0  0  0  0  0  0  0  0  0  0  0
    3.0790    1.5777   -0.1565 H   0  0  0  0  0  0  0  0  0  0  0  0
    2.7123    1.5683   -2.2875 C   0  0  0  0  0  0  0  0  0  0  0  0
    1.7924    1.8480   -3.3205 C   0  0  0  0  0  0  0  0  0  0  0  0
    2.0648    1.7109   -4.3751 H   0  0  0  0  0  0  0  0  0  0  0  0
    0.5162    2.3318   -2.9924 C   0  0  0  0  0  0  0  0  0  0  0  0
   -0.1833    2.5774   -3.8088 H   0  0  0  0  0  0  0  0  0  0  0  0
    4.4052    0.8363   -3.8086 C   0  0  0  0  0  0  0  0  0  0  0  0
    5.4371    0.4497   -3.7270 H   0  0  0  0  0  0  0  0  0  0  0  0
    4.4132    1.7691   -4.4136 H   0  0  0  0  0  0  0  0  0  0  0  0
    3.7717    0.0769   -4.3182 H   0  0  0  0  0  0  0  0  0  0  0  0
   -4.1914    0.0017    0.0042 N   0  0  0  0  0  0  0  0  0  0  0  0
   -2.2234   -2.0936   -0.9088 N   0  0  0  0  0  0  0  0  0  0  0  0
   -2.1974   -2.7125   -0.0855 H   0  0  0  0  0  0  0  0  0  0  0  0
   -2.2158    0.2578    2.2696 N   0  0  0  0  0  0  0  0  0  0  0  0
   -2.1890    1.2800    2.3953 H   0  0  0  0  0  0  0  0  0  0  0  0
   -2.2224    1.8376   -1.3556 N   0  0  0  0  0  0  0  0  0  0  0  0
    3.9655   -2.6874    0.2999 O   0  0  0  0  0  0  0  0  0  0  0  0
    3.9725    1.6061    2.1716 O   0  0  0  0  0  0  0  0  0  0  0  0
    3.9640    1.0789   -2.4803 O   0  0  0  0  0  0  0  0  0  0  0  0
   -2.1975    1.4358   -2.3040 H   0  0  0  0  0  0  0  0  0  0  0  0
  1 70  1  0  0  0  0
  1  3  1  0  0  0  0
  2  1  1  0  0  0  0
  4 71  1  0  0  0  0
  4  1  1  0  0  0  0
  5  4  1  0  0  0  0
  6  4  1  0  0  0  0
  7 10  1  0  0  0  0
  7 71  1  0  0  0  0
  8  7  1  0  0  0  0
  9  7  1  0  0  0  0
 10 11  1  0  0  0  0
 11 12  1  0  0  0  0
 11 13  2  0  0  0  0
 13 14  1  0  0  0  0
 15 13  1  0  0  0  0
 15 76  1  0  0  0  0
 16 15  2  0  0  0  0
 17 16  1  0  0  0  0
 18 10  2  0  0  0  0
 18 16  1  0  0  0  0
 19 18  1  0  0  0  0
 20 21  1  0  0  0  0
 20 23  1  0  0  0  0
 22 20  1  0  0  0  0
 24 26  1  0  0  0  0
 24 25  1  0  0  0  0
 24 27  1  0  0  0  0
 27 28  1  0  0  0  0
 29 27  1  0  0  0  0
 30 32  1  0  0  0  0
 31 30  1  0  0  0  0
 33 30  1  0  0  0  0
 33 41  1  0  0  0  0
 34 33  2  0  0  0  0
 35 34  1  0  0  0  0
 36 34  1  0  0  0  0
 36 38  2  0  0  0  0
 37 36  1  0  0  0  0
 38 39  1  0  0  0  0
 39 41  2  0  0  0  0
 39 40  1  0  0  0  0
 41 42  1  0  0  0  0
 43 45  1  0  0  0  0
 44 43  1  0  0  0  0
 46 43  1  0  0  0  0
 47 48  1  0  0  0  0
 47 70  1  0  0  0  0
 49 47  1  0  0  0  0
 50 47  1  0  0  0  0
 50 52  1  0  0  0  0
 51 50  1  0  0  0  0
 53 54  1  0  0  0  0
 55 53  1  0  0  0  0
 56 53  1  0  0  0  0
 56 57  1  0  0  0  0
 57 58  1  0  0  0  0
 59 57  2  0  0  0  0
 59 60  1  0  0  0  0
 61 59  1  0  0  0  0
 62 64  1  0  0  0  0
 62 61  2  0  0  0  0
 63 62  1  0  0  0  0
 64 56  2  0  0  0  0
 65 64  1  0  0  0  0
 66 67  1  0  0  0  0
 66 78  1  0  0  0  0
 68 66  1  0  0  0  0
 69 66  1  0  0  0  0
 70 24  1  0  0  0  0
 71 72  1  0  0  0  0
 73 74  1  0  0  0  0
 73 27  1  0  0  0  0
 73 30  1  0  0  0  0
 75 53  1  0  0  0  0
 75 50  1  0  0  0  0
 76 20  1  0  0  0  0
 77 38  1  0  0  0  0
 77 43  1  0  0  0  0
 78 61  1  0  0  0  0
 79 75  1  0  0  0  0
M  END
