2,3,6
q = -1.0, confidence = 0.0

 35 37  0  0  1  0  0  0  0  0999 V2000
    3.8225    1.5653    0.8413 O   0  0  0  0  0  0  0  0  0  0  0  0
    0.3174    1.6127    1.5242 N   0  0  0  0  0  2  0  0  0  0  0  0
    1.9326    0.5230   -0.1000 N   0  0  0  0  0  2  0  0  0  0  0  0
    1.1215    3.2580    3.6737 N   0  0  0  0  0  0  0  0  0  0  0  0
    2.4975   -0.0799   -1.1964 C   0  0  0  0  0  0  0  0  0  0  0  0
    0.2494   -0.8822   -1.4270 N   0  0  0  0  0  2  0  0  0  0  0  0
   -0.4357   -1.9107   -1.7788 N   0  0  0  0  0  2  0  0  0  0  0  0
    1.5675   -0.8551   -1.9465 C   0  0  0  0  0  0  0  0  0  0  0  0
    1.6284    1.9057    1.7472 C   0  0  2  0  0  3  0  0  0  0  0  0
   -0.1694    2.9597    3.4393 C   0  0  0  0  0  0  0  0  0  0  0  0
   -0.9225    3.3855    4.1239 H   0  0  0  0  0  0  0  0  0  0  0  0
   -0.5861    2.1447    2.3782 C   0  0  0  0  0  0  0  0  0  0  0  0
   -1.6465    1.9127    2.2086 H   0  0  0  0  0  0  0  0  0  0  0  0
    1.9661   -1.5701   -3.0921 C   0  0  0  0  0  0  0  0  0  0  0  0
    1.2135   -2.1580   -3.6347 H   0  0  0  0  0  0  0  0  0  0  0  0
    4.2282   -0.7276   -2.7694 C   0  0  0  0  0  0  0  0  0  0  0  0
    5.2763   -0.6816   -3.1030 H   0  0  0  0  0  0  0  0  0  0  0  0
   -4.6287   -2.0461   -1.4510 C   0  0  0  0  0  0  0  0  0  0  0  0
   -5.7247   -2.0921   -1.3685 H   0  0  0  0  0  0  0  0  0  0  0  0
   -2.4440   -3.0333   -1.0340 C   0  0  0  0  0  0  0  0  0  0  0  0
   -1.8113   -3.8381   -0.6327 H   0  0  0  0  0  0  0  0  0  0  0  0
   -1.8217   -1.9103   -1.6268 C   0  0  0  0  0  0  0  0  0  0  0  0
    2.0076    2.7279    2.8210 C   0  0  0  0  0  0  0  0  0  0  0  0
    3.0815    2.9383    2.9601 H   0  0  0  0  0  0  0  0  0  0  0  0
   -2.6226   -0.8805   -2.1757 C   0  0  0  0  0  0  0  0  0  0  0  0
   -2.1313   -0.0456   -2.6946 H   0  0  0  0  0  0  0  0  0  0  0  0
   -4.0167   -0.9536   -2.0872 C   0  0  0  0  0  0  0  0  0  0  0  0
   -4.6275   -0.1376   -2.5006 H   0  0  0  0  0  0  0  0  0  0  0  0
    3.8475   -0.0176   -1.6279 C   0  0  0  0  0  0  0  0  0  0  0  0
    4.5591    0.5672   -1.0336 H   0  0  0  0  0  0  0  0  0  0  0  0
   -3.8376   -3.0855   -0.9302 C   0  0  0  0  0  0  0  0  0  0  0  0
   -4.3131   -3.9446   -0.4339 H   0  0  0  0  0  0  0  0  0  0  0  0
    2.6104    1.3193    0.7884 C   0  0  0  0  0  0  0  0  0  0  0  0
    3.2995   -1.5031   -3.5016 C   0  0  0  0  0  0  0  0  0  0  0  0
    3.6243   -2.0448   -4.4024 H   0  0  0  0  0  0  0  0  0  0  0  0
  2  9  1  0  0  0  0
  2 12  1  0  0  0  0
  3 33  1  0  0  0  0
  5  3  1  0  0  0  0
  7 22  1  0  0  0  0
  7  6  1  0  0  0  0
  8  6  1  0  0  0  0
  8  5  2  0  0  0  0
  9 33  1  6  0  0  0
  9 23  1  0  0  0  0
 10  4  1  0  0  0  0
 10 11  1  0  0  0  0
 12 10  2  0  0  0  0
 13 12  1  0  0  0  0
 14  8  1  0  0  0  0
 15 14  1  0  0  0  0
 16 29  2  0  0  0  0
 17 16  1  0  0  0  0
 18 19  1  0  0  0  0
 18 31  1  0  0  0  0
 20 31  2  0  0  0  0
 20 21  1  0  0  0  0
 22 20  1  0  0  0  0
 23 24  1  0  0  0  0
 23  4  2  0  0  0  0
 25 27  1  0  0  0  0
 25 22  2  0  0  0  0
 26 25  1  0  0  0  0
 27 18  2  0  0  0  0
 28 27  1  0  0  0  0
 29  5  1  0  0  0  0
 29 30  1  0  0  0  0
 31 32  1  0  0  0  0
 33  1  2  0  0  0  0
 34 14  2  0  0  0  0
 34 16  1  0  0  0  0
 35 34  1  0  0  0  0
M  END
