1,2,15
q = -1.0, confidence = 0.0

 27 29  0  0  0  0  0  0  0  0999 V2000
   -2.0365   -0.3042   -0.0001 N   0  0  0  0  0  2  0  0  0  0  0  0
    0.0000    1.1543   -0.0000 N   0  0  0  0  0  2  0  0  0  0  0  0
   -3.0327   -1.2056   -0.0000 C   0  0  0  0  0  0  0  0  0  0  0  0
   -4.3797   -0.8221    0.0001 C   0  0  0  0  0  0  0  0  0  0  0  0
   -4.6880    0.5486    0.0002 C   0  0  0  0  0  0  0  0  0  0  0  0
   -3.6551    1.4913    0.0001 C   0  0  0  0  0  0  0  0  0  0  0  0
   -2.3142    1.0601    0.0001 C   0  0  0  0  0  0  0  0  0  0  0  0
   -1.1294    1.9007   -0.0000 C   0  0  0  0  0  0  0  0  0  0  0  0
   -0.7076    3.2669   -0.0002 C   0  0  0  0  0  0  0  0  0  0  0  0
   -2.7050   -2.2585   -0.0002 H   0  0  0  0  0  0  0  0  0  0  0  0
   -5.1649   -1.5905    0.0001 H   0  0  0  0  0  0  0  0  0  0  0  0
   -5.7365    0.8827    0.0002 H   0  0  0  0  0  0  0  0  0  0  0  0
   -3.8660    2.5699    0.0001 H   0  0  0  0  0  0  0  0  0  0  0  0
   -1.3525    4.1532   -0.0002 H   0  0  0  0  0  0  0  0  0  0  0  0
    2.0365   -0.3042    0.0002 N   0  0  0  0  0  2  0  0  0  0  0  0
    3.0327   -1.2056    0.0003 C   0  0  0  0  0  0  0  0  0  0  0  0
    4.3797   -0.8221    0.0001 C   0  0  0  0  0  0  0  0  0  0  0  0
    4.6880    0.5486    0.0000 C   0  0  0  0  0  0  0  0  0  0  0  0
    3.6551    1.4913   -0.0000 C   0  0  0  0  0  0  0  0  0  0  0  0
    2.3142    1.0601    0.0000 C   0  0  0  0  0  0  0  0  0  0  0  0
    1.1294    1.9007   -0.0000 C   0  0  0  0  0  0  0  0  0  0  0  0
    0.7076    3.2669   -0.0002 C   0  0  0  0  0  0  0  0  0  0  0  0
    2.7050   -2.2585    0.0004 H   0  0  0  0  0  0  0  0  0  0  0  0
    5.1649   -1.5905    0.0002 H   0  0  0  0  0  0  0  0  0  0  0  0
    5.7365    0.8827   -0.0000 H   0  0  0  0  0  0  0  0  0  0  0  0
    3.8660    2.5699   -0.0001 H   0  0  0  0  0  0  0  0  0  0  0  0
    1.3525    4.1532   -0.0003 H   0  0  0  0  0  0  0  0  0  0  0  0
  1  3  1  0  0  0  0
  1  7  1  0  0  0  0
  2  8  1  0  0  0  0
  2 21  1  0  0  0  0
  3  4  2  0  0  0  0
  4 11  1  0  0  0  0
  4  5  1  0  0  0  0
  5 12  1  0  0  0  0
  6  5  2  0  0  0  0
  7  6  1  0  0  0  0
  8  7  2  0  0  0  0
  9  8  1  0  0  0  0
 10  3  1  0  0  0  0
 13  6  1  0  0  0  0
 14  9  1  0  0  0  0
 15 16  1  0  0  0  0
 16 23  1  0  0  0  0
 17 24  1  0  0  0  0
 17 16  2  0  0  0  0
 18 17  1  0  0  0  0
 19 18  2  0  0  0  0
 19 20  1  0  0  0  0
 20 15  1  0  0  0  0
 21 20  2  0  0  0  0
 22  9  2  0  0  0  0
 22 21  1  0  0  0  0
 25 18  1  0  0  0  0
 26 19  1  0  0  0  0
 27 22  1  0  0  0  0
M  END
