1,3,6
q = 0.0, confidence = 0.998

 29 31  0  0  1  0  0  0  0  0999 V2000
   -0.4168    1.5277    0.5767 N   0  0  0  0  0  2  0  0  0  0  0  0
   -1.7567    1.2978    0.4895 N   0  0  0  0  0  0  0  0  0  0  0  0
   -0.4171   -1.2635    1.0344 N   0  0  0  0  0  2  0  0  0  0  0  0
   -2.2572    0.0003    0.0004 C   0  0  2  0  0  0  0  0  0  0  0  0
   -1.7570   -1.0723    0.8793 N   0  0  0  0  0  0  0  0  0  0  0  0
   -0.4173   -0.2641   -1.6111 N   0  0  0  0  0  2  0  0  0  0  0  0
   -0.2755    2.7777    1.0471 C   0  0  0  0  0  3  0  0  0  0  0  0
    0.7296    3.1870    1.2014 H   0  0  0  0  0  0  0  0  0  0  0  0
   -1.7572   -0.2247   -1.3680 N   0  0  0  0  0  0  0  0  0  0  0  0
   -1.5386    3.3674    1.2686 C   0  0  0  0  0  0  0  0  0  0  0  0
   -1.7512    4.3722    1.6466 H   0  0  0  0  0  0  0  0  0  0  0  0
   -2.4647    2.4002    0.9042 C   0  0  0  0  0  0  0  0  0  0  0  0
   -3.5571    2.4281    0.9140 H   0  0  0  0  0  0  0  0  0  0  0  0
   -0.2763   -2.2966    1.8810 C   0  0  0  0  0  3  0  0  0  0  0  0
    0.7288   -2.6355    2.1580 H   0  0  0  0  0  0  0  0  0  0  0  0
   -1.5395   -2.7827    2.2811 C   0  0  0  0  0  0  0  0  0  0  0  0
   -1.7524   -3.6127    2.9620 H   0  0  0  0  0  0  0  0  0  0  0  0
   -2.4653   -1.9828    1.6262 C   0  0  0  0  0  0  0  0  0  0  0  0
   -3.5577   -2.0047    1.6454 H   0  0  0  0  0  0  0  0  0  0  0  0
   -2.4657   -0.4169   -2.5297 C   0  0  0  0  0  3  0  0  0  0  0  0
   -3.5581   -0.4222   -2.5582 H   0  0  0  0  0  0  0  0  0  0  0  0
   -1.5400   -0.5847   -3.5499 C   0  0  0  0  0  0  0  0  0  0  0  0
   -1.7530   -0.7597   -4.6090 H   0  0  0  0  0  0  0  0  0  0  0  0
   -0.2767   -0.4814   -2.9290 C   0  0  0  0  0  0  0  0  0  0  0  0
    0.7283   -0.5523   -3.3611 H   0  0  0  0  0  0  0  0  0  0  0  0
   -3.7825    0.0003    0.0002 C   0  0  0  0  0  0  0  0  0  0  0  0
   -4.1613   -0.9698   -0.3652 H   0  0  0  0  0  0  0  0  0  0  0  0
   -4.1612    0.8017   -0.6575 H   0  0  0  0  0  0  0  0  0  0  0  0
   -4.1617    0.1691    1.0229 H   0  0  0  0  0  0  0  0  0  0  0  0
  1  7  1  0  0  0  0
  2  1  1  0  0  0  0
  2 12  1  0  0  0  0
  3 14  1  0  0  0  0
  4 26  1  1  0  0  0
  4  2  1  0  0  0  0
  4  5  1  0  0  0  0
  5  3  1  0  0  0  0
  5 18  1  0  0  0  0
  6  9  1  0  0  0  0
  7  8  1  0  0  0  0
  7 10  1  0  0  0  0
  9  4  1  0  0  0  0
 10 11  1  0  0  0  0
 12 13  1  0  0  0  0
 12 10  2  0  0  0  0
 14 15  1  0  0  0  0
 14 16  1  0  0  0  0
 16 17  1  0  0  0  0
 18 19  1  0  0  0  0
 18 16  2  0  0  0  0
 20  9  1  0  0  0  0
 21 20  1  0  0  0  0
 22 24  2  0  0  0  0
 22 20  1  0  0  0  0
 23 22  1  0  0  0  0
 24  6  1  0  0  0  0
 25 24  1  0  0  0  0
 26 29  1  0  0  0  0
 27 26  1  0  0  0  0
 28 26  1  0  0  0  0
M  END
