1,6,19
q = 0.0, confidence = 0.984

 44 46  0  0  1  0  0  0  0  0999 V2000
   -0.9368   -1.0280   -1.0451 N   0  0  0  0  0  0  0  0  0  0  0  0
   -2.2912   -1.4835   -1.4868 C   0  0  0  0  0  0  0  0  0  0  0  0
   -2.2754   -2.5467   -1.8102 H   0  0  0  0  0  0  0  0  0  0  0  0
   -2.5830   -0.8670   -2.3627 H   0  0  0  0  0  0  0  0  0  0  0  0
   -3.3007   -1.2571   -0.3833 C   0  0  1  0  0  3  0  0  0  0  0  0
   -3.1005   -0.1295    0.3617 N   0  0  0  0  0  2  0  0  0  0  0  0
   -3.9744    0.2223    1.3275 C   0  0  0  0  0  0  0  0  0  0  0  0
   -3.7346    1.1540    1.8639 H   0  0  0  0  0  0  0  0  0  0  0  0
   -5.1084   -0.5544    1.5934 C   0  0  0  0  0  0  0  0  0  0  0  0
   -5.8060   -0.2393    2.3820 H   0  0  0  0  0  0  0  0  0  0  0  0
   -5.3261   -1.7209    0.8487 C   0  0  0  0  0  0  0  0  0  0  0  0
   -6.2046   -2.3534    1.0438 H   0  0  0  0  0  0  0  0  0  0  0  0
   -4.4071   -2.0793   -0.1516 C   0  0  0  0  0  0  0  0  0  0  0  0
   -4.5500   -2.9885   -0.7530 H   0  0  0  0  0  0  0  0  0  0  0  0
   -0.0129   -0.6511   -2.1605 C   0  0  0  0  0  0  0  0  0  0  0  0
    0.5362   -1.5338   -2.5498 H   0  0  0  0  0  0  0  0  0  0  0  0
   -0.6412   -0.2558   -2.9858 H   0  0  0  0  0  0  0  0  0  0  0  0
    0.9425    0.4387   -1.7234 C   0  0  2  0  0  3  0  0  0  0  0  0
    0.4328    1.3572   -0.8511 N   0  0  0  0  0  2  0  0  0  0  0  0
    1.1740    2.4076   -0.4428 C   0  0  0  0  0  0  0  0  0  0  0  0
    0.6742    3.0924    0.2602 H   0  0  0  0  0  0  0  0  0  0  0  0
    2.4859    2.5863   -0.8942 C   0  0  0  0  0  0  0  0  0  0  0  0
    3.0673    3.4487   -0.5400 H   0  0  0  0  0  0  0  0  0  0  0  0
    3.0334    1.6476   -1.7784 C   0  0  0  0  0  0  0  0  0  0  0  0
    4.0681    1.7538   -2.1361 H   0  0  0  0  0  0  0  0  0  0  0  0
    2.2504    0.5621   -2.2009 C   0  0  0  0  0  0  0  0  0  0  0  0
    2.6547   -0.1945   -2.8877 H   0  0  0  0  0  0  0  0  0  0  0  0
   -0.3352   -2.0634   -0.1188 C   0  0  0  0  0  0  0  0  0  0  0  0
   -1.0206   -2.1449    0.7480 H   0  0  0  0  0  0  0  0  0  0  0  0
   -0.3551   -3.0349   -0.6605 H   0  0  0  0  0  0  0  0  0  0  0  0
    1.0716   -1.7475    0.3149 C   0  0  0  0  0  0  0  0  0  0  0  0
    1.3218   -0.7682    1.2995 C   0  0  0  0  0  0  0  0  0  0  0  0
    0.4781   -0.2801    1.8135 H   0  0  0  0  0  0  0  0  0  0  0  0
    2.6323   -0.3893    1.6001 C   0  0  0  0  0  0  0  0  0  0  0  0
    2.8488    0.3908    2.3446 H   0  0  0  0  0  0  0  0  0  0  0  0
    3.7159   -1.0063    0.9435 C   0  0  0  0  0  0  0  0  0  0  0  0
    3.4776   -2.0328    0.0100 C   0  0  0  0  0  0  0  0  0  0  0  0
    4.3277   -2.5343   -0.4726 H   0  0  0  0  0  0  0  0  0  0  0  0
    2.1612   -2.3948   -0.3023 C   0  0  0  0  0  0  0  0  0  0  0  0
    1.9772   -3.1913   -1.0410 H   0  0  0  0  0  0  0  0  0  0  0  0
    5.0958   -0.5230    1.2740 C   0  0  0  0  0  0  0  0  0  0  0  0
    6.0583   -1.2385    0.6474 O   0  0  0  0  0  0  0  0  0  0  0  0
    6.9159   -0.8553    0.9348 H   0  0  0  0  0  0  0  0  0  0  0  0
    5.3265    0.4162    2.0132 O   0  0  0  0  0  0  0  0  0  0  0  0
  1 28  1  0  0  0  0
  2  1  1  0  0  0  0
  3  2  1  0  0  0  0
  4  2  1  0  0  0  0
  5  2  1  6  0  0  0
  5 13  1  0  0  0  0
  5  6  1  0  0  0  0
  6  7  1  0  0  0  0
  7  9  2  0  0  0  0
  7  8  1  0  0  0  0
  9 10  1  0  0  0  0
 11 12  1  0  0  0  0
 11  9  1  0  0  0  0
 13 11  2  0  0  0  0
 14 13  1  0  0  0  0
 15  1  1  0  0  0  0
 16 15  1  0  0  0  0
 17 15  1  0  0  0  0
 18 15  1  6  0  0  0
 18 19  1  0  0  0  0
 19 20  1  0  0  0  0
 20 21  1  0  0  0  0
 22 23  1  0  0  0  0
 22 20  2  0  0  0  0
 24 22  1  0  0  0  0
 25 24  1  0  0  0  0
 26 24  2  0  0  0  0
 26 18  1  0  0  0  0
 27 26  1  0  0  0  0
 28 31  1  0  0  0  0
 28 29  1  0  0  0  0
 30 28  1  0  0  0  0
 31 32  1  0  0  0  0
 32 34  2  0  0  0  0
 32 33  1  0  0  0  0
 34 35  1  0  0  0  0
 36 41  1  0  0  0  0
 36 34  1  0  0  0  0
 37 36  2  0  0  0  0
 38 37  1  0  0  0  0
 39 37  1  0  0  0  0
 39 31  2  0  0  0  0
 40 39  1  0  0  0  0
 41 44  2  0  0  0  0
 42 43  1  0  0  0  0
 42 41  1  0  0  0  0
M  END
