2,3,4
q = 0.0, confidence = 1.0

 42 44  0  0  0  0  0  0  0  0999 V2000
   -1.7030    1.5780   -0.6376 N   0  0  0  0  0  0  0  0  0  0  0  0
    1.1814    1.1427   -1.0398 N   0  0  0  0  0  2  0  0  0  0  0  0
    1.9086   -1.3829    0.4942 N   0  0  0  0  0  0  0  0  0  0  0  0
   -0.3723   -0.9955   -1.2159 N   0  0  0  0  0  2  0  0  0  0  0  0
   -1.0171    1.9087   -1.8805 C   0  0  0  0  0  0  0  0  0  0  0  0
    0.4435    2.2652   -1.6047 C   0  0  0  0  0  0  0  0  0  0  0  0
    2.4477    1.0056   -1.3242 C   0  0  0  0  0  3  0  0  0  0  0  0
    3.4433    0.1447   -0.7099 C   0  0  0  0  0  0  0  0  0  0  0  0
    4.7965    0.4949   -0.9830 C   0  0  0  0  0  0  0  0  0  0  0  0
    5.8568   -0.0221   -0.2429 C   0  0  0  0  0  0  0  0  0  0  0  0
    5.5883   -0.9054    0.8225 C   0  0  0  0  0  0  0  0  0  0  0  0
    4.2753   -1.3117    1.0753 C   0  0  0  0  0  0  0  0  0  0  0  0
    3.1965   -0.8522    0.2907 C   0  0  0  0  0  0  0  0  0  0  0  0
    1.4292   -2.4370   -0.4290 C   0  0  0  0  0  0  0  0  0  0  0  0
    0.7093   -1.8646   -1.6478 C   0  0  0  0  0  0  0  0  0  0  0  0
   -1.6039   -1.2727   -1.5570 C   0  0  0  0  0  3  0  0  0  0  0  0
   -2.7993   -0.5653   -1.1604 C   0  0  0  0  0  0  0  0  0  0  0  0
   -4.0061   -1.3169   -1.1737 C   0  0  0  0  0  0  0  0  0  0  0  0
   -5.1598   -0.8532   -0.5492 C   0  0  0  0  0  0  0  0  0  0  0  0
   -5.1264    0.3895    0.1190 C   0  0  0  0  0  0  0  0  0  0  0  0
   -3.9758    1.1784    0.0963 C   0  0  0  0  0  0  0  0  0  0  0  0
   -2.8138    0.7497   -0.5849 C   0  0  0  0  0  0  0  0  0  0  0  0
   -1.7613    2.3863    0.0031 H   0  0  0  0  0  0  0  0  0  0  0  0
   -1.5017    2.7764   -2.3853 H   0  0  0  0  0  0  0  0  0  0  0  0
   -1.0780    1.0509   -2.5753 H   0  0  0  0  0  0  0  0  0  0  0  0
    0.4626    3.0984   -0.8640 H   0  0  0  0  0  0  0  0  0  0  0  0
    0.9336    2.6321   -2.5332 H   0  0  0  0  0  0  0  0  0  0  0  0
    2.8676    1.7251   -2.0582 H   0  0  0  0  0  0  0  0  0  0  0  0
    4.9935    1.2399   -1.7703 H   0  0  0  0  0  0  0  0  0  0  0  0
    6.8894    0.2791   -0.4710 H   0  0  0  0  0  0  0  0  0  0  0  0
    6.4105   -1.3011    1.4373 H   0  0  0  0  0  0  0  0  0  0  0  0
    4.0667   -2.0417    1.8733 H   0  0  0  0  0  0  0  0  0  0  0  0
    1.7910   -1.7001    1.4624 H   0  0  0  0  0  0  0  0  0  0  0  0
    2.2657   -3.0919   -0.7609 H   0  0  0  0  0  0  0  0  0  0  0  0
    0.7104   -3.0610    0.1400 H   0  0  0  0  0  0  0  0  0  0  0  0
    1.4216   -1.2786   -2.2705 H   0  0  0  0  0  0  0  0  0  0  0  0
    0.3271   -2.6987   -2.2762 H   0  0  0  0  0  0  0  0  0  0  0  0
   -1.7698   -2.1951   -2.1525 H   0  0  0  0  0  0  0  0  0  0  0  0
   -3.9915   -2.3186   -1.6307 H   0  0  0  0  0  0  0  0  0  0  0  0
   -6.0741   -1.4632   -0.5472 H   0  0  0  0  0  0  0  0  0  0  0  0
   -6.0208    0.7553    0.6457 H   0  0  0  0  0  0  0  0  0  0  0  0
   -3.9602    2.1612    0.5924 H   0  0  0  0  0  0  0  0  0  0  0  0
  1 22  1  0  0  0  0
  1 23  1  0  0  0  0
  3 33  1  0  0  0  0
  5  6  1  0  0  0  0
  5  1  1  0  0  0  0
  6  2  1  0  0  0  0
  6 26  1  0  0  0  0
  7  2  1  0  0  0  0
  7  8  1  0  0  0  0
  8 13  1  0  0  0  0
  9  8  2  0  0  0  0
  9 10  1  0  0  0  0
 10 11  2  0  0  0  0
 11 12  1  0  0  0  0
 11 31  1  0  0  0  0
 12 32  1  0  0  0  0
 13  3  1  0  0  0  0
 13 12  2  0  0  0  0
 14 35  1  0  0  0  0
 14  3  1  0  0  0  0
 15  4  1  0  0  0  0
 15 14  1  0  0  0  0
 16  4  1  0  0  0  0
 16 17  1  0  0  0  0
 17 22  1  0  0  0  0
 18 17  2  0  0  0  0
 18 19  1  0  0  0  0
 19 40  1  0  0  0  0
 19 20  2  0  0  0  0
 20 41  1  0  0  0  0
 21 20  1  0  0  0  0
 21 42  1  0  0  0  0
 22 21  2  0  0  0  0
 24  5  1  0  0  0  0
 25  5  1  0  0  0  0
 27  6  1  0  0  0  0
 28  7  1  0  0  0  0
 29  9  1  0  0  0  0
 30 10  1  0  0  0  0
 34 14  1  0  0  0  0
 36 15  1  0  0  0  0
 37 15  1  0  0  0  0
 38 16  1  0  0  0  0
 39 18  1  0  0  0  0
M  END
