1,2,3
q = 0.0, confidence = 0.998

 37 38  0  0  1  0  0  0  0  0999 V2000
   -0.1862   -1.6806   -0.0674 N   0  0  0  0  0  2  0  0  0  0  0  0
    0.3225    0.4155    2.0954 N   0  0  0  0  0  0  0  0  0  0  0  0
    1.3820    0.7233   -0.4212 N   0  0  0  0  0  2  0  0  0  0  0  0
    1.6751   -1.6832    1.5542 C   0  0  0  0  0  0  0  0  0  0  0  0
    2.4466   -1.0581    1.0607 H   0  0  0  0  0  0  0  0  0  0  0  0
    2.2355   -2.4575    2.1135 H   0  0  0  0  0  0  0  0  0  0  0  0
    0.8705   -0.8732    2.5717 C   0  0  0  0  0  0  0  0  0  0  0  0
    0.0053   -1.4799    2.9054 H   0  0  0  0  0  0  0  0  0  0  0  0
    1.5020   -0.6804    3.4704 H   0  0  0  0  0  0  0  0  0  0  0  0
    0.9861   -3.7534    0.2877 C   0  0  0  0  0  0  0  0  0  0  0  0
    1.8059   -4.2840    0.7939 H   0  0  0  0  0  0  0  0  0  0  0  0
    0.1222   -4.4291   -0.5807 C   0  0  0  0  0  0  0  0  0  0  0  0
    0.2544   -5.5026   -0.7819 H   0  0  0  0  0  0  0  0  0  0  0  0
   -0.9240   -3.7049   -1.1655 C   0  0  0  0  0  0  0  0  0  0  0  0
   -1.6523   -4.1792   -1.8383 H   0  0  0  0  0  0  0  0  0  0  0  0
   -1.0418   -2.3414   -0.8865 C   0  0  0  0  0  3  0  0  0  0  0  0
   -1.8208   -1.7214   -1.3545 H   0  0  0  0  0  0  0  0  0  0  0  0
    1.2861   -0.1293   -2.7687 C   0  0  0  0  0  0  0  0  0  0  0  0
    0.5207   -0.8496   -2.4388 H   0  0  0  0  0  0  0  0  0  0  0  0
    2.0152   -0.6231   -3.4381 H   0  0  0  0  0  0  0  0  0  0  0  0
    0.7622    0.6505   -3.3642 H   0  0  0  0  0  0  0  0  0  0  0  0
    0.8064   -2.3812    0.5405 C   0  0  0  0  0  0  0  0  0  0  0  0
    2.0990    1.2706    0.6003 C   0  0  2  0  0  3  0  0  0  0  0  0
    1.3689    1.4443    1.8987 C   0  0  0  0  0  0  0  0  0  0  0  0
    2.0759    1.4714    2.7584 H   0  0  0  0  0  0  0  0  0  0  0  0
    0.8329    2.4138    1.8394 H   0  0  0  0  0  0  0  0  0  0  0  0
    3.4318    1.6722    0.4663 C   0  0  0  0  0  0  0  0  0  0  0  0
    3.9560    2.1082    1.3286 H   0  0  0  0  0  0  0  0  0  0  0  0
    4.0689    1.4946   -0.7674 C   0  0  0  0  0  0  0  0  0  0  0  0
    5.1150    1.8018   -0.9137 H   0  0  0  0  0  0  0  0  0  0  0  0
    2.0028    0.5063   -1.6166 C   0  0  0  0  0  0  0  0  0  0  0  0
   -0.6370    0.9068    3.1103 C   0  0  0  0  0  0  0  0  0  0  0  0
   -1.4676    0.1863    3.1971 H   0  0  0  0  0  0  0  0  0  0  0  0
   -1.0533    1.8687    2.7664 H   0  0  0  0  0  0  0  0  0  0  0  0
   -0.1218    1.0386    4.0882 H   0  0  0  0  0  0  0  0  0  0  0  0
    3.3483    0.8945   -1.7994 C   0  0  0  0  0  0  0  0  0  0  0  0
    3.8149    0.7112   -2.7777 H   0  0  0  0  0  0  0  0  0  0  0  0
  1 22  1  0  0  0  0
  2  7  1  0  0  0  0
  2 32  1  0  0  0  0
  3 23  1  0  0  0  0
  4  6  1  0  0  0  0
  4  7  1  0  0  0  0
  5  4  1  0  0  0  0
  7  8  1  0  0  0  0
  7  9  1  0  0  0  0
 10 22  2  0  0  0  0
 10 11  1  0  0  0  0
 12 10  1  0  0  0  0
 13 12  1  0  0  0  0
 14 16  1  0  0  0  0
 14 12  2  0  0  0  0
 15 14  1  0  0  0  0
 16  1  1  0  0  0  0
 17 16  1  0  0  0  0
 18 19  1  0  0  0  0
 18 31  1  0  0  0  0
 20 18  1  0  0  0  0
 21 18  1  0  0  0  0
 22  4  1  0  0  0  0
 23 24  1  6  0  0  0
 24  2  1  0  0  0  0
 24 25  1  0  0  0  0
 26 24  1  0  0  0  0
 27 23  1  0  0  0  0
 27 28  1  0  0  0  0
 29 27  2  0  0  0  0
 30 29  1  0  0  0  0
 31  3  1  0  0  0  0
 32 33  1  0  0  0  0
 32 35  1  0  0  0  0
 34 32  1  0  0  0  0
 36 31  2  0  0  0  0
 36 29  1  0  0  0  0
 37 36  1  0  0  0  0
M  END
