1,2,3
q = 0.0, confidence = 1.0

 42 43  0  0  1  0  0  0  0  0999 V2000
    0.8540   -0.0450   -0.4029 N   0  0  0  0  0  2  0  0  0  0  0  0
   -1.5082    1.5648   -0.1856 N   0  0  0  0  0  2  0  0  0  0  0  0
   -0.4223   -0.3715    1.9499 N   0  0  0  0  0  0  0  0  0  0  0  0
    4.9258    0.7443   -0.6318 O   0  0  0  0  0  0  0  0  0  0  0  0
    3.7687   -0.1138    1.7573 O   0  0  0  0  0  0  0  0  0  0  0  0
    1.3859    0.3069   -1.5858 C   0  0  0  0  0  3  0  0  0  0  0  0
    0.6801    0.3259   -2.4302 H   0  0  0  0  0  0  0  0  0  0  0  0
    2.7489    0.5749   -1.7371 C   0  0  0  0  0  0  0  0  0  0  0  0
    3.1278    0.8639   -2.7254 H   0  0  0  0  0  0  0  0  0  0  0  0
    3.6039    0.4682   -0.6242 C   0  0  0  0  0  0  0  0  0  0  0  0
    3.0446    0.0346    0.6142 C   0  0  0  0  0  0  0  0  0  0  0  0
    1.6649   -0.2120    0.6716 C   0  0  0  0  0  0  0  0  0  0  0  0
    0.9996   -0.7816    1.8922 C   0  0  0  0  0  0  0  0  0  0  0  0
    1.5460   -0.5105    2.8207 H   0  0  0  0  0  0  0  0  0  0  0  0
    1.0117   -1.8864    1.7929 H   0  0  0  0  0  0  0  0  0  0  0  0
    4.8981   -0.9945    1.7248 C   0  0  0  0  0  0  0  0  0  0  0  0
    4.6140   -1.9873    1.3131 H   0  0  0  0  0  0  0  0  0  0  0  0
    5.2207   -1.1169    2.7753 H   0  0  0  0  0  0  0  0  0  0  0  0
    5.7299   -0.5737    1.1261 H   0  0  0  0  0  0  0  0  0  0  0  0
    5.5273    1.1512   -1.8553 C   0  0  0  0  0  0  0  0  0  0  0  0
    5.4347    0.3654   -2.6357 H   0  0  0  0  0  0  0  0  0  0  0  0
    6.5961    1.3195   -1.6320 H   0  0  0  0  0  0  0  0  0  0  0  0
    5.0791    2.0957   -2.2324 H   0  0  0  0  0  0  0  0  0  0  0  0
   -1.1797   -1.3428    2.7662 C   0  0  0  0  0  0  0  0  0  0  0  0
   -0.7254   -1.4291    3.7789 H   0  0  0  0  0  0  0  0  0  0  0  0
   -1.1673   -2.3186    2.2472 H   0  0  0  0  0  0  0  0  0  0  0  0
   -2.2288   -1.0141    2.8576 H   0  0  0  0  0  0  0  0  0  0  0  0
   -0.5330    0.9855    2.5250 C   0  0  0  0  0  0  0  0  0  0  0  0
    0.2845    1.6070    2.1042 H   0  0  0  0  0  0  0  0  0  0  0  0
   -0.3608    0.9253    3.6247 H   0  0  0  0  0  0  0  0  0  0  0  0
   -1.8855    1.6381    2.2345 C   0  0  0  0  0  0  0  0  0  0  0  0
   -2.6871    0.8687    2.2640 H   0  0  0  0  0  0  0  0  0  0  0  0
   -2.1097    2.3934    3.0113 H   0  0  0  0  0  0  0  0  0  0  0  0
   -1.9195    2.2917    0.8849 C   0  0  1  0  0  3  0  0  0  0  0  0
   -2.3259    4.2355   -0.5180 C   0  0  0  0  0  0  0  0  0  0  0  0
   -2.6523    5.2792   -0.6409 H   0  0  0  0  0  0  0  0  0  0  0  0
   -2.3364    3.6274    0.7415 C   0  0  0  0  0  0  0  0  0  0  0  0
   -2.6672    4.1787    1.6338 H   0  0  0  0  0  0  0  0  0  0  0  0
   -1.8899    3.4786   -1.6124 C   0  0  0  0  0  0  0  0  0  0  0  0
   -1.8629    3.8955   -2.6293 H   0  0  0  0  0  0  0  0  0  0  0  0
   -1.4979    2.1538   -1.4028 C   0  0  0  0  0  0  0  0  0  0  0  0
   -1.2182    1.4859   -2.2318 H   0  0  0  0  0  0  0  0  0  0  0  0
  1 12  1  0  0  0  0
  2 34  1  0  0  0  0
  3 28  1  0  0  0  0
  3 24  1  0  0  0  0
  4 10  1  0  0  0  0
  6  1  1  0  0  0  0
  7  6  1  0  0  0  0
  8  6  1  0  0  0  0
  8 10  2  0  0  0  0
  9  8  1  0  0  0  0
 10 11  1  0  0  0  0
 11 12  2  0  0  0  0
 11  5  1  0  0  0  0
 12 13  1  0  0  0  0
 13  3  1  0  0  0  0
 13 14  1  0  0  0  0
 15 13  1  0  0  0  0
 16  5  1  0  0  0  0
 16 18  1  0  0  0  0
 17 16  1  0  0  0  0
 19 16  1  0  0  0  0
 20 22  1  0  0  0  0
 20  4  1  0  0  0  0
 21 20  1  0  0  0  0
 23 20  1  0  0  0  0
 24 27  1  0  0  0  0
 24 25  1  0  0  0  0
 26 24  1  0  0  0  0
 28 30  1  0  0  0  0
 29 28  1  0  0  0  0
 31 32  1  0  0  0  0
 31 28  1  0  0  0  0
 31 33  1  0  0  0  0
 34 31  1  1  0  0  0
 35 37  2  0  0  0  0
 36 35  1  0  0  0  0
 37 34  1  0  0  0  0
 37 38  1  0  0  0  0
 39 41  2  0  0  0  0
 39 35  1  0  0  0  0
 40 39  1  0  0  0  0
 41  2  1  0  0  0  0
 42 41  1  0  0  0  0
M  END
