1,2,3
q = 0.0, confidence = 0.998

 46 50  0  0  1  0  0  0  0  0999 V2000
    2.7277   -1.0058   -0.1160 N   0  0  0  0  0  2  0  0  0  0  0  0
    1.5546    1.2943   -0.1091 N   0  0  0  0  0  2  0  0  0  0  0  0
   -0.9422    0.6802    0.3000 N   0  0  0  0  0  2  0  0  0  0  0  0
    3.2162   -2.2585   -0.1311 C   0  0  0  0  0  3  0  0  0  0  0  0
    2.4600   -3.0402    0.0613 H   0  0  0  0  0  0  0  0  0  0  0  0
    4.5736   -2.5105   -0.3623 C   0  0  0  0  0  0  0  0  0  0  0  0
    4.9343   -3.5487   -0.3661 H   0  0  0  0  0  0  0  0  0  0  0  0
    5.4439   -1.4334   -0.5833 C   0  0  0  0  0  0  0  0  0  0  0  0
    6.5148   -1.6033   -0.7681 H   0  0  0  0  0  0  0  0  0  0  0  0
    4.9294   -0.1321   -0.5677 C   0  0  0  0  0  0  0  0  0  0  0  0
    5.5837    0.7331   -0.7409 H   0  0  0  0  0  0  0  0  0  0  0  0
    3.5596    0.0650   -0.3325 C   0  0  0  0  0  0  0  0  0  0  0  0
    2.8978    1.3777   -0.2984 C   0  0  2  0  0  3  0  0  0  0  0  0
    3.4960    2.6413   -0.4229 C   0  0  0  0  0  0  0  0  0  0  0  0
    4.5795    2.7310   -0.5770 H   0  0  0  0  0  0  0  0  0  0  0  0
    2.6877    3.7852   -0.3317 C   0  0  0  0  0  0  0  0  0  0  0  0
    3.1401    4.7833   -0.4192 H   0  0  0  0  0  0  0  0  0  0  0  0
    1.3068    3.6610   -0.1208 C   0  0  0  0  0  0  0  0  0  0  0  0
    0.6727    4.5534   -0.0381 H   0  0  0  0  0  0  0  0  0  0  0  0
    0.7463    2.3764   -0.0096 C   0  0  0  0  0  0  0  0  0  0  0  0
   -0.6675    2.0267    0.1803 C   0  0  1  0  0  3  0  0  0  0  0  0
   -1.6908    2.9812    0.1757 C   0  0  0  0  0  0  0  0  0  0  0  0
   -1.4434    4.0472    0.0856 H   0  0  0  0  0  0  0  0  0  0  0  0
   -3.0235    2.5616    0.2494 C   0  0  0  0  0  0  0  0  0  0  0  0
   -3.8446    3.2940    0.2271 H   0  0  0  0  0  0  0  0  0  0  0  0
   -3.3032    1.1957    0.3237 C   0  0  0  0  0  0  0  0  0  0  0  0
   -4.6845    0.6091    0.3404 C   0  0  2  0  0  0  0  0  0  0  0  0
   -5.4690    1.3924    0.3158 H   0  0  0  0  0  0  0  0  0  0  0  0
   -4.7248   -0.4883    1.4456 C   0  0  0  0  0  0  0  0  0  0  0  0
   -5.7571   -0.7803    1.7093 H   0  0  0  0  0  0  0  0  0  0  0  0
   -4.1553   -0.2854    2.3749 H   0  0  0  0  0  0  0  0  0  0  0  0
   -4.0695   -1.4231    0.3958 C   0  0  2  0  0  0  0  0  0  0  0  0
   -4.3054   -2.5058    0.4275 H   0  0  0  0  0  0  0  0  0  0  0  0
   -2.5542   -1.1977    0.4022 C   0  0  0  0  0  0  0  0  0  0  0  0
   -2.0766   -1.6539    1.2948 H   0  0  0  0  0  0  0  0  0  0  0  0
   -2.0422   -1.6957   -0.4487 H   0  0  0  0  0  0  0  0  0  0  0  0
   -2.2226    0.2658    0.3585 C   0  0  0  0  0  0  0  0  0  0  0  0
   -4.7645   -0.5639   -0.7232 C   0  0  0  0  0  0  0  0  0  0  0  0
   -6.2147   -0.9907   -0.9749 C   0  0  0  0  0  0  0  0  0  0  0  0
   -6.8004   -1.1202   -0.0445 H   0  0  0  0  0  0  0  0  0  0  0  0
   -6.2370   -1.9562   -1.5211 H   0  0  0  0  0  0  0  0  0  0  0  0
   -6.7387   -0.2397   -1.6019 H   0  0  0  0  0  0  0  0  0  0  0  0
   -4.0535   -0.3897   -2.0651 C   0  0  0  0  0  0  0  0  0  0  0  0
   -2.9789   -0.1368   -1.9836 H   0  0  0  0  0  0  0  0  0  0  0  0
   -4.5450    0.4063   -2.6628 H   0  0  0  0  0  0  0  0  0  0  0  0
   -4.1161   -1.3305   -2.6500 H   0  0  0  0  0  0  0  0  0  0  0  0
  2 20  1  0  0  0  0
  3 37  1  0  0  0  0
  4  1  1  0  0  0  0
  4  5  1  0  0  0  0
  6  4  1  0  0  0  0
  7  6  1  0  0  0  0
  8 10  1  0  0  0  0
  8  6  2  0  0  0  0
  9  8  1  0  0  0  0
 10 12  2  0  0  0  0
 11 10  1  0  0  0  0
 12  1  1  0  0  0  0
 13 12  1  1  0  0  0
 13  2  1  0  0  0  0
 14 16  2  0  0  0  0
 14 13  1  0  0  0  0
 15 14  1  0  0  0  0
 16 18  1  0  0  0  0
 17 16  1  0  0  0  0
 18 19  1  0  0  0  0
 18 20  2  0  0  0  0
 21 20  1  6  0  0  0
 21  3  1  0  0  0  0
 22 21  1  0  0  0  0
 22 24  2  0  0  0  0
 23 22  1  0  0  0  0
 24 26  1  0  0  0  0
 25 24  1  0  0  0  0
 26 27  1  0  0  0  0
 26 37  2  0  0  0  0
 27 28  1  6  0  0  0
 27 29  1  0  0  0  0
 29 30  1  0  0  0  0
 29 31  1  0  0  0  0
 32 34  1  0  0  0  0
 32 33  1  1  0  0  0
 32 29  1  0  0  0  0
 34 35  1  0  0  0  0
 36 34  1  0  0  0  0
 37 34  1  0  0  0  0
 38 27  1  0  0  0  0
 38 32  1  0  0  0  0
 39 38  1  0  0  0  0
 39 40  1  0  0  0  0
 41 39  1  0  0  0  0
 42 39  1  0  0  0  0
 43 44  1  0  0  0  0
 43 38  1  0  0  0  0
 45 43  1  0  0  0  0
 46 43  1  0  0  0  0
M  END
