2,3,4
 OpenBabel05122313063D

 36 37  0  0  1  0  0  0  0  0999 V2000
    4.4445    0.1310   -1.0593 O   0  0  0  0  0  0  0  0  0  0  0  0
   -2.1264    0.6184    0.1821 N   0  0  0  0  0  2  0  0  0  0  0  0
   -0.5967   -1.5205    0.8044 N   0  0  0  0  0  2  0  0  0  0  0  0
    2.2723   -0.9499    0.4894 N   0  0  0  0  0  0  0  0  0  0  0  0
   -2.8617    1.7138   -0.0715 C   0  0  0  0  0  3  0  0  0  0  0  0
   -2.3124    2.6604   -0.2103 H   0  0  0  0  0  0  0  0  0  0  0  0
   -4.2609    1.6759   -0.1634 C   0  0  0  0  0  0  0  0  0  0  0  0
   -4.8234    2.5981   -0.3665 H   0  0  0  0  0  0  0  0  0  0  0  0
   -4.9056    0.4426    0.0052 C   0  0  0  0  0  0  0  0  0  0  0  0
   -6.0012    0.3675   -0.0631 H   0  0  0  0  0  0  0  0  0  0  0  0
   -4.1364   -0.7002    0.2515 C   0  0  0  0  0  0  0  0  0  0  0  0
   -4.6205   -1.6780    0.3688 H   0  0  0  0  0  0  0  0  0  0  0  0
   -2.7342   -0.5815    0.3358 C   0  0  0  0  0  0  0  0  0  0  0  0
   -1.8519   -1.7660    0.6022 C   0  0  2  0  0  3  0  0  0  0  0  0
   -2.4869   -3.1290    0.6711 C   0  0  0  0  0  0  0  0  0  0  0  0
   -3.1039   -3.3036   -0.2296 H   0  0  0  0  0  0  0  0  0  0  0  0
   -3.1406   -3.2092    1.5655 H   0  0  0  0  0  0  0  0  0  0  0  0
   -1.7315   -3.9315    0.7233 H   0  0  0  0  0  0  0  0  0  0  0  0
    0.3998   -2.5449    1.0335 C   0  0  0  0  0  0  0  0  0  0  0  0
    0.5319   -3.1526    0.1085 H   0  0  0  0  0  0  0  0  0  0  0  0
    0.0879   -3.2569    1.8292 H   0  0  0  0  0  0  0  0  0  0  0  0
    1.7235   -1.9050    1.4656 C   0  0  0  0  0  0  0  0  0  0  0  0
    1.5486   -1.3358    2.4007 H   0  0  0  0  0  0  0  0  0  0  0  0
    2.4663   -2.7108    1.6830 H   0  0  0  0  0  0  0  0  0  0  0  0
    2.7612   -1.6073   -0.7412 C   0  0  0  0  0  0  0  0  0  0  0  0
    1.9117   -2.0895   -1.2638 H   0  0  0  0  0  0  0  0  0  0  0  0
    3.5160   -2.3874   -0.4735 H   0  0  0  0  0  0  0  0  0  0  0  0
    3.3916   -0.5820   -1.6818 C   0  0  0  0  0  0  0  0  0  0  0  0
    3.8191   -1.0998   -2.5631 H   0  0  0  0  0  0  0  0  0  0  0  0
    2.5959    0.1113   -2.0485 H   0  0  0  0  0  0  0  0  0  0  0  0
    3.9598    0.8124    0.0871 C   0  0  0  0  0  0  0  0  0  0  0  0
    3.1934    1.5760   -0.1950 H   0  0  0  0  0  0  0  0  0  0  0  0
    4.8204    1.3436    0.5400 H   0  0  0  0  0  0  0  0  0  0  0  0
    3.3638   -0.1577    1.1021 C   0  0  0  0  0  0  0  0  0  0  0  0
    4.1644   -0.8483    1.4654 H   0  0  0  0  0  0  0  0  0  0  0  0
    2.9468    0.3898    1.9701 H   0  0  0  0  0  0  0  0  0  0  0  0
  1 31  1  0  0  0  0
  2 13  1  0  0  0  0
  3 19  1  0  0  0  0
  4 34  1  0  0  0  0
  4 22  1  0  0  0  0
  5  2  1  0  0  0  0
  6  5  1  0  0  0  0
  7  5  1  0  0  0  0
  7  9  2  0  0  0  0
  8  7  1  0  0  0  0
  9 11  1  0  0  0  0
 10  9  1  0  0  0  0
 11 13  2  0  0  0  0
 11 12  1  0  0  0  0
 13 14  1  0  0  0  0
 14 15  1  0  0  0  0
 14  3  1  1  0  0  0
 15 18  1  0  0  0  0
 15 17  1  0  0  0  0
 16 15  1  0  0  0  0
 19 22  1  0  0  0  0
 19 21  1  0  0  0  0
 20 19  1  0  0  0  0
 22 24  1  0  0  0  0
 22 23  1  0  0  0  0
 25 27  1  0  0  0  0
 25  4  1  0  0  0  0
 26 25  1  0  0  0  0
 28  1  1  0  0  0  0
 28 25  1  0  0  0  0
 29 28  1  0  0  0  0
 30 28  1  0  0  0  0
 31 33  1  0  0  0  0
 31 34  1  0  0  0  0
 32 31  1  0  0  0  0
 34 35  1  0  0  0  0
 34 36  1  0  0  0  0
M  END
