16,17,21
 OpenBabel05122313063D

 21 20  0  0  1  0  0  0  0  0999 V2000
   -0.6101   -2.5231    0.5517 C   0  0  0  0  0  0  0  0  0  0  0  0
    0.7822   -2.4870   -0.0686 C   0  0  0  0  0  0  0  0  0  0  0  0
    2.4577   -0.7277   -0.0929 C   0  0  1  0  0  3  0  0  0  0  0  0
    2.1072    1.7508    0.1134 C   0  0  1  0  0  3  0  0  0  0  0  0
    3.8085    2.8996    0.4701 H   0  0  0  0  0  0  0  0  0  0  0  0
    2.3373    3.7895    0.2731 H   0  0  0  0  0  0  0  0  0  0  0  0
    0.3001    2.5662    0.2496 H   0  0  0  0  0  0  0  0  0  0  0  0
   -1.6773   -1.6244   -0.9446 H   0  0  0  0  0  0  0  0  0  0  0  0
   -0.5212   -2.4261    1.6550 H   0  0  0  0  0  0  0  0  0  0  0  0
   -1.1067   -3.5001    0.3509 H   0  0  0  0  0  0  0  0  0  0  0  0
    0.7561   -2.8317   -1.1281 H   0  0  0  0  0  0  0  0  0  0  0  0
    1.4944   -3.1387    0.4888 H   0  0  0  0  0  0  0  0  0  0  0  0
    3.2503   -2.6147   -0.3367 H   0  0  0  0  0  0  0  0  0  0  0  0
    4.4295   -1.3922    0.0029 H   0  0  0  0  0  0  0  0  0  0  0  0
    3.8467    0.7566   -0.3190 H   0  0  0  0  0  0  0  0  0  0  0  0
   -1.4558   -1.4406    0.0540 N   0  0  0  0  0  2  0  0  0  0  0  0
    1.1938   -1.0681   -0.0316 N   0  0  0  0  0  2  0  0  0  0  0  0
    3.4692   -1.6230   -0.2513 N   0  0  0  0  0  0  0  0  0  0  0  0
    2.8808    0.5982   -0.0271 N   0  0  0  0  0  0  0  0  0  0  0  0
    2.8300    2.9009    0.1815 N   0  0  0  0  0  0  0  0  0  0  0  0
    0.8088    1.6834    0.1259 N   0  0  0  0  0  2  0  0  0  0  0  0
  1  9  1  0  0  0  0
  2 17  1  0  0  0  0
  2 12  1  0  0  0  0
  2  1  1  0  0  0  0
  3 17  1  6  0  0  0
  3 19  1  0  0  0  0
  4 21  1  6  0  0  0
  4 20  1  0  0  0  0
  8 16  1  0  0  0  0
 10  1  1  0  0  0  0
 11  2  1  0  0  0  0
 13 18  1  0  0  0  0
 15 19  1  0  0  0  0
 16  1  1  0  0  0  0
 18  3  1  0  0  0  0
 18 14  1  0  0  0  0
 19  4  1  0  0  0  0
 20  6  1  0  0  0  0
 20  5  1  0  0  0  0
 21  7  1  0  0  0  0
M  END
