1,3,5
 OpenBabel05122313063D

 26 28  0  0  0  0  0  0  0  0999 V2000
    1.4562   -1.3635   -0.6500 N   0  0  0  0  0  2  0  0  0  0  0  0
    2.6633   -1.1902   -0.0391 N   0  0  0  0  0  0  0  0  0  0  0  0
    1.4562    1.3635   -0.6500 N   0  0  0  0  0  2  0  0  0  0  0  0
    2.6633    1.1902   -0.0391 N   0  0  0  0  0  0  0  0  0  0  0  0
    0.6119   -0.0000    1.6831 N   0  0  0  0  0  2  0  0  0  0  0  0
    1.9563   -0.0000    1.9109 N   0  0  0  0  0  0  0  0  0  0  0  0
    3.5895   -2.0952   -0.4965 C   0  0  0  0  0  3  0  0  0  0  0  0
    4.6184   -2.1039   -0.1200 H   0  0  0  0  0  0  0  0  0  0  0  0
    2.9360   -2.8930   -1.4265 C   0  0  0  0  0  0  0  0  0  0  0  0
    3.3619   -3.7298   -1.9887 H   0  0  0  0  0  0  0  0  0  0  0  0
    1.6114   -2.3944   -1.4981 C   0  0  0  0  0  0  0  0  0  0  0  0
    0.7700   -2.6911   -2.1348 H   0  0  0  0  0  0  0  0  0  0  0  0
    3.5895    2.0952   -0.4965 C   0  0  0  0  0  3  0  0  0  0  0  0
    4.6184    2.1039   -0.1200 H   0  0  0  0  0  0  0  0  0  0  0  0
    2.9360    2.8930   -1.4265 C   0  0  0  0  0  0  0  0  0  0  0  0
    3.3619    3.7298   -1.9887 H   0  0  0  0  0  0  0  0  0  0  0  0
    1.6114    2.3944   -1.4981 C   0  0  0  0  0  0  0  0  0  0  0  0
    0.7700    2.6911   -2.1348 H   0  0  0  0  0  0  0  0  0  0  0  0
    2.2417   -0.0000    3.2558 C   0  0  0  0  0  3  0  0  0  0  0  0
    3.2734   -0.0000    3.6238 H   0  0  0  0  0  0  0  0  0  0  0  0
    1.0206    0.0000    3.9162 C   0  0  0  0  0  0  0  0  0  0  0  0
    0.8595    0.0000    4.9986 H   0  0  0  0  0  0  0  0  0  0  0  0
    0.0338    0.0000    2.9002 C   0  0  0  0  0  0  0  0  0  0  0  0
   -1.0588    0.0000    2.9801 H   0  0  0  0  0  0  0  0  0  0  0  0
    2.8510    0.0000    0.7723 C   0  0  0  0  0  0  0  0  0  0  0  0
    3.8885    0.0000    1.1509 H   0  0  0  0  0  0  0  0  0  0  0  0
  1  2  1  0  0  0  0
  2 25  1  0  0  0  0
  3  4  1  0  0  0  0
  4 25  1  0  0  0  0
  5  6  1  0  0  0  0
  5 23  1  0  0  0  0
  6 19  1  0  0  0  0
  7  8  1  0  0  0  0
  7  2  1  0  0  0  0
  9  7  1  0  0  0  0
 10  9  1  0  0  0  0
 11  9  2  0  0  0  0
 11  1  1  0  0  0  0
 12 11  1  0  0  0  0
 13 14  1  0  0  0  0
 13  4  1  0  0  0  0
 15 13  1  0  0  0  0
 16 15  1  0  0  0  0
 17 15  2  0  0  0  0
 17  3  1  0  0  0  0
 18 17  1  0  0  0  0
 19 20  1  0  0  0  0
 19 21  1  0  0  0  0
 21 22  1  0  0  0  0
 23 24  1  0  0  0  0
 23 21  2  0  0  0  0
 25 26  1  0  0  0  0
 25  6  1  0  0  0  0
M  END
