1,2,3
 OpenBabel05122313063D

 29 31  0  0  1  0  0  0  0  0999 V2000
   -0.6779    2.0187   -0.2340 N   0  0  0  0  0  2  0  0  0  0  0  0
   -2.2101   -0.0001    0.2086 N   0  0  0  0  0  2  0  0  0  0  0  0
   -0.6777   -2.0187   -0.2344 N   0  0  0  0  0  2  0  0  0  0  0  0
    0.2025    3.0110   -0.5009 C   0  0  0  0  0  3  0  0  0  0  0  0
    1.2215    2.6936   -0.7663 H   0  0  0  0  0  0  0  0  0  0  0  0
   -0.1508    4.3612   -0.4542 C   0  0  0  0  0  0  0  0  0  0  0  0
    0.6033    5.1267   -0.6842 H   0  0  0  0  0  0  0  0  0  0  0  0
   -1.4700    4.7094   -0.1207 C   0  0  0  0  0  0  0  0  0  0  0  0
   -1.7803    5.7632   -0.0781 H   0  0  0  0  0  0  0  0  0  0  0  0
   -2.3883    3.6901    0.1498 C   0  0  0  0  0  0  0  0  0  0  0  0
   -3.4290    3.9313    0.4057 H   0  0  0  0  0  0  0  0  0  0  0  0
   -1.9823    2.3467    0.0864 C   0  0  0  0  0  0  0  0  0  0  0  0
   -2.8642    1.1979    0.3282 C   0  0  1  0  0  3  0  0  0  0  0  0
   -4.2347    1.2159    0.6299 C   0  0  0  0  0  0  0  0  0  0  0  0
   -4.7696    2.1702    0.7278 H   0  0  0  0  0  0  0  0  0  0  0  0
   -4.9181   -0.0003    0.7890 C   0  0  0  0  0  0  0  0  0  0  0  0
   -5.9920   -0.0004    1.0217 H   0  0  0  0  0  0  0  0  0  0  0  0
   -4.2345   -1.2165    0.6296 C   0  0  0  0  0  0  0  0  0  0  0  0
   -4.7694   -2.1708    0.7274 H   0  0  0  0  0  0  0  0  0  0  0  0
   -2.8641   -1.1982    0.3280 C   0  0  0  0  0  0  0  0  0  0  0  0
   -1.9820   -2.3469    0.0859 C   0  0  1  0  0  3  0  0  0  0  0  0
   -2.3879   -3.6903    0.1491 C   0  0  0  0  0  0  0  0  0  0  0  0
   -3.4286   -3.9317    0.4050 H   0  0  0  0  0  0  0  0  0  0  0  0
   -1.4694   -4.7095   -0.1216 C   0  0  0  0  0  0  0  0  0  0  0  0
   -1.7796   -5.7633   -0.0791 H   0  0  0  0  0  0  0  0  0  0  0  0
   -0.1503   -4.3611   -0.4550 C   0  0  0  0  0  0  0  0  0  0  0  0
    0.6039   -5.1265   -0.6851 H   0  0  0  0  0  0  0  0  0  0  0  0
    0.2028   -3.0108   -0.5014 C   0  0  0  0  0  0  0  0  0  0  0  0
    1.2218   -2.6932   -0.7668 H   0  0  0  0  0  0  0  0  0  0  0  0
  1 12  1  0  0  0  0
  2 20  1  0  0  0  0
  2 13  1  0  0  0  0
  3 21  1  0  0  0  0
  4  6  1  0  0  0  0
  4  1  1  0  0  0  0
  5  4  1  0  0  0  0
  6  8  2  0  0  0  0
  7  6  1  0  0  0  0
  8  9  1  0  0  0  0
  8 10  1  0  0  0  0
 10 11  1  0  0  0  0
 12 10  2  0  0  0  0
 13 12  1  6  0  0  0
 13 14  1  0  0  0  0
 14 15  1  0  0  0  0
 14 16  2  0  0  0  0
 16 17  1  0  0  0  0
 18 19  1  0  0  0  0
 18 16  1  0  0  0  0
 20 18  2  0  0  0  0
 21 22  1  0  0  0  0
 21 20  1  6  0  0  0
 22 23  1  0  0  0  0
 24 25  1  0  0  0  0
 24 22  2  0  0  0  0
 26 24  1  0  0  0  0
 27 26  1  0  0  0  0
 28 26  2  0  0  0  0
 28  3  1  0  0  0  0
 29 28  1  0  0  0  0
M  END
