1,33,34
 OpenBabel05122313063D

 57 63  0  0  1  0  0  0  0  0999 V2000
   -2.1181   -0.8957   -1.0787 N   0  0  0  0  0  2  0  0  0  0  0  0
   -3.3958   -1.4113   -1.0753 C   0  0  0  0  0  0  0  0  0  0  0  0
   -3.8341   -2.7334   -1.2875 C   0  0  0  0  0  0  0  0  0  0  0  0
   -3.1004   -3.5261   -1.4951 H   0  0  0  0  0  0  0  0  0  0  0  0
   -5.2062   -2.9748   -1.1794 C   0  0  0  0  0  0  0  0  0  0  0  0
   -5.5895   -3.9947   -1.3314 H   0  0  0  0  0  0  0  0  0  0  0  0
   -6.1217   -1.9382   -0.8594 C   0  0  0  0  0  0  0  0  0  0  0  0
   -7.1925   -2.1779   -0.7773 H   0  0  0  0  0  0  0  0  0  0  0  0
   -5.7013   -0.6218   -0.6292 C   0  0  0  0  0  0  0  0  0  0  0  0
   -6.4088    0.1746   -0.3583 H   0  0  0  0  0  0  0  0  0  0  0  0
   -4.3250   -0.3792   -0.7499 C   0  0  0  0  0  0  0  0  0  0  0  0
   -3.5519    0.7684   -0.5564 N   0  0  0  0  0  0  0  0  0  0  0  0
   -3.9975    1.9398    0.1330 C   0  0  0  0  0  0  0  0  0  0  0  0
   -4.8877    2.8308   -0.4891 C   0  0  0  0  0  0  0  0  0  0  0  0
   -5.2287    2.6303   -1.5154 H   0  0  0  0  0  0  0  0  0  0  0  0
   -5.3167    3.9695    0.2105 C   0  0  0  0  0  0  0  0  0  0  0  0
   -6.0141    4.6731   -0.2684 H   0  0  0  0  0  0  0  0  0  0  0  0
   -4.8518    4.2127    1.5132 C   0  0  0  0  0  0  0  0  0  0  0  0
   -5.1873    5.1090    2.0565 H   0  0  0  0  0  0  0  0  0  0  0  0
   -3.9656    3.3103    2.1259 C   0  0  0  0  0  0  0  0  0  0  0  0
   -3.6101    3.4943    3.1509 H   0  0  0  0  0  0  0  0  0  0  0  0
   -3.5385    2.1617    1.4452 C   0  0  0  0  0  0  0  0  0  0  0  0
   -2.8560    1.4257    1.9061 H   0  0  0  0  0  0  0  0  0  0  0  0
   -2.2323    0.3907   -0.7632 C   0  0  1  0  0  3  0  0  0  0  0  0
   -1.0457    1.2527   -0.6202 C   0  0  2  0  0  3  0  0  0  0  0  0
   -1.0321    2.6642   -0.6512 C   0  0  0  0  0  0  0  0  0  0  0  0
   -1.9518    3.2374   -0.8244 H   0  0  0  0  0  0  0  0  0  0  0  0
    0.1936    3.3123   -0.4455 C   0  0  0  0  0  0  0  0  0  0  0  0
    0.2356    4.4115   -0.4412 H   0  0  0  0  0  0  0  0  0  0  0  0
    1.3662    2.5722   -0.2341 C   0  0  0  0  0  0  0  0  0  0  0  0
    2.3194    3.0780   -0.0380 H   0  0  0  0  0  0  0  0  0  0  0  0
    1.2705    1.1632   -0.2674 C   0  0  0  0  0  0  0  0  0  0  0  0
    0.0892    0.5555   -0.4580 N   0  0  0  0  0  2  0  0  0  0  0  0
    2.1057   -1.0843    0.1910 N   0  0  0  0  0  2  0  0  0  0  0  0
    2.3660    0.1981   -0.0488 C   0  0  2  0  0  3  0  0  0  0  0  0
    3.7334    0.4503   -0.0305 N   0  0  0  0  0  0  0  0  0  0  0  0
    4.4168    1.6632   -0.3495 C   0  0  0  0  0  0  0  0  0  0  0  0
    5.1400    2.3355    0.6512 C   0  0  0  0  0  0  0  0  0  0  0  0
    5.1572    1.9261    1.6716 H   0  0  0  0  0  0  0  0  0  0  0  0
    5.8157    3.5231    0.3333 C   0  0  0  0  0  0  0  0  0  0  0  0
    6.3811    4.0531    1.1142 H   0  0  0  0  0  0  0  0  0  0  0  0
    5.7635    4.0376   -0.9723 C   0  0  0  0  0  0  0  0  0  0  0  0
    6.2905    4.9721   -1.2164 H   0  0  0  0  0  0  0  0  0  0  0  0
    5.0434    3.3571   -1.9681 C   0  0  0  0  0  0  0  0  0  0  0  0
    5.0083    3.7536   -2.9937 H   0  0  0  0  0  0  0  0  0  0  0  0
    4.3756    2.1628   -1.6636 C   0  0  0  0  0  0  0  0  0  0  0  0
    3.8157    1.6119   -2.4332 H   0  0  0  0  0  0  0  0  0  0  0  0
    4.3653   -0.7675    0.2357 C   0  0  0  0  0  0  0  0  0  0  0  0
    5.7181   -1.1246    0.3443 C   0  0  0  0  0  0  0  0  0  0  0  0
    6.5243   -0.3850    0.2379 H   0  0  0  0  0  0  0  0  0  0  0  0
    5.9824   -2.4779    0.5916 C   0  0  0  0  0  0  0  0  0  0  0  0
    7.0278   -2.8076    0.6878 H   0  0  0  0  0  0  0  0  0  0  0  0
    4.9432   -3.4380    0.7102 C   0  0  0  0  0  0  0  0  0  0  0  0
    5.2097   -4.4902    0.8889 H   0  0  0  0  0  0  0  0  0  0  0  0
    3.5968   -3.0827    0.5936 C   0  0  0  0  0  0  0  0  0  0  0  0
    2.7730   -3.8112    0.6411 H   0  0  0  0  0  0  0  0  0  0  0  0
    3.3140   -1.7218    0.3607 C   0  0  0  0  0  0  0  0  0  0  0  0
  1  2  1  0  0  0  0
  2 11  1  0  0  0  0
  3  5  1  0  0  0  0
  3  2  2  0  0  0  0
  4  3  1  0  0  0  0
  5  7  2  0  0  0  0
  6  5  1  0  0  0  0
  7  8  1  0  0  0  0
  7  9  1  0  0  0  0
  9 10  1  0  0  0  0
 11  9  2  0  0  0  0
 11 12  1  0  0  0  0
 12 13  1  0  0  0  0
 13 22  1  0  0  0  0
 14 13  2  0  0  0  0
 14 16  1  0  0  0  0
 15 14  1  0  0  0  0
 16 18  2  0  0  0  0
 17 16  1  0  0  0  0
 18 19  1  0  0  0  0
 18 20  1  0  0  0  0
 20 21  1  0  0  0  0
 22 23  1  0  0  0  0
 22 20  2  0  0  0  0
 24  1  1  1  0  0  0
 24 25  1  0  0  0  0
 24 12  1  0  0  0  0
 25 26  1  6  0  0  0
 25 33  1  0  0  0  0
 26 28  2  0  0  0  0
 27 26  1  0  0  0  0
 28 29  1  0  0  0  0
 28 30  1  0  0  0  0
 30 31  1  0  0  0  0
 32 30  2  0  0  0  0
 33 32  1  0  0  0  0
 34 57  1  0  0  0  0
 35 32  1  1  0  0  0
 35 36  1  0  0  0  0
 35 34  1  0  0  0  0
 36 48  1  0  0  0  0
 37 36  1  0  0  0  0
 37 38  1  0  0  0  0
 38 39  1  0  0  0  0
 40 38  2  0  0  0  0
 40 41  1  0  0  0  0
 42 40  1  0  0  0  0
 43 42  1  0  0  0  0
 44 46  1  0  0  0  0
 44 42  2  0  0  0  0
 45 44  1  0  0  0  0
 46 37  2  0  0  0  0
 47 46  1  0  0  0  0
 48 49  2  0  0  0  0
 48 57  1  0  0  0  0
 49 51  1  0  0  0  0
 50 49  1  0  0  0  0
 51 52  1  0  0  0  0
 51 53  2  0  0  0  0
 53 54  1  0  0  0  0
 55 56  1  0  0  0  0
 55 53  1  0  0  0  0
 57 55  2  0  0  0  0
M  END
