1,2,3
 OpenBabel05122313063D

 39 40  0  0  0  0  0  0  0  0999 V2000
   -1.9581   -0.9437   -0.1327 N   0  0  0  0  0  0  0  0  0  0  0  0
   -0.0000    0.7943    0.0002 N   0  0  0  0  0  2  0  0  0  0  0  0
    1.9581   -0.9437    0.1327 N   0  0  0  0  0  0  0  0  0  0  0  0
   -2.3314    0.4815   -0.0542 C   0  0  0  0  0  0  0  0  0  0  0  0
   -3.6617    0.9063   -0.0568 C   0  0  0  0  0  0  0  0  0  0  0  0
   -4.4754    0.1734   -0.1640 H   0  0  0  0  0  0  0  0  0  0  0  0
   -3.9627    2.2700    0.0947 C   0  0  0  0  0  0  0  0  0  0  0  0
   -5.0077    2.6113    0.0929 H   0  0  0  0  0  0  0  0  0  0  0  0
   -2.9076    3.1782    0.2765 C   0  0  0  0  0  0  0  0  0  0  0  0
   -3.1259    4.2451    0.4386 H   0  0  0  0  0  0  0  0  0  0  0  0
   -1.5712    2.7593    0.2666 C   0  0  0  0  0  0  0  0  0  0  0  0
   -0.7857    3.4964    0.4588 H   0  0  0  0  0  0  0  0  0  0  0  0
   -1.2439    1.3892    0.0622 C   0  0  0  0  0  0  0  0  0  0  0  0
    1.2439    1.3892   -0.0621 C   0  0  0  0  0  0  0  0  0  0  0  0
    1.5711    2.7593   -0.2665 C   0  0  0  0  0  0  0  0  0  0  0  0
    0.7855    3.4964   -0.4585 H   0  0  0  0  0  0  0  0  0  0  0  0
    2.9075    3.1783   -0.2766 C   0  0  0  0  0  0  0  0  0  0  0  0
    3.1258    4.2452   -0.4387 H   0  0  0  0  0  0  0  0  0  0  0  0
    3.9627    2.2701   -0.0948 C   0  0  0  0  0  0  0  0  0  0  0  0
    5.0076    2.6114   -0.0932 H   0  0  0  0  0  0  0  0  0  0  0  0
    3.6617    0.9063    0.0567 C   0  0  0  0  0  0  0  0  0  0  0  0
    4.4754    0.1735    0.1637 H   0  0  0  0  0  0  0  0  0  0  0  0
    2.3314    0.4815    0.0542 C   0  0  0  0  0  0  0  0  0  0  0  0
   -2.5740   -1.6958    0.9954 C   0  0  0  0  0  0  0  0  0  0  0  0
   -2.2710   -1.2201    1.9461 H   0  0  0  0  0  0  0  0  0  0  0  0
   -2.2034   -2.7363    0.9681 H   0  0  0  0  0  0  0  0  0  0  0  0
   -3.6819   -1.6754    0.9176 H   0  0  0  0  0  0  0  0  0  0  0  0
   -2.3594   -1.5299   -1.4399 C   0  0  0  0  0  0  0  0  0  0  0  0
   -3.4648   -1.5063   -1.5549 H   0  0  0  0  0  0  0  0  0  0  0  0
   -1.9900   -2.5711   -1.4838 H   0  0  0  0  0  0  0  0  0  0  0  0
   -1.8995   -0.9374   -2.2518 H   0  0  0  0  0  0  0  0  0  0  0  0
    2.5739   -1.6957   -0.9956 C   0  0  0  0  0  0  0  0  0  0  0  0
    2.2708   -1.2199   -1.9462 H   0  0  0  0  0  0  0  0  0  0  0  0
    2.2034   -2.7362   -0.9682 H   0  0  0  0  0  0  0  0  0  0  0  0
    3.6819   -1.6753   -0.9179 H   0  0  0  0  0  0  0  0  0  0  0  0
    2.3596   -1.5299    1.4397 C   0  0  0  0  0  0  0  0  0  0  0  0
    3.4650   -1.5063    1.5547 H   0  0  0  0  0  0  0  0  0  0  0  0
    1.9902   -2.5711    1.4837 H   0  0  0  0  0  0  0  0  0  0  0  0
    1.8997   -0.9375    2.2518 H   0  0  0  0  0  0  0  0  0  0  0  0
  1  4  1  0  0  0  0
  1 24  1  0  0  0  0
  2 13  1  0  0  0  0
  3 36  1  0  0  0  0
  4 13  1  0  0  0  0
  5  4  2  0  0  0  0
  5  7  1  0  0  0  0
  6  5  1  0  0  0  0
  7  9  2  0  0  0  0
  8  7  1  0  0  0  0
  9 10  1  0  0  0  0
 11  9  1  0  0  0  0
 11 12  1  0  0  0  0
 13 11  2  0  0  0  0
 14  2  1  0  0  0  0
 14 23  1  0  0  0  0
 15 14  2  0  0  0  0
 16 15  1  0  0  0  0
 17 15  1  0  0  0  0
 17 19  2  0  0  0  0
 18 17  1  0  0  0  0
 19 20  1  0  0  0  0
 19 21  1  0  0  0  0
 21 22  1  0  0  0  0
 23 21  2  0  0  0  0
 23  3  1  0  0  0  0
 24 25  1  0  0  0  0
 26 24  1  0  0  0  0
 27 24  1  0  0  0  0
 28  1  1  0  0  0  0
 29 28  1  0  0  0  0
 30 28  1  0  0  0  0
 31 28  1  0  0  0  0
 32 34  1  0  0  0  0
 32 35  1  0  0  0  0
 32  3  1  0  0  0  0
 33 32  1  0  0  0  0
 36 38  1  0  0  0  0
 36 37  1  0  0  0  0
 36 39  1  0  0  0  0
M  END
