1,2,3
 OpenBabel05122313063D

 79 81  0  0  1  0  0  0  0  0999 V2000
    1.1608    0.2787   -0.0543 N   0  0  0  0  0  2  0  0  0  0  0  0
   -0.7527    1.8163   -0.2422 N   0  0  0  0  0  2  0  0  0  0  0  0
    0.1288   -1.9501   -0.2437 N   0  0  0  0  0  2  0  0  0  0  0  0
    0.5226    3.9518    0.0986 C   0  0  0  0  0  0  0  0  0  0  0  0
   -0.4263    4.4659   -0.1367 H   0  0  0  0  0  0  0  0  0  0  0  0
    1.3193    4.3500   -0.5624 H   0  0  0  0  0  0  0  0  0  0  0  0
    0.8063    4.2048    1.1427 H   0  0  0  0  0  0  0  0  0  0  0  0
    0.3950    2.4716   -0.0792 C   0  0  0  0  0  0  0  0  0  0  0  0
    1.5464    1.5931   -0.0057 C   0  0  0  0  0  0  0  0  0  0  0  0
    2.9033    1.9259    0.1597 C   0  0  0  0  0  0  0  0  0  0  0  0
    3.1760    2.9870    0.2080 H   0  0  0  0  0  0  0  0  0  0  0  0
    3.8844    0.9182    0.2510 C   0  0  0  0  0  0  0  0  0  0  0  0
    3.4495   -0.4245    0.1585 C   0  0  0  0  0  0  0  0  0  0  0  0
    4.1702   -1.2525    0.2061 H   0  0  0  0  0  0  0  0  0  0  0  0
    2.0905   -0.7301   -0.0059 C   0  0  0  0  0  0  0  0  0  0  0  0
    1.4472   -2.0288   -0.0795 C   0  0  1  0  0  3  0  0  0  0  0  0
    2.2193   -3.2977    0.0999 C   0  0  0  0  0  0  0  0  0  0  0  0
    1.5942   -4.1812   -0.1206 H   0  0  0  0  0  0  0  0  0  0  0  0
    2.5986   -3.3890    1.1403 H   0  0  0  0  0  0  0  0  0  0  0  0
    3.1019   -3.3070   -0.5719 H   0  0  0  0  0  0  0  0  0  0  0  0
    5.3785    1.2267    0.4314 C   0  0  0  0  0  0  0  0  0  0  0  0
    5.6502    2.7389    0.5027 C   0  0  0  0  0  0  0  0  0  0  0  0
    5.3374    3.2585   -0.4253 H   0  0  0  0  0  0  0  0  0  0  0  0
    6.7358    2.9188    0.6341 H   0  0  0  0  0  0  0  0  0  0  0  0
    5.1289    3.2119    1.3594 H   0  0  0  0  0  0  0  0  0  0  0  0
    5.8731    0.5759    1.7436 C   0  0  0  0  0  0  0  0  0  0  0  0
    6.9534    0.7803    1.8915 H   0  0  0  0  0  0  0  0  0  0  0  0
    5.7378   -0.5239    1.7354 H   0  0  0  0  0  0  0  0  0  0  0  0
    5.3230    0.9778    2.6182 H   0  0  0  0  0  0  0  0  0  0  0  0
    6.1630    0.6423   -0.7658 C   0  0  0  0  0  0  0  0  0  0  0  0
    5.8212    1.0898   -1.7207 H   0  0  0  0  0  0  0  0  0  0  0  0
    6.0394   -0.4560   -0.8447 H   0  0  0  0  0  0  0  0  0  0  0  0
    7.2468    0.8510   -0.6540 H   0  0  0  0  0  0  0  0  0  0  0  0
   -1.9867    2.5114   -0.0358 C   0  0  0  0  0  0  0  0  0  0  0  0
   -2.3576    2.8298    1.3005 C   0  0  0  0  0  0  0  0  0  0  0  0
   -3.5700    3.5143    1.5018 C   0  0  0  0  0  0  0  0  0  0  0  0
   -3.8777    3.7683    2.5270 H   0  0  0  0  0  0  0  0  0  0  0  0
   -4.3948    3.8642    0.4263 C   0  0  0  0  0  0  0  0  0  0  0  0
   -5.3386    4.4010    0.6067 H   0  0  0  0  0  0  0  0  0  0  0  0
   -4.0228    3.5133   -0.8768 C   0  0  0  0  0  0  0  0  0  0  0  0
   -4.6748    3.7705   -1.7264 H   0  0  0  0  0  0  0  0  0  0  0  0
   -2.8243    2.8229   -1.1361 C   0  0  0  0  0  0  0  0  0  0  0  0
   -1.4928    2.4256    2.4810 C   0  0  0  0  0  0  0  0  0  0  0  0
   -0.8761    3.2981    2.7993 H   0  0  0  0  0  0  0  0  0  0  0  0
   -0.7816    1.6468    2.1462 H   0  0  0  0  0  0  0  0  0  0  0  0
   -2.2683    1.8795    3.6837 C   0  0  0  0  0  0  0  0  0  0  0  0
   -1.5685    1.5493    4.4779 H   0  0  0  0  0  0  0  0  0  0  0  0
   -2.8742    1.0050    3.3744 H   0  0  0  0  0  0  0  0  0  0  0  0
   -2.9456    2.6317    4.1358 H   0  0  0  0  0  0  0  0  0  0  0  0
   -2.4524    2.4655   -2.5561 C   0  0  0  0  0  0  0  0  0  0  0  0
   -2.1031    1.4135   -2.5968 H   0  0  0  0  0  0  0  0  0  0  0  0
   -3.3695    2.5272   -3.1774 H   0  0  0  0  0  0  0  0  0  0  0  0
   -1.3609    3.3541   -3.1694 C   0  0  0  0  0  0  0  0  0  0  0  0
   -1.6337    4.4287   -3.1201 H   0  0  0  0  0  0  0  0  0  0  0  0
   -1.1965    3.0871   -4.2325 H   0  0  0  0  0  0  0  0  0  0  0  0
   -0.3918    3.2121   -2.6526 H   0  0  0  0  0  0  0  0  0  0  0  0
   -0.6699   -3.1202   -0.0393 C   0  0  0  0  0  0  0  0  0  0  0  0
   -0.8637   -3.5705    1.2966 C   0  0  0  0  0  0  0  0  0  0  0  0
   -1.6490   -4.7205    1.4959 C   0  0  0  0  0  0  0  0  0  0  0  0
   -1.8143   -5.0850    2.5205 H   0  0  0  0  0  0  0  0  0  0  0  0
   -2.2328   -5.3981    0.4190 C   0  0  0  0  0  0  0  0  0  0  0  0
   -2.8426   -6.2967    0.5979 H   0  0  0  0  0  0  0  0  0  0  0  0
   -2.0520   -4.9183   -0.8835 C   0  0  0  0  0  0  0  0  0  0  0  0
   -2.5217   -5.4367   -1.7343 H   0  0  0  0  0  0  0  0  0  0  0  0
   -1.2816   -3.7691   -1.1409 C   0  0  0  0  0  0  0  0  0  0  0  0
   -0.2671   -2.8267    2.4779 C   0  0  0  0  0  0  0  0  0  0  0  0
    0.0224   -1.8121    2.1448 H   0  0  0  0  0  0  0  0  0  0  0  0
    0.6742   -3.3342    2.7929 H   0  0  0  0  0  0  0  0  0  0  0  0
   -1.2019   -2.6862    3.6830 C   0  0  0  0  0  0  0  0  0  0  0  0
   -0.7212   -2.0797    4.4770 H   0  0  0  0  0  0  0  0  0  0  0  0
   -1.4712   -3.6623    4.1342 H   0  0  0  0  0  0  0  0  0  0  0  0
   -2.1353   -2.1735    3.3770 H   0  0  0  0  0  0  0  0  0  0  0  0
   -1.1027   -3.2835   -2.5601 C   0  0  0  0  0  0  0  0  0  0  0  0
   -1.2533   -2.1852   -2.6002 H   0  0  0  0  0  0  0  0  0  0  0  0
   -1.8971   -3.7431   -3.1836 H   0  0  0  0  0  0  0  0  0  0  0  0
    0.2703   -3.5991   -3.1704 C   0  0  0  0  0  0  0  0  0  0  0  0
    0.4987   -4.6840   -3.1227 H   0  0  0  0  0  0  0  0  0  0  0  0
    1.0765   -3.0460   -2.6501 H   0  0  0  0  0  0  0  0  0  0  0  0
    0.3033   -3.2846   -4.2327 H   0  0  0  0  0  0  0  0  0  0  0  0
  1 15  1  0  0  0  0
  1  9  1  0  0  0  0
  2  8  1  0  0  0  0
  2 34  1  0  0  0  0
  3 57  1  0  0  0  0
  4  7  1  0  0  0  0
  5  4  1  0  0  0  0
  6  4  1  0  0  0  0
  8  9  2  0  0  0  0
  8  4  1  0  0  0  0
  9 10  1  0  0  0  0
 10 11  1  0  0  0  0
 10 12  2  0  0  0  0
 12 21  1  0  0  0  0
 13 14  1  0  0  0  0
 13 12  1  0  0  0  0
 15 13  2  0  0  0  0
 16  3  1  1  0  0  0
 16 15  1  0  0  0  0
 16 17  1  0  0  0  0
 17 19  1  0  0  0  0
 18 17  1  0  0  0  0
 20 17  1  0  0  0  0
 21 22  1  0  0  0  0
 21 26  1  0  0  0  0
 22 24  1  0  0  0  0
 22 25  1  0  0  0  0
 23 22  1  0  0  0  0
 26 27  1  0  0  0  0
 26 29  1  0  0  0  0
 28 26  1  0  0  0  0
 30 33  1  0  0  0  0
 30 21  1  0  0  0  0
 31 30  1  0  0  0  0
 32 30  1  0  0  0  0
 34 35  1  0  0  0  0
 35 36  2  0  0  0  0
 35 43  1  0  0  0  0
 36 37  1  0  0  0  0
 38 39  1  0  0  0  0
 38 36  1  0  0  0  0
 40 38  2  0  0  0  0
 41 40  1  0  0  0  0
 42 40  1  0  0  0  0
 42 34  2  0  0  0  0
 43 44  1  0  0  0  0
 43 46  1  0  0  0  0
 45 43  1  0  0  0  0
 46 49  1  0  0  0  0
 46 47  1  0  0  0  0
 48 46  1  0  0  0  0
 50 42  1  0  0  0  0
 51 50  1  0  0  0  0
 52 50  1  0  0  0  0
 53 54  1  0  0  0  0
 53 56  1  0  0  0  0
 53 50  1  0  0  0  0
 55 53  1  0  0  0  0
 57 58  1  0  0  0  0
 58 59  2  0  0  0  0
 58 66  1  0  0  0  0
 59 60  1  0  0  0  0
 61 62  1  0  0  0  0
 61 59  1  0  0  0  0
 63 61  2  0  0  0  0
 64 63  1  0  0  0  0
 65 63  1  0  0  0  0
 65 57  2  0  0  0  0
 66 68  1  0  0  0  0
 66 69  1  0  0  0  0
 67 66  1  0  0  0  0
 69 71  1  0  0  0  0
 69 70  1  0  0  0  0
 72 69  1  0  0  0  0
 73 65  1  0  0  0  0
 74 73  1  0  0  0  0
 75 73  1  0  0  0  0
 76 77  1  0  0  0  0
 76 78  1  0  0  0  0
 76 73  1  0  0  0  0
 79 76  1  0  0  0  0
M  END
