1,2,3
 OpenBabel05122313063D

 33 33  0  0  0  0  0  0  0  0999 V2000
   -1.9330    0.3464    0.6381 N   0  0  0  0  0  0  0  0  0  0  0  0
   -0.3084    0.6518   -1.7447 N   0  0  0  0  0  0  0  0  0  0  0  0
   -0.2279   -1.8580   -0.2088 N   0  0  0  0  0  0  0  0  0  0  0  0
   -2.5526    0.7287   -0.6862 C   0  0  0  0  0  0  0  0  0  0  0  0
   -2.9695   -0.1819   -1.1561 H   0  0  0  0  0  0  0  0  0  0  0  0
   -3.4189    1.3975   -0.5117 H   0  0  0  0  0  0  0  0  0  0  0  0
   -1.5733    1.4104   -1.6318 C   0  0  0  0  0  0  0  0  0  0  0  0
   -2.0607    1.5489   -2.6266 H   0  0  0  0  0  0  0  0  0  0  0  0
   -1.3177    2.4186   -1.2545 H   0  0  0  0  0  0  0  0  0  0  0  0
   -0.5006   -0.6712   -2.4064 C   0  0  0  0  0  0  0  0  0  0  0  0
   -0.0887   -0.6511   -3.4378 H   0  0  0  0  0  0  0  0  0  0  0  0
   -1.5847   -0.8594   -2.5312 H   0  0  0  0  0  0  0  0  0  0  0  0
    0.1479   -1.8234   -1.6435 C   0  0  0  0  0  0  0  0  0  0  0  0
   -0.1059   -2.7849   -2.1516 H   0  0  0  0  0  0  0  0  0  0  0  0
    1.2510   -1.7220   -1.6775 H   0  0  0  0  0  0  0  0  0  0  0  0
   -1.6855   -2.0772    0.0134 C   0  0  0  0  0  0  0  0  0  0  0  0
   -1.8716   -3.0999    0.4035 H   0  0  0  0  0  0  0  0  0  0  0  0
   -2.2151   -2.0351   -0.9580 H   0  0  0  0  0  0  0  0  0  0  0  0
   -2.2786   -1.0675    0.9931 C   0  0  0  0  0  0  0  0  0  0  0  0
   -3.3851   -1.1918    1.0380 H   0  0  0  0  0  0  0  0  0  0  0  0
   -1.8834   -1.2448    2.0112 H   0  0  0  0  0  0  0  0  0  0  0  0
   -2.4506    1.2568    1.6904 C   0  0  0  0  0  0  0  0  0  0  0  0
   -3.5494    1.1332    1.7999 H   0  0  0  0  0  0  0  0  0  0  0  0
   -2.2262    2.3025    1.4179 H   0  0  0  0  0  0  0  0  0  0  0  0
   -1.9615    1.0343    2.6543 H   0  0  0  0  0  0  0  0  0  0  0  0
    0.7260    1.4459   -2.4306 C   0  0  0  0  0  0  0  0  0  0  0  0
    0.4186    1.7105   -3.4679 H   0  0  0  0  0  0  0  0  0  0  0  0
    1.6669    0.8666   -2.4741 H   0  0  0  0  0  0  0  0  0  0  0  0
    0.9202    2.3733   -1.8608 H   0  0  0  0  0  0  0  0  0  0  0  0
    0.5720   -2.8734    0.4975 C   0  0  0  0  0  0  0  0  0  0  0  0
    0.4183   -3.8866    0.0613 H   0  0  0  0  0  0  0  0  0  0  0  0
    0.2891   -2.8990    1.5654 H   0  0  0  0  0  0  0  0  0  0  0  0
    1.6448   -2.6116    0.4340 H   0  0  0  0  0  0  0  0  0  0  0  0
  1 19  1  0  0  0  0
  1 22  1  0  0  0  0
  2  7  1  0  0  0  0
  3 16  1  0  0  0  0
  3 30  1  0  0  0  0
  4  6  1  0  0  0  0
  4  1  1  0  0  0  0
  5  4  1  0  0  0  0
  7  9  1  0  0  0  0
  7  4  1  0  0  0  0
  8  7  1  0  0  0  0
 10  2  1  0  0  0  0
 10 13  1  0  0  0  0
 11 10  1  0  0  0  0
 12 10  1  0  0  0  0
 13  3  1  0  0  0  0
 14 13  1  0  0  0  0
 15 13  1  0  0  0  0
 16 17  1  0  0  0  0
 16 19  1  0  0  0  0
 18 16  1  0  0  0  0
 19 20  1  0  0  0  0
 19 21  1  0  0  0  0
 22 23  1  0  0  0  0
 22 25  1  0  0  0  0
 24 22  1  0  0  0  0
 26 29  1  0  0  0  0
 26  2  1  0  0  0  0
 27 26  1  0  0  0  0
 28 26  1  0  0  0  0
 30 32  1  0  0  0  0
 31 30  1  0  0  0  0
 33 30  1  0  0  0  0
M  END
