2,3,5
 OpenBabel05122313063D

 43 45  0  0  1  0  0  0  0  0999 V2000
    1.0239   -1.3561   -0.1609 N   0  0  0  0  0  0  0  0  0  0  0  0
   -0.3164   -1.6713   -0.1533 N   0  0  0  0  0  2  0  0  0  0  0  0
   -0.3158    0.9681   -1.3708 N   0  0  0  0  0  2  0  0  0  0  0  0
    1.0244    0.8163   -1.0940 N   0  0  0  0  0  0  0  0  0  0  0  0
   -0.3151    0.7029    1.5238 N   0  0  0  0  0  2  0  0  0  0  0  0
    1.0249    0.5383    1.2538 N   0  0  0  0  0  0  0  0  0  0  0  0
   -0.4285   -2.9962   -0.3253 C   0  0  1  0  0  3  0  0  0  0  0  0
    0.8688   -3.5577   -0.4506 C   0  0  0  0  0  0  0  0  0  0  0  0
    1.7674   -2.4916   -0.3438 C   0  0  0  0  0  0  0  0  0  0  0  0
   -1.7726   -3.6522   -0.3565 C   0  0  0  0  0  0  0  0  0  0  0  0
    3.2559   -2.4572   -0.4177 C   0  0  0  0  0  0  0  0  0  0  0  0
   -0.4274    1.7803   -2.4316 C   0  0  1  0  0  3  0  0  0  0  0  0
    0.8700    2.1693   -2.8548 C   0  0  0  0  0  0  0  0  0  0  0  0
    1.7684    1.5428   -1.9853 C   0  0  0  0  0  0  0  0  0  0  0  0
   -1.7712    2.1362   -2.9842 C   0  0  0  0  0  0  0  0  0  0  0  0
    3.2568    1.5889   -1.9181 C   0  0  0  0  0  0  0  0  0  0  0  0
   -0.4263    1.2166    2.7572 C   0  0  1  0  0  3  0  0  0  0  0  0
    0.8714    1.3887    3.3052 C   0  0  0  0  0  0  0  0  0  0  0  0
    1.7693    0.9476    2.3280 C   0  0  0  0  0  0  0  0  0  0  0  0
   -1.7699    1.5180    3.3418 C   0  0  0  0  0  0  0  0  0  0  0  0
    3.2577    0.8660    2.3342 C   0  0  0  0  0  0  0  0  0  0  0  0
    1.4870   -0.0007   -0.0005 C   0  0  1  0  0  3  0  0  0  0  0  0
    1.1216   -4.6128   -0.5990 H   0  0  0  0  0  0  0  0  0  0  0  0
   -1.9162   -4.2257   -1.2947 H   0  0  0  0  0  0  0  0  0  0  0  0
   -1.8898   -4.3659    0.4848 H   0  0  0  0  0  0  0  0  0  0  0  0
   -2.5742   -2.8911   -0.2827 H   0  0  0  0  0  0  0  0  0  0  0  0
    3.6812   -3.4493   -0.1758 H   0  0  0  0  0  0  0  0  0  0  0  0
    3.5999   -2.1783   -1.4361 H   0  0  0  0  0  0  0  0  0  0  0  0
    3.6565   -1.6929    0.2754 H   0  0  0  0  0  0  0  0  0  0  0  0
    1.1232    2.8258   -3.6939 H   0  0  0  0  0  0  0  0  0  0  0  0
   -1.9140    3.2355   -3.0122 H   0  0  0  0  0  0  0  0  0  0  0  0
   -1.8887    1.7641   -4.0228 H   0  0  0  0  0  0  0  0  0  0  0  0
   -2.5733    1.6925   -2.3619 H   0  0  0  0  0  0  0  0  0  0  0  0
    3.6833    1.8662   -2.9005 H   0  0  0  0  0  0  0  0  0  0  0  0
    3.6011    2.3380   -1.1740 H   0  0  0  0  0  0  0  0  0  0  0  0
    3.6557    0.6089   -1.5934 H   0  0  0  0  0  0  0  0  0  0  0  0
    1.1249    1.7879    4.2929 H   0  0  0  0  0  0  0  0  0  0  0  0
   -1.9136    0.9911    4.3069 H   0  0  0  0  0  0  0  0  0  0  0  0
   -1.8861    2.6032    3.5406 H   0  0  0  0  0  0  0  0  0  0  0  0
   -2.5721    1.2029    2.6456 H   0  0  0  0  0  0  0  0  0  0  0  0
    3.6842    1.5756    3.0678 H   0  0  0  0  0  0  0  0  0  0  0  0
    3.6570    1.0779    1.3239 H   0  0  0  0  0  0  0  0  0  0  0  0
    3.6017   -0.1540    2.6076 H   0  0  0  0  0  0  0  0  0  0  0  0
  1  2  1  0  0  0  0
  1 22  1  0  0  0  0
  3  4  1  0  0  0  0
  5 17  1  0  0  0  0
  6  5  1  0  0  0  0
  6 19  1  0  0  0  0
  7 10  1  1  0  0  0
  7  2  1  0  0  0  0
  8  9  2  0  0  0  0
  8  7  1  0  0  0  0
  9  1  1  0  0  0  0
 10 26  1  0  0  0  0
 10 25  1  0  0  0  0
 11  9  1  0  0  0  0
 11 27  1  0  0  0  0
 11 29  1  0  0  0  0
 12 15  1  6  0  0  0
 12  3  1  0  0  0  0
 13 12  1  0  0  0  0
 13 14  2  0  0  0  0
 14 16  1  0  0  0  0
 14  4  1  0  0  0  0
 15 33  1  0  0  0  0
 16 36  1  0  0  0  0
 16 35  1  0  0  0  0
 17 18  1  0  0  0  0
 17 20  1  6  0  0  0
 18 37  1  0  0  0  0
 19 21  1  0  0  0  0
 19 18  2  0  0  0  0
 20 39  1  0  0  0  0
 20 38  1  0  0  0  0
 21 43  1  0  0  0  0
 21 41  1  0  0  0  0
 22  4  1  6  0  0  0
 22  6  1  0  0  0  0
 23  8  1  0  0  0  0
 24 10  1  0  0  0  0
 28 11  1  0  0  0  0
 30 13  1  0  0  0  0
 31 15  1  0  0  0  0
 32 15  1  0  0  0  0
 34 16  1  0  0  0  0
 40 20  1  0  0  0  0
 42 21  1  0  0  0  0
M  END
