7,8,9
 OpenBabel05122313063D

 69 73  0  0  0  0  0  0  0  0999 V2000
   -8.0392   -2.0441   -0.8259 O   0  0  0  0  0  0  0  0  0  0  0  0
    8.0394   -2.0438    0.8261 O   0  0  0  0  0  0  0  0  0  0  0  0
   -9.1095   -0.3049    0.2678 N   0  0  0  0  0  0  0  0  0  0  0  0
   -8.9576    0.5908    0.7333 H   0  0  0  0  0  0  0  0  0  0  0  0
   -6.8422   -0.1755   -0.1561 N   0  0  0  0  0  0  0  0  0  0  0  0
   -6.9321    0.7486    0.2676 H   0  0  0  0  0  0  0  0  0  0  0  0
   -2.1614    1.1224   -0.5381 N   0  0  0  0  0  2  0  0  0  0  0  0
    0.0001    2.5865    0.0001 N   0  0  0  0  0  2  0  0  0  0  0  0
    2.1614    1.1225    0.5387 N   0  0  0  0  0  2  0  0  0  0  0  0
    6.8421   -0.1756    0.1556 N   0  0  0  0  0  0  0  0  0  0  0  0
    6.9319    0.7484   -0.2682 H   0  0  0  0  0  0  0  0  0  0  0  0
    9.1093   -0.3051   -0.2688 N   0  0  0  0  0  0  0  0  0  0  0  0
    8.9572    0.5902   -0.7348 H   0  0  0  0  0  0  0  0  0  0  0  0
  -10.8757   -1.9706   -0.2608 C   0  0  0  0  0  0  0  0  0  0  0  0
  -10.1428   -2.6193   -0.7531 H   0  0  0  0  0  0  0  0  0  0  0  0
  -12.2291   -2.3266   -0.1765 C   0  0  0  0  0  0  0  0  0  0  0  0
  -12.5526   -3.2805   -0.6207 H   0  0  0  0  0  0  0  0  0  0  0  0
  -13.1666   -1.4976    0.4584 C   0  0  0  0  0  0  0  0  0  0  0  0
  -14.2247   -1.7921    0.5165 H   0  0  0  0  0  0  0  0  0  0  0  0
  -12.7340   -0.2859    1.0202 C   0  0  0  0  0  0  0  0  0  0  0  0
  -13.4504    0.3805    1.5241 H   0  0  0  0  0  0  0  0  0  0  0  0
  -11.3872    0.0859    0.9450 C   0  0  0  0  0  0  0  0  0  0  0  0
  -11.0562    1.0396    1.3891 H   0  0  0  0  0  0  0  0  0  0  0  0
  -10.4432   -0.7500    0.3047 C   0  0  0  0  0  0  0  0  0  0  0  0
   -8.0024   -0.9436   -0.2866 C   0  0  0  0  0  0  0  0  0  0  0  0
   -5.5358   -0.5024   -0.5539 C   0  0  0  0  0  0  0  0  0  0  0  0
   -5.1815   -1.7594   -1.1052 C   0  0  0  0  0  0  0  0  0  0  0  0
   -5.9645   -2.5116   -1.2521 H   0  0  0  0  0  0  0  0  0  0  0  0
   -3.8427   -2.0200   -1.4284 C   0  0  0  0  0  0  0  0  0  0  0  0
   -3.5792   -3.0044   -1.8431 H   0  0  0  0  0  0  0  0  0  0  0  0
   -2.8362   -1.0715   -1.2216 C   0  0  0  0  0  0  0  0  0  0  0  0
   -1.7797   -1.2651   -1.4695 H   0  0  0  0  0  0  0  0  0  0  0  0
   -3.1932    0.1955   -0.7062 C   0  0  0  0  0  0  0  0  0  0  0  0
   -4.5362    0.4717   -0.3689 C   0  0  0  0  0  0  0  0  0  0  0  0
   -4.7972    1.4380    0.0916 H   0  0  0  0  0  0  0  0  0  0  0  0
   -2.3219    2.4036   -0.5074 C   0  0  0  0  0  0  0  0  0  0  0  0
   -3.2962    2.9080   -0.6798 H   0  0  0  0  0  0  0  0  0  0  0  0
   -1.1457    3.2472   -0.2498 C   0  0  0  0  0  0  0  0  0  0  0  0
   -1.1845    4.6581   -0.2564 C   0  0  0  0  0  0  0  0  0  0  0  0
   -2.1287    5.1825   -0.4640 H   0  0  0  0  0  0  0  0  0  0  0  0
    0.0001    5.3632   -0.0003 C   0  0  0  0  0  0  0  0  0  0  0  0
    0.0001    6.4633   -0.0004 H   0  0  0  0  0  0  0  0  0  0  0  0
    1.1846    4.6582    0.2560 C   0  0  0  0  0  0  0  0  0  0  0  0
    2.1289    5.1826    0.4635 H   0  0  0  0  0  0  0  0  0  0  0  0
    1.1458    3.2473    0.2499 C   0  0  0  0  0  0  0  0  0  0  0  0
    2.3220    2.4037    0.5076 C   0  0  0  0  0  3  0  0  0  0  0  0
    3.2964    2.9080    0.6797 H   0  0  0  0  0  0  0  0  0  0  0  0
    3.1933    0.1956    0.7068 C   0  0  0  0  0  0  0  0  0  0  0  0
    2.8365   -1.0712    1.2229 C   0  0  0  0  0  0  0  0  0  0  0  0
    1.7800   -1.2647    1.4711 H   0  0  0  0  0  0  0  0  0  0  0  0
    3.8431   -2.0196    1.4298 C   0  0  0  0  0  0  0  0  0  0  0  0
    3.5797   -3.0038    1.8450 H   0  0  0  0  0  0  0  0  0  0  0  0
    5.1818   -1.7591    1.1060 C   0  0  0  0  0  0  0  0  0  0  0  0
    5.9648   -2.5112    1.2530 H   0  0  0  0  0  0  0  0  0  0  0  0
    5.5358   -0.5023    0.5540 C   0  0  0  0  0  0  0  0  0  0  0  0
    4.5362    0.4717    0.3689 C   0  0  0  0  0  0  0  0  0  0  0  0
    4.7970    1.4378   -0.0921 H   0  0  0  0  0  0  0  0  0  0  0  0
    8.0023   -0.9437    0.2862 C   0  0  0  0  0  0  0  0  0  0  0  0
   10.4430   -0.7501   -0.3057 C   0  0  0  0  0  0  0  0  0  0  0  0
   10.8758   -1.9703    0.2604 C   0  0  0  0  0  0  0  0  0  0  0  0
   10.1431   -2.6188    0.7533 H   0  0  0  0  0  0  0  0  0  0  0  0
   12.2292   -2.3262    0.1761 C   0  0  0  0  0  0  0  0  0  0  0  0
   12.5529   -3.2798    0.6208 H   0  0  0  0  0  0  0  0  0  0  0  0
   13.1664   -1.4975   -0.4596 C   0  0  0  0  0  0  0  0  0  0  0  0
   14.2246   -1.7919   -0.5178 H   0  0  0  0  0  0  0  0  0  0  0  0
   12.7336   -0.2863   -1.0221 C   0  0  0  0  0  0  0  0  0  0  0  0
   13.4498    0.3799   -1.5266 H   0  0  0  0  0  0  0  0  0  0  0  0
   11.3868    0.0855   -0.9469 C   0  0  0  0  0  0  0  0  0  0  0  0
   11.0555    1.0388   -1.3914 H   0  0  0  0  0  0  0  0  0  0  0  0
  1 25  2  0  0  0  0
  3 24  1  0  0  0  0
  3  4  1  0  0  0  0
  5  6  1  0  0  0  0
  7 36  1  0  0  0  0
  8 45  1  0  0  0  0
  9 48  1  0  0  0  0
 10 58  1  0  0  0  0
 10 55  1  0  0  0  0
 11 10  1  0  0  0  0
 12 58  1  0  0  0  0
 13 12  1  0  0  0  0
 14 16  2  0  0  0  0
 14 24  1  0  0  0  0
 15 14  1  0  0  0  0
 16 18  1  0  0  0  0
 17 16  1  0  0  0  0
 18 19  1  0  0  0  0
 18 20  2  0  0  0  0
 20 21  1  0  0  0  0
 22 20  1  0  0  0  0
 22 23  1  0  0  0  0
 24 22  2  0  0  0  0
 25  5  1  0  0  0  0
 25  3  1  0  0  0  0
 26 34  1  0  0  0  0
 26  5  1  0  0  0  0
 27 26  2  0  0  0  0
 28 27  1  0  0  0  0
 29 31  2  0  0  0  0
 29 27  1  0  0  0  0
 30 29  1  0  0  0  0
 31 33  1  0  0  0  0
 32 31  1  0  0  0  0
 33  7  1  0  0  0  0
 33 34  2  0  0  0  0
 34 35  1  0  0  0  0
 36 38  2  0  0  0  0
 37 36  1  0  0  0  0
 38  8  1  0  0  0  0
 39 38  1  0  0  0  0
 39 41  2  0  0  0  0
 40 39  1  0  0  0  0
 41 43  1  0  0  0  0
 42 41  1  0  0  0  0
 43 44  1  0  0  0  0
 45 43  2  0  0  0  0
 45 46  1  0  0  0  0
 46  9  1  0  0  0  0
 46 47  1  0  0  0  0
 48 49  1  0  0  0  0
 49 51  2  0  0  0  0
 49 50  1  0  0  0  0
 51 52  1  0  0  0  0
 53 54  1  0  0  0  0
 53 51  1  0  0  0  0
 55 53  2  0  0  0  0
 56 55  1  0  0  0  0
 56 48  2  0  0  0  0
 57 56  1  0  0  0  0
 58  2  2  0  0  0  0
 59 12  1  0  0  0  0
 59 60  1  0  0  0  0
 60 61  1  0  0  0  0
 62 60  2  0  0  0  0
 62 63  1  0  0  0  0
 64 62  1  0  0  0  0
 65 64  1  0  0  0  0
 66 68  1  0  0  0  0
 66 64  2  0  0  0  0
 67 66  1  0  0  0  0
 68 59  2  0  0  0  0
 69 68  1  0  0  0  0
M  END
