3,30,57
 OpenBabel05122313063D

 83 88  0  0  0  0  0  0  0  0999 V2000
   -0.5054   -1.0574   -3.2238 B   0  0  0  0  0  0  0  0  0  0  0  0
   -0.5959   -1.3422   -4.4067 H   0  0  0  0  0  0  0  0  0  0  0  0
   -2.0194   -0.6786   -1.2732 N   0  0  0  0  0  2  0  0  0  0  0  0
   -1.8638   -1.2124   -2.5097 N   0  0  0  0  0  0  0  0  0  0  0  0
   -3.0245   -1.7887   -2.9262 C   0  0  0  0  0  3  0  0  0  0  0  0
   -3.0912   -2.2678   -3.9093 H   0  0  0  0  0  0  0  0  0  0  0  0
   -3.9714   -1.6198   -1.9150 C   0  0  0  0  0  0  0  0  0  0  0  0
   -5.0180   -1.9404   -1.9171 H   0  0  0  0  0  0  0  0  0  0  0  0
   -3.2912   -0.9084   -0.8899 C   0  0  0  0  0  0  0  0  0  0  0  0
   -3.7905   -0.3705    0.3993 C   0  0  0  0  0  0  0  0  0  0  0  0
   -4.0177   -1.2341    1.5016 C   0  0  0  0  0  0  0  0  0  0  0  0
   -4.4405   -0.6762    2.7194 C   0  0  0  0  0  0  0  0  0  0  0  0
   -4.6051   -1.3468    3.5788 H   0  0  0  0  0  0  0  0  0  0  0  0
   -4.6457    0.7075    2.8767 C   0  0  0  0  0  0  0  0  0  0  0  0
   -4.4358    1.5384    1.7627 C   0  0  0  0  0  0  0  0  0  0  0  0
   -4.6113    2.6227    1.8578 H   0  0  0  0  0  0  0  0  0  0  0  0
   -4.0195    1.0232    0.5206 C   0  0  0  0  0  0  0  0  0  0  0  0
   -3.7770   -2.7159    1.3752 C   0  0  0  0  0  0  0  0  0  0  0  0
   -2.7114   -2.9032    1.1276 H   0  0  0  0  0  0  0  0  0  0  0  0
   -4.3851   -3.1631    0.5630 H   0  0  0  0  0  0  0  0  0  0  0  0
   -4.0154   -3.2433    2.3187 H   0  0  0  0  0  0  0  0  0  0  0  0
   -5.0830    1.2721    4.2057 C   0  0  0  0  0  0  0  0  0  0  0  0
   -6.0352    0.8142    4.5463 H   0  0  0  0  0  0  0  0  0  0  0  0
   -5.2326    2.3682    4.1560 H   0  0  0  0  0  0  0  0  0  0  0  0
   -4.3311    1.0678    4.9968 H   0  0  0  0  0  0  0  0  0  0  0  0
   -3.8588    1.9419   -0.6675 C   0  0  0  0  0  0  0  0  0  0  0  0
   -2.8368    1.9025   -1.0960 H   0  0  0  0  0  0  0  0  0  0  0  0
   -4.0802    2.9921   -0.3969 H   0  0  0  0  0  0  0  0  0  0  0  0
   -4.5391    1.6450   -1.4927 H   0  0  0  0  0  0  0  0  0  0  0  0
    0.2669    0.8666   -1.8066 N   0  0  0  0  0  2  0  0  0  0  0  0
   -0.0600    0.4247   -3.0418 N   0  0  0  0  0  0  0  0  0  0  0  0
    0.0487    1.4409   -3.9318 C   0  0  0  0  0  3  0  0  0  0  0  0
   -0.1813    1.2786   -4.9897 H   0  0  0  0  0  0  0  0  0  0  0  0
    0.4708    2.5770   -3.2451 C   0  0  0  0  0  0  0  0  0  0  0  0
    0.6326    3.5720   -3.6640 H   0  0  0  0  0  0  0  0  0  0  0  0
    0.6163    2.1822   -1.8851 C   0  0  0  0  0  0  0  0  0  0  0  0
    1.0772    2.9741   -0.7265 C   0  0  0  0  0  0  0  0  0  0  0  0
    0.5288    2.7595    0.5722 C   0  0  0  0  0  0  0  0  0  0  0  0
    0.9497    3.5559    1.6496 C   0  0  0  0  0  0  0  0  0  0  0  0
    0.5081    3.3719    2.6422 H   0  0  0  0  0  0  0  0  0  0  0  0
    1.9168    4.5626    1.5001 C   0  0  0  0  0  0  0  0  0  0  0  0
    2.4835    4.7308    0.2259 C   0  0  0  0  0  0  0  0  0  0  0  0
    3.2767    5.4837    0.0891 H   0  0  0  0  0  0  0  0  0  0  0  0
    2.0923    3.9650   -0.8868 C   0  0  0  0  0  0  0  0  0  0  0  0
   -0.4335    1.6450    0.8531 C   0  0  0  0  0  0  0  0  0  0  0  0
   -0.9761    1.7557    1.8110 H   0  0  0  0  0  0  0  0  0  0  0  0
    0.1752    0.6957    1.0514 H   0  0  0  0  0  0  0  0  0  0  0  0
   -1.2045    1.5061    0.0710 H   0  0  0  0  0  0  0  0  0  0  0  0
    2.3253    5.4317    2.6612 C   0  0  0  0  0  0  0  0  0  0  0  0
    1.6487    6.3083    2.7575 H   0  0  0  0  0  0  0  0  0  0  0  0
    3.3532    5.8252    2.5358 H   0  0  0  0  0  0  0  0  0  0  0  0
    2.2785    4.8797    3.6208 H   0  0  0  0  0  0  0  0  0  0  0  0
    2.8096    4.2096   -2.1934 C   0  0  0  0  0  0  0  0  0  0  0  0
    2.9931    3.2714   -2.7520 H   0  0  0  0  0  0  0  0  0  0  0  0
    3.7837    4.7018   -2.0080 H   0  0  0  0  0  0  0  0  0  0  0  0
    2.2350    4.8803   -2.8668 H   0  0  0  0  0  0  0  0  0  0  0  0
    0.9957   -1.6139   -1.2851 N   0  0  0  0  0  2  0  0  0  0  0  0
    0.6022   -1.9111   -2.5489 N   0  0  0  0  0  0  0  0  0  0  0  0
    1.4047   -2.8868   -3.0494 C   0  0  0  0  0  3  0  0  0  0  0  0
    1.2537   -3.2578   -4.0686 H   0  0  0  0  0  0  0  0  0  0  0  0
    2.3388   -3.2273   -2.0706 C   0  0  0  0  0  0  0  0  0  0  0  0
    3.1457   -3.9628   -2.1411 H   0  0  0  0  0  0  0  0  0  0  0  0
    2.0535   -2.3903   -0.9601 C   0  0  0  0  0  0  0  0  0  0  0  0
    2.7641   -2.2592    0.3317 C   0  0  0  0  0  0  0  0  0  0  0  0
    2.7128   -3.3177    1.2763 C   0  0  0  0  0  0  0  0  0  0  0  0
    3.4012   -3.1732    2.4903 C   0  0  0  0  0  0  0  0  0  0  0  0
    3.3501   -3.9909    3.2279 H   0  0  0  0  0  0  0  0  0  0  0  0
    4.1326   -2.0107    2.7998 C   0  0  0  0  0  0  0  0  0  0  0  0
    4.1610   -0.9758    1.8507 C   0  0  0  0  0  0  0  0  0  0  0  0
    4.7260   -0.0558    2.0727 H   0  0  0  0  0  0  0  0  0  0  0  0
    3.4902   -1.0759    0.6177 C   0  0  0  0  0  0  0  0  0  0  0  0
    1.8712   -4.5399    1.0142 C   0  0  0  0  0  0  0  0  0  0  0  0
    1.9191   -5.2491    1.8626 H   0  0  0  0  0  0  0  0  0  0  0  0
    2.1819   -5.0782    0.0964 H   0  0  0  0  0  0  0  0  0  0  0  0
    0.8133   -4.2352    0.8701 H   0  0  0  0  0  0  0  0  0  0  0  0
    4.8567   -1.8883    4.1172 C   0  0  0  0  0  0  0  0  0  0  0  0
    5.6244   -2.6823    4.2319 H   0  0  0  0  0  0  0  0  0  0  0  0
    4.1568   -1.9959    4.9721 H   0  0  0  0  0  0  0  0  0  0  0  0
    5.3648   -0.9094    4.2157 H   0  0  0  0  0  0  0  0  0  0  0  0
    3.5350    0.0716   -0.3603 C   0  0  0  0  0  0  0  0  0  0  0  0
    4.2929    0.8228   -0.0670 H   0  0  0  0  0  0  0  0  0  0  0  0
    2.5517    0.5830   -0.4098 H   0  0  0  0  0  0  0  0  0  0  0  0
    3.7567   -0.2730   -1.3909 H   0  0  0  0  0  0  0  0  0  0  0  0
  1 31  1  0  0  0  0
  1 58  1  0  0  0  0
  1  4  1  0  0  0  0
  2  1  1  0  0  0  0
  3  9  1  0  0  0  0
  4  3  1  0  0  0  0
  5  4  1  0  0  0  0
  5  7  1  0  0  0  0
  6  5  1  0  0  0  0
  7  9  2  0  0  0  0
  8  7  1  0  0  0  0
  9 10  1  0  0  0  0
 10 17  2  0  0  0  0
 10 11  1  0  0  0  0
 11 12  2  0  0  0  0
 12 14  1  0  0  0  0
 12 13  1  0  0  0  0
 14 22  1  0  0  0  0
 15 16  1  0  0  0  0
 15 14  2  0  0  0  0
 17 15  1  0  0  0  0
 18 11  1  0  0  0  0
 18 21  1  0  0  0  0
 19 18  1  0  0  0  0
 20 18  1  0  0  0  0
 22 23  1  0  0  0  0
 22 25  1  0  0  0  0
 24 22  1  0  0  0  0
 26 28  1  0  0  0  0
 26 17  1  0  0  0  0
 27 26  1  0  0  0  0
 29 26  1  0  0  0  0
 31 30  1  0  0  0  0
 32 34  1  0  0  0  0
 32 31  1  0  0  0  0
 33 32  1  0  0  0  0
 34 36  2  0  0  0  0
 35 34  1  0  0  0  0
 36 30  1  0  0  0  0
 36 37  1  0  0  0  0
 37 38  1  0  0  0  0
 38 45  1  0  0  0  0
 38 39  2  0  0  0  0
 39 40  1  0  0  0  0
 41 39  1  0  0  0  0
 41 49  1  0  0  0  0
 42 41  2  0  0  0  0
 43 42  1  0  0  0  0
 44 37  2  0  0  0  0
 44 42  1  0  0  0  0
 45 47  1  0  0  0  0
 45 46  1  0  0  0  0
 48 45  1  0  0  0  0
 49 50  1  0  0  0  0
 49 52  1  0  0  0  0
 51 49  1  0  0  0  0
 53 55  1  0  0  0  0
 53 44  1  0  0  0  0
 54 53  1  0  0  0  0
 56 53  1  0  0  0  0
 57 63  1  0  0  0  0
 58 57  1  0  0  0  0
 59 58  1  0  0  0  0
 59 61  1  0  0  0  0
 60 59  1  0  0  0  0
 61 63  2  0  0  0  0
 62 61  1  0  0  0  0
 63 64  1  0  0  0  0
 64 71  2  0  0  0  0
 64 65  1  0  0  0  0
 65 66  2  0  0  0  0
 66 68  1  0  0  0  0
 66 67  1  0  0  0  0
 68 76  1  0  0  0  0
 69 70  1  0  0  0  0
 69 68  2  0  0  0  0
 71 69  1  0  0  0  0
 72 65  1  0  0  0  0
 72 73  1  0  0  0  0
 74 72  1  0  0  0  0
 75 72  1  0  0  0  0
 76 79  1  0  0  0  0
 76 77  1  0  0  0  0
 76 78  1  0  0  0  0
 80 81  1  0  0  0  0
 80 71  1  0  0  0  0
 82 80  1  0  0  0  0
 83 80  1  0  0  0  0
M  END
