3,4,5
 OpenBabel05122313063D

 61 66  0  0  0  0  0  0  0  0999 V2000
    2.8308   -1.3808    1.9141 O   0  0  0  0  0  0  0  0  0  0  0  0
    2.8227   -3.6488    1.7884 O   0  0  0  0  0  0  0  0  0  0  0  0
   -1.6140   -0.1414   -0.3115 N   0  0  0  0  0  2  0  0  0  0  0  0
    1.2837    0.6364    0.0134 N   0  0  0  0  0  2  0  0  0  0  0  0
   -0.0141   -1.4613    1.3696 N   0  0  0  0  0  0  0  0  0  0  0  0
   -2.1993    0.9206   -1.0005 C   0  0  0  0  0  0  0  0  0  0  0  0
   -1.4265    1.6578   -1.9324 C   0  0  0  0  0  0  0  0  0  0  0  0
   -0.3719    1.3956   -2.0762 H   0  0  0  0  0  0  0  0  0  0  0  0
   -1.9857    2.7179   -2.6355 C   0  0  0  0  0  0  0  0  0  0  0  0
   -1.3698    3.2809   -3.3517 H   0  0  0  0  0  0  0  0  0  0  0  0
   -3.3373    3.0714   -2.4265 C   0  0  0  0  0  0  0  0  0  0  0  0
   -3.7823    3.9050   -2.9891 H   0  0  0  0  0  0  0  0  0  0  0  0
   -4.1039    2.3761   -1.4973 C   0  0  0  0  0  3  0  0  0  0  0  0
   -5.1464    2.6790   -1.3320 H   0  0  0  0  0  0  0  0  0  0  0  0
   -3.5604    1.2973   -0.7529 C   0  0  0  0  0  0  0  0  0  0  0  0
   -4.3130    0.5753    0.2567 C   0  0  0  0  0  0  0  0  0  0  0  0
   -5.6786    0.8303    0.5414 C   0  0  0  0  0  0  0  0  0  0  0  0
   -6.2253    1.5894   -0.0332 H   0  0  0  0  0  0  0  0  0  0  0  0
   -6.3457    0.1273    1.5396 C   0  0  0  0  0  0  0  0  0  0  0  0
   -7.4060    0.3406    1.7403 H   0  0  0  0  0  0  0  0  0  0  0  0
   -5.6727   -0.8609    2.2959 C   0  0  0  0  0  0  0  0  0  0  0  0
   -6.2092   -1.4153    3.0795 H   0  0  0  0  0  0  0  0  0  0  0  0
   -4.3355   -1.1344    2.0413 C   0  0  0  0  0  0  0  0  0  0  0  0
   -3.8308   -1.9175    2.6237 H   0  0  0  0  0  0  0  0  0  0  0  0
   -3.6336   -0.4314    1.0202 C   0  0  0  0  0  0  0  0  0  0  0  0
   -2.2666   -0.7280    0.6893 C   0  0  0  0  0  0  0  0  0  0  0  0
   -1.4754   -1.7532    1.4678 C   0  0  0  0  0  0  0  0  0  0  0  0
   -1.7843   -1.7621    2.5355 H   0  0  0  0  0  0  0  0  0  0  0  0
   -1.6602   -2.7723    1.0697 H   0  0  0  0  0  0  0  0  0  0  0  0
    2.0521    1.5621   -0.7065 C   0  0  0  0  0  0  0  0  0  0  0  0
    2.4985    1.2402   -2.0123 C   0  0  0  0  0  0  0  0  0  0  0  0
    2.2837    0.2445   -2.4129 H   0  0  0  0  0  0  0  0  0  0  0  0
    3.2283    2.1517   -2.7674 C   0  0  0  0  0  0  0  0  0  0  0  0
    3.5679    1.8729   -3.7755 H   0  0  0  0  0  0  0  0  0  0  0  0
    3.5398    3.4211   -2.2357 C   0  0  0  0  0  0  0  0  0  0  0  0
    4.1112    4.1467   -2.8328 H   0  0  0  0  0  0  0  0  0  0  0  0
    3.1439    3.7436   -0.9423 C   0  0  0  0  0  3  0  0  0  0  0  0
    3.4196    4.7228   -0.5292 H   0  0  0  0  0  0  0  0  0  0  0  0
    2.4104    2.8295   -0.1426 C   0  0  0  0  0  0  0  0  0  0  0  0
    2.0360    3.1149    1.2293 C   0  0  0  0  0  0  0  0  0  0  0  0
    2.3263    4.3428    1.8769 C   0  0  0  0  0  0  0  0  0  0  0  0
    2.8339    5.1458    1.3266 H   0  0  0  0  0  0  0  0  0  0  0  0
    1.9829    4.5489    3.2089 C   0  0  0  0  0  0  0  0  0  0  0  0
    2.2205    5.5082    3.6919 H   0  0  0  0  0  0  0  0  0  0  0  0
    1.3358    3.5308    3.9461 C   0  0  0  0  0  0  0  0  0  0  0  0
    1.0728    3.6963    5.0009 H   0  0  0  0  0  0  0  0  0  0  0  0
    1.0324    2.3207    3.3354 C   0  0  0  0  0  0  0  0  0  0  0  0
    0.5282    1.5448    3.9263 H   0  0  0  0  0  0  0  0  0  0  0  0
    1.3667    2.0905    1.9700 C   0  0  0  0  0  0  0  0  0  0  0  0
    1.0128    0.8662    1.2932 C   0  0  0  0  0  0  0  0  0  0  0  0
    0.2737   -0.1790    2.0911 C   0  0  0  0  0  0  0  0  0  0  0  0
   -0.6867    0.2562    2.4359 H   0  0  0  0  0  0  0  0  0  0  0  0
    0.8703   -0.3966    2.9978 H   0  0  0  0  0  0  0  0  0  0  0  0
    0.7298   -2.6133    1.9442 C   0  0  0  0  0  0  0  0  0  0  0  0
    0.4392   -3.5296    1.3991 H   0  0  0  0  0  0  0  0  0  0  0  0
    0.4490   -2.7569    3.0149 H   0  0  0  0  0  0  0  0  0  0  0  0
    2.2450   -2.4479    1.8699 C   0  0  0  0  0  0  0  0  0  0  0  0
    4.2660   -3.6625    1.7272 C   0  0  0  0  0  0  0  0  0  0  0  0
    4.5617   -4.7182    1.8488 H   0  0  0  0  0  0  0  0  0  0  0  0
    4.6949   -3.0325    2.5297 H   0  0  0  0  0  0  0  0  0  0  0  0
    4.5930   -3.2789    0.7414 H   0  0  0  0  0  0  0  0  0  0  0  0
  2 57  1  0  0  0  0
  3 26  1  0  0  0  0
  4 50  1  0  0  0  0
  5 27  1  0  0  0  0
  5 54  1  0  0  0  0
  5 51  1  0  0  0  0
  6 15  1  0  0  0  0
  6  3  1  0  0  0  0
  7  6  2  0  0  0  0
  8  7  1  0  0  0  0
  9 11  2  0  0  0  0
  9  7  1  0  0  0  0
 10  9  1  0  0  0  0
 11 13  1  0  0  0  0
 12 11  1  0  0  0  0
 13 14  1  0  0  0  0
 13 15  1  0  0  0  0
 15 16  2  0  0  0  0
 16 17  1  0  0  0  0
 16 25  1  0  0  0  0
 17 19  2  0  0  0  0
 18 17  1  0  0  0  0
 19 20  1  0  0  0  0
 19 21  1  0  0  0  0
 21 22  1  0  0  0  0
 23 21  2  0  0  0  0
 23 24  1  0  0  0  0
 25 23  1  0  0  0  0
 26 25  2  0  0  0  0
 26 27  1  0  0  0  0
 27 28  1  0  0  0  0
 29 27  1  0  0  0  0
 30 39  1  0  0  0  0
 30  4  1  0  0  0  0
 31 30  2  0  0  0  0
 32 31  1  0  0  0  0
 33 35  2  0  0  0  0
 33 31  1  0  0  0  0
 34 33  1  0  0  0  0
 35 37  1  0  0  0  0
 36 35  1  0  0  0  0
 37 38  1  0  0  0  0
 37 39  1  0  0  0  0
 39 40  2  0  0  0  0
 40 41  1  0  0  0  0
 40 49  1  0  0  0  0
 41 43  2  0  0  0  0
 42 41  1  0  0  0  0
 43 44  1  0  0  0  0
 43 45  1  0  0  0  0
 45 46  1  0  0  0  0
 47 48  1  0  0  0  0
 47 45  2  0  0  0  0
 49 47  1  0  0  0  0
 50 49  2  0  0  0  0
 50 51  1  0  0  0  0
 51 52  1  0  0  0  0
 51 53  1  0  0  0  0
 54 56  1  0  0  0  0
 55 54  1  0  0  0  0
 57  1  2  0  0  0  0
 57 54  1  0  0  0  0
 58  2  1  0  0  0  0
 58 59  1  0  0  0  0
 58 60  1  0  0  0  0
 61 58  1  0  0  0  0
M  END
