27,28,29
 OpenBabel05122313063D

 31 33  0  0  1  0  0  0  0  0999 V2000
    5.8775    0.6022    0.0760 C   0  0  0  0  0  0  0  0  0  0  0  0
    6.1728    0.2617   -0.9383 H   0  0  0  0  0  0  0  0  0  0  0  0
    6.5060    1.4726    0.3374 H   0  0  0  0  0  0  0  0  0  0  0  0
    6.1148   -0.2160    0.7866 H   0  0  0  0  0  0  0  0  0  0  0  0
    4.4330    0.9738    0.1277 C   0  0  1  0  0  3  0  0  0  0  0  0
    3.7948    2.2072    0.3048 C   0  0  0  0  0  0  0  0  0  0  0  0
    4.2881    3.1724    0.4540 H   0  0  0  0  0  0  0  0  0  0  0  0
    2.4026    1.9269    0.2419 C   0  0  0  0  0  0  0  0  0  0  0  0
    1.2186    2.7905    0.3530 C   0  0  1  0  0  3  0  0  0  0  0  0
    1.3206    4.1763    0.5926 C   0  0  0  0  0  0  0  0  0  0  0  0
    2.3061    4.6476    0.7079 H   0  0  0  0  0  0  0  0  0  0  0  0
    0.1453    4.9309    0.6808 C   0  0  0  0  0  0  0  0  0  0  0  0
    0.1944    6.0135    0.8695 H   0  0  0  0  0  0  0  0  0  0  0  0
   -1.0927    4.2980    0.5208 C   0  0  0  0  0  0  0  0  0  0  0  0
   -2.0314    4.8660    0.5741 H   0  0  0  0  0  0  0  0  0  0  0  0
   -1.1148    2.9093    0.2788 C   0  0  0  0  0  0  0  0  0  0  0  0
   -2.3665    2.1668    0.0724 C   0  0  1  0  0  3  0  0  0  0  0  0
   -3.7302    2.5598    0.1184 C   0  0  0  0  0  0  0  0  0  0  0  0
   -4.1466    3.5473    0.3394 H   0  0  0  0  0  0  0  0  0  0  0  0
   -4.4622    1.4019   -0.1777 C   0  0  0  0  0  0  0  0  0  0  0  0
   -5.9312    1.1575   -0.2774 C   0  0  0  0  0  0  0  0  0  0  0  0
   -6.2765    0.4424    0.4976 H   0  0  0  0  0  0  0  0  0  0  0  0
   -6.4868    2.1028   -0.1407 H   0  0  0  0  0  0  0  0  0  0  0  0
   -6.2072    0.7368   -1.2660 H   0  0  0  0  0  0  0  0  0  0  0  0
    3.4292    0.0612   -0.0255 N   0  0  0  0  0  0  0  0  0  0  0  0
    3.4576   -0.9618   -0.1416 H   0  0  0  0  0  0  0  0  0  0  0  0
    2.2143    0.6083    0.0403 N   0  0  0  0  0  2  0  0  0  0  0  0
    0.0214    2.1791    0.2084 N   0  0  0  0  0  2  0  0  0  0  0  0
   -2.2823    0.8557   -0.2338 N   0  0  0  0  0  2  0  0  0  0  0  0
   -3.5370    0.4205   -0.3762 N   0  0  0  0  0  0  0  0  0  0  0  0
   -3.6436   -0.5745   -0.6416 H   0  0  0  0  0  0  0  0  0  0  0  0
  1  3  1  0  0  0  0
  1  4  1  0  0  0  0
  2  1  1  0  0  0  0
  5  1  1  6  0  0  0
  5  6  1  0  0  0  0
  6  7  1  0  0  0  0
  8  6  2  0  0  0  0
  9  8  1  6  0  0  0
  9 10  1  0  0  0  0
 10 12  2  0  0  0  0
 10 11  1  0  0  0  0
 12 13  1  0  0  0  0
 14 15  1  0  0  0  0
 14 12  1  0  0  0  0
 16 14  2  0  0  0  0
 17 18  1  0  0  0  0
 17 16  1  6  0  0  0
 18 19  1  0  0  0  0
 20 18  2  0  0  0  0
 21 20  1  0  0  0  0
 21 23  1  0  0  0  0
 21 22  1  0  0  0  0
 24 21  1  0  0  0  0
 25 27  1  0  0  0  0
 25  5  1  0  0  0  0
 26 25  1  0  0  0  0
 27  8  1  0  0  0  0
 28 16  1  0  0  0  0
 28  9  1  0  0  0  0
 29 17  1  0  0  0  0
 30 29  1  0  0  0  0
 30 20  1  0  0  0  0
 31 30  1  0  0  0  0
M  END
