11,14,18
 OpenBabel05122313063D

 63 65  0  0  1  0  0  0  0  0999 V2000
   -3.2631   -1.7045   -0.9754 F   0  0  0  0  0  0  0  0  0  0  0  0
   -2.6052    0.2540   -0.1951 F   0  0  0  0  0  0  0  0  0  0  0  0
   -4.4496    0.3497    1.6271 F   0  0  0  0  0  0  0  0  0  0  0  0
   -4.9318   -1.7995    1.4650 F   0  0  0  0  0  0  0  0  0  0  0  0
   -2.1747   -1.0762    2.3197 F   0  0  0  0  0  0  0  0  0  0  0  0
   -5.9994   -1.5488   -0.8963 F   0  0  0  0  0  0  0  0  0  0  0  0
   -8.6696   -1.0505   -0.5682 F   0  0  0  0  0  0  0  0  0  0  0  0
   -7.2297   -0.3252    1.4756 F   0  0  0  0  0  0  0  0  0  0  0  0
   -2.5371   -2.9702    1.2429 F   0  0  0  0  0  0  0  0  0  0  0  0
    2.1189   -1.0002    0.9420 O   0  0  0  0  0  0  0  0  0  0  0  0
    5.8755    0.1587   -0.2904 N   0  0  0  0  0  2  0  0  0  0  0  0
   -7.7695    0.4541   -1.9119 F   0  0  0  0  0  0  0  0  0  0  0  0
   -5.1211    0.4516   -1.2302 F   0  0  0  0  0  0  0  0  0  0  0  0
    6.8361    2.5707   -0.0680 N   0  0  0  0  0  2  0  0  0  0  0  0
   -6.6374    1.5925    0.5506 F   0  0  0  0  0  0  0  0  0  0  0  0
   -9.4456    1.2470    1.0815 F   0  0  0  0  0  0  0  0  0  0  0  0
  -11.4865    1.9525   -0.7451 F   0  0  0  0  0  0  0  0  0  0  0  0
    7.8712   -1.3708   -0.9639 N   0  0  0  0  0  2  0  0  0  0  0  0
   -4.5434   -0.7016    0.7775 C   0  0  0  0  0  0  0  0  0  0  0  0
   -8.9148    2.4544   -0.6905 F   0  0  0  0  0  0  0  0  0  0  0  0
    5.5193    2.4587    0.2077 C   0  0  1  0  0  3  0  0  0  0  0  0
    3.7107    0.6824    0.5771 C   0  0  0  0  0  0  0  0  0  0  0  0
    2.9731    1.3977    0.9637 H   0  0  0  0  0  0  0  0  0  0  0  0
   -0.6963   -1.6495    0.5516 C   0  0  0  0  0  0  0  0  0  0  0  0
   -0.3813   -0.5924    0.4650 H   0  0  0  0  0  0  0  0  0  0  0  0
   -0.7178   -2.0743   -0.4732 H   0  0  0  0  0  0  0  0  0  0  0  0
    4.7374    3.5918    0.4939 C   0  0  0  0  0  0  0  0  0  0  0  0
    3.6637    3.4963    0.7078 H   0  0  0  0  0  0  0  0  0  0  0  0
   -3.1290   -0.9518    0.1501 C   0  0  0  0  0  0  0  0  0  0  0  0
    5.5752   -1.1445   -0.3318 C   0  0  0  0  0  0  0  0  0  0  0  0
   -2.1161   -1.6780    1.0908 C   0  0  0  0  0  0  0  0  0  0  0  0
    6.6934   -2.0113   -0.8058 C   0  0  0  0  0  0  0  0  0  0  0  0
    5.3519    4.8519    0.4887 C   0  0  0  0  0  0  0  0  0  0  0  0
    4.7619    5.7538    0.7106 H   0  0  0  0  0  0  0  0  0  0  0  0
  -10.5372    0.6462   -2.2161 F   0  0  0  0  0  0  0  0  0  0  0  0
    6.5706   -3.3837   -1.0871 C   0  0  0  0  0  0  0  0  0  0  0  0
    5.6077   -3.9007   -0.9709 H   0  0  0  0  0  0  0  0  0  0  0  0
   -8.1617    0.2033   -0.6404 C   0  0  0  0  0  0  0  0  0  0  0  0
    8.9508   -2.0274   -1.4020 C   0  0  0  0  0  0  0  0  0  0  0  0
    9.8574   -1.4063   -1.5141 H   0  0  0  0  0  0  0  0  0  0  0  0
    4.9933    1.0637    0.1674 C   0  0  0  0  0  0  0  0  0  0  0  0
    4.3121   -1.6232    0.0632 C   0  0  0  0  0  0  0  0  0  0  0  0
    4.0893   -2.6959    0.0365 H   0  0  0  0  0  0  0  0  0  0  0  0
    3.3636   -0.6859    0.5230 C   0  0  0  0  0  0  0  0  0  0  0  0
   -5.6398   -0.3865   -0.3017 C   0  0  0  0  0  0  0  0  0  0  0  0
    8.9126   -3.3986   -1.6999 C   0  0  0  0  0  0  0  0  0  0  0  0
    9.8167   -3.9140   -2.0545 H   0  0  0  0  0  0  0  0  0  0  0  0
   -6.9172    0.2897    0.3113 C   0  0  0  0  0  0  0  0  0  0  0  0
    1.7043   -2.3698    0.9454 C   0  0  0  0  0  0  0  0  0  0  0  0
    2.3740   -2.9644    1.6059 H   0  0  0  0  0  0  0  0  0  0  0  0
    1.7799   -2.7860   -0.0860 H   0  0  0  0  0  0  0  0  0  0  0  0
   -9.2859    1.2267   -0.2643 C   0  0  0  0  0  0  0  0  0  0  0  0
    7.6998   -4.0834   -1.5359 C   0  0  0  0  0  0  0  0  0  0  0  0
    7.6291   -5.1580   -1.7615 H   0  0  0  0  0  0  0  0  0  0  0  0
    6.7193    4.9493    0.1920 C   0  0  0  0  0  0  0  0  0  0  0  0
    7.2324    5.9214    0.1736 H   0  0  0  0  0  0  0  0  0  0  0  0
  -11.2288   -0.1677   -0.3065 F   0  0  0  0  0  0  0  0  0  0  0  0
    0.2722   -2.4245    1.4485 C   0  0  0  0  0  0  0  0  0  0  0  0
    0.2329   -2.0155    2.4786 H   0  0  0  0  0  0  0  0  0  0  0  0
   -0.0356   -3.4877    1.5120 H   0  0  0  0  0  0  0  0  0  0  0  0
    7.4282    3.7702   -0.0857 C   0  0  0  0  0  0  0  0  0  0  0  0
    8.5028    3.7535   -0.3407 H   0  0  0  0  0  0  0  0  0  0  0  0
  -10.6754    0.8960   -0.9032 C   0  0  0  0  0  0  0  0  0  0  0  0
  1 29  1  0  0  0  0
  2 29  1  0  0  0  0
  6 45  1  0  0  0  0
 10 49  1  0  0  0  0
 11 41  1  0  0  0  0
 12 38  1  0  0  0  0
 13 45  1  0  0  0  0
 14 21  1  0  0  0  0
 18 32  1  0  0  0  0
 19  4  1  0  0  0  0
 19  3  1  0  0  0  0
 20 52  1  0  0  0  0
 21 41  1  6  0  0  0
 21 27  1  0  0  0  0
 22 23  1  0  0  0  0
 24 31  1  0  0  0  0
 24 58  1  0  0  0  0
 25 24  1  0  0  0  0
 26 24  1  0  0  0  0
 27 28  1  0  0  0  0
 29 19  1  0  0  0  0
 29 31  1  0  0  0  0
 30 11  1  0  0  0  0
 30 42  1  0  0  0  0
 31  9  1  0  0  0  0
 31  5  1  0  0  0  0
 32 30  2  0  0  0  0
 33 27  2  0  0  0  0
 33 34  1  0  0  0  0
 35 63  1  0  0  0  0
 36 37  1  0  0  0  0
 36 32  1  0  0  0  0
 38  7  1  0  0  0  0
 38 52  1  0  0  0  0
 38 48  1  0  0  0  0
 39 18  1  0  0  0  0
 40 39  1  0  0  0  0
 41 22  2  0  0  0  0
 42 44  2  0  0  0  0
 43 42  1  0  0  0  0
 44 22  1  0  0  0  0
 44 10  1  0  0  0  0
 45 48  1  0  0  0  0
 45 19  1  0  0  0  0
 46 53  1  0  0  0  0
 46 39  2  0  0  0  0
 47 46  1  0  0  0  0
 48 15  1  0  0  0  0
 48  8  1  0  0  0  0
 49 58  1  0  0  0  0
 49 50  1  0  0  0  0
 51 49  1  0  0  0  0
 52 16  1  0  0  0  0
 53 36  2  0  0  0  0
 54 53  1  0  0  0  0
 55 33  1  0  0  0  0
 56 55  1  0  0  0  0
 58 60  1  0  0  0  0
 58 59  1  0  0  0  0
 61 14  1  0  0  0  0
 61 55  2  0  0  0  0
 62 61  1  0  0  0  0
 63 17  1  0  0  0  0
 63 57  1  0  0  0  0
 63 52  1  0  0  0  0
M  END
