4,7,10
 OpenBabel05122313063D

 52 57  0  0  1  0  0  0  0  0999 V2000
    3.5176    0.5222   -0.7868 N   0  0  0  0  0  0  0  0  0  0  0  0
    1.9423    3.4872   -2.3083 N   0  0  0  0  0  0  0  0  0  0  0  0
    2.5823    3.9469   -2.9572 H   0  0  0  0  0  0  0  0  0  0  0  0
    1.1140    1.9376   -0.9404 N   0  0  0  0  0  2  0  0  0  0  0  0
    3.6971    0.6205    2.9036 N   0  0  0  0  0  0  0  0  0  0  0  0
    4.6320    0.9183    3.1854 H   0  0  0  0  0  0  0  0  0  0  0  0
    1.9457    0.2073    1.5906 N   0  0  0  0  0  2  0  0  0  0  0  0
    3.1583   -2.9796   -1.9926 N   0  0  0  0  0  0  0  0  0  0  0  0
    4.0475   -3.2950   -2.3820 H   0  0  0  0  0  0  0  0  0  0  0  0
    1.6797   -1.6755   -0.9566 N   0  0  0  0  0  2  0  0  0  0  0  0
    3.3060    1.3526   -1.9592 C   0  0  0  0  0  0  0  0  0  0  0  0
    3.0755    0.6789   -2.8137 H   0  0  0  0  0  0  0  0  0  0  0  0
    4.2035    1.9499   -2.2623 H   0  0  0  0  0  0  0  0  0  0  0  0
    2.1298    2.2610   -1.7326 C   0  0  1  0  0  3  0  0  0  0  0  0
    0.7177    3.9880   -1.8691 C   0  0  0  0  0  0  0  0  0  0  0  0
    0.0258    5.1806   -2.1288 C   0  0  0  0  0  0  0  0  0  0  0  0
    0.4208    5.9515   -2.8055 H   0  0  0  0  0  0  0  0  0  0  0  0
   -1.2042    5.3387   -1.4782 C   0  0  0  0  0  0  0  0  0  0  0  0
   -1.7855    6.2559   -1.6527 H   0  0  0  0  0  0  0  0  0  0  0  0
   -1.7200    4.3514   -0.6014 C   0  0  0  0  0  0  0  0  0  0  0  0
   -2.6915    4.5248   -0.1160 H   0  0  0  0  0  0  0  0  0  0  0  0
   -1.0279    3.1651   -0.3413 C   0  0  0  0  0  0  0  0  0  0  0  0
   -1.4139    2.3916    0.3378 H   0  0  0  0  0  0  0  0  0  0  0  0
    0.2053    2.9896   -0.9942 C   0  0  0  0  0  0  0  0  0  0  0  0
    3.9372    1.1918    0.4328 C   0  0  0  0  0  0  0  0  0  0  0  0
    3.6899    2.2708    0.3330 H   0  0  0  0  0  0  0  0  0  0  0  0
    5.0400    1.1428    0.6100 H   0  0  0  0  0  0  0  0  0  0  0  0
    3.1976    0.6526    1.6291 C   0  0  1  0  0  3  0  0  0  0  0  0
    2.7032    0.1316    3.7480 C   0  0  0  0  0  0  0  0  0  0  0  0
    2.6562   -0.1105    5.1293 C   0  0  0  0  0  0  0  0  0  0  0  0
    3.5128    0.0886    5.7888 H   0  0  0  0  0  0  0  0  0  0  0  0
    1.4510   -0.6194    5.6288 C   0  0  0  0  0  0  0  0  0  0  0  0
    1.3647   -0.8240    6.7060 H   0  0  0  0  0  0  0  0  0  0  0  0
    0.3385   -0.8725    4.7869 C   0  0  0  0  0  0  0  0  0  0  0  0
   -0.5871   -1.2641    5.2338 H   0  0  0  0  0  0  0  0  0  0  0  0
    0.3857   -0.6325    3.4101 C   0  0  0  0  0  0  0  0  0  0  0  0
   -0.4702   -0.8000    2.7397 H   0  0  0  0  0  0  0  0  0  0  0  0
    1.5937   -0.1272    2.8947 C   0  0  0  0  0  0  0  0  0  0  0  0
    4.0375   -0.8123   -1.0101 C   0  0  0  0  0  0  0  0  0  0  0  0
    4.5200   -1.1571   -0.0693 H   0  0  0  0  0  0  0  0  0  0  0  0
    4.8380   -0.8477   -1.7892 H   0  0  0  0  0  0  0  0  0  0  0  0
    2.9453   -1.7933   -1.3477 C   0  0  1  0  0  3  0  0  0  0  0  0
    1.9597   -3.6882   -2.0100 C   0  0  0  0  0  0  0  0  0  0  0  0
    1.6082   -4.9461   -2.5220 C   0  0  0  0  0  0  0  0  0  0  0  0
    2.3327   -5.5893   -3.0413 H   0  0  0  0  0  0  0  0  0  0  0  0
    0.2808   -5.3456   -2.3283 C   0  0  0  0  0  0  0  0  0  0  0  0
   -0.0443   -6.3245   -2.7099 H   0  0  0  0  0  0  0  0  0  0  0  0
   -0.6509   -4.5270   -1.6426 C   0  0  0  0  0  0  0  0  0  0  0  0
   -1.6782   -4.8926   -1.5001 H   0  0  0  0  0  0  0  0  0  0  0  0
   -0.2988   -3.2717   -1.1389 C   0  0  0  0  0  0  0  0  0  0  0  0
   -1.0109   -2.6503   -0.5821 H   0  0  0  0  0  0  0  0  0  0  0  0
    1.0271   -2.8469   -1.3415 C   0  0  0  0  0  0  0  0  0  0  0  0
  1 25  1  0  0  0  0
  2 15  1  0  0  0  0
  2 14  1  0  0  0  0
  3  2  1  0  0  0  0
  5  6  1  0  0  0  0
  5 29  1  0  0  0  0
  7 28  1  0  0  0  0
  7 38  1  0  0  0  0
  8 42  1  0  0  0  0
  9  8  1  0  0  0  0
 11  1  1  0  0  0  0
 12 11  1  0  0  0  0
 13 11  1  0  0  0  0
 14 11  1  6  0  0  0
 14  4  1  0  0  0  0
 15 24  1  0  0  0  0
 16 15  2  0  0  0  0
 16 18  1  0  0  0  0
 17 16  1  0  0  0  0
 18 20  2  0  0  0  0
 19 18  1  0  0  0  0
 20 22  1  0  0  0  0
 20 21  1  0  0  0  0
 22 23  1  0  0  0  0
 24  4  1  0  0  0  0
 24 22  2  0  0  0  0
 25 27  1  0  0  0  0
 26 25  1  0  0  0  0
 28 25  1  1  0  0  0
 28  5  1  0  0  0  0
 29 30  1  0  0  0  0
 30 32  2  0  0  0  0
 30 31  1  0  0  0  0
 32 33  1  0  0  0  0
 34 35  1  0  0  0  0
 34 32  1  0  0  0  0
 36 34  2  0  0  0  0
 37 36  1  0  0  0  0
 38 36  1  0  0  0  0
 38 29  2  0  0  0  0
 39  1  1  0  0  0  0
 39 40  1  0  0  0  0
 41 39  1  0  0  0  0
 42 39  1  1  0  0  0
 42 10  1  0  0  0  0
 43  8  1  0  0  0  0
 43 52  1  0  0  0  0
 44 46  1  0  0  0  0
 44 43  2  0  0  0  0
 45 44  1  0  0  0  0
 46 48  2  0  0  0  0
 47 46  1  0  0  0  0
 48 49  1  0  0  0  0
 48 50  1  0  0  0  0
 50 51  1  0  0  0  0
 52 50  2  0  0  0  0
 52 10  1  0  0  0  0
M  END
