1,2,3
 OpenBabel05122313063D

 34 35  0  0  1  0  0  0  0  0999 V2000
    2.1625   -0.2477   -0.2610 N   0  0  0  0  0  2  0  0  0  0  0  0
   -0.3711    1.5603   -0.4465 N   0  0  0  0  0  0  0  0  0  0  0  0
   -2.2427   -0.3820    0.0039 N   0  0  0  0  0  2  0  0  0  0  0  0
    2.8295   -1.3997   -0.0462 C   0  0  0  0  0  3  0  0  0  0  0  0
    2.1989   -2.3055   -0.0372 H   0  0  0  0  0  0  0  0  0  0  0  0
    4.2169   -1.4508    0.1244 C   0  0  0  0  0  0  0  0  0  0  0  0
    4.7141   -2.4164    0.2947 H   0  0  0  0  0  0  0  0  0  0  0  0
    4.9391   -0.2508    0.0794 C   0  0  0  0  0  0  0  0  0  0  0  0
    6.0309   -0.2428    0.2196 H   0  0  0  0  0  0  0  0  0  0  0  0
    4.2450    0.9433   -0.1458 C   0  0  0  0  0  0  0  0  0  0  0  0
    4.7783    1.9047   -0.1910 H   0  0  0  0  0  0  0  0  0  0  0  0
    2.8469    0.9141   -0.3195 C   0  0  0  0  0  0  0  0  0  0  0  0
    2.0966    2.1883   -0.6298 C   0  0  0  0  0  0  0  0  0  0  0  0
    2.7381    3.0441   -0.3405 H   0  0  0  0  0  0  0  0  0  0  0  0
    1.9872    2.2742   -1.7339 H   0  0  0  0  0  0  0  0  0  0  0  0
    0.7442    2.3914    0.0549 C   0  0  0  0  0  0  0  0  0  0  0  0
    0.8376    2.1537    1.1361 H   0  0  0  0  0  0  0  0  0  0  0  0
    0.4684    3.4704   -0.0462 H   0  0  0  0  0  0  0  0  0  0  0  0
   -1.5862    1.9072    0.3123 C   0  0  0  0  0  0  0  0  0  0  0  0
   -1.9502    2.9329    0.0649 H   0  0  0  0  0  0  0  0  0  0  0  0
   -1.2982    1.8743    1.3881 H   0  0  0  0  0  0  0  0  0  0  0  0
   -2.6788    0.8839    0.1221 C   0  0  2  0  0  3  0  0  0  0  0  0
   -4.0482    1.1918    0.1135 C   0  0  0  0  0  0  0  0  0  0  0  0
   -4.3817    2.2371    0.1954 H   0  0  0  0  0  0  0  0  0  0  0  0
   -4.9696    0.1405   -0.0020 C   0  0  0  0  0  0  0  0  0  0  0  0
   -6.0502    0.3496   -0.0069 H   0  0  0  0  0  0  0  0  0  0  0  0
   -4.4986   -1.1758   -0.1239 C   0  0  0  0  0  0  0  0  0  0  0  0
   -5.1918   -2.0231   -0.2258 H   0  0  0  0  0  0  0  0  0  0  0  0
   -3.1139   -1.3937   -0.1272 C   0  0  0  0  0  0  0  0  0  0  0  0
   -2.6517   -2.3875   -0.2575 H   0  0  0  0  0  0  0  0  0  0  0  0
   -0.5831    1.6498   -1.8945 C   0  0  0  0  0  0  0  0  0  0  0  0
   -0.7547    2.6997   -2.2341 H   0  0  0  0  0  0  0  0  0  0  0  0
   -1.4601    1.0356   -2.1728 H   0  0  0  0  0  0  0  0  0  0  0  0
    0.2867    1.2292   -2.4329 H   0  0  0  0  0  0  0  0  0  0  0  0
  1  4  1  0  0  0  0
  2 16  1  0  0  0  0
  2 19  1  0  0  0  0
  3 22  1  0  0  0  0
  4  5  1  0  0  0  0
  4  6  1  0  0  0  0
  6  7  1  0  0  0  0
  8  6  2  0  0  0  0
  8  9  1  0  0  0  0
 10  8  1  0  0  0  0
 11 10  1  0  0  0  0
 12  1  1  0  0  0  0
 12 10  2  0  0  0  0
 13 14  1  0  0  0  0
 13 12  1  0  0  0  0
 13 16  1  0  0  0  0
 15 13  1  0  0  0  0
 16 17  1  0  0  0  0
 18 16  1  0  0  0  0
 19 21  1  0  0  0  0
 20 19  1  0  0  0  0
 22 19  1  1  0  0  0
 23 22  1  0  0  0  0
 23 24  1  0  0  0  0
 25 23  2  0  0  0  0
 26 25  1  0  0  0  0
 27 25  1  0  0  0  0
 28 27  1  0  0  0  0
 29 27  2  0  0  0  0
 29  3  1  0  0  0  0
 30 29  1  0  0  0  0
 31  2  1  0  0  0  0
 32 31  1  0  0  0  0
 33 31  1  0  0  0  0
 34 31  1  0  0  0  0
M  END
