1,14,27
 OpenBabel05122313063D

 42 43  0  0  1  0  0  0  0  0999 V2000
    2.0922    0.0477   -0.1657 N   0  0  0  0  0  2  0  0  0  0  0  0
    2.8383    1.1318    0.1397 C   0  0  0  0  0  3  0  0  0  0  0  0
    2.2834    2.0763    0.2428 H   0  0  0  0  0  0  0  0  0  0  0  0
    4.2254    1.0394    0.2948 C   0  0  0  0  0  0  0  0  0  0  0  0
    4.8031    1.9429    0.5354 H   0  0  0  0  0  0  0  0  0  0  0  0
    4.8499   -0.2070    0.1442 C   0  0  0  0  0  0  0  0  0  0  0  0
    5.9382   -0.3067    0.2678 H   0  0  0  0  0  0  0  0  0  0  0  0
    4.0665   -1.3314   -0.1646 C   0  0  0  0  0  0  0  0  0  0  0  0
    4.5209   -2.3249   -0.2892 H   0  0  0  0  0  0  0  0  0  0  0  0
    2.6883   -1.1691   -0.3211 C   0  0  0  0  0  0  0  0  0  0  0  0
    1.7210   -2.2456   -0.7312 C   0  0  0  0  0  0  0  0  0  0  0  0
    1.6207   -2.2348   -1.8364 H   0  0  0  0  0  0  0  0  0  0  0  0
    2.0593   -3.2609   -0.4321 H   0  0  0  0  0  0  0  0  0  0  0  0
    0.3837   -1.9172   -0.1489 N   0  0  0  0  0  0  0  0  0  0  0  0
   -0.7458   -2.5116   -0.9226 C   0  0  0  0  0  0  0  0  0  0  0  0
   -0.9681   -3.5465   -0.5845 H   0  0  0  0  0  0  0  0  0  0  0  0
   -0.4283   -2.5717   -1.9845 H   0  0  0  0  0  0  0  0  0  0  0  0
   -1.9486   -1.6124   -0.8290 C   0  0  2  0  0  3  0  0  0  0  0  0
   -3.2680   -2.0336   -1.0157 C   0  0  0  0  0  0  0  0  0  0  0  0
   -3.4844   -3.0943   -1.2080 H   0  0  0  0  0  0  0  0  0  0  0  0
   -4.2974   -1.0814   -0.9520 C   0  0  0  0  0  0  0  0  0  0  0  0
   -5.3438   -1.3845   -1.1034 H   0  0  0  0  0  0  0  0  0  0  0  0
   -3.9718    0.2530   -0.6734 C   0  0  0  0  0  0  0  0  0  0  0  0
   -4.7473    1.0271   -0.5889 H   0  0  0  0  0  0  0  0  0  0  0  0
   -2.6314    0.6072   -0.4843 C   0  0  0  0  0  0  0  0  0  0  0  0
   -2.3353    1.6226   -0.1837 H   0  0  0  0  0  0  0  0  0  0  0  0
   -1.6419   -0.3074   -0.5876 N   0  0  0  0  0  2  0  0  0  0  0  0
    0.3626   -2.2715    1.3099 C   0  0  0  0  0  0  0  0  0  0  0  0
    1.3547   -1.9955    1.7189 H   0  0  0  0  0  0  0  0  0  0  0  0
    0.2456   -3.3733    1.4077 H   0  0  0  0  0  0  0  0  0  0  0  0
   -0.6982   -1.5623    2.1368 C   0  0  0  0  0  0  0  0  0  0  0  0
   -1.7284   -1.7798    1.7618 H   0  0  0  0  0  0  0  0  0  0  0  0
   -0.6466   -1.9816    3.1704 H   0  0  0  0  0  0  0  0  0  0  0  0
   -0.4298   -0.1790    2.1347 O   0  0  0  0  0  0  0  0  0  0  0  0
   -1.3398    0.5836    2.9389 C   0  0  0  0  0  0  0  0  0  0  0  0
   -1.2428    0.2635    4.0035 H   0  0  0  0  0  0  0  0  0  0  0  0
   -2.3896    0.3856    2.6156 H   0  0  0  0  0  0  0  0  0  0  0  0
   -1.0446    2.0745    2.8215 C   0  0  0  0  0  0  0  0  0  0  0  0
   -1.5855    2.5699    3.6572 H   0  0  0  0  0  0  0  0  0  0  0  0
    0.0439    2.2335    3.0097 H   0  0  0  0  0  0  0  0  0  0  0  0
   -1.4757    2.6687    1.6196 O   0  0  0  0  0  0  0  0  0  0  0  0
   -0.7688    2.5884    0.9394 H   0  0  0  0  0  0  0  0  0  0  0  0
  1  2  1  0  0  0  0
  2  3  1  0  0  0  0
  2  4  1  0  0  0  0
  4  5  1  0  0  0  0
  6  7  1  0  0  0  0
  6  4  2  0  0  0  0
  8  6  1  0  0  0  0
  9  8  1  0  0  0  0
 10  1  1  0  0  0  0
 10  8  2  0  0  0  0
 11 13  1  0  0  0  0
 11 10  1  0  0  0  0
 11 14  1  0  0  0  0
 12 11  1  0  0  0  0
 14 28  1  0  0  0  0
 15 16  1  0  0  0  0
 15 14  1  0  0  0  0
 17 15  1  0  0  0  0
 18 15  1  6  0  0  0
 18 27  1  0  0  0  0
 19 21  2  0  0  0  0
 19 18  1  0  0  0  0
 20 19  1  0  0  0  0
 21 23  1  0  0  0  0
 22 21  1  0  0  0  0
 23 24  1  0  0  0  0
 23 25  2  0  0  0  0
 25 26  1  0  0  0  0
 27 25  1  0  0  0  0
 28 30  1  0  0  0  0
 28 29  1  0  0  0  0
 28 31  1  0  0  0  0
 31 33  1  0  0  0  0
 32 31  1  0  0  0  0
 34 31  1  0  0  0  0
 34 35  1  0  0  0  0
 35 36  1  0  0  0  0
 37 35  1  0  0  0  0
 38 35  1  0  0  0  0
 38 40  1  0  0  0  0
 38 39  1  0  0  0  0
 41 38  1  0  0  0  0
 42 41  1  0  0  0  0
M  END
