1,3,5
 OpenBabel05122313063D

 25 27  0  0  1  0  0  0  0  0999 V2000
    0.0000    1.1974    0.0000 N   0  0  0  0  0  2  0  0  0  0  0  0
    2.2680    0.9413    0.0001 N   0  0  0  0  0  0  0  0  0  0  0  0
    1.9825   -0.4179   -0.0001 N   0  0  0  0  0  2  0  0  0  0  0  0
   -2.2680    0.9413   -0.0001 N   0  0  2  0  0  0  0  0  0  0  0  0
   -1.9825   -0.4178   -0.0003 N   0  0  0  0  0  2  0  0  0  0  0  0
   -1.1900    1.8429   -0.0002 C   0  0  2  0  0  3  0  0  0  0  0  0
   -1.2315    3.2407   -0.0006 C   0  0  0  0  0  0  0  0  0  0  0  0
   -2.1825    3.7885   -0.0008 H   0  0  0  0  0  0  0  0  0  0  0  0
    0.0000    3.9229   -0.0007 C   0  0  0  0  0  0  0  0  0  0  0  0
    0.0001    5.0222   -0.0010 H   0  0  0  0  0  0  0  0  0  0  0  0
    1.2316    3.2407   -0.0005 C   0  0  0  0  0  0  0  0  0  0  0  0
    2.1826    3.7884   -0.0007 H   0  0  0  0  0  0  0  0  0  0  0  0
    1.1901    1.8429   -0.0001 C   0  0  0  0  0  0  0  0  0  0  0  0
    3.6293    1.1288    0.0009 C   0  0  0  0  0  3  0  0  0  0  0  0
    4.0668    2.1326    0.0011 H   0  0  0  0  0  0  0  0  0  0  0  0
    4.2187   -0.1259    0.0012 C   0  0  0  0  0  0  0  0  0  0  0  0
    5.2908   -0.3466    0.0018 H   0  0  0  0  0  0  0  0  0  0  0  0
    3.1527   -1.0624    0.0006 C   0  0  0  0  0  0  0  0  0  0  0  0
    3.1578   -2.1595    0.0006 H   0  0  0  0  0  0  0  0  0  0  0  0
   -3.6293    1.1289    0.0010 C   0  0  0  0  0  3  0  0  0  0  0  0
   -4.0668    2.1327    0.0013 H   0  0  0  0  0  0  0  0  0  0  0  0
   -4.2187   -0.1258    0.0014 C   0  0  0  0  0  0  0  0  0  0  0  0
   -5.2908   -0.3465    0.0022 H   0  0  0  0  0  0  0  0  0  0  0  0
   -3.1527   -1.0623    0.0005 C   0  0  0  0  0  0  0  0  0  0  0  0
   -3.1579   -2.1594    0.0004 H   0  0  0  0  0  0  0  0  0  0  0  0
  2 14  1  0  0  0  0
  3  2  1  0  0  0  0
  3 18  1  0  0  0  0
  4  5  1  1  0  0  0
  4 20  1  0  0  0  0
  5 24  1  0  0  0  0
  6  7  1  6  0  0  0
  6  4  1  0  0  0  0
  6  1  1  0  0  0  0
  8  7  1  0  0  0  0
  9  7  2  0  0  0  0
  9 11  1  0  0  0  0
 10  9  1  0  0  0  0
 11 13  2  0  0  0  0
 12 11  1  0  0  0  0
 13  1  1  0  0  0  0
 13  2  1  0  0  0  0
 14 15  1  0  0  0  0
 14 16  1  0  0  0  0
 16 17  1  0  0  0  0
 18 16  2  0  0  0  0
 19 18  1  0  0  0  0
 20 21  1  0  0  0  0
 20 22  1  0  0  0  0
 22 23  1  0  0  0  0
 24 22  2  0  0  0  0
 25 24  1  0  0  0  0
M  END
