1,2,3
 OpenBabel05122313063D

 43 45  0  0  1  0  0  0  0  0999 V2000
   -1.9070    0.3344    0.0004 N   0  0  0  0  0  2  0  0  0  0  0  0
   -0.0000    1.8423    0.0006 N   0  0  0  0  0  2  0  0  0  0  0  0
    1.9069    0.3344    0.0003 N   0  0  0  0  0  2  0  0  0  0  0  0
   -3.7563    2.0143   -0.0002 C   0  0  0  0  0  0  0  0  0  0  0  0
   -4.2833    1.6134   -0.8905 H   0  0  0  0  0  0  0  0  0  0  0  0
   -3.8702    3.1133    0.0036 H   0  0  0  0  0  0  0  0  0  0  0  0
   -4.2859    1.6068    0.8854 H   0  0  0  0  0  0  0  0  0  0  0  0
   -2.3108    1.6162    0.0004 C   0  0  0  0  0  0  0  0  0  0  0  0
   -1.2069    2.5325    0.0004 C   0  0  0  0  0  0  0  0  0  0  0  0
    1.2068    2.5325    0.0003 C   0  0  0  0  0  0  0  0  0  0  0  0
    2.3108    1.6162    0.0002 C   0  0  1  0  0  3  0  0  0  0  0  0
    3.7563    2.0143    0.0001 C   0  0  0  0  0  0  0  0  0  0  0  0
    4.2847    1.6098    0.8878 H   0  0  0  0  0  0  0  0  0  0  0  0
    3.8701    3.1134    0.0005 H   0  0  0  0  0  0  0  0  0  0  0  0
    4.2844    1.6105   -0.8881 H   0  0  0  0  0  0  0  0  0  0  0  0
   -1.2167    3.9362    0.0001 C   0  0  0  0  0  0  0  0  0  0  0  0
   -2.1744    4.4761    0.0000 H   0  0  0  0  0  0  0  0  0  0  0  0
   -0.0000    4.6410   -0.0001 C   0  0  0  0  0  0  0  0  0  0  0  0
   -0.0000    5.7402   -0.0004 H   0  0  0  0  0  0  0  0  0  0  0  0
    1.2167    3.9362   -0.0000 C   0  0  0  0  0  0  0  0  0  0  0  0
    2.1744    4.4761   -0.0002 H   0  0  0  0  0  0  0  0  0  0  0  0
   -2.8800   -0.7094    0.0001 C   0  0  0  0  0  0  0  0  0  0  0  0
   -3.3501   -1.2357   -1.2185 C   0  0  0  0  0  0  0  0  0  0  0  0
   -2.9594   -0.8286   -2.1623 H   0  0  0  0  0  0  0  0  0  0  0  0
   -4.2886   -2.2775   -1.2143 C   0  0  0  0  0  0  0  0  0  0  0  0
   -4.6469   -2.6882   -2.1704 H   0  0  0  0  0  0  0  0  0  0  0  0
   -4.7619   -2.8012   -0.0005 C   0  0  0  0  0  0  0  0  0  0  0  0
   -5.4939   -3.6226   -0.0008 H   0  0  0  0  0  0  0  0  0  0  0  0
   -4.2881   -2.2787    1.2135 C   0  0  0  0  0  0  0  0  0  0  0  0
   -4.6460   -2.6903    2.1694 H   0  0  0  0  0  0  0  0  0  0  0  0
   -3.3496   -1.2369    1.2184 C   0  0  0  0  0  0  0  0  0  0  0  0
   -2.9584   -0.8308    2.1624 H   0  0  0  0  0  0  0  0  0  0  0  0
    2.8800   -0.7093    0.0000 C   0  0  0  0  0  0  0  0  0  0  0  0
    3.3501   -1.2358   -1.2186 C   0  0  0  0  0  0  0  0  0  0  0  0
    2.9593   -0.8287   -2.1624 H   0  0  0  0  0  0  0  0  0  0  0  0
    4.2886   -2.2775   -1.2143 C   0  0  0  0  0  0  0  0  0  0  0  0
    4.6469   -2.6882   -2.1705 H   0  0  0  0  0  0  0  0  0  0  0  0
    4.7619   -2.8012   -0.0006 C   0  0  0  0  0  0  0  0  0  0  0  0
    5.4940   -3.6225   -0.0008 H   0  0  0  0  0  0  0  0  0  0  0  0
    4.2882   -2.2786    1.2134 C   0  0  0  0  0  0  0  0  0  0  0  0
    4.6461   -2.6901    2.1694 H   0  0  0  0  0  0  0  0  0  0  0  0
    3.3496   -1.2369    1.2183 C   0  0  0  0  0  0  0  0  0  0  0  0
    2.9585   -0.8306    2.1623 H   0  0  0  0  0  0  0  0  0  0  0  0
  1  8  1  0  0  0  0
  4  8  1  0  0  0  0
  4  6  1  0  0  0  0
  4  7  1  0  0  0  0
  5  4  1  0  0  0  0
  8  9  2  0  0  0  0
  9  2  1  0  0  0  0
 10  2  1  0  0  0  0
 11 10  1  0  0  0  0
 11  3  1  1  0  0  0
 12 11  1  0  0  0  0
 12 14  1  0  0  0  0
 12 13  1  0  0  0  0
 15 12  1  0  0  0  0
 16  9  1  0  0  0  0
 17 16  1  0  0  0  0
 18 20  1  0  0  0  0
 18 16  2  0  0  0  0
 19 18  1  0  0  0  0
 20 10  2  0  0  0  0
 21 20  1  0  0  0  0
 22  1  1  0  0  0  0
 22 31  1  0  0  0  0
 23 25  1  0  0  0  0
 23 22  2  0  0  0  0
 24 23  1  0  0  0  0
 25 27  2  0  0  0  0
 26 25  1  0  0  0  0
 27 29  1  0  0  0  0
 28 27  1  0  0  0  0
 29 31  2  0  0  0  0
 29 30  1  0  0  0  0
 31 32  1  0  0  0  0
 33  3  1  0  0  0  0
 33 42  1  0  0  0  0
 34 36  1  0  0  0  0
 34 33  2  0  0  0  0
 35 34  1  0  0  0  0
 36 38  2  0  0  0  0
 37 36  1  0  0  0  0
 38 40  1  0  0  0  0
 39 38  1  0  0  0  0
 40 42  2  0  0  0  0
 40 41  1  0  0  0  0
 42 43  1  0  0  0  0
M  END
