2,3,4
 OpenBabel05122313063D

 28 30  0  0  0  0  0  0  0  0999 V2000
    0.9197   -3.5293   -0.3364 O   0  0  0  0  0  0  0  0  0  0  0  0
   -1.7214    0.6598    0.2364 N   0  0  0  0  0  2  0  0  0  0  0  0
   -0.0193   -1.3897   -0.0645 N   0  0  0  0  0  2  0  0  0  0  0  0
    2.4302   -0.3218    0.1606 N   0  0  0  0  0  2  0  0  0  0  0  0
    4.7496   -1.8673   -0.0334 N   0  0  0  0  0  0  0  0  0  0  0  0
    3.6404    0.2456    0.2602 C   0  0  0  0  0  3  0  0  0  0  0  0
    3.6739    1.3358    0.4176 H   0  0  0  0  0  0  0  0  0  0  0  0
    4.8011   -0.5394    0.1629 C   0  0  0  0  0  0  0  0  0  0  0  0
    5.7992   -0.0758    0.2468 H   0  0  0  0  0  0  0  0  0  0  0  0
    3.5320   -2.4184   -0.1355 C   0  0  0  0  0  0  0  0  0  0  0  0
    3.4494   -3.5052   -0.2994 H   0  0  0  0  0  0  0  0  0  0  0  0
    2.3521   -1.6523   -0.0405 C   0  0  0  0  0  0  0  0  0  0  0  0
    0.9841   -2.3022   -0.1649 C   0  0  0  0  0  0  0  0  0  0  0  0
   -1.3612   -1.6958   -0.1359 C   0  0  0  0  0  0  0  0  0  0  0  0
   -1.9297   -2.9656   -0.3446 C   0  0  0  0  0  0  0  0  0  0  0  0
   -1.2502   -3.8184   -0.4628 H   0  0  0  0  0  0  0  0  0  0  0  0
   -3.3344   -3.1316   -0.4001 C   0  0  0  0  0  0  0  0  0  0  0  0
   -3.7352   -4.1435   -0.5673 H   0  0  0  0  0  0  0  0  0  0  0  0
   -4.2130   -2.0647   -0.2522 C   0  0  0  0  0  3  0  0  0  0  0  0
   -5.3026   -2.2101   -0.2992 H   0  0  0  0  0  0  0  0  0  0  0  0
   -3.6917   -0.7588   -0.0352 C   0  0  0  0  0  0  0  0  0  0  0  0
   -4.5007    0.4005    0.1316 C   0  0  0  0  0  0  0  0  0  0  0  0
   -5.5965    0.2965    0.0889 H   0  0  0  0  0  0  0  0  0  0  0  0
   -3.9136    1.6407    0.3440 C   0  0  0  0  0  0  0  0  0  0  0  0
   -4.5211    2.5477    0.4741 H   0  0  0  0  0  0  0  0  0  0  0  0
   -2.5013    1.7280    0.3929 C   0  0  0  0  0  0  0  0  0  0  0  0
   -1.9845    2.6898    0.5560 H   0  0  0  0  0  0  0  0  0  0  0  0
   -2.2670   -0.5726    0.0246 C   0  0  0  0  0  0  0  0  0  0  0  0
  1 13  2  0  0  0  0
  2 26  1  0  0  0  0
  4  6  1  0  0  0  0
  5  8  2  0  0  0  0
  6  7  1  0  0  0  0
  8  9  1  0  0  0  0
  8  6  1  0  0  0  0
 10 12  2  0  0  0  0
 10  5  1  0  0  0  0
 11 10  1  0  0  0  0
 12  4  1  0  0  0  0
 13  3  1  0  0  0  0
 13 12  1  0  0  0  0
 14  3  1  0  0  0  0
 14 28  2  0  0  0  0
 15 14  1  0  0  0  0
 16 15  1  0  0  0  0
 17 15  2  0  0  0  0
 17 19  1  0  0  0  0
 18 17  1  0  0  0  0
 19 21  1  0  0  0  0
 20 19  1  0  0  0  0
 21 28  1  0  0  0  0
 21 22  2  0  0  0  0
 22 24  1  0  0  0  0
 23 22  1  0  0  0  0
 24 26  2  0  0  0  0
 24 25  1  0  0  0  0
 26 27  1  0  0  0  0
 28  2  1  0  0  0  0
M  END
