1,2,4
 OpenBabel05122313063D

 32 31  0  0  0  0  0  0  0  0999 V2000
    1.6870    1.1296   -0.6265 N   0  0  0  0  0  0  0  0  0  0  0  0
   -1.2755    1.1213    1.0196 N   0  0  0  0  0  0  0  0  0  0  0  0
   -1.1477    0.8335    2.0001 H   0  0  0  0  0  0  0  0  0  0  0  0
   -1.1178   -0.0255   -1.8277 N   0  0  0  0  0  0  0  0  0  0  0  0
   -0.8451    0.8727   -2.2561 H   0  0  0  0  0  0  0  0  0  0  0  0
   -0.8527   -0.7363   -2.5250 H   0  0  0  0  0  0  0  0  0  0  0  0
    1.2430    2.5409   -0.4228 C   0  0  0  0  0  0  0  0  0  0  0  0
    0.5288    2.7891   -1.2364 H   0  0  0  0  0  0  0  0  0  0  0  0
    2.1264    3.2011   -0.5757 H   0  0  0  0  0  0  0  0  0  0  0  0
    0.5879    2.8400    0.9265 C   0  0  0  0  0  0  0  0  0  0  0  0
    1.1109    2.3168    1.7550 H   0  0  0  0  0  0  0  0  0  0  0  0
    0.7255    3.9206    1.1333 H   0  0  0  0  0  0  0  0  0  0  0  0
   -0.9105    2.5656    0.9675 C   0  0  0  0  0  0  0  0  0  0  0  0
   -1.3742    3.0806    1.8365 H   0  0  0  0  0  0  0  0  0  0  0  0
   -1.3787    3.0027    0.0623 H   0  0  0  0  0  0  0  0  0  0  0  0
   -2.7314    0.9282    0.7324 C   0  0  0  0  0  0  0  0  0  0  0  0
   -3.3127    1.6740    1.3182 H   0  0  0  0  0  0  0  0  0  0  0  0
   -3.0149   -0.0733    1.1113 H   0  0  0  0  0  0  0  0  0  0  0  0
   -3.1102    1.0532   -0.7436 C   0  0  0  0  0  0  0  0  0  0  0  0
   -2.8194    2.0513   -1.1405 H   0  0  0  0  0  0  0  0  0  0  0  0
   -4.2181    1.0433   -0.7956 H   0  0  0  0  0  0  0  0  0  0  0  0
   -2.6026   -0.0394   -1.6802 C   0  0  0  0  0  0  0  0  0  0  0  0
   -2.8902   -1.0414   -1.3046 H   0  0  0  0  0  0  0  0  0  0  0  0
   -3.0777    0.0861   -2.6761 H   0  0  0  0  0  0  0  0  0  0  0  0
    2.0244    0.9586   -2.0638 C   0  0  0  0  0  0  0  0  0  0  0  0
    1.1327    1.1178   -2.6987 H   0  0  0  0  0  0  0  0  0  0  0  0
    2.4166   -0.0584   -2.2431 H   0  0  0  0  0  0  0  0  0  0  0  0
    2.7957    1.6972   -2.3740 H   0  0  0  0  0  0  0  0  0  0  0  0
    2.9468    0.9088    0.1404 C   0  0  0  0  0  0  0  0  0  0  0  0
    3.2873   -0.1333    0.0073 H   0  0  0  0  0  0  0  0  0  0  0  0
    2.7832    1.0873    1.2169 H   0  0  0  0  0  0  0  0  0  0  0  0
    3.7387    1.6006   -0.2218 H   0  0  0  0  0  0  0  0  0  0  0  0
  1  7  1  0  0  0  0
  1 29  1  0  0  0  0
  2  3  1  0  0  0  0
  4 22  1  0  0  0  0
  5  4  1  0  0  0  0
  6  4  1  0  0  0  0
  7 10  1  0  0  0  0
  8  7  1  0  0  0  0
  9  7  1  0  0  0  0
 10 13  1  0  0  0  0
 10 12  1  0  0  0  0
 10 11  1  0  0  0  0
 13  2  1  0  0  0  0
 13 14  1  0  0  0  0
 15 13  1  0  0  0  0
 16  2  1  0  0  0  0
 16 18  1  0  0  0  0
 16 17  1  0  0  0  0
 19 16  1  0  0  0  0
 20 19  1  0  0  0  0
 21 19  1  0  0  0  0
 22 23  1  0  0  0  0
 22 19  1  0  0  0  0
 24 22  1  0  0  0  0
 25  1  1  0  0  0  0
 26 25  1  0  0  0  0
 27 25  1  0  0  0  0
 28 25  1  0  0  0  0
 29 31  1  0  0  0  0
 30 29  1  0  0  0  0
 32 29  1  0  0  0  0
M  END
