1,4,6
 OpenBabel05122313063D

 23 22  0  0  0  0  0  0  0  0999 V2000
    0.0901    1.8463   -1.3044 N   0  0  0  0  0  0  0  0  0  0  0  0
    0.9945    2.2944   -1.5119 H   0  0  0  0  0  0  0  0  0  0  0  0
   -0.3397    1.6764   -2.2272 H   0  0  0  0  0  0  0  0  0  0  0  0
   -1.4948    0.8158    0.8345 N   0  0  0  0  0  0  0  0  0  0  0  0
   -1.1735    1.1687    1.7474 H   0  0  0  0  0  0  0  0  0  0  0  0
   -0.9900   -1.2111   -1.4326 N   0  0  0  0  0  0  0  0  0  0  0  0
   -1.3736   -0.6482   -2.2084 H   0  0  0  0  0  0  0  0  0  0  0  0
   -0.4073   -1.9218   -1.8991 H   0  0  0  0  0  0  0  0  0  0  0  0
   -0.7677    2.7685   -0.5088 C   0  0  0  0  0  0  0  0  0  0  0  0
   -1.1228    3.6304   -1.1117 H   0  0  0  0  0  0  0  0  0  0  0  0
   -0.1487    3.1749    0.3167 H   0  0  0  0  0  0  0  0  0  0  0  0
   -1.9534    1.9910    0.0421 C   0  0  0  0  0  0  0  0  0  0  0  0
   -2.6078    2.6525    0.6491 H   0  0  0  0  0  0  0  0  0  0  0  0
   -2.5733    1.6172   -0.7984 H   0  0  0  0  0  0  0  0  0  0  0  0
   -2.5888   -0.1588    1.1277 C   0  0  0  0  0  0  0  0  0  0  0  0
   -3.4425    0.3832    1.5912 H   0  0  0  0  0  0  0  0  0  0  0  0
   -2.1934   -0.8606    1.8889 H   0  0  0  0  0  0  0  0  0  0  0  0
   -3.0987   -0.9416   -0.0836 C   0  0  0  0  0  0  0  0  0  0  0  0
   -3.9629   -1.5410    0.2688 H   0  0  0  0  0  0  0  0  0  0  0  0
   -3.5306   -0.2570   -0.8472 H   0  0  0  0  0  0  0  0  0  0  0  0
   -2.1203   -1.9064   -0.7484 C   0  0  0  0  0  0  0  0  0  0  0  0
   -1.6794   -2.5916    0.0030 H   0  0  0  0  0  0  0  0  0  0  0  0
   -2.6710   -2.5341   -1.4803 H   0  0  0  0  0  0  0  0  0  0  0  0
  1  9  1  0  0  0  0
  2  1  1  0  0  0  0
  3  1  1  0  0  0  0
  4 15  1  0  0  0  0
  4  5  1  0  0  0  0
  6 21  1  0  0  0  0
  7  6  1  0  0  0  0
  8  6  1  0  0  0  0
  9 12  1  0  0  0  0
  9 11  1  0  0  0  0
 10  9  1  0  0  0  0
 12 13  1  0  0  0  0
 12  4  1  0  0  0  0
 14 12  1  0  0  0  0
 15 16  1  0  0  0  0
 15 17  1  0  0  0  0
 18 19  1  0  0  0  0
 18 15  1  0  0  0  0
 20 18  1  0  0  0  0
 21 18  1  0  0  0  0
 21 22  1  0  0  0  0
 23 21  1  0  0  0  0
M  END
