1,3,5
 OpenBabel05122313063D

 24 24  0  0  0  0  0  0  0  0999 V2000
    1.0966    1.5545    0.4663 N   0  0  0  0  0  0  0  0  0  0  0  0
    0.6143    2.3687    0.8683 H   0  0  0  0  0  0  0  0  0  0  0  0
    1.0973   -1.1810    1.1126 N   0  0  0  0  0  0  0  0  0  0  0  0
    0.6152   -1.9364    1.6167 H   0  0  0  0  0  0  0  0  0  0  0  0
    1.0981   -0.3730   -1.5785 N   0  0  0  0  0  0  0  0  0  0  0  0
    0.6163   -0.4319   -2.4849 H   0  0  0  0  0  0  0  0  0  0  0  0
    2.1145    1.0562    1.4488 C   0  0  0  0  0  0  0  0  0  0  0  0
    2.3183    1.8233    2.2220 H   0  0  0  0  0  0  0  0  0  0  0  0
    3.0713    0.9041    0.9115 H   0  0  0  0  0  0  0  0  0  0  0  0
    1.6676   -0.2420    2.1215 C   0  0  0  0  0  0  0  0  0  0  0  0
    2.5246   -0.6968    2.6654 H   0  0  0  0  0  0  0  0  0  0  0  0
    0.8702   -0.0412    2.8630 H   0  0  0  0  0  0  0  0  0  0  0  0
    2.1157   -1.7827    0.1903 C   0  0  0  0  0  0  0  0  0  0  0  0
    2.3193   -2.8359    0.4681 H   0  0  0  0  0  0  0  0  0  0  0  0
    3.0727   -1.2417    0.3276 H   0  0  0  0  0  0  0  0  0  0  0  0
    1.6691   -1.7159   -1.2703 C   0  0  0  0  0  0  0  0  0  0  0  0
    2.5263   -1.9586   -1.9361 H   0  0  0  0  0  0  0  0  0  0  0  0
    0.8722   -2.4589   -1.4676 H   0  0  0  0  0  0  0  0  0  0  0  0
    2.1159    0.7272   -1.6379 C   0  0  0  0  0  0  0  0  0  0  0  0
    2.3204    1.0130   -2.6888 H   0  0  0  0  0  0  0  0  0  0  0  0
    3.0727    0.3387   -1.2366 H   0  0  0  0  0  0  0  0  0  0  0  0
    1.6677    1.9588   -0.8508 C   0  0  0  0  0  0  0  0  0  0  0  0
    2.5242    2.6577   -0.7282 H   0  0  0  0  0  0  0  0  0  0  0  0
    0.8706    2.5001   -1.3963 H   0  0  0  0  0  0  0  0  0  0  0  0
  1  2  1  0  0  0  0
  1  7  1  0  0  0  0
  3  4  1  0  0  0  0
  3 10  1  0  0  0  0
  5 16  1  0  0  0  0
  6  5  1  0  0  0  0
  7 10  1  0  0  0  0
  7  8  1  0  0  0  0
  9  7  1  0  0  0  0
 10 11  1  0  0  0  0
 10 12  1  0  0  0  0
 13 15  1  0  0  0  0
 13 14  1  0  0  0  0
 13  3  1  0  0  0  0
 16 13  1  0  0  0  0
 17 16  1  0  0  0  0
 18 16  1  0  0  0  0
 19  5  1  0  0  0  0
 19 21  1  0  0  0  0
 19 22  1  0  0  0  0
 20 19  1  0  0  0  0
 22 23  1  0  0  0  0
 22  1  1  0  0  0  0
 24 22  1  0  0  0  0
M  END
