1,2,3
 OpenBabel05122313063D

 32 34  0  0  1  0  0  0  0  0999 V2000
    0.6773    0.9595   -1.4576 N   0  0  0  0  0  2  0  0  0  0  0  0
    0.6757    0.9572    1.4591 N   0  0  0  0  0  2  0  0  0  0  0  0
    1.9927   -1.3157   -0.0006 N   0  0  0  0  0  2  0  0  0  0  0  0
   -0.0248    1.3471   -2.5545 C   0  0  0  0  0  3  0  0  0  0  0  0
    0.4802    2.2531   -3.4864 C   0  0  0  0  0  0  0  0  0  0  0  0
    1.7662    2.7813   -3.2910 C   0  0  0  0  0  0  0  0  0  0  0  0
    2.4884    2.3865   -2.1593 C   0  0  0  0  0  0  0  0  0  0  0  0
    1.9165    1.4766   -1.2552 C   0  0  0  0  0  0  0  0  0  0  0  0
    2.6682    1.0530    0.0019 C   0  0  1  0  0  0  0  0  0  0  0  0
    1.9152    1.4745    1.2588 C   0  0  1  0  0  3  0  0  0  0  0  0
    2.4863    2.3828    2.1651 C   0  0  0  0  0  0  0  0  0  0  0  0
    1.7630    2.7759    3.2967 C   0  0  0  0  0  0  0  0  0  0  0  0
    0.4767    2.2474    3.4899 C   0  0  0  0  0  0  0  0  0  0  0  0
   -0.0275    1.3431    2.5559 C   0  0  0  0  0  0  0  0  0  0  0  0
    3.0171   -0.4321    0.0007 C   0  0  1  0  0  3  0  0  0  0  0  0
    4.3548   -0.8588    0.0010 C   0  0  0  0  0  0  0  0  0  0  0  0
    4.6356   -2.2313   -0.0001 C   0  0  0  0  0  0  0  0  0  0  0  0
    3.5680   -3.1407   -0.0015 C   0  0  0  0  0  0  0  0  0  0  0  0
    2.2630   -2.6416   -0.0017 C   0  0  0  0  0  0  0  0  0  0  0  0
   -1.0224    0.8974   -2.6633 H   0  0  0  0  0  0  0  0  0  0  0  0
   -0.1297    2.5330   -4.3566 H   0  0  0  0  0  0  0  0  0  0  0  0
    2.1995    3.4918   -4.0103 H   0  0  0  0  0  0  0  0  0  0  0  0
    3.4964    2.7817   -1.9680 H   0  0  0  0  0  0  0  0  0  0  0  0
    3.6244    1.6047    0.0028 H   0  0  0  0  0  0  0  0  0  0  0  0
    3.4945    2.7782    1.9754 H   0  0  0  0  0  0  0  0  0  0  0  0
    2.1956    3.4850    4.0176 H   0  0  0  0  0  0  0  0  0  0  0  0
   -0.1341    2.5260    4.3598 H   0  0  0  0  0  0  0  0  0  0  0  0
   -1.0252    0.8933    2.6628 H   0  0  0  0  0  0  0  0  0  0  0  0
    5.1668   -0.1174    0.0021 H   0  0  0  0  0  0  0  0  0  0  0  0
    5.6768   -2.5865    0.0000 H   0  0  0  0  0  0  0  0  0  0  0  0
    3.7378   -4.2265   -0.0024 H   0  0  0  0  0  0  0  0  0  0  0  0
    1.3908   -3.3131   -0.0027 H   0  0  0  0  0  0  0  0  0  0  0  0
  1  8  1  0  0  0  0
  2 14  1  0  0  0  0
  3 15  1  0  0  0  0
  4  1  1  0  0  0  0
  5  6  2  0  0  0  0
  5  4  1  0  0  0  0
  6  7  1  0  0  0  0
  7 23  1  0  0  0  0
  7  8  2  0  0  0  0
  8  9  1  0  0  0  0
  9 24  1  1  0  0  0
 10  9  1  6  0  0  0
 10  2  1  0  0  0  0
 10 11  1  0  0  0  0
 11 12  2  0  0  0  0
 12 13  1  0  0  0  0
 12 26  1  0  0  0  0
 13 27  1  0  0  0  0
 14 28  1  0  0  0  0
 14 13  2  0  0  0  0
 15 16  1  0  0  0  0
 15  9  1  1  0  0  0
 16 29  1  0  0  0  0
 17 30  1  0  0  0  0
 17 16  2  0  0  0  0
 18 17  1  0  0  0  0
 19 18  2  0  0  0  0
 19  3  1  0  0  0  0
 20  4  1  0  0  0  0
 21  5  1  0  0  0  0
 22  6  1  0  0  0  0
 25 11  1  0  0  0  0
 31 18  1  0  0  0  0
 32 19  1  0  0  0  0
M  END
