1,2,3
 OpenBabel05122313063D

 49 49  0  0  1  0  0  0  0  0999 V2000
   -0.6713    1.5150   -0.7063 N   0  0  0  0  0  2  0  0  0  0  0  0
    0.4165   -1.3843   -0.7513 N   0  0  0  0  0  2  0  0  0  0  0  0
   -1.8229   -0.6191    0.8338 N   0  0  0  0  0  2  0  0  0  0  0  0
   -0.8259    3.2211   -0.3176 Si  0  0  0  0  0  0  0  0  0  0  0  0
    1.2476   -2.8624   -0.2944 Si  0  0  0  0  0  0  0  0  0  0  0  0
   -1.5477    0.9627   -1.7145 C   0  0  0  0  0  0  0  0  0  0  0  0
   -1.8767   -0.5729   -1.6194 C   0  0  0  0  0  0  0  0  0  0  0  0
   -0.5833   -1.4569   -1.7950 C   0  0  0  0  0  0  0  0  0  0  0  0
   -2.7873   -0.8948   -2.8142 C   0  0  0  0  0  0  0  0  0  0  0  0
   -2.5450   -0.8833   -0.2914 C   0  0  1  0  0  3  0  0  0  0  0  0
   -3.8427   -1.4217   -0.1795 C   0  0  0  0  0  0  0  0  0  0  0  0
   -4.3882   -1.6846    1.0830 C   0  0  0  0  0  0  0  0  0  0  0  0
   -3.6274   -1.4042    2.2265 C   0  0  0  0  0  0  0  0  0  0  0  0
   -2.3477   -0.8703    2.0526 C   0  0  0  0  0  0  0  0  0  0  0  0
   -0.6406    4.2858   -1.8781 C   0  0  0  0  0  0  0  0  0  0  0  0
   -2.5200    3.5705    0.4644 C   0  0  0  0  0  0  0  0  0  0  0  0
    0.5372    3.6745    0.9138 C   0  0  0  0  0  0  0  0  0  0  0  0
    0.0076   -4.1581    0.3299 C   0  0  0  0  0  0  0  0  0  0  0  0
    2.4679   -2.4580    1.0943 C   0  0  0  0  0  0  0  0  0  0  0  0
    2.1963   -3.5886   -1.7704 C   0  0  0  0  0  0  0  0  0  0  0  0
   -2.5414    1.4805   -1.7352 H   0  0  0  0  0  0  0  0  0  0  0  0
   -1.1244    1.0972   -2.7432 H   0  0  0  0  0  0  0  0  0  0  0  0
   -0.9563   -2.5019   -1.9444 H   0  0  0  0  0  0  0  0  0  0  0  0
   -0.1663   -1.1500   -2.7886 H   0  0  0  0  0  0  0  0  0  0  0  0
   -3.0681   -1.9662   -2.8442 H   0  0  0  0  0  0  0  0  0  0  0  0
   -3.7153   -0.2892   -2.8017 H   0  0  0  0  0  0  0  0  0  0  0  0
   -2.2542   -0.6657   -3.7582 H   0  0  0  0  0  0  0  0  0  0  0  0
   -4.4275   -1.6355   -1.0825 H   0  0  0  0  0  0  0  0  0  0  0  0
   -5.4016   -2.1053    1.1705 H   0  0  0  0  0  0  0  0  0  0  0  0
   -4.0125   -1.5927    3.2387 H   0  0  0  0  0  0  0  0  0  0  0  0
   -1.6905   -0.6238    2.9036 H   0  0  0  0  0  0  0  0  0  0  0  0
   -0.7211    5.3677   -1.6437 H   0  0  0  0  0  0  0  0  0  0  0  0
   -1.4262    4.0454   -2.6243 H   0  0  0  0  0  0  0  0  0  0  0  0
    0.3447    4.1105   -2.3580 H   0  0  0  0  0  0  0  0  0  0  0  0
   -2.6578    4.6497    0.6839 H   0  0  0  0  0  0  0  0  0  0  0  0
   -3.3490    3.2571   -0.2037 H   0  0  0  0  0  0  0  0  0  0  0  0
   -2.6233    3.0076    1.4150 H   0  0  0  0  0  0  0  0  0  0  0  0
    0.3793    4.7083    1.2847 H   0  0  0  0  0  0  0  0  0  0  0  0
    0.5527    2.9992    1.7959 H   0  0  0  0  0  0  0  0  0  0  0  0
    1.5362    3.6369    0.4340 H   0  0  0  0  0  0  0  0  0  0  0  0
    0.5082   -5.1174    0.5764 H   0  0  0  0  0  0  0  0  0  0  0  0
   -0.7750   -4.3752   -0.4264 H   0  0  0  0  0  0  0  0  0  0  0  0
   -0.5024   -3.7895    1.2439 H   0  0  0  0  0  0  0  0  0  0  0  0
    2.9045   -3.3972    1.4925 H   0  0  0  0  0  0  0  0  0  0  0  0
    1.9858   -1.9236    1.9407 H   0  0  0  0  0  0  0  0  0  0  0  0
    3.3026   -1.8277    0.7283 H   0  0  0  0  0  0  0  0  0  0  0  0
    2.7228   -4.5267   -1.4971 H   0  0  0  0  0  0  0  0  0  0  0  0
    1.5103   -3.8211   -2.6113 H   0  0  0  0  0  0  0  0  0  0  0  0
    2.9528   -2.8677   -2.1454 H   0  0  0  0  0  0  0  0  0  0  0  0
  1  4  1  0  0  0  0
  2  5  1  0  0  0  0
  3 14  1  0  0  0  0
  4 16  1  0  0  0  0
  4 17  1  0  0  0  0
  5 18  1  0  0  0  0
  5 19  1  0  0  0  0
  6  7  1  0  0  0  0
  6  1  1  0  0  0  0
  8  7  1  0  0  0  0
  8  2  1  0  0  0  0
  9 26  1  0  0  0  0
  9  7  1  0  0  0  0
 10  7  1  6  0  0  0
 10 11  1  0  0  0  0
 10  3  1  0  0  0  0
 11 12  2  0  0  0  0
 12 29  1  0  0  0  0
 12 13  1  0  0  0  0
 13 30  1  0  0  0  0
 14 13  2  0  0  0  0
 14 31  1  0  0  0  0
 15 32  1  0  0  0  0
 15  4  1  0  0  0  0
 16 35  1  0  0  0  0
 16 37  1  0  0  0  0
 17 38  1  0  0  0  0
 17 39  1  0  0  0  0
 18 41  1  0  0  0  0
 18 43  1  0  0  0  0
 19 44  1  0  0  0  0
 19 45  1  0  0  0  0
 20 47  1  0  0  0  0
 20  5  1  0  0  0  0
 21  6  1  0  0  0  0
 22  6  1  0  0  0  0
 23  8  1  0  0  0  0
 24  8  1  0  0  0  0
 25  9  1  0  0  0  0
 27  9  1  0  0  0  0
 28 11  1  0  0  0  0
 33 15  1  0  0  0  0
 34 15  1  0  0  0  0
 36 16  1  0  0  0  0
 40 17  1  0  0  0  0
 42 18  1  0  0  0  0
 46 19  1  0  0  0  0
 48 20  1  0  0  0  0
 49 20  1  0  0  0  0
M  END
