6,15,21
 OpenBabel05122313063D

 63 65  0  0  1  0  0  0  0  0999 V2000
    2.9124   -2.2368   -0.4687 C   0  0  0  0  0  0  0  0  0  0  0  0
    2.6668   -0.8292   -0.4477 C   0  0  0  0  0  0  0  0  0  0  0  0
   -3.9191    0.4817   -0.0217 C   0  0  0  0  0  0  0  0  0  0  0  0
    5.0803   -0.4973   -0.1304 C   0  0  0  0  0  0  0  0  0  0  0  0
    5.9261    0.1977    0.0160 H   0  0  0  0  0  0  0  0  0  0  0  0
   -1.5320    0.1117   -0.5991 N   0  0  0  0  0  2  0  0  0  0  0  0
   -1.3306    0.9872   -1.7207 C   0  0  0  0  0  0  0  0  0  0  0  0
   -2.0207    1.8741   -1.7177 H   0  0  0  0  0  0  0  0  0  0  0  0
   -1.5527    0.4537   -2.6843 H   0  0  0  0  0  0  0  0  0  0  0  0
    0.1158    1.5263   -1.8569 C   0  0  0  0  0  0  0  0  0  0  0  0
   -3.1709   -1.6981   -0.8722 C   0  0  0  0  0  0  0  0  0  0  0  0
    0.9028    4.2125    1.4112 C   0  0  0  0  0  0  0  0  0  0  0  0
    1.0971    4.8410    2.2928 H   0  0  0  0  0  0  0  0  0  0  0  0
    0.3963    2.5110   -0.7338 C   0  0  2  0  0  3  0  0  0  0  0  0
    0.2708    2.0495    0.5375 N   0  0  0  0  0  2  0  0  0  0  0  0
   -5.2194   -0.0416    0.0973 C   0  0  0  0  0  0  0  0  0  0  0  0
   -6.0192    0.6140    0.4841 H   0  0  0  0  0  0  0  0  0  0  0  0
   -2.8638   -0.3571   -0.4926 C   0  0  0  0  0  0  0  0  0  0  0  0
    0.5158    2.8788    1.5725 C   0  0  0  0  0  0  0  0  0  0  0  0
    0.3960    2.4279    2.5690 H   0  0  0  0  0  0  0  0  0  0  0  0
    1.3464   -0.3551   -0.5972 N   0  0  0  0  0  2  0  0  0  0  0  0
    3.7910    0.0424   -0.2834 C   0  0  0  0  0  0  0  0  0  0  0  0
   -5.5280   -1.3696   -0.2456 C   0  0  0  0  0  0  0  0  0  0  0  0
    5.3249   -1.8817   -0.1301 C   0  0  0  0  0  0  0  0  0  0  0  0
    6.7130   -2.4338    0.0889 C   0  0  0  0  0  0  0  0  0  0  0  0
    6.8434   -3.4198   -0.4034 H   0  0  0  0  0  0  0  0  0  0  0  0
    6.9314   -2.5829    1.1704 H   0  0  0  0  0  0  0  0  0  0  0  0
    7.4940   -1.7508   -0.3048 H   0  0  0  0  0  0  0  0  0  0  0  0
   -2.0855   -2.5895   -1.4186 C   0  0  0  0  0  0  0  0  0  0  0  0
   -1.4648   -2.0570   -2.1666 H   0  0  0  0  0  0  0  0  0  0  0  0
   -2.5117   -3.5018   -1.8822 H   0  0  0  0  0  0  0  0  0  0  0  0
   -1.3897   -2.9020   -0.6133 H   0  0  0  0  0  0  0  0  0  0  0  0
    3.6037    1.5347   -0.2001 C   0  0  0  0  0  0  0  0  0  0  0  0
    2.7906    1.7728    0.5105 H   0  0  0  0  0  0  0  0  0  0  0  0
    3.3105    1.9890   -1.1706 H   0  0  0  0  0  0  0  0  0  0  0  0
    4.5331    2.0352    0.1364 H   0  0  0  0  0  0  0  0  0  0  0  0
    0.7709    3.8522   -0.9692 C   0  0  0  0  0  0  0  0  0  0  0  0
    0.8664    4.2225   -1.9974 H   0  0  0  0  0  0  0  0  0  0  0  0
   -4.4857   -2.1766   -0.7374 C   0  0  0  0  0  0  0  0  0  0  0  0
   -4.7040   -3.2174   -1.0338 H   0  0  0  0  0  0  0  0  0  0  0  0
    1.0280    4.7105    0.1060 C   0  0  0  0  0  0  0  0  0  0  0  0
    1.3236    5.7558   -0.0756 H   0  0  0  0  0  0  0  0  0  0  0  0
    1.7705   -3.1926   -0.6954 C   0  0  0  0  0  0  0  0  0  0  0  0
    1.1194   -3.2679    0.1993 H   0  0  0  0  0  0  0  0  0  0  0  0
    2.1401   -4.2093   -0.9385 H   0  0  0  0  0  0  0  0  0  0  0  0
    1.1114   -2.8373   -1.5122 H   0  0  0  0  0  0  0  0  0  0  0  0
    4.2188   -2.7309   -0.3041 C   0  0  0  0  0  0  0  0  0  0  0  0
    4.3777   -3.8233   -0.3299 H   0  0  0  0  0  0  0  0  0  0  0  0
   -3.6420    1.9139    0.3564 C   0  0  0  0  0  0  0  0  0  0  0  0
   -4.3191    2.2536    1.1651 H   0  0  0  0  0  0  0  0  0  0  0  0
   -3.7855    2.6003   -0.5072 H   0  0  0  0  0  0  0  0  0  0  0  0
   -2.5951    2.0175    0.6995 H   0  0  0  0  0  0  0  0  0  0  0  0
    1.1315    0.3338   -1.8453 C   0  0  0  0  0  0  0  0  0  0  0  0
    0.7442   -0.3621   -2.6421 H   0  0  0  0  0  0  0  0  0  0  0  0
    2.0922    0.7254   -2.2612 H   0  0  0  0  0  0  0  0  0  0  0  0
    0.2212    2.1818   -3.2425 C   0  0  0  0  0  0  0  0  0  0  0  0
   -0.5469    2.9688   -3.3883 H   0  0  0  0  0  0  0  0  0  0  0  0
    0.0642    1.4105   -4.0229 H   0  0  0  0  0  0  0  0  0  0  0  0
    1.2210    2.6281   -3.4156 H   0  0  0  0  0  0  0  0  0  0  0  0
   -6.9203   -1.9232   -0.0585 C   0  0  0  0  0  0  0  0  0  0  0  0
   -7.1604   -2.6943   -0.8195 H   0  0  0  0  0  0  0  0  0  0  0  0
   -7.6904   -1.1274   -0.1234 H   0  0  0  0  0  0  0  0  0  0  0  0
   -7.0375   -2.4068    0.9370 H   0  0  0  0  0  0  0  0  0  0  0  0
  1  2  2  0  0  0  0
  1 47  1  0  0  0  0
  2 22  1  0  0  0  0
  3 16  1  0  0  0  0
  3 49  1  0  0  0  0
  4 24  1  0  0  0  0
  4  5  1  0  0  0  0
  6 18  1  0  0  0  0
  7  8  1  0  0  0  0
  7  6  1  0  0  0  0
  9  7  1  0  0  0  0
 10 53  1  0  0  0  0
 10  7  1  0  0  0  0
 11 39  2  0  0  0  0
 11 18  1  0  0  0  0
 12 19  2  0  0  0  0
 12 13  1  0  0  0  0
 14 10  1  1  0  0  0
 14 15  1  0  0  0  0
 15 19  1  0  0  0  0
 16 17  1  0  0  0  0
 18  3  2  0  0  0  0
 19 20  1  0  0  0  0
 21  2  1  0  0  0  0
 22 33  1  0  0  0  0
 22  4  2  0  0  0  0
 23 60  1  0  0  0  0
 23 16  2  0  0  0  0
 24 25  1  0  0  0  0
 25 27  1  0  0  0  0
 26 25  1  0  0  0  0
 28 25  1  0  0  0  0
 29 11  1  0  0  0  0
 29 32  1  0  0  0  0
 30 29  1  0  0  0  0
 31 29  1  0  0  0  0
 33 36  1  0  0  0  0
 33 34  1  0  0  0  0
 35 33  1  0  0  0  0
 37 14  1  0  0  0  0
 37 41  2  0  0  0  0
 38 37  1  0  0  0  0
 39 23  1  0  0  0  0
 40 39  1  0  0  0  0
 41 12  1  0  0  0  0
 42 41  1  0  0  0  0
 43  1  1  0  0  0  0
 43 44  1  0  0  0  0
 45 43  1  0  0  0  0
 46 43  1  0  0  0  0
 47 24  2  0  0  0  0
 48 47  1  0  0  0  0
 49 52  1  0  0  0  0
 49 50  1  0  0  0  0
 51 49  1  0  0  0  0
 53 21  1  0  0  0  0
 54 53  1  0  0  0  0
 55 53  1  0  0  0  0
 56 10  1  0  0  0  0
 57 56  1  0  0  0  0
 58 56  1  0  0  0  0
 59 56  1  0  0  0  0
 60 63  1  0  0  0  0
 61 60  1  0  0  0  0
 62 60  1  0  0  0  0
M  END
