1,2,3
 OpenBabel05122313063D

 42 42  0  0  0  0  0  0  0  0999 V2000
   -0.0271    1.6797   -0.5777 N   0  0  0  0  0  0  0  0  0  0  0  0
   -1.4420   -0.8695   -0.5613 N   0  0  0  0  0  0  0  0  0  0  0  0
    1.4718   -0.8209   -0.5589 N   0  0  0  0  0  0  0  0  0  0  0  0
   -1.0805    1.3758   -1.6144 C   0  0  0  0  0  0  0  0  0  0  0  0
   -1.6032    2.3022   -1.9171 H   0  0  0  0  0  0  0  0  0  0  0  0
   -0.5743    1.0319   -2.5346 H   0  0  0  0  0  0  0  0  0  0  0  0
   -2.0974    0.3514   -1.1405 C   0  0  0  0  0  0  0  0  0  0  0  0
   -2.7378    0.7779   -0.3427 H   0  0  0  0  0  0  0  0  0  0  0  0
   -2.7592    0.0684   -1.9855 H   0  0  0  0  0  0  0  0  0  0  0  0
   -0.6570   -1.6370   -1.5948 C   0  0  0  0  0  0  0  0  0  0  0  0
   -0.6123   -1.0329   -2.5193 H   0  0  0  0  0  0  0  0  0  0  0  0
   -1.1995   -2.5550   -1.8887 H   0  0  0  0  0  0  0  0  0  0  0  0
    0.7385   -2.0047   -1.1212 C   0  0  0  0  0  0  0  0  0  0  0  0
    0.6882   -2.7615   -0.3131 H   0  0  0  0  0  0  0  0  0  0  0  0
    1.3116   -2.4481   -1.9620 H   0  0  0  0  0  0  0  0  0  0  0  0
    1.7386    0.2310   -1.6060 C   0  0  0  0  0  0  0  0  0  0  0  0
    1.1888   -0.0425   -2.5250 H   0  0  0  0  0  0  0  0  0  0  0  0
    2.8033    0.2173   -1.9053 H   0  0  0  0  0  0  0  0  0  0  0  0
    1.3622    1.6295   -1.1485 C   0  0  0  0  0  0  0  0  0  0  0  0
    2.0480    1.9743   -0.3490 H   0  0  0  0  0  0  0  0  0  0  0  0
    1.4537    2.3373   -1.9982 H   0  0  0  0  0  0  0  0  0  0  0  0
   -0.2808    2.9899    0.0727 C   0  0  0  0  0  0  0  0  0  0  0  0
    0.4389    3.1170    0.9077 H   0  0  0  0  0  0  0  0  0  0  0  0
   -1.2903    2.9690    0.5330 H   0  0  0  0  0  0  0  0  0  0  0  0
   -0.1921    4.2028   -0.8721 C   0  0  0  0  0  0  0  0  0  0  0  0
   -2.4426   -1.7402    0.1042 C   0  0  0  0  0  0  0  0  0  0  0  0
   -2.9197   -1.1902    0.9391 H   0  0  0  0  0  0  0  0  0  0  0  0
   -1.9282   -2.6046    0.5697 H   0  0  0  0  0  0  0  0  0  0  0  0
   -3.5385   -2.2761   -0.8199 C   0  0  0  0  0  0  0  0  0  0  0  0
    2.7293   -1.2455    0.1045 C   0  0  0  0  0  0  0  0  0  0  0  0
    2.4957   -1.9256    0.9471 H   0  0  0  0  0  0  0  0  0  0  0  0
    3.2230   -0.3633    0.5588 H   0  0  0  0  0  0  0  0  0  0  0  0
    3.7369   -1.9355   -0.8182 C   0  0  0  0  0  0  0  0  0  0  0  0
   -0.3369    5.4005   -0.2778 O   0  0  0  0  0  0  0  0  0  0  0  0
   -0.4648    5.3166    0.6892 H   0  0  0  0  0  0  0  0  0  0  0  0
   -0.0172    4.1096   -2.0676 O   0  0  0  0  0  0  0  0  0  0  0  0
   -4.4360   -2.9705   -0.1069 O   0  0  0  0  0  0  0  0  0  0  0  0
   -5.1160   -3.3089   -0.7323 H   0  0  0  0  0  0  0  0  0  0  0  0
   -3.5861   -2.1065   -2.0241 O   0  0  0  0  0  0  0  0  0  0  0  0
    4.7929   -2.3542   -0.1072 O   0  0  0  0  0  0  0  0  0  0  0  0
    5.4226   -2.7803   -0.7318 H   0  0  0  0  0  0  0  0  0  0  0  0
    3.6058   -2.0766   -2.0199 O   0  0  0  0  0  0  0  0  0  0  0  0
  1 22  1  0  0  0  0
  2 26  1  0  0  0  0
  3 30  1  0  0  0  0
  4  7  1  0  0  0  0
  4  1  1  0  0  0  0
  5  4  1  0  0  0  0
  6  4  1  0  0  0  0
  7  2  1  0  0  0  0
  7  8  1  0  0  0  0
  9  7  1  0  0  0  0
 10 13  1  0  0  0  0
 10  2  1  0  0  0  0
 11 10  1  0  0  0  0
 12 10  1  0  0  0  0
 13  3  1  0  0  0  0
 13 14  1  0  0  0  0
 15 13  1  0  0  0  0
 16 19  1  0  0  0  0
 16  3  1  0  0  0  0
 17 16  1  0  0  0  0
 18 16  1  0  0  0  0
 19  1  1  0  0  0  0
 19 20  1  0  0  0  0
 21 19  1  0  0  0  0
 22 24  1  0  0  0  0
 22 23  1  0  0  0  0
 25 34  1  0  0  0  0
 25 22  1  0  0  0  0
 26 28  1  0  0  0  0
 26 27  1  0  0  0  0
 29 37  1  0  0  0  0
 29 26  1  0  0  0  0
 30 32  1  0  0  0  0
 30 31  1  0  0  0  0
 33 40  1  0  0  0  0
 33 30  1  0  0  0  0
 34 35  1  0  0  0  0
 36 25  2  0  0  0  0
 38 37  1  0  0  0  0
 39 29  2  0  0  0  0
 41 40  1  0  0  0  0
 42 33  2  0  0  0  0
M  END
