1,2,3
 OpenBabel05122313063D

 31 32  0  0  0  0  0  0  0  0999 V2000
   -2.0106    0.2478   -0.0572 N   0  0  0  0  0  2  0  0  0  0  0  0
    0.0000   -1.5954    0.0918 N   0  0  0  0  0  0  0  0  0  0  0  0
    2.0106    0.2479   -0.0573 N   0  0  0  0  0  2  0  0  0  0  0  0
    0.0001   -2.0217    1.5140 C   0  0  0  0  0  0  0  0  0  0  0  0
    0.0002   -3.1317    1.5812 H   0  0  0  0  0  0  0  0  0  0  0  0
   -0.8975   -1.6228    2.0208 H   0  0  0  0  0  0  0  0  0  0  0  0
    0.8978   -1.6227    2.0207 H   0  0  0  0  0  0  0  0  0  0  0  0
    4.7009   -0.4437    0.0489 C   0  0  0  0  0  0  0  0  0  0  0  0
    5.7648   -0.7192    0.0955 H   0  0  0  0  0  0  0  0  0  0  0  0
    2.9369    1.2000    0.1803 C   0  0  0  0  0  3  0  0  0  0  0  0
    2.5410    2.2189    0.3162 H   0  0  0  0  0  0  0  0  0  0  0  0
   -2.9369    1.2000    0.1804 C   0  0  0  0  0  3  0  0  0  0  0  0
   -2.5410    2.2189    0.3163 H   0  0  0  0  0  0  0  0  0  0  0  0
    1.2582   -2.0050   -0.6005 C   0  0  0  0  0  0  0  0  0  0  0  0
    1.5265   -3.0567   -0.3615 H   0  0  0  0  0  0  0  0  0  0  0  0
    1.0735   -1.9445   -1.6937 H   0  0  0  0  0  0  0  0  0  0  0  0
   -2.3821   -1.0532   -0.2512 C   0  0  0  0  0  0  0  0  0  0  0  0
   -3.7276   -1.4275   -0.1925 C   0  0  0  0  0  0  0  0  0  0  0  0
   -4.0106   -2.4796   -0.3402 H   0  0  0  0  0  0  0  0  0  0  0  0
    2.3821   -1.0531   -0.2514 C   0  0  0  0  0  0  0  0  0  0  0  0
   -1.2582   -2.0051   -0.6003 C   0  0  0  0  0  0  0  0  0  0  0  0
   -1.0737   -1.9449   -1.6936 H   0  0  0  0  0  0  0  0  0  0  0  0
   -1.5265   -3.0568   -0.3610 H   0  0  0  0  0  0  0  0  0  0  0  0
   -4.3001    0.8859    0.2325 C   0  0  0  0  0  0  0  0  0  0  0  0
   -5.0312    1.6844    0.4213 H   0  0  0  0  0  0  0  0  0  0  0  0
    4.3001    0.8859    0.2325 C   0  0  0  0  0  0  0  0  0  0  0  0
    5.0312    1.6844    0.4214 H   0  0  0  0  0  0  0  0  0  0  0  0
    3.7275   -1.4275   -0.1925 C   0  0  0  0  0  0  0  0  0  0  0  0
    4.0106   -2.4796   -0.3402 H   0  0  0  0  0  0  0  0  0  0  0  0
   -4.7009   -0.4437    0.0488 C   0  0  0  0  0  0  0  0  0  0  0  0
   -5.7648   -0.7192    0.0953 H   0  0  0  0  0  0  0  0  0  0  0  0
  1 12  1  0  0  0  0
  2  4  1  0  0  0  0
  3 10  1  0  0  0  0
  4  5  1  0  0  0  0
  4  7  1  0  0  0  0
  4  6  1  0  0  0  0
  8  9  1  0  0  0  0
  8 26  2  0  0  0  0
 10 26  1  0  0  0  0
 10 11  1  0  0  0  0
 12 24  1  0  0  0  0
 12 13  1  0  0  0  0
 14 15  1  0  0  0  0
 14 20  1  0  0  0  0
 14  2  1  0  0  0  0
 16 14  1  0  0  0  0
 17 18  2  0  0  0  0
 17  1  1  0  0  0  0
 18 30  1  0  0  0  0
 19 18  1  0  0  0  0
 20 28  2  0  0  0  0
 20  3  1  0  0  0  0
 21 23  1  0  0  0  0
 21 17  1  0  0  0  0
 21  2  1  0  0  0  0
 22 21  1  0  0  0  0
 24 25  1  0  0  0  0
 26 27  1  0  0  0  0
 28  8  1  0  0  0  0
 29 28  1  0  0  0  0
 30 31  1  0  0  0  0
 30 24  2  0  0  0  0
M  END
