2,4,5
 OpenBabel05122313063D

 31 30  0  0  0  0  0  0  0  0999 V2000
    0.5873   -2.5369   -1.1636 O   0  0  0  0  0  0  0  0  0  0  0  0
    1.0705    1.1021   -0.4002 N   0  0  0  0  0  2  0  0  0  0  0  0
   -1.9530    1.5061   -1.8856 N   0  0  0  0  0  0  0  0  0  0  0  0
   -1.2073    1.3025    0.9445 N   0  0  0  0  0  0  0  0  0  0  0  0
    0.8722   -1.2336   -0.9681 N   0  0  0  0  0  2  0  0  0  0  0  0
   -2.5830    2.3660   -0.8961 C   0  0  0  0  0  0  0  0  0  0  0  0
   -3.6585    2.6134   -1.0878 H   0  0  0  0  0  0  0  0  0  0  0  0
   -2.0506    3.3443   -0.8867 H   0  0  0  0  0  0  0  0  0  0  0  0
   -2.5444    1.7471    0.4999 C   0  0  0  0  0  0  0  0  0  0  0  0
   -2.9511    2.4843    1.2287 H   0  0  0  0  0  0  0  0  0  0  0  0
   -3.2096    0.8597    0.5363 H   0  0  0  0  0  0  0  0  0  0  0  0
   -0.1904    2.3739    1.1760 C   0  0  0  0  0  0  0  0  0  0  0  0
    0.3832    2.0690    2.0719 H   0  0  0  0  0  0  0  0  0  0  0  0
   -0.6837    3.3478    1.3820 H   0  0  0  0  0  0  0  0  0  0  0  0
    0.7682    2.4647   -0.0141 C   0  0  0  0  0  0  0  0  0  0  0  0
    0.2805    2.9703   -0.8763 H   0  0  0  0  0  0  0  0  0  0  0  0
    1.6756    3.0458    0.2580 H   0  0  0  0  0  0  0  0  0  0  0  0
    2.2156    0.6107   -0.8432 C   0  0  0  0  0  0  0  0  0  0  0  0
    3.4336    1.4514   -1.0765 C   0  0  0  0  0  0  0  0  0  0  0  0
    3.2731    2.1584   -1.9189 H   0  0  0  0  0  0  0  0  0  0  0  0
    4.3118    0.8255   -1.3120 H   0  0  0  0  0  0  0  0  0  0  0  0
    3.6802    2.0403   -0.1718 H   0  0  0  0  0  0  0  0  0  0  0  0
    2.1086   -0.8052   -1.1854 C   0  0  0  0  0  0  0  0  0  0  0  0
    3.1714   -1.7180   -1.6972 C   0  0  0  0  0  0  0  0  0  0  0  0
    2.8560   -2.1889   -2.6508 H   0  0  0  0  0  0  0  0  0  0  0  0
    3.3459   -2.5330   -0.9661 H   0  0  0  0  0  0  0  0  0  0  0  0
    4.1240   -1.1836   -1.8576 H   0  0  0  0  0  0  0  0  0  0  0  0
   -0.3739   -2.5511   -0.8659 H   0  0  0  0  0  0  0  0  0  0  0  0
   -1.2938    0.7749    1.8293 H   0  0  0  0  0  0  0  0  0  0  0  0
   -2.3961    0.5778   -1.8968 H   0  0  0  0  0  0  0  0  0  0  0  0
   -2.0543    1.8985   -2.8284 H   0  0  0  0  0  0  0  0  0  0  0  0
  1  5  1  0  0  0  0
  1 28  1  0  0  0  0
  2 15  1  0  0  0  0
  3  6  1  0  0  0  0
  4 12  1  0  0  0  0
  4 29  1  0  0  0  0
  6  8  1  0  0  0  0
  6  9  1  0  0  0  0
  7  6  1  0  0  0  0
  9 11  1  0  0  0  0
  9  4  1  0  0  0  0
  9 10  1  0  0  0  0
 12 14  1  0  0  0  0
 12 13  1  0  0  0  0
 15 17  1  0  0  0  0
 15 12  1  0  0  0  0
 16 15  1  0  0  0  0
 18  2  1  0  0  0  0
 19 18  1  0  0  0  0
 19 22  1  0  0  0  0
 20 19  1  0  0  0  0
 21 19  1  0  0  0  0
 23  5  1  0  0  0  0
 23 18  2  0  0  0  0
 24 23  1  0  0  0  0
 24 26  1  0  0  0  0
 25 24  1  0  0  0  0
 27 24  1  0  0  0  0
 30  3  1  0  0  0  0
 31  3  1  0  0  0  0
M  END
