1,2,33
 OpenBabel05122313063D

 61 65  0  0  1  0  0  0  0  0999 V2000
   -1.2046   -1.9193    0.3557 N   0  0  0  0  0  2  0  0  0  0  0  0
   -2.7656   -0.0000   -0.0000 N   0  0  0  0  0  2  0  0  0  0  0  0
   -0.2447   -2.8855    0.3633 C   0  0  2  0  0  3  0  0  0  0  0  0
   -0.5915   -4.2474    0.4433 C   0  0  0  0  0  0  0  0  0  0  0  0
   -1.9365   -4.6318    0.5339 C   0  0  0  0  0  0  0  0  0  0  0  0
   -2.9194   -3.6397    0.5125 C   0  0  0  0  0  0  0  0  0  0  0  0
   -2.5278   -2.2959    0.4021 C   0  0  0  0  0  0  0  0  0  0  0  0
   -3.4434   -1.1733    0.2346 C   0  0  2  0  0  3  0  0  0  0  0  0
   -4.8448   -1.1882    0.2423 C   0  0  0  0  0  0  0  0  0  0  0  0
   -5.5524   -0.0001   -0.0000 C   0  0  0  0  0  0  0  0  0  0  0  0
    1.1835   -2.4897    0.3054 C   0  0  0  0  0  0  0  0  0  0  0  0
    1.7031   -1.5880    1.2499 C   0  0  0  0  0  0  0  0  0  0  0  0
    3.0752   -1.2739    1.2643 C   0  0  0  0  0  0  0  0  0  0  0  0
    3.9123   -1.8750    0.3088 C   0  0  0  0  0  0  0  0  0  0  0  0
    3.4150   -2.7772   -0.6559 C   0  0  0  0  0  0  0  0  0  0  0  0
    2.0436   -3.0820   -0.6428 C   0  0  0  0  0  0  0  0  0  0  0  0
    3.6042   -0.3339    2.3164 C   0  0  0  0  0  0  0  0  0  0  0  0
    4.3284   -3.3633   -1.7030 C   0  0  0  0  0  0  0  0  0  0  0  0
    0.2158   -4.9924    0.4593 H   0  0  0  0  0  0  0  0  0  0  0  0
   -2.2124   -5.6933    0.6145 H   0  0  0  0  0  0  0  0  0  0  0  0
   -3.9867   -3.8965    0.5537 H   0  0  0  0  0  0  0  0  0  0  0  0
   -5.3779   -2.1297    0.4332 H   0  0  0  0  0  0  0  0  0  0  0  0
   -6.6513   -0.0001   -0.0000 H   0  0  0  0  0  0  0  0  0  0  0  0
    1.0301   -1.1346    1.9927 H   0  0  0  0  0  0  0  0  0  0  0  0
    4.9885   -1.6336    0.3111 H   0  0  0  0  0  0  0  0  0  0  0  0
    1.6272   -3.7686   -1.3961 H   0  0  0  0  0  0  0  0  0  0  0  0
    3.6685   -0.8401    3.3034 H   0  0  0  0  0  0  0  0  0  0  0  0
    2.9219    0.5310    2.4355 H   0  0  0  0  0  0  0  0  0  0  0  0
    4.6135    0.0437    2.0630 H   0  0  0  0  0  0  0  0  0  0  0  0
    4.4478   -2.6642   -2.5591 H   0  0  0  0  0  0  0  0  0  0  0  0
    5.3422   -3.5567   -1.2990 H   0  0  0  0  0  0  0  0  0  0  0  0
    3.9298   -4.3130   -2.1103 H   0  0  0  0  0  0  0  0  0  0  0  0
   -1.2046    1.9193   -0.3557 N   0  0  0  0  0  2  0  0  0  0  0  0
   -0.2447    2.8855   -0.3632 C   0  0  2  0  0  3  0  0  0  0  0  0
   -0.5916    4.2474   -0.4433 C   0  0  0  0  0  0  0  0  0  0  0  0
   -1.9366    4.6318   -0.5338 C   0  0  0  0  0  0  0  0  0  0  0  0
   -2.9195    3.6397   -0.5125 C   0  0  0  0  0  0  0  0  0  0  0  0
   -2.5278    2.2958   -0.4021 C   0  0  0  0  0  0  0  0  0  0  0  0
   -3.4435    1.1732   -0.2346 C   0  0  0  0  0  0  0  0  0  0  0  0
   -4.8449    1.1881   -0.2423 C   0  0  0  0  0  0  0  0  0  0  0  0
   -5.3779    2.1296   -0.4332 H   0  0  0  0  0  0  0  0  0  0  0  0
   -3.9868    3.8964   -0.5537 H   0  0  0  0  0  0  0  0  0  0  0  0
   -2.2126    5.6932   -0.6144 H   0  0  0  0  0  0  0  0  0  0  0  0
    0.2157    4.9924   -0.4593 H   0  0  0  0  0  0  0  0  0  0  0  0
    1.1835    2.4898   -0.3054 C   0  0  0  0  0  0  0  0  0  0  0  0
    1.7030    1.5881   -1.2499 C   0  0  0  0  0  0  0  0  0  0  0  0
    3.0752    1.2740   -1.2644 C   0  0  0  0  0  0  0  0  0  0  0  0
    3.9123    1.8750   -0.3089 C   0  0  0  0  0  0  0  0  0  0  0  0
    3.4149    2.7772    0.6559 C   0  0  0  0  0  0  0  0  0  0  0  0
    2.0435    3.0820    0.6428 C   0  0  0  0  0  0  0  0  0  0  0  0
    1.6272    3.7686    1.3962 H   0  0  0  0  0  0  0  0  0  0  0  0
    4.3283    3.3633    1.7031 C   0  0  0  0  0  0  0  0  0  0  0  0
    4.4476    2.6642    2.5591 H   0  0  0  0  0  0  0  0  0  0  0  0
    5.3422    3.5567    1.2991 H   0  0  0  0  0  0  0  0  0  0  0  0
    3.9298    4.3131    2.1103 H   0  0  0  0  0  0  0  0  0  0  0  0
    4.9884    1.6337   -0.3111 H   0  0  0  0  0  0  0  0  0  0  0  0
    3.6042    0.3341   -2.3165 C   0  0  0  0  0  0  0  0  0  0  0  0
    3.6684    0.8402   -3.3034 H   0  0  0  0  0  0  0  0  0  0  0  0
    2.9219   -0.5309   -2.4356 H   0  0  0  0  0  0  0  0  0  0  0  0
    4.6135   -0.0436   -2.0631 H   0  0  0  0  0  0  0  0  0  0  0  0
    1.0301    1.1347   -1.9928 H   0  0  0  0  0  0  0  0  0  0  0  0
  1  3  1  0  0  0  0
  1  7  1  0  0  0  0
  2  8  1  0  0  0  0
  3 11  1  1  0  0  0
  3  4  1  0  0  0  0
  4 19  1  0  0  0  0
  4  5  2  0  0  0  0
  5 20  1  0  0  0  0
  6  5  1  0  0  0  0
  6 21  1  0  0  0  0
  7  6  2  0  0  0  0
  8  9  1  0  0  0  0
  8  7  1  6  0  0  0
  9 22  1  0  0  0  0
 10  9  2  0  0  0  0
 11 12  1  0  0  0  0
 12 13  2  0  0  0  0
 12 24  1  0  0  0  0
 13 17  1  0  0  0  0
 14 25  1  0  0  0  0
 14 13  1  0  0  0  0
 15 16  1  0  0  0  0
 15 14  2  0  0  0  0
 16 11  2  0  0  0  0
 17 28  1  0  0  0  0
 17 27  1  0  0  0  0
 18 31  1  0  0  0  0
 18 15  1  0  0  0  0
 23 10  1  0  0  0  0
 26 16  1  0  0  0  0
 29 17  1  0  0  0  0
 30 18  1  0  0  0  0
 32 18  1  0  0  0  0
 34 33  1  0  0  0  0
 34 45  1  6  0  0  0
 35 34  1  0  0  0  0
 36 37  1  0  0  0  0
 36 35  2  0  0  0  0
 37 38  2  0  0  0  0
 38 33  1  0  0  0  0
 38 39  1  0  0  0  0
 39  2  1  0  0  0  0
 40 39  2  0  0  0  0
 40 10  1  0  0  0  0
 41 40  1  0  0  0  0
 42 37  1  0  0  0  0
 43 36  1  0  0  0  0
 44 35  1  0  0  0  0
 45 50  1  0  0  0  0
 46 45  2  0  0  0  0
 47 46  1  0  0  0  0
 47 48  2  0  0  0  0
 48 49  1  0  0  0  0
 49 52  1  0  0  0  0
 50 49  2  0  0  0  0
 50 51  1  0  0  0  0
 52 55  1  0  0  0  0
 52 53  1  0  0  0  0
 54 52  1  0  0  0  0
 56 48  1  0  0  0  0
 57 60  1  0  0  0  0
 57 47  1  0  0  0  0
 58 57  1  0  0  0  0
 59 57  1  0  0  0  0
 61 46  1  0  0  0  0
M  END
