1,18,22
 OpenBabel05122313063D

 53 56  0  0  1  0  0  0  0  0999 V2000
    1.8957   -0.4909   -2.0224 N   0  0  0  0  0  2  0  0  0  0  0  0
    1.1417    0.1922   -3.0584 C   0  0  0  0  0  0  0  0  0  0  0  0
   -0.3454   -0.1289   -3.0114 C   0  0  0  0  0  0  0  0  0  0  0  0
   -0.7902   -1.4109   -2.6403 C   0  0  0  0  0  0  0  0  0  0  0  0
   -2.1548   -1.7065   -2.5081 C   0  0  0  0  0  0  0  0  0  0  0  0
   -3.1146   -0.6990   -2.7320 C   0  0  0  0  0  0  0  0  0  0  0  0
   -4.4576   -0.8494   -2.5078 O   0  0  0  0  0  0  0  0  0  0  0  0
   -4.9012   -1.8494   -1.5823 C   0  0  0  0  0  0  0  0  0  0  0  0
   -5.9295   -1.2283   -0.6783 C   0  0  0  0  0  0  0  0  0  0  0  0
   -5.9307   -1.2296    0.6722 C   0  0  0  0  0  0  0  0  0  0  0  0
   -4.9041   -1.8529    1.5767 C   0  0  0  0  0  0  0  0  0  0  0  0
   -4.4612   -0.8551    2.5050 O   0  0  0  0  0  0  0  0  0  0  0  0
   -3.1183   -0.7038    2.7292 C   0  0  0  0  0  0  0  0  0  0  0  0
   -2.1576   -1.7101    2.5035 C   0  0  0  0  0  0  0  0  0  0  0  0
   -0.7933   -1.4138    2.6364 C   0  0  0  0  0  0  0  0  0  0  0  0
   -0.3495   -0.1321    3.0099 C   0  0  0  0  0  0  0  0  0  0  0  0
    1.1374    0.1900    3.0582 C   0  0  0  0  0  0  0  0  0  0  0  0
    1.8928   -0.4923    2.0227 N   0  0  0  0  0  2  0  0  0  0  0  0
    2.6077   -1.6030    2.3915 C   0  0  0  0  0  0  0  0  0  0  0  0
    2.7842   -2.0385    3.5383 O   0  0  0  0  0  0  0  0  0  0  0  0
    3.1753   -2.3271    1.1898 C   0  0  2  0  0  3  0  0  0  0  0  0
    2.7989   -1.8230    0.0004 N   0  0  0  0  0  2  0  0  0  0  0  0
    3.1769   -2.3263   -1.1889 C   0  0  0  0  0  0  0  0  0  0  0  0
    2.6110   -1.6014   -2.3909 C   0  0  0  0  0  0  0  0  0  0  0  0
    2.7891   -2.0362   -3.5378 O   0  0  0  0  0  0  0  0  0  0  0  0
    3.9992   -3.4598   -1.2204 C   0  0  0  0  0  0  0  0  0  0  0  0
    4.4092   -4.0255    0.0007 C   0  0  0  0  0  0  0  0  0  0  0  0
    3.9975   -3.4607    1.2217 C   0  0  0  0  0  0  0  0  0  0  0  0
   -1.3274    0.8350    3.3193 C   0  0  0  0  0  0  0  0  0  0  0  0
   -2.6927    0.5596    3.1886 C   0  0  0  0  0  0  0  0  0  0  0  0
   -2.6880    0.5649   -3.1893 C   0  0  0  0  0  0  0  0  0  0  0  0
   -1.3225    0.8395   -3.3191 C   0  0  0  0  0  0  0  0  0  0  0  0
    1.5608   -0.1149   -4.0429 H   0  0  0  0  0  0  0  0  0  0  0  0
    1.2782    1.2908   -2.9633 H   0  0  0  0  0  0  0  0  0  0  0  0
   -0.0496   -2.1975   -2.4330 H   0  0  0  0  0  0  0  0  0  0  0  0
   -2.4585   -2.7228   -2.2195 H   0  0  0  0  0  0  0  0  0  0  0  0
   -5.3361   -2.7048   -2.1504 H   0  0  0  0  0  0  0  0  0  0  0  0
   -4.0460   -2.2496   -0.9987 H   0  0  0  0  0  0  0  0  0  0  0  0
   -6.7485   -0.7095   -1.2057 H   0  0  0  0  0  0  0  0  0  0  0  0
   -6.7505   -0.7118    1.1993 H   0  0  0  0  0  0  0  0  0  0  0  0
   -5.3407   -2.7089    2.1426 H   0  0  0  0  0  0  0  0  0  0  0  0
   -4.0483   -2.2527    0.9939 H   0  0  0  0  0  0  0  0  0  0  0  0
   -2.4605   -2.7261    2.2131 H   0  0  0  0  0  0  0  0  0  0  0  0
   -0.0521   -2.1993    2.4278 H   0  0  0  0  0  0  0  0  0  0  0  0
    1.5557   -0.1171    4.0430 H   0  0  0  0  0  0  0  0  0  0  0  0
    1.2732    1.2887    2.9635 H   0  0  0  0  0  0  0  0  0  0  0  0
    4.2882   -3.8635   -2.2012 H   0  0  0  0  0  0  0  0  0  0  0  0
    5.0559   -4.9162    0.0009 H   0  0  0  0  0  0  0  0  0  0  0  0
    4.2851   -3.8650    2.2026 H   0  0  0  0  0  0  0  0  0  0  0  0
   -1.0112    1.8454    3.6255 H   0  0  0  0  0  0  0  0  0  0  0  0
   -3.4526    1.3330    3.3710 H   0  0  0  0  0  0  0  0  0  0  0  0
   -3.4473    1.3391   -3.3703 H   0  0  0  0  0  0  0  0  0  0  0  0
   -1.0054    1.8502   -3.6235 H   0  0  0  0  0  0  0  0  0  0  0  0
  2  3  1  0  0  0  0
  2 34  1  0  0  0  0
  2  1  1  0  0  0  0
  3  4  1  0  0  0  0
  4  5  2  0  0  0  0
  4 35  1  0  0  0  0
  5 36  1  0  0  0  0
  6  5  1  0  0  0  0
  6  7  1  0  0  0  0
  7  8  1  0  0  0  0
  8 38  1  0  0  0  0
  8  9  1  0  0  0  0
  9 10  2  0  0  0  0
 10 40  1  0  0  0  0
 10 11  1  0  0  0  0
 11 41  1  0  0  0  0
 11 12  1  0  0  0  0
 12 13  1  0  0  0  0
 13 30  1  0  0  0  0
 14 15  1  0  0  0  0
 14 13  2  0  0  0  0
 15 16  2  0  0  0  0
 16 17  1  0  0  0  0
 16 29  1  0  0  0  0
 17 45  1  0  0  0  0
 18 19  1  0  0  0  0
 18 17  1  0  0  0  0
 19 20  2  0  0  0  0
 21 22  1  6  0  0  0
 21 28  1  0  0  0  0
 21 19  1  0  0  0  0
 23 22  1  0  0  0  0
 24  1  1  0  0  0  0
 24 23  1  0  0  0  0
 25 24  2  0  0  0  0
 26 23  2  0  0  0  0
 26 27  1  0  0  0  0
 27 48  1  0  0  0  0
 27 28  2  0  0  0  0
 28 49  1  0  0  0  0
 29 50  1  0  0  0  0
 30 29  2  0  0  0  0
 30 51  1  0  0  0  0
 31  6  2  0  0  0  0
 32 31  1  0  0  0  0
 32  3  2  0  0  0  0
 33  2  1  0  0  0  0
 37  8  1  0  0  0  0
 39  9  1  0  0  0  0
 42 11  1  0  0  0  0
 43 14  1  0  0  0  0
 44 15  1  0  0  0  0
 46 17  1  0  0  0  0
 47 26  1  0  0  0  0
 52 31  1  0  0  0  0
 53 32  1  0  0  0  0
M  END
