1,17,22
 OpenBabel05122313063D

 38 41  0  0  1  0  0  0  0  0999 V2000
   -0.0426   -1.3052    0.0430 N   0  0  0  0  0  0  0  0  0  0  0  0
   -1.1446   -1.8355   -0.6177 C   0  0  0  0  0  0  0  0  0  0  0  0
   -1.5831   -1.7299   -1.9484 C   0  0  0  0  0  0  0  0  0  0  0  0
   -1.0167   -1.1376   -2.6811 H   0  0  0  0  0  0  0  0  0  0  0  0
   -2.7640   -2.4027   -2.2929 C   0  0  0  0  0  0  0  0  0  0  0  0
   -3.1361   -2.3411   -3.3272 H   0  0  0  0  0  0  0  0  0  0  0  0
   -3.4893   -3.1622   -1.3423 C   0  0  0  0  0  0  0  0  0  0  0  0
   -4.4107   -3.6762   -1.6568 H   0  0  0  0  0  0  0  0  0  0  0  0
   -3.0546   -3.2729   -0.0147 C   0  0  0  0  0  0  0  0  0  0  0  0
   -3.6101   -3.8638    0.7287 H   0  0  0  0  0  0  0  0  0  0  0  0
   -1.8734   -2.6008    0.3540 C   0  0  0  0  0  0  0  0  0  0  0  0
   -1.2354   -2.5214    1.5861 N   0  0  0  0  0  0  0  0  0  0  0  0
   -0.1793   -1.7557    1.3395 C   0  0  0  0  0  3  0  0  0  0  0  0
    0.8661   -1.3540    2.3308 C   0  0  0  0  0  0  0  0  0  0  0  0
    0.5187   -1.5806    3.3647 H   0  0  0  0  0  0  0  0  0  0  0  0
    1.7918   -1.9393    2.1494 H   0  0  0  0  0  0  0  0  0  0  0  0
    1.2201    0.0678    2.1469 N   0  0  0  0  0  0  0  0  0  0  0  0
    0.2275    0.9837    2.7178 C   0  0  0  0  0  0  0  0  0  0  0  0
    0.7216    1.9697    2.8467 H   0  0  0  0  0  0  0  0  0  0  0  0
   -0.1257    0.6563    3.7260 H   0  0  0  0  0  0  0  0  0  0  0  0
   -0.9335    1.1828    1.7927 C   0  0  2  0  0  3  0  0  0  0  0  0
   -0.7977    1.2090    0.4736 N   0  0  0  0  0  2  0  0  0  0  0  0
   -2.0531    1.4693   -0.0612 C   0  0  0  0  0  0  0  0  0  0  0  0
   -2.4781    1.5846   -1.3959 C   0  0  0  0  0  0  0  0  0  0  0  0
   -1.7582    1.4540   -2.2145 H   0  0  0  0  0  0  0  0  0  0  0  0
   -3.8328    1.8524   -1.6164 C   0  0  0  0  0  0  0  0  0  0  0  0
   -4.2023    1.9435   -2.6485 H   0  0  0  0  0  0  0  0  0  0  0  0
   -4.7472    1.9979   -0.5444 C   0  0  0  0  0  0  0  0  0  0  0  0
   -5.8056    2.2010   -0.7650 H   0  0  0  0  0  0  0  0  0  0  0  0
   -4.3397    1.8833    0.7910 C   0  0  0  0  0  0  0  0  0  0  0  0
   -5.0534    1.9905    1.6205 H   0  0  0  0  0  0  0  0  0  0  0  0
   -2.9803    1.6178    1.0109 C   0  0  0  0  0  0  0  0  0  0  0  0
   -2.2271    1.4312    2.1659 N   0  0  0  0  0  0  0  0  0  0  0  0
   -2.5812    1.4124    3.1217 H   0  0  0  0  0  0  0  0  0  0  0  0
    2.5743    0.3769    2.6128 C   0  0  0  0  0  0  0  0  0  0  0  0
    2.6888    0.2412    3.7145 H   0  0  0  0  0  0  0  0  0  0  0  0
    2.8175    1.4184    2.3312 H   0  0  0  0  0  0  0  0  0  0  0  0
    3.2853   -0.2858    2.0855 H   0  0  0  0  0  0  0  0  0  0  0  0
  1 13  1  0  0  0  0
  2  1  2  0  0  0  0
  2 11  1  0  0  0  0
  3  2  1  0  0  0  0
  4  3  1  0  0  0  0
  5  3  2  0  0  0  0
  5  7  1  0  0  0  0
  6  5  1  0  0  0  0
  7  9  2  0  0  0  0
  8  7  1  0  0  0  0
  9 11  1  0  0  0  0
  9 10  1  0  0  0  0
 11 12  2  0  0  0  0
 13 12  1  0  0  0  0
 13 14  1  0  0  0  0
 14 15  1  0  0  0  0
 16 14  1  0  0  0  0
 17 14  1  0  0  0  0
 17 35  1  0  0  0  0
 17 18  1  0  0  0  0
 18 19  1  0  0  0  0
 18 20  1  0  0  0  0
 21 33  1  0  0  0  0
 21 18  1  1  0  0  0
 22 21  1  0  0  0  0
 23 22  1  0  0  0  0
 23 32  1  0  0  0  0
 24 23  2  0  0  0  0
 25 24  1  0  0  0  0
 26 24  1  0  0  0  0
 26 28  2  0  0  0  0
 27 26  1  0  0  0  0
 28 30  1  0  0  0  0
 29 28  1  0  0  0  0
 30 32  2  0  0  0  0
 30 31  1  0  0  0  0
 32 33  1  0  0  0  0
 33 34  1  0  0  0  0
 35 36  1  0  0  0  0
 37 35  1  0  0  0  0
 38 35  1  0  0  0  0
M  END
