3,9,14
 OpenBabel05122313063D

 35 37  0  0  1  0  0  0  0  0999 V2000
    0.1994   -3.4361   -1.6340 C   0  0  0  0  0  0  0  0  0  0  0  0
    2.9544    0.1099    1.4613 N   0  0  0  0  0  0  0  0  0  0  0  0
    1.6384    0.1523    1.7797 N   0  0  0  0  0  2  0  0  0  0  0  0
    1.5473    0.2489    3.1205 C   0  0  1  0  0  3  0  0  0  0  0  0
    0.2141    0.3055    3.7970 C   0  0  0  0  0  0  0  0  0  0  0  0
    2.8489    0.2700    3.6842 C   0  0  0  0  0  0  0  0  0  0  0  0
    3.7100    0.1791    2.5904 C   0  0  0  0  0  0  0  0  0  0  0  0
    2.9494   -1.3255   -0.6417 N   0  0  0  0  0  0  0  0  0  0  0  0
    1.6323   -1.6180   -0.7611 N   0  0  0  0  0  2  0  0  0  0  0  0
    1.5355   -2.8275   -1.3470 C   0  0  2  0  0  3  0  0  0  0  0  0
    2.8348   -3.3315   -1.6118 C   0  0  0  0  0  0  0  0  0  0  0  0
    3.7005   -2.3413   -1.1462 C   0  0  0  0  0  0  0  0  0  0  0  0
    2.9502    1.2137   -0.8333 N   0  0  0  0  0  0  0  0  0  0  0  0
    1.6334    1.4673   -1.0236 N   0  0  0  0  0  2  0  0  0  0  0  0
    1.5380    2.5806   -1.7765 C   0  0  1  0  0  3  0  0  0  0  0  0
    0.2026    3.1376   -2.1572 C   0  0  0  0  0  0  0  0  0  0  0  0
    2.8378    3.0591   -2.0824 C   0  0  0  0  0  0  0  0  0  0  0  0
    3.7024    2.1577   -1.4609 C   0  0  0  0  0  0  0  0  0  0  0  0
    3.4465   -0.0007   -0.0057 B   0  0  1  0  0  0  0  0  0  0  0  0
    0.1461    1.1625    4.4974 H   0  0  0  0  0  0  0  0  0  0  0  0
    0.0089   -0.6165    4.3807 H   0  0  0  0  0  0  0  0  0  0  0  0
   -0.5834    0.4123    3.0367 H   0  0  0  0  0  0  0  0  0  0  0  0
    3.1206    0.3431    4.7423 H   0  0  0  0  0  0  0  0  0  0  0  0
    4.8036    0.1612    2.5301 H   0  0  0  0  0  0  0  0  0  0  0  0
    0.1292   -4.4722   -1.2453 H   0  0  0  0  0  0  0  0  0  0  0  0
   -0.0096   -3.4761   -2.7238 H   0  0  0  0  0  0  0  0  0  0  0  0
   -0.5944   -2.8297   -1.1567 H   0  0  0  0  0  0  0  0  0  0  0  0
    3.1023   -4.2859   -2.0769 H   0  0  0  0  0  0  0  0  0  0  0  0
    4.7943   -2.2843   -1.1332 H   0  0  0  0  0  0  0  0  0  0  0  0
    0.1295    3.3160   -3.2492 H   0  0  0  0  0  0  0  0  0  0  0  0
   -0.0006    4.1037   -1.6493 H   0  0  0  0  0  0  0  0  0  0  0  0
   -0.5933    2.4253   -1.8660 H   0  0  0  0  0  0  0  0  0  0  0  0
    3.1064    3.9393   -2.6756 H   0  0  0  0  0  0  0  0  0  0  0  0
    4.7963    2.1152   -1.4201 H   0  0  0  0  0  0  0  0  0  0  0  0
    4.6708   -0.0014   -0.0083 H   0  0  0  0  0  0  0  0  0  0  0  0
  1 25  1  0  0  0  0
  1 27  1  0  0  0  0
  2  3  1  0  0  0  0
  2  7  1  0  0  0  0
  3  4  1  0  0  0  0
  4  6  1  0  0  0  0
  4  5  1  1  0  0  0
  5 21  1  0  0  0  0
  5 20  1  0  0  0  0
  6 23  1  0  0  0  0
  7  6  2  0  0  0  0
  8 19  1  0  0  0  0
  9  8  1  0  0  0  0
 10  1  1  6  0  0  0
 10  9  1  0  0  0  0
 11 10  1  0  0  0  0
 11 12  2  0  0  0  0
 12 29  1  0  0  0  0
 12  8  1  0  0  0  0
 13 19  1  0  0  0  0
 14 13  1  0  0  0  0
 15 16  1  1  0  0  0
 15 14  1  0  0  0  0
 16 32  1  0  0  0  0
 16 31  1  0  0  0  0
 17 15  1  0  0  0  0
 17 18  2  0  0  0  0
 18 34  1  0  0  0  0
 18 13  1  0  0  0  0
 19 35  1  6  0  0  0
 19  2  1  0  0  0  0
 22  5  1  0  0  0  0
 24  7  1  0  0  0  0
 26  1  1  0  0  0  0
 28 11  1  0  0  0  0
 30 16  1  0  0  0  0
 33 17  1  0  0  0  0
M  END
