1,6,17
 OpenBabel05122313063D

 52 54  0  0  1  0  0  0  0  0999 V2000
   -0.3039   -0.5251    1.7966 N   0  0  0  0  0  2  0  0  0  0  0  0
    0.6051    1.3611    0.5625 C   0  0  2  0  0  0  0  0  0  0  0  0
    1.0353    2.3638    0.7242 H   0  0  0  0  0  0  0  0  0  0  0  0
    1.5907    0.5499   -0.1329 N   0  0  0  0  0  0  0  0  0  0  0  0
    0.2678    0.7147    1.8899 C   0  0  2  0  0  3  0  0  0  0  0  0
    1.2397   -0.7435   -0.3817 N   0  0  0  0  0  2  0  0  0  0  0  0
    0.5596    1.3306    3.1099 C   0  0  0  0  0  0  0  0  0  0  0  0
    1.0190    2.3310    3.1153 H   0  0  0  0  0  0  0  0  0  0  0  0
    3.5488    2.1363   -0.1836 C   0  0  0  0  0  0  0  0  0  0  0  0
    3.4745    2.4165    0.8927 H   0  0  0  0  0  0  0  0  0  0  0  0
    2.9704    2.9124   -0.7355 H   0  0  0  0  0  0  0  0  0  0  0  0
    0.2616    0.6604    4.3061 C   0  0  0  0  0  0  0  0  0  0  0  0
    0.4813    1.1186    5.2808 H   0  0  0  0  0  0  0  0  0  0  0  0
   -0.5734    1.5039   -0.2610 N   0  0  0  0  0  0  0  0  0  0  0  0
   -0.3254   -0.6143    4.2134 C   0  0  0  0  0  0  0  0  0  0  0  0
   -0.5843   -1.1866    5.1161 H   0  0  0  0  0  0  0  0  0  0  0  0
   -1.2692    0.3644   -0.5494 N   0  0  0  0  0  2  0  0  0  0  0  0
   -0.5949   -1.1720    2.9641 C   0  0  0  0  0  0  0  0  0  0  0  0
   -1.0948   -2.1433    2.8391 H   0  0  0  0  0  0  0  0  0  0  0  0
   -1.1683    2.6212   -0.7969 C   0  0  2  0  0  3  0  0  0  0  0  0
   -2.3020    2.1518   -1.4534 C   0  0  0  0  0  0  0  0  0  0  0  0
   -3.0340    2.7515   -2.0029 H   0  0  0  0  0  0  0  0  0  0  0  0
   -2.3425    0.7387   -1.2848 C   0  0  0  0  0  0  0  0  0  0  0  0
   -1.4239    5.0758   -1.3323 C   0  0  0  0  0  0  0  0  0  0  0  0
   -2.4580    5.1085   -0.9355 H   0  0  0  0  0  0  0  0  0  0  0  0
   -1.4865    4.8843   -2.4220 H   0  0  0  0  0  0  0  0  0  0  0  0
   -0.9717    6.0757   -1.1871 H   0  0  0  0  0  0  0  0  0  0  0  0
   -3.4106   -0.2029   -1.7435 C   0  0  0  0  0  0  0  0  0  0  0  0
   -2.9934   -1.2289   -1.7546 H   0  0  0  0  0  0  0  0  0  0  0  0
   -3.6714    0.0606   -2.7906 H   0  0  0  0  0  0  0  0  0  0  0  0
   -0.5986    3.9969   -0.6298 C   0  0  0  0  0  0  0  0  0  0  0  0
    0.4462    4.0172   -1.0182 H   0  0  0  0  0  0  0  0  0  0  0  0
   -0.5195    4.2388    0.4551 H   0  0  0  0  0  0  0  0  0  0  0  0
   -4.6625   -0.1448   -0.8547 C   0  0  0  0  0  0  0  0  0  0  0  0
   -5.4402   -0.8344   -1.2399 H   0  0  0  0  0  0  0  0  0  0  0  0
   -5.0968    0.8762   -0.8151 H   0  0  0  0  0  0  0  0  0  0  0  0
   -4.4047   -0.4670    0.1733 H   0  0  0  0  0  0  0  0  0  0  0  0
    2.4050   -2.8125   -1.1911 C   0  0  0  0  0  0  0  0  0  0  0  0
    1.7738   -2.9630   -2.0912 H   0  0  0  0  0  0  0  0  0  0  0  0
    1.8774   -3.3873   -0.4003 H   0  0  0  0  0  0  0  0  0  0  0  0
    2.3599   -1.3579   -0.8299 C   0  0  2  0  0  3  0  0  0  0  0  0
    3.4266   -0.4172   -0.8554 C   0  0  0  0  0  0  0  0  0  0  0  0
    4.4544   -0.6090   -1.1751 H   0  0  0  0  0  0  0  0  0  0  0  0
    2.9145    0.7954   -0.3974 C   0  0  0  0  0  0  0  0  0  0  0  0
    3.8189   -3.3509   -1.4015 C   0  0  0  0  0  0  0  0  0  0  0  0
    4.4531   -3.2177   -0.5005 H   0  0  0  0  0  0  0  0  0  0  0  0
    4.3274   -2.8453   -2.2481 H   0  0  0  0  0  0  0  0  0  0  0  0
    3.7903   -4.4328   -1.6360 H   0  0  0  0  0  0  0  0  0  0  0  0
    5.0136    2.1839   -0.6200 C   0  0  0  0  0  0  0  0  0  0  0  0
    5.4435    3.1898   -0.4500 H   0  0  0  0  0  0  0  0  0  0  0  0
    5.1175    1.9453   -1.6971 H   0  0  0  0  0  0  0  0  0  0  0  0
    5.6238    1.4536   -0.0521 H   0  0  0  0  0  0  0  0  0  0  0  0
  1  5  1  0  0  0  0
  1 18  1  0  0  0  0
  2  3  1  1  0  0  0
  4  2  1  0  0  0  0
  5  2  1  6  0  0  0
  5  7  1  0  0  0  0
  6  4  1  0  0  0  0
  7  8  1  0  0  0  0
  7 12  2  0  0  0  0
  9 10  1  0  0  0  0
 11  9  1  0  0  0  0
 12 13  1  0  0  0  0
 14  2  1  0  0  0  0
 15 12  1  0  0  0  0
 15 16  1  0  0  0  0
 17 14  1  0  0  0  0
 18 15  2  0  0  0  0
 19 18  1  0  0  0  0
 20 31  1  6  0  0  0
 20 14  1  0  0  0  0
 21 23  2  0  0  0  0
 21 20  1  0  0  0  0
 22 21  1  0  0  0  0
 23 17  1  0  0  0  0
 24 27  1  0  0  0  0
 24 25  1  0  0  0  0
 24 31  1  0  0  0  0
 26 24  1  0  0  0  0
 28 23  1  0  0  0  0
 28 34  1  0  0  0  0
 29 28  1  0  0  0  0
 30 28  1  0  0  0  0
 31 33  1  0  0  0  0
 32 31  1  0  0  0  0
 34 36  1  0  0  0  0
 34 37  1  0  0  0  0
 35 34  1  0  0  0  0
 38 40  1  0  0  0  0
 39 38  1  0  0  0  0
 41 38  1  1  0  0  0
 41  6  1  0  0  0  0
 42 41  1  0  0  0  0
 42 44  2  0  0  0  0
 43 42  1  0  0  0  0
 44  9  1  0  0  0  0
 44  4  1  0  0  0  0
 45 38  1  0  0  0  0
 45 46  1  0  0  0  0
 47 45  1  0  0  0  0
 48 45  1  0  0  0  0
 49 50  1  0  0  0  0
 49  9  1  0  0  0  0
 49 52  1  0  0  0  0
 51 49  1  0  0  0  0
M  END
