1,2,3
 OpenBabel05122313063D

 41 43  0  0  1  0  0  0  0  0999 V2000
    2.0478   -0.1726   -0.4474 N   0  0  0  0  0  0  0  0  0  0  0  0
    0.0001    1.3326   -0.0000 N   0  0  0  0  0  2  0  0  0  0  0  0
   -2.0478   -0.1724    0.4473 N   0  0  0  0  0  0  0  0  0  0  0  0
    2.9136    0.0518    0.7568 C   0  0  0  0  0  0  0  0  0  0  0  0
    2.3235    0.5371    1.5549 H   0  0  0  0  0  0  0  0  0  0  0  0
    3.7470    0.7278    0.4592 H   0  0  0  0  0  0  0  0  0  0  0  0
    3.4480   -1.3399    1.1543 C   0  0  0  0  0  0  0  0  0  0  0  0
    3.0251   -1.6599    2.1237 H   0  0  0  0  0  0  0  0  0  0  0  0
    4.5525   -1.3159    1.2418 H   0  0  0  0  0  0  0  0  0  0  0  0
    2.9950   -2.2745    0.0089 C   0  0  0  0  0  0  0  0  0  0  0  0
    3.7479   -3.0392   -0.2627 H   0  0  0  0  0  0  0  0  0  0  0  0
    2.0605   -2.7983    0.2956 H   0  0  0  0  0  0  0  0  0  0  0  0
    2.7029   -1.3152   -1.1391 C   0  0  0  0  0  0  0  0  0  0  0  0
    3.6512   -0.9614   -1.6118 H   0  0  0  0  0  0  0  0  0  0  0  0
    2.0283   -1.7044   -1.9240 H   0  0  0  0  0  0  0  0  0  0  0  0
    1.9594    1.0473   -1.2883 C   0  0  0  0  0  0  0  0  0  0  0  0
    1.5217    0.7300   -2.2588 H   0  0  0  0  0  0  0  0  0  0  0  0
    2.9628    1.4964   -1.4676 H   0  0  0  0  0  0  0  0  0  0  0  0
    1.0140    2.0066   -0.6255 C   0  0  1  0  0  3  0  0  0  0  0  0
   -1.0137    2.0068    0.6256 C   0  0  0  0  0  0  0  0  0  0  0  0
   -1.0418    3.4007    0.6246 C   0  0  0  0  0  0  0  0  0  0  0  0
   -1.8722    3.9248    1.1199 H   0  0  0  0  0  0  0  0  0  0  0  0
    0.0004    4.1150    0.0001 C   0  0  0  0  0  0  0  0  0  0  0  0
    0.0005    5.2139    0.0002 H   0  0  0  0  0  0  0  0  0  0  0  0
    1.0424    3.4005   -0.6244 C   0  0  0  0  0  0  0  0  0  0  0  0
    1.8730    3.9245   -1.1197 H   0  0  0  0  0  0  0  0  0  0  0  0
   -1.9592    1.0476    1.2882 C   0  0  0  0  0  0  0  0  0  0  0  0
   -1.5215    0.7301    2.2587 H   0  0  0  0  0  0  0  0  0  0  0  0
   -2.9626    1.4968    1.4676 H   0  0  0  0  0  0  0  0  0  0  0  0
   -2.9137    0.0522   -0.7568 C   0  0  0  0  0  0  0  0  0  0  0  0
   -2.3237    0.5375   -1.5548 H   0  0  0  0  0  0  0  0  0  0  0  0
   -3.7471    0.7282   -0.4590 H   0  0  0  0  0  0  0  0  0  0  0  0
   -3.4482   -1.3395   -1.1543 C   0  0  0  0  0  0  0  0  0  0  0  0
   -3.0252   -1.6595   -2.1236 H   0  0  0  0  0  0  0  0  0  0  0  0
   -4.5528   -1.3153   -1.2420 H   0  0  0  0  0  0  0  0  0  0  0  0
   -2.9955   -2.2741   -0.0089 C   0  0  0  0  0  0  0  0  0  0  0  0
   -3.7486   -3.0386    0.2628 H   0  0  0  0  0  0  0  0  0  0  0  0
   -2.0611   -2.7982   -0.2955 H   0  0  0  0  0  0  0  0  0  0  0  0
   -2.7032   -1.3148    1.1391 C   0  0  0  0  0  0  0  0  0  0  0  0
   -3.6513   -0.9608    1.6119 H   0  0  0  0  0  0  0  0  0  0  0  0
   -2.0286   -1.7041    1.9240 H   0  0  0  0  0  0  0  0  0  0  0  0
  1  4  1  0  0  0  0
  2 20  1  0  0  0  0
  3 39  1  0  0  0  0
  3 27  1  0  0  0  0
  4  7  1  0  0  0  0
  4  5  1  0  0  0  0
  6  4  1  0  0  0  0
  7  9  1  0  0  0  0
  7  8  1  0  0  0  0
 10 12  1  0  0  0  0
 10  7  1  0  0  0  0
 11 10  1  0  0  0  0
 13  1  1  0  0  0  0
 13 10  1  0  0  0  0
 14 13  1  0  0  0  0
 15 13  1  0  0  0  0
 16  1  1  0  0  0  0
 17 16  1  0  0  0  0
 18 16  1  0  0  0  0
 19 16  1  6  0  0  0
 19 25  1  0  0  0  0
 19  2  1  0  0  0  0
 20 27  1  0  0  0  0
 21 20  2  0  0  0  0
 21 22  1  0  0  0  0
 23 24  1  0  0  0  0
 23 21  1  0  0  0  0
 25 23  2  0  0  0  0
 26 25  1  0  0  0  0
 27 29  1  0  0  0  0
 27 28  1  0  0  0  0
 30 32  1  0  0  0  0
 30  3  1  0  0  0  0
 31 30  1  0  0  0  0
 33 30  1  0  0  0  0
 33 36  1  0  0  0  0
 34 33  1  0  0  0  0
 35 33  1  0  0  0  0
 36 37  1  0  0  0  0
 36 39  1  0  0  0  0
 38 36  1  0  0  0  0
 39 40  1  0  0  0  0
 39 41  1  0  0  0  0
M  END
