1,2,3
 OpenBabel05122313063D

 31 32  0  0  0  0  0  0  0  0999 V2000
   -1.1420   -0.7127    0.0606 N   0  0  0  0  0  2  0  0  0  0  0  0
    0.6954    1.5807    0.1505 N   0  0  0  0  0  0  0  0  0  0  0  0
    2.9308   -0.0663    0.0077 N   0  0  0  0  0  0  0  0  0  0  0  0
    3.3906   -0.7443   -0.6211 H   0  0  0  0  0  0  0  0  0  0  0  0
    3.3375   -0.2209    0.9443 H   0  0  0  0  0  0  0  0  0  0  0  0
   -1.6386   -1.9730    0.1210 C   0  0  0  0  0  3  0  0  0  0  0  0
   -0.8858   -2.7729    0.1974 H   0  0  0  0  0  0  0  0  0  0  0  0
   -3.0076   -2.2436    0.0669 C   0  0  0  0  0  0  0  0  0  0  0  0
   -3.3529   -3.2853    0.1220 H   0  0  0  0  0  0  0  0  0  0  0  0
   -3.8964   -1.1737   -0.0637 C   0  0  0  0  0  0  0  0  0  0  0  0
   -4.9823   -1.3406   -0.1188 H   0  0  0  0  0  0  0  0  0  0  0  0
   -3.3798    0.1275   -0.1206 C   0  0  0  0  0  0  0  0  0  0  0  0
   -4.0651    0.9773   -0.2178 H   0  0  0  0  0  0  0  0  0  0  0  0
   -1.9956    0.3528   -0.0496 C   0  0  0  0  0  0  0  0  0  0  0  0
   -1.4305    1.7755   -0.0585 C   0  0  0  0  0  0  0  0  0  0  0  0
   -0.3939    1.9814    1.0924 C   0  0  0  0  0  0  0  0  0  0  0  0
   -0.3082    3.0558    1.3624 H   0  0  0  0  0  0  0  0  0  0  0  0
   -0.4618    1.3600    2.0060 H   0  0  0  0  0  0  0  0  0  0  0  0
   -0.1966    1.9390   -1.0050 C   0  0  0  0  0  0  0  0  0  0  0  0
   -0.1025    1.2829   -1.8916 H   0  0  0  0  0  0  0  0  0  0  0  0
   -0.0575    3.0028   -1.2955 H   0  0  0  0  0  0  0  0  0  0  0  0
   -2.4914    2.8626   -0.1856 C   0  0  0  0  0  0  0  0  0  0  0  0
   -3.0602    2.7691   -1.1314 H   0  0  0  0  0  0  0  0  0  0  0  0
   -2.0155    3.8618   -0.1804 H   0  0  0  0  0  0  0  0  0  0  0  0
   -3.2099    2.8328    0.6567 H   0  0  0  0  0  0  0  0  0  0  0  0
    2.0418    2.1834    0.3061 C   0  0  0  0  0  0  0  0  0  0  0  0
    2.2653    2.1935    1.3937 H   0  0  0  0  0  0  0  0  0  0  0  0
    2.0428    3.2383   -0.0455 H   0  0  0  0  0  0  0  0  0  0  0  0
    3.0757    1.3454   -0.4369 C   0  0  0  0  0  0  0  0  0  0  0  0
    2.8904    1.3755   -1.5292 H   0  0  0  0  0  0  0  0  0  0  0  0
    4.1009    1.7327   -0.2590 H   0  0  0  0  0  0  0  0  0  0  0  0
  1  6  1  0  0  0  0
  2 26  1  0  0  0  0
  2 16  1  0  0  0  0
  3  5  1  0  0  0  0
  4  3  1  0  0  0  0
  6  7  1  0  0  0  0
  8  6  1  0  0  0  0
  8  9  1  0  0  0  0
 10  8  2  0  0  0  0
 11 10  1  0  0  0  0
 12 10  1  0  0  0  0
 12 14  2  0  0  0  0
 13 12  1  0  0  0  0
 14  1  1  0  0  0  0
 15 14  1  0  0  0  0
 15 16  1  0  0  0  0
 16 17  1  0  0  0  0
 16 18  1  0  0  0  0
 19 15  1  0  0  0  0
 19  2  1  0  0  0  0
 20 19  1  0  0  0  0
 21 19  1  0  0  0  0
 22 24  1  0  0  0  0
 22 15  1  0  0  0  0
 22 25  1  0  0  0  0
 23 22  1  0  0  0  0
 26 27  1  0  0  0  0
 28 26  1  0  0  0  0
 29 31  1  0  0  0  0
 29  3  1  0  0  0  0
 29 26  1  0  0  0  0
 30 29  1  0  0  0  0
M  END
