1,4,6
 OpenBabel05122313063D

 29 31  0  0  1  0  0  0  0  0999 V2000
   -1.1891    1.4685   -1.2463 N   0  0  0  0  0  0  0  0  0  0  0  0
   -0.7092    0.9528   -1.9979 H   0  0  0  0  0  0  0  0  0  0  0  0
   -2.0765    1.8137   -1.6313 H   0  0  0  0  0  0  0  0  0  0  0  0
    0.8443   -0.0321   -0.2495 N   0  0  0  0  0  2  0  0  0  0  0  0
    2.9794    1.0240   -0.3203 N   0  0  0  0  0  0  0  0  0  0  0  0
    0.4279   -2.1681    0.3055 N   0  0  0  0  0  2  0  0  0  0  0  0
    0.7651   -3.1068    0.5299 H   0  0  0  0  0  0  0  0  0  0  0  0
   -0.3853    2.5567   -0.7780 C   0  0  0  0  0  0  0  0  0  0  0  0
   -0.9729    3.8315   -0.6705 C   0  0  0  0  0  0  0  0  0  0  0  0
   -2.0329    3.9548   -0.9460 H   0  0  0  0  0  0  0  0  0  0  0  0
   -0.2280    4.9369   -0.2419 C   0  0  0  0  0  0  0  0  0  0  0  0
   -0.7119    5.9219   -0.1628 H   0  0  0  0  0  0  0  0  0  0  0  0
    1.1333    4.7821    0.0644 C   0  0  0  0  0  0  0  0  0  0  0  0
    1.7335    5.6461    0.3855 H   0  0  0  0  0  0  0  0  0  0  0  0
    1.7201    3.5168   -0.0313 C   0  0  0  0  0  0  0  0  0  0  0  0
    2.7794    3.3504    0.2119 H   0  0  0  0  0  0  0  0  0  0  0  0
    0.9795    2.3801   -0.4213 C   0  0  0  0  0  0  0  0  0  0  0  0
    1.6536    1.0504   -0.3581 C   0  0  2  0  0  3  0  0  0  0  0  0
    3.5711   -0.2039   -0.1538 C   0  0  0  0  0  0  0  0  0  0  0  0
    4.9910   -0.2926   -0.1617 C   0  0  0  0  0  0  0  0  0  0  0  0
    5.5548    0.6387   -0.3167 H   0  0  0  0  0  0  0  0  0  0  0  0
    5.6293   -1.5155    0.0216 C   0  0  0  0  0  0  0  0  0  0  0  0
    6.7291   -1.5641    0.0120 H   0  0  0  0  0  0  0  0  0  0  0  0
    4.8792   -2.6990    0.2212 C   0  0  0  0  0  0  0  0  0  0  0  0
    5.3938   -3.6608    0.3639 H   0  0  0  0  0  0  0  0  0  0  0  0
    3.4862   -2.6401    0.2345 C   0  0  0  0  0  0  0  0  0  0  0  0
    2.9011   -3.5615    0.3841 H   0  0  0  0  0  0  0  0  0  0  0  0
    2.8178   -1.4099    0.0469 C   0  0  0  0  0  0  0  0  0  0  0  0
    1.3656   -1.2688    0.0439 C   0  0  0  0  0  0  0  0  0  0  0  0
  1  8  1  0  0  0  0
  2  1  1  0  0  0  0
  3  1  1  0  0  0  0
  4 29  1  0  0  0  0
  5 19  2  0  0  0  0
  6  7  1  0  0  0  0
  8  9  2  0  0  0  0
  8 17  1  0  0  0  0
  9 11  1  0  0  0  0
 10  9  1  0  0  0  0
 11 12  1  0  0  0  0
 11 13  2  0  0  0  0
 13 14  1  0  0  0  0
 15 13  1  0  0  0  0
 15 16  1  0  0  0  0
 17 15  2  0  0  0  0
 18 17  1  1  0  0  0
 18  5  1  0  0  0  0
 18  4  1  0  0  0  0
 19 28  1  0  0  0  0
 20 19  1  0  0  0  0
 20 22  2  0  0  0  0
 21 20  1  0  0  0  0
 22 24  1  0  0  0  0
 23 22  1  0  0  0  0
 24 26  2  0  0  0  0
 24 25  1  0  0  0  0
 26 27  1  0  0  0  0
 28 26  1  0  0  0  0
 29 28  2  0  0  0  0
 29  6  1  0  0  0  0
M  END
