1,2,3
 OpenBabel05122313063D

 41 44  0  0  1  0  0  0  0  0999 V2000
   -1.9966    2.0981   -0.2016 N   0  0  0  0  0  2  0  0  0  0  0  0
   -0.4505    0.0094   -0.3652 N   0  0  0  0  0  2  0  0  0  0  0  0
   -2.0049   -2.0789   -0.3054 N   0  0  0  0  0  2  0  0  0  0  0  0
    8.0505   -0.0333    0.1390 N   0  0  0  0  0  0  0  0  0  0  0  0
    8.5032   -0.6875    0.7749 H   0  0  0  0  0  0  0  0  0  0  0  0
    8.5603    0.8312   -0.0352 H   0  0  0  0  0  0  0  0  0  0  0  0
   -2.9005    3.0842   -0.2027 C   0  0  0  0  0  3  0  0  0  0  0  0
   -3.9523    2.7490   -0.1640 H   0  0  0  0  0  0  0  0  0  0  0  0
   -2.5228    4.4345   -0.2591 C   0  0  0  0  0  0  0  0  0  0  0  0
   -3.2872    5.2247   -0.2541 H   0  0  0  0  0  0  0  0  0  0  0  0
   -1.1556    4.7421   -0.3232 C   0  0  0  0  0  0  0  0  0  0  0  0
   -0.8195    5.7889   -0.3700 H   0  0  0  0  0  0  0  0  0  0  0  0
   -0.2162    3.7018   -0.3343 C   0  0  0  0  0  0  0  0  0  0  0  0
    0.8583    3.9226   -0.4012 H   0  0  0  0  0  0  0  0  0  0  0  0
   -0.6766    2.3740   -0.2708 C   0  0  0  0  0  0  0  0  0  0  0  0
    0.2099    1.1747   -0.2870 C   0  0  1  0  0  3  0  0  0  0  0  0
    1.6101    1.2104   -0.2043 C   0  0  0  0  0  0  0  0  0  0  0  0
    2.1370    2.1681   -0.0997 H   0  0  0  0  0  0  0  0  0  0  0  0
    2.3441    0.0003   -0.1937 C   0  0  0  0  0  0  0  0  0  0  0  0
    1.6054   -1.2051   -0.2608 C   0  0  0  0  0  0  0  0  0  0  0  0
    2.1332   -2.1679   -0.2665 H   0  0  0  0  0  0  0  0  0  0  0  0
    0.2050   -1.1609   -0.3348 C   0  0  0  0  0  0  0  0  0  0  0  0
   -0.6857   -2.3565   -0.3803 C   0  0  2  0  0  3  0  0  0  0  0  0
   -0.2298   -3.6817   -0.5021 C   0  0  0  0  0  0  0  0  0  0  0  0
    0.8441   -3.9040   -0.5725 H   0  0  0  0  0  0  0  0  0  0  0  0
   -1.1733   -4.7177   -0.5446 C   0  0  0  0  0  0  0  0  0  0  0  0
   -0.8408   -5.7624   -0.6389 H   0  0  0  0  0  0  0  0  0  0  0  0
   -2.5395   -4.4080   -0.4727 C   0  0  0  0  0  0  0  0  0  0  0  0
   -3.3069   -5.1945   -0.5084 H   0  0  0  0  0  0  0  0  0  0  0  0
   -2.9125   -3.0603   -0.3549 C   0  0  0  0  0  0  0  0  0  0  0  0
   -3.9632   -2.7232   -0.3042 H   0  0  0  0  0  0  0  0  0  0  0  0
    3.8166   -0.0048   -0.1014 C   0  0  0  0  0  0  0  0  0  0  0  0
    4.5142   -1.0690    0.5188 C   0  0  0  0  0  0  0  0  0  0  0  0
    3.9499   -1.8971    0.9734 H   0  0  0  0  0  0  0  0  0  0  0  0
    5.9045   -1.0760    0.6172 C   0  0  0  0  0  0  0  0  0  0  0  0
    6.4125   -1.9114    1.1239 H   0  0  0  0  0  0  0  0  0  0  0  0
    6.6765   -0.0114    0.0842 C   0  0  0  0  0  0  0  0  0  0  0  0
    5.9848    1.0574   -0.5427 C   0  0  0  0  0  0  0  0  0  0  0  0
    6.5580    1.8905   -0.9785 H   0  0  0  0  0  0  0  0  0  0  0  0
    4.5934    1.0564   -0.6246 C   0  0  0  0  0  0  0  0  0  0  0  0
    4.0954    1.8916   -1.1397 H   0  0  0  0  0  0  0  0  0  0  0  0
  2 22  1  0  0  0  0
  2 16  1  0  0  0  0
  4  5  1  0  0  0  0
  6  4  1  0  0  0  0
  7  1  1  0  0  0  0
  7  8  1  0  0  0  0
  9 10  1  0  0  0  0
  9  7  1  0  0  0  0
 11  9  2  0  0  0  0
 12 11  1  0  0  0  0
 13 11  1  0  0  0  0
 13 15  2  0  0  0  0
 14 13  1  0  0  0  0
 15  1  1  0  0  0  0
 16 15  1  1  0  0  0
 16 17  1  0  0  0  0
 17 19  2  0  0  0  0
 17 18  1  0  0  0  0
 19 32  1  0  0  0  0
 20 19  1  0  0  0  0
 21 20  1  0  0  0  0
 22 20  2  0  0  0  0
 23 22  1  6  0  0  0
 23  3  1  0  0  0  0
 24 23  1  0  0  0  0
 25 24  1  0  0  0  0
 26 24  2  0  0  0  0
 26 28  1  0  0  0  0
 27 26  1  0  0  0  0
 28 30  2  0  0  0  0
 29 28  1  0  0  0  0
 30  3  1  0  0  0  0
 30 31  1  0  0  0  0
 32 33  1  0  0  0  0
 33 35  2  0  0  0  0
 33 34  1  0  0  0  0
 35 36  1  0  0  0  0
 37  4  1  0  0  0  0
 37 35  1  0  0  0  0
 38 37  2  0  0  0  0
 39 38  1  0  0  0  0
 40 38  1  0  0  0  0
 40 32  2  0  0  0  0
 41 40  1  0  0  0  0
M  END
