2,3,27
 OpenBabel05122313063D

 47 51  0  0  1  0  0  0  0  0999 V2000
    3.2220    1.9099   -1.5747 O   0  0  0  0  0  0  0  0  0  0  0  0
    1.7711    0.3034   -0.8737 N   0  0  0  0  0  2  0  0  0  0  0  0
   -0.0001    1.8603    0.0000 N   0  0  0  0  0  2  0  0  0  0  0  0
    1.0699    2.5491   -0.5347 C   0  0  0  0  0  0  0  0  0  0  0  0
    1.0909    3.9517   -0.5482 C   0  0  0  0  0  0  0  0  0  0  0  0
    1.9541    4.4753   -0.9817 H   0  0  0  0  0  0  0  0  0  0  0  0
   -0.0001    4.6532   -0.0002 C   0  0  0  0  0  0  0  0  0  0  0  0
   -0.0001    5.7522   -0.0002 H   0  0  0  0  0  0  0  0  0  0  0  0
    2.0436    1.5915   -1.0121 C   0  0  1  0  0  3  0  0  0  0  0  0
    3.7939    0.6460   -2.0233 C   0  0  0  0  0  0  0  0  0  0  0  0
    4.8618    0.6318   -1.7367 H   0  0  0  0  0  0  0  0  0  0  0  0
    3.7003    0.6079   -3.1286 H   0  0  0  0  0  0  0  0  0  0  0  0
    2.9487   -0.4583   -1.3161 C   0  0  1  0  0  0  0  0  0  0  0  0
    2.6224   -1.2345   -2.0372 H   0  0  0  0  0  0  0  0  0  0  0  0
    3.6773   -1.1403   -0.1676 C   0  0  0  0  0  0  0  0  0  0  0  0
    4.6053   -2.1579   -0.4619 C   0  0  0  0  0  0  0  0  0  0  0  0
    4.7453   -2.4835   -1.5056 H   0  0  0  0  0  0  0  0  0  0  0  0
    5.3424   -2.7689    0.5620 C   0  0  0  0  0  0  0  0  0  0  0  0
    6.0607   -3.5665    0.3184 H   0  0  0  0  0  0  0  0  0  0  0  0
    5.1525   -2.3731    1.8959 C   0  0  0  0  0  0  0  0  0  0  0  0
    5.7242   -2.8569    2.7024 H   0  0  0  0  0  0  0  0  0  0  0  0
    4.2210   -1.3677    2.1954 C   0  0  0  0  0  0  0  0  0  0  0  0
    4.0547   -1.0634    3.2400 H   0  0  0  0  0  0  0  0  0  0  0  0
    3.4867   -0.7524    1.1701 C   0  0  0  0  0  0  0  0  0  0  0  0
    2.7325    0.0120    1.4099 H   0  0  0  0  0  0  0  0  0  0  0  0
   -3.2222    1.9101    1.5744 O   0  0  0  0  0  0  0  0  0  0  0  0
   -1.7713    0.3034    0.8739 N   0  0  0  0  0  2  0  0  0  0  0  0
   -1.0701    2.5491    0.5346 C   0  0  0  0  0  0  0  0  0  0  0  0
   -1.0911    3.9518    0.5479 C   0  0  0  0  0  0  0  0  0  0  0  0
   -1.9543    4.4753    0.9814 H   0  0  0  0  0  0  0  0  0  0  0  0
   -2.0437    1.5916    1.0120 C   0  0  0  0  0  0  0  0  0  0  0  0
   -3.7942    0.6462    2.0231 C   0  0  0  0  0  0  0  0  0  0  0  0
   -4.8620    0.6319    1.7363 H   0  0  0  0  0  0  0  0  0  0  0  0
   -3.7008    0.6082    3.1285 H   0  0  0  0  0  0  0  0  0  0  0  0
   -2.9489   -0.4582    1.3162 C   0  0  1  0  0  0  0  0  0  0  0  0
   -2.6227   -1.2343    2.0375 H   0  0  0  0  0  0  0  0  0  0  0  0
   -3.6772   -1.1405    0.1678 C   0  0  0  0  0  0  0  0  0  0  0  0
   -4.6050   -2.1583    0.4620 C   0  0  0  0  0  0  0  0  0  0  0  0
   -4.7449   -2.4839    1.5058 H   0  0  0  0  0  0  0  0  0  0  0  0
   -5.3420   -2.7695   -0.5619 C   0  0  0  0  0  0  0  0  0  0  0  0
   -6.0600   -3.5673   -0.3183 H   0  0  0  0  0  0  0  0  0  0  0  0
   -5.1521   -2.3737   -1.8958 C   0  0  0  0  0  0  0  0  0  0  0  0
   -5.7237   -2.8576   -2.7023 H   0  0  0  0  0  0  0  0  0  0  0  0
   -4.2209   -1.3680   -2.1953 C   0  0  0  0  0  0  0  0  0  0  0  0
   -4.0547   -1.0636   -3.2399 H   0  0  0  0  0  0  0  0  0  0  0  0
   -3.4868   -0.7524   -1.1700 C   0  0  0  0  0  0  0  0  0  0  0  0
   -2.7328    0.0121   -1.4098 H   0  0  0  0  0  0  0  0  0  0  0  0
  1  9  1  0  0  0  0
  3 28  1  0  0  0  0
  4  3  1  0  0  0  0
  5  4  2  0  0  0  0
  5  7  1  0  0  0  0
  6  5  1  0  0  0  0
  7 29  2  0  0  0  0
  8  7  1  0  0  0  0
  9  2  1  0  0  0  0
  9  4  1  1  0  0  0
 10 11  1  0  0  0  0
 10  1  1  0  0  0  0
 10 13  1  0  0  0  0
 12 10  1  0  0  0  0
 13 14  1  6  0  0  0
 13  2  1  0  0  0  0
 13 15  1  0  0  0  0
 15 24  1  0  0  0  0
 16 15  2  0  0  0  0
 16 18  1  0  0  0  0
 17 16  1  0  0  0  0
 18 20  2  0  0  0  0
 19 18  1  0  0  0  0
 20 22  1  0  0  0  0
 20 21  1  0  0  0  0
 22 23  1  0  0  0  0
 24 25  1  0  0  0  0
 24 22  2  0  0  0  0
 26 32  1  0  0  0  0
 27 31  1  0  0  0  0
 27 35  1  0  0  0  0
 28 29  1  0  0  0  0
 28 31  2  0  0  0  0
 29 30  1  0  0  0  0
 31 26  1  0  0  0  0
 32 34  1  0  0  0  0
 33 32  1  0  0  0  0
 35 32  1  0  0  0  0
 35 36  1  1  0  0  0
 37 38  1  0  0  0  0
 37 35  1  0  0  0  0
 38 39  1  0  0  0  0
 40 41  1  0  0  0  0
 40 38  2  0  0  0  0
 42 40  1  0  0  0  0
 43 42  1  0  0  0  0
 44 42  2  0  0  0  0
 44 46  1  0  0  0  0
 45 44  1  0  0  0  0
 46 37  2  0  0  0  0
 47 46  1  0  0  0  0
M  END
