2,7,12
 OpenBabel05122313063D

 33 36  0  0  0  0  0  0  0  0999 V2000
    1.7819    0.0025   -0.0001 B   0  0  0  0  0  0  0  0  0  0  0  0
    0.0058    1.7498   -0.0012 N   0  0  0  0  0  2  0  0  0  0  0  0
    1.3452    1.4946   -0.0011 N   0  0  0  0  0  0  0  0  0  0  0  0
    2.0397    2.6658   -0.0019 C   0  0  0  0  0  3  0  0  0  0  0  0
    1.1180    3.7154   -0.0026 C   0  0  0  0  0  0  0  0  0  0  0  0
   -0.1418    3.0885   -0.0021 C   0  0  0  0  0  0  0  0  0  0  0  0
   -0.1682   -0.7605    1.4477 N   0  0  0  0  0  2  0  0  0  0  0  0
    1.1743   -0.6720    1.2744 N   0  0  0  0  0  0  0  0  0  0  0  0
    1.8143   -1.1461    2.3801 C   0  0  0  0  0  3  0  0  0  0  0  0
    0.8478   -1.5763    3.2908 C   0  0  0  0  0  0  0  0  0  0  0  0
   -0.3821   -1.3097    2.6588 C   0  0  0  0  0  0  0  0  0  0  0  0
   -0.1684   -0.7626   -1.4466 N   0  0  0  0  0  2  0  0  0  0  0  0
    1.1741   -0.6737   -1.2736 N   0  0  0  0  0  0  0  0  0  0  0  0
    1.8140   -1.1493   -2.3788 C   0  0  0  0  0  3  0  0  0  0  0  0
    0.8474   -1.5807   -3.2888 C   0  0  0  0  0  0  0  0  0  0  0  0
   -0.3825   -1.3134   -2.6568 C   0  0  0  0  0  0  0  0  0  0  0  0
    4.2272    0.7450   -0.0003 N   0  0  0  0  0  0  0  0  0  0  0  0
    3.2914   -0.2382   -0.0000 N   0  0  0  0  0  0  0  0  0  0  0  0
    3.8836   -1.4800    0.0005 C   0  0  0  0  0  0  0  0  0  0  0  0
    5.2602   -1.2871    0.0007 C   0  0  0  0  0  0  0  0  0  0  0  0
    5.4114    0.1243    0.0002 C   0  0  0  0  0  0  0  0  0  0  0  0
    3.1342    2.6243   -0.0019 H   0  0  0  0  0  0  0  0  0  0  0  0
    1.3358    4.7876   -0.0033 H   0  0  0  0  0  0  0  0  0  0  0  0
   -1.1485    3.5226   -0.0024 H   0  0  0  0  0  0  0  0  0  0  0  0
    2.9069   -1.1405    2.4412 H   0  0  0  0  0  0  0  0  0  0  0  0
    1.0153   -2.0176    4.2778 H   0  0  0  0  0  0  0  0  0  0  0  0
   -1.4090   -1.4729    3.0047 H   0  0  0  0  0  0  0  0  0  0  0  0
    2.9066   -1.1437   -2.4401 H   0  0  0  0  0  0  0  0  0  0  0  0
    1.0148   -2.0233   -4.2752 H   0  0  0  0  0  0  0  0  0  0  0  0
   -1.4094   -1.4771   -3.0023 H   0  0  0  0  0  0  0  0  0  0  0  0
    3.2840   -2.3973    0.0007 H   0  0  0  0  0  0  0  0  0  0  0  0
    6.0390   -2.0565    0.0011 H   0  0  0  0  0  0  0  0  0  0  0  0
    6.3353    0.7171    0.0001 H   0  0  0  0  0  0  0  0  0  0  0  0
  1 18  1  0  0  0  0
  1  8  1  0  0  0  0
  2  3  1  0  0  0  0
  3  1  1  0  0  0  0
  4 22  1  0  0  0  0
  4  3  1  0  0  0  0
  5  6  2  0  0  0  0
  5  4  1  0  0  0  0
  6  2  1  0  0  0  0
  7 11  1  0  0  0  0
  8  7  1  0  0  0  0
  8  9  1  0  0  0  0
  9 25  1  0  0  0  0
  9 10  1  0  0  0  0
 10 26  1  0  0  0  0
 11 27  1  0  0  0  0
 11 10  2  0  0  0  0
 12 13  1  0  0  0  0
 13  1  1  0  0  0  0
 14 13  1  0  0  0  0
 15 16  2  0  0  0  0
 15 14  1  0  0  0  0
 16 12  1  0  0  0  0
 17 18  1  0  0  0  0
 17 21  2  0  0  0  0
 18 19  1  0  0  0  0
 19 20  2  0  0  0  0
 19 31  1  0  0  0  0
 20 32  1  0  0  0  0
 21 20  1  0  0  0  0
 23  5  1  0  0  0  0
 24  6  1  0  0  0  0
 28 14  1  0  0  0  0
 29 15  1  0  0  0  0
 30 16  1  0  0  0  0
 33 21  1  0  0  0  0
M  END
