4,5,6
 OpenBabel05122313063D

 44 47  0  0  1  0  0  0  0  0999 V2000
   -7.8822   -1.0969   -0.4309 O   0  0  0  0  0  0  0  0  0  0  0  0
   -8.2528   -0.2805   -0.0303 H   0  0  0  0  0  0  0  0  0  0  0  0
   -6.9138    1.1059    0.6234 O   0  0  0  0  0  0  0  0  0  0  0  0
    2.2873   -1.9911    0.2985 N   0  0  0  0  0  2  0  0  0  0  0  0
    0.5054   -0.1170   -0.1076 N   0  0  0  0  0  2  0  0  0  0  0  0
    1.8243    2.1374   -0.2813 N   0  0  0  0  0  2  0  0  0  0  0  0
    3.2864   -2.8646    0.4740 C   0  0  0  0  0  3  0  0  0  0  0  0
    4.2992   -2.4318    0.5197 H   0  0  0  0  0  0  0  0  0  0  0  0
    3.0573   -4.2437    0.5882 C   0  0  0  0  0  0  0  0  0  0  0  0
    3.8998   -4.9346    0.7326 H   0  0  0  0  0  0  0  0  0  0  0  0
    1.7360   -4.7063    0.5113 C   0  0  0  0  0  0  0  0  0  0  0  0
    1.5138   -5.7806    0.5946 H   0  0  0  0  0  0  0  0  0  0  0  0
    0.6956   -3.7864    0.3233 C   0  0  0  0  0  0  0  0  0  0  0  0
   -0.3449   -4.1318    0.2546 H   0  0  0  0  0  0  0  0  0  0  0  0
    1.0072   -2.4191    0.2191 C   0  0  0  0  0  0  0  0  0  0  0  0
   -0.0099   -1.3467    0.0133 C   0  0  1  0  0  3  0  0  0  0  0  0
   -1.3976   -1.5509   -0.0405 C   0  0  0  0  0  0  0  0  0  0  0  0
   -1.8241   -2.5532    0.0967 H   0  0  0  0  0  0  0  0  0  0  0  0
   -2.2600   -0.4450   -0.2263 C   0  0  0  0  0  0  0  0  0  0  0  0
   -1.6665    0.8331   -0.3508 C   0  0  0  0  0  0  0  0  0  0  0  0
   -2.3011    1.7117   -0.5268 H   0  0  0  0  0  0  0  0  0  0  0  0
   -0.2699    0.9596   -0.2834 C   0  0  0  0  0  0  0  0  0  0  0  0
    0.4816    2.2441   -0.3961 C   0  0  1  0  0  3  0  0  0  0  0  0
   -0.1271    3.4945   -0.6053 C   0  0  0  0  0  0  0  0  0  0  0  0
   -1.2181    3.5783   -0.7017 H   0  0  0  0  0  0  0  0  0  0  0  0
    0.6812    4.6361   -0.6917 C   0  0  0  0  0  0  0  0  0  0  0  0
    0.2250    5.6237   -0.8561 H   0  0  0  0  0  0  0  0  0  0  0  0
    2.0715    4.5054   -0.5669 C   0  0  0  0  0  0  0  0  0  0  0  0
    2.7377    5.3774   -0.6281 H   0  0  0  0  0  0  0  0  0  0  0  0
    2.6023    3.2236   -0.3603 C   0  0  0  0  0  0  0  0  0  0  0  0
    3.6850    3.0465   -0.2521 H   0  0  0  0  0  0  0  0  0  0  0  0
   -3.7262   -0.6204   -0.2810 C   0  0  0  0  0  0  0  0  0  0  0  0
   -4.2994   -1.7888   -0.8255 C   0  0  0  0  0  0  0  0  0  0  0  0
   -3.6503   -2.5697   -1.2471 H   0  0  0  0  0  0  0  0  0  0  0  0
   -5.6896   -1.9549   -0.8869 C   0  0  0  0  0  0  0  0  0  0  0  0
   -6.1393   -2.8565   -1.3261 H   0  0  0  0  0  0  0  0  0  0  0  0
   -6.5401   -0.9573   -0.3925 C   0  0  0  0  0  0  0  0  0  0  0  0
   -5.9728    0.2253    0.1640 C   0  0  0  0  0  0  0  0  0  0  0  0
   -4.5882    0.3933    0.2135 C   0  0  0  0  0  0  0  0  0  0  0  0
   -4.1593    1.2924    0.6754 H   0  0  0  0  0  0  0  0  0  0  0  0
   -6.4765    2.3189    1.2122 C   0  0  0  0  0  0  0  0  0  0  0  0
   -5.8540    2.1315    2.1148 H   0  0  0  0  0  0  0  0  0  0  0  0
   -7.3858    2.8736    1.5069 H   0  0  0  0  0  0  0  0  0  0  0  0
   -5.8922    2.9325    0.4912 H   0  0  0  0  0  0  0  0  0  0  0  0
  1 37  1  0  0  0  0
  1  2  1  0  0  0  0
  3 41  1  0  0  0  0
  4  7  1  0  0  0  0
  5 16  1  0  0  0  0
  7  8  1  0  0  0  0
  7  9  1  0  0  0  0
  9 10  1  0  0  0  0
 11  9  2  0  0  0  0
 11 12  1  0  0  0  0
 13 11  1  0  0  0  0
 14 13  1  0  0  0  0
 15  4  1  0  0  0  0
 15 13  2  0  0  0  0
 16 15  1  1  0  0  0
 17 16  1  0  0  0  0
 17 18  1  0  0  0  0
 19 17  2  0  0  0  0
 20 22  2  0  0  0  0
 20 19  1  0  0  0  0
 21 20  1  0  0  0  0
 22  5  1  0  0  0  0
 23 22  1  1  0  0  0
 23  6  1  0  0  0  0
 24 23  1  0  0  0  0
 25 24  1  0  0  0  0
 26 24  2  0  0  0  0
 26 28  1  0  0  0  0
 27 26  1  0  0  0  0
 28 30  2  0  0  0  0
 29 28  1  0  0  0  0
 30  6  1  0  0  0  0
 30 31  1  0  0  0  0
 32 19  1  0  0  0  0
 32 39  1  0  0  0  0
 33 32  2  0  0  0  0
 34 33  1  0  0  0  0
 35 33  1  0  0  0  0
 35 37  2  0  0  0  0
 36 35  1  0  0  0  0
 37 38  1  0  0  0  0
 38 39  2  0  0  0  0
 38  3  1  0  0  0  0
 39 40  1  0  0  0  0
 41 43  1  0  0  0  0
 41 42  1  0  0  0  0
 44 41  1  0  0  0  0
M  END
