2,3,4
 OpenBabel05122313063D

 36 38  0  0  1  0  0  0  0  0999 V2000
   -3.7956   -0.3255    0.8730 O   0  0  0  0  0  0  0  0  0  0  0  0
   -0.9496    1.5507   -0.5165 N   0  0  0  0  0  2  0  0  0  0  0  0
   -0.1620   -0.3216    1.4728 N   0  0  0  0  0  2  0  0  0  0  0  0
   -0.9019   -1.1844   -1.1160 N   0  0  0  0  0  2  0  0  0  0  0  0
   -4.3330    0.5300    1.8891 C   0  0  0  0  0  0  0  0  0  0  0  0
   -2.4504   -0.1651    0.4893 C   0  0  1  0  0  0  0  0  0  0  0  0
   -2.2184    1.2240   -0.1551 C   0  0  2  0  0  3  0  0  0  0  0  0
   -3.2947    2.0613   -0.4822 C   0  0  0  0  0  0  0  0  0  0  0  0
   -3.0530    3.2943   -1.1021 C   0  0  0  0  0  0  0  0  0  0  0  0
   -1.7309    3.6534   -1.3981 C   0  0  0  0  0  0  0  0  0  0  0  0
   -0.7078    2.7505   -1.1111 C   0  0  0  0  0  0  0  0  0  0  0  0
   -1.4998   -0.5010    1.6637 C   0  0  1  0  0  3  0  0  0  0  0  0
   -1.9849   -1.0911    2.8395 C   0  0  0  0  0  0  0  0  0  0  0  0
   -1.1044   -1.4032    3.8839 C   0  0  0  0  0  0  0  0  0  0  0  0
    0.2589   -1.1199    3.7163 C   0  0  0  0  0  0  0  0  0  0  0  0
    0.6925   -0.5963    2.5002 C   0  0  0  0  0  0  0  0  0  0  0  0
   -2.1661   -1.1971   -0.6120 C   0  0  1  0  0  3  0  0  0  0  0  0
   -3.1472   -2.0809   -1.0738 C   0  0  0  0  0  0  0  0  0  0  0  0
   -2.8205   -2.9810   -2.0968 C   0  0  0  0  0  0  0  0  0  0  0  0
   -1.5227   -2.9556   -2.6296 C   0  0  0  0  0  0  0  0  0  0  0  0
   -0.5934   -2.0464   -2.1218 C   0  0  0  0  0  0  0  0  0  0  0  0
   -3.5918    1.2602    2.2712 H   0  0  0  0  0  0  0  0  0  0  0  0
   -4.6947   -0.0858    2.7376 H   0  0  0  0  0  0  0  0  0  0  0  0
   -5.2012    1.0861    1.4809 H   0  0  0  0  0  0  0  0  0  0  0  0
   -4.3184    1.7328   -0.2746 H   0  0  0  0  0  0  0  0  0  0  0  0
   -3.8905    3.9587   -1.3598 H   0  0  0  0  0  0  0  0  0  0  0  0
   -1.4881    4.6092   -1.8829 H   0  0  0  0  0  0  0  0  0  0  0  0
    0.3370    2.9348   -1.3946 H   0  0  0  0  0  0  0  0  0  0  0  0
   -3.0521   -1.3226    2.9215 H   0  0  0  0  0  0  0  0  0  0  0  0
   -1.4790   -1.8619    4.8101 H   0  0  0  0  0  0  0  0  0  0  0  0
    0.9925   -1.3266    4.5082 H   0  0  0  0  0  0  0  0  0  0  0  0
    1.7553   -0.4046    2.3012 H   0  0  0  0  0  0  0  0  0  0  0  0
   -4.1463   -2.0388   -0.6231 H   0  0  0  0  0  0  0  0  0  0  0  0
   -3.5727   -3.6867   -2.4786 H   0  0  0  0  0  0  0  0  0  0  0  0
   -1.2239   -3.6302   -3.4442 H   0  0  0  0  0  0  0  0  0  0  0  0
    0.4252   -1.9545   -2.5230 H   0  0  0  0  0  0  0  0  0  0  0  0
  1  5  1  0  0  0  0
  2  7  1  0  0  0  0
  3 12  1  0  0  0  0
  3 16  1  0  0  0  0
  4 17  1  0  0  0  0
  5 22  1  0  0  0  0
  5 23  1  0  0  0  0
  6  1  1  1  0  0  0
  7  6  1  6  0  0  0
  8 25  1  0  0  0  0
  8  7  1  0  0  0  0
  9  8  2  0  0  0  0
 10 11  2  0  0  0  0
 10  9  1  0  0  0  0
 11  2  1  0  0  0  0
 12  6  1  6  0  0  0
 12 13  1  0  0  0  0
 13 29  1  0  0  0  0
 13 14  2  0  0  0  0
 14 30  1  0  0  0  0
 15 14  1  0  0  0  0
 15 31  1  0  0  0  0
 16 15  2  0  0  0  0
 17  6  1  6  0  0  0
 18 33  1  0  0  0  0
 18 17  1  0  0  0  0
 19 18  2  0  0  0  0
 20 21  2  0  0  0  0
 20 19  1  0  0  0  0
 21  4  1  0  0  0  0
 24  5  1  0  0  0  0
 26  9  1  0  0  0  0
 27 10  1  0  0  0  0
 28 11  1  0  0  0  0
 32 16  1  0  0  0  0
 34 19  1  0  0  0  0
 35 20  1  0  0  0  0
 36 21  1  0  0  0  0
M  END
