1,2,4
 OpenBabel05122313063D

 55 58  0  0  1  0  0  0  0  0999 V2000
   -0.3559    1.6474    0.0275 N   0  0  0  0  0  2  0  0  0  0  0  0
    1.7606    0.3957    0.0702 N   0  0  0  0  0  2  0  0  0  0  0  0
    0.7396    2.4748    0.1456 C   0  0  0  0  0  0  0  0  0  0  0  0
   -2.0400   -0.1609   -0.0638 N   0  0  0  0  0  2  0  0  0  0  0  0
   -2.5701    1.0793   -0.0457 C   0  0  2  0  0  3  0  0  0  0  0  0
    2.8683   -0.4911   -0.1388 C   0  0  0  0  0  0  0  0  0  0  0  0
   -3.9416    1.0303   -0.0979 N   0  0  0  0  0  0  0  0  0  0  0  0
   -4.5699    1.8312   -0.1008 H   0  0  0  0  0  0  0  0  0  0  0  0
   -1.6337    2.1702    0.0118 C   0  0  0  0  0  0  0  0  0  0  0  0
    3.5063   -1.0925    0.9793 C   0  0  0  0  0  0  0  0  0  0  0  0
   -4.3136   -0.3091   -0.1434 C   0  0  0  0  0  0  0  0  0  0  0  0
    1.9676    1.7114    0.1509 C   0  0  0  0  0  0  0  0  0  0  0  0
   -5.5837   -0.9170   -0.1976 C   0  0  0  0  0  0  0  0  0  0  0  0
    4.5436   -2.0086    0.7297 C   0  0  0  0  0  0  0  0  0  0  0  0
    5.0511   -2.4903    1.5772 H   0  0  0  0  0  0  0  0  0  0  0  0
   -0.7279    4.4116    0.1378 C   0  0  0  0  0  0  0  0  0  0  0  0
   -0.8726    5.5006    0.1736 H   0  0  0  0  0  0  0  0  0  0  0  0
   -1.8422    3.5571    0.0523 C   0  0  0  0  0  0  0  0  0  0  0  0
   -2.8639    3.9628    0.0321 H   0  0  0  0  0  0  0  0  0  0  0  0
    3.3109    2.3709    0.2004 C   0  0  0  0  0  0  0  0  0  0  0  0
    4.1229    1.6249    0.1297 H   0  0  0  0  0  0  0  0  0  0  0  0
    3.4286    2.9304    1.1525 H   0  0  0  0  0  0  0  0  0  0  0  0
    3.4323    3.1039   -0.6241 H   0  0  0  0  0  0  0  0  0  0  0  0
    0.5667    3.8708    0.1935 C   0  0  0  0  0  0  0  0  0  0  0  0
    1.4475    4.5218    0.2806 H   0  0  0  0  0  0  0  0  0  0  0  0
    3.0833   -0.7130    2.3814 C   0  0  0  0  0  0  0  0  0  0  0  0
    1.9830   -0.8418    2.4671 H   0  0  0  0  0  0  0  0  0  0  0  0
    3.2244    0.3852    2.5045 H   0  0  0  0  0  0  0  0  0  0  0  0
   -5.5680   -2.3214   -0.2297 C   0  0  0  0  0  0  0  0  0  0  0  0
   -6.5317   -2.8527   -0.2720 H   0  0  0  0  0  0  0  0  0  0  0  0
    4.9412   -2.3178   -0.5792 C   0  0  0  0  0  0  0  0  0  0  0  0
    5.7465   -3.0482   -0.7510 H   0  0  0  0  0  0  0  0  0  0  0  0
    4.3169   -1.6928   -1.6622 C   0  0  0  0  0  0  0  0  0  0  0  0
    4.6313   -1.9278   -2.6916 H   0  0  0  0  0  0  0  0  0  0  0  0
    2.6699   -0.0670   -2.6690 C   0  0  0  0  0  0  0  0  0  0  0  0
    1.7042    0.3925   -2.3873 H   0  0  0  0  0  0  0  0  0  0  0  0
    2.4178   -0.8380   -3.4263 H   0  0  0  0  0  0  0  0  0  0  0  0
    3.2749   -0.7648   -1.4686 C   0  0  0  0  0  0  0  0  0  0  0  0
   -3.0961   -1.0532   -0.1232 C   0  0  0  0  0  0  0  0  0  0  0  0
   -4.3673   -3.0739   -0.2111 C   0  0  0  0  0  0  0  0  0  0  0  0
   -4.4295   -4.1718   -0.2421 H   0  0  0  0  0  0  0  0  0  0  0  0
   -6.8473   -0.1000   -0.2163 C   0  0  0  0  0  0  0  0  0  0  0  0
   -6.9392    0.5347    0.6918 H   0  0  0  0  0  0  0  0  0  0  0  0
   -7.7430   -0.7480   -0.2597 H   0  0  0  0  0  0  0  0  0  0  0  0
   -6.8848    0.5792   -1.0956 H   0  0  0  0  0  0  0  0  0  0  0  0
   -3.1136   -2.4592   -0.1594 C   0  0  0  0  0  0  0  0  0  0  0  0
   -2.1688   -3.0178   -0.1636 H   0  0  0  0  0  0  0  0  0  0  0  0
    3.6029    0.9795   -3.2954 C   0  0  0  0  0  0  0  0  0  0  0  0
    3.1341    1.4486   -4.1844 H   0  0  0  0  0  0  0  0  0  0  0  0
    4.5625    0.5269   -3.6192 H   0  0  0  0  0  0  0  0  0  0  0  0
    3.8508    1.7880   -2.5784 H   0  0  0  0  0  0  0  0  0  0  0  0
    3.7855   -1.4429    3.5224 C   0  0  0  0  0  0  0  0  0  0  0  0
    3.3872   -1.1008    4.4980 H   0  0  0  0  0  0  0  0  0  0  0  0
    4.8813   -1.2658    3.5294 H   0  0  0  0  0  0  0  0  0  0  0  0
    3.6242   -2.5391    3.4666 H   0  0  0  0  0  0  0  0  0  0  0  0
  1  3  1  0  0  0  0
  2 12  1  0  0  0  0
  3 12  2  0  0  0  0
  3 24  1  0  0  0  0
  4  5  1  0  0  0  0
  5  9  1  6  0  0  0
  6  2  1  0  0  0  0
  6 10  1  0  0  0  0
  7  5  1  0  0  0  0
  8  7  1  0  0  0  0
  9  1  1  0  0  0  0
  9 18  2  0  0  0  0
 10 26  1  0  0  0  0
 11 39  1  0  0  0  0
 11  7  1  0  0  0  0
 12 20  1  0  0  0  0
 13 11  2  0  0  0  0
 14 10  2  0  0  0  0
 14 15  1  0  0  0  0
 16 17  1  0  0  0  0
 16 24  2  0  0  0  0
 18 16  1  0  0  0  0
 19 18  1  0  0  0  0
 20 22  1  0  0  0  0
 21 20  1  0  0  0  0
 23 20  1  0  0  0  0
 24 25  1  0  0  0  0
 26 27  1  0  0  0  0
 26 28  1  0  0  0  0
 26 52  1  0  0  0  0
 29 40  2  0  0  0  0
 29 13  1  0  0  0  0
 30 29  1  0  0  0  0
 31 14  1  0  0  0  0
 32 31  1  0  0  0  0
 33 38  1  0  0  0  0
 33 31  2  0  0  0  0
 34 33  1  0  0  0  0
 35 36  1  0  0  0  0
 35 38  1  0  0  0  0
 37 35  1  0  0  0  0
 38  6  2  0  0  0  0
 39  4  1  0  0  0  0
 40 46  1  0  0  0  0
 41 40  1  0  0  0  0
 42 13  1  0  0  0  0
 42 43  1  0  0  0  0
 44 42  1  0  0  0  0
 45 42  1  0  0  0  0
 46 39  2  0  0  0  0
 47 46  1  0  0  0  0
 48 35  1  0  0  0  0
 48 51  1  0  0  0  0
 49 48  1  0  0  0  0
 50 48  1  0  0  0  0
 52 54  1  0  0  0  0
 52 53  1  0  0  0  0
 55 52  1  0  0  0  0
M  END
