1,2,3
 OpenBabel05122313063D

 67 69  0  0  1  0  0  0  0  0999 V2000
    0.8035   -0.1614   -1.1437 N   0  0  0  0  0  2  0  0  0  0  0  0
   -0.8788   -2.0105   -0.5826 N   0  0  0  0  0  2  0  0  0  0  0  0
   -0.4402    2.0401   -0.6966 N   0  0  0  0  0  2  0  0  0  0  0  0
    1.3213   -1.4150   -1.1998 C   0  0  0  0  0  0  0  0  0  0  0  0
    2.6992   -1.5932   -1.3910 C   0  0  0  0  0  0  0  0  0  0  0  0
    3.5570   -0.4780   -1.4539 C   0  0  0  0  0  0  0  0  0  0  0  0
    2.9707    0.8045   -1.3838 C   0  0  0  0  0  0  0  0  0  0  0  0
    1.5888    0.9457   -1.2158 C   0  0  0  0  0  0  0  0  0  0  0  0
    5.0817   -0.6195   -1.4028 C   0  0  0  0  0  0  0  0  0  0  0  0
    5.5364   -2.0677   -1.6530 C   0  0  0  0  0  0  0  0  0  0  0  0
    5.5013   -0.2000    0.0301 C   0  0  0  0  0  0  0  0  0  0  0  0
    5.7530    0.2955   -2.4476 C   0  0  0  0  0  0  0  0  0  0  0  0
    0.3256   -2.4511   -0.8963 C   0  0  0  0  0  0  0  0  0  0  0  0
    0.7348   -3.8883   -0.8611 C   0  0  0  0  0  0  0  0  0  0  0  0
   -1.9587   -2.9223   -0.3562 C   0  0  0  0  0  0  0  0  0  0  0  0
   -2.5495   -3.5715   -1.4725 C   0  0  0  0  0  0  0  0  0  0  0  0
   -3.6634   -4.3998   -1.2374 C   0  0  0  0  0  0  0  0  0  0  0  0
   -4.1529   -4.6032    0.0575 C   0  0  0  0  0  0  0  0  0  0  0  0
   -3.5225   -3.9866    1.1455 C   0  0  0  0  0  0  0  0  0  0  0  0
   -2.4198   -3.1314    0.9695 C   0  0  0  0  0  0  0  0  0  0  0  0
   -1.9923   -3.4487   -2.8700 C   0  0  0  0  0  0  0  0  0  0  0  0
   -1.7573   -2.4787    2.1480 C   0  0  0  0  0  0  0  0  0  0  0  0
    0.8406    2.1894   -0.9704 C   0  0  2  0  0  3  0  0  0  0  0  0
    1.5633    3.4950   -0.9474 C   0  0  0  0  0  0  0  0  0  0  0  0
   -1.3033    3.1757   -0.5719 C   0  0  0  0  0  0  0  0  0  0  0  0
   -1.7030    3.8501   -1.7563 C   0  0  0  0  0  0  0  0  0  0  0  0
   -2.6201    4.9106   -1.6319 C   0  0  0  0  0  0  0  0  0  0  0  0
   -3.0987    5.3081   -0.3782 C   0  0  0  0  0  0  0  0  0  0  0  0
   -2.6507    4.6564    0.7773 C   0  0  0  0  0  0  0  0  0  0  0  0
   -1.7494    3.5777    0.7135 C   0  0  0  0  0  0  0  0  0  0  0  0
   -1.1331    3.5053   -3.1107 C   0  0  0  0  0  0  0  0  0  0  0  0
   -1.2695    2.8993    1.9634 C   0  0  0  0  0  0  0  0  0  0  0  0
    3.1048   -2.6112   -1.3974 H   0  0  0  0  0  0  0  0  0  0  0  0
    3.5984    1.7044   -1.3768 H   0  0  0  0  0  0  0  0  0  0  0  0
    5.1887   -2.4453   -2.6364 H   0  0  0  0  0  0  0  0  0  0  0  0
    5.1767   -2.7575   -0.8638 H   0  0  0  0  0  0  0  0  0  0  0  0
    6.6431   -2.1165   -1.6464 H   0  0  0  0  0  0  0  0  0  0  0  0
    4.9478   -0.7877    0.7894 H   0  0  0  0  0  0  0  0  0  0  0  0
    5.2720    0.8668    0.2237 H   0  0  0  0  0  0  0  0  0  0  0  0
    6.5910   -0.3523    0.1716 H   0  0  0  0  0  0  0  0  0  0  0  0
    6.8557    0.2061   -2.3758 H   0  0  0  0  0  0  0  0  0  0  0  0
    5.5022    1.3637   -2.2945 H   0  0  0  0  0  0  0  0  0  0  0  0
    5.4526    0.0172   -3.4782 H   0  0  0  0  0  0  0  0  0  0  0  0
   -0.1141   -4.5450   -0.6035 H   0  0  0  0  0  0  0  0  0  0  0  0
    1.5262   -4.0101   -0.0916 H   0  0  0  0  0  0  0  0  0  0  0  0
    1.1644   -4.2067   -1.8327 H   0  0  0  0  0  0  0  0  0  0  0  0
   -4.1437   -4.8966   -2.0948 H   0  0  0  0  0  0  0  0  0  0  0  0
   -5.0251   -5.2538    0.2213 H   0  0  0  0  0  0  0  0  0  0  0  0
   -3.8893   -4.1634    2.1683 H   0  0  0  0  0  0  0  0  0  0  0  0
   -1.2114   -4.2183   -3.0565 H   0  0  0  0  0  0  0  0  0  0  0  0
   -1.5331   -2.4629   -3.0634 H   0  0  0  0  0  0  0  0  0  0  0  0
   -2.7870   -3.6101   -3.6234 H   0  0  0  0  0  0  0  0  0  0  0  0
   -0.6527   -2.4919    2.0834 H   0  0  0  0  0  0  0  0  0  0  0  0
   -2.0664   -2.9662    3.0916 H   0  0  0  0  0  0  0  0  0  0  0  0
   -2.0414   -1.4074    2.1911 H   0  0  0  0  0  0  0  0  0  0  0  0
    0.8705    4.3402   -0.7927 H   0  0  0  0  0  0  0  0  0  0  0  0
    2.1443    3.6552   -1.8778 H   0  0  0  0  0  0  0  0  0  0  0  0
    2.2771    3.4582   -0.0968 H   0  0  0  0  0  0  0  0  0  0  0  0
   -2.9525    5.4329   -2.5426 H   0  0  0  0  0  0  0  0  0  0  0  0
   -3.8168    6.1383   -0.3003 H   0  0  0  0  0  0  0  0  0  0  0  0
   -3.0042    4.9834    1.7672 H   0  0  0  0  0  0  0  0  0  0  0  0
   -0.1524    4.0044   -3.2709 H   0  0  0  0  0  0  0  0  0  0  0  0
   -1.8062    3.8522   -3.9179 H   0  0  0  0  0  0  0  0  0  0  0  0
   -0.9700    2.4203   -3.2418 H   0  0  0  0  0  0  0  0  0  0  0  0
   -1.5384    3.4924    2.8575 H   0  0  0  0  0  0  0  0  0  0  0  0
   -0.1754    2.7309    1.9610 H   0  0  0  0  0  0  0  0  0  0  0  0
   -1.7340    1.8959    2.0496 H   0  0  0  0  0  0  0  0  0  0  0  0
  2 15  1  0  0  0  0
  3 25  1  0  0  0  0
  4  1  1  0  0  0  0
  4 13  2  0  0  0  0
  5  4  1  0  0  0  0
  6  9  1  0  0  0  0
  6  5  2  0  0  0  0
  6  7  1  0  0  0  0
  7 34  1  0  0  0  0
  7  8  2  0  0  0  0
  8  1  1  0  0  0  0
  8 23  1  0  0  0  0
  9 11  1  0  0  0  0
 10 37  1  0  0  0  0
 10  9  1  0  0  0  0
 10 36  1  0  0  0  0
 11 40  1  0  0  0  0
 11 39  1  0  0  0  0
 11 38  1  0  0  0  0
 12 41  1  0  0  0  0
 12 42  1  0  0  0  0
 12  9  1  0  0  0  0
 13 14  1  0  0  0  0
 13  2  1  0  0  0  0
 14 44  1  0  0  0  0
 14 45  1  0  0  0  0
 15 20  1  0  0  0  0
 16 17  1  0  0  0  0
 16 15  2  0  0  0  0
 17 18  2  0  0  0  0
 18 48  1  0  0  0  0
 18 19  1  0  0  0  0
 19 49  1  0  0  0  0
 20 19  2  0  0  0  0
 20 22  1  0  0  0  0
 21 16  1  0  0  0  0
 22 55  1  0  0  0  0
 22 54  1  0  0  0  0
 23 24  1  0  0  0  0
 23  3  1  1  0  0  0
 24 56  1  0  0  0  0
 24 58  1  0  0  0  0
 25 30  1  0  0  0  0
 26 27  1  0  0  0  0
 26 25  2  0  0  0  0
 27 28  2  0  0  0  0
 28 60  1  0  0  0  0
 28 29  1  0  0  0  0
 29 61  1  0  0  0  0
 30 29  2  0  0  0  0
 30 32  1  0  0  0  0
 31 26  1  0  0  0  0
 32 67  1  0  0  0  0
 32 65  1  0  0  0  0
 33  5  1  0  0  0  0
 35 10  1  0  0  0  0
 43 12  1  0  0  0  0
 46 14  1  0  0  0  0
 47 17  1  0  0  0  0
 50 21  1  0  0  0  0
 51 21  1  0  0  0  0
 52 21  1  0  0  0  0
 53 22  1  0  0  0  0
 57 24  1  0  0  0  0
 59 27  1  0  0  0  0
 62 31  1  0  0  0  0
 63 31  1  0  0  0  0
 64 31  1  0  0  0  0
 66 32  1  0  0  0  0
M  END
