1,2,3
 OpenBabel05122313063D

 60 60  0  0  1  0  0  0  0  0999 V2000
   -1.8862   -0.5931   -0.1826 N   0  0  0  0  0  0  0  0  0  0  0  0
    0.9562   -1.7184    0.3635 N   0  0  0  0  0  0  0  0  0  0  0  0
    0.2244    1.2027    1.1734 N   0  0  0  0  0  0  0  0  0  0  0  0
   -2.0633   -1.0185    1.2323 C   0  0  1  0  0  0  0  0  0  0  0  0
   -1.1834   -2.2447    1.5298 C   0  0  0  0  0  0  0  0  0  0  0  0
    0.3198   -1.9605    1.6888 C   0  0  2  0  0  0  0  0  0  0  0  0
    0.5450   -0.7980    2.6694 C   0  0  0  0  0  0  0  0  0  0  0  0
   -0.2724    0.4695    2.3722 C   0  0  2  0  0  0  0  0  0  0  0  0
   -1.7611    0.1192    2.2210 C   0  0  0  0  0  0  0  0  0  0  0  0
   -2.8237    0.4498   -0.6696 C   0  0  0  0  0  0  0  0  0  0  0  0
   -4.3271    0.1603   -0.5167 C   0  0  0  0  0  0  0  0  0  0  0  0
   -4.7191   -1.1663   -1.1784 C   0  0  0  0  0  0  0  0  0  0  0  0
   -5.1244    1.3362   -1.0939 C   0  0  0  0  0  0  0  0  0  0  0  0
    2.4360   -1.7763    0.3912 C   0  0  0  0  0  0  0  0  0  0  0  0
    3.0763   -1.5704   -0.9865 C   0  0  0  0  0  0  0  0  0  0  0  0
    4.6031   -1.6019   -0.8559 C   0  0  0  0  0  0  0  0  0  0  0  0
    2.5750   -2.5871   -2.0186 C   0  0  0  0  0  0  0  0  0  0  0  0
    1.5145    1.8961    1.3934 C   0  0  0  0  0  0  0  0  0  0  0  0
    1.9919    2.6889    0.1712 C   0  0  0  0  0  0  0  0  0  0  0  0
    3.3405    3.3493    0.4784 C   0  0  0  0  0  0  0  0  0  0  0  0
    0.9520    3.7136   -0.2973 C   0  0  0  0  0  0  0  0  0  0  0  0
   -2.0367   -1.4283   -0.7664 H   0  0  0  0  0  0  0  0  0  0  0  0
    0.6482   -2.4823   -0.2559 H   0  0  0  0  0  0  0  0  0  0  0  0
   -0.4681    1.9381    0.9699 H   0  0  0  0  0  0  0  0  0  0  0  0
   -3.1210   -1.3257    1.3922 H   0  0  0  0  0  0  0  0  0  0  0  0
   -1.5403   -2.6909    2.4800 H   0  0  0  0  0  0  0  0  0  0  0  0
   -1.3480   -3.0290    0.7573 H   0  0  0  0  0  0  0  0  0  0  0  0
    0.7890   -2.8684    2.1357 H   0  0  0  0  0  0  0  0  0  0  0  0
    0.2437   -1.1534    3.6758 H   0  0  0  0  0  0  0  0  0  0  0  0
    1.6229   -0.5626    2.7611 H   0  0  0  0  0  0  0  0  0  0  0  0
   -0.1718    1.1438    3.2550 H   0  0  0  0  0  0  0  0  0  0  0  0
   -2.3501    1.0263    1.9711 H   0  0  0  0  0  0  0  0  0  0  0  0
   -2.1302   -0.2016    3.2160 H   0  0  0  0  0  0  0  0  0  0  0  0
   -2.5735    1.4089   -0.1696 H   0  0  0  0  0  0  0  0  0  0  0  0
   -2.5914    0.6018   -1.7454 H   0  0  0  0  0  0  0  0  0  0  0  0
   -4.5655    0.0958    0.5694 H   0  0  0  0  0  0  0  0  0  0  0  0
   -4.4819   -1.1548   -2.2636 H   0  0  0  0  0  0  0  0  0  0  0  0
   -5.8066   -1.3521   -1.0803 H   0  0  0  0  0  0  0  0  0  0  0  0
   -4.2054   -2.0409   -0.7258 H   0  0  0  0  0  0  0  0  0  0  0  0
   -4.8552    2.2946   -0.6048 H   0  0  0  0  0  0  0  0  0  0  0  0
   -6.2128    1.1841   -0.9568 H   0  0  0  0  0  0  0  0  0  0  0  0
   -4.9372    1.4482   -2.1826 H   0  0  0  0  0  0  0  0  0  0  0  0
    2.8025   -0.9912    1.0817 H   0  0  0  0  0  0  0  0  0  0  0  0
    2.7665   -2.7546    0.8170 H   0  0  0  0  0  0  0  0  0  0  0  0
    2.7775   -0.5525   -1.3280 H   0  0  0  0  0  0  0  0  0  0  0  0
    4.9680   -0.8483   -0.1283 H   0  0  0  0  0  0  0  0  0  0  0  0
    5.0870   -1.3911   -1.8295 H   0  0  0  0  0  0  0  0  0  0  0  0
    4.9566   -2.5981   -0.5171 H   0  0  0  0  0  0  0  0  0  0  0  0
    2.7905   -3.6277   -1.6951 H   0  0  0  0  0  0  0  0  0  0  0  0
    3.0731   -2.4352   -2.9964 H   0  0  0  0  0  0  0  0  0  0  0  0
    1.4835   -2.4984   -2.2056 H   0  0  0  0  0  0  0  0  0  0  0  0
    1.4290    2.5786    2.2734 H   0  0  0  0  0  0  0  0  0  0  0  0
    2.2778    1.1369    1.6561 H   0  0  0  0  0  0  0  0  0  0  0  0
    2.1456    1.9509   -0.6496 H   0  0  0  0  0  0  0  0  0  0  0  0
    3.2443    4.0996    1.2908 H   0  0  0  0  0  0  0  0  0  0  0  0
    3.7356    3.8738   -0.4135 H   0  0  0  0  0  0  0  0  0  0  0  0
    4.0990    2.6043    0.7945 H   0  0  0  0  0  0  0  0  0  0  0  0
    0.0066    3.2346   -0.6309 H   0  0  0  0  0  0  0  0  0  0  0  0
    1.3310    4.2937   -1.1616 H   0  0  0  0  0  0  0  0  0  0  0  0
    0.7112    4.4392    0.5086 H   0  0  0  0  0  0  0  0  0  0  0  0
  1  4  1  0  0  0  0
  2 14  1  0  0  0  0
  2  6  1  0  0  0  0
  3 18  1  0  0  0  0
  3  8  1  0  0  0  0
  4 25  1  1  0  0  0
  4  5  1  0  0  0  0
  4  9  1  0  0  0  0
  5  6  1  0  0  0  0
  5 26  1  0  0  0  0
  6 28  1  1  0  0  0
  6  7  1  0  0  0  0
  7 30  1  0  0  0  0
  7 29  1  0  0  0  0
  8  7  1  0  0  0  0
  8 31  1  1  0  0  0
  9  8  1  0  0  0  0
  9 33  1  0  0  0  0
 10 11  1  0  0  0  0
 10  1  1  0  0  0  0
 10 34  1  0  0  0  0
 11 36  1  0  0  0  0
 12 38  1  0  0  0  0
 12 39  1  0  0  0  0
 12 11  1  0  0  0  0
 13 41  1  0  0  0  0
 13 40  1  0  0  0  0
 13 11  1  0  0  0  0
 14 44  1  0  0  0  0
 14 43  1  0  0  0  0
 15 16  1  0  0  0  0
 15 14  1  0  0  0  0
 16 48  1  0  0  0  0
 16 46  1  0  0  0  0
 17 49  1  0  0  0  0
 17 15  1  0  0  0  0
 18 53  1  0  0  0  0
 18 52  1  0  0  0  0
 19 20  1  0  0  0  0
 19 18  1  0  0  0  0
 20 57  1  0  0  0  0
 20 55  1  0  0  0  0
 21 19  1  0  0  0  0
 21 60  1  0  0  0  0
 22  1  1  0  0  0  0
 23  2  1  0  0  0  0
 24  3  1  0  0  0  0
 27  5  1  0  0  0  0
 32  9  1  0  0  0  0
 35 10  1  0  0  0  0
 37 12  1  0  0  0  0
 42 13  1  0  0  0  0
 45 15  1  0  0  0  0
 47 16  1  0  0  0  0
 50 17  1  0  0  0  0
 51 17  1  0  0  0  0
 54 19  1  0  0  0  0
 56 20  1  0  0  0  0
 58 21  1  0  0  0  0
 59 21  1  0  0  0  0
M  END
