1,2,3
 OpenBabel05122313063D

 57 59  0  0  1  0  0  0  0  0999 V2000
    1.1174   -1.8293   -0.1022 N   0  0  0  0  0  2  0  0  0  0  0  0
   -1.3448   -2.4273   -0.0774 N   0  0  0  0  0  2  0  0  0  0  0  0
   -2.2482   -0.0704   -0.3263 N   0  0  0  0  0  2  0  0  0  0  0  0
    2.3686   -1.3197    0.3558 C   0  0  0  0  0  0  0  0  0  0  0  0
    2.6261   -1.1656    1.7444 C   0  0  0  0  0  0  0  0  0  0  0  0
    3.8041   -0.5074    2.1415 C   0  0  0  0  0  0  0  0  0  0  0  0
    3.9847   -0.3540    3.2185 H   0  0  0  0  0  0  0  0  0  0  0  0
    4.7364   -0.0121    1.2129 C   0  0  0  0  0  0  0  0  0  0  0  0
    4.4853   -0.2313   -0.1531 C   0  0  0  0  0  0  0  0  0  0  0  0
    5.2117    0.1274   -0.9008 H   0  0  0  0  0  0  0  0  0  0  0  0
    3.3246   -0.8828   -0.6012 C   0  0  0  0  0  0  0  0  0  0  0  0
    1.6447   -1.6525    2.7798 C   0  0  0  0  0  0  0  0  0  0  0  0
    1.7663   -2.7383    2.9906 H   0  0  0  0  0  0  0  0  0  0  0  0
    0.6039   -1.4802    2.4451 H   0  0  0  0  0  0  0  0  0  0  0  0
    1.7850   -1.1184    3.7388 H   0  0  0  0  0  0  0  0  0  0  0  0
    5.9456    0.7708    1.6584 C   0  0  0  0  0  0  0  0  0  0  0  0
    6.1779    0.5983    2.7277 H   0  0  0  0  0  0  0  0  0  0  0  0
    5.7747    1.8617    1.5267 H   0  0  0  0  0  0  0  0  0  0  0  0
    6.8446    0.5126    1.0628 H   0  0  0  0  0  0  0  0  0  0  0  0
    3.0932   -1.1104   -2.0710 C   0  0  0  0  0  0  0  0  0  0  0  0
    2.2457   -0.5068   -2.4556 H   0  0  0  0  0  0  0  0  0  0  0  0
    2.8275   -2.1665   -2.2817 H   0  0  0  0  0  0  0  0  0  0  0  0
    3.9953   -0.8529   -2.6584 H   0  0  0  0  0  0  0  0  0  0  0  0
    0.8889   -3.2556    0.0801 C   0  0  0  0  0  0  0  0  0  0  0  0
    1.3083   -3.8557   -0.7685 H   0  0  0  0  0  0  0  0  0  0  0  0
    1.3877   -3.6546    0.9930 H   0  0  0  0  0  0  0  0  0  0  0  0
   -0.5860   -3.5264    0.1709 C   0  0  1  0  0  3  0  0  0  0  0  0
   -1.2131   -4.7385    0.4817 C   0  0  0  0  0  0  0  0  0  0  0  0
   -0.6077   -5.6339    0.6812 H   0  0  0  0  0  0  0  0  0  0  0  0
   -2.6158   -4.7790    0.5449 C   0  0  0  0  0  0  0  0  0  0  0  0
   -3.1248   -5.7200    0.8020 H   0  0  0  0  0  0  0  0  0  0  0  0
   -3.3716   -3.6211    0.2958 C   0  0  0  0  0  0  0  0  0  0  0  0
   -4.4694   -3.6350    0.3476 H   0  0  0  0  0  0  0  0  0  0  0  0
   -2.7012   -2.4315   -0.0093 C   0  0  0  0  0  0  0  0  0  0  0  0
   -3.3009   -1.0816   -0.2838 C   0  0  0  0  0  0  0  0  0  0  0  0
   -3.8559   -1.1345   -1.2561 H   0  0  0  0  0  0  0  0  0  0  0  0
   -4.0766   -0.8584    0.4820 H   0  0  0  0  0  0  0  0  0  0  0  0
   -2.6281    1.2243    0.1324 C   0  0  0  0  0  0  0  0  0  0  0  0
   -2.8991    1.4506    1.5092 C   0  0  0  0  0  0  0  0  0  0  0  0
   -3.2259    2.7522    1.9286 C   0  0  0  0  0  0  0  0  0  0  0  0
   -3.4170    2.9288    3.0002 H   0  0  0  0  0  0  0  0  0  0  0  0
   -3.2908    3.8342    1.0333 C   0  0  0  0  0  0  0  0  0  0  0  0
   -3.0277    3.5803   -0.3251 C   0  0  0  0  0  0  0  0  0  0  0  0
   -3.0856    4.4093   -1.0498 H   0  0  0  0  0  0  0  0  0  0  0  0
   -2.7009    2.2970   -0.7953 C   0  0  0  0  0  0  0  0  0  0  0  0
   -2.7995    0.3330    2.5163 C   0  0  0  0  0  0  0  0  0  0  0  0
   -2.6725    0.7362    3.5392 H   0  0  0  0  0  0  0  0  0  0  0  0
   -1.9269   -0.3100    2.2909 H   0  0  0  0  0  0  0  0  0  0  0  0
   -3.7076   -0.3095    2.5317 H   0  0  0  0  0  0  0  0  0  0  0  0
   -3.5956    5.2306    1.5161 C   0  0  0  0  0  0  0  0  0  0  0  0
   -2.6608    5.8088    1.6830 H   0  0  0  0  0  0  0  0  0  0  0  0
   -4.1497    5.2211    2.4755 H   0  0  0  0  0  0  0  0  0  0  0  0
   -4.1965    5.7971    0.7764 H   0  0  0  0  0  0  0  0  0  0  0  0
   -2.4399    2.0617   -2.2594 C   0  0  0  0  0  0  0  0  0  0  0  0
   -2.9733    1.1644   -2.6311 H   0  0  0  0  0  0  0  0  0  0  0  0
   -1.3648    1.8713   -2.4567 H   0  0  0  0  0  0  0  0  0  0  0  0
   -2.7486    2.9356   -2.8646 H   0  0  0  0  0  0  0  0  0  0  0  0
  1 24  1  0  0  0  0
  1  4  1  0  0  0  0
  2 34  1  0  0  0  0
  2 27  1  0  0  0  0
  3 35  1  0  0  0  0
  3 38  1  0  0  0  0
  4  5  1  0  0  0  0
  5  6  2  0  0  0  0
  5 12  1  0  0  0  0
  6  7  1  0  0  0  0
  8 16  1  0  0  0  0
  8  6  1  0  0  0  0
  9  8  2  0  0  0  0
 10  9  1  0  0  0  0
 11  9  1  0  0  0  0
 11  4  2  0  0  0  0
 12 13  1  0  0  0  0
 12 15  1  0  0  0  0
 14 12  1  0  0  0  0
 16 17  1  0  0  0  0
 18 16  1  0  0  0  0
 19 16  1  0  0  0  0
 20 11  1  0  0  0  0
 21 20  1  0  0  0  0
 22 20  1  0  0  0  0
 23 20  1  0  0  0  0
 24 26  1  0  0  0  0
 25 24  1  0  0  0  0
 27 24  1  1  0  0  0
 27 28  1  0  0  0  0
 28 30  2  0  0  0  0
 28 29  1  0  0  0  0
 30 31  1  0  0  0  0
 32 33  1  0  0  0  0
 32 30  1  0  0  0  0
 34 32  2  0  0  0  0
 35 34  1  0  0  0  0
 35 37  1  0  0  0  0
 36 35  1  0  0  0  0
 38 39  1  0  0  0  0
 39 40  2  0  0  0  0
 39 46  1  0  0  0  0
 40 41  1  0  0  0  0
 42 50  1  0  0  0  0
 42 40  1  0  0  0  0
 43 42  2  0  0  0  0
 44 43  1  0  0  0  0
 45 43  1  0  0  0  0
 45 38  2  0  0  0  0
 46 49  1  0  0  0  0
 46 47  1  0  0  0  0
 48 46  1  0  0  0  0
 50 51  1  0  0  0  0
 50 52  1  0  0  0  0
 53 50  1  0  0  0  0
 54 45  1  0  0  0  0
 55 54  1  0  0  0  0
 56 54  1  0  0  0  0
 57 54  1  0  0  0  0
M  END
