3,26,27
 OpenBabel05122313063D

 63 63  0  0  0  0  0  0  0  0999 V2000
    3.0489    0.7870    0.1773 Si  0  0  0  0  0  0  0  0  0  0  0  0
    2.0479   -2.1048   -0.5221 Si  0  0  0  0  0  0  0  0  0  0  0  0
    1.7602   -0.4138   -0.0452 N   0  0  0  0  0  2  0  0  0  0  0  0
    2.2528    2.3451    0.3343 N   0  0  0  0  0  0  0  0  0  0  0  0
    2.3743    2.7976    1.2462 H   0  0  0  0  0  0  0  0  0  0  0  0
    4.1842    0.7957   -1.3317 C   0  0  0  0  0  0  0  0  0  0  0  0
    3.6074    1.0285   -2.2490 H   0  0  0  0  0  0  0  0  0  0  0  0
    4.7005   -0.1725   -1.4881 H   0  0  0  0  0  0  0  0  0  0  0  0
    4.9587    1.5806   -1.2108 H   0  0  0  0  0  0  0  0  0  0  0  0
    4.0011    0.4779    1.7733 C   0  0  0  0  0  0  0  0  0  0  0  0
    4.6814    1.3236    2.0049 H   0  0  0  0  0  0  0  0  0  0  0  0
    4.6144   -0.4425    1.7131 H   0  0  0  0  0  0  0  0  0  0  0  0
    3.2802    0.3607    2.6084 H   0  0  0  0  0  0  0  0  0  0  0  0
    3.7657   -2.7081   -0.0278 C   0  0  0  0  0  0  0  0  0  0  0  0
    3.8979   -2.6664    1.0724 H   0  0  0  0  0  0  0  0  0  0  0  0
    4.5814   -2.1198   -0.4911 H   0  0  0  0  0  0  0  0  0  0  0  0
    3.8834   -3.7637   -0.3474 H   0  0  0  0  0  0  0  0  0  0  0  0
    1.7632   -2.2271   -2.3790 C   0  0  0  0  0  0  0  0  0  0  0  0
    1.8456   -3.2690   -2.7486 H   0  0  0  0  0  0  0  0  0  0  0  0
    2.5005   -1.6002   -2.9212 H   0  0  0  0  0  0  0  0  0  0  0  0
    0.7534   -1.8407   -2.6264 H   0  0  0  0  0  0  0  0  0  0  0  0
   -0.8434   -3.0335    0.1767 Si  0  0  0  0  0  0  0  0  0  0  0  0
   -2.2050    2.2464    0.1791 Si  0  0  0  0  0  0  0  0  0  0  0  0
    0.7987    2.8247   -0.5251 Si  0  0  0  0  0  0  0  0  0  0  0  0
   -2.8466   -0.7200   -0.5248 Si  0  0  0  0  0  0  0  0  0  0  0  0
   -0.5216    1.7303   -0.0455 N   0  0  0  0  0  2  0  0  0  0  0  0
   -1.2387   -1.3173   -0.0461 N   0  0  0  0  0  2  0  0  0  0  0  0
    0.9038   -3.1224    0.3370 N   0  0  0  0  0  0  0  0  0  0  0  0
   -3.1568    0.7783    0.3369 N   0  0  0  0  0  0  0  0  0  0  0  0
    1.2330   -3.4499    1.2509 H   0  0  0  0  0  0  0  0  0  0  0  0
   -3.6068    0.6561    1.2500 H   0  0  0  0  0  0  0  0  0  0  0  0
   -1.3992   -4.0214   -1.3338 C   0  0  0  0  0  0  0  0  0  0  0  0
   -2.7837    3.2262   -1.3282 C   0  0  0  0  0  0  0  0  0  0  0  0
   -0.9054   -3.6397   -2.2496 H   0  0  0  0  0  0  0  0  0  0  0  0
   -2.6986    2.6111   -2.2462 H   0  0  0  0  0  0  0  0  0  0  0  0
   -2.4952   -3.9832   -1.4943 H   0  0  0  0  0  0  0  0  0  0  0  0
   -2.2048    4.1582   -1.4850 H   0  0  0  0  0  0  0  0  0  0  0  0
   -1.1083   -5.0848   -1.2110 H   0  0  0  0  0  0  0  0  0  0  0  0
   -3.8507    3.5032   -1.2045 H   0  0  0  0  0  0  0  0  0  0  0  0
   -1.5916   -3.7045    1.7702 C   0  0  0  0  0  0  0  0  0  0  0  0
   -2.4095    3.2251    1.7755 C   0  0  0  0  0  0  0  0  0  0  0  0
   -1.2012   -4.7173    2.0010 H   0  0  0  0  0  0  0  0  0  0  0  0
   -3.4815    3.3904    2.0097 H   0  0  0  0  0  0  0  0  0  0  0  0
   -2.6953   -3.7742    1.7069 H   0  0  0  0  0  0  0  0  0  0  0  0
   -1.9199    4.2169    1.7146 H   0  0  0  0  0  0  0  0  0  0  0  0
   -1.3350   -3.0231    2.6073 H   0  0  0  0  0  0  0  0  0  0  0  0
   -1.9447    2.6596    2.6091 H   0  0  0  0  0  0  0  0  0  0  0  0
   -4.2305   -1.9058   -0.0340 C   0  0  0  0  0  0  0  0  0  0  0  0
    0.4623    4.6160   -0.0340 C   0  0  0  0  0  0  0  0  0  0  0  0
   -4.2617   -2.0438    1.0659 H   0  0  0  0  0  0  0  0  0  0  0  0
    0.3581    4.7120    1.0659 H   0  0  0  0  0  0  0  0  0  0  0  0
   -4.1317   -2.9056   -0.4998 H   0  0  0  0  0  0  0  0  0  0  0  0
   -0.4533    5.0296   -0.5000 H   0  0  0  0  0  0  0  0  0  0  0  0
   -5.2025   -1.4769   -0.3528 H   0  0  0  0  0  0  0  0  0  0  0  0
    1.3192    5.2442   -0.3527 H   0  0  0  0  0  0  0  0  0  0  0  0
   -2.8075   -0.4080   -2.3814 C   0  0  0  0  0  0  0  0  0  0  0  0
    1.0479    2.6362   -2.3815 C   0  0  0  0  0  0  0  0  0  0  0  0
   -3.7505    0.0417   -2.7520 H   0  0  0  0  0  0  0  0  0  0  0  0
    1.9063    3.2318   -2.7521 H   0  0  0  0  0  0  0  0  0  0  0  0
   -2.6314   -1.3586   -2.9252 H   0  0  0  0  0  0  0  0  0  0  0  0
    0.1350    2.9557   -2.9242 H   0  0  0  0  0  0  0  0  0  0  0  0
   -1.9684    0.2748   -2.6260 H   0  0  0  0  0  0  0  0  0  0  0  0
    1.2237    1.5689   -2.6269 H   0  0  0  0  0  0  0  0  0  0  0  0
  1  4  1  0  0  0  0
  1 10  1  0  0  0  0
  2  3  1  0  0  0  0
  2 14  1  0  0  0  0
  2 28  1  0  0  0  0
  3  1  1  0  0  0  0
  4  5  1  0  0  0  0
  6  9  1  0  0  0  0
  6  1  1  0  0  0  0
  7  6  1  0  0  0  0
  8  6  1  0  0  0  0
 10 11  1  0  0  0  0
 10 13  1  0  0  0  0
 12 10  1  0  0  0  0
 14 15  1  0  0  0  0
 16 14  1  0  0  0  0
 17 14  1  0  0  0  0
 18  2  1  0  0  0  0
 19 18  1  0  0  0  0
 20 18  1  0  0  0  0
 21 18  1  0  0  0  0
 22 28  1  0  0  0  0
 22 40  1  0  0  0  0
 23 29  1  0  0  0  0
 23 41  1  0  0  0  0
 24 26  1  0  0  0  0
 24 49  1  0  0  0  0
 24  4  1  0  0  0  0
 25 27  1  0  0  0  0
 25 48  1  0  0  0  0
 25 29  1  0  0  0  0
 26 23  1  0  0  0  0
 27 22  1  0  0  0  0
 28 30  1  0  0  0  0
 29 31  1  0  0  0  0
 32 38  1  0  0  0  0
 32 22  1  0  0  0  0
 33 39  1  0  0  0  0
 33 23  1  0  0  0  0
 34 32  1  0  0  0  0
 35 33  1  0  0  0  0
 36 32  1  0  0  0  0
 37 33  1  0  0  0  0
 40 42  1  0  0  0  0
 40 46  1  0  0  0  0
 41 43  1  0  0  0  0
 41 47  1  0  0  0  0
 44 40  1  0  0  0  0
 45 41  1  0  0  0  0
 48 50  1  0  0  0  0
 49 51  1  0  0  0  0
 52 48  1  0  0  0  0
 53 49  1  0  0  0  0
 54 48  1  0  0  0  0
 55 49  1  0  0  0  0
 56 25  1  0  0  0  0
 57 24  1  0  0  0  0
 58 56  1  0  0  0  0
 59 57  1  0  0  0  0
 60 56  1  0  0  0  0
 61 57  1  0  0  0  0
 62 56  1  0  0  0  0
 63 57  1  0  0  0  0
M  END
