3,4,6
 OpenBabel05122313063D

 24 24  0  0  1  0  0  0  0  0999 V2000
    3.6840   -1.6136   -1.0436 O   0  0  0  0  0  0  0  0  0  0  0  0
   -3.6122   -1.7522    0.6471 O   0  0  0  0  0  0  0  0  0  0  0  0
    1.4588   -1.3214   -0.6437 N   0  0  0  0  0  2  0  0  0  0  0  0
    0.8878    1.2674    0.2384 N   0  0  0  0  0  0  0  0  0  0  0  0
   -1.4361    2.0397   -1.4733 N   0  0  0  0  0  2  0  0  0  0  0  0
   -1.5106   -1.5236   -0.6535 N   0  0  0  0  0  2  0  0  0  0  0  0
    2.7634   -0.9844   -0.5011 C   0  0  0  0  0  0  0  0  0  0  0  0
    3.1336    0.2450    0.3527 C   0  0  0  0  0  0  0  0  0  0  0  0
    2.0478    1.0032    1.1214 C   0  0  0  0  0  0  0  0  0  0  0  0
   -0.0333    2.3471    0.6302 C   0  0  0  0  0  0  0  0  0  0  0  0
   -0.7588    2.9708   -0.5695 C   0  0  0  0  0  0  0  0  0  0  0  0
   -1.8804    0.9234   -1.2460 C   0  0  0  0  0  2  0  0  0  0  0  0
   -2.2717   -0.3237   -1.0166 C   0  0  2  0  0  3  0  0  0  0  0  0
   -2.7646   -1.3151   -0.0807 C   0  0  0  0  0  0  0  0  0  0  0  0
    1.3394   -2.1257   -1.2744 H   0  0  0  0  0  0  0  0  0  0  0  0
    3.6499    0.9405   -0.3456 H   0  0  0  0  0  0  0  0  0  0  0  0
    3.9217   -0.0857    1.0587 H   0  0  0  0  0  0  0  0  0  0  0  0
    1.6772    0.4396    2.0038 H   0  0  0  0  0  0  0  0  0  0  0  0
    2.4663    1.9622    1.5081 H   0  0  0  0  0  0  0  0  0  0  0  0
    1.2288    1.4048   -0.7248 H   0  0  0  0  0  0  0  0  0  0  0  0
   -0.7324    1.9180    1.3814 H   0  0  0  0  0  0  0  0  0  0  0  0
    0.5359    3.1770    1.1096 H   0  0  0  0  0  0  0  0  0  0  0  0
   -0.0444    3.5486   -1.1946 H   0  0  0  0  0  0  0  0  0  0  0  0
   -1.5056    3.7043   -0.1982 H   0  0  0  0  0  0  0  0  0  0  0  0
  1  7  2  0  0  0  0
  3  7  1  0  0  0  0
  4 10  1  0  0  0  0
  4  9  1  0  0  0  0
  5 12  1  0  0  0  0
  5 11  1  0  0  0  0
  6 14  1  0  0  0  0
  7  8  1  0  0  0  0
  8 17  1  0  0  0  0
  8  9  1  0  0  0  0
  9 19  1  0  0  0  0
  9 18  1  0  0  0  0
 10 22  1  0  0  0  0
 10 21  1  0  0  0  0
 11 24  1  0  0  0  0
 11 10  1  0  0  0  0
 13 12  1  1  0  0  0
 13  6  1  0  0  0  0
 13 14  1  0  0  0  0
 14  2  2  0  0  0  0
 15  3  1  0  0  0  0
 16  8  1  0  0  0  0
 20  4  1  0  0  0  0
 23 11  1  0  0  0  0
M  END
