1,2,5
 OpenBabel05122313063D

 51 56  0  0  1  0  0  0  0  0999 V2000
   -0.6915   -1.3543   -0.4049 N   0  0  0  0  0  2  0  0  0  0  0  0
    0.7822    0.5601   -0.5952 N   0  0  0  0  0  2  0  0  0  0  0  0
   -2.6891   -0.4611   -0.9561 N   0  0  0  0  0  0  0  0  0  0  0  0
   -2.9163   -1.7912   -0.5999 C   0  0  0  0  0  0  0  0  0  0  0  0
    2.9727   -0.3273    0.2876 N   0  0  0  0  0  2  0  0  0  0  0  0
   -1.6417   -2.3434   -0.2734 C   0  0  0  0  0  0  0  0  0  0  0  0
    1.7857    1.4883   -0.6054 C   0  0  0  0  0  0  0  0  0  0  0  0
   -1.3335   -0.2338   -0.8169 C   0  0  1  0  0  3  0  0  0  0  0  0
   -0.7428    2.2583   -1.3861 C   0  0  0  0  0  0  0  0  0  0  0  0
   -1.7626    2.5573   -1.6607 H   0  0  0  0  0  0  0  0  0  0  0  0
    3.0147    0.9849   -0.1196 C   0  0  0  0  0  0  0  0  0  0  0  0
   -3.8458    1.5485   -0.0412 C   0  0  0  0  0  0  0  0  0  0  0  0
   -0.4961    0.9263   -0.9688 C   0  0  0  0  0  0  0  0  0  0  0  0
    1.6091    2.8277   -1.0251 C   0  0  0  0  0  0  0  0  0  0  0  0
    4.0932   -0.8661    0.8175 C   0  0  0  0  0  0  0  0  0  0  0  0
   -3.9426   -3.8995   -0.1353 C   0  0  0  0  0  0  0  0  0  0  0  0
   -4.8385   -4.5345   -0.0683 H   0  0  0  0  0  0  0  0  0  0  0  0
   -4.0869   -2.5619   -0.5300 C   0  0  0  0  0  0  0  0  0  0  0  0
   -5.0763   -2.1454   -0.7683 H   0  0  0  0  0  0  0  0  0  0  0  0
    0.2905    3.1978   -1.4281 C   0  0  0  0  0  0  0  0  0  0  0  0
    0.0841    4.2279   -1.7520 H   0  0  0  0  0  0  0  0  0  0  0  0
   -3.7013    0.5506   -1.1814 C   0  0  0  0  0  0  0  0  0  0  0  0
   -4.6609    0.0204   -1.3491 H   0  0  0  0  0  0  0  0  0  0  0  0
   -3.4823    1.0830   -2.1319 H   0  0  0  0  0  0  0  0  0  0  0  0
   -1.5093   -3.6880    0.1122 C   0  0  0  0  0  0  0  0  0  0  0  0
   -0.5135   -4.0928    0.3382 H   0  0  0  0  0  0  0  0  0  0  0  0
   -2.6766   -4.4548    0.1770 C   0  0  0  0  0  0  0  0  0  0  0  0
   -2.6152   -5.5118    0.4752 H   0  0  0  0  0  0  0  0  0  0  0  0
   -3.2425    1.3422    1.2132 C   0  0  0  0  0  0  0  0  0  0  0  0
   -2.6214    0.4529    1.4001 H   0  0  0  0  0  0  0  0  0  0  0  0
    5.2811   -0.0923    0.9022 C   0  0  0  0  0  0  0  0  0  0  0  0
    6.1762   -0.5674    1.3290 H   0  0  0  0  0  0  0  0  0  0  0  0
    4.1547    1.8277   -0.0549 C   0  0  0  0  0  0  0  0  0  0  0  0
    2.7773    3.6655   -0.9690 C   0  0  0  0  0  0  0  0  0  0  0  0
    2.6904    4.7136   -1.2939 H   0  0  0  0  0  0  0  0  0  0  0  0
    4.0014   -2.2740    1.3169 C   0  0  0  0  0  0  0  0  0  0  0  0
    3.6719   -2.9382    0.4913 H   0  0  0  0  0  0  0  0  0  0  0  0
    3.2158   -2.3291    2.1001 H   0  0  0  0  0  0  0  0  0  0  0  0
    4.9632   -2.6285    1.7299 H   0  0  0  0  0  0  0  0  0  0  0  0
   -3.4047    2.2890    2.2373 C   0  0  0  0  0  0  0  0  0  0  0  0
   -2.9181    2.1183    3.2092 H   0  0  0  0  0  0  0  0  0  0  0  0
   -4.6090    2.7135   -0.2536 C   0  0  0  0  0  0  0  0  0  0  0  0
   -5.0786    2.8869   -1.2358 H   0  0  0  0  0  0  0  0  0  0  0  0
    5.3300    1.2351    0.4721 C   0  0  0  0  0  0  0  0  0  0  0  0
    6.2599    1.8182    0.5516 H   0  0  0  0  0  0  0  0  0  0  0  0
    3.9927    3.1856   -0.5089 C   0  0  0  0  0  0  0  0  0  0  0  0
    4.8657    3.8552   -0.4727 H   0  0  0  0  0  0  0  0  0  0  0  0
   -4.7748    3.6543    0.7722 C   0  0  0  0  0  0  0  0  0  0  0  0
   -5.3739    4.5599    0.5924 H   0  0  0  0  0  0  0  0  0  0  0  0
   -4.1708    3.4439    2.0227 C   0  0  0  0  0  0  0  0  0  0  0  0
   -4.2933    4.1846    2.8272 H   0  0  0  0  0  0  0  0  0  0  0  0
  1  6  1  0  0  0  0
  3  8  1  0  0  0  0
  3  4  1  0  0  0  0
  4 18  2  0  0  0  0
  4  6  1  0  0  0  0
  5 15  1  0  0  0  0
  6 25  2  0  0  0  0
  7  2  1  0  0  0  0
  7 11  2  0  0  0  0
  8 13  1  1  0  0  0
  8  1  1  0  0  0  0
  9 13  2  0  0  0  0
 10  9  1  0  0  0  0
 11 33  1  0  0  0  0
 11  5  1  0  0  0  0
 12 29  1  0  0  0  0
 13  2  1  0  0  0  0
 14 34  1  0  0  0  0
 14  7  1  0  0  0  0
 15 31  2  0  0  0  0
 15 36  1  0  0  0  0
 16 17  1  0  0  0  0
 16 27  2  0  0  0  0
 18 16  1  0  0  0  0
 19 18  1  0  0  0  0
 20  9  1  0  0  0  0
 20 14  2  0  0  0  0
 21 20  1  0  0  0  0
 22  3  1  0  0  0  0
 22 12  1  0  0  0  0
 23 22  1  0  0  0  0
 24 22  1  0  0  0  0
 25 27  1  0  0  0  0
 25 26  1  0  0  0  0
 27 28  1  0  0  0  0
 29 30  1  0  0  0  0
 29 40  2  0  0  0  0
 31 32  1  0  0  0  0
 33 44  2  0  0  0  0
 34 46  2  0  0  0  0
 35 34  1  0  0  0  0
 36 39  1  0  0  0  0
 36 38  1  0  0  0  0
 37 36  1  0  0  0  0
 40 41  1  0  0  0  0
 42 12  2  0  0  0  0
 42 48  1  0  0  0  0
 43 42  1  0  0  0  0
 44 45  1  0  0  0  0
 44 31  1  0  0  0  0
 46 47  1  0  0  0  0
 46 33  1  0  0  0  0
 48 50  2  0  0  0  0
 49 48  1  0  0  0  0
 50 40  1  0  0  0  0
 50 51  1  0  0  0  0
M  END
