2,7,12
 OpenBabel05122313063D

 39 42  0  0  1  0  0  0  0  0999 V2000
    8.9823   -0.1126   -0.1304 Cl  0  0  0  0  0  0  0  0  0  0  0  0
    0.1476    0.0470   -0.0034 N   0  0  0  0  0  2  0  0  0  0  0  0
    5.1773    0.9510    0.6212 C   0  0  0  0  0  0  0  0  0  0  0  0
    4.6617    1.7303    1.2021 H   0  0  0  0  0  0  0  0  0  0  0  0
    0.7836   -1.1353   -0.0096 C   0  0  2  0  0  3  0  0  0  0  0  0
    0.0089    2.4585   -0.0255 C   0  0  2  0  0  3  0  0  0  0  0  0
   -1.3148    2.3151   -0.2475 N   0  0  0  0  0  2  0  0  0  0  0  0
    0.8269    1.2045   -0.0131 C   0  0  0  0  0  0  0  0  0  0  0  0
    2.9419   -0.0046   -0.0345 C   0  0  0  0  0  0  0  0  0  0  0  0
   -2.2665   -3.1848   -0.1006 C   0  0  0  0  0  3  0  0  0  0  0  0
   -3.3332   -2.9227   -0.1961 H   0  0  0  0  0  0  0  0  0  0  0  0
   -1.4116   -2.1530   -0.1069 N   0  0  0  0  0  2  0  0  0  0  0  0
    5.1202   -1.0401   -0.7615 C   0  0  0  0  0  0  0  0  0  0  0  0
    4.5596   -1.8005   -1.3255 H   0  0  0  0  0  0  0  0  0  0  0  0
    6.5184   -1.0694   -0.7912 C   0  0  0  0  0  0  0  0  0  0  0  0
    7.0545   -1.8476   -1.3519 H   0  0  0  0  0  0  0  0  0  0  0  0
    7.2436   -0.0817   -0.1030 C   0  0  0  0  0  0  0  0  0  0  0  0
    4.4229   -0.0317   -0.0587 C   0  0  0  0  0  0  0  0  0  0  0  0
    0.5720    3.7330    0.1847 C   0  0  0  0  0  0  0  0  0  0  0  0
    1.6451    3.8492    0.3873 H   0  0  0  0  0  0  0  0  0  0  0  0
   -0.2612    4.8588    0.1553 C   0  0  0  0  0  0  0  0  0  0  0  0
    0.1600    5.8610    0.3247 H   0  0  0  0  0  0  0  0  0  0  0  0
    0.4365   -3.6603    0.1318 C   0  0  0  0  0  0  0  0  0  0  0  0
    1.5159   -3.8321    0.2379 H   0  0  0  0  0  0  0  0  0  0  0  0
   -1.6320    4.6906   -0.0822 C   0  0  0  0  0  0  0  0  0  0  0  0
   -2.3198    5.5475   -0.1108 H   0  0  0  0  0  0  0  0  0  0  0  0
   -0.0825   -2.3567    0.0042 C   0  0  0  0  0  0  0  0  0  0  0  0
    2.1893   -1.1969   -0.0236 C   0  0  0  0  0  0  0  0  0  0  0  0
    2.7086   -2.1636   -0.0094 H   0  0  0  0  0  0  0  0  0  0  0  0
    6.5759    0.9307    0.6071 C   0  0  0  0  0  0  0  0  0  0  0  0
    7.1567    1.6888    1.1506 H   0  0  0  0  0  0  0  0  0  0  0  0
   -0.4487   -4.7463    0.1380 C   0  0  0  0  0  0  0  0  0  0  0  0
   -0.0618   -5.7711    0.2419 H   0  0  0  0  0  0  0  0  0  0  0  0
   -1.8249   -4.5115    0.0172 C   0  0  0  0  0  0  0  0  0  0  0  0
   -2.5511   -5.3366    0.0189 H   0  0  0  0  0  0  0  0  0  0  0  0
    2.2338    1.2151   -0.0298 C   0  0  0  0  0  0  0  0  0  0  0  0
    2.7865    2.1618   -0.0854 H   0  0  0  0  0  0  0  0  0  0  0  0
   -2.1179    3.3883   -0.2756 C   0  0  0  0  0  0  0  0  0  0  0  0
   -3.1857    3.1806   -0.4611 H   0  0  0  0  0  0  0  0  0  0  0  0
  1 17  1  0  0  0  0
  3  4  1  0  0  0  0
  5  2  1  0  0  0  0
  5 27  1  1  0  0  0
  6  8  1  1  0  0  0
  6 19  1  0  0  0  0
  7  6  1  0  0  0  0
  8  2  1  0  0  0  0
  9 36  1  0  0  0  0
  9 28  2  0  0  0  0
 10 34  1  0  0  0  0
 11 10  1  0  0  0  0
 12 10  1  0  0  0  0
 12 27  1  0  0  0  0
 13 18  1  0  0  0  0
 14 13  1  0  0  0  0
 15 13  2  0  0  0  0
 15 17  1  0  0  0  0
 16 15  1  0  0  0  0
 17 30  2  0  0  0  0
 18  9  1  0  0  0  0
 18  3  2  0  0  0  0
 19 20  1  0  0  0  0
 21 19  2  0  0  0  0
 21 22  1  0  0  0  0
 23 32  1  0  0  0  0
 23 24  1  0  0  0  0
 25 21  1  0  0  0  0
 26 25  1  0  0  0  0
 27 23  2  0  0  0  0
 28  5  1  0  0  0  0
 28 29  1  0  0  0  0
 30  3  1  0  0  0  0
 30 31  1  0  0  0  0
 32 33  1  0  0  0  0
 34 35  1  0  0  0  0
 34 32  2  0  0  0  0
 36  8  2  0  0  0  0
 37 36  1  0  0  0  0
 38  7  1  0  0  0  0
 38 25  2  0  0  0  0
 39 38  1  0  0  0  0
M  END
