31,32,33
 OpenBabel05122313063D

 34 36  0  0  1  0  0  0  0  0999 V2000
    0.1092   -1.2942   -2.4833 C   0  0  0  0  0  3  0  0  0  0  0  0
    1.2032   -1.2329   -2.5706 H   0  0  0  0  0  0  0  0  0  0  0  0
   -0.6880   -1.9235   -3.4437 C   0  0  0  0  0  0  0  0  0  0  0  0
   -0.2112   -2.4024   -4.3103 H   0  0  0  0  0  0  0  0  0  0  0  0
   -2.0782   -1.9400   -3.2681 C   0  0  0  0  0  0  0  0  0  0  0  0
   -2.7316   -2.4499   -3.9916 H   0  0  0  0  0  0  0  0  0  0  0  0
   -2.6295   -1.2961   -2.1516 C   0  0  0  0  0  0  0  0  0  0  0  0
   -3.7095   -1.3043   -1.9584 H   0  0  0  0  0  0  0  0  0  0  0  0
   -1.7707   -0.6591   -1.2441 C   0  0  0  0  0  0  0  0  0  0  0  0
   -2.2889    0.0873   -0.0008 C   0  0  1  0  0  0  0  0  0  0  0  0
   -1.7747   -0.6905    1.2260 C   0  0  1  0  0  3  0  0  0  0  0  0
   -2.6409   -1.2988    2.1459 C   0  0  0  0  0  0  0  0  0  0  0  0
   -3.7248   -1.2463    1.9852 H   0  0  0  0  0  0  0  0  0  0  0  0
   -2.0957   -1.9991    3.2308 C   0  0  0  0  0  0  0  0  0  0  0  0
   -2.7563   -2.4805    3.9672 H   0  0  0  0  0  0  0  0  0  0  0  0
   -0.7026   -2.0900    3.3483 C   0  0  0  0  0  0  0  0  0  0  0  0
   -0.2288   -2.6386    4.1743 H   0  0  0  0  0  0  0  0  0  0  0  0
    0.1006   -1.4857    2.3771 C   0  0  0  0  0  0  0  0  0  0  0  0
    1.1952   -1.5775    2.3821 H   0  0  0  0  0  0  0  0  0  0  0  0
   -1.6806    1.5150    0.0174 C   0  0  1  0  0  3  0  0  0  0  0  0
   -2.4828    2.6662   -0.0043 C   0  0  0  0  0  0  0  0  0  0  0  0
   -3.5760    2.5793   -0.0452 H   0  0  0  0  0  0  0  0  0  0  0  0
   -1.8765    3.9301    0.0281 C   0  0  0  0  0  0  0  0  0  0  0  0
   -2.4935    4.8407    0.0068 H   0  0  0  0  0  0  0  0  0  0  0  0
   -0.4800    4.0090    0.0964 C   0  0  0  0  0  0  0  0  0  0  0  0
    0.0417    4.9754    0.1374 H   0  0  0  0  0  0  0  0  0  0  0  0
    0.2628    2.8256    0.1151 C   0  0  0  0  0  0  0  0  0  0  0  0
    1.3579    2.8175    0.2072 H   0  0  0  0  0  0  0  0  0  0  0  0
   -4.1004    0.5823    0.8152 H   0  0  0  0  0  0  0  0  0  0  0  0
   -4.0965    0.5702   -0.8322 H   0  0  0  0  0  0  0  0  0  0  0  0
   -0.4302   -0.6916   -1.4013 N   0  0  0  0  0  2  0  0  0  0  0  0
   -0.4336   -0.7967    1.3450 N   0  0  0  0  0  2  0  0  0  0  0  0
   -0.3350    1.6146    0.0640 N   0  0  0  0  0  2  0  0  0  0  0  0
   -3.7407    0.0789   -0.0041 N   0  0  0  0  0  0  0  0  0  0  0  0
  1 31  1  0  0  0  0
  2  1  1  0  0  0  0
  3  5  2  0  0  0  0
  3  1  1  0  0  0  0
  4  3  1  0  0  0  0
  5  7  1  0  0  0  0
  6  5  1  0  0  0  0
  7  8  1  0  0  0  0
  7  9  2  0  0  0  0
  9 10  1  0  0  0  0
 10 34  1  6  0  0  0
 11 10  1  6  0  0  0
 11 32  1  0  0  0  0
 11 12  1  0  0  0  0
 12 14  2  0  0  0  0
 13 12  1  0  0  0  0
 14 16  1  0  0  0  0
 14 15  1  0  0  0  0
 16 17  1  0  0  0  0
 18 19  1  0  0  0  0
 18 16  2  0  0  0  0
 20 10  1  1  0  0  0
 20 33  1  0  0  0  0
 21 20  1  0  0  0  0
 21 23  2  0  0  0  0
 22 21  1  0  0  0  0
 23 25  1  0  0  0  0
 24 23  1  0  0  0  0
 25 27  2  0  0  0  0
 25 26  1  0  0  0  0
 27 28  1  0  0  0  0
 30 34  1  0  0  0  0
 31  9  1  0  0  0  0
 32 18  1  0  0  0  0
 33 27  1  0  0  0  0
 34 29  1  0  0  0  0
M  END
