2,3,4
 OpenBabel05122313063D

 59 62  0  0  1  0  0  0  0  0999 V2000
   -0.3032    1.9868   -0.1712 Si  0  0  0  0  0  0  0  0  0  0  0  0
    2.7310   -0.4945   -0.0025 N   0  0  0  0  0  2  0  0  0  0  0  0
    1.1807    1.0716   -0.1465 N   0  0  0  0  0  2  0  0  0  0  0  0
   -1.2278    0.4837   -0.1811 N   0  0  0  0  0  2  0  0  0  0  0  0
   -3.0260   -0.9282    0.1962 N   0  0  0  0  0  0  0  0  0  0  0  0
    3.9533   -1.1086   -0.2706 C   0  0  0  0  0  0  0  0  0  0  0  0
    4.2213   -2.4016    0.2446 C   0  0  0  0  0  0  0  0  0  0  0  0
    3.4704   -2.8874    0.8815 H   0  0  0  0  0  0  0  0  0  0  0  0
    5.4229   -3.0594   -0.0500 C   0  0  0  0  0  0  0  0  0  0  0  0
    5.6058   -4.0608    0.3694 H   0  0  0  0  0  0  0  0  0  0  0  0
    6.3873   -2.4545   -0.8714 C   0  0  0  0  0  0  0  0  0  0  0  0
    7.3293   -2.9734   -1.1022 H   0  0  0  0  0  0  0  0  0  0  0  0
    6.1221   -1.1848   -1.4114 C   0  0  0  0  0  0  0  0  0  0  0  0
    6.8556   -0.7057   -2.0782 H   0  0  0  0  0  0  0  0  0  0  0  0
    4.9221   -0.5222   -1.1279 C   0  0  0  0  0  0  0  0  0  0  0  0
    4.7177    0.4584   -1.5805 H   0  0  0  0  0  0  0  0  0  0  0  0
    2.4725    0.8267    0.0086 C   0  0  1  0  0  3  0  0  0  0  0  0
    3.4679    1.8990    0.2928 C   0  0  0  0  0  0  0  0  0  0  0  0
    4.5336    1.6796    1.1920 C   0  0  0  0  0  0  0  0  0  0  0  0
    4.6604    0.6887    1.6513 H   0  0  0  0  0  0  0  0  0  0  0  0
    5.4167    2.7204    1.5061 C   0  0  0  0  0  0  0  0  0  0  0  0
    6.2381    2.5431    2.2166 H   0  0  0  0  0  0  0  0  0  0  0  0
    5.2563    3.9862    0.9175 C   0  0  0  0  0  0  0  0  0  0  0  0
    5.9559    4.8001    1.1611 H   0  0  0  0  0  0  0  0  0  0  0  0
    4.1990    4.2114    0.0209 C   0  0  0  0  0  0  0  0  0  0  0  0
    4.0696    5.2010   -0.4430 H   0  0  0  0  0  0  0  0  0  0  0  0
    3.3046    3.1760   -0.2823 C   0  0  0  0  0  0  0  0  0  0  0  0
    2.4735    3.3436   -0.9823 H   0  0  0  0  0  0  0  0  0  0  0  0
   -0.5915    3.0570    1.3509 C   0  0  0  0  0  0  0  0  0  0  0  0
   -1.5929    3.5321    1.3005 H   0  0  0  0  0  0  0  0  0  0  0  0
    0.1722    3.8590    1.4203 H   0  0  0  0  0  0  0  0  0  0  0  0
   -0.5465    2.4499    2.2765 H   0  0  0  0  0  0  0  0  0  0  0  0
   -0.3760    3.0550   -1.7257 C   0  0  0  0  0  0  0  0  0  0  0  0
    0.4440    3.8030   -1.7110 H   0  0  0  0  0  0  0  0  0  0  0  0
   -1.3325    3.6092   -1.7896 H   0  0  0  0  0  0  0  0  0  0  0  0
   -0.2626    2.4383   -2.6396 H   0  0  0  0  0  0  0  0  0  0  0  0
   -2.5633    0.2702   -0.0776 C   0  0  0  0  0  0  0  0  0  0  0  0
   -3.4693    1.4673   -0.2211 C   0  0  0  0  0  0  0  0  0  0  0  0
   -4.2194    1.9196    0.8835 C   0  0  0  0  0  0  0  0  0  0  0  0
   -4.1475    1.3796    1.8396 H   0  0  0  0  0  0  0  0  0  0  0  0
   -5.0528    3.0406    0.7647 C   0  0  0  0  0  0  0  0  0  0  0  0
   -5.6279    3.3887    1.6363 H   0  0  0  0  0  0  0  0  0  0  0  0
   -5.1620    3.7125   -0.4640 C   0  0  0  0  0  0  0  0  0  0  0  0
   -5.8221    4.5882   -0.5580 H   0  0  0  0  0  0  0  0  0  0  0  0
   -4.4343    3.2561   -1.5745 C   0  0  0  0  0  0  0  0  0  0  0  0
   -4.5280    3.7685   -2.5444 H   0  0  0  0  0  0  0  0  0  0  0  0
   -3.5895    2.1426   -1.4518 C   0  0  0  0  0  0  0  0  0  0  0  0
   -3.0224    1.7781   -2.3217 H   0  0  0  0  0  0  0  0  0  0  0  0
   -4.3773   -1.2621    0.1875 C   0  0  0  0  0  0  0  0  0  0  0  0
   -4.9131   -1.9720    1.2928 C   0  0  0  0  0  0  0  0  0  0  0  0
   -4.2490   -2.1863    2.1444 H   0  0  0  0  0  0  0  0  0  0  0  0
   -6.2519   -2.3808    1.3078 C   0  0  0  0  0  0  0  0  0  0  0  0
   -6.6437   -2.9211    2.1839 H   0  0  0  0  0  0  0  0  0  0  0  0
   -7.0936   -2.1119    0.2145 C   0  0  0  0  0  0  0  0  0  0  0  0
   -8.1439   -2.4397    0.2249 H   0  0  0  0  0  0  0  0  0  0  0  0
   -6.5720   -1.4277   -0.8956 C   0  0  0  0  0  0  0  0  0  0  0  0
   -7.2155   -1.2178   -1.7647 H   0  0  0  0  0  0  0  0  0  0  0  0
   -5.2359   -1.0071   -0.9137 C   0  0  0  0  0  0  0  0  0  0  0  0
   -4.8352   -0.4792   -1.7915 H   0  0  0  0  0  0  0  0  0  0  0  0
  1  3  1  0  0  0  0
  1 29  1  0  0  0  0
  2 17  1  0  0  0  0
  4  1  1  0  0  0  0
  4 37  1  0  0  0  0
  6  2  1  0  0  0  0
  6  7  1  0  0  0  0
  7  8  1  0  0  0  0
  9  7  2  0  0  0  0
  9 10  1  0  0  0  0
 11  9  1  0  0  0  0
 12 11  1  0  0  0  0
 13 15  1  0  0  0  0
 13 11  2  0  0  0  0
 14 13  1  0  0  0  0
 15  6  2  0  0  0  0
 16 15  1  0  0  0  0
 17  3  1  1  0  0  0
 17 18  1  0  0  0  0
 18 19  1  0  0  0  0
 19 21  2  0  0  0  0
 19 20  1  0  0  0  0
 21 22  1  0  0  0  0
 23 24  1  0  0  0  0
 23 21  1  0  0  0  0
 25 23  2  0  0  0  0
 26 25  1  0  0  0  0
 27 25  1  0  0  0  0
 27 18  2  0  0  0  0
 28 27  1  0  0  0  0
 29 31  1  0  0  0  0
 29 32  1  0  0  0  0
 30 29  1  0  0  0  0
 33 34  1  0  0  0  0
 33  1  1  0  0  0  0
 35 33  1  0  0  0  0
 36 33  1  0  0  0  0
 37  5  2  0  0  0  0
 38 37  1  0  0  0  0
 38 39  1  0  0  0  0
 39 40  1  0  0  0  0
 41 39  2  0  0  0  0
 41 42  1  0  0  0  0
 43 41  1  0  0  0  0
 44 43  1  0  0  0  0
 45 47  1  0  0  0  0
 45 43  2  0  0  0  0
 46 45  1  0  0  0  0
 47 38  2  0  0  0  0
 48 47  1  0  0  0  0
 49  5  1  0  0  0  0
 49 50  1  0  0  0  0
 50 52  2  0  0  0  0
 50 51  1  0  0  0  0
 52 53  1  0  0  0  0
 54 55  1  0  0  0  0
 54 52  1  0  0  0  0
 56 54  2  0  0  0  0
 57 56  1  0  0  0  0
 58 56  1  0  0  0  0
 58 49  2  0  0  0  0
 59 58  1  0  0  0  0
M  END
