1,2,3
 OpenBabel05122313063D

 75 78  0  0  1  0  0  0  0  0999 V2000
    0.5280   -1.1976    1.7233 N   0  0  0  0  0  2  0  0  0  0  0  0
    0.0742   -3.2870    0.5851 N   0  0  0  0  0  2  0  0  0  0  0  0
   -0.5636   -2.5667   -1.6978 N   0  0  0  0  0  2  0  0  0  0  0  0
   -1.4284    0.1390   -2.3231 O   0  0  0  0  0  0  0  0  0  0  0  0
    0.1859    0.6916   -0.1386 O   0  0  0  0  0  0  0  0  0  0  0  0
   -2.1069    3.1464   -0.5185 O   0  0  0  0  0  0  0  0  0  0  0  0
    2.4688    2.3411   -1.2144 O   0  0  0  0  0  0  0  0  0  0  0  0
    0.4521   -3.4814    1.8959 C   0  0  0  0  0  0  0  0  0  0  0  0
    0.5211   -4.7845    2.4195 C   0  0  0  0  0  0  0  0  0  0  0  0
    0.8232   -4.9369    3.4646 H   0  0  0  0  0  0  0  0  0  0  0  0
    0.1961   -5.8754    1.5995 C   0  0  0  0  0  0  0  0  0  0  0  0
    0.2470   -6.8986    1.9975 H   0  0  0  0  0  0  0  0  0  0  0  0
   -0.1997   -5.6561    0.2707 C   0  0  0  0  0  0  0  0  0  0  0  0
   -0.4622   -6.4998   -0.3815 H   0  0  0  0  0  0  0  0  0  0  0  0
   -0.2574   -4.3408   -0.2235 C   0  0  0  0  0  0  0  0  0  0  0  0
   -0.6329   -3.8778   -1.5477 C   0  0  1  0  0  3  0  0  0  0  0  0
   -1.0596   -4.8214   -2.6322 C   0  0  0  0  0  0  0  0  0  0  0  0
   -2.0609   -4.5491   -3.0246 H   0  0  0  0  0  0  0  0  0  0  0  0
   -1.1062   -5.8642   -2.2738 H   0  0  0  0  0  0  0  0  0  0  0  0
   -0.3576   -4.7892   -3.4923 H   0  0  0  0  0  0  0  0  0  0  0  0
   -0.9041   -2.0350   -3.0166 C   0  0  0  0  0  0  0  0  0  0  0  0
   -1.9975   -2.1618   -3.1850 H   0  0  0  0  0  0  0  0  0  0  0  0
   -0.3799   -2.6114   -3.8095 H   0  0  0  0  0  0  0  0  0  0  0  0
   -0.5615   -0.5701   -3.1717 C   0  0  0  0  0  0  0  0  0  0  0  0
    0.5071   -0.4274   -2.9080 H   0  0  0  0  0  0  0  0  0  0  0  0
   -0.6931   -0.2693   -4.2409 H   0  0  0  0  0  0  0  0  0  0  0  0
   -1.1177    1.4790   -1.9990 C   0  0  1  0  0  0  0  0  0  0  0  0
   -1.0282    2.1087   -2.9198 H   0  0  0  0  0  0  0  0  0  0  0  0
   -2.3392    1.9090   -1.1674 C   0  0  0  0  0  0  0  0  0  0  0  0
   -3.2274    1.9618   -1.8360 H   0  0  0  0  0  0  0  0  0  0  0  0
   -2.5219    1.0906   -0.4398 H   0  0  0  0  0  0  0  0  0  0  0  0
   -2.6305    3.1869    0.8104 C   0  0  0  0  0  0  0  0  0  0  0  0
   -2.2637    4.1428    1.2373 H   0  0  0  0  0  0  0  0  0  0  0  0
   -2.2076    2.3460    1.4103 H   0  0  0  0  0  0  0  0  0  0  0  0
   -4.1431    3.1326    0.8638 C   0  0  0  0  0  0  0  0  0  0  0  0
   -4.8992    4.2956    0.6128 C   0  0  0  0  0  0  0  0  0  0  0  0
   -4.3774    5.2474    0.4220 H   0  0  0  0  0  0  0  0  0  0  0  0
   -6.3002    4.2500    0.6044 C   0  0  0  0  0  0  0  0  0  0  0  0
   -6.8799    5.1666    0.4141 H   0  0  0  0  0  0  0  0  0  0  0  0
   -6.9628    3.0338    0.8423 C   0  0  0  0  0  0  0  0  0  0  0  0
   -8.0632    2.9957    0.8378 H   0  0  0  0  0  0  0  0  0  0  0  0
   -6.2174    1.8694    1.0839 C   0  0  0  0  0  0  0  0  0  0  0  0
   -6.7302    0.9119    1.2633 H   0  0  0  0  0  0  0  0  0  0  0  0
   -4.8137    1.9139    1.0947 C   0  0  0  0  0  0  0  0  0  0  0  0
   -4.2381    0.9863    1.2612 H   0  0  0  0  0  0  0  0  0  0  0  0
    0.1874    1.6571   -1.2071 C   0  0  2  0  0  0  0  0  0  0  0  0
    0.0887    2.6655   -0.7423 H   0  0  0  0  0  0  0  0  0  0  0  0
    1.4946    1.6747   -1.9982 C   0  0  0  0  0  0  0  0  0  0  0  0
    1.8405    0.6431   -2.2193 H   0  0  0  0  0  0  0  0  0  0  0  0
    1.3299    2.2057   -2.9695 H   0  0  0  0  0  0  0  0  0  0  0  0
    3.8011    1.9436   -1.4981 C   0  0  0  0  0  0  0  0  0  0  0  0
    4.0943    2.2785   -2.5269 H   0  0  0  0  0  0  0  0  0  0  0  0
    3.8826    0.8299   -1.4826 H   0  0  0  0  0  0  0  0  0  0  0  0
    4.7429    2.5473   -0.4849 C   0  0  0  0  0  0  0  0  0  0  0  0
    4.3756    3.6788    0.2676 C   0  0  0  0  0  0  0  0  0  0  0  0
    3.3742    4.1077    0.1210 H   0  0  0  0  0  0  0  0  0  0  0  0
    5.2716    4.2399    1.1911 C   0  0  0  0  0  0  0  0  0  0  0  0
    4.9713    5.1243    1.7744 H   0  0  0  0  0  0  0  0  0  0  0  0
    6.5459    3.6800    1.3714 C   0  0  0  0  0  0  0  0  0  0  0  0
    7.2483    4.1210    2.0952 H   0  0  0  0  0  0  0  0  0  0  0  0
    6.9172    2.5489    0.6257 C   0  0  0  0  0  0  0  0  0  0  0  0
    7.9110    2.0968    0.7670 H   0  0  0  0  0  0  0  0  0  0  0  0
    6.0197    1.9841   -0.2917 C   0  0  0  0  0  0  0  0  0  0  0  0
    6.3077    1.0868   -0.8626 H   0  0  0  0  0  0  0  0  0  0  0  0
    1.0430    1.0235    0.9621 C   0  0  0  0  0  0  0  0  0  0  0  0
    0.9597    2.1079    1.1853 H   0  0  0  0  0  0  0  0  0  0  0  0
    2.0987    0.7977    0.7093 H   0  0  0  0  0  0  0  0  0  0  0  0
    0.5859    0.1885    2.1422 C   0  0  0  0  0  0  0  0  0  0  0  0
    1.2677    0.3473    3.0040 H   0  0  0  0  0  0  0  0  0  0  0  0
   -0.4428    0.4867    2.4468 H   0  0  0  0  0  0  0  0  0  0  0  0
    0.7012   -2.2132    2.5509 C   0  0  0  0  0  0  0  0  0  0  0  0
    1.0503   -2.0707    4.0010 C   0  0  0  0  0  0  0  0  0  0  0  0
    0.2326   -1.5716    4.5626 H   0  0  0  0  0  0  0  0  0  0  0  0
    1.9666   -1.4607    4.1395 H   0  0  0  0  0  0  0  0  0  0  0  0
    1.2296   -3.0540    4.4711 H   0  0  0  0  0  0  0  0  0  0  0  0
  1 68  1  0  0  0  0
  1 71  1  0  0  0  0
  2  8  1  0  0  0  0
  3 16  1  0  0  0  0
  4 27  1  0  0  0  0
  5 65  1  0  0  0  0
  6 32  1  0  0  0  0
  8  9  1  0  0  0  0
  8 71  2  0  0  0  0
  9 10  1  0  0  0  0
 11 12  1  0  0  0  0
 11  9  2  0  0  0  0
 13 11  1  0  0  0  0
 14 13  1  0  0  0  0
 15 13  2  0  0  0  0
 15  2  1  0  0  0  0
 16 17  1  1  0  0  0
 16 15  1  0  0  0  0
 17 19  1  0  0  0  0
 18 17  1  0  0  0  0
 20 17  1  0  0  0  0
 21  3  1  0  0  0  0
 22 21  1  0  0  0  0
 23 21  1  0  0  0  0
 24 21  1  0  0  0  0
 24 25  1  0  0  0  0
 24  4  1  0  0  0  0
 26 24  1  0  0  0  0
 27 28  1  6  0  0  0
 27 46  1  0  0  0  0
 27 29  1  0  0  0  0
 29  6  1  0  0  0  0
 29 31  1  0  0  0  0
 30 29  1  0  0  0  0
 32 35  1  0  0  0  0
 32 33  1  0  0  0  0
 32 34  1  0  0  0  0
 35 44  1  0  0  0  0
 36 35  2  0  0  0  0
 37 36  1  0  0  0  0
 38 36  1  0  0  0  0
 38 40  2  0  0  0  0
 39 38  1  0  0  0  0
 40 42  1  0  0  0  0
 41 40  1  0  0  0  0
 42 44  2  0  0  0  0
 42 43  1  0  0  0  0
 44 45  1  0  0  0  0
 46 47  1  1  0  0  0
 46  5  1  0  0  0  0
 48  7  1  0  0  0  0
 48 46  1  0  0  0  0
 49 48  1  0  0  0  0
 50 48  1  0  0  0  0
 51 53  1  0  0  0  0
 51  7  1  0  0  0  0
 51 54  1  0  0  0  0
 52 51  1  0  0  0  0
 54 63  2  0  0  0  0
 54 55  1  0  0  0  0
 55 57  2  0  0  0  0
 56 55  1  0  0  0  0
 57 59  1  0  0  0  0
 57 58  1  0  0  0  0
 59 60  1  0  0  0  0
 61 62  1  0  0  0  0
 61 59  2  0  0  0  0
 63 61  1  0  0  0  0
 64 63  1  0  0  0  0
 65 66  1  0  0  0  0
 65 68  1  0  0  0  0
 67 65  1  0  0  0  0
 68 70  1  0  0  0  0
 68 69  1  0  0  0  0
 71 72  1  0  0  0  0
 72 74  1  0  0  0  0
 72 75  1  0  0  0  0
 72 73  1  0  0  0  0
M  END
