3,11,19
 OpenBabel05122313063D

 25 27  0  0  0  0  0  0  0  0999 V2000
   -3.8449   -0.0009   -0.0006 P   0  0  0  0  0  0  0  0  0  0  0  0
   -3.0170    0.0557    1.5474 N   0  0  0  0  0  0  0  0  0  0  0  0
   -1.6581    0.0482    1.7006 N   0  0  0  0  0  2  0  0  0  0  0  0
   -1.4305    0.1008    3.0158 C   0  0  0  0  0  3  0  0  0  0  0  0
   -0.3860    0.0980    3.3587 H   0  0  0  0  0  0  0  0  0  0  0  0
   -2.6525    0.1437    3.7392 C   0  0  0  0  0  0  0  0  0  0  0  0
   -2.7878    0.1900    4.8244 H   0  0  0  0  0  0  0  0  0  0  0  0
   -3.6475    0.1133    2.7759 C   0  0  0  0  0  0  0  0  0  0  0  0
   -4.7410    0.1267    2.8532 H   0  0  0  0  0  0  0  0  0  0  0  0
   -3.0163   -1.3694   -0.7255 N   0  0  0  0  0  0  0  0  0  0  0  0
   -1.6573   -1.4973   -0.8089 N   0  0  0  0  0  2  0  0  0  0  0  0
   -1.4289   -2.6622   -1.4212 C   0  0  0  0  0  3  0  0  0  0  0  0
   -0.3841   -2.9568   -1.5948 H   0  0  0  0  0  0  0  0  0  0  0  0
   -2.6504   -3.3109   -1.7458 C   0  0  0  0  0  0  0  0  0  0  0  0
   -2.7850   -4.2739   -2.2486 H   0  0  0  0  0  0  0  0  0  0  0  0
   -3.6460   -2.4624   -1.2903 C   0  0  0  0  0  0  0  0  0  0  0  0
   -4.7395   -2.5370   -1.3171 H   0  0  0  0  0  0  0  0  0  0  0  0
   -3.0172    1.3117   -0.8232 N   0  0  0  0  0  0  0  0  0  0  0  0
   -1.6583    1.4491   -0.8921 N   0  0  0  0  0  2  0  0  0  0  0  0
   -1.4309    2.5625   -1.5940 C   0  0  0  0  0  3  0  0  0  0  0  0
   -0.3865    2.8616   -1.7620 H   0  0  0  0  0  0  0  0  0  0  0  0
   -2.6529    3.1672   -1.9932 C   0  0  0  0  0  0  0  0  0  0  0  0
   -2.7883    4.0844   -2.5752 H   0  0  0  0  0  0  0  0  0  0  0  0
   -3.6478    2.3472   -1.4868 C   0  0  0  0  0  0  0  0  0  0  0  0
   -4.7413    2.4068   -1.5379 H   0  0  0  0  0  0  0  0  0  0  0  0
  1  2  1  0  0  0  0
  2  3  1  0  0  0  0
  2  8  1  0  0  0  0
  3  4  1  0  0  0  0
  4  5  1  0  0  0  0
  4  6  1  0  0  0  0
  6  7  1  0  0  0  0
  8  9  1  0  0  0  0
  8  6  2  0  0  0  0
 10  1  1  0  0  0  0
 11 10  1  0  0  0  0
 12 11  1  0  0  0  0
 13 12  1  0  0  0  0
 14 12  1  0  0  0  0
 14 16  2  0  0  0  0
 15 14  1  0  0  0  0
 16 10  1  0  0  0  0
 17 16  1  0  0  0  0
 18  1  1  0  0  0  0
 19 18  1  0  0  0  0
 20 19  1  0  0  0  0
 21 20  1  0  0  0  0
 22 20  1  0  0  0  0
 22 24  2  0  0  0  0
 23 22  1  0  0  0  0
 24 18  1  0  0  0  0
 25 24  1  0  0  0  0
M  END
