19,40,61
 OpenBabel05122313063D

 65 70  0  0  1  0  0  0  0  0999 V2000
   -1.7325   -2.8621   -0.9328 C   0  0  1  0  0  3  0  0  0  0  0  0
   -0.4908   -3.4799   -1.1800 C   0  0  0  0  0  0  0  0  0  0  0  0
   -0.3058   -4.4930   -1.5475 H   0  0  0  0  0  0  0  0  0  0  0  0
    0.4646   -2.5212   -0.8062 C   0  0  0  0  0  0  0  0  0  0  0  0
   -3.1182   -3.4052   -1.1284 C   0  0  0  0  0  0  0  0  0  0  0  0
    1.9358   -2.5836   -0.8723 C   0  0  0  0  0  0  0  0  0  0  0  0
    2.5602   -2.9718   -2.0786 C   0  0  0  0  0  0  0  0  0  0  0  0
    1.9377   -3.2472   -2.9431 H   0  0  0  0  0  0  0  0  0  0  0  0
    3.9561   -2.9741   -2.1995 C   0  0  0  0  0  0  0  0  0  0  0  0
    4.4540   -3.2575   -3.1376 H   0  0  0  0  0  0  0  0  0  0  0  0
    4.7293   -2.5836   -1.0994 C   0  0  0  0  0  0  0  0  0  0  0  0
    4.1434   -2.2223    0.1203 C   0  0  0  0  0  0  0  0  0  0  0  0
    4.7846   -1.9285    0.9631 H   0  0  0  0  0  0  0  0  0  0  0  0
    2.7484   -2.2306    0.2296 C   0  0  0  0  0  0  0  0  0  0  0  0
    2.2864   -1.9510    1.1867 H   0  0  0  0  0  0  0  0  0  0  0  0
    0.3037   -0.0004   -0.0002 B   0  0  2  0  0  0  0  0  0  0  0  0
    1.5042   -0.0005   -0.0002 H   0  0  0  0  0  0  0  0  0  0  0  0
   -0.2236   -1.4122   -0.3767 N   0  0  0  0  0  0  0  0  0  0  0  0
   -1.5556   -1.6205   -0.4538 N   0  0  0  0  0  2  0  0  0  0  0  0
   -3.0688   -4.6638   -1.6172 F   0  0  0  0  0  0  0  0  0  0  0  0
   -3.8146   -3.4353    0.0326 F   0  0  0  0  0  0  0  0  0  0  0  0
   -3.8332   -2.6491   -1.9972 F   0  0  0  0  0  0  0  0  0  0  0  0
    6.0681   -2.5391   -1.2233 F   0  0  0  0  0  0  0  0  0  0  0  0
   -1.7323    0.6230    2.9444 C   0  0  1  0  0  3  0  0  0  0  0  0
   -0.4907    0.7177    3.6030 C   0  0  0  0  0  0  0  0  0  0  0  0
   -0.3057    0.9059    4.6642 H   0  0  0  0  0  0  0  0  0  0  0  0
    0.4647    0.5619    2.5859 C   0  0  0  0  0  0  0  0  0  0  0  0
   -3.1180    0.7254    3.5127 C   0  0  0  0  0  0  0  0  0  0  0  0
    1.9359    0.5357    2.6731 C   0  0  0  0  0  0  0  0  0  0  0  0
    2.5602   -0.3145    3.6130 C   0  0  0  0  0  0  0  0  0  0  0  0
    1.9377   -0.9252    4.2839 H   0  0  0  0  0  0  0  0  0  0  0  0
    3.9561   -0.4177    3.6759 C   0  0  0  0  0  0  0  0  0  0  0  0
    4.4540   -1.0879    4.3909 H   0  0  0  0  0  0  0  0  0  0  0  0
    4.7295    0.3398    2.7877 C   0  0  0  0  0  0  0  0  0  0  0  0
    4.1437    1.2149    1.8643 C   0  0  0  0  0  0  0  0  0  0  0  0
    4.7849    1.7976    1.1884 H   0  0  0  0  0  0  0  0  0  0  0  0
    2.7486    1.3133    1.8163 C   0  0  0  0  0  0  0  0  0  0  0  0
    2.2867    2.0022    1.0956 H   0  0  0  0  0  0  0  0  0  0  0  0
   -0.2235    0.3795    1.4107 N   0  0  0  0  0  0  0  0  0  0  0  0
   -1.5556    0.4171    1.6296 N   0  0  0  0  0  2  0  0  0  0  0  0
   -3.0684    0.9299    4.8473 F   0  0  0  0  0  0  0  0  0  0  0  0
   -3.8138    1.7469    2.9593 F   0  0  0  0  0  0  0  0  0  0  0  0
   -3.8337   -0.4045    3.2912 F   0  0  0  0  0  0  0  0  0  0  0  0
    6.0683    0.2108    2.8118 F   0  0  0  0  0  0  0  0  0  0  0  0
   -1.7319    2.2392   -2.0115 C   0  0  1  0  0  3  0  0  0  0  0  0
   -0.4902    2.7622   -2.4225 C   0  0  0  0  0  0  0  0  0  0  0  0
   -0.3050    3.5875   -3.1156 H   0  0  0  0  0  0  0  0  0  0  0  0
    0.4652    1.9587   -1.7797 C   0  0  0  0  0  0  0  0  0  0  0  0
   -3.1175    2.6808   -2.3838 C   0  0  0  0  0  0  0  0  0  0  0  0
    1.9364    2.0470   -1.8008 C   0  0  0  0  0  0  0  0  0  0  0  0
    2.5608    3.2859   -1.5343 C   0  0  0  0  0  0  0  0  0  0  0  0
    1.9385    4.1723   -1.3405 H   0  0  0  0  0  0  0  0  0  0  0  0
    3.9568    3.3917   -1.4761 C   0  0  0  0  0  0  0  0  0  0  0  0
    4.4548    4.3458   -1.2529 H   0  0  0  0  0  0  0  0  0  0  0  0
    4.7299    2.2436   -1.6880 C   0  0  0  0  0  0  0  0  0  0  0  0
    4.1439    1.0066   -1.9845 C   0  0  0  0  0  0  0  0  0  0  0  0
    4.7850    0.1298   -2.1515 H   0  0  0  0  0  0  0  0  0  0  0  0
    2.7488    0.9161   -2.0460 C   0  0  0  0  0  0  0  0  0  0  0  0
    2.2869   -0.0525   -2.2823 H   0  0  0  0  0  0  0  0  0  0  0  0
   -0.2232    1.0318   -1.0347 N   0  0  0  0  0  0  0  0  0  0  0  0
   -1.5553    1.2029   -1.1765 N   0  0  0  0  0  2  0  0  0  0  0  0
   -3.0677    3.7338   -3.2288 F   0  0  0  0  0  0  0  0  0  0  0  0
   -3.8143    1.6909   -2.9908 F   0  0  0  0  0  0  0  0  0  0  0  0
   -3.8322    3.0548   -1.2943 F   0  0  0  0  0  0  0  0  0  0  0  0
    6.0687    2.3287   -1.5881 F   0  0  0  0  0  0  0  0  0  0  0  0
  1  5  1  1  0  0  0
  1 19  1  0  0  0  0
  2  1  1  0  0  0  0
  2  4  2  0  0  0  0
  3  2  1  0  0  0  0
  4 18  1  0  0  0  0
  5 21  1  0  0  0  0
  6  4  1  0  0  0  0
  6 14  1  0  0  0  0
  7  6  2  0  0  0  0
  8  7  1  0  0  0  0
  9  7  1  0  0  0  0
  9 11  2  0  0  0  0
 10  9  1  0  0  0  0
 11 12  1  0  0  0  0
 12 14  2  0  0  0  0
 12 13  1  0  0  0  0
 14 15  1  0  0  0  0
 16 17  1  1  0  0  0
 16 39  1  0  0  0  0
 18 16  1  0  0  0  0
 19 18  1  0  0  0  0
 20  5  1  0  0  0  0
 22  5  1  0  0  0  0
 23 11  1  0  0  0  0
 24 28  1  6  0  0  0
 24 25  1  0  0  0  0
 25 26  1  0  0  0  0
 27 29  1  0  0  0  0
 27 25  2  0  0  0  0
 28 41  1  0  0  0  0
 29 30  1  0  0  0  0
 30 32  2  0  0  0  0
 30 31  1  0  0  0  0
 32 33  1  0  0  0  0
 34 44  1  0  0  0  0
 34 32  1  0  0  0  0
 35 34  2  0  0  0  0
 36 35  1  0  0  0  0
 37 35  1  0  0  0  0
 37 29  2  0  0  0  0
 38 37  1  0  0  0  0
 39 40  1  0  0  0  0
 39 27  1  0  0  0  0
 40 24  1  0  0  0  0
 42 28  1  0  0  0  0
 43 28  1  0  0  0  0
 45 49  1  6  0  0  0
 45 61  1  0  0  0  0
 46 45  1  0  0  0  0
 46 48  2  0  0  0  0
 47 46  1  0  0  0  0
 48 60  1  0  0  0  0
 49 64  1  0  0  0  0
 50 48  1  0  0  0  0
 50 51  1  0  0  0  0
 51 53  2  0  0  0  0
 51 52  1  0  0  0  0
 53 54  1  0  0  0  0
 55 65  1  0  0  0  0
 55 53  1  0  0  0  0
 56 55  2  0  0  0  0
 57 56  1  0  0  0  0
 58 56  1  0  0  0  0
 58 50  2  0  0  0  0
 59 58  1  0  0  0  0
 60 16  1  0  0  0  0
 61 60  1  0  0  0  0
 62 49  1  0  0  0  0
 63 49  1  0  0  0  0
M  END
