1,2,5
 OpenBabel05122313063D

 52 57  0  0  1  0  0  0  0  0999 V2000
    0.1945   -1.1009   -2.1068 N   0  0  0  0  0  0  0  0  0  0  0  0
    2.0754   -0.9356   -0.2847 N   0  0  0  0  0  2  0  0  0  0  0  0
    3.7246   -1.9162   -1.4180 N   0  0  0  0  0  0  0  0  0  0  0  0
    4.2461   -2.3173   -2.1980 H   0  0  0  0  0  0  0  0  0  0  0  0
   -1.3361    0.5583   -0.7423 N   0  0  0  0  0  2  0  0  0  0  0  0
   -2.9342    0.8704   -2.2612 N   0  0  0  0  0  0  0  0  0  0  0  0
   -3.4050    0.8929   -3.1659 H   0  0  0  0  0  0  0  0  0  0  0  0
   -1.0723   -2.3431    0.4974 N   0  0  0  0  0  0  0  0  0  0  0  0
   -2.7598   -2.3532   -0.9949 N   0  0  0  0  0  0  0  0  0  0  0  0
   -3.2492   -2.4791   -1.8809 H   0  0  0  0  0  0  0  0  0  0  0  0
    1.5813   -1.1835   -2.6588 C   0  0  0  0  0  0  0  0  0  0  0  0
    1.8147   -0.1970   -3.1089 H   0  0  0  0  0  0  0  0  0  0  0  0
    1.6797   -1.9812   -3.4271 H   0  0  0  0  0  0  0  0  0  0  0  0
    2.4737   -1.3844   -1.4805 C   0  0  2  0  0  3  0  0  0  0  0  0
    4.1704   -1.8113   -0.1004 C   0  0  0  0  0  0  0  0  0  0  0  0
    5.3688   -2.2011    0.5152 C   0  0  0  0  0  0  0  0  0  0  0  0
    6.1836   -2.6770   -0.0486 H   0  0  0  0  0  0  0  0  0  0  0  0
    5.4728   -1.9552    1.8887 C   0  0  0  0  0  0  0  0  0  0  0  0
    6.3949   -2.2412    2.4154 H   0  0  0  0  0  0  0  0  0  0  0  0
    4.4177   -1.3525    2.6165 C   0  0  0  0  0  0  0  0  0  0  0  0
    4.5419   -1.1819    3.6956 H   0  0  0  0  0  0  0  0  0  0  0  0
    3.2219   -0.9665    2.0039 C   0  0  0  0  0  0  0  0  0  0  0  0
    2.4061   -0.5030    2.5700 H   0  0  0  0  0  0  0  0  0  0  0  0
    3.1060   -1.1933    0.6204 C   0  0  0  0  0  0  0  0  0  0  0  0
   -0.7081   -0.2544   -2.9459 C   0  0  0  0  0  0  0  0  0  0  0  0
   -1.1889   -0.8398   -3.7602 H   0  0  0  0  0  0  0  0  0  0  0  0
   -0.0797    0.5538   -3.3795 H   0  0  0  0  0  0  0  0  0  0  0  0
   -1.6864    0.3811   -2.0174 C   0  0  1  0  0  3  0  0  0  0  0  0
   -3.4333    1.3849   -1.0621 C   0  0  0  0  0  0  0  0  0  0  0  0
   -4.6620    1.9742   -0.7324 C   0  0  0  0  0  0  0  0  0  0  0  0
   -5.4486    2.1398   -1.4825 H   0  0  0  0  0  0  0  0  0  0  0  0
   -4.8397    2.3364    0.6081 C   0  0  0  0  0  0  0  0  0  0  0  0
   -5.7885    2.8002    0.9152 H   0  0  0  0  0  0  0  0  0  0  0  0
   -3.8309    2.1168    1.5780 C   0  0  0  0  0  0  0  0  0  0  0  0
   -4.0207    2.4105    2.6205 H   0  0  0  0  0  0  0  0  0  0  0  0
   -2.6033    1.5351    1.2483 C   0  0  0  0  0  0  0  0  0  0  0  0
   -1.8162    1.3531    1.9899 H   0  0  0  0  0  0  0  0  0  0  0  0
   -2.4077    1.1723   -0.0953 C   0  0  0  0  0  0  0  0  0  0  0  0
   -0.3606   -2.4817   -1.8508 C   0  0  0  0  0  0  0  0  0  0  0  0
   -0.7282   -2.9144   -2.8069 H   0  0  0  0  0  0  0  0  0  0  0  0
    0.4815   -3.0994   -1.4861 H   0  0  0  0  0  0  0  0  0  0  0  0
   -1.3981   -2.4720   -0.7765 C   0  0  0  0  0  0  0  0  0  0  0  0
   -3.3531   -2.1237    0.2397 C   0  0  0  0  0  0  0  0  0  0  0  0
   -4.6807   -1.8958    0.6347 C   0  0  0  0  0  0  0  0  0  0  0  0
   -5.5156   -1.9005   -0.0808 H   0  0  0  0  0  0  0  0  0  0  0  0
   -4.8901   -1.6456    1.9959 C   0  0  0  0  0  0  0  0  0  0  0  0
   -5.9124   -1.4513    2.3521 H   0  0  0  0  0  0  0  0  0  0  0  0
   -3.8207   -1.6338    2.9280 C   0  0  0  0  0  0  0  0  0  0  0  0
   -4.0408   -1.4306    3.9864 H   0  0  0  0  0  0  0  0  0  0  0  0
   -2.5023   -1.8725    2.5326 C   0  0  0  0  0  0  0  0  0  0  0  0
   -1.6663   -1.8585    3.2458 H   0  0  0  0  0  0  0  0  0  0  0  0
   -2.2644   -2.1196    1.1662 C   0  0  0  0  0  0  0  0  0  0  0  0
  1 39  1  0  0  0  0
  2 24  1  0  0  0  0
  3 15  1  0  0  0  0
  4  3  1  0  0  0  0
  5 38  1  0  0  0  0
  6 28  1  0  0  0  0
  6 29  1  0  0  0  0
  7  6  1  0  0  0  0
  8 52  1  0  0  0  0
  9 42  1  0  0  0  0
  9 43  1  0  0  0  0
 10  9  1  0  0  0  0
 11  1  1  0  0  0  0
 12 11  1  0  0  0  0
 13 11  1  0  0  0  0
 14 11  1  6  0  0  0
 14  3  1  0  0  0  0
 14  2  1  0  0  0  0
 15 16  2  0  0  0  0
 15 24  1  0  0  0  0
 16 18  1  0  0  0  0
 17 16  1  0  0  0  0
 18 19  1  0  0  0  0
 18 20  2  0  0  0  0
 20 21  1  0  0  0  0
 22 23  1  0  0  0  0
 22 20  1  0  0  0  0
 24 22  2  0  0  0  0
 25  1  1  0  0  0  0
 26 25  1  0  0  0  0
 27 25  1  0  0  0  0
 28 25  1  6  0  0  0
 28  5  1  0  0  0  0
 29 30  2  0  0  0  0
 29 38  1  0  0  0  0
 30 32  1  0  0  0  0
 31 30  1  0  0  0  0
 32 33  1  0  0  0  0
 32 34  2  0  0  0  0
 34 35  1  0  0  0  0
 36 34  1  0  0  0  0
 36 37  1  0  0  0  0
 38 36  2  0  0  0  0
 39 41  1  0  0  0  0
 39 42  1  0  0  0  0
 40 39  1  0  0  0  0
 42  8  2  0  0  0  0
 43 44  2  0  0  0  0
 43 52  1  0  0  0  0
 44 46  1  0  0  0  0
 45 44  1  0  0  0  0
 46 47  1  0  0  0  0
 46 48  2  0  0  0  0
 48 49  1  0  0  0  0
 50 48  1  0  0  0  0
 50 51  1  0  0  0  0
 52 50  2  0  0  0  0
M  END
