1,2,3
 OpenBabel05122313063D

 44 46  0  0  1  0  0  0  0  0999 V2000
   -0.4588    2.3256   -0.2312 N   0  0  0  0  0  2  0  0  0  0  0  0
    0.8554   -0.0558    0.2249 N   0  0  0  0  0  0  0  0  0  0  0  0
   -1.3090   -1.7044    0.4343 N   0  0  0  0  0  2  0  0  0  0  0  0
   -1.1169    3.3728   -0.7540 C   0  0  0  0  0  3  0  0  0  0  0  0
   -2.1757    3.1921   -1.0042 H   0  0  0  0  0  0  0  0  0  0  0  0
   -0.4862    4.6025   -0.9801 C   0  0  0  0  0  0  0  0  0  0  0  0
   -1.0506    5.4435   -1.4072 H   0  0  0  0  0  0  0  0  0  0  0  0
    0.8736    4.7236   -0.6543 C   0  0  0  0  0  0  0  0  0  0  0  0
    1.4046    5.6733   -0.8200 H   0  0  0  0  0  0  0  0  0  0  0  0
    1.5538    3.6177   -0.1262 C   0  0  0  0  0  0  0  0  0  0  0  0
    2.6231    3.6733    0.1268 H   0  0  0  0  0  0  0  0  0  0  0  0
    0.8476    2.4207    0.0762 C   0  0  0  0  0  0  0  0  0  0  0  0
    1.4877    1.1887    0.6815 C   0  0  0  0  0  0  0  0  0  0  0  0
    2.5860    1.2019    0.5054 H   0  0  0  0  0  0  0  0  0  0  0  0
    1.3520    1.2523    1.7862 H   0  0  0  0  0  0  0  0  0  0  0  0
    0.9146   -1.1257    1.2327 C   0  0  0  0  0  0  0  0  0  0  0  0
    0.7569   -0.6707    2.2363 H   0  0  0  0  0  0  0  0  0  0  0  0
    1.9096   -1.6238    1.2690 H   0  0  0  0  0  0  0  0  0  0  0  0
   -0.1661   -2.1578    0.9890 C   0  0  1  0  0  3  0  0  0  0  0  0
   -0.0092   -3.5109    1.3278 C   0  0  0  0  0  0  0  0  0  0  0  0
    0.9361   -3.8575    1.7714 H   0  0  0  0  0  0  0  0  0  0  0  0
   -1.0697   -4.3966    1.0895 C   0  0  0  0  0  0  0  0  0  0  0  0
   -0.9724   -5.4613    1.3505 H   0  0  0  0  0  0  0  0  0  0  0  0
   -2.2467   -3.9119    0.5013 C   0  0  0  0  0  0  0  0  0  0  0  0
   -3.0952   -4.5751    0.2819 H   0  0  0  0  0  0  0  0  0  0  0  0
   -2.3248   -2.5494    0.1837 C   0  0  0  0  0  0  0  0  0  0  0  0
   -3.2163   -2.1182   -0.3017 H   0  0  0  0  0  0  0  0  0  0  0  0
    1.2840   -0.5546   -1.1364 C   0  0  2  0  0  0  0  0  0  0  0  0
    0.7278   -1.5072   -1.2523 H   0  0  0  0  0  0  0  0  0  0  0  0
    2.7666   -0.8991   -1.1858 C   0  0  0  0  0  0  0  0  0  0  0  0
    3.7535    0.0732   -1.4563 C   0  0  0  0  0  0  0  0  0  0  0  0
    3.4562    1.1040   -1.7020 H   0  0  0  0  0  0  0  0  0  0  0  0
    5.1163   -0.2608   -1.4424 C   0  0  0  0  0  0  0  0  0  0  0  0
    5.8698    0.5121   -1.6575 H   0  0  0  0  0  0  0  0  0  0  0  0
    5.5191   -1.5768   -1.1671 C   0  0  0  0  0  0  0  0  0  0  0  0
    6.5879   -1.8385   -1.1597 H   0  0  0  0  0  0  0  0  0  0  0  0
    4.5494   -2.5596   -0.9166 C   0  0  0  0  0  0  0  0  0  0  0  0
    4.8540   -3.5985   -0.7184 H   0  0  0  0  0  0  0  0  0  0  0  0
    3.1879   -2.2209   -0.9281 C   0  0  0  0  0  0  0  0  0  0  0  0
    2.4293   -3.0007   -0.7509 H   0  0  0  0  0  0  0  0  0  0  0  0
    0.8304    0.3526   -2.2806 C   0  0  0  0  0  0  0  0  0  0  0  0
    1.3144    1.3480   -2.2667 H   0  0  0  0  0  0  0  0  0  0  0  0
   -0.2669    0.5028   -2.2561 H   0  0  0  0  0  0  0  0  0  0  0  0
    1.0938   -0.1299   -3.2418 H   0  0  0  0  0  0  0  0  0  0  0  0
  1 12  1  0  0  0  0
  2 13  1  0  0  0  0
  2 16  1  0  0  0  0
  3 19  1  0  0  0  0
  4  1  1  0  0  0  0
  5  4  1  0  0  0  0
  6  4  1  0  0  0  0
  6  8  2  0  0  0  0
  7  6  1  0  0  0  0
  8 10  1  0  0  0  0
  9  8  1  0  0  0  0
 10 12  2  0  0  0  0
 10 11  1  0  0  0  0
 12 13  1  0  0  0  0
 13 15  1  0  0  0  0
 14 13  1  0  0  0  0
 16 18  1  0  0  0  0
 16 17  1  0  0  0  0
 19 16  1  1  0  0  0
 19 20  1  0  0  0  0
 20 21  1  0  0  0  0
 22 20  2  0  0  0  0
 22 23  1  0  0  0  0
 24 22  1  0  0  0  0
 25 24  1  0  0  0  0
 26  3  1  0  0  0  0
 26 24  2  0  0  0  0
 27 26  1  0  0  0  0
 28 29  1  6  0  0  0
 28  2  1  0  0  0  0
 30 28  1  0  0  0  0
 30 39  1  0  0  0  0
 31 33  1  0  0  0  0
 31 30  2  0  0  0  0
 32 31  1  0  0  0  0
 33 35  2  0  0  0  0
 34 33  1  0  0  0  0
 35 36  1  0  0  0  0
 35 37  1  0  0  0  0
 37 38  1  0  0  0  0
 39 37  2  0  0  0  0
 39 40  1  0  0  0  0
 41 42  1  0  0  0  0
 41 43  1  0  0  0  0
 41 28  1  0  0  0  0
 44 41  1  0  0  0  0
M  END
