1,3,4
 OpenBabel05122313063D

 46 48  0  0  1  0  0  0  0  0999 V2000
   -2.0768    0.4116    0.0243 N   0  0  0  0  0  2  0  0  0  0  0  0
    1.0037    1.2313   -1.1056 N   0  0  0  0  0  0  0  0  0  0  0  0
    1.3481   -1.1235    0.6252 N   0  0  0  0  0  2  0  0  0  0  0  0
   -0.0205    0.9368    1.5695 N   0  0  0  0  0  0  0  0  0  0  0  0
   -2.4903   -0.0802   -2.3661 C   0  0  0  0  0  0  0  0  0  0  0  0
   -2.9321    0.4444   -1.0348 C   0  0  2  0  0  3  0  0  0  0  0  0
   -4.2120    1.0138   -0.8694 C   0  0  0  0  0  0  0  0  0  0  0  0
   -4.5923    1.5781    0.3499 C   0  0  0  0  0  0  0  0  0  0  0  0
   -3.6666    1.6002    1.4046 C   0  0  0  0  0  0  0  0  0  0  0  0
   -2.4230    1.0031    1.2043 C   0  0  0  0  0  0  0  0  0  0  0  0
   -1.3469    0.9377    2.2538 C   0  0  0  0  0  0  0  0  0  0  0  0
    1.4229    0.0237   -3.1808 C   0  0  0  0  0  0  0  0  0  0  0  0
    1.8516    1.0103   -2.1309 C   0  0  0  0  0  0  0  0  0  0  0  0
    3.0824    1.7012   -2.2125 C   0  0  0  0  0  0  0  0  0  0  0  0
    3.4186    2.6305   -1.2240 C   0  0  0  0  0  0  0  0  0  0  0  0
    2.5268    2.8488   -0.1597 C   0  0  0  0  0  0  0  0  0  0  0  0
    1.3323    2.1190   -0.1448 C   0  0  0  0  0  0  0  0  0  0  0  0
    0.3006    2.2595    0.9538 C   0  0  0  0  0  0  0  0  0  0  0  0
    1.9991   -2.0764   -0.0789 C   0  0  0  0  0  3  0  0  0  0  0  0
    3.3146   -2.4387    0.2246 C   0  0  0  0  0  0  0  0  0  0  0  0
    3.9773   -1.7889    1.2762 C   0  0  0  0  0  0  0  0  0  0  0  0
    3.2927   -0.8061    2.0076 C   0  0  0  0  0  0  0  0  0  0  0  0
    1.9724   -0.5024    1.6641 C   0  0  0  0  0  0  0  0  0  0  0  0
    1.0856    0.4358    2.4370 C   0  0  0  0  0  0  0  0  0  0  0  0
   -2.5086   -1.1873   -2.4008 H   0  0  0  0  0  0  0  0  0  0  0  0
   -3.1477    0.3078   -3.1652 H   0  0  0  0  0  0  0  0  0  0  0  0
   -1.4452    0.2227   -2.5649 H   0  0  0  0  0  0  0  0  0  0  0  0
   -4.8993    1.0170   -1.7271 H   0  0  0  0  0  0  0  0  0  0  0  0
   -5.5911    2.0217    0.4731 H   0  0  0  0  0  0  0  0  0  0  0  0
   -3.9040    2.0720    2.3685 H   0  0  0  0  0  0  0  0  0  0  0  0
   -1.4355   -0.0212    2.8051 H   0  0  0  0  0  0  0  0  0  0  0  0
   -1.4338    1.7688    2.9882 H   0  0  0  0  0  0  0  0  0  0  0  0
    2.2876   -0.4083   -3.7184 H   0  0  0  0  0  0  0  0  0  0  0  0
    0.8183   -0.7885   -2.7337 H   0  0  0  0  0  0  0  0  0  0  0  0
    0.7835    0.5273   -3.9374 H   0  0  0  0  0  0  0  0  0  0  0  0
    3.7640    1.5044   -3.0530 H   0  0  0  0  0  0  0  0  0  0  0  0
    4.3714    3.1783   -1.2738 H   0  0  0  0  0  0  0  0  0  0  0  0
    2.7578    3.5691    0.6390 H   0  0  0  0  0  0  0  0  0  0  0  0
    0.6331    2.9703    1.7399 H   0  0  0  0  0  0  0  0  0  0  0  0
   -0.6388    2.6515    0.5147 H   0  0  0  0  0  0  0  0  0  0  0  0
    1.4185   -2.5397   -0.8910 H   0  0  0  0  0  0  0  0  0  0  0  0
    3.8095   -3.2218   -0.3667 H   0  0  0  0  0  0  0  0  0  0  0  0
    5.0163   -2.0462    1.5290 H   0  0  0  0  0  0  0  0  0  0  0  0
    3.7747   -0.2831    2.8462 H   0  0  0  0  0  0  0  0  0  0  0  0
    0.6309   -0.1307    3.2766 H   0  0  0  0  0  0  0  0  0  0  0  0
    1.6571    1.2756    2.8841 H   0  0  0  0  0  0  0  0  0  0  0  0
  1 10  1  0  0  0  0
  2 17  1  0  0  0  0
  3 23  1  0  0  0  0
  4 11  1  0  0  0  0
  4 24  1  0  0  0  0
  6  5  1  6  0  0  0
  6  7  1  0  0  0  0
  6  1  1  0  0  0  0
  7  8  2  0  0  0  0
  8 29  1  0  0  0  0
  8  9  1  0  0  0  0
  9 30  1  0  0  0  0
 10  9  2  0  0  0  0
 10 11  1  0  0  0  0
 11 31  1  0  0  0  0
 11 32  1  0  0  0  0
 12 34  1  0  0  0  0
 12 13  1  0  0  0  0
 13  2  2  0  0  0  0
 14 13  1  0  0  0  0
 14 15  2  0  0  0  0
 15 16  1  0  0  0  0
 16 17  2  0  0  0  0
 16 38  1  0  0  0  0
 17 18  1  0  0  0  0
 18  4  1  0  0  0  0
 18 39  1  0  0  0  0
 19 20  1  0  0  0  0
 19  3  1  0  0  0  0
 20 21  2  0  0  0  0
 21 43  1  0  0  0  0
 21 22  1  0  0  0  0
 22 44  1  0  0  0  0
 23 22  2  0  0  0  0
 23 24  1  0  0  0  0
 24 46  1  0  0  0  0
 24 45  1  0  0  0  0
 25  5  1  0  0  0  0
 26  5  1  0  0  0  0
 27  5  1  0  0  0  0
 28  7  1  0  0  0  0
 33 12  1  0  0  0  0
 35 12  1  0  0  0  0
 36 14  1  0  0  0  0
 37 15  1  0  0  0  0
 40 18  1  0  0  0  0
 41 19  1  0  0  0  0
 42 20  1  0  0  0  0
M  END
