1,2,4
 OpenBabel05122313063D

 61 64  0  0  1  0  0  0  0  0999 V2000
    0.0005    1.1591    0.0001 N   0  0  0  0  0  2  0  0  0  0  0  0
   -1.9641   -0.7221    0.5535 N   0  0  0  0  0  2  0  0  0  0  0  0
   -2.7429    0.2843    0.0471 N   0  0  0  0  0  0  0  0  0  0  0  0
    1.9633   -0.7234   -0.5534 N   0  0  0  0  0  2  0  0  0  0  0  0
    2.7433    0.2817   -0.0463 N   0  0  0  0  0  0  0  0  0  0  0  0
   -0.9643    1.8184   -0.7316 C   0  0  0  0  0  0  0  0  0  0  0  0
   -2.2872    1.2960   -0.8441 C   0  0  0  0  0  0  0  0  0  0  0  0
   -3.2159    1.8545   -1.7425 C   0  0  0  0  0  0  0  0  0  0  0  0
   -4.2040    1.3807   -1.8456 H   0  0  0  0  0  0  0  0  0  0  0  0
   -2.9161    2.9973   -2.4986 C   0  0  0  0  0  0  0  0  0  0  0  0
   -1.6344    3.5702   -2.3262 C   0  0  0  0  0  0  0  0  0  0  0  0
   -1.3644    4.4717   -2.8995 H   0  0  0  0  0  0  0  0  0  0  0  0
   -0.6874    2.9953   -1.4808 C   0  0  0  0  0  0  0  0  0  0  0  0
    0.3193    3.4305   -1.3979 H   0  0  0  0  0  0  0  0  0  0  0  0
   -3.9076    3.5824   -3.4721 C   0  0  0  0  0  0  0  0  0  0  0  0
   -4.8944    3.0846   -3.4000 H   0  0  0  0  0  0  0  0  0  0  0  0
   -3.5582    3.4781   -4.5217 H   0  0  0  0  0  0  0  0  0  0  0  0
   -4.0617    4.6672   -3.2939 H   0  0  0  0  0  0  0  0  0  0  0  0
   -2.2098   -2.5411    2.2840 C   0  0  0  0  0  0  0  0  0  0  0  0
   -1.1135   -2.5758    2.1225 H   0  0  0  0  0  0  0  0  0  0  0  0
   -2.7248   -1.3979    1.4506 C   0  0  1  0  0  3  0  0  0  0  0  0
   -4.0194   -0.8244    1.4943 C   0  0  0  0  0  0  0  0  0  0  0  0
   -4.8572   -1.1342    2.1261 H   0  0  0  0  0  0  0  0  0  0  0  0
   -3.9915    0.2405    0.6072 C   0  0  0  0  0  0  0  0  0  0  0  0
   -4.7341    1.0061    0.3667 H   0  0  0  0  0  0  0  0  0  0  0  0
   -2.8182   -3.8814    1.8377 C   0  0  0  0  0  0  0  0  0  0  0  0
   -3.9196   -3.8832    1.9765 H   0  0  0  0  0  0  0  0  0  0  0  0
   -2.3985   -4.7158    2.4353 H   0  0  0  0  0  0  0  0  0  0  0  0
   -2.6047   -4.0873    0.7714 H   0  0  0  0  0  0  0  0  0  0  0  0
   -2.4547   -2.2793    3.7798 C   0  0  0  0  0  0  0  0  0  0  0  0
   -1.9962   -1.3234    4.1021 H   0  0  0  0  0  0  0  0  0  0  0  0
   -2.0175   -3.0955    4.3898 H   0  0  0  0  0  0  0  0  0  0  0  0
   -3.5390   -2.2339    4.0131 H   0  0  0  0  0  0  0  0  0  0  0  0
    2.2069   -2.5413   -2.2853 C   0  0  0  0  0  0  0  0  0  0  0  0
    1.1108   -2.5761   -2.1221 H   0  0  0  0  0  0  0  0  0  0  0  0
    2.7235   -1.4000   -1.4504 C   0  0  1  0  0  3  0  0  0  0  0  0
    4.0190   -0.8284   -1.4931 C   0  0  0  0  0  0  0  0  0  0  0  0
    4.8566   -1.1391   -2.1247 H   0  0  0  0  0  0  0  0  0  0  0  0
    3.9922    0.2363   -0.6057 C   0  0  0  0  0  0  0  0  0  0  0  0
    4.7357    1.0007   -0.3646 H   0  0  0  0  0  0  0  0  0  0  0  0
    2.8157   -3.8827   -1.8431 C   0  0  0  0  0  0  0  0  0  0  0  0
    3.9170   -3.8844   -1.9831 H   0  0  0  0  0  0  0  0  0  0  0  0
    2.3952   -4.7156   -2.4423 H   0  0  0  0  0  0  0  0  0  0  0  0
    2.6034   -4.0913   -0.7771 H   0  0  0  0  0  0  0  0  0  0  0  0
    2.4493   -2.2760   -3.7809 C   0  0  0  0  0  0  0  0  0  0  0  0
    1.9902   -1.3194   -4.1002 H   0  0  0  0  0  0  0  0  0  0  0  0
    2.0111   -3.0908   -4.3921 H   0  0  0  0  0  0  0  0  0  0  0  0
    3.5332   -2.2300   -4.0159 H   0  0  0  0  0  0  0  0  0  0  0  0
    0.9659    1.8176    0.7318 C   0  0  0  0  0  0  0  0  0  0  0  0
    2.2883    1.2940    0.8447 C   0  0  0  0  0  0  0  0  0  0  0  0
    3.2173    1.8518    1.7432 C   0  0  0  0  0  0  0  0  0  0  0  0
    4.2050    1.3771    1.8467 H   0  0  0  0  0  0  0  0  0  0  0  0
    2.9185    2.9950    2.4990 C   0  0  0  0  0  0  0  0  0  0  0  0
    1.6374    3.5692    2.3262 C   0  0  0  0  0  0  0  0  0  0  0  0
    1.3682    4.4711    2.8991 H   0  0  0  0  0  0  0  0  0  0  0  0
    0.6900    2.9950    1.4807 C   0  0  0  0  0  0  0  0  0  0  0  0
   -0.3162    3.4312    1.3974 H   0  0  0  0  0  0  0  0  0  0  0  0
    3.9103    3.5793    3.4727 C   0  0  0  0  0  0  0  0  0  0  0  0
    3.5612    3.4738    4.5224 H   0  0  0  0  0  0  0  0  0  0  0  0
    4.0642    4.6642    3.2955 H   0  0  0  0  0  0  0  0  0  0  0  0
    4.8970    3.0816    3.3999 H   0  0  0  0  0  0  0  0  0  0  0  0
  1 49  1  0  0  0  0
  2 21  1  0  0  0  0
  3  2  1  0  0  0  0
  3 24  1  0  0  0  0
  4  5  1  0  0  0  0
  5 50  1  0  0  0  0
  6  1  1  0  0  0  0
  7  6  1  0  0  0  0
  7  3  1  0  0  0  0
  8  7  2  0  0  0  0
  9  8  1  0  0  0  0
 10 11  2  0  0  0  0
 10  8  1  0  0  0  0
 11 13  1  0  0  0  0
 12 11  1  0  0  0  0
 13 14  1  0  0  0  0
 13  6  2  0  0  0  0
 15 16  1  0  0  0  0
 15 18  1  0  0  0  0
 15 10  1  0  0  0  0
 17 15  1  0  0  0  0
 19 30  1  0  0  0  0
 20 19  1  0  0  0  0
 21 22  1  0  0  0  0
 21 19  1  1  0  0  0
 22 23  1  0  0  0  0
 24 22  2  0  0  0  0
 25 24  1  0  0  0  0
 26 27  1  0  0  0  0
 26 19  1  0  0  0  0
 26 28  1  0  0  0  0
 29 26  1  0  0  0  0
 30 33  1  0  0  0  0
 30 31  1  0  0  0  0
 30 32  1  0  0  0  0
 34 35  1  0  0  0  0
 34 41  1  0  0  0  0
 36 34  1  6  0  0  0
 36  4  1  0  0  0  0
 37 36  1  0  0  0  0
 37 39  2  0  0  0  0
 38 37  1  0  0  0  0
 39 40  1  0  0  0  0
 39  5  1  0  0  0  0
 41 44  1  0  0  0  0
 42 41  1  0  0  0  0
 43 41  1  0  0  0  0
 45 34  1  0  0  0  0
 46 45  1  0  0  0  0
 47 45  1  0  0  0  0
 48 45  1  0  0  0  0
 49 50  2  0  0  0  0
 49 56  1  0  0  0  0
 50 51  1  0  0  0  0
 51 52  1  0  0  0  0
 51 53  2  0  0  0  0
 53 58  1  0  0  0  0
 54 53  1  0  0  0  0
 54 55  1  0  0  0  0
 56 54  2  0  0  0  0
 57 56  1  0  0  0  0
 58 59  1  0  0  0  0
 60 58  1  0  0  0  0
 61 58  1  0  0  0  0
M  END
