1,2,3
 OpenBabel05122313063D

 46 48  0  0  0  0  0  0  0  0999 V2000
   -2.0225   -1.4691    0.1565 N   0  0  0  0  0  0  0  0  0  0  0  0
   -0.7676    0.8240    0.0231 N   0  0  0  0  0  2  0  0  0  0  0  0
    1.6874   -0.1122   -0.0356 N   0  0  0  0  0  0  0  0  0  0  0  0
   -2.2513   -2.1204    1.4742 C   0  0  0  0  0  0  0  0  0  0  0  0
   -2.0436   -1.3866    2.2743 H   0  0  0  0  0  0  0  0  0  0  0  0
   -1.5586   -2.9771    1.5657 H   0  0  0  0  0  0  0  0  0  0  0  0
   -3.3049   -2.4641    1.5612 H   0  0  0  0  0  0  0  0  0  0  0  0
   -2.3098   -2.4143   -0.9584 C   0  0  0  0  0  0  0  0  0  0  0  0
   -3.3637   -2.7617   -0.9106 H   0  0  0  0  0  0  0  0  0  0  0  0
   -1.6166   -3.2707   -0.8823 H   0  0  0  0  0  0  0  0  0  0  0  0
   -2.1467   -1.8904   -1.9180 H   0  0  0  0  0  0  0  0  0  0  0  0
   -2.8552   -0.2599    0.0128 C   0  0  0  0  0  0  0  0  0  0  0  0
   -4.2495   -0.3122   -0.0446 C   0  0  0  0  0  0  0  0  0  0  0  0
   -4.7720   -1.2738    0.0697 H   0  0  0  0  0  0  0  0  0  0  0  0
   -4.9863    0.8628   -0.2682 C   0  0  0  0  0  0  0  0  0  0  0  0
   -6.0840    0.8292   -0.3140 H   0  0  0  0  0  0  0  0  0  0  0  0
   -4.2925    2.0680   -0.4634 C   0  0  0  0  0  0  0  0  0  0  0  0
   -4.8507    2.9905   -0.6862 H   0  0  0  0  0  0  0  0  0  0  0  0
   -2.8953    2.1282   -0.3911 C   0  0  0  0  0  0  0  0  0  0  0  0
   -2.3947    3.0794   -0.5979 H   0  0  0  0  0  0  0  0  0  0  0  0
   -2.1351    0.9585   -0.1072 C   0  0  0  0  0  0  0  0  0  0  0  0
    0.1877    1.8134    0.1271 C   0  0  0  0  0  0  0  0  0  0  0  0
   -0.0232    3.2013    0.3545 C   0  0  0  0  0  0  0  0  0  0  0  0
   -1.0327    3.5813    0.5396 H   0  0  0  0  0  0  0  0  0  0  0  0
    1.0565    4.0899    0.4007 C   0  0  0  0  0  0  0  0  0  0  0  0
    0.8605    5.1582    0.5809 H   0  0  0  0  0  0  0  0  0  0  0  0
    2.3718    3.6360    0.2299 C   0  0  0  0  0  0  0  0  0  0  0  0
    3.2191    4.3360    0.2490 H   0  0  0  0  0  0  0  0  0  0  0  0
    2.6028    2.2594    0.0647 C   0  0  0  0  0  0  0  0  0  0  0  0
    3.6343    1.9056   -0.0300 H   0  0  0  0  0  0  0  0  0  0  0  0
    1.5342    1.3537    0.0388 C   0  0  0  0  0  0  0  0  0  0  0  0
    2.5026   -0.6530    1.1163 C   0  0  0  0  0  0  0  0  0  0  0  0
    2.2283   -1.7220    1.1990 H   0  0  0  0  0  0  0  0  0  0  0  0
    2.1450   -0.1322    2.0251 H   0  0  0  0  0  0  0  0  0  0  0  0
    4.0230   -0.5486    0.9576 C   0  0  0  0  0  0  0  0  0  0  0  0
    4.4768   -1.1270    1.7894 H   0  0  0  0  0  0  0  0  0  0  0  0
    4.3770    0.4942    1.0881 H   0  0  0  0  0  0  0  0  0  0  0  0
    4.4807   -1.1083   -0.3950 C   0  0  0  0  0  0  0  0  0  0  0  0
    5.5772   -0.9907   -0.5158 H   0  0  0  0  0  0  0  0  0  0  0  0
    4.2700   -2.2002   -0.4243 H   0  0  0  0  0  0  0  0  0  0  0  0
    3.7297   -0.4295   -1.5470 C   0  0  0  0  0  0  0  0  0  0  0  0
    3.9982   -0.8966   -2.5175 H   0  0  0  0  0  0  0  0  0  0  0  0
    4.0178    0.6389   -1.6317 H   0  0  0  0  0  0  0  0  0  0  0  0
    2.2176   -0.5796   -1.3681 C   0  0  0  0  0  0  0  0  0  0  0  0
    1.6499   -0.0308   -2.1439 H   0  0  0  0  0  0  0  0  0  0  0  0
    1.9515   -1.6532   -1.4351 H   0  0  0  0  0  0  0  0  0  0  0  0
  1  4  1  0  0  0  0
  2 22  1  0  0  0  0
  3 31  1  0  0  0  0
  3 32  1  0  0  0  0
  4  7  1  0  0  0  0
  4  6  1  0  0  0  0
  4  5  1  0  0  0  0
  8  9  1  0  0  0  0
  8 10  1  0  0  0  0
  8  1  1  0  0  0  0
 11  8  1  0  0  0  0
 12  1  1  0  0  0  0
 13 12  1  0  0  0  0
 13 14  1  0  0  0  0
 15 13  2  0  0  0  0
 16 15  1  0  0  0  0
 17 19  2  0  0  0  0
 17 15  1  0  0  0  0
 18 17  1  0  0  0  0
 19 21  1  0  0  0  0
 20 19  1  0  0  0  0
 21 12  2  0  0  0  0
 21  2  1  0  0  0  0
 22 23  1  0  0  0  0
 23 25  2  0  0  0  0
 23 24  1  0  0  0  0
 25 26  1  0  0  0  0
 27 28  1  0  0  0  0
 27 25  1  0  0  0  0
 29 27  2  0  0  0  0
 30 29  1  0  0  0  0
 31 29  1  0  0  0  0
 31 22  2  0  0  0  0
 32 33  1  0  0  0  0
 32 34  1  0  0  0  0
 35 37  1  0  0  0  0
 35 32  1  0  0  0  0
 35 36  1  0  0  0  0
 38 35  1  0  0  0  0
 39 38  1  0  0  0  0
 40 38  1  0  0  0  0
 41 44  1  0  0  0  0
 41 38  1  0  0  0  0
 42 41  1  0  0  0  0
 43 41  1  0  0  0  0
 44  3  1  0  0  0  0
 45 44  1  0  0  0  0
 46 44  1  0  0  0  0
M  END
