1,13,36
 OpenBabel05122313063D

 36 39  0  0  0  0  0  0  0  0999 V2000
    1.0299   -0.6667   -1.7616 N   0  0  0  0  0  2  0  0  0  0  0  0
    2.1362    0.0006   -2.1661 C   0  0  0  0  0  3  0  0  0  0  0  0
    2.4557    0.8331   -1.5260 H   0  0  0  0  0  0  0  0  0  0  0  0
    2.8414   -0.3389   -3.3238 C   0  0  0  0  0  0  0  0  0  0  0  0
    3.7355    0.2416   -3.5903 H   0  0  0  0  0  0  0  0  0  0  0  0
    2.3945   -1.4044   -4.1255 C   0  0  0  0  0  0  0  0  0  0  0  0
    2.9368   -1.6909   -5.0379 H   0  0  0  0  0  0  0  0  0  0  0  0
    1.2331   -2.0790   -3.7425 C   0  0  0  0  0  0  0  0  0  0  0  0
    0.8227   -2.9035   -4.3433 H   0  0  0  0  0  0  0  0  0  0  0  0
    0.5626   -1.6925   -2.5667 C   0  0  0  0  0  0  0  0  0  0  0  0
   -0.6955   -2.2420   -2.1291 C   0  0  0  0  0  3  0  0  0  0  0  0
   -1.2915   -2.9238   -2.7594 H   0  0  0  0  0  0  0  0  0  0  0  0
   -1.1649   -1.7585   -0.9992 N   0  0  0  0  0  2  0  0  0  0  0  0
   -2.5220   -1.9139   -0.6274 C   0  0  0  0  0  0  0  0  0  0  0  0
   -3.0938   -3.1698   -0.3670 C   0  0  0  0  0  0  0  0  0  0  0  0
   -2.4570   -4.0662   -0.4093 H   0  0  0  0  0  0  0  0  0  0  0  0
   -4.4542   -3.2604   -0.0400 C   0  0  0  0  0  0  0  0  0  0  0  0
   -4.8989   -4.2407    0.1870 H   0  0  0  0  0  0  0  0  0  0  0  0
   -5.2426   -2.0954   -0.0100 C   0  0  0  0  0  0  0  0  0  0  0  0
   -6.3140   -2.1645    0.2315 H   0  0  0  0  0  0  0  0  0  0  0  0
   -4.6731   -0.8470   -0.2831 C   0  0  0  0  0  0  0  0  0  0  0  0
   -5.2728    0.0749   -0.2880 H   0  0  0  0  0  0  0  0  0  0  0  0
   -3.2964   -0.7179   -0.5726 C   0  0  0  0  0  0  0  0  0  0  0  0
   -2.7294    0.5958   -0.9002 C   0  0  0  0  0  0  0  0  0  0  0  0
   -3.4926    1.6038   -1.3514 N   0  0  0  0  0  0  0  0  0  0  0  0
   -2.5942    2.6030   -1.6380 C   0  0  0  0  0  3  0  0  0  0  0  0
   -2.8108    3.8936   -2.1722 C   0  0  0  0  0  0  0  0  0  0  0  0
   -3.8328    4.2293   -2.4024 H   0  0  0  0  0  0  0  0  0  0  0  0
   -1.6982    4.7060   -2.4005 C   0  0  0  0  0  0  0  0  0  0  0  0
   -1.8375    5.7155   -2.8170 H   0  0  0  0  0  0  0  0  0  0  0  0
   -0.3817    4.2553   -2.1105 C   0  0  0  0  0  0  0  0  0  0  0  0
    0.4698    4.9248   -2.3063 H   0  0  0  0  0  0  0  0  0  0  0  0
   -0.1416    2.9881   -1.5737 C   0  0  0  0  0  0  0  0  0  0  0  0
    0.8764    2.6558   -1.3330 H   0  0  0  0  0  0  0  0  0  0  0  0
   -1.2579    2.1613   -1.3314 C   0  0  0  0  0  0  0  0  0  0  0  0
   -1.3702    0.8835   -0.8208 N   0  0  0  0  0  0  0  0  0  0  0  0
  2  1  1  0  0  0  0
  2  3  1  0  0  0  0
  4  2  1  0  0  0  0
  5  4  1  0  0  0  0
  6  8  1  0  0  0  0
  6  4  2  0  0  0  0
  7  6  1  0  0  0  0
  8 10  2  0  0  0  0
  9  8  1  0  0  0  0
 10 11  1  0  0  0  0
 10  1  1  0  0  0  0
 11 13  1  0  0  0  0
 12 11  1  0  0  0  0
 13 14  1  0  0  0  0
 14 23  2  0  0  0  0
 14 15  1  0  0  0  0
 15 17  2  0  0  0  0
 16 15  1  0  0  0  0
 17 19  1  0  0  0  0
 17 18  1  0  0  0  0
 19 20  1  0  0  0  0
 21 19  2  0  0  0  0
 22 21  1  0  0  0  0
 23 21  1  0  0  0  0
 24 36  1  0  0  0  0
 24 23  1  0  0  0  0
 25 24  2  0  0  0  0
 26 25  1  0  0  0  0
 26 35  1  0  0  0  0
 27 26  1  0  0  0  0
 28 27  1  0  0  0  0
 29 27  2  0  0  0  0
 29 31  1  0  0  0  0
 30 29  1  0  0  0  0
 31 33  2  0  0  0  0
 32 31  1  0  0  0  0
 33 34  1  0  0  0  0
 33 35  1  0  0  0  0
 35 36  2  0  0  0  0
M  END
