1,2,4
 OpenBabel05122313063D

 24 25  0  0  0  0  0  0  0  0999 V2000
   -2.0102    0.0914   -0.0000 N   0  0  0  0  0  2  0  0  0  0  0  0
    0.0600   -1.5304   -0.0000 N   0  0  0  0  0  2  0  0  0  0  0  0
    1.2238   -2.1422    0.0000 N   0  0  0  0  0  0  0  0  0  0  0  0
    1.9998    0.1143   -0.0000 N   0  0  0  0  0  2  0  0  0  0  0  0
   -3.0042    0.9933    0.0001 C   0  0  0  0  0  0  0  0  0  0  0  0
   -4.3508    0.6062    0.0002 C   0  0  0  0  0  0  0  0  0  0  0  0
   -4.6541   -0.7667    0.0001 C   0  0  0  0  0  0  0  0  0  0  0  0
   -3.6201   -1.7068   -0.0001 C   0  0  0  0  0  0  0  0  0  0  0  0
   -2.2765   -1.2666   -0.0001 C   0  0  0  0  0  0  0  0  0  0  0  0
   -1.1293   -2.1363   -0.0001 C   0  0  0  0  0  0  0  0  0  0  0  0
    2.2594   -1.2526    0.0000 C   0  0  0  0  0  0  0  0  0  0  0  0
    3.6056   -1.6948    0.0001 C   0  0  0  0  0  0  0  0  0  0  0  0
    4.6387   -0.7590    0.0001 C   0  0  0  0  0  0  0  0  0  0  0  0
    4.3440    0.6190    0.0000 C   0  0  0  0  0  0  0  0  0  0  0  0
    3.0028    1.0118   -0.0000 C   0  0  0  0  0  0  0  0  0  0  0  0
   -2.6743    2.0452    0.0001 H   0  0  0  0  0  0  0  0  0  0  0  0
   -5.1387    1.3715    0.0003 H   0  0  0  0  0  0  0  0  0  0  0  0
   -5.7015   -1.1042    0.0001 H   0  0  0  0  0  0  0  0  0  0  0  0
   -3.8310   -2.7854   -0.0001 H   0  0  0  0  0  0  0  0  0  0  0  0
   -1.1946   -3.2342   -0.0002 H   0  0  0  0  0  0  0  0  0  0  0  0
    3.7918   -2.7766    0.0001 H   0  0  0  0  0  0  0  0  0  0  0  0
    5.6846   -1.1014    0.0001 H   0  0  0  0  0  0  0  0  0  0  0  0
    5.1362    1.3795    0.0001 H   0  0  0  0  0  0  0  0  0  0  0  0
    2.6791    2.0650   -0.0001 H   0  0  0  0  0  0  0  0  0  0  0  0
  1  5  1  0  0  0  0
  2  3  1  0  0  0  0
  3 11  2  0  0  0  0
  4 15  1  0  0  0  0
  4 11  1  0  0  0  0
  5 16  1  0  0  0  0
  5  6  2  0  0  0  0
  6 17  1  0  0  0  0
  7 18  1  0  0  0  0
  7  6  1  0  0  0  0
  8  7  2  0  0  0  0
  9 10  2  0  0  0  0
  9  8  1  0  0  0  0
  9  1  1  0  0  0  0
 10  2  1  0  0  0  0
 11 12  1  0  0  0  0
 12 13  2  0  0  0  0
 12 21  1  0  0  0  0
 13 22  1  0  0  0  0
 14 23  1  0  0  0  0
 14 13  1  0  0  0  0
 15 14  2  0  0  0  0
 19  8  1  0  0  0  0
 20 10  1  0  0  0  0
 24 15  1  0  0  0  0
M  END
