8,12,19
 OpenBabel05122313063D

 48 49  0  0  1  0  0  0  0  0999 V2000
   -3.6834    0.2208   -1.5293 C   0  0  0  0  0  0  0  0  0  0  0  0
   -2.6795   -0.7851   -1.4247 O   0  0  0  0  0  0  0  0  0  0  0  0
   -3.2347   -2.0560   -1.1025 C   0  0  0  0  0  0  0  0  0  0  0  0
   -2.1163   -3.0451   -0.8672 C   0  0  0  0  0  0  0  0  0  0  0  0
   -1.3904   -2.6165    0.2841 O   0  0  0  0  0  0  0  0  0  0  0  0
   -0.4779   -3.5648    0.8373 C   0  0  0  0  0  0  0  0  0  0  0  0
    0.8698   -3.5170    0.1297 C   0  0  0  0  0  0  0  0  0  0  0  0
    1.4347   -2.1775    0.1786 N   0  0  0  0  0  2  0  0  0  0  0  0
    3.4293   -3.0953   -0.9357 C   0  0  0  0  0  0  0  0  0  0  0  0
    2.6131   -1.9892   -0.3167 C   0  0  1  0  0  3  0  0  0  0  0  0
    3.1635   -0.5997   -0.2989 C   0  0  1  0  0  3  0  0  0  0  0  0
    2.2852    0.4231   -0.2916 N   0  0  0  0  0  2  0  0  0  0  0  0
    4.5585   -0.3889   -0.2502 C   0  0  0  0  0  0  0  0  0  0  0  0
    5.0426    0.9189   -0.1814 C   0  0  0  0  0  0  0  0  0  0  0  0
    4.1273    1.9744   -0.1786 C   0  0  0  0  0  0  0  0  0  0  0  0
    2.7445    1.6906   -0.2268 C   0  0  0  0  0  0  0  0  0  0  0  0
    1.7424    2.8051   -0.1767 C   0  0  2  0  0  3  0  0  0  0  0  0
    2.2793    4.2064   -0.3496 C   0  0  0  0  0  0  0  0  0  0  0  0
    0.5077    2.4912    0.0304 N   0  0  0  0  0  2  0  0  0  0  0  0
   -0.5595    3.4670    0.1100 C   0  0  0  0  0  0  0  0  0  0  0  0
   -1.5958    3.2000   -0.9749 C   0  0  0  0  0  0  0  0  0  0  0  0
   -2.1868    1.9234   -0.7649 O   0  0  0  0  0  0  0  0  0  0  0  0
   -3.0261    1.5397   -1.8513 C   0  0  0  0  0  0  0  0  0  0  0  0
   -4.3967   -0.0345   -2.3484 H   0  0  0  0  0  0  0  0  0  0  0  0
   -4.2419    0.2926   -0.5689 H   0  0  0  0  0  0  0  0  0  0  0  0
   -3.8595   -1.9705   -0.1844 H   0  0  0  0  0  0  0  0  0  0  0  0
   -3.8747   -2.4188   -1.9419 H   0  0  0  0  0  0  0  0  0  0  0  0
   -1.4536   -3.0949   -1.7596 H   0  0  0  0  0  0  0  0  0  0  0  0
   -2.5605   -4.0494   -0.6796 H   0  0  0  0  0  0  0  0  0  0  0  0
   -0.3586   -3.2745    1.8991 H   0  0  0  0  0  0  0  0  0  0  0  0
   -0.9100   -4.5887    0.7802 H   0  0  0  0  0  0  0  0  0  0  0  0
    0.7596   -3.8227   -0.9371 H   0  0  0  0  0  0  0  0  0  0  0  0
    1.5503   -4.2643    0.5999 H   0  0  0  0  0  0  0  0  0  0  0  0
    4.3770   -2.7442   -1.3771 H   0  0  0  0  0  0  0  0  0  0  0  0
    2.8321   -3.5616   -1.7474 H   0  0  0  0  0  0  0  0  0  0  0  0
    3.6519   -3.8969   -0.2012 H   0  0  0  0  0  0  0  0  0  0  0  0
    5.2518   -1.2401   -0.2374 H   0  0  0  0  0  0  0  0  0  0  0  0
    6.1232    1.1151   -0.1236 H   0  0  0  0  0  0  0  0  0  0  0  0
    4.4859    3.0092   -0.1198 H   0  0  0  0  0  0  0  0  0  0  0  0
    2.9491    4.2614   -1.2299 H   0  0  0  0  0  0  0  0  0  0  0  0
    2.8717    4.5087    0.5388 H   0  0  0  0  0  0  0  0  0  0  0  0
    1.4791    4.9527   -0.4847 H   0  0  0  0  0  0  0  0  0  0  0  0
   -1.0480    3.3307    1.0996 H   0  0  0  0  0  0  0  0  0  0  0  0
   -0.2303    4.5238    0.0206 H   0  0  0  0  0  0  0  0  0  0  0  0
   -1.1159    3.2300   -1.9803 H   0  0  0  0  0  0  0  0  0  0  0  0
   -2.3812    3.9912   -0.9330 H   0  0  0  0  0  0  0  0  0  0  0  0
   -3.8206    2.3068   -2.0071 H   0  0  0  0  0  0  0  0  0  0  0  0
   -2.4162    1.4575   -2.7798 H   0  0  0  0  0  0  0  0  0  0  0  0
  1  2  1  0  0  0  0
  1 25  1  0  0  0  0
  2  3  1  0  0  0  0
  3  4  1  0  0  0  0
  3 26  1  0  0  0  0
  4 29  1  0  0  0  0
  4  5  1  0  0  0  0
  5  6  1  0  0  0  0
  6 30  1  0  0  0  0
  7  8  1  0  0  0  0
  7 33  1  0  0  0  0
  7  6  1  0  0  0  0
  9 36  1  0  0  0  0
 10  9  1  6  0  0  0
 10 11  1  0  0  0  0
 10  8  1  0  0  0  0
 11 12  1  1  0  0  0
 11 13  1  0  0  0  0
 12 16  1  0  0  0  0
 13 37  1  0  0  0  0
 13 14  2  0  0  0  0
 14 15  1  0  0  0  0
 14 38  1  0  0  0  0
 15 39  1  0  0  0  0
 16 15  2  0  0  0  0
 16 17  1  0  0  0  0
 17 18  1  1  0  0  0
 17 19  1  0  0  0  0
 18 41  1  0  0  0  0
 19 20  1  0  0  0  0
 20 43  1  0  0  0  0
 21 46  1  0  0  0  0
 21 22  1  0  0  0  0
 21 20  1  0  0  0  0
 23  1  1  0  0  0  0
 23 22  1  0  0  0  0
 24  1  1  0  0  0  0
 27  3  1  0  0  0  0
 28  4  1  0  0  0  0
 31  6  1  0  0  0  0
 32  7  1  0  0  0  0
 34  9  1  0  0  0  0
 35  9  1  0  0  0  0
 40 18  1  0  0  0  0
 42 18  1  0  0  0  0
 44 20  1  0  0  0  0
 45 21  1  0  0  0  0
 47 23  1  0  0  0  0
 48 23  1  0  0  0  0
M  END
