18,21,23
 OpenBabel05122313063D

 24 25  0  0  1  0  0  0  0  0999 V2000
    3.8843    0.0215    0.7815 C   0  0  2  0  0  0  0  0  0  0  0  0
    4.9794   -0.0307    0.9294 H   0  0  0  0  0  0  0  0  0  0  0  0
    3.2305    0.0861    2.1880 C   0  0  0  0  0  0  0  0  0  0  0  0
    3.5171   -0.8501    2.7081 H   0  0  0  0  0  0  0  0  0  0  0  0
    3.7256    0.9190    2.7294 H   0  0  0  0  0  0  0  0  0  0  0  0
    4.5423    2.1292   -0.4855 C   0  0  0  0  0  3  0  0  0  0  0  0
    5.6156    2.0257   -0.2898 H   0  0  0  0  0  0  0  0  0  0  0  0
    3.8188    3.0885   -1.1864 C   0  0  0  0  0  0  0  0  0  0  0  0
    4.2160    3.9688   -1.7015 H   0  0  0  0  0  0  0  0  0  0  0  0
    2.4699    2.6719   -1.0911 C   0  0  0  0  0  0  0  0  0  0  0  0
    1.5654    3.1312   -1.5080 H   0  0  0  0  0  0  0  0  0  0  0  0
    4.3210   -2.2064   -0.3716 C   0  0  0  0  0  3  0  0  0  0  0  0
    5.4016   -2.1999   -0.1888 H   0  0  0  0  0  0  0  0  0  0  0  0
    3.4952   -3.1310   -1.0032 C   0  0  0  0  0  0  0  0  0  0  0  0
    3.7957   -4.0782   -1.4621 H   0  0  0  0  0  0  0  0  0  0  0  0
    2.1957   -2.5757   -0.9266 C   0  0  0  0  0  0  0  0  0  0  0  0
    1.2439   -2.9630   -1.3111 H   0  0  0  0  0  0  0  0  0  0  0  0
    1.7720    0.2440    2.1692 N   0  0  0  0  0  0  0  0  0  0  0  0
    1.4867    1.1571    2.5390 H   0  0  0  0  0  0  0  0  0  0  0  0
    1.2992   -0.4650    2.7417 H   0  0  0  0  0  0  0  0  0  0  0  0
    2.3677    1.5398   -0.3761 N   0  0  0  0  0  2  0  0  0  0  0  0
    3.6358    1.2194   -0.0112 N   0  0  0  0  0  0  0  0  0  0  0  0
    2.2189   -1.3950   -0.2873 N   0  0  0  0  0  2  0  0  0  0  0  0
    3.5158   -1.1802    0.0451 N   0  0  0  0  0  0  0  0  0  0  0  0
  1  2  1  1  0  0  0
  1  3  1  0  0  0  0
  3  4  1  0  0  0  0
  3  5  1  0  0  0  0
  6  7  1  0  0  0  0
  6 22  1  0  0  0  0
  8 10  2  0  0  0  0
  8  6  1  0  0  0  0
  9  8  1  0  0  0  0
 10 21  1  0  0  0  0
 11 10  1  0  0  0  0
 12 13  1  0  0  0  0
 12 24  1  0  0  0  0
 14 16  2  0  0  0  0
 14 12  1  0  0  0  0
 15 14  1  0  0  0  0
 16 23  1  0  0  0  0
 17 16  1  0  0  0  0
 18  3  1  0  0  0  0
 18 19  1  0  0  0  0
 18 20  1  0  0  0  0
 21 22  1  0  0  0  0
 22  1  1  0  0  0  0
 23 24  1  0  0  0  0
 24  1  1  0  0  0  0
M  END
