36,39,40
 OpenBabel05122313063D

 40 42  0  0  1  0  0  0  0  0999 V2000
    1.8722   -2.7206   -1.3578 C   0  0  2  0  0  3  0  0  0  0  0  0
    3.1913   -3.2519   -1.3828 C   0  0  0  0  0  0  0  0  0  0  0  0
    3.5077   -4.2314   -1.7561 H   0  0  0  0  0  0  0  0  0  0  0  0
    4.0172   -2.2730   -0.8367 C   0  0  0  0  0  0  0  0  0  0  0  0
    3.5570    0.0296    0.1335 C   0  0  1  0  0  0  0  0  0  0  0  0
    4.6586    0.0173    0.1858 H   0  0  0  0  0  0  0  0  0  0  0  0
    4.0919    2.0598   -1.2959 C   0  0  1  0  0  3  0  0  0  0  0  0
    3.2929    3.0023   -1.9369 C   0  0  0  0  0  0  0  0  0  0  0  0
    3.6440    3.8509   -2.5331 H   0  0  0  0  0  0  0  0  0  0  0  0
    1.9462    2.6387   -1.6600 C   0  0  0  0  0  0  0  0  0  0  0  0
    3.0409    0.1319    1.5716 C   0  0  2  0  0  3  0  0  0  0  0  0
    3.9566    0.2913    2.6259 C   0  0  0  0  0  0  0  0  0  0  0  0
    5.0377    0.3431    2.4255 H   0  0  0  0  0  0  0  0  0  0  0  0
    3.4666    0.3824    3.9373 C   0  0  0  0  0  0  0  0  0  0  0  0
    4.1595    0.5073    4.7827 H   0  0  0  0  0  0  0  0  0  0  0  0
    2.0838    0.3084    4.1483 C   0  0  0  0  0  0  0  0  0  0  0  0
    1.6548    0.3717    5.1585 H   0  0  0  0  0  0  0  0  0  0  0  0
    1.2446    0.1482    3.0344 C   0  0  0  0  0  0  0  0  0  0  0  0
    0.1500    0.0775    3.1509 H   0  0  0  0  0  0  0  0  0  0  0  0
    0.5956   -3.3407   -1.8238 C   0  0  0  0  0  0  0  0  0  0  0  0
    0.4098   -4.3059   -1.3109 H   0  0  0  0  0  0  0  0  0  0  0  0
    0.6251   -3.5502   -2.9123 H   0  0  0  0  0  0  0  0  0  0  0  0
   -0.2606   -2.6675   -1.6252 H   0  0  0  0  0  0  0  0  0  0  0  0
    5.4907   -2.2626   -0.5960 C   0  0  0  0  0  0  0  0  0  0  0  0
    6.0038   -1.4507   -1.1534 H   0  0  0  0  0  0  0  0  0  0  0  0
    5.9281   -3.2187   -0.9358 H   0  0  0  0  0  0  0  0  0  0  0  0
    5.7408   -2.1489    0.4798 H   0  0  0  0  0  0  0  0  0  0  0  0
    5.5771    1.9250   -1.2289 C   0  0  0  0  0  0  0  0  0  0  0  0
    5.9599    1.9806   -0.1882 H   0  0  0  0  0  0  0  0  0  0  0  0
    6.0494    2.7474   -1.7959 H   0  0  0  0  0  0  0  0  0  0  0  0
    5.9325    0.9719   -1.6742 H   0  0  0  0  0  0  0  0  0  0  0  0
    0.6811    3.2915   -2.1122 C   0  0  0  0  0  0  0  0  0  0  0  0
   -0.1986    2.7768   -1.6799 H   0  0  0  0  0  0  0  0  0  0  0  0
    0.5924    3.2655   -3.2173 H   0  0  0  0  0  0  0  0  0  0  0  0
    0.6480    4.3566   -1.8068 H   0  0  0  0  0  0  0  0  0  0  0  0
    1.8912   -1.4886   -0.8243 N   0  0  0  0  0  2  0  0  0  0  0  0
    3.1853   -1.2207   -0.5180 N   0  0  0  0  0  0  0  0  0  0  0  0
    3.2189    1.1939   -0.6724 N   0  0  0  0  0  0  0  0  0  0  0  0
    1.9239    1.5414   -0.8866 N   0  0  0  0  0  2  0  0  0  0  0  0
    1.7139    0.0633    1.7786 N   0  0  0  0  0  2  0  0  0  0  0  0
  1 20  1  6  0  0  0
  1 36  1  0  0  0  0
  2  1  1  0  0  0  0
  2  4  2  0  0  0  0
  3  2  1  0  0  0  0
  4 24  1  0  0  0  0
  4 37  1  0  0  0  0
  5  6  1  1  0  0  0
  7 28  1  1  0  0  0
  7 38  1  0  0  0  0
  8 10  2  0  0  0  0
  8  7  1  0  0  0  0
  9  8  1  0  0  0  0
 10 39  1  0  0  0  0
 11  5  1  1  0  0  0
 11 40  1  0  0  0  0
 11 12  1  0  0  0  0
 12 14  2  0  0  0  0
 13 12  1  0  0  0  0
 14 16  1  0  0  0  0
 14 15  1  0  0  0  0
 16 17  1  0  0  0  0
 18 19  1  0  0  0  0
 18 16  2  0  0  0  0
 20 23  1  0  0  0  0
 20 21  1  0  0  0  0
 22 20  1  0  0  0  0
 24 27  1  0  0  0  0
 25 24  1  0  0  0  0
 26 24  1  0  0  0  0
 28 29  1  0  0  0  0
 30 28  1  0  0  0  0
 31 28  1  0  0  0  0
 32 35  1  0  0  0  0
 32 33  1  0  0  0  0
 32 10  1  0  0  0  0
 34 32  1  0  0  0  0
 36 37  1  0  0  0  0
 37  5  1  0  0  0  0
 38  5  1  0  0  0  0
 39 38  1  0  0  0  0
 40 18  1  0  0  0  0
M  END
