6,12,13
 OpenBabel05122313063D

 83 87  0  0  0  0  0  0  0  0999 V2000
   -0.6986    0.0852   -0.8225 O   0  0  0  0  0  0  0  0  0  0  0  0
    5.0604   -0.9699   -1.9001 O   0  0  0  0  0  0  0  0  0  0  0  0
    6.0080   -1.1825   -1.9840 H   0  0  0  0  0  0  0  0  0  0  0  0
    2.5643   -0.0759   -1.8755 O   0  0  0  0  0  0  0  0  0  0  0  0
    2.9966   -0.9050   -2.1750 H   0  0  0  0  0  0  0  0  0  0  0  0
    1.0362    1.9025    0.2381 N   0  0  0  0  0  0  0  0  0  0  0  0
    1.4308    2.3521    1.0762 H   0  0  0  0  0  0  0  0  0  0  0  0
   -4.3655    5.1393    0.9588 C   0  0  0  0  0  0  0  0  0  0  0  0
   -4.9098    4.3361    1.4951 H   0  0  0  0  0  0  0  0  0  0  0  0
   -4.6624    5.1105   -0.1090 H   0  0  0  0  0  0  0  0  0  0  0  0
   -4.7140    6.1064    1.3717 H   0  0  0  0  0  0  0  0  0  0  0  0
    0.4852   -2.0138    0.3005 N   0  0  0  0  0  2  0  0  0  0  0  0
    2.9548   -1.2946    1.0512 N   0  0  0  0  0  2  0  0  0  0  0  0
   -0.3787    2.2205    0.1750 C   0  0  0  0  0  0  0  0  0  0  0  0
   -1.2485    1.2896   -0.4176 C   0  0  0  0  0  0  0  0  0  0  0  0
   -1.4936   -1.0120   -0.5757 C   0  0  0  0  0  0  0  0  0  0  0  0
   -2.8803   -0.9337   -0.7466 C   0  0  0  0  0  0  0  0  0  0  0  0
   -3.4604    0.4128   -1.2089 C   0  0  0  0  0  0  0  0  0  0  0  0
   -2.6279    1.5083   -0.5214 C   0  0  0  0  0  0  0  0  0  0  0  0
   -3.1302    2.7211   -0.0154 C   0  0  0  0  0  0  0  0  0  0  0  0
   -4.2075    2.9110   -0.0850 H   0  0  0  0  0  0  0  0  0  0  0  0
   -2.2977    3.6927    0.5781 C   0  0  0  0  0  0  0  0  0  0  0  0
   -2.8420    5.0200    1.1359 C   0  0  0  0  0  0  0  0  0  0  0  0
   -2.1693    6.1963    0.3918 C   0  0  0  0  0  0  0  0  0  0  0  0
   -2.3832    6.1548   -0.6951 H   0  0  0  0  0  0  0  0  0  0  0  0
   -1.0685    6.1957    0.5218 H   0  0  0  0  0  0  0  0  0  0  0  0
   -2.5489    7.1633    0.7797 H   0  0  0  0  0  0  0  0  0  0  0  0
   -2.5165    5.1049    2.6448 C   0  0  0  0  0  0  0  0  0  0  0  0
   -2.9003    6.0557    3.0672 H   0  0  0  0  0  0  0  0  0  0  0  0
   -1.4254    5.0725    2.8374 H   0  0  0  0  0  0  0  0  0  0  0  0
   -2.9848    4.2681    3.2011 H   0  0  0  0  0  0  0  0  0  0  0  0
   -0.9133    3.4225    0.6539 C   0  0  0  0  0  0  0  0  0  0  0  0
   -0.2317    4.1565    1.1120 H   0  0  0  0  0  0  0  0  0  0  0  0
   -3.2534    0.5356   -2.7442 C   0  0  0  0  0  0  0  0  0  0  0  0
   -2.1840    0.4464   -3.0170 H   0  0  0  0  0  0  0  0  0  0  0  0
   -3.6213    1.5178   -3.1021 H   0  0  0  0  0  0  0  0  0  0  0  0
   -3.8117   -0.2643   -3.2703 H   0  0  0  0  0  0  0  0  0  0  0  0
   -4.9544    0.5353   -0.8862 C   0  0  0  0  0  0  0  0  0  0  0  0
   -5.5350   -0.2473   -1.4111 H   0  0  0  0  0  0  0  0  0  0  0  0
   -5.3514    1.5069   -1.2376 H   0  0  0  0  0  0  0  0  0  0  0  0
   -5.1508    0.4487    0.2005 H   0  0  0  0  0  0  0  0  0  0  0  0
   -3.6268   -2.0992   -0.4977 C   0  0  0  0  0  0  0  0  0  0  0  0
   -4.7138   -2.0620   -0.6342 H   0  0  0  0  0  0  0  0  0  0  0  0
   -3.0282   -3.3093   -0.0746 C   0  0  0  0  0  0  0  0  0  0  0  0
   -1.6391   -3.3221    0.1437 C   0  0  0  0  0  0  0  0  0  0  0  0
   -1.1618   -4.2265    0.5476 H   0  0  0  0  0  0  0  0  0  0  0  0
   -0.8514   -2.1704   -0.0701 C   0  0  0  0  0  0  0  0  0  0  0  0
    1.3068   -2.9794    0.5869 C   0  0  0  0  0  0  0  0  0  0  0  0
    1.0462   -4.0528    0.4998 H   0  0  0  0  0  0  0  0  0  0  0  0
    2.6484   -2.6251    1.0562 C   0  0  0  0  0  0  0  0  0  0  0  0
    4.1654   -0.9053    1.4868 C   0  0  0  0  0  0  0  0  0  0  0  0
    4.3695    0.1770    1.4615 H   0  0  0  0  0  0  0  0  0  0  0  0
    5.1374   -1.8126    1.9368 C   0  0  0  0  0  0  0  0  0  0  0  0
    6.1148   -1.4423    2.2778 H   0  0  0  0  0  0  0  0  0  0  0  0
    4.8338   -3.1826    1.9375 C   0  0  0  0  0  0  0  0  0  0  0  0
    5.5706   -3.9213    2.2860 H   0  0  0  0  0  0  0  0  0  0  0  0
    3.5709   -3.5948    1.4931 C   0  0  0  0  0  0  0  0  0  0  0  0
    3.2884   -4.6582    1.4864 H   0  0  0  0  0  0  0  0  0  0  0  0
   -3.8496   -4.5863    0.1833 C   0  0  0  0  0  0  0  0  0  0  0  0
   -5.3454   -4.3821   -0.1134 C   0  0  0  0  0  0  0  0  0  0  0  0
   -5.8938   -5.3264    0.0725 H   0  0  0  0  0  0  0  0  0  0  0  0
   -5.5239   -4.0995   -1.1705 H   0  0  0  0  0  0  0  0  0  0  0  0
   -5.7966   -3.6064    0.5375 H   0  0  0  0  0  0  0  0  0  0  0  0
   -3.6968   -4.9985    1.6654 C   0  0  0  0  0  0  0  0  0  0  0  0
   -2.6422   -5.2121    1.9316 H   0  0  0  0  0  0  0  0  0  0  0  0
   -4.2833   -5.9169    1.8702 H   0  0  0  0  0  0  0  0  0  0  0  0
   -4.0625   -4.1995    2.3412 H   0  0  0  0  0  0  0  0  0  0  0  0
   -3.3201   -5.7167   -0.7287 C   0  0  0  0  0  0  0  0  0  0  0  0
   -2.2536   -5.9444   -0.5303 H   0  0  0  0  0  0  0  0  0  0  0  0
   -3.4152   -5.4435   -1.7989 H   0  0  0  0  0  0  0  0  0  0  0  0
   -3.8970   -6.6484   -0.5596 H   0  0  0  0  0  0  0  0  0  0  0  0
    1.7817    2.4563   -0.9520 C   0  0  0  0  0  0  0  0  0  0  0  0
    1.2662    2.0668   -1.8511 H   0  0  0  0  0  0  0  0  0  0  0  0
    1.6925    3.5633   -0.9623 H   0  0  0  0  0  0  0  0  0  0  0  0
    3.2257    2.0361   -0.9529 C   0  0  0  0  0  0  0  0  0  0  0  0
    4.2617    2.8667   -0.4774 C   0  0  0  0  0  0  0  0  0  0  0  0
    4.0151    3.8753   -0.1120 H   0  0  0  0  0  0  0  0  0  0  0  0
    5.5941    2.4301   -0.4898 C   0  0  0  0  0  0  0  0  0  0  0  0
    6.3957    3.0906   -0.1301 H   0  0  0  0  0  0  0  0  0  0  0  0
    5.9157    1.1493   -0.9744 C   0  0  0  0  0  0  0  0  0  0  0  0
    6.9605    0.8003   -0.9854 H   0  0  0  0  0  0  0  0  0  0  0  0
    4.8968    0.3091   -1.4412 C   0  0  0  0  0  0  0  0  0  0  0  0
    3.5570    0.7574   -1.4385 C   0  0  0  0  0  0  0  0  0  0  0  0
  1 16  1  0  0  0  0
  1 15  1  0  0  0  0
  2 82  1  0  0  0  0
  3  2  1  0  0  0  0
  4 83  1  0  0  0  0
  5  4  1  0  0  0  0
  6  7  1  0  0  0  0
  8 23  1  0  0  0  0
  8 11  1  0  0  0  0
  8  9  1  0  0  0  0
 10  8  1  0  0  0  0
 12 48  1  0  0  0  0
 13 50  1  0  0  0  0
 13 51  1  0  0  0  0
 14  6  1  0  0  0  0
 14 32  1  0  0  0  0
 15 14  2  0  0  0  0
 16 47  1  0  0  0  0
 17 16  2  0  0  0  0
 17 42  1  0  0  0  0
 18 38  1  0  0  0  0
 18 17  1  0  0  0  0
 18 19  1  0  0  0  0
 19 15  1  0  0  0  0
 19 20  2  0  0  0  0
 20 22  1  0  0  0  0
 21 20  1  0  0  0  0
 22 32  2  0  0  0  0
 22 23  1  0  0  0  0
 23 28  1  0  0  0  0
 24 26  1  0  0  0  0
 24 27  1  0  0  0  0
 24 23  1  0  0  0  0
 25 24  1  0  0  0  0
 28 30  1  0  0  0  0
 28 29  1  0  0  0  0
 28 31  1  0  0  0  0
 32 33  1  0  0  0  0
 34 18  1  0  0  0  0
 35 34  1  0  0  0  0
 36 34  1  0  0  0  0
 37 34  1  0  0  0  0
 38 41  1  0  0  0  0
 39 38  1  0  0  0  0
 40 38  1  0  0  0  0
 42 44  2  0  0  0  0
 43 42  1  0  0  0  0
 44 45  1  0  0  0  0
 44 59  1  0  0  0  0
 45 46  1  0  0  0  0
 47 45  2  0  0  0  0
 47 12  1  0  0  0  0
 48 50  2  0  0  0  0
 49 48  1  0  0  0  0
 50 57  1  0  0  0  0
 51 53  2  0  0  0  0
 52 51  1  0  0  0  0
 53 55  1  0  0  0  0
 53 54  1  0  0  0  0
 55 56  1  0  0  0  0
 57 55  2  0  0  0  0
 58 57  1  0  0  0  0
 59 64  1  0  0  0  0
 60 61  1  0  0  0  0
 60 59  1  0  0  0  0
 60 63  1  0  0  0  0
 62 60  1  0  0  0  0
 64 66  1  0  0  0  0
 64 65  1  0  0  0  0
 64 67  1  0  0  0  0
 68 71  1  0  0  0  0
 68 69  1  0  0  0  0
 68 59  1  0  0  0  0
 70 68  1  0  0  0  0
 72  6  1  0  0  0  0
 73 72  1  0  0  0  0
 74 72  1  0  0  0  0
 75 72  1  0  0  0  0
 75 76  1  0  0  0  0
 76 77  1  0  0  0  0
 78 76  2  0  0  0  0
 78 79  1  0  0  0  0
 80 78  1  0  0  0  0
 81 80  1  0  0  0  0
 82 83  1  0  0  0  0
 82 80  2  0  0  0  0
 83 75  2  0  0  0  0
M  END
