1,2,3
 OpenBabel05122313063D

 61 63  0  0  1  0  0  0  0  0999 V2000
   -0.1172    2.2352   -0.0568 N   0  0  0  0  0  2  0  0  0  0  0  0
    1.9690    0.7856    0.0382 N   0  0  0  0  0  2  0  0  0  0  0  0
   -2.0682    0.6051    0.1326 N   0  0  0  0  0  2  0  0  0  0  0  0
   -1.3426    2.8441    0.0162 C   0  0  0  0  0  0  0  0  0  0  0  0
   -1.4237    4.2494   -0.0067 C   0  0  0  0  0  0  0  0  0  0  0  0
   -2.4030    4.7440    0.0436 H   0  0  0  0  0  0  0  0  0  0  0  0
   -0.2388    5.0011   -0.0810 C   0  0  0  0  0  0  0  0  0  0  0  0
   -0.2879    6.0993   -0.1028 H   0  0  0  0  0  0  0  0  0  0  0  0
    1.0085    4.3564   -0.1032 C   0  0  0  0  0  0  0  0  0  0  0  0
    1.9419    4.9347   -0.1284 H   0  0  0  0  0  0  0  0  0  0  0  0
    1.0541    2.9488   -0.0733 C   0  0  0  0  0  0  0  0  0  0  0  0
    2.2298    2.0881   -0.0479 C   0  0  1  0  0  3  0  0  0  0  0  0
    3.6082    2.6703   -0.0956 C   0  0  0  0  0  0  0  0  0  0  0  0
    4.3767    1.8776   -0.0462 H   0  0  0  0  0  0  0  0  0  0  0  0
    3.7583    3.3606    0.7612 H   0  0  0  0  0  0  0  0  0  0  0  0
    3.7662    3.2633   -1.0207 H   0  0  0  0  0  0  0  0  0  0  0  0
    2.9969   -0.2019   -0.1157 C   0  0  0  0  0  0  0  0  0  0  0  0
    3.5211   -0.4649   -1.4120 C   0  0  0  0  0  0  0  0  0  0  0  0
    4.4011   -1.5507   -1.5632 C   0  0  0  0  0  0  0  0  0  0  0  0
    4.7915   -1.7659   -2.5713 H   0  0  0  0  0  0  0  0  0  0  0  0
    4.7939   -2.3628   -0.4844 C   0  0  0  0  0  0  0  0  0  0  0  0
    4.3086   -2.0304    0.7917 C   0  0  0  0  0  0  0  0  0  0  0  0
    4.6431   -2.6129    1.6664 H   0  0  0  0  0  0  0  0  0  0  0  0
    3.4231   -0.9568    1.0072 C   0  0  0  0  0  0  0  0  0  0  0  0
    3.1734    0.3915   -2.6016 C   0  0  0  0  0  0  0  0  0  0  0  0
    3.5265   -0.0830   -3.5369 H   0  0  0  0  0  0  0  0  0  0  0  0
    3.6543    1.3906   -2.5378 H   0  0  0  0  0  0  0  0  0  0  0  0
    2.0775    0.5379   -2.6766 H   0  0  0  0  0  0  0  0  0  0  0  0
    5.7120   -3.5407   -0.6971 C   0  0  0  0  0  0  0  0  0  0  0  0
    5.2011   -4.3547   -1.2548 H   0  0  0  0  0  0  0  0  0  0  0  0
    6.0650   -3.9636    0.2637 H   0  0  0  0  0  0  0  0  0  0  0  0
    6.6035   -3.2591   -1.2945 H   0  0  0  0  0  0  0  0  0  0  0  0
    3.0026   -0.5932    2.4031 C   0  0  0  0  0  0  0  0  0  0  0  0
    3.3693    0.4191    2.6761 H   0  0  0  0  0  0  0  0  0  0  0  0
    3.4120   -1.3112    3.1394 H   0  0  0  0  0  0  0  0  0  0  0  0
    1.9010   -0.5333    2.5171 H   0  0  0  0  0  0  0  0  0  0  0  0
   -2.4373    1.8817    0.0944 C   0  0  0  0  0  0  0  0  0  0  0  0
   -3.8576    2.3534    0.1367 C   0  0  0  0  0  0  0  0  0  0  0  0
   -4.1193    2.9339   -0.7726 H   0  0  0  0  0  0  0  0  0  0  0  0
   -4.0008    3.0299    1.0054 H   0  0  0  0  0  0  0  0  0  0  0  0
   -4.5584    1.5046    0.2306 H   0  0  0  0  0  0  0  0  0  0  0  0
   -3.0222   -0.4484   -0.0376 C   0  0  0  0  0  0  0  0  0  0  0  0
   -3.6286   -0.6428   -1.3094 C   0  0  0  0  0  0  0  0  0  0  0  0
   -4.4714   -1.7567   -1.4779 C   0  0  0  0  0  0  0  0  0  0  0  0
   -4.9273   -1.9181   -2.4683 H   0  0  0  0  0  0  0  0  0  0  0  0
   -4.7470   -2.6608   -0.4391 C   0  0  0  0  0  0  0  0  0  0  0  0
   -4.1670   -2.4088    0.8167 C   0  0  0  0  0  0  0  0  0  0  0  0
   -4.3960   -3.0780    1.6623 H   0  0  0  0  0  0  0  0  0  0  0  0
   -3.3081   -1.3204    1.0461 C   0  0  0  0  0  0  0  0  0  0  0  0
   -3.4121    0.3046   -2.4619 C   0  0  0  0  0  0  0  0  0  0  0  0
   -3.6903   -0.1819   -3.4163 H   0  0  0  0  0  0  0  0  0  0  0  0
   -2.3519    0.6140   -2.5333 H   0  0  0  0  0  0  0  0  0  0  0  0
   -4.0424    1.2146   -2.3658 H   0  0  0  0  0  0  0  0  0  0  0  0
   -5.6189   -3.8699   -0.6671 C   0  0  0  0  0  0  0  0  0  0  0  0
   -5.0119   -4.7466   -0.9822 H   0  0  0  0  0  0  0  0  0  0  0  0
   -6.3667   -3.6909   -1.4650 H   0  0  0  0  0  0  0  0  0  0  0  0
   -6.1596   -4.1644    0.2544 H   0  0  0  0  0  0  0  0  0  0  0  0
   -2.7658   -1.0648    2.4237 C   0  0  0  0  0  0  0  0  0  0  0  0
   -1.6588   -1.0256    2.4409 H   0  0  0  0  0  0  0  0  0  0  0  0
   -3.1172   -1.8364    3.1350 H   0  0  0  0  0  0  0  0  0  0  0  0
   -3.0825   -0.0718    2.8049 H   0  0  0  0  0  0  0  0  0  0  0  0
  1  4  1  0  0  0  0
  4 37  2  0  0  0  0
  5  4  1  0  0  0  0
  5  6  1  0  0  0  0
  7  5  2  0  0  0  0
  8  7  1  0  0  0  0
  9  7  1  0  0  0  0
  9 11  2  0  0  0  0
 10  9  1  0  0  0  0
 11  1  1  0  0  0  0
 11 12  1  0  0  0  0
 12  2  1  1  0  0  0
 13 12  1  0  0  0  0
 13 14  1  0  0  0  0
 13 15  1  0  0  0  0
 16 13  1  0  0  0  0
 17  2  1  0  0  0  0
 17 24  1  0  0  0  0
 18 17  2  0  0  0  0
 19 18  1  0  0  0  0
 19 21  2  0  0  0  0
 20 19  1  0  0  0  0
 21 22  1  0  0  0  0
 22 24  2  0  0  0  0
 22 23  1  0  0  0  0
 24 33  1  0  0  0  0
 25 27  1  0  0  0  0
 25 18  1  0  0  0  0
 26 25  1  0  0  0  0
 28 25  1  0  0  0  0
 29 21  1  0  0  0  0
 29 31  1  0  0  0  0
 30 29  1  0  0  0  0
 32 29  1  0  0  0  0
 33 36  1  0  0  0  0
 33 34  1  0  0  0  0
 33 35  1  0  0  0  0
 37  3  1  0  0  0  0
 37 38  1  0  0  0  0
 38 41  1  0  0  0  0
 38 40  1  0  0  0  0
 39 38  1  0  0  0  0
 42  3  1  0  0  0  0
 42 49  1  0  0  0  0
 43 42  2  0  0  0  0
 44 43  1  0  0  0  0
 44 46  2  0  0  0  0
 45 44  1  0  0  0  0
 46 47  1  0  0  0  0
 47 49  2  0  0  0  0
 47 48  1  0  0  0  0
 49 58  1  0  0  0  0
 50 53  1  0  0  0  0
 50 43  1  0  0  0  0
 51 50  1  0  0  0  0
 52 50  1  0  0  0  0
 54 46  1  0  0  0  0
 54 57  1  0  0  0  0
 55 54  1  0  0  0  0
 56 54  1  0  0  0  0
 58 59  1  0  0  0  0
 58 61  1  0  0  0  0
 58 60  1  0  0  0  0
M  END
