4,30,56
 OpenBabel05122313063D

 80 82  0  0  1  0  0  0  0  0999 V2000
   -0.0962    0.0440   -1.3935 B   0  0  2  0  0  0  0  0  0  0  0  0
   -0.0911    0.1001   -2.6018 H   0  0  0  0  0  0  0  0  0  0  0  0
   -1.5464    0.0816   -0.8870 N   0  0  0  0  0  0  0  0  0  0  0  0
   -1.7507    0.0887    0.4425 N   0  0  0  0  0  2  0  0  0  0  0  0
   -3.0802    0.1144    0.6605 C   0  0  1  0  0  3  0  0  0  0  0  0
   -3.5675    0.1285    2.0787 C   0  0  0  0  0  0  0  0  0  0  0  0
   -2.6920    0.1221    2.7540 H   0  0  0  0  0  0  0  0  0  0  0  0
   -4.1897   -0.7552    2.3210 H   0  0  0  0  0  0  0  0  0  0  0  0
   -4.1688    1.0290    2.3105 H   0  0  0  0  0  0  0  0  0  0  0  0
   -3.7695    0.1243   -0.5965 C   0  0  0  0  0  0  0  0  0  0  0  0
   -2.7353    0.1016   -1.5599 C   0  0  0  0  0  0  0  0  0  0  0  0
   -2.7583    0.0967   -3.0587 C   0  0  0  0  0  0  0  0  0  0  0  0
   -2.2409    0.9847   -3.4773 H   0  0  0  0  0  0  0  0  0  0  0  0
   -3.7900    0.1004   -3.4472 H   0  0  0  0  0  0  0  0  0  0  0  0
   -2.2489   -0.7986   -3.4706 H   0  0  0  0  0  0  0  0  0  0  0  0
   -5.2724    0.1518   -0.8974 C   0  0  0  0  0  0  0  0  0  0  0  0
   -5.6735   -1.1152   -1.6903 C   0  0  0  0  0  0  0  0  0  0  0  0
   -5.4508   -2.0277   -1.1014 H   0  0  0  0  0  0  0  0  0  0  0  0
   -5.1347   -1.2023   -2.6531 H   0  0  0  0  0  0  0  0  0  0  0  0
   -6.7612   -1.1065   -1.9131 H   0  0  0  0  0  0  0  0  0  0  0  0
   -5.6251    1.4233   -1.7058 C   0  0  0  0  0  0  0  0  0  0  0  0
   -5.0849    1.4772   -2.6703 H   0  0  0  0  0  0  0  0  0  0  0  0
   -5.3664    2.3339   -1.1286 H   0  0  0  0  0  0  0  0  0  0  0  0
   -6.7126    1.4540   -1.9274 H   0  0  0  0  0  0  0  0  0  0  0  0
   -6.1337    0.1760    0.3803 C   0  0  0  0  0  0  0  0  0  0  0  0
   -5.9705   -0.7206    1.0082 H   0  0  0  0  0  0  0  0  0  0  0  0
   -7.2061    0.1939    0.0981 H   0  0  0  0  0  0  0  0  0  0  0  0
   -5.9375    1.0742    0.9964 H   0  0  0  0  0  0  0  0  0  0  0  0
    0.6061   -1.2625   -0.9141 N   0  0  0  0  0  0  0  0  0  0  0  0
    0.8855   -1.4339    0.4025 N   0  0  0  0  0  2  0  0  0  0  0  0
    1.6011   -2.5728    0.5397 C   0  0  2  0  0  3  0  0  0  0  0  0
    2.1244   -2.9703    1.8847 C   0  0  0  0  0  0  0  0  0  0  0  0
    2.2433   -2.0659    2.5130 H   0  0  0  0  0  0  0  0  0  0  0  0
    3.1075   -3.4691    1.8047 H   0  0  0  0  0  0  0  0  0  0  0  0
    1.4416   -3.6618    2.4196 H   0  0  0  0  0  0  0  0  0  0  0  0
    1.7662   -3.1851   -0.7372 C   0  0  0  0  0  0  0  0  0  0  0  0
    1.1243   -2.3044   -1.6380 C   0  0  0  0  0  0  0  0  0  0  0  0
    0.9624   -2.3572   -3.1275 C   0  0  0  0  0  0  0  0  0  0  0  0
    0.4160   -1.4671   -3.4831 H   0  0  0  0  0  0  0  0  0  0  0  0
    0.3973   -3.2532   -3.4478 H   0  0  0  0  0  0  0  0  0  0  0  0
    1.9407   -2.3824   -3.6464 H   0  0  0  0  0  0  0  0  0  0  0  0
    2.5235   -4.4904   -1.0087 C   0  0  0  0  0  0  0  0  0  0  0  0
    4.0407   -4.2528   -0.8216 C   0  0  0  0  0  0  0  0  0  0  0  0
    4.4072   -3.4879   -1.5356 H   0  0  0  0  0  0  0  0  0  0  0  0
    4.6084   -5.1904   -0.9985 H   0  0  0  0  0  0  0  0  0  0  0  0
    4.2850   -3.8991    0.1990 H   0  0  0  0  0  0  0  0  0  0  0  0
    2.0380   -5.5978   -0.0437 C   0  0  0  0  0  0  0  0  0  0  0  0
    2.2246   -5.3525    1.0173 H   0  0  0  0  0  0  0  0  0  0  0  0
    2.5637   -6.5503   -0.2617 H   0  0  0  0  0  0  0  0  0  0  0  0
    0.9496   -5.7719   -0.1643 H   0  0  0  0  0  0  0  0  0  0  0  0
    2.3074   -5.0272   -2.4379 C   0  0  0  0  0  0  0  0  0  0  0  0
    2.7204   -4.3527   -3.2108 H   0  0  0  0  0  0  0  0  0  0  0  0
    1.2345   -5.1972   -2.6556 H   0  0  0  0  0  0  0  0  0  0  0  0
    2.8269   -6.0012   -2.5421 H   0  0  0  0  0  0  0  0  0  0  0  0
    0.6996    1.2604   -0.8412 N   0  0  0  0  0  0  0  0  0  0  0  0
    1.0219    1.3598    0.4711 N   0  0  0  0  0  2  0  0  0  0  0  0
    1.8260    2.4382    0.6338 C   0  0  1  0  0  3  0  0  0  0  0  0
    2.4086    2.7130    1.9863 C   0  0  0  0  0  0  0  0  0  0  0  0
    2.3017    1.8047    2.6097 H   0  0  0  0  0  0  0  0  0  0  0  0
    1.9051    3.5492    2.5124 H   0  0  0  0  0  0  0  0  0  0  0  0
    3.4840    2.9554    1.9244 H   0  0  0  0  0  0  0  0  0  0  0  0
    2.0014    3.0848   -0.6271 C   0  0  0  0  0  0  0  0  0  0  0  0
    1.2715    2.2854   -1.5371 C   0  0  0  0  0  0  0  0  0  0  0  0
    1.0749    2.3984   -3.0187 C   0  0  0  0  0  0  0  0  0  0  0  0
    1.5114    1.5303   -3.5532 H   0  0  0  0  0  0  0  0  0  0  0  0
    1.5489    3.3095   -3.4176 H   0  0  0  0  0  0  0  0  0  0  0  0
   -0.0013    2.4343   -3.2828 H   0  0  0  0  0  0  0  0  0  0  0  0
    2.7620    4.3696   -0.9802 C   0  0  0  0  0  0  0  0  0  0  0  0
    1.7726    5.4091   -1.5621 C   0  0  0  0  0  0  0  0  0  0  0  0
    1.2528    5.0459   -2.4687 H   0  0  0  0  0  0  0  0  0  0  0  0
    2.3085    6.3428   -1.8329 H   0  0  0  0  0  0  0  0  0  0  0  0
    0.9953    5.6641   -0.8140 H   0  0  0  0  0  0  0  0  0  0  0  0
    3.4290    5.0327    0.2411 C   0  0  0  0  0  0  0  0  0  0  0  0
    4.2279    4.4017    0.6749 H   0  0  0  0  0  0  0  0  0  0  0  0
    2.6979    5.2707    1.0375 H   0  0  0  0  0  0  0  0  0  0  0  0
    3.8993    5.9855   -0.0763 H   0  0  0  0  0  0  0  0  0  0  0  0
    3.8843    4.0628   -2.0000 C   0  0  0  0  0  0  0  0  0  0  0  0
    3.4978    3.6329   -2.9435 H   0  0  0  0  0  0  0  0  0  0  0  0
    4.6064    3.3366   -1.5751 H   0  0  0  0  0  0  0  0  0  0  0  0
    4.4396    4.9893   -2.2557 H   0  0  0  0  0  0  0  0  0  0  0  0
  1  2  1  6  0  0  0
  1 29  1  0  0  0  0
  1  3  1  0  0  0  0
  1 55  1  0  0  0  0
  3  4  1  0  0  0  0
  4  5  1  0  0  0  0
  5  6  1  6  0  0  0
  6  9  1  0  0  0  0
  6  8  1  0  0  0  0
  6  7  1  0  0  0  0
 10  5  1  0  0  0  0
 11  3  1  0  0  0  0
 11 10  2  0  0  0  0
 12 11  1  0  0  0  0
 13 12  1  0  0  0  0
 14 12  1  0  0  0  0
 15 12  1  0  0  0  0
 16 10  1  0  0  0  0
 16 25  1  0  0  0  0
 17 18  1  0  0  0  0
 17 16  1  0  0  0  0
 19 17  1  0  0  0  0
 20 17  1  0  0  0  0
 21 23  1  0  0  0  0
 21 16  1  0  0  0  0
 22 21  1  0  0  0  0
 24 21  1  0  0  0  0
 25 28  1  0  0  0  0
 25 26  1  0  0  0  0
 27 25  1  0  0  0  0
 29 30  1  0  0  0  0
 30 31  1  0  0  0  0
 31 32  1  6  0  0  0
 32 35  1  0  0  0  0
 32 33  1  0  0  0  0
 34 32  1  0  0  0  0
 36 31  1  0  0  0  0
 37 29  1  0  0  0  0
 37 36  2  0  0  0  0
 38 37  1  0  0  0  0
 39 38  1  0  0  0  0
 40 38  1  0  0  0  0
 41 38  1  0  0  0  0
 42 43  1  0  0  0  0
 42 36  1  0  0  0  0
 42 47  1  0  0  0  0
 43 46  1  0  0  0  0
 44 43  1  0  0  0  0
 45 43  1  0  0  0  0
 47 48  1  0  0  0  0
 49 47  1  0  0  0  0
 50 47  1  0  0  0  0
 51 42  1  0  0  0  0
 52 51  1  0  0  0  0
 53 51  1  0  0  0  0
 54 51  1  0  0  0  0
 55 56  1  0  0  0  0
 56 57  1  0  0  0  0
 57 58  1  6  0  0  0
 58 60  1  0  0  0  0
 58 59  1  0  0  0  0
 61 58  1  0  0  0  0
 62 57  1  0  0  0  0
 63 55  1  0  0  0  0
 63 62  2  0  0  0  0
 64 63  1  0  0  0  0
 65 64  1  0  0  0  0
 66 64  1  0  0  0  0
 67 64  1  0  0  0  0
 68 62  1  0  0  0  0
 68 73  1  0  0  0  0
 69 68  1  0  0  0  0
 69 72  1  0  0  0  0
 70 69  1  0  0  0  0
 71 69  1  0  0  0  0
 73 74  1  0  0  0  0
 73 75  1  0  0  0  0
 76 73  1  0  0  0  0
 77 79  1  0  0  0  0
 77 68  1  0  0  0  0
 78 77  1  0  0  0  0
 80 77  1  0  0  0  0
M  END
