1,2,5
 OpenBabel05122313063D

 60 61  0  0  0  0  0  0  0  0999 V2000
   -1.2913    2.2384   -0.5572 N   0  0  0  0  0  2  0  0  0  0  0  0
   -1.6580   -0.1870   -0.3104 N   0  0  0  0  0  2  0  0  0  0  0  0
   -1.7325   -1.5644    0.0610 C   0  0  0  0  0  0  0  0  0  0  0  0
   -1.1302   -2.5310   -0.7886 C   0  0  0  0  0  0  0  0  0  0  0  0
    1.0881    2.3489    0.1948 N   0  0  0  0  0  2  0  0  0  0  0  0
   -2.7451    0.4498   -0.7384 C   0  0  0  0  0  0  0  0  0  0  0  0
   -2.5468    1.8865   -0.9224 C   0  0  0  0  0  0  0  0  0  0  0  0
    1.1648    4.6845   -0.0338 O   0  0  0  0  0  0  0  0  0  0  0  0
   -3.4386    2.8814   -1.3752 C   0  0  0  0  0  0  0  0  0  0  0  0
   -4.4645    2.6224   -1.6716 H   0  0  0  0  0  0  0  0  0  0  0  0
   -0.8361    3.4950   -0.6065 C   0  0  0  0  0  0  0  0  0  0  0  0
   -2.3112   -1.9138    1.3096 C   0  0  0  0  0  0  0  0  0  0  0  0
    0.5748   -3.0152   -2.6316 C   0  0  0  0  0  0  0  0  0  0  0  0
    1.3502   -3.1551   -1.8548 H   0  0  0  0  0  0  0  0  0  0  0  0
    1.0654   -2.5555   -3.5123 H   0  0  0  0  0  0  0  0  0  0  0  0
    0.2041   -4.0144   -2.9429 H   0  0  0  0  0  0  0  0  0  0  0  0
   -2.9638   -0.8900    2.2366 C   0  0  0  0  0  0  0  0  0  0  0  0
   -2.9974    0.0827    1.7070 H   0  0  0  0  0  0  0  0  0  0  0  0
   -1.6657    4.5352   -1.0459 C   0  0  0  0  0  0  0  0  0  0  0  0
   -1.2671    5.5590   -1.0690 H   0  0  0  0  0  0  0  0  0  0  0  0
   -0.5609   -2.1143   -2.1369 C   0  0  0  0  0  0  0  0  0  0  0  0
   -0.1430   -1.0956   -1.9880 H   0  0  0  0  0  0  0  0  0  0  0  0
    0.5865    3.5946   -0.1188 C   0  0  0  0  0  0  0  0  0  0  0  0
   -2.2484   -3.2655    1.7014 C   0  0  0  0  0  0  0  0  0  0  0  0
   -2.6753   -3.5622    2.6718 H   0  0  0  0  0  0  0  0  0  0  0  0
   -4.0764   -0.1856   -0.9853 C   0  0  0  0  0  0  0  0  0  0  0  0
   -4.0183   -1.2871   -0.9258 H   0  0  0  0  0  0  0  0  0  0  0  0
   -4.4638    0.1046   -1.9837 H   0  0  0  0  0  0  0  0  0  0  0  0
   -4.8205    0.1642   -0.2379 H   0  0  0  0  0  0  0  0  0  0  0  0
   -1.6517   -4.2323    0.8861 C   0  0  0  0  0  0  0  0  0  0  0  0
   -1.6108   -5.2813    1.2160 H   0  0  0  0  0  0  0  0  0  0  0  0
   -2.9808    4.2098   -1.4334 C   0  0  0  0  0  0  0  0  0  0  0  0
   -3.6609    5.0009   -1.7833 H   0  0  0  0  0  0  0  0  0  0  0  0
   -1.1056   -3.8650   -0.3513 C   0  0  0  0  0  0  0  0  0  0  0  0
   -0.6377   -4.6302   -0.9865 H   0  0  0  0  0  0  0  0  0  0  0  0
    2.4344    2.3223    0.7511 C   0  0  0  0  0  0  0  0  0  0  0  0
    2.9965    1.4994    0.2713 H   0  0  0  0  0  0  0  0  0  0  0  0
    2.9387    3.2772    0.4931 H   0  0  0  0  0  0  0  0  0  0  0  0
    2.4386    2.1381    2.2749 C   0  0  0  0  0  0  0  0  0  0  0  0
    1.8120    1.2535    2.5217 H   0  0  0  0  0  0  0  0  0  0  0  0
    1.9453    3.0197    2.7372 H   0  0  0  0  0  0  0  0  0  0  0  0
   -1.6698   -2.0080   -3.2011 C   0  0  0  0  0  0  0  0  0  0  0  0
   -2.4619   -1.2907   -2.9114 H   0  0  0  0  0  0  0  0  0  0  0  0
   -2.1522   -2.9938   -3.3670 H   0  0  0  0  0  0  0  0  0  0  0  0
   -1.2468   -1.6677   -4.1684 H   0  0  0  0  0  0  0  0  0  0  0  0
   -2.1431   -0.6625    3.5187 C   0  0  0  0  0  0  0  0  0  0  0  0
   -1.1428   -0.2447    3.2910 H   0  0  0  0  0  0  0  0  0  0  0  0
   -1.9976   -1.6090    4.0788 H   0  0  0  0  0  0  0  0  0  0  0  0
   -2.6599    0.0532    4.1901 H   0  0  0  0  0  0  0  0  0  0  0  0
   -4.4130   -1.2821    2.5760 C   0  0  0  0  0  0  0  0  0  0  0  0
   -5.0138   -1.4649    1.6628 H   0  0  0  0  0  0  0  0  0  0  0  0
   -4.9075   -0.4801    3.1613 H   0  0  0  0  0  0  0  0  0  0  0  0
   -4.4510   -2.2072    3.1871 H   0  0  0  0  0  0  0  0  0  0  0  0
    3.8438    1.9518    2.8631 C   0  0  0  0  0  0  0  0  0  0  0  0
    4.4761    2.8260    2.5886 H   0  0  0  0  0  0  0  0  0  0  0  0
    3.7682    1.9748    3.9720 H   0  0  0  0  0  0  0  0  0  0  0  0
    4.5374    0.6552    2.4327 C   0  0  0  0  0  0  0  0  0  0  0  0
    5.5204    0.5369    2.9326 H   0  0  0  0  0  0  0  0  0  0  0  0
    4.7198    0.6196    1.3394 H   0  0  0  0  0  0  0  0  0  0  0  0
    3.9197   -0.2329    2.6802 H   0  0  0  0  0  0  0  0  0  0  0  0
  2  3  1  0  0  0  0
  3 12  1  0  0  0  0
  4 34  1  0  0  0  0
  4  3  2  0  0  0  0
  5 36  1  0  0  0  0
  6  2  1  0  0  0  0
  7  6  2  0  0  0  0
  7  1  1  0  0  0  0
  9  7  1  0  0  0  0
 10  9  1  0  0  0  0
 11  1  1  0  0  0  0
 11 23  1  0  0  0  0
 12 24  2  0  0  0  0
 12 17  1  0  0  0  0
 13 21  1  0  0  0  0
 13 14  1  0  0  0  0
 15 13  1  0  0  0  0
 16 13  1  0  0  0  0
 17 50  1  0  0  0  0
 17 46  1  0  0  0  0
 18 17  1  0  0  0  0
 19 11  2  0  0  0  0
 20 19  1  0  0  0  0
 21 22  1  0  0  0  0
 21  4  1  0  0  0  0
 23  8  2  0  0  0  0
 23  5  1  0  0  0  0
 24 25  1  0  0  0  0
 26 27  1  0  0  0  0
 26  6  1  0  0  0  0
 26 29  1  0  0  0  0
 28 26  1  0  0  0  0
 30 31  1  0  0  0  0
 30 24  1  0  0  0  0
 32  9  2  0  0  0  0
 32 19  1  0  0  0  0
 33 32  1  0  0  0  0
 34 30  2  0  0  0  0
 35 34  1  0  0  0  0
 36 39  1  0  0  0  0
 37 36  1  0  0  0  0
 38 36  1  0  0  0  0
 39 40  1  0  0  0  0
 39 41  1  0  0  0  0
 39 54  1  0  0  0  0
 42 43  1  0  0  0  0
 42 21  1  0  0  0  0
 44 42  1  0  0  0  0
 45 42  1  0  0  0  0
 46 48  1  0  0  0  0
 46 49  1  0  0  0  0
 47 46  1  0  0  0  0
 50 52  1  0  0  0  0
 50 53  1  0  0  0  0
 51 50  1  0  0  0  0
 54 56  1  0  0  0  0
 55 54  1  0  0  0  0
 57 60  1  0  0  0  0
 57 54  1  0  0  0  0
 57 58  1  0  0  0  0
 59 57  1  0  0  0  0
M  END
