1,2,14
 OpenBabel05122313063D

 34 34  0  0  0  0  0  0  0  0999 V2000
   -2.3184    0.4805    0.4571 N   0  0  0  0  0  2  0  0  0  0  0  0
    2.2126   -0.7948    0.9302 N   0  0  0  0  0  0  0  0  0  0  0  0
   -2.7419   -0.2181    1.5324 C   0  0  0  0  0  0  0  0  0  0  0  0
   -3.2046    1.1538   -0.2813 C   0  0  0  0  0  0  0  0  0  0  0  0
   -2.7935    1.7159   -1.1373 H   0  0  0  0  0  0  0  0  0  0  0  0
   -4.1004   -0.2769    1.8950 C   0  0  0  0  0  0  0  0  0  0  0  0
   -4.4126   -0.8604    2.7742 H   0  0  0  0  0  0  0  0  0  0  0  0
   -4.5810    1.1565    0.0118 C   0  0  0  0  0  0  0  0  0  0  0  0
   -5.2778    1.7231   -0.6224 H   0  0  0  0  0  0  0  0  0  0  0  0
   -5.0336    0.4238    1.1174 C   0  0  0  0  0  0  0  0  0  0  0  0
   -6.1033    0.3985    1.3737 H   0  0  0  0  0  0  0  0  0  0  0  0
   -1.7069   -0.9191    2.3193 C   0  0  0  0  0  0  0  0  0  0  0  0
   -2.0533   -1.5455    3.1727 H   0  0  0  0  0  0  0  0  0  0  0  0
   -0.4688   -0.8019    2.0123 N   0  0  0  0  0  2  0  0  0  0  0  0
    1.7041   -1.8938    1.7634 C   0  0  0  0  0  0  0  0  0  0  0  0
    2.5157   -2.3846    2.3532 H   0  0  0  0  0  0  0  0  0  0  0  0
    1.2955   -2.6584    1.0694 H   0  0  0  0  0  0  0  0  0  0  0  0
    0.5915   -1.4679    2.7296 C   0  0  0  0  0  0  0  0  0  0  0  0
    0.2321   -2.3549    3.2999 H   0  0  0  0  0  0  0  0  0  0  0  0
    0.9965   -0.7487    3.4764 H   0  0  0  0  0  0  0  0  0  0  0  0
    2.8170    0.3188    1.6942 C   0  0  0  0  0  0  0  0  0  0  0  0
    2.0386    0.7272    2.3710 H   0  0  0  0  0  0  0  0  0  0  0  0
    3.0106    1.1397    0.9759 H   0  0  0  0  0  0  0  0  0  0  0  0
    4.0836   -0.0124    2.4865 C   0  0  0  0  0  0  0  0  0  0  0  0
    3.9155   -0.7946    3.2551 H   0  0  0  0  0  0  0  0  0  0  0  0
    4.4406    0.8947    3.0135 H   0  0  0  0  0  0  0  0  0  0  0  0
    4.9073   -0.3574    1.8296 H   0  0  0  0  0  0  0  0  0  0  0  0
    3.0887   -1.3465   -0.1301 C   0  0  0  0  0  0  0  0  0  0  0  0
    3.9343   -1.9163    0.3287 H   0  0  0  0  0  0  0  0  0  0  0  0
    2.4692   -2.0837   -0.6835 H   0  0  0  0  0  0  0  0  0  0  0  0
    3.6242   -0.3102   -1.1084 C   0  0  0  0  0  0  0  0  0  0  0  0
    2.8058    0.3045   -1.5361 H   0  0  0  0  0  0  0  0  0  0  0  0
    4.1318   -0.8285   -1.9453 H   0  0  0  0  0  0  0  0  0  0  0  0
    4.3599    0.3797   -0.6493 H   0  0  0  0  0  0  0  0  0  0  0  0
  1  3  1  0  0  0  0
  2 21  1  0  0  0  0
  2 15  1  0  0  0  0
  3  6  1  0  0  0  0
  3 12  2  0  0  0  0
  4  8  2  0  0  0  0
  4  1  1  0  0  0  0
  5  4  1  0  0  0  0
  6  7  1  0  0  0  0
  8 10  1  0  0  0  0
  9  8  1  0  0  0  0
 10 11  1  0  0  0  0
 10  6  2  0  0  0  0
 12 13  1  0  0  0  0
 14 12  1  0  0  0  0
 14 18  1  0  0  0  0
 15 16  1  0  0  0  0
 15 18  1  0  0  0  0
 17 15  1  0  0  0  0
 18 19  1  0  0  0  0
 18 20  1  0  0  0  0
 21 22  1  0  0  0  0
 21 24  1  0  0  0  0
 23 21  1  0  0  0  0
 24 26  1  0  0  0  0
 24 25  1  0  0  0  0
 27 24  1  0  0  0  0
 28 29  1  0  0  0  0
 28  2  1  0  0  0  0
 30 28  1  0  0  0  0
 31 34  1  0  0  0  0
 31 28  1  0  0  0  0
 32 31  1  0  0  0  0
 33 31  1  0  0  0  0
M  END
