1,2,3
 OpenBabel05122313063D

 34 38  0  0  0  0  0  0  0  0999 V2000
    1.1978   -1.6027    0.7936 N   0  0  0  0  0  2  0  0  0  0  0  0
    1.3210   -0.2390   -1.3366 N   0  0  0  0  0  2  0  0  0  0  0  0
   -0.7309    1.1088   -1.1965 N   0  0  0  0  0  0  0  0  0  0  0  0
   -0.4816    2.2630   -3.1892 N   0  0  0  0  0  0  0  0  0  0  0  0
    1.1017   -2.2872    1.9469 C   0  0  0  0  0  0  0  0  0  0  0  0
    0.2116   -2.0908    2.5630 H   0  0  0  0  0  0  0  0  0  0  0  0
    2.0938   -3.2041    2.3579 C   0  0  0  0  0  0  0  0  0  0  0  0
    1.9590   -3.7318    3.3129 H   0  0  0  0  0  0  0  0  0  0  0  0
    3.2275   -3.4307    1.5740 C   0  0  0  0  0  0  0  0  0  0  0  0
    4.0042   -4.1406    1.8957 H   0  0  0  0  0  0  0  0  0  0  0  0
    3.3688   -2.7191    0.3525 C   0  0  0  0  0  0  0  0  0  0  0  0
    2.3167   -1.8236    0.0246 C   0  0  0  0  0  0  0  0  0  0  0  0
    4.4705   -2.8070   -0.5741 C   0  0  0  0  0  0  0  0  0  0  0  0
    5.2957   -3.4954   -0.3370 H   0  0  0  0  0  0  0  0  0  0  0  0
    4.5176   -2.0496   -1.7344 C   0  0  0  0  0  0  0  0  0  0  0  0
    5.3813   -2.1427   -2.4107 H   0  0  0  0  0  0  0  0  0  0  0  0
    3.4655   -1.1339   -2.0786 C   0  0  0  0  0  0  0  0  0  0  0  0
    2.3806   -1.0586   -1.1694 C   0  0  0  0  0  0  0  0  0  0  0  0
    3.3765   -0.2775   -3.2202 C   0  0  0  0  0  0  0  0  0  0  0  0
    4.1854   -0.2806   -3.9664 H   0  0  0  0  0  0  0  0  0  0  0  0
    2.2749    0.5636   -3.3865 C   0  0  0  0  0  0  0  0  0  0  0  0
    2.1866    1.2361   -4.2509 H   0  0  0  0  0  0  0  0  0  0  0  0
    1.2329    0.5778   -2.4186 C   0  0  0  0  0  0  0  0  0  0  0  0
    0.0221    1.3559   -2.3429 C   0  0  0  0  0  0  0  0  0  0  0  0
   -1.6442    2.6493   -2.5726 C   0  0  0  0  0  0  0  0  0  0  0  0
   -1.8132    1.9344   -1.3199 C   0  0  0  0  0  0  0  0  0  0  0  0
   -2.6192    3.5879   -2.9860 C   0  0  0  0  0  3  0  0  0  0  0  0
   -2.4904    4.1306   -3.9341 H   0  0  0  0  0  0  0  0  0  0  0  0
   -3.7247    3.7964   -2.1624 C   0  0  0  0  0  0  0  0  0  0  0  0
   -4.4961    4.5229   -2.4607 H   0  0  0  0  0  0  0  0  0  0  0  0
   -3.8808    3.0921   -0.9341 C   0  0  0  0  0  0  0  0  0  0  0  0
   -4.7671    3.2934   -0.3129 H   0  0  0  0  0  0  0  0  0  0  0  0
   -2.9391    2.1605   -0.4958 C   0  0  0  0  0  0  0  0  0  0  0  0
   -3.0680    1.6308    0.4580 H   0  0  0  0  0  0  0  0  0  0  0  0
  1  5  1  0  0  0  0
  2 18  1  0  0  0  0
  4 25  2  0  0  0  0
  4 24  1  0  0  0  0
  5  7  2  0  0  0  0
  5  6  1  0  0  0  0
  7  8  1  0  0  0  0
  9 10  1  0  0  0  0
  9  7  1  0  0  0  0
 11  9  2  0  0  0  0
 12 11  1  0  0  0  0
 12  1  1  0  0  0  0
 13 14  1  0  0  0  0
 13 11  1  0  0  0  0
 15 13  2  0  0  0  0
 16 15  1  0  0  0  0
 17 15  1  0  0  0  0
 17 18  1  0  0  0  0
 18 12  2  0  0  0  0
 19 17  2  0  0  0  0
 20 19  1  0  0  0  0
 21 19  1  0  0  0  0
 21 23  2  0  0  0  0
 22 21  1  0  0  0  0
 23 24  1  0  0  0  0
 23  2  1  0  0  0  0
 24  3  2  0  0  0  0
 25 26  1  0  0  0  0
 26  3  1  0  0  0  0
 26 33  2  0  0  0  0
 27 25  1  0  0  0  0
 27 29  1  0  0  0  0
 28 27  1  0  0  0  0
 29 31  2  0  0  0  0
 30 29  1  0  0  0  0
 31 33  1  0  0  0  0
 31 32  1  0  0  0  0
 33 34  1  0  0  0  0
M  END
