2,4,7
 OpenBabel05122313063D

 46 50  0  0  1  0  0  0  0  0999 V2000
   -1.2867    2.9383   -0.3175 O   0  0  0  0  0  0  0  0  0  0  0  0
    1.6834    0.9951   -0.3484 N   0  0  0  0  0  2  0  0  0  0  0  0
    1.1185    2.2253   -0.3720 C   0  0  0  0  0  0  0  0  0  0  0  0
    2.3954   -1.4024   -0.0462 N   0  0  0  0  0  2  0  0  0  0  0  0
    1.9414    3.3789   -0.4082 C   0  0  0  0  0  0  0  0  0  0  0  0
    1.4782    4.3748   -0.4333 H   0  0  0  0  0  0  0  0  0  0  0  0
   -0.7430    0.7571   -0.2033 N   0  0  0  0  0  2  0  0  0  0  0  0
    3.3329    3.2323   -0.4009 C   0  0  0  0  0  0  0  0  0  0  0  0
    3.9741    4.1255   -0.4320 H   0  0  0  0  0  0  0  0  0  0  0  0
    3.9262    1.9351   -0.3294 C   0  0  0  0  0  0  0  0  0  0  0  0
    5.3239    1.5892   -0.2707 C   0  0  0  0  0  0  0  0  0  0  0  0
    6.0730    2.3943   -0.3055 H   0  0  0  0  0  0  0  0  0  0  0  0
    5.7373    0.2715   -0.1656 C   0  0  0  0  0  0  0  0  0  0  0  0
    6.8126    0.0426   -0.1223 H   0  0  0  0  0  0  0  0  0  0  0  0
    4.8018   -0.8285   -0.0922 C   0  0  0  0  0  0  0  0  0  0  0  0
    5.1046   -2.2101    0.0495 C   0  0  0  0  0  0  0  0  0  0  0  0
    6.1505   -2.5483    0.0994 H   0  0  0  0  0  0  0  0  0  0  0  0
    4.0552   -3.1269    0.1305 C   0  0  0  0  0  0  0  0  0  0  0  0
    4.2589   -4.2012    0.2427 H   0  0  0  0  0  0  0  0  0  0  0  0
    2.7063   -2.6981    0.0873 C   0  0  0  0  0  0  0  0  0  0  0  0
    1.8567   -3.3905    0.1872 H   0  0  0  0  0  0  0  0  0  0  0  0
    3.4264   -0.5024   -0.1509 C   0  0  0  0  0  0  0  0  0  0  0  0
    3.0214    0.8479   -0.2929 C   0  0  0  0  0  0  0  0  0  0  0  0
   -0.3080    2.0209   -0.3069 C   0  0  1  0  0  3  0  0  0  0  0  0
   -2.1294    0.8335   -0.1392 C   0  0  0  0  0  0  0  0  0  0  0  0
   -3.1292   -0.1461   -0.0208 C   0  0  0  0  0  0  0  0  0  0  0  0
   -2.8359   -1.1984    0.0609 H   0  0  0  0  0  0  0  0  0  0  0  0
   -4.4666    0.2794    0.0196 C   0  0  0  0  0  0  0  0  0  0  0  0
   -4.7564    1.6763   -0.0605 C   0  0  0  0  0  0  0  0  0  0  0  0
   -5.8065    2.0003   -0.0268 H   0  0  0  0  0  0  0  0  0  0  0  0
   -3.7740    2.6680   -0.1759 C   0  0  0  0  0  0  0  0  0  0  0  0
   -4.0222    3.7363   -0.2324 H   0  0  0  0  0  0  0  0  0  0  0  0
   -2.4604    2.2070   -0.2120 C   0  0  0  0  0  0  0  0  0  0  0  0
   -5.6266   -0.7195    0.1586 C   0  0  0  0  0  0  0  0  0  0  0  0
   -6.3935   -0.4169    1.4671 C   0  0  0  0  0  0  0  0  0  0  0  0
   -7.2363   -1.1273    1.5857 H   0  0  0  0  0  0  0  0  0  0  0  0
   -6.8175    0.6068    1.4756 H   0  0  0  0  0  0  0  0  0  0  0  0
   -5.7312   -0.5192    2.3501 H   0  0  0  0  0  0  0  0  0  0  0  0
   -6.5762   -0.5659   -1.0519 C   0  0  0  0  0  0  0  0  0  0  0  0
   -6.0469   -0.7722   -2.0040 H   0  0  0  0  0  0  0  0  0  0  0  0
   -7.0118    0.4508   -1.1175 H   0  0  0  0  0  0  0  0  0  0  0  0
   -7.4182   -1.2819   -0.9659 H   0  0  0  0  0  0  0  0  0  0  0  0
   -5.1249   -2.1729    0.2076 C   0  0  0  0  0  0  0  0  0  0  0  0
   -4.4540   -2.3534    1.0713 H   0  0  0  0  0  0  0  0  0  0  0  0
   -4.5830   -2.4545   -0.7181 H   0  0  0  0  0  0  0  0  0  0  0  0
   -5.9869   -2.8611    0.3081 H   0  0  0  0  0  0  0  0  0  0  0  0
  1 24  1  0  0  0  0
  1 33  1  0  0  0  0
  2 23  1  0  0  0  0
  3  2  1  0  0  0  0
  4 20  1  0  0  0  0
  5  8  1  0  0  0  0
  5  3  2  0  0  0  0
  6  5  1  0  0  0  0
  7 25  1  0  0  0  0
  8 10  2  0  0  0  0
  9  8  1  0  0  0  0
 10 23  1  0  0  0  0
 10 11  1  0  0  0  0
 11 13  2  0  0  0  0
 12 11  1  0  0  0  0
 13 14  1  0  0  0  0
 13 15  1  0  0  0  0
 15 16  2  0  0  0  0
 16 17  1  0  0  0  0
 16 18  1  0  0  0  0
 18 19  1  0  0  0  0
 20 18  2  0  0  0  0
 20 21  1  0  0  0  0
 22 15  1  0  0  0  0
 22  4  1  0  0  0  0
 23 22  2  0  0  0  0
 24  3  1  1  0  0  0
 24  7  1  0  0  0  0
 25 26  1  0  0  0  0
 26 28  2  0  0  0  0
 26 27  1  0  0  0  0
 28 34  1  0  0  0  0
 29 30  1  0  0  0  0
 29 28  1  0  0  0  0
 31 29  2  0  0  0  0
 32 31  1  0  0  0  0
 33 31  1  0  0  0  0
 33 25  2  0  0  0  0
 34 43  1  0  0  0  0
 34 35  1  0  0  0  0
 35 37  1  0  0  0  0
 35 36  1  0  0  0  0
 35 38  1  0  0  0  0
 39 42  1  0  0  0  0
 39 34  1  0  0  0  0
 40 39  1  0  0  0  0
 41 39  1  0  0  0  0
 43 46  1  0  0  0  0
 43 44  1  0  0  0  0
 45 43  1  0  0  0  0
M  END
