2,3,4
 OpenBabel05122313063D

 37 41  0  0  1  0  0  0  0  0999 V2000
    2.2701    2.5280   -0.0777 O   0  0  0  0  0  0  0  0  0  0  0  0
   -0.9439    0.9836    0.0873 N   0  0  0  0  0  2  0  0  0  0  0  0
   -2.0251   -1.2855   -0.0463 N   0  0  0  0  0  2  0  0  0  0  0  0
    1.4331    0.4232    0.0341 N   0  0  0  0  0  2  0  0  0  0  0  0
   -0.2076    2.1368    0.0503 C   0  0  0  0  0  0  0  0  0  0  0  0
   -0.8569    3.3975    0.0516 C   0  0  0  0  0  0  0  0  0  0  0  0
   -0.2500    4.3134    0.0324 H   0  0  0  0  0  0  0  0  0  0  0  0
   -2.2530    3.4610    0.0616 C   0  0  0  0  0  0  0  0  0  0  0  0
   -2.7594    4.4373    0.0574 H   0  0  0  0  0  0  0  0  0  0  0  0
   -3.0277    2.2583    0.0487 C   0  0  0  0  0  0  0  0  0  0  0  0
   -4.4587    2.1272    0.0006 C   0  0  0  0  0  0  0  0  0  0  0  0
   -5.0746    3.0396    0.0022 H   0  0  0  0  0  0  0  0  0  0  0  0
   -5.0725    0.8851   -0.0612 C   0  0  0  0  0  0  0  0  0  0  0  0
   -6.1706    0.8233   -0.1072 H   0  0  0  0  0  0  0  0  0  0  0  0
   -4.3191   -0.3445   -0.0854 C   0  0  0  0  0  0  0  0  0  0  0  0
   -4.8345   -1.6638   -0.1903 C   0  0  0  0  0  0  0  0  0  0  0  0
   -5.9202   -1.8331   -0.2495 H   0  0  0  0  0  0  0  0  0  0  0  0
   -3.9364   -2.7343   -0.2319 C   0  0  0  0  0  0  0  0  0  0  0  0
   -4.3038   -3.7666   -0.3247 H   0  0  0  0  0  0  0  0  0  0  0  0
   -2.5413   -2.5192   -0.1640 C   0  0  0  0  0  0  0  0  0  0  0  0
   -1.8045   -3.3372   -0.2006 H   0  0  0  0  0  0  0  0  0  0  0  0
   -2.9062   -0.2311   -0.0175 C   0  0  0  0  0  0  0  0  0  0  0  0
   -2.2980    1.0452    0.0557 C   0  0  0  0  0  0  0  0  0  0  0  0
    1.1687    1.7392    0.0049 C   0  0  2  0  0  3  0  0  0  0  0  0
    2.8156    0.3216   -0.0578 C   0  0  0  0  0  0  0  0  0  0  0  0
    3.6744   -0.7889   -0.0864 C   0  0  0  0  0  0  0  0  0  0  0  0
    3.2457   -1.8013   -0.0426 H   0  0  0  0  0  0  0  0  0  0  0  0
    5.0560   -0.5449   -0.1808 C   0  0  0  0  0  0  0  0  0  0  0  0
    5.5390    0.7927   -0.2389 C   0  0  0  0  0  0  0  0  0  0  0  0
    6.6255    0.9566   -0.3120 H   0  0  0  0  0  0  0  0  0  0  0  0
    4.6922    1.9121   -0.2118 C   0  0  0  0  0  0  0  0  0  0  0  0
    5.0777    2.9396   -0.2603 H   0  0  0  0  0  0  0  0  0  0  0  0
    3.3296    1.6373   -0.1226 C   0  0  0  0  0  0  0  0  0  0  0  0
    6.0344   -1.6926   -0.2398 C   0  0  0  0  0  0  0  0  0  0  0  0
    5.5320   -2.6623   -0.0637 H   0  0  0  0  0  0  0  0  0  0  0  0
    6.8401   -1.5782    0.5143 H   0  0  0  0  0  0  0  0  0  0  0  0
    6.5277   -1.7448   -1.2333 H   0  0  0  0  0  0  0  0  0  0  0  0
  1 24  1  0  0  0  0
  3 22  1  0  0  0  0
  5  6  2  0  0  0  0
  5  2  1  0  0  0  0
  6  8  1  0  0  0  0
  7  6  1  0  0  0  0
  9  8  1  0  0  0  0
 10 23  1  0  0  0  0
 10  8  2  0  0  0  0
 11 12  1  0  0  0  0
 11 10  1  0  0  0  0
 13 11  2  0  0  0  0
 14 13  1  0  0  0  0
 15 13  1  0  0  0  0
 15 22  1  0  0  0  0
 16 15  2  0  0  0  0
 17 16  1  0  0  0  0
 18 16  1  0  0  0  0
 18 20  2  0  0  0  0
 19 18  1  0  0  0  0
 20  3  1  0  0  0  0
 21 20  1  0  0  0  0
 22 23  2  0  0  0  0
 23  2  1  0  0  0  0
 24  4  1  0  0  0  0
 24  5  1  6  0  0  0
 25  4  1  0  0  0  0
 26 25  1  0  0  0  0
 26 27  1  0  0  0  0
 28 26  2  0  0  0  0
 29 31  2  0  0  0  0
 29 28  1  0  0  0  0
 30 29  1  0  0  0  0
 31 33  1  0  0  0  0
 32 31  1  0  0  0  0
 33  1  1  0  0  0  0
 33 25  2  0  0  0  0
 34 28  1  0  0  0  0
 34 35  1  0  0  0  0
 34 36  1  0  0  0  0
 37 34  1  0  0  0  0
M  END
