9,10,16
 OpenBabel05122313063D

 46 50  0  0  1  0  0  0  0  0999 V2000
   -1.9091    3.5366    0.7519 N   0  0  0  0  0  0  0  0  0  0  0  0
   -2.7739    0.1839   -0.1593 N   0  0  0  0  0  0  0  0  0  0  0  0
   -2.2348   -1.0371   -0.2601 C   0  0  0  0  0  0  0  0  0  0  0  0
    0.3182    2.1996   -0.9383 C   0  0  2  0  0  3  0  0  0  0  0  0
   -4.1059    2.6587    0.2313 C   0  0  0  0  0  0  0  0  0  0  0  0
   -4.6965    1.8215   -0.1647 H   0  0  0  0  0  0  0  0  0  0  0  0
   -0.8136   -1.1604   -0.1237 C   0  0  0  0  0  0  0  0  0  0  0  0
   -2.6983    2.5518    0.2779 C   0  0  0  0  0  0  0  0  0  0  0  0
    1.6206    1.8538   -0.8167 N   0  0  0  0  0  2  0  0  0  0  0  0
   -0.0996   -0.0497   -0.3317 N   0  0  0  0  0  2  0  0  0  0  0  0
   -3.1612   -2.1515   -0.5863 C   0  0  0  0  0  0  0  0  0  0  0  0
   -0.6358    1.1688   -0.4582 C   0  0  0  0  0  0  0  0  0  0  0  0
   -0.0120   -2.3457    0.2774 C   0  0  0  0  0  0  0  0  0  0  0  0
   -2.0268    1.2957   -0.1432 C   0  0  0  0  0  0  0  0  0  0  0  0
   -2.6447   -3.1888   -1.2768 N   0  0  0  0  0  0  0  0  0  0  0  0
    1.3223   -2.1921    0.1237 N   0  0  0  0  0  2  0  0  0  0  0  0
   -2.4899    4.6555    1.1983 C   0  0  0  0  0  0  0  0  0  0  0  0
   -1.8111    5.4365    1.5847 H   0  0  0  0  0  0  0  0  0  0  0  0
   -4.7014    3.8365    0.6970 C   0  0  0  0  0  0  0  0  0  0  0  0
   -5.7954    3.9554    0.6715 H   0  0  0  0  0  0  0  0  0  0  0  0
   -0.0592    3.4018   -1.5661 C   0  0  0  0  0  0  0  0  0  0  0  0
   -1.1194    3.6469   -1.7034 H   0  0  0  0  0  0  0  0  0  0  0  0
    0.3260   -4.5443    1.2184 C   0  0  0  0  0  0  0  0  0  0  0  0
   -0.0699   -5.4638    1.6751 H   0  0  0  0  0  0  0  0  0  0  0  0
    2.2887    3.9065   -1.8606 C   0  0  0  0  0  0  0  0  0  0  0  0
    3.1024    4.5598   -2.2062 H   0  0  0  0  0  0  0  0  0  0  0  0
   -3.4677   -4.1819   -1.6334 C   0  0  0  0  0  0  0  0  0  0  0  0
   -3.0123   -5.0127   -2.2014 H   0  0  0  0  0  0  0  0  0  0  0  0
    2.1606   -3.1794    0.4627 C   0  0  0  0  0  0  0  0  0  0  0  0
    3.2307   -2.9636    0.2959 H   0  0  0  0  0  0  0  0  0  0  0  0
    0.9418    4.2630   -2.0287 C   0  0  0  0  0  0  0  0  0  0  0  0
    0.6699    5.2066   -2.5252 H   0  0  0  0  0  0  0  0  0  0  0  0
   -4.5257   -2.0726   -0.2316 C   0  0  0  0  0  0  0  0  0  0  0  0
   -4.8879   -1.1992    0.3276 H   0  0  0  0  0  0  0  0  0  0  0  0
    2.5831    2.6759   -1.2580 C   0  0  0  0  0  0  0  0  0  0  0  0
    3.6137    2.2989   -1.1372 H   0  0  0  0  0  0  0  0  0  0  0  0
    1.7032   -4.3901    1.0023 C   0  0  0  0  0  0  0  0  0  0  0  0
    2.4178   -5.1825    1.2671 H   0  0  0  0  0  0  0  0  0  0  0  0
   -4.8395   -4.2017   -1.3237 C   0  0  0  0  0  0  0  0  0  0  0  0
   -5.4694   -5.0461   -1.6400 H   0  0  0  0  0  0  0  0  0  0  0  0
   -5.3739   -3.1213   -0.6058 C   0  0  0  0  0  0  0  0  0  0  0  0
   -6.4413   -3.0974   -0.3386 H   0  0  0  0  0  0  0  0  0  0  0  0
   -3.8816    4.8599    1.1954 C   0  0  0  0  0  0  0  0  0  0  0  0
   -4.3070    5.8004    1.5755 H   0  0  0  0  0  0  0  0  0  0  0  0
   -0.5477   -3.5137    0.8518 C   0  0  0  0  0  0  0  0  0  0  0  0
   -1.6260   -3.6087    1.0248 H   0  0  0  0  0  0  0  0  0  0  0  0
  1 17  1  0  0  0  0
  2 14  1  0  0  0  0
  3  2  2  0  0  0  0
  3  7  1  0  0  0  0
  4  9  1  0  0  0  0
  4 12  1  6  0  0  0
  5  8  1  0  0  0  0
  5 19  2  0  0  0  0
  6  5  1  0  0  0  0
  7 13  2  0  0  0  0
  8  1  2  0  0  0  0
 10  7  1  0  0  0  0
 11  3  1  0  0  0  0
 11 33  1  0  0  0  0
 12 10  1  0  0  0  0
 12 14  2  0  0  0  0
 13 45  1  0  0  0  0
 14  8  1  0  0  0  0
 15 11  2  0  0  0  0
 16 13  1  0  0  0  0
 16 29  1  0  0  0  0
 17 18  1  0  0  0  0
 19 43  1  0  0  0  0
 20 19  1  0  0  0  0
 21  4  1  0  0  0  0
 22 21  1  0  0  0  0
 23 24  1  0  0  0  0
 25 35  2  0  0  0  0
 26 25  1  0  0  0  0
 27 39  2  0  0  0  0
 27 15  1  0  0  0  0
 28 27  1  0  0  0  0
 29 37  2  0  0  0  0
 30 29  1  0  0  0  0
 31 25  1  0  0  0  0
 31 21  2  0  0  0  0
 32 31  1  0  0  0  0
 33 34  1  0  0  0  0
 35 36  1  0  0  0  0
 35  9  1  0  0  0  0
 37 23  1  0  0  0  0
 37 38  1  0  0  0  0
 39 41  1  0  0  0  0
 40 39  1  0  0  0  0
 41 42  1  0  0  0  0
 41 33  2  0  0  0  0
 43 17  2  0  0  0  0
 43 44  1  0  0  0  0
 45 46  1  0  0  0  0
 45 23  2  0  0  0  0
M  END
