1,2,3
 OpenBabel05122313063D

 67 69  0  0  1  0  0  0  0  0999 V2000
   -2.1387    0.3971   -0.1403 N   0  0  0  0  0  2  0  0  0  0  0  0
    0.0000    1.9061   -0.1633 N   0  0  0  0  0  2  0  0  0  0  0  0
    2.1387    0.3971   -0.1403 N   0  0  0  0  0  2  0  0  0  0  0  0
   -2.3787    1.6678   -0.1301 C   0  0  0  0  0  0  0  0  0  0  0  0
   -1.1721    2.5507   -0.0852 C   0  0  0  0  0  0  0  0  0  0  0  0
   -1.2133    3.9526    0.0478 C   0  0  0  0  0  0  0  0  0  0  0  0
   -2.1715    4.4852    0.1137 H   0  0  0  0  0  0  0  0  0  0  0  0
    0.0000    4.6530    0.1125 C   0  0  0  0  0  0  0  0  0  0  0  0
   -0.0000    5.7472    0.2241 H   0  0  0  0  0  0  0  0  0  0  0  0
    1.2133    3.9526    0.0478 C   0  0  0  0  0  0  0  0  0  0  0  0
    2.1715    4.4852    0.1136 H   0  0  0  0  0  0  0  0  0  0  0  0
    1.1721    2.5507   -0.0852 C   0  0  0  0  0  0  0  0  0  0  0  0
    2.3787    1.6678   -0.1301 C   0  0  1  0  0  3  0  0  0  0  0  0
   -3.7450    2.2889   -0.1405 C   0  0  0  0  0  0  0  0  0  0  0  0
   -4.5161    1.5284   -0.3599 H   0  0  0  0  0  0  0  0  0  0  0  0
   -3.8123    3.1080   -0.8838 H   0  0  0  0  0  0  0  0  0  0  0  0
   -3.9672    2.7252    0.8567 H   0  0  0  0  0  0  0  0  0  0  0  0
    3.7450    2.2889   -0.1405 C   0  0  0  0  0  0  0  0  0  0  0  0
    4.5161    1.5284   -0.3599 H   0  0  0  0  0  0  0  0  0  0  0  0
    3.9672    2.7253    0.8566 H   0  0  0  0  0  0  0  0  0  0  0  0
    3.8123    3.1079   -0.8839 H   0  0  0  0  0  0  0  0  0  0  0  0
   -3.1721   -0.5700   -0.2291 C   0  0  0  0  0  0  0  0  0  0  0  0
   -3.3639   -1.2006   -1.4863 C   0  0  0  0  0  0  0  0  0  0  0  0
   -4.3930   -2.1497   -1.5995 C   0  0  0  0  0  0  0  0  0  0  0  0
   -4.5566   -2.6375   -2.5735 H   0  0  0  0  0  0  0  0  0  0  0  0
   -5.1917   -2.4878   -0.4980 C   0  0  0  0  0  0  0  0  0  0  0  0
   -5.9944   -3.2328   -0.6047 H   0  0  0  0  0  0  0  0  0  0  0  0
   -4.9435   -1.8946    0.7451 C   0  0  0  0  0  0  0  0  0  0  0  0
   -5.5412   -2.1864    1.6235 H   0  0  0  0  0  0  0  0  0  0  0  0
   -3.9245   -0.9366    0.9143 C   0  0  0  0  0  0  0  0  0  0  0  0
   -2.4967   -0.8389   -2.6704 C   0  0  0  0  0  0  0  0  0  0  0  0
   -1.4550   -0.7077   -2.3099 H   0  0  0  0  0  0  0  0  0  0  0  0
   -2.4709   -1.7063   -3.3615 H   0  0  0  0  0  0  0  0  0  0  0  0
   -2.9646    0.4057   -3.4377 C   0  0  0  0  0  0  0  0  0  0  0  0
   -2.3083    0.6067   -4.3090 H   0  0  0  0  0  0  0  0  0  0  0  0
   -2.9526    1.3127   -2.7991 H   0  0  0  0  0  0  0  0  0  0  0  0
   -4.0010    0.2817   -3.8130 H   0  0  0  0  0  0  0  0  0  0  0  0
   -3.5760   -0.4422    2.3011 C   0  0  0  0  0  0  0  0  0  0  0  0
   -4.5078   -0.1538    2.8343 H   0  0  0  0  0  0  0  0  0  0  0  0
   -2.9295    0.4562    2.2547 H   0  0  0  0  0  0  0  0  0  0  0  0
   -2.8255   -1.5211    3.0999 C   0  0  0  0  0  0  0  0  0  0  0  0
   -2.5349   -1.1399    4.0985 H   0  0  0  0  0  0  0  0  0  0  0  0
   -1.8952   -1.8092    2.5730 H   0  0  0  0  0  0  0  0  0  0  0  0
   -3.4479   -2.4297    3.2318 H   0  0  0  0  0  0  0  0  0  0  0  0
    3.1721   -0.5700   -0.2291 C   0  0  0  0  0  0  0  0  0  0  0  0
    3.9244   -0.9366    0.9143 C   0  0  0  0  0  0  0  0  0  0  0  0
    4.9435   -1.8946    0.7451 C   0  0  0  0  0  0  0  0  0  0  0  0
    5.5412   -2.1864    1.6235 H   0  0  0  0  0  0  0  0  0  0  0  0
    5.1916   -2.4878   -0.4979 C   0  0  0  0  0  0  0  0  0  0  0  0
    5.9944   -3.2329   -0.6047 H   0  0  0  0  0  0  0  0  0  0  0  0
    4.3930   -2.1497   -1.5995 C   0  0  0  0  0  0  0  0  0  0  0  0
    4.5566   -2.6375   -2.5735 H   0  0  0  0  0  0  0  0  0  0  0  0
    3.3639   -1.2006   -1.4863 C   0  0  0  0  0  0  0  0  0  0  0  0
    2.4967   -0.8389   -2.6704 C   0  0  0  0  0  0  0  0  0  0  0  0
    1.4550   -0.7077   -2.3099 H   0  0  0  0  0  0  0  0  0  0  0  0
    2.4709   -1.7063   -3.3615 H   0  0  0  0  0  0  0  0  0  0  0  0
    2.9647    0.4057   -3.4377 C   0  0  0  0  0  0  0  0  0  0  0  0
    2.3084    0.6066   -4.3090 H   0  0  0  0  0  0  0  0  0  0  0  0
    4.0011    0.2817   -3.8130 H   0  0  0  0  0  0  0  0  0  0  0  0
    2.9527    1.3126   -2.7991 H   0  0  0  0  0  0  0  0  0  0  0  0
    3.5760   -0.4421    2.3011 C   0  0  0  0  0  0  0  0  0  0  0  0
    2.9294    0.4562    2.2547 H   0  0  0  0  0  0  0  0  0  0  0  0
    4.5077   -0.1537    2.8343 H   0  0  0  0  0  0  0  0  0  0  0  0
    2.8256   -1.5211    3.1000 C   0  0  0  0  0  0  0  0  0  0  0  0
    2.5349   -1.1398    4.0986 H   0  0  0  0  0  0  0  0  0  0  0  0
    3.4479   -2.4297    3.2319 H   0  0  0  0  0  0  0  0  0  0  0  0
    1.8952   -1.8092    2.5731 H   0  0  0  0  0  0  0  0  0  0  0  0
  1  4  1  0  0  0  0
  2 12  1  0  0  0  0
  2  5  1  0  0  0  0
  4  5  2  0  0  0  0
  5  6  1  0  0  0  0
  6  8  2  0  0  0  0
  6  7  1  0  0  0  0
  8  9  1  0  0  0  0
 10  8  1  0  0  0  0
 10 11  1  0  0  0  0
 12 10  2  0  0  0  0
 13  3  1  1  0  0  0
 13 12  1  0  0  0  0
 14  4  1  0  0  0  0
 14 17  1  0  0  0  0
 15 14  1  0  0  0  0
 16 14  1  0  0  0  0
 18 13  1  0  0  0  0
 18 20  1  0  0  0  0
 19 18  1  0  0  0  0
 21 18  1  0  0  0  0
 22  1  1  0  0  0  0
 22 30  1  0  0  0  0
 23 22  2  0  0  0  0
 24 23  1  0  0  0  0
 24 26  2  0  0  0  0
 25 24  1  0  0  0  0
 26 28  1  0  0  0  0
 27 26  1  0  0  0  0
 28 30  2  0  0  0  0
 28 29  1  0  0  0  0
 30 38  1  0  0  0  0
 31 32  1  0  0  0  0
 31 23  1  0  0  0  0
 33 31  1  0  0  0  0
 34 36  1  0  0  0  0
 34 31  1  0  0  0  0
 35 34  1  0  0  0  0
 37 34  1  0  0  0  0
 38 39  1  0  0  0  0
 38 41  1  0  0  0  0
 40 38  1  0  0  0  0
 41 44  1  0  0  0  0
 41 42  1  0  0  0  0
 43 41  1  0  0  0  0
 45  3  1  0  0  0  0
 45 46  1  0  0  0  0
 46 61  1  0  0  0  0
 47 46  2  0  0  0  0
 47 48  1  0  0  0  0
 49 47  1  0  0  0  0
 50 49  1  0  0  0  0
 51 53  1  0  0  0  0
 51 49  2  0  0  0  0
 52 51  1  0  0  0  0
 53 45  2  0  0  0  0
 54 55  1  0  0  0  0
 54 53  1  0  0  0  0
 56 54  1  0  0  0  0
 57 60  1  0  0  0  0
 57 54  1  0  0  0  0
 58 57  1  0  0  0  0
 59 57  1  0  0  0  0
 61 63  1  0  0  0  0
 61 64  1  0  0  0  0
 62 61  1  0  0  0  0
 64 66  1  0  0  0  0
 64 65  1  0  0  0  0
 67 64  1  0  0  0  0
M  END
