5,17,23
 OpenBabel05122313063D

 61 65  0  0  1  0  0  0  0  0999 V2000
   -2.0264   -2.0019    0.7953 C   0  0  1  0  0  0  0  0  0  0  0  0
   -2.6662   -3.2292    1.4728 C   0  0  0  0  0  0  0  0  0  0  0  0
    2.3300   -0.0532   -0.6728 C   0  0  2  0  0  0  0  0  0  0  0  0
    1.9466    0.3584   -2.1220 C   0  0  0  0  0  0  0  0  0  0  0  0
   -2.2944   -0.5463   -1.1747 N   0  0  0  0  0  2  0  0  0  0  0  0
   -2.7590   -1.6350   -0.5080 C   0  0  1  0  0  3  0  0  0  0  0  0
   -3.8344   -2.3646   -1.0356 C   0  0  0  0  0  0  0  0  0  0  0  0
   -4.4108   -1.9726   -2.2533 C   0  0  0  0  0  0  0  0  0  0  0  0
   -3.8921   -0.8636   -2.9315 C   0  0  0  0  0  0  0  0  0  0  0  0
   -2.8243   -0.1658   -2.3581 C   0  0  0  0  0  0  0  0  0  0  0  0
   -2.0860   -0.8389    1.8159 C   0  0  0  0  0  0  0  0  0  0  0  0
   -1.1144   -0.7503    2.8350 C   0  0  0  0  0  0  0  0  0  0  0  0
   -1.1874    0.2580    3.8057 C   0  0  0  0  0  0  0  0  0  0  0  0
   -2.2434    1.1839    3.7840 C   0  0  0  0  0  0  0  0  0  0  0  0
   -3.2337    1.0810    2.7956 C   0  0  0  0  0  0  0  0  0  0  0  0
   -3.1601    0.0729    1.8227 C   0  0  0  0  0  0  0  0  0  0  0  0
    0.1895   -1.2123   -0.0002 N   0  0  0  0  0  2  0  0  0  0  0  0
   -0.5601   -2.2798    0.3959 C   0  0  2  0  0  3  0  0  0  0  0  0
    0.0065   -3.5588    0.4136 C   0  0  0  0  0  0  0  0  0  0  0  0
    1.3373   -3.7200    0.0084 C   0  0  0  0  0  0  0  0  0  0  0  0
    2.0938   -2.5978   -0.3351 C   0  0  0  0  0  0  0  0  0  0  0  0
    1.5078   -1.3173   -0.2987 C   0  0  0  0  0  0  0  0  0  0  0  0
    0.7583    1.5311    0.4920 N   0  0  0  0  0  2  0  0  0  0  0  0
    2.0410    1.1691    0.2403 C   0  0  2  0  0  3  0  0  0  0  0  0
    3.0798    1.9865    0.7260 C   0  0  0  0  0  0  0  0  0  0  0  0
    2.7898    3.1157    1.5010 C   0  0  0  0  0  0  0  0  0  0  0  0
    1.4553    3.4250    1.7901 C   0  0  0  0  0  0  0  0  0  0  0  0
    0.4589    2.6102    1.2532 C   0  0  0  0  0  0  0  0  0  0  0  0
    3.8230   -0.4132   -0.5415 C   0  0  0  0  0  0  0  0  0  0  0  0
    4.3229   -0.8079    0.7217 C   0  0  0  0  0  0  0  0  0  0  0  0
    5.6691   -1.1501    0.8916 C   0  0  0  0  0  0  0  0  0  0  0  0
    6.5494   -1.1059   -0.2040 C   0  0  0  0  0  0  0  0  0  0  0  0
    6.0668   -0.7176   -1.4600 C   0  0  0  0  0  0  0  0  0  0  0  0
    4.7128   -0.3736   -1.6281 C   0  0  0  0  0  0  0  0  0  0  0  0
   -2.7005   -4.1196    0.8155 H   0  0  0  0  0  0  0  0  0  0  0  0
   -2.1035   -3.4886    2.3888 H   0  0  0  0  0  0  0  0  0  0  0  0
   -3.6992   -2.9843    1.7832 H   0  0  0  0  0  0  0  0  0  0  0  0
    2.1023   -0.4872   -2.8192 H   0  0  0  0  0  0  0  0  0  0  0  0
    0.8859    0.6813   -2.1794 H   0  0  0  0  0  0  0  0  0  0  0  0
    2.5651    1.2153   -2.4501 H   0  0  0  0  0  0  0  0  0  0  0  0
   -4.2288   -3.2342   -0.4969 H   0  0  0  0  0  0  0  0  0  0  0  0
   -5.2582   -2.5385   -2.6679 H   0  0  0  0  0  0  0  0  0  0  0  0
   -4.3014   -0.5319   -3.8957 H   0  0  0  0  0  0  0  0  0  0  0  0
   -2.3486    0.7070   -2.8347 H   0  0  0  0  0  0  0  0  0  0  0  0
   -0.2799   -1.4682    2.8631 H   0  0  0  0  0  0  0  0  0  0  0  0
   -0.4157    0.3175    4.5878 H   0  0  0  0  0  0  0  0  0  0  0  0
   -2.3009    1.9761    4.5452 H   0  0  0  0  0  0  0  0  0  0  0  0
   -4.0720    1.7928    2.7747 H   0  0  0  0  0  0  0  0  0  0  0  0
   -3.9399    0.0160    1.0489 H   0  0  0  0  0  0  0  0  0  0  0  0
   -0.5857   -4.4241    0.7329 H   0  0  0  0  0  0  0  0  0  0  0  0
    1.7911   -4.7215   -0.0210 H   0  0  0  0  0  0  0  0  0  0  0  0
    3.1449   -2.7025   -0.6278 H   0  0  0  0  0  0  0  0  0  0  0  0
    4.1193    1.7330    0.4886 H   0  0  0  0  0  0  0  0  0  0  0  0
    3.6082    3.7487    1.8748 H   0  0  0  0  0  0  0  0  0  0  0  0
    1.1789    4.2927    2.4049 H   0  0  0  0  0  0  0  0  0  0  0  0
   -0.6133    2.8156    1.3848 H   0  0  0  0  0  0  0  0  0  0  0  0
    3.6431   -0.8457    1.5879 H   0  0  0  0  0  0  0  0  0  0  0  0
    6.0358   -1.4527    1.8838 H   0  0  0  0  0  0  0  0  0  0  0  0
    7.6084   -1.3738   -0.0749 H   0  0  0  0  0  0  0  0  0  0  0  0
    6.7457   -0.6788   -2.3248 H   0  0  0  0  0  0  0  0  0  0  0  0
    4.3641   -0.0735   -2.6250 H   0  0  0  0  0  0  0  0  0  0  0  0
  1  2  1  1  0  0  0
  1 11  1  0  0  0  0
  2 37  1  0  0  0  0
  2 36  1  0  0  0  0
  3  4  1  6  0  0  0
  3 29  1  0  0  0  0
  3 22  1  0  0  0  0
  5  6  1  0  0  0  0
  6  1  1  6  0  0  0
  7  6  1  0  0  0  0
  7 41  1  0  0  0  0
  8  7  2  0  0  0  0
  9 10  2  0  0  0  0
  9  8  1  0  0  0  0
 10  5  1  0  0  0  0
 11 16  2  0  0  0  0
 11 12  1  0  0  0  0
 12 45  1  0  0  0  0
 12 13  2  0  0  0  0
 13 46  1  0  0  0  0
 14 13  1  0  0  0  0
 14 47  1  0  0  0  0
 15 14  2  0  0  0  0
 16 15  1  0  0  0  0
 17 18  1  0  0  0  0
 18 19  1  0  0  0  0
 18  1  1  6  0  0  0
 19 50  1  0  0  0  0
 20 19  2  0  0  0  0
 21 22  2  0  0  0  0
 21 20  1  0  0  0  0
 22 17  1  0  0  0  0
 23 28  1  0  0  0  0
 24  3  1  6  0  0  0
 24 23  1  0  0  0  0
 24 25  1  0  0  0  0
 25 26  2  0  0  0  0
 26 27  1  0  0  0  0
 26 54  1  0  0  0  0
 27 55  1  0  0  0  0
 28 56  1  0  0  0  0
 28 27  2  0  0  0  0
 29 30  1  0  0  0  0
 30 31  2  0  0  0  0
 30 57  1  0  0  0  0
 31 58  1  0  0  0  0
 32 59  1  0  0  0  0
 32 31  1  0  0  0  0
 33 32  2  0  0  0  0
 34 33  1  0  0  0  0
 34 29  2  0  0  0  0
 35  2  1  0  0  0  0
 38  4  1  0  0  0  0
 39  4  1  0  0  0  0
 40  4  1  0  0  0  0
 42  8  1  0  0  0  0
 43  9  1  0  0  0  0
 44 10  1  0  0  0  0
 48 15  1  0  0  0  0
 49 16  1  0  0  0  0
 51 20  1  0  0  0  0
 52 21  1  0  0  0  0
 53 25  1  0  0  0  0
 60 33  1  0  0  0  0
 61 34  1  0  0  0  0
M  END
