1,2,3
 OpenBabel05122313063D

 49 51  0  0  1  0  0  0  0  0999 V2000
    2.2979    0.6352   -0.0814 N   0  0  0  0  0  2  0  0  0  0  0  0
   -0.0000    2.0833   -0.0941 N   0  0  0  0  0  2  0  0  0  0  0  0
   -2.2979    0.6352   -0.0812 N   0  0  0  0  0  2  0  0  0  0  0  0
    2.4308    1.9224   -0.1090 C   0  0  0  0  0  0  0  0  0  0  0  0
    1.1734    2.7398   -0.0864 C   0  0  0  0  0  0  0  0  0  0  0  0
    1.2086    4.1523   -0.0428 C   0  0  0  0  0  0  0  0  0  0  0  0
    2.1639    4.6916   -0.0205 H   0  0  0  0  0  0  0  0  0  0  0  0
   -0.0000    4.8564   -0.0146 C   0  0  0  0  0  0  0  0  0  0  0  0
   -0.0000    5.9556    0.0288 H   0  0  0  0  0  0  0  0  0  0  0  0
   -1.2087    4.1523   -0.0427 C   0  0  0  0  0  0  0  0  0  0  0  0
   -2.1640    4.6916   -0.0204 H   0  0  0  0  0  0  0  0  0  0  0  0
   -1.1734    2.7398   -0.0863 C   0  0  0  0  0  0  0  0  0  0  0  0
   -2.4309    1.9224   -0.1089 C   0  0  1  0  0  3  0  0  0  0  0  0
    3.7447    2.6556   -0.2159 C   0  0  0  0  0  0  0  0  0  0  0  0
    4.5656    1.9553   -0.4521 H   0  0  0  0  0  0  0  0  0  0  0  0
    4.0025    3.1770    0.7296 H   0  0  0  0  0  0  0  0  0  0  0  0
    3.6933    3.4262   -1.0109 H   0  0  0  0  0  0  0  0  0  0  0  0
   -3.7447    2.6556   -0.2159 C   0  0  0  0  0  0  0  0  0  0  0  0
   -4.5657    1.9553   -0.4520 H   0  0  0  0  0  0  0  0  0  0  0  0
   -3.6933    3.4261   -1.0110 H   0  0  0  0  0  0  0  0  0  0  0  0
   -4.0026    3.1771    0.7295 H   0  0  0  0  0  0  0  0  0  0  0  0
    3.3531   -0.2854   -0.0088 C   0  0  0  0  0  0  0  0  0  0  0  0
    3.3147   -1.4126   -0.8640 C   0  0  0  0  0  0  0  0  0  0  0  0
    2.4760   -1.5144   -1.5730 H   0  0  0  0  0  0  0  0  0  0  0  0
    4.3283   -2.3702   -0.7952 C   0  0  0  0  0  0  0  0  0  0  0  0
    4.2923   -3.2329   -1.4793 H   0  0  0  0  0  0  0  0  0  0  0  0
    5.3792   -2.2738    0.1442 C   0  0  0  0  0  0  0  0  0  0  0  0
    5.3800   -1.1684    1.0181 C   0  0  0  0  0  0  0  0  0  0  0  0
    6.1684   -1.0846    1.7827 H   0  0  0  0  0  0  0  0  0  0  0  0
    4.3914   -0.1799    0.9443 C   0  0  0  0  0  0  0  0  0  0  0  0
    4.3884    0.6500    1.6656 H   0  0  0  0  0  0  0  0  0  0  0  0
    6.4384   -3.3421    0.2264 C   0  0  0  0  0  0  0  0  0  0  0  0
    7.2433   -3.0692    0.9359 H   0  0  0  0  0  0  0  0  0  0  0  0
    6.9014   -3.5295   -0.7644 H   0  0  0  0  0  0  0  0  0  0  0  0
    6.0052   -4.3077    0.5635 H   0  0  0  0  0  0  0  0  0  0  0  0
   -3.3532   -0.2854   -0.0087 C   0  0  0  0  0  0  0  0  0  0  0  0
   -3.3148   -1.4126   -0.8639 C   0  0  0  0  0  0  0  0  0  0  0  0
   -2.4761   -1.5143   -1.5729 H   0  0  0  0  0  0  0  0  0  0  0  0
   -4.3283   -2.3702   -0.7952 C   0  0  0  0  0  0  0  0  0  0  0  0
   -4.2924   -3.2329   -1.4793 H   0  0  0  0  0  0  0  0  0  0  0  0
   -5.3792   -2.2738    0.1443 C   0  0  0  0  0  0  0  0  0  0  0  0
   -5.3801   -1.1685    1.0182 C   0  0  0  0  0  0  0  0  0  0  0  0
   -6.1685   -1.0847    1.7828 H   0  0  0  0  0  0  0  0  0  0  0  0
   -4.3915   -0.1800    0.9445 C   0  0  0  0  0  0  0  0  0  0  0  0
   -4.3885    0.6499    1.6658 H   0  0  0  0  0  0  0  0  0  0  0  0
   -6.4384   -3.3422    0.2264 C   0  0  0  0  0  0  0  0  0  0  0  0
   -6.9009   -3.5301   -0.7645 H   0  0  0  0  0  0  0  0  0  0  0  0
   -7.2436   -3.0691    0.9354 H   0  0  0  0  0  0  0  0  0  0  0  0
   -6.0053   -4.3076    0.5642 H   0  0  0  0  0  0  0  0  0  0  0  0
  1 22  1  0  0  0  0
  2  5  1  0  0  0  0
  2 12  1  0  0  0  0
  3 36  1  0  0  0  0
  4  5  2  0  0  0  0
  4  1  1  0  0  0  0
  5  6  1  0  0  0  0
  6  7  1  0  0  0  0
  6  8  2  0  0  0  0
  8  9  1  0  0  0  0
 10 11  1  0  0  0  0
 10  8  1  0  0  0  0
 12 10  2  0  0  0  0
 13 12  1  0  0  0  0
 13  3  1  6  0  0  0
 14  4  1  0  0  0  0
 14 16  1  0  0  0  0
 15 14  1  0  0  0  0
 17 14  1  0  0  0  0
 18 13  1  0  0  0  0
 18 21  1  0  0  0  0
 19 18  1  0  0  0  0
 20 18  1  0  0  0  0
 22 30  1  0  0  0  0
 23 25  1  0  0  0  0
 23 22  2  0  0  0  0
 24 23  1  0  0  0  0
 25 27  2  0  0  0  0
 26 25  1  0  0  0  0
 27 32  1  0  0  0  0
 27 28  1  0  0  0  0
 28 29  1  0  0  0  0
 30 28  2  0  0  0  0
 30 31  1  0  0  0  0
 32 35  1  0  0  0  0
 32 33  1  0  0  0  0
 34 32  1  0  0  0  0
 36 44  1  0  0  0  0
 37 39  1  0  0  0  0
 37 36  2  0  0  0  0
 38 37  1  0  0  0  0
 39 41  2  0  0  0  0
 40 39  1  0  0  0  0
 41 46  1  0  0  0  0
 41 42  1  0  0  0  0
 42 43  1  0  0  0  0
 44 42  2  0  0  0  0
 44 45  1  0  0  0  0
 46 49  1  0  0  0  0
 46 48  1  0  0  0  0
 47 46  1  0  0  0  0
M  END
