2,4,6
 OpenBabel05122313063D

 35 37  0  0  0  0  0  0  0  0999 V2000
   -6.1765   -2.4689   -0.7184 Cl  0  0  0  0  0  0  0  0  0  0  0  0
    0.8237    2.2187    1.1250 N   0  0  0  0  0  2  0  0  0  0  0  0
    2.5272    1.9101   -0.4963 N   0  0  0  0  0  2  0  0  0  0  0  0
    1.8300    0.8329   -0.8058 N   0  0  0  0  0  2  0  0  0  0  0  0
    0.3002   -1.4787   -2.0020 N   0  0  0  0  0  2  0  0  0  0  0  0
   -0.5146   -0.7636   -1.3254 N   0  0  0  0  0  2  0  0  0  0  0  0
    0.3483    2.8470    2.2186 C   0  0  0  0  0  3  0  0  0  0  0  0
   -0.5957    2.4586    2.6295 H   0  0  0  0  0  0  0  0  0  0  0  0
    1.0020    3.9460    2.7798 C   0  0  0  0  0  0  0  0  0  0  0  0
    0.5722    4.4451    3.6585 H   0  0  0  0  0  0  0  0  0  0  0  0
    2.1974    4.4010    2.1810 C   0  0  0  0  0  0  0  0  0  0  0  0
    2.7312    5.2671    2.5993 H   0  0  0  0  0  0  0  0  0  0  0  0
    2.7044    3.7447    1.0631 C   0  0  0  0  0  0  0  0  0  0  0  0
    3.6429    4.0442    0.5782 H   0  0  0  0  0  0  0  0  0  0  0  0
    2.0046    2.6282    0.5345 C   0  0  0  0  0  0  0  0  0  0  0  0
    2.4206   -0.1394   -1.5802 C   0  0  0  0  0  0  0  0  0  0  0  0
    1.6495   -1.2585   -2.0852 C   0  0  0  0  0  0  0  0  0  0  0  0
   -1.8763   -1.2168   -1.3535 C   0  0  0  0  0  0  0  0  0  0  0  0
   -2.1663   -2.5173   -0.8980 C   0  0  0  0  0  0  0  0  0  0  0  0
   -1.3400   -3.1917   -0.6329 H   0  0  0  0  0  0  0  0  0  0  0  0
   -3.4939   -2.9141   -0.7195 C   0  0  0  0  0  0  0  0  0  0  0  0
   -3.7341   -3.9081   -0.3180 H   0  0  0  0  0  0  0  0  0  0  0  0
   -4.5309   -2.0137   -1.0254 C   0  0  0  0  0  0  0  0  0  0  0  0
   -4.2472   -0.7447   -1.5618 C   0  0  0  0  0  0  0  0  0  0  0  0
   -5.0705   -0.0714   -1.8370 H   0  0  0  0  0  0  0  0  0  0  0  0
   -2.9158   -0.3478   -1.7225 C   0  0  0  0  0  0  0  0  0  0  0  0
   -2.6828    0.6416   -2.1362 H   0  0  0  0  0  0  0  0  0  0  0  0
    2.3351   -2.2684   -2.8234 C   0  0  0  0  0  0  0  0  0  0  0  0
    1.7217   -3.0963   -3.2056 H   0  0  0  0  0  0  0  0  0  0  0  0
    3.7044   -2.2131   -3.0456 C   0  0  0  0  0  0  0  0  0  0  0  0
    4.2066   -3.0166   -3.6030 H   0  0  0  0  0  0  0  0  0  0  0  0
    4.4461   -1.1089   -2.5598 C   0  0  0  0  0  0  0  0  0  0  0  0
    5.5324   -1.0598   -2.7247 H   0  0  0  0  0  0  0  0  0  0  0  0
    3.8148   -0.0896   -1.8570 C   0  0  0  0  0  0  0  0  0  0  0  0
    4.3738    0.7692   -1.4644 H   0  0  0  0  0  0  0  0  0  0  0  0
  2  7  1  0  0  0  0
  3 15  1  0  0  0  0
  4  3  1  0  0  0  0
  5  6  1  0  0  0  0
  7  8  1  0  0  0  0
  7  9  1  0  0  0  0
  9 10  1  0  0  0  0
 11 12  1  0  0  0  0
 11  9  2  0  0  0  0
 13 11  1  0  0  0  0
 14 13  1  0  0  0  0
 15 13  2  0  0  0  0
 15  2  1  0  0  0  0
 16  4  1  0  0  0  0
 17  5  1  0  0  0  0
 17 16  2  0  0  0  0
 18  6  1  0  0  0  0
 18 19  1  0  0  0  0
 19 21  2  0  0  0  0
 19 20  1  0  0  0  0
 21 22  1  0  0  0  0
 23 21  1  0  0  0  0
 23  1  1  0  0  0  0
 24 23  2  0  0  0  0
 25 24  1  0  0  0  0
 26 24  1  0  0  0  0
 26 18  2  0  0  0  0
 27 26  1  0  0  0  0
 28 17  1  0  0  0  0
 29 28  1  0  0  0  0
 30 28  2  0  0  0  0
 30 32  1  0  0  0  0
 31 30  1  0  0  0  0
 32 34  2  0  0  0  0
 33 32  1  0  0  0  0
 34 16  1  0  0  0  0
 34 35  1  0  0  0  0
M  END
