1,3,5
 OpenBabel05122313063D

 35 37  0  0  0  0  0  0  0  0999 V2000
   -0.7593   -1.2824    1.7326 N   0  0  0  0  0  2  0  0  0  0  0  0
   -2.6384    0.1226    1.4121 N   0  0  0  0  0  2  0  0  0  0  0  0
   -1.8942    0.6848    0.4842 N   0  0  0  0  0  2  0  0  0  0  0  0
   -0.2992    2.3551   -1.4731 N   0  0  0  0  0  2  0  0  0  0  0  0
    0.4713    1.4399   -1.0289 N   0  0  0  0  0  2  0  0  0  0  0  0
   -0.1942   -2.3724    2.2928 C   0  0  0  0  0  3  0  0  0  0  0  0
    0.8444   -2.5877    2.0011 H   0  0  0  0  0  0  0  0  0  0  0  0
   -0.8823   -3.1721    3.2065 C   0  0  0  0  0  0  0  0  0  0  0  0
   -0.3790   -4.0378    3.6574 H   0  0  0  0  0  0  0  0  0  0  0  0
   -2.2119   -2.8315    3.5435 C   0  0  0  0  0  0  0  0  0  0  0  0
   -2.7767   -3.4455    4.2603 H   0  0  0  0  0  0  0  0  0  0  0  0
   -2.8039   -1.7158    2.9616 C   0  0  0  0  0  0  0  0  0  0  0  0
   -3.8383   -1.4162    3.1754 H   0  0  0  0  0  0  0  0  0  0  0  0
   -2.0626   -0.9381    2.0336 C   0  0  0  0  0  0  0  0  0  0  0  0
   -2.4451    1.6947   -0.2683 C   0  0  0  0  0  0  0  0  0  0  0  0
   -3.8259    2.0185   -0.1364 C   0  0  0  0  0  0  0  0  0  0  0  0
   -4.4121    1.4315    0.5815 H   0  0  0  0  0  0  0  0  0  0  0  0
   -4.4064    3.0206   -0.9009 C   0  0  0  0  0  0  0  0  0  0  0  0
   -5.4790    3.2366   -0.7853 H   0  0  0  0  0  0  0  0  0  0  0  0
   -3.6306    3.7619   -1.8281 C   0  0  0  0  0  0  0  0  0  0  0  0
   -4.0939    4.5558   -2.4310 H   0  0  0  0  0  0  0  0  0  0  0  0
   -2.2788    3.4829   -1.9623 C   0  0  0  0  0  0  0  0  0  0  0  0
   -1.6392    4.0445   -2.6575 H   0  0  0  0  0  0  0  0  0  0  0  0
   -1.6411    2.4518   -1.2073 C   0  0  0  0  0  0  0  0  0  0  0  0
    1.8627    1.6264   -1.3598 C   0  0  0  0  0  0  0  0  0  0  0  0
    2.4723    0.7410   -2.2642 C   0  0  0  0  0  0  0  0  0  0  0  0
    1.8766   -0.0540   -2.7347 H   0  0  0  0  0  0  0  0  0  0  0  0
    3.8311    0.9008   -2.5668 C   0  0  0  0  0  0  0  0  0  0  0  0
    4.3100    0.2185   -3.2844 H   0  0  0  0  0  0  0  0  0  0  0  0
    4.5746    1.9292   -1.9639 C   0  0  0  0  0  0  0  0  0  0  0  0
    5.6421    2.0474   -2.2014 H   0  0  0  0  0  0  0  0  0  0  0  0
    3.9529    2.8139   -1.0687 C   0  0  0  0  0  0  0  0  0  0  0  0
    4.5298    3.6282   -0.6058 H   0  0  0  0  0  0  0  0  0  0  0  0
    2.5910    2.6703   -0.7658 C   0  0  0  0  0  0  0  0  0  0  0  0
    2.0864    3.3587   -0.0726 H   0  0  0  0  0  0  0  0  0  0  0  0
  1 14  1  0  0  0  0
  1  6  1  0  0  0  0
  2 14  1  0  0  0  0
  3  2  1  0  0  0  0
  4 24  1  0  0  0  0
  4  5  1  0  0  0  0
  6  8  1  0  0  0  0
  7  6  1  0  0  0  0
  8 10  2  0  0  0  0
  8  9  1  0  0  0  0
 10 11  1  0  0  0  0
 12 13  1  0  0  0  0
 12 10  1  0  0  0  0
 14 12  2  0  0  0  0
 15 16  1  0  0  0  0
 15  3  1  0  0  0  0
 16 17  1  0  0  0  0
 18 19  1  0  0  0  0
 18 16  2  0  0  0  0
 20 18  1  0  0  0  0
 21 20  1  0  0  0  0
 22 20  2  0  0  0  0
 22 24  1  0  0  0  0
 23 22  1  0  0  0  0
 24 15  2  0  0  0  0
 25  5  1  0  0  0  0
 25 34  1  0  0  0  0
 26 25  2  0  0  0  0
 27 26  1  0  0  0  0
 28 26  1  0  0  0  0
 28 30  2  0  0  0  0
 29 28  1  0  0  0  0
 30 32  1  0  0  0  0
 31 30  1  0  0  0  0
 32 34  2  0  0  0  0
 32 33  1  0  0  0  0
 34 35  1  0  0  0  0
M  END
