1,2,3
 OpenBabel05122313063D

 35 34  0  0  0  0  0  0  0  0999 V2000
   -0.6605   -0.7893    2.0973 N   0  0  0  0  0  0  0  0  0  0  0  0
   -2.4641   -1.7384    0.2194 N   0  0  0  0  0  0  0  0  0  0  0  0
   -0.4064   -1.9329   -1.7443 N   0  0  0  0  0  0  0  0  0  0  0  0
   -0.0099    0.3411    2.7847 C   0  0  0  0  0  0  0  0  0  0  0  0
    0.0689    0.1471    3.8773 H   0  0  0  0  0  0  0  0  0  0  0  0
   -0.6238    1.2411    2.5999 H   0  0  0  0  0  0  0  0  0  0  0  0
    0.9878    0.5141    2.3427 H   0  0  0  0  0  0  0  0  0  0  0  0
    0.1178   -2.0075    1.9627 C   0  0  0  0  0  0  0  0  0  0  0  0
   -0.2141   -2.8295    2.6361 H   0  0  0  0  0  0  0  0  0  0  0  0
    1.1986   -1.8138    2.0726 H   0  0  0  0  0  0  0  0  0  0  0  0
   -0.0089   -2.5254    0.8971 H   0  0  0  0  0  0  0  0  0  0  0  0
   -2.0611   -1.0121    2.5286 C   0  0  0  0  0  0  0  0  0  0  0  0
   -2.1046   -1.3147    3.6009 H   0  0  0  0  0  0  0  0  0  0  0  0
   -2.5746   -0.0378    2.4137 H   0  0  0  0  0  0  0  0  0  0  0  0
   -2.7007   -2.0808    1.6476 C   0  0  0  0  0  0  0  0  0  0  0  0
   -2.2571   -3.0774    1.8438 H   0  0  0  0  0  0  0  0  0  0  0  0
   -3.7870   -2.1681    1.8707 H   0  0  0  0  0  0  0  0  0  0  0  0
   -3.5331   -0.8159   -0.2401 C   0  0  0  0  0  0  0  0  0  0  0  0
   -4.4987   -1.3638   -0.3095 H   0  0  0  0  0  0  0  0  0  0  0  0
   -3.2815   -0.3711   -1.2170 H   0  0  0  0  0  0  0  0  0  0  0  0
   -3.6319    0.0236    0.4680 H   0  0  0  0  0  0  0  0  0  0  0  0
   -2.4018   -2.9248   -0.6745 C   0  0  0  0  0  0  0  0  0  0  0  0
   -3.4184   -3.3471   -0.8564 H   0  0  0  0  0  0  0  0  0  0  0  0
   -1.8037   -3.7109   -0.1702 H   0  0  0  0  0  0  0  0  0  0  0  0
   -1.7524   -2.5140   -1.9882 C   0  0  0  0  0  0  0  0  0  0  0  0
   -1.7015   -3.3773   -2.6902 H   0  0  0  0  0  0  0  0  0  0  0  0
   -2.3707   -1.7392   -2.4803 H   0  0  0  0  0  0  0  0  0  0  0  0
   -0.0555   -0.9695   -2.8164 C   0  0  0  0  0  0  0  0  0  0  0  0
   -0.0341   -1.4834   -3.8038 H   0  0  0  0  0  0  0  0  0  0  0  0
    0.9342   -0.5271   -2.5989 H   0  0  0  0  0  0  0  0  0  0  0  0
   -0.7938   -0.1495   -2.8246 H   0  0  0  0  0  0  0  0  0  0  0  0
    0.6280   -2.9901   -1.7108 C   0  0  0  0  0  0  0  0  0  0  0  0
    0.7454   -3.4606   -2.7140 H   0  0  0  0  0  0  0  0  0  0  0  0
    0.3511   -3.7782   -0.9829 H   0  0  0  0  0  0  0  0  0  0  0  0
    1.5826   -2.5330   -1.3950 H   0  0  0  0  0  0  0  0  0  0  0  0
  1 12  1  0  0  0  0
  1  4  1  0  0  0  0
  2 15  1  0  0  0  0
  3 32  1  0  0  0  0
  4  5  1  0  0  0  0
  6  4  1  0  0  0  0
  7  4  1  0  0  0  0
  8 10  1  0  0  0  0
  8  1  1  0  0  0  0
  8  9  1  0  0  0  0
 11  8  1  0  0  0  0
 12 13  1  0  0  0  0
 14 12  1  0  0  0  0
 15 16  1  0  0  0  0
 15 17  1  0  0  0  0
 15 12  1  0  0  0  0
 18  2  1  0  0  0  0
 18 21  1  0  0  0  0
 19 18  1  0  0  0  0
 20 18  1  0  0  0  0
 22 24  1  0  0  0  0
 22  2  1  0  0  0  0
 23 22  1  0  0  0  0
 25  3  1  0  0  0  0
 25 22  1  0  0  0  0
 26 25  1  0  0  0  0
 27 25  1  0  0  0  0
 28 30  1  0  0  0  0
 28  3  1  0  0  0  0
 29 28  1  0  0  0  0
 31 28  1  0  0  0  0
 32 35  1  0  0  0  0
 32 34  1  0  0  0  0
 33 32  1  0  0  0  0
M  END
