1,3,5
 OpenBabel05122313063D

 42 43  0  0  0  0  0  0  0  0999 V2000
   -3.1017   -1.4766    0.4246 N   0  0  0  0  0  0  0  0  0  0  0  0
   -3.9466   -0.4882   -0.2607 C   0  0  0  0  0  0  0  0  0  0  0  0
   -2.2216    1.2220    0.1701 N   0  0  0  0  0  2  0  0  0  0  0  0
   -3.6498    0.9089    0.2791 C   0  0  0  0  0  0  0  0  0  0  0  0
   -0.6770   -1.8378   -1.0153 N   0  0  0  0  0  2  0  0  0  0  0  0
   -1.9068    2.4294   -0.1886 C   0  0  0  0  0  3  0  0  0  0  0  0
   -2.8701   -2.7340   -0.2990 C   0  0  0  0  0  0  0  0  0  0  0  0
   -1.8873   -2.5286   -1.4563 C   0  0  0  0  0  0  0  0  0  0  0  0
    0.4580   -2.3755   -1.3340 C   0  0  0  0  0  3  0  0  0  0  0  0
   -0.5593    2.9953   -0.1837 C   0  0  0  0  0  0  0  0  0  0  0  0
    0.4658    2.4713    0.6387 C   0  0  0  0  0  0  0  0  0  0  0  0
    1.7194    3.0909    0.6786 C   0  0  0  0  0  0  0  0  0  0  0  0
    1.9781    4.2204   -0.1192 C   0  0  0  0  0  0  0  0  0  0  0  0
    0.9675    4.7461   -0.9413 C   0  0  0  0  0  0  0  0  0  0  0  0
   -0.2990    4.1501   -0.9587 C   0  0  0  0  0  0  0  0  0  0  0  0
    1.7773   -1.8039   -1.0654 C   0  0  0  0  0  0  0  0  0  0  0  0
    1.9661   -0.4296   -0.7919 C   0  0  0  0  0  0  0  0  0  0  0  0
    3.2500    0.0696   -0.5536 C   0  0  0  0  0  0  0  0  0  0  0  0
    4.3615   -0.7944   -0.5687 C   0  0  0  0  0  0  0  0  0  0  0  0
    4.1862   -2.1610   -0.8456 C   0  0  0  0  0  0  0  0  0  0  0  0
    2.9037   -2.6593   -1.1080 C   0  0  0  0  0  0  0  0  0  0  0  0
   -3.4799   -1.6739    1.3586 H   0  0  0  0  0  0  0  0  0  0  0  0
   -3.7046   -0.5116   -1.3425 H   0  0  0  0  0  0  0  0  0  0  0  0
   -5.0343   -0.7101   -0.1684 H   0  0  0  0  0  0  0  0  0  0  0  0
   -3.9209    0.9498    1.3587 H   0  0  0  0  0  0  0  0  0  0  0  0
   -4.2800    1.6655   -0.2388 H   0  0  0  0  0  0  0  0  0  0  0  0
   -2.7175    3.1246   -0.5009 H   0  0  0  0  0  0  0  0  0  0  0  0
   -2.4348   -3.4561    0.4210 H   0  0  0  0  0  0  0  0  0  0  0  0
   -3.8094   -3.1859   -0.6963 H   0  0  0  0  0  0  0  0  0  0  0  0
   -2.3578   -1.9053   -2.2487 H   0  0  0  0  0  0  0  0  0  0  0  0
   -1.6604   -3.5133   -1.9233 H   0  0  0  0  0  0  0  0  0  0  0  0
    0.4623   -3.3590   -1.8569 H   0  0  0  0  0  0  0  0  0  0  0  0
    0.2476    1.6005    1.2741 H   0  0  0  0  0  0  0  0  0  0  0  0
    2.4991    2.7042    1.3521 H   0  0  0  0  0  0  0  0  0  0  0  0
    2.9657    4.7045   -0.0853 H   0  0  0  0  0  0  0  0  0  0  0  0
    1.1646    5.6355   -1.5577 H   0  0  0  0  0  0  0  0  0  0  0  0
   -1.1004    4.5773   -1.5818 H   0  0  0  0  0  0  0  0  0  0  0  0
    1.0957    0.2444   -0.7856 H   0  0  0  0  0  0  0  0  0  0  0  0
    3.3876    1.1451   -0.3703 H   0  0  0  0  0  0  0  0  0  0  0  0
    5.3709   -0.3958   -0.3854 H   0  0  0  0  0  0  0  0  0  0  0  0
    5.0547   -2.8355   -0.8740 H   0  0  0  0  0  0  0  0  0  0  0  0
    2.7650   -3.7261   -1.3449 H   0  0  0  0  0  0  0  0  0  0  0  0
  1 22  1  0  0  0  0
  2 24  1  0  0  0  0
  2  4  1  0  0  0  0
  2  1  1  0  0  0  0
  3  4  1  0  0  0  0
  4 25  1  0  0  0  0
  6 10  1  0  0  0  0
  6  3  1  0  0  0  0
  7 28  1  0  0  0  0
  7  1  1  0  0  0  0
  8  5  1  0  0  0  0
  8  7  1  0  0  0  0
  9 16  1  0  0  0  0
  9  5  1  0  0  0  0
 10 11  1  0  0  0  0
 11 12  2  0  0  0  0
 11 33  1  0  0  0  0
 12 34  1  0  0  0  0
 13 35  1  0  0  0  0
 13 12  1  0  0  0  0
 14 13  2  0  0  0  0
 15 14  1  0  0  0  0
 15 10  2  0  0  0  0
 16 17  1  0  0  0  0
 17 38  1  0  0  0  0
 17 18  2  0  0  0  0
 18 39  1  0  0  0  0
 19 18  1  0  0  0  0
 19 40  1  0  0  0  0
 20 19  2  0  0  0  0
 21 16  2  0  0  0  0
 21 20  1  0  0  0  0
 23  2  1  0  0  0  0
 26  4  1  0  0  0  0
 27  6  1  0  0  0  0
 29  7  1  0  0  0  0
 30  8  1  0  0  0  0
 31  8  1  0  0  0  0
 32  9  1  0  0  0  0
 36 14  1  0  0  0  0
 37 15  1  0  0  0  0
 41 20  1  0  0  0  0
 42 21  1  0  0  0  0
M  END
