1,24,37
 OpenBabel05122313063D

 37 39  0  0  1  0  0  0  0  0999 V2000
   -2.3101   -0.8878   -0.3310 N   0  0  0  0  0  0  0  0  0  0  0  0
   -2.3487   -0.7891    1.1063 C   0  0  0  0  0  0  0  0  0  0  0  0
   -1.8069   -1.7859    1.9460 C   0  0  0  0  0  0  0  0  0  0  0  0
   -1.3537   -2.7049    1.5533 H   0  0  0  0  0  0  0  0  0  0  0  0
   -1.8539   -1.5650    3.3286 C   0  0  0  0  0  0  0  0  0  0  0  0
   -1.4406   -2.3194    4.0144 H   0  0  0  0  0  0  0  0  0  0  0  0
   -2.4264   -0.3851    3.8264 C   0  0  0  0  0  0  0  0  0  0  0  0
   -2.4745   -0.1820    4.9053 H   0  0  0  0  0  0  0  0  0  0  0  0
   -2.9430    0.5328    2.9023 C   0  0  0  0  0  0  0  0  0  0  0  0
   -3.4117    1.4731    3.2388 H   0  0  0  0  0  0  0  0  0  0  0  0
   -2.9074    0.3301    1.5764 N   0  0  0  0  0  0  0  0  0  0  0  0
   -2.2791   -2.2474   -0.8847 C   0  0  0  0  0  0  0  0  0  0  0  0
   -2.6141   -2.1893   -1.9414 H   0  0  0  0  0  0  0  0  0  0  0  0
   -2.9962   -2.9177   -0.3620 H   0  0  0  0  0  0  0  0  0  0  0  0
   -0.8939   -2.8732   -0.8677 C   0  0  1  0  0  3  0  0  0  0  0  0
   -0.7118   -4.2631   -0.9110 C   0  0  0  0  0  0  0  0  0  0  0  0
   -1.5851   -4.9320   -0.9274 H   0  0  0  0  0  0  0  0  0  0  0  0
    0.5927   -4.7760   -0.9271 C   0  0  0  0  0  0  0  0  0  0  0  0
    0.7597   -5.8629   -0.9622 H   0  0  0  0  0  0  0  0  0  0  0  0
    1.6788   -3.8885   -0.8856 C   0  0  0  0  0  0  0  0  0  0  0  0
    2.7165   -4.2503   -0.8850 H   0  0  0  0  0  0  0  0  0  0  0  0
    1.4223   -2.5154   -0.8367 C   0  0  0  0  0  0  0  0  0  0  0  0
    2.2311   -1.7677   -0.7937 H   0  0  0  0  0  0  0  0  0  0  0  0
    0.1598   -2.0325   -0.8369 N   0  0  0  0  0  2  0  0  0  0  0  0
   -3.2011    0.0684   -1.0156 C   0  0  0  0  0  0  0  0  0  0  0  0
   -3.2215   -0.2190   -2.0883 H   0  0  0  0  0  0  0  0  0  0  0  0
   -4.2384    0.0133   -0.6253 H   0  0  0  0  0  0  0  0  0  0  0  0
   -2.7059    1.4963   -0.9056 C   0  0  2  0  0  3  0  0  0  0  0  0
   -3.5770    2.5949   -0.9313 C   0  0  0  0  0  0  0  0  0  0  0  0
   -4.6631    2.4308   -0.9793 H   0  0  0  0  0  0  0  0  0  0  0  0
   -3.0408    3.8864   -0.8718 C   0  0  0  0  0  0  0  0  0  0  0  0
   -3.7064    4.7625   -0.8847 H   0  0  0  0  0  0  0  0  0  0  0  0
   -1.6489    4.0514   -0.7777 C   0  0  0  0  0  0  0  0  0  0  0  0
   -1.1909    5.0479   -0.7090 H   0  0  0  0  0  0  0  0  0  0  0  0
   -0.8392    2.9138   -0.7634 C   0  0  0  0  0  0  0  0  0  0  0  0
    0.2594    2.9792   -0.6723 H   0  0  0  0  0  0  0  0  0  0  0  0
   -1.3691    1.6709   -0.8452 N   0  0  0  0  0  2  0  0  0  0  0  0
  1  2  1  0  0  0  0
  2 11  2  0  0  0  0
  2  3  1  0  0  0  0
  3  5  2  0  0  0  0
  4  3  1  0  0  0  0
  5  7  1  0  0  0  0
  5  6  1  0  0  0  0
  7  8  1  0  0  0  0
  9 10  1  0  0  0  0
  9  7  2  0  0  0  0
 11  9  1  0  0  0  0
 12 14  1  0  0  0  0
 12  1  1  0  0  0  0
 13 12  1  0  0  0  0
 15 12  1  6  0  0  0
 15 24  1  0  0  0  0
 16 15  1  0  0  0  0
 17 16  1  0  0  0  0
 18 16  2  0  0  0  0
 18 20  1  0  0  0  0
 19 18  1  0  0  0  0
 20 21  1  0  0  0  0
 20 22  2  0  0  0  0
 22 23  1  0  0  0  0
 24 22  1  0  0  0  0
 25 27  1  0  0  0  0
 25  1  1  0  0  0  0
 26 25  1  0  0  0  0
 28 25  1  6  0  0  0
 28 37  1  0  0  0  0
 29 28  1  0  0  0  0
 29 31  2  0  0  0  0
 30 29  1  0  0  0  0
 31 33  1  0  0  0  0
 32 31  1  0  0  0  0
 33 35  2  0  0  0  0
 33 34  1  0  0  0  0
 35 36  1  0  0  0  0
 37 35  1  0  0  0  0
M  END
