3,4,5
 OpenBabel05122313063D

 54 56  0  0  0  0  0  0  0  0999 V2000
    1.3286    1.6148    0.6126 P   0  0  2  0  0  0  0  0  0  0  0  0
   -1.3947    1.5433    0.5913 P   0  0  1  0  0  0  0  0  0  0  0  0
    1.7421   -0.0007    0.1274 N   0  0  0  0  0  2  0  0  0  0  0  0
   -1.7187   -0.0816    0.0708 N   0  0  0  0  0  2  0  0  0  0  0  0
   -0.0269    0.9533    1.6194 N   0  0  0  0  0  0  0  0  0  0  0  0
   -0.0410    2.1027   -0.3877 N   0  0  0  0  0  0  0  0  0  0  0  0
   -0.0459    1.1687    3.0936 C   0  0  0  0  0  0  0  0  0  0  0  0
   -1.2889    0.4652    3.6567 C   0  0  0  0  0  0  0  0  0  0  0  0
   -2.2172    0.8762    3.2084 H   0  0  0  0  0  0  0  0  0  0  0  0
   -1.3483    0.6086    4.7538 H   0  0  0  0  0  0  0  0  0  0  0  0
   -1.2498   -0.6188    3.4398 H   0  0  0  0  0  0  0  0  0  0  0  0
    1.2315    0.5503    3.6789 C   0  0  0  0  0  0  0  0  0  0  0  0
    2.1377    1.0266    3.2506 H   0  0  0  0  0  0  0  0  0  0  0  0
    1.2736   -0.5328    3.4600 H   0  0  0  0  0  0  0  0  0  0  0  0
    1.2587    0.6931    4.7773 H   0  0  0  0  0  0  0  0  0  0  0  0
   -0.0981    2.6759    3.4034 C   0  0  0  0  0  0  0  0  0  0  0  0
   -1.0096    3.1335    2.9665 H   0  0  0  0  0  0  0  0  0  0  0  0
    0.7892    3.1921    2.9820 H   0  0  0  0  0  0  0  0  0  0  0  0
   -0.1132    2.8570    4.4968 H   0  0  0  0  0  0  0  0  0  0  0  0
   -0.0900    3.0460   -1.5172 C   0  0  0  0  0  0  0  0  0  0  0  0
   -0.3362    4.4768   -0.9966 C   0  0  0  0  0  0  0  0  0  0  0  0
    0.4769    4.7787   -0.3058 H   0  0  0  0  0  0  0  0  0  0  0  0
   -1.2939    4.5239   -0.4393 H   0  0  0  0  0  0  0  0  0  0  0  0
   -0.3816    5.2118   -1.8265 H   0  0  0  0  0  0  0  0  0  0  0  0
   -1.2310    2.6229   -2.4599 C   0  0  0  0  0  0  0  0  0  0  0  0
   -1.0737    1.5933   -2.8369 H   0  0  0  0  0  0  0  0  0  0  0  0
   -1.2988    3.3112   -3.3263 H   0  0  0  0  0  0  0  0  0  0  0  0
   -2.2102    2.6436   -1.9389 H   0  0  0  0  0  0  0  0  0  0  0  0
    1.2490    2.9834   -2.2699 C   0  0  0  0  0  0  0  0  0  0  0  0
    1.4660    1.9536   -2.6173 H   0  0  0  0  0  0  0  0  0  0  0  0
    2.0851    3.3139   -1.6199 H   0  0  0  0  0  0  0  0  0  0  0  0
    1.2276    3.6544   -3.1518 H   0  0  0  0  0  0  0  0  0  0  0  0
    2.9379   -0.3203   -0.5269 C   0  0  0  0  0  0  0  0  0  0  0  0
    3.2942   -1.6817   -0.7186 C   0  0  0  0  0  0  0  0  0  0  0  0
    2.6109   -2.4611   -0.3550 H   0  0  0  0  0  0  0  0  0  0  0  0
    4.4802   -2.0356   -1.3724 C   0  0  0  0  0  0  0  0  0  0  0  0
    4.7201   -3.1018   -1.5089 H   0  0  0  0  0  0  0  0  0  0  0  0
    5.3633   -1.0502   -1.8445 C   0  0  0  0  0  0  0  0  0  0  0  0
    6.2956   -1.3311   -2.3561 H   0  0  0  0  0  0  0  0  0  0  0  0
    5.0333    0.3006   -1.6503 C   0  0  0  0  0  0  0  0  0  0  0  0
    5.7099    1.0910   -2.0113 H   0  0  0  0  0  0  0  0  0  0  0  0
    3.8412    0.6633   -1.0105 C   0  0  0  0  0  0  0  0  0  0  0  0
    3.6003    1.7284   -0.8773 H   0  0  0  0  0  0  0  0  0  0  0  0
   -2.9050   -0.4435   -0.5819 C   0  0  0  0  0  0  0  0  0  0  0  0
   -3.9410    0.4862   -0.8699 C   0  0  0  0  0  0  0  0  0  0  0  0
   -3.8180    1.5395   -0.5740 H   0  0  0  0  0  0  0  0  0  0  0  0
   -5.1202    0.0826   -1.5082 C   0  0  0  0  0  0  0  0  0  0  0  0
   -5.9013    0.8315   -1.7134 H   0  0  0  0  0  0  0  0  0  0  0  0
   -5.3109   -1.2551   -1.8905 C   0  0  0  0  0  0  0  0  0  0  0  0
   -6.2361   -1.5668   -2.3973 H   0  0  0  0  0  0  0  0  0  0  0  0
   -4.2968   -2.1861   -1.6128 C   0  0  0  0  0  0  0  0  0  0  0  0
   -4.4233   -3.2414   -1.9017 H   0  0  0  0  0  0  0  0  0  0  0  0
   -3.1183   -1.7937   -0.9665 C   0  0  0  0  0  0  0  0  0  0  0  0
   -2.3254   -2.5265   -0.7645 H   0  0  0  0  0  0  0  0  0  0  0  0
  1  3  1  6  0  0  0
  1  5  1  0  0  0  0
  2  4  1  6  0  0  0
  2  5  1  0  0  0  0
  5  7  1  0  0  0  0
  6  2  1  0  0  0  0
  6  1  1  0  0  0  0
  7 16  1  0  0  0  0
  7  8  1  0  0  0  0
  7 12  1  0  0  0  0
  8 10  1  0  0  0  0
  9  8  1  0  0  0  0
 11  8  1  0  0  0  0
 12 15  1  0  0  0  0
 13 12  1  0  0  0  0
 14 12  1  0  0  0  0
 16 19  1  0  0  0  0
 17 16  1  0  0  0  0
 18 16  1  0  0  0  0
 20 21  1  0  0  0  0
 20  6  1  0  0  0  0
 21 23  1  0  0  0  0
 21 22  1  0  0  0  0
 24 21  1  0  0  0  0
 25 28  1  0  0  0  0
 25 20  1  0  0  0  0
 26 25  1  0  0  0  0
 27 25  1  0  0  0  0
 29 31  1  0  0  0  0
 29 20  1  0  0  0  0
 30 29  1  0  0  0  0
 32 29  1  0  0  0  0
 33  3  1  0  0  0  0
 34 33  1  0  0  0  0
 34 35  1  0  0  0  0
 36 34  2  0  0  0  0
 37 36  1  0  0  0  0
 38 40  2  0  0  0  0
 38 36  1  0  0  0  0
 39 38  1  0  0  0  0
 40 42  1  0  0  0  0
 41 40  1  0  0  0  0
 42 43  1  0  0  0  0
 42 33  2  0  0  0  0
 44  4  1  0  0  0  0
 45 44  1  0  0  0  0
 45 46  1  0  0  0  0
 47 45  2  0  0  0  0
 48 47  1  0  0  0  0
 49 51  2  0  0  0  0
 49 47  1  0  0  0  0
 50 49  1  0  0  0  0
 51 53  1  0  0  0  0
 52 51  1  0  0  0  0
 53 54  1  0  0  0  0
 53 44  2  0  0  0  0
M  END
