1,3,4
 OpenBabel05122313063D

 45 45  0  0  1  0  0  0  0  0999 V2000
    0.6800    0.4080    1.1735 N   0  0  0  0  0  0  0  0  0  0  0  0
    3.6243    0.8604   -0.8286 H   0  0  0  0  0  0  0  0  0  0  0  0
   -1.5129    1.4344    0.0172 N   0  0  0  0  0  2  0  0  0  0  0  0
   -1.7351   -1.1817    1.4530 N   0  0  0  0  0  0  0  0  0  0  0  0
    4.1999    0.5243    0.0664 N   0  3  0  0  0  0  0  0  0  0  0  0
    0.6885    1.8691    0.9338 C   0  0  0  0  0  0  0  0  0  0  0  0
    1.3394    2.0746    0.0576 H   0  0  0  0  0  0  0  0  0  0  0  0
    1.1068    2.4328    1.8003 H   0  0  0  0  0  0  0  0  0  0  0  0
   -0.7008    2.3529    0.6252 C   0  0  1  0  0  3  0  0  0  0  0  0
   -1.1117    3.6641    0.8851 C   0  0  0  0  0  0  0  0  0  0  0  0
   -0.4215    4.3532    1.3947 H   0  0  0  0  0  0  0  0  0  0  0  0
   -2.3872    4.0839    0.4791 C   0  0  0  0  0  0  0  0  0  0  0  0
   -2.7298    5.1115    0.6670 H   0  0  0  0  0  0  0  0  0  0  0  0
   -3.2051    3.1510   -0.1776 C   0  0  0  0  0  0  0  0  0  0  0  0
   -4.2106    3.4194   -0.5318 H   0  0  0  0  0  0  0  0  0  0  0  0
   -2.7460    1.8492   -0.3859 C   0  0  0  0  0  0  0  0  0  0  0  0
   -3.3704    1.0975   -0.8879 H   0  0  0  0  0  0  0  0  0  0  0  0
    0.1042    0.0925    2.5079 C   0  0  0  0  0  0  0  0  0  0  0  0
   -0.5861    0.9174    2.7770 H   0  0  0  0  0  0  0  0  0  0  0  0
    0.8918    0.0676    3.2949 H   0  0  0  0  0  0  0  0  0  0  0  0
   -0.6503   -1.2252    2.4645 C   0  0  0  0  0  0  0  0  0  0  0  0
    0.0333   -2.0489    2.1791 H   0  0  0  0  0  0  0  0  0  0  0  0
   -1.0602   -1.4654    3.4743 H   0  0  0  0  0  0  0  0  0  0  0  0
   -2.8860   -0.3899    1.9324 C   0  0  0  0  0  0  0  0  0  0  0  0
   -3.6544   -0.3546    1.1374 H   0  0  0  0  0  0  0  0  0  0  0  0
   -2.5897    0.6433    2.1849 H   0  0  0  0  0  0  0  0  0  0  0  0
   -3.3328   -0.8657    2.8349 H   0  0  0  0  0  0  0  0  0  0  0  0
   -2.2248   -2.5620    1.2026 C   0  0  0  0  0  0  0  0  0  0  0  0
   -1.4227   -3.1604    0.7402 H   0  0  0  0  0  0  0  0  0  0  0  0
   -3.0885   -2.5268    0.5151 H   0  0  0  0  0  0  0  0  0  0  0  0
   -2.5452   -3.0232    2.1640 H   0  0  0  0  0  0  0  0  0  0  0  0
    1.9938   -0.2463    0.9338 C   0  0  0  0  0  0  0  0  0  0  0  0
    2.0113   -0.5029   -0.1391 H   0  0  0  0  0  0  0  0  0  0  0  0
    1.9986   -1.2204    1.4535 H   0  0  0  0  0  0  0  0  0  0  0  0
    3.2742    0.5440    1.2530 C   0  0  0  0  0  0  0  0  0  0  0  0
    3.0741    1.6101    1.4679 H   0  0  0  0  0  0  0  0  0  0  0  0
    3.8379    0.1314    2.1144 H   0  0  0  0  0  0  0  0  0  0  0  0
    5.2918    1.5199    0.1993 C   0  0  0  0  0  0  0  0  0  0  0  0
    5.9244    1.4772   -0.7061 H   0  0  0  0  0  0  0  0  0  0  0  0
    5.9037    1.2951    1.0935 H   0  0  0  0  0  0  0  0  0  0  0  0
    4.8481    2.5296    0.2807 H   0  0  0  0  0  0  0  0  0  0  0  0
    4.7224   -0.8375   -0.2449 C   0  0  0  0  0  0  0  0  0  0  0  0
    5.2288   -0.7955   -1.2264 H   0  0  0  0  0  0  0  0  0  0  0  0
    3.8964   -1.5813   -0.2974 H   0  0  0  0  0  0  0  0  0  0  0  0
    5.4379   -1.1423    0.5434 H   0  0  0  0  0  0  0  0  0  0  0  0
  1 18  1  0  0  0  0
  2  5  1  0  0  0  0
  3  9  1  0  0  0  0
  4 24  1  0  0  0  0
  4 21  1  0  0  0  0
  5 38  1  0  0  0  0
  5 35  1  0  0  0  0
  6  1  1  0  0  0  0
  6  8  1  0  0  0  0
  7  6  1  0  0  0  0
  9 10  1  0  0  0  0
  9  6  1  6  0  0  0
 10 11  1  0  0  0  0
 12 13  1  0  0  0  0
 12 10  2  0  0  0  0
 14 12  1  0  0  0  0
 15 14  1  0  0  0  0
 16 14  2  0  0  0  0
 16  3  1  0  0  0  0
 17 16  1  0  0  0  0
 18 19  1  0  0  0  0
 18 20  1  0  0  0  0
 21 18  1  0  0  0  0
 21 23  1  0  0  0  0
 22 21  1  0  0  0  0
 24 26  1  0  0  0  0
 24 27  1  0  0  0  0
 25 24  1  0  0  0  0
 28  4  1  0  0  0  0
 28 31  1  0  0  0  0
 29 28  1  0  0  0  0
 30 28  1  0  0  0  0
 32  1  1  0  0  0  0
 32 35  1  0  0  0  0
 32 34  1  0  0  0  0
 33 32  1  0  0  0  0
 35 36  1  0  0  0  0
 35 37  1  0  0  0  0
 38 41  1  0  0  0  0
 38 40  1  0  0  0  0
 39 38  1  0  0  0  0
 42  5  1  0  0  0  0
 42 45  1  0  0  0  0
 43 42  1  0  0  0  0
 44 42  1  0  0  0  0
M  CHG  1   5   1
M  END
