2,3,4
 OpenBabel05122313063D

 43 46  0  0  1  0  0  0  0  0999 V2000
    9.0135    0.3751    0.0519 S   0  0  0  0  0  0  0  0  0  0  0  0
    0.1355    0.0525   -0.2072 N   0  0  0  0  0  2  0  0  0  0  0  0
   -1.4971    2.0395   -0.2617 N   0  0  0  0  0  2  0  0  0  0  0  0
   -1.3926   -1.9936   -0.5138 N   0  0  0  0  0  2  0  0  0  0  0  0
    5.1408    1.2693   -0.5540 C   0  0  0  0  0  0  0  0  0  0  0  0
    4.6109    2.1155   -1.0163 H   0  0  0  0  0  0  0  0  0  0  0  0
    0.7730    1.2593   -0.1464 C   0  0  0  0  0  0  0  0  0  0  0  0
   -0.1667    2.3917   -0.1511 C   0  0  0  0  0  0  0  0  0  0  0  0
   -2.4352    3.0122   -0.2832 C   0  0  0  0  0  0  0  0  0  0  0  0
   -3.4754    2.6724   -0.3905 H   0  0  0  0  0  0  0  0  0  0  0  0
   -2.1135    4.3684   -0.1894 C   0  0  0  0  0  0  0  0  0  0  0  0
   -2.9154    5.1192   -0.2156 H   0  0  0  0  0  0  0  0  0  0  0  0
   -0.7647    4.7414   -0.0730 C   0  0  0  0  0  0  0  0  0  0  0  0
   -0.4777    5.8002   -0.0014 H   0  0  0  0  0  0  0  0  0  0  0  0
    0.2123    3.7406   -0.0548 C   0  0  0  0  0  0  0  0  0  0  0  0
    1.2759    4.0010    0.0317 H   0  0  0  0  0  0  0  0  0  0  0  0
    2.1698    1.3113   -0.0928 C   0  0  0  0  0  0  0  0  0  0  0  0
    2.6742    2.2830   -0.0120 H   0  0  0  0  0  0  0  0  0  0  0  0
    2.9380    0.1201   -0.1267 C   0  0  0  0  0  0  0  0  0  0  0  0
    2.2322   -1.1050   -0.2376 C   0  0  0  0  0  0  0  0  0  0  0  0
    2.7888   -2.0464   -0.3341 H   0  0  0  0  0  0  0  0  0  0  0  0
    0.8345   -1.1189   -0.2866 C   0  0  0  0  0  0  0  0  0  0  0  0
   -0.0454   -2.2880   -0.4442 C   0  0  2  0  0  3  0  0  0  0  0  0
   -2.2793   -3.0025   -0.6639 C   0  0  0  0  0  0  0  0  0  0  0  0
   -3.3361   -2.7059   -0.7288 H   0  0  0  0  0  0  0  0  0  0  0  0
   -1.8876   -4.3409   -0.7464 C   0  0  0  0  0  0  0  0  0  0  0  0
   -2.6497   -5.1224   -0.8728 H   0  0  0  0  0  0  0  0  0  0  0  0
   -0.5209   -4.6555   -0.6758 C   0  0  0  0  0  0  0  0  0  0  0  0
   -0.1792   -5.6983   -0.7432 H   0  0  0  0  0  0  0  0  0  0  0  0
    0.4030   -3.6165   -0.5232 C   0  0  0  0  0  0  0  0  0  0  0  0
    1.4791   -3.8303   -0.4684 H   0  0  0  0  0  0  0  0  0  0  0  0
    4.4101    0.1542   -0.0704 C   0  0  0  0  0  0  0  0  0  0  0  0
    6.5318    1.3015   -0.5062 C   0  0  0  0  0  0  0  0  0  0  0  0
    7.0725    2.1722   -0.9076 H   0  0  0  0  0  0  0  0  0  0  0  0
    7.2625    0.2159    0.0401 C   0  0  0  0  0  0  0  0  0  0  0  0
    6.5460   -0.8999    0.5295 C   0  0  0  0  0  0  0  0  0  0  0  0
    7.0735   -1.7548    0.9728 H   0  0  0  0  0  0  0  0  0  0  0  0
    5.1499   -0.9240    0.4675 C   0  0  0  0  0  0  0  0  0  0  0  0
    4.6230   -1.7955    0.8848 H   0  0  0  0  0  0  0  0  0  0  0  0
    9.5812   -1.1848    0.7801 C   0  0  0  0  0  0  0  0  0  0  0  0
   10.6854   -1.1170    0.7923 H   0  0  0  0  0  0  0  0  0  0  0  0
    9.2203   -1.3063    1.8203 H   0  0  0  0  0  0  0  0  0  0  0  0
    9.2840   -2.0552    0.1627 H   0  0  0  0  0  0  0  0  0  0  0  0
  1 40  1  0  0  0  0
  2  7  1  0  0  0  0
  3  8  1  0  0  0  0
  4 23  1  0  0  0  0
  5 33  2  0  0  0  0
  5 32  1  0  0  0  0
  6  5  1  0  0  0  0
  7 17  1  0  0  0  0
  8  7  2  0  0  0  0
  8 15  1  0  0  0  0
  9  3  1  0  0  0  0
  9 11  2  0  0  0  0
 10  9  1  0  0  0  0
 11 13  1  0  0  0  0
 12 11  1  0  0  0  0
 13 15  2  0  0  0  0
 13 14  1  0  0  0  0
 15 16  1  0  0  0  0
 17 18  1  0  0  0  0
 19 17  2  0  0  0  0
 19 32  1  0  0  0  0
 20 19  1  0  0  0  0
 21 20  1  0  0  0  0
 22 20  2  0  0  0  0
 22  2  1  0  0  0  0
 23 22  1  6  0  0  0
 24  4  1  0  0  0  0
 25 24  1  0  0  0  0
 26 28  1  0  0  0  0
 26 24  2  0  0  0  0
 27 26  1  0  0  0  0
 28 30  2  0  0  0  0
 29 28  1  0  0  0  0
 30 31  1  0  0  0  0
 30 23  1  0  0  0  0
 32 38  2  0  0  0  0
 33 35  1  0  0  0  0
 34 33  1  0  0  0  0
 35  1  1  0  0  0  0
 35 36  2  0  0  0  0
 36 37  1  0  0  0  0
 38 36  1  0  0  0  0
 38 39  1  0  0  0  0
 40 41  1  0  0  0  0
 40 42  1  0  0  0  0
 43 40  1  0  0  0  0
M  END
