1,2,3
 OpenBabel05122313063D

 33 35  0  0  0  0  0  0  0  0999 V2000
    0.7281   -1.3431   -0.2643 N   0  0  0  0  0  2  0  0  0  0  0  0
    0.1973    1.1120   -0.3694 N   0  0  0  0  0  2  0  0  0  0  0  0
   -2.2809    1.0508    0.0135 N   0  0  0  0  0  0  0  0  0  0  0  0
   -2.1390    0.9975    1.0546 H   0  0  0  0  0  0  0  0  0  0  0  0
    0.9341   -2.6664   -0.1828 C   0  0  0  0  0  0  0  0  0  0  0  0
    0.0282   -3.2874   -0.2577 H   0  0  0  0  0  0  0  0  0  0  0  0
    2.2339   -3.1952   -0.0296 C   0  0  0  0  0  0  0  0  0  0  0  0
    2.3507   -4.2871    0.0201 H   0  0  0  0  0  0  0  0  0  0  0  0
    3.3511   -2.3556    0.0663 C   0  0  0  0  0  0  0  0  0  0  0  0
    4.3605   -2.7742    0.1958 H   0  0  0  0  0  0  0  0  0  0  0  0
    3.1591   -0.9532    0.0064 C   0  0  0  0  0  0  0  0  0  0  0  0
    4.1670    0.0768    0.1232 C   0  0  0  0  0  0  0  0  0  0  0  0
    5.2141   -0.2358    0.2563 H   0  0  0  0  0  0  0  0  0  0  0  0
    3.8564    1.4248    0.0904 C   0  0  0  0  0  0  0  0  0  0  0  0
    4.6573    2.1720    0.1987 H   0  0  0  0  0  0  0  0  0  0  0  0
    2.4956    1.8809   -0.0721 C   0  0  0  0  0  0  0  0  0  0  0  0
    2.0015    3.2135   -0.0864 C   0  0  0  0  0  0  0  0  0  0  0  0
    2.6959    4.0603    0.0169 H   0  0  0  0  0  0  0  0  0  0  0  0
    0.6169    3.4498   -0.2106 C   0  0  0  0  0  0  0  0  0  0  0  0
    0.2307    4.4795   -0.2059 H   0  0  0  0  0  0  0  0  0  0  0  0
   -0.2784    2.3709   -0.3422 C   0  0  0  0  0  0  0  0  0  0  0  0
    1.8228   -0.5135   -0.1684 C   0  0  0  0  0  0  0  0  0  0  0  0
    1.5233    0.8638   -0.2137 C   0  0  0  0  0  0  0  0  0  0  0  0
   -1.7759    2.3470   -0.5105 C   0  0  0  0  0  0  0  0  0  0  0  0
   -2.2821    3.2051   -0.0170 H   0  0  0  0  0  0  0  0  0  0  0  0
   -2.0240    2.3956   -1.5950 H   0  0  0  0  0  0  0  0  0  0  0  0
   -3.6980    0.7751   -0.3161 C   0  0  0  0  0  0  0  0  0  0  0  0
   -3.7245    0.3456   -1.3387 H   0  0  0  0  0  0  0  0  0  0  0  0
   -4.2479    1.7450   -0.3297 H   0  0  0  0  0  0  0  0  0  0  0  0
   -4.3274   -0.1865    0.6804 C   0  0  0  0  0  0  0  0  0  0  0  0
   -3.7636   -1.1387    0.6897 H   0  0  0  0  0  0  0  0  0  0  0  0
   -5.3747   -0.3945    0.3855 H   0  0  0  0  0  0  0  0  0  0  0  0
   -4.3261    0.2329    1.7067 H   0  0  0  0  0  0  0  0  0  0  0  0
  1  5  1  0  0  0  0
  1 22  1  0  0  0  0
  2 21  1  0  0  0  0
  2 23  1  0  0  0  0
  3  4  1  0  0  0  0
  5  7  2  0  0  0  0
  6  5  1  0  0  0  0
  7  8  1  0  0  0  0
  7  9  1  0  0  0  0
  9 10  1  0  0  0  0
 11  9  2  0  0  0  0
 11 12  1  0  0  0  0
 12 13  1  0  0  0  0
 14 12  2  0  0  0  0
 14 15  1  0  0  0  0
 16 14  1  0  0  0  0
 17 16  2  0  0  0  0
 17 18  1  0  0  0  0
 19 20  1  0  0  0  0
 19 17  1  0  0  0  0
 21 19  2  0  0  0  0
 22 11  1  0  0  0  0
 23 22  2  0  0  0  0
 23 16  1  0  0  0  0
 24 21  1  0  0  0  0
 24 25  1  0  0  0  0
 24  3  1  0  0  0  0
 26 24  1  0  0  0  0
 27  3  1  0  0  0  0
 27 30  1  0  0  0  0
 28 27  1  0  0  0  0
 29 27  1  0  0  0  0
 30 31  1  0  0  0  0
 30 33  1  0  0  0  0
 32 30  1  0  0  0  0
M  END
