1,2,3
 OpenBabel05122313063D

 34 35  0  0  1  0  0  0  0  0999 V2000
   -0.0001    1.6398    0.2088 N   0  0  0  0  0  0  0  0  0  0  0  0
   -2.0392   -0.2373    0.0466 N   0  0  0  0  0  2  0  0  0  0  0  0
    2.0392   -0.2369    0.0458 N   0  0  0  0  0  2  0  0  0  0  0  0
   -0.0005    2.3730   -1.0945 C   0  0  0  0  0  0  0  0  0  0  0  0
   -0.8777    2.0088   -1.6631 H   0  0  0  0  0  0  0  0  0  0  0  0
    0.8764    2.0091   -1.6636 H   0  0  0  0  0  0  0  0  0  0  0  0
   -0.0008    3.8963   -1.0001 C   0  0  0  0  0  0  0  0  0  0  0  0
   -0.8978    4.3010   -0.4894 H   0  0  0  0  0  0  0  0  0  0  0  0
   -0.0010    4.3104   -2.0276 H   0  0  0  0  0  0  0  0  0  0  0  0
    0.8962    4.3014   -0.4897 H   0  0  0  0  0  0  0  0  0  0  0  0
   -1.2576    1.8801    0.9768 C   0  0  0  0  0  0  0  0  0  0  0  0
   -1.5334    2.9540    1.0046 H   0  0  0  0  0  0  0  0  0  0  0  0
   -1.0692    1.5247    2.0122 H   0  0  0  0  0  0  0  0  0  0  0  0
   -2.3832    1.0464    0.4101 C   0  0  2  0  0  3  0  0  0  0  0  0
   -3.6984    1.5013    0.3106 C   0  0  0  0  0  0  0  0  0  0  0  0
   -3.9259    2.5385    0.5974 H   0  0  0  0  0  0  0  0  0  0  0  0
   -4.7106    0.6353   -0.1389 C   0  0  0  0  0  0  0  0  0  0  0  0
   -5.7517    0.9793   -0.2157 H   0  0  0  0  0  0  0  0  0  0  0  0
   -4.3518   -0.6748   -0.4925 C   0  0  0  0  0  0  0  0  0  0  0  0
   -5.0997   -1.3949   -0.8536 H   0  0  0  0  0  0  0  0  0  0  0  0
   -3.0183   -1.0724   -0.4011 C   0  0  0  0  0  0  0  0  0  0  0  0
   -2.6892   -2.0801   -0.6894 H   0  0  0  0  0  0  0  0  0  0  0  0
    1.2577    1.8805    0.9762 C   0  0  0  0  0  0  0  0  0  0  0  0
    1.0697    1.5255    2.0118 H   0  0  0  0  0  0  0  0  0  0  0  0
    1.5333    2.9545    1.0035 H   0  0  0  0  0  0  0  0  0  0  0  0
    2.3832    1.0468    0.4094 C   0  0  1  0  0  3  0  0  0  0  0  0
    3.6984    1.5017    0.3100 C   0  0  0  0  0  0  0  0  0  0  0  0
    3.9259    2.5389    0.5969 H   0  0  0  0  0  0  0  0  0  0  0  0
    4.7106    0.6357   -0.1394 C   0  0  0  0  0  0  0  0  0  0  0  0
    5.7518    0.9797   -0.2161 H   0  0  0  0  0  0  0  0  0  0  0  0
    4.3519   -0.6744   -0.4931 C   0  0  0  0  0  0  0  0  0  0  0  0
    5.0998   -1.3945   -0.8541 H   0  0  0  0  0  0  0  0  0  0  0  0
    3.0184   -1.0720   -0.4018 C   0  0  0  0  0  0  0  0  0  0  0  0
    2.6892   -2.0796   -0.6902 H   0  0  0  0  0  0  0  0  0  0  0  0
  1 23  1  0  0  0  0
  1 11  1  0  0  0  0
  2 14  1  0  0  0  0
  3 26  1  0  0  0  0
  4  7  1  0  0  0  0
  4  1  1  0  0  0  0
  5  4  1  0  0  0  0
  6  4  1  0  0  0  0
  7 10  1  0  0  0  0
  7  8  1  0  0  0  0
  9  7  1  0  0  0  0
 11 12  1  0  0  0  0
 11 13  1  0  0  0  0
 14 11  1  1  0  0  0
 15 14  1  0  0  0  0
 15 16  1  0  0  0  0
 17 15  2  0  0  0  0
 18 17  1  0  0  0  0
 19 21  2  0  0  0  0
 19 17  1  0  0  0  0
 20 19  1  0  0  0  0
 21  2  1  0  0  0  0
 22 21  1  0  0  0  0
 23 25  1  0  0  0  0
 23 24  1  0  0  0  0
 26 23  1  1  0  0  0
 27 26  1  0  0  0  0
 27 28  1  0  0  0  0
 29 27  2  0  0  0  0
 30 29  1  0  0  0  0
 31 33  2  0  0  0  0
 31 29  1  0  0  0  0
 32 31  1  0  0  0  0
 33  3  1  0  0  0  0
 34 33  1  0  0  0  0
M  END
