1,2,3
 OpenBabel05122313063D

 23 25  0  0  0  0  0  0  0  0999 V2000
   -0.4216    0.7257    1.8895 N   0  0  0  0  0  2  0  0  0  0  0  0
    1.2295   -0.6615    0.5977 N   0  0  0  0  0  2  0  0  0  0  0  0
   -1.2973    2.0844    0.0329 N   0  0  0  0  0  2  0  0  0  0  0  0
    1.8484   -1.8758    2.3707 N   0  0  0  0  0  0  0  0  0  0  0  0
    1.8683   -2.2121    3.3320 H   0  0  0  0  0  0  0  0  0  0  0  0
   -1.3064    1.5349    2.3411 N   0  0  0  0  0  0  0  0  0  0  0  0
    2.5714   -2.3674    1.2852 C   0  0  0  0  0  0  0  0  0  0  0  0
    0.1898   -0.1470    2.6895 N   0  0  0  0  0  0  0  0  0  0  0  0
   -2.7091    3.2755    1.2932 N   0  0  0  0  0  0  0  0  0  0  0  0
   -1.7895    2.3013    1.2958 C   0  0  0  0  0  0  0  0  0  0  0  0
   -1.8882    2.9158   -0.8174 N   0  0  0  0  0  2  0  0  0  0  0  0
    1.0445   -0.8553    1.9283 C   0  0  0  0  0  0  0  0  0  0  0  0
    2.1642   -1.5817    0.1597 C   0  0  0  0  0  0  0  0  0  0  0  0
    2.7161   -1.8240   -1.1097 C   0  0  0  0  0  0  0  0  0  0  0  0
    2.4115   -1.2258   -1.9796 H   0  0  0  0  0  0  0  0  0  0  0  0
    3.5182   -3.3900    1.1696 C   0  0  0  0  0  0  0  0  0  0  0  0
    3.8254   -3.9893    2.0391 H   0  0  0  0  0  0  0  0  0  0  0  0
    4.0606   -3.6219   -0.1067 C   0  0  0  0  0  0  0  0  0  0  0  0
    4.8074   -4.4191   -0.2355 H   0  0  0  0  0  0  0  0  0  0  0  0
    3.6653   -2.8522   -1.2216 C   0  0  0  0  0  0  0  0  0  0  0  0
    4.1125   -3.0615   -2.2047 H   0  0  0  0  0  0  0  0  0  0  0  0
   -2.7326    3.6164   -0.0209 C   0  0  0  0  0  0  0  0  0  0  0  0
   -3.3833    4.4002   -0.4303 H   0  0  0  0  0  0  0  0  0  0  0  0
  1  6  1  0  0  0  0
  1  8  1  0  0  0  0
  2 12  1  0  0  0  0
  3 10  1  0  0  0  0
  4  5  1  0  0  0  0
  7  4  1  0  0  0  0
  9 10  1  0  0  0  0
 10  6  2  0  0  0  0
 11 22  1  0  0  0  0
 11  3  1  0  0  0  0
 12  4  1  0  0  0  0
 12  8  2  0  0  0  0
 13  2  1  0  0  0  0
 13  7  2  0  0  0  0
 14 13  1  0  0  0  0
 15 14  1  0  0  0  0
 16  7  1  0  0  0  0
 16 17  1  0  0  0  0
 18 16  2  0  0  0  0
 19 18  1  0  0  0  0
 20 14  2  0  0  0  0
 20 18  1  0  0  0  0
 21 20  1  0  0  0  0
 22  9  2  0  0  0  0
 23 22  1  0  0  0  0
M  END
