1,3,5
 OpenBabel05122313063D

 34 36  0  0  0  0  0  0  0  0999 V2000
    1.6766   -0.3171    1.5953 N   0  0  0  0  0  2  0  0  0  0  0  0
    2.4514   -1.4618    1.3910 C   0  0  0  0  0  0  0  0  0  0  0  0
   -1.2539   -0.9384   -1.0044 N   0  0  0  0  0  2  0  0  0  0  0  0
    2.0208   -2.3565    0.4887 N   0  0  0  0  0  0  0  0  0  0  0  0
    0.8984   -1.9087   -0.0839 N   0  0  0  0  0  2  0  0  0  0  0  0
   -0.9383   -2.1966   -1.5228 C   0  0  0  0  0  0  0  0  0  0  0  0
   -2.5353   -0.3659   -1.2334 C   0  0  0  0  0  0  0  0  0  0  0  0
    0.2744   -2.7529   -1.0239 C   0  0  0  0  0  0  0  0  0  0  0  0
    3.6531   -1.6553    2.1338 C   0  0  0  0  0  0  0  0  0  0  0  0
    4.2285   -2.5695    1.9364 H   0  0  0  0  0  0  0  0  0  0  0  0
   -5.0469    0.8743   -1.5389 C   0  0  0  0  0  0  0  0  0  0  0  0
   -6.0263    1.3633   -1.6503 H   0  0  0  0  0  0  0  0  0  0  0  0
   -2.6508    0.8350   -1.9637 C   0  0  0  0  0  0  0  0  0  0  0  0
   -1.7446    1.2829   -2.3966 H   0  0  0  0  0  0  0  0  0  0  0  0
    2.0819    0.6031    2.5233 C   0  0  0  0  0  0  0  0  0  0  0  0
    1.4261    1.4786    2.6417 H   0  0  0  0  0  0  0  0  0  0  0  0
    4.0509   -0.7041    3.0540 C   0  0  0  0  0  0  0  0  0  0  0  0
    4.9803   -0.8384    3.6268 H   0  0  0  0  0  0  0  0  0  0  0  0
   -4.9360   -0.3261   -0.8179 C   0  0  0  0  0  0  0  0  0  0  0  0
   -5.8281   -0.7786   -0.3585 H   0  0  0  0  0  0  0  0  0  0  0  0
    3.2459    0.4529    3.2567 C   0  0  0  0  0  0  0  0  0  0  0  0
    3.5326    1.2268    3.9819 H   0  0  0  0  0  0  0  0  0  0  0  0
   -3.9008    1.4513   -2.1096 C   0  0  0  0  0  0  0  0  0  0  0  0
   -3.9763    2.3950   -2.6707 H   0  0  0  0  0  0  0  0  0  0  0  0
   -3.6891   -0.9474   -0.6636 C   0  0  0  0  0  0  0  0  0  0  0  0
   -3.5886   -1.8766   -0.0830 H   0  0  0  0  0  0  0  0  0  0  0  0
    0.7384   -4.0013   -1.4564 C   0  0  0  0  0  0  0  0  0  0  0  0
    1.6782   -4.3873   -1.0391 H   0  0  0  0  0  0  0  0  0  0  0  0
   -0.0143   -4.7136   -2.4064 C   0  0  0  0  0  0  0  0  0  0  0  0
    0.3370   -5.6946   -2.7588 H   0  0  0  0  0  0  0  0  0  0  0  0
   -1.6818   -2.9202   -2.4744 C   0  0  0  0  0  0  0  0  0  0  0  0
   -2.6162   -2.4988   -2.8709 H   0  0  0  0  0  0  0  0  0  0  0  0
   -1.2124   -4.1734   -2.9067 C   0  0  0  0  0  0  0  0  0  0  0  0
   -1.7955   -4.7357   -3.6519 H   0  0  0  0  0  0  0  0  0  0  0  0
  1 15  1  0  0  0  0
  2  1  1  0  0  0  0
  2  9  1  0  0  0  0
  4  2  2  0  0  0  0
  5  4  1  0  0  0  0
  6  8  1  0  0  0  0
  6  3  1  0  0  0  0
  7  3  1  0  0  0  0
  7 25  1  0  0  0  0
  8  5  1  0  0  0  0
  9 17  2  0  0  0  0
 10  9  1  0  0  0  0
 11 19  1  0  0  0  0
 12 11  1  0  0  0  0
 13  7  2  0  0  0  0
 14 13  1  0  0  0  0
 15 16  1  0  0  0  0
 15 21  2  0  0  0  0
 17 21  1  0  0  0  0
 17 18  1  0  0  0  0
 19 25  2  0  0  0  0
 19 20  1  0  0  0  0
 21 22  1  0  0  0  0
 23 13  1  0  0  0  0
 23 11  2  0  0  0  0
 24 23  1  0  0  0  0
 25 26  1  0  0  0  0
 27 28  1  0  0  0  0
 27  8  2  0  0  0  0
 29 27  1  0  0  0  0
 30 29  1  0  0  0  0
 31  6  2  0  0  0  0
 32 31  1  0  0  0  0
 33 31  1  0  0  0  0
 33 29  2  0  0  0  0
 34 33  1  0  0  0  0
M  END
