1,2,3
 OpenBabel05122313063D

 49 51  0  0  1  0  0  0  0  0999 V2000
    2.3130    0.4431   -0.0652 N   0  0  0  0  0  2  0  0  0  0  0  0
    0.0209    1.8826   -0.3164 N   0  0  0  0  0  2  0  0  0  0  0  0
   -2.2476    0.4108   -0.4021 N   0  0  0  0  0  2  0  0  0  0  0  0
    2.4413    1.7276   -0.1880 C   0  0  0  0  0  0  0  0  0  0  0  0
    1.1869    2.5463   -0.2571 C   0  0  0  0  0  0  0  0  0  0  0  0
    1.2135    3.9590   -0.2759 C   0  0  0  0  0  0  0  0  0  0  0  0
    2.1631    4.5069   -0.2325 H   0  0  0  0  0  0  0  0  0  0  0  0
    0.0013    4.6548   -0.3430 C   0  0  0  0  0  0  0  0  0  0  0  0
   -0.0059    5.7547   -0.3579 H   0  0  0  0  0  0  0  0  0  0  0  0
   -1.2021    3.9409   -0.3803 C   0  0  0  0  0  0  0  0  0  0  0  0
   -2.1614    4.4722   -0.4223 H   0  0  0  0  0  0  0  0  0  0  0  0
   -1.1557    2.5302   -0.3609 C   0  0  0  0  0  0  0  0  0  0  0  0
   -2.3998    1.6925   -0.3436 C   0  0  2  0  0  3  0  0  0  0  0  0
    3.7571    2.4645   -0.2162 C   0  0  0  0  0  0  0  0  0  0  0  0
    4.6009    1.7775   -0.0311 H   0  0  0  0  0  0  0  0  0  0  0  0
    3.7636    3.2526    0.5640 H   0  0  0  0  0  0  0  0  0  0  0  0
    3.9260    2.9695   -1.1896 H   0  0  0  0  0  0  0  0  0  0  0  0
   -3.7288    2.3936   -0.2463 C   0  0  0  0  0  0  0  0  0  0  0  0
   -4.5592    1.6701   -0.3268 H   0  0  0  0  0  0  0  0  0  0  0  0
   -3.8331    3.1519   -1.0486 H   0  0  0  0  0  0  0  0  0  0  0  0
   -3.8239    2.9246    0.7235 H   0  0  0  0  0  0  0  0  0  0  0  0
    3.3922   -0.4544   -0.1643 C   0  0  0  0  0  0  0  0  0  0  0  0
    3.5738   -1.4586    0.8271 C   0  0  0  0  0  0  0  0  0  0  0  0
    4.6472   -2.3529    0.6573 C   0  0  0  0  0  0  0  0  0  0  0  0
    4.8100   -3.1216    1.4289 H   0  0  0  0  0  0  0  0  0  0  0  0
    5.4902   -2.3064   -0.4618 C   0  0  0  0  0  0  0  0  0  0  0  0
    6.3077   -3.0355   -0.5651 H   0  0  0  0  0  0  0  0  0  0  0  0
    5.2731   -1.3395   -1.4550 C   0  0  0  0  0  0  0  0  0  0  0  0
    5.9060   -1.3073   -2.3544 H   0  0  0  0  0  0  0  0  0  0  0  0
    4.2357   -0.4152   -1.3002 C   0  0  0  0  0  0  0  0  0  0  0  0
    4.0333    0.3277   -2.0859 H   0  0  0  0  0  0  0  0  0  0  0  0
    2.6417   -1.6036    1.9974 C   0  0  0  0  0  0  0  0  0  0  0  0
    3.1326   -2.1362    2.8345 H   0  0  0  0  0  0  0  0  0  0  0  0
    1.7687   -2.2193    1.6852 H   0  0  0  0  0  0  0  0  0  0  0  0
    2.2394   -0.6453    2.3768 H   0  0  0  0  0  0  0  0  0  0  0  0
   -3.3031   -0.5086   -0.2402 C   0  0  0  0  0  0  0  0  0  0  0  0
   -3.5857   -1.4233   -1.2892 C   0  0  0  0  0  0  0  0  0  0  0  0
   -4.6004   -2.3709   -1.0647 C   0  0  0  0  0  0  0  0  0  0  0  0
   -4.8454   -3.0770   -1.8736 H   0  0  0  0  0  0  0  0  0  0  0  0
   -5.2849   -2.4476    0.1585 C   0  0  0  0  0  0  0  0  0  0  0  0
   -6.0624   -3.2125    0.3042 H   0  0  0  0  0  0  0  0  0  0  0  0
   -4.9606   -1.5625    1.1975 C   0  0  0  0  0  0  0  0  0  0  0  0
   -5.4670   -1.6344    2.1717 H   0  0  0  0  0  0  0  0  0  0  0  0
   -3.9738   -0.5888    0.9994 C   0  0  0  0  0  0  0  0  0  0  0  0
   -3.6540    0.0774    1.8142 H   0  0  0  0  0  0  0  0  0  0  0  0
   -2.8035   -1.3794   -2.5724 C   0  0  0  0  0  0  0  0  0  0  0  0
   -1.7528   -1.6935   -2.3764 H   0  0  0  0  0  0  0  0  0  0  0  0
   -2.7684   -0.3595   -3.0066 H   0  0  0  0  0  0  0  0  0  0  0  0
   -3.2346   -2.0651   -3.3265 H   0  0  0  0  0  0  0  0  0  0  0  0
  2  5  1  0  0  0  0
  3 36  1  0  0  0  0
  4  1  1  0  0  0  0
  5  4  2  0  0  0  0
  6  5  1  0  0  0  0
  6  7  1  0  0  0  0
  8  6  2  0  0  0  0
  9  8  1  0  0  0  0
 10 12  2  0  0  0  0
 10  8  1  0  0  0  0
 11 10  1  0  0  0  0
 12 13  1  0  0  0  0
 12  2  1  0  0  0  0
 13  3  1  1  0  0  0
 13 18  1  0  0  0  0
 14  4  1  0  0  0  0
 14 15  1  0  0  0  0
 14 16  1  0  0  0  0
 17 14  1  0  0  0  0
 18 21  1  0  0  0  0
 19 18  1  0  0  0  0
 20 18  1  0  0  0  0
 22  1  1  0  0  0  0
 22 23  1  0  0  0  0
 23 32  1  0  0  0  0
 24 23  2  0  0  0  0
 24 25  1  0  0  0  0
 26 24  1  0  0  0  0
 27 26  1  0  0  0  0
 28 30  1  0  0  0  0
 28 26  2  0  0  0  0
 29 28  1  0  0  0  0
 30 22  2  0  0  0  0
 31 30  1  0  0  0  0
 32 35  1  0  0  0  0
 32 33  1  0  0  0  0
 34 32  1  0  0  0  0
 36 44  1  0  0  0  0
 37 38  1  0  0  0  0
 37 36  2  0  0  0  0
 38 40  2  0  0  0  0
 39 38  1  0  0  0  0
 40 41  1  0  0  0  0
 40 42  1  0  0  0  0
 42 43  1  0  0  0  0
 44 42  2  0  0  0  0
 44 45  1  0  0  0  0
 46 47  1  0  0  0  0
 46 37  1  0  0  0  0
 48 46  1  0  0  0  0
 49 46  1  0  0  0  0
M  END
