1,2,4
 OpenBabel05122313063D

 32 33  0  0  0  0  0  0  0  0999 V2000
   -0.5225   -2.5081    1.4273 N   0  0  0  0  0  2  0  0  0  0  0  0
   -1.3469   -2.1760   -1.1616 N   0  0  0  0  0  2  0  0  0  0  0  0
   -0.4481    0.1253   -2.3122 N   0  0  0  0  0  0  0  0  0  0  0  0
   -0.1466   -0.1615    2.7338 N   0  0  0  0  0  2  0  0  0  0  0  0
   -0.1947   -1.3089    3.4595 C   0  0  0  0  0  0  0  0  0  0  0  0
   -1.4187   -2.0759   -2.4390 C   0  0  0  0  0  3  0  0  0  0  0  0
   -1.8109   -2.8963   -3.0790 H   0  0  0  0  0  0  0  0  0  0  0  0
   -1.7654   -3.3743   -0.4643 C   0  0  0  0  0  0  0  0  0  0  0  0
   -1.9047   -4.2443   -1.1442 H   0  0  0  0  0  0  0  0  0  0  0  0
   -2.7367   -3.1569    0.0328 H   0  0  0  0  0  0  0  0  0  0  0  0
   -0.9734   -0.8428   -3.1063 C   0  0  0  0  0  0  0  0  0  0  0  0
   -0.3948   -2.5552    2.7032 C   0  0  0  0  0  0  0  0  0  0  0  0
   -0.4375   -3.5086    3.2741 H   0  0  0  0  0  0  0  0  0  0  0  0
   -0.0390    1.2689   -2.8790 C   0  0  0  0  0  0  0  0  0  0  0  0
    0.3745    2.0283   -2.2000 H   0  0  0  0  0  0  0  0  0  0  0  0
   -0.6697    0.5129   -5.0841 C   0  0  0  0  0  0  0  0  0  0  0  0
   -0.7571    0.6655   -6.1700 H   0  0  0  0  0  0  0  0  0  0  0  0
   -0.7286   -3.6955    0.6245 C   0  0  0  0  0  0  0  0  0  0  0  0
   -1.0471   -4.5755    1.2264 H   0  0  0  0  0  0  0  0  0  0  0  0
    0.2360   -3.9370    0.1265 H   0  0  0  0  0  0  0  0  0  0  0  0
    0.1027   -0.0940    5.5276 C   0  0  0  0  0  0  0  0  0  0  0  0
    0.2059   -0.0677    6.6225 H   0  0  0  0  0  0  0  0  0  0  0  0
   -0.0686   -1.3149    4.8585 C   0  0  0  0  0  0  0  0  0  0  0  0
   -0.1067   -2.2665    5.4086 H   0  0  0  0  0  0  0  0  0  0  0  0
    0.1343    1.0860    4.7759 C   0  0  0  0  0  0  0  0  0  0  0  0
    0.2572    2.0684    5.2534 H   0  0  0  0  0  0  0  0  0  0  0  0
    0.0067    1.0047    3.3774 C   0  0  0  0  0  0  0  0  0  0  0  0
    0.0154    1.9082    2.7471 H   0  0  0  0  0  0  0  0  0  0  0  0
   -0.1305    1.5080   -4.2614 C   0  0  0  0  0  0  0  0  0  0  0  0
    0.2203    2.4652   -4.6721 H   0  0  0  0  0  0  0  0  0  0  0  0
   -1.0988   -0.6858   -4.4968 C   0  0  0  0  0  0  0  0  0  0  0  0
   -1.5302   -1.4957   -5.1030 H   0  0  0  0  0  0  0  0  0  0  0  0
  1 12  1  0  0  0  0
  2  8  1  0  0  0  0
  4 27  1  0  0  0  0
  4  5  1  0  0  0  0
  5 23  1  0  0  0  0
  6  2  1  0  0  0  0
  7  6  1  0  0  0  0
  8 10  1  0  0  0  0
  8 18  1  0  0  0  0
  9  8  1  0  0  0  0
 11  6  1  0  0  0  0
 11  3  2  0  0  0  0
 12 13  1  0  0  0  0
 12  5  2  0  0  0  0
 14  3  1  0  0  0  0
 14 15  1  0  0  0  0
 16 31  2  0  0  0  0
 16 29  1  0  0  0  0
 17 16  1  0  0  0  0
 18 19  1  0  0  0  0
 18  1  1  0  0  0  0
 20 18  1  0  0  0  0
 21 22  1  0  0  0  0
 23 24  1  0  0  0  0
 23 21  2  0  0  0  0
 25 26  1  0  0  0  0
 25 21  1  0  0  0  0
 27 25  2  0  0  0  0
 28 27  1  0  0  0  0
 29 14  2  0  0  0  0
 30 29  1  0  0  0  0
 31 11  1  0  0  0  0
 32 31  1  0  0  0  0
M  END
