2,22,24
 OpenBabel05122313063D

 34 37  0  0  0  0  0  0  0  0999 V2000
    6.9749   -0.4247   -0.0087 Cl  0  0  0  0  0  0  0  0  0  0  0  0
   -2.0683   -1.3679   -0.0024 N   0  0  0  0  0  2  0  0  0  0  0  0
   -2.4614   -2.6461   -0.0058 C   0  0  0  0  0  0  0  0  0  0  0  0
   -1.6633   -3.4033   -0.0048 H   0  0  0  0  0  0  0  0  0  0  0  0
   -3.8310   -3.0017   -0.0102 C   0  0  0  0  0  0  0  0  0  0  0  0
   -4.0996   -4.0677   -0.0130 H   0  0  0  0  0  0  0  0  0  0  0  0
   -4.8261   -2.0200   -0.0111 C   0  0  0  0  0  0  0  0  0  0  0  0
   -5.8908   -2.2988   -0.0146 H   0  0  0  0  0  0  0  0  0  0  0  0
   -4.4434   -0.6532   -0.0076 C   0  0  0  0  0  0  0  0  0  0  0  0
   -3.0443   -0.4068   -0.0033 C   0  0  0  0  0  0  0  0  0  0  0  0
   -5.3051    0.5023   -0.0078 C   0  0  0  0  0  0  0  0  0  0  0  0
   -6.3939    0.3418   -0.0112 H   0  0  0  0  0  0  0  0  0  0  0  0
   -4.8035    1.7968   -0.0042 C   0  0  0  0  0  0  0  0  0  0  0  0
   -5.5006    2.6487   -0.0046 H   0  0  0  0  0  0  0  0  0  0  0  0
   -3.3896    2.0612    0.0001 C   0  0  0  0  0  0  0  0  0  0  0  0
   -2.5593    0.9199    0.0004 C   0  0  0  0  0  0  0  0  0  0  0  0
   -2.7168    3.3276    0.0039 C   0  0  0  0  0  0  0  0  0  0  0  0
   -3.3063    4.2561    0.0040 H   0  0  0  0  0  0  0  0  0  0  0  0
   -1.3245    3.3891    0.0074 C   0  0  0  0  0  0  0  0  0  0  0  0
   -0.7922    4.3502    0.0100 H   0  0  0  0  0  0  0  0  0  0  0  0
   -0.5457    2.1946    0.0073 C   0  0  0  0  0  0  0  0  0  0  0  0
   -1.2028    0.9900    0.0044 N   0  0  0  0  0  2  0  0  0  0  0  0
    0.8036    2.0812    0.0090 N   0  0  0  0  0  2  0  0  0  0  0  0
    1.1532    0.8037    0.0082 N   0  0  0  0  0  2  0  0  0  0  0  0
    2.5371    0.5445    0.0049 C   0  0  0  0  0  0  0  0  0  0  0  0
    3.4932    1.5872   -0.0098 C   0  0  0  0  0  0  0  0  0  0  0  0
    3.1357    2.6248   -0.0182 H   0  0  0  0  0  0  0  0  0  0  0  0
    4.8562    1.2901   -0.0140 C   0  0  0  0  0  0  0  0  0  0  0  0
    5.6071    2.0925   -0.0259 H   0  0  0  0  0  0  0  0  0  0  0  0
    5.2740   -0.0544   -0.0033 C   0  0  0  0  0  0  0  0  0  0  0  0
    4.3341   -1.1003    0.0116 C   0  0  0  0  0  0  0  0  0  0  0  0
    4.6783   -2.1434    0.0203 H   0  0  0  0  0  0  0  0  0  0  0  0
    2.9710   -0.8001    0.0157 C   0  0  0  0  0  0  0  0  0  0  0  0
    2.2293   -1.6098    0.0293 H   0  0  0  0  0  0  0  0  0  0  0  0
  1 30  1  0  0  0  0
  3  4  1  0  0  0  0
  3  2  1  0  0  0  0
  5  3  2  0  0  0  0
  6  5  1  0  0  0  0
  7  5  1  0  0  0  0
  7  9  2  0  0  0  0
  8  7  1  0  0  0  0
  9 10  1  0  0  0  0
 10  2  1  0  0  0  0
 10 16  2  0  0  0  0
 11  9  1  0  0  0  0
 11 13  2  0  0  0  0
 12 11  1  0  0  0  0
 13 15  1  0  0  0  0
 14 13  1  0  0  0  0
 15 16  1  0  0  0  0
 15 17  2  0  0  0  0
 16 22  1  0  0  0  0
 17 18  1  0  0  0  0
 17 19  1  0  0  0  0
 19 20  1  0  0  0  0
 21 19  2  0  0  0  0
 21 23  1  0  0  0  0
 22 21  1  0  0  0  0
 24 23  1  0  0  0  0
 25 24  1  0  0  0  0
 25 33  1  0  0  0  0
 26 25  2  0  0  0  0
 27 26  1  0  0  0  0
 28 26  1  0  0  0  0
 28 30  2  0  0  0  0
 29 28  1  0  0  0  0
 30 31  1  0  0  0  0
 31 33  2  0  0  0  0
 31 32  1  0  0  0  0
 33 34  1  0  0  0  0
M  END
