3,4,5
 OpenBabel05122313063D

 41 44  0  0  1  0  0  0  0  0999 V2000
    5.0075    2.2991   -0.9636 O   0  0  0  0  0  0  0  0  0  0  0  0
    7.3815   -2.2075    1.2603 O   0  0  0  0  0  0  0  0  0  0  0  0
   -1.1006    2.0467   -0.1141 N   0  0  0  0  0  2  0  0  0  0  0  0
    0.5343    0.0626   -0.1884 N   0  0  0  0  0  2  0  0  0  0  0  0
   -0.9844   -1.9589   -0.6597 N   0  0  0  0  0  2  0  0  0  0  0  0
   -2.0393    3.0181   -0.0767 C   0  0  0  0  0  3  0  0  0  0  0  0
   -1.7192    4.3647    0.1132 C   0  0  0  0  0  0  0  0  0  0  0  0
   -0.3716    4.7288    0.2661 C   0  0  0  0  0  0  0  0  0  0  0  0
    0.6063    3.7296    0.2237 C   0  0  0  0  0  0  0  0  0  0  0  0
    0.2284    2.3907    0.0321 C   0  0  0  0  0  0  0  0  0  0  0  0
    1.1694    1.2615   -0.0317 C   0  0  2  0  0  3  0  0  0  0  0  0
    2.5656    1.3165    0.0414 C   0  0  0  0  0  0  0  0  0  0  0  0
    3.3343    0.1303   -0.0631 C   0  0  0  0  0  0  0  0  0  0  0  0
    2.6335   -1.0835   -0.2752 C   0  0  0  0  0  0  0  0  0  0  0  0
    1.2364   -1.0983   -0.3449 C   0  0  0  0  0  0  0  0  0  0  0  0
    0.3627   -2.2548   -0.5978 C   0  0  2  0  0  3  0  0  0  0  0  0
    0.8162   -3.5728   -0.7693 C   0  0  0  0  0  0  0  0  0  0  0  0
   -0.1032   -4.5995   -1.0082 C   0  0  0  0  0  0  0  0  0  0  0  0
   -1.4699   -4.2834   -1.0710 C   0  0  0  0  0  0  0  0  0  0  0  0
   -1.8665   -2.9555   -0.8941 C   0  0  0  0  0  0  0  0  0  0  0  0
    4.8095    0.1246    0.0459 C   0  0  0  0  0  0  0  0  0  0  0  0
    5.6159    1.2036   -0.4183 C   0  0  0  0  0  0  0  0  0  0  0  0
    7.0154    1.1118   -0.3259 C   0  0  0  0  0  0  0  0  0  0  0  0
    7.6373   -0.0149    0.2229 C   0  0  0  0  0  0  0  0  0  0  0  0
    6.8560   -1.0866    0.6987 C   0  0  0  0  0  0  0  0  0  0  0  0
    5.4582   -1.0013    0.5992 C   0  0  0  0  0  0  0  0  0  0  0  0
   -3.0783    2.6865   -0.2162 H   0  0  0  0  0  0  0  0  0  0  0  0
   -2.5214    5.1155    0.1324 H   0  0  0  0  0  0  0  0  0  0  0  0
   -0.0863    5.7804    0.4126 H   0  0  0  0  0  0  0  0  0  0  0  0
    1.6696    3.9811    0.3355 H   0  0  0  0  0  0  0  0  0  0  0  0
    3.0719    2.2798    0.1653 H   0  0  0  0  0  0  0  0  0  0  0  0
    3.1952   -2.0142   -0.4281 H   0  0  0  0  0  0  0  0  0  0  0  0
    1.8922   -3.7878   -0.7181 H   0  0  0  0  0  0  0  0  0  0  0  0
    0.2422   -5.6338   -1.1479 H   0  0  0  0  0  0  0  0  0  0  0  0
   -2.2284   -5.0551   -1.2629 H   0  0  0  0  0  0  0  0  0  0  0  0
   -2.9233   -2.6570   -0.9486 H   0  0  0  0  0  0  0  0  0  0  0  0
    7.6338    1.9456   -0.6962 H   0  0  0  0  0  0  0  0  0  0  0  0
    8.7363   -0.0555    0.2873 H   0  0  0  0  0  0  0  0  0  0  0  0
    4.8693   -1.8373    1.0017 H   0  0  0  0  0  0  0  0  0  0  0  0
    5.6956    2.8948   -1.3144 H   0  0  0  0  0  0  0  0  0  0  0  0
    8.3537   -2.1338    1.2733 H   0  0  0  0  0  0  0  0  0  0  0  0
  1 22  1  0  0  0  0
  2 41  1  0  0  0  0
  3  6  1  0  0  0  0
  3 10  1  0  0  0  0
  4 11  1  0  0  0  0
  5 16  1  0  0  0  0
  6  7  1  0  0  0  0
  7 28  1  0  0  0  0
  7  8  2  0  0  0  0
  8 29  1  0  0  0  0
  9  8  1  0  0  0  0
  9 30  1  0  0  0  0
 10  9  2  0  0  0  0
 11 10  1  6  0  0  0
 11 12  1  0  0  0  0
 12 31  1  0  0  0  0
 13 12  2  0  0  0  0
 13 21  1  0  0  0  0
 14 13  1  0  0  0  0
 15 14  2  0  0  0  0
 15  4  1  0  0  0  0
 16 15  1  6  0  0  0
 17 33  1  0  0  0  0
 17 16  1  0  0  0  0
 18 17  2  0  0  0  0
 19 18  1  0  0  0  0
 19 20  2  0  0  0  0
 20  5  1  0  0  0  0
 21 26  1  0  0  0  0
 22 23  1  0  0  0  0
 22 21  2  0  0  0  0
 23 24  2  0  0  0  0
 24 38  1  0  0  0  0
 24 25  1  0  0  0  0
 25  2  1  0  0  0  0
 26 25  2  0  0  0  0
 26 39  1  0  0  0  0
 27  6  1  0  0  0  0
 32 14  1  0  0  0  0
 34 18  1  0  0  0  0
 35 19  1  0  0  0  0
 36 20  1  0  0  0  0
 37 23  1  0  0  0  0
 40  1  1  0  0  0  0
M  END
