1,7,13
 OpenBabel05122313063D

 45 45  0  0  0  0  0  0  0  0999 V2000
   -0.0255    1.3325   -0.9340 N   0  0  0  0  0  0  0  0  0  0  0  0
   -0.0685    2.8022   -0.9646 C   0  0  0  0  0  0  0  0  0  0  0  0
   -1.0232    3.3934    0.0692 C   0  0  0  0  0  0  0  0  0  0  0  0
   -1.0871    4.9110   -0.0151 C   0  0  0  0  0  0  0  0  0  0  0  0
   -1.5771    5.2682   -1.3012 O   0  0  0  0  0  0  0  0  0  0  0  0
    1.1937    0.7321   -1.4854 C   0  0  0  0  0  0  0  0  0  0  0  0
    1.2024   -0.6357   -0.9572 N   0  0  0  0  0  0  0  0  0  0  0  0
    2.4954   -1.3345   -1.0063 C   0  0  0  0  0  0  0  0  0  0  0  0
    3.5057   -0.7909    0.0003 C   0  0  0  0  0  0  0  0  0  0  0  0
    4.8389   -1.5193   -0.0782 C   0  0  0  0  0  0  0  0  0  0  0  0
    5.3813   -1.3230   -1.3778 O   0  0  0  0  0  0  0  0  0  0  0  0
    0.0650   -1.3949   -1.4887 C   0  0  0  0  0  0  0  0  0  0  0  0
   -1.1130   -0.7176   -0.9362 N   0  0  0  0  0  0  0  0  0  0  0  0
   -2.3800   -1.4589   -0.9384 C   0  0  0  0  0  0  0  0  0  0  0  0
   -2.3276   -2.7776   -0.1744 C   0  0  0  0  0  0  0  0  0  0  0  0
   -3.7152   -3.4024   -0.0048 C   0  0  0  0  0  0  0  0  0  0  0  0
   -4.3422   -3.7272   -1.2395 O   0  0  0  0  0  0  0  0  0  0  0  0
   -1.2094    0.6488   -1.4614 C   0  0  0  0  0  0  0  0  0  0  0  0
   -0.3317    3.1730   -1.9823 H   0  0  0  0  0  0  0  0  0  0  0  0
    0.9611    3.1521   -0.7438 H   0  0  0  0  0  0  0  0  0  0  0  0
   -0.7008    3.0777    1.0816 H   0  0  0  0  0  0  0  0  0  0  0  0
   -2.0503    2.9962   -0.0731 H   0  0  0  0  0  0  0  0  0  0  0  0
   -0.0684    5.3364    0.1706 H   0  0  0  0  0  0  0  0  0  0  0  0
   -1.7475    5.2888    0.8022 H   0  0  0  0  0  0  0  0  0  0  0  0
   -1.5838    6.2397   -1.3576 H   0  0  0  0  0  0  0  0  0  0  0  0
    2.0678    1.2789   -1.0880 H   0  0  0  0  0  0  0  0  0  0  0  0
    1.2230    0.7583   -2.6107 H   0  0  0  0  0  0  0  0  0  0  0  0
    2.9273   -1.3067   -2.0336 H   0  0  0  0  0  0  0  0  0  0  0  0
    2.2874   -2.3978   -0.7663 H   0  0  0  0  0  0  0  0  0  0  0  0
    3.0804   -0.8771    1.0205 H   0  0  0  0  0  0  0  0  0  0  0  0
    3.6924    0.2895   -0.1759 H   0  0  0  0  0  0  0  0  0  0  0  0
    4.6816   -2.6054    0.1432 H   0  0  0  0  0  0  0  0  0  0  0  0
    5.5126   -1.1227    0.7191 H   0  0  0  0  0  0  0  0  0  0  0  0
    6.2176   -1.8180   -1.4290 H   0  0  0  0  0  0  0  0  0  0  0  0
    0.1129   -2.4233   -1.0887 H   0  0  0  0  0  0  0  0  0  0  0  0
    0.0543   -1.4342   -2.6139 H   0  0  0  0  0  0  0  0  0  0  0  0
   -2.7281   -1.6390   -1.9854 H   0  0  0  0  0  0  0  0  0  0  0  0
   -3.1188   -0.7883   -0.4493 H   0  0  0  0  0  0  0  0  0  0  0  0
   -1.8742   -2.5957    0.8226 H   0  0  0  0  0  0  0  0  0  0  0  0
   -1.6854   -3.5122   -0.7050 H   0  0  0  0  0  0  0  0  0  0  0  0
   -4.3544   -2.7319    0.6195 H   0  0  0  0  0  0  0  0  0  0  0  0
   -3.6119   -4.3530    0.5583 H   0  0  0  0  0  0  0  0  0  0  0  0
   -4.7625   -2.9182   -1.5792 H   0  0  0  0  0  0  0  0  0  0  0  0
   -2.1173    1.1241   -1.0472 H   0  0  0  0  0  0  0  0  0  0  0  0
   -1.2590    0.6786   -2.5861 H   0  0  0  0  0  0  0  0  0  0  0  0
  2  1  1  0  0  0  0
  2 20  1  0  0  0  0
  2  3  1  0  0  0  0
  3 21  1  0  0  0  0
  4  3  1  0  0  0  0
  4 23  1  0  0  0  0
  4 24  1  0  0  0  0
  5  4  1  0  0  0  0
  6 26  1  0  0  0  0
  6  7  1  0  0  0  0
  6  1  1  0  0  0  0
  8  7  1  0  0  0  0
  8 29  1  0  0  0  0
  8  9  1  0  0  0  0
  9 30  1  0  0  0  0
 10  9  1  0  0  0  0
 10 32  1  0  0  0  0
 10 33  1  0  0  0  0
 11 10  1  0  0  0  0
 12 35  1  0  0  0  0
 12  7  1  0  0  0  0
 12 13  1  0  0  0  0
 14 13  1  0  0  0  0
 14 38  1  0  0  0  0
 14 15  1  0  0  0  0
 15 16  1  0  0  0  0
 15 39  1  0  0  0  0
 16 42  1  0  0  0  0
 16 41  1  0  0  0  0
 17 16  1  0  0  0  0
 18 44  1  0  0  0  0
 18 13  1  0  0  0  0
 18  1  1  0  0  0  0
 19  2  1  0  0  0  0
 22  3  1  0  0  0  0
 25  5  1  0  0  0  0
 27  6  1  0  0  0  0
 28  8  1  0  0  0  0
 31  9  1  0  0  0  0
 34 11  1  0  0  0  0
 36 12  1  0  0  0  0
 37 14  1  0  0  0  0
 40 15  1  0  0  0  0
 43 17  1  0  0  0  0
 45 18  1  0  0  0  0
M  END
