1,2,3
 OpenBabel05122313063D

 42 44  0  0  1  0  0  0  0  0999 V2000
    1.3159   -1.9860    0.0464 N   0  0  0  0  0  2  0  0  0  0  0  0
   -0.5693    0.0164    0.4858 N   0  0  0  0  0  0  0  0  0  0  0  0
    1.3016    2.0289    0.0408 N   0  0  0  0  0  2  0  0  0  0  0  0
    2.1080   -2.9318   -0.5097 C   0  0  0  0  0  3  0  0  0  0  0  0
    3.0472   -2.5743   -0.9536 H   0  0  0  0  0  0  0  0  0  0  0  0
    1.7503   -4.2835   -0.5175 C   0  0  0  0  0  0  0  0  0  0  0  0
    2.4267   -5.0179   -0.9765 H   0  0  0  0  0  0  0  0  0  0  0  0
    0.5296   -4.6676    0.0515 C   0  0  0  0  0  0  0  0  0  0  0  0
    0.2165   -5.7219    0.0491 H   0  0  0  0  0  0  0  0  0  0  0  0
   -0.2948   -3.6825    0.6167 C   0  0  0  0  0  0  0  0  0  0  0  0
   -1.2684   -3.9370    1.0571 H   0  0  0  0  0  0  0  0  0  0  0  0
    0.1198   -2.3483    0.6160 C   0  0  0  0  0  0  0  0  0  0  0  0
   -0.6816   -1.2406    1.2705 C   0  0  0  0  0  0  0  0  0  0  0  0
   -1.7331   -1.5610    1.4104 H   0  0  0  0  0  0  0  0  0  0  0  0
   -0.2438   -1.0460    2.2721 H   0  0  0  0  0  0  0  0  0  0  0  0
   -0.6807    1.2677    1.2756 C   0  0  0  0  0  0  0  0  0  0  0  0
   -0.2364    1.0709    2.2737 H   0  0  0  0  0  0  0  0  0  0  0  0
   -1.7366    1.5741    1.4332 H   0  0  0  0  0  0  0  0  0  0  0  0
    0.1092    2.3850    0.6227 C   0  0  1  0  0  3  0  0  0  0  0  0
   -0.3069    3.7192    0.6399 C   0  0  0  0  0  0  0  0  0  0  0  0
   -1.2700    3.9756    1.1044 H   0  0  0  0  0  0  0  0  0  0  0  0
    0.5084    4.7102    0.0698 C   0  0  0  0  0  0  0  0  0  0  0  0
    0.1932    5.7638    0.0796 H   0  0  0  0  0  0  0  0  0  0  0  0
    1.7219    4.3313   -0.5172 C   0  0  0  0  0  0  0  0  0  0  0  0
    2.3909    5.0697   -0.9807 H   0  0  0  0  0  0  0  0  0  0  0  0
    2.0843    2.9804   -0.5188 C   0  0  0  0  0  0  0  0  0  0  0  0
    3.0211    2.6285   -0.9723 H   0  0  0  0  0  0  0  0  0  0  0  0
   -1.4293    0.0204   -0.7499 C   0  0  0  0  0  0  0  0  0  0  0  0
   -1.0579    0.8487   -1.3843 H   0  0  0  0  0  0  0  0  0  0  0  0
   -1.2134   -0.9253   -1.2830 H   0  0  0  0  0  0  0  0  0  0  0  0
   -2.9123    0.1798   -0.5169 C   0  0  0  0  0  0  0  0  0  0  0  0
   -3.5078    1.4585   -0.5226 C   0  0  0  0  0  0  0  0  0  0  0  0
   -2.8676    2.3357   -0.7119 H   0  0  0  0  0  0  0  0  0  0  0  0
   -4.8844    1.6342   -0.3309 C   0  0  0  0  0  0  0  0  0  0  0  0
   -5.3234    2.6419   -0.3445 H   0  0  0  0  0  0  0  0  0  0  0  0
   -5.6993    0.5065   -0.1439 C   0  0  0  0  0  0  0  0  0  0  0  0
   -6.7836    0.6224    0.0004 H   0  0  0  0  0  0  0  0  0  0  0  0
   -5.1392   -0.7772   -0.1532 C   0  0  0  0  0  0  0  0  0  0  0  0
   -5.7811   -1.6633   -0.0199 H   0  0  0  0  0  0  0  0  0  0  0  0
   -3.7548   -0.9456   -0.3394 C   0  0  0  0  0  0  0  0  0  0  0  0
   -3.1748   -2.1860   -0.3633 O   0  0  0  0  0  0  0  0  0  0  0  0
   -3.8802   -2.8608   -0.3582 H   0  0  0  0  0  0  0  0  0  0  0  0
  1 12  1  0  0  0  0
  2 13  1  0  0  0  0
  2 16  1  0  0  0  0
  3 19  1  0  0  0  0
  4  1  1  0  0  0  0
  5  4  1  0  0  0  0
  6  4  1  0  0  0  0
  6  8  2  0  0  0  0
  7  6  1  0  0  0  0
  8 10  1  0  0  0  0
  9  8  1  0  0  0  0
 10 11  1  0  0  0  0
 12 10  2  0  0  0  0
 12 13  1  0  0  0  0
 13 14  1  0  0  0  0
 13 15  1  0  0  0  0
 16 18  1  0  0  0  0
 16 17  1  0  0  0  0
 19 20  1  0  0  0  0
 19 16  1  1  0  0  0
 20 21  1  0  0  0  0
 22 23  1  0  0  0  0
 22 20  2  0  0  0  0
 24 22  1  0  0  0  0
 25 24  1  0  0  0  0
 26 24  2  0  0  0  0
 26  3  1  0  0  0  0
 27 26  1  0  0  0  0
 28 31  1  0  0  0  0
 28  2  1  0  0  0  0
 29 28  1  0  0  0  0
 30 28  1  0  0  0  0
 31 40  1  0  0  0  0
 32 31  2  0  0  0  0
 32 34  1  0  0  0  0
 33 32  1  0  0  0  0
 34 36  2  0  0  0  0
 35 34  1  0  0  0  0
 36 37  1  0  0  0  0
 38 36  1  0  0  0  0
 38 39  1  0  0  0  0
 40 38  2  0  0  0  0
 41 42  1  0  0  0  0
 41 40  1  0  0  0  0
M  END
