1,3,5
 OpenBabel05122313063D

 51 53  0  0  1  0  0  0  0  0999 V2000
    1.0528   -1.4742    0.7764 N   0  0  0  0  0  2  0  0  0  0  0  0
    1.7614   -1.2098   -0.3479 N   0  0  0  0  0  0  0  0  0  0  0  0
    1.0785    1.4636    0.7815 N   0  0  0  0  0  2  0  0  0  0  0  0
    1.7870    1.1877   -0.3400 N   0  0  0  0  0  0  0  0  0  0  0  0
   -1.4169    0.0174   -0.3616 N   0  0  0  0  0  2  0  0  0  0  0  0
   -0.4063    0.0188   -1.7576 Si  0  0  0  0  0  0  0  0  0  0  0  0
    1.5203   -2.6355    1.2646 C   0  0  2  0  0  3  0  0  0  0  0  0
    2.5484   -3.1257    0.4159 C   0  0  0  0  0  0  0  0  0  0  0  0
    2.6861   -2.1879   -0.6096 C   0  0  0  0  0  0  0  0  0  0  0  0
    0.9503   -3.2344    2.5098 C   0  0  0  0  0  0  0  0  0  0  0  0
    3.5899   -2.1595   -1.7976 C   0  0  0  0  0  0  0  0  0  0  0  0
    1.5694    2.6123    1.2766 C   0  0  1  0  0  3  0  0  0  0  0  0
    2.6131    3.0821    0.4356 C   0  0  0  0  0  0  0  0  0  0  0  0
    2.7351    2.1454   -0.5929 C   0  0  0  0  0  0  0  0  0  0  0  0
    1.0038    3.2213    2.5190 C   0  0  0  0  0  0  0  0  0  0  0  0
    3.6448    2.1010   -1.7760 C   0  0  0  0  0  0  0  0  0  0  0  0
    1.4446   -0.0050   -1.1009 C   0  0  2  0  0  0  0  0  0  0  0  0
   -0.4701   -1.5349   -2.8409 C   0  0  0  0  0  0  0  0  0  0  0  0
   -0.4354    1.5902   -2.8172 C   0  0  0  0  0  0  0  0  0  0  0  0
   -2.8058    0.0148   -0.4171 C   0  0  0  0  0  0  0  0  0  0  0  0
   -3.5803   -0.0124    0.7787 C   0  0  0  0  0  0  0  0  0  0  0  0
   -4.9784   -0.0167    0.7510 C   0  0  0  0  0  0  0  0  0  0  0  0
   -5.6812    0.0056   -0.4667 C   0  0  0  0  0  0  0  0  0  0  0  0
   -4.9422    0.0334   -1.6602 C   0  0  0  0  0  0  0  0  0  0  0  0
   -3.5416    0.0384   -1.6392 C   0  0  0  0  0  0  0  0  0  0  0  0
    3.1223   -4.0513    0.5313 H   0  0  0  0  0  0  0  0  0  0  0  0
    1.7535   -3.5537    3.2031 H   0  0  0  0  0  0  0  0  0  0  0  0
    0.3385   -4.1304    2.2768 H   0  0  0  0  0  0  0  0  0  0  0  0
    0.3037   -2.5014    3.0272 H   0  0  0  0  0  0  0  0  0  0  0  0
    4.2526   -3.0438   -1.7849 H   0  0  0  0  0  0  0  0  0  0  0  0
    4.2367   -1.2570   -1.8109 H   0  0  0  0  0  0  0  0  0  0  0  0
    3.0214   -2.1803   -2.7512 H   0  0  0  0  0  0  0  0  0  0  0  0
    3.2075    3.9937    0.5581 H   0  0  0  0  0  0  0  0  0  0  0  0
    0.3709    4.1008    2.2785 H   0  0  0  0  0  0  0  0  0  0  0  0
    0.3768    2.4859    3.0567 H   0  0  0  0  0  0  0  0  0  0  0  0
    1.8093    3.5685    3.1956 H   0  0  0  0  0  0  0  0  0  0  0  0
    4.3302    2.9676   -1.7537 H   0  0  0  0  0  0  0  0  0  0  0  0
    3.0825    2.1428   -2.7326 H   0  0  0  0  0  0  0  0  0  0  0  0
    4.2678    1.1820   -1.7915 H   0  0  0  0  0  0  0  0  0  0  0  0
    2.0810   -0.0090   -2.0040 H   0  0  0  0  0  0  0  0  0  0  0  0
    0.2559   -1.4894   -3.6800 H   0  0  0  0  0  0  0  0  0  0  0  0
   -1.4804   -1.6757   -3.2737 H   0  0  0  0  0  0  0  0  0  0  0  0
   -0.2484   -2.4319   -2.2269 H   0  0  0  0  0  0  0  0  0  0  0  0
    0.2987    1.5472   -3.6493 H   0  0  0  0  0  0  0  0  0  0  0  0
   -1.4387    1.7533   -3.2586 H   0  0  0  0  0  0  0  0  0  0  0  0
   -0.2070    2.4740   -2.1868 H   0  0  0  0  0  0  0  0  0  0  0  0
   -3.0502   -0.0307    1.7434 H   0  0  0  0  0  0  0  0  0  0  0  0
   -5.5311   -0.0384    1.7041 H   0  0  0  0  0  0  0  0  0  0  0  0
   -6.7811    0.0019   -0.4847 H   0  0  0  0  0  0  0  0  0  0  0  0
   -5.4632    0.0523   -2.6310 H   0  0  0  0  0  0  0  0  0  0  0  0
   -3.0009    0.0629   -2.5992 H   0  0  0  0  0  0  0  0  0  0  0  0
  1  7  1  0  0  0  0
  2  1  1  0  0  0  0
  3 12  1  0  0  0  0
  4  3  1  0  0  0  0
  6 17  1  0  0  0  0
  6  5  1  0  0  0  0
  7 10  1  6  0  0  0
  8 26  1  0  0  0  0
  8  7  1  0  0  0  0
  9  2  1  0  0  0  0
  9  8  2  0  0  0  0
 10 29  1  0  0  0  0
 10 27  1  0  0  0  0
 11 30  1  0  0  0  0
 11  9  1  0  0  0  0
 12 15  1  6  0  0  0
 13 33  1  0  0  0  0
 13 12  1  0  0  0  0
 14  4  1  0  0  0  0
 14 13  2  0  0  0  0
 15 35  1  0  0  0  0
 15 36  1  0  0  0  0
 16 37  1  0  0  0  0
 16 14  1  0  0  0  0
 17 40  1  6  0  0  0
 17  2  1  0  0  0  0
 17  4  1  0  0  0  0
 18 43  1  0  0  0  0
 18  6  1  0  0  0  0
 19 46  1  0  0  0  0
 19  6  1  0  0  0  0
 20  5  1  0  0  0  0
 20 21  1  0  0  0  0
 21 47  1  0  0  0  0
 22 21  2  0  0  0  0
 22 48  1  0  0  0  0
 23 22  1  0  0  0  0
 24 25  1  0  0  0  0
 24 23  2  0  0  0  0
 25 20  2  0  0  0  0
 28 10  1  0  0  0  0
 31 11  1  0  0  0  0
 32 11  1  0  0  0  0
 34 15  1  0  0  0  0
 38 16  1  0  0  0  0
 39 16  1  0  0  0  0
 41 18  1  0  0  0  0
 42 18  1  0  0  0  0
 44 19  1  0  0  0  0
 45 19  1  0  0  0  0
 49 23  1  0  0  0  0
 50 24  1  0  0  0  0
 51 25  1  0  0  0  0
M  END
