1,2,25
 OpenBabel05122313063D

 45 49  0  0  1  0  0  0  0  0999 V2000
    0.0031    1.4811   -0.2125 N   0  0  0  0  0  2  0  0  0  0  0  0
    2.0403   -0.0791   -0.0995 N   0  0  0  0  0  2  0  0  0  0  0  0
    3.1922   -0.7326   -0.1316 N   0  0  0  0  0  0  0  0  0  0  0  0
    3.1498   -1.7561   -0.0837 H   0  0  0  0  0  0  0  0  0  0  0  0
   -0.0147    4.2369   -0.1810 C   0  0  0  0  0  0  0  0  0  0  0  0
   -0.0220    5.3369   -0.1664 H   0  0  0  0  0  0  0  0  0  0  0  0
    1.2081    3.5472   -0.1659 C   0  0  0  0  0  0  0  0  0  0  0  0
    2.1651    4.0870   -0.1370 H   0  0  0  0  0  0  0  0  0  0  0  0
    1.1733    2.1399   -0.1810 C   0  0  0  0  0  0  0  0  0  0  0  0
    2.3349    1.2343   -0.1672 C   0  0  0  0  0  0  0  0  0  0  0  0
    3.7404    1.4051   -0.2357 C   0  0  0  0  0  0  0  0  0  0  0  0
    4.3043    2.3381   -0.3273 H   0  0  0  0  0  0  0  0  0  0  0  0
    4.2770    0.1043   -0.2143 C   0  0  0  0  0  0  0  0  0  0  0  0
    5.6585   -0.3789   -0.2783 C   0  0  0  0  0  0  0  0  0  0  0  0
    6.7288    0.4836    0.0514 C   0  0  0  0  0  0  0  0  0  0  0  0
    6.5150    1.5124    0.3768 H   0  0  0  0  0  0  0  0  0  0  0  0
    8.0524    0.0319   -0.0079 C   0  0  0  0  0  0  0  0  0  0  0  0
    8.8729    0.7160    0.2561 H   0  0  0  0  0  0  0  0  0  0  0  0
    8.3334   -1.2900   -0.3903 C   0  0  0  0  0  0  0  0  0  0  0  0
    9.3741   -1.6448   -0.4326 H   0  0  0  0  0  0  0  0  0  0  0  0
    7.2787   -2.1563   -0.7186 C   0  0  0  0  0  0  0  0  0  0  0  0
    7.4888   -3.1917   -1.0260 H   0  0  0  0  0  0  0  0  0  0  0  0
    5.9536   -1.7058   -0.6683 C   0  0  0  0  0  0  0  0  0  0  0  0
    5.1430   -2.3914   -0.9595 H   0  0  0  0  0  0  0  0  0  0  0  0
   -2.0336   -0.1077   -0.1922 N   0  0  0  0  0  2  0  0  0  0  0  0
   -3.1924   -0.7532   -0.2021 N   0  0  0  0  0  0  0  0  0  0  0  0
   -3.1660   -1.7770   -0.2146 H   0  0  0  0  0  0  0  0  0  0  0  0
   -1.2281    3.5316   -0.2085 C   0  0  0  0  0  0  0  0  0  0  0  0
   -2.1920    4.0596   -0.2166 H   0  0  0  0  0  0  0  0  0  0  0  0
   -1.1750    2.1245   -0.2195 C   0  0  0  0  0  0  0  0  0  0  0  0
   -2.3274    1.2083   -0.2363 C   0  0  2  0  0  3  0  0  0  0  0  0
   -3.7327    1.3858   -0.2860 C   0  0  0  0  0  0  0  0  0  0  0  0
   -4.2949    2.3240   -0.3077 H   0  0  0  0  0  0  0  0  0  0  0  0
   -4.2749    0.0889   -0.2606 C   0  0  0  0  0  0  0  0  0  0  0  0
   -5.6594   -0.3895   -0.2774 C   0  0  0  0  0  0  0  0  0  0  0  0
   -6.6909    0.4349   -0.7818 C   0  0  0  0  0  0  0  0  0  0  0  0
   -6.4429    1.4296   -1.1806 H   0  0  0  0  0  0  0  0  0  0  0  0
   -8.0169   -0.0135   -0.7992 C   0  0  0  0  0  0  0  0  0  0  0  0
   -8.8072    0.6403   -1.1979 H   0  0  0  0  0  0  0  0  0  0  0  0
   -8.3379   -1.2946   -0.3209 C   0  0  0  0  0  0  0  0  0  0  0  0
   -9.3801   -1.6468   -0.3382 H   0  0  0  0  0  0  0  0  0  0  0  0
   -7.3217   -2.1223    0.1820 C   0  0  0  0  0  0  0  0  0  0  0  0
   -7.5646   -3.1236    0.5682 H   0  0  0  0  0  0  0  0  0  0  0  0
   -5.9951   -1.6741    0.2094 C   0  0  0  0  0  0  0  0  0  0  0  0
   -5.2175   -2.3227    0.6412 H   0  0  0  0  0  0  0  0  0  0  0  0
  1  9  1  0  0  0  0
  3  2  1  0  0  0  0
  3  4  1  0  0  0  0
  5  6  1  0  0  0  0
  5  7  2  0  0  0  0
  7  8  1  0  0  0  0
  9 10  2  0  0  0  0
  9  7  1  0  0  0  0
 10  2  1  0  0  0  0
 11 13  2  0  0  0  0
 11 10  1  0  0  0  0
 12 11  1  0  0  0  0
 13  3  1  0  0  0  0
 14 13  1  0  0  0  0
 14 15  1  0  0  0  0
 15 16  1  0  0  0  0
 17 15  2  0  0  0  0
 17 18  1  0  0  0  0
 19 17  1  0  0  0  0
 20 19  1  0  0  0  0
 21 23  1  0  0  0  0
 21 19  2  0  0  0  0
 22 21  1  0  0  0  0
 23 14  2  0  0  0  0
 24 23  1  0  0  0  0
 26 25  1  0  0  0  0
 27 26  1  0  0  0  0
 28  5  1  0  0  0  0
 29 28  1  0  0  0  0
 30  1  1  0  0  0  0
 30 28  2  0  0  0  0
 31 30  1  1  0  0  0
 31 25  1  0  0  0  0
 32 34  2  0  0  0  0
 32 31  1  0  0  0  0
 33 32  1  0  0  0  0
 34 26  1  0  0  0  0
 35 34  1  0  0  0  0
 35 44  1  0  0  0  0
 36 35  2  0  0  0  0
 37 36  1  0  0  0  0
 38 36  1  0  0  0  0
 38 40  2  0  0  0  0
 39 38  1  0  0  0  0
 40 42  1  0  0  0  0
 41 40  1  0  0  0  0
 42 44  2  0  0  0  0
 42 43  1  0  0  0  0
 44 45  1  0  0  0  0
M  END
