1,3,6
 OpenBabel05122313063D

 27 28  0  0  1  0  0  0  0  0999 V2000
    0.9588    1.6776   -0.2432 N   0  0  0  0  0  2  0  0  0  0  0  0
    0.1145    2.2573   -0.3399 H   0  0  0  0  0  0  0  0  0  0  0  0
    0.6417   -2.0870   -0.1980 N   0  0  0  0  0  0  0  0  0  0  0  0
   -0.0039   -2.4965    0.4984 H   0  0  0  0  0  0  0  0  0  0  0  0
    0.2184   -2.3251   -1.1135 H   0  0  0  0  0  0  0  0  0  0  0  0
    2.6270   -0.3865   -0.0128 N   0  0  0  0  0  2  0  0  0  0  0  0
    3.5938    0.4617    0.0396 N   0  0  0  0  0  0  0  0  0  0  0  0
    2.0795    2.4102   -0.1625 C   0  0  2  0  0  3  0  0  0  0  0  0
    2.0308    3.8424   -0.2303 C   0  0  0  0  0  0  0  0  0  0  0  0
    1.0471    4.3232   -0.3494 H   0  0  0  0  0  0  0  0  0  0  0  0
    3.1821    4.6029   -0.1458 C   0  0  0  0  0  0  0  0  0  0  0  0
    3.1073    5.6997   -0.1995 H   0  0  0  0  0  0  0  0  0  0  0  0
    4.4630    3.9935    0.0113 C   0  0  0  0  0  0  0  0  0  0  0  0
    5.3642    4.6188    0.0780 H   0  0  0  0  0  0  0  0  0  0  0  0
    4.5566    2.6193    0.0749 C   0  0  0  0  0  0  0  0  0  0  0  0
    5.5214    2.1056    0.1898 H   0  0  0  0  0  0  0  0  0  0  0  0
    3.3888    1.7923   -0.0119 C   0  0  0  0  0  0  0  0  0  0  0  0
    3.0176   -1.7536    0.0075 C   0  0  0  0  0  0  0  0  0  0  0  0
    4.3459   -2.2131    0.1094 C   0  0  0  0  0  0  0  0  0  0  0  0
    5.1581   -1.4775    0.1684 H   0  0  0  0  0  0  0  0  0  0  0  0
    4.5857   -3.5912    0.1411 C   0  0  0  0  0  0  0  0  0  0  0  0
    5.6201   -3.9558    0.2262 H   0  0  0  0  0  0  0  0  0  0  0  0
    3.5260   -4.5157    0.0694 C   0  0  0  0  0  0  0  0  0  0  0  0
    3.7308   -5.5955    0.0967 H   0  0  0  0  0  0  0  0  0  0  0  0
    2.2033   -4.0589   -0.0400 C   0  0  0  0  0  0  0  0  0  0  0  0
    1.3649   -4.7695   -0.1032 H   0  0  0  0  0  0  0  0  0  0  0  0
    1.9655   -2.6813   -0.0718 C   0  0  0  0  0  0  0  0  0  0  0  0
  2  1  1  0  0  0  0
  3 27  1  0  0  0  0
  3  4  1  0  0  0  0
  5  3  1  0  0  0  0
  6 18  1  0  0  0  0
  6  7  1  0  0  0  0
  8  1  1  6  0  0  0
  8 17  1  0  0  0  0
  9  8  1  0  0  0  0
  9 11  2  0  0  0  0
 10  9  1  0  0  0  0
 11 13  1  0  0  0  0
 12 11  1  0  0  0  0
 13 15  2  0  0  0  0
 13 14  1  0  0  0  0
 15 16  1  0  0  0  0
 17  7  2  0  0  0  0
 17 15  1  0  0  0  0
 18 19  1  0  0  0  0
 19 21  2  0  0  0  0
 19 20  1  0  0  0  0
 21 22  1  0  0  0  0
 23 24  1  0  0  0  0
 23 21  1  0  0  0  0
 25 23  2  0  0  0  0
 26 25  1  0  0  0  0
 27 25  1  0  0  0  0
 27 18  2  0  0  0  0
M  END
