1,3,5
 OpenBabel05122313063D

 26 27  0  0  1  0  0  0  0  0999 V2000
   -0.6504   -2.1600   -0.0412 N   0  0  0  0  0  2  0  0  0  0  0  0
    0.1473   -2.7866   -0.1697 H   0  0  0  0  0  0  0  0  0  0  0  0
   -0.9921    1.8139   -0.0825 N   0  0  0  0  0  2  0  0  0  0  0  0
   -0.2034    2.4656   -0.1621 H   0  0  0  0  0  0  0  0  0  0  0  0
   -2.6896   -0.4891    0.0160 N   0  0  0  0  0  2  0  0  0  0  0  0
   -3.6503    0.3710    0.0628 N   0  0  0  0  0  0  0  0  0  0  0  0
   -1.8800   -2.7397   -0.0229 C   0  0  0  0  0  0  0  0  0  0  0  0
   -2.1300   -4.1415   -0.0490 C   0  0  0  0  0  0  0  0  0  0  0  0
   -1.2738   -4.8331   -0.0932 H   0  0  0  0  0  0  0  0  0  0  0  0
   -3.4353   -4.6257   -0.0136 C   0  0  0  0  0  0  0  0  0  0  0  0
   -3.6084   -5.7129   -0.0321 H   0  0  0  0  0  0  0  0  0  0  0  0
   -4.5404   -3.7397    0.0466 C   0  0  0  0  0  0  0  0  0  0  0  0
   -5.5650   -4.1387    0.0763 H   0  0  0  0  0  0  0  0  0  0  0  0
   -4.3280   -2.3620    0.0643 C   0  0  0  0  0  0  0  0  0  0  0  0
   -5.1571   -1.6430    0.1036 H   0  0  0  0  0  0  0  0  0  0  0  0
   -3.0109   -1.8555    0.0252 C   0  0  0  0  0  0  0  0  0  0  0  0
   -3.4572    1.7156    0.0368 C   0  0  0  0  0  0  0  0  0  0  0  0
   -4.6678    2.4821    0.0894 C   0  0  0  0  0  0  0  0  0  0  0  0
   -5.5994    1.9018    0.1557 H   0  0  0  0  0  0  0  0  0  0  0  0
   -4.6753    3.8639    0.0547 C   0  0  0  0  0  0  0  0  0  0  0  0
   -5.6243    4.4178    0.0960 H   0  0  0  0  0  0  0  0  0  0  0  0
   -3.4391    4.5619   -0.0393 C   0  0  0  0  0  0  0  0  0  0  0  0
   -3.4288    5.6624   -0.0715 H   0  0  0  0  0  0  0  0  0  0  0  0
   -2.2439    3.8667   -0.0901 C   0  0  0  0  0  0  0  0  0  0  0  0
   -1.2865    4.4090   -0.1611 H   0  0  0  0  0  0  0  0  0  0  0  0
   -2.1882    2.4334   -0.0472 C   0  0  1  0  0  3  0  0  0  0  0  0
  1  7  1  0  0  0  0
  2  1  1  0  0  0  0
  4  3  1  0  0  0  0
  5 16  1  0  0  0  0
  5  6  1  0  0  0  0
  7 16  1  0  0  0  0
  8  7  2  0  0  0  0
  8 10  1  0  0  0  0
  9  8  1  0  0  0  0
 10 12  2  0  0  0  0
 11 10  1  0  0  0  0
 12 14  1  0  0  0  0
 12 13  1  0  0  0  0
 14 15  1  0  0  0  0
 16 14  2  0  0  0  0
 17  6  2  0  0  0  0
 17 18  1  0  0  0  0
 18 19  1  0  0  0  0
 20 18  2  0  0  0  0
 20 21  1  0  0  0  0
 22 20  1  0  0  0  0
 23 22  1  0  0  0  0
 24 26  1  0  0  0  0
 24 22  2  0  0  0  0
 25 24  1  0  0  0  0
 26  3  1  1  0  0  0
 26 17  1  0  0  0  0
M  END
