1,13,16
 OpenBabel05122313063D

 43 45  0  0  1  0  0  0  0  0999 V2000
    2.0494   -0.2239    0.0800 N   0  0  0  0  0  2  0  0  0  0  0  0
    2.9755   -1.4102    0.1903 C   0  0  0  0  0  0  0  0  0  0  0  0
    4.2368   -0.7295    0.7706 C   0  0  0  0  0  0  0  0  0  0  0  0
    4.1154    0.6513    0.3990 O   0  0  0  0  0  0  0  0  0  0  0  0
    2.7932    0.8647    0.1717 C   0  0  2  0  0  3  0  0  0  0  0  0
    2.4762   -2.4810    1.1615 C   0  0  0  0  0  0  0  0  0  0  0  0
    3.2774   -1.9645   -1.2112 C   0  0  0  0  0  0  0  0  0  0  0  0
    2.4046    2.2269    0.0838 C   0  0  0  0  0  0  0  0  0  0  0  0
    1.1031    2.6596    0.0046 C   0  0  0  0  0  0  0  0  0  0  0  0
    0.7157    4.1252    0.0003 C   0  0  0  0  0  0  0  0  0  0  0  0
   -0.7670    4.0887   -0.3861 C   0  0  0  0  0  0  0  0  0  0  0  0
   -1.1415    2.6367   -0.1672 C   0  0  2  0  0  3  0  0  0  0  0  0
   -0.0141    1.8648   -0.0278 N   0  0  0  0  0  2  0  0  0  0  0  0
   -2.4406    2.1921   -0.1230 C   0  0  0  0  0  0  0  0  0  0  0  0
   -2.8085    0.8371    0.0875 C   0  0  0  0  0  0  0  0  0  0  0  0
   -2.0457   -0.2407    0.0686 N   0  0  0  0  0  2  0  0  0  0  0  0
   -2.9484   -1.4306    0.2847 C   0  0  0  0  0  0  0  0  0  0  0  0
   -4.1978   -0.7273    0.8593 C   0  0  0  0  0  0  0  0  0  0  0  0
   -4.1216    0.6174    0.3591 O   0  0  0  0  0  0  0  0  0  0  0  0
   -2.3942   -2.4331    1.2967 C   0  0  0  0  0  0  0  0  0  0  0  0
   -3.2933   -2.0739   -1.0687 C   0  0  0  0  0  0  0  0  0  0  0  0
    5.1796   -1.1309    0.3527 H   0  0  0  0  0  0  0  0  0  0  0  0
    4.2699   -0.7915    1.8816 H   0  0  0  0  0  0  0  0  0  0  0  0
    3.2902   -3.2110    1.3521 H   0  0  0  0  0  0  0  0  0  0  0  0
    2.1860   -2.0212    2.1272 H   0  0  0  0  0  0  0  0  0  0  0  0
    1.6055   -3.0168    0.7444 H   0  0  0  0  0  0  0  0  0  0  0  0
    3.9900   -2.8114   -1.1351 H   0  0  0  0  0  0  0  0  0  0  0  0
    2.3468   -2.3179   -1.6895 H   0  0  0  0  0  0  0  0  0  0  0  0
    3.7347   -1.1781   -1.8453 H   0  0  0  0  0  0  0  0  0  0  0  0
    3.2128    2.9652    0.1537 H   0  0  0  0  0  0  0  0  0  0  0  0
    1.3514    4.7177   -0.6854 H   0  0  0  0  0  0  0  0  0  0  0  0
    0.8628    4.5408    1.0203 H   0  0  0  0  0  0  0  0  0  0  0  0
   -0.9151    4.3377   -1.4590 H   0  0  0  0  0  0  0  0  0  0  0  0
   -1.4090    4.7758    0.1976 H   0  0  0  0  0  0  0  0  0  0  0  0
   -3.2611    2.9184   -0.1726 H   0  0  0  0  0  0  0  0  0  0  0  0
   -4.1804   -0.6885    1.9719 H   0  0  0  0  0  0  0  0  0  0  0  0
   -5.1487   -1.1808    0.5214 H   0  0  0  0  0  0  0  0  0  0  0  0
   -3.1830   -3.1691    1.5567 H   0  0  0  0  0  0  0  0  0  0  0  0
   -1.5265   -2.9726    0.8770 H   0  0  0  0  0  0  0  0  0  0  0  0
   -2.0796   -1.9140    2.2240 H   0  0  0  0  0  0  0  0  0  0  0  0
   -3.9896   -2.9236   -0.9132 H   0  0  0  0  0  0  0  0  0  0  0  0
   -3.7868   -1.3342   -1.7312 H   0  0  0  0  0  0  0  0  0  0  0  0
   -2.3761   -2.4424   -1.5605 H   0  0  0  0  0  0  0  0  0  0  0  0
  1  5  1  0  0  0  0
  1  2  1  0  0  0  0
  2  3  1  0  0  0  0
  2  6  1  0  0  0  0
  3 23  1  0  0  0  0
  4  3  1  0  0  0  0
  5  8  1  1  0  0  0
  5  4  1  0  0  0  0
  6 24  1  0  0  0  0
  6 25  1  0  0  0  0
  7 27  1  0  0  0  0
  7  2  1  0  0  0  0
  8 30  1  0  0  0  0
  9  8  2  0  0  0  0
 10  9  1  0  0  0  0
 10 32  1  0  0  0  0
 11 12  1  0  0  0  0
 11 10  1  0  0  0  0
 11 34  1  0  0  0  0
 12 14  1  6  0  0  0
 12 13  1  0  0  0  0
 13  9  1  0  0  0  0
 14 15  2  0  0  0  0
 15 19  1  0  0  0  0
 16 15  1  0  0  0  0
 16 17  1  0  0  0  0
 17 18  1  0  0  0  0
 17 20  1  0  0  0  0
 18 36  1  0  0  0  0
 19 18  1  0  0  0  0
 20 38  1  0  0  0  0
 20 40  1  0  0  0  0
 21 41  1  0  0  0  0
 21 17  1  0  0  0  0
 22  3  1  0  0  0  0
 26  6  1  0  0  0  0
 28  7  1  0  0  0  0
 29  7  1  0  0  0  0
 31 10  1  0  0  0  0
 33 11  1  0  0  0  0
 35 14  1  0  0  0  0
 37 18  1  0  0  0  0
 39 20  1  0  0  0  0
 42 21  1  0  0  0  0
 43 21  1  0  0  0  0
M  END
