2,3,4
 OpenBabel05122313063D

 36 38  0  0  0  0  0  0  0  0999 V2000
    3.7450    1.6364   -0.6806 O   0  0  0  0  0  0  0  0  0  0  0  0
    0.8943    2.0613    1.4191 N   0  0  0  0  0  2  0  0  0  0  0  0
    1.7702    0.3911   -0.5746 N   0  0  0  0  0  2  0  0  0  0  0  0
   -0.2262   -1.1982   -1.5016 N   0  0  0  0  0  2  0  0  0  0  0  0
   -1.0554   -2.1790   -1.4159 N   0  0  0  0  0  2  0  0  0  0  0  0
    0.3479    2.9327    2.2801 C   0  0  0  0  0  3  0  0  0  0  0  0
   -0.5825    2.6069    2.7775 H   0  0  0  0  0  0  0  0  0  0  0  0
    0.9168    4.1871    2.5478 C   0  0  0  0  0  0  0  0  0  0  0  0
    0.4403    4.8689    3.2676 H   0  0  0  0  0  0  0  0  0  0  0  0
    2.1064    4.5371    1.8861 C   0  0  0  0  0  0  0  0  0  0  0  0
    2.5842    5.5108    2.0744 H   0  0  0  0  0  0  0  0  0  0  0  0
    2.6712    3.6313    0.9805 C   0  0  0  0  0  0  0  0  0  0  0  0
    3.5971    3.8334    0.4235 H   0  0  0  0  0  0  0  0  0  0  0  0
    2.0220    2.4019    0.7645 C   0  0  0  0  0  0  0  0  0  0  0  0
    2.6043    1.4265   -0.2333 C   0  0  0  0  0  0  0  0  0  0  0  0
    2.1373   -0.6399   -1.4360 C   0  0  0  0  0  0  0  0  0  0  0  0
    3.4515   -0.8914   -1.9074 C   0  0  0  0  0  0  0  0  0  0  0  0
    4.2395   -0.1791   -1.6442 H   0  0  0  0  0  0  0  0  0  0  0  0
    3.7236   -2.0390   -2.6600 C   0  0  0  0  0  0  0  0  0  0  0  0
    4.7541   -2.2181   -3.0038 H   0  0  0  0  0  0  0  0  0  0  0  0
    2.7086   -2.9641   -2.9721 C   0  0  0  0  0  0  0  0  0  0  0  0
    2.9377   -3.8643   -3.5625 H   0  0  0  0  0  0  0  0  0  0  0  0
    1.4011   -2.7200   -2.5477 C   0  0  0  0  0  0  0  0  0  0  0  0
    0.5696   -3.3962   -2.7900 H   0  0  0  0  0  0  0  0  0  0  0  0
    1.0996   -1.5557   -1.8080 C   0  0  0  0  0  0  0  0  0  0  0  0
   -2.4074   -1.8282   -1.3794 C   0  0  0  0  0  0  0  0  0  0  0  0
   -2.9282   -0.6215   -1.9089 C   0  0  0  0  0  0  0  0  0  0  0  0
   -2.2389    0.0707   -2.4116 H   0  0  0  0  0  0  0  0  0  0  0  0
   -4.2950   -0.3460   -1.8066 C   0  0  0  0  0  0  0  0  0  0  0  0
   -4.6944    0.5974   -2.2091 H   0  0  0  0  0  0  0  0  0  0  0  0
   -5.1612   -1.2669   -1.1889 C   0  0  0  0  0  0  0  0  0  0  0  0
   -6.2348   -1.0406   -1.1058 H   0  0  0  0  0  0  0  0  0  0  0  0
   -4.6547   -2.4804   -0.6915 C   0  0  0  0  0  0  0  0  0  0  0  0
   -5.3307   -3.2043   -0.2120 H   0  0  0  0  0  0  0  0  0  0  0  0
   -3.2901   -2.7669   -0.7942 C   0  0  0  0  0  0  0  0  0  0  0  0
   -2.8627   -3.7014   -0.4029 H   0  0  0  0  0  0  0  0  0  0  0  0
  1 15  2  0  0  0  0
  2  6  1  0  0  0  0
  3 15  1  0  0  0  0
  4  5  1  0  0  0  0
  5 26  1  0  0  0  0
  6  8  1  0  0  0  0
  6  7  1  0  0  0  0
  8  9  1  0  0  0  0
 10 11  1  0  0  0  0
 10  8  2  0  0  0  0
 12 10  1  0  0  0  0
 13 12  1  0  0  0  0
 14 12  2  0  0  0  0
 14  2  1  0  0  0  0
 15 14  1  0  0  0  0
 16  3  1  0  0  0  0
 17 18  1  0  0  0  0
 17 16  2  0  0  0  0
 19 17  1  0  0  0  0
 20 19  1  0  0  0  0
 21 19  2  0  0  0  0
 21 23  1  0  0  0  0
 22 21  1  0  0  0  0
 23 25  2  0  0  0  0
 24 23  1  0  0  0  0
 25  4  1  0  0  0  0
 25 16  1  0  0  0  0
 26 35  1  0  0  0  0
 27 29  1  0  0  0  0
 27 26  2  0  0  0  0
 28 27  1  0  0  0  0
 29 31  2  0  0  0  0
 30 29  1  0  0  0  0
 31 32  1  0  0  0  0
 31 33  1  0  0  0  0
 33 34  1  0  0  0  0
 35 33  2  0  0  0  0
 35 36  1  0  0  0  0
M  END
