1,2,4
 OpenBabel05122313063D

 35 39  0  0  1  0  0  0  0  0999 V2000
    1.9915   -0.4296   -0.1250 N   0  0  0  0  0  0  0  0  0  0  0  0
    0.0000   -1.8112   -0.9390 N   0  0  0  0  0  2  0  0  0  0  0  0
    3.6226   -1.8996   -0.8183 N   0  0  0  0  0  0  0  0  0  0  0  0
   -1.9915   -0.4301   -0.1244 N   0  0  0  0  0  0  0  0  0  0  0  0
   -3.6225   -1.9002   -0.8176 N   0  0  0  0  0  0  0  0  0  0  0  0
    1.1914   -2.3877   -1.2623 C   0  0  1  0  0  3  0  0  0  0  0  0
    2.3197   -1.6088   -0.7813 C   0  0  0  0  0  0  0  0  0  0  0  0
    4.2047   -0.8501   -0.1425 C   0  0  0  0  0  0  0  0  0  0  0  0
    3.5113    1.2251    1.0595 C   0  0  0  0  0  0  0  0  0  0  0  0
    2.7222    1.9046    1.4133 H   0  0  0  0  0  0  0  0  0  0  0  0
    1.2202   -3.6141   -1.9500 C   0  0  0  0  0  0  0  0  0  0  0  0
    2.1943   -4.0610   -2.1899 H   0  0  0  0  0  0  0  0  0  0  0  0
    5.8729    0.5510    0.8906 C   0  0  0  0  0  0  0  0  0  0  0  0
    6.9235    0.7695    1.1354 H   0  0  0  0  0  0  0  0  0  0  0  0
    4.8628    1.4450    1.3411 C   0  0  0  0  0  0  0  0  0  0  0  0
    5.1547    2.3299    1.9270 H   0  0  0  0  0  0  0  0  0  0  0  0
    5.5628   -0.5941    0.1527 C   0  0  0  0  0  3  0  0  0  0  0  0
    6.3420   -1.2887   -0.1938 H   0  0  0  0  0  0  0  0  0  0  0  0
    3.1912    0.0764    0.3091 C   0  0  0  0  0  0  0  0  0  0  0  0
   -4.2047   -0.8507   -0.1419 C   0  0  0  0  0  0  0  0  0  0  0  0
   -1.1913   -2.3880   -1.2619 C   0  0  0  0  0  0  0  0  0  0  0  0
   -3.1912    0.0759    0.3096 C   0  0  0  0  0  0  0  0  0  0  0  0
   -2.3196   -1.6093   -0.7807 C   0  0  0  0  0  0  0  0  0  0  0  0
   -1.2200   -3.6144   -1.9496 C   0  0  0  0  0  0  0  0  0  0  0  0
   -2.1940   -4.0616   -2.1892 H   0  0  0  0  0  0  0  0  0  0  0  0
   -5.5628   -0.5948    0.1534 C   0  0  0  0  0  3  0  0  0  0  0  0
   -6.3419   -1.2895   -0.1931 H   0  0  0  0  0  0  0  0  0  0  0  0
   -3.5113    1.2246    1.0599 C   0  0  0  0  0  0  0  0  0  0  0  0
   -2.7223    1.9043    1.4134 H   0  0  0  0  0  0  0  0  0  0  0  0
    0.0002   -4.2193   -2.2933 C   0  0  0  0  0  0  0  0  0  0  0  0
    0.0002   -5.1787   -2.8320 H   0  0  0  0  0  0  0  0  0  0  0  0
   -5.8729    0.5503    0.8912 C   0  0  0  0  0  0  0  0  0  0  0  0
   -6.9235    0.7687    1.1360 H   0  0  0  0  0  0  0  0  0  0  0  0
   -4.8629    1.4445    1.3415 C   0  0  0  0  0  0  0  0  0  0  0  0
   -5.1548    2.3294    1.9272 H   0  0  0  0  0  0  0  0  0  0  0  0
  1 19  1  0  0  0  0
  3  7  1  0  0  0  0
  3  8  2  0  0  0  0
  4 22  1  0  0  0  0
  5 23  1  0  0  0  0
  5 20  2  0  0  0  0
  6  2  1  0  0  0  0
  6  7  1  1  0  0  0
  7  1  2  0  0  0  0
  8 17  1  0  0  0  0
  8 19  1  0  0  0  0
  9 15  1  0  0  0  0
  9 10  1  0  0  0  0
 11  6  1  0  0  0  0
 12 11  1  0  0  0  0
 13 14  1  0  0  0  0
 13 15  2  0  0  0  0
 15 16  1  0  0  0  0
 17 13  1  0  0  0  0
 18 17  1  0  0  0  0
 19  9  2  0  0  0  0
 20 26  1  0  0  0  0
 20 22  1  0  0  0  0
 21  2  1  0  0  0  0
 21 23  1  0  0  0  0
 22 28  2  0  0  0  0
 23  4  2  0  0  0  0
 24 21  2  0  0  0  0
 25 24  1  0  0  0  0
 26 32  1  0  0  0  0
 27 26  1  0  0  0  0
 28 34  1  0  0  0  0
 28 29  1  0  0  0  0
 30 11  2  0  0  0  0
 30 24  1  0  0  0  0
 31 30  1  0  0  0  0
 32 33  1  0  0  0  0
 32 34  2  0  0  0  0
 34 35  1  0  0  0  0
M  END
