4,25,46
 OpenBabel05122313063D

 63 66  0  0  1  0  0  0  0  0999 V2000
   -0.3700   -1.3407   -1.0363 C   0  0  0  0  0  0  0  0  0  0  0  0
   -0.6376   -2.3430   -0.6567 H   0  0  0  0  0  0  0  0  0  0  0  0
   -0.3729   -1.3478   -2.1516 H   0  0  0  0  0  0  0  0  0  0  0  0
   -1.2945   -0.3388   -0.4783 N   0  0  2  0  0  0  0  0  0  0  0  0
   -2.7553   -0.6750   -0.4954 C   0  0  0  0  0  0  0  0  0  0  0  0
   -3.2359    0.2151   -0.0347 H   0  0  0  0  0  0  0  0  0  0  0  0
   -3.3020   -0.8487   -1.9237 C   0  0  0  0  0  0  0  0  0  0  0  0
   -2.8048   -1.7204   -2.4052 H   0  0  0  0  0  0  0  0  0  0  0  0
   -3.0728    0.0408   -2.5475 H   0  0  0  0  0  0  0  0  0  0  0  0
   -4.8197   -1.0892   -1.8945 C   0  0  0  0  0  0  0  0  0  0  0  0
   -5.3227   -0.1740   -1.5109 H   0  0  0  0  0  0  0  0  0  0  0  0
   -5.1905   -1.2369   -2.9289 H   0  0  0  0  0  0  0  0  0  0  0  0
   -5.1836   -2.2834   -1.0059 C   0  0  0  0  0  0  0  0  0  0  0  0
   -4.7805   -3.2166   -1.4590 H   0  0  0  0  0  0  0  0  0  0  0  0
   -6.2844   -2.4091   -0.9652 H   0  0  0  0  0  0  0  0  0  0  0  0
   -4.6134   -2.1155    0.4066 C   0  0  0  0  0  0  0  0  0  0  0  0
   -4.8388   -3.0028    1.0315 H   0  0  0  0  0  0  0  0  0  0  0  0
   -5.1042   -1.2517    0.9070 H   0  0  0  0  0  0  0  0  0  0  0  0
   -3.0954   -1.8816    0.3845 C   0  0  0  0  0  0  0  0  0  0  0  0
   -2.7115   -1.7185    1.4101 H   0  0  0  0  0  0  0  0  0  0  0  0
   -2.5973   -2.7954   -0.0093 H   0  0  0  0  0  0  0  0  0  0  0  0
   -0.9765    0.9908   -1.0360 C   0  0  0  0  0  0  0  0  0  0  0  0
   -1.7108    1.7236   -0.6562 H   0  0  0  0  0  0  0  0  0  0  0  0
   -0.9812    0.9972   -2.1513 H   0  0  0  0  0  0  0  0  0  0  0  0
    0.3534    1.2904   -0.4780 N   0  0  2  0  0  0  0  0  0  0  0  0
    0.7926    2.7235   -0.4949 C   0  0  0  0  0  0  0  0  0  0  0  0
    1.8034    2.6947   -0.0334 H   0  0  0  0  0  0  0  0  0  0  0  0
   -0.0830    3.6214    0.3845 C   0  0  0  0  0  0  0  0  0  0  0  0
   -0.1345    3.2073    1.4100 H   0  0  0  0  0  0  0  0  0  0  0  0
   -1.1231    3.6470   -0.0101 H   0  0  0  0  0  0  0  0  0  0  0  0
    0.4735    5.0530    0.4069 C   0  0  0  0  0  0  0  0  0  0  0  0
   -0.1826    5.6918    1.0313 H   0  0  0  0  0  0  0  0  0  0  0  0
    1.4667    5.0461    0.9079 H   0  0  0  0  0  0  0  0  0  0  0  0
    0.6140    5.6305   -1.0056 C   0  0  0  0  0  0  0  0  0  0  0  0
   -0.3955    5.7480   -1.4593 H   0  0  0  0  0  0  0  0  0  0  0  0
    1.0555    6.6466   -0.9648 H   0  0  0  0  0  0  0  0  0  0  0  0
    1.4667    4.7183   -1.8938 C   0  0  0  0  0  0  0  0  0  0  0  0
    2.5106    4.6963   -1.5097 H   0  0  0  0  0  0  0  0  0  0  0  0
    1.5246    5.1132   -2.9282 H   0  0  0  0  0  0  0  0  0  0  0  0
    0.9164    3.2836   -1.9232 C   0  0  0  0  0  0  0  0  0  0  0  0
    1.5728    2.6405   -2.5464 H   0  0  0  0  0  0  0  0  0  0  0  0
   -0.0868    3.2885   -2.4054 H   0  0  0  0  0  0  0  0  0  0  0  0
    1.3456    0.3503   -1.0366 C   0  0  0  0  0  0  0  0  0  0  0  0
    1.3524    0.3513   -2.1519 H   0  0  0  0  0  0  0  0  0  0  0  0
    2.3477    0.6198   -0.6578 H   0  0  0  0  0  0  0  0  0  0  0  0
    0.9405   -0.9514   -0.4785 N   0  0  2  0  0  0  0  0  0  0  0  0
    1.9623   -2.0481   -0.4960 C   0  0  0  0  0  0  0  0  0  0  0  0
    1.4318   -2.9097   -0.0358 H   0  0  0  0  0  0  0  0  0  0  0  0
    3.1768   -1.7394    0.3846 C   0  0  0  0  0  0  0  0  0  0  0  0
    2.8430   -1.4884    1.4100 H   0  0  0  0  0  0  0  0  0  0  0  0
    3.7195   -0.8512   -0.0088 H   0  0  0  0  0  0  0  0  0  0  0  0
    4.1382   -2.9372    0.4071 C   0  0  0  0  0  0  0  0  0  0  0  0
    5.0188   -2.6890    1.0327 H   0  0  0  0  0  0  0  0  0  0  0  0
    3.6349   -3.7942    0.9070 H   0  0  0  0  0  0  0  0  0  0  0  0
    4.5695   -3.3468   -1.0052 C   0  0  0  0  0  0  0  0  0  0  0  0
    5.2284   -4.2375   -0.9644 H   0  0  0  0  0  0  0  0  0  0  0  0
    5.1767   -2.5312   -1.4576 H   0  0  0  0  0  0  0  0  0  0  0  0
    3.3540   -3.6281   -1.8949 C   0  0  0  0  0  0  0  0  0  0  0  0
    3.6680   -3.8747   -2.9293 H   0  0  0  0  0  0  0  0  0  0  0  0
    2.8125   -4.5215   -1.5123 H   0  0  0  0  0  0  0  0  0  0  0  0
    2.3869   -2.4340   -1.9242 C   0  0  0  0  0  0  0  0  0  0  0  0
    1.5022   -2.6800   -2.5485 H   0  0  0  0  0  0  0  0  0  0  0  0
    2.8933   -1.5673   -2.4050 H   0  0  0  0  0  0  0  0  0  0  0  0
  1  2  1  0  0  0  0
  1 46  1  0  0  0  0
  1  4  1  0  0  0  0
  3  1  1  0  0  0  0
  4  5  1  6  0  0  0
  5  6  1  0  0  0  0
  5 19  1  0  0  0  0
  7 10  1  0  0  0  0
  7  5  1  0  0  0  0
  8  7  1  0  0  0  0
  9  7  1  0  0  0  0
 10 11  1  0  0  0  0
 10 13  1  0  0  0  0
 12 10  1  0  0  0  0
 13 15  1  0  0  0  0
 13 16  1  0  0  0  0
 14 13  1  0  0  0  0
 16 18  1  0  0  0  0
 16 17  1  0  0  0  0
 19 16  1  0  0  0  0
 19 20  1  0  0  0  0
 21 19  1  0  0  0  0
 22 23  1  0  0  0  0
 22  4  1  0  0  0  0
 22 25  1  0  0  0  0
 24 22  1  0  0  0  0
 25 26  1  6  0  0  0
 26 27  1  0  0  0  0
 26 28  1  0  0  0  0
 28 31  1  0  0  0  0
 28 29  1  0  0  0  0
 30 28  1  0  0  0  0
 31 33  1  0  0  0  0
 31 32  1  0  0  0  0
 34 36  1  0  0  0  0
 34 31  1  0  0  0  0
 35 34  1  0  0  0  0
 37 38  1  0  0  0  0
 37 34  1  0  0  0  0
 39 37  1  0  0  0  0
 40 37  1  0  0  0  0
 40 26  1  0  0  0  0
 41 40  1  0  0  0  0
 42 40  1  0  0  0  0
 43 45  1  0  0  0  0
 43 46  1  0  0  0  0
 43 25  1  0  0  0  0
 44 43  1  0  0  0  0
 46 47  1  6  0  0  0
 47 48  1  0  0  0  0
 47 49  1  0  0  0  0
 49 52  1  0  0  0  0
 49 50  1  0  0  0  0
 51 49  1  0  0  0  0
 52 54  1  0  0  0  0
 52 53  1  0  0  0  0
 55 56  1  0  0  0  0
 55 52  1  0  0  0  0
 57 55  1  0  0  0  0
 58 60  1  0  0  0  0
 58 55  1  0  0  0  0
 59 58  1  0  0  0  0
 61 58  1  0  0  0  0
 61 47  1  0  0  0  0
 62 61  1  0  0  0  0
 63 61  1  0  0  0  0
M  END
