3,4,46
 OpenBabel05122313063D

 79 81  0  0  1  0  0  0  0  0999 V2000
    6.1208   -3.2717    0.1104 Br  0  0  0  0  0  0  0  0  0  0  0  0
   -6.1210   -3.2715    0.1103 Br  0  0  0  0  0  0  0  0  0  0  0  0
    1.9291    1.1921   -0.0621 N   0  0  0  0  0  2  0  0  0  0  0  0
   -1.9291    1.1921   -0.0621 N   0  0  0  0  0  2  0  0  0  0  0  0
    4.8030   -1.8928    0.0696 C   0  0  0  0  0  0  0  0  0  0  0  0
    4.1390   -1.6125   -1.1305 C   0  0  0  0  0  0  0  0  0  0  0  0
    4.3734   -2.1964   -2.0311 H   0  0  0  0  0  0  0  0  0  0  0  0
    3.1697   -0.5964   -1.1830 C   0  0  0  0  0  0  0  0  0  0  0  0
    2.9012    0.1404    0.0019 C   0  0  0  0  0  0  0  0  0  0  0  0
    3.5484   -0.1575    1.2245 C   0  0  0  0  0  0  0  0  0  0  0  0
    4.5099   -1.1851    1.2393 C   0  0  0  0  0  0  0  0  0  0  0  0
    5.0304   -1.4354    2.1742 H   0  0  0  0  0  0  0  0  0  0  0  0
    2.4473   -0.3006   -2.4933 C   0  0  0  0  0  0  0  0  0  0  0  0
    1.5516    0.2988   -2.2313 H   0  0  0  0  0  0  0  0  0  0  0  0
    1.9469   -1.5778   -3.1827 C   0  0  0  0  0  0  0  0  0  0  0  0
    1.3345   -2.1810   -2.4856 H   0  0  0  0  0  0  0  0  0  0  0  0
    2.7837   -2.2061   -3.5519 H   0  0  0  0  0  0  0  0  0  0  0  0
    1.3208   -1.3188   -4.0606 H   0  0  0  0  0  0  0  0  0  0  0  0
    3.3245    0.5346   -3.4427 C   0  0  0  0  0  0  0  0  0  0  0  0
    4.2428   -0.0216   -3.7246 H   0  0  0  0  0  0  0  0  0  0  0  0
    3.6436    1.4897   -2.9818 H   0  0  0  0  0  0  0  0  0  0  0  0
    2.7740    0.7741   -4.3757 H   0  0  0  0  0  0  0  0  0  0  0  0
    3.1907    0.5649    2.5142 C   0  0  0  0  0  0  0  0  0  0  0  0
    2.5295    1.4149    2.2525 H   0  0  0  0  0  0  0  0  0  0  0  0
    2.3636   -0.3650    3.4196 C   0  0  0  0  0  0  0  0  0  0  0  0
    2.0086    0.1816    4.3164 H   0  0  0  0  0  0  0  0  0  0  0  0
    2.9634   -1.2368    3.7556 H   0  0  0  0  0  0  0  0  0  0  0  0
    1.4746   -0.7435    2.8790 H   0  0  0  0  0  0  0  0  0  0  0  0
    4.4209    1.1294    3.2393 C   0  0  0  0  0  0  0  0  0  0  0  0
    5.1028    0.3276    3.5918 H   0  0  0  0  0  0  0  0  0  0  0  0
    4.1082    1.7091    4.1315 H   0  0  0  0  0  0  0  0  0  0  0  0
    5.0083    1.8030    2.5820 H   0  0  0  0  0  0  0  0  0  0  0  0
    2.3134    2.4172   -0.4147 C   0  0  0  0  0  0  0  0  0  0  0  0
    3.7341    2.8647   -0.5594 C   0  0  0  0  0  0  0  0  0  0  0  0
    3.8857    3.4417   -1.4935 H   0  0  0  0  0  0  0  0  0  0  0  0
    4.4298    2.0070   -0.5466 H   0  0  0  0  0  0  0  0  0  0  0  0
    4.0011    3.5344    0.2866 H   0  0  0  0  0  0  0  0  0  0  0  0
    1.1982    3.3113   -0.6667 C   0  0  0  0  0  0  0  0  0  0  0  0
    1.2170    4.6634   -1.0542 C   0  0  0  0  0  0  0  0  0  0  0  0
    2.1774    5.1825   -1.1764 H   0  0  0  0  0  0  0  0  0  0  0  0
   -0.0000    5.3351   -1.2578 C   0  0  0  0  0  0  0  0  0  0  0  0
   -0.0000    6.3924   -1.5586 H   0  0  0  0  0  0  0  0  0  0  0  0
   -1.2170    4.6634   -1.0542 C   0  0  0  0  0  0  0  0  0  0  0  0
   -2.1775    5.1825   -1.1763 H   0  0  0  0  0  0  0  0  0  0  0  0
   -1.1982    3.3113   -0.6667 C   0  0  0  0  0  0  0  0  0  0  0  0
    0.0000    2.6573   -0.5176 N   0  0  0  0  0  2  0  0  0  0  0  0
   -2.3134    2.4172   -0.4146 C   0  0  1  0  0  3  0  0  0  0  0  0
   -3.7341    2.8647   -0.5592 C   0  0  0  0  0  0  0  0  0  0  0  0
   -4.0011    3.5343    0.2869 H   0  0  0  0  0  0  0  0  0  0  0  0
   -4.4297    2.0069   -0.5464 H   0  0  0  0  0  0  0  0  0  0  0  0
   -3.8857    3.4418   -1.4932 H   0  0  0  0  0  0  0  0  0  0  0  0
   -2.9012    0.1404    0.0019 C   0  0  0  0  0  0  0  0  0  0  0  0
   -3.1697   -0.5964   -1.1829 C   0  0  0  0  0  0  0  0  0  0  0  0
   -4.1390   -1.6124   -1.1305 C   0  0  0  0  0  0  0  0  0  0  0  0
   -4.3735   -2.1963   -2.0311 H   0  0  0  0  0  0  0  0  0  0  0  0
   -4.8031   -1.8927    0.0696 C   0  0  0  0  0  0  0  0  0  0  0  0
   -4.5100   -1.1851    1.2393 C   0  0  0  0  0  0  0  0  0  0  0  0
   -5.0305   -1.4353    2.1742 H   0  0  0  0  0  0  0  0  0  0  0  0
   -3.5484   -0.1575    1.2245 C   0  0  0  0  0  0  0  0  0  0  0  0
   -2.4473   -0.3006   -2.4933 C   0  0  0  0  0  0  0  0  0  0  0  0
   -1.5515    0.2987   -2.2313 H   0  0  0  0  0  0  0  0  0  0  0  0
   -1.9470   -1.5779   -3.1826 C   0  0  0  0  0  0  0  0  0  0  0  0
   -2.7838   -2.2062   -3.5518 H   0  0  0  0  0  0  0  0  0  0  0  0
   -1.3347   -2.1811   -2.4856 H   0  0  0  0  0  0  0  0  0  0  0  0
   -1.3209   -1.3190   -4.0606 H   0  0  0  0  0  0  0  0  0  0  0  0
   -3.3244    0.5346   -3.4427 C   0  0  0  0  0  0  0  0  0  0  0  0
   -2.7739    0.7740   -4.3757 H   0  0  0  0  0  0  0  0  0  0  0  0
   -3.6435    1.4897   -2.9818 H   0  0  0  0  0  0  0  0  0  0  0  0
   -4.2427   -0.0215   -3.7246 H   0  0  0  0  0  0  0  0  0  0  0  0
   -3.1905    0.5647    2.5142 C   0  0  0  0  0  0  0  0  0  0  0  0
   -2.5293    1.4147    2.2526 H   0  0  0  0  0  0  0  0  0  0  0  0
   -4.4207    1.1293    3.2395 C   0  0  0  0  0  0  0  0  0  0  0  0
   -5.1026    0.3276    3.5920 H   0  0  0  0  0  0  0  0  0  0  0  0
   -5.0080    1.8030    2.5822 H   0  0  0  0  0  0  0  0  0  0  0  0
   -4.1079    1.7089    4.1316 H   0  0  0  0  0  0  0  0  0  0  0  0
   -2.3635   -0.3654    3.4195 C   0  0  0  0  0  0  0  0  0  0  0  0
   -2.9634   -1.2371    3.7555 H   0  0  0  0  0  0  0  0  0  0  0  0
   -2.0084    0.1812    4.3164 H   0  0  0  0  0  0  0  0  0  0  0  0
   -1.4746   -0.7440    2.8789 H   0  0  0  0  0  0  0  0  0  0  0  0
  3  9  1  0  0  0  0
  4 52  1  0  0  0  0
  5  1  1  0  0  0  0
  5 11  1  0  0  0  0
  6  5  2  0  0  0  0
  7  6  1  0  0  0  0
  8  6  1  0  0  0  0
  8  9  2  0  0  0  0
  9 10  1  0  0  0  0
 10 11  2  0  0  0  0
 10 23  1  0  0  0  0
 11 12  1  0  0  0  0
 13 14  1  0  0  0  0
 13  8  1  0  0  0  0
 15 13  1  0  0  0  0
 15 16  1  0  0  0  0
 17 15  1  0  0  0  0
 18 15  1  0  0  0  0
 19 21  1  0  0  0  0
 19 13  1  0  0  0  0
 20 19  1  0  0  0  0
 22 19  1  0  0  0  0
 23 29  1  0  0  0  0
 23 25  1  0  0  0  0
 24 23  1  0  0  0  0
 25 27  1  0  0  0  0
 25 26  1  0  0  0  0
 28 25  1  0  0  0  0
 29 30  1  0  0  0  0
 29 31  1  0  0  0  0
 32 29  1  0  0  0  0
 33  3  1  0  0  0  0
 34 36  1  0  0  0  0
 34 33  1  0  0  0  0
 34 37  1  0  0  0  0
 35 34  1  0  0  0  0
 38 46  1  0  0  0  0
 38 33  2  0  0  0  0
 39 38  1  0  0  0  0
 40 39  1  0  0  0  0
 41 39  2  0  0  0  0
 41 43  1  0  0  0  0
 42 41  1  0  0  0  0
 43 45  2  0  0  0  0
 44 43  1  0  0  0  0
 45 46  1  0  0  0  0
 45 47  1  0  0  0  0
 47  4  1  6  0  0  0
 48 50  1  0  0  0  0
 48 47  1  0  0  0  0
 48 49  1  0  0  0  0
 51 48  1  0  0  0  0
 52 59  1  0  0  0  0
 53 54  1  0  0  0  0
 53 52  2  0  0  0  0
 54 56  2  0  0  0  0
 55 54  1  0  0  0  0
 56  2  1  0  0  0  0
 56 57  1  0  0  0  0
 57 58  1  0  0  0  0
 59 57  2  0  0  0  0
 59 70  1  0  0  0  0
 60 61  1  0  0  0  0
 60 53  1  0  0  0  0
 62 60  1  0  0  0  0
 62 64  1  0  0  0  0
 63 62  1  0  0  0  0
 65 62  1  0  0  0  0
 66 68  1  0  0  0  0
 66 60  1  0  0  0  0
 67 66  1  0  0  0  0
 69 66  1  0  0  0  0
 70 72  1  0  0  0  0
 70 76  1  0  0  0  0
 71 70  1  0  0  0  0
 72 73  1  0  0  0  0
 72 75  1  0  0  0  0
 74 72  1  0  0  0  0
 76 77  1  0  0  0  0
 76 78  1  0  0  0  0
 79 76  1  0  0  0  0
M  END
