1,5,7
 OpenBabel05122313063D

 61 64  0  0  1  0  0  0  0  0999 V2000
    0.1836   -0.1049   -1.2259 N   0  0  0  0  0  0  0  0  0  0  0  0
   -3.4571    0.7160    0.8263 O   0  0  0  0  0  0  0  0  0  0  0  0
   -4.0620   -0.0551    0.9022 H   0  0  0  0  0  0  0  0  0  0  0  0
   -2.6544    3.1099   -1.1236 O   0  0  0  0  0  0  0  0  0  0  0  0
    1.2612   -2.1448   -0.0524 N   0  0  0  0  0  2  0  0  0  0  0  0
   -0.2596   -0.0650    1.7043 N   0  0  0  0  0  0  0  0  0  0  0  0
    1.8748    1.5699   -0.1670 N   0  0  0  0  0  2  0  0  0  0  0  0
    0.1092   -2.4536   -0.7188 C   0  0  2  0  0  3  0  0  0  0  0  0
   -0.7771    1.2864    1.4997 C   0  0  0  0  0  0  0  0  0  0  0  0
    0.0457    2.0091    1.6624 H   0  0  0  0  0  0  0  0  0  0  0  0
   -1.5794    1.5387    2.2302 H   0  0  0  0  0  0  0  0  0  0  0  0
   -1.2890   -1.0816    1.5089 C   0  0  0  0  0  0  0  0  0  0  0  0
   -2.1320   -0.9662    2.2297 H   0  0  0  0  0  0  0  0  0  0  0  0
   -0.8396   -2.0794    1.6882 H   0  0  0  0  0  0  0  0  0  0  0  0
    0.4124   -0.2071    2.9941 C   0  0  0  0  0  0  0  0  0  0  0  0
   -0.2823   -0.0561    3.8556 H   0  0  0  0  0  0  0  0  0  0  0  0
    1.2366    0.5278    3.0679 H   0  0  0  0  0  0  0  0  0  0  0  0
    0.8593   -1.2171    3.0712 H   0  0  0  0  0  0  0  0  0  0  0  0
   -1.8511   -1.0105    0.0737 C   0  0  1  0  0  0  0  0  0  0  0  0
    0.8627    2.1767   -0.8518 C   0  0  1  0  0  3  0  0  0  0  0  0
   -0.7697   -1.2524   -1.0279 C   0  0  1  0  0  0  0  0  0  0  0  0
   -1.3325   -1.4177   -1.9677 H   0  0  0  0  0  0  0  0  0  0  0  0
   -2.0177    2.8303   -0.1136 C   0  0  0  0  0  0  0  0  0  0  0  0
   -2.9627   -2.0502   -0.1597 C   0  0  0  0  0  0  0  0  0  0  0  0
   -1.3599    1.4559    0.0851 C   0  0  1  0  0  0  0  0  0  0  0  0
   -0.3386    1.2897   -1.0769 C   0  0  2  0  0  0  0  0  0  0  0  0
   -0.8744    1.5766   -2.0049 H   0  0  0  0  0  0  0  0  0  0  0  0
   -2.4924    0.4045   -0.1352 C   0  0  0  0  0  0  0  0  0  0  0  0
    0.9287    3.5229   -1.2204 C   0  0  0  0  0  0  0  0  0  0  0  0
    0.1034    3.9699   -1.7933 H   0  0  0  0  0  0  0  0  0  0  0  0
    3.0760    3.6478   -0.1167 C   0  0  0  0  0  0  0  0  0  0  0  0
    3.9709    4.1997    0.2032 H   0  0  0  0  0  0  0  0  0  0  0  0
    2.9540    2.2933    0.2089 C   0  0  0  0  0  0  0  0  0  0  0  0
    3.7127    1.7608    0.7995 H   0  0  0  0  0  0  0  0  0  0  0  0
   -3.9392   -1.9415    0.7756 O   0  0  0  0  0  0  0  0  0  0  0  0
   -0.2028   -3.7793   -1.0398 C   0  0  0  0  0  0  0  0  0  0  0  0
   -1.1280   -3.9900   -1.5900 H   0  0  0  0  0  0  0  0  0  0  0  0
   -3.0040   -2.8523   -1.0692 O   0  0  0  0  0  0  0  0  0  0  0  0
    1.8139   -4.4751    0.1027 C   0  0  0  0  0  0  0  0  0  0  0  0
    2.5098   -5.2474    0.4592 H   0  0  0  0  0  0  0  0  0  0  0  0
    2.0847   -3.1301    0.3693 C   0  0  0  0  0  0  0  0  0  0  0  0
    2.9648   -2.8102    0.9446 H   0  0  0  0  0  0  0  0  0  0  0  0
    2.0583    4.2717   -0.8530 C   0  0  0  0  0  0  0  0  0  0  0  0
    2.1415    5.3304   -1.1388 H   0  0  0  0  0  0  0  0  0  0  0  0
    0.6651   -4.8037   -0.6299 C   0  0  0  0  0  0  0  0  0  0  0  0
    0.4397   -5.8507   -0.8801 H   0  0  0  0  0  0  0  0  0  0  0  0
   -1.8140    3.6686    0.8995 O   0  0  0  0  0  0  0  0  0  0  0  0
   -2.9945    0.4159   -1.4404 O   0  0  0  0  0  0  0  0  0  0  0  0
   -3.2263    1.3591   -1.6330 H   0  0  0  0  0  0  0  0  0  0  0  0
    0.8188   -0.2403   -2.5677 C   0  0  0  0  0  0  0  0  0  0  0  0
    0.0503   -0.1256   -3.3621 H   0  0  0  0  0  0  0  0  0  0  0  0
    1.2959   -1.2324   -2.6541 H   0  0  0  0  0  0  0  0  0  0  0  0
    1.6007    0.5297   -2.6901 H   0  0  0  0  0  0  0  0  0  0  0  0
   -5.0560   -2.8526    0.6291 C   0  0  0  0  0  0  0  0  0  0  0  0
   -5.5622   -2.6823   -0.3403 H   0  0  0  0  0  0  0  0  0  0  0  0
   -5.7314   -2.6353    1.4736 H   0  0  0  0  0  0  0  0  0  0  0  0
   -4.6971   -3.8981    0.6717 H   0  0  0  0  0  0  0  0  0  0  0  0
   -2.4442    4.9647    0.7950 C   0  0  0  0  0  0  0  0  0  0  0  0
   -2.0615    5.5065   -0.0916 H   0  0  0  0  0  0  0  0  0  0  0  0
   -2.1854    5.4989    1.7244 H   0  0  0  0  0  0  0  0  0  0  0  0
   -3.5404    4.8466    0.6988 H   0  0  0  0  0  0  0  0  0  0  0  0
  1 26  1  0  0  0  0
  1 21  1  0  0  0  0
  2  3  1  0  0  0  0
  4 23  2  0  0  0  0
  5 41  1  0  0  0  0
  6 15  1  0  0  0  0
  7 33  1  0  0  0  0
  8 36  1  1  0  0  0
  8  5  1  0  0  0  0
  9 10  1  0  0  0  0
  9  6  1  0  0  0  0
  9 11  1  0  0  0  0
 12 14  1  0  0  0  0
 12  6  1  0  0  0  0
 12 13  1  0  0  0  0
 15 17  1  0  0  0  0
 15 18  1  0  0  0  0
 15 16  1  0  0  0  0
 19 24  1  6  0  0  0
 19 12  1  0  0  0  0
 20 29  1  1  0  0  0
 20  7  1  0  0  0  0
 21 22  1  6  0  0  0
 21  8  1  0  0  0  0
 21 19  1  0  0  0  0
 23 47  1  0  0  0  0
 24 35  1  0  0  0  0
 25 23  1  6  0  0  0
 25  9  1  0  0  0  0
 26 27  1  6  0  0  0
 26 20  1  0  0  0  0
 26 25  1  0  0  0  0
 28 19  1  0  0  0  0
 28 25  1  0  0  0  0
 28  2  1  0  0  0  0
 29 43  2  0  0  0  0
 30 29  1  0  0  0  0
 31 32  1  0  0  0  0
 31 33  2  0  0  0  0
 33 34  1  0  0  0  0
 36 45  2  0  0  0  0
 37 36  1  0  0  0  0
 38 24  2  0  0  0  0
 39 41  2  0  0  0  0
 39 40  1  0  0  0  0
 41 42  1  0  0  0  0
 43 31  1  0  0  0  0
 44 43  1  0  0  0  0
 45 39  1  0  0  0  0
 46 45  1  0  0  0  0
 48 28  1  0  0  0  0
 49 48  1  0  0  0  0
 50  1  1  0  0  0  0
 51 50  1  0  0  0  0
 52 50  1  0  0  0  0
 53 50  1  0  0  0  0
 54 57  1  0  0  0  0
 54 35  1  0  0  0  0
 54 56  1  0  0  0  0
 55 54  1  0  0  0  0
 58 47  1  0  0  0  0
 58 60  1  0  0  0  0
 59 58  1  0  0  0  0
 61 58  1  0  0  0  0
M  END
