1,2,3
 OpenBabel05122313063D

 38 40  0  0  1  0  0  0  0  0999 V2000
   -2.2859   -0.2902   -0.7168 N   0  0  0  0  0  2  0  0  0  0  0  0
   -0.1719    1.1386    0.0045 N   0  0  0  0  0  2  0  0  0  0  0  0
    1.7126   -0.8801    1.1560 N   0  0  0  0  0  0  0  0  0  0  0  0
   -3.2684   -1.1075   -1.1104 C   0  0  0  0  0  3  0  0  0  0  0  0
   -4.6149   -0.7193   -1.0722 C   0  0  0  0  0  0  0  0  0  0  0  0
   -4.9243    0.5585   -0.5826 C   0  0  0  0  0  0  0  0  0  0  0  0
   -3.8886    1.4077   -0.1714 C   0  0  0  0  0  0  0  0  0  0  0  0
   -2.5611    0.9468   -0.2602 C   0  0  0  0  0  0  0  0  0  0  0  0
   -1.3662    1.7694    0.0855 C   0  0  2  0  0  3  0  0  0  0  0  0
   -1.4505    3.1357    0.4100 C   0  0  0  0  0  0  0  0  0  0  0  0
   -0.2655    3.8488    0.6281 C   0  0  0  0  0  0  0  0  0  0  0  0
    0.9630    3.1996    0.4785 C   0  0  0  0  0  0  0  0  0  0  0  0
    0.9855    1.8250    0.1455 C   0  0  0  0  0  0  0  0  0  0  0  0
    2.2642    1.1344   -0.1627 C   0  0  0  0  0  0  0  0  0  0  0  0
    3.1668    1.8175   -1.0064 C   0  0  0  0  0  0  0  0  0  0  0  0
    4.3294    1.2067   -1.4893 C   0  0  0  0  0  0  0  0  0  0  0  0
    4.5956   -0.1207   -1.1283 C   0  0  0  0  0  0  0  0  0  0  0  0
    3.7308   -0.8092   -0.2691 C   0  0  0  0  0  0  0  0  0  0  0  0
    2.5706   -0.1982    0.2495 C   0  0  0  0  0  0  0  0  0  0  0  0
    1.5003   -0.2083    2.4513 C   0  0  0  0  0  0  0  0  0  0  0  0
    1.9725   -2.3115    1.3583 C   0  0  0  0  0  0  0  0  0  0  0  0
   -2.9484   -2.1034   -1.4593 H   0  0  0  0  0  0  0  0  0  0  0  0
   -5.4017   -1.4093   -1.4086 H   0  0  0  0  0  0  0  0  0  0  0  0
   -5.9699    0.8948   -0.5191 H   0  0  0  0  0  0  0  0  0  0  0  0
   -4.1177    2.4093    0.2167 H   0  0  0  0  0  0  0  0  0  0  0  0
   -2.4239    3.6377    0.4816 H   0  0  0  0  0  0  0  0  0  0  0  0
   -0.3020    4.9141    0.9007 H   0  0  0  0  0  0  0  0  0  0  0  0
    1.9103    3.7355    0.6267 H   0  0  0  0  0  0  0  0  0  0  0  0
    2.9122    2.8359   -1.3368 H   0  0  0  0  0  0  0  0  0  0  0  0
    5.0039    1.7548   -2.1628 H   0  0  0  0  0  0  0  0  0  0  0  0
    5.4915   -0.6313   -1.5127 H   0  0  0  0  0  0  0  0  0  0  0  0
    3.9677   -1.8417    0.0125 H   0  0  0  0  0  0  0  0  0  0  0  0
    2.9296   -2.4913    1.9008 H   0  0  0  0  0  0  0  0  0  0  0  0
    1.9733   -2.8224    0.3764 H   0  0  0  0  0  0  0  0  0  0  0  0
    1.1282   -2.7153    1.9490 H   0  0  0  0  0  0  0  0  0  0  0  0
    0.5930   -0.6414    2.9163 H   0  0  0  0  0  0  0  0  0  0  0  0
    1.3389    0.8756    2.3174 H   0  0  0  0  0  0  0  0  0  0  0  0
    2.3848   -0.3486    3.1142 H   0  0  0  0  0  0  0  0  0  0  0  0
  1  8  1  0  0  0  0
  2  9  1  0  0  0  0
  2 13  1  0  0  0  0
  3 21  1  0  0  0  0
  3 20  1  0  0  0  0
  4  5  1  0  0  0  0
  4  1  1  0  0  0  0
  5  6  2  0  0  0  0
  6 24  1  0  0  0  0
  6  7  1  0  0  0  0
  7 25  1  0  0  0  0
  8  7  2  0  0  0  0
  9  8  1  6  0  0  0
  9 10  1  0  0  0  0
 10 26  1  0  0  0  0
 10 11  2  0  0  0  0
 11 27  1  0  0  0  0
 12 28  1  0  0  0  0
 12 11  1  0  0  0  0
 13 12  2  0  0  0  0
 14 13  1  0  0  0  0
 14 19  1  0  0  0  0
 15 14  2  0  0  0  0
 16 17  2  0  0  0  0
 16 15  1  0  0  0  0
 17 18  1  0  0  0  0
 18 32  1  0  0  0  0
 18 19  2  0  0  0  0
 19  3  1  0  0  0  0
 20 36  1  0  0  0  0
 20 38  1  0  0  0  0
 21 33  1  0  0  0  0
 21 35  1  0  0  0  0
 22  4  1  0  0  0  0
 23  5  1  0  0  0  0
 29 15  1  0  0  0  0
 30 16  1  0  0  0  0
 31 17  1  0  0  0  0
 34 21  1  0  0  0  0
 37 20  1  0  0  0  0
M  END
