1,10,13
 OpenBabel05122313063D

 79 81  0  0  1  0  0  0  0  0999 V2000
   -1.9274    0.1757   -0.0928 N   0  0  0  0  0  2  0  0  0  0  0  0
   -2.3127    1.4501   -0.0665 C   0  0  0  0  0  0  0  0  0  0  0  0
   -3.7326    1.9213   -0.0411 C   0  0  0  0  0  0  0  0  0  0  0  0
   -1.1969    2.3787   -0.0517 C   0  0  0  0  0  0  0  0  0  0  0  0
   -1.2235    3.7838   -0.0248 C   0  0  0  0  0  0  0  0  0  0  0  0
    0.0000    4.4765    0.0008 C   0  0  0  0  0  0  0  0  0  0  0  0
    0.0000    6.2151    0.0380 Cl  0  0  0  0  0  0  0  0  0  0  0  0
    1.2235    3.7838   -0.0234 C   0  0  0  0  0  0  0  0  0  0  0  0
    1.1969    2.3787   -0.0504 C   0  0  0  0  0  0  0  0  0  0  0  0
   -0.0000    1.7086   -0.0246 N   0  0  0  0  0  2  0  0  0  0  0  0
    2.3126    1.4500   -0.0647 C   0  0  1  0  0  3  0  0  0  0  0  0
    3.7326    1.9211   -0.0384 C   0  0  0  0  0  0  0  0  0  0  0  0
    1.9273    0.1756   -0.0917 N   0  0  0  0  0  2  0  0  0  0  0  0
   -2.9035   -0.8556    0.1181 C   0  0  0  0  0  0  0  0  0  0  0  0
   -3.5538   -1.4532   -0.9878 C   0  0  0  0  0  0  0  0  0  0  0  0
   -3.1906   -1.0861   -2.4184 C   0  0  0  0  0  0  0  0  0  0  0  0
   -2.3615   -2.2173   -3.0522 C   0  0  0  0  0  0  0  0  0  0  0  0
   -4.4176   -0.7273   -3.2695 C   0  0  0  0  0  0  0  0  0  0  0  0
   -4.5193   -2.4439   -0.7265 C   0  0  0  0  0  0  0  0  0  0  0  0
   -4.8246   -2.8333    0.5822 C   0  0  0  0  0  0  0  0  0  0  0  0
   -4.1493   -2.2452    1.6592 C   0  0  0  0  0  0  0  0  0  0  0  0
   -3.1718   -1.2557    1.4548 C   0  0  0  0  0  0  0  0  0  0  0  0
   -2.4392   -0.6336    2.6390 C   0  0  0  0  0  0  0  0  0  0  0  0
   -3.3080    0.4195    3.3493 C   0  0  0  0  0  0  0  0  0  0  0  0
   -1.9339   -1.6924    3.6295 C   0  0  0  0  0  0  0  0  0  0  0  0
    2.9034   -0.8559    0.1186 C   0  0  0  0  0  0  0  0  0  0  0  0
    3.5539   -1.4525   -0.9876 C   0  0  0  0  0  0  0  0  0  0  0  0
    3.1917   -1.0838   -2.4180 C   0  0  0  0  0  0  0  0  0  0  0  0
    4.4194   -0.7236   -3.2676 C   0  0  0  0  0  0  0  0  0  0  0  0
    2.3637   -2.2146   -3.0539 C   0  0  0  0  0  0  0  0  0  0  0  0
    4.5191   -2.4438   -0.7268 C   0  0  0  0  0  0  0  0  0  0  0  0
    4.8238   -2.8344    0.5817 C   0  0  0  0  0  0  0  0  0  0  0  0
    4.1482   -2.2471    1.6590 C   0  0  0  0  0  0  0  0  0  0  0  0
    3.1710   -1.2572    1.4551 C   0  0  0  0  0  0  0  0  0  0  0  0
    2.4384   -0.6356    2.6396 C   0  0  0  0  0  0  0  0  0  0  0  0
    1.9332   -1.6948    3.6297 C   0  0  0  0  0  0  0  0  0  0  0  0
    3.3071    0.4173    3.3503 C   0  0  0  0  0  0  0  0  0  0  0  0
   -4.4277    1.0902    0.1728 H   0  0  0  0  0  0  0  0  0  0  0  0
   -3.8816    2.7231    0.7097 H   0  0  0  0  0  0  0  0  0  0  0  0
   -4.0012    2.3459   -1.0327 H   0  0  0  0  0  0  0  0  0  0  0  0
   -2.1750    4.3302   -0.0417 H   0  0  0  0  0  0  0  0  0  0  0  0
    2.1750    4.3301   -0.0393 H   0  0  0  0  0  0  0  0  0  0  0  0
    4.4274    1.0900    0.1764 H   0  0  0  0  0  0  0  0  0  0  0  0
    4.0020    2.3452   -1.0300 H   0  0  0  0  0  0  0  0  0  0  0  0
    3.8810    2.7232    0.7121 H   0  0  0  0  0  0  0  0  0  0  0  0
   -2.5296   -0.1971   -2.3858 H   0  0  0  0  0  0  0  0  0  0  0  0
   -2.0051   -1.9222   -4.0599 H   0  0  0  0  0  0  0  0  0  0  0  0
   -1.4734   -2.4422   -2.4304 H   0  0  0  0  0  0  0  0  0  0  0  0
   -2.9607   -3.1469   -3.1509 H   0  0  0  0  0  0  0  0  0  0  0  0
   -4.1021   -0.3981   -4.2806 H   0  0  0  0  0  0  0  0  0  0  0  0
   -5.0998   -1.5924   -3.4042 H   0  0  0  0  0  0  0  0  0  0  0  0
   -5.0058    0.0938   -2.8105 H   0  0  0  0  0  0  0  0  0  0  0  0
   -5.0381   -2.9204   -1.5723 H   0  0  0  0  0  0  0  0  0  0  0  0
   -5.5851   -3.6077    0.7651 H   0  0  0  0  0  0  0  0  0  0  0  0
   -4.3792   -2.5677    2.6859 H   0  0  0  0  0  0  0  0  0  0  0  0
   -1.5440   -0.1224    2.2295 H   0  0  0  0  0  0  0  0  0  0  0  0
   -2.7520    0.8888    4.1871 H   0  0  0  0  0  0  0  0  0  0  0  0
   -3.6289    1.2255    2.6607 H   0  0  0  0  0  0  0  0  0  0  0  0
   -4.2258   -0.0431    3.7689 H   0  0  0  0  0  0  0  0  0  0  0  0
   -1.3068   -1.2186    4.4121 H   0  0  0  0  0  0  0  0  0  0  0  0
   -2.7688   -2.2088    4.1468 H   0  0  0  0  0  0  0  0  0  0  0  0
   -1.3213   -2.4515    3.1066 H   0  0  0  0  0  0  0  0  0  0  0  0
    2.5304   -0.1952   -2.3849 H   0  0  0  0  0  0  0  0  0  0  0  0
    4.1048   -0.3934   -4.2786 H   0  0  0  0  0  0  0  0  0  0  0  0
    5.0068    0.0973   -2.8071 H   0  0  0  0  0  0  0  0  0  0  0  0
    5.1022   -1.5882   -3.4025 H   0  0  0  0  0  0  0  0  0  0  0  0
    2.0083   -1.9184   -4.0617 H   0  0  0  0  0  0  0  0  0  0  0  0
    2.9632   -3.1439   -3.1531 H   0  0  0  0  0  0  0  0  0  0  0  0
    1.4750   -2.4405   -2.4333 H   0  0  0  0  0  0  0  0  0  0  0  0
    5.0382   -2.9196   -1.5727 H   0  0  0  0  0  0  0  0  0  0  0  0
    5.5839   -3.6092    0.7642 H   0  0  0  0  0  0  0  0  0  0  0  0
    4.3776   -2.5705    2.6854 H   0  0  0  0  0  0  0  0  0  0  0  0
    1.3058   -1.2214    4.4122 H   0  0  0  0  0  0  0  0  0  0  0  0
    1.3209   -2.4539    3.1065 H   0  0  0  0  0  0  0  0  0  0  0  0
    2.7682   -2.2111    4.1471 H   0  0  0  0  0  0  0  0  0  0  0  0
    2.7511    0.8861    4.1883 H   0  0  0  0  0  0  0  0  0  0  0  0
    4.2250   -0.0454    3.7696 H   0  0  0  0  0  0  0  0  0  0  0  0
    3.6278    1.2237    2.6621 H   0  0  0  0  0  0  0  0  0  0  0  0
    1.5432   -0.1243    2.2302 H   0  0  0  0  0  0  0  0  0  0  0  0
  1  2  1  0  0  0  0
  1 14  1  0  0  0  0
  2  4  2  0  0  0  0
  2  3  1  0  0  0  0
  3 38  1  0  0  0  0
  3 39  1  0  0  0  0
  4  5  1  0  0  0  0
  4 10  1  0  0  0  0
  5  6  2  0  0  0  0
  6  7  1  0  0  0  0
  8  6  1  0  0  0  0
  9 10  1  0  0  0  0
  9  8  2  0  0  0  0
 11 13  1  1  0  0  0
 11  9  1  0  0  0  0
 11 12  1  0  0  0  0
 12 43  1  0  0  0  0
 12 45  1  0  0  0  0
 13 26  1  0  0  0  0
 14 22  1  0  0  0  0
 15 19  1  0  0  0  0
 15 14  2  0  0  0  0
 16 46  1  0  0  0  0
 16 15  1  0  0  0  0
 17 48  1  0  0  0  0
 17 16  1  0  0  0  0
 18 52  1  0  0  0  0
 18 16  1  0  0  0  0
 19 20  2  0  0  0  0
 20 54  1  0  0  0  0
 20 21  1  0  0  0  0
 21 55  1  0  0  0  0
 22 21  2  0  0  0  0
 22 23  1  0  0  0  0
 23 24  1  0  0  0  0
 23 25  1  0  0  0  0
 24 59  1  0  0  0  0
 24 57  1  0  0  0  0
 25 61  1  0  0  0  0
 25 60  1  0  0  0  0
 26 34  1  0  0  0  0
 27 31  1  0  0  0  0
 27 26  2  0  0  0  0
 28 63  1  0  0  0  0
 28 27  1  0  0  0  0
 29 65  1  0  0  0  0
 29 28  1  0  0  0  0
 30 69  1  0  0  0  0
 30 28  1  0  0  0  0
 31 32  2  0  0  0  0
 32 71  1  0  0  0  0
 32 33  1  0  0  0  0
 33 72  1  0  0  0  0
 34 33  2  0  0  0  0
 34 35  1  0  0  0  0
 35 37  1  0  0  0  0
 35 36  1  0  0  0  0
 36 75  1  0  0  0  0
 36 73  1  0  0  0  0
 37 77  1  0  0  0  0
 37 76  1  0  0  0  0
 40  3  1  0  0  0  0
 41  5  1  0  0  0  0
 42  8  1  0  0  0  0
 44 12  1  0  0  0  0
 47 17  1  0  0  0  0
 49 17  1  0  0  0  0
 50 18  1  0  0  0  0
 51 18  1  0  0  0  0
 53 19  1  0  0  0  0
 56 23  1  0  0  0  0
 58 24  1  0  0  0  0
 62 25  1  0  0  0  0
 64 29  1  0  0  0  0
 66 29  1  0  0  0  0
 67 30  1  0  0  0  0
 68 30  1  0  0  0  0
 70 31  1  0  0  0  0
 74 36  1  0  0  0  0
 78 37  1  0  0  0  0
 79 35  1  0  0  0  0
M  END
