1,2,3
 OpenBabel05122313063D

 61 65  0  0  1  0  0  0  0  0999 V2000
   -0.3096   -1.0747    1.5843 N   0  0  0  0  0  2  0  0  0  0  0  0
    1.1253    1.9962    0.3806 N   0  0  0  0  0  2  0  0  0  0  0  0
    2.3202   -0.4147    0.9808 N   0  0  0  0  0  0  0  0  0  0  0  0
   -1.5145   -1.6930    1.7389 C   0  0  1  0  0  3  0  0  0  0  0  0
   -2.5077   -1.6543    0.6387 C   0  0  0  0  0  0  0  0  0  0  0  0
   -2.1156   -1.8648   -0.6999 C   0  0  0  0  0  0  0  0  0  0  0  0
   -3.0629   -1.8515   -1.7316 C   0  0  0  0  0  0  0  0  0  0  0  0
   -4.4202   -1.6421   -1.4392 C   0  0  0  0  0  0  0  0  0  0  0  0
   -4.8264   -1.4563   -0.1074 C   0  0  0  0  0  0  0  0  0  0  0  0
   -3.8785   -1.4638    0.9256 C   0  0  0  0  0  0  0  0  0  0  0  0
   -1.8245   -2.3877    2.9291 C   0  0  0  0  0  0  0  0  0  0  0  0
   -0.8860   -2.4592    3.9600 C   0  0  0  0  0  0  0  0  0  0  0  0
    0.3555   -1.8345    3.7833 C   0  0  0  0  0  0  0  0  0  0  0  0
    0.6020   -1.1480    2.5879 C   0  0  0  0  0  0  0  0  0  0  0  0
    1.8921   -0.3849    2.3858 C   0  0  0  0  0  0  0  0  0  0  0  0
    0.4160    3.1484    0.2607 C   0  0  2  0  0  3  0  0  0  0  0  0
   -0.9888    3.0502   -0.1938 C   0  0  0  0  0  0  0  0  0  0  0  0
   -1.5203    4.0268   -1.0657 C   0  0  0  0  0  0  0  0  0  0  0  0
   -2.8297    3.9111   -1.5500 C   0  0  0  0  0  0  0  0  0  0  0  0
   -3.6289    2.8228   -1.1650 C   0  0  0  0  0  0  0  0  0  0  0  0
   -3.1159    1.8539   -0.2886 C   0  0  0  0  0  0  0  0  0  0  0  0
   -1.8058    1.9651    0.1942 C   0  0  0  0  0  0  0  0  0  0  0  0
    1.0253    4.3952    0.5233 C   0  0  0  0  0  0  0  0  0  0  0  0
    2.3724    4.4411    0.8911 C   0  0  0  0  0  0  0  0  0  0  0  0
    3.0995    3.2446    0.9737 C   0  0  0  0  0  0  0  0  0  0  0  0
    2.4388    2.0402    0.6978 C   0  0  0  0  0  0  0  0  0  0  0  0
    3.1835    0.7224    0.6486 C   0  0  0  0  0  0  0  0  0  0  0  0
    2.9318   -1.7265    0.6141 C   0  0  0  0  0  0  0  0  0  0  0  0
    2.6935   -2.0942   -0.8300 C   0  0  0  0  0  0  0  0  0  0  0  0
    3.5381   -1.6453   -1.8640 C   0  0  0  0  0  0  0  0  0  0  0  0
    3.2390   -1.9328   -3.2057 C   0  0  0  0  0  0  0  0  0  0  0  0
    2.1040   -2.6931   -3.5273 C   0  0  0  0  0  0  0  0  0  0  0  0
    1.2751   -3.1779   -2.5023 C   0  0  0  0  0  0  0  0  0  0  0  0
    1.5669   -2.8750   -1.1651 C   0  0  0  0  0  0  0  0  0  0  0  0
   -1.0613   -2.0751   -0.9230 H   0  0  0  0  0  0  0  0  0  0  0  0
   -2.7397   -2.0183   -2.7701 H   0  0  0  0  0  0  0  0  0  0  0  0
   -5.1646   -1.6342   -2.2491 H   0  0  0  0  0  0  0  0  0  0  0  0
   -5.8887   -1.2954    0.1289 H   0  0  0  0  0  0  0  0  0  0  0  0
   -4.2015   -1.2910    1.9634 H   0  0  0  0  0  0  0  0  0  0  0  0
   -2.7929   -2.8990    3.0134 H   0  0  0  0  0  0  0  0  0  0  0  0
   -1.1102   -3.0123    4.8840 H   0  0  0  0  0  0  0  0  0  0  0  0
    1.1306   -1.8729    4.5623 H   0  0  0  0  0  0  0  0  0  0  0  0
    2.6800   -0.7649    3.0761 H   0  0  0  0  0  0  0  0  0  0  0  0
    1.7104    0.6750    2.6668 H   0  0  0  0  0  0  0  0  0  0  0  0
   -0.8897    4.8643   -1.3996 H   0  0  0  0  0  0  0  0  0  0  0  0
   -3.2241    4.6702   -2.2415 H   0  0  0  0  0  0  0  0  0  0  0  0
   -4.6563    2.7300   -1.5475 H   0  0  0  0  0  0  0  0  0  0  0  0
   -3.7393    1.0049    0.0232 H   0  0  0  0  0  0  0  0  0  0  0  0
   -1.4222    1.2252    0.9141 H   0  0  0  0  0  0  0  0  0  0  0  0
    0.4279    5.3147    0.4597 H   0  0  0  0  0  0  0  0  0  0  0  0
    2.8558    5.4037    1.1145 H   0  0  0  0  0  0  0  0  0  0  0  0
    4.1656    3.2412    1.2432 H   0  0  0  0  0  0  0  0  0  0  0  0
    4.0899    0.7655    1.2982 H   0  0  0  0  0  0  0  0  0  0  0  0
    3.5418    0.5744   -0.3925 H   0  0  0  0  0  0  0  0  0  0  0  0
    4.0189   -1.7151    0.8586 H   0  0  0  0  0  0  0  0  0  0  0  0
    2.4634   -2.4921    1.2626 H   0  0  0  0  0  0  0  0  0  0  0  0
    4.4532   -1.0817   -1.6215 H   0  0  0  0  0  0  0  0  0  0  0  0
    3.9055   -1.5735   -4.0038 H   0  0  0  0  0  0  0  0  0  0  0  0
    1.8757   -2.9244   -4.5783 H   0  0  0  0  0  0  0  0  0  0  0  0
    0.4001   -3.7993   -2.7464 H   0  0  0  0  0  0  0  0  0  0  0  0
    0.9226   -3.2636   -0.3605 H   0  0  0  0  0  0  0  0  0  0  0  0
  1  4  1  0  0  0  0
  1 14  1  0  0  0  0
  2 26  1  0  0  0  0
  3 15  1  0  0  0  0
  4  5  1  6  0  0  0
  4 11  1  0  0  0  0
  5 10  1  0  0  0  0
  6  5  2  0  0  0  0
  7  8  2  0  0  0  0
  7  6  1  0  0  0  0
  8  9  1  0  0  0  0
  9 38  1  0  0  0  0
  9 10  2  0  0  0  0
 10 39  1  0  0  0  0
 11 40  1  0  0  0  0
 11 12  2  0  0  0  0
 12 41  1  0  0  0  0
 13 12  1  0  0  0  0
 13 42  1  0  0  0  0
 14 13  2  0  0  0  0
 15 14  1  0  0  0  0
 15 44  1  0  0  0  0
 15 43  1  0  0  0  0
 16 17  1  6  0  0  0
 16  2  1  0  0  0  0
 16 23  1  0  0  0  0
 17 22  1  0  0  0  0
 18 17  2  0  0  0  0
 19 20  2  0  0  0  0
 19 18  1  0  0  0  0
 20 21  1  0  0  0  0
 21 48  1  0  0  0  0
 21 22  2  0  0  0  0
 22 49  1  0  0  0  0
 23 24  2  0  0  0  0
 24 25  1  0  0  0  0
 24 51  1  0  0  0  0
 25 52  1  0  0  0  0
 26 25  2  0  0  0  0
 27 26  1  0  0  0  0
 27  3  1  0  0  0  0
 27 53  1  0  0  0  0
 28 55  1  0  0  0  0
 28  3  1  0  0  0  0
 28 56  1  0  0  0  0
 29 28  1  0  0  0  0
 30 57  1  0  0  0  0
 30 29  2  0  0  0  0
 31 30  1  0  0  0  0
 32 31  2  0  0  0  0
 32 33  1  0  0  0  0
 33 34  2  0  0  0  0
 34 29  1  0  0  0  0
 34 61  1  0  0  0  0
 35  6  1  0  0  0  0
 36  7  1  0  0  0  0
 37  8  1  0  0  0  0
 45 18  1  0  0  0  0
 46 19  1  0  0  0  0
 47 20  1  0  0  0  0
 50 23  1  0  0  0  0
 54 27  1  0  0  0  0
 58 31  1  0  0  0  0
 59 32  1  0  0  0  0
 60 33  1  0  0  0  0
M  END
