1,2,3
 OpenBabel05122313063D

 46 45  0  0  0  0  0  0  0  0999 V2000
   -0.6473    2.3721   -1.1049 N   0  0  0  0  0  0  0  0  0  0  0  0
   -2.9567    0.7146   -0.2408 N   0  0  0  0  0  0  0  0  0  0  0  0
   -1.1204    0.4581    2.0400 N   0  0  0  0  0  0  0  0  0  0  0  0
   -3.3489   -2.4061    0.0389 N   0  0  0  0  0  0  0  0  0  0  0  0
   -0.3377    3.4874   -0.1991 C   0  0  0  0  0  0  0  0  0  0  0  0
    0.6569    3.3297    0.2613 H   0  0  0  0  0  0  0  0  0  0  0  0
   -1.0864    3.5534    0.6123 H   0  0  0  0  0  0  0  0  0  0  0  0
   -0.3203    4.4649   -0.7372 H   0  0  0  0  0  0  0  0  0  0  0  0
   -2.0032    2.4993   -1.6838 C   0  0  0  0  0  0  0  0  0  0  0  0
   -2.0542    1.8238   -2.5617 H   0  0  0  0  0  0  0  0  0  0  0  0
   -2.1789    3.5334   -2.0658 H   0  0  0  0  0  0  0  0  0  0  0  0
   -3.0904    2.1186   -0.6847 C   0  0  0  0  0  0  0  0  0  0  0  0
   -3.0295    2.7797    0.2022 H   0  0  0  0  0  0  0  0  0  0  0  0
   -4.0934    2.3066   -1.1338 H   0  0  0  0  0  0  0  0  0  0  0  0
   -3.4469    0.5272    1.1428 C   0  0  0  0  0  0  0  0  0  0  0  0
   -3.5828   -0.5625    1.2806 H   0  0  0  0  0  0  0  0  0  0  0  0
   -4.4392    1.0153    1.2926 H   0  0  0  0  0  0  0  0  0  0  0  0
   -2.4640    1.0559    2.1821 C   0  0  0  0  0  0  0  0  0  0  0  0
   -2.3480    2.1568    2.0971 H   0  0  0  0  0  0  0  0  0  0  0  0
   -2.8785    0.8648    3.2017 H   0  0  0  0  0  0  0  0  0  0  0  0
   -0.1488    1.1781    2.8742 C   0  0  0  0  0  0  0  0  0  0  0  0
   -0.1017    2.2428    2.5745 H   0  0  0  0  0  0  0  0  0  0  0  0
    0.8553    0.7287    2.7517 H   0  0  0  0  0  0  0  0  0  0  0  0
   -0.4180    1.1298    3.9558 H   0  0  0  0  0  0  0  0  0  0  0  0
   -1.1318   -0.9753    2.3992 C   0  0  0  0  0  0  0  0  0  0  0  0
   -0.1176   -1.3944    2.2573 H   0  0  0  0  0  0  0  0  0  0  0  0
   -1.8352   -1.5252    1.7428 H   0  0  0  0  0  0  0  0  0  0  0  0
   -1.4332   -1.1206    3.4640 H   0  0  0  0  0  0  0  0  0  0  0  0
   -3.6413   -0.2019   -1.1856 C   0  0  0  0  0  0  0  0  0  0  0  0
   -3.4728    0.1865   -2.2099 H   0  0  0  0  0  0  0  0  0  0  0  0
   -4.7447   -0.1533   -1.0193 H   0  0  0  0  0  0  0  0  0  0  0  0
   -3.1273   -1.6400   -1.1878 C   0  0  0  0  0  0  0  0  0  0  0  0
   -3.5912   -2.1532   -2.0734 H   0  0  0  0  0  0  0  0  0  0  0  0
   -2.0334   -1.6167   -1.3787 H   0  0  0  0  0  0  0  0  0  0  0  0
   -4.7508   -2.7444    0.2495 C   0  0  0  0  0  0  0  0  0  0  0  0
   -5.1659   -3.3896   -0.5672 H   0  0  0  0  0  0  0  0  0  0  0  0
   -5.3763   -1.8308    0.3065 H   0  0  0  0  0  0  0  0  0  0  0  0
   -4.8677   -3.2889    1.2075 H   0  0  0  0  0  0  0  0  0  0  0  0
   -2.5113   -3.6017    0.0628 C   0  0  0  0  0  0  0  0  0  0  0  0
   -2.6212   -4.1205    1.0364 H   0  0  0  0  0  0  0  0  0  0  0  0
   -1.4491   -3.3210   -0.0774 H   0  0  0  0  0  0  0  0  0  0  0  0
   -2.7776   -4.3313   -0.7445 H   0  0  0  0  0  0  0  0  0  0  0  0
    0.3664    2.2994   -2.1716 C   0  0  0  0  0  0  0  0  0  0  0  0
    0.3784    3.2265   -2.7916 H   0  0  0  0  0  0  0  0  0  0  0  0
    0.1583    1.4329   -2.8275 H   0  0  0  0  0  0  0  0  0  0  0  0
    1.3708    2.1640   -1.7268 H   0  0  0  0  0  0  0  0  0  0  0  0
  1  5  1  0  0  0  0
  2 15  1  0  0  0  0
  3 18  1  0  0  0  0
  3 25  1  0  0  0  0
  3 21  1  0  0  0  0
  4 39  1  0  0  0  0
  4 35  1  0  0  0  0
  5  6  1  0  0  0  0
  5  7  1  0  0  0  0
  8  5  1  0  0  0  0
  9  1  1  0  0  0  0
  9 12  1  0  0  0  0
 10  9  1  0  0  0  0
 11  9  1  0  0  0  0
 12  2  1  0  0  0  0
 12 13  1  0  0  0  0
 14 12  1  0  0  0  0
 15 16  1  0  0  0  0
 15 17  1  0  0  0  0
 15 18  1  0  0  0  0
 18 20  1  0  0  0  0
 19 18  1  0  0  0  0
 21 24  1  0  0  0  0
 22 21  1  0  0  0  0
 23 21  1  0  0  0  0
 25 28  1  0  0  0  0
 26 25  1  0  0  0  0
 27 25  1  0  0  0  0
 29 31  1  0  0  0  0
 29  2  1  0  0  0  0
 30 29  1  0  0  0  0
 32 29  1  0  0  0  0
 32  4  1  0  0  0  0
 33 32  1  0  0  0  0
 34 32  1  0  0  0  0
 35 37  1  0  0  0  0
 35 38  1  0  0  0  0
 36 35  1  0  0  0  0
 39 40  1  0  0  0  0
 41 39  1  0  0  0  0
 42 39  1  0  0  0  0
 43 46  1  0  0  0  0
 43  1  1  0  0  0  0
 44 43  1  0  0  0  0
 45 43  1  0  0  0  0
M  END
