1,2,3
 OpenBabel05122313063D

 28 28  0  0  0  0  0  0  0  0999 V2000
    1.7952   -0.3646   -0.1337 N   0  0  0  0  0  2  0  0  0  0  0  0
    0.1329    1.5965   -0.7485 N   0  0  0  0  0  2  0  0  0  0  0  0
   -2.4464    0.6469   -0.4027 N   0  0  0  0  0  0  0  0  0  0  0  0
    2.5817   -1.4112    0.1208 C   0  0  0  0  0  3  0  0  0  0  0  0
    2.0647   -2.3840    0.1876 H   0  0  0  0  0  0  0  0  0  0  0  0
    3.9731   -1.2723    0.2796 C   0  0  0  0  0  0  0  0  0  0  0  0
    4.5946   -2.1538    0.4937 H   0  0  0  0  0  0  0  0  0  0  0  0
    4.5411    0.0041    0.1602 C   0  0  0  0  0  0  0  0  0  0  0  0
    5.6252    0.1473    0.2820 H   0  0  0  0  0  0  0  0  0  0  0  0
    3.7090    1.0990   -0.1208 C   0  0  0  0  0  0  0  0  0  0  0  0
    4.1174    2.1150   -0.2304 H   0  0  0  0  0  0  0  0  0  0  0  0
    2.3305    0.8672   -0.2647 C   0  0  0  0  0  0  0  0  0  0  0  0
    1.3563    1.9338   -0.5724 C   0  0  0  0  0  3  0  0  0  0  0  0
    1.7127    2.9859   -0.6293 H   0  0  0  0  0  0  0  0  0  0  0  0
   -0.9507    2.5132   -0.9954 C   0  0  0  0  0  0  0  0  0  0  0  0
   -1.2066    2.4468   -2.0788 H   0  0  0  0  0  0  0  0  0  0  0  0
   -0.6901    3.5741   -0.7788 H   0  0  0  0  0  0  0  0  0  0  0  0
   -2.1597    2.0629   -0.1624 C   0  0  0  0  0  0  0  0  0  0  0  0
   -1.9017    2.1523    0.9142 H   0  0  0  0  0  0  0  0  0  0  0  0
   -3.0307    2.7269   -0.3753 H   0  0  0  0  0  0  0  0  0  0  0  0
   -3.5037    0.1106    0.4790 C   0  0  0  0  0  0  0  0  0  0  0  0
   -4.3892    0.7924    0.4795 H   0  0  0  0  0  0  0  0  0  0  0  0
   -3.0756    0.1114    1.5042 H   0  0  0  0  0  0  0  0  0  0  0  0
   -3.9118   -1.2981    0.0736 C   0  0  0  0  0  0  0  0  0  0  0  0
   -4.3686   -1.3153   -0.9391 H   0  0  0  0  0  0  0  0  0  0  0  0
   -4.6596   -1.6980    0.7861 H   0  0  0  0  0  0  0  0  0  0  0  0
   -3.0324   -1.9727    0.0522 H   0  0  0  0  0  0  0  0  0  0  0  0
   -2.7100    0.4908   -1.3873 H   0  0  0  0  0  0  0  0  0  0  0  0
  1  4  1  0  0  0  0
  2 13  1  0  0  0  0
  3 18  1  0  0  0  0
  3 21  1  0  0  0  0
  4  5  1  0  0  0  0
  4  6  1  0  0  0  0
  6  7  1  0  0  0  0
  8  6  2  0  0  0  0
  8  9  1  0  0  0  0
 10  8  1  0  0  0  0
 11 10  1  0  0  0  0
 12  1  1  0  0  0  0
 12 10  2  0  0  0  0
 13 12  1  0  0  0  0
 14 13  1  0  0  0  0
 15 17  1  0  0  0  0
 15  2  1  0  0  0  0
 15 18  1  0  0  0  0
 16 15  1  0  0  0  0
 18 19  1  0  0  0  0
 20 18  1  0  0  0  0
 21 22  1  0  0  0  0
 21 23  1  0  0  0  0
 24 21  1  0  0  0  0
 24 26  1  0  0  0  0
 25 24  1  0  0  0  0
 27 24  1  0  0  0  0
 28  3  1  0  0  0  0
M  END
