1,2,3
 OpenBabel05122313063D

 37 39  0  0  1  0  0  0  0  0999 V2000
    0.2561    0.8783    1.7511 N   0  0  0  0  0  2  0  0  0  0  0  0
    1.8660   -0.0002    0.0001 N   0  0  0  0  0  2  0  0  0  0  0  0
    0.2560   -0.8784   -1.7510 N   0  0  0  0  0  2  0  0  0  0  0  0
    1.9656    1.8031    3.0348 O   0  0  0  0  0  0  0  0  0  0  0  0
    1.9654   -1.8032   -3.0348 O   0  0  0  0  0  0  0  0  0  0  0  0
   -0.8286    1.4802    2.4110 C   0  0  0  0  0  0  0  0  0  0  0  0
   -1.1062    2.8556    2.2350 C   0  0  0  0  0  0  0  0  0  0  0  0
   -2.2395    3.4285    2.8240 C   0  0  0  0  0  0  0  0  0  0  0  0
   -3.1180    2.6392    3.5855 C   0  0  0  0  0  0  0  0  0  0  0  0
   -2.8488    1.2722    3.7658 C   0  0  0  0  0  0  0  0  0  0  0  0
   -1.7121    0.6945    3.1858 C   0  0  0  0  0  0  0  0  0  0  0  0
    1.5591    1.1553    2.0677 C   0  0  0  0  0  0  0  0  0  0  0  0
    2.4906    0.5501    1.0465 C   0  0  2  0  0  3  0  0  0  0  0  0
    3.8893    0.5683    1.0795 C   0  0  0  0  0  0  0  0  0  0  0  0
    4.5881   -0.0001   -0.0000 C   0  0  0  0  0  0  0  0  0  0  0  0
    3.8892   -0.5686   -1.0795 C   0  0  0  0  0  0  0  0  0  0  0  0
    2.4906   -0.5504   -1.0465 C   0  0  0  0  0  0  0  0  0  0  0  0
    1.5590   -1.1555   -2.0677 C   0  0  0  0  0  0  0  0  0  0  0  0
   -0.8288   -1.4801   -2.4109 C   0  0  0  0  0  0  0  0  0  0  0  0
   -1.7121   -0.6943   -3.1858 C   0  0  0  0  0  0  0  0  0  0  0  0
   -2.8489   -1.2718   -3.7657 C   0  0  0  0  0  0  0  0  0  0  0  0
   -3.1184   -2.6387   -3.5854 C   0  0  0  0  0  0  0  0  0  0  0  0
   -2.2401   -3.4282   -2.8239 C   0  0  0  0  0  0  0  0  0  0  0  0
   -1.1067   -2.8554   -2.2349 C   0  0  0  0  0  0  0  0  0  0  0  0
   -0.4274    3.4619    1.6204 H   0  0  0  0  0  0  0  0  0  0  0  0
   -2.4444    4.5000    2.6788 H   0  0  0  0  0  0  0  0  0  0  0  0
   -4.0125    3.0908    4.0405 H   0  0  0  0  0  0  0  0  0  0  0  0
   -3.5290    0.6489    4.3658 H   0  0  0  0  0  0  0  0  0  0  0  0
   -1.4997   -0.3749    3.3247 H   0  0  0  0  0  0  0  0  0  0  0  0
    4.3855    1.0317    1.9439 H   0  0  0  0  0  0  0  0  0  0  0  0
    5.6885   -0.0001   -0.0000 H   0  0  0  0  0  0  0  0  0  0  0  0
    4.3854   -1.0319   -1.9439 H   0  0  0  0  0  0  0  0  0  0  0  0
   -1.4996    0.3751   -3.3247 H   0  0  0  0  0  0  0  0  0  0  0  0
   -3.5290   -0.6483   -4.3657 H   0  0  0  0  0  0  0  0  0  0  0  0
   -4.0129   -3.0901   -4.0404 H   0  0  0  0  0  0  0  0  0  0  0  0
   -2.4451   -4.4996   -2.6786 H   0  0  0  0  0  0  0  0  0  0  0  0
   -0.4279   -3.4619   -1.6203 H   0  0  0  0  0  0  0  0  0  0  0  0
  1 12  1  0  0  0  0
  1  6  1  0  0  0  0
  2 13  1  0  0  0  0
  5 18  2  0  0  0  0
  6 11  1  0  0  0  0
  7  6  2  0  0  0  0
  7  8  1  0  0  0  0
  8  9  2  0  0  0  0
  9 10  1  0  0  0  0
  9 27  1  0  0  0  0
 10 28  1  0  0  0  0
 11 29  1  0  0  0  0
 11 10  2  0  0  0  0
 12  4  2  0  0  0  0
 13 14  1  0  0  0  0
 13 12  1  6  0  0  0
 14 30  1  0  0  0  0
 15 14  2  0  0  0  0
 16 17  2  0  0  0  0
 16 15  1  0  0  0  0
 17  2  1  0  0  0  0
 18  3  1  0  0  0  0
 18 17  1  0  0  0  0
 19 24  1  0  0  0  0
 19  3  1  0  0  0  0
 20 19  2  0  0  0  0
 21 22  2  0  0  0  0
 21 20  1  0  0  0  0
 22 23  1  0  0  0  0
 23 36  1  0  0  0  0
 23 24  2  0  0  0  0
 24 37  1  0  0  0  0
 25  7  1  0  0  0  0
 26  8  1  0  0  0  0
 31 15  1  0  0  0  0
 32 16  1  0  0  0  0
 33 20  1  0  0  0  0
 34 21  1  0  0  0  0
 35 22  1  0  0  0  0
M  END
