1,2,4
 OpenBabel05122313063D

 53 55  0  0  0  0  0  0  0  0999 V2000
    0.0001    2.1324    0.0001 N   0  0  0  0  0  2  0  0  0  0  0  0
    1.9194    0.5904    0.3915 N   0  0  0  0  0  2  0  0  0  0  0  0
    2.8242   -0.3857    0.5313 N   0  0  0  0  0  0  0  0  0  0  0  0
   -1.9193    0.5904   -0.3916 N   0  0  0  0  0  2  0  0  0  0  0  0
   -2.8240   -0.3857   -0.5317 N   0  0  0  0  0  0  0  0  0  0  0  0
   -1.1802    2.7969   -0.2322 C   0  0  0  0  0  0  0  0  0  0  0  0
   -1.1967    4.2054   -0.2338 C   0  0  0  0  0  0  0  0  0  0  0  0
   -2.1421    4.7354   -0.4160 H   0  0  0  0  0  0  0  0  0  0  0  0
    0.0001    4.9030   -0.0002 C   0  0  0  0  0  0  0  0  0  0  0  0
    0.0001    6.0027   -0.0003 H   0  0  0  0  0  0  0  0  0  0  0  0
    1.1969    4.2054    0.2334 C   0  0  0  0  0  0  0  0  0  0  0  0
    2.1423    4.7355    0.4155 H   0  0  0  0  0  0  0  0  0  0  0  0
    1.1804    2.7969    0.2321 C   0  0  0  0  0  0  0  0  0  0  0  0
    2.2671    1.8820    0.4454 C   0  0  0  0  0  3  0  0  0  0  0  0
    3.2867    2.2300    0.6502 H   0  0  0  0  0  0  0  0  0  0  0  0
   -2.2669    1.8819   -0.4456 C   0  0  0  0  0  0  0  0  0  0  0  0
   -3.2864    2.2300   -0.6508 H   0  0  0  0  0  0  0  0  0  0  0  0
    4.2328   -0.0444    0.6327 C   0  0  0  0  0  0  0  0  0  0  0  0
    4.4243    0.5004    1.5903 H   0  0  0  0  0  0  0  0  0  0  0  0
    4.4577    0.6800   -0.1851 H   0  0  0  0  0  0  0  0  0  0  0  0
    5.1941   -1.2259    0.5125 C   0  0  0  0  0  0  0  0  0  0  0  0
    5.1011   -1.8948    1.3949 H   0  0  0  0  0  0  0  0  0  0  0  0
    6.2112   -0.7869    0.5828 H   0  0  0  0  0  0  0  0  0  0  0  0
    5.0743   -2.0471   -0.7832 C   0  0  0  0  0  0  0  0  0  0  0  0
    4.8879   -1.3598   -1.6385 H   0  0  0  0  0  0  0  0  0  0  0  0
    6.0533   -2.5296   -0.9862 H   0  0  0  0  0  0  0  0  0  0  0  0
    3.9960   -3.1381   -0.7429 C   0  0  0  0  0  0  0  0  0  0  0  0
    4.2373   -3.8356    0.0920 H   0  0  0  0  0  0  0  0  0  0  0  0
    4.0591   -3.7444   -1.6713 H   0  0  0  0  0  0  0  0  0  0  0  0
    2.5615   -2.6317   -0.5759 C   0  0  0  0  0  0  0  0  0  0  0  0
    1.8776   -3.5043   -0.4987 H   0  0  0  0  0  0  0  0  0  0  0  0
    2.2268   -2.0516   -1.4615 H   0  0  0  0  0  0  0  0  0  0  0  0
    2.3305   -1.7532    0.6594 C   0  0  0  0  0  0  0  0  0  0  0  0
    1.2524   -1.6637    0.9019 H   0  0  0  0  0  0  0  0  0  0  0  0
    2.7870   -2.2122    1.5649 H   0  0  0  0  0  0  0  0  0  0  0  0
   -2.3304   -1.7533   -0.6589 C   0  0  0  0  0  0  0  0  0  0  0  0
   -1.2521   -1.6639   -0.9009 H   0  0  0  0  0  0  0  0  0  0  0  0
   -2.7864   -2.2127   -1.5644 H   0  0  0  0  0  0  0  0  0  0  0  0
   -2.5620   -2.6312    0.5767 C   0  0  0  0  0  0  0  0  0  0  0  0
   -1.8780   -3.5039    0.5003 H   0  0  0  0  0  0  0  0  0  0  0  0
   -2.2278   -2.0507    1.4622 H   0  0  0  0  0  0  0  0  0  0  0  0
   -3.9965   -3.1376    0.7432 C   0  0  0  0  0  0  0  0  0  0  0  0
   -4.0601   -3.7436    1.6717 H   0  0  0  0  0  0  0  0  0  0  0  0
   -4.2373   -3.8355   -0.0916 H   0  0  0  0  0  0  0  0  0  0  0  0
   -5.0749   -2.0466    0.7824 C   0  0  0  0  0  0  0  0  0  0  0  0
   -6.0540   -2.5292    0.9850 H   0  0  0  0  0  0  0  0  0  0  0  0
   -4.8891   -1.3590    1.6376 H   0  0  0  0  0  0  0  0  0  0  0  0
   -5.1940   -1.2259   -0.5135 C   0  0  0  0  0  0  0  0  0  0  0  0
   -5.1005   -1.8950   -1.3958 H   0  0  0  0  0  0  0  0  0  0  0  0
   -6.2110   -0.7868   -0.5846 H   0  0  0  0  0  0  0  0  0  0  0  0
   -4.2326   -0.0444   -0.6336 C   0  0  0  0  0  0  0  0  0  0  0  0
   -4.4237    0.5003   -1.5913 H   0  0  0  0  0  0  0  0  0  0  0  0
   -4.4578    0.6801    0.1841 H   0  0  0  0  0  0  0  0  0  0  0  0
  1 13  1  0  0  0  0
  2 14  1  0  0  0  0
  2  3  1  0  0  0  0
  3 18  1  0  0  0  0
  3 33  1  0  0  0  0
  5  4  1  0  0  0  0
  6  1  1  0  0  0  0
  7  6  1  0  0  0  0
  7  9  2  0  0  0  0
  8  7  1  0  0  0  0
  9 11  1  0  0  0  0
 10  9  1  0  0  0  0
 11 12  1  0  0  0  0
 13 11  2  0  0  0  0
 13 14  1  0  0  0  0
 14 15  1  0  0  0  0
 16  4  1  0  0  0  0
 16  6  2  0  0  0  0
 17 16  1  0  0  0  0
 18 19  1  0  0  0  0
 20 18  1  0  0  0  0
 21 23  1  0  0  0  0
 21 18  1  0  0  0  0
 21 22  1  0  0  0  0
 24 27  1  0  0  0  0
 24 21  1  0  0  0  0
 25 24  1  0  0  0  0
 26 24  1  0  0  0  0
 27 30  1  0  0  0  0
 27 28  1  0  0  0  0
 29 27  1  0  0  0  0
 30 31  1  0  0  0  0
 30 33  1  0  0  0  0
 32 30  1  0  0  0  0
 33 34  1  0  0  0  0
 33 35  1  0  0  0  0
 36  5  1  0  0  0  0
 36 39  1  0  0  0  0
 37 36  1  0  0  0  0
 38 36  1  0  0  0  0
 39 42  1  0  0  0  0
 39 41  1  0  0  0  0
 40 39  1  0  0  0  0
 42 45  1  0  0  0  0
 42 43  1  0  0  0  0
 44 42  1  0  0  0  0
 45 46  1  0  0  0  0
 45 47  1  0  0  0  0
 48 45  1  0  0  0  0
 49 48  1  0  0  0  0
 50 48  1  0  0  0  0
 51  5  1  0  0  0  0
 51 48  1  0  0  0  0
 51 53  1  0  0  0  0
 52 51  1  0  0  0  0
M  END
