1,2,3
 OpenBabel05122313063D

 41 41  0  0  0  0  0  0  0  0999 V2000
   -2.1285    0.5676   -0.2539 N   0  0  0  0  0  2  0  0  0  0  0  0
   -1.3784   -1.8180    0.1999 N   0  0  0  0  0  2  0  0  0  0  0  0
   -0.1242    2.0372    0.2695 N   0  0  0  0  0  2  0  0  0  0  0  0
   -3.1152   -0.3691   -0.4712 C   0  0  0  0  0  0  0  0  0  0  0  0
   -4.3729    0.0270   -0.9561 C   0  0  0  0  0  0  0  0  0  0  0  0
   -4.6088    1.3870   -1.2276 C   0  0  0  0  0  0  0  0  0  0  0  0
   -3.5914    2.3316   -1.0112 C   0  0  0  0  0  0  0  0  0  0  0  0
   -2.3469    1.9035   -0.5153 C   0  0  0  0  0  0  0  0  0  0  0  0
   -2.6401   -1.6967   -0.1692 C   0  0  0  0  0  3  0  0  0  0  0  0
   -0.8183   -3.1647    0.5233 C   0  0  0  0  0  0  0  0  0  0  0  0
   -0.1552   -3.0545    1.9094 C   0  0  0  0  0  0  0  0  0  0  0  0
    0.2290   -3.4888   -0.5594 C   0  0  0  0  0  0  0  0  0  0  0  0
   -1.1938    2.6877   -0.1590 C   0  0  0  0  0  0  0  0  0  0  0  0
   -1.8811   -4.2750    0.5531 C   0  0  0  0  0  0  0  0  0  0  0  0
    1.0465    2.8178    0.7840 C   0  0  0  0  0  0  0  0  0  0  0  0
    0.6986    4.2808    1.1129 C   0  0  0  0  0  0  0  0  0  0  0  0
    1.5251    2.1216    2.0707 C   0  0  0  0  0  0  0  0  0  0  0  0
    2.1389    2.7894   -0.3008 C   0  0  0  0  0  0  0  0  0  0  0  0
   -5.1518   -0.7303   -1.1251 H   0  0  0  0  0  0  0  0  0  0  0  0
   -5.5868    1.7097   -1.6119 H   0  0  0  0  0  0  0  0  0  0  0  0
   -3.7537    3.3992   -1.2180 H   0  0  0  0  0  0  0  0  0  0  0  0
   -3.3136   -2.5627   -0.2575 H   0  0  0  0  0  0  0  0  0  0  0  0
    0.2893   -4.0318    2.1849 H   0  0  0  0  0  0  0  0  0  0  0  0
   -0.9052   -2.7821    2.6790 H   0  0  0  0  0  0  0  0  0  0  0  0
    0.6430   -2.2891    1.8872 H   0  0  0  0  0  0  0  0  0  0  0  0
    0.7102   -4.4614   -0.3343 H   0  0  0  0  0  0  0  0  0  0  0  0
    1.0084   -2.7079   -0.5924 H   0  0  0  0  0  0  0  0  0  0  0  0
   -0.2505   -3.5587   -1.5566 H   0  0  0  0  0  0  0  0  0  0  0  0
   -1.2345    3.7866   -0.2003 H   0  0  0  0  0  0  0  0  0  0  0  0
   -1.3902   -5.2254    0.8377 H   0  0  0  0  0  0  0  0  0  0  0  0
   -2.3549   -4.4377   -0.4364 H   0  0  0  0  0  0  0  0  0  0  0  0
   -2.6742   -4.0725    1.3016 H   0  0  0  0  0  0  0  0  0  0  0  0
   -0.1413    4.3529    1.8336 H   0  0  0  0  0  0  0  0  0  0  0  0
    0.4500    4.8772    0.2119 H   0  0  0  0  0  0  0  0  0  0  0  0
    1.5831    4.7576    1.5776 H   0  0  0  0  0  0  0  0  0  0  0  0
    2.4230    2.6400    2.4617 H   0  0  0  0  0  0  0  0  0  0  0  0
    1.7737    1.0621    1.8756 H   0  0  0  0  0  0  0  0  0  0  0  0
    0.7346    2.1570    2.8474 H   0  0  0  0  0  0  0  0  0  0  0  0
    2.4189    1.7558   -0.5701 H   0  0  0  0  0  0  0  0  0  0  0  0
    3.0449    3.3110    0.0667 H   0  0  0  0  0  0  0  0  0  0  0  0
    1.7869    3.3043   -1.2177 H   0  0  0  0  0  0  0  0  0  0  0  0
  2 10  1  0  0  0  0
  3 15  1  0  0  0  0
  4  1  1  0  0  0  0
  4  9  1  0  0  0  0
  5  4  2  0  0  0  0
  6  7  2  0  0  0  0
  6  5  1  0  0  0  0
  7  8  1  0  0  0  0
  8  1  1  0  0  0  0
  8 13  2  0  0  0  0
  9  2  1  0  0  0  0
 10 14  1  0  0  0  0
 10 11  1  0  0  0  0
 11 23  1  0  0  0  0
 11 24  1  0  0  0  0
 12 26  1  0  0  0  0
 12 10  1  0  0  0  0
 13  3  1  0  0  0  0
 14 30  1  0  0  0  0
 14 32  1  0  0  0  0
 15 16  1  0  0  0  0
 15 17  1  0  0  0  0
 16 35  1  0  0  0  0
 16 33  1  0  0  0  0
 17 36  1  0  0  0  0
 17 38  1  0  0  0  0
 18 40  1  0  0  0  0
 18 15  1  0  0  0  0
 19  5  1  0  0  0  0
 20  6  1  0  0  0  0
 21  7  1  0  0  0  0
 22  9  1  0  0  0  0
 25 11  1  0  0  0  0
 27 12  1  0  0  0  0
 28 12  1  0  0  0  0
 29 13  1  0  0  0  0
 31 14  1  0  0  0  0
 34 16  1  0  0  0  0
 37 17  1  0  0  0  0
 39 18  1  0  0  0  0
 41 18  1  0  0  0  0
M  END
