2,3,4
 OpenBabel05122313063D

 39 42  0  0  1  0  0  0  0  0999 V2000
   -8.4534   -0.0065    0.0136 F   0  0  0  0  0  0  0  0  0  0  0  0
   -0.0364    0.0114   -0.3865 N   0  0  0  0  0  2  0  0  0  0  0  0
    1.5096   -2.0956   -0.3821 N   0  0  0  0  0  2  0  0  0  0  0  0
    1.5066    2.1166   -0.2586 N   0  0  0  0  0  2  0  0  0  0  0  0
    2.3984    3.1142   -0.2440 C   0  0  0  0  0  3  0  0  0  0  0  0
    3.4564    2.7986   -0.2337 H   0  0  0  0  0  0  0  0  0  0  0  0
    2.0055    4.4611   -0.2551 C   0  0  0  0  0  0  0  0  0  0  0  0
    2.7626    5.2580   -0.2384 H   0  0  0  0  0  0  0  0  0  0  0  0
    0.6350    4.7569   -0.2892 C   0  0  0  0  0  0  0  0  0  0  0  0
    0.2873    5.8007   -0.3004 H   0  0  0  0  0  0  0  0  0  0  0  0
   -0.2927    3.7068   -0.3135 C   0  0  0  0  0  0  0  0  0  0  0  0
   -1.3701    3.9189   -0.3516 H   0  0  0  0  0  0  0  0  0  0  0  0
    0.1834    2.3830   -0.2954 C   0  0  0  0  0  0  0  0  0  0  0  0
   -0.6954    1.1798   -0.3196 C   0  0  2  0  0  3  0  0  0  0  0  0
   -2.0982    1.2153   -0.2570 C   0  0  0  0  0  0  0  0  0  0  0  0
   -2.6295    2.1718   -0.1658 H   0  0  0  0  0  0  0  0  0  0  0  0
   -2.8271    0.0060   -0.2585 C   0  0  0  0  0  0  0  0  0  0  0  0
   -2.0962   -1.2005   -0.3214 C   0  0  0  0  0  0  0  0  0  0  0  0
   -2.6291   -2.1603   -0.3410 H   0  0  0  0  0  0  0  0  0  0  0  0
   -0.6935   -1.1599   -0.3796 C   0  0  0  0  0  0  0  0  0  0  0  0
    0.1867   -2.3614   -0.4308 C   0  0  1  0  0  3  0  0  0  0  0  0
   -0.2876   -3.6825   -0.5262 C   0  0  0  0  0  0  0  0  0  0  0  0
   -1.3648   -3.8938   -0.5744 H   0  0  0  0  0  0  0  0  0  0  0  0
    0.6417   -4.7306   -0.5676 C   0  0  0  0  0  0  0  0  0  0  0  0
    0.2954   -5.7724   -0.6413 H   0  0  0  0  0  0  0  0  0  0  0  0
    2.0118   -4.4353   -0.5189 C   0  0  0  0  0  0  0  0  0  0  0  0
    2.7701   -5.2306   -0.5521 H   0  0  0  0  0  0  0  0  0  0  0  0
    2.4029   -3.0909   -0.4280 C   0  0  0  0  0  0  0  0  0  0  0  0
    3.4604   -2.7747   -0.4009 H   0  0  0  0  0  0  0  0  0  0  0  0
   -4.3067    0.0028   -0.1868 C   0  0  0  0  0  0  0  0  0  0  0  0
   -4.9967   -1.0122    0.5154 C   0  0  0  0  0  0  0  0  0  0  0  0
   -4.4288   -1.7925    1.0435 H   0  0  0  0  0  0  0  0  0  0  0  0
   -6.3938   -1.0205    0.5900 C   0  0  0  0  0  0  0  0  0  0  0  0
   -6.9369   -1.7968    1.1473 H   0  0  0  0  0  0  0  0  0  0  0  0
   -7.1132   -0.0035   -0.0509 C   0  0  0  0  0  0  0  0  0  0  0  0
   -6.4637    1.0173   -0.7574 C   0  0  0  0  0  0  0  0  0  0  0  0
   -7.0616    1.7924   -1.2572 H   0  0  0  0  0  0  0  0  0  0  0  0
   -5.0658    1.0152   -0.8175 C   0  0  0  0  0  0  0  0  0  0  0  0
   -4.5547    1.8007   -1.3939 H   0  0  0  0  0  0  0  0  0  0  0  0
  2 20  1  0  0  0  0
  2 14  1  0  0  0  0
  4  5  1  0  0  0  0
  5  6  1  0  0  0  0
  7  5  1  0  0  0  0
  7  8  1  0  0  0  0
  9  7  2  0  0  0  0
 10  9  1  0  0  0  0
 11 13  2  0  0  0  0
 11  9  1  0  0  0  0
 12 11  1  0  0  0  0
 13  4  1  0  0  0  0
 14 13  1  1  0  0  0
 14 15  1  0  0  0  0
 15 16  1  0  0  0  0
 17 15  2  0  0  0  0
 17 30  1  0  0  0  0
 18 17  1  0  0  0  0
 19 18  1  0  0  0  0
 20 18  2  0  0  0  0
 21  3  1  0  0  0  0
 21 20  1  6  0  0  0
 22 21  1  0  0  0  0
 23 22  1  0  0  0  0
 24 22  2  0  0  0  0
 24 26  1  0  0  0  0
 25 24  1  0  0  0  0
 26 28  2  0  0  0  0
 27 26  1  0  0  0  0
 28 29  1  0  0  0  0
 28  3  1  0  0  0  0
 30 31  1  0  0  0  0
 31 33  2  0  0  0  0
 31 32  1  0  0  0  0
 33 34  1  0  0  0  0
 35  1  1  0  0  0  0
 35 33  1  0  0  0  0
 36 35  2  0  0  0  0
 37 36  1  0  0  0  0
 38 36  1  0  0  0  0
 38 30  2  0  0  0  0
 39 38  1  0  0  0  0
M  END
