2,3,4
 OpenBabel05122313063D

 39 42  0  0  1  0  0  0  0  0999 V2000
   -8.2090   -0.0035    0.0182 Br  0  0  0  0  0  0  0  0  0  0  0  0
    2.3189    2.1157   -0.2601 N   0  0  0  0  0  2  0  0  0  0  0  0
    0.7744    0.0118   -0.3916 N   0  0  0  0  0  2  0  0  0  0  0  0
    2.3200   -2.0956   -0.3826 N   0  0  0  0  0  2  0  0  0  0  0  0
    3.2114    3.1127   -0.2435 C   0  0  0  0  0  3  0  0  0  0  0  0
    4.2692    2.7962   -0.2305 H   0  0  0  0  0  0  0  0  0  0  0  0
    2.8195    4.4599   -0.2557 C   0  0  0  0  0  0  0  0  0  0  0  0
    3.5772    5.2562   -0.2374 H   0  0  0  0  0  0  0  0  0  0  0  0
    1.4493    4.7568   -0.2931 C   0  0  0  0  0  0  0  0  0  0  0  0
    1.1024    5.8008   -0.3053 H   0  0  0  0  0  0  0  0  0  0  0  0
    0.5209    3.7073   -0.3195 C   0  0  0  0  0  0  0  0  0  0  0  0
   -0.5562    3.9204   -0.3601 H   0  0  0  0  0  0  0  0  0  0  0  0
    0.9960    2.3833   -0.3001 C   0  0  0  0  0  0  0  0  0  0  0  0
    0.1163    1.1808   -0.3262 C   0  0  2  0  0  3  0  0  0  0  0  0
   -1.2866    1.2171   -0.2671 C   0  0  0  0  0  0  0  0  0  0  0  0
   -1.8181    2.1738   -0.1785 H   0  0  0  0  0  0  0  0  0  0  0  0
   -2.0151    0.0078   -0.2687 C   0  0  0  0  0  0  0  0  0  0  0  0
   -1.2856   -1.1995   -0.3289 C   0  0  0  0  0  0  0  0  0  0  0  0
   -1.8193   -2.1588   -0.3477 H   0  0  0  0  0  0  0  0  0  0  0  0
    0.1172   -1.1595   -0.3856 C   0  0  0  0  0  0  0  0  0  0  0  0
    0.9972   -2.3611   -0.4350 C   0  0  1  0  0  3  0  0  0  0  0  0
    0.5225   -3.6819   -0.5327 C   0  0  0  0  0  0  0  0  0  0  0  0
   -0.5545   -3.8929   -0.5842 H   0  0  0  0  0  0  0  0  0  0  0  0
    1.4516   -4.7304   -0.5721 C   0  0  0  0  0  0  0  0  0  0  0  0
    1.1052   -5.7719   -0.6474 H   0  0  0  0  0  0  0  0  0  0  0  0
    2.8217   -4.4355   -0.5193 C   0  0  0  0  0  0  0  0  0  0  0  0
    3.5798   -5.2310   -0.5508 H   0  0  0  0  0  0  0  0  0  0  0  0
    3.2130   -3.0912   -0.4266 C   0  0  0  0  0  0  0  0  0  0  0  0
    4.2706   -2.7754   -0.3964 H   0  0  0  0  0  0  0  0  0  0  0  0
   -3.4949    0.0053   -0.1997 C   0  0  0  0  0  0  0  0  0  0  0  0
   -4.1872   -1.0055    0.5044 C   0  0  0  0  0  0  0  0  0  0  0  0
   -3.6225   -1.7849    1.0375 H   0  0  0  0  0  0  0  0  0  0  0  0
   -5.5850   -1.0131    0.5766 C   0  0  0  0  0  0  0  0  0  0  0  0
   -6.1108   -1.7962    1.1402 H   0  0  0  0  0  0  0  0  0  0  0  0
   -6.3128    0.0001   -0.0691 C   0  0  0  0  0  0  0  0  0  0  0  0
   -5.6516    1.0166   -0.7783 C   0  0  0  0  0  0  0  0  0  0  0  0
   -6.2304    1.7990   -1.2887 H   0  0  0  0  0  0  0  0  0  0  0  0
   -4.2532    1.0142   -0.8352 C   0  0  0  0  0  0  0  0  0  0  0  0
   -3.7427    1.7984   -1.4141 H   0  0  0  0  0  0  0  0  0  0  0  0
  2  5  1  0  0  0  0
  3 20  1  0  0  0  0
  3 14  1  0  0  0  0
  5  6  1  0  0  0  0
  7  5  1  0  0  0  0
  7  8  1  0  0  0  0
  9  7  2  0  0  0  0
 10  9  1  0  0  0  0
 11 13  2  0  0  0  0
 11  9  1  0  0  0  0
 12 11  1  0  0  0  0
 13  2  1  0  0  0  0
 14 13  1  1  0  0  0
 14 15  1  0  0  0  0
 15 16  1  0  0  0  0
 17 15  2  0  0  0  0
 17 30  1  0  0  0  0
 18 17  1  0  0  0  0
 19 18  1  0  0  0  0
 20 18  2  0  0  0  0
 21 20  1  6  0  0  0
 21  4  1  0  0  0  0
 22 21  1  0  0  0  0
 23 22  1  0  0  0  0
 24 22  2  0  0  0  0
 24 26  1  0  0  0  0
 25 24  1  0  0  0  0
 26 28  2  0  0  0  0
 27 26  1  0  0  0  0
 28 29  1  0  0  0  0
 28  4  1  0  0  0  0
 30 31  1  0  0  0  0
 31 33  2  0  0  0  0
 31 32  1  0  0  0  0
 33 34  1  0  0  0  0
 35  1  1  0  0  0  0
 35 33  1  0  0  0  0
 36 35  2  0  0  0  0
 37 36  1  0  0  0  0
 38 36  1  0  0  0  0
 38 30  2  0  0  0  0
 39 38  1  0  0  0  0
M  END
