1,14,27
 OpenBabel05122313063D

 64 68  0  0  1  0  0  0  0  0999 V2000
   -2.0081   -0.8313   -1.0301 N   0  0  0  0  0  0  0  0  0  0  0  0
   -2.4181   -0.2383   -2.3404 C   0  0  0  0  0  0  0  0  0  0  0  0
   -1.6724   -0.4250   -3.1406 H   0  0  0  0  0  0  0  0  0  0  0  0
   -3.3896   -0.7073   -2.6046 H   0  0  0  0  0  0  0  0  0  0  0  0
   -2.6697    1.2298   -2.1349 C   0  0  1  0  0  3  0  0  0  0  0  0
   -2.4702    2.2056   -3.1126 C   0  0  0  0  0  0  0  0  0  0  0  0
   -2.0393    1.9180   -4.0829 H   0  0  0  0  0  0  0  0  0  0  0  0
   -2.8339    3.5361   -2.8417 C   0  0  0  0  0  0  0  0  0  0  0  0
   -2.6952    4.3207   -3.5998 H   0  0  0  0  0  0  0  0  0  0  0  0
   -3.3754    3.8346   -1.5830 C   0  0  0  0  0  0  0  0  0  0  0  0
   -3.6798    4.8583   -1.3210 H   0  0  0  0  0  0  0  0  0  0  0  0
   -3.5267    2.8150   -0.6384 C   0  0  0  0  0  0  0  0  0  0  0  0
   -3.9053    2.9958    0.3783 H   0  0  0  0  0  0  0  0  0  0  0  0
   -3.1804    1.5297   -0.9008 N   0  0  0  0  0  2  0  0  0  0  0  0
   -2.3077   -2.2921   -0.9161 C   0  0  0  0  0  0  0  0  0  0  0  0
   -1.5357   -2.9206   -1.4067 H   0  0  0  0  0  0  0  0  0  0  0  0
   -3.2944   -2.4471   -1.4017 H   0  0  0  0  0  0  0  0  0  0  0  0
   -2.4677   -2.6292    0.5405 C   0  0  2  0  0  3  0  0  0  0  0  0
   -2.1546   -3.8695    1.0986 C   0  0  0  0  0  0  0  0  0  0  0  0
   -1.6965   -4.6456    0.4679 H   0  0  0  0  0  0  0  0  0  0  0  0
   -2.4406   -4.1064    2.4543 C   0  0  0  0  0  0  0  0  0  0  0  0
   -2.2116   -5.0789    2.9141 H   0  0  0  0  0  0  0  0  0  0  0  0
   -3.0226   -3.0727    3.2020 C   0  0  0  0  0  0  0  0  0  0  0  0
   -3.2697   -3.2067    4.2651 H   0  0  0  0  0  0  0  0  0  0  0  0
   -3.2889   -1.8445    2.5891 C   0  0  0  0  0  0  0  0  0  0  0  0
   -3.7042   -0.9841    3.1339 H   0  0  0  0  0  0  0  0  0  0  0  0
   -3.0174   -1.6167    1.2796 N   0  0  0  0  0  2  0  0  0  0  0  0
   -0.5852   -0.5570   -0.7439 C   0  0  0  0  0  0  0  0  0  0  0  0
   -0.1984    0.2119    0.3625 C   0  0  0  0  0  0  0  0  0  0  0  0
   -0.9619    0.6338    1.0361 H   0  0  0  0  0  0  0  0  0  0  0  0
    1.1528    0.4667    0.6171 C   0  0  0  0  0  0  0  0  0  0  0  0
    1.4052    1.1005    1.4772 H   0  0  0  0  0  0  0  0  0  0  0  0
    2.1747   -0.0455   -0.2253 C   0  0  0  0  0  0  0  0  0  0  0  0
    1.7681   -0.8286   -1.3414 C   0  0  0  0  0  0  0  0  0  0  0  0
    2.5142   -1.2748   -2.0116 H   0  0  0  0  0  0  0  0  0  0  0  0
    0.4152   -1.0714   -1.5890 C   0  0  0  0  0  0  0  0  0  0  0  0
    0.1461   -1.6877   -2.4611 H   0  0  0  0  0  0  0  0  0  0  0  0
    3.5175    0.2074    0.0258 N   0  0  0  0  0  0  0  0  0  0  0  0
    3.9469    0.8322    1.2604 C   0  0  0  0  0  0  0  0  0  0  0  0
    4.9793    0.4997    1.4954 H   0  0  0  0  0  0  0  0  0  0  0  0
    3.3300    0.4714    2.1115 H   0  0  0  0  0  0  0  0  0  0  0  0
    3.9331    2.3552    1.2716 C   0  0  0  0  0  0  0  0  0  0  0  0
    3.4343    3.1102    0.1945 C   0  0  0  0  0  0  0  0  0  0  0  0
    3.0313    2.6036   -0.6941 H   0  0  0  0  0  0  0  0  0  0  0  0
    3.4545    4.5090    0.2918 C   0  0  0  0  0  0  0  0  0  0  0  0
    3.0673    5.1297   -0.5307 H   0  0  0  0  0  0  0  0  0  0  0  0
    3.9704    5.0995    1.4532 C   0  0  0  0  0  0  0  0  0  0  0  0
    4.0055    6.1923    1.5738 H   0  0  0  0  0  0  0  0  0  0  0  0
    4.4442    4.2542    2.4711 C   0  0  0  0  0  0  0  0  0  0  0  0
    4.8579    4.6835    3.4016 H   0  0  0  0  0  0  0  0  0  0  0  0
    4.4293    2.9166    2.3897 N   0  0  0  0  0  0  0  0  0  0  0  0
    4.5374   -0.1388   -0.9417 C   0  0  0  0  0  0  0  0  0  0  0  0
    5.4104    0.5316   -0.7979 H   0  0  0  0  0  0  0  0  0  0  0  0
    4.1867    0.0689   -1.9756 H   0  0  0  0  0  0  0  0  0  0  0  0
    5.0362   -1.5774   -0.8885 C   0  0  0  0  0  0  0  0  0  0  0  0
    4.5699   -2.4974    0.0683 C   0  0  0  0  0  0  0  0  0  0  0  0
    3.8077   -2.1919    0.7995 H   0  0  0  0  0  0  0  0  0  0  0  0
    5.0910   -3.7991    0.0550 C   0  0  0  0  0  0  0  0  0  0  0  0
    4.7469   -4.5441    0.7888 H   0  0  0  0  0  0  0  0  0  0  0  0
    6.0532   -4.1334   -0.9078 C   0  0  0  0  0  0  0  0  0  0  0  0
    6.4902   -5.1418   -0.9559 H   0  0  0  0  0  0  0  0  0  0  0  0
    6.4483   -3.1407   -1.8208 C   0  0  0  0  0  0  0  0  0  0  0  0
    7.2027   -3.3679   -2.5958 H   0  0  0  0  0  0  0  0  0  0  0  0
    5.9566   -1.8939   -1.8183 N   0  0  0  0  0  0  0  0  0  0  0  0
  1 15  1  0  0  0  0
  1 28  1  0  0  0  0
  2  1  1  0  0  0  0
  3  2  1  0  0  0  0
  4  2  1  0  0  0  0
  5  2  1  6  0  0  0
  5 14  1  0  0  0  0
  6  8  2  0  0  0  0
  6  5  1  0  0  0  0
  7  6  1  0  0  0  0
  8 10  1  0  0  0  0
  9  8  1  0  0  0  0
 10 11  1  0  0  0  0
 10 12  2  0  0  0  0
 12 13  1  0  0  0  0
 14 12  1  0  0  0  0
 16 15  1  0  0  0  0
 17 15  1  0  0  0  0
 18 15  1  6  0  0  0
 18 19  1  0  0  0  0
 18 27  1  0  0  0  0
 19 21  2  0  0  0  0
 20 19  1  0  0  0  0
 21 22  1  0  0  0  0
 21 23  1  0  0  0  0
 23 24  1  0  0  0  0
 25 26  1  0  0  0  0
 25 23  2  0  0  0  0
 27 25  1  0  0  0  0
 28 29  1  0  0  0  0
 29 31  2  0  0  0  0
 29 30  1  0  0  0  0
 31 32  1  0  0  0  0
 33 38  1  0  0  0  0
 33 31  1  0  0  0  0
 34 33  2  0  0  0  0
 35 34  1  0  0  0  0
 36 34  1  0  0  0  0
 36 28  2  0  0  0  0
 37 36  1  0  0  0  0
 38 39  1  0  0  0  0
 39 42  1  0  0  0  0
 39 40  1  0  0  0  0
 39 41  1  0  0  0  0
 42 51  1  0  0  0  0
 43 45  1  0  0  0  0
 43 42  2  0  0  0  0
 44 43  1  0  0  0  0
 45 47  2  0  0  0  0
 46 45  1  0  0  0  0
 47 48  1  0  0  0  0
 47 49  1  0  0  0  0
 49 50  1  0  0  0  0
 51 49  2  0  0  0  0
 52 55  1  0  0  0  0
 52 53  1  0  0  0  0
 52 38  1  0  0  0  0
 54 52  1  0  0  0  0
 55 56  1  0  0  0  0
 56 57  1  0  0  0  0
 58 56  2  0  0  0  0
 58 59  1  0  0  0  0
 60 58  1  0  0  0  0
 61 60  1  0  0  0  0
 62 64  1  0  0  0  0
 62 60  2  0  0  0  0
 63 62  1  0  0  0  0
 64 55  2  0  0  0  0
M  END
