1,2,4
 OpenBabel05122313063D

 22 22  0  0  0  0  0  0  0  0999 V2000
   -3.5510   -0.8762    1.0371 N   0  0  0  0  0  2  0  0  0  0  0  0
   -1.7037   -1.9027   -0.3687 N   0  0  0  0  0  0  0  0  0  0  0  0
   -0.6687   -2.0872   -0.2278 H   0  0  0  0  0  0  0  0  0  0  0  0
   -3.2260    0.4413   -1.2438 N   0  0  0  0  0  0  0  0  0  0  0  0
   -2.8777    1.2727   -1.7341 H   0  0  0  0  0  0  0  0  0  0  0  0
   -3.3135   -2.2140    1.5325 C   0  0  0  0  0  0  0  0  0  0  0  0
   -2.6632   -2.1592    2.4290 H   0  0  0  0  0  0  0  0  0  0  0  0
   -4.2467   -2.7554    1.8009 H   0  0  0  0  0  0  0  0  0  0  0  0
   -2.5683   -2.8894    0.3463 C   0  0  0  0  0  0  0  0  0  0  0  0
   -3.3120   -3.2922   -0.3709 H   0  0  0  0  0  0  0  0  0  0  0  0
   -1.9511   -3.7371    0.7045 H   0  0  0  0  0  0  0  0  0  0  0  0
   -1.9770   -1.6459   -1.8038 C   0  0  0  0  0  0  0  0  0  0  0  0
   -1.0817   -1.1221   -2.1967 H   0  0  0  0  0  0  0  0  0  0  0  0
   -2.0555   -2.6083   -2.3580 H   0  0  0  0  0  0  0  0  0  0  0  0
   -3.2319   -0.7908   -2.0530 C   0  0  0  0  0  0  0  0  0  0  0  0
   -3.3001   -0.5795   -3.1416 H   0  0  0  0  0  0  0  0  0  0  0  0
   -4.1409   -1.3809   -1.8107 H   0  0  0  0  0  0  0  0  0  0  0  0
   -4.4425    0.7346   -0.4848 C   0  0  0  0  0  0  0  0  0  0  0  0
   -4.3091    1.7152    0.0219 H   0  0  0  0  0  0  0  0  0  0  0  0
   -5.3711    0.7911   -1.0985 H   0  0  0  0  0  0  0  0  0  0  0  0
   -4.6137   -0.3662    0.5477 C   0  0  0  0  0  3  0  0  0  0  0  0
   -5.6132   -0.8011    0.7618 H   0  0  0  0  0  0  0  0  0  0  0  0
  1  6  1  0  0  0  0
  2  3  1  0  0  0  0
  2  9  1  0  0  0  0
  4 18  1  0  0  0  0
  5  4  1  0  0  0  0
  6  8  1  0  0  0  0
  6  7  1  0  0  0  0
  9 11  1  0  0  0  0
  9  6  1  0  0  0  0
 10  9  1  0  0  0  0
 12  2  1  0  0  0  0
 13 12  1  0  0  0  0
 14 12  1  0  0  0  0
 15 17  1  0  0  0  0
 15 12  1  0  0  0  0
 15  4  1  0  0  0  0
 16 15  1  0  0  0  0
 18 19  1  0  0  0  0
 18 21  1  0  0  0  0
 20 18  1  0  0  0  0
 21 22  1  0  0  0  0
 21  1  1  0  0  0  0
M  END
