1,2,3
 OpenBabel05122313063D

 49 52  0  0  1  0  0  0  0  0999 V2000
   -0.7649   -1.5990   -0.6867 N   0  0  0  0  0  2  0  0  0  0  0  0
   -0.5261    0.2473    1.0355 N   0  0  0  0  0  2  0  0  0  0  0  0
    1.4009    1.5630   -0.1728 N   0  0  0  0  0  0  0  0  0  0  0  0
    2.5621   -0.7045    0.7017 N   0  0  0  0  0  0  0  0  0  0  0  0
   -1.3843    1.5797   -1.5973 N   0  0  0  0  0  0  0  0  0  0  0  0
   -0.8034    1.8473    2.7103 O   0  0  0  0  0  0  0  0  0  0  0  0
   -0.7991   -2.5494   -1.6328 C   0  0  0  0  0  0  0  0  0  0  0  0
    0.0227   -2.5165   -2.3640 H   0  0  0  0  0  0  0  0  0  0  0  0
   -1.8419   -3.5024   -1.6922 C   0  0  0  0  0  0  0  0  0  0  0  0
   -1.8199   -4.2559   -2.4928 H   0  0  0  0  0  0  0  0  0  0  0  0
   -2.8713   -3.4768   -0.7594 C   0  0  0  0  0  0  0  0  0  0  0  0
   -3.6915   -4.2102   -0.7979 H   0  0  0  0  0  0  0  0  0  0  0  0
   -2.8643   -2.4832    0.2617 C   0  0  0  0  0  0  0  0  0  0  0  0
   -3.8551   -2.3387    1.2753 C   0  0  0  0  0  0  0  0  0  0  0  0
   -4.7055   -3.0363    1.2979 H   0  0  0  0  0  0  0  0  0  0  0  0
   -3.7345   -1.3218    2.2199 C   0  0  0  0  0  0  0  0  0  0  0  0
   -4.5060   -1.2174    2.9988 H   0  0  0  0  0  0  0  0  0  0  0  0
   -2.6512   -0.4091    2.2203 C   0  0  0  0  0  0  0  0  0  0  0  0
   -2.5665    0.3908    2.9650 H   0  0  0  0  0  0  0  0  0  0  0  0
   -1.6573   -0.5245    1.2347 C   0  0  0  0  0  0  0  0  0  0  0  0
   -1.7725   -1.5613    0.2582 C   0  0  2  0  0  3  0  0  0  0  0  0
   -0.1985    1.3650    1.7499 C   0  0  0  0  0  0  0  0  0  0  0  0
    1.1174    1.9546    1.2350 C   0  0  0  0  0  0  0  0  0  0  0  0
    1.1177    3.0578    1.3601 H   0  0  0  0  0  0  0  0  0  0  0  0
    1.9229    1.5475    1.8777 H   0  0  0  0  0  0  0  0  0  0  0  0
    2.8550    1.4387   -0.4055 C   0  0  0  0  0  0  0  0  0  0  0  0
    3.3832    2.3722   -0.1025 H   0  0  0  0  0  0  0  0  0  0  0  0
    2.9940    1.2809   -1.4955 H   0  0  0  0  0  0  0  0  0  0  0  0
    3.4385    0.2314    0.2973 C   0  0  0  0  0  0  0  0  0  0  0  0
    4.8264    0.0757    0.4554 C   0  0  0  0  0  0  0  0  0  0  0  0
    5.5149    0.8718    0.1329 H   0  0  0  0  0  0  0  0  0  0  0  0
    5.3093   -1.1140    1.0172 C   0  0  0  0  0  0  0  0  0  0  0  0
    6.3913   -1.2713    1.1423 H   0  0  0  0  0  0  0  0  0  0  0  0
    4.3922   -2.0984    1.4168 C   0  0  0  0  0  0  0  0  0  0  0  0
    4.7284   -3.0462    1.8620 H   0  0  0  0  0  0  0  0  0  0  0  0
    3.0250   -1.8389    1.2481 C   0  0  0  0  0  0  0  0  0  0  0  0
    2.2614   -2.5700    1.5655 H   0  0  0  0  0  0  0  0  0  0  0  0
    0.8001    2.5187   -1.1527 C   0  0  0  0  0  0  0  0  0  0  0  0
    1.0529    2.1281   -2.1579 H   0  0  0  0  0  0  0  0  0  0  0  0
    1.2570    3.5244   -1.0077 H   0  0  0  0  0  0  0  0  0  0  0  0
   -0.7054    2.5921   -1.0206 C   0  0  0  0  0  0  0  0  0  0  0  0
   -1.3412    3.6130   -0.2951 C   0  0  0  0  0  0  0  0  0  0  0  0
   -0.7540    4.4331    0.1449 H   0  0  0  0  0  0  0  0  0  0  0  0
   -2.7323    3.5482   -0.1136 C   0  0  0  0  0  0  0  0  0  0  0  0
   -3.2543    4.3167    0.4758 H   0  0  0  0  0  0  0  0  0  0  0  0
   -3.4329    2.4783   -0.6814 C   0  0  0  0  0  0  0  0  0  0  0  0
   -4.5205    2.3746   -0.5534 H   0  0  0  0  0  0  0  0  0  0  0  0
   -2.7117    1.5306   -1.4301 C   0  0  0  0  0  0  0  0  0  0  0  0
   -3.2330    0.6841   -1.9115 H   0  0  0  0  0  0  0  0  0  0  0  0
  2 20  1  0  0  0  0
  2 22  1  0  0  0  0
  3 23  1  0  0  0  0
  4 36  1  0  0  0  0
  5 48  2  0  0  0  0
  5 41  1  0  0  0  0
  7  1  1  0  0  0  0
  8  7  1  0  0  0  0
  9  7  2  0  0  0  0
  9 11  1  0  0  0  0
 10  9  1  0  0  0  0
 11 13  2  0  0  0  0
 12 11  1  0  0  0  0
 13 14  1  0  0  0  0
 14 15  1  0  0  0  0
 14 16  2  0  0  0  0
 16 18  1  0  0  0  0
 16 17  1  0  0  0  0
 18 19  1  0  0  0  0
 20 18  2  0  0  0  0
 21  1  1  6  0  0  0
 21 13  1  0  0  0  0
 21 20  1  0  0  0  0
 22  6  2  0  0  0  0
 23 24  1  0  0  0  0
 23 22  1  0  0  0  0
 23 25  1  0  0  0  0
 26  3  1  0  0  0  0
 26 27  1  0  0  0  0
 26 29  1  0  0  0  0
 28 26  1  0  0  0  0
 29 30  1  0  0  0  0
 29  4  2  0  0  0  0
 30 32  2  0  0  0  0
 31 30  1  0  0  0  0
 32 33  1  0  0  0  0
 32 34  1  0  0  0  0
 34 35  1  0  0  0  0
 36 34  2  0  0  0  0
 36 37  1  0  0  0  0
 38 41  1  0  0  0  0
 38 40  1  0  0  0  0
 38  3  1  0  0  0  0
 39 38  1  0  0  0  0
 41 42  2  0  0  0  0
 42 44  1  0  0  0  0
 42 43  1  0  0  0  0
 44 45  1  0  0  0  0
 46 47  1  0  0  0  0
 46 44  2  0  0  0  0
 48 46  1  0  0  0  0
 49 48  1  0  0  0  0
M  END
