8,15,17
 OpenBabel05122313063D

 39 41  0  0  0  0  0  0  0  0999 V2000
   -6.1526   -3.2208   -0.1478 O   0  0  0  0  0  0  0  0  0  0  0  0
   -5.2392   -2.2206   -0.1246 C   0  0  0  0  0  0  0  0  0  0  0  0
   -3.9287   -2.5316    0.2964 C   0  0  0  0  0  0  0  0  0  0  0  0
   -2.9502   -1.5430    0.3240 C   0  0  0  0  0  0  0  0  0  0  0  0
   -3.2619   -0.2067   -0.0436 C   0  0  0  0  0  0  0  0  0  0  0  0
   -4.5790    0.0961   -0.4716 C   0  0  0  0  0  0  0  0  0  0  0  0
   -5.5548   -0.8979   -0.5158 C   0  0  0  0  0  0  0  0  0  0  0  0
   -2.2312    0.7246    0.0169 N   0  0  0  0  0  2  0  0  0  0  0  0
   -2.3778    2.0110   -0.0220 C   0  0  0  0  0  0  0  0  0  0  0  0
   -1.1749    2.8507   -0.0175 C   0  0  0  0  0  0  0  0  0  0  0  0
   -1.2126    4.2626   -0.0253 C   0  0  0  0  0  0  0  0  0  0  0  0
    0.0001    4.9662   -0.0278 C   0  0  0  0  0  0  0  0  0  0  0  0
    1.2127    4.2626   -0.0254 C   0  0  0  0  0  0  0  0  0  0  0  0
    1.1750    2.8507   -0.0176 C   0  0  0  0  0  0  0  0  0  0  0  0
    0.0000    2.1920   -0.0154 N   0  0  0  0  0  2  0  0  0  0  0  0
    2.3779    2.0110   -0.0220 C   0  0  0  0  0  3  0  0  0  0  0  0
    2.2312    0.7246    0.0168 N   0  0  0  0  0  2  0  0  0  0  0  0
    3.2620   -0.2067   -0.0437 C   0  0  0  0  0  0  0  0  0  0  0  0
    4.5792    0.0961   -0.4712 C   0  0  0  0  0  0  0  0  0  0  0  0
    5.5550   -0.8979   -0.5155 C   0  0  0  0  0  0  0  0  0  0  0  0
    5.2392   -2.2206   -0.1247 C   0  0  0  0  0  0  0  0  0  0  0  0
    3.9287   -2.5317    0.2959 C   0  0  0  0  0  0  0  0  0  0  0  0
    2.9501   -1.5431    0.3235 C   0  0  0  0  0  0  0  0  0  0  0  0
    6.1527   -3.2209   -0.1480 O   0  0  0  0  0  0  0  0  0  0  0  0
   -7.0043   -2.8620   -0.4610 H   0  0  0  0  0  0  0  0  0  0  0  0
   -3.6989   -3.5655    0.5901 H   0  0  0  0  0  0  0  0  0  0  0  0
   -1.9270   -1.7695    0.6598 H   0  0  0  0  0  0  0  0  0  0  0  0
   -4.8365    1.1117   -0.8066 H   0  0  0  0  0  0  0  0  0  0  0  0
   -6.5718   -0.6609   -0.8702 H   0  0  0  0  0  0  0  0  0  0  0  0
   -3.3625    2.5226   -0.0511 H   0  0  0  0  0  0  0  0  0  0  0  0
   -2.1790    4.7875   -0.0299 H   0  0  0  0  0  0  0  0  0  0  0  0
    0.0001    6.0664   -0.0319 H   0  0  0  0  0  0  0  0  0  0  0  0
    2.1791    4.7875   -0.0300 H   0  0  0  0  0  0  0  0  0  0  0  0
    3.3625    2.5226   -0.0511 H   0  0  0  0  0  0  0  0  0  0  0  0
    4.8368    1.1118   -0.8059 H   0  0  0  0  0  0  0  0  0  0  0  0
    6.5720   -0.6608   -0.8695 H   0  0  0  0  0  0  0  0  0  0  0  0
    3.6988   -3.5657    0.5893 H   0  0  0  0  0  0  0  0  0  0  0  0
    1.9269   -1.7697    0.6591 H   0  0  0  0  0  0  0  0  0  0  0  0
    7.0044   -2.8621   -0.4609 H   0  0  0  0  0  0  0  0  0  0  0  0
  1  2  1  0  0  0  0
  2  3  1  0  0  0  0
  3  4  2  0  0  0  0
  3 26  1  0  0  0  0
  4 27  1  0  0  0  0
  5  8  1  0  0  0  0
  5  4  1  0  0  0  0
  6  5  2  0  0  0  0
  7  6  1  0  0  0  0
  7  2  2  0  0  0  0
  9 10  2  0  0  0  0
  9  8  1  0  0  0  0
 10 15  1  0  0  0  0
 11 10  1  0  0  0  0
 12 13  1  0  0  0  0
 12 11  2  0  0  0  0
 13 14  2  0  0  0  0
 14 15  1  0  0  0  0
 16 14  1  0  0  0  0
 16 17  1  0  0  0  0
 18 17  1  0  0  0  0
 18 23  1  0  0  0  0
 19 18  2  0  0  0  0
 20 19  1  0  0  0  0
 20 21  2  0  0  0  0
 21 22  1  0  0  0  0
 22 23  2  0  0  0  0
 22 37  1  0  0  0  0
 23 38  1  0  0  0  0
 24 21  1  0  0  0  0
 25  1  1  0  0  0  0
 28  6  1  0  0  0  0
 29  7  1  0  0  0  0
 30  9  1  0  0  0  0
 31 11  1  0  0  0  0
 32 12  1  0  0  0  0
 33 13  1  0  0  0  0
 34 16  1  0  0  0  0
 35 19  1  0  0  0  0
 36 20  1  0  0  0  0
 39 24  1  0  0  0  0
M  END
