48,50,52
q = 0.0, confidence = 0.994

 53 55  0  0  0  0  0  0  0  0999 V2000
   -0.0026   -0.0026    2.5546 C   0  0  0  0  0  0  0  0  0  0  0  0
   -0.0032   -0.0034    3.6590 H   0  0  0  0  0  0  0  0  0  0  0  0
   -2.4823   -0.4430    2.8785 C   0  0  0  0  0  3  0  0  0  0  0  0
   -2.4389   -0.4369    3.9736 H   0  0  0  0  0  0  0  0  0  0  0  0
   -3.5334   -0.6287    1.9963 C   0  0  0  0  0  0  0  0  0  0  0  0
   -4.5806   -0.8151    2.2536 H   0  0  0  0  0  0  0  0  0  0  0  0
   -2.9791   -0.5284    0.6890 C   0  0  0  0  0  0  0  0  0  0  0  0
   -3.6967   -0.6513   -0.6263 C   0  0  0  0  0  0  0  0  0  0  0  0
   -2.9327   -0.5278   -1.4189 H   0  0  0  0  0  0  0  0  0  0  0  0
   -4.7356    0.4727   -0.7872 C   0  0  0  0  0  0  0  0  0  0  0  0
   -5.5249    0.4097   -0.0102 H   0  0  0  0  0  0  0  0  0  0  0  0
   -5.2299    0.3916   -1.7752 H   0  0  0  0  0  0  0  0  0  0  0  0
   -4.2650    1.4734   -0.7231 H   0  0  0  0  0  0  0  0  0  0  0  0
   -4.3205   -2.0494   -0.7801 C   0  0  0  0  0  0  0  0  0  0  0  0
   -3.5541   -2.8462   -0.7103 H   0  0  0  0  0  0  0  0  0  0  0  0
   -4.8134   -2.1365   -1.7683 H   0  0  0  0  0  0  0  0  0  0  0  0
   -5.0898   -2.2386   -0.0036 H   0  0  0  0  0  0  0  0  0  0  0  0
    0.8576    2.3640    2.8825 C   0  0  0  0  0  3  0  0  0  0  0  0
    0.8412    2.3216    3.9775 H   0  0  0  0  0  0  0  0  0  0  0  0
    1.2238    3.3680    2.0020 C   0  0  0  0  0  0  0  0  0  0  0  0
    1.5875    4.3672    2.2609 H   0  0  0  0  0  0  0  0  0  0  0  0
    1.0329    2.8403    0.6938 C   0  0  0  0  0  0  0  0  0  0  0  0
    1.2855    3.5253   -0.6204 C   0  0  0  0  0  0  0  0  0  0  0  0
    1.0167    2.8008   -1.4142 H   0  0  0  0  0  0  0  0  0  0  0  0
    2.7767    3.8716   -0.7771 C   0  0  0  0  0  0  0  0  0  0  0  0
    3.1107    4.5881    0.0011 H   0  0  0  0  0  0  0  0  0  0  0  0
    2.9534    4.3419   -1.7644 H   0  0  0  0  0  0  0  0  0  0  0  0
    3.4130    2.9672   -0.7119 H   0  0  0  0  0  0  0  0  0  0  0  0
    0.3799    4.7596   -0.7760 C   0  0  0  0  0  0  0  0  0  0  0  0
   -0.6920    4.4882   -0.7095 H   0  0  0  0  0  0  0  0  0  0  0  0
    0.5510    5.2315   -1.7635 H   0  0  0  0  0  0  0  0  0  0  0  0
    0.5942    5.5211    0.0016 H   0  0  0  0  0  0  0  0  0  0  0  0
    1.6180   -1.9304    2.8798 C   0  0  0  0  0  3  0  0  0  0  0  0
    1.5892   -1.8968    3.9748 H   0  0  0  0  0  0  0  0  0  0  0  0
    2.3053   -2.7476    1.9980 C   0  0  0  0  0  0  0  0  0  0  0  0
    2.9895   -3.5619    2.2558 H   0  0  0  0  0  0  0  0  0  0  0  0
    1.9434   -2.3167    0.6905 C   0  0  0  0  0  0  0  0  0  0  0  0
    2.4133   -2.8733   -0.6247 C   0  0  0  0  0  0  0  0  0  0  0  0
    1.9101   -2.2853   -1.4174 H   0  0  0  0  0  0  0  0  0  0  0  0
    1.9868   -4.3436   -0.7792 C   0  0  0  0  0  0  0  0  0  0  0  0
    2.4514   -4.9849   -0.0024 H   0  0  0  0  0  0  0  0  0  0  0  0
    2.3076   -4.7281   -1.7673 H   0  0  0  0  0  0  0  0  0  0  0  0
    0.8870   -4.4571   -0.7103 H   0  0  0  0  0  0  0  0  0  0  0  0
    3.9323   -2.6860   -0.7846 C   0  0  0  0  0  0  0  0  0  0  0  0
    4.2192   -1.6180   -0.7204 H   0  0  0  0  0  0  0  0  0  0  0  0
    4.2579   -3.0672   -1.7724 H   0  0  0  0  0  0  0  0  0  0  0  0
    4.4939   -3.2437   -0.0074 H   0  0  0  0  0  0  0  0  0  0  0  0
   -1.6511   -0.2928    0.7846 N   0  0  0  0  0  2  0  0  0  0  0  0
   -1.3623   -0.2430    2.1173 N   0  0  0  0  0  0  0  0  0  0  0  0
    0.5714    1.5727    0.7873 N   0  0  0  0  0  2  0  0  0  0  0  0
    0.4694    1.2959    2.1195 N   0  0  0  0  0  0  0  0  0  0  0  0
    1.0753   -1.2843    0.7856 N   0  0  0  0  0  2  0  0  0  0  0  0
    0.8861   -1.0598    2.1181 N   0  0  0  0  0  0  0  0  0  0  0  0
  1  2  1  0  0  0  0
  3  4  1  0  0  0  0
  5  6  1  0  0  0  0
  5  3  1  0  0  0  0
  7 48  1  0  0  0  0
  7  5  2  0  0  0  0
  8  7  1  0  0  0  0
  9  8  1  0  0  0  0
 10 13  1  0  0  0  0
 10  8  1  0  0  0  0
 10 11  1  0  0  0  0
 12 10  1  0  0  0  0
 14 15  1  0  0  0  0
 14  8  1  0  0  0  0
 14 17  1  0  0  0  0
 16 14  1  0  0  0  0
 18 19  1  0  0  0  0
 20 21  1  0  0  0  0
 20 18  1  0  0  0  0
 22 50  1  0  0  0  0
 22 20  2  0  0  0  0
 23 22  1  0  0  0  0
 24 23  1  0  0  0  0
 25 28  1  0  0  0  0
 25 23  1  0  0  0  0
 25 26  1  0  0  0  0
 27 25  1  0  0  0  0
 29 30  1  0  0  0  0
 29 23  1  0  0  0  0
 29 32  1  0  0  0  0
 31 29  1  0  0  0  0
 33 34  1  0  0  0  0
 35 36  1  0  0  0  0
 35 33  1  0  0  0  0
 37 52  1  0  0  0  0
 37 35  2  0  0  0  0
 38 37  1  0  0  0  0
 39 38  1  0  0  0  0
 40 43  1  0  0  0  0
 40 38  1  0  0  0  0
 40 41  1  0  0  0  0
 42 40  1  0  0  0  0
 44 45  1  0  0  0  0
 44 38  1  0  0  0  0
 44 47  1  0  0  0  0
 46 44  1  0  0  0  0
 48 49  1  0  0  0  0
 49  1  1  0  0  0  0
 49  3  1  0  0  0  0
 50 51  1  0  0  0  0
 51  1  1  0  0  0  0
 51 18  1  0  0  0  0
 52 53  1  0  0  0  0
 53  1  1  0  0  0  0
 53 33  1  0  0  0  0
M  END
