1,21,23
 OpenBabel05122313063D

 42 43  0  0  1  0  0  0  0  0999 V2000
   -2.0051    0.2498    0.2319 N   0  0  0  0  0  2  0  0  0  0  0  0
   -2.7106   -0.6097   -0.5627 N   0  0  0  0  0  0  0  0  0  0  0  0
   -4.0533   -0.5303   -0.2976 C   0  0  1  0  0  3  0  0  0  0  0  0
   -4.1940    0.4314    0.7020 C   0  0  0  0  0  0  0  0  0  0  0  0
   -5.1322    0.7613    1.1592 H   0  0  0  0  0  0  0  0  0  0  0  0
   -2.8966    0.8982    1.0187 C   0  0  0  0  0  0  0  0  0  0  0  0
   -5.0784   -1.3565   -0.9998 C   0  0  0  0  0  0  0  0  0  0  0  0
   -5.0588   -1.1981   -2.0977 H   0  0  0  0  0  0  0  0  0  0  0  0
   -6.0850   -1.0762   -0.6409 H   0  0  0  0  0  0  0  0  0  0  0  0
   -4.9498   -2.4425   -0.8085 H   0  0  0  0  0  0  0  0  0  0  0  0
   -2.5226    1.9134    2.0440 C   0  0  0  0  0  0  0  0  0  0  0  0
   -1.5522    1.6748    2.5172 H   0  0  0  0  0  0  0  0  0  0  0  0
   -3.3074    1.9646    2.8216 H   0  0  0  0  0  0  0  0  0  0  0  0
   -2.4114    2.9150    1.5842 H   0  0  0  0  0  0  0  0  0  0  0  0
   -2.0147   -1.5875   -1.3783 C   0  0  0  0  0  0  0  0  0  0  0  0
   -1.4629   -1.0771   -2.1979 H   0  0  0  0  0  0  0  0  0  0  0  0
   -2.7829   -2.2264   -1.8509 H   0  0  0  0  0  0  0  0  0  0  0  0
   -1.0699   -2.4581   -0.5430 C   0  0  0  0  0  0  0  0  0  0  0  0
   -1.5708   -2.7352    0.4056 H   0  0  0  0  0  0  0  0  0  0  0  0
   -0.8375   -3.3985   -1.0882 H   0  0  0  0  0  0  0  0  0  0  0  0
    0.1861   -1.7383   -0.2159 N   0  0  0  0  0  0  0  0  0  0  0  0
    0.7689   -1.7356   -1.0675 H   0  0  0  0  0  0  0  0  0  0  0  0
    2.0243    0.3245   -0.2399 N   0  0  0  0  0  2  0  0  0  0  0  0
    2.7012   -0.5765    0.5371 N   0  0  0  0  0  0  0  0  0  0  0  0
    4.0391   -0.5676    0.2436 C   0  0  1  0  0  3  0  0  0  0  0  0
    4.2050    0.3765   -0.7712 C   0  0  0  0  0  0  0  0  0  0  0  0
    5.1482    0.6530   -1.2529 H   0  0  0  0  0  0  0  0  0  0  0  0
    2.9268    0.9139   -1.0577 C   0  0  0  0  0  0  0  0  0  0  0  0
    5.0353   -1.4215    0.9537 C   0  0  0  0  0  0  0  0  0  0  0  0
    5.0879   -1.1808    2.0361 H   0  0  0  0  0  0  0  0  0  0  0  0
    6.0399   -1.2510    0.5270 H   0  0  0  0  0  0  0  0  0  0  0  0
    4.8090   -2.5033    0.8562 H   0  0  0  0  0  0  0  0  0  0  0  0
    2.5503    1.9205   -2.0908 C   0  0  0  0  0  0  0  0  0  0  0  0
    2.0913    1.4281   -2.9736 H   0  0  0  0  0  0  0  0  0  0  0  0
    3.4466    2.4664   -2.4365 H   0  0  0  0  0  0  0  0  0  0  0  0
    1.8095    2.6348   -1.6832 H   0  0  0  0  0  0  0  0  0  0  0  0
    1.9617   -1.3530    1.5141 C   0  0  0  0  0  0  0  0  0  0  0  0
    1.4009   -0.6475    2.1627 H   0  0  0  0  0  0  0  0  0  0  0  0
    2.6881   -1.8943    2.1484 H   0  0  0  0  0  0  0  0  0  0  0  0
    0.9921   -2.3586    0.8717 C   0  0  0  0  0  0  0  0  0  0  0  0
    1.5394   -3.2404    0.4738 H   0  0  0  0  0  0  0  0  0  0  0  0
    0.2979   -2.7196    1.6557 H   0  0  0  0  0  0  0  0  0  0  0  0
  1  6  1  0  0  0  0
  2  3  1  0  0  0  0
  2  1  1  0  0  0  0
  3  7  1  6  0  0  0
  3  4  1  0  0  0  0
  4  6  2  0  0  0  0
  4  5  1  0  0  0  0
  6 11  1  0  0  0  0
  7 10  1  0  0  0  0
  7  9  1  0  0  0  0
  8  7  1  0  0  0  0
 11 12  1  0  0  0  0
 11 13  1  0  0  0  0
 14 11  1  0  0  0  0
 15  2  1  0  0  0  0
 15 18  1  0  0  0  0
 16 15  1  0  0  0  0
 17 15  1  0  0  0  0
 18 21  1  0  0  0  0
 18 19  1  0  0  0  0
 20 18  1  0  0  0  0
 21 40  1  0  0  0  0
 22 21  1  0  0  0  0
 23 24  1  0  0  0  0
 24 37  1  0  0  0  0
 25 24  1  0  0  0  0
 25 29  1  1  0  0  0
 26 25  1  0  0  0  0
 27 26  1  0  0  0  0
 28 26  2  0  0  0  0
 28 23  1  0  0  0  0
 29 30  1  0  0  0  0
 31 29  1  0  0  0  0
 32 29  1  0  0  0  0
 33 36  1  0  0  0  0
 33 28  1  0  0  0  0
 34 33  1  0  0  0  0
 35 33  1  0  0  0  0
 37 39  1  0  0  0  0
 37 38  1  0  0  0  0
 40 37  1  0  0  0  0
 40 42  1  0  0  0  0
 41 40  1  0  0  0  0
M  END
