1,2,4
 OpenBabel05122313063D

 44 43  0  0  0  0  0  0  0  0999 V2000
   -2.1243    0.5464    0.0027 N   0  0  0  0  0  0  0  0  0  0  0  0
   -0.0001    2.4111    0.3583 N   0  0  0  0  0  0  0  0  0  0  0  0
   -0.0000    2.5739    1.3783 H   0  0  0  0  0  0  0  0  0  0  0  0
    2.1243    0.5466    0.0026 N   0  0  0  0  0  0  0  0  0  0  0  0
   -2.3783    1.9930    0.3253 C   0  0  0  0  0  0  0  0  0  0  0  0
   -3.3703    2.3052   -0.0610 H   0  0  0  0  0  0  0  0  0  0  0  0
   -2.4220    2.0872    1.4281 H   0  0  0  0  0  0  0  0  0  0  0  0
   -1.2769    2.8968   -0.2093 C   0  0  0  0  0  0  0  0  0  0  0  0
   -1.2025    2.8435   -1.3137 H   0  0  0  0  0  0  0  0  0  0  0  0
   -1.4756    3.9576    0.0600 H   0  0  0  0  0  0  0  0  0  0  0  0
    1.2766    2.8968   -0.2094 C   0  0  0  0  0  0  0  0  0  0  0  0
    1.4753    3.9577    0.0598 H   0  0  0  0  0  0  0  0  0  0  0  0
    1.2021    2.8435   -1.3138 H   0  0  0  0  0  0  0  0  0  0  0  0
    2.3782    1.9932    0.3251 C   0  0  0  0  0  0  0  0  0  0  0  0
    3.3701    2.3054   -0.0613 H   0  0  0  0  0  0  0  0  0  0  0  0
    2.4220    2.0875    1.4279 H   0  0  0  0  0  0  0  0  0  0  0  0
   -2.8832   -0.3340    0.9547 C   0  0  0  0  0  0  0  0  0  0  0  0
   -2.8438   -1.3538    0.5255 H   0  0  0  0  0  0  0  0  0  0  0  0
   -3.9455   -0.0062    0.9527 H   0  0  0  0  0  0  0  0  0  0  0  0
   -2.3337   -0.3557    2.3718 C   0  0  0  0  0  0  0  0  0  0  0  0
   -2.9456   -1.0476    2.9830 H   0  0  0  0  0  0  0  0  0  0  0  0
   -2.3698    0.6320    2.8745 H   0  0  0  0  0  0  0  0  0  0  0  0
   -1.2897   -0.7284    2.3833 H   0  0  0  0  0  0  0  0  0  0  0  0
   -2.5034    0.2346   -1.4262 C   0  0  0  0  0  0  0  0  0  0  0  0
   -2.1519   -0.7995   -1.6081 H   0  0  0  0  0  0  0  0  0  0  0  0
   -1.8849    0.8899   -2.0725 H   0  0  0  0  0  0  0  0  0  0  0  0
   -3.9812    0.3709   -1.7835 C   0  0  0  0  0  0  0  0  0  0  0  0
   -4.6201   -0.3392   -1.2244 H   0  0  0  0  0  0  0  0  0  0  0  0
   -4.0969    0.1314   -2.8587 H   0  0  0  0  0  0  0  0  0  0  0  0
   -4.3833    1.3938   -1.6393 H   0  0  0  0  0  0  0  0  0  0  0  0
    2.5034    0.2346   -1.4262 C   0  0  0  0  0  0  0  0  0  0  0  0
    1.8851    0.8899   -2.0726 H   0  0  0  0  0  0  0  0  0  0  0  0
    2.1519   -0.7995   -1.6081 H   0  0  0  0  0  0  0  0  0  0  0  0
    3.9813    0.3707   -1.7834 C   0  0  0  0  0  0  0  0  0  0  0  0
    4.3835    1.3934   -1.6391 H   0  0  0  0  0  0  0  0  0  0  0  0
    4.0971    0.1313   -2.8586 H   0  0  0  0  0  0  0  0  0  0  0  0
    4.6200   -0.3396   -1.2243 H   0  0  0  0  0  0  0  0  0  0  0  0
    2.8832   -0.3337    0.9548 C   0  0  0  0  0  0  0  0  0  0  0  0
    3.9455   -0.0060    0.9527 H   0  0  0  0  0  0  0  0  0  0  0  0
    2.8438   -1.3536    0.5257 H   0  0  0  0  0  0  0  0  0  0  0  0
    2.3337   -0.3552    2.3719 C   0  0  0  0  0  0  0  0  0  0  0  0
    2.9456   -1.0470    2.9832 H   0  0  0  0  0  0  0  0  0  0  0  0
    1.2897   -0.7278    2.3834 H   0  0  0  0  0  0  0  0  0  0  0  0
    2.3699    0.6326    2.8745 H   0  0  0  0  0  0  0  0  0  0  0  0
  1  5  1  0  0  0  0
  1 17  1  0  0  0  0
  2  3  1  0  0  0  0
  4 14  1  0  0  0  0
  4 38  1  0  0  0  0
  5  7  1  0  0  0  0
  6  5  1  0  0  0  0
  8 10  1  0  0  0  0
  8  5  1  0  0  0  0
  8  2  1  0  0  0  0
  9  8  1  0  0  0  0
 11 12  1  0  0  0  0
 11 14  1  0  0  0  0
 11  2  1  0  0  0  0
 13 11  1  0  0  0  0
 14 16  1  0  0  0  0
 15 14  1  0  0  0  0
 17 20  1  0  0  0  0
 18 17  1  0  0  0  0
 19 17  1  0  0  0  0
 20 23  1  0  0  0  0
 20 22  1  0  0  0  0
 20 21  1  0  0  0  0
 24  1  1  0  0  0  0
 25 24  1  0  0  0  0
 26 24  1  0  0  0  0
 27 30  1  0  0  0  0
 27 24  1  0  0  0  0
 27 28  1  0  0  0  0
 29 27  1  0  0  0  0
 31  4  1  0  0  0  0
 32 31  1  0  0  0  0
 33 31  1  0  0  0  0
 34 35  1  0  0  0  0
 34 31  1  0  0  0  0
 34 37  1  0  0  0  0
 36 34  1  0  0  0  0
 38 41  1  0  0  0  0
 39 38  1  0  0  0  0
 40 38  1  0  0  0  0
 41 43  1  0  0  0  0
 41 44  1  0  0  0  0
 41 42  1  0  0  0  0
M  END
