1,2,6
 OpenBabel05122313063D

 59 62  0  0  1  0  0  0  0  0999 V2000
    2.3750    0.0045    0.1712 N   0  0  0  0  0  2  0  0  0  0  0  0
    0.6023    1.7423    0.6072 N   0  0  0  0  0  2  0  0  0  0  0  0
    1.8533    2.2683    0.6318 C   0  0  2  0  0  3  0  0  0  0  0  0
   -0.5131    2.4856    0.8655 C   0  0  0  0  0  0  0  0  0  0  0  0
   -1.7147    1.6911    0.7315 C   0  0  2  0  0  3  0  0  0  0  0  0
   -1.4644    0.4372    0.3640 N   0  0  0  0  0  2  0  0  0  0  0  0
   -0.3793    3.8434    1.2040 C   0  0  0  0  0  0  0  0  0  0  0  0
   -1.2718    4.4490    1.4118 H   0  0  0  0  0  0  0  0  0  0  0  0
    3.3071   -0.9906   -0.0417 C   0  0  0  0  0  0  0  0  0  0  0  0
    2.8595    1.2691    0.3151 C   0  0  0  0  0  0  0  0  0  0  0  0
   -2.5473   -0.4700    0.1779 C   0  0  0  0  0  0  0  0  0  0  0  0
    4.2426    1.5624    0.1637 C   0  0  0  0  0  0  0  0  0  0  0  0
    4.5864    2.6071    0.2612 H   0  0  0  0  0  0  0  0  0  0  0  0
    4.7051   -0.6415   -0.2014 C   0  0  0  0  0  0  0  0  0  0  0  0
    2.0335    3.6191    0.9689 C   0  0  0  0  0  0  0  0  0  0  0  0
    3.0429    4.0497    1.0054 H   0  0  0  0  0  0  0  0  0  0  0  0
   -3.3446   -0.3975   -0.9931 C   0  0  0  0  0  0  0  0  0  0  0  0
    0.9047    4.4058    1.2585 C   0  0  0  0  0  0  0  0  0  0  0  0
    1.0299    5.4649    1.5248 H   0  0  0  0  0  0  0  0  0  0  0  0
    5.1497    0.6482   -0.1122 N   0  0  0  0  0  0  0  0  0  0  0  0
   -4.4473   -1.2680   -1.0770 C   0  0  0  0  0  0  0  0  0  0  0  0
   -5.0856   -1.2348   -1.9730 H   0  0  0  0  0  0  0  0  0  0  0  0
   -2.9810    0.5022   -2.1659 C   0  0  0  0  0  0  0  0  0  0  0  0
   -2.1363    1.1535   -1.8619 H   0  0  0  0  0  0  0  0  0  0  0  0
    2.9393   -2.3614   -0.0538 C   0  0  0  0  0  0  0  0  0  0  0  0
    1.8793   -2.6141    0.0811 H   0  0  0  0  0  0  0  0  0  0  0  0
   -4.7340   -2.1829   -0.0568 C   0  0  0  0  0  0  0  0  0  0  0  0
   -5.6056   -2.8492   -0.1449 H   0  0  0  0  0  0  0  0  0  0  0  0
   -3.8952   -2.2722    1.0630 C   0  0  0  0  0  0  0  0  0  0  0  0
   -4.1061   -3.0174    1.8443 H   0  0  0  0  0  0  0  0  0  0  0  0
   -2.7766   -1.4340    1.1950 C   0  0  0  0  0  0  0  0  0  0  0  0
    3.9012   -3.3400   -0.2665 C   0  0  0  0  0  0  0  0  0  0  0  0
    3.5965   -4.3975   -0.2760 H   0  0  0  0  0  0  0  0  0  0  0  0
   -1.8389   -1.5327    2.3895 C   0  0  0  0  0  0  0  0  0  0  0  0
   -0.8928   -1.0407    2.0807 H   0  0  0  0  0  0  0  0  0  0  0  0
    5.2633   -2.9998   -0.4704 C   0  0  0  0  0  0  0  0  0  0  0  0
    6.0066   -3.7920   -0.6459 H   0  0  0  0  0  0  0  0  0  0  0  0
   -3.0815    2.2493    0.9738 C   0  0  0  0  0  0  0  0  0  0  0  0
   -3.7961    1.4474    1.2349 H   0  0  0  0  0  0  0  0  0  0  0  0
   -3.4667    2.7479    0.0588 H   0  0  0  0  0  0  0  0  0  0  0  0
   -3.0638    3.0017    1.7858 H   0  0  0  0  0  0  0  0  0  0  0  0
    5.6576   -1.6702   -0.4335 C   0  0  0  0  0  3  0  0  0  0  0  0
    6.7043   -1.3607   -0.5635 H   0  0  0  0  0  0  0  0  0  0  0  0
   -1.4892   -2.9847    2.7386 C   0  0  0  0  0  0  0  0  0  0  0  0
   -1.0821   -3.5016    1.8475 H   0  0  0  0  0  0  0  0  0  0  0  0
   -2.3681   -3.5535    3.1068 H   0  0  0  0  0  0  0  0  0  0  0  0
   -0.7222   -3.0131    3.5393 H   0  0  0  0  0  0  0  0  0  0  0  0
   -4.1495    1.3928   -2.6161 C   0  0  0  0  0  0  0  0  0  0  0  0
   -4.5551    2.0058   -1.7847 H   0  0  0  0  0  0  0  0  0  0  0  0
   -4.9905    0.7940   -3.0238 H   0  0  0  0  0  0  0  0  0  0  0  0
   -3.8191    2.0819   -3.4195 H   0  0  0  0  0  0  0  0  0  0  0  0
   -2.3986   -0.7654    3.5999 C   0  0  0  0  0  0  0  0  0  0  0  0
   -2.5866    0.3003    3.3562 H   0  0  0  0  0  0  0  0  0  0  0  0
   -1.6896   -0.7985    4.4529 H   0  0  0  0  0  0  0  0  0  0  0  0
   -3.3602   -1.2048    3.9384 H   0  0  0  0  0  0  0  0  0  0  0  0
   -2.4447   -0.3534   -3.3292 C   0  0  0  0  0  0  0  0  0  0  0  0
   -2.0947    0.3012   -4.1524 H   0  0  0  0  0  0  0  0  0  0  0  0
   -3.2323   -1.0287   -3.7254 H   0  0  0  0  0  0  0  0  0  0  0  0
   -1.5838   -0.9625   -2.9945 H   0  0  0  0  0  0  0  0  0  0  0  0
  1 10  1  0  0  0  0
  2  3  1  0  0  0  0
  2  4  1  0  0  0  0
  3 10  1  1  0  0  0
  3 15  1  0  0  0  0
  4  7  2  0  0  0  0
  5  6  1  6  0  0  0
  5  4  1  0  0  0  0
  5 38  1  0  0  0  0
  7 18  1  0  0  0  0
  7  8  1  0  0  0  0
  9  1  1  0  0  0  0
 11  6  1  0  0  0  0
 11 31  1  0  0  0  0
 12 13  1  0  0  0  0
 12 10  2  0  0  0  0
 14 20  2  0  0  0  0
 14  9  1  0  0  0  0
 15 16  1  0  0  0  0
 15 18  2  0  0  0  0
 17 11  2  0  0  0  0
 18 19  1  0  0  0  0
 20 12  1  0  0  0  0
 21 17  1  0  0  0  0
 21 27  2  0  0  0  0
 22 21  1  0  0  0  0
 23 24  1  0  0  0  0
 23 17  1  0  0  0  0
 25  9  2  0  0  0  0
 25 26  1  0  0  0  0
 27 29  1  0  0  0  0
 28 27  1  0  0  0  0
 29 31  2  0  0  0  0
 29 30  1  0  0  0  0
 31 34  1  0  0  0  0
 32 25  1  0  0  0  0
 33 32  1  0  0  0  0
 34 44  1  0  0  0  0
 34 52  1  0  0  0  0
 35 34  1  0  0  0  0
 36 42  1  0  0  0  0
 36 32  2  0  0  0  0
 37 36  1  0  0  0  0
 38 39  1  0  0  0  0
 38 41  1  0  0  0  0
 40 38  1  0  0  0  0
 42 14  1  0  0  0  0
 43 42  1  0  0  0  0
 44 46  1  0  0  0  0
 44 47  1  0  0  0  0
 45 44  1  0  0  0  0
 48 23  1  0  0  0  0
 48 49  1  0  0  0  0
 50 48  1  0  0  0  0
 51 48  1  0  0  0  0
 52 55  1  0  0  0  0
 52 54  1  0  0  0  0
 53 52  1  0  0  0  0
 56 59  1  0  0  0  0
 56 23  1  0  0  0  0
 57 56  1  0  0  0  0
 58 56  1  0  0  0  0
M  END
