1,2,3
 OpenBabel05122313063D

 63 66  0  0  0  0  0  0  0  0999 V2000
    0.9965   -2.2887   -0.3798 N   0  0  0  0  0  0  0  0  0  0  0  0
   -1.3035   -2.1656    1.4461 N   0  0  0  0  0  0  0  0  0  0  0  0
   -1.7602   -1.7725   -1.3623 N   0  0  0  0  0  0  0  0  0  0  0  0
    0.7357   -3.3719    0.5833 C   0  0  0  0  0  0  0  0  0  0  0  0
    1.6846   -3.8260    0.9397 H   0  0  0  0  0  0  0  0  0  0  0  0
    0.2019   -4.1989    0.0759 H   0  0  0  0  0  0  0  0  0  0  0  0
   -0.0612   -2.8896    1.8032 C   0  0  0  0  0  0  0  0  0  0  0  0
   -0.2875   -3.7624    2.4597 H   0  0  0  0  0  0  0  0  0  0  0  0
    0.5527   -2.1832    2.3970 H   0  0  0  0  0  0  0  0  0  0  0  0
   -2.3036   -3.0108    0.7388 C   0  0  0  0  0  0  0  0  0  0  0  0
   -3.1544   -3.2559    1.4068 H   0  0  0  0  0  0  0  0  0  0  0  0
   -1.8309   -3.9776    0.4810 H   0  0  0  0  0  0  0  0  0  0  0  0
   -2.8511   -2.3188   -0.5106 C   0  0  0  0  0  0  0  0  0  0  0  0
   -3.4851   -3.0282   -1.0920 H   0  0  0  0  0  0  0  0  0  0  0  0
   -3.4898   -1.4663   -0.2107 H   0  0  0  0  0  0  0  0  0  0  0  0
   -0.8795   -2.8566   -1.9187 C   0  0  0  0  0  0  0  0  0  0  0  0
   -1.1129   -3.0051   -2.9934 H   0  0  0  0  0  0  0  0  0  0  0  0
   -1.1426   -3.8101   -1.4240 H   0  0  0  0  0  0  0  0  0  0  0  0
    0.6170   -2.5839   -1.7720 C   0  0  0  0  0  0  0  0  0  0  0  0
    1.1716   -3.4561   -2.1932 H   0  0  0  0  0  0  0  0  0  0  0  0
    0.8979   -1.6976   -2.3768 H   0  0  0  0  0  0  0  0  0  0  0  0
    2.3434   -1.6724   -0.2354 C   0  0  0  0  0  0  0  0  0  0  0  0
    2.4177   -1.2856    0.8017 H   0  0  0  0  0  0  0  0  0  0  0  0
    2.3637   -0.7950   -0.9116 H   0  0  0  0  0  0  0  0  0  0  0  0
    3.5075   -2.5935   -0.5274 C   0  0  0  0  0  0  0  0  0  0  0  0
    4.1784   -3.2551    0.5224 C   0  0  0  0  0  0  0  0  0  0  0  0
    3.8938   -3.0459    1.5667 H   0  0  0  0  0  0  0  0  0  0  0  0
    5.2253   -4.1508    0.2553 C   0  0  0  0  0  0  0  0  0  0  0  0
    5.7428   -4.6532    1.0862 H   0  0  0  0  0  0  0  0  0  0  0  0
    5.6198   -4.3928   -1.0693 C   0  0  0  0  0  0  0  0  0  0  0  0
    6.4433   -5.0909   -1.2811 H   0  0  0  0  0  0  0  0  0  0  0  0
    4.9737   -3.7260   -2.1230 C   0  0  0  0  0  0  0  0  0  0  0  0
    5.2959   -3.8950   -3.1614 H   0  0  0  0  0  0  0  0  0  0  0  0
    3.9281   -2.8314   -1.8532 C   0  0  0  0  0  0  0  0  0  0  0  0
    3.4476   -2.2916   -2.6845 H   0  0  0  0  0  0  0  0  0  0  0  0
   -1.8618   -1.4698    2.6463 C   0  0  0  0  0  0  0  0  0  0  0  0
   -2.0601   -2.2322    3.4346 H   0  0  0  0  0  0  0  0  0  0  0  0
   -1.0629   -0.7974    3.0157 H   0  0  0  0  0  0  0  0  0  0  0  0
   -3.1201   -0.6873    2.3628 C   0  0  0  0  0  0  0  0  0  0  0  0
   -4.3845   -1.2183    2.6863 C   0  0  0  0  0  0  0  0  0  0  0  0
   -4.4527   -2.1950    3.1925 H   0  0  0  0  0  0  0  0  0  0  0  0
   -5.5581   -0.5064    2.3919 C   0  0  0  0  0  0  0  0  0  0  0  0
   -6.5380   -0.9325    2.6542 H   0  0  0  0  0  0  0  0  0  0  0  0
   -5.4767    0.7531    1.7794 C   0  0  0  0  0  0  0  0  0  0  0  0
   -6.3938    1.3165    1.5514 H   0  0  0  0  0  0  0  0  0  0  0  0
   -4.2210    1.3005    1.4713 C   0  0  0  0  0  0  0  0  0  0  0  0
   -4.1518    2.2925    1.0042 H   0  0  0  0  0  0  0  0  0  0  0  0
   -3.0508    0.5854    1.7573 C   0  0  0  0  0  0  0  0  0  0  0  0
   -2.0683    1.0254    1.5300 H   0  0  0  0  0  0  0  0  0  0  0  0
   -2.2785   -0.9388   -2.5029 C   0  0  0  0  0  0  0  0  0  0  0  0
   -1.3840   -0.5785   -3.0464 H   0  0  0  0  0  0  0  0  0  0  0  0
   -2.8311   -1.6268   -3.1835 H   0  0  0  0  0  0  0  0  0  0  0  0
   -3.1696    0.2307   -2.1578 C   0  0  0  0  0  0  0  0  0  0  0  0
   -4.5656    0.0593   -2.0405 C   0  0  0  0  0  0  0  0  0  0  0  0
   -5.0067   -0.9439   -2.1535 H   0  0  0  0  0  0  0  0  0  0  0  0
   -5.4067    1.1587   -1.8198 C   0  0  0  0  0  0  0  0  0  0  0  0
   -6.4935    1.0080   -1.7395 H   0  0  0  0  0  0  0  0  0  0  0  0
   -4.8646    2.4504   -1.7271 C   0  0  0  0  0  0  0  0  0  0  0  0
   -5.5262    3.3162   -1.5737 H   0  0  0  0  0  0  0  0  0  0  0  0
   -3.4783    2.6342   -1.8492 C   0  0  0  0  0  0  0  0  0  0  0  0
   -3.0467    3.6454   -1.8002 H   0  0  0  0  0  0  0  0  0  0  0  0
   -2.6366    1.5330   -2.0637 C   0  0  0  0  0  0  0  0  0  0  0  0
   -1.5564    1.6852   -2.1992 H   0  0  0  0  0  0  0  0  0  0  0  0
  1 22  1  0  0  0  0
  1  4  1  0  0  0  0
  2  7  1  0  0  0  0
  2 36  1  0  0  0  0
  3 13  1  0  0  0  0
  4  5  1  0  0  0  0
  4  7  1  0  0  0  0
  6  4  1  0  0  0  0
  7  9  1  0  0  0  0
  7  8  1  0  0  0  0
 10 11  1  0  0  0  0
 10  2  1  0  0  0  0
 12 10  1  0  0  0  0
 13 15  1  0  0  0  0
 13 10  1  0  0  0  0
 14 13  1  0  0  0  0
 16 19  1  0  0  0  0
 16 18  1  0  0  0  0
 16  3  1  0  0  0  0
 17 16  1  0  0  0  0
 19  1  1  0  0  0  0
 20 19  1  0  0  0  0
 21 19  1  0  0  0  0
 22 23  1  0  0  0  0
 24 22  1  0  0  0  0
 25 22  1  0  0  0  0
 25 26  1  0  0  0  0
 26 27  1  0  0  0  0
 28 26  2  0  0  0  0
 28 29  1  0  0  0  0
 30 28  1  0  0  0  0
 31 30  1  0  0  0  0
 32 34  1  0  0  0  0
 32 30  2  0  0  0  0
 33 32  1  0  0  0  0
 34 25  2  0  0  0  0
 35 34  1  0  0  0  0
 36 38  1  0  0  0  0
 36 37  1  0  0  0  0
 39 36  1  0  0  0  0
 39 40  1  0  0  0  0
 40 41  1  0  0  0  0
 42 43  1  0  0  0  0
 42 40  2  0  0  0  0
 44 42  1  0  0  0  0
 45 44  1  0  0  0  0
 46 48  1  0  0  0  0
 46 44  2  0  0  0  0
 47 46  1  0  0  0  0
 48 39  2  0  0  0  0
 49 48  1  0  0  0  0
 50 53  1  0  0  0  0
 50  3  1  0  0  0  0
 51 50  1  0  0  0  0
 52 50  1  0  0  0  0
 53 62  2  0  0  0  0
 53 54  1  0  0  0  0
 54 56  2  0  0  0  0
 55 54  1  0  0  0  0
 56 57  1  0  0  0  0
 56 58  1  0  0  0  0
 58 59  1  0  0  0  0
 60 61  1  0  0  0  0
 60 58  2  0  0  0  0
 62 60  1  0  0  0  0
 63 62  1  0  0  0  0
M  END
