2,4,6
 OpenBabel05122313063D

 50 52  0  0  1  0  0  0  0  0999 V2000
   -6.0830    2.1175   -0.2491 Br  0  0  0  0  0  0  0  0  0  0  0  0
   -1.0120   -1.2796    0.2461 N   0  0  0  0  0  2  0  0  0  0  0  0
   -1.0606   -2.6073    0.1535 C   0  0  0  0  0  0  0  0  0  0  0  0
    1.2277   -2.2466   -0.1344 N   0  0  0  0  0  2  0  0  0  0  0  0
    0.2423   -3.2088   -0.0531 C   0  0  0  0  0  0  0  0  0  0  0  0
    2.7163   -0.3020   -0.0928 N   0  0  0  0  0  2  0  0  0  0  0  0
    0.5704   -4.5639   -0.2298 C   0  0  0  0  0  0  0  0  0  0  0  0
   -0.2198   -5.3247   -0.1665 H   0  0  0  0  0  0  0  0  0  0  0  0
    5.4480    5.9620   -0.0485 N   0  0  0  0  0  0  0  0  0  0  0  0
    1.9037   -4.9256   -0.4856 C   0  0  0  0  0  0  0  0  0  0  0  0
    2.1692   -5.9823   -0.6303 H   0  0  0  0  0  0  0  0  0  0  0  0
    2.8991   -3.9360   -0.5453 C   0  0  0  0  0  0  0  0  0  0  0  0
    3.9493   -4.2010   -0.7301 H   0  0  0  0  0  0  0  0  0  0  0  0
    2.5468   -2.5891   -0.3529 C   0  0  0  0  0  0  0  0  0  0  0  0
    3.3986   -1.4143   -0.3417 C   0  0  2  0  0  3  0  0  0  0  0  0
   -2.3101   -3.4300    0.2006 C   0  0  0  0  0  0  0  0  0  0  0  0
   -3.1952   -2.8003    0.4023 H   0  0  0  0  0  0  0  0  0  0  0  0
   -2.2311   -4.1969    0.9988 H   0  0  0  0  0  0  0  0  0  0  0  0
   -2.4736   -3.9724   -0.7544 H   0  0  0  0  0  0  0  0  0  0  0  0
    4.8751   -1.4913   -0.5770 C   0  0  0  0  0  0  0  0  0  0  0  0
    5.3795   -0.5532   -0.2833 H   0  0  0  0  0  0  0  0  0  0  0  0
    5.1032   -1.6833   -1.6470 H   0  0  0  0  0  0  0  0  0  0  0  0
    5.3142   -2.3264    0.0050 H   0  0  0  0  0  0  0  0  0  0  0  0
   -2.2164   -0.5133    0.1624 C   0  0  0  0  0  0  0  0  0  0  0  0
   -2.8332   -0.3769   -1.1109 C   0  0  0  0  0  0  0  0  0  0  0  0
   -3.9873    0.4188   -1.2170 C   0  0  0  0  0  0  0  0  0  0  0  0
   -4.4713    0.5470   -2.1956 H   0  0  0  0  0  0  0  0  0  0  0  0
   -4.5153    1.0481   -0.0835 C   0  0  0  0  0  0  0  0  0  0  0  0
   -3.9110    0.8999    1.1702 C   0  0  0  0  0  0  0  0  0  0  0  0
   -4.3446    1.3908    2.0531 H   0  0  0  0  0  0  0  0  0  0  0  0
   -2.7467    0.1222    1.3123 C   0  0  0  0  0  0  0  0  0  0  0  0
   -2.2791   -1.0659   -2.3315 C   0  0  0  0  0  0  0  0  0  0  0  0
   -2.6990   -0.6235   -3.2543 H   0  0  0  0  0  0  0  0  0  0  0  0
   -2.5291   -2.1482   -2.3414 H   0  0  0  0  0  0  0  0  0  0  0  0
   -1.1773   -0.9669   -2.3680 H   0  0  0  0  0  0  0  0  0  0  0  0
   -2.1041   -0.0258    2.6631 C   0  0  0  0  0  0  0  0  0  0  0  0
   -1.1492    0.5354    2.7163 H   0  0  0  0  0  0  0  0  0  0  0  0
   -1.8274   -1.0767    2.8786 H   0  0  0  0  0  0  0  0  0  0  0  0
   -2.7749    0.3405    3.4628 H   0  0  0  0  0  0  0  0  0  0  0  0
    3.3162    0.9804   -0.0894 C   0  0  0  0  0  0  0  0  0  0  0  0
    3.3287    1.7277    1.1063 C   0  0  0  0  0  0  0  0  0  0  0  0
    2.8920    1.2775    2.0098 H   0  0  0  0  0  0  0  0  0  0  0  0
    3.8797    3.0100    1.1169 C   0  0  0  0  0  0  0  0  0  0  0  0
    3.9030    3.5939    2.0479 H   0  0  0  0  0  0  0  0  0  0  0  0
    4.4084    3.5706   -0.0711 C   0  0  0  0  0  0  0  0  0  0  0  0
    4.3678    2.8247   -1.2725 C   0  0  0  0  0  0  0  0  0  0  0  0
    4.7588    3.2677   -2.1994 H   0  0  0  0  0  0  0  0  0  0  0  0
    3.8229    1.5392   -1.2806 C   0  0  0  0  0  0  0  0  0  0  0  0
    3.7562    0.9651   -2.2151 H   0  0  0  0  0  0  0  0  0  0  0  0
    4.9770    4.8860   -0.0591 C   0  0  0  0  0  0  0  0  0  0  0  0
  1 28  1  0  0  0  0
  3 16  1  0  0  0  0
  3  2  1  0  0  0  0
  4  5  1  0  0  0  0
  5  3  2  0  0  0  0
  6 40  1  0  0  0  0
  7  8  1  0  0  0  0
  7  5  1  0  0  0  0
 10  7  2  0  0  0  0
 11 10  1  0  0  0  0
 12 10  1  0  0  0  0
 12 14  2  0  0  0  0
 13 12  1  0  0  0  0
 14 15  1  0  0  0  0
 14  4  1  0  0  0  0
 15  6  1  1  0  0  0
 16 17  1  0  0  0  0
 16 18  1  0  0  0  0
 19 16  1  0  0  0  0
 20 15  1  0  0  0  0
 20 21  1  0  0  0  0
 20 23  1  0  0  0  0
 22 20  1  0  0  0  0
 24  2  1  0  0  0  0
 24 31  1  0  0  0  0
 25 24  2  0  0  0  0
 26 25  1  0  0  0  0
 26 28  2  0  0  0  0
 27 26  1  0  0  0  0
 28 29  1  0  0  0  0
 29 31  2  0  0  0  0
 29 30  1  0  0  0  0
 31 36  1  0  0  0  0
 32 25  1  0  0  0  0
 33 32  1  0  0  0  0
 34 32  1  0  0  0  0
 35 32  1  0  0  0  0
 36 37  1  0  0  0  0
 36 38  1  0  0  0  0
 36 39  1  0  0  0  0
 40 41  1  0  0  0  0
 41 43  2  0  0  0  0
 41 42  1  0  0  0  0
 43 44  1  0  0  0  0
 45 50  1  0  0  0  0
 45 43  1  0  0  0  0
 46 45  2  0  0  0  0
 47 46  1  0  0  0  0
 48 46  1  0  0  0  0
 48 40  2  0  0  0  0
 49 48  1  0  0  0  0
 50  9  3  0  0  0  0
M  END
