1,2,3
 OpenBabel05122313063D

 52 54  0  0  1  0  0  0  0  0999 V2000
   -1.4392    0.7163    0.2056 N   0  0  0  0  0  2  0  0  0  0  0  0
    0.7659    1.7915   -0.0858 N   0  0  0  0  0  2  0  0  0  0  0  0
    2.3373   -0.0902   -0.0626 N   0  0  0  0  0  2  0  0  0  0  0  0
   -1.5419    2.0430    0.1536 C   0  0  0  0  0  0  0  0  0  0  0  0
   -0.2627    2.7069   -0.0007 C   0  0  0  0  0  0  0  0  0  0  0  0
    0.0098    4.0803   -0.1264 C   0  0  0  0  0  0  0  0  0  0  0  0
   -0.8146    4.8036   -0.0604 H   0  0  0  0  0  0  0  0  0  0  0  0
    1.3320    4.5067   -0.3352 C   0  0  0  0  0  0  0  0  0  0  0  0
    1.5547    5.5780   -0.4403 H   0  0  0  0  0  0  0  0  0  0  0  0
    2.3714    3.5630   -0.3983 C   0  0  0  0  0  0  0  0  0  0  0  0
    3.4133    3.8786   -0.5468 H   0  0  0  0  0  0  0  0  0  0  0  0
    2.0742    2.1966   -0.2568 C   0  0  0  0  0  0  0  0  0  0  0  0
    2.9751    1.0588   -0.2571 C   0  0  1  0  0  3  0  0  0  0  0  0
   -2.8267    2.8105    0.1959 C   0  0  0  0  0  0  0  0  0  0  0  0
   -3.6869    2.1360    0.3563 H   0  0  0  0  0  0  0  0  0  0  0  0
   -2.9923    3.3752   -0.7459 H   0  0  0  0  0  0  0  0  0  0  0  0
   -2.7990    3.5545    1.0190 H   0  0  0  0  0  0  0  0  0  0  0  0
    4.4535    1.2108   -0.4432 C   0  0  0  0  0  0  0  0  0  0  0  0
    4.9907    0.2942   -0.1395 H   0  0  0  0  0  0  0  0  0  0  0  0
    4.8305    2.0617    0.1592 H   0  0  0  0  0  0  0  0  0  0  0  0
    4.7091    1.4210   -1.5035 H   0  0  0  0  0  0  0  0  0  0  0  0
   -2.6098   -0.0949    0.0684 C   0  0  0  0  0  0  0  0  0  0  0  0
   -3.1428   -0.7886    1.1819 C   0  0  0  0  0  0  0  0  0  0  0  0
   -4.2726   -1.6009    0.9772 C   0  0  0  0  0  0  0  0  0  0  0  0
   -4.6982   -2.1301    1.8455 H   0  0  0  0  0  0  0  0  0  0  0  0
   -4.8710   -1.7569   -0.2850 C   0  0  0  0  0  0  0  0  0  0  0  0
   -4.3178   -1.0476   -1.3656 C   0  0  0  0  0  0  0  0  0  0  0  0
   -4.7697   -1.1479   -2.3659 H   0  0  0  0  0  0  0  0  0  0  0  0
   -3.1988   -0.2109   -1.2194 C   0  0  0  0  0  0  0  0  0  0  0  0
   -2.5395   -0.6585    2.5530 C   0  0  0  0  0  0  0  0  0  0  0  0
   -3.2114   -1.0852    3.3220 H   0  0  0  0  0  0  0  0  0  0  0  0
   -2.3190    0.3956    2.8142 H   0  0  0  0  0  0  0  0  0  0  0  0
   -1.5593   -1.1735    2.6134 H   0  0  0  0  0  0  0  0  0  0  0  0
   -6.0484   -2.6785   -0.4807 C   0  0  0  0  0  0  0  0  0  0  0  0
   -6.7126   -2.3274   -1.2953 H   0  0  0  0  0  0  0  0  0  0  0  0
   -6.6528   -2.7724    0.4432 H   0  0  0  0  0  0  0  0  0  0  0  0
   -5.7108   -3.7015   -0.7549 H   0  0  0  0  0  0  0  0  0  0  0  0
   -2.6498    0.5415   -2.4046 C   0  0  0  0  0  0  0  0  0  0  0  0
   -1.5448    0.4785   -2.4295 H   0  0  0  0  0  0  0  0  0  0  0  0
   -2.9324    1.6159   -2.3807 H   0  0  0  0  0  0  0  0  0  0  0  0
   -3.0430    0.1207   -3.3495 H   0  0  0  0  0  0  0  0  0  0  0  0
    3.0031   -1.3437   -0.0876 C   0  0  0  0  0  0  0  0  0  0  0  0
    2.9835   -2.1514    1.0669 C   0  0  0  0  0  0  0  0  0  0  0  0
    2.4721   -1.7709    1.9633 H   0  0  0  0  0  0  0  0  0  0  0  0
    3.6058   -3.4060    1.0405 C   0  0  0  0  0  0  0  0  0  0  0  0
    3.5988   -4.0319    1.9457 H   0  0  0  0  0  0  0  0  0  0  0  0
    4.2280   -3.8696   -0.1310 C   0  0  0  0  0  0  0  0  0  0  0  0
    4.7074   -4.8599   -0.1475 H   0  0  0  0  0  0  0  0  0  0  0  0
    4.2235   -3.0706   -1.2855 C   0  0  0  0  0  0  0  0  0  0  0  0
    4.6900   -3.4363   -2.2128 H   0  0  0  0  0  0  0  0  0  0  0  0
    3.6120   -1.8099   -1.2696 C   0  0  0  0  0  0  0  0  0  0  0  0
    3.5695   -1.1897   -2.1763 H   0  0  0  0  0  0  0  0  0  0  0  0
  2  5  1  0  0  0  0
  4 14  1  0  0  0  0
  4  1  1  0  0  0  0
  5  4  2  0  0  0  0
  6  7  1  0  0  0  0
  6  5  1  0  0  0  0
  8  6  2  0  0  0  0
  9  8  1  0  0  0  0
 10  8  1  0  0  0  0
 10 12  2  0  0  0  0
 11 10  1  0  0  0  0
 12  2  1  0  0  0  0
 13 12  1  0  0  0  0
 13  3  1  1  0  0  0
 14 15  1  0  0  0  0
 14 17  1  0  0  0  0
 16 14  1  0  0  0  0
 18 13  1  0  0  0  0
 18 19  1  0  0  0  0
 18 20  1  0  0  0  0
 21 18  1  0  0  0  0
 22  1  1  0  0  0  0
 22 23  1  0  0  0  0
 23 30  1  0  0  0  0
 24 23  2  0  0  0  0
 24 25  1  0  0  0  0
 26 24  1  0  0  0  0
 27 29  1  0  0  0  0
 27 26  2  0  0  0  0
 28 27  1  0  0  0  0
 29 22  2  0  0  0  0
 30 33  1  0  0  0  0
 30 32  1  0  0  0  0
 30 31  1  0  0  0  0
 34 26  1  0  0  0  0
 34 36  1  0  0  0  0
 35 34  1  0  0  0  0
 37 34  1  0  0  0  0
 38 40  1  0  0  0  0
 38 29  1  0  0  0  0
 39 38  1  0  0  0  0
 41 38  1  0  0  0  0
 42  3  1  0  0  0  0
 42 43  1  0  0  0  0
 43 44  1  0  0  0  0
 45 43  2  0  0  0  0
 45 46  1  0  0  0  0
 47 45  1  0  0  0  0
 48 47  1  0  0  0  0
 49 51  1  0  0  0  0
 49 47  2  0  0  0  0
 50 49  1  0  0  0  0
 51 42  2  0  0  0  0
 52 51  1  0  0  0  0
M  END
