1,2,3
 OpenBabel05122313063D

 39 44  0  0  0  0  0  0  0  0999 V2000
    1.4684   -2.0698   -0.8064 N   0  0  0  0  0  0  0  0  0  0  0  0
    0.2185    0.3615   -0.2115 N   0  0  0  0  0  2  0  0  0  0  0  0
   -2.4627   -0.4386   -0.2248 N   0  0  0  0  0  0  0  0  0  0  0  0
    2.5732    2.3824    0.8860 N   0  0  0  0  0  0  0  0  0  0  0  0
    0.2222    3.6442   -0.3724 N   0  0  0  0  0  0  0  0  0  0  0  0
    2.1852   -3.1750   -1.0869 C   0  0  0  0  0  0  0  0  0  0  0  0
    1.6113   -4.0719   -1.3751 H   0  0  0  0  0  0  0  0  0  0  0  0
    3.5903   -3.2099   -1.0254 C   0  0  0  0  0  0  0  0  0  0  0  0
    4.1180   -4.1399   -1.2805 H   0  0  0  0  0  0  0  0  0  0  0  0
    4.3070   -2.0607   -0.6287 C   0  0  0  0  0  0  0  0  0  0  0  0
    5.4060   -2.0826   -0.5644 H   0  0  0  0  0  0  0  0  0  0  0  0
    3.5772   -0.9095   -0.3139 C   0  0  0  0  0  0  0  0  0  0  0  0
    3.8859    0.4305    0.1729 C   0  0  0  0  0  0  0  0  0  0  0  0
    5.0825    1.0557    0.5438 C   0  0  0  0  0  0  0  0  0  0  0  0
    6.0517    0.5429    0.4396 H   0  0  0  0  0  0  0  0  0  0  0  0
    5.0025    2.3537    1.0714 C   0  0  0  0  0  0  0  0  0  0  0  0
    5.9089    2.8952    1.3801 H   0  0  0  0  0  0  0  0  0  0  0  0
    3.7333    2.9520    1.2368 C   0  0  0  0  0  0  0  0  0  0  0  0
    3.6616    3.9559    1.6945 H   0  0  0  0  0  0  0  0  0  0  0  0
    2.6472    1.1645    0.3294 C   0  0  0  0  0  0  0  0  0  0  0  0
    1.5431    0.3011   -0.1049 C   0  0  0  0  0  0  0  0  0  0  0  0
    2.1534   -0.9736   -0.4338 C   0  0  0  0  0  3  0  0  0  0  0  0
   -3.7826   -0.7032   -0.2194 C   0  0  0  0  0  0  0  0  0  0  0  0
   -4.0628   -1.7666   -0.2756 H   0  0  0  0  0  0  0  0  0  0  0  0
   -4.7566    0.3106   -0.1419 C   0  0  0  0  0  0  0  0  0  0  0  0
   -5.8205    0.0337   -0.1331 H   0  0  0  0  0  0  0  0  0  0  0  0
   -4.3674    1.6652   -0.0900 C   0  0  0  0  0  0  0  0  0  0  0  0
   -5.1241    2.4637   -0.0434 H   0  0  0  0  0  0  0  0  0  0  0  0
   -2.9976    1.9528   -0.1133 C   0  0  0  0  0  0  0  0  0  0  0  0
   -2.1757    3.1602   -0.1387 C   0  0  0  0  0  0  0  0  0  0  0  0
   -2.4897    4.5237   -0.1729 C   0  0  0  0  0  0  0  0  0  0  0  0
   -3.5336    4.8715   -0.1229 H   0  0  0  0  0  0  0  0  0  0  0  0
   -1.4275    5.4340   -0.2935 C   0  0  0  0  0  0  0  0  0  0  0  0
   -1.6136    6.5178   -0.3261 H   0  0  0  0  0  0  0  0  0  0  0  0
   -0.1089    4.9420   -0.4081 C   0  0  0  0  0  0  0  0  0  0  0  0
    0.7267    5.6521   -0.5479 H   0  0  0  0  0  0  0  0  0  0  0  0
   -0.7824    2.7735   -0.2035 C   0  0  0  0  0  0  0  0  0  0  0  0
   -0.7113    1.3065   -0.1719 C   0  0  0  0  0  0  0  0  0  0  0  0
   -2.0933    0.8508   -0.1723 C   0  0  0  0  0  3  0  0  0  0  0  0
  1 22  1  0  0  0  0
  2 38  1  0  0  0  0
  2 21  1  0  0  0  0
  3 23  2  0  0  0  0
  3 39  1  0  0  0  0
  4 18  2  0  0  0  0
  5 37  1  0  0  0  0
  6  8  1  0  0  0  0
  6  1  2  0  0  0  0
  7  6  1  0  0  0  0
  8 10  2  0  0  0  0
  9  8  1  0  0  0  0
 10 11  1  0  0  0  0
 10 12  1  0  0  0  0
 12 13  2  0  0  0  0
 13 20  1  0  0  0  0
 13 14  1  0  0  0  0
 14 16  2  0  0  0  0
 15 14  1  0  0  0  0
 16 18  1  0  0  0  0
 16 17  1  0  0  0  0
 18 19  1  0  0  0  0
 20  4  1  0  0  0  0
 21 20  2  0  0  0  0
 22 12  1  0  0  0  0
 22 21  1  0  0  0  0
 23 25  1  0  0  0  0
 24 23  1  0  0  0  0
 25 26  1  0  0  0  0
 25 27  2  0  0  0  0
 27 28  1  0  0  0  0
 29 27  1  0  0  0  0
 30 29  2  0  0  0  0
 31 30  1  0  0  0  0
 31 32  1  0  0  0  0
 33 31  2  0  0  0  0
 34 33  1  0  0  0  0
 35  5  2  0  0  0  0
 35 33  1  0  0  0  0
 36 35  1  0  0  0  0
 37 38  2  0  0  0  0
 37 30  1  0  0  0  0
 39 38  1  0  0  0  0
 39 29  1  0  0  0  0
M  END
