2,3,4
 OpenBabel05122313063D

 59 62  0  0  1  0  0  0  0  0999 V2000
   -0.7137   -2.6612   -0.7605 O   0  0  0  0  0  0  0  0  0  0  0  0
    2.9326    0.1975    0.3355 N   0  0  0  0  0  2  0  0  0  0  0  0
    1.1080    1.1610   -0.4825 N   0  0  0  0  0  2  0  0  0  0  0  0
   -1.1675   -0.3697    0.3741 N   0  0  0  0  0  2  0  0  0  0  0  0
    4.6959   -1.1764    1.3208 C   0  0  0  0  0  0  0  0  0  0  0  0
    4.2222    0.1189    0.7173 C   0  0  1  0  0  3  0  0  0  0  0  0
    5.0870    1.2118    0.5292 C   0  0  0  0  0  0  0  0  0  0  0  0
    4.5855    2.3831   -0.0741 C   0  0  0  0  0  0  0  0  0  0  0  0
    3.2539    2.4674   -0.4778 C   0  0  0  0  0  0  0  0  0  0  0  0
    2.4259    1.3368   -0.2463 C   0  0  0  0  0  0  0  0  0  0  0  0
    0.2651    1.9813   -1.2381 C   0  0  0  0  0  0  0  0  0  0  0  0
    0.5681    2.3635   -2.5642 C   0  0  0  0  0  0  0  0  0  0  0  0
   -0.3874    3.0466   -3.3254 C   0  0  0  0  0  0  0  0  0  0  0  0
   -1.6560    3.3165   -2.7891 C   0  0  0  0  0  0  0  0  0  0  0  0
   -1.9771    2.9584   -1.4647 C   0  0  0  0  0  0  0  0  0  0  0  0
   -3.3716    3.1775   -0.9305 C   0  0  0  0  0  0  0  0  0  0  0  0
   -0.9870    2.3333   -0.6669 C   0  0  0  0  0  0  0  0  0  0  0  0
   -1.1950    2.0626    0.7848 C   0  0  0  0  0  0  0  0  0  0  0  0
   -1.1925    3.1428    1.7109 C   0  0  0  0  0  0  0  0  0  0  0  0
   -0.9028    4.5515    1.2516 C   0  0  0  0  0  0  0  0  0  0  0  0
   -1.4134    2.8762    3.0746 C   0  0  0  0  0  0  0  0  0  0  0  0
   -1.6140    1.5647    3.5329 C   0  0  0  0  0  0  0  0  0  0  0  0
   -1.5561    0.4974    2.6324 C   0  0  0  0  0  0  0  0  0  0  0  0
   -1.3244    0.7311    1.2566 C   0  0  0  0  0  0  0  0  0  0  0  0
   -2.2785   -1.1538    0.1273 C   0  0  0  0  0  0  0  0  0  0  0  0
   -3.6176   -0.8087    0.4258 C   0  0  0  0  0  0  0  0  0  0  0  0
   -4.6957   -1.6619    0.1138 C   0  0  0  0  0  0  0  0  0  0  0  0
   -6.1061   -1.2400    0.4497 C   0  0  0  0  0  0  0  0  0  0  0  0
   -4.4340   -2.8951   -0.5076 C   0  0  0  0  0  0  0  0  0  0  0  0
   -3.1110   -3.2743   -0.8170 C   0  0  0  0  0  0  0  0  0  0  0  0
   -2.0647   -2.4110   -0.5014 C   0  0  0  0  0  0  0  0  0  0  0  0
   -0.3887   -3.8856   -1.4163 C   0  0  0  0  0  0  0  0  0  0  0  0
    3.8286   -1.8141    1.5710 H   0  0  0  0  0  0  0  0  0  0  0  0
    5.2991   -0.9962    2.2324 H   0  0  0  0  0  0  0  0  0  0  0  0
    5.3428   -1.7270    0.6060 H   0  0  0  0  0  0  0  0  0  0  0  0
    6.1356    1.1418    0.8499 H   0  0  0  0  0  0  0  0  0  0  0  0
    5.2539    3.2456   -0.2254 H   0  0  0  0  0  0  0  0  0  0  0  0
    2.8369    3.3698   -0.9441 H   0  0  0  0  0  0  0  0  0  0  0  0
    1.5425    2.0867   -2.9941 H   0  0  0  0  0  0  0  0  0  0  0  0
   -0.1546    3.3418   -4.3602 H   0  0  0  0  0  0  0  0  0  0  0  0
   -2.4207    3.8080   -3.4106 H   0  0  0  0  0  0  0  0  0  0  0  0
   -3.3756    3.6793    0.0572 H   0  0  0  0  0  0  0  0  0  0  0  0
   -3.8817    2.2019   -0.7825 H   0  0  0  0  0  0  0  0  0  0  0  0
   -3.9823    3.7790   -1.6310 H   0  0  0  0  0  0  0  0  0  0  0  0
    0.0589    4.5972    0.7001 H   0  0  0  0  0  0  0  0  0  0  0  0
   -0.8445    5.2464    2.1114 H   0  0  0  0  0  0  0  0  0  0  0  0
   -1.6733    4.9372    0.5533 H   0  0  0  0  0  0  0  0  0  0  0  0
   -1.4125    3.7139    3.7897 H   0  0  0  0  0  0  0  0  0  0  0  0
   -1.7875    1.3746    4.6033 H   0  0  0  0  0  0  0  0  0  0  0  0
   -1.6752   -0.5420    2.9732 H   0  0  0  0  0  0  0  0  0  0  0  0
   -3.8102    0.1573    0.9159 H   0  0  0  0  0  0  0  0  0  0  0  0
   -6.3671   -0.2765   -0.0366 H   0  0  0  0  0  0  0  0  0  0  0  0
   -6.2343   -1.0899    1.5425 H   0  0  0  0  0  0  0  0  0  0  0  0
   -6.8472   -1.9951    0.1231 H   0  0  0  0  0  0  0  0  0  0  0  0
   -5.2627   -3.5748   -0.7561 H   0  0  0  0  0  0  0  0  0  0  0  0
   -2.9225   -4.2444   -1.2957 H   0  0  0  0  0  0  0  0  0  0  0  0
   -0.6635   -4.7527   -0.7800 H   0  0  0  0  0  0  0  0  0  0  0  0
    0.7009   -3.8566   -1.5881 H   0  0  0  0  0  0  0  0  0  0  0  0
   -0.9168   -3.9555   -2.3898 H   0  0  0  0  0  0  0  0  0  0  0  0
  1 31  1  0  0  0  0
  2  6  1  0  0  0  0
  3 10  1  0  0  0  0
  4 24  1  0  0  0  0
  5 33  1  0  0  0  0
  5 34  1  0  0  0  0
  6  5  1  6  0  0  0
  7  6  1  0  0  0  0
  7 36  1  0  0  0  0
  8  7  2  0  0  0  0
  9 10  2  0  0  0  0
  9  8  1  0  0  0  0
 10  2  1  0  0  0  0
 11 17  1  0  0  0  0
 11  3  1  0  0  0  0
 12 11  2  0  0  0  0
 13 14  2  0  0  0  0
 13 12  1  0  0  0  0
 14 15  1  0  0  0  0
 15 16  1  0  0  0  0
 15 17  2  0  0  0  0
 16 43  1  0  0  0  0
 16 42  1  0  0  0  0
 17 18  1  0  0  0  0
 18 24  2  0  0  0  0
 18 19  1  0  0  0  0
 19 21  2  0  0  0  0
 20 19  1  0  0  0  0
 20 46  1  0  0  0  0
 21 22  1  0  0  0  0
 21 48  1  0  0  0  0
 22 49  1  0  0  0  0
 23 50  1  0  0  0  0
 23 22  2  0  0  0  0
 24 23  1  0  0  0  0
 25  4  1  0  0  0  0
 25 26  1  0  0  0  0
 26 51  1  0  0  0  0
 27 26  2  0  0  0  0
 27 28  1  0  0  0  0
 28 53  1  0  0  0  0
 29 27  1  0  0  0  0
 30 29  2  0  0  0  0
 30 31  1  0  0  0  0
 31 25  2  0  0  0  0
 32 57  1  0  0  0  0
 32  1  1  0  0  0  0
 35  5  1  0  0  0  0
 37  8  1  0  0  0  0
 38  9  1  0  0  0  0
 39 12  1  0  0  0  0
 40 13  1  0  0  0  0
 41 14  1  0  0  0  0
 44 16  1  0  0  0  0
 45 20  1  0  0  0  0
 47 20  1  0  0  0  0
 52 28  1  0  0  0  0
 54 28  1  0  0  0  0
 55 29  1  0  0  0  0
 56 30  1  0  0  0  0
 58 32  1  0  0  0  0
 59 32  1  0  0  0  0
M  END
