1,2,23
 OpenBabel05122313063D

 41 42  0  0  0  0  0  0  0  0999 V2000
   -0.0002    2.7620    1.1147 N   0  0  0  0  0  0  0  0  0  0  0  0
    1.8272    1.0262    0.2147 N   0  0  0  0  0  2  0  0  0  0  0  0
   -0.0005    4.0731    0.4115 C   0  0  0  0  0  0  0  0  0  0  0  0
   -0.8966    4.1543   -0.2296 H   0  0  0  0  0  0  0  0  0  0  0  0
   -0.0004    4.9028    1.1510 H   0  0  0  0  0  0  0  0  0  0  0  0
    1.2390    2.6046    1.9344 C   0  0  0  0  0  0  0  0  0  0  0  0
    1.4738    3.5537    2.4655 H   0  0  0  0  0  0  0  0  0  0  0  0
    1.0366    1.8158    2.6837 H   0  0  0  0  0  0  0  0  0  0  0  0
    2.3624    2.1256    1.0308 C   0  0  0  0  0  0  0  0  0  0  0  0
    2.7512    2.9505    0.3871 H   0  0  0  0  0  0  0  0  0  0  0  0
    3.2145    1.7922    1.6600 H   0  0  0  0  0  0  0  0  0  0  0  0
    2.6559   -0.1094    0.1271 C   0  0  0  0  0  0  0  0  0  0  0  0
    2.8479   -0.9534    1.2417 C   0  0  0  0  0  0  0  0  0  0  0  0
    3.6294   -2.1153    1.1715 C   0  0  0  0  0  0  0  0  0  0  0  0
    4.2681   -2.4419   -0.0382 C   0  0  0  0  0  0  0  0  0  0  0  0
    4.0911   -1.6248   -1.1680 C   0  0  0  0  0  0  0  0  0  0  0  0
    3.3165   -0.4567   -1.0703 C   0  0  0  0  0  0  0  0  0  0  0  0
    2.2303   -0.6536    2.4001 F   0  0  0  0  0  0  0  0  0  0  0  0
    3.7855   -2.9027    2.2417 F   0  0  0  0  0  0  0  0  0  0  0  0
    5.0218   -3.5415   -0.1191 F   0  0  0  0  0  0  0  0  0  0  0  0
    4.6919   -1.9463   -2.3182 F   0  0  0  0  0  0  0  0  0  0  0  0
    3.1650    0.3066   -2.1574 F   0  0  0  0  0  0  0  0  0  0  0  0
   -1.8274    1.0258    0.2155 N   0  0  0  0  0  2  0  0  0  0  0  0
    0.8952    4.1545   -0.2301 H   0  0  0  0  0  0  0  0  0  0  0  0
   -1.2389    2.6043    1.9349 C   0  0  0  0  0  0  0  0  0  0  0  0
   -1.4737    3.5533    2.4661 H   0  0  0  0  0  0  0  0  0  0  0  0
   -1.0360    1.8155    2.6842 H   0  0  0  0  0  0  0  0  0  0  0  0
   -2.3626    2.1250    1.0318 C   0  0  0  0  0  0  0  0  0  0  0  0
   -2.7520    2.9497    0.3885 H   0  0  0  0  0  0  0  0  0  0  0  0
   -3.2143    1.7912    1.6614 H   0  0  0  0  0  0  0  0  0  0  0  0
   -2.6558   -0.1101    0.1283 C   0  0  0  0  0  0  0  0  0  0  0  0
   -2.8453   -0.9555    1.2422 C   0  0  0  0  0  0  0  0  0  0  0  0
   -3.6262   -2.1177    1.1722 C   0  0  0  0  0  0  0  0  0  0  0  0
   -4.2673   -2.4430   -0.0366 C   0  0  0  0  0  0  0  0  0  0  0  0
   -4.0930   -1.6246   -1.1658 C   0  0  0  0  0  0  0  0  0  0  0  0
   -3.3187   -0.4562   -1.0683 C   0  0  0  0  0  0  0  0  0  0  0  0
   -2.2255   -0.6567    2.3997 F   0  0  0  0  0  0  0  0  0  0  0  0
   -3.7798   -2.9065    2.2417 F   0  0  0  0  0  0  0  0  0  0  0  0
   -5.0206   -3.5429   -0.1173 F   0  0  0  0  0  0  0  0  0  0  0  0
   -4.6960   -1.9449   -2.3151 F   0  0  0  0  0  0  0  0  0  0  0  0
   -3.1696    0.3086   -2.1547 F   0  0  0  0  0  0  0  0  0  0  0  0
  1  6  1  0  0  0  0
  1 25  1  0  0  0  0
  2  9  1  0  0  0  0
  3  1  1  0  0  0  0
  3  5  1  0  0  0  0
  4  3  1  0  0  0  0
  6  7  1  0  0  0  0
  6  8  1  0  0  0  0
  9 11  1  0  0  0  0
  9  6  1  0  0  0  0
 10  9  1  0  0  0  0
 12  2  1  0  0  0  0
 12 13  1  0  0  0  0
 13 18  1  0  0  0  0
 14 13  2  0  0  0  0
 14 19  1  0  0  0  0
 15 14  1  0  0  0  0
 16 17  1  0  0  0  0
 16 15  2  0  0  0  0
 17 12  2  0  0  0  0
 20 15  1  0  0  0  0
 21 16  1  0  0  0  0
 22 17  1  0  0  0  0
 23 28  1  0  0  0  0
 24  3  1  0  0  0  0
 25 26  1  0  0  0  0
 25 27  1  0  0  0  0
 28 30  1  0  0  0  0
 28 25  1  0  0  0  0
 29 28  1  0  0  0  0
 31 23  1  0  0  0  0
 31 32  1  0  0  0  0
 32 37  1  0  0  0  0
 33 32  2  0  0  0  0
 33 38  1  0  0  0  0
 34 33  1  0  0  0  0
 35 36  1  0  0  0  0
 35 34  2  0  0  0  0
 36 31  2  0  0  0  0
 39 34  1  0  0  0  0
 40 35  1  0  0  0  0
 41 36  1  0  0  0  0
M  END
