2,3,4
 OpenBabel05122313063D

 79 81  0  0  1  0  0  0  0  0999 V2000
   -2.3258   -1.5796    0.9619 C   0  0  2  0  0  3  0  0  0  0  0  0
   -1.9210   -0.9221   -0.1203 N   0  0  0  0  0  2  0  0  0  0  0  0
    1.9634   -0.8183    0.0538 N   0  0  0  0  0  2  0  0  0  0  0  0
   -0.0292   -1.4997    1.3588 N   0  0  0  0  0  2  0  0  0  0  0  0
   -3.3601   -1.0064   -2.1220 C   0  0  0  0  0  0  0  0  0  0  0  0
    1.1495   -1.7909    2.0011 C   0  0  0  0  0  0  0  0  0  0  0  0
   -1.2378   -1.9276    1.8561 C   0  0  0  0  0  0  0  0  0  0  0  0
   -4.6921    0.9561   -2.7143 C   0  0  0  0  0  0  0  0  0  0  0  0
   -5.4000    1.4541   -3.3939 H   0  0  0  0  0  0  0  0  0  0  0  0
   -4.2081    1.6317   -1.5881 C   0  0  0  0  0  0  0  0  0  0  0  0
   -4.5382    2.6623   -1.3971 H   0  0  0  0  0  0  0  0  0  0  0  0
   -3.3019    1.0251   -0.6966 C   0  0  0  0  0  0  0  0  0  0  0  0
   -2.8298    1.7568    0.5549 C   0  0  0  0  0  0  0  0  0  0  0  0
   -1.8867    1.2653    0.8730 H   0  0  0  0  0  0  0  0  0  0  0  0
    2.2953   -1.3718    1.2163 C   0  0  0  0  0  0  0  0  0  0  0  0
   -2.8813   -0.3028   -0.9878 C   0  0  0  0  0  0  0  0  0  0  0  0
    1.1283   -2.4319    3.2527 C   0  0  0  0  0  0  0  0  0  0  0  0
    2.0736   -2.6485    3.7687 H   0  0  0  0  0  0  0  0  0  0  0  0
   -2.9122   -2.4085   -2.4306 C   0  0  0  0  0  0  0  0  0  0  0  0
   -2.9593   -3.0715   -1.5435 H   0  0  0  0  0  0  0  0  0  0  0  0
   -1.8495   -2.4299   -2.7450 H   0  0  0  0  0  0  0  0  0  0  0  0
   -3.5310   -2.8496   -3.2351 H   0  0  0  0  0  0  0  0  0  0  0  0
   -0.1037   -2.8141    3.8088 C   0  0  0  0  0  0  0  0  0  0  0  0
   -0.1342   -3.3190    4.7847 H   0  0  0  0  0  0  0  0  0  0  0  0
   -1.2940   -2.5809    3.0998 C   0  0  0  0  0  0  0  0  0  0  0  0
   -2.2631   -2.9148    3.4952 H   0  0  0  0  0  0  0  0  0  0  0  0
    3.6503   -1.1477   -1.7122 C   0  0  0  0  0  0  0  0  0  0  0  0
    2.6908    2.0039    0.3443 C   0  0  0  0  0  0  0  0  0  0  0  0
    1.6997    1.5617    0.5723 H   0  0  0  0  0  0  0  0  0  0  0  0
    3.3099   -2.6091   -1.8192 C   0  0  0  0  0  0  0  0  0  0  0  0
    2.2879   -2.7557   -2.2214 H   0  0  0  0  0  0  0  0  0  0  0  0
    3.3048   -3.1151   -0.8325 H   0  0  0  0  0  0  0  0  0  0  0  0
    4.0337   -3.1309   -2.4735 H   0  0  0  0  0  0  0  0  0  0  0  0
    3.4740    2.0385    1.6833 C   0  0  0  0  0  0  0  0  0  0  0  0
    2.8687    2.6125    2.4172 H   0  0  0  0  0  0  0  0  0  0  0  0
    3.5213    1.0085    2.0906 H   0  0  0  0  0  0  0  0  0  0  0  0
    4.6499   -0.6021   -2.5389 C   0  0  0  0  0  0  0  0  0  0  0  0
    5.1620   -1.2663   -3.2524 H   0  0  0  0  0  0  0  0  0  0  0  0
    1.5813    4.3001    0.6836 C   0  0  0  0  0  0  0  0  0  0  0  0
    2.1161    4.5663    1.6186 H   0  0  0  0  0  0  0  0  0  0  0  0
    0.6372    3.7966    0.9692 H   0  0  0  0  0  0  0  0  0  0  0  0
    1.3109    5.2502    0.1800 H   0  0  0  0  0  0  0  0  0  0  0  0
   -3.8308    1.5900    1.7302 C   0  0  0  0  0  0  0  0  0  0  0  0
   -3.3484    1.9849    2.6494 H   0  0  0  0  0  0  0  0  0  0  0  0
   -3.9764    0.5088    1.9200 H   0  0  0  0  0  0  0  0  0  0  0  0
   -2.0161    4.0004    1.5238 C   0  0  0  0  0  0  0  0  0  0  0  0
   -1.2240    3.4515    2.0751 H   0  0  0  0  0  0  0  0  0  0  0  0
   -2.8490    4.1769    2.2346 H   0  0  0  0  0  0  0  0  0  0  0  0
   -1.6017    4.9914    1.2511 H   0  0  0  0  0  0  0  0  0  0  0  0
    4.9959    0.7508   -2.4634 C   0  0  0  0  0  0  0  0  0  0  0  0
    5.7763    1.1610   -3.1221 H   0  0  0  0  0  0  0  0  0  0  0  0
   -4.2744   -0.3540   -2.9699 C   0  0  0  0  0  0  0  0  0  0  0  0
   -4.6567   -0.8963   -3.8488 H   0  0  0  0  0  0  0  0  0  0  0  0
    3.3443    1.0885   -0.6827 C   0  0  0  0  0  0  0  0  0  0  0  0
    2.4140    3.4077   -0.2334 C   0  0  0  0  0  0  0  0  0  0  0  0
    3.3657    3.9253   -0.4800 H   0  0  0  0  0  0  0  0  0  0  0  0
    1.8790    3.2633   -1.1943 H   0  0  0  0  0  0  0  0  0  0  0  0
    2.9953   -0.2852   -0.7926 C   0  0  0  0  0  0  0  0  0  0  0  0
   -2.4668    3.2320    0.2806 C   0  0  0  0  0  0  0  0  0  0  0  0
   -1.6608    3.2305   -0.4820 H   0  0  0  0  0  0  0  0  0  0  0  0
   -3.3233    3.7692   -0.1788 H   0  0  0  0  0  0  0  0  0  0  0  0
    4.8868    2.6193    1.6210 C   0  0  0  0  0  0  0  0  0  0  0  0
    4.8859    3.6708    1.2669 H   0  0  0  0  0  0  0  0  0  0  0  0
    5.5375    2.0400    0.9346 H   0  0  0  0  0  0  0  0  0  0  0  0
    5.3642    2.6117    2.6219 H   0  0  0  0  0  0  0  0  0  0  0  0
    4.3489    1.5794   -1.5406 C   0  0  0  0  0  0  0  0  0  0  0  0
    4.6278    2.6405   -1.4832 H   0  0  0  0  0  0  0  0  0  0  0  0
   -5.1973    2.2511    1.5467 C   0  0  0  0  0  0  0  0  0  0  0  0
   -5.7416    1.8316    0.6766 H   0  0  0  0  0  0  0  0  0  0  0  0
   -5.1097    3.3456    1.3868 H   0  0  0  0  0  0  0  0  0  0  0  0
   -5.8331    2.1004    2.4426 H   0  0  0  0  0  0  0  0  0  0  0  0
   -3.7433   -1.9591    1.2598 C   0  0  0  0  0  0  0  0  0  0  0  0
   -3.8580   -3.0593    1.1524 H   0  0  0  0  0  0  0  0  0  0  0  0
   -4.4443   -1.4696    0.5603 H   0  0  0  0  0  0  0  0  0  0  0  0
   -4.0300   -1.7021    2.2992 H   0  0  0  0  0  0  0  0  0  0  0  0
    3.6951   -1.5913    1.7026 C   0  0  0  0  0  0  0  0  0  0  0  0
    4.4306   -1.0840    1.0532 H   0  0  0  0  0  0  0  0  0  0  0  0
    3.9260   -2.6782    1.7045 H   0  0  0  0  0  0  0  0  0  0  0  0
    3.8226   -1.2303    2.7430 H   0  0  0  0  0  0  0  0  0  0  0  0
  1  2  1  6  0  0  0
  1 72  1  0  0  0  0
  1  7  1  0  0  0  0
  3 15  1  0  0  0  0
  4  7  1  0  0  0  0
  4  6  1  0  0  0  0
  5 16  1  0  0  0  0
  6 17  1  0  0  0  0
  7 25  2  0  0  0  0
  8 10  2  0  0  0  0
  9  8  1  0  0  0  0
 10 11  1  0  0  0  0
 10 12  1  0  0  0  0
 12 13  1  0  0  0  0
 13 14  1  0  0  0  0
 13 43  1  0  0  0  0
 15 76  1  0  0  0  0
 15  6  2  0  0  0  0
 16 12  2  0  0  0  0
 16  2  1  0  0  0  0
 17 18  1  0  0  0  0
 17 23  2  0  0  0  0
 19  5  1  0  0  0  0
 19 20  1  0  0  0  0
 21 19  1  0  0  0  0
 22 19  1  0  0  0  0
 23 24  1  0  0  0  0
 25 26  1  0  0  0  0
 25 23  1  0  0  0  0
 27 58  1  0  0  0  0
 28 29  1  0  0  0  0
 28 34  1  0  0  0  0
 30 27  1  0  0  0  0
 30 32  1  0  0  0  0
 31 30  1  0  0  0  0
 33 30  1  0  0  0  0
 34 36  1  0  0  0  0
 34 35  1  0  0  0  0
 37 50  1  0  0  0  0
 37 27  2  0  0  0  0
 38 37  1  0  0  0  0
 39 41  1  0  0  0  0
 39 40  1  0  0  0  0
 42 39  1  0  0  0  0
 43 45  1  0  0  0  0
 43 44  1  0  0  0  0
 46 47  1  0  0  0  0
 46 48  1  0  0  0  0
 49 46  1  0  0  0  0
 50 66  2  0  0  0  0
 51 50  1  0  0  0  0
 52  8  1  0  0  0  0
 52  5  2  0  0  0  0
 53 52  1  0  0  0  0
 54 28  1  0  0  0  0
 55 28  1  0  0  0  0
 55 39  1  0  0  0  0
 56 55  1  0  0  0  0
 57 55  1  0  0  0  0
 58 54  2  0  0  0  0
 58  3  1  0  0  0  0
 59 13  1  0  0  0  0
 59 46  1  0  0  0  0
 60 59  1  0  0  0  0
 61 59  1  0  0  0  0
 62 34  1  0  0  0  0
 62 65  1  0  0  0  0
 63 62  1  0  0  0  0
 64 62  1  0  0  0  0
 66 67  1  0  0  0  0
 66 54  1  0  0  0  0
 68 43  1  0  0  0  0
 68 71  1  0  0  0  0
 69 68  1  0  0  0  0
 70 68  1  0  0  0  0
 72 75  1  0  0  0  0
 73 72  1  0  0  0  0
 74 72  1  0  0  0  0
 76 78  1  0  0  0  0
 76 79  1  0  0  0  0
 77 76  1  0  0  0  0
M  END
