2,4,10
 OpenBabel05122313063D

 29 32  0  0  0  0  0  0  0  0999 V2000
   -0.1989    4.5445   -0.0867 S   0  0  0  0  0  0  0  0  0  0  0  0
    0.9321    0.0035    0.0280 N   0  0  0  0  0  0  0  0  0  0  0  0
    0.0789    2.8000   -0.0972 C   0  0  0  0  0  0  0  0  0  0  0  0
   -1.0830    2.1049   -0.0917 N   0  0  0  0  0  2  0  0  0  0  0  0
    1.3648   -2.3772    0.1338 N   0  0  0  0  0  0  0  0  0  0  0  0
    1.3551    2.3848   -0.1039 N   0  0  0  0  0  0  0  0  0  0  0  0
    1.7412   -1.1180    0.0666 C   0  0  0  0  0  0  0  0  0  0  0  0
   -2.1821    2.9331   -0.0731 C   0  0  0  0  0  0  0  0  0  0  0  0
   -3.1841    2.4873   -0.0587 H   0  0  0  0  0  0  0  0  0  0  0  0
   -1.0731   -2.1004    0.1908 N   0  0  0  0  0  2  0  0  0  0  0  0
    4.3491   -1.4258    0.0266 C   0  0  0  0  0  0  0  0  0  0  0  0
    4.3394   -2.5239    0.0842 H   0  0  0  0  0  0  0  0  0  0  0  0
    3.1547   -0.6997    0.0143 C   0  0  0  0  0  0  0  0  0  0  0  0
    1.7366    1.1267   -0.0495 C   0  0  0  0  0  0  0  0  0  0  0  0
    5.5487    0.7119   -0.1107 C   0  0  0  0  0  0  0  0  0  0  0  0
    6.5072    1.2498   -0.1593 H   0  0  0  0  0  0  0  0  0  0  0  0
    0.0903   -2.7940    0.1817 C   0  0  0  0  0  0  0  0  0  0  0  0
   -2.1700   -2.9303    0.2455 C   0  0  0  0  0  0  0  0  0  0  0  0
   -3.1732   -2.4876    0.2585 H   0  0  0  0  0  0  0  0  0  0  0  0
    4.3433    1.4391   -0.1224 C   0  0  0  0  0  0  0  0  0  0  0  0
    4.3293    2.5372   -0.1788 H   0  0  0  0  0  0  0  0  0  0  0  0
    3.1518    0.7109   -0.0589 C   0  0  0  0  0  3  0  0  0  0  0  0
    5.5516   -0.6964   -0.0374 C   0  0  0  0  0  0  0  0  0  0  0  0
    6.5122   -1.2327   -0.0303 H   0  0  0  0  0  0  0  0  0  0  0  0
   -1.9073    4.2821   -0.0668 C   0  0  0  0  0  0  0  0  0  0  0  0
   -2.6194    5.1156   -0.0539 H   0  0  0  0  0  0  0  0  0  0  0  0
   -1.8927   -4.2781    0.2785 C   0  0  0  0  0  0  0  0  0  0  0  0
   -2.6029   -5.1121    0.3234 H   0  0  0  0  0  0  0  0  0  0  0  0
   -0.1841   -4.5380    0.2409 S   0  0  0  0  0  0  0  0  0  0  0  0
  1 25  1  0  0  0  0
  2  7  1  0  0  0  0
  3  4  1  0  0  0  0
  3  1  1  0  0  0  0
  4  8  1  0  0  0  0
  5 17  2  0  0  0  0
  6  3  2  0  0  0  0
  6 14  1  0  0  0  0
  7  5  1  0  0  0  0
  8 25  2  0  0  0  0
  8  9  1  0  0  0  0
 10 18  1  0  0  0  0
 11 12  1  0  0  0  0
 13 11  1  0  0  0  0
 13  7  2  0  0  0  0
 14  2  2  0  0  0  0
 15 23  1  0  0  0  0
 16 15  1  0  0  0  0
 17 10  1  0  0  0  0
 17 29  1  0  0  0  0
 18 19  1  0  0  0  0
 18 27  2  0  0  0  0
 20 15  2  0  0  0  0
 20 22  1  0  0  0  0
 21 20  1  0  0  0  0
 22 14  1  0  0  0  0
 22 13  1  0  0  0  0
 23 24  1  0  0  0  0
 23 11  2  0  0  0  0
 25 26  1  0  0  0  0
 27 28  1  0  0  0  0
 29 27  1  0  0  0  0
M  END
