1,2,3
 OpenBabel05122313063D

 59 63  0  0  1  0  0  0  0  0999 V2000
   -1.7459    0.5019   -0.8111 N   0  0  0  0  0  2  0  0  0  0  0  0
   -1.4109   -0.4793    1.7635 N   0  0  0  0  0  2  0  0  0  0  0  0
    0.7025   -0.7177   -0.0649 N   0  0  0  0  0  0  0  0  0  0  0  0
    7.5695    1.3326   -1.3215 O   0  0  0  0  0  0  0  0  0  0  0  0
   -3.0073    1.0898   -0.9113 C   0  0  2  0  0  3  0  0  0  0  0  0
    7.8437    0.2653    0.6644 O   0  0  0  0  0  0  0  0  0  0  0  0
   -4.1233    0.2876   -1.2576 C   0  0  0  0  0  0  0  0  0  0  0  0
   -3.9542   -0.7659   -1.5074 H   0  0  0  0  0  0  0  0  0  0  0  0
   -5.3975    0.8367   -1.3320 C   0  0  0  0  0  0  0  0  0  0  0  0
   -6.2495    0.2010   -1.6136 H   0  0  0  0  0  0  0  0  0  0  0  0
   -5.5919    2.2100   -1.0612 C   0  0  0  0  0  0  0  0  0  0  0  0
   -6.6014    2.6436   -1.1099 H   0  0  0  0  0  0  0  0  0  0  0  0
   -4.5021    3.0231   -0.7688 C   0  0  0  0  0  0  0  0  0  0  0  0
   -4.6665    4.0965   -0.6053 H   0  0  0  0  0  0  0  0  0  0  0  0
   -3.1850    2.4972   -0.7076 C   0  0  0  0  0  0  0  0  0  0  0  0
   -2.0123    3.3228   -0.4888 C   0  0  0  0  0  0  0  0  0  0  0  0
   -2.0821    4.7169   -0.2388 C   0  0  0  0  0  0  0  0  0  0  0  0
   -3.0600    5.2099   -0.1604 H   0  0  0  0  0  0  0  0  0  0  0  0
   -0.9271    5.4797   -0.1005 C   0  0  0  0  0  0  0  0  0  0  0  0
   -1.0062    6.5607    0.0872 H   0  0  0  0  0  0  0  0  0  0  0  0
    0.3468    4.8752   -0.2086 C   0  0  0  0  0  0  0  0  0  0  0  0
    1.2566    5.4849   -0.1099 H   0  0  0  0  0  0  0  0  0  0  0  0
    0.4483    3.5098   -0.4394 C   0  0  0  0  0  0  0  0  0  0  0  0
    1.4472    3.0608   -0.5198 H   0  0  0  0  0  0  0  0  0  0  0  0
   -0.7197    2.7026   -0.5696 C   0  0  0  0  0  0  0  0  0  0  0  0
   -0.6604    1.2719   -0.7231 C   0  0  0  0  0  0  0  0  0  0  0  0
    0.6528    0.5409   -0.8574 C   0  0  0  0  0  0  0  0  0  0  0  0
    0.7485    0.2553   -1.9258 H   0  0  0  0  0  0  0  0  0  0  0  0
    1.5242    1.1761   -0.6157 H   0  0  0  0  0  0  0  0  0  0  0  0
    3.1706   -1.0974   -0.5787 C   0  0  0  0  0  0  0  0  0  0  0  0
    4.0035   -1.3500    0.5324 C   0  0  0  0  0  0  0  0  0  0  0  0
    3.6447   -1.9974    1.3483 H   0  0  0  0  0  0  0  0  0  0  0  0
    5.2942   -0.8109    0.6012 C   0  0  0  0  0  0  0  0  0  0  0  0
    5.9443   -1.0166    1.4626 H   0  0  0  0  0  0  0  0  0  0  0  0
    5.7755   -0.0054   -0.4487 C   0  0  0  0  0  0  0  0  0  0  0  0
    4.9619    0.2337   -1.5727 C   0  0  0  0  0  0  0  0  0  0  0  0
    5.3719    0.8447   -2.3903 H   0  0  0  0  0  0  0  0  0  0  0  0
    3.6762   -0.3127   -1.6384 C   0  0  0  0  0  0  0  0  0  0  0  0
    3.0636   -0.1453   -2.5382 H   0  0  0  0  0  0  0  0  0  0  0  0
    7.1445    0.6091   -0.4386 C   0  0  0  0  0  0  0  0  0  0  0  0
    9.1737    0.8031    0.7437 C   0  0  0  0  0  0  0  0  0  0  0  0
    9.5999    0.4255    1.6891 H   0  0  0  0  0  0  0  0  0  0  0  0
    9.1474    1.9110    0.7415 H   0  0  0  0  0  0  0  0  0  0  0  0
    9.7813    0.4669   -0.1197 H   0  0  0  0  0  0  0  0  0  0  0  0
   -2.5324   -0.1267    2.4339 C   0  0  0  0  0  3  0  0  0  0  0  0
   -3.4652   -0.6133    2.1146 H   0  0  0  0  0  0  0  0  0  0  0  0
   -2.5155    0.8115    3.4700 C   0  0  0  0  0  0  0  0  0  0  0  0
   -3.4510    1.0631    3.9884 H   0  0  0  0  0  0  0  0  0  0  0  0
   -1.2997    1.4178    3.8165 C   0  0  0  0  0  0  0  0  0  0  0  0
   -1.2552    2.1682    4.6195 H   0  0  0  0  0  0  0  0  0  0  0  0
   -0.1387    1.0530    3.1210 C   0  0  0  0  0  0  0  0  0  0  0  0
    0.8338    1.5046    3.3630 H   0  0  0  0  0  0  0  0  0  0  0  0
   -0.2244    0.0938    2.1035 C   0  0  0  0  0  0  0  0  0  0  0  0
    0.9816   -0.4301    1.3732 C   0  0  0  0  0  0  0  0  0  0  0  0
    1.2691   -1.3945    1.8436 H   0  0  0  0  0  0  0  0  0  0  0  0
    1.8469    0.2557    1.4835 H   0  0  0  0  0  0  0  0  0  0  0  0
    1.7632   -1.6463   -0.6254 C   0  0  0  0  0  0  0  0  0  0  0  0
    1.6896   -2.5872   -0.0485 H   0  0  0  0  0  0  0  0  0  0  0  0
    1.4585   -1.8692   -1.6654 H   0  0  0  0  0  0  0  0  0  0  0  0
  1 26  1  0  0  0  0
  2 53  1  0  0  0  0
  2 45  1  0  0  0  0
  3 54  1  0  0  0  0
  4 40  2  0  0  0  0
  5  7  1  6  0  0  0
  5  1  1  0  0  0  0
  5 15  1  0  0  0  0
  6 41  1  0  0  0  0
  8  7  1  0  0  0  0
  9  7  2  0  0  0  0
  9 11  1  0  0  0  0
 10  9  1  0  0  0  0
 11 13  2  0  0  0  0
 12 11  1  0  0  0  0
 13 15  1  0  0  0  0
 13 14  1  0  0  0  0
 15 16  2  0  0  0  0
 16 17  1  0  0  0  0
 17 18  1  0  0  0  0
 17 19  2  0  0  0  0
 19 20  1  0  0  0  0
 21 22  1  0  0  0  0
 21 19  1  0  0  0  0
 23 21  2  0  0  0  0
 24 23  1  0  0  0  0
 25 16  1  0  0  0  0
 25 23  1  0  0  0  0
 26 25  2  0  0  0  0
 27 26  1  0  0  0  0
 27 29  1  0  0  0  0
 27  3  1  0  0  0  0
 28 27  1  0  0  0  0
 30 31  1  0  0  0  0
 31 33  2  0  0  0  0
 31 32  1  0  0  0  0
 33 34  1  0  0  0  0
 35 40  1  0  0  0  0
 35 33  1  0  0  0  0
 36 35  2  0  0  0  0
 37 36  1  0  0  0  0
 38 36  1  0  0  0  0
 38 30  2  0  0  0  0
 39 38  1  0  0  0  0
 40  6  1  0  0  0  0
 41 42  1  0  0  0  0
 43 41  1  0  0  0  0
 44 41  1  0  0  0  0
 45 47  1  0  0  0  0
 46 45  1  0  0  0  0
 47 49  2  0  0  0  0
 47 48  1  0  0  0  0
 49 50  1  0  0  0  0
 51 52  1  0  0  0  0
 51 49  1  0  0  0  0
 53 51  2  0  0  0  0
 54 56  1  0  0  0  0
 54 55  1  0  0  0  0
 54 53  1  0  0  0  0
 57 30  1  0  0  0  0
 57  3  1  0  0  0  0
 57 58  1  0  0  0  0
 59 57  1  0  0  0  0
M  END
