1,2,3
 OpenBabel05122313063D

 55 56  0  0  0  0  0  0  0  0999 V2000
    1.8441    0.1995   -1.2660 N   0  0  0  0  0  0  0  0  0  0  0  0
    0.6515   -1.1912    0.7565 N   0  0  0  0  0  2  0  0  0  0  0  0
   -0.3252    1.8198   -0.8224 N   0  0  0  0  0  2  0  0  0  0  0  0
    4.3691   -4.2549    1.0467 O   0  0  0  0  0  0  0  0  0  0  0  0
    2.4123    5.0930    1.4487 O   0  0  0  0  0  0  0  0  0  0  0  0
    2.5487   -0.9593   -0.7463 C   0  0  0  0  0  0  0  0  0  0  0  0
    1.9141   -1.6407    0.3417 C   0  0  0  0  0  0  0  0  0  0  0  0
    2.5889   -2.7374    0.9114 C   0  0  0  0  0  0  0  0  0  0  0  0
    2.1434   -3.3214    1.7266 H   0  0  0  0  0  0  0  0  0  0  0  0
    3.8356   -3.1714    0.4128 C   0  0  0  0  0  0  0  0  0  0  0  0
    4.4329   -2.5172   -0.6805 C   0  0  0  0  0  0  0  0  0  0  0  0
    5.3910   -2.8481   -1.0995 H   0  0  0  0  0  0  0  0  0  0  0  0
    3.7729   -1.4082   -1.2436 C   0  0  0  0  0  0  0  0  0  0  0  0
    4.2435   -0.8829   -2.0866 H   0  0  0  0  0  0  0  0  0  0  0  0
    0.2082   -1.5173    2.1296 C   0  0  0  0  0  0  0  0  0  0  0  0
    1.1129   -1.8390    2.6892 H   0  0  0  0  0  0  0  0  0  0  0  0
   -0.3101   -0.2505    2.8231 C   0  0  0  0  0  0  0  0  0  0  0  0
    0.4691    0.5375    2.8276 H   0  0  0  0  0  0  0  0  0  0  0  0
   -0.6005   -0.4664    3.8713 H   0  0  0  0  0  0  0  0  0  0  0  0
   -1.1986    0.1497    2.2944 H   0  0  0  0  0  0  0  0  0  0  0  0
   -0.8055   -2.6666    2.1563 C   0  0  0  0  0  0  0  0  0  0  0  0
   -0.3888   -3.5713    1.6702 H   0  0  0  0  0  0  0  0  0  0  0  0
   -1.7295   -2.3814    1.6148 H   0  0  0  0  0  0  0  0  0  0  0  0
   -1.0796   -2.9285    3.1986 H   0  0  0  0  0  0  0  0  0  0  0  0
    5.6030   -4.7608    0.5799 C   0  0  0  0  0  0  0  0  0  0  0  0
    5.8502   -5.6280    1.2204 H   0  0  0  0  0  0  0  0  0  0  0  0
    6.4198   -4.0082    0.6612 H   0  0  0  0  0  0  0  0  0  0  0  0
    5.5405   -5.1006   -0.4789 H   0  0  0  0  0  0  0  0  0  0  0  0
    2.0385    1.4198   -0.4730 C   0  0  0  0  0  0  0  0  0  0  0  0
    0.9036    2.2806   -0.3312 C   0  0  0  0  0  0  0  0  0  0  0  0
    1.1016    3.5181    0.3153 C   0  0  0  0  0  0  0  0  0  0  0  0
    0.2779    4.2260    0.4661 H   0  0  0  0  0  0  0  0  0  0  0  0
    2.3627    3.8752    0.8376 C   0  0  0  0  0  0  0  0  0  0  0  0
    3.4583    2.9958    0.7322 C   0  0  0  0  0  0  0  0  0  0  0  0
    4.4407    3.2439    1.1524 H   0  0  0  0  0  0  0  0  0  0  0  0
    3.2755    1.7730    0.0620 C   0  0  0  0  0  0  0  0  0  0  0  0
    4.1197    1.0760   -0.0467 H   0  0  0  0  0  0  0  0  0  0  0  0
   -1.4426    2.7760   -0.9383 C   0  0  0  0  0  0  0  0  0  0  0  0
   -0.9915    3.7630   -1.1898 H   0  0  0  0  0  0  0  0  0  0  0  0
   -2.2354    2.9234    0.3697 C   0  0  0  0  0  0  0  0  0  0  0  0
   -1.5705    3.1676    1.2213 H   0  0  0  0  0  0  0  0  0  0  0  0
   -2.7618    1.9786    0.6074 H   0  0  0  0  0  0  0  0  0  0  0  0
   -2.9924    3.7287    0.2806 H   0  0  0  0  0  0  0  0  0  0  0  0
   -2.3523    2.3772   -2.1054 C   0  0  0  0  0  0  0  0  0  0  0  0
   -1.7760    2.3068   -3.0495 H   0  0  0  0  0  0  0  0  0  0  0  0
   -3.1596    3.1239   -2.2436 H   0  0  0  0  0  0  0  0  0  0  0  0
   -2.8323    1.3959   -1.9120 H   0  0  0  0  0  0  0  0  0  0  0  0
    3.6384    5.5081    2.0162 C   0  0  0  0  0  0  0  0  0  0  0  0
    3.4598    6.5082    2.4533 H   0  0  0  0  0  0  0  0  0  0  0  0
    4.4455    5.5868    1.2530 H   0  0  0  0  0  0  0  0  0  0  0  0
    3.9796    4.8184    2.8212 H   0  0  0  0  0  0  0  0  0  0  0  0
    2.0909    0.4978   -2.6930 C   0  0  0  0  0  0  0  0  0  0  0  0
    3.1247    0.8699   -2.8576 H   0  0  0  0  0  0  0  0  0  0  0  0
    1.3818    1.2869   -3.0085 H   0  0  0  0  0  0  0  0  0  0  0  0
    1.9214   -0.4095   -3.3009 H   0  0  0  0  0  0  0  0  0  0  0  0
  1  6  1  0  0  0  0
  1 29  1  0  0  0  0
  2 15  1  0  0  0  0
  3 30  1  0  0  0  0
  5 48  1  0  0  0  0
  6  7  1  0  0  0  0
  7  2  1  0  0  0  0
  7  8  2  0  0  0  0
  8  9  1  0  0  0  0
 10  8  1  0  0  0  0
 10  4  1  0  0  0  0
 11 10  2  0  0  0  0
 12 11  1  0  0  0  0
 13  6  2  0  0  0  0
 13 11  1  0  0  0  0
 14 13  1  0  0  0  0
 15 21  1  0  0  0  0
 15 16  1  0  0  0  0
 15 17  1  0  0  0  0
 17 18  1  0  0  0  0
 17 19  1  0  0  0  0
 20 17  1  0  0  0  0
 21 24  1  0  0  0  0
 22 21  1  0  0  0  0
 23 21  1  0  0  0  0
 25 27  1  0  0  0  0
 25  4  1  0  0  0  0
 25 26  1  0  0  0  0
 28 25  1  0  0  0  0
 29 30  2  0  0  0  0
 29 36  1  0  0  0  0
 30 31  1  0  0  0  0
 31 32  1  0  0  0  0
 31 33  2  0  0  0  0
 33  5  1  0  0  0  0
 34 33  1  0  0  0  0
 34 35  1  0  0  0  0
 36 34  2  0  0  0  0
 37 36  1  0  0  0  0
 38  3  1  0  0  0  0
 38 40  1  0  0  0  0
 39 38  1  0  0  0  0
 40 42  1  0  0  0  0
 40 41  1  0  0  0  0
 43 40  1  0  0  0  0
 44 47  1  0  0  0  0
 44 38  1  0  0  0  0
 45 44  1  0  0  0  0
 46 44  1  0  0  0  0
 48 49  1  0  0  0  0
 48 51  1  0  0  0  0
 50 48  1  0  0  0  0
 52  1  1  0  0  0  0
 53 52  1  0  0  0  0
 54 52  1  0  0  0  0
 55 52  1  0  0  0  0
M  END
