3,4,5
 OpenBabel05122313063D

 61 63  0  0  1  0  0  0  0  0999 V2000
   -3.6552    1.9805   -0.1645 O   0  0  0  0  0  0  0  0  0  0  0  0
    3.3902    2.1509   -0.7129 O   0  0  0  0  0  0  0  0  0  0  0  0
   -1.9615    0.3753    0.1123 N   0  0  0  0  0  2  0  0  0  0  0  0
   -0.1253    1.9476   -0.4081 N   0  0  0  0  0  2  0  0  0  0  0  0
    1.8360    0.4376   -0.2673 N   0  0  0  0  0  2  0  0  0  0  0  0
   -2.4634    1.6239   -0.1564 C   0  0  0  0  0  0  0  0  0  0  0  0
   -1.3311    2.5619   -0.4528 C   0  0  2  0  0  3  0  0  0  0  0  0
   -1.4191    3.9244   -0.7569 C   0  0  0  0  0  0  0  0  0  0  0  0
   -2.4178    4.3839   -0.7861 H   0  0  0  0  0  0  0  0  0  0  0  0
   -0.2316    4.6393   -1.0100 C   0  0  0  0  0  0  0  0  0  0  0  0
   -0.2735    5.7131   -1.2499 H   0  0  0  0  0  0  0  0  0  0  0  0
    1.0099    3.9742   -0.9557 C   0  0  0  0  0  0  0  0  0  0  0  0
    1.9717    4.4739   -1.1417 H   0  0  0  0  0  0  0  0  0  0  0  0
    1.0294    2.6093   -0.6508 C   0  0  0  0  0  0  0  0  0  0  0  0
    2.2349    1.7205   -0.5499 C   0  0  0  0  0  0  0  0  0  0  0  0
    2.7981   -0.5811   -0.1001 C   0  0  0  0  0  0  0  0  0  0  0  0
    3.6780   -0.5570    1.0166 C   0  0  0  0  0  0  0  0  0  0  0  0
    4.6146   -1.5969    1.1619 C   0  0  0  0  0  0  0  0  0  0  0  0
    5.3022   -1.5940    2.0211 H   0  0  0  0  0  0  0  0  0  0  0  0
    4.6822   -2.6404    0.2292 C   0  0  0  0  0  0  0  0  0  0  0  0
    5.4235   -3.4459    0.3558 H   0  0  0  0  0  0  0  0  0  0  0  0
    3.8000   -2.6635   -0.8602 C   0  0  0  0  0  0  0  0  0  0  0  0
    3.8562   -3.4903   -1.5840 H   0  0  0  0  0  0  0  0  0  0  0  0
    2.8450   -1.6476   -1.0405 C   0  0  0  0  0  0  0  0  0  0  0  0
    1.8541   -1.6559   -2.1815 C   0  0  0  0  0  0  0  0  0  0  0  0
    0.8527   -1.7350   -1.7015 H   0  0  0  0  0  0  0  0  0  0  0  0
    1.8623   -0.6550   -2.6647 H   0  0  0  0  0  0  0  0  0  0  0  0
    2.0259   -2.7502   -3.2304 C   0  0  0  0  0  0  0  0  0  0  0  0
    1.2510   -2.6560   -4.0186 H   0  0  0  0  0  0  0  0  0  0  0  0
    1.9210   -3.7635   -2.7890 H   0  0  0  0  0  0  0  0  0  0  0  0
    3.0183   -2.7066   -3.7281 H   0  0  0  0  0  0  0  0  0  0  0  0
    3.5665    0.5768    2.0111 C   0  0  0  0  0  0  0  0  0  0  0  0
    2.4845    0.7395    2.2115 H   0  0  0  0  0  0  0  0  0  0  0  0
    3.8995    1.5050    1.4955 H   0  0  0  0  0  0  0  0  0  0  0  0
    4.3244    0.4067    3.3257 C   0  0  0  0  0  0  0  0  0  0  0  0
    4.1346    1.2666    4.0002 H   0  0  0  0  0  0  0  0  0  0  0  0
    5.4224    0.3501    3.1704 H   0  0  0  0  0  0  0  0  0  0  0  0
    4.0182   -0.5157    3.8627 H   0  0  0  0  0  0  0  0  0  0  0  0
   -2.8405   -0.7028    0.3607 C   0  0  0  0  0  0  0  0  0  0  0  0
   -2.9118   -1.2508    1.6721 C   0  0  0  0  0  0  0  0  0  0  0  0
   -3.7406   -2.3648    1.9034 C   0  0  0  0  0  0  0  0  0  0  0  0
   -3.7901   -2.7863    2.9209 H   0  0  0  0  0  0  0  0  0  0  0  0
   -4.4955   -2.9318    0.8683 C   0  0  0  0  0  0  0  0  0  0  0  0
   -5.1402   -3.8032    1.0638 H   0  0  0  0  0  0  0  0  0  0  0  0
   -4.4198   -2.3843   -0.4207 C   0  0  0  0  0  0  0  0  0  0  0  0
   -5.0070   -2.8262   -1.2428 H   0  0  0  0  0  0  0  0  0  0  0  0
   -3.5977   -1.2776   -0.6984 C   0  0  0  0  0  0  0  0  0  0  0  0
   -3.4768   -0.7402   -2.1064 C   0  0  0  0  0  0  0  0  0  0  0  0
   -4.3210   -1.1350   -2.7116 H   0  0  0  0  0  0  0  0  0  0  0  0
   -3.6022    0.3620   -2.0777 H   0  0  0  0  0  0  0  0  0  0  0  0
   -2.1415   -1.1086   -2.7724 C   0  0  0  0  0  0  0  0  0  0  0  0
   -2.0450   -0.6392   -3.7733 H   0  0  0  0  0  0  0  0  0  0  0  0
   -2.0442   -2.2071   -2.8949 H   0  0  0  0  0  0  0  0  0  0  0  0
   -1.2904   -0.7702   -2.1473 H   0  0  0  0  0  0  0  0  0  0  0  0
   -2.1452   -0.5991    2.7983 C   0  0  0  0  0  0  0  0  0  0  0  0
   -2.0161   -1.3310    3.6239 H   0  0  0  0  0  0  0  0  0  0  0  0
   -1.1303   -0.3564    2.4200 H   0  0  0  0  0  0  0  0  0  0  0  0
   -2.8339    0.6689    3.3250 C   0  0  0  0  0  0  0  0  0  0  0  0
   -2.2030    1.1842    4.0789 H   0  0  0  0  0  0  0  0  0  0  0  0
   -3.8073    0.4253    3.8002 H   0  0  0  0  0  0  0  0  0  0  0  0
   -3.0434    1.3808    2.5021 H   0  0  0  0  0  0  0  0  0  0  0  0
  1  6  2  0  0  0  0
  2 15  2  0  0  0  0
  3 39  1  0  0  0  0
  5 16  1  0  0  0  0
  6  3  1  0  0  0  0
  7  4  1  0  0  0  0
  7  6  1  6  0  0  0
  8  7  1  0  0  0  0
  9  8  1  0  0  0  0
 10 12  1  0  0  0  0
 10  8  2  0  0  0  0
 11 10  1  0  0  0  0
 12 14  2  0  0  0  0
 13 12  1  0  0  0  0
 14 15  1  0  0  0  0
 14  4  1  0  0  0  0
 15  5  1  0  0  0  0
 16 17  1  0  0  0  0
 17 18  2  0  0  0  0
 17 32  1  0  0  0  0
 18 19  1  0  0  0  0
 20 21  1  0  0  0  0
 20 18  1  0  0  0  0
 22 20  2  0  0  0  0
 23 22  1  0  0  0  0
 24 22  1  0  0  0  0
 24 16  2  0  0  0  0
 25 26  1  0  0  0  0
 25 24  1  0  0  0  0
 27 25  1  0  0  0  0
 28 30  1  0  0  0  0
 28 25  1  0  0  0  0
 29 28  1  0  0  0  0
 31 28  1  0  0  0  0
 32 33  1  0  0  0  0
 32 35  1  0  0  0  0
 34 32  1  0  0  0  0
 35 38  1  0  0  0  0
 35 36  1  0  0  0  0
 37 35  1  0  0  0  0
 39 40  1  0  0  0  0
 40 41  2  0  0  0  0
 40 55  1  0  0  0  0
 41 42  1  0  0  0  0
 43 44  1  0  0  0  0
 43 41  1  0  0  0  0
 45 43  2  0  0  0  0
 46 45  1  0  0  0  0
 47 45  1  0  0  0  0
 47 39  2  0  0  0  0
 48 50  1  0  0  0  0
 48 47  1  0  0  0  0
 49 48  1  0  0  0  0
 51 54  1  0  0  0  0
 51 48  1  0  0  0  0
 52 51  1  0  0  0  0
 53 51  1  0  0  0  0
 55 58  1  0  0  0  0
 55 56  1  0  0  0  0
 57 55  1  0  0  0  0
 58 60  1  0  0  0  0
 58 59  1  0  0  0  0
 61 58  1  0  0  0  0
M  END
