3,4,5
 OpenBabel05122313063D

 77 83  0  0  1  0  0  0  0  0999 V2000
    2.7373    2.3107    1.9417 O   0  0  0  0  0  0  0  0  0  0  0  0
   -2.7738   -2.1277    2.0429 O   0  0  0  0  0  0  0  0  0  0  0  0
    1.5066    1.1765    0.3002 N   0  0  0  0  0  2  0  0  0  0  0  0
   -0.0214    0.0925    1.8971 N   0  0  0  0  0  2  0  0  0  0  0  0
   -1.4774   -1.1520    0.3485 N   0  0  0  0  0  2  0  0  0  0  0  0
    1.8395    1.5315    1.5848 C   0  0  0  0  0  0  0  0  0  0  0  0
    0.9004    0.8511    2.5364 C   0  0  1  0  0  3  0  0  0  0  0  0
    0.8994    0.9357    3.9323 C   0  0  0  0  0  0  0  0  0  0  0  0
    1.6625    1.5643    4.4136 H   0  0  0  0  0  0  0  0  0  0  0  0
   -0.0723    0.2139    4.6533 C   0  0  0  0  0  0  0  0  0  0  0  0
   -0.0942    0.2641    5.7529 H   0  0  0  0  0  0  0  0  0  0  0  0
   -1.0138   -0.5749    3.9627 C   0  0  0  0  0  0  0  0  0  0  0  0
   -1.7937   -1.1630    4.4677 H   0  0  0  0  0  0  0  0  0  0  0  0
   -0.9609   -0.6164    2.5660 C   0  0  0  0  0  0  0  0  0  0  0  0
   -1.8604   -1.3875    1.6441 C   0  0  0  0  0  0  0  0  0  0  0  0
   -2.2413   -1.6333   -0.7240 C   0  0  0  0  0  0  0  0  0  0  0  0
   -1.6895   -2.6086   -1.5956 C   0  0  0  0  0  0  0  0  0  0  0  0
   -2.4157   -3.0129   -2.7319 C   0  0  0  0  0  0  0  0  0  0  0  0
   -1.9737   -3.7672   -3.4016 H   0  0  0  0  0  0  0  0  0  0  0  0
   -3.6933   -2.4981   -2.9887 C   0  0  0  0  0  0  0  0  0  0  0  0
   -4.2568   -2.8298   -3.8748 H   0  0  0  0  0  0  0  0  0  0  0  0
   -4.2521   -1.5607   -2.1088 C   0  0  0  0  0  0  0  0  0  0  0  0
   -5.2512   -1.1409   -2.3057 H   0  0  0  0  0  0  0  0  0  0  0  0
   -3.5359   -1.1028   -0.9855 C   0  0  0  0  0  0  0  0  0  0  0  0
   -4.1304   -0.0726   -0.0933 C   0  0  0  0  0  0  0  0  0  0  0  0
   -3.4236    1.1063    0.2336 C   0  0  0  0  0  0  0  0  0  0  0  0
   -2.4159    1.2619   -0.1795 H   0  0  0  0  0  0  0  0  0  0  0  0
   -3.9932    2.0649    1.0823 C   0  0  0  0  0  0  0  0  0  0  0  0
   -3.4186    2.9711    1.3263 H   0  0  0  0  0  0  0  0  0  0  0  0
   -5.2800    1.8723    1.6127 C   0  0  0  0  0  0  0  0  0  0  0  0
   -5.7217    2.6252    2.2848 H   0  0  0  0  0  0  0  0  0  0  0  0
   -5.9960    0.7104    1.2848 C   0  0  0  0  0  0  0  0  0  0  0  0
   -7.0020    0.5440    1.7019 H   0  0  0  0  0  0  0  0  0  0  0  0
   -5.4226   -0.2544    0.4432 C   0  0  0  0  0  0  0  0  0  0  0  0
   -5.9666   -1.1837    0.2145 H   0  0  0  0  0  0  0  0  0  0  0  0
   -0.3834   -3.2414   -1.2804 C   0  0  0  0  0  0  0  0  0  0  0  0
    0.6641   -3.2467   -2.2241 C   0  0  0  0  0  0  0  0  0  0  0  0
    0.5229   -2.7019   -3.1684 H   0  0  0  0  0  0  0  0  0  0  0  0
    1.8810   -3.8812   -1.9381 C   0  0  0  0  0  0  0  0  0  0  0  0
    2.6973   -3.8596   -2.6771 H   0  0  0  0  0  0  0  0  0  0  0  0
    2.0695   -4.5241   -0.7035 C   0  0  0  0  0  0  0  0  0  0  0  0
    3.0277   -5.0179   -0.4784 H   0  0  0  0  0  0  0  0  0  0  0  0
    1.0358   -4.5139    0.2478 C   0  0  0  0  0  0  0  0  0  0  0  0
    1.1772   -5.0074    1.2225 H   0  0  0  0  0  0  0  0  0  0  0  0
   -0.1804   -3.8746   -0.0354 C   0  0  0  0  0  0  0  0  0  0  0  0
   -0.9951   -3.8685    0.7052 H   0  0  0  0  0  0  0  0  0  0  0  0
    2.2844    1.6269   -0.7780 C   0  0  0  0  0  0  0  0  0  0  0  0
    1.7267    2.5491   -1.7058 C   0  0  0  0  0  0  0  0  0  0  0  0
    2.4724    2.9280   -2.8397 C   0  0  0  0  0  0  0  0  0  0  0  0
    2.0259    3.6381   -3.5531 H   0  0  0  0  0  0  0  0  0  0  0  0
    3.7725    2.4434   -3.0376 C   0  0  0  0  0  0  0  0  0  0  0  0
    4.3518    2.7584   -3.9194 H   0  0  0  0  0  0  0  0  0  0  0  0
    4.3305    1.5511   -2.1105 C   0  0  0  0  0  0  0  0  0  0  0  0
    5.3435    1.1481   -2.2664 H   0  0  0  0  0  0  0  0  0  0  0  0
    3.5945    1.1141   -0.9924 C   0  0  0  0  0  0  0  0  0  0  0  0
    4.1581    0.0998   -0.0634 C   0  0  0  0  0  0  0  0  0  0  0  0
    5.3951    0.3162    0.5766 C   0  0  0  0  0  0  0  0  0  0  0  0
    5.9260    1.2647    0.4033 H   0  0  0  0  0  0  0  0  0  0  0  0
    5.9253   -0.6442    1.4516 C   0  0  0  0  0  0  0  0  0  0  0  0
    6.8881   -0.4556    1.9527 H   0  0  0  0  0  0  0  0  0  0  0  0
    5.2196   -1.8311    1.7036 C   0  0  0  0  0  0  0  0  0  0  0  0
    5.6281   -2.5806    2.3998 H   0  0  0  0  0  0  0  0  0  0  0  0
    3.9866   -2.0560    1.0680 C   0  0  0  0  0  0  0  0  0  0  0  0
    3.4212   -2.9815    1.2517 H   0  0  0  0  0  0  0  0  0  0  0  0
    3.4592   -1.1019    0.1880 C   0  0  0  0  0  0  0  0  0  0  0  0
    2.4931   -1.2779   -0.3104 H   0  0  0  0  0  0  0  0  0  0  0  0
    0.3816    3.1317   -1.4550 C   0  0  0  0  0  0  0  0  0  0  0  0
    0.1326    3.8502   -0.2657 C   0  0  0  0  0  0  0  0  0  0  0  0
    0.9409    3.9521    0.4750 H   0  0  0  0  0  0  0  0  0  0  0  0
   -1.1239    4.4290   -0.0370 C   0  0  0  0  0  0  0  0  0  0  0  0
   -1.3038    4.9895    0.8940 H   0  0  0  0  0  0  0  0  0  0  0  0
   -2.1515    4.2889   -0.9849 C   0  0  0  0  0  0  0  0  0  0  0  0
   -3.1435    4.7272   -0.7968 H   0  0  0  0  0  0  0  0  0  0  0  0
   -1.9170    3.5581   -2.1600 C   0  0  0  0  0  0  0  0  0  0  0  0
   -2.7284    3.4126   -2.8896 H   0  0  0  0  0  0  0  0  0  0  0  0
   -0.6586    2.9855   -2.3946 C   0  0  0  0  0  0  0  0  0  0  0  0
   -0.4862    2.3717   -3.2906 H   0  0  0  0  0  0  0  0  0  0  0  0
  3  6  1  0  0  0  0
  4  7  1  0  0  0  0
  4 14  1  0  0  0  0
  5 15  1  0  0  0  0
  6  1  2  0  0  0  0
  7  6  1  6  0  0  0
  7  8  1  0  0  0  0
  8  9  1  0  0  0  0
  8 10  2  0  0  0  0
 10 11  1  0  0  0  0
 12 13  1  0  0  0  0
 12 10  1  0  0  0  0
 14 12  2  0  0  0  0
 15  2  2  0  0  0  0
 15 14  1  0  0  0  0
 16  5  1  0  0  0  0
 17 36  1  0  0  0  0
 17 16  2  0  0  0  0
 18 17  1  0  0  0  0
 19 18  1  0  0  0  0
 20 18  2  0  0  0  0
 20 22  1  0  0  0  0
 21 20  1  0  0  0  0
 22 24  2  0  0  0  0
 23 22  1  0  0  0  0
 24 16  1  0  0  0  0
 24 25  1  0  0  0  0
 25 26  2  0  0  0  0
 25 34  1  0  0  0  0
 26 28  1  0  0  0  0
 27 26  1  0  0  0  0
 28 29  1  0  0  0  0
 28 30  2  0  0  0  0
 30 31  1  0  0  0  0
 32 30  1  0  0  0  0
 32 33  1  0  0  0  0
 34 32  2  0  0  0  0
 35 34  1  0  0  0  0
 36 45  1  0  0  0  0
 37 39  1  0  0  0  0
 37 36  2  0  0  0  0
 38 37  1  0  0  0  0
 39 41  2  0  0  0  0
 40 39  1  0  0  0  0
 41 42  1  0  0  0  0
 41 43  1  0  0  0  0
 43 44  1  0  0  0  0
 45 43  2  0  0  0  0
 45 46  1  0  0  0  0
 47  3  1  0  0  0  0
 48 67  1  0  0  0  0
 48 47  2  0  0  0  0
 49 48  1  0  0  0  0
 50 49  1  0  0  0  0
 51 49  2  0  0  0  0
 51 53  1  0  0  0  0
 52 51  1  0  0  0  0
 53 55  2  0  0  0  0
 54 53  1  0  0  0  0
 55 47  1  0  0  0  0
 55 56  1  0  0  0  0
 56 65  2  0  0  0  0
 56 57  1  0  0  0  0
 57 59  2  0  0  0  0
 58 57  1  0  0  0  0
 59 61  1  0  0  0  0
 59 60  1  0  0  0  0
 61 62  1  0  0  0  0
 63 64  1  0  0  0  0
 63 61  2  0  0  0  0
 65 63  1  0  0  0  0
 66 65  1  0  0  0  0
 67 68  1  0  0  0  0
 68 70  2  0  0  0  0
 68 69  1  0  0  0  0
 70 71  1  0  0  0  0
 72 73  1  0  0  0  0
 72 70  1  0  0  0  0
 74 72  2  0  0  0  0
 75 74  1  0  0  0  0
 76 74  1  0  0  0  0
 76 67  2  0  0  0  0
 77 76  1  0  0  0  0
M  END
