2,4,6
 OpenBabel05122313063D

 63 65  0  0  1  0  0  0  0  0999 V2000
    0.0006   -0.0212   -3.6885 O   0  0  0  0  0  0  0  0  0  0  0  0
   -1.4337   -0.9709   -0.3955 N   0  0  0  0  0  2  0  0  0  0  0  0
   -3.2137   -1.7168   -1.4908 N   0  0  0  0  0  0  0  0  0  0  0  0
    1.4330   -0.9718   -0.3948 N   0  0  0  0  0  2  0  0  0  0  0  0
    3.2110   -1.7227   -1.4899 N   0  0  0  0  0  0  0  0  0  0  0  0
    0.0005    1.6318   -0.4159 N   0  0  0  0  0  2  0  0  0  0  0  0
    0.0040    3.5661   -1.5019 N   0  0  0  0  0  0  0  0  0  0  0  0
    0.0003   -0.0508   -2.2678 C   0  0  1  0  0  0  0  0  0  0  0  0
   -1.2476   -0.7440   -1.7412 C   0  0  0  0  0  0  0  0  0  0  0  0
   -2.3496   -1.1933   -2.4454 C   0  0  0  0  0  0  0  0  0  0  0  0
   -2.6189   -1.5667   -0.2575 C   0  0  2  0  0  3  0  0  0  0  0  0
   -4.5129   -2.3076   -1.7607 C   0  0  0  0  0  0  0  0  0  0  0  0
   -3.2370   -1.9787    1.0495 C   0  0  0  0  0  0  0  0  0  0  0  0
   -2.2288   -2.7793    1.8908 C   0  0  0  0  0  0  0  0  0  0  0  0
   -3.7401   -0.7398    1.8178 C   0  0  0  0  0  0  0  0  0  0  0  0
    1.2469   -0.7458   -1.7406 C   0  0  0  0  0  0  0  0  0  0  0  0
    2.3478   -1.1981   -2.4447 C   0  0  0  0  0  0  0  0  0  0  0  0
    2.6169   -1.5702   -0.2566 C   0  0  1  0  0  3  0  0  0  0  0  0
    4.5091   -2.3159   -1.7594 C   0  0  0  0  0  0  0  0  0  0  0  0
    3.2344   -1.9821    1.0508 C   0  0  0  0  0  0  0  0  0  0  0  0
    3.7381   -0.7433    1.8187 C   0  0  0  0  0  0  0  0  0  0  0  0
    2.2254   -2.7817    1.8920 C   0  0  0  0  0  0  0  0  0  0  0  0
    0.0013    1.3790   -1.7705 C   0  0  0  0  0  0  0  0  0  0  0  0
    0.0034    2.5677   -2.4698 C   0  0  0  0  0  0  0  0  0  0  0  0
    0.0022    2.9594   -0.2661 C   0  0  1  0  0  3  0  0  0  0  0  0
    0.0056    4.9941   -1.7687 C   0  0  0  0  0  0  0  0  0  0  0  0
    0.0021    3.6871    1.0498 C   0  0  0  0  0  0  0  0  0  0  0  0
   -1.2752    3.3644    1.8481 C   0  0  0  0  0  0  0  0  0  0  0  0
    1.2785    3.3632    1.8490 C   0  0  0  0  0  0  0  0  0  0  0  0
   -2.6031   -1.1658   -3.5091 H   0  0  0  0  0  0  0  0  0  0  0  0
   -4.7294   -2.2204   -2.8408 H   0  0  0  0  0  0  0  0  0  0  0  0
   -4.5335   -3.3812   -1.4841 H   0  0  0  0  0  0  0  0  0  0  0  0
   -5.3118   -1.7826   -1.2003 H   0  0  0  0  0  0  0  0  0  0  0  0
   -4.1041   -2.6334    0.8134 H   0  0  0  0  0  0  0  0  0  0  0  0
   -1.9007   -3.7005    1.3686 H   0  0  0  0  0  0  0  0  0  0  0  0
   -1.3372   -2.1533    2.0938 H   0  0  0  0  0  0  0  0  0  0  0  0
   -2.6760   -3.0616    2.8641 H   0  0  0  0  0  0  0  0  0  0  0  0
   -4.3053   -1.0528    2.7190 H   0  0  0  0  0  0  0  0  0  0  0  0
   -2.8691   -0.1419    2.1623 H   0  0  0  0  0  0  0  0  0  0  0  0
   -4.4049   -0.1110    1.1906 H   0  0  0  0  0  0  0  0  0  0  0  0
    2.6011   -1.1722   -3.5085 H   0  0  0  0  0  0  0  0  0  0  0  0
    4.5293   -3.3880   -1.4772 H   0  0  0  0  0  0  0  0  0  0  0  0
    4.7232   -2.2349   -2.8405 H   0  0  0  0  0  0  0  0  0  0  0  0
    5.3099   -1.7887   -1.2037 H   0  0  0  0  0  0  0  0  0  0  0  0
    4.1012   -2.6374    0.8151 H   0  0  0  0  0  0  0  0  0  0  0  0
    4.3028   -1.0563    2.7202 H   0  0  0  0  0  0  0  0  0  0  0  0
    4.4035   -0.1151    1.1916 H   0  0  0  0  0  0  0  0  0  0  0  0
    2.8674   -0.1447    2.1628 H   0  0  0  0  0  0  0  0  0  0  0  0
    1.8967   -3.7028    1.3699 H   0  0  0  0  0  0  0  0  0  0  0  0
    2.6724   -3.0643    2.8654 H   0  0  0  0  0  0  0  0  0  0  0  0
    1.3344   -2.1550    2.0949 H   0  0  0  0  0  0  0  0  0  0  0  0
    0.0044    2.7828   -3.5415 H   0  0  0  0  0  0  0  0  0  0  0  0
    0.9048    5.4812   -1.3411 H   0  0  0  0  0  0  0  0  0  0  0  0
    0.0099    5.1525   -2.8622 H   0  0  0  0  0  0  0  0  0  0  0  0
   -0.8962    5.4822   -1.3478 H   0  0  0  0  0  0  0  0  0  0  0  0
    0.0026    4.7747    0.8222 H   0  0  0  0  0  0  0  0  0  0  0  0
   -1.3246    2.2839    2.0889 H   0  0  0  0  0  0  0  0  0  0  0  0
   -1.2814    3.9229    2.8054 H   0  0  0  0  0  0  0  0  0  0  0  0
   -2.1863    3.6382    1.2781 H   0  0  0  0  0  0  0  0  0  0  0  0
    1.3265    2.2827    2.0902 H   0  0  0  0  0  0  0  0  0  0  0  0
    2.1902    3.6358    1.2795 H   0  0  0  0  0  0  0  0  0  0  0  0
    1.2846    3.9220    2.8062 H   0  0  0  0  0  0  0  0  0  0  0  0
   -0.0008   -0.9565   -3.9696 H   0  0  0  0  0  0  0  0  0  0  0  0
  2 11  1  0  0  0  0
  3 11  1  0  0  0  0
  4 18  1  0  0  0  0
  5 18  1  0  0  0  0
  6 25  1  0  0  0  0
  7 25  1  0  0  0  0
  8  1  1  6  0  0  0
  8 23  1  0  0  0  0
  8  9  1  0  0  0  0
  8 16  1  0  0  0  0
  9  2  1  0  0  0  0
 10  9  2  0  0  0  0
 10  3  1  0  0  0  0
 11 13  1  1  0  0  0
 12  3  1  0  0  0  0
 12 32  1  0  0  0  0
 12 33  1  0  0  0  0
 13 15  1  0  0  0  0
 13 14  1  0  0  0  0
 14 36  1  0  0  0  0
 14 37  1  0  0  0  0
 15 39  1  0  0  0  0
 15 38  1  0  0  0  0
 16  4  1  0  0  0  0
 17 16  2  0  0  0  0
 17  5  1  0  0  0  0
 18 20  1  1  0  0  0
 19  5  1  0  0  0  0
 19 42  1  0  0  0  0
 19 44  1  0  0  0  0
 20 21  1  0  0  0  0
 20 22  1  0  0  0  0
 21 48  1  0  0  0  0
 21 46  1  0  0  0  0
 22 51  1  0  0  0  0
 22 50  1  0  0  0  0
 23  6  1  0  0  0  0
 24 23  2  0  0  0  0
 24  7  1  0  0  0  0
 25 27  1  6  0  0  0
 26  7  1  0  0  0  0
 26 55  1  0  0  0  0
 26 53  1  0  0  0  0
 27 28  1  0  0  0  0
 27 29  1  0  0  0  0
 28 57  1  0  0  0  0
 28 58  1  0  0  0  0
 29 60  1  0  0  0  0
 29 62  1  0  0  0  0
 30 10  1  0  0  0  0
 31 12  1  0  0  0  0
 34 13  1  0  0  0  0
 35 14  1  0  0  0  0
 40 15  1  0  0  0  0
 41 17  1  0  0  0  0
 43 19  1  0  0  0  0
 45 20  1  0  0  0  0
 47 21  1  0  0  0  0
 49 22  1  0  0  0  0
 52 24  1  0  0  0  0
 54 26  1  0  0  0  0
 56 27  1  0  0  0  0
 59 28  1  0  0  0  0
 61 29  1  0  0  0  0
 63  1  1  0  0  0  0
M  END
