4,8,10
 OpenBabel05122313063D

 54 58  0  0  0  0  0  0  0  0999 V2000
    0.7072   -1.1757   -0.0910 P   0  0  0  0  0  4  0  0  0  0  0  0
    1.0383    1.6786    0.0386 P   0  0  0  0  0  4  0  0  0  0  0  0
    3.3272   -0.2165   -0.0498 P   0  0  0  0  0  4  0  0  0  0  0  0
    0.0547    0.3082   -0.1361 N   0  0  0  0  0  2  0  0  0  0  0  0
    2.5834    1.2197    0.0285 N   0  0  0  0  0  2  0  0  0  0  0  0
    2.2444   -1.5055   -0.1151 N   0  0  0  0  0  2  0  0  0  0  0  0
   -0.1940   -1.9925   -1.3476 N   0  0  0  0  0  0  0  0  0  0  0  0
   -1.5036   -1.6108   -1.4427 N   0  0  0  0  0  2  0  0  0  0  0  0
   -0.1109   -1.8911    1.2926 N   0  0  0  0  0  0  0  0  0  0  0  0
   -1.4029   -1.4798    1.4642 N   0  0  0  0  0  2  0  0  0  0  0  0
    0.6876    2.8752   -1.0614 N   0  0  0  0  0  0  0  0  0  0  0  0
    0.4741    2.5386    1.3538 N   0  0  0  0  0  0  0  0  0  0  0  0
    4.4400   -0.3850   -1.2910 N   0  0  0  0  0  0  0  0  0  0  0  0
    4.4509   -0.4270    1.1720 N   0  0  0  0  0  0  0  0  0  0  0  0
   -2.0418   -2.3727   -2.4074 C   0  0  0  0  0  3  0  0  0  0  0  0
   -3.0973   -2.2464   -2.6767 H   0  0  0  0  0  0  0  0  0  0  0  0
   -1.0704   -3.2574   -2.9373 C   0  0  0  0  0  0  0  0  0  0  0  0
   -1.2070   -3.9908   -3.7384 H   0  0  0  0  0  0  0  0  0  0  0  0
    0.0997   -2.9934   -2.2323 C   0  0  0  0  0  0  0  0  0  0  0  0
    1.1084   -3.4182   -2.2833 H   0  0  0  0  0  0  0  0  0  0  0  0
   -1.8692   -2.1508    2.5290 C   0  0  0  0  0  3  0  0  0  0  0  0
   -2.8979   -1.9849    2.8708 H   0  0  0  0  0  0  0  0  0  0  0  0
   -0.8673   -3.0062    3.0497 C   0  0  0  0  0  0  0  0  0  0  0  0
   -0.9455   -3.6699    3.9166 H   0  0  0  0  0  0  0  0  0  0  0  0
    0.2428   -2.8210    2.2310 C   0  0  0  0  0  0  0  0  0  0  0  0
    1.2467   -3.2602    2.2341 H   0  0  0  0  0  0  0  0  0  0  0  0
   -0.1337    3.9403   -0.4787 C   0  0  0  0  0  0  0  0  0  0  0  0
   -1.2180    3.7568   -0.6583 H   0  0  0  0  0  0  0  0  0  0  0  0
    0.1291    4.9128   -0.9429 H   0  0  0  0  0  0  0  0  0  0  0  0
    0.1918    3.9362    1.0239 C   0  0  0  0  0  0  0  0  0  0  0  0
    1.0671    4.5891    1.2503 H   0  0  0  0  0  0  0  0  0  0  0  0
   -0.6732    4.2928    1.6196 H   0  0  0  0  0  0  0  0  0  0  0  0
    0.7567    2.6931   -2.4987 C   0  0  0  0  0  0  0  0  0  0  0  0
    1.1675    3.6048   -2.9799 H   0  0  0  0  0  0  0  0  0  0  0  0
   -0.2377    2.4745   -2.9464 H   0  0  0  0  0  0  0  0  0  0  0  0
    1.4444    1.8564   -2.7314 H   0  0  0  0  0  0  0  0  0  0  0  0
    0.7165    2.1336    2.7227 C   0  0  0  0  0  0  0  0  0  0  0  0
   -0.1497    2.4148    3.3561 H   0  0  0  0  0  0  0  0  0  0  0  0
    1.6392    2.5869    3.1508 H   0  0  0  0  0  0  0  0  0  0  0  0
    0.8135    1.0297    2.7716 H   0  0  0  0  0  0  0  0  0  0  0  0
    5.8118   -0.3406   -0.7772 C   0  0  0  0  0  0  0  0  0  0  0  0
    6.2059    0.7033   -0.7596 H   0  0  0  0  0  0  0  0  0  0  0  0
    6.4794   -0.9511   -1.4193 H   0  0  0  0  0  0  0  0  0  0  0  0
    5.7252   -0.9159    0.6422 C   0  0  0  0  0  0  0  0  0  0  0  0
    5.7592   -2.0316    0.6238 H   0  0  0  0  0  0  0  0  0  0  0  0
    6.5630   -0.5563    1.2743 H   0  0  0  0  0  0  0  0  0  0  0  0
    4.1562    0.1053   -2.6266 C   0  0  0  0  0  0  0  0  0  0  0  0
    4.7852   -0.4322   -3.3648 H   0  0  0  0  0  0  0  0  0  0  0  0
    4.3367    1.1995   -2.7368 H   0  0  0  0  0  0  0  0  0  0  0  0
    3.0981   -0.1036   -2.8839 H   0  0  0  0  0  0  0  0  0  0  0  0
    4.0559   -0.7493    2.5277 C   0  0  0  0  0  0  0  0  0  0  0  0
    4.8218   -0.3855    3.2426 H   0  0  0  0  0  0  0  0  0  0  0  0
    3.9162   -1.8438    2.6921 H   0  0  0  0  0  0  0  0  0  0  0  0
    3.1068   -0.2312    2.7724 H   0  0  0  0  0  0  0  0  0  0  0  0
  1  9  1  0  0  0  0
  2 12  1  0  0  0  0
  3  5  1  0  0  0  0
  3 14  1  0  0  0  0
  4  1  1  0  0  0  0
  4  2  1  0  0  0  0
  5  2  1  0  0  0  0
  6  1  1  0  0  0  0
  6  3  1  0  0  0  0
  7  1  1  0  0  0  0
  8  7  1  0  0  0  0
  9 10  1  0  0  0  0
  9 25  1  0  0  0  0
 10 21  1  0  0  0  0
 11 27  1  0  0  0  0
 11  2  1  0  0  0  0
 12 37  1  0  0  0  0
 13 41  1  0  0  0  0
 13  3  1  0  0  0  0
 14 51  1  0  0  0  0
 15  8  1  0  0  0  0
 16 15  1  0  0  0  0
 17 15  1  0  0  0  0
 17 19  2  0  0  0  0
 18 17  1  0  0  0  0
 19  7  1  0  0  0  0
 20 19  1  0  0  0  0
 21 22  1  0  0  0  0
 21 23  1  0  0  0  0
 23 24  1  0  0  0  0
 25 26  1  0  0  0  0
 25 23  2  0  0  0  0
 27 30  1  0  0  0  0
 28 27  1  0  0  0  0
 29 27  1  0  0  0  0
 30 31  1  0  0  0  0
 30 12  1  0  0  0  0
 30 32  1  0  0  0  0
 33 11  1  0  0  0  0
 34 33  1  0  0  0  0
 35 33  1  0  0  0  0
 36 33  1  0  0  0  0
 37 40  1  0  0  0  0
 37 39  1  0  0  0  0
 37 38  1  0  0  0  0
 41 42  1  0  0  0  0
 41 44  1  0  0  0  0
 43 41  1  0  0  0  0
 44 14  1  0  0  0  0
 44 46  1  0  0  0  0
 45 44  1  0  0  0  0
 47 13  1  0  0  0  0
 48 47  1  0  0  0  0
 49 47  1  0  0  0  0
 50 47  1  0  0  0  0
 51 53  1  0  0  0  0
 51 54  1  0  0  0  0
 51 52  1  0  0  0  0
M  END
