1,2,4
 OpenBabel05122313063D

 47 49  0  0  1  0  0  0  0  0999 V2000
   -0.8417   -1.9749   -0.1335 N   0  0  0  0  0  2  0  0  0  0  0  0
    1.7421   -1.2987    0.0458 N   0  0  0  0  0  0  0  0  0  0  0  0
    2.0499   -1.9355    0.7973 H   0  0  0  0  0  0  0  0  0  0  0  0
   -2.0294   -0.0801    1.3293 N   0  0  0  0  0  0  0  0  0  0  0  0
   -2.0245    0.2194    2.3149 H   0  0  0  0  0  0  0  0  0  0  0  0
    1.3265   -2.1301   -1.1439 C   0  0  0  0  0  0  0  0  0  0  0  0
    2.0789   -2.9214   -1.3426 H   0  0  0  0  0  0  0  0  0  0  0  0
    1.3361   -1.4540   -2.0238 H   0  0  0  0  0  0  0  0  0  0  0  0
   -0.0668   -2.6906   -0.9797 C   0  0  2  0  0  3  0  0  0  0  0  0
   -0.6160   -3.7959   -1.6413 C   0  0  0  0  0  0  0  0  0  0  0  0
   -0.0018   -4.3996   -2.3244 H   0  0  0  0  0  0  0  0  0  0  0  0
   -1.9692   -4.1073   -1.4193 C   0  0  0  0  0  0  0  0  0  0  0  0
   -2.4233   -4.9642   -1.9381 H   0  0  0  0  0  0  0  0  0  0  0  0
   -2.7458   -3.3374   -0.5345 C   0  0  0  0  0  0  0  0  0  0  0  0
   -3.8023   -3.5803   -0.3516 H   0  0  0  0  0  0  0  0  0  0  0  0
   -2.1405   -2.2614    0.1246 C   0  0  0  0  0  0  0  0  0  0  0  0
   -2.7522   -1.3895    1.2001 C   0  0  0  0  0  0  0  0  0  0  0  0
   -2.6379   -1.9150    2.1719 H   0  0  0  0  0  0  0  0  0  0  0  0
   -3.8362   -1.2224    1.0334 H   0  0  0  0  0  0  0  0  0  0  0  0
    2.8402   -0.3884   -0.2358 C   0  0  0  0  0  0  0  0  0  0  0  0
    4.0761   -0.5776    0.3950 C   0  0  0  0  0  0  0  0  0  0  0  0
    4.2208   -1.4134    1.0982 H   0  0  0  0  0  0  0  0  0  0  0  0
    5.1303    0.3087    0.1329 C   0  0  0  0  0  0  0  0  0  0  0  0
    6.0979    0.1553    0.6340 H   0  0  0  0  0  0  0  0  0  0  0  0
    4.9724    1.3890   -0.7569 C   0  0  0  0  0  0  0  0  0  0  0  0
    3.7127    1.5584   -1.3762 C   0  0  0  0  0  0  0  0  0  0  0  0
    3.5576    2.4048   -2.0626 H   0  0  0  0  0  0  0  0  0  0  0  0
    2.6506    0.6888   -1.1176 C   0  0  0  0  0  0  0  0  0  0  0  0
    1.6639    0.8671   -1.5728 H   0  0  0  0  0  0  0  0  0  0  0  0
    6.0943    2.3558   -1.0248 C   0  0  0  0  0  0  0  0  0  0  0  0
    7.0537    1.9995   -0.6050 H   0  0  0  0  0  0  0  0  0  0  0  0
    5.8757    3.3460   -0.5721 H   0  0  0  0  0  0  0  0  0  0  0  0
    6.2317    2.5238   -2.1120 H   0  0  0  0  0  0  0  0  0  0  0  0
   -2.5227    1.0177    0.5120 C   0  0  0  0  0  0  0  0  0  0  0  0
   -3.1224    0.7907   -0.7367 C   0  0  0  0  0  0  0  0  0  0  0  0
   -3.2505   -0.2266   -1.1338 H   0  0  0  0  0  0  0  0  0  0  0  0
   -3.5614    1.8831   -1.4996 C   0  0  0  0  0  0  0  0  0  0  0  0
   -4.0349    1.6968   -2.4756 H   0  0  0  0  0  0  0  0  0  0  0  0
   -3.4123    3.2079   -1.0449 C   0  0  0  0  0  0  0  0  0  0  0  0
   -2.7954    3.4060    0.2108 C   0  0  0  0  0  0  0  0  0  0  0  0
   -2.6570    4.4295    0.5915 H   0  0  0  0  0  0  0  0  0  0  0  0
   -2.3518    2.3314    0.9852 C   0  0  0  0  0  0  0  0  0  0  0  0
   -1.8400    2.5069    1.9434 H   0  0  0  0  0  0  0  0  0  0  0  0
   -3.9008    4.3783   -1.8553 C   0  0  0  0  0  0  0  0  0  0  0  0
   -4.2157    4.0737   -2.8712 H   0  0  0  0  0  0  0  0  0  0  0  0
   -3.1162    5.1556   -1.9536 H   0  0  0  0  0  0  0  0  0  0  0  0
   -4.7705    4.8634   -1.3641 H   0  0  0  0  0  0  0  0  0  0  0  0
  1 16  1  0  0  0  0
  2  3  1  0  0  0  0
  4  5  1  0  0  0  0
  6  2  1  0  0  0  0
  7  6  1  0  0  0  0
  8  6  1  0  0  0  0
  9  6  1  6  0  0  0
  9  1  1  0  0  0  0
 10 12  2  0  0  0  0
 10  9  1  0  0  0  0
 11 10  1  0  0  0  0
 12 14  1  0  0  0  0
 13 12  1  0  0  0  0
 14 15  1  0  0  0  0
 14 16  2  0  0  0  0
 16 17  1  0  0  0  0
 17  4  1  0  0  0  0
 17 18  1  0  0  0  0
 19 17  1  0  0  0  0
 20  2  1  0  0  0  0
 20 21  1  0  0  0  0
 21 22  1  0  0  0  0
 23 21  2  0  0  0  0
 23 24  1  0  0  0  0
 25 23  1  0  0  0  0
 26 28  1  0  0  0  0
 26 25  2  0  0  0  0
 27 26  1  0  0  0  0
 28 20  2  0  0  0  0
 29 28  1  0  0  0  0
 30 25  1  0  0  0  0
 30 31  1  0  0  0  0
 30 32  1  0  0  0  0
 33 30  1  0  0  0  0
 34 42  1  0  0  0  0
 34  4  1  0  0  0  0
 35 34  2  0  0  0  0
 36 35  1  0  0  0  0
 37 39  2  0  0  0  0
 37 35  1  0  0  0  0
 38 37  1  0  0  0  0
 39 40  1  0  0  0  0
 40 41  1  0  0  0  0
 40 42  2  0  0  0  0
 42 43  1  0  0  0  0
 44 47  1  0  0  0  0
 44 39  1  0  0  0  0
 45 44  1  0  0  0  0
 46 44  1  0  0  0  0
M  END
