2,3,4
 OpenBabel05122313063D

 25 26  0  0  0  0  0  0  0  0999 V2000
    0.1434    3.7176    0.0278 O   0  0  0  0  0  0  0  0  0  0  0  0
   -0.8269   -1.1297    0.0174 N   0  0  0  0  0  2  0  0  0  0  0  0
   -0.0383    1.4212   -0.0101 N   0  0  0  0  0  2  0  0  0  0  0  0
    2.6640    1.0224   -0.0848 N   0  0  0  0  0  0  0  0  0  0  0  0
    3.3677    0.7239    0.6095 H   0  0  0  0  0  0  0  0  0  0  0  0
    3.1067    0.9050   -1.0106 H   0  0  0  0  0  0  0  0  0  0  0  0
   -1.1107   -2.4370    0.0392 C   0  0  0  0  0  0  0  0  0  0  0  0
   -0.2506   -3.1246    0.0519 H   0  0  0  0  0  0  0  0  0  0  0  0
   -2.4516   -2.8757    0.0435 C   0  0  0  0  0  0  0  0  0  0  0  0
   -2.6544   -3.9553    0.0607 H   0  0  0  0  0  0  0  0  0  0  0  0
   -3.4815   -1.9414    0.0256 C   0  0  0  0  0  0  0  0  0  0  0  0
   -4.5316   -2.2718    0.0285 H   0  0  0  0  0  0  0  0  0  0  0  0
   -3.1953   -0.5483    0.0037 C   0  0  0  0  0  0  0  0  0  0  0  0
   -4.1814    0.4789   -0.0147 C   0  0  0  0  0  3  0  0  0  0  0  0
   -5.2449    0.2000   -0.0140 H   0  0  0  0  0  0  0  0  0  0  0  0
   -3.7894    1.8112   -0.0340 C   0  0  0  0  0  0  0  0  0  0  0  0
   -4.5530    2.6028   -0.0479 H   0  0  0  0  0  0  0  0  0  0  0  0
   -2.4239    2.1963   -0.0367 C   0  0  0  0  0  0  0  0  0  0  0  0
   -2.1330    3.2537   -0.0498 H   0  0  0  0  0  0  0  0  0  0  0  0
   -1.4262    1.2151   -0.0194 C   0  0  0  0  0  0  0  0  0  0  0  0
   -1.8168   -0.1593   -0.0001 C   0  0  0  0  0  0  0  0  0  0  0  0
    0.6579    2.6125    0.0298 C   0  0  0  0  0  0  0  0  0  0  0  0
    2.1920    2.4291    0.1338 C   0  0  0  0  0  0  0  0  0  0  0  0
    2.6775    3.1127   -0.5887 H   0  0  0  0  0  0  0  0  0  0  0  0
    2.4915    2.7533    1.1500 H   0  0  0  0  0  0  0  0  0  0  0  0
  1 22  2  0  0  0  0
  2  7  1  0  0  0  0
  3 22  1  0  0  0  0
  4 23  1  0  0  0  0
  4  5  1  0  0  0  0
  6  4  1  0  0  0  0
  7  9  2  0  0  0  0
  7  8  1  0  0  0  0
  9 10  1  0  0  0  0
 11 12  1  0  0  0  0
 11  9  1  0  0  0  0
 13 11  2  0  0  0  0
 14 15  1  0  0  0  0
 14 13  1  0  0  0  0
 16 14  1  0  0  0  0
 17 16  1  0  0  0  0
 18 16  2  0  0  0  0
 18 20  1  0  0  0  0
 19 18  1  0  0  0  0
 20  3  1  0  0  0  0
 20 21  2  0  0  0  0
 21 13  1  0  0  0  0
 21  2  1  0  0  0  0
 22 23  1  0  0  0  0
 23 25  1  0  0  0  0
 24 23  1  0  0  0  0
M  END
