2,4,6
 OpenBabel05122313063D

 36 39  0  0  0  0  0  0  0  0999 V2000
    7.8108   -0.2467    0.0014 Br  0  0  0  0  0  0  0  0  0  0  0  0
   -0.3156   -1.5241    0.0071 N   0  0  0  0  0  2  0  0  0  0  0  0
    0.8221    1.0007   -1.2444 N   0  0  0  0  0  0  0  0  0  0  0  0
   -0.5285    0.9166    1.3945 N   0  0  0  0  0  2  0  0  0  0  0  0
    0.8218    1.0138    1.2332 N   0  0  0  0  0  0  0  0  0  0  0  0
   -0.5283    0.9030   -1.4043 N   0  0  0  0  0  2  0  0  0  0  0  0
    5.2217    0.0005   -1.2168 C   0  0  0  0  0  0  0  0  0  0  0  0
    5.7657   -0.0896   -2.1678 H   0  0  0  0  0  0  0  0  0  0  0  0
    1.0058   -1.2055    0.0059 N   0  0  0  0  0  0  0  0  0  0  0  0
    0.8737   -3.4392    0.0184 C   0  0  0  0  0  0  0  0  0  0  0  0
    1.1365   -4.5014    0.0247 H   0  0  0  0  0  0  0  0  0  0  0  0
    5.9163   -0.0500    0.0004 C   0  0  0  0  0  0  0  0  0  0  0  0
   -0.8719    1.6614   -2.4660 C   0  0  0  0  0  3  0  0  0  0  0  0
   -1.9220    1.7188   -2.7726 H   0  0  0  0  0  0  0  0  0  0  0  0
    1.3247    1.8582   -2.1794 C   0  0  0  0  0  0  0  0  0  0  0  0
    2.3881    2.1112   -2.1971 H   0  0  0  0  0  0  0  0  0  0  0  0
    1.7479   -2.3528    0.0128 C   0  0  0  0  0  3  0  0  0  0  0  0
    2.8408   -2.3111    0.0134 H   0  0  0  0  0  0  0  0  0  0  0  0
    3.8266    0.1529   -1.2016 C   0  0  0  0  0  0  0  0  0  0  0  0
    3.3026    0.1427   -2.1687 H   0  0  0  0  0  0  0  0  0  0  0  0
    5.2226    0.0213    1.2171 C   0  0  0  0  0  0  0  0  0  0  0  0
    5.7673   -0.0526    2.1690 H   0  0  0  0  0  0  0  0  0  0  0  0
   -0.4176   -2.8685    0.0145 C   0  0  0  0  0  0  0  0  0  0  0  0
   -1.4080   -3.3369    0.0168 H   0  0  0  0  0  0  0  0  0  0  0  0
    1.3238    1.8817    2.1589 C   0  0  0  0  0  3  0  0  0  0  0  0
    2.3869    2.1360    2.1733 H   0  0  0  0  0  0  0  0  0  0  0  0
    3.0882    0.2774   -0.0014 C   0  0  0  0  0  0  0  0  0  0  0  0
    0.2741    2.3239    2.9652 C   0  0  0  0  0  0  0  0  0  0  0  0
    0.3334    3.0161    3.8105 H   0  0  0  0  0  0  0  0  0  0  0  0
    0.2751    2.2928   -2.9900 C   0  0  0  0  0  0  0  0  0  0  0  0
    0.3348    2.9759   -3.8428 H   0  0  0  0  0  0  0  0  0  0  0  0
    1.4724    0.2929   -0.0017 B   0  0  1  0  0  0  0  0  0  0  0  0
    3.8275    0.1733    1.2002 C   0  0  0  0  0  0  0  0  0  0  0  0
    3.3041    0.1795    2.1676 H   0  0  0  0  0  0  0  0  0  0  0  0
   -0.8725    1.6857    2.4483 C   0  0  0  0  0  0  0  0  0  0  0  0
   -1.9226    1.7454    2.7541 H   0  0  0  0  0  0  0  0  0  0  0  0
  2 23  1  0  0  0  0
  3 32  1  0  0  0  0
  4 35  1  0  0  0  0
  5  4  1  0  0  0  0
  5 25  1  0  0  0  0
  6  3  1  0  0  0  0
  7 19  2  0  0  0  0
  7 12  1  0  0  0  0
  8  7  1  0  0  0  0
  9  2  1  0  0  0  0
  9 17  1  0  0  0  0
 10 11  1  0  0  0  0
 12  1  1  0  0  0  0
 12 21  2  0  0  0  0
 13  6  1  0  0  0  0
 14 13  1  0  0  0  0
 15  3  1  0  0  0  0
 16 15  1  0  0  0  0
 17 18  1  0  0  0  0
 17 10  1  0  0  0  0
 19 27  1  0  0  0  0
 20 19  1  0  0  0  0
 21 22  1  0  0  0  0
 23 24  1  0  0  0  0
 23 10  2  0  0  0  0
 25 26  1  0  0  0  0
 25 28  1  0  0  0  0
 27 33  2  0  0  0  0
 28 29  1  0  0  0  0
 30 13  1  0  0  0  0
 30 15  2  0  0  0  0
 31 30  1  0  0  0  0
 32 27  1  6  0  0  0
 32  9  1  0  0  0  0
 32  5  1  0  0  0  0
 33 21  1  0  0  0  0
 33 34  1  0  0  0  0
 35 36  1  0  0  0  0
 35 28  2  0  0  0  0
M  END
