1,11,21
 OpenBabel05122313063D

 38 37  0  0  0  0  0  0  0  0999 V2000
    1.4538   -1.9352    0.0237 N   0  0  0  0  0  0  0  0  0  0  0  0
    0.4980   -3.0497    0.1806 C   0  0  0  0  0  0  0  0  0  0  0  0
    1.0686   -4.0123    0.1604 H   0  0  0  0  0  0  0  0  0  0  0  0
   -0.1596   -3.0461   -0.7133 H   0  0  0  0  0  0  0  0  0  0  0  0
   -0.3720   -3.0146    1.4394 C   0  0  0  0  0  0  0  0  0  0  0  0
    0.2424   -2.8216    2.3461 H   0  0  0  0  0  0  0  0  0  0  0  0
   -0.7650   -4.0425    1.5805 H   0  0  0  0  0  0  0  0  0  0  0  0
   -1.5912   -2.0963    1.4098 C   0  0  0  0  0  0  0  0  0  0  0  0
   -2.1354   -2.2150    0.4489 H   0  0  0  0  0  0  0  0  0  0  0  0
   -2.3023   -2.4205    2.2071 H   0  0  0  0  0  0  0  0  0  0  0  0
   -1.3202   -0.6472    1.5769 N   0  0  0  0  0  0  0  0  0  0  0  0
   -0.8436   -0.5148    2.4824 H   0  0  0  0  0  0  0  0  0  0  0  0
    2.4863   -1.9518    1.0718 C   0  0  0  0  0  0  0  0  0  0  0  0
    2.0442   -1.7552    2.0672 H   0  0  0  0  0  0  0  0  0  0  0  0
    3.2445   -1.1727    0.8680 H   0  0  0  0  0  0  0  0  0  0  0  0
    3.0030   -2.9414    1.1068 H   0  0  0  0  0  0  0  0  0  0  0  0
    2.0879   -2.0272   -1.3056 C   0  0  0  0  0  0  0  0  0  0  0  0
    1.3146   -1.9128   -2.0899 H   0  0  0  0  0  0  0  0  0  0  0  0
    2.5971   -3.0120   -1.4361 H   0  0  0  0  0  0  0  0  0  0  0  0
    2.8454   -1.2282   -1.4174 H   0  0  0  0  0  0  0  0  0  0  0  0
   -0.8120    2.4190    0.1219 N   0  0  0  0  0  0  0  0  0  0  0  0
   -2.2425    2.3578    0.4784 C   0  0  0  0  0  0  0  0  0  0  0  0
   -2.6377    3.4009    0.5676 H   0  0  0  0  0  0  0  0  0  0  0  0
   -2.7830    1.8847   -0.3682 H   0  0  0  0  0  0  0  0  0  0  0  0
   -2.5625    1.5846    1.7613 C   0  0  0  0  0  0  0  0  0  0  0  0
   -1.8885    1.8874    2.5925 H   0  0  0  0  0  0  0  0  0  0  0  0
   -3.5733    1.9072    2.0856 H   0  0  0  0  0  0  0  0  0  0  0  0
   -2.6228    0.0647    1.6342 C   0  0  0  0  0  0  0  0  0  0  0  0
   -3.1790   -0.2069    0.7112 H   0  0  0  0  0  0  0  0  0  0  0  0
   -3.2149   -0.3476    2.4861 H   0  0  0  0  0  0  0  0  0  0  0  0
   -0.0485    3.2487    1.0647 C   0  0  0  0  0  0  0  0  0  0  0  0
   -0.1511    2.8631    2.0969 H   0  0  0  0  0  0  0  0  0  0  0  0
    1.0229    3.2060    0.7934 H   0  0  0  0  0  0  0  0  0  0  0  0
   -0.4041    4.3071    1.0480 H   0  0  0  0  0  0  0  0  0  0  0  0
   -0.6504    2.9504   -1.2426 C   0  0  0  0  0  0  0  0  0  0  0  0
   -1.1688    2.2904   -1.9643 H   0  0  0  0  0  0  0  0  0  0  0  0
   -1.0648    3.9836   -1.3264 H   0  0  0  0  0  0  0  0  0  0  0  0
    0.4272    2.9753   -1.4949 H   0  0  0  0  0  0  0  0  0  0  0  0
  1  2  1  0  0  0  0
  1 13  1  0  0  0  0
  2  5  1  0  0  0  0
  3  2  1  0  0  0  0
  4  2  1  0  0  0  0
  5  7  1  0  0  0  0
  5  6  1  0  0  0  0
  8  5  1  0  0  0  0
  8 11  1  0  0  0  0
  8 10  1  0  0  0  0
  9  8  1  0  0  0  0
 11 28  1  0  0  0  0
 11 12  1  0  0  0  0
 13 16  1  0  0  0  0
 13 14  1  0  0  0  0
 15 13  1  0  0  0  0
 17  1  1  0  0  0  0
 18 17  1  0  0  0  0
 19 17  1  0  0  0  0
 20 17  1  0  0  0  0
 21 22  1  0  0  0  0
 21 31  1  0  0  0  0
 22 23  1  0  0  0  0
 22 25  1  0  0  0  0
 24 22  1  0  0  0  0
 25 27  1  0  0  0  0
 25 26  1  0  0  0  0
 28 25  1  0  0  0  0
 28 30  1  0  0  0  0
 29 28  1  0  0  0  0
 31 32  1  0  0  0  0
 33 31  1  0  0  0  0
 34 31  1  0  0  0  0
 35 21  1  0  0  0  0
 36 35  1  0  0  0  0
 37 35  1  0  0  0  0
 38 35  1  0  0  0  0
M  END
