3,4,5
 OpenBabel05122313063D

 35 36  0  0  1  0  0  0  0  0999 V2000
    0.2101    1.2723   -1.8386 O   0  0  0  0  0  0  0  0  0  0  0  0
    0.9577    1.8963   -1.7231 H   0  0  0  0  0  0  0  0  0  0  0  0
    1.7570   -0.4199   -0.1567 N   0  0  0  0  0  2  0  0  0  0  0  0
   -0.5783   -1.2634   -1.1335 N   0  0  0  0  0  0  0  0  0  0  0  0
   -1.9030    0.7371   -0.0532 N   0  0  0  0  0  2  0  0  0  0  0  0
    2.9331    0.1804    0.1523 C   0  0  0  0  0  3  0  0  0  0  0  0
    2.8724    1.2197    0.5095 H   0  0  0  0  0  0  0  0  0  0  0  0
    4.1588   -0.4838    0.0380 C   0  0  0  0  0  0  0  0  0  0  0  0
    5.0819    0.0482    0.3087 H   0  0  0  0  0  0  0  0  0  0  0  0
    4.1842   -1.8116   -0.4118 C   0  0  0  0  0  0  0  0  0  0  0  0
    5.1334   -2.3583   -0.5098 H   0  0  0  0  0  0  0  0  0  0  0  0
    2.9664   -2.4320   -0.7331 C   0  0  0  0  0  0  0  0  0  0  0  0
    2.9347   -3.4728   -1.0874 H   0  0  0  0  0  0  0  0  0  0  0  0
    1.7733   -1.7172   -0.5901 C   0  0  0  0  0  0  0  0  0  0  0  0
    0.4170   -2.3270   -0.8469 C   0  0  0  0  0  0  0  0  0  0  0  0
    0.4620   -3.0806   -1.6650 H   0  0  0  0  0  0  0  0  0  0  0  0
    0.0912   -2.8593    0.0752 H   0  0  0  0  0  0  0  0  0  0  0  0
   -1.9652   -1.5955   -0.7021 C   0  0  0  0  0  0  0  0  0  0  0  0
   -1.9025   -2.1926    0.2338 H   0  0  0  0  0  0  0  0  0  0  0  0
   -2.4967   -2.2167   -1.4575 H   0  0  0  0  0  0  0  0  0  0  0  0
   -2.7013   -0.3055   -0.4307 C   0  0  1  0  0  3  0  0  0  0  0  0
   -4.0905   -0.1686   -0.5149 C   0  0  0  0  0  0  0  0  0  0  0  0
   -4.7027   -1.0265   -0.8295 H   0  0  0  0  0  0  0  0  0  0  0  0
   -4.6808    1.0617   -0.1835 C   0  0  0  0  0  0  0  0  0  0  0  0
   -5.7722    1.1880   -0.2333 H   0  0  0  0  0  0  0  0  0  0  0  0
   -3.8505    2.1221    0.2107 C   0  0  0  0  0  0  0  0  0  0  0  0
   -4.2667    3.1023    0.4841 H   0  0  0  0  0  0  0  0  0  0  0  0
   -2.4672    1.9256    0.2597 C   0  0  0  0  0  0  0  0  0  0  0  0
   -1.7585    2.7086    0.5687 H   0  0  0  0  0  0  0  0  0  0  0  0
   -0.5731   -0.8108   -2.5568 C   0  0  0  0  0  0  0  0  0  0  0  0
   -0.4456   -1.6721   -3.2490 H   0  0  0  0  0  0  0  0  0  0  0  0
   -1.5652   -0.3588   -2.7583 H   0  0  0  0  0  0  0  0  0  0  0  0
    0.4812    0.2549   -2.8118 C   0  0  0  0  0  0  0  0  0  0  0  0
    0.3667    0.6587   -3.8415 H   0  0  0  0  0  0  0  0  0  0  0  0
    1.5119   -0.1438   -2.7039 H   0  0  0  0  0  0  0  0  0  0  0  0
  1  2  1  0  0  0  0
  3  6  1  0  0  0  0
  4 15  1  0  0  0  0
  4 18  1  0  0  0  0
  5 28  1  0  0  0  0
  6  7  1  0  0  0  0
  8  6  1  0  0  0  0
  8  9  1  0  0  0  0
 10  8  2  0  0  0  0
 11 10  1  0  0  0  0
 12 14  2  0  0  0  0
 12 10  1  0  0  0  0
 13 12  1  0  0  0  0
 14  3  1  0  0  0  0
 15 14  1  0  0  0  0
 15 17  1  0  0  0  0
 16 15  1  0  0  0  0
 18 19  1  0  0  0  0
 20 18  1  0  0  0  0
 21 18  1  1  0  0  0
 21  5  1  0  0  0  0
 22 21  1  0  0  0  0
 22 24  2  0  0  0  0
 23 22  1  0  0  0  0
 24 26  1  0  0  0  0
 25 24  1  0  0  0  0
 26 28  2  0  0  0  0
 26 27  1  0  0  0  0
 28 29  1  0  0  0  0
 30  4  1  0  0  0  0
 31 30  1  0  0  0  0
 32 30  1  0  0  0  0
 33 35  1  0  0  0  0
 33 30  1  0  0  0  0
 33  1  1  0  0  0  0
 34 33  1  0  0  0  0
M  END
