2,4
 OpenBabel05122313063D

 44 46  0  0  1  0  0  0  0  0999 V2000
    4.5538    2.4490    0.1067 F   0  0  0  0  0  0  0  0  0  0  0  0
   -2.8752   -0.1060    1.4742 N   0  0  0  0  0  0  0  0  0  0  0  0
   -3.3856   -0.9556    1.7442 H   0  0  0  0  0  0  0  0  0  0  0  0
   -2.1809    1.2398   -0.8343 N   0  0  0  0  0  2  0  0  0  0  0  0
   -3.6423    2.8794   -0.6532 N   0  0  0  0  0  0  0  0  0  0  0  0
   -4.4348    3.4363   -0.3262 H   0  0  0  0  0  0  0  0  0  0  0  0
    0.0006    0.6360    1.2903 N   0  0  0  0  0  0  0  0  0  0  0  0
    2.8222    0.3446    0.6106 N   0  0  0  0  0  0  0  0  0  0  0  0
   -3.2376    1.6870   -0.1419 C   0  0  1  0  0  3  0  0  0  0  0  0
   -2.8167    3.2052   -1.7161 C   0  0  0  0  0  0  0  0  0  0  0  0
   -2.9449    4.1241   -2.2961 H   0  0  0  0  0  0  0  0  0  0  0  0
   -1.9057    2.1722   -1.8187 C   0  0  0  0  0  0  0  0  0  0  0  0
   -1.0865    2.0357   -2.5320 H   0  0  0  0  0  0  0  0  0  0  0  0
   -3.8672    0.8708    0.9444 C   0  0  0  0  0  0  0  0  0  0  0  0
   -4.2838    1.5103    1.7535 H   0  0  0  0  0  0  0  0  0  0  0  0
   -4.7134    0.2892    0.5188 H   0  0  0  0  0  0  0  0  0  0  0  0
   -2.0924    0.3651    2.6489 C   0  0  0  0  0  0  0  0  0  0  0  0
   -1.6902   -0.5344    3.1554 H   0  0  0  0  0  0  0  0  0  0  0  0
   -2.7469    0.8891    3.3794 H   0  0  0  0  0  0  0  0  0  0  0  0
   -0.9678    1.2898    2.2145 C   0  0  0  0  0  0  0  0  0  0  0  0
   -1.3862    2.1747    1.6937 H   0  0  0  0  0  0  0  0  0  0  0  0
   -0.4353    1.6764    3.1119 H   0  0  0  0  0  0  0  0  0  0  0  0
    0.7965    1.7224    0.6348 C   0  0  0  0  0  0  0  0  0  0  0  0
    1.2007    2.3837    1.4346 H   0  0  0  0  0  0  0  0  0  0  0  0
    0.1119    2.3202    0.0028 H   0  0  0  0  0  0  0  0  0  0  0  0
    1.9569    1.1974   -0.1936 C   0  0  0  0  0  0  0  0  0  0  0  0
    1.5748    0.6559   -1.0916 H   0  0  0  0  0  0  0  0  0  0  0  0
    2.5303    2.0691   -0.5569 H   0  0  0  0  0  0  0  0  0  0  0  0
    2.0959   -0.7500    1.2205 C   0  0  0  0  0  0  0  0  0  0  0  0
    2.7763   -1.3175    1.8856 H   0  0  0  0  0  0  0  0  0  0  0  0
    1.6912   -1.4751    0.4705 H   0  0  0  0  0  0  0  0  0  0  0  0
    0.9583   -0.2066    2.0771 C   0  0  0  0  0  0  0  0  0  0  0  0
    0.4066   -1.0423    2.5471 H   0  0  0  0  0  0  0  0  0  0  0  0
    1.3929    0.4262    2.8838 H   0  0  0  0  0  0  0  0  0  0  0  0
    4.1318    0.1015    0.1372 C   0  0  0  0  0  0  0  0  0  0  0  0
    5.0072    1.1886   -0.1071 C   0  0  0  0  0  0  0  0  0  0  0  0
    6.3160    1.0098   -0.5501 C   0  0  0  0  0  0  0  0  0  0  0  0
    6.9396    1.8996   -0.7180 H   0  0  0  0  0  0  0  0  0  0  0  0
    6.8091   -0.2912   -0.7412 C   0  0  0  0  0  0  0  0  0  0  0  0
    7.8445   -0.4396   -1.0796 H   0  0  0  0  0  0  0  0  0  0  0  0
    5.9745   -1.3895   -0.4933 C   0  0  0  0  0  0  0  0  0  0  0  0
    6.3486   -2.4129   -0.6417 H   0  0  0  0  0  0  0  0  0  0  0  0
    4.6507   -1.1955   -0.0695 C   0  0  0  0  0  0  0  0  0  0  0  0
    4.0066   -2.0708    0.0927 H   0  0  0  0  0  0  0  0  0  0  0  0
  2  3  1  0  0  0  0
  2 17  1  0  0  0  0
  4  9  1  0  0  0  0
  5  6  1  0  0  0  0
  5  9  1  0  0  0  0
  7 32  1  0  0  0  0
  7 20  1  0  0  0  0
  8 29  1  0  0  0  0
  9 14  1  6  0  0  0
 10  5  1  0  0  0  0
 11 10  1  0  0  0  0
 12 10  2  0  0  0  0
 12  4  1  0  0  0  0
 13 12  1  0  0  0  0
 14  2  1  0  0  0  0
 14 15  1  0  0  0  0
 16 14  1  0  0  0  0
 17 18  1  0  0  0  0
 17 19  1  0  0  0  0
 20 17  1  0  0  0  0
 20 22  1  0  0  0  0
 21 20  1  0  0  0  0
 23  7  1  0  0  0  0
 23 24  1  0  0  0  0
 25 23  1  0  0  0  0
 26  8  1  0  0  0  0
 26 23  1  0  0  0  0
 27 26  1  0  0  0  0
 28 26  1  0  0  0  0
 29 30  1  0  0  0  0
 29 32  1  0  0  0  0
 31 29  1  0  0  0  0
 32 33  1  0  0  0  0
 32 34  1  0  0  0  0
 35  8  1  0  0  0  0
 36  1  1  0  0  0  0
 36 35  2  0  0  0  0
 37 36  1  0  0  0  0
 38 37  1  0  0  0  0
 39 37  2  0  0  0  0
 39 41  1  0  0  0  0
 40 39  1  0  0  0  0
 41 43  2  0  0  0  0
 42 41  1  0  0  0  0
 43 44  1  0  0  0  0
 43 35  1  0  0  0  0
M  END
