1,3,5
 OpenBabel05122313063D

 42 42  0  0  1  0  0  0  0  0999 V2000
   -1.5149   -2.1640   -0.0015 N   0  0  0  0  0  2  0  0  0  0  0  0
   -0.1808   -2.4124   -0.0019 N   0  0  0  0  0  0  0  0  0  0  0  0
    0.1007   -0.1296   -0.0042 N   0  0  0  0  0  2  0  0  0  0  0  0
    0.3656    2.1541   -0.0024 N   0  0  0  0  0  0  0  0  0  0  0  0
   -0.9891    2.2293   -0.0037 N   0  0  0  0  0  2  0  0  0  0  0  0
    1.9970   -1.5685   -0.0014 N   0  0  0  0  0  0  0  0  0  0  0  0
    2.2851    0.8338   -0.0018 N   0  0  0  0  0  0  0  0  0  0  0  0
    4.0949   -0.6607   -0.0008 N   0  0  0  0  0  0  0  0  0  0  0  0
    5.0068    0.3332   -0.0004 N   0  0  0  0  0  0  0  0  0  0  0  0
   -3.8240   -2.7116    0.0037 C   0  0  0  0  0  0  0  0  0  0  0  0
   -4.0216   -2.0594   -0.8760 H   0  0  0  0  0  0  0  0  0  0  0  0
   -4.0234   -2.0682    0.8895 H   0  0  0  0  0  0  0  0  0  0  0  0
   -4.5081   -3.5791   -0.0012 H   0  0  0  0  0  0  0  0  0  0  0  0
   -2.3818   -3.1296    0.0033 C   0  0  0  0  0  3  0  0  0  0  0  0
   -1.9700   -4.5795    0.0089 C   0  0  0  0  0  0  0  0  0  0  0  0
   -1.3653   -4.8303   -0.8910 H   0  0  0  0  0  0  0  0  0  0  0  0
   -2.8479   -5.2490    0.0204 H   0  0  0  0  0  0  0  0  0  0  0  0
   -1.3498   -4.8194    0.9011 H   0  0  0  0  0  0  0  0  0  0  0  0
   -3.1023    3.3096    0.0010 C   0  0  0  0  0  0  0  0  0  0  0  0
   -3.4496    2.7361    0.8891 H   0  0  0  0  0  0  0  0  0  0  0  0
   -3.4490    2.7195   -0.8764 H   0  0  0  0  0  0  0  0  0  0  0  0
   -3.5608    4.3146   -0.0083 H   0  0  0  0  0  0  0  0  0  0  0  0
   -1.6021    3.3733    0.0015 C   0  0  0  0  0  3  0  0  0  0  0  0
   -0.8579    4.6838    0.0095 C   0  0  0  0  0  0  0  0  0  0  0  0
   -0.1982    4.7674    0.9015 H   0  0  0  0  0  0  0  0  0  0  0  0
   -1.5518    5.5425    0.0226 H   0  0  0  0  0  0  0  0  0  0  0  0
   -0.2108    4.7850   -0.8900 H   0  0  0  0  0  0  0  0  0  0  0  0
    0.6794   -1.3452   -0.0027 C   0  0  1  0  0  3  0  0  0  0  0  0
    0.9497    0.9154   -0.0029 C   0  0  0  0  0  0  0  0  0  0  0  0
    2.7419   -0.4324   -0.0015 C   0  0  0  0  0  0  0  0  0  0  0  0
    6.2622    0.0045    0.0002 C   0  0  0  0  0  0  0  0  0  0  0  0
    6.7615   -1.4225    0.0004 C   0  0  0  0  0  0  0  0  0  0  0  0
    6.4062   -1.9795    0.8957 H   0  0  0  0  0  0  0  0  0  0  0  0
    7.8659   -1.4642    0.0003 H   0  0  0  0  0  0  0  0  0  0  0  0
    6.4061   -1.9797   -0.8948 H   0  0  0  0  0  0  0  0  0  0  0  0
    7.2638    1.1219    0.0009 C   0  0  0  0  0  0  0  0  0  0  0  0
    6.7448    2.0975    0.0008 H   0  0  0  0  0  0  0  0  0  0  0  0
    7.9268    1.0625   -0.8895 H   0  0  0  0  0  0  0  0  0  0  0  0
    7.9260    1.0622    0.8919 H   0  0  0  0  0  0  0  0  0  0  0  0
    0.2216   -3.3561    0.0010 H   0  0  0  0  0  0  0  0  0  0  0  0
    4.3540   -1.6572   -0.0005 H   0  0  0  0  0  0  0  0  0  0  0  0
    0.9840    2.9731   -0.0005 H   0  0  0  0  0  0  0  0  0  0  0  0
  1 14  1  0  0  0  0
  2  1  1  0  0  0  0
  2 40  1  0  0  0  0
  3 29  1  0  0  0  0
  3 28  1  0  0  0  0
  4 42  1  0  0  0  0
  5  4  1  0  0  0  0
  5 23  1  0  0  0  0
  7 30  1  0  0  0  0
  8 41  1  0  0  0  0
  8  9  1  0  0  0  0
  9 31  2  0  0  0  0
 10 12  1  0  0  0  0
 11 10  1  0  0  0  0
 13 10  1  0  0  0  0
 14 10  1  0  0  0  0
 14 15  1  0  0  0  0
 15 17  1  0  0  0  0
 15 18  1  0  0  0  0
 16 15  1  0  0  0  0
 19 23  1  0  0  0  0
 19 20  1  0  0  0  0
 21 19  1  0  0  0  0
 22 19  1  0  0  0  0
 23 24  1  0  0  0  0
 24 26  1  0  0  0  0
 24 25  1  0  0  0  0
 27 24  1  0  0  0  0
 28  2  1  1  0  0  0
 28  6  1  0  0  0  0
 29  4  1  0  0  0  0
 29  7  2  0  0  0  0
 30  6  2  0  0  0  0
 30  8  1  0  0  0  0
 31 32  1  0  0  0  0
 31 36  1  0  0  0  0
 32 33  1  0  0  0  0
 34 32  1  0  0  0  0
 35 32  1  0  0  0  0
 36 39  1  0  0  0  0
 37 36  1  0  0  0  0
 38 36  1  0  0  0  0
M  END
