2,4,6
 OpenBabel05122313063D

 72 75  0  0  0  0  0  0  0  0999 V2000
    0.8176    0.5361    1.2623 N   0  0  0  0  0  0  0  0  0  0  0  0
   -0.5088    0.1626    1.2717 N   0  0  0  0  0  2  0  0  0  0  0  0
    1.5984   -1.0931   -0.5053 N   0  0  0  0  0  0  0  0  0  0  0  0
    0.3470   -1.5830   -0.6426 N   0  0  0  0  0  2  0  0  0  0  0  0
    1.0719    1.3390   -1.0474 N   0  0  0  0  0  0  0  0  0  0  0  0
   -0.2589    1.1344   -1.2297 N   0  0  0  0  0  2  0  0  0  0  0  0
    1.1089    1.2427    2.3861 C   0  0  0  0  0  3  0  0  0  0  0  0
   -0.0304    1.2994    3.1776 C   0  0  0  0  0  0  0  0  0  0  0  0
   -1.0285    0.6031    2.4492 C   0  0  0  0  0  0  0  0  0  0  0  0
   -2.4672    0.4318    2.9337 C   0  0  0  0  0  0  0  0  0  0  0  0
   -2.4432    0.0127    4.4224 C   0  0  0  0  0  0  0  0  0  0  0  0
   -3.1966    1.7938    2.8260 C   0  0  0  0  0  0  0  0  0  0  0  0
   -3.2462   -0.6399    2.1580 C   0  0  0  0  0  0  0  0  0  0  0  0
    2.4923   -2.1263   -0.4914 C   0  0  0  0  0  3  0  0  0  0  0  0
    1.7780   -3.3164   -0.6098 C   0  0  0  0  0  0  0  0  0  0  0  0
    0.4134   -2.9359   -0.6820 C   0  0  0  0  0  0  0  0  0  0  0  0
   -0.8557   -3.7631   -0.6225 C   0  0  0  0  0  0  0  0  0  0  0  0
   -0.6655   -4.8921    0.4141 C   0  0  0  0  0  0  0  0  0  0  0  0
   -1.9751   -2.8277   -0.1254 C   0  0  0  0  0  0  0  0  0  0  0  0
   -1.2124   -4.3911   -1.9865 C   0  0  0  0  0  0  0  0  0  0  0  0
    1.3752    2.6292   -1.3816 C   0  0  0  0  0  3  0  0  0  0  0  0
    0.2090    3.2594   -1.8066 C   0  0  0  0  0  0  0  0  0  0  0  0
   -0.8146    2.2875   -1.6775 C   0  0  0  0  0  0  0  0  0  0  0  0
   -2.3198    2.4254   -1.7966 C   0  0  0  0  0  0  0  0  0  0  0  0
   -2.7468    3.7798   -1.1898 C   0  0  0  0  0  0  0  0  0  0  0  0
   -2.7949    2.3584   -3.2637 C   0  0  0  0  0  0  0  0  0  0  0  0
   -2.9458    1.2934   -0.9590 C   0  0  0  0  0  0  0  0  0  0  0  0
    3.3140    0.6457    0.2281 C   0  0  0  0  0  0  0  0  0  0  0  0
    4.1392    1.0742   -0.8383 C   0  0  0  0  0  0  0  0  0  0  0  0
    5.5315    1.1918   -0.6983 C   0  0  0  0  0  0  0  0  0  0  0  0
    6.1466    0.8639    0.5193 C   0  0  0  0  0  0  0  0  0  0  0  0
    5.3577    0.3960    1.5815 C   0  0  0  0  0  0  0  0  0  0  0  0
    3.9666    0.2823    1.4297 C   0  0  0  0  0  0  0  0  0  0  0  0
    1.7429    0.3727   -0.0167 B   0  0  0  0  0  0  0  0  0  0  0  0
    2.1061    1.6633    2.5417 H   0  0  0  0  0  0  0  0  0  0  0  0
   -0.1272    1.7766    4.1572 H   0  0  0  0  0  0  0  0  0  0  0  0
   -3.4782   -0.1501    4.7875 H   0  0  0  0  0  0  0  0  0  0  0  0
   -1.9815    0.7883    5.0644 H   0  0  0  0  0  0  0  0  0  0  0  0
   -1.8745   -0.9285    4.5614 H   0  0  0  0  0  0  0  0  0  0  0  0
   -4.2216    1.7175    3.2450 H   0  0  0  0  0  0  0  0  0  0  0  0
   -3.2835    2.1302    1.7748 H   0  0  0  0  0  0  0  0  0  0  0  0
   -2.6524    2.5806    3.3852 H   0  0  0  0  0  0  0  0  0  0  0  0
   -4.3152   -0.6184    2.4511 H   0  0  0  0  0  0  0  0  0  0  0  0
   -2.8561   -1.6513    2.3825 H   0  0  0  0  0  0  0  0  0  0  0  0
   -3.1807   -0.4936    1.0633 H   0  0  0  0  0  0  0  0  0  0  0  0
    3.5630   -1.9331   -0.3779 H   0  0  0  0  0  0  0  0  0  0  0  0
    2.1856   -4.3318   -0.6218 H   0  0  0  0  0  0  0  0  0  0  0  0
   -1.6033   -5.4746    0.5253 H   0  0  0  0  0  0  0  0  0  0  0  0
   -0.3877   -4.4834    1.4063 H   0  0  0  0  0  0  0  0  0  0  0  0
    0.1305   -5.5964    0.0993 H   0  0  0  0  0  0  0  0  0  0  0  0
   -2.9502   -3.3479   -0.0362 H   0  0  0  0  0  0  0  0  0  0  0  0
   -2.1825   -2.0120   -0.8887 H   0  0  0  0  0  0  0  0  0  0  0  0
   -1.7140   -2.4068    0.8601 H   0  0  0  0  0  0  0  0  0  0  0  0
   -2.1226   -5.0201   -1.8955 H   0  0  0  0  0  0  0  0  0  0  0  0
   -0.3862   -5.0373   -2.3456 H   0  0  0  0  0  0  0  0  0  0  0  0
   -1.3990   -3.6160   -2.7524 H   0  0  0  0  0  0  0  0  0  0  0  0
    2.3925    3.0132   -1.2660 H   0  0  0  0  0  0  0  0  0  0  0  0
    0.1044    4.2942   -2.1462 H   0  0  0  0  0  0  0  0  0  0  0  0
   -3.8522    3.8737   -1.1995 H   0  0  0  0  0  0  0  0  0  0  0  0
   -2.3342    4.6296   -1.7699 H   0  0  0  0  0  0  0  0  0  0  0  0
   -2.3963    3.8784   -0.1428 H   0  0  0  0  0  0  0  0  0  0  0  0
   -3.8947    2.4984   -3.3204 H   0  0  0  0  0  0  0  0  0  0  0  0
   -2.5435    1.3851   -3.7250 H   0  0  0  0  0  0  0  0  0  0  0  0
   -2.3172    3.1576   -3.8654 H   0  0  0  0  0  0  0  0  0  0  0  0
   -4.0537    1.3166   -0.9756 H   0  0  0  0  0  0  0  0  0  0  0  0
   -2.6164    1.3670    0.0916 H   0  0  0  0  0  0  0  0  0  0  0  0
   -2.6972    0.2805   -1.4144 H   0  0  0  0  0  0  0  0  0  0  0  0
    3.6884    1.2980   -1.8172 H   0  0  0  0  0  0  0  0  0  0  0  0
    6.1403    1.5325   -1.5503 H   0  0  0  0  0  0  0  0  0  0  0  0
    7.2375    0.9561    0.6347 H   0  0  0  0  0  0  0  0  0  0  0  0
    5.8295    0.1073    2.5337 H   0  0  0  0  0  0  0  0  0  0  0  0
    3.3786   -0.1261    2.2658 H   0  0  0  0  0  0  0  0  0  0  0  0
  1  2  1  0  0  0  0
  1  7  1  0  0  0  0
  2  9  1  0  0  0  0
  3 14  1  0  0  0  0
  3 34  1  0  0  0  0
  4  3  1  0  0  0  0
  5 34  1  0  0  0  0
  6  5  1  0  0  0  0
  7 35  1  0  0  0  0
  7  8  1  0  0  0  0
  8 36  1  0  0  0  0
  9 10  1  0  0  0  0
  9  8  2  0  0  0  0
 10 11  1  0  0  0  0
 11 39  1  0  0  0  0
 11 37  1  0  0  0  0
 11 38  1  0  0  0  0
 12 10  1  0  0  0  0
 12 40  1  0  0  0  0
 12 42  1  0  0  0  0
 13 44  1  0  0  0  0
 13 43  1  0  0  0  0
 13 10  1  0  0  0  0
 14 46  1  0  0  0  0
 15 14  1  0  0  0  0
 16  4  1  0  0  0  0
 16 17  1  0  0  0  0
 16 15  2  0  0  0  0
 17 19  1  0  0  0  0
 17 18  1  0  0  0  0
 18 48  1  0  0  0  0
 18 49  1  0  0  0  0
 19 51  1  0  0  0  0
 19 53  1  0  0  0  0
 20 54  1  0  0  0  0
 20 17  1  0  0  0  0
 21 57  1  0  0  0  0
 21  5  1  0  0  0  0
 22 23  2  0  0  0  0
 22 21  1  0  0  0  0
 23  6  1  0  0  0  0
 24 23  1  0  0  0  0
 24 25  1  0  0  0  0
 24 27  1  0  0  0  0
 25 61  1  0  0  0  0
 26 24  1  0  0  0  0
 27 66  1  0  0  0  0
 28 33  1  0  0  0  0
 29 30  1  0  0  0  0
 29 28  2  0  0  0  0
 30 31  2  0  0  0  0
 31 70  1  0  0  0  0
 31 32  1  0  0  0  0
 32 71  1  0  0  0  0
 33 32  2  0  0  0  0
 33 72  1  0  0  0  0
 34 28  1  0  0  0  0
 34  1  1  0  0  0  0
 41 12  1  0  0  0  0
 45 13  1  0  0  0  0
 47 15  1  0  0  0  0
 50 18  1  0  0  0  0
 52 19  1  0  0  0  0
 55 20  1  0  0  0  0
 56 20  1  0  0  0  0
 58 22  1  0  0  0  0
 59 25  1  0  0  0  0
 60 25  1  0  0  0  0
 62 26  1  0  0  0  0
 63 26  1  0  0  0  0
 64 26  1  0  0  0  0
 65 27  1  0  0  0  0
 67 27  1  0  0  0  0
 68 29  1  0  0  0  0
 69 30  1  0  0  0  0
M  END
