1,2,3
 OpenBabel05122313063D

 23 22  0  0  0  0  0  0  0  0999 V2000
   -0.3133   -2.0581   -0.1016 N   0  0  0  0  0  0  0  0  0  0  0  0
   -2.2778    0.0000    0.0209 N   0  0  0  0  0  0  0  0  0  0  0  0
   -0.3131    2.0581   -0.1022 N   0  0  0  0  0  0  0  0  0  0  0  0
   -1.7711   -2.4226   -0.1506 C   0  0  0  0  0  0  0  0  0  0  0  0
   -2.5947   -1.2628   -0.7196 C   0  0  0  0  0  0  0  0  0  0  0  0
   -2.9012   -0.0004    1.3693 C   0  0  0  0  0  0  0  0  0  0  0  0
   -2.5950    1.2632   -0.7190 C   0  0  0  0  0  0  0  0  0  0  0  0
   -1.7709    2.4227   -0.1500 C   0  0  0  0  0  0  0  0  0  0  0  0
    0.1740   -2.3372   -0.9697 H   0  0  0  0  0  0  0  0  0  0  0  0
    0.1743   -2.5611    0.6579 H   0  0  0  0  0  0  0  0  0  0  0  0
    0.1732    2.3365   -0.9710 H   0  0  0  0  0  0  0  0  0  0  0  0
    0.1752    2.5617    0.6564 H   0  0  0  0  0  0  0  0  0  0  0  0
   -1.9303   -3.3356   -0.7591 H   0  0  0  0  0  0  0  0  0  0  0  0
   -2.0914   -2.6647    0.8808 H   0  0  0  0  0  0  0  0  0  0  0  0
   -2.3421   -1.0964   -1.7855 H   0  0  0  0  0  0  0  0  0  0  0  0
   -3.6802   -1.4989   -0.6569 H   0  0  0  0  0  0  0  0  0  0  0  0
   -2.5791   -0.8888    1.9393 H   0  0  0  0  0  0  0  0  0  0  0  0
   -4.0092   -0.0020    1.2792 H   0  0  0  0  0  0  0  0  0  0  0  0
   -2.5818    0.8896    1.9385 H   0  0  0  0  0  0  0  0  0  0  0  0
   -2.3429    1.0971   -1.7851 H   0  0  0  0  0  0  0  0  0  0  0  0
   -3.6804    1.4993   -0.6557 H   0  0  0  0  0  0  0  0  0  0  0  0
   -1.9306    3.3360   -0.7577 H   0  0  0  0  0  0  0  0  0  0  0  0
   -2.0904    2.6640    0.8818 H   0  0  0  0  0  0  0  0  0  0  0  0
  1 10  1  0  0  0  0
  2  6  1  0  0  0  0
  3 12  1  0  0  0  0
  4  1  1  0  0  0  0
  4 14  1  0  0  0  0
  5 16  1  0  0  0  0
  5  4  1  0  0  0  0
  5  2  1  0  0  0  0
  6 19  1  0  0  0  0
  6 17  1  0  0  0  0
  7 21  1  0  0  0  0
  7  8  1  0  0  0  0
  7  2  1  0  0  0  0
  8  3  1  0  0  0  0
  8 23  1  0  0  0  0
  9  1  1  0  0  0  0
 11  3  1  0  0  0  0
 13  4  1  0  0  0  0
 15  5  1  0  0  0  0
 18  6  1  0  0  0  0
 20  7  1  0  0  0  0
 22  8  1  0  0  0  0
M  END
