1,3,4
 OpenBabel05122313063D

 61 66  0  0  1  0  0  0  0  0999 V2000
   -4.0090   -2.1159    0.1680 N   0  0  0  0  0  2  0  0  0  0  0  0
    6.0695    0.0000    0.0001 N   0  0  0  0  0  0  0  0  0  0  0  0
   -2.4699   -0.0000    0.0001 N   0  0  0  0  0  2  0  0  0  0  0  0
   -4.0091    2.1158   -0.1681 N   0  0  0  0  0  2  0  0  0  0  0  0
   -2.6867    2.3718   -0.0773 C   0  0  0  0  0  0  0  0  0  0  0  0
   -2.2061    3.6941   -0.0386 C   0  0  0  0  0  0  0  0  0  0  0  0
   -1.1300    3.8988    0.0430 H   0  0  0  0  0  0  0  0  0  0  0  0
   -3.1242    4.7504   -0.0959 C   0  0  0  0  0  0  0  0  0  0  0  0
   -2.7702    5.7917   -0.0630 H   0  0  0  0  0  0  0  0  0  0  0  0
   -0.4087    1.2061   -0.0388 C   0  0  0  0  0  0  0  0  0  0  0  0
    0.1223    2.1645   -0.1089 H   0  0  0  0  0  0  0  0  0  0  0  0
    1.8037   -0.0000    0.0000 C   0  0  0  0  0  0  0  0  0  0  0  0
   -2.2061   -3.6942    0.0386 C   0  0  0  0  0  0  0  0  0  0  0  0
   -1.1299   -3.8989   -0.0429 H   0  0  0  0  0  0  0  0  0  0  0  0
   -2.6867   -2.3719    0.0774 C   0  0  2  0  0  3  0  0  0  0  0  0
    0.3269   -0.0000    0.0001 C   0  0  0  0  0  0  0  0  0  0  0  0
   -1.8115    1.1676   -0.0311 C   0  0  0  0  0  0  0  0  0  0  0  0
   -1.8115   -1.1676    0.0313 C   0  0  0  0  0  0  0  0  0  0  0  0
    3.9349   -1.0596   -0.5951 C   0  0  0  0  0  0  0  0  0  0  0  0
    4.4794   -1.8803   -1.0826 H   0  0  0  0  0  0  0  0  0  0  0  0
    3.9348    1.0596    0.5952 C   0  0  0  0  0  0  0  0  0  0  0  0
    4.4794    1.8803    1.0827 H   0  0  0  0  0  0  0  0  0  0  0  0
    4.6615    0.0000    0.0000 C   0  0  0  0  0  0  0  0  0  0  0  0
    6.7902    1.2226   -0.0885 C   0  0  0  0  0  0  0  0  0  0  0  0
    6.7902   -1.2226    0.0886 C   0  0  0  0  0  0  0  0  0  0  0  0
    7.1016   -3.4311    1.0721 C   0  0  0  0  0  0  0  0  0  0  0  0
    6.7765   -4.2066    1.7822 H   0  0  0  0  0  0  0  0  0  0  0  0
    6.3861   -2.2295    0.9922 C   0  0  0  0  0  0  0  0  0  0  0  0
    5.5080   -2.0594    1.6318 H   0  0  0  0  0  0  0  0  0  0  0  0
    8.2361   -3.6410    0.2707 C   0  0  0  0  0  0  0  0  0  0  0  0
    8.7994   -4.5831    0.3417 H   0  0  0  0  0  0  0  0  0  0  0  0
    2.5400   -1.0577   -0.5846 C   0  0  0  0  0  0  0  0  0  0  0  0
    2.0061   -1.8772   -1.0888 H   0  0  0  0  0  0  0  0  0  0  0  0
   -4.8905    3.1202   -0.2247 C   0  0  0  0  0  0  0  0  0  0  0  0
   -5.9500    2.8239   -0.2975 H   0  0  0  0  0  0  0  0  0  0  0  0
   -0.4087   -1.2062    0.0389 C   0  0  0  0  0  0  0  0  0  0  0  0
    0.1223   -2.1645    0.1090 H   0  0  0  0  0  0  0  0  0  0  0  0
    7.1015    3.4311   -1.0720 C   0  0  0  0  0  0  0  0  0  0  0  0
    6.7764    4.2067   -1.7821 H   0  0  0  0  0  0  0  0  0  0  0  0
    8.6456   -2.6353   -0.6202 C   0  0  0  0  0  0  0  0  0  0  0  0
    9.5298   -2.7893   -1.2574 H   0  0  0  0  0  0  0  0  0  0  0  0
   -4.4942    4.4651   -0.1927 C   0  0  0  0  0  0  0  0  0  0  0  0
   -5.2448    5.2668   -0.2408 H   0  0  0  0  0  0  0  0  0  0  0  0
   -4.4942   -4.4652    0.1924 C   0  0  0  0  0  0  0  0  0  0  0  0
   -5.2448   -5.2669    0.2404 H   0  0  0  0  0  0  0  0  0  0  0  0
    7.9275   -1.4368   -0.7199 C   0  0  0  0  0  0  0  0  0  0  0  0
    8.2417   -0.6536   -1.4248 H   0  0  0  0  0  0  0  0  0  0  0  0
    2.5400    1.0577    0.5847 C   0  0  0  0  0  0  0  0  0  0  0  0
    2.0061    1.8772    1.0889 H   0  0  0  0  0  0  0  0  0  0  0  0
   -3.1242   -4.7504    0.0957 C   0  0  0  0  0  0  0  0  0  0  0  0
   -2.7702   -5.7918    0.0629 H   0  0  0  0  0  0  0  0  0  0  0  0
   -4.8905   -3.1203    0.2246 C   0  0  0  0  0  0  0  0  0  0  0  0
   -5.9500   -2.8240    0.2973 H   0  0  0  0  0  0  0  0  0  0  0  0
    8.6456    2.6353    0.6203 C   0  0  0  0  0  0  0  0  0  0  0  0
    9.5297    2.7894    1.2575 H   0  0  0  0  0  0  0  0  0  0  0  0
    6.3861    2.2295   -0.9921 C   0  0  0  0  0  0  0  0  0  0  0  0
    5.5079    2.0594   -1.6317 H   0  0  0  0  0  0  0  0  0  0  0  0
    8.2360    3.6410   -0.2707 C   0  0  0  0  0  0  0  0  0  0  0  0
    8.7993    4.5831   -0.3417 H   0  0  0  0  0  0  0  0  0  0  0  0
    7.9275    1.4368    0.7200 C   0  0  0  0  0  0  0  0  0  0  0  0
    8.2418    0.6537    1.4249 H   0  0  0  0  0  0  0  0  0  0  0  0
  1 52  1  0  0  0  0
  2 25  1  0  0  0  0
  3 18  1  0  0  0  0
  4  5  1  0  0  0  0
  5  6  1  0  0  0  0
  5 17  2  0  0  0  0
  6  7  1  0  0  0  0
  8  9  1  0  0  0  0
  8  6  2  0  0  0  0
 10 17  1  0  0  0  0
 10 16  2  0  0  0  0
 11 10  1  0  0  0  0
 12 16  1  0  0  0  0
 12 48  1  0  0  0  0
 13 15  1  0  0  0  0
 13 50  2  0  0  0  0
 14 13  1  0  0  0  0
 15 18  1  1  0  0  0
 15  1  1  0  0  0  0
 16 36  1  0  0  0  0
 17  3  1  0  0  0  0
 18 36  2  0  0  0  0
 19 32  1  0  0  0  0
 19 23  2  0  0  0  0
 20 19  1  0  0  0  0
 21 22  1  0  0  0  0
 23  2  1  0  0  0  0
 23 21  1  0  0  0  0
 24  2  1  0  0  0  0
 24 60  1  0  0  0  0
 25 28  1  0  0  0  0
 26 27  1  0  0  0  0
 28 26  2  0  0  0  0
 28 29  1  0  0  0  0
 30 31  1  0  0  0  0
 30 26  1  0  0  0  0
 32 12  2  0  0  0  0
 33 32  1  0  0  0  0
 34 42  2  0  0  0  0
 34  4  1  0  0  0  0
 35 34  1  0  0  0  0
 36 37  1  0  0  0  0
 38 56  1  0  0  0  0
 38 58  2  0  0  0  0
 39 38  1  0  0  0  0
 40 30  2  0  0  0  0
 41 40  1  0  0  0  0
 42  8  1  0  0  0  0
 43 42  1  0  0  0  0
 44 52  2  0  0  0  0
 44 45  1  0  0  0  0
 46 40  1  0  0  0  0
 46 25  2  0  0  0  0
 47 46  1  0  0  0  0
 48 21  2  0  0  0  0
 48 49  1  0  0  0  0
 50 44  1  0  0  0  0
 51 50  1  0  0  0  0
 52 53  1  0  0  0  0
 54 60  2  0  0  0  0
 54 55  1  0  0  0  0
 56 24  2  0  0  0  0
 57 56  1  0  0  0  0
 58 54  1  0  0  0  0
 59 58  1  0  0  0  0
 60 61  1  0  0  0  0
M  END
