1,9,20
 OpenBabel05122313063D

 30 30  0  0  0  0  0  0  0  0999 V2000
   -0.6254    0.9531    1.5608 N   0  0  0  0  0  0  0  0  0  0  0  0
    0.0619    1.1388    2.3062 H   0  0  0  0  0  0  0  0  0  0  0  0
   -1.6262   -0.0158    2.0674 C   0  0  0  0  0  0  0  0  0  0  0  0
   -2.5138    0.0321    1.4040 H   0  0  0  0  0  0  0  0  0  0  0  0
   -1.9793    0.2481    3.0873 H   0  0  0  0  0  0  0  0  0  0  0  0
   -1.0462   -1.4341    2.0601 C   0  0  0  0  0  0  0  0  0  0  0  0
   -0.1747   -1.4887    2.7452 H   0  0  0  0  0  0  0  0  0  0  0  0
   -1.8022   -2.1565    2.4368 H   0  0  0  0  0  0  0  0  0  0  0  0
   -0.5693   -1.7907    0.6992 N   0  0  0  0  0  0  0  0  0  0  0  0
    0.1563   -2.5164    0.7785 H   0  0  0  0  0  0  0  0  0  0  0  0
   -1.6300   -2.2705   -0.2349 C   0  0  0  0  0  0  0  0  0  0  0  0
   -2.5975   -1.8414    0.0991 H   0  0  0  0  0  0  0  0  0  0  0  0
   -1.7319   -3.3720   -0.1404 H   0  0  0  0  0  0  0  0  0  0  0  0
   -1.3927   -1.8881   -1.7008 C   0  0  0  0  0  0  0  0  0  0  0  0
   -0.3627   -2.1693   -2.0151 H   0  0  0  0  0  0  0  0  0  0  0  0
   -2.0670   -2.5164   -2.3180 H   0  0  0  0  0  0  0  0  0  0  0  0
   -1.6834   -0.4236   -2.0509 C   0  0  0  0  0  0  0  0  0  0  0  0
   -1.8484   -0.3141   -3.1443 H   0  0  0  0  0  0  0  0  0  0  0  0
   -2.6303   -0.1143   -1.5627 H   0  0  0  0  0  0  0  0  0  0  0  0
   -0.6152    0.5191   -1.6153 N   0  0  0  0  0  0  0  0  0  0  0  0
    0.1337    0.4965   -2.3245 H   0  0  0  0  0  0  0  0  0  0  0  0
   -1.0613    1.9366   -1.4869 C   0  0  0  0  0  0  0  0  0  0  0  0
   -1.6359    2.2289   -2.3933 H   0  0  0  0  0  0  0  0  0  0  0  0
   -0.1436    2.5608   -1.4708 H   0  0  0  0  0  0  0  0  0  0  0  0
   -1.9052    2.2212   -0.2383 C   0  0  0  0  0  0  0  0  0  0  0  0
   -2.3602    3.2232   -0.3778 H   0  0  0  0  0  0  0  0  0  0  0  0
   -2.7748    1.5304   -0.1912 H   0  0  0  0  0  0  0  0  0  0  0  0
   -1.1708    2.2629    1.1069 C   0  0  0  0  0  0  0  0  0  0  0  0
   -0.3066    2.9546    1.0338 H   0  0  0  0  0  0  0  0  0  0  0  0
   -1.8518    2.6775    1.8826 H   0  0  0  0  0  0  0  0  0  0  0  0
  1  3  1  0  0  0  0
  1  2  1  0  0  0  0
  3  5  1  0  0  0  0
  4  3  1  0  0  0  0
  6  3  1  0  0  0  0
  6  8  1  0  0  0  0
  6  7  1  0  0  0  0
  9 10  1  0  0  0  0
  9  6  1  0  0  0  0
 11 13  1  0  0  0  0
 11 12  1  0  0  0  0
 11  9  1  0  0  0  0
 14 11  1  0  0  0  0
 15 14  1  0  0  0  0
 16 14  1  0  0  0  0
 17 14  1  0  0  0  0
 17 20  1  0  0  0  0
 17 19  1  0  0  0  0
 18 17  1  0  0  0  0
 20 22  1  0  0  0  0
 21 20  1  0  0  0  0
 22 24  1  0  0  0  0
 22 25  1  0  0  0  0
 23 22  1  0  0  0  0
 25 27  1  0  0  0  0
 25 28  1  0  0  0  0
 26 25  1  0  0  0  0
 28  1  1  0  0  0  0
 28 30  1  0  0  0  0
 29 28  1  0  0  0  0
M  END
