2,3,4
 OpenBabel05122313063D

 43 45  0  0  1  0  0  0  0  0999 V2000
   -1.7489    1.2943   -0.7805 N   0  0  0  0  0  0  0  0  0  0  0  0
   -2.1816   -1.2319    0.3048 N   0  0  0  0  0  2  0  0  0  0  0  0
    1.4643    1.5920   -0.7511 N   0  0  0  0  0  2  0  0  0  0  0  0
    2.3795   -0.8381    0.2499 N   0  0  0  0  0  2  0  0  0  0  0  0
   -0.6031    4.6029    1.7542 O   0  0  0  0  0  0  0  0  0  0  0  0
   -0.0895    4.3174    2.5309 H   0  0  0  0  0  0  0  0  0  0  0  0
    1.0305    2.8906   -1.2471 C   0  0  1  0  0  0  0  0  0  0  0  0
    1.8285    3.3097   -1.9077 H   0  0  0  0  0  0  0  0  0  0  0  0
   -0.2519    2.7678   -2.0970 C   0  0  0  0  0  0  0  0  0  0  0  0
   -0.3274    3.6956   -2.7018 H   0  0  0  0  0  0  0  0  0  0  0  0
   -0.1506    1.9206   -2.8049 H   0  0  0  0  0  0  0  0  0  0  0  0
   -1.5750    2.6387   -1.3149 C   0  0  2  0  0  0  0  0  0  0  0  0
   -2.4075    2.8597   -2.0264 H   0  0  0  0  0  0  0  0  0  0  0  0
   -1.6516    3.6568   -0.1605 C   0  0  0  0  0  0  0  0  0  0  0  0
   -1.7202    4.6794   -0.5917 H   0  0  0  0  0  0  0  0  0  0  0  0
   -2.5727    3.4915    0.4333 H   0  0  0  0  0  0  0  0  0  0  0  0
   -0.4330    3.6003    0.7576 C   0  0  1  0  0  0  0  0  0  0  0  0
   -0.3761    2.5964    1.2302 H   0  0  0  0  0  0  0  0  0  0  0  0
    0.8392    3.8612   -0.0616 C   0  0  0  0  0  0  0  0  0  0  0  0
    1.7331    3.8205    0.5948 H   0  0  0  0  0  0  0  0  0  0  0  0
    0.7761    4.8967   -0.4605 H   0  0  0  0  0  0  0  0  0  0  0  0
   -2.8430    0.6732   -1.0230 C   0  0  0  0  0  0  0  0  0  0  0  0
   -3.6417    1.1269   -1.6550 H   0  0  0  0  0  0  0  0  0  0  0  0
   -3.1283   -0.6663   -0.4719 C   0  0  2  0  0  3  0  0  0  0  0  0
   -4.3506   -1.3108   -0.7374 C   0  0  0  0  0  0  0  0  0  0  0  0
   -5.1009   -0.8249   -1.3789 H   0  0  0  0  0  0  0  0  0  0  0  0
   -4.5834   -2.5714   -0.1693 C   0  0  0  0  0  0  0  0  0  0  0  0
   -5.5278   -3.1025   -0.3607 H   0  0  0  0  0  0  0  0  0  0  0  0
   -3.5957   -3.1406    0.6450 C   0  0  0  0  0  0  0  0  0  0  0  0
   -3.7388   -4.1247    1.1137 H   0  0  0  0  0  0  0  0  0  0  0  0
   -2.3986   -2.4324    0.8530 C   0  0  0  0  0  0  0  0  0  0  0  0
   -1.5833   -2.8205    1.4844 H   0  0  0  0  0  0  0  0  0  0  0  0
    2.6602    1.2056   -1.0021 C   0  0  0  0  0  0  0  0  0  0  0  0
    3.3563    1.8307   -1.6089 H   0  0  0  0  0  0  0  0  0  0  0  0
    3.1992   -0.0732   -0.4996 C   0  0  0  0  0  0  0  0  0  0  0  0
    4.5214   -0.4621   -0.7838 C   0  0  0  0  0  0  0  0  0  0  0  0
    5.1644    0.1822   -1.4020 H   0  0  0  0  0  0  0  0  0  0  0  0
    4.9904   -1.6773   -0.2647 C   0  0  0  0  0  0  0  0  0  0  0  0
    6.0180   -2.0116   -0.4721 H   0  0  0  0  0  0  0  0  0  0  0  0
    4.1308   -2.4557    0.5214 C   0  0  0  0  0  0  0  0  0  0  0  0
    4.4595   -3.4126    0.9513 H   0  0  0  0  0  0  0  0  0  0  0  0
    2.8218   -1.9958    0.7519 C   0  0  0  0  0  0  0  0  0  0  0  0
    2.0975   -2.5558    1.3646 H   0  0  0  0  0  0  0  0  0  0  0  0
  2 31  1  0  0  0  0
  4 42  1  0  0  0  0
  5  6  1  0  0  0  0
  7  8  1  6  0  0  0
  7  3  1  0  0  0  0
  7 19  1  0  0  0  0
  9 12  1  0  0  0  0
  9  7  1  0  0  0  0
 10  9  1  0  0  0  0
 11  9  1  0  0  0  0
 12 13  1  6  0  0  0
 12  1  1  0  0  0  0
 12 14  1  0  0  0  0
 14 16  1  0  0  0  0
 14 17  1  0  0  0  0
 15 14  1  0  0  0  0
 17 18  1  1  0  0  0
 17  5  1  0  0  0  0
 19 20  1  0  0  0  0
 19 17  1  0  0  0  0
 21 19  1  0  0  0  0
 22  1  2  0  0  0  0
 23 22  1  0  0  0  0
 24 22  1  1  0  0  0
 24  2  1  0  0  0  0
 25 24  1  0  0  0  0
 25 27  2  0  0  0  0
 26 25  1  0  0  0  0
 27 29  1  0  0  0  0
 28 27  1  0  0  0  0
 29 31  2  0  0  0  0
 29 30  1  0  0  0  0
 31 32  1  0  0  0  0
 33  3  1  0  0  0  0
 33 35  2  0  0  0  0
 34 33  1  0  0  0  0
 35  4  1  0  0  0  0
 36 35  1  0  0  0  0
 36 38  2  0  0  0  0
 37 36  1  0  0  0  0
 38 40  1  0  0  0  0
 39 38  1  0  0  0  0
 40 42  2  0  0  0  0
 40 41  1  0  0  0  0
 42 43  1  0  0  0  0
M  END
