8,10,19
 OpenBabel05122313063D

 51 53  0  0  1  0  0  0  0  0999 V2000
   -0.0027    2.0297   -1.6317 C   0  0  0  0  0  0  0  0  0  0  0  0
   -0.0044    2.8488   -2.9338 C   0  0  0  0  0  0  0  0  0  0  0  0
   -0.0024    2.9215   -0.4043 C   0  0  1  0  0  3  0  0  0  0  0  0
   -0.0018    4.3282   -0.4350 C   0  0  0  0  0  0  0  0  0  0  0  0
   -0.0027    5.0440    0.7696 C   0  0  0  0  0  0  0  0  0  0  0  0
   -0.0042    4.3367    1.9795 C   0  0  0  0  0  0  0  0  0  0  0  0
   -0.0046    2.9392    1.9299 C   0  0  0  0  0  0  0  0  0  0  0  0
   -0.0035    2.2512    0.7718 N   0  0  0  0  0  2  0  0  0  0  0  0
   -1.3125    1.1837   -1.6544 C   0  0  0  0  0  0  0  0  0  0  0  0
   -1.5528    0.2649   -0.5594 N   0  0  0  0  0  2  0  0  0  0  0  0
   -2.7613   -0.4292   -0.6064 C   0  0  0  0  0  0  0  0  0  0  0  0
   -3.0888   -1.3774    0.4057 C   0  0  0  0  0  0  0  0  0  0  0  0
   -4.2843   -2.0950    0.3789 C   0  0  0  0  0  0  0  0  0  0  0  0
   -5.2417   -1.9134   -0.6441 C   0  0  0  0  0  0  0  0  0  0  0  0
   -6.5358   -2.6873   -0.6507 C   0  0  0  0  0  0  0  0  0  0  0  0
   -4.9263   -0.9773   -1.6435 C   0  0  0  0  0  0  0  0  0  0  0  0
   -3.7247   -0.2526   -1.6377 C   0  0  0  0  0  0  0  0  0  0  0  0
    1.3073    1.1843   -1.6571 C   0  0  0  0  0  0  0  0  0  0  0  0
    1.5538    0.2726   -0.5576 N   0  0  0  0  0  2  0  0  0  0  0  0
    2.7624   -0.4208   -0.6054 C   0  0  0  0  0  0  0  0  0  0  0  0
    3.7175   -0.2568   -1.6464 C   0  0  0  0  0  0  0  0  0  0  0  0
    4.9187   -0.9821   -1.6533 C   0  0  0  0  0  0  0  0  0  0  0  0
    5.2419   -1.9061   -0.6451 C   0  0  0  0  0  0  0  0  0  0  0  0
    6.5346   -2.6823   -0.6539 C   0  0  0  0  0  0  0  0  0  0  0  0
    4.2934   -2.0739    0.3886 C   0  0  0  0  0  0  0  0  0  0  0  0
    3.0987   -1.3553    0.4165 C   0  0  0  0  0  0  0  0  0  0  0  0
   -0.0036    2.1684   -3.8075 H   0  0  0  0  0  0  0  0  0  0  0  0
   -0.9039    3.4906   -3.0100 H   0  0  0  0  0  0  0  0  0  0  0  0
    0.8933    3.4932   -3.0107 H   0  0  0  0  0  0  0  0  0  0  0  0
   -0.0008    4.8616   -1.3936 H   0  0  0  0  0  0  0  0  0  0  0  0
   -0.0022    6.1445    0.7608 H   0  0  0  0  0  0  0  0  0  0  0  0
   -0.0052    4.8538    2.9496 H   0  0  0  0  0  0  0  0  0  0  0  0
   -0.0056    2.3250    2.8421 H   0  0  0  0  0  0  0  0  0  0  0  0
   -1.3030    0.6268   -2.6245 H   0  0  0  0  0  0  0  0  0  0  0  0
   -2.1517    1.9181   -1.7364 H   0  0  0  0  0  0  0  0  0  0  0  0
   -2.3639   -1.5681    1.2069 H   0  0  0  0  0  0  0  0  0  0  0  0
   -4.4834   -2.8225    1.1831 H   0  0  0  0  0  0  0  0  0  0  0  0
   -7.1407   -2.4596   -1.5503 H   0  0  0  0  0  0  0  0  0  0  0  0
   -6.3582   -3.7837   -0.6335 H   0  0  0  0  0  0  0  0  0  0  0  0
   -7.1593   -2.4527    0.2388 H   0  0  0  0  0  0  0  0  0  0  0  0
   -5.6417   -0.8076   -2.4650 H   0  0  0  0  0  0  0  0  0  0  0  0
   -3.5424    0.4522   -2.4589 H   0  0  0  0  0  0  0  0  0  0  0  0
    2.1461    1.9181   -1.7480 H   0  0  0  0  0  0  0  0  0  0  0  0
    1.2923    0.6218   -2.6240 H   0  0  0  0  0  0  0  0  0  0  0  0
    3.5285    0.4379   -2.4747 H   0  0  0  0  0  0  0  0  0  0  0  0
    5.6275   -0.8229   -2.4826 H   0  0  0  0  0  0  0  0  0  0  0  0
    7.1601   -2.4487    0.2343 H   0  0  0  0  0  0  0  0  0  0  0  0
    6.3552   -3.7784   -0.6363 H   0  0  0  0  0  0  0  0  0  0  0  0
    7.1381   -2.4560   -1.5549 H   0  0  0  0  0  0  0  0  0  0  0  0
    4.4997   -2.7904    1.2009 H   0  0  0  0  0  0  0  0  0  0  0  0
    2.3821   -1.5337    1.2280 H   0  0  0  0  0  0  0  0  0  0  0  0
  2  1  1  0  0  0  0
  3  1  1  6  0  0  0
  3  8  1  0  0  0  0
  4  3  1  0  0  0  0
  4  5  2  0  0  0  0
  5  6  1  0  0  0  0
  6 32  1  0  0  0  0
  7  6  2  0  0  0  0
  7 33  1  0  0  0  0
  8  7  1  0  0  0  0
  9  1  1  0  0  0  0
  9 10  1  0  0  0  0
 11 10  1  0  0  0  0
 11 12  1  0  0  0  0
 12 36  1  0  0  0  0
 13 12  2  0  0  0  0
 13 37  1  0  0  0  0
 14 13  1  0  0  0  0
 15 14  1  0  0  0  0
 15 39  1  0  0  0  0
 15 40  1  0  0  0  0
 16 17  1  0  0  0  0
 16 14  2  0  0  0  0
 17 11  2  0  0  0  0
 18  1  1  0  0  0  0
 18 19  1  0  0  0  0
 20 19  1  0  0  0  0
 20 26  1  0  0  0  0
 21 20  2  0  0  0  0
 22 21  1  0  0  0  0
 22 23  2  0  0  0  0
 23 25  1  0  0  0  0
 24 23  1  0  0  0  0
 24 48  1  0  0  0  0
 24 47  1  0  0  0  0
 25 26  2  0  0  0  0
 25 50  1  0  0  0  0
 26 51  1  0  0  0  0
 27  2  1  0  0  0  0
 28  2  1  0  0  0  0
 29  2  1  0  0  0  0
 30  4  1  0  0  0  0
 31  5  1  0  0  0  0
 34  9  1  0  0  0  0
 35  9  1  0  0  0  0
 38 15  1  0  0  0  0
 41 16  1  0  0  0  0
 42 17  1  0  0  0  0
 43 18  1  0  0  0  0
 44 18  1  0  0  0  0
 45 21  1  0  0  0  0
 46 22  1  0  0  0  0
 49 24  1  0  0  0  0
M  END
