31,32,34
 OpenBabel05122313063D

 35 37  0  0  0  0  0  0  0  0999 V2000
   -0.0000    4.5465    0.0000 C   0  0  0  0  0  0  0  0  0  0  0  0
   -0.0000    5.6459    0.0000 H   0  0  0  0  0  0  0  0  0  0  0  0
   -3.6378   -2.9199    0.1547 C   0  0  0  0  0  0  0  0  0  0  0  0
   -3.3706   -3.9825    0.2538 H   0  0  0  0  0  0  0  0  0  0  0  0
    3.6379   -2.9199   -0.1547 C   0  0  0  0  0  0  0  0  0  0  0  0
    3.3708   -3.9824   -0.2544 H   0  0  0  0  0  0  0  0  0  0  0  0
   -2.6292   -1.9517    0.1734 C   0  0  0  0  0  0  0  0  0  0  0  0
   -1.5773   -2.2362    0.3033 H   0  0  0  0  0  0  0  0  0  0  0  0
   -1.2108    2.4490    0.0448 C   0  0  0  0  0  0  0  0  0  0  0  0
   -4.9830   -2.5406    0.0129 C   0  0  0  0  0  0  0  0  0  0  0  0
   -5.7733   -3.3062   -0.0043 H   0  0  0  0  0  0  0  0  0  0  0  0
   -4.3204   -0.2014   -0.0883 C   0  0  0  0  0  0  0  0  0  0  0  0
   -4.5546    0.8666   -0.1846 H   0  0  0  0  0  0  0  0  0  0  0  0
    4.3203   -0.2014    0.0893 C   0  0  0  0  0  0  0  0  0  0  0  0
    4.5545    0.8666    0.1861 H   0  0  0  0  0  0  0  0  0  0  0  0
    4.9830   -2.5406   -0.0119 C   0  0  0  0  0  0  0  0  0  0  0  0
    5.7732   -3.3062    0.0055 H   0  0  0  0  0  0  0  0  0  0  0  0
   -2.9662   -0.5858    0.0524 C   0  0  0  0  0  0  0  0  0  0  0  0
    2.6293   -1.9516   -0.1739 C   0  0  0  0  0  0  0  0  0  0  0  0
    1.5775   -2.2361   -0.3046 H   0  0  0  0  0  0  0  0  0  0  0  0
   -1.2241    3.8565    0.0464 C   0  0  0  0  0  0  0  0  0  0  0  0
   -2.1909    4.3755    0.0815 H   0  0  0  0  0  0  0  0  0  0  0  0
    5.3177   -1.1793    0.1093 C   0  0  0  0  0  0  0  0  0  0  0  0
    6.3703   -0.8795    0.2244 H   0  0  0  0  0  0  0  0  0  0  0  0
    2.9663   -0.5857   -0.0523 C   0  0  0  0  0  0  0  0  0  0  0  0
    1.2241    3.8565   -0.0464 C   0  0  0  0  0  0  0  0  0  0  0  0
    2.1909    4.3755   -0.0816 H   0  0  0  0  0  0  0  0  0  0  0  0
   -5.3177   -1.1793   -0.1079 C   0  0  0  0  0  0  0  0  0  0  0  0
   -6.3705   -0.8794   -0.2221 H   0  0  0  0  0  0  0  0  0  0  0  0
    2.2952    1.6219   -0.0755 N   0  0  0  0  0  2  0  0  0  0  0  0
   -0.0000    1.7914    0.0001 N   0  0  0  0  0  2  0  0  0  0  0  0
   -1.9224    0.3666    0.0657 N   0  0  0  0  0  2  0  0  0  0  0  0
   -2.2952    1.6219    0.0754 N   0  0  0  0  0  0  0  0  0  0  0  0
    1.9224    0.3667   -0.0660 N   0  0  0  0  0  2  0  0  0  0  0  0
    1.2108    2.4490   -0.0448 C   0  0  0  0  0  0  0  0  0  0  0  0
  1 21  2  0  0  0  0
  2  1  1  0  0  0  0
  3  7  1  0  0  0  0
  3  4  1  0  0  0  0
  5 16  1  0  0  0  0
  6  5  1  0  0  0  0
  7  8  1  0  0  0  0
  9 21  1  0  0  0  0
  9 33  2  0  0  0  0
 10  3  2  0  0  0  0
 11 10  1  0  0  0  0
 12 18  1  0  0  0  0
 13 12  1  0  0  0  0
 14 23  1  0  0  0  0
 14 15  1  0  0  0  0
 16 17  1  0  0  0  0
 16 23  2  0  0  0  0
 18 32  1  0  0  0  0
 18  7  2  0  0  0  0
 19  5  2  0  0  0  0
 19 25  1  0  0  0  0
 20 19  1  0  0  0  0
 21 22  1  0  0  0  0
 23 24  1  0  0  0  0
 25 14  2  0  0  0  0
 26 35  2  0  0  0  0
 26  1  1  0  0  0  0
 27 26  1  0  0  0  0
 28 12  2  0  0  0  0
 28 10  1  0  0  0  0
 29 28  1  0  0  0  0
 30 34  1  0  0  0  0
 30 35  1  0  0  0  0
 31  9  1  0  0  0  0
 32 33  1  0  0  0  0
 34 25  1  0  0  0  0
 35 31  1  0  0  0  0
M  END
