1,4,5
 OpenBabel05122313063D

 71 79  0  0  1  0  0  0  0  0999 V2000
   -1.9818    0.2317    0.0000 N   0  0  0  0  0  2  0  0  0  0  0  0
   -3.0527   -0.5143   -0.0001 N   0  0  0  0  0  2  0  0  0  0  0  0
   -4.0936    0.3259   -0.0004 N   0  0  2  0  0  0  0  0  0  0  0  0
   -0.0000    1.8986    0.0001 N   0  0  0  0  0  2  0  0  0  0  0  0
    1.9818    0.2317    0.0004 N   0  0  0  0  0  2  0  0  0  0  0  0
    3.0527   -0.5143    0.0002 N   0  0  0  0  0  2  0  0  0  0  0  0
    4.0936    0.3259   -0.0000 N   0  0  0  0  0  0  0  0  0  0  0  0
   -3.6980    1.6317   -0.0004 C   0  0  0  0  0  3  0  0  0  0  0  0
   -4.4016    2.4669   -0.0007 H   0  0  0  0  0  0  0  0  0  0  0  0
   -2.3078    1.5865   -0.0001 C   0  0  0  0  0  0  0  0  0  0  0  0
   -1.1981    2.5409   -0.0001 C   0  0  0  0  0  0  0  0  0  0  0  0
   -1.2245    3.9450   -0.0002 C   0  0  0  0  0  0  0  0  0  0  0  0
   -2.1793    4.4881   -0.0003 H   0  0  0  0  0  0  0  0  0  0  0  0
    0.0000    4.6359   -0.0001 C   0  0  0  0  0  0  0  0  0  0  0  0
    0.0000    5.7355   -0.0001 H   0  0  0  0  0  0  0  0  0  0  0  0
    1.2245    3.9450    0.0001 C   0  0  0  0  0  0  0  0  0  0  0  0
    2.1793    4.4881    0.0002 H   0  0  0  0  0  0  0  0  0  0  0  0
    1.1981    2.5409    0.0002 C   0  0  0  0  0  0  0  0  0  0  0  0
    2.3078    1.5865    0.0003 C   0  0  0  0  0  0  0  0  0  0  0  0
    3.6980    1.6317    0.0000 C   0  0  0  0  0  0  0  0  0  0  0  0
    4.4016    2.4669   -0.0001 H   0  0  0  0  0  0  0  0  0  0  0  0
   -5.4706   -0.2495   -0.0003 C   0  0  1  0  0  0  0  0  0  0  0  0
   -6.5115    0.8820   -0.0016 C   0  0  0  0  0  0  0  0  0  0  0  0
   -6.3826    1.5208   -0.9021 H   0  0  0  0  0  0  0  0  0  0  0  0
   -6.3833    1.5224    0.8978 H   0  0  0  0  0  0  0  0  0  0  0  0
   -5.6422   -1.1219   -1.2644 C   0  0  0  0  0  0  0  0  0  0  0  0
   -4.8660   -1.9133   -1.2698 H   0  0  0  0  0  0  0  0  0  0  0  0
   -5.4903   -0.4944   -2.1684 H   0  0  0  0  0  0  0  0  0  0  0  0
   -5.6430   -1.1195    1.2653 C   0  0  0  0  0  0  0  0  0  0  0  0
   -5.4916   -0.4903    2.1683 H   0  0  0  0  0  0  0  0  0  0  0  0
   -4.8668   -1.9110    1.2728 H   0  0  0  0  0  0  0  0  0  0  0  0
   -7.9256    0.2606   -0.0015 C   0  0  1  0  0  0  0  0  0  0  0  0
   -8.6684    1.0844   -0.0025 H   0  0  0  0  0  0  0  0  0  0  0  0
   -8.1036   -0.6089   -1.2612 C   0  0  0  0  0  0  0  0  0  0  0  0
   -8.0001    0.0119   -2.1767 H   0  0  0  0  0  0  0  0  0  0  0  0
   -9.1264   -1.0385   -1.2795 H   0  0  0  0  0  0  0  0  0  0  0  0
   -7.0551   -1.7369   -1.2582 C   0  0  2  0  0  0  0  0  0  0  0  0
   -7.1700   -2.3620   -2.1674 H   0  0  0  0  0  0  0  0  0  0  0  0
   -7.2283   -2.6078    0.0014 C   0  0  0  0  0  0  0  0  0  0  0  0
   -8.2334   -3.0779    0.0015 H   0  0  0  0  0  0  0  0  0  0  0  0
   -6.4865   -3.4339    0.0024 H   0  0  0  0  0  0  0  0  0  0  0  0
   -7.0559   -1.7345    1.2595 C   0  0  2  0  0  0  0  0  0  0  0  0
   -7.1714   -2.3579    2.1698 H   0  0  0  0  0  0  0  0  0  0  0  0
   -8.1044   -0.6065    1.2596 C   0  0  0  0  0  0  0  0  0  0  0  0
   -9.1272   -1.0360    1.2782 H   0  0  0  0  0  0  0  0  0  0  0  0
   -8.0014    0.0160    2.1741 H   0  0  0  0  0  0  0  0  0  0  0  0
    5.4706   -0.2495   -0.0001 C   0  0  2  0  0  0  0  0  0  0  0  0
    6.5115    0.8820   -0.0010 C   0  0  0  0  0  0  0  0  0  0  0  0
    6.3832    1.5220    0.8987 H   0  0  0  0  0  0  0  0  0  0  0  0
    6.3827    1.5212   -0.9012 H   0  0  0  0  0  0  0  0  0  0  0  0
    5.6423   -1.1213   -1.2646 C   0  0  0  0  0  0  0  0  0  0  0  0
    5.4903   -0.4935   -2.1684 H   0  0  0  0  0  0  0  0  0  0  0  0
    4.8660   -1.9128   -1.2704 H   0  0  0  0  0  0  0  0  0  0  0  0
    5.6430   -1.1200    1.2651 C   0  0  0  0  0  0  0  0  0  0  0  0
    4.8667   -1.9115    1.2722 H   0  0  0  0  0  0  0  0  0  0  0  0
    5.4916   -0.4913    2.1683 H   0  0  0  0  0  0  0  0  0  0  0  0
    7.9256    0.2606   -0.0011 C   0  0  1  0  0  0  0  0  0  0  0  0
    8.6684    1.0844   -0.0017 H   0  0  0  0  0  0  0  0  0  0  0  0
    8.1043   -0.6070    1.2597 C   0  0  0  0  0  0  0  0  0  0  0  0
    9.1272   -1.0366    1.2781 H   0  0  0  0  0  0  0  0  0  0  0  0
    8.0014    0.0151    2.1744 H   0  0  0  0  0  0  0  0  0  0  0  0
    7.0559   -1.7350    1.2590 C   0  0  2  0  0  0  0  0  0  0  0  0
    7.1713   -2.3589    2.1690 H   0  0  0  0  0  0  0  0  0  0  0  0
    7.2283   -2.6078    0.0006 C   0  0  0  0  0  0  0  0  0  0  0  0
    8.2334   -3.0779    0.0005 H   0  0  0  0  0  0  0  0  0  0  0  0
    6.4865   -3.4339    0.0012 H   0  0  0  0  0  0  0  0  0  0  0  0
    7.0552   -1.7364   -1.2587 C   0  0  2  0  0  0  0  0  0  0  0  0
    7.1700   -2.3611   -2.1681 H   0  0  0  0  0  0  0  0  0  0  0  0
    8.1036   -0.6083   -1.2611 C   0  0  0  0  0  0  0  0  0  0  0  0
    8.0001    0.0128   -2.1764 H   0  0  0  0  0  0  0  0  0  0  0  0
    9.1264   -1.0379   -1.2796 H   0  0  0  0  0  0  0  0  0  0  0  0
  2  1  1  0  0  0  0
  3  8  1  1  0  0  0
  3 22  1  0  0  0  0
  3  2  1  0  0  0  0
  4 18  1  0  0  0  0
  6  5  1  0  0  0  0
  7 20  1  0  0  0  0
  7  6  1  0  0  0  0
  8 10  1  0  0  0  0
  9  8  1  0  0  0  0
 10 11  2  0  0  0  0
 10  1  1  0  0  0  0
 11  4  1  0  0  0  0
 12 11  1  0  0  0  0
 12 14  2  0  0  0  0
 13 12  1  0  0  0  0
 14 16  1  0  0  0  0
 15 14  1  0  0  0  0
 16 18  2  0  0  0  0
 16 17  1  0  0  0  0
 18 19  1  0  0  0  0
 19  5  1  0  0  0  0
 20 19  2  0  0  0  0
 21 20  1  0  0  0  0
 22 26  1  6  0  0  0
 22 29  1  0  0  0  0
 23 32  1  0  0  0  0
 23 22  1  0  0  0  0
 23 25  1  0  0  0  0
 24 23  1  0  0  0  0
 26 37  1  0  0  0  0
 27 26  1  0  0  0  0
 28 26  1  0  0  0  0
 29 31  1  0  0  0  0
 29 30  1  0  0  0  0
 32 33  1  6  0  0  0
 32 44  1  0  0  0  0
 34 37  1  0  0  0  0
 34 32  1  0  0  0  0
 35 34  1  0  0  0  0
 36 34  1  0  0  0  0
 37 38  1  6  0  0  0
 37 39  1  0  0  0  0
 39 40  1  0  0  0  0
 39 41  1  0  0  0  0
 39 42  1  0  0  0  0
 42 44  1  0  0  0  0
 42 29  1  0  0  0  0
 42 43  1  1  0  0  0
 44 45  1  0  0  0  0
 44 46  1  0  0  0  0
 47  7  1  1  0  0  0
 47 54  1  0  0  0  0
 48 47  1  0  0  0  0
 48 49  1  0  0  0  0
 50 48  1  0  0  0  0
 51 67  1  0  0  0  0
 51 47  1  0  0  0  0
 52 51  1  0  0  0  0
 53 51  1  0  0  0  0
 54 55  1  0  0  0  0
 54 56  1  0  0  0  0
 57 58  1  6  0  0  0
 57 48  1  0  0  0  0
 57 59  1  0  0  0  0
 59 60  1  0  0  0  0
 59 61  1  0  0  0  0
 62 59  1  0  0  0  0
 62 54  1  0  0  0  0
 62 63  1  1  0  0  0
 64 66  1  0  0  0  0
 64 62  1  0  0  0  0
 65 64  1  0  0  0  0
 67 68  1  6  0  0  0
 67 64  1  0  0  0  0
 69 67  1  0  0  0  0
 69 57  1  0  0  0  0
 70 69  1  0  0  0  0
 71 69  1  0  0  0  0
M  END
