1,8,13
 OpenBabel05122313063D

 42 45  0  0  0  0  0  0  0  0999 V2000
    2.1576   -0.8759   -0.4586 N   0  0  0  0  0  2  0  0  0  0  0  0
    2.7863   -2.0689   -0.5079 C   0  0  0  0  0  3  0  0  0  0  0  0
    2.1300   -2.9480   -0.3843 H   0  0  0  0  0  0  0  0  0  0  0  0
    2.2839    1.5026   -0.5647 N   0  0  0  0  0  0  0  0  0  0  0  0
    2.9603    2.2677   -0.5772 H   0  0  0  0  0  0  0  0  0  0  0  0
    4.1647   -2.1944   -0.6835 C   0  0  0  0  0  0  0  0  0  0  0  0
    4.6213   -3.1942   -0.7162 H   0  0  0  0  0  0  0  0  0  0  0  0
   -0.0918    1.1644   -0.4357 N   0  0  0  0  0  0  0  0  0  0  0  0
    4.9570   -1.0318   -0.8065 C   0  0  0  0  0  0  0  0  0  0  0  0
   -2.4627    1.7243   -0.2120 N   0  0  0  0  0  2  0  0  0  0  0  0
    4.2938    0.2015   -0.7580 C   0  0  0  0  0  0  0  0  0  0  0  0
    4.8629    1.1397   -0.8553 H   0  0  0  0  0  0  0  0  0  0  0  0
   -2.4205   -0.6337    0.3169 N   0  0  0  0  0  2  0  0  0  0  0  0
    2.8920    0.2365   -0.5856 C   0  0  0  0  0  0  0  0  0  0  0  0
    6.4483   -1.1201   -0.9743 C   0  0  0  0  0  0  0  0  0  0  0  0
    6.9097   -0.1260   -1.1254 H   0  0  0  0  0  0  0  0  0  0  0  0
    6.7106   -1.7628   -1.8391 H   0  0  0  0  0  0  0  0  0  0  0  0
    6.9128   -1.5829   -0.0790 H   0  0  0  0  0  0  0  0  0  0  0  0
    0.9972    1.9227   -0.4852 C   0  0  0  0  0  0  0  0  0  0  0  0
    0.6770    3.3682   -0.4515 C   0  0  0  0  0  3  0  0  0  0  0  0
    1.4444    4.5375   -0.4949 C   0  0  0  0  0  0  0  0  0  0  0  0
    2.5442    4.5218   -0.5621 H   0  0  0  0  0  0  0  0  0  0  0  0
    0.7641    5.7689   -0.4420 C   0  0  0  0  0  0  0  0  0  0  0  0
    1.3388    6.7064   -0.4707 H   0  0  0  0  0  0  0  0  0  0  0  0
   -0.6408    5.8183   -0.3494 C   0  0  0  0  0  0  0  0  0  0  0  0
   -1.1426    6.7967   -0.3087 H   0  0  0  0  0  0  0  0  0  0  0  0
   -1.4078    4.6388   -0.3056 C   0  0  0  0  0  0  0  0  0  0  0  0
   -2.5047    4.6565   -0.2298 H   0  0  0  0  0  0  0  0  0  0  0  0
   -0.7290    3.4211   -0.3591 C   0  0  0  0  0  0  0  0  0  0  0  0
   -1.2071    2.0152   -0.3255 C   0  0  0  0  0  0  0  0  0  0  0  0
   -3.1159   -1.7811    0.4265 C   0  0  0  0  0  3  0  0  0  0  0  0
   -2.5383   -2.6631    0.7516 H   0  0  0  0  0  0  0  0  0  0  0  0
   -4.4771   -1.8854    0.1274 C   0  0  0  0  0  0  0  0  0  0  0  0
   -4.9825   -2.8568    0.2325 H   0  0  0  0  0  0  0  0  0  0  0  0
   -5.1816   -0.7413   -0.3038 C   0  0  0  0  0  0  0  0  0  0  0  0
   -4.4536    0.4520   -0.3954 C   0  0  0  0  0  0  0  0  0  0  0  0
   -4.9290    1.3942   -0.7023 H   0  0  0  0  0  0  0  0  0  0  0  0
   -3.0677    0.4870   -0.0976 C   0  0  0  0  0  0  0  0  0  0  0  0
   -6.6447   -0.8072   -0.6447 C   0  0  0  0  0  0  0  0  0  0  0  0
   -7.2267   -1.2602    0.1836 H   0  0  0  0  0  0  0  0  0  0  0  0
   -6.8073   -1.4464   -1.5375 H   0  0  0  0  0  0  0  0  0  0  0  0
   -7.0624    0.1943   -0.8597 H   0  0  0  0  0  0  0  0  0  0  0  0
  2  1  1  0  0  0  0
  2  3  1  0  0  0  0
  4 19  1  0  0  0  0
  5  4  1  0  0  0  0
  6  2  1  0  0  0  0
  7  6  1  0  0  0  0
  8 30  1  0  0  0  0
  9 11  1  0  0  0  0
  9  6  2  0  0  0  0
 10 38  1  0  0  0  0
 11 14  2  0  0  0  0
 12 11  1  0  0  0  0
 13 31  1  0  0  0  0
 14  4  1  0  0  0  0
 14  1  1  0  0  0  0
 15  9  1  0  0  0  0
 15 18  1  0  0  0  0
 16 15  1  0  0  0  0
 17 15  1  0  0  0  0
 19 20  1  0  0  0  0
 19  8  2  0  0  0  0
 20 29  1  0  0  0  0
 21 20  1  0  0  0  0
 21 23  2  0  0  0  0
 22 21  1  0  0  0  0
 23 25  1  0  0  0  0
 24 23  1  0  0  0  0
 25 26  1  0  0  0  0
 25 27  2  0  0  0  0
 27 28  1  0  0  0  0
 29 30  2  0  0  0  0
 29 27  1  0  0  0  0
 30 10  1  0  0  0  0
 31 32  1  0  0  0  0
 33 34  1  0  0  0  0
 33 31  1  0  0  0  0
 35 33  2  0  0  0  0
 36 35  1  0  0  0  0
 36 38  2  0  0  0  0
 37 36  1  0  0  0  0
 38 13  1  0  0  0  0
 39 35  1  0  0  0  0
 39 40  1  0  0  0  0
 41 39  1  0  0  0  0
 42 39  1  0  0  0  0
M  END
