2,4,6
 OpenBabel05122313063D

 47 49  0  0  1  0  0  0  0  0999 V2000
   -1.3142    0.6594    2.3106 N   0  0  0  0  0  0  0  0  0  0  0  0
   -1.5396    0.8012    0.9890 N   0  0  0  0  0  2  0  0  0  0  0  0
    1.2286    0.8133    2.3099 N   0  0  0  0  0  0  0  0  0  0  0  0
    1.4650    0.9348    0.9880 N   0  0  0  0  0  2  0  0  0  0  0  0
    0.0900   -1.4650    2.3110 N   0  0  0  0  0  0  0  0  0  0  0  0
    0.0765   -1.7311    0.9896 N   0  0  0  0  0  2  0  0  0  0  0  0
    0.0017    0.0031    2.8668 B   0  0  2  0  0  0  0  0  0  0  0  0
   -2.7462    1.3771    0.8579 C   0  0  1  0  0  3  0  0  0  0  0  0
   -3.3217    1.6298    2.1220 C   0  0  0  0  0  0  0  0  0  0  0  0
   -4.2898    2.0894    2.3390 H   0  0  0  0  0  0  0  0  0  0  0  0
   -2.3713    1.1501    3.0215 C   0  0  0  0  0  0  0  0  0  0  0  0
   -2.3817    1.1250    4.1148 H   0  0  0  0  0  0  0  0  0  0  0  0
   -3.3014    1.7199   -0.4922 C   0  0  0  0  0  0  0  0  0  0  0  0
   -2.7015    3.0191   -1.1100 C   0  0  0  0  0  0  0  0  0  0  0  0
    2.5686    1.6892    0.8562 C   0  0  1  0  0  3  0  0  0  0  0  0
    3.0754    2.0625    2.1199 C   0  0  0  0  0  0  0  0  0  0  0  0
    3.9587    2.6697    2.3362 H   0  0  0  0  0  0  0  0  0  0  0  0
    2.1831    1.4828    3.0200 C   0  0  0  0  0  0  0  0  0  0  0  0
    2.1662    1.5064    4.1132 H   0  0  0  0  0  0  0  0  0  0  0  0
    3.1441    1.9953   -0.4942 C   0  0  0  0  0  0  0  0  0  0  0  0
    3.9660    0.8234   -1.1107 C   0  0  0  0  0  0  0  0  0  0  0  0
    0.1797   -3.0641    0.8581 C   0  0  1  0  0  3  0  0  0  0  0  0
    0.2512   -3.6888    2.1220 C   0  0  0  0  0  0  0  0  0  0  0  0
    0.3371   -4.7571    2.3388 H   0  0  0  0  0  0  0  0  0  0  0  0
    0.1946   -2.6258    3.0216 C   0  0  0  0  0  0  0  0  0  0  0  0
    0.2243   -2.6221    4.1149 H   0  0  0  0  0  0  0  0  0  0  0  0
    0.1575   -3.7168   -0.4918 C   0  0  0  0  0  0  0  0  0  0  0  0
   -1.2687   -3.8468   -1.1070 C   0  0  0  0  0  0  0  0  0  0  0  0
    0.0023    0.0037    4.4770 C   0  0  0  0  0  0  0  0  0  0  0  0
   -0.8493   -0.5750    4.8880 H   0  0  0  0  0  0  0  0  0  0  0  0
   -0.0729    1.0311    4.8867 H   0  0  0  0  0  0  0  0  0  0  0  0
    0.9298   -0.4444    4.8869 H   0  0  0  0  0  0  0  0  0  0  0  0
   -4.6477    1.9185   -0.3963 F   0  0  0  0  0  0  0  0  0  0  0  0
   -3.0772    0.7141   -1.3943 F   0  0  0  0  0  0  0  0  0  0  0  0
   -2.8996    4.0540   -0.2739 F   0  0  0  0  0  0  0  0  0  0  0  0
   -1.3743    2.8764   -1.3085 F   0  0  0  0  0  0  0  0  0  0  0  0
   -3.2808    3.2955   -2.2879 F   0  0  0  0  0  0  0  0  0  0  0  0
    3.9921    3.0600   -0.3997 F   0  0  0  0  0  0  0  0  0  0  0  0
    2.1619    2.3054   -1.3968 F   0  0  0  0  0  0  0  0  0  0  0  0
    4.9596    0.4747   -0.2737 F   0  0  0  0  0  0  0  0  0  0  0  0
    4.4970    1.1844   -2.2884 F   0  0  0  0  0  0  0  0  0  0  0  0
    3.1754   -0.2521   -1.3092 F   0  0  0  0  0  0  0  0  0  0  0  0
    0.9150   -3.0203   -1.3956 F   0  0  0  0  0  0  0  0  0  0  0  0
    0.6585   -4.9821   -0.3963 F   0  0  0  0  0  0  0  0  0  0  0  0
   -2.0647   -4.5343   -0.2686 F   0  0  0  0  0  0  0  0  0  0  0  0
   -1.8083   -2.6260   -1.3061 F   0  0  0  0  0  0  0  0  0  0  0  0
   -1.2208   -4.4882   -2.2841 F   0  0  0  0  0  0  0  0  0  0  0  0
  1  7  1  0  0  0  0
  1 11  1  0  0  0  0
  2  1  1  0  0  0  0
  3  7  1  0  0  0  0
  3 18  1  0  0  0  0
  4  3  1  0  0  0  0
  5  7  1  0  0  0  0
  5 25  1  0  0  0  0
  6  5  1  0  0  0  0
  7 29  1  1  0  0  0
  8 13  1  1  0  0  0
  8  2  1  0  0  0  0
  8  9  1  0  0  0  0
  9 10  1  0  0  0  0
  9 11  2  0  0  0  0
 11 12  1  0  0  0  0
 13 33  1  0  0  0  0
 14 13  1  0  0  0  0
 14 35  1  0  0  0  0
 15 20  1  1  0  0  0
 15  4  1  0  0  0  0
 15 16  1  0  0  0  0
 16 17  1  0  0  0  0
 16 18  2  0  0  0  0
 18 19  1  0  0  0  0
 20 38  1  0  0  0  0
 21 20  1  0  0  0  0
 21 40  1  0  0  0  0
 22 27  1  1  0  0  0
 22  6  1  0  0  0  0
 22 23  1  0  0  0  0
 23 24  1  0  0  0  0
 23 25  2  0  0  0  0
 25 26  1  0  0  0  0
 27 44  1  0  0  0  0
 28 27  1  0  0  0  0
 28 45  1  0  0  0  0
 29 31  1  0  0  0  0
 29 32  1  0  0  0  0
 29 30  1  0  0  0  0
 34 13  1  0  0  0  0
 36 14  1  0  0  0  0
 37 14  1  0  0  0  0
 39 20  1  0  0  0  0
 41 21  1  0  0  0  0
 42 21  1  0  0  0  0
 43 27  1  0  0  0  0
 46 28  1  0  0  0  0
 47 28  1  0  0  0  0
M  END
