1,2,3
 OpenBabel05122313063D

 22 23  0  0  0  0  0  0  0  0999 V2000
   -1.6642    1.8210    0.1201 N   0  0  0  0  0  2  0  0  0  0  0  0
   -0.6057    0.6644   -2.0125 N   0  0  0  0  0  0  0  0  0  0  0  0
   -0.5181    0.4458    2.0147 N   0  0  0  0  0  0  0  0  0  0  0  0
   -0.1943    0.2714   -3.2520 C   0  0  0  0  0  0  0  0  0  0  0  0
    0.5937   -0.4860   -3.3623 H   0  0  0  0  0  0  0  0  0  0  0  0
   -1.5075    1.3297    2.4371 C   0  0  0  0  0  0  0  0  0  0  0  0
   -0.1908   -0.3500    3.0996 C   0  0  0  0  0  3  0  0  0  0  0  0
    0.5502   -1.1515    2.9921 H   0  0  0  0  0  0  0  0  0  0  0  0
   -2.0456    2.3128    1.4301 C   0  0  0  0  0  0  0  0  0  0  0  0
   -3.1491    2.4390    1.5302 H   0  0  0  0  0  0  0  0  0  0  0  0
   -1.6050    3.3291    1.5851 H   0  0  0  0  0  0  0  0  0  0  0  0
   -1.5887    1.6352   -2.2042 C   0  0  0  0  0  3  0  0  0  0  0  0
   -0.9001    0.9706   -4.2539 C   0  0  0  0  0  0  0  0  0  0  0  0
   -0.7741    0.8572   -5.3375 H   0  0  0  0  0  0  0  0  0  0  0  0
   -0.9588    0.0180    4.2032 C   0  0  0  0  0  0  0  0  0  0  0  0
   -0.9252   -0.4356    5.2018 H   0  0  0  0  0  0  0  0  0  0  0  0
   -2.1363    2.2342   -1.0207 C   0  0  0  0  0  3  0  0  0  0  0  0
   -2.9200    3.0178   -1.1003 H   0  0  0  0  0  0  0  0  0  0  0  0
   -1.8069    1.0939    3.7784 C   0  0  0  0  0  0  0  0  0  0  0  0
   -2.5438    1.6326    4.3878 H   0  0  0  0  0  0  0  0  0  0  0  0
   -1.7929    1.8428   -3.5858 C   0  0  0  0  0  0  0  0  0  0  0  0
   -2.5008    2.5467   -4.0407 H   0  0  0  0  0  0  0  0  0  0  0  0
  1  9  1  0  0  0  0
  3  6  2  0  0  0  0
  3  7  1  0  0  0  0
  4  2  2  0  0  0  0
  5  4  1  0  0  0  0
  6 19  1  0  0  0  0
  7 15  1  0  0  0  0
  8  7  1  0  0  0  0
  9 10  1  0  0  0  0
  9 11  1  0  0  0  0
  9  6  1  0  0  0  0
 12  2  1  0  0  0  0
 12 17  1  0  0  0  0
 13 21  2  0  0  0  0
 13  4  1  0  0  0  0
 14 13  1  0  0  0  0
 15 16  1  0  0  0  0
 17  1  1  0  0  0  0
 18 17  1  0  0  0  0
 19 15  2  0  0  0  0
 19 20  1  0  0  0  0
 21 12  1  0  0  0  0
 22 21  1  0  0  0  0
M  END
