3,13,19
 OpenBabel05122313063D

 42 45  0  0  1  0  0  0  0  0999 V2000
   -1.5473   -2.5142    1.5532 N   0  0  0  0  0  0  0  0  0  0  0  0
   -0.4402    1.7197    1.4589 C   0  0  1  0  0  3  0  0  0  0  0  0
   -0.1348   -1.4328    0.1877 N   0  0  0  0  0  2  0  0  0  0  0  0
   -2.1516   -3.0838    2.7457 C   0  0  0  0  0  0  0  0  0  0  0  0
   -1.6827   -2.6623    3.6522 H   0  0  0  0  0  0  0  0  0  0  0  0
   -2.0224   -4.1849    2.7605 H   0  0  0  0  0  0  0  0  0  0  0  0
   -3.2347   -2.8526    2.7678 H   0  0  0  0  0  0  0  0  0  0  0  0
   -2.0008    2.7436    0.2511 C   0  0  0  0  0  0  0  0  0  0  0  0
   -0.4355   -1.7214    1.4586 C   0  0  2  0  0  3  0  0  0  0  0  0
    0.4374    1.2568    2.5829 C   0  0  0  0  0  0  0  0  0  0  0  0
   -0.1349    1.1323    3.5275 H   0  0  0  0  0  0  0  0  0  0  0  0
    1.2162    2.0262    2.7761 H   0  0  0  0  0  0  0  0  0  0  0  0
    1.1413    0.0012    2.2104 N   0  0  0  0  0  0  0  0  0  0  0  0
   -1.5538    2.5099    1.5535 N   0  0  0  0  0  0  0  0  0  0  0  0
   -2.1595    3.0778    2.7462 C   0  0  0  0  0  0  0  0  0  0  0  0
   -3.2422    2.8445    2.7679 H   0  0  0  0  0  0  0  0  0  0  0  0
   -2.0324    4.1791    2.7615 H   0  0  0  0  0  0  0  0  0  0  0  0
   -1.6900    2.6568    3.6526 H   0  0  0  0  0  0  0  0  0  0  0  0
   -0.1387    1.4321    0.1879 N   0  0  0  0  0  2  0  0  0  0  0  0
   -1.9939   -2.7487    0.2507 C   0  0  0  0  0  0  0  0  0  0  0  0
    0.4410   -1.2565    2.5826 C   0  0  0  0  0  0  0  0  0  0  0  0
    1.2220   -2.0238    2.7754 H   0  0  0  0  0  0  0  0  0  0  0  0
   -0.1314   -1.1339    3.5274 H   0  0  0  0  0  0  0  0  0  0  0  0
   -1.0964   -2.0536   -0.6057 C   0  0  0  0  0  0  0  0  0  0  0  0
   -3.2434   -3.5060   -1.6313 C   0  0  0  0  0  0  0  0  0  0  0  0
   -4.0788   -4.0743   -2.0654 H   0  0  0  0  0  0  0  0  0  0  0  0
   -3.0801   -3.4889   -0.2410 C   0  0  0  0  0  0  0  0  0  0  0  0
   -3.7673   -4.0323    0.4225 H   0  0  0  0  0  0  0  0  0  0  0  0
   -2.3564   -2.8148   -2.4934 C   0  0  0  0  0  0  0  0  0  0  0  0
   -2.5223   -2.8628   -3.5794 H   0  0  0  0  0  0  0  0  0  0  0  0
   -1.1016    2.0508   -0.6054 C   0  0  0  0  0  0  0  0  0  0  0  0
   -1.2732   -2.0804   -2.0007 C   0  0  0  0  0  0  0  0  0  0  0  0
   -0.5828   -1.5541   -2.6727 H   0  0  0  0  0  0  0  0  0  0  0  0
   -1.2783    2.0775   -2.0004 C   0  0  0  0  0  0  0  0  0  0  0  0
   -0.5867    1.5529   -2.6724 H   0  0  0  0  0  0  0  0  0  0  0  0
   -3.2519    3.4985   -1.6309 C   0  0  0  0  0  0  0  0  0  0  0  0
   -4.0886    4.0649   -2.0649 H   0  0  0  0  0  0  0  0  0  0  0  0
   -3.0887    3.4814   -0.2406 C   0  0  0  0  0  0  0  0  0  0  0  0
   -3.7772    4.0230    0.4230 H   0  0  0  0  0  0  0  0  0  0  0  0
   -2.3632    2.8095   -2.4931 C   0  0  0  0  0  0  0  0  0  0  0  0
   -2.5292    2.8574   -3.5790 H   0  0  0  0  0  0  0  0  0  0  0  0
    2.0630    0.0024    2.6614 H   0  0  0  0  0  0  0  0  0  0  0  0
  1  4  1  0  0  0  0
  2 14  1  0  0  0  0
  2 10  1  6  0  0  0
  3  9  1  0  0  0  0
  4  6  1  0  0  0  0
  4  7  1  0  0  0  0
  4  5  1  0  0  0  0
  8 14  1  0  0  0  0
  9  1  1  0  0  0  0
  9 21  1  6  0  0  0
 10 12  1  0  0  0  0
 10 11  1  0  0  0  0
 13 21  1  0  0  0  0
 13 10  1  0  0  0  0
 13 42  1  0  0  0  0
 14 15  1  0  0  0  0
 15 17  1  0  0  0  0
 15 16  1  0  0  0  0
 15 18  1  0  0  0  0
 19  2  1  0  0  0  0
 20  1  1  0  0  0  0
 21 22  1  0  0  0  0
 21 23  1  0  0  0  0
 24  3  1  0  0  0  0
 24 20  2  0  0  0  0
 25 27  2  0  0  0  0
 26 25  1  0  0  0  0
 27 20  1  0  0  0  0
 27 28  1  0  0  0  0
 29 32  2  0  0  0  0
 29 25  1  0  0  0  0
 30 29  1  0  0  0  0
 31 19  1  0  0  0  0
 31  8  2  0  0  0  0
 32 24  1  0  0  0  0
 33 32  1  0  0  0  0
 34 31  1  0  0  0  0
 35 34  1  0  0  0  0
 36 38  2  0  0  0  0
 37 36  1  0  0  0  0
 38  8  1  0  0  0  0
 38 39  1  0  0  0  0
 40 34  2  0  0  0  0
 40 36  1  0  0  0  0
 41 40  1  0  0  0  0
M  END
