1,3,14
 OpenBabel05122313063D

 60 61  0  0  0  0  0  0  0  0999 V2000
   -1.9837    0.5270    0.3131 N   0  0  0  0  0  0  0  0  0  0  0  0
   -2.1552   -0.3968    0.7497 H   0  0  0  0  0  0  0  0  0  0  0  0
    0.0481    1.7771    1.6202 N   0  0  0  0  0  0  0  0  0  0  0  0
    0.0571    2.6316    1.0348 H   0  0  0  0  0  0  0  0  0  0  0  0
   -1.2172    1.6603    2.3581 C   0  0  0  0  0  0  0  0  0  0  0  0
   -1.3883    2.5142    3.0512 H   0  0  0  0  0  0  0  0  0  0  0  0
   -1.1740    0.7222    2.9463 H   0  0  0  0  0  0  0  0  0  0  0  0
   -2.3142    1.5871    1.3013 C   0  0  0  0  0  0  0  0  0  0  0  0
   -3.3154    1.4257    1.7537 H   0  0  0  0  0  0  0  0  0  0  0  0
   -2.3530    2.5445    0.7402 H   0  0  0  0  0  0  0  0  0  0  0  0
   -2.7961    0.6276   -0.9365 C   0  0  0  0  0  0  0  0  0  0  0  0
   -2.3052   -0.0062   -1.6970 H   0  0  0  0  0  0  0  0  0  0  0  0
   -2.7231    1.6725   -1.2941 H   0  0  0  0  0  0  0  0  0  0  0  0
    1.9866    0.3530    0.3385 N   0  0  0  0  0  0  0  0  0  0  0  0
    2.1889   -0.5402    0.8196 H   0  0  0  0  0  0  0  0  0  0  0  0
    2.3904    1.4597    1.2422 C   0  0  0  0  0  0  0  0  0  0  0  0
    2.4346    2.3800    0.6232 H   0  0  0  0  0  0  0  0  0  0  0  0
    3.4008    1.2916    1.6704 H   0  0  0  0  0  0  0  0  0  0  0  0
    1.3277    1.6204    2.3249 C   0  0  0  0  0  0  0  0  0  0  0  0
    1.2585    0.7099    2.9544 H   0  0  0  0  0  0  0  0  0  0  0  0
    1.5580    2.4842    2.9881 H   0  0  0  0  0  0  0  0  0  0  0  0
    4.2149   -0.0078   -0.7098 C   0  0  0  0  0  0  0  0  0  0  0  0
    4.5957   -1.2923   -0.2536 C   0  0  0  0  0  0  0  0  0  0  0  0
    3.8280   -2.0682   -0.0944 H   0  0  0  0  0  0  0  0  0  0  0  0
    2.7590    0.3137   -0.9373 C   0  0  0  0  0  0  0  0  0  0  0  0
    2.6235    1.2935   -1.4331 H   0  0  0  0  0  0  0  0  0  0  0  0
    2.2539   -0.4489   -1.5630 H   0  0  0  0  0  0  0  0  0  0  0  0
   -4.5663   -1.1635   -0.6994 C   0  0  0  0  0  0  0  0  0  0  0  0
   -3.7836   -1.9155   -0.8998 H   0  0  0  0  0  0  0  0  0  0  0  0
   -5.8743   -1.5753   -0.4446 C   0  0  0  0  0  0  0  0  0  0  0  0
   -6.1466   -2.6405   -0.4340 H   0  0  0  0  0  0  0  0  0  0  0  0
   -4.2294    0.2104   -0.7203 C   0  0  0  0  0  0  0  0  0  0  0  0
    6.9382   -0.6252   -0.1995 C   0  0  0  0  0  0  0  0  0  0  0  0
   -6.8911   -0.6222   -0.2067 C   0  0  0  0  0  0  0  0  0  0  0  0
    6.5757    0.6586   -0.6570 C   0  0  0  0  0  0  0  0  0  0  0  0
    7.3339    1.4341   -0.8279 H   0  0  0  0  0  0  0  0  0  0  0  0
   -5.2482    1.1496   -0.4848 C   0  0  0  0  0  0  0  0  0  0  0  0
   -5.0118    2.2257   -0.5131 H   0  0  0  0  0  0  0  0  0  0  0  0
   -6.5713    0.7517   -0.2317 C   0  0  0  0  0  0  0  0  0  0  0  0
   -7.3414    1.5159   -0.0635 H   0  0  0  0  0  0  0  0  0  0  0  0
    5.9321   -1.5981    0.0021 C   0  0  0  0  0  0  0  0  0  0  0  0
    6.2343   -2.5950    0.3538 H   0  0  0  0  0  0  0  0  0  0  0  0
    5.2233    0.9514   -0.9003 C   0  0  0  0  0  0  0  0  0  0  0  0
    4.9506    1.9570   -1.2591 H   0  0  0  0  0  0  0  0  0  0  0  0
    9.2751   -0.0912   -0.1250 C   0  0  0  0  0  0  0  0  0  0  0  0
    9.1138    0.8112    0.5105 H   0  0  0  0  0  0  0  0  0  0  0  0
    9.2891    0.2519   -1.1860 H   0  0  0  0  0  0  0  0  0  0  0  0
   10.5734   -0.7860    0.2383 C   0  0  0  0  0  0  0  0  0  0  0  0
   10.5580   -1.1182    1.2950 H   0  0  0  0  0  0  0  0  0  0  0  0
   11.4293   -0.0965    0.0999 H   0  0  0  0  0  0  0  0  0  0  0  0
   10.7334   -1.6762   -0.4013 H   0  0  0  0  0  0  0  0  0  0  0  0
   -9.2088   -0.2142    0.2575 C   0  0  0  0  0  0  0  0  0  0  0  0
   -9.3247    0.4674   -0.6175 H   0  0  0  0  0  0  0  0  0  0  0  0
   -8.9842    0.4240    1.1444 H   0  0  0  0  0  0  0  0  0  0  0  0
  -10.4679   -1.0298    0.4808 C   0  0  0  0  0  0  0  0  0  0  0  0
  -10.6915   -1.6553   -0.4057 H   0  0  0  0  0  0  0  0  0  0  0  0
  -11.3312   -0.3604    0.6643 H   0  0  0  0  0  0  0  0  0  0  0  0
  -10.3512   -1.6996    1.3554 H   0  0  0  0  0  0  0  0  0  0  0  0
   -8.1332   -1.1204    0.0270 O   0  0  0  0  0  0  0  0  0  0  0  0
    8.2105   -1.0186    0.0704 O   0  0  0  0  0  0  0  0  0  0  0  0
  1  2  1  0  0  0  0
  1  8  1  0  0  0  0
  3 19  1  0  0  0  0
  3  5  1  0  0  0  0
  4  3  1  0  0  0  0
  5  7  1  0  0  0  0
  5  6  1  0  0  0  0
  8  9  1  0  0  0  0
  8  5  1  0  0  0  0
 10  8  1  0  0  0  0
 11 32  1  0  0  0  0
 11  1  1  0  0  0  0
 12 11  1  0  0  0  0
 13 11  1  0  0  0  0
 14 15  1  0  0  0  0
 14 16  1  0  0  0  0
 16 18  1  0  0  0  0
 16 19  1  0  0  0  0
 17 16  1  0  0  0  0
 19 20  1  0  0  0  0
 19 21  1  0  0  0  0
 22 23  1  0  0  0  0
 23 24  1  0  0  0  0
 23 41  2  0  0  0  0
 25 22  1  0  0  0  0
 25 14  1  0  0  0  0
 26 25  1  0  0  0  0
 27 25  1  0  0  0  0
 28 30  1  0  0  0  0
 29 28  1  0  0  0  0
 30 31  1  0  0  0  0
 30 34  2  0  0  0  0
 32 28  2  0  0  0  0
 32 37  1  0  0  0  0
 33 41  1  0  0  0  0
 33 60  1  0  0  0  0
 34 59  1  0  0  0  0
 35 33  2  0  0  0  0
 36 35  1  0  0  0  0
 37 39  2  0  0  0  0
 38 37  1  0  0  0  0
 39 34  1  0  0  0  0
 39 40  1  0  0  0  0
 41 42  1  0  0  0  0
 43 22  2  0  0  0  0
 43 35  1  0  0  0  0
 44 43  1  0  0  0  0
 45 60  1  0  0  0  0
 45 48  1  0  0  0  0
 45 46  1  0  0  0  0
 47 45  1  0  0  0  0
 48 49  1  0  0  0  0
 50 48  1  0  0  0  0
 51 48  1  0  0  0  0
 52 55  1  0  0  0  0
 52 54  1  0  0  0  0
 53 52  1  0  0  0  0
 55 57  1  0  0  0  0
 55 58  1  0  0  0  0
 56 55  1  0  0  0  0
 59 52  1  0  0  0  0
M  END
