1,2,3
 OpenBabel05122313063D

 38 40  0  0  1  0  0  0  0  0999 V2000
    0.0416    1.8372    1.3719 N   0  0  0  0  0  0  0  0  0  0  0  0
    2.0919    0.9096   -0.0109 N   0  0  0  0  0  2  0  0  0  0  0  0
    1.3217   -1.3846   -0.8258 N   0  0  0  0  0  2  0  0  0  0  0  0
   -0.9828   -0.7186   -1.8605 N   0  0  0  0  0  0  0  0  0  0  0  0
   -0.8190    2.4733    2.1963 C   0  0  0  0  0  3  0  0  0  0  0  0
   -1.8516    2.1263    2.3219 H   0  0  0  0  0  0  0  0  0  0  0  0
   -0.1911    3.5810    2.8203 C   0  0  0  0  0  0  0  0  0  0  0  0
   -0.6565    4.2639    3.5412 H   0  0  0  0  0  0  0  0  0  0  0  0
    1.1298    3.6206    2.3370 C   0  0  0  0  0  0  0  0  0  0  0  0
    1.9169    4.3409    2.5906 H   0  0  0  0  0  0  0  0  0  0  0  0
    1.2491    2.5269    1.4446 C   0  0  0  0  0  0  0  0  0  0  0  0
    2.3225    1.9880    0.6983 C   0  0  0  0  0  3  0  0  0  0  0  0
    3.3265    2.4482    0.7559 H   0  0  0  0  0  0  0  0  0  0  0  0
    3.1246    0.1397   -0.6822 C   0  0  1  0  0  0  0  0  0  0  0  0
    3.0398    0.3285   -1.7823 H   0  0  0  0  0  0  0  0  0  0  0  0
    4.5732    0.4012   -0.2602 C   0  0  0  0  0  0  0  0  0  0  0  0
    4.6596    0.2460    0.8378 H   0  0  0  0  0  0  0  0  0  0  0  0
    4.8532    1.4561   -0.4618 H   0  0  0  0  0  0  0  0  0  0  0  0
    5.5277   -0.5457   -1.0015 C   0  0  0  0  0  0  0  0  0  0  0  0
    5.5182   -0.2966   -2.0860 H   0  0  0  0  0  0  0  0  0  0  0  0
    6.5683   -0.3809   -0.6538 H   0  0  0  0  0  0  0  0  0  0  0  0
    5.1293   -2.0158   -0.8201 C   0  0  0  0  0  0  0  0  0  0  0  0
    5.2375   -2.2965    0.2509 H   0  0  0  0  0  0  0  0  0  0  0  0
    5.8183   -2.6744   -1.3879 H   0  0  0  0  0  0  0  0  0  0  0  0
    3.6797   -2.2671   -1.2605 C   0  0  0  0  0  0  0  0  0  0  0  0
    3.5825   -2.0770   -2.3531 H   0  0  0  0  0  0  0  0  0  0  0  0
    3.4070   -3.3295   -1.0900 H   0  0  0  0  0  0  0  0  0  0  0  0
    2.7357   -1.3466   -0.4857 C   0  0  2  0  0  0  0  0  0  0  0  0
    2.8450   -1.5715    0.5969 H   0  0  0  0  0  0  0  0  0  0  0  0
    0.8459   -2.2033   -1.7377 C   0  0  0  0  0  0  0  0  0  0  0  0
    1.4427   -3.0476   -2.1290 H   0  0  0  0  0  0  0  0  0  0  0  0
   -0.4250   -1.9153   -2.2770 C   0  0  0  0  0  0  0  0  0  0  0  0
   -1.2004   -2.4972   -3.3156 C   0  0  0  0  0  0  0  0  0  0  0  0
   -0.9838   -3.4337   -3.8443 H   0  0  0  0  0  0  0  0  0  0  0  0
   -2.2613   -1.6029   -3.5400 C   0  0  0  0  0  0  0  0  0  0  0  0
   -3.0602   -1.6876   -4.2864 H   0  0  0  0  0  0  0  0  0  0  0  0
   -2.0804   -0.5285   -2.6294 C   0  0  0  0  0  0  0  0  0  0  0  0
   -2.6956    0.3740   -2.5356 H   0  0  0  0  0  0  0  0  0  0  0  0
  1 11  2  0  0  0  0
  1  5  1  0  0  0  0
  2 12  1  0  0  0  0
  3 28  1  0  0  0  0
  5  6  1  0  0  0  0
  5  7  1  0  0  0  0
  7  8  1  0  0  0  0
  9 10  1  0  0  0  0
  9  7  2  0  0  0  0
 11  9  1  0  0  0  0
 12 13  1  0  0  0  0
 12 11  1  0  0  0  0
 14 15  1  6  0  0  0
 14 28  1  0  0  0  0
 14 16  1  0  0  0  0
 14  2  1  0  0  0  0
 16 17  1  0  0  0  0
 18 16  1  0  0  0  0
 19 22  1  0  0  0  0
 19 21  1  0  0  0  0
 19 16  1  0  0  0  0
 20 19  1  0  0  0  0
 22 23  1  0  0  0  0
 24 22  1  0  0  0  0
 25 27  1  0  0  0  0
 25 22  1  0  0  0  0
 25 28  1  0  0  0  0
 26 25  1  0  0  0  0
 28 29  1  1  0  0  0
 30  3  1  0  0  0  0
 31 30  1  0  0  0  0
 32  4  1  0  0  0  0
 32 30  2  0  0  0  0
 33 32  1  0  0  0  0
 34 33  1  0  0  0  0
 35 33  2  0  0  0  0
 35 37  1  0  0  0  0
 36 35  1  0  0  0  0
 37 38  1  0  0  0  0
 37  4  2  0  0  0  0
M  END
