6,11,22
 OpenBabel05122313063D

 39 41  0  0  1  0  0  0  0  0999 V2000
   -2.8482    3.6619    0.0470 O   0  0  0  0  0  0  0  0  0  0  0  0
    4.5942    0.2984   -0.3980 C   0  0  0  0  0  0  0  0  0  0  0  0
    4.2117   -0.7276   -0.5691 H   0  0  0  0  0  0  0  0  0  0  0  0
    5.1365    0.3175    0.5703 H   0  0  0  0  0  0  0  0  0  0  0  0
    5.3274    0.5502   -1.1901 H   0  0  0  0  0  0  0  0  0  0  0  0
    2.2050    0.8606   -0.3635 N   0  0  0  0  0  2  0  0  0  0  0  0
    3.4684    1.2783   -0.3871 C   0  0  1  0  0  3  0  0  0  0  0  0
    1.4250    1.9842   -0.3335 N   0  0  0  0  0  0  0  0  0  0  0  0
    3.5092    2.7101   -0.3782 C   0  0  0  0  0  0  0  0  0  0  0  0
    4.3980    3.3498   -0.3971 H   0  0  0  0  0  0  0  0  0  0  0  0
   -0.3940    0.5607   -0.4419 N   0  0  0  0  0  2  0  0  0  0  0  0
   -0.7409    2.8937   -0.1441 N   0  0  0  0  0  0  0  0  0  0  0  0
    2.1955    3.1479   -0.3378 C   0  0  0  0  0  0  0  0  0  0  0  0
    1.6540    4.5362   -0.3133 C   0  0  0  0  0  0  0  0  0  0  0  0
    0.9681    4.7264   -1.1617 H   0  0  0  0  0  0  0  0  0  0  0  0
    2.4960    5.2514   -0.3609 H   0  0  0  0  0  0  0  0  0  0  0  0
    1.0636    4.7266    0.6038 H   0  0  0  0  0  0  0  0  0  0  0  0
   -2.6029    1.3770   -0.1445 N   0  0  0  0  0  0  0  0  0  0  0  0
    0.0367    1.8232   -0.3063 C   0  0  1  0  0  3  0  0  0  0  0  0
   -2.1548   -0.9332   -0.3473 N   0  0  2  0  0  0  0  0  0  0  0  0
   -1.7113    0.3921   -0.3107 C   0  0  2  0  0  3  0  0  0  0  0  0
   -1.2130   -1.9239   -0.3956 N   0  0  0  0  0  2  0  0  0  0  0  0
   -2.0534    2.6038   -0.0886 C   0  0  0  0  0  0  0  0  0  0  0  0
   -4.2586    3.4325    0.1442 C   0  0  0  0  0  0  0  0  0  0  0  0
   -4.7139    4.4325    0.2542 H   0  0  0  0  0  0  0  0  0  0  0  0
   -4.4970    2.8014    1.0235 H   0  0  0  0  0  0  0  0  0  0  0  0
   -4.6439    2.9320   -0.7666 H   0  0  0  0  0  0  0  0  0  0  0  0
   -3.2878   -2.8278   -0.3990 C   0  0  0  0  0  0  0  0  0  0  0  0
   -4.0941   -3.5690   -0.4164 H   0  0  0  0  0  0  0  0  0  0  0  0
   -3.4500   -1.4535   -0.3447 C   0  0  2  0  0  3  0  0  0  0  0  0
   -4.7024   -0.6463   -0.3002 C   0  0  0  0  0  0  0  0  0  0  0  0
   -4.7625    0.0682   -1.1446 H   0  0  0  0  0  0  0  0  0  0  0  0
   -4.7645   -0.0428    0.6263 H   0  0  0  0  0  0  0  0  0  0  0  0
   -5.5714   -1.3286   -0.3450 H   0  0  0  0  0  0  0  0  0  0  0  0
   -1.8769   -3.0765   -0.4235 C   0  0  0  0  0  0  0  0  0  0  0  0
   -1.1440   -4.3763   -0.4528 C   0  0  0  0  0  0  0  0  0  0  0  0
   -1.5349   -5.0308   -1.2574 H   0  0  0  0  0  0  0  0  0  0  0  0
   -1.2762   -4.9191    0.5062 H   0  0  0  0  0  0  0  0  0  0  0  0
   -0.0613   -4.2048   -0.6163 H   0  0  0  0  0  0  0  0  0  0  0  0
  1 24  1  0  0  0  0
  2  4  1  0  0  0  0
  3  2  1  0  0  0  0
  5  2  1  0  0  0  0
  6  8  1  0  0  0  0
  7  2  1  1  0  0  0
  7  9  1  0  0  0  0
  7  6  1  0  0  0  0
  9 13  2  0  0  0  0
 10  9  1  0  0  0  0
 11 19  1  0  0  0  0
 12 23  2  0  0  0  0
 13  8  1  0  0  0  0
 13 14  1  0  0  0  0
 14 17  1  0  0  0  0
 15 14  1  0  0  0  0
 16 14  1  0  0  0  0
 18 23  2  0  0  0  0
 19  8  1  1  0  0  0
 19 12  1  0  0  0  0
 20 22  1  6  0  0  0
 20 30  1  0  0  0  0
 20 21  1  0  0  0  0
 21 11  1  1  0  0  0
 21 18  1  0  0  0  0
 23  1  1  0  0  0  0
 24 25  1  0  0  0  0
 24 26  1  0  0  0  0
 27 24  1  0  0  0  0
 28 30  1  0  0  0  0
 29 28  1  0  0  0  0
 30 31  1  6  0  0  0
 31 33  1  0  0  0  0
 32 31  1  0  0  0  0
 34 31  1  0  0  0  0
 35 28  2  0  0  0  0
 35 22  1  0  0  0  0
 36 35  1  0  0  0  0
 36 38  1  0  0  0  0
 37 36  1  0  0  0  0
 39 36  1  0  0  0  0
M  END
