1,4,5
 OpenBabel05122313063D

 35 38  0  0  0  0  0  0  0  0999 V2000
    2.1852    0.2506   -0.2115 N   0  0  0  0  0  2  0  0  0  0  0  0
    3.3075   -0.4509   -0.2110 N   0  0  0  0  0  2  0  0  0  0  0  0
    3.3928    2.2549    0.2163 N   0  0  0  0  0  0  0  0  0  0  0  0
   -0.1729    1.6259   -0.0658 N   0  0  0  0  0  2  0  0  0  0  0  0
   -2.5168    0.2256   -0.5833 N   0  0  0  0  0  2  0  0  0  0  0  0
    4.4905    0.1483   -0.0207 C   0  0  0  0  0  0  0  0  0  0  0  0
    4.5321    1.5652    0.1749 C   0  0  0  0  0  0  0  0  0  0  0  0
    2.2451    1.5714    0.0338 C   0  0  0  0  0  0  0  0  0  0  0  0
    0.9624    2.3152    0.1129 C   0  0  0  0  0  0  0  0  0  0  0  0
    0.9875    3.7110    0.3668 C   0  0  0  0  0  0  0  0  0  0  0  0
    1.9569    4.2037    0.5136 H   0  0  0  0  0  0  0  0  0  0  0  0
   -0.2147    4.3958    0.4206 C   0  0  0  0  0  0  0  0  0  0  0  0
   -0.2394    5.4775    0.6229 H   0  0  0  0  0  0  0  0  0  0  0  0
   -1.4303    3.7025    0.1939 C   0  0  0  0  0  0  0  0  0  0  0  0
   -2.6996    4.3707    0.1892 C   0  0  0  0  0  0  0  0  0  0  0  0
   -2.7254    5.4506    0.3988 H   0  0  0  0  0  0  0  0  0  0  0  0
   -3.8534    3.6807   -0.0881 C   0  0  0  0  0  0  0  0  0  0  0  0
   -4.8252    4.1973   -0.1062 H   0  0  0  0  0  0  0  0  0  0  0  0
   -3.8225    2.2731   -0.3734 C   0  0  0  0  0  0  0  0  0  0  0  0
   -4.9932    1.5462   -0.7115 C   0  0  0  0  0  0  0  0  0  0  0  0
   -5.9613    2.0693   -0.7466 H   0  0  0  0  0  0  0  0  0  0  0  0
   -4.8966    0.1926   -0.9989 C   0  0  0  0  0  0  0  0  0  0  0  0
   -5.7785   -0.4027   -1.2737 H   0  0  0  0  0  0  0  0  0  0  0  0
   -3.6305   -0.4301   -0.9144 C   0  0  0  0  0  0  0  0  0  0  0  0
   -3.5265   -1.5104   -1.0983 H   0  0  0  0  0  0  0  0  0  0  0  0
   -2.5824    1.5581   -0.3353 C   0  0  0  0  0  0  0  0  0  0  0  0
   -1.3543    2.2891   -0.0527 C   0  0  0  0  0  0  0  0  0  0  0  0
    5.7136   -0.7120   -0.0213 C   0  0  0  0  0  0  0  0  0  0  0  0
    5.4330   -1.7697   -0.1762 H   0  0  0  0  0  0  0  0  0  0  0  0
    6.2680   -0.6199    0.9355 H   0  0  0  0  0  0  0  0  0  0  0  0
    6.4122   -0.4087   -0.8287 H   0  0  0  0  0  0  0  0  0  0  0  0
    5.8265    2.2960    0.3507 C   0  0  0  0  0  0  0  0  0  0  0  0
    5.6342    3.3763    0.4754 H   0  0  0  0  0  0  0  0  0  0  0  0
    6.4929    2.1384   -0.5227 H   0  0  0  0  0  0  0  0  0  0  0  0
    6.3750    1.9186    1.2390 H   0  0  0  0  0  0  0  0  0  0  0  0
  1  2  1  0  0  0  0
  1  8  1  0  0  0  0
  2  6  1  0  0  0  0
  4 27  1  0  0  0  0
  4  9  1  0  0  0  0
  5 26  1  0  0  0  0
  6  7  2  0  0  0  0
  7  3  1  0  0  0  0
  7 32  1  0  0  0  0
  8  9  1  0  0  0  0
  8  3  2  0  0  0  0
  9 10  2  0  0  0  0
 10 12  1  0  0  0  0
 10 11  1  0  0  0  0
 12 13  1  0  0  0  0
 14 12  2  0  0  0  0
 15 14  1  0  0  0  0
 15 16  1  0  0  0  0
 17 15  2  0  0  0  0
 18 17  1  0  0  0  0
 19 26  1  0  0  0  0
 19 17  1  0  0  0  0
 20 19  2  0  0  0  0
 21 20  1  0  0  0  0
 22 24  2  0  0  0  0
 22 20  1  0  0  0  0
 23 22  1  0  0  0  0
 24  5  1  0  0  0  0
 25 24  1  0  0  0  0
 26 27  2  0  0  0  0
 27 14  1  0  0  0  0
 28  6  1  0  0  0  0
 28 30  1  0  0  0  0
 29 28  1  0  0  0  0
 31 28  1  0  0  0  0
 32 33  1  0  0  0  0
 32 35  1  0  0  0  0
 34 32  1  0  0  0  0
M  END
