6,7,8
 OpenBabel05122313063D

 56 59  0  0  1  0  0  0  0  0999 V2000
   -3.5964   -3.6540   -0.3658 O   0  0  0  0  0  0  0  0  0  0  0  0
   -3.9395    3.4182   -0.5203 O   0  0  0  0  0  0  0  0  0  0  0  0
    4.0945   -1.7316   -0.9511 O   0  0  0  0  0  0  0  0  0  0  0  0
    6.2986    0.2546   -0.3518 O   0  0  0  0  0  0  0  0  0  0  0  0
    4.0401    2.1226   -0.3492 O   0  0  0  0  0  0  0  0  0  0  0  0
   -3.6274   -0.1077   -0.3066 N   0  0  0  0  0  2  0  0  0  0  0  0
   -2.1097   -2.0493    0.4656 N   0  0  0  0  0  2  0  0  0  0  0  0
   -2.3043    2.0035    0.3746 N   0  0  0  0  0  2  0  0  0  0  0  0
   -4.1287   -1.3274   -0.5768 C   0  0  1  0  0  3  0  0  0  0  0  0
   -5.3633   -1.4333   -1.2289 C   0  0  0  0  0  0  0  0  0  0  0  0
   -6.0397   -0.2524   -1.5829 C   0  0  0  0  0  0  0  0  0  0  0  0
   -5.4785    1.0025   -1.2871 C   0  0  0  0  0  0  0  0  0  0  0  0
   -4.2405    1.0447   -0.6339 C   0  0  0  0  0  0  0  0  0  0  0  0
   -3.2575   -2.4830   -0.1460 C   0  0  0  0  0  0  0  0  0  0  0  0
   -3.4865    2.2962   -0.2539 C   0  0  0  0  0  0  0  0  0  0  0  0
   -1.1535   -3.0579    0.8799 C   0  0  0  0  0  0  0  0  0  0  0  0
    0.2493   -2.8008    0.3681 C   0  0  0  0  0  0  0  0  0  0  0  0
    0.4709   -2.1394   -0.8577 C   0  0  0  0  0  0  0  0  0  0  0  0
    1.7604   -1.8169   -1.2844 C   0  0  0  0  0  0  0  0  0  0  0  0
    2.8765   -2.1591   -0.4932 C   0  0  0  0  0  0  0  0  0  0  0  0
    2.6813   -2.8805    0.7010 C   0  0  0  0  0  0  0  0  0  0  0  0
    1.3731   -3.1820    1.1194 C   0  0  0  0  0  0  0  0  0  0  0  0
    5.2457   -1.9491   -0.1492 C   0  0  0  0  0  0  0  0  0  0  0  0
    6.4005   -1.1162   -0.6841 C   0  0  0  0  0  0  0  0  0  0  0  0
    5.9586    1.1603   -1.3858 C   0  0  0  0  0  0  0  0  0  0  0  0
    4.4681    1.4333   -1.5183 C   0  0  0  0  0  0  0  0  0  0  0  0
    2.7137    2.4134   -0.2068 C   0  0  0  0  0  0  0  0  0  0  0  0
    1.7034    2.0262   -1.1096 C   0  0  0  0  0  0  0  0  0  0  0  0
    0.3597    2.2966   -0.8053 C   0  0  0  0  0  0  0  0  0  0  0  0
   -0.0125    2.9429    0.3857 C   0  0  0  0  0  0  0  0  0  0  0  0
    1.0154    3.3742    1.2489 C   0  0  0  0  0  0  0  0  0  0  0  0
    2.3600    3.1252    0.9602 C   0  0  0  0  0  0  0  0  0  0  0  0
   -1.4663    3.1239    0.7645 C   0  0  0  0  0  0  0  0  0  0  0  0
   -5.7506   -2.4404   -1.4392 H   0  0  0  0  0  0  0  0  0  0  0  0
   -7.0116   -0.3107   -2.0961 H   0  0  0  0  0  0  0  0  0  0  0  0
   -5.9586    1.9576   -1.5434 H   0  0  0  0  0  0  0  0  0  0  0  0
   -1.1188   -3.1303    1.9910 H   0  0  0  0  0  0  0  0  0  0  0  0
   -1.5310   -4.0393    0.5126 H   0  0  0  0  0  0  0  0  0  0  0  0
   -0.3963   -1.8367   -1.4633 H   0  0  0  0  0  0  0  0  0  0  0  0
    1.9281   -1.2800   -2.2294 H   0  0  0  0  0  0  0  0  0  0  0  0
    3.5325   -3.1960    1.3193 H   0  0  0  0  0  0  0  0  0  0  0  0
    1.2284   -3.7147    2.0736 H   0  0  0  0  0  0  0  0  0  0  0  0
    5.5234   -3.0298   -0.1539 H   0  0  0  0  0  0  0  0  0  0  0  0
    5.0549   -1.6495    0.9066 H   0  0  0  0  0  0  0  0  0  0  0  0
    7.3340   -1.5092   -0.2213 H   0  0  0  0  0  0  0  0  0  0  0  0
    6.4841   -1.2663   -1.7860 H   0  0  0  0  0  0  0  0  0  0  0  0
    6.3369    0.8027   -2.3728 H   0  0  0  0  0  0  0  0  0  0  0  0
    6.4736    2.1165   -1.1520 H   0  0  0  0  0  0  0  0  0  0  0  0
    4.2878    2.0581   -2.4254 H   0  0  0  0  0  0  0  0  0  0  0  0
    3.9200    0.4739   -1.6361 H   0  0  0  0  0  0  0  0  0  0  0  0
    1.9488    1.4900   -2.0356 H   0  0  0  0  0  0  0  0  0  0  0  0
   -0.4279    1.9535   -1.4933 H   0  0  0  0  0  0  0  0  0  0  0  0
    0.7515    3.8950    2.1838 H   0  0  0  0  0  0  0  0  0  0  0  0
    3.1643    3.4438    1.6400 H   0  0  0  0  0  0  0  0  0  0  0  0
   -1.5287    3.2929    1.8642 H   0  0  0  0  0  0  0  0  0  0  0  0
   -1.8929    4.0350    0.2867 H   0  0  0  0  0  0  0  0  0  0  0  0
  1 14  2  0  0  0  0
  2 15  2  0  0  0  0
  3 20  1  0  0  0  0
  3 23  1  0  0  0  0
  5 27  1  0  0  0  0
  7 16  1  0  0  0  0
  8 33  1  0  0  0  0
  9 10  1  6  0  0  0
  9  6  1  0  0  0  0
  9 14  1  0  0  0  0
 11 12  1  0  0  0  0
 11 10  2  0  0  0  0
 12 13  2  0  0  0  0
 13  6  1  0  0  0  0
 13 15  1  0  0  0  0
 14  7  1  0  0  0  0
 15  8  1  0  0  0  0
 16 37  1  0  0  0  0
 17 16  1  0  0  0  0
 17 22  1  0  0  0  0
 18 17  2  0  0  0  0
 19 18  1  0  0  0  0
 19 20  2  0  0  0  0
 20 21  1  0  0  0  0
 21 22  2  0  0  0  0
 21 41  1  0  0  0  0
 22 42  1  0  0  0  0
 23 44  1  0  0  0  0
 24  4  1  0  0  0  0
 24 45  1  0  0  0  0
 24 23  1  0  0  0  0
 25 48  1  0  0  0  0
 25  4  1  0  0  0  0
 26 25  1  0  0  0  0
 26  5  1  0  0  0  0
 27 32  1  0  0  0  0
 28 29  1  0  0  0  0
 28 27  2  0  0  0  0
 29 30  2  0  0  0  0
 30 33  1  0  0  0  0
 30 31  1  0  0  0  0
 31 53  1  0  0  0  0
 32 31  2  0  0  0  0
 32 54  1  0  0  0  0
 33 55  1  0  0  0  0
 34 10  1  0  0  0  0
 35 11  1  0  0  0  0
 36 12  1  0  0  0  0
 38 16  1  0  0  0  0
 39 18  1  0  0  0  0
 40 19  1  0  0  0  0
 43 23  1  0  0  0  0
 46 24  1  0  0  0  0
 47 25  1  0  0  0  0
 49 26  1  0  0  0  0
 50 26  1  0  0  0  0
 51 28  1  0  0  0  0
 52 29  1  0  0  0  0
 56 33  1  0  0  0  0
M  END
