1,3,5
 OpenBabel05122313063D

 76 81  0  0  1  0  0  0  0  0999 V2000
   -2.0446    0.0653   -0.0556 N   0  0  0  0  0  2  0  0  0  0  0  0
   -2.6861   -1.1280    0.0814 N   0  0  0  0  0  0  0  0  0  0  0  0
    0.2732   -1.3255    1.3429 N   0  0  0  0  0  0  0  0  0  0  0  0
    2.6213   -1.0359   -0.5372 N   0  0  0  0  0  0  0  0  0  0  0  0
    1.9929    0.1605   -0.3693 N   0  0  0  0  0  2  0  0  0  0  0  0
   -1.7953    3.0754    0.4657 C   0  0  0  0  0  0  0  0  0  0  0  0
   -1.2503    2.4720    1.2051 H   0  0  0  0  0  0  0  0  0  0  0  0
   -1.6054    4.4613    0.4137 C   0  0  0  0  0  0  0  0  0  0  0  0
   -0.9025    4.9391    1.1110 H   0  0  0  0  0  0  0  0  0  0  0  0
   -2.3125    5.2349   -0.5206 C   0  0  0  0  0  0  0  0  0  0  0  0
   -2.1624    6.3243   -0.5617 H   0  0  0  0  0  0  0  0  0  0  0  0
   -3.2182    4.6168   -1.3983 C   0  0  0  0  0  0  0  0  0  0  0  0
   -3.7691    5.2184   -2.1363 H   0  0  0  0  0  0  0  0  0  0  0  0
   -3.4243    3.2331   -1.3373 C   0  0  0  0  0  0  0  0  0  0  0  0
   -4.1255    2.7475   -2.0321 H   0  0  0  0  0  0  0  0  0  0  0  0
   -2.7092    2.4486   -0.4075 C   0  0  0  0  0  0  0  0  0  0  0  0
   -2.9905    1.0113   -0.2938 C   0  0  2  0  0  3  0  0  0  0  0  0
   -4.2577    0.3846   -0.3195 C   0  0  0  0  0  0  0  0  0  0  0  0
   -5.2228    0.8718   -0.4859 H   0  0  0  0  0  0  0  0  0  0  0  0
   -4.0444   -0.9748   -0.0717 C   0  0  0  0  0  0  0  0  0  0  0  0
   -5.0098   -2.0762    0.0409 C   0  0  0  0  0  0  0  0  0  0  0  0
   -4.7776   -3.3291   -0.5741 C   0  0  0  0  0  0  0  0  0  0  0  0
   -3.8673   -3.4866   -1.1724 H   0  0  0  0  0  0  0  0  0  0  0  0
   -5.7285   -4.3535   -0.4741 C   0  0  0  0  0  0  0  0  0  0  0  0
   -5.5433   -5.3200   -0.9659 H   0  0  0  0  0  0  0  0  0  0  0  0
   -6.9235   -4.1404    0.2316 C   0  0  0  0  0  0  0  0  0  0  0  0
   -7.6700   -4.9450    0.3057 H   0  0  0  0  0  0  0  0  0  0  0  0
   -7.1687   -2.8953    0.8334 C   0  0  0  0  0  0  0  0  0  0  0  0
   -8.1057   -2.7236    1.3836 H   0  0  0  0  0  0  0  0  0  0  0  0
   -6.2205   -1.8688    0.7407 C   0  0  0  0  0  0  0  0  0  0  0  0
   -6.4060   -0.8981    1.2242 H   0  0  0  0  0  0  0  0  0  0  0  0
   -1.9671   -2.2643    0.6334 C   0  0  0  0  0  0  0  0  0  0  0  0
   -1.4045   -2.7901   -0.1681 H   0  0  0  0  0  0  0  0  0  0  0  0
   -2.7317   -2.9719    1.0058 H   0  0  0  0  0  0  0  0  0  0  0  0
   -1.0465   -1.8594    1.7872 C   0  0  0  0  0  0  0  0  0  0  0  0
   -1.5501   -1.0878    2.3987 H   0  0  0  0  0  0  0  0  0  0  0  0
   -0.8707   -2.7405    2.4432 H   0  0  0  0  0  0  0  0  0  0  0  0
    0.9856   -0.6600    2.4894 C   0  0  0  0  0  0  0  0  0  0  0  0
    2.0403   -0.5345    2.1760 H   0  0  0  0  0  0  0  0  0  0  0  0
    0.9841   -1.3733    3.3456 H   0  0  0  0  0  0  0  0  0  0  0  0
    0.4208    0.6897    2.8994 C   0  0  0  0  0  0  0  0  0  0  0  0
    0.9810    1.0609    3.7799 H   0  0  0  0  0  0  0  0  0  0  0  0
   -0.6485    0.6471    3.1857 H   0  0  0  0  0  0  0  0  0  0  0  0
    0.5409    1.4333    2.0860 H   0  0  0  0  0  0  0  0  0  0  0  0
    1.1164   -2.4643    0.8210 C   0  0  0  0  0  0  0  0  0  0  0  0
    1.8840   -2.7087    1.5839 H   0  0  0  0  0  0  0  0  0  0  0  0
    0.4821   -3.3653    0.7126 H   0  0  0  0  0  0  0  0  0  0  0  0
    1.7919   -2.2260   -0.5338 C   0  0  0  0  0  0  0  0  0  0  0  0
    2.4397   -3.0933   -0.7616 H   0  0  0  0  0  0  0  0  0  0  0  0
    1.0398   -2.1270   -1.3437 H   0  0  0  0  0  0  0  0  0  0  0  0
    4.8793   -2.9111   -1.5435 C   0  0  0  0  0  0  0  0  0  0  0  0
    4.1489   -2.7395   -2.3493 H   0  0  0  0  0  0  0  0  0  0  0  0
    5.8053   -3.9573   -1.6528 C   0  0  0  0  0  0  0  0  0  0  0  0
    5.7749   -4.6226   -2.5284 H   0  0  0  0  0  0  0  0  0  0  0  0
    6.7831   -4.1413   -0.6619 C   0  0  0  0  0  0  0  0  0  0  0  0
    7.5115   -4.9605   -0.7528 H   0  0  0  0  0  0  0  0  0  0  0  0
    6.8378   -3.2702    0.4383 C   0  0  0  0  0  0  0  0  0  0  0  0
    7.6072   -3.4072    1.2125 H   0  0  0  0  0  0  0  0  0  0  0  0
    5.9119   -2.2254    0.5562 C   0  0  0  0  0  0  0  0  0  0  0  0
    5.9470   -1.5485    1.4232 H   0  0  0  0  0  0  0  0  0  0  0  0
    4.9170   -2.0399   -0.4297 C   0  0  0  0  0  0  0  0  0  0  0  0
    3.9714   -0.9220   -0.3004 C   0  0  1  0  0  3  0  0  0  0  0  0
    4.1948    0.4190    0.0222 C   0  0  0  0  0  0  0  0  0  0  0  0
    5.1664    0.8931    0.1889 H   0  0  0  0  0  0  0  0  0  0  0  0
    2.9371    1.0746   -0.0327 C   0  0  0  0  0  0  0  0  0  0  0  0
    2.6788    2.4961    0.2491 C   0  0  0  0  0  0  0  0  0  0  0  0
    3.3768    3.1048    1.3194 C   0  0  0  0  0  0  0  0  0  0  0  0
    4.0498    2.4989    1.9454 H   0  0  0  0  0  0  0  0  0  0  0  0
    3.2058    4.4672    1.5934 C   0  0  0  0  0  0  0  0  0  0  0  0
    3.7487    4.9287    2.4317 H   0  0  0  0  0  0  0  0  0  0  0  0
    2.3502    5.2423    0.7927 C   0  0  0  0  0  0  0  0  0  0  0  0
    2.2287    6.3168    0.9976 H   0  0  0  0  0  0  0  0  0  0  0  0
    1.6600    4.6442   -0.2731 C   0  0  0  0  0  0  0  0  0  0  0  0
    0.9958    5.2454   -0.9108 H   0  0  0  0  0  0  0  0  0  0  0  0
    1.8119    3.2774   -0.5447 C   0  0  0  0  0  0  0  0  0  0  0  0
    1.2703    2.8146   -1.3829 H   0  0  0  0  0  0  0  0  0  0  0  0
  1  2  1  0  0  0  0
  2 32  1  0  0  0  0
  3 35  1  0  0  0  0
  3 38  1  0  0  0  0
  4 48  1  0  0  0  0
  4  5  1  0  0  0  0
  4 62  1  0  0  0  0
  5 65  1  0  0  0  0
  6  7  1  0  0  0  0
  8  6  1  0  0  0  0
  8  9  1  0  0  0  0
 10  8  2  0  0  0  0
 11 10  1  0  0  0  0
 12 14  2  0  0  0  0
 12 10  1  0  0  0  0
 13 12  1  0  0  0  0
 14 16  1  0  0  0  0
 15 14  1  0  0  0  0
 16  6  2  0  0  0  0
 17 16  1  1  0  0  0
 17  1  1  0  0  0  0
 18 17  1  0  0  0  0
 18 20  2  0  0  0  0
 19 18  1  0  0  0  0
 20 21  1  0  0  0  0
 20  2  1  0  0  0  0
 21 30  1  0  0  0  0
 22 24  1  0  0  0  0
 22 21  2  0  0  0  0
 23 22  1  0  0  0  0
 24 26  2  0  0  0  0
 25 24  1  0  0  0  0
 26 27  1  0  0  0  0
 26 28  1  0  0  0  0
 28 29  1  0  0  0  0
 30 28  2  0  0  0  0
 30 31  1  0  0  0  0
 32 34  1  0  0  0  0
 32 35  1  0  0  0  0
 33 32  1  0  0  0  0
 35 36  1  0  0  0  0
 35 37  1  0  0  0  0
 38 41  1  0  0  0  0
 38 40  1  0  0  0  0
 39 38  1  0  0  0  0
 41 43  1  0  0  0  0
 41 42  1  0  0  0  0
 44 41  1  0  0  0  0
 45  3  1  0  0  0  0
 45 46  1  0  0  0  0
 47 45  1  0  0  0  0
 48 45  1  0  0  0  0
 49 48  1  0  0  0  0
 50 48  1  0  0  0  0
 51 61  1  0  0  0  0
 52 51  1  0  0  0  0
 53 51  2  0  0  0  0
 53 55  1  0  0  0  0
 54 53  1  0  0  0  0
 55 57  2  0  0  0  0
 56 55  1  0  0  0  0
 57 59  1  0  0  0  0
 57 58  1  0  0  0  0
 59 60  1  0  0  0  0
 61 59  2  0  0  0  0
 62 61  1  6  0  0  0
 62 63  1  0  0  0  0
 63 64  1  0  0  0  0
 65 63  2  0  0  0  0
 65 66  1  0  0  0  0
 66 67  1  0  0  0  0
 67 69  2  0  0  0  0
 67 68  1  0  0  0  0
 69 70  1  0  0  0  0
 71 72  1  0  0  0  0
 71 69  1  0  0  0  0
 73 71  2  0  0  0  0
 74 73  1  0  0  0  0
 75 73  1  0  0  0  0
 75 66  2  0  0  0  0
 76 75  1  0  0  0  0
M  END
