2,9,16
 OpenBabel05122313063D

 41 43  0  0  1  0  0  0  0  0999 V2000
    2.6296    0.5985    0.2226 B   0  0  2  0  0  0  0  0  0  0  0  0
    1.4016   -1.1727   -1.1221 N   0  0  0  0  0  2  0  0  0  0  0  0
    2.5851   -0.5796   -0.7918 N   0  0  0  0  0  0  0  0  0  0  0  0
    3.5554   -1.2088   -1.4983 C   0  0  1  0  0  3  0  0  0  0  0  0
    3.0332   -2.1793   -2.2675 N   0  0  0  0  0  0  0  0  0  0  0  0
    1.7052   -2.1405   -2.0190 C   0  0  0  0  0  0  0  0  0  0  0  0
    5.0042   -0.8640   -1.4263 C   0  0  0  0  0  0  0  0  0  0  0  0
    0.6886   -3.0312   -2.6414 C   0  0  0  0  0  0  0  0  0  0  0  0
    0.7940   -0.4856    1.5617 N   0  0  0  0  0  2  0  0  0  0  0  0
    2.0352    0.0843    1.5473 N   0  0  0  0  0  0  0  0  0  0  0  0
    2.5731   -0.0614    2.7856 C   0  0  1  0  0  3  0  0  0  0  0  0
    1.7207   -0.7044    3.5949 N   0  0  0  0  0  0  0  0  0  0  0  0
    0.6380   -0.9611    2.8177 C   0  0  0  0  0  0  0  0  0  0  0  0
    3.9284    0.4233    3.1784 C   0  0  0  0  0  0  0  0  0  0  0  0
   -0.5700   -1.6911    3.2916 C   0  0  0  0  0  0  0  0  0  0  0  0
    0.4427    1.4385   -0.6650 N   0  0  0  0  0  2  0  0  0  0  0  0
    1.7379    1.7151   -0.3397 N   0  0  0  0  0  0  0  0  0  0  0  0
    1.9855    3.0086   -0.6719 C   0  0  2  0  0  3  0  0  0  0  0  0
    0.8914    3.5719   -1.2008 N   0  0  0  0  0  0  0  0  0  0  0  0
   -0.0421    2.5855   -1.1882 C   0  0  0  0  0  0  0  0  0  0  0  0
    3.2959    3.6936   -0.4726 C   0  0  0  0  0  0  0  0  0  0  0  0
   -1.4379    2.7533   -1.6763 C   0  0  0  0  0  0  0  0  0  0  0  0
    3.7731    0.9808    0.3760 H   0  0  0  0  0  0  0  0  0  0  0  0
    5.3996   -0.9780   -0.3973 H   0  0  0  0  0  0  0  0  0  0  0  0
    5.1896    0.1830   -1.7391 H   0  0  0  0  0  0  0  0  0  0  0  0
    5.5573   -1.5419   -2.0998 H   0  0  0  0  0  0  0  0  0  0  0  0
    1.1911   -3.7209   -3.3414 H   0  0  0  0  0  0  0  0  0  0  0  0
   -0.0742   -2.4368   -3.1840 H   0  0  0  0  0  0  0  0  0  0  0  0
    0.1478   -3.6084   -1.8646 H   0  0  0  0  0  0  0  0  0  0  0  0
    4.7283   -0.0954    2.6120 H   0  0  0  0  0  0  0  0  0  0  0  0
    4.0713    0.2225    4.2547 H   0  0  0  0  0  0  0  0  0  0  0  0
    4.0444    1.5100    2.9958 H   0  0  0  0  0  0  0  0  0  0  0  0
   -0.3436   -2.1696    4.2607 H   0  0  0  0  0  0  0  0  0  0  0  0
   -0.8820   -2.4504    2.5487 H   0  0  0  0  0  0  0  0  0  0  0  0
   -1.4233   -0.9936    3.4179 H   0  0  0  0  0  0  0  0  0  0  0  0
    3.6057    3.6846    0.5916 H   0  0  0  0  0  0  0  0  0  0  0  0
    3.1952    4.7416   -0.8060 H   0  0  0  0  0  0  0  0  0  0  0  0
    4.1047    3.2106   -1.0574 H   0  0  0  0  0  0  0  0  0  0  0  0
   -1.5350    3.7383   -2.1653 H   0  0  0  0  0  0  0  0  0  0  0  0
   -2.1506    2.6894   -0.8280 H   0  0  0  0  0  0  0  0  0  0  0  0
   -1.7134    1.9439   -2.3795 H   0  0  0  0  0  0  0  0  0  0  0  0
  1 23  1  1  0  0  0
  1 10  1  0  0  0  0
  2  3  1  0  0  0  0
  3  1  1  0  0  0  0
  4  7  1  6  0  0  0
  4  3  1  0  0  0  0
  5  6  2  0  0  0  0
  5  4  1  0  0  0  0
  6  2  1  0  0  0  0
  7 24  1  0  0  0  0
  8  6  1  0  0  0  0
  8 29  1  0  0  0  0
  9 13  1  0  0  0  0
 10  9  1  0  0  0  0
 10 11  1  0  0  0  0
 11 14  1  6  0  0  0
 11 12  1  0  0  0  0
 13 15  1  0  0  0  0
 13 12  2  0  0  0  0
 14 31  1  0  0  0  0
 15 35  1  0  0  0  0
 15 33  1  0  0  0  0
 16 17  1  0  0  0  0
 17  1  1  0  0  0  0
 18 21  1  6  0  0  0
 18 17  1  0  0  0  0
 19 20  2  0  0  0  0
 19 18  1  0  0  0  0
 20 16  1  0  0  0  0
 21 36  1  0  0  0  0
 22 20  1  0  0  0  0
 22 40  1  0  0  0  0
 25  7  1  0  0  0  0
 26  7  1  0  0  0  0
 27  8  1  0  0  0  0
 28  8  1  0  0  0  0
 30 14  1  0  0  0  0
 32 14  1  0  0  0  0
 34 15  1  0  0  0  0
 37 21  1  0  0  0  0
 38 21  1  0  0  0  0
 39 22  1  0  0  0  0
 41 22  1  0  0  0  0
M  END
