1,3,4
 OpenBabel05122313063D

 26 27  0  0  0  0  0  0  0  0999 V2000
   -1.3857   -1.2870   -0.0076 N   0  0  0  0  0  2  0  0  0  0  0  0
   -3.4028   -3.1739    0.3899 N   0  0  0  0  0  0  0  0  0  0  0  0
    1.2742    1.4120    0.4917 N   0  0  0  0  0  2  0  0  0  0  0  0
   -0.3032    0.0590    1.8628 N   0  0  0  0  0  2  0  0  0  0  0  0
    0.4097    0.8654    2.6216 N   0  0  0  0  0  0  0  0  0  0  0  0
    2.9649    3.0891    0.2146 C   0  0  0  0  0  0  0  0  0  0  0  0
    3.6145    3.6576   -0.4641 H   0  0  0  0  0  0  0  0  0  0  0  0
    2.9845    3.2998    1.6091 C   0  0  0  0  0  0  0  0  0  0  0  0
    3.6640    4.0464    2.0461 H   0  0  0  0  0  0  0  0  0  0  0  0
    2.1384    2.5641    2.4351 C   0  0  0  0  0  0  0  0  0  0  0  0
    2.1148    2.6970    3.5248 H   0  0  0  0  0  0  0  0  0  0  0  0
   -1.8429   -1.5490    1.2636 C   0  0  0  0  0  0  0  0  0  0  0  0
   -1.2286   -0.7923    2.3255 C   0  0  0  0  0  0  0  0  0  0  0  0
   -1.9277   -1.9378   -1.0488 C   0  0  0  0  0  0  0  0  0  0  0  0
   -1.5531   -1.6918   -2.0532 H   0  0  0  0  0  0  0  0  0  0  0  0
   -2.8680   -2.5212    1.4194 C   0  0  0  0  0  0  0  0  0  0  0  0
   -3.2488   -2.7559    2.4277 H   0  0  0  0  0  0  0  0  0  0  0  0
   -1.5707   -0.9190    3.7737 C   0  0  0  0  0  0  0  0  0  0  0  0
   -0.9457   -0.2241    4.3627 H   0  0  0  0  0  0  0  0  0  0  0  0
   -1.3987   -1.9517    4.1430 H   0  0  0  0  0  0  0  0  0  0  0  0
   -2.6385   -0.6791    3.9602 H   0  0  0  0  0  0  0  0  0  0  0  0
   -2.9427   -2.8852   -0.8402 C   0  0  0  0  0  0  0  0  0  0  0  0
   -3.3883   -3.4179   -1.6960 H   0  0  0  0  0  0  0  0  0  0  0  0
    1.2666    1.6066    1.8611 C   0  0  0  0  0  0  0  0  0  0  0  0
    2.0908    2.1324   -0.3032 C   0  0  0  0  0  0  0  0  0  0  0  0
    2.0256    1.9307   -1.3826 H   0  0  0  0  0  0  0  0  0  0  0  0
  1 12  1  0  0  0  0
  2 16  2  0  0  0  0
  3 24  1  0  0  0  0
  4 13  1  0  0  0  0
  4  5  1  0  0  0  0
  6  8  1  0  0  0  0
  7  6  1  0  0  0  0
  8  9  1  0  0  0  0
  8 10  2  0  0  0  0
 10 11  1  0  0  0  0
 12 16  1  0  0  0  0
 12 13  2  0  0  0  0
 13 18  1  0  0  0  0
 14 22  2  0  0  0  0
 14  1  1  0  0  0  0
 15 14  1  0  0  0  0
 16 17  1  0  0  0  0
 18 21  1  0  0  0  0
 18 20  1  0  0  0  0
 18 19  1  0  0  0  0
 22  2  1  0  0  0  0
 23 22  1  0  0  0  0
 24 10  1  0  0  0  0
 24  5  2  0  0  0  0
 25  6  2  0  0  0  0
 25  3  1  0  0  0  0
 26 25  1  0  0  0  0
M  END
