4,5,6
 OpenBabel05122313063D

 52 54  0  0  1  0  0  0  0  0999 V2000
   -2.4050   -2.4289   -0.0560 S   0  0  0  0  0  0  0  0  0  0  0  0
   -2.4305   -3.1004   -1.3644 O   0  0  0  0  0  0  0  0  0  0  0  0
   -2.9411   -3.0613    1.1730 O   0  0  0  0  0  0  0  0  0  0  0  0
    0.4046    1.3765    0.2833 N   0  0  0  0  0  2  0  0  0  0  0  0
    1.9012   -0.7477    1.3661 N   0  0  0  0  0  0  0  0  0  0  0  0
    3.5147    0.1975   -0.7460 N   0  0  0  0  0  2  0  0  0  0  0  0
   -0.7954   -2.0512    0.2699 N   0  0  0  0  0  0  0  0  0  0  0  0
   -0.3760   -1.5304   -0.5363 H   0  0  0  0  0  0  0  0  0  0  0  0
   -0.6400    2.0661   -0.2147 C   0  0  0  0  0  3  0  0  0  0  0  0
   -0.7971    1.9587   -1.3010 H   0  0  0  0  0  0  0  0  0  0  0  0
   -1.4869    2.8236    0.6032 C   0  0  0  0  0  0  0  0  0  0  0  0
   -2.3347    3.3646    0.1616 H   0  0  0  0  0  0  0  0  0  0  0  0
   -1.2413    2.8538    1.9836 C   0  0  0  0  0  0  0  0  0  0  0  0
   -1.8920    3.4325    2.6562 H   0  0  0  0  0  0  0  0  0  0  0  0
   -0.1679    2.1111    2.4998 C   0  0  0  0  0  0  0  0  0  0  0  0
    0.0395    2.0855    3.5802 H   0  0  0  0  0  0  0  0  0  0  0  0
    0.6333    1.3747    1.6164 C   0  0  0  0  0  0  0  0  0  0  0  0
    1.8212    0.5431    2.0600 C   0  0  0  0  0  0  0  0  0  0  0  0
    2.7388    1.1189    1.8089 H   0  0  0  0  0  0  0  0  0  0  0  0
    1.8108    0.4210    3.1712 H   0  0  0  0  0  0  0  0  0  0  0  0
    3.2742   -1.2317    1.2288 C   0  0  0  0  0  0  0  0  0  0  0  0
    3.2152   -2.2393    0.7626 H   0  0  0  0  0  0  0  0  0  0  0  0
    3.7905   -1.3673    2.2127 H   0  0  0  0  0  0  0  0  0  0  0  0
    4.1315   -0.3614    0.3326 C   0  0  1  0  0  3  0  0  0  0  0  0
    5.5017   -0.1875    0.5689 C   0  0  0  0  0  0  0  0  0  0  0  0
    5.9566   -0.6421    1.4620 H   0  0  0  0  0  0  0  0  0  0  0  0
    6.2743    0.5580   -0.3349 C   0  0  0  0  0  0  0  0  0  0  0  0
    7.3521    0.6996   -0.1680 H   0  0  0  0  0  0  0  0  0  0  0  0
    5.6367    1.1169   -1.4540 C   0  0  0  0  0  0  0  0  0  0  0  0
    6.1947    1.7051   -2.1968 H   0  0  0  0  0  0  0  0  0  0  0  0
    4.2641    0.9160   -1.6194 C   0  0  0  0  0  0  0  0  0  0  0  0
    3.7228    1.3310   -2.4840 H   0  0  0  0  0  0  0  0  0  0  0  0
    1.0079   -1.7670    1.9402 C   0  0  0  0  0  0  0  0  0  0  0  0
    1.1308   -1.7950    3.0531 H   0  0  0  0  0  0  0  0  0  0  0  0
    1.3238   -2.7544    1.5485 H   0  0  0  0  0  0  0  0  0  0  0  0
   -0.4789   -1.6111    1.6194 C   0  0  0  0  0  0  0  0  0  0  0  0
   -1.0357   -2.2779    2.3072 H   0  0  0  0  0  0  0  0  0  0  0  0
   -0.8253   -0.5742    1.8409 H   0  0  0  0  0  0  0  0  0  0  0  0
   -3.2438   -0.8424   -0.2444 C   0  0  0  0  0  0  0  0  0  0  0  0
   -3.1606   -0.1626   -1.4708 C   0  0  0  0  0  0  0  0  0  0  0  0
   -2.5698   -0.5902   -2.2937 H   0  0  0  0  0  0  0  0  0  0  0  0
   -3.8087    1.0715   -1.6026 C   0  0  0  0  0  0  0  0  0  0  0  0
   -3.7454    1.6106   -2.5616 H   0  0  0  0  0  0  0  0  0  0  0  0
   -4.5393    1.6381   -0.5353 C   0  0  0  0  0  0  0  0  0  0  0  0
   -4.5974    0.9333    0.6845 C   0  0  0  0  0  0  0  0  0  0  0  0
   -5.1629    1.3586    1.5291 H   0  0  0  0  0  0  0  0  0  0  0  0
   -3.9586   -0.3060    0.8361 C   0  0  0  0  0  0  0  0  0  0  0  0
   -4.0216   -0.8772    1.7737 H   0  0  0  0  0  0  0  0  0  0  0  0
   -5.2582    2.9529   -0.7063 C   0  0  0  0  0  0  0  0  0  0  0  0
   -6.2596    2.8015   -1.1640 H   0  0  0  0  0  0  0  0  0  0  0  0
   -4.7029    3.6403   -1.3760 H   0  0  0  0  0  0  0  0  0  0  0  0
   -5.4183    3.4633    0.2640 H   0  0  0  0  0  0  0  0  0  0  0  0
  1  7  1  0  0  0  0
  1  3  2  0  0  0  0
  2  1  2  0  0  0  0
  4 17  1  0  0  0  0
  5 33  1  0  0  0  0
  5 18  1  0  0  0  0
  6 24  1  0  0  0  0
  7 36  1  0  0  0  0
  8  7  1  0  0  0  0
  9  4  1  0  0  0  0
  9 11  1  0  0  0  0
 10  9  1  0  0  0  0
 11 13  2  0  0  0  0
 12 11  1  0  0  0  0
 13 15  1  0  0  0  0
 13 14  1  0  0  0  0
 15 16  1  0  0  0  0
 17 18  1  0  0  0  0
 17 15  2  0  0  0  0
 18 20  1  0  0  0  0
 19 18  1  0  0  0  0
 21  5  1  0  0  0  0
 21 23  1  0  0  0  0
 22 21  1  0  0  0  0
 24 25  1  0  0  0  0
 24 21  1  6  0  0  0
 25 26  1  0  0  0  0
 27 28  1  0  0  0  0
 27 25  2  0  0  0  0
 29 27  1  0  0  0  0
 30 29  1  0  0  0  0
 31 29  2  0  0  0  0
 31  6  1  0  0  0  0
 32 31  1  0  0  0  0
 33 34  1  0  0  0  0
 35 33  1  0  0  0  0
 36 38  1  0  0  0  0
 36 33  1  0  0  0  0
 36 37  1  0  0  0  0
 39  1  1  0  0  0  0
 39 47  1  0  0  0  0
 40 39  2  0  0  0  0
 41 40  1  0  0  0  0
 42 40  1  0  0  0  0
 42 44  2  0  0  0  0
 43 42  1  0  0  0  0
 44 45  1  0  0  0  0
 45 47  2  0  0  0  0
 45 46  1  0  0  0  0
 47 48  1  0  0  0  0
 49 44  1  0  0  0  0
 49 52  1  0  0  0  0
 50 49  1  0  0  0  0
 51 49  1  0  0  0  0
M  END
