1,15,50
 OpenBabel05122313063D

 58 59  0  0  1  0  0  0  0  0999 V2000
   -1.5406    1.1666   -0.3173 N   0  0  0  0  0  2  0  0  0  0  0  0
   -0.7292    2.0536   -0.9873 C   0  0  0  0  0  0  0  0  0  0  0  0
   -1.2675    3.2381   -1.5244 C   0  0  0  0  0  0  0  0  0  0  0  0
   -0.6217    3.9428   -2.0671 H   0  0  0  0  0  0  0  0  0  0  0  0
   -2.6374    3.5044   -1.3410 C   0  0  0  0  0  0  0  0  0  0  0  0
   -3.0743    4.4275   -1.7490 H   0  0  0  0  0  0  0  0  0  0  0  0
   -3.4492    2.6059   -0.6245 C   0  0  0  0  0  0  0  0  0  0  0  0
   -4.5154    2.8212   -0.4663 H   0  0  0  0  0  0  0  0  0  0  0  0
   -2.8769    1.4268   -0.1073 C   0  0  0  0  0  0  0  0  0  0  0  0
    0.6271    1.5575   -1.0083 C   0  0  0  0  0  0  0  0  0  0  0  0
    1.7079    2.2123   -1.8116 C   0  0  0  0  0  0  0  0  0  0  0  0
    2.5826    1.5456   -1.9262 H   0  0  0  0  0  0  0  0  0  0  0  0
    2.0625    3.1509   -1.3327 H   0  0  0  0  0  0  0  0  0  0  0  0
    1.3310    2.4867   -2.8180 H   0  0  0  0  0  0  0  0  0  0  0  0
    0.7820    0.4483   -0.2633 N   0  0  0  0  0  2  0  0  0  0  0  0
    2.0402   -0.2146   -0.1885 C   0  0  0  0  0  0  0  0  0  0  0  0
    3.1295    0.3610    0.5168 C   0  0  0  0  0  0  0  0  0  0  0  0
    4.3318   -0.3703    0.5839 C   0  0  0  0  0  0  0  0  0  0  0  0
    5.1887    0.0567    1.1272 H   0  0  0  0  0  0  0  0  0  0  0  0
    4.4530   -1.6310   -0.0107 C   0  0  0  0  0  0  0  0  0  0  0  0
    5.4042   -2.1812    0.0514 H   0  0  0  0  0  0  0  0  0  0  0  0
    3.3520   -2.2020   -0.6648 C   0  0  0  0  0  0  0  0  0  0  0  0
    3.4427   -3.2054   -1.1055 H   0  0  0  0  0  0  0  0  0  0  0  0
    2.1305   -1.5153   -0.7580 C   0  0  0  0  0  0  0  0  0  0  0  0
    2.9941    1.6778    1.2746 C   0  0  0  0  0  0  0  0  0  0  0  0
    2.0630    2.1722    0.9348 H   0  0  0  0  0  0  0  0  0  0  0  0
    2.8216    1.4064    2.7809 C   0  0  0  0  0  0  0  0  0  0  0  0
    1.9401    0.7623    2.9665 H   0  0  0  0  0  0  0  0  0  0  0  0
    2.6827    2.3559    3.3384 H   0  0  0  0  0  0  0  0  0  0  0  0
    3.7135    0.8928    3.1966 H   0  0  0  0  0  0  0  0  0  0  0  0
    4.1586    2.6436    1.0080 C   0  0  0  0  0  0  0  0  0  0  0  0
    4.2973    2.8291   -0.0762 H   0  0  0  0  0  0  0  0  0  0  0  0
    5.1179    2.2516    1.4048 H   0  0  0  0  0  0  0  0  0  0  0  0
    3.9760    3.6188    1.5040 H   0  0  0  0  0  0  0  0  0  0  0  0
    0.9101   -2.1173   -1.4363 C   0  0  0  0  0  0  0  0  0  0  0  0
    0.0283   -1.7278   -0.8608 H   0  0  0  0  0  0  0  0  0  0  0  0
    0.8504   -3.6446   -1.3688 C   0  0  0  0  0  0  0  0  0  0  0  0
   -0.1339   -4.0021   -1.7330 H   0  0  0  0  0  0  0  0  0  0  0  0
    0.9796   -4.0073   -0.3295 H   0  0  0  0  0  0  0  0  0  0  0  0
    1.6282   -4.1239   -2.0000 H   0  0  0  0  0  0  0  0  0  0  0  0
    0.7511   -1.6056   -2.8772 C   0  0  0  0  0  0  0  0  0  0  0  0
    0.7099   -0.4990   -2.9130 H   0  0  0  0  0  0  0  0  0  0  0  0
   -0.1847   -1.9930   -3.3309 H   0  0  0  0  0  0  0  0  0  0  0  0
    1.6019   -1.9354   -3.5096 H   0  0  0  0  0  0  0  0  0  0  0  0
   -3.4669    0.3455    0.6495 C   0  0  1  0  0  3  0  0  0  0  0  0
   -4.9414    0.2356    0.9000 C   0  0  0  0  0  0  0  0  0  0  0  0
   -5.1808    0.2087    1.9844 H   0  0  0  0  0  0  0  0  0  0  0  0
   -5.3558   -0.6912    0.4495 H   0  0  0  0  0  0  0  0  0  0  0  0
   -5.4817    1.0928    0.4596 H   0  0  0  0  0  0  0  0  0  0  0  0
   -2.5623   -0.5614    1.0554 N   0  0  0  0  0  2  0  0  0  0  0  0
   -3.0235   -1.7945    1.6712 C   0  0  0  0  0  0  0  0  0  0  0  0
   -3.9858   -1.6534    2.2125 H   0  0  0  0  0  0  0  0  0  0  0  0
   -2.2854   -2.0998    2.4435 H   0  0  0  0  0  0  0  0  0  0  0  0
   -3.1768   -2.9285    0.6859 C   0  0  0  0  0  0  0  0  0  0  0  0
   -3.5087   -3.8824    1.1343 H   0  0  0  0  0  0  0  0  0  0  0  0
   -2.9257   -2.8607   -0.6327 C   0  0  0  0  0  0  0  0  0  0  0  0
   -2.5714   -1.9254   -1.0959 H   0  0  0  0  0  0  0  0  0  0  0  0
   -3.0514   -3.7408   -1.2816 H   0  0  0  0  0  0  0  0  0  0  0  0
  1  9  1  0  0  0  0
  2  1  1  0  0  0  0
  3  5  2  0  0  0  0
  3  2  1  0  0  0  0
  4  3  1  0  0  0  0
  5  7  1  0  0  0  0
  6  5  1  0  0  0  0
  7  8  1  0  0  0  0
  7  9  2  0  0  0  0
  9 45  1  0  0  0  0
 10  2  2  0  0  0  0
 10 15  1  0  0  0  0
 11 13  1  0  0  0  0
 11 10  1  0  0  0  0
 12 11  1  0  0  0  0
 14 11  1  0  0  0  0
 15 16  1  0  0  0  0
 16 17  1  0  0  0  0
 17 18  2  0  0  0  0
 17 25  1  0  0  0  0
 18 19  1  0  0  0  0
 20 21  1  0  0  0  0
 20 18  1  0  0  0  0
 22 20  2  0  0  0  0
 23 22  1  0  0  0  0
 24 22  1  0  0  0  0
 24 16  2  0  0  0  0
 25 27  1  0  0  0  0
 26 25  1  0  0  0  0
 27 28  1  0  0  0  0
 27 30  1  0  0  0  0
 27 29  1  0  0  0  0
 31 25  1  0  0  0  0
 31 33  1  0  0  0  0
 31 34  1  0  0  0  0
 32 31  1  0  0  0  0
 35 37  1  0  0  0  0
 35 36  1  0  0  0  0
 35 24  1  0  0  0  0
 37 39  1  0  0  0  0
 38 37  1  0  0  0  0
 40 37  1  0  0  0  0
 41 35  1  0  0  0  0
 42 41  1  0  0  0  0
 43 41  1  0  0  0  0
 44 41  1  0  0  0  0
 45 46  1  0  0  0  0
 45 50  1  6  0  0  0
 46 47  1  0  0  0  0
 48 46  1  0  0  0  0
 49 46  1  0  0  0  0
 50 51  1  0  0  0  0
 51 52  1  0  0  0  0
 51 53  1  0  0  0  0
 54 55  1  0  0  0  0
 54 51  1  0  0  0  0
 56 54  2  0  0  0  0
 57 56  1  0  0  0  0
 58 56  1  0  0  0  0
M  END
