1,2,4
 OpenBabel05122313063D

 40 40  0  0  1  0  0  0  0  0999 V2000
    1.7180   -0.4509   -1.2930 N   0  0  0  0  0  2  0  0  0  0  0  0
    1.7374    0.6332    1.2814 N   0  0  0  0  0  0  0  0  0  0  0  0
    1.1554    1.0788    2.0093 H   0  0  0  0  0  0  0  0  0  0  0  0
    0.3530   -2.2900    0.6774 N   0  0  0  0  0  0  0  0  0  0  0  0
   -0.5666   -2.2408    1.1340 H   0  0  0  0  0  0  0  0  0  0  0  0
    2.8999    0.0933   -1.4001 C   0  0  1  0  0  3  0  0  0  0  0  0
    0.2774   -3.1868   -0.4815 C   0  0  0  0  0  0  0  0  0  0  0  0
   -0.7000   -3.0063   -0.9745 H   0  0  0  0  0  0  0  0  0  0  0  0
    0.2947   -4.2618   -0.1780 H   0  0  0  0  0  0  0  0  0  0  0  0
    1.3602   -2.6681    1.6758 C   0  0  0  0  0  0  0  0  0  0  0  0
    2.2705   -3.0045    1.1363 H   0  0  0  0  0  0  0  0  0  0  0  0
    1.0274   -3.5442    2.2819 H   0  0  0  0  0  0  0  0  0  0  0  0
    1.3948   -2.9413   -1.4988 C   0  0  0  0  0  0  0  0  0  0  0  0
    1.3071   -3.7110   -2.2933 H   0  0  0  0  0  0  0  0  0  0  0  0
    2.3922   -3.1045   -1.0351 H   0  0  0  0  0  0  0  0  0  0  0  0
    2.5684   -0.3956    1.9560 C   0  0  0  0  0  0  0  0  0  0  0  0
    3.2001    0.0934    2.7277 H   0  0  0  0  0  0  0  0  0  0  0  0
    3.2583   -0.8311    1.2054 H   0  0  0  0  0  0  0  0  0  0  0  0
    3.3967    1.1789   -0.4791 C   0  0  0  0  0  0  0  0  0  0  0  0
    3.7571    2.0191   -1.1125 H   0  0  0  0  0  0  0  0  0  0  0  0
    4.3311    0.7829   -0.0191 H   0  0  0  0  0  0  0  0  0  0  0  0
    1.3718   -1.5700   -2.1913 C   0  0  0  0  0  0  0  0  0  0  0  0
    2.0583   -1.5954   -3.0574 H   0  0  0  0  0  0  0  0  0  0  0  0
    0.3599   -1.3840   -2.6017 H   0  0  0  0  0  0  0  0  0  0  0  0
    2.4820    1.7584    0.6092 C   0  0  0  0  0  0  0  0  0  0  0  0
    1.7523   -1.5192    2.6079 C   0  0  0  0  0  0  0  0  0  0  0  0
    2.3750   -1.9486    3.4193 H   0  0  0  0  0  0  0  0  0  0  0  0
    0.8547   -1.1023    3.1155 H   0  0  0  0  0  0  0  0  0  0  0  0
    3.9225   -0.3407   -2.4266 C   0  0  0  0  0  0  0  0  0  0  0  0
    4.1799   -1.4150   -2.3286 H   0  0  0  0  0  0  0  0  0  0  0  0
    4.8557    0.2408   -2.3173 H   0  0  0  0  0  0  0  0  0  0  0  0
    3.5507   -0.1849   -3.4605 H   0  0  0  0  0  0  0  0  0  0  0  0
    3.3375    2.5350    1.6273 C   0  0  0  0  0  0  0  0  0  0  0  0
    4.1266    1.9100    2.0885 H   0  0  0  0  0  0  0  0  0  0  0  0
    2.7033    2.9550    2.4345 H   0  0  0  0  0  0  0  0  0  0  0  0
    3.8418    3.3847    1.1276 H   0  0  0  0  0  0  0  0  0  0  0  0
    1.4412    2.7078   -0.0032 C   0  0  0  0  0  0  0  0  0  0  0  0
    0.7536    3.0931    0.7766 H   0  0  0  0  0  0  0  0  0  0  0  0
    0.8334    2.1872   -0.7701 H   0  0  0  0  0  0  0  0  0  0  0  0
    1.9496    3.5766   -0.4655 H   0  0  0  0  0  0  0  0  0  0  0  0
  2 16  1  0  0  0  0
  2  3  1  0  0  0  0
  4  5  1  0  0  0  0
  4 10  1  0  0  0  0
  6 29  1  1  0  0  0
  6  1  1  0  0  0  0
  6 19  1  0  0  0  0
  7  9  1  0  0  0  0
  7  4  1  0  0  0  0
  8  7  1  0  0  0  0
 10 12  1  0  0  0  0
 10 26  1  0  0  0  0
 11 10  1  0  0  0  0
 13 15  1  0  0  0  0
 13  7  1  0  0  0  0
 14 13  1  0  0  0  0
 16 26  1  0  0  0  0
 16 17  1  0  0  0  0
 18 16  1  0  0  0  0
 19 21  1  0  0  0  0
 19 25  1  0  0  0  0
 20 19  1  0  0  0  0
 22 13  1  0  0  0  0
 22  1  1  0  0  0  0
 23 22  1  0  0  0  0
 24 22  1  0  0  0  0
 25  2  1  0  0  0  0
 25 33  1  0  0  0  0
 26 28  1  0  0  0  0
 26 27  1  0  0  0  0
 29 30  1  0  0  0  0
 29 31  1  0  0  0  0
 32 29  1  0  0  0  0
 33 34  1  0  0  0  0
 33 35  1  0  0  0  0
 36 33  1  0  0  0  0
 37 25  1  0  0  0  0
 37 38  1  0  0  0  0
 39 37  1  0  0  0  0
 40 37  1  0  0  0  0
M  END
