3,4,5
 OpenBabel05122313063D

 40 41  0  0  1  0  0  0  0  0999 V2000
   -3.4804    1.9618   -0.0001 O   0  0  0  0  0  0  0  0  0  0  0  0
   -4.6752    0.0302    0.0002 O   0  0  0  0  0  0  0  0  0  0  0  0
   -1.0238    0.4850   -0.0001 N   0  0  0  0  0  0  0  0  0  0  0  0
    1.4236    0.5055    1.4012 N   0  0  0  0  0  2  0  0  0  0  0  0
    1.4237    0.5055   -1.4012 N   0  0  0  0  0  2  0  0  0  0  0  0
   -0.8712    1.3081    1.2432 C   0  0  0  0  0  0  0  0  0  0  0  0
   -1.4257    2.2617    1.1487 H   0  0  0  0  0  0  0  0  0  0  0  0
   -1.3561    0.7353    2.0628 H   0  0  0  0  0  0  0  0  0  0  0  0
    0.5609    1.5286    1.6465 C   0  0  1  0  0  3  0  0  0  0  0  0
    0.9686    2.6811    2.3328 C   0  0  0  0  0  0  0  0  0  0  0  0
    0.2486    3.4944    2.5029 H   0  0  0  0  0  0  0  0  0  0  0  0
    2.2856    2.7699    2.8027 C   0  0  0  0  0  0  0  0  0  0  0  0
    2.6234    3.6632    3.3485 H   0  0  0  0  0  0  0  0  0  0  0  0
    3.1618    1.7006    2.5666 C   0  0  0  0  0  0  0  0  0  0  0  0
    4.2013    1.7202    2.9224 H   0  0  0  0  0  0  0  0  0  0  0  0
    2.6970    0.5915    1.8553 C   0  0  0  0  0  0  0  0  0  0  0  0
    3.3521   -0.2638    1.6356 H   0  0  0  0  0  0  0  0  0  0  0  0
   -0.8711    1.3081   -1.2433 C   0  0  0  0  0  0  0  0  0  0  0  0
   -1.4257    2.2617   -1.1489 H   0  0  0  0  0  0  0  0  0  0  0  0
   -1.3560    0.7353   -2.0630 H   0  0  0  0  0  0  0  0  0  0  0  0
    0.5610    1.5285   -1.6466 C   0  0  2  0  0  3  0  0  0  0  0  0
    0.9687    2.6810   -2.3329 C   0  0  0  0  0  0  0  0  0  0  0  0
    0.2488    3.4943   -2.5031 H   0  0  0  0  0  0  0  0  0  0  0  0
    2.2858    2.7698   -2.8028 C   0  0  0  0  0  0  0  0  0  0  0  0
    2.6236    3.6630   -3.3486 H   0  0  0  0  0  0  0  0  0  0  0  0
    3.1619    1.7005   -2.5665 C   0  0  0  0  0  0  0  0  0  0  0  0
    4.2014    1.7201   -2.9223 H   0  0  0  0  0  0  0  0  0  0  0  0
    2.6971    0.5914   -1.8552 C   0  0  0  0  0  0  0  0  0  0  0  0
    3.3522   -0.2638   -1.6354 H   0  0  0  0  0  0  0  0  0  0  0  0
   -2.3450   -0.2022   -0.0001 C   0  0  0  0  0  0  0  0  0  0  0  0
   -2.4066   -0.8664    0.8841 H   0  0  0  0  0  0  0  0  0  0  0  0
   -2.4066   -0.8662   -0.8844 H   0  0  0  0  0  0  0  0  0  0  0  0
   -3.5512    0.7425    0.0000 C   0  0  0  0  0  0  0  0  0  0  0  0
   -5.9336    0.7754    0.0002 C   0  0  0  0  0  0  0  0  0  0  0  0
   -5.9400    1.4332   -0.8931 H   0  0  0  0  0  0  0  0  0  0  0  0
   -5.9403    1.4327    0.8939 H   0  0  0  0  0  0  0  0  0  0  0  0
   -7.0668   -0.2242   -0.0003 C   0  0  0  0  0  0  0  0  0  0  0  0
   -7.0335   -0.8696   -0.8996 H   0  0  0  0  0  0  0  0  0  0  0  0
   -8.0340    0.3155   -0.0003 H   0  0  0  0  0  0  0  0  0  0  0  0
   -7.0338   -0.8701    0.8987 H   0  0  0  0  0  0  0  0  0  0  0  0
  1 33  2  0  0  0  0
  3  6  1  0  0  0  0
  4  9  1  0  0  0  0
  4 16  1  0  0  0  0
  6  8  1  0  0  0  0
  7  6  1  0  0  0  0
  9  6  1  1  0  0  0
  9 10  1  0  0  0  0
 10 11  1  0  0  0  0
 10 12  2  0  0  0  0
 12 13  1  0  0  0  0
 14 12  1  0  0  0  0
 14 15  1  0  0  0  0
 16 14  2  0  0  0  0
 17 16  1  0  0  0  0
 18 19  1  0  0  0  0
 18  3  1  0  0  0  0
 20 18  1  0  0  0  0
 21  5  1  0  0  0  0
 21 18  1  6  0  0  0
 22 21  1  0  0  0  0
 23 22  1  0  0  0  0
 24 26  1  0  0  0  0
 24 22  2  0  0  0  0
 25 24  1  0  0  0  0
 26 28  2  0  0  0  0
 27 26  1  0  0  0  0
 28 29  1  0  0  0  0
 28  5  1  0  0  0  0
 30  3  1  0  0  0  0
 30 33  1  0  0  0  0
 30 31  1  0  0  0  0
 32 30  1  0  0  0  0
 33  2  1  0  0  0  0
 34  2  1  0  0  0  0
 34 36  1  0  0  0  0
 35 34  1  0  0  0  0
 37 34  1  0  0  0  0
 37 40  1  0  0  0  0
 38 37  1  0  0  0  0
 39 37  1  0  0  0  0
M  END
