38,39,40
 OpenBabel05122313063D

 41 42  0  0  1  0  0  0  0  0999 V2000
   -1.0998    0.3270   -2.3797 C   0  0  0  0  0  0  0  0  0  0  0  0
   -0.9563   -0.7008   -2.7750 H   0  0  0  0  0  0  0  0  0  0  0  0
   -1.1162    1.0157   -3.2539 H   0  0  0  0  0  0  0  0  0  0  0  0
   -2.4075    0.3921   -1.6268 C   0  0  1  0  0  3  0  0  0  0  0  0
   -3.5899    0.8625   -2.2129 C   0  0  0  0  0  0  0  0  0  0  0  0
   -3.5757    1.2328   -3.2483 H   0  0  0  0  0  0  0  0  0  0  0  0
   -4.7780    0.8472   -1.4680 C   0  0  0  0  0  0  0  0  0  0  0  0
   -5.7185    1.2047   -1.9124 H   0  0  0  0  0  0  0  0  0  0  0  0
   -4.7428    0.3751   -0.1489 C   0  0  0  0  0  0  0  0  0  0  0  0
   -5.6468    0.3468    0.4753 H   0  0  0  0  0  0  0  0  0  0  0  0
   -3.5255   -0.0686    0.3771 C   0  0  0  0  0  0  0  0  0  0  0  0
   -3.4509   -0.4484    1.4066 H   0  0  0  0  0  0  0  0  0  0  0  0
   -0.0043    2.0633   -1.0424 C   0  0  0  0  0  0  0  0  0  0  0  0
    0.7382    2.6653   -1.6014 H   0  0  0  0  0  0  0  0  0  0  0  0
   -1.0120    2.4583   -1.2945 H   0  0  0  0  0  0  0  0  0  0  0  0
    0.2165    2.1804    0.4295 C   0  0  2  0  0  3  0  0  0  0  0  0
    0.7135    2.9367    2.4513 C   0  0  0  0  0  0  0  0  0  0  0  0
    1.0678    3.6434    3.2078 H   0  0  0  0  0  0  0  0  0  0  0  0
    0.2265    1.6503    2.5562 C   0  0  0  0  0  0  0  0  0  0  0  0
    0.0881    1.0281    3.4459 H   0  0  0  0  0  0  0  0  0  0  0  0
    1.2518    4.4610    0.4932 C   0  0  0  0  0  0  0  0  0  0  0  0
    0.4942    4.9680   -0.1351 H   0  0  0  0  0  0  0  0  0  0  0  0
    2.1338    4.1914   -0.1212 H   0  0  0  0  0  0  0  0  0  0  0  0
    1.5666    5.1555    1.2914 H   0  0  0  0  0  0  0  0  0  0  0  0
    1.3180    0.2805   -2.1710 C   0  0  0  0  0  0  0  0  0  0  0  0
    1.4187    0.8780   -3.1090 H   0  0  0  0  0  0  0  0  0  0  0  0
    1.2869   -0.7882   -2.4493 H   0  0  0  0  0  0  0  0  0  0  0  0
    2.5613    0.5452   -1.3214 C   0  0  0  0  0  0  0  0  0  0  0  0
    4.6852   -0.3496   -0.7141 C   0  0  0  0  0  0  0  0  0  0  0  0
    4.4551   -0.0284    0.3211 H   0  0  0  0  0  0  0  0  0  0  0  0
    5.2747    0.4565   -1.1982 H   0  0  0  0  0  0  0  0  0  0  0  0
    5.3719   -1.6942   -0.7674 C   0  0  0  0  0  0  0  0  0  0  0  0
    4.7616   -2.4669   -0.2611 H   0  0  0  0  0  0  0  0  0  0  0  0
    6.3472   -1.6299   -0.2465 H   0  0  0  0  0  0  0  0  0  0  0  0
    5.5598   -2.0118   -1.8115 H   0  0  0  0  0  0  0  0  0  0  0  0
    2.7444    1.5610   -0.6673 O   0  0  0  0  0  0  0  0  0  0  0  0
    3.4185   -0.4648   -1.4365 O   0  0  0  0  0  0  0  0  0  0  0  0
    0.0486    0.6250   -1.4804 N   0  0  0  0  0  0  0  0  0  0  0  0
   -2.3817   -0.0665   -0.3457 N   0  0  0  0  0  2  0  0  0  0  0  0
   -0.0818    1.1937    1.2882 N   0  0  0  0  0  2  0  0  0  0  0  0
    0.7016    3.2566    1.1018 N   0  0  0  0  0  0  0  0  0  0  0  0
  1 38  1  0  0  0  0
  2  1  1  0  0  0  0
  3  1  1  0  0  0  0
  4  1  1  6  0  0  0
  4 39  1  0  0  0  0
  5  4  1  0  0  0  0
  5  7  2  0  0  0  0
  6  5  1  0  0  0  0
  7  9  1  0  0  0  0
  8  7  1  0  0  0  0
  9 11  2  0  0  0  0
  9 10  1  0  0  0  0
 11 12  1  0  0  0  0
 14 13  1  0  0  0  0
 15 13  1  0  0  0  0
 16 13  1  1  0  0  0
 16 41  1  0  0  0  0
 16 40  1  0  0  0  0
 17 19  2  0  0  0  0
 17 18  1  0  0  0  0
 19 20  1  0  0  0  0
 21 41  1  0  0  0  0
 21 24  1  0  0  0  0
 22 21  1  0  0  0  0
 23 21  1  0  0  0  0
 25 38  1  0  0  0  0
 25 28  1  0  0  0  0
 26 25  1  0  0  0  0
 27 25  1  0  0  0  0
 28 36  2  0  0  0  0
 29 30  1  0  0  0  0
 31 29  1  0  0  0  0
 32 29  1  0  0  0  0
 32 33  1  0  0  0  0
 32 34  1  0  0  0  0
 35 32  1  0  0  0  0
 37 28  1  0  0  0  0
 37 29  1  0  0  0  0
 38 13  1  0  0  0  0
 39 11  1  0  0  0  0
 40 19  1  0  0  0  0
 41 17  1  0  0  0  0
M  END
