1,2,3
 OpenBabel05122313063D

 37 40  0  0  1  0  0  0  0  0999 V2000
    1.3324   -1.2542   -0.0002 N   0  0  0  0  0  2  0  0  0  0  0  0
   -0.1388    0.9087   -0.0002 N   0  0  0  0  0  2  0  0  0  0  0  0
   -2.5141   -0.0184    0.0001 N   0  0  0  0  0  2  0  0  0  0  0  0
    2.0569   -2.3806   -0.0001 C   0  0  0  0  0  0  0  0  0  0  0  0
    3.4674   -2.3460    0.0002 C   0  0  0  0  0  0  0  0  0  0  0  0
    4.1818   -1.1413    0.0002 C   0  0  0  0  0  0  0  0  0  0  0  0
    3.4136    0.0725    0.0000 C   0  0  0  0  0  0  0  0  0  0  0  0
    3.9598    1.4085    0.0001 C   0  0  0  0  0  0  0  0  0  0  0  0
    3.1640    2.5409    0.0000 C   0  0  0  0  0  0  0  0  0  0  0  0
    1.7291    2.4454   -0.0001 C   0  0  0  0  0  0  0  0  0  0  0  0
    0.7854    3.5355   -0.0000 C   0  0  0  0  0  0  0  0  0  0  0  0
   -0.5876    3.2373    0.0000 C   0  0  0  0  0  0  0  0  0  0  0  0
   -1.0536    1.8994   -0.0001 C   0  0  0  0  0  0  0  0  0  0  0  0
    1.1976    1.1363   -0.0002 C   0  0  0  0  0  0  0  0  0  0  0  0
    2.0028   -0.0443   -0.0002 C   0  0  2  0  0  3  0  0  0  0  0  0
    5.6797   -1.1167    0.0005 C   0  0  0  0  0  0  0  0  0  0  0  0
    1.2660    4.9565    0.0002 C   0  0  0  0  0  0  0  0  0  0  0  0
   -2.4284    1.3672    0.0001 C   0  0  0  0  0  0  0  0  0  0  0  0
   -3.7192   -0.6237    0.0002 C   0  0  0  0  0  0  0  0  0  0  0  0
   -4.9098    0.1137    0.0003 C   0  0  0  0  0  0  0  0  0  0  0  0
   -4.8476    1.5139    0.0003 C   0  0  0  0  0  0  0  0  0  0  0  0
   -3.5947    2.1433    0.0002 C   0  0  0  0  0  0  0  0  0  0  0  0
    1.4820   -3.3201   -0.0001 H   0  0  0  0  0  0  0  0  0  0  0  0
    4.0080   -3.3036    0.0003 H   0  0  0  0  0  0  0  0  0  0  0  0
    5.0523    1.5277    0.0002 H   0  0  0  0  0  0  0  0  0  0  0  0
    3.6400    3.5315    0.0002 H   0  0  0  0  0  0  0  0  0  0  0  0
   -1.3128    4.0632    0.0001 H   0  0  0  0  0  0  0  0  0  0  0  0
   -3.6897   -1.7252    0.0001 H   0  0  0  0  0  0  0  0  0  0  0  0
   -5.8714   -0.4184    0.0004 H   0  0  0  0  0  0  0  0  0  0  0  0
   -5.7679    2.1157    0.0004 H   0  0  0  0  0  0  0  0  0  0  0  0
   -3.5172    3.2393    0.0001 H   0  0  0  0  0  0  0  0  0  0  0  0
    6.0705   -0.5828   -0.8909 H   0  0  0  0  0  0  0  0  0  0  0  0
    6.1022   -2.1377    0.0013 H   0  0  0  0  0  0  0  0  0  0  0  0
    6.0703   -0.5814    0.8910 H   0  0  0  0  0  0  0  0  0  0  0  0
    0.4248    5.6733   -0.0008 H   0  0  0  0  0  0  0  0  0  0  0  0
    1.8954    5.1651   -0.8900 H   0  0  0  0  0  0  0  0  0  0  0  0
    1.8936    5.1654    0.8916 H   0  0  0  0  0  0  0  0  0  0  0  0
  1 15  1  0  0  0  0
  1  4  1  0  0  0  0
  2 13  1  0  0  0  0
  3 18  1  0  0  0  0
  3 19  1  0  0  0  0
  4  5  2  0  0  0  0
  5  6  1  0  0  0  0
  5 24  1  0  0  0  0
  6 16  1  0  0  0  0
  7  8  1  0  0  0  0
  7  6  2  0  0  0  0
  8 25  1  0  0  0  0
  9  8  2  0  0  0  0
  9 26  1  0  0  0  0
 10 11  1  0  0  0  0
 10  9  1  0  0  0  0
 11 12  2  0  0  0  0
 11 17  1  0  0  0  0
 12 27  1  0  0  0  0
 13 12  1  0  0  0  0
 13 18  2  0  0  0  0
 14  2  1  0  0  0  0
 14 10  2  0  0  0  0
 15 14  1  1  0  0  0
 15  7  1  0  0  0  0
 16 33  1  0  0  0  0
 16 34  1  0  0  0  0
 17 37  1  0  0  0  0
 18 22  1  0  0  0  0
 19 20  2  0  0  0  0
 20 21  1  0  0  0  0
 20 29  1  0  0  0  0
 21 30  1  0  0  0  0
 22 21  2  0  0  0  0
 23  4  1  0  0  0  0
 28 19  1  0  0  0  0
 31 22  1  0  0  0  0
 32 16  1  0  0  0  0
 35 17  1  0  0  0  0
 36 17  1  0  0  0  0
M  END
