2,4,5
 OpenBabel05122313063D

 29 30  0  0  1  0  0  0  0  0999 V2000
   -2.2383    3.0944    0.4320 O   0  0  0  0  0  0  0  0  0  0  0  0
    1.9949    0.0453    0.1444 N   0  0  0  0  0  2  0  0  0  0  0  0
    0.3693    2.6021   -0.2728 N   0  0  0  0  0  2  0  0  0  0  0  0
   -0.4390    1.6263    0.0567 N   0  0  0  0  0  2  0  0  0  0  0  0
   -2.0665   -0.4353   -0.0818 N   0  0  0  0  0  2  0  0  0  0  0  0
    2.8536   -0.8720    0.6810 C   0  0  0  0  0  0  0  0  0  0  0  0
    4.2434   -0.7028    0.5435 C   0  0  0  0  0  0  0  0  0  0  0  0
    4.7574    0.4288   -0.1016 C   0  0  0  0  0  0  0  0  0  0  0  0
    3.8690    1.4226   -0.5021 C   0  0  0  0  0  0  0  0  0  0  0  0
    2.4771    1.2336   -0.3309 C   0  0  0  0  0  0  0  0  0  0  0  0
    1.6301    2.4063   -0.5479 C   0  0  0  0  0  0  0  0  0  0  0  0
   -1.7886    1.9700    0.2727 C   0  0  0  0  0  0  0  0  0  0  0  0
   -2.6640    0.7468    0.2127 C   0  0  1  0  0  3  0  0  0  0  0  0
   -4.0476    0.8464    0.3930 C   0  0  0  0  0  0  0  0  0  0  0  0
   -4.8307   -0.3080    0.2607 C   0  0  0  0  0  0  0  0  0  0  0  0
   -4.1998   -1.5214   -0.0522 C   0  0  0  0  0  0  0  0  0  0  0  0
   -2.8083   -1.5529   -0.2167 C   0  0  0  0  0  0  0  0  0  0  0  0
    2.3144   -2.0259    1.4680 C   0  0  0  0  0  0  0  0  0  0  0  0
    4.9102   -1.4692    0.9620 H   0  0  0  0  0  0  0  0  0  0  0  0
    5.8416    0.5525   -0.2421 H   0  0  0  0  0  0  0  0  0  0  0  0
    4.2233    2.3742   -0.9234 H   0  0  0  0  0  0  0  0  0  0  0  0
    2.1681    3.3063   -0.8882 H   0  0  0  0  0  0  0  0  0  0  0  0
   -4.4618    1.8381    0.6252 H   0  0  0  0  0  0  0  0  0  0  0  0
   -5.9215   -0.2624    0.3973 H   0  0  0  0  0  0  0  0  0  0  0  0
   -4.7745   -2.4510   -0.1712 H   0  0  0  0  0  0  0  0  0  0  0  0
   -2.2352   -2.4628   -0.4627 H   0  0  0  0  0  0  0  0  0  0  0  0
    1.8197   -2.7615    0.8001 H   0  0  0  0  0  0  0  0  0  0  0  0
    3.1263   -2.5140    2.0381 H   0  0  0  0  0  0  0  0  0  0  0  0
    1.5316   -1.6735    2.1698 H   0  0  0  0  0  0  0  0  0  0  0  0
  2  6  1  0  0  0  0
  3  4  1  0  0  0  0
  4 12  1  0  0  0  0
  5 13  1  0  0  0  0
  6 18  1  0  0  0  0
  7  6  2  0  0  0  0
  7 19  1  0  0  0  0
  8  7  1  0  0  0  0
  9 10  1  0  0  0  0
  9  8  2  0  0  0  0
 10  2  1  0  0  0  0
 11 10  2  0  0  0  0
 11  3  1  0  0  0  0
 12  1  2  0  0  0  0
 13 12  1  6  0  0  0
 13 14  1  0  0  0  0
 14 23  1  0  0  0  0
 15 14  2  0  0  0  0
 15 24  1  0  0  0  0
 16 15  1  0  0  0  0
 17  5  1  0  0  0  0
 17 16  2  0  0  0  0
 18 28  1  0  0  0  0
 18 29  1  0  0  0  0
 20  8  1  0  0  0  0
 21  9  1  0  0  0  0
 22 11  1  0  0  0  0
 25 16  1  0  0  0  0
 26 17  1  0  0  0  0
 27 18  1  0  0  0  0
M  END
