19,56,57
 OpenBabel05122313063D

 57 60  0  0  1  0  0  0  0  0999 V2000
    1.4834    3.8541    0.3142 C   0  0  1  0  0  0  0  0  0  0  0  0
    2.3552    4.4952    0.0483 H   0  0  0  0  0  0  0  0  0  0  0  0
    1.3887    3.7918    1.8557 C   0  0  0  0  0  0  0  0  0  0  0  0
    1.4391    4.8293    2.2460 H   0  0  0  0  0  0  0  0  0  0  0  0
    2.2650    3.2491    2.2624 H   0  0  0  0  0  0  0  0  0  0  0  0
    2.8954    2.1900   -0.6244 C   0  0  0  0  0  3  0  0  0  0  0  0
    3.6422    2.9904   -0.8242 H   0  0  0  0  0  0  0  0  0  0  0  0
    3.3112    0.7998   -0.8508 C   0  0  0  0  0  0  0  0  0  0  0  0
    3.1098   -0.1901    0.1373 C   0  0  0  0  0  0  0  0  0  0  0  0
    3.4963   -1.5200   -0.0640 C   0  0  0  0  0  0  0  0  0  0  0  0
    4.1424   -1.8754   -1.2641 C   0  0  0  0  0  0  0  0  0  0  0  0
    4.3921   -0.9017   -2.2528 C   0  0  0  0  0  0  0  0  0  0  0  0
    3.9909    0.4248   -2.0288 C   0  0  0  0  0  0  0  0  0  0  0  0
    2.5495    0.1296    1.3139 F   0  0  0  0  0  0  0  0  0  0  0  0
    3.2576   -2.4380    0.8720 F   0  0  0  0  0  0  0  0  0  0  0  0
    4.5103   -3.1300   -1.4682 F   0  0  0  0  0  0  0  0  0  0  0  0
    4.9989   -1.2450   -3.3812 F   0  0  0  0  0  0  0  0  0  0  0  0
    4.2190    1.3420   -2.9699 F   0  0  0  0  0  0  0  0  0  0  0  0
    1.7275    2.4911   -0.1644 N   0  0  0  0  0  2  0  0  0  0  0  0
   -1.1175    3.9380    0.2277 C   0  0  2  0  0  0  0  0  0  0  0  0
    0.0830    3.1671    2.3855 C   0  0  1  0  0  0  0  0  0  0  0  0
   -1.9263    4.6339   -0.0889 H   0  0  0  0  0  0  0  0  0  0  0  0
    0.0585    3.3042    3.4906 H   0  0  0  0  0  0  0  0  0  0  0  0
    0.2205    4.4852   -0.3035 C   0  0  0  0  0  0  0  0  0  0  0  0
   -1.1330    3.8871    1.7718 C   0  0  0  0  0  0  0  0  0  0  0  0
    0.2539    5.5698   -0.0731 H   0  0  0  0  0  0  0  0  0  0  0  0
   -1.1344    4.9316    2.1462 H   0  0  0  0  0  0  0  0  0  0  0  0
    0.2535    4.3948   -1.4076 H   0  0  0  0  0  0  0  0  0  0  0  0
   -2.0731    3.4156    2.1216 H   0  0  0  0  0  0  0  0  0  0  0  0
   -2.5950    2.3412   -0.7146 C   0  0  0  0  0  3  0  0  0  0  0  0
   -0.0518    0.8628    3.0128 C   0  0  0  0  0  3  0  0  0  0  0  0
   -3.4011    3.0940   -0.5723 H   0  0  0  0  0  0  0  0  0  0  0  0
    0.0916    1.1535    4.0771 H   0  0  0  0  0  0  0  0  0  0  0  0
   -2.9919    1.0500   -1.2829 C   0  0  0  0  0  0  0  0  0  0  0  0
   -0.3090   -0.5535    2.6875 C   0  0  0  0  0  0  0  0  0  0  0  0
   -2.2272    0.3690   -2.2543 C   0  0  0  0  0  0  0  0  0  0  0  0
   -1.4608   -0.9177    1.9576 C   0  0  0  0  0  0  0  0  0  0  0  0
   -2.5989   -0.9012   -2.7151 C   0  0  0  0  0  0  0  0  0  0  0  0
   -1.6798   -2.2400    1.5525 C   0  0  0  0  0  0  0  0  0  0  0  0
   -3.7734   -1.5017   -2.2204 C   0  0  0  0  0  0  0  0  0  0  0  0
   -0.7414   -3.2318    1.8983 C   0  0  0  0  0  0  0  0  0  0  0  0
   -4.5718   -0.8311   -1.2741 C   0  0  0  0  0  0  0  0  0  0  0  0
    0.4096   -2.8956    2.6380 C   0  0  0  0  0  0  0  0  0  0  0  0
   -4.1850    0.4425   -0.8350 C   0  0  0  0  0  0  0  0  0  0  0  0
    0.5985   -1.5664    3.0503 C   0  0  0  0  0  0  0  0  0  0  0  0
   -1.1220    0.9295   -2.7634 F   0  0  0  0  0  0  0  0  0  0  0  0
   -2.3687    0.0124    1.6254 F   0  0  0  0  0  0  0  0  0  0  0  0
   -1.8548   -1.5359   -3.6158 F   0  0  0  0  0  0  0  0  0  0  0  0
   -2.7611   -2.5595    0.8389 F   0  0  0  0  0  0  0  0  0  0  0  0
   -4.1236   -2.7067   -2.6428 F   0  0  0  0  0  0  0  0  0  0  0  0
   -0.9325   -4.4830    1.5084 F   0  0  0  0  0  0  0  0  0  0  0  0
   -5.6713   -1.4070   -0.8038 F   0  0  0  0  0  0  0  0  0  0  0  0
    1.2991   -3.8317    2.9429 F   0  0  0  0  0  0  0  0  0  0  0  0
   -4.9293    1.0659    0.0825 F   0  0  0  0  0  0  0  0  0  0  0  0
    1.6946   -1.2481    3.7403 F   0  0  0  0  0  0  0  0  0  0  0  0
   -1.3887    2.6089   -0.3395 N   0  0  0  0  0  2  0  0  0  0  0  0
   -0.0131    1.7389    2.0707 N   0  0  0  0  0  2  0  0  0  0  0  0
  1  2  1  6  0  0  0
  1  3  1  0  0  0  0
  3  4  1  0  0  0  0
  3  5  1  0  0  0  0
  3 21  1  0  0  0  0
  6 19  1  0  0  0  0
  7  6  1  0  0  0  0
  8  6  1  0  0  0  0
  8  9  1  0  0  0  0
  9 14  1  0  0  0  0
 10  9  2  0  0  0  0
 10 15  1  0  0  0  0
 11 10  1  0  0  0  0
 12 13  1  0  0  0  0
 12 11  2  0  0  0  0
 13  8  2  0  0  0  0
 16 11  1  0  0  0  0
 17 12  1  0  0  0  0
 18 13  1  0  0  0  0
 19  1  1  0  0  0  0
 20 22  1  6  0  0  0
 20 25  1  0  0  0  0
 21 23  1  1  0  0  0
 24 26  1  0  0  0  0
 24 20  1  0  0  0  0
 24  1  1  0  0  0  0
 25 29  1  0  0  0  0
 25 27  1  0  0  0  0
 25 21  1  0  0  0  0
 28 24  1  0  0  0  0
 30 32  1  0  0  0  0
 30 56  1  0  0  0  0
 31 33  1  0  0  0  0
 34 44  1  0  0  0  0
 34 30  1  0  0  0  0
 35 31  1  0  0  0  0
 35 45  1  0  0  0  0
 36 34  2  0  0  0  0
 37 35  2  0  0  0  0
 38 36  1  0  0  0  0
 38 40  2  0  0  0  0
 39 41  2  0  0  0  0
 39 37  1  0  0  0  0
 40 42  1  0  0  0  0
 41 43  1  0  0  0  0
 42 44  2  0  0  0  0
 42 52  1  0  0  0  0
 43 53  1  0  0  0  0
 43 45  2  0  0  0  0
 44 54  1  0  0  0  0
 45 55  1  0  0  0  0
 46 36  1  0  0  0  0
 47 37  1  0  0  0  0
 48 38  1  0  0  0  0
 49 39  1  0  0  0  0
 50 40  1  0  0  0  0
 51 41  1  0  0  0  0
 56 20  1  0  0  0  0
 57 21  1  0  0  0  0
 57 31  1  0  0  0  0
M  END
