7,8,9
 OpenBabel05122313063D

 81 84  0  0  1  0  0  0  0  0999 V2000
   -2.5321    1.3645   -0.3743 O   0  0  0  0  0  0  0  0  0  0  0  0
   -4.1709   -2.9903    0.3140 O   0  0  0  0  0  0  0  0  0  0  0  0
   -0.5034    5.1064    0.3148 O   0  0  0  0  0  0  0  0  0  0  0  0
    2.4475    1.5088   -0.3753 O   0  0  0  0  0  0  0  0  0  0  0  0
    4.6751   -2.1167    0.3150 O   0  0  0  0  0  0  0  0  0  0  0  0
    0.0846   -2.8733   -0.3773 O   0  0  0  0  0  0  0  0  0  0  0  0
   -1.6758   -0.4687    1.7073 N   0  0  0  0  0  2  0  0  0  0  0  0
    0.4328    1.6846    1.7079 N   0  0  0  0  0  2  0  0  0  0  0  0
    1.2432   -1.2178    1.7070 N   0  0  0  0  0  2  0  0  0  0  0  0
   -1.4301   -0.4413    3.1511 C   0  0  2  0  0  0  0  0  0  0  0  0
   -2.3660   -0.7360    3.6808 H   0  0  0  0  0  0  0  0  0  0  0  0
   -1.0740    0.9959    3.5759 C   0  0  0  0  0  0  0  0  0  0  0  0
   -1.1202    1.0465    4.6838 H   0  0  0  0  0  0  0  0  0  0  0  0
   -1.8345    1.7007    3.1845 H   0  0  0  0  0  0  0  0  0  0  0  0
    0.3338    1.4578    3.1517 C   0  0  1  0  0  0  0  0  0  0  0  0
    0.5466    2.4155    3.6816 H   0  0  0  0  0  0  0  0  0  0  0  0
    1.4002    0.4304    3.5762 C   0  0  0  0  0  0  0  0  0  0  0  0
    1.4668    0.4446    4.6841 H   0  0  0  0  0  0  0  0  0  0  0  0
    2.3910    0.7367    3.1853 H   0  0  0  0  0  0  0  0  0  0  0  0
    1.0962   -1.0194    3.1510 C   0  0  1  0  0  0  0  0  0  0  0  0
    1.8193   -1.6827    3.6805 H   0  0  0  0  0  0  0  0  0  0  0  0
   -0.3267   -1.4298    3.5754 C   0  0  0  0  0  0  0  0  0  0  0  0
   -0.5568   -2.4407    3.1837 H   0  0  0  0  0  0  0  0  0  0  0  0
   -0.3476   -1.4953    4.6832 H   0  0  0  0  0  0  0  0  0  0  0  0
   -2.8321   -0.8828    1.3026 C   0  0  0  0  0  3  0  0  0  0  0  0
   -3.5405   -1.3144    2.0453 H   0  0  0  0  0  0  0  0  0  0  0  0
   -3.3069   -0.8467   -0.0800 C   0  0  0  0  0  0  0  0  0  0  0  0
   -3.1522    0.2925   -0.9223 C   0  0  0  0  0  0  0  0  0  0  0  0
   -3.6718    0.2786   -2.2324 C   0  0  0  0  0  0  0  0  0  0  0  0
   -3.5379    1.1402   -2.8972 H   0  0  0  0  0  0  0  0  0  0  0  0
   -4.3789   -0.8434   -2.6823 C   0  0  0  0  0  0  0  0  0  0  0  0
   -4.7814   -0.8460   -3.7064 H   0  0  0  0  0  0  0  0  0  0  0  0
   -4.5965   -1.9590   -1.8612 C   0  0  0  0  0  0  0  0  0  0  0  0
   -5.1627   -2.8182   -2.2404 H   0  0  0  0  0  0  0  0  0  0  0  0
   -4.0634   -1.9522   -0.5604 C   0  0  0  0  0  0  0  0  0  0  0  0
   -2.4742    2.5788   -1.1128 C   0  0  0  0  0  0  0  0  0  0  0  0
   -1.8021    2.4878   -1.9934 H   0  0  0  0  0  0  0  0  0  0  0  0
   -2.0615    3.3342   -0.4219 H   0  0  0  0  0  0  0  0  0  0  0  0
   -3.4843    2.8966   -1.4493 H   0  0  0  0  0  0  0  0  0  0  0  0
   -5.0024   -4.0931   -0.0304 C   0  0  0  0  0  0  0  0  0  0  0  0
   -6.0440   -3.7676   -0.2380 H   0  0  0  0  0  0  0  0  0  0  0  0
   -4.9975   -4.7681    0.8442 H   0  0  0  0  0  0  0  0  0  0  0  0
   -4.6077   -4.6401   -0.9140 H   0  0  0  0  0  0  0  0  0  0  0  0
    0.6527    2.8930    1.3033 C   0  0  0  0  0  3  0  0  0  0  0  0
    0.6336    3.7222    2.0461 H   0  0  0  0  0  0  0  0  0  0  0  0
    0.9210    3.2862   -0.0794 C   0  0  0  0  0  0  0  0  0  0  0  0
    0.3416    4.4941   -0.5598 C   0  0  0  0  0  0  0  0  0  0  0  0
    0.6015    4.9588   -1.8609 C   0  0  0  0  0  0  0  0  0  0  0  0
    0.1402    5.8787   -2.2399 H   0  0  0  0  0  0  0  0  0  0  0  0
    1.4582    4.2123   -2.6824 C   0  0  0  0  0  0  0  0  0  0  0  0
    1.6566    4.5619   -3.7067 H   0  0  0  0  0  0  0  0  0  0  0  0
    2.0763    3.0389   -2.2327 C   0  0  0  0  0  0  0  0  0  0  0  0
    2.7549    2.4917   -2.8978 H   0  0  0  0  0  0  0  0  0  0  0  0
    1.8292    2.5822   -0.9224 C   0  0  0  0  0  0  0  0  0  0  0  0
   -1.0435    6.3773   -0.0303 C   0  0  0  0  0  0  0  0  0  0  0  0
   -0.2414    7.1168   -0.2392 H   0  0  0  0  0  0  0  0  0  0  0  0
   -1.6301    6.7111    0.8445 H   0  0  0  0  0  0  0  0  0  0  0  0
   -1.7151    6.3077   -0.9133 H   0  0  0  0  0  0  0  0  0  0  0  0
    3.4699    0.8527   -1.1151 C   0  0  0  0  0  0  0  0  0  0  0  0
    3.0545    0.3163   -1.9956 H   0  0  0  0  0  0  0  0  0  0  0  0
    3.9189    0.1175   -0.4250 H   0  0  0  0  0  0  0  0  0  0  0  0
    4.2493    1.5692   -1.4520 H   0  0  0  0  0  0  0  0  0  0  0  0
    2.1800   -2.0121    1.3023 C   0  0  0  0  0  3  0  0  0  0  0  0
    2.9073   -2.4105    2.0453 H   0  0  0  0  0  0  0  0  0  0  0  0
    2.3870   -2.4404   -0.0805 C   0  0  0  0  0  0  0  0  0  0  0  0
    3.7229   -2.5422   -0.5603 C   0  0  0  0  0  0  0  0  0  0  0  0
    3.9961   -2.9991   -1.8615 C   0  0  0  0  0  0  0  0  0  0  0  0
    5.0236   -3.0593   -2.2401 H   0  0  0  0  0  0  0  0  0  0  0  0
    2.9217   -3.3673   -2.6837 C   0  0  0  0  0  0  0  0  0  0  0  0
    3.1258   -3.7133   -3.7081 H   0  0  0  0  0  0  0  0  0  0  0  0
    1.5962   -3.3161   -2.2346 C   0  0  0  0  0  0  0  0  0  0  0  0
    0.7834   -3.6295   -2.9005 H   0  0  0  0  0  0  0  0  0  0  0  0
    1.3236   -2.8747   -0.9241 C   0  0  0  0  0  0  0  0  0  0  0  0
    6.0461   -2.2840   -0.0290 C   0  0  0  0  0  0  0  0  0  0  0  0
    6.2859   -3.3483   -0.2381 H   0  0  0  0  0  0  0  0  0  0  0  0
    6.6277   -1.9432    0.8464 H   0  0  0  0  0  0  0  0  0  0  0  0
    6.3224   -1.6672   -0.9115 H   0  0  0  0  0  0  0  0  0  0  0  0
   -0.9955   -3.4283   -1.1179 C   0  0  0  0  0  0  0  0  0  0  0  0
   -1.2509   -2.7992   -1.9979 H   0  0  0  0  0  0  0  0  0  0  0  0
   -1.8570   -3.4488   -0.4281 H   0  0  0  0  0  0  0  0  0  0  0  0
   -0.7663   -4.4618   -1.4555 H   0  0  0  0  0  0  0  0  0  0  0  0
  7 10  1  0  0  0  0
  8 15  1  0  0  0  0
  9 20  1  0  0  0  0
 10 22  1  0  0  0  0
 10 12  1  0  0  0  0
 10 11  1  1  0  0  0
 12 13  1  0  0  0  0
 14 12  1  0  0  0  0
 15 12  1  0  0  0  0
 15 17  1  0  0  0  0
 15 16  1  1  0  0  0
 17 18  1  0  0  0  0
 19 17  1  0  0  0  0
 20 22  1  0  0  0  0
 20 17  1  0  0  0  0
 20 21  1  1  0  0  0
 22 24  1  0  0  0  0
 23 22  1  0  0  0  0
 25  7  1  0  0  0  0
 25 26  1  0  0  0  0
 27 25  1  0  0  0  0
 28  1  1  0  0  0  0
 28 27  2  0  0  0  0
 29 28  1  0  0  0  0
 30 29  1  0  0  0  0
 31 29  2  0  0  0  0
 31 33  1  0  0  0  0
 32 31  1  0  0  0  0
 33 35  2  0  0  0  0
 34 33  1  0  0  0  0
 35 27  1  0  0  0  0
 35  2  1  0  0  0  0
 36 38  1  0  0  0  0
 36  1  1  0  0  0  0
 37 36  1  0  0  0  0
 39 36  1  0  0  0  0
 40  2  1  0  0  0  0
 40 42  1  0  0  0  0
 41 40  1  0  0  0  0
 43 40  1  0  0  0  0
 44  8  1  0  0  0  0
 44 45  1  0  0  0  0
 46 44  1  0  0  0  0
 47 46  1  0  0  0  0
 47  3  1  0  0  0  0
 48 47  2  0  0  0  0
 49 48  1  0  0  0  0
 50 52  2  0  0  0  0
 50 48  1  0  0  0  0
 51 50  1  0  0  0  0
 52 54  1  0  0  0  0
 53 52  1  0  0  0  0
 54  4  1  0  0  0  0
 54 46  2  0  0  0  0
 55  3  1  0  0  0  0
 55 57  1  0  0  0  0
 56 55  1  0  0  0  0
 58 55  1  0  0  0  0
 59 61  1  0  0  0  0
 59  4  1  0  0  0  0
 60 59  1  0  0  0  0
 62 59  1  0  0  0  0
 63  9  1  0  0  0  0
 63 64  1  0  0  0  0
 65 63  1  0  0  0  0
 66 65  1  0  0  0  0
 66  5  1  0  0  0  0
 67 66  2  0  0  0  0
 68 67  1  0  0  0  0
 69 71  2  0  0  0  0
 69 67  1  0  0  0  0
 70 69  1  0  0  0  0
 71 73  1  0  0  0  0
 72 71  1  0  0  0  0
 73  6  1  0  0  0  0
 73 65  2  0  0  0  0
 74  5  1  0  0  0  0
 74 76  1  0  0  0  0
 75 74  1  0  0  0  0
 77 74  1  0  0  0  0
 78 80  1  0  0  0  0
 78  6  1  0  0  0  0
 79 78  1  0  0  0  0
 81 78  1  0  0  0  0
M  END
