1,12,15
 OpenBabel05122313063D

 57 61  0  0  0  0  0  0  0  0999 V2000
    0.0000    0.7055    1.5533 N   0  0  0  0  0  2  0  0  0  0  0  0
    1.2042    1.2661    1.9368 C   0  0  0  0  0  0  0  0  0  0  0  0
    1.2173    2.4436    2.7051 C   0  0  0  0  0  0  0  0  0  0  0  0
    2.1821    2.8836    2.9945 H   0  0  0  0  0  0  0  0  0  0  0  0
   -0.0000    3.0340    3.0845 C   0  0  0  0  0  0  0  0  0  0  0  0
   -0.0000    3.9569    3.6815 H   0  0  0  0  0  0  0  0  0  0  0  0
   -1.2173    2.4436    2.7051 C   0  0  0  0  0  0  0  0  0  0  0  0
   -2.1821    2.8835    2.9945 H   0  0  0  0  0  0  0  0  0  0  0  0
   -1.2042    1.2661    1.9368 C   0  0  0  0  0  0  0  0  0  0  0  0
    2.3012    0.4985    1.4189 C   0  0  0  0  0  0  0  0  0  0  0  0
    3.3548    0.7800    1.5695 H   0  0  0  0  0  0  0  0  0  0  0  0
    1.9419   -0.5603    0.7092 N   0  0  0  0  0  2  0  0  0  0  0  0
   -2.3012    0.4984    1.4189 C   0  0  0  0  0  3  0  0  0  0  0  0
   -3.3548    0.7799    1.5695 H   0  0  0  0  0  0  0  0  0  0  0  0
   -1.9418   -0.5604    0.7092 N   0  0  0  0  0  2  0  0  0  0  0  0
    2.9041   -1.3445    0.0247 C   0  0  0  0  0  0  0  0  0  0  0  0
    2.7936   -2.7458    0.1356 C   0  0  0  0  0  0  0  0  0  0  0  0
    1.9750   -3.1496    0.7500 H   0  0  0  0  0  0  0  0  0  0  0  0
    3.7261   -3.5815   -0.4862 C   0  0  0  0  0  0  0  0  0  0  0  0
    3.6349   -4.6729   -0.3814 H   0  0  0  0  0  0  0  0  0  0  0  0
    4.7716   -3.0235   -1.2388 C   0  0  0  0  0  0  0  0  0  0  0  0
    5.5060   -3.6728   -1.7385 H   0  0  0  0  0  0  0  0  0  0  0  0
    4.8660   -1.6322   -1.3737 C   0  0  0  0  0  0  0  0  0  0  0  0
    5.6578   -1.1934   -1.9996 H   0  0  0  0  0  0  0  0  0  0  0  0
    3.9401   -0.7607   -0.7616 C   0  0  0  0  0  0  0  0  0  0  0  0
    5.2929    1.3597   -0.7775 C   0  0  0  0  0  0  0  0  0  0  0  0
    6.1530    0.7785   -0.4103 H   0  0  0  0  0  0  0  0  0  0  0  0
    5.4231    2.7387   -1.0037 C   0  0  0  0  0  0  0  0  0  0  0  0
    6.3904    3.2324   -0.8237 H   0  0  0  0  0  0  0  0  0  0  0  0
    4.3231    3.4851   -1.4532 C   0  0  0  0  0  0  0  0  0  0  0  0
    4.4234    4.5670   -1.6297 H   0  0  0  0  0  0  0  0  0  0  0  0
    3.0954    2.8409   -1.6820 C   0  0  0  0  0  0  0  0  0  0  0  0
    2.2305    3.4155   -2.0476 H   0  0  0  0  0  0  0  0  0  0  0  0
    2.9604    1.4646   -1.4574 C   0  0  0  0  0  0  0  0  0  0  0  0
    1.9981    0.9606   -1.6424 H   0  0  0  0  0  0  0  0  0  0  0  0
    4.0601    0.7061   -0.9935 C   0  0  0  0  0  0  0  0  0  0  0  0
   -2.9041   -1.3445    0.0247 C   0  0  0  0  0  0  0  0  0  0  0  0
   -2.7935   -2.7459    0.1356 C   0  0  0  0  0  0  0  0  0  0  0  0
   -1.9749   -3.1496    0.7500 H   0  0  0  0  0  0  0  0  0  0  0  0
   -3.7259   -3.5815   -0.4862 C   0  0  0  0  0  0  0  0  0  0  0  0
   -3.6347   -4.6730   -0.3815 H   0  0  0  0  0  0  0  0  0  0  0  0
   -4.7715   -3.0236   -1.2389 C   0  0  0  0  0  0  0  0  0  0  0  0
   -5.5059   -3.6729   -1.7386 H   0  0  0  0  0  0  0  0  0  0  0  0
   -4.8659   -1.6323   -1.3737 C   0  0  0  0  0  0  0  0  0  0  0  0
   -5.6578   -1.1935   -1.9996 H   0  0  0  0  0  0  0  0  0  0  0  0
   -3.9400   -0.7608   -0.7617 C   0  0  0  0  0  0  0  0  0  0  0  0
   -5.2930    1.3596   -0.7775 C   0  0  0  0  0  0  0  0  0  0  0  0
   -6.1531    0.7783   -0.4102 H   0  0  0  0  0  0  0  0  0  0  0  0
   -5.4232    2.7385   -1.0036 C   0  0  0  0  0  0  0  0  0  0  0  0
   -6.3906    3.2322   -0.8236 H   0  0  0  0  0  0  0  0  0  0  0  0
   -4.3233    3.4851   -1.4531 C   0  0  0  0  0  0  0  0  0  0  0  0
   -4.4236    4.5669   -1.6296 H   0  0  0  0  0  0  0  0  0  0  0  0
   -3.0956    2.8409   -1.6819 C   0  0  0  0  0  0  0  0  0  0  0  0
   -2.2307    3.4156   -2.0476 H   0  0  0  0  0  0  0  0  0  0  0  0
   -2.9605    1.4646   -1.4574 C   0  0  0  0  0  0  0  0  0  0  0  0
   -1.9982    0.9606   -1.6424 H   0  0  0  0  0  0  0  0  0  0  0  0
   -4.0601    0.7060   -0.9935 C   0  0  0  0  0  0  0  0  0  0  0  0
  1  9  1  0  0  0  0
  1  2  1  0  0  0  0
  2  3  1  0  0  0  0
  3  4  1  0  0  0  0
  3  5  2  0  0  0  0
  5  6  1  0  0  0  0
  7  8  1  0  0  0  0
  7  5  1  0  0  0  0
  9  7  2  0  0  0  0
 10 11  1  0  0  0  0
 10  2  2  0  0  0  0
 12 10  1  0  0  0  0
 13 14  1  0  0  0  0
 13  9  1  0  0  0  0
 15 13  1  0  0  0  0
 16 17  1  0  0  0  0
 16 12  1  0  0  0  0
 17 18  1  0  0  0  0
 19 20  1  0  0  0  0
 19 17  2  0  0  0  0
 21 19  1  0  0  0  0
 22 21  1  0  0  0  0
 23 21  2  0  0  0  0
 23 25  1  0  0  0  0
 24 23  1  0  0  0  0
 25 16  2  0  0  0  0
 26 27  1  0  0  0  0
 28 29  1  0  0  0  0
 28 26  2  0  0  0  0
 30 28  1  0  0  0  0
 31 30  1  0  0  0  0
 32 34  1  0  0  0  0
 32 30  2  0  0  0  0
 33 32  1  0  0  0  0
 34 36  2  0  0  0  0
 35 34  1  0  0  0  0
 36 26  1  0  0  0  0
 36 25  1  0  0  0  0
 37 38  1  0  0  0  0
 37 15  1  0  0  0  0
 38 39  1  0  0  0  0
 40 41  1  0  0  0  0
 40 38  2  0  0  0  0
 42 40  1  0  0  0  0
 43 42  1  0  0  0  0
 44 42  2  0  0  0  0
 44 46  1  0  0  0  0
 45 44  1  0  0  0  0
 46 37  2  0  0  0  0
 47 48  1  0  0  0  0
 49 50  1  0  0  0  0
 49 47  2  0  0  0  0
 51 49  1  0  0  0  0
 52 51  1  0  0  0  0
 53 55  1  0  0  0  0
 53 51  2  0  0  0  0
 54 53  1  0  0  0  0
 55 57  2  0  0  0  0
 56 55  1  0  0  0  0
 57 47  1  0  0  0  0
 57 46  1  0  0  0  0
M  END
