1,2,3
 OpenBabel05122313063D

 47 49  0  0  1  0  0  0  0  0999 V2000
   -0.0344    1.6852   -0.2321 N   0  0  0  0  0  2  0  0  0  0  0  0
   -1.9447   -0.2366   -0.1420 N   0  0  0  0  0  0  0  0  0  0  0  0
    2.2686    0.2552   -0.2007 N   0  0  0  0  0  0  0  0  0  0  0  0
   -1.2777    2.1807   -0.0311 C   0  0  1  0  0  3  0  0  0  0  0  0
   -1.4342    3.5360    0.2871 C   0  0  0  0  0  0  0  0  0  0  0  0
   -2.4368    3.9512    0.4627 H   0  0  0  0  0  0  0  0  0  0  0  0
   -0.2910    4.3486    0.3682 C   0  0  0  0  0  0  0  0  0  0  0  0
   -0.3935    5.4129    0.6257 H   0  0  0  0  0  0  0  0  0  0  0  0
    0.9820    3.8101    0.1105 C   0  0  0  0  0  0  0  0  0  0  0  0
    1.8827    4.4390    0.1467 H   0  0  0  0  0  0  0  0  0  0  0  0
    1.0814    2.4499   -0.2001 C   0  0  0  0  0  0  0  0  0  0  0  0
   -2.3815    1.1952   -0.3047 C   0  0  0  0  0  0  0  0  0  0  0  0
   -2.6891    1.3327   -1.3635 H   0  0  0  0  0  0  0  0  0  0  0  0
   -3.2779    1.4079    0.3105 H   0  0  0  0  0  0  0  0  0  0  0  0
   -2.6380   -1.1235   -1.1395 C   0  0  0  0  0  0  0  0  0  0  0  0
   -2.1355   -2.1076   -1.0611 H   0  0  0  0  0  0  0  0  0  0  0  0
   -2.4179   -0.7198   -2.1473 H   0  0  0  0  0  0  0  0  0  0  0  0
   -4.1389   -1.2583   -0.8764 C   0  0  0  0  0  0  0  0  0  0  0  0
   -4.6579   -0.2858   -1.0270 H   0  0  0  0  0  0  0  0  0  0  0  0
   -4.5551   -1.9455   -1.6408 H   0  0  0  0  0  0  0  0  0  0  0  0
   -4.3959   -1.7869    0.5388 C   0  0  0  0  0  0  0  0  0  0  0  0
   -3.9991   -2.8223    0.6196 H   0  0  0  0  0  0  0  0  0  0  0  0
   -5.4831   -1.8478    0.7450 H   0  0  0  0  0  0  0  0  0  0  0  0
   -3.7015   -0.8960    1.5741 C   0  0  0  0  0  0  0  0  0  0  0  0
   -3.7810   -1.3267    2.5930 H   0  0  0  0  0  0  0  0  0  0  0  0
   -4.2078    0.0933    1.6284 H   0  0  0  0  0  0  0  0  0  0  0  0
   -2.2116   -0.7309    1.2598 C   0  0  0  0  0  0  0  0  0  0  0  0
   -1.7159   -0.0299    1.9611 H   0  0  0  0  0  0  0  0  0  0  0  0
   -1.6886   -1.7052    1.3317 H   0  0  0  0  0  0  0  0  0  0  0  0
    2.3082    1.6940   -0.6284 C   0  0  0  0  0  0  0  0  0  0  0  0
    2.3365    1.7070   -1.7395 H   0  0  0  0  0  0  0  0  0  0  0  0
    3.2440    2.1733   -0.2698 H   0  0  0  0  0  0  0  0  0  0  0  0
    2.6411    0.1756    1.2559 C   0  0  0  0  0  0  0  0  0  0  0  0
    1.8650    0.7189    1.8316 H   0  0  0  0  0  0  0  0  0  0  0  0
    3.5987    0.7360    1.3747 H   0  0  0  0  0  0  0  0  0  0  0  0
    2.8240   -1.2546    1.7456 C   0  0  0  0  0  0  0  0  0  0  0  0
    1.8619   -1.8028    1.6657 H   0  0  0  0  0  0  0  0  0  0  0  0
    3.0950   -1.2146    2.8201 H   0  0  0  0  0  0  0  0  0  0  0  0
    3.9023   -1.9680    0.9242 C   0  0  0  0  0  0  0  0  0  0  0  0
    4.8881   -1.4836    1.1046 H   0  0  0  0  0  0  0  0  0  0  0  0
    4.0038   -3.0215    1.2515 H   0  0  0  0  0  0  0  0  0  0  0  0
    3.5496   -1.9129   -0.5651 C   0  0  0  0  0  0  0  0  0  0  0  0
    4.3766   -2.3116   -1.1872 H   0  0  0  0  0  0  0  0  0  0  0  0
    2.6581   -2.5399   -0.7615 H   0  0  0  0  0  0  0  0  0  0  0  0
    3.2709   -0.4916   -1.0381 C   0  0  0  0  0  0  0  0  0  0  0  0
    4.2120    0.1080   -1.0098 H   0  0  0  0  0  0  0  0  0  0  0  0
    2.8961   -0.4788   -2.0808 H   0  0  0  0  0  0  0  0  0  0  0  0
  1 11  1  0  0  0  0
  1  4  1  0  0  0  0
  2 27  1  0  0  0  0
  3 33  1  0  0  0  0
  4 12  1  6  0  0  0
  4  5  1  0  0  0  0
  5  7  2  0  0  0  0
  5  6  1  0  0  0  0
  7  8  1  0  0  0  0
  9 10  1  0  0  0  0
  9  7  1  0  0  0  0
 11  9  2  0  0  0  0
 12  2  1  0  0  0  0
 12 14  1  0  0  0  0
 13 12  1  0  0  0  0
 15 16  1  0  0  0  0
 15 18  1  0  0  0  0
 15  2  1  0  0  0  0
 17 15  1  0  0  0  0
 18 21  1  0  0  0  0
 19 18  1  0  0  0  0
 20 18  1  0  0  0  0
 21 22  1  0  0  0  0
 21 23  1  0  0  0  0
 21 24  1  0  0  0  0
 24 26  1  0  0  0  0
 24 25  1  0  0  0  0
 27 29  1  0  0  0  0
 27 24  1  0  0  0  0
 27 28  1  0  0  0  0
 30 32  1  0  0  0  0
 30  3  1  0  0  0  0
 30 11  1  0  0  0  0
 31 30  1  0  0  0  0
 33 35  1  0  0  0  0
 33 36  1  0  0  0  0
 33 34  1  0  0  0  0
 36 38  1  0  0  0  0
 37 36  1  0  0  0  0
 39 40  1  0  0  0  0
 39 41  1  0  0  0  0
 39 36  1  0  0  0  0
 42 39  1  0  0  0  0
 43 42  1  0  0  0  0
 44 42  1  0  0  0  0
 45 46  1  0  0  0  0
 45 42  1  0  0  0  0
 45  3  1  0  0  0  0
 47 45  1  0  0  0  0
M  END
