2,3,4
 OpenBabel05122313063D

 34 33  0  0  0  0  0  0  0  0999 V2000
    2.1039   -1.8286   -0.2743 N   0  0  0  0  0  0  0  0  0  0  0  0
    1.0204    1.3489    0.5510 N   0  0  0  0  0  0  0  0  0  0  0  0
   -1.7759    1.3530   -0.0916 N   0  0  0  0  0  0  0  0  0  0  0  0
   -1.1450   -1.7569   -0.3856 N   0  0  0  0  0  0  0  0  0  0  0  0
    3.1995   -0.9350   -0.6347 C   0  0  0  0  0  0  0  0  0  0  0  0
    3.3132    0.2899    0.2895 C   0  0  0  0  0  0  0  0  0  0  0  0
    2.3858    1.4783    0.0048 C   0  0  0  0  0  0  0  0  0  0  0  0
    0.2385    2.5964    0.4056 C   0  0  0  0  0  0  0  0  0  0  0  0
   -1.2241    2.3698    0.7886 C   0  0  0  0  0  0  0  0  0  0  0  0
   -3.1000    0.8246    0.1743 C   0  0  0  0  0  0  0  0  0  0  0  0
   -3.3408   -0.4775   -0.6029 C   0  0  0  0  0  0  0  0  0  0  0  0
   -2.5888   -1.7110   -0.0860 C   0  0  0  0  0  0  0  0  0  0  0  0
    1.9132   -2.4891   -1.0358 H   0  0  0  0  0  0  0  0  0  0  0  0
    2.3257   -2.3740    0.5681 H   0  0  0  0  0  0  0  0  0  0  0  0
    4.1979   -1.4404   -0.6546 H   0  0  0  0  0  0  0  0  0  0  0  0
    3.0151   -0.5839   -1.6726 H   0  0  0  0  0  0  0  0  0  0  0  0
    4.3499    0.6768    0.1998 H   0  0  0  0  0  0  0  0  0  0  0  0
    3.2020   -0.0266    1.3507 H   0  0  0  0  0  0  0  0  0  0  0  0
    2.2946    1.6502   -1.0881 H   0  0  0  0  0  0  0  0  0  0  0  0
    2.8442    2.3990    0.4373 H   0  0  0  0  0  0  0  0  0  0  0  0
    1.0644    1.1008    1.5735 H   0  0  0  0  0  0  0  0  0  0  0  0
    0.6837    3.4057    1.0273 H   0  0  0  0  0  0  0  0  0  0  0  0
    0.2980    2.9054   -0.6574 H   0  0  0  0  0  0  0  0  0  0  0  0
   -1.7660    3.3487    0.7541 H   0  0  0  0  0  0  0  0  0  0  0  0
   -1.2881    1.9991    1.8353 H   0  0  0  0  0  0  0  0  0  0  0  0
   -1.6551    1.6269   -1.0770 H   0  0  0  0  0  0  0  0  0  0  0  0
   -3.1735    0.6190    1.2651 H   0  0  0  0  0  0  0  0  0  0  0  0
   -3.9174    1.5546   -0.0593 H   0  0  0  0  0  0  0  0  0  0  0  0
   -3.1146   -0.3182   -1.6812 H   0  0  0  0  0  0  0  0  0  0  0  0
   -4.4251   -0.7107   -0.5556 H   0  0  0  0  0  0  0  0  0  0  0  0
   -3.0776   -2.6238   -0.4946 H   0  0  0  0  0  0  0  0  0  0  0  0
   -2.6815   -1.7689    1.0183 H   0  0  0  0  0  0  0  0  0  0  0  0
   -0.7006   -2.4421    0.2537 H   0  0  0  0  0  0  0  0  0  0  0  0
   -0.9209   -1.9741   -1.3743 H   0  0  0  0  0  0  0  0  0  0  0  0
  1 14  1  0  0  0  0
  2 21  1  0  0  0  0
  3 10  1  0  0  0  0
  3  9  1  0  0  0  0
  4 12  1  0  0  0  0
  4 33  1  0  0  0  0
  5  1  1  0  0  0  0
  5  6  1  0  0  0  0
  6 18  1  0  0  0  0
  7  6  1  0  0  0  0
  7 20  1  0  0  0  0
  7  2  1  0  0  0  0
  8  2  1  0  0  0  0
  8  9  1  0  0  0  0
  8 22  1  0  0  0  0
  9 25  1  0  0  0  0
 10 27  1  0  0  0  0
 11 30  1  0  0  0  0
 11 12  1  0  0  0  0
 11 10  1  0  0  0  0
 12 32  1  0  0  0  0
 13  1  1  0  0  0  0
 15  5  1  0  0  0  0
 16  5  1  0  0  0  0
 17  6  1  0  0  0  0
 19  7  1  0  0  0  0
 23  8  1  0  0  0  0
 24  9  1  0  0  0  0
 26  3  1  0  0  0  0
 28 10  1  0  0  0  0
 29 11  1  0  0  0  0
 31 12  1  0  0  0  0
 34  4  1  0  0  0  0
M  END
