3,4,5
 OpenBabel05122313063D

 51 54  0  0  1  0  0  0  0  0999 V2000
    2.6400   -0.7781    1.4015 O   0  0  0  0  0  0  0  0  0  0  0  0
   -1.9430   -1.9219   -0.2811 O   0  0  0  0  0  0  0  0  0  0  0  0
   -0.1149    2.3624   -0.3291 N   0  0  0  0  0  2  0  0  0  0  0  0
    2.3661    1.2276   -0.2176 N   0  0  0  0  0  2  0  0  0  0  0  0
   -0.0578   -1.8756    1.6564 N   0  0  0  0  0  0  0  0  0  0  0  0
   -0.9048   -1.4480    2.1012 H   0  0  0  0  0  0  0  0  0  0  0  0
   -2.3180    0.7141   -0.5772 N   0  0  0  0  0  0  0  0  0  0  0  0
   -1.3460    2.8885   -0.2362 C   0  0  1  0  0  3  0  0  0  0  0  0
   -1.5467    4.2790   -0.0850 C   0  0  0  0  0  0  0  0  0  0  0  0
   -2.5681    4.6752    0.0088 H   0  0  0  0  0  0  0  0  0  0  0  0
   -0.4318    5.1238   -0.0639 C   0  0  0  0  0  0  0  0  0  0  0  0
   -0.5574    6.2109    0.0469 H   0  0  0  0  0  0  0  0  0  0  0  0
    0.8476    4.5649   -0.1840 C   0  0  0  0  0  0  0  0  0  0  0  0
    1.7507    5.1929   -0.1746 H   0  0  0  0  0  0  0  0  0  0  0  0
    0.9633    3.1623   -0.2944 C   0  0  0  0  0  0  0  0  0  0  0  0
    2.2787    2.5068   -0.3459 C   0  0  0  0  0  3  0  0  0  0  0  0
    3.1742    3.1569   -0.4511 H   0  0  0  0  0  0  0  0  0  0  0  0
    3.5616    0.5213   -0.3035 C   0  0  0  0  0  0  0  0  0  0  0  0
    4.6040    0.8176   -1.2050 C   0  0  0  0  0  0  0  0  0  0  0  0
    4.4947    1.6755   -1.8851 H   0  0  0  0  0  0  0  0  0  0  0  0
    5.7237   -0.0194   -1.2881 C   0  0  0  0  0  0  0  0  0  0  0  0
    6.5201    0.1996   -2.0139 H   0  0  0  0  0  0  0  0  0  0  0  0
    5.8088   -1.1557   -0.4661 C   0  0  0  0  0  0  0  0  0  0  0  0
    6.6830   -1.8201   -0.5385 H   0  0  0  0  0  0  0  0  0  0  0  0
    4.7857   -1.4674    0.4434 C   0  0  0  0  0  0  0  0  0  0  0  0
    4.8644   -2.3592    1.0794 H   0  0  0  0  0  0  0  0  0  0  0  0
    3.6643   -0.6283    0.5336 C   0  0  0  0  0  0  0  0  0  0  0  0
    2.4039   -2.0301    2.0347 C   0  0  0  0  0  0  0  0  0  0  0  0
    3.1583   -2.2080    2.8341 H   0  0  0  0  0  0  0  0  0  0  0  0
    2.4796   -2.8491    1.2860 H   0  0  0  0  0  0  0  0  0  0  0  0
    1.0126   -1.9437    2.6471 C   0  0  0  0  0  0  0  0  0  0  0  0
    0.8803   -2.8168    3.3320 H   0  0  0  0  0  0  0  0  0  0  0  0
    0.9551   -1.0197    3.2571 H   0  0  0  0  0  0  0  0  0  0  0  0
   -0.3705   -3.1511    1.0062 C   0  0  0  0  0  0  0  0  0  0  0  0
   -0.3010   -4.0078    1.7200 H   0  0  0  0  0  0  0  0  0  0  0  0
    0.3523   -3.3287    0.1826 H   0  0  0  0  0  0  0  0  0  0  0  0
   -1.7862   -3.1334    0.4557 C   0  0  0  0  0  0  0  0  0  0  0  0
   -1.9496   -4.0230   -0.1925 H   0  0  0  0  0  0  0  0  0  0  0  0
   -2.5388   -3.1486    1.2761 H   0  0  0  0  0  0  0  0  0  0  0  0
   -3.1870   -1.5375   -0.6526 C   0  0  0  0  0  0  0  0  0  0  0  0
   -4.2474   -2.4399   -0.8507 C   0  0  0  0  0  0  0  0  0  0  0  0
   -4.0894   -3.5152   -0.6941 H   0  0  0  0  0  0  0  0  0  0  0  0
   -5.4989   -1.9728   -1.2746 C   0  0  0  0  0  0  0  0  0  0  0  0
   -6.3154   -2.6912   -1.4414 H   0  0  0  0  0  0  0  0  0  0  0  0
   -5.7041   -0.6028   -1.5067 C   0  0  0  0  0  0  0  0  0  0  0  0
   -6.6773   -0.2397   -1.8678 H   0  0  0  0  0  0  0  0  0  0  0  0
   -4.6600    0.2996   -1.2862 C   0  0  0  0  0  0  0  0  0  0  0  0
   -4.8163    1.3688   -1.4895 H   0  0  0  0  0  0  0  0  0  0  0  0
   -3.3943   -0.1361   -0.8301 C   0  0  0  0  0  0  0  0  0  0  0  0
   -2.4897    1.9750   -0.3532 C   0  0  0  0  0  0  0  0  0  0  0  0
   -3.4936    2.4374   -0.2611 H   0  0  0  0  0  0  0  0  0  0  0  0
  1 28  1  0  0  0  0
  2 37  1  0  0  0  0
  3 15  1  0  0  0  0
  3  8  1  0  0  0  0
  5  6  1  0  0  0  0
  5 31  1  0  0  0  0
  7 50  2  0  0  0  0
  8 50  1  6  0  0  0
  8  9  1  0  0  0  0
  9 11  2  0  0  0  0
  9 10  1  0  0  0  0
 11 12  1  0  0  0  0
 13 14  1  0  0  0  0
 13 11  1  0  0  0  0
 15 13  2  0  0  0  0
 16 15  1  0  0  0  0
 16  4  1  0  0  0  0
 17 16  1  0  0  0  0
 18  4  1  0  0  0  0
 18 27  1  0  0  0  0
 19 18  2  0  0  0  0
 20 19  1  0  0  0  0
 21 19  1  0  0  0  0
 21 23  2  0  0  0  0
 22 21  1  0  0  0  0
 23 25  1  0  0  0  0
 24 23  1  0  0  0  0
 25 27  2  0  0  0  0
 25 26  1  0  0  0  0
 27  1  1  0  0  0  0
 28 31  1  0  0  0  0
 28 29  1  0  0  0  0
 30 28  1  0  0  0  0
 31 33  1  0  0  0  0
 31 32  1  0  0  0  0
 34  5  1  0  0  0  0
 34 35  1  0  0  0  0
 36 34  1  0  0  0  0
 37 34  1  0  0  0  0
 37 39  1  0  0  0  0
 38 37  1  0  0  0  0
 40  2  1  0  0  0  0
 41 42  1  0  0  0  0
 41 40  2  0  0  0  0
 43 41  1  0  0  0  0
 44 43  1  0  0  0  0
 45 47  1  0  0  0  0
 45 43  2  0  0  0  0
 46 45  1  0  0  0  0
 47 49  2  0  0  0  0
 48 47  1  0  0  0  0
 49 40  1  0  0  0  0
 49  7  1  0  0  0  0
 50 51  1  0  0  0  0
M  END
