2,4,6
 OpenBabel05122313063D

 53 55  0  0  1  0  0  0  0  0999 V2000
    1.2061    0.8339   -0.6746 N   0  0  0  0  0  0  0  0  0  0  0  0
    1.2087    1.3001    0.5879 N   0  0  0  0  0  2  0  0  0  0  0  0
    0.1166   -1.4595   -0.6729 N   0  0  0  0  0  0  0  0  0  0  0  0
    0.5206   -1.6936    0.5894 N   0  0  0  0  0  2  0  0  0  0  0  0
   -1.3250    0.6305   -0.6719 N   0  0  0  0  0  0  0  0  0  0  0  0
   -1.7286    0.3976    0.5907 N   0  0  0  0  0  2  0  0  0  0  0  0
    1.5858    2.4713    2.9466 F   0  0  0  0  0  0  0  0  0  0  0  0
    2.7728    3.9966    1.9463 F   0  0  0  0  0  0  0  0  0  0  0  0
    3.7274    2.1671    2.6659 F   0  0  0  0  0  0  0  0  0  0  0  0
    4.8690    3.3230    0.3886 F   0  0  0  0  0  0  0  0  0  0  0  0
    4.4297    3.4402   -1.7423 F   0  0  0  0  0  0  0  0  0  0  0  0
    5.4060    1.6679   -0.9193 F   0  0  0  0  0  0  0  0  0  0  0  0
    1.7596    1.3762   -3.6115 F   0  0  0  0  0  0  0  0  0  0  0  0
    3.8676    1.1408   -3.1186 F   0  0  0  0  0  0  0  0  0  0  0  0
    2.5061   -0.5450   -2.8844 F   0  0  0  0  0  0  0  0  0  0  0  0
    0.0211   -4.3155    2.6643 F   0  0  0  0  0  0  0  0  0  0  0  0
    1.3421   -2.6035    2.9506 F   0  0  0  0  0  0  0  0  0  0  0  0
    2.0846   -4.3870    1.9487 F   0  0  0  0  0  0  0  0  0  0  0  0
    0.4620   -5.8752    0.3871 F   0  0  0  0  0  0  0  0  0  0  0  0
    0.7648   -5.5507   -1.7460 F   0  0  0  0  0  0  0  0  0  0  0  0
   -1.2519   -5.5192   -0.9070 F   0  0  0  0  0  0  0  0  0  0  0  0
   -0.9540   -3.9197   -3.1120 F   0  0  0  0  0  0  0  0  0  0  0  0
   -1.7271   -1.8952   -2.8799 F   0  0  0  0  0  0  0  0  0  0  0  0
    0.3075   -2.2161   -3.6110 F   0  0  0  0  0  0  0  0  0  0  0  0
   -3.7504    2.1381    2.6669 F   0  0  0  0  0  0  0  0  0  0  0  0
   -2.9260    0.1389    2.9521 F   0  0  0  0  0  0  0  0  0  0  0  0
   -4.8426    0.3858    1.9513 F   0  0  0  0  0  0  0  0  0  0  0  0
   -4.1616    3.8412   -0.9056 F   0  0  0  0  0  0  0  0  0  0  0  0
   -5.3241    2.5336    0.3896 F   0  0  0  0  0  0  0  0  0  0  0  0
   -5.1947    2.1085   -1.7435 F   0  0  0  0  0  0  0  0  0  0  0  0
   -2.9242    2.7858   -3.1103 F   0  0  0  0  0  0  0  0  0  0  0  0
   -0.7840    2.4452   -2.8793 F   0  0  0  0  0  0  0  0  0  0  0  0
   -2.0779    0.8423   -3.6099 F   0  0  0  0  0  0  0  0  0  0  0  0
    2.3412    1.9976    0.7578 C   0  0  1  0  0  3  0  0  0  0  0  0
    3.1148    1.9772   -0.4318 C   0  0  0  0  0  0  0  0  0  0  0  0
    2.3456    1.2113   -1.3218 C   0  0  0  0  0  0  0  0  0  0  0  0
    2.6183    2.6684    2.0864 C   0  0  0  0  0  0  0  0  0  0  0  0
    4.4644    2.6061   -0.6813 C   0  0  0  0  0  0  0  0  0  0  0  0
    2.6222    0.7984   -2.7511 C   0  0  0  0  0  0  0  0  0  0  0  0
    0.5613   -3.0229    0.7596 C   0  0  1  0  0  3  0  0  0  0  0  0
    0.1579   -3.6839   -0.4296 C   0  0  0  0  0  0  0  0  0  0  0  0
   -0.1245   -2.6357   -1.3194 C   0  0  0  0  0  0  0  0  0  0  0  0
    1.0055   -3.5973    2.0880 C   0  0  0  0  0  0  0  0  0  0  0  0
    0.0318   -5.1675   -0.6789 C   0  0  0  0  0  0  0  0  0  0  0  0
   -0.6234   -2.6702   -2.7477 C   0  0  0  0  0  0  0  0  0  0  0  0
   -2.9010    1.0253    0.7614 C   0  0  1  0  0  3  0  0  0  0  0  0
   -3.2735    1.7042   -0.4279 C   0  0  0  0  0  0  0  0  0  0  0  0
   -2.2245    1.4260   -1.3182 C   0  0  0  0  0  0  0  0  0  0  0  0
   -3.6197    0.9268    2.0902 C   0  0  0  0  0  0  0  0  0  0  0  0
   -4.4966    2.5532   -0.6769 C   0  0  0  0  0  0  0  0  0  0  0  0
   -2.0063    1.8756   -2.7465 C   0  0  0  0  0  0  0  0  0  0  0  0
   -0.0013    0.0017   -1.2053 B   0  0  1  0  0  0  0  0  0  0  0  0
   -0.0023    0.0009   -2.4051 H   0  0  0  0  0  0  0  0  0  0  0  0
  1  2  1  0  0  0  0
  2 34  1  0  0  0  0
  3  4  1  0  0  0  0
  4 40  1  0  0  0  0
  5  6  1  0  0  0  0
  6 46  1  0  0  0  0
  8 37  1  0  0  0  0
 11 38  1  0  0  0  0
 12 38  1  0  0  0  0
 13 39  1  0  0  0  0
 14 39  1  0  0  0  0
 15 39  1  0  0  0  0
 18 43  1  0  0  0  0
 20 44  1  0  0  0  0
 21 44  1  0  0  0  0
 22 45  1  0  0  0  0
 23 45  1  0  0  0  0
 24 45  1  0  0  0  0
 27 49  1  0  0  0  0
 28 50  1  0  0  0  0
 30 50  1  0  0  0  0
 31 51  1  0  0  0  0
 32 51  1  0  0  0  0
 33 51  1  0  0  0  0
 34 37  1  6  0  0  0
 35 34  1  0  0  0  0
 36  1  1  0  0  0  0
 36 35  2  0  0  0  0
 37  9  1  0  0  0  0
 37  7  1  0  0  0  0
 38 35  1  0  0  0  0
 38 10  1  0  0  0  0
 39 36  1  0  0  0  0
 40 43  1  6  0  0  0
 41 40  1  0  0  0  0
 42  3  1  0  0  0  0
 42 41  2  0  0  0  0
 43 16  1  0  0  0  0
 43 17  1  0  0  0  0
 44 41  1  0  0  0  0
 44 19  1  0  0  0  0
 45 42  1  0  0  0  0
 46 49  1  6  0  0  0
 47 46  1  0  0  0  0
 48  5  1  0  0  0  0
 48 47  2  0  0  0  0
 49 25  1  0  0  0  0
 49 26  1  0  0  0  0
 50 47  1  0  0  0  0
 50 29  1  0  0  0  0
 51 48  1  0  0  0  0
 52 53  1  6  0  0  0
 52  1  1  0  0  0  0
 52  3  1  0  0  0  0
 52  5  1  0  0  0  0
M  END
