4,5,6
 OpenBabel05122313063D

 50 52  0  0  1  0  0  0  0  0999 V2000
    1.5559    0.3496   -1.2254 S   0  0  0  0  0  0  0  0  0  0  0  0
    1.2539   -0.6004   -2.3069 O   0  0  0  0  0  0  0  0  0  0  0  0
    1.2031    1.7762   -1.3104 O   0  0  0  0  0  0  0  0  0  0  0  0
   -1.5245    1.6223    0.8579 N   0  0  0  0  0  2  0  0  0  0  0  0
    0.4272   -0.2302    0.1635 N   0  0  0  0  0  0  0  0  0  0  0  0
   -1.7168   -1.5342    1.1168 N   0  0  0  0  0  2  0  0  0  0  0  0
   -2.4510    2.6040    0.9866 C   0  0  0  0  0  3  0  0  0  0  0  0
   -3.4063    2.4400    0.4680 H   0  0  0  0  0  0  0  0  0  0  0  0
   -2.2127    3.7668    1.7221 C   0  0  0  0  0  0  0  0  0  0  0  0
   -2.9963    4.5338    1.7931 H   0  0  0  0  0  0  0  0  0  0  0  0
   -0.9670    3.9307    2.3447 C   0  0  0  0  0  0  0  0  0  0  0  0
   -0.7416    4.8394    2.9218 H   0  0  0  0  0  0  0  0  0  0  0  0
   -0.0105    2.9156    2.2153 C   0  0  0  0  0  0  0  0  0  0  0  0
    0.9761    3.0048    2.6922 H   0  0  0  0  0  0  0  0  0  0  0  0
   -0.3208    1.7707    1.4693 C   0  0  0  0  0  0  0  0  0  0  0  0
    0.6231    0.6020    1.3826 C   0  0  0  0  0  0  0  0  0  0  0  0
    0.4279   -0.0487    2.2620 H   0  0  0  0  0  0  0  0  0  0  0  0
    1.6811    0.9212    1.4807 H   0  0  0  0  0  0  0  0  0  0  0  0
    0.6199   -1.6696    0.4735 C   0  0  0  0  0  0  0  0  0  0  0  0
    1.5976   -1.8568    0.9685 H   0  0  0  0  0  0  0  0  0  0  0  0
    0.6069   -2.2177   -0.4911 H   0  0  0  0  0  0  0  0  0  0  0  0
   -0.5206   -2.1450    1.3422 C   0  0  2  0  0  3  0  0  0  0  0  0
   -0.3784   -3.1531    2.3029 C   0  0  0  0  0  0  0  0  0  0  0  0
    0.6045   -3.6193    2.4630 H   0  0  0  0  0  0  0  0  0  0  0  0
   -1.5001   -3.5556    3.0428 C   0  0  0  0  0  0  0  0  0  0  0  0
   -1.4137   -4.3516    3.7969 H   0  0  0  0  0  0  0  0  0  0  0  0
   -2.7279   -2.9209    2.8083 C   0  0  0  0  0  0  0  0  0  0  0  0
   -3.6330   -3.1989    3.3660 H   0  0  0  0  0  0  0  0  0  0  0  0
   -2.7958   -1.9140    1.8408 C   0  0  0  0  0  0  0  0  0  0  0  0
   -3.7387   -1.3933    1.6190 H   0  0  0  0  0  0  0  0  0  0  0  0
    3.2197    0.1325   -0.5963 C   0  0  0  0  0  0  0  0  0  0  0  0
    3.8668   -1.1333   -0.7697 C   0  0  0  0  0  0  0  0  0  0  0  0
    5.1165   -1.3006   -0.1477 C   0  0  0  0  0  0  0  0  0  0  0  0
    5.6271   -2.2683   -0.2713 H   0  0  0  0  0  0  0  0  0  0  0  0
    5.7483   -0.2867    0.5925 C   0  0  0  0  0  0  0  0  0  0  0  0
    5.1072    0.9606    0.6717 C   0  0  0  0  0  0  0  0  0  0  0  0
    5.6094    1.7858    1.1999 H   0  0  0  0  0  0  0  0  0  0  0  0
    3.8565    1.2212    0.0828 C   0  0  0  0  0  0  0  0  0  0  0  0
    3.3801   -2.2691   -1.6389 C   0  0  0  0  0  0  0  0  0  0  0  0
    3.2689   -1.9402   -2.6898 H   0  0  0  0  0  0  0  0  0  0  0  0
    2.3944   -2.6742   -1.3472 H   0  0  0  0  0  0  0  0  0  0  0  0
    4.1106   -3.0977   -1.6047 H   0  0  0  0  0  0  0  0  0  0  0  0
    7.0967   -0.5098    1.2174 C   0  0  0  0  0  0  0  0  0  0  0  0
    7.9000   -0.3067    0.4767 H   0  0  0  0  0  0  0  0  0  0  0  0
    7.2246   -1.5572    1.5526 H   0  0  0  0  0  0  0  0  0  0  0  0
    7.2684    0.1641    2.0782 H   0  0  0  0  0  0  0  0  0  0  0  0
    3.3597    2.6476    0.1447 C   0  0  0  0  0  0  0  0  0  0  0  0
    4.0622    3.2560    0.7432 H   0  0  0  0  0  0  0  0  0  0  0  0
    2.3452    2.7614    0.5681 H   0  0  0  0  0  0  0  0  0  0  0  0
    3.2978    3.0827   -0.8718 H   0  0  0  0  0  0  0  0  0  0  0  0
  1 31  1  0  0  0  0
  1  5  1  0  0  0  0
  2  1  2  0  0  0  0
  3  1  2  0  0  0  0
  4  7  1  0  0  0  0
  4 15  1  0  0  0  0
  5 19  1  0  0  0  0
  5 16  1  0  0  0  0
  6 22  1  0  0  0  0
  6 29  1  0  0  0  0
  7  9  1  0  0  0  0
  8  7  1  0  0  0  0
  9 10  1  0  0  0  0
  9 11  2  0  0  0  0
 11 12  1  0  0  0  0
 13 11  1  0  0  0  0
 13 14  1  0  0  0  0
 15 13  2  0  0  0  0
 16 15  1  0  0  0  0
 16 18  1  0  0  0  0
 16 17  1  0  0  0  0
 19 20  1  0  0  0  0
 21 19  1  0  0  0  0
 22 19  1  6  0  0  0
 22 23  1  0  0  0  0
 23 24  1  0  0  0  0
 23 25  2  0  0  0  0
 25 26  1  0  0  0  0
 27 25  1  0  0  0  0
 27 28  1  0  0  0  0
 29 27  2  0  0  0  0
 30 29  1  0  0  0  0
 31 38  1  0  0  0  0
 32 31  2  0  0  0  0
 32 33  1  0  0  0  0
 33 35  2  0  0  0  0
 34 33  1  0  0  0  0
 35 36  1  0  0  0  0
 35 43  1  0  0  0  0
 36 37  1  0  0  0  0
 38 47  1  0  0  0  0
 38 36  2  0  0  0  0
 39 42  1  0  0  0  0
 39 41  1  0  0  0  0
 39 32  1  0  0  0  0
 40 39  1  0  0  0  0
 43 45  1  0  0  0  0
 43 46  1  0  0  0  0
 44 43  1  0  0  0  0
 47 49  1  0  0  0  0
 47 48  1  0  0  0  0
 50 47  1  0  0  0  0
M  END
