2,3,4
 OpenBabel05122313063D

 39 42  0  0  0  0  0  0  0  0999 V2000
    4.4065   -1.5409    1.5906 Cl  0  0  0  0  0  0  0  0  0  0  0  0
   -1.6396   -2.0353   -0.1740 N   0  0  0  0  0  2  0  0  0  0  0  0
   -0.1468    0.0966   -0.0921 N   0  0  0  0  0  2  0  0  0  0  0  0
   -1.9452    1.9645    0.1244 N   0  0  0  0  0  2  0  0  0  0  0  0
   -2.4996   -3.0757   -0.2045 C   0  0  0  0  0  3  0  0  0  0  0  0
   -3.5670   -2.8171   -0.1376 H   0  0  0  0  0  0  0  0  0  0  0  0
   -2.0481   -4.3969   -0.3142 C   0  0  0  0  0  0  0  0  0  0  0  0
   -2.7818   -5.2147   -0.3356 H   0  0  0  0  0  0  0  0  0  0  0  0
   -0.6718   -4.6443   -0.3925 C   0  0  0  0  0  0  0  0  0  0  0  0
   -0.2903   -5.6721   -0.4776 H   0  0  0  0  0  0  0  0  0  0  0  0
    0.2202   -3.5624   -0.3603 C   0  0  0  0  0  0  0  0  0  0  0  0
    1.3044   -3.7300   -0.4174 H   0  0  0  0  0  0  0  0  0  0  0  0
   -0.2750   -2.2572   -0.2517 C   0  0  0  0  0  0  0  0  0  0  0  0
    0.5758   -1.0445   -0.2063 C   0  0  0  0  0  0  0  0  0  0  0  0
    1.9714   -0.9597   -0.2683 C   0  0  0  0  0  0  0  0  0  0  0  0
    2.5827   -1.8639   -0.3738 H   0  0  0  0  0  0  0  0  0  0  0  0
    2.5981    0.3108   -0.2067 C   0  0  0  0  0  0  0  0  0  0  0  0
    1.7876    1.4677   -0.0937 C   0  0  0  0  0  0  0  0  0  0  0  0
    2.2617    2.4560   -0.0261 H   0  0  0  0  0  0  0  0  0  0  0  0
    0.3935    1.3368   -0.0364 C   0  0  0  0  0  0  0  0  0  0  0  0
   -0.6311    2.4003    0.0927 C   0  0  0  0  0  0  0  0  0  0  0  0
   -0.3420    3.7675    0.1817 C   0  0  0  0  0  0  0  0  0  0  0  0
    0.7028    4.1056    0.1577 H   0  0  0  0  0  0  0  0  0  0  0  0
   -1.3881    4.6940    0.3026 C   0  0  0  0  0  0  0  0  0  0  0  0
   -1.1683    5.7691    0.3738 H   0  0  0  0  0  0  0  0  0  0  0  0
   -2.7096    4.2311    0.3317 C   0  0  0  0  0  0  0  0  0  0  0  0
   -3.5592    4.9217    0.4252 H   0  0  0  0  0  0  0  0  0  0  0  0
   -2.9534    2.8550    0.2402 C   0  0  0  0  0  0  0  0  0  0  0  0
   -3.9682    2.4299    0.2578 H   0  0  0  0  0  0  0  0  0  0  0  0
    4.0693    0.4509   -0.2975 C   0  0  0  0  0  0  0  0  0  0  0  0
    4.6151    1.4358   -1.1559 C   0  0  0  0  0  0  0  0  0  0  0  0
    3.9298    2.0509   -1.7586 H   0  0  0  0  0  0  0  0  0  0  0  0
    5.9964    1.6085   -1.2883 C   0  0  0  0  0  0  0  0  0  0  0  0
    6.3907    2.3695   -1.9767 H   0  0  0  0  0  0  0  0  0  0  0  0
    6.8716    0.8009   -0.5451 C   0  0  0  0  0  0  0  0  0  0  0  0
    7.9602    0.9279   -0.6376 H   0  0  0  0  0  0  0  0  0  0  0  0
    6.3631   -0.1732    0.3244 C   0  0  0  0  0  0  0  0  0  0  0  0
    7.0351   -0.8011    0.9258 H   0  0  0  0  0  0  0  0  0  0  0  0
    4.9766   -0.3500    0.4443 C   0  0  0  0  0  0  0  0  0  0  0  0
  3 20  1  0  0  0  0
  4 28  1  0  0  0  0
  5  2  1  0  0  0  0
  5  6  1  0  0  0  0
  7  5  1  0  0  0  0
  8  7  1  0  0  0  0
  9 11  1  0  0  0  0
  9  7  2  0  0  0  0
 10  9  1  0  0  0  0
 11 13  2  0  0  0  0
 12 11  1  0  0  0  0
 13 14  1  0  0  0  0
 13  2  1  0  0  0  0
 14  3  1  0  0  0  0
 15 17  1  0  0  0  0
 15 14  2  0  0  0  0
 16 15  1  0  0  0  0
 17 18  2  0  0  0  0
 18 20  1  0  0  0  0
 18 19  1  0  0  0  0
 20 21  2  0  0  0  0
 21  4  1  0  0  0  0
 21 22  1  0  0  0  0
 22 24  2  0  0  0  0
 23 22  1  0  0  0  0
 24 26  1  0  0  0  0
 24 25  1  0  0  0  0
 26 27  1  0  0  0  0
 28 29  1  0  0  0  0
 28 26  2  0  0  0  0
 30 17  1  0  0  0  0
 30 39  1  0  0  0  0
 31 30  2  0  0  0  0
 32 31  1  0  0  0  0
 33 31  1  0  0  0  0
 33 35  2  0  0  0  0
 34 33  1  0  0  0  0
 35 37  1  0  0  0  0
 36 35  1  0  0  0  0
 37 39  2  0  0  0  0
 37 38  1  0  0  0  0
 39  1  1  0  0  0  0
M  END
