1,2,3
 OpenBabel05122313063D

 32 35  0  0  0  0  0  0  0  0999 V2000
   -1.3401   -1.2706   -0.0003 N   0  0  0  0  0  2  0  0  0  0  0  0
   -0.0280    0.8562    0.0221 N   0  0  0  0  0  2  0  0  0  0  0  0
    2.2561    0.0979    0.0107 N   0  0  0  0  0  2  0  0  0  0  0  0
    2.1325    1.4709    0.0248 N   0  0  0  0  0  0  0  0  0  0  0  0
   -1.9883   -2.4477   -0.0071 C   0  0  0  0  0  0  0  0  0  0  0  0
   -1.3587   -3.3494   -0.0068 H   0  0  0  0  0  0  0  0  0  0  0  0
   -3.3982   -2.5217   -0.0112 C   0  0  0  0  0  0  0  0  0  0  0  0
   -3.8715   -3.5140   -0.0175 H   0  0  0  0  0  0  0  0  0  0  0  0
   -4.1829   -1.3622   -0.0072 C   0  0  0  0  0  0  0  0  0  0  0  0
   -5.2815   -1.4240   -0.0106 H   0  0  0  0  0  0  0  0  0  0  0  0
   -3.5340   -0.1012    0.0021 C   0  0  0  0  0  0  0  0  0  0  0  0
   -2.1150   -0.1312    0.0046 C   0  0  0  0  0  0  0  0  0  0  0  0
   -4.1518    1.2030    0.0103 C   0  0  0  0  0  0  0  0  0  0  0  0
   -5.2512    1.2579    0.0077 H   0  0  0  0  0  0  0  0  0  0  0  0
   -3.4095    2.3729    0.0216 C   0  0  0  0  0  0  0  0  0  0  0  0
   -3.9254    3.3453    0.0278 H   0  0  0  0  0  0  0  0  0  0  0  0
   -1.9680    2.3552    0.0261 C   0  0  0  0  0  0  0  0  0  0  0  0
   -1.3786    1.0703    0.0169 C   0  0  0  0  0  0  0  0  0  0  0  0
   -1.0698    3.4614    0.0381 C   0  0  0  0  0  0  0  0  0  0  0  0
   -1.4582    4.4896    0.0454 H   0  0  0  0  0  0  0  0  0  0  0  0
    0.3186    3.2402    0.0390 C   0  0  0  0  0  0  0  0  0  0  0  0
    1.0191    4.0867    0.0458 H   0  0  0  0  0  0  0  0  0  0  0  0
    0.8152    1.9243    0.0294 C   0  0  0  0  0  0  0  0  0  0  0  0
    3.3662    2.0694    0.0234 C   0  0  0  0  0  3  0  0  0  0  0  0
    3.4732    3.1582    0.0347 H   0  0  0  0  0  0  0  0  0  0  0  0
    4.3033    1.0422    0.0063 C   0  0  0  0  0  0  0  0  0  0  0  0
    5.3926    1.1505    0.0007 H   0  0  0  0  0  0  0  0  0  0  0  0
    3.5689   -0.1788   -0.0024 C   0  0  0  0  0  0  0  0  0  0  0  0
    4.0204   -1.5993   -0.0293 C   0  0  0  0  0  0  0  0  0  0  0  0
    3.5962   -2.1405    0.8415 H   0  0  0  0  0  0  0  0  0  0  0  0
    5.1227   -1.6737   -0.0123 H   0  0  0  0  0  0  0  0  0  0  0  0
    3.6293   -2.0968   -0.9409 H   0  0  0  0  0  0  0  0  0  0  0  0
  1 12  1  0  0  0  0
  2 23  1  0  0  0  0
  3  4  1  0  0  0  0
  4 23  1  0  0  0  0
  5  6  1  0  0  0  0
  5  1  1  0  0  0  0
  7  9  1  0  0  0  0
  7  5  2  0  0  0  0
  8  7  1  0  0  0  0
  9 11  2  0  0  0  0
 10  9  1  0  0  0  0
 11 12  1  0  0  0  0
 11 13  1  0  0  0  0
 12 18  2  0  0  0  0
 13 15  2  0  0  0  0
 14 13  1  0  0  0  0
 15 17  1  0  0  0  0
 15 16  1  0  0  0  0
 17 19  2  0  0  0  0
 18  2  1  0  0  0  0
 18 17  1  0  0  0  0
 19 21  1  0  0  0  0
 19 20  1  0  0  0  0
 21 22  1  0  0  0  0
 23 21  2  0  0  0  0
 24  4  1  0  0  0  0
 24 25  1  0  0  0  0
 26 24  1  0  0  0  0
 27 26  1  0  0  0  0
 28 26  2  0  0  0  0
 28  3  1  0  0  0  0
 29 31  1  0  0  0  0
 29 28  1  0  0  0  0
 29 30  1  0  0  0  0
 32 29  1  0  0  0  0
M  END
