33,35,37
 OpenBabel05122313063D

 37 38  0  0  0  0  0  0  0  0999 V2000
   -1.9617    1.8216    1.8343 C   0  0  0  0  0  0  0  0  0  0  0  0
   -1.0835    2.3989    2.1845 H   0  0  0  0  0  0  0  0  0  0  0  0
   -2.7341    1.9313    2.6221 H   0  0  0  0  0  0  0  0  0  0  0  0
   -2.4852    2.3767    0.5096 C   0  0  0  0  0  0  0  0  0  0  0  0
   -3.4815    1.9498    0.2817 H   0  0  0  0  0  0  0  0  0  0  0  0
   -2.5779    3.4831    0.5577 H   0  0  0  0  0  0  0  0  0  0  0  0
   -0.2156    2.5750   -0.5622 C   0  0  0  0  0  0  0  0  0  0  0  0
   -0.0841    3.0753    0.4163 H   0  0  0  0  0  0  0  0  0  0  0  0
   -0.1467    3.3760   -1.3255 H   0  0  0  0  0  0  0  0  0  0  0  0
    0.9053    1.5589   -0.8063 C   0  0  0  0  0  0  0  0  0  0  0  0
    0.9250    1.2629   -1.8718 H   0  0  0  0  0  0  0  0  0  0  0  0
    1.8849    2.0270   -0.5671 H   0  0  0  0  0  0  0  0  0  0  0  0
    0.8722    0.5767    1.4558 C   0  0  0  0  0  0  0  0  0  0  0  0
    0.9407    1.6712    1.6054 H   0  0  0  0  0  0  0  0  0  0  0  0
    1.8417    0.1724    1.8074 H   0  0  0  0  0  0  0  0  0  0  0  0
   -0.2756    0.0056    2.2774 C   0  0  0  0  0  0  0  0  0  0  0  0
   -0.2467   -1.1007    2.2611 H   0  0  0  0  0  0  0  0  0  0  0  0
   -0.1896    0.3430    3.3336 H   0  0  0  0  0  0  0  0  0  0  0  0
    1.6174   -0.8184   -0.4814 C   0  0  0  0  0  0  0  0  0  0  0  0
    1.3915   -0.9565   -1.5563 H   0  0  0  0  0  0  0  0  0  0  0  0
    1.2627   -1.7259    0.0446 H   0  0  0  0  0  0  0  0  0  0  0  0
    3.0933   -0.5966   -0.2570 C   0  0  0  0  0  0  0  0  0  0  0  0
    3.8616    0.1600   -1.1680 C   0  0  0  0  0  0  0  0  0  0  0  0
    3.3934    0.5576   -2.0821 H   0  0  0  0  0  0  0  0  0  0  0  0
    5.2275    0.3814   -0.9408 C   0  0  0  0  0  0  0  0  0  0  0  0
    5.8153    0.9656   -1.6644 H   0  0  0  0  0  0  0  0  0  0  0  0
    5.8486   -0.1578    0.1975 C   0  0  0  0  0  0  0  0  0  0  0  0
    6.9217    0.0111    0.3718 H   0  0  0  0  0  0  0  0  0  0  0  0
    5.1028   -0.9320    1.0996 C   0  0  0  0  0  0  0  0  0  0  0  0
    5.5904   -1.3787    1.9788 H   0  0  0  0  0  0  0  0  0  0  0  0
    3.7361   -1.1515    0.8706 C   0  0  0  0  0  0  0  0  0  0  0  0
    3.1634   -1.7889    1.5643 H   0  0  0  0  0  0  0  0  0  0  0  0
   -1.5607    0.4040    1.6642 N   0  0  0  0  0  0  0  0  0  0  0  0
   -2.3169   -0.2080    1.9950 H   0  0  0  0  0  0  0  0  0  0  0  0
   -1.5819    1.9494   -0.5881 N   0  0  0  0  0  0  0  0  0  0  0  0
   -2.0371    2.1601   -1.4862 H   0  0  0  0  0  0  0  0  0  0  0  0
    0.7095    0.3038   -0.0120 N   0  0  0  0  0  0  0  0  0  0  0  0
  1  2  1  0  0  0  0
  1  3  1  0  0  0  0
  4  6  1  0  0  0  0
  4  1  1  0  0  0  0
  5  4  1  0  0  0  0
  7  8  1  0  0  0  0
  9  7  1  0  0  0  0
 10 12  1  0  0  0  0
 10  7  1  0  0  0  0
 10 37  1  0  0  0  0
 11 10  1  0  0  0  0
 13 14  1  0  0  0  0
 13 15  1  0  0  0  0
 13 16  1  0  0  0  0
 16 18  1  0  0  0  0
 17 16  1  0  0  0  0
 19 22  1  0  0  0  0
 19 37  1  0  0  0  0
 19 21  1  0  0  0  0
 20 19  1  0  0  0  0
 22 31  1  0  0  0  0
 23 25  1  0  0  0  0
 23 22  2  0  0  0  0
 24 23  1  0  0  0  0
 25 27  2  0  0  0  0
 26 25  1  0  0  0  0
 27 28  1  0  0  0  0
 27 29  1  0  0  0  0
 29 30  1  0  0  0  0
 31 29  2  0  0  0  0
 31 32  1  0  0  0  0
 33  1  1  0  0  0  0
 33 34  1  0  0  0  0
 33 16  1  0  0  0  0
 35  7  1  0  0  0  0
 35  4  1  0  0  0  0
 36 35  1  0  0  0  0
 37 13  1  0  0  0  0
M  END
