6,13,20
 OpenBabel05122313063D

 49 53  0  0  1  0  0  0  0  0999 V2000
   -3.5168    2.0407   -1.8874 O   0  0  0  0  0  0  0  0  0  0  0  0
   -0.4351   -2.0602   -0.4241 N   0  0  0  0  0  2  0  0  0  0  0  0
    1.1083    2.1642    3.9469 C   0  0  0  0  0  0  0  0  0  0  0  0
    0.9406    2.6918    4.8971 H   0  0  0  0  0  0  0  0  0  0  0  0
   -3.1545   -2.7036   -1.1012 O   0  0  0  0  0  0  0  0  0  0  0  0
    0.5325   -1.5374    0.2784 N   0  0  0  0  0  2  0  0  0  0  0  0
    1.2530    2.8715    2.7487 C   0  0  0  0  0  0  0  0  0  0  0  0
    1.1761    3.9680    2.7285 H   0  0  0  0  0  0  0  0  0  0  0  0
   -6.6685    1.3390    1.9031 O   0  0  0  0  0  0  0  0  0  0  0  0
   -5.8657    1.6175    2.3817 H   0  0  0  0  0  0  0  0  0  0  0  0
    0.3582   -1.8443    1.5895 N   0  0  0  0  0  0  0  0  0  0  0  0
    1.4897    2.1720    1.5571 C   0  0  1  0  0  3  0  0  0  0  0  0
    1.6201    0.8158    1.5286 N   0  0  0  0  0  2  0  0  0  0  0  0
    1.5504    2.9185    0.2407 C   0  0  0  0  0  0  0  0  0  0  0  0
    1.3204    3.9866    0.3988 H   0  0  0  0  0  0  0  0  0  0  0  0
    2.5588    2.8545   -0.2155 H   0  0  0  0  0  0  0  0  0  0  0  0
    0.5710    2.3960   -0.7077 N   0  0  2  0  0  0  0  0  0  0  0  0
   -0.5376    2.9762   -1.2361 C   0  0  0  0  0  3  0  0  0  0  0  0
   -0.8284    4.0074   -1.0126 H   0  0  0  0  0  0  0  0  0  0  0  0
    0.6638    1.1178   -1.1617 N   0  0  0  0  0  2  0  0  0  0  0  0
   -1.1077    1.9921   -2.0475 C   0  0  0  0  0  0  0  0  0  0  0  0
   -0.3348    0.8729   -1.9667 N   0  0  0  0  0  0  0  0  0  0  0  0
   -2.4157    2.0293   -2.7876 C   0  0  0  0  0  0  0  0  0  0  0  0
   -2.5046    2.9699   -3.3642 H   0  0  0  0  0  0  0  0  0  0  0  0
   -2.4602    1.1807   -3.5025 H   0  0  0  0  0  0  0  0  0  0  0  0
   -3.8547    0.8830   -1.2302 C   0  0  0  0  0  0  0  0  0  0  0  0
   -4.8699    1.0092   -0.2612 C   0  0  0  0  0  0  0  0  0  0  0  0
   -5.3389    1.9872   -0.0849 H   0  0  0  0  0  0  0  0  0  0  0  0
   -5.3024   -0.1140    0.4570 C   0  0  0  0  0  0  0  0  0  0  0  0
   -6.4484    0.0231    1.4465 C   0  0  0  0  0  0  0  0  0  0  0  0
   -6.2993   -0.7039    2.2832 H   0  0  0  0  0  0  0  0  0  0  0  0
   -7.3906   -0.2847    0.9420 H   0  0  0  0  0  0  0  0  0  0  0  0
   -4.7168   -1.3742    0.2154 C   0  0  0  0  0  0  0  0  0  0  0  0
   -5.0701   -2.2639    0.7593 H   0  0  0  0  0  0  0  0  0  0  0  0
   -3.7170   -1.4872   -0.7600 C   0  0  0  0  0  0  0  0  0  0  0  0
   -3.2644   -0.3675   -1.4811 C   0  0  0  0  0  0  0  0  0  0  0  0
   -2.4526   -0.5264   -2.2006 H   0  0  0  0  0  0  0  0  0  0  0  0
   -2.5078   -3.4260   -0.0750 C   0  0  0  0  0  0  0  0  0  0  0  0
   -2.2189   -4.3956   -0.5304 H   0  0  0  0  0  0  0  0  0  0  0  0
   -3.1750   -3.6511    0.7879 H   0  0  0  0  0  0  0  0  0  0  0  0
   -1.2760   -2.7156    0.4260 C   0  0  0  0  0  0  0  0  0  0  0  0
   -0.7822   -2.5757    1.7237 C   0  0  0  0  0  0  0  0  0  0  0  0
   -1.1372   -2.9373    2.6938 H   0  0  0  0  0  0  0  0  0  0  0  0
    1.3148   -1.3894    2.5943 C   0  0  0  0  0  0  0  0  0  0  0  0
    2.3109   -1.8151    2.3564 H   0  0  0  0  0  0  0  0  0  0  0  0
    0.9962   -1.8072    3.5653 H   0  0  0  0  0  0  0  0  0  0  0  0
    1.3706    0.1217    2.6743 C   0  0  0  0  0  0  0  0  0  0  0  0
    1.1294    0.7664    3.8958 C   0  0  0  0  0  0  0  0  0  0  0  0
    0.9537    0.1669    4.8004 H   0  0  0  0  0  0  0  0  0  0  0  0
  1 26  1  0  0  0  0
  2  6  1  0  0  0  0
  2 41  1  0  0  0  0
  3  4  1  0  0  0  0
  5 35  1  0  0  0  0
  5 38  1  0  0  0  0
  6 11  1  0  0  0  0
  7  3  2  0  0  0  0
  8  7  1  0  0  0  0
  9 10  1  0  0  0  0
 11 42  1  0  0  0  0
 11 44  1  0  0  0  0
 12 13  1  6  0  0  0
 12  7  1  0  0  0  0
 13 47  1  0  0  0  0
 14 15  1  0  0  0  0
 14 12  1  0  0  0  0
 16 14  1  0  0  0  0
 17 18  1  1  0  0  0
 17 14  1  0  0  0  0
 18 19  1  0  0  0  0
 20 17  1  0  0  0  0
 21 22  2  0  0  0  0
 21 18  1  0  0  0  0
 22 20  1  0  0  0  0
 23 21  1  0  0  0  0
 23  1  1  0  0  0  0
 24 23  1  0  0  0  0
 25 23  1  0  0  0  0
 26 27  1  0  0  0  0
 27 28  1  0  0  0  0
 27 29  2  0  0  0  0
 29 30  1  0  0  0  0
 30  9  1  0  0  0  0
 30 31  1  0  0  0  0
 32 30  1  0  0  0  0
 33 29  1  0  0  0  0
 33 34  1  0  0  0  0
 35 33  2  0  0  0  0
 36 26  2  0  0  0  0
 36 35  1  0  0  0  0
 37 36  1  0  0  0  0
 38 41  1  0  0  0  0
 38 40  1  0  0  0  0
 39 38  1  0  0  0  0
 41 42  2  0  0  0  0
 42 43  1  0  0  0  0
 44 47  1  0  0  0  0
 44 46  1  0  0  0  0
 45 44  1  0  0  0  0
 47 48  2  0  0  0  0
 48  3  1  0  0  0  0
 48 49  1  0  0  0  0
M  END
