26,28,30
 OpenBabel05122313063D

 33 35  0  0  0  0  0  0  0  0999 V2000
   -1.7435   -0.6745    2.8490 C   0  0  0  0  0  3  0  0  0  0  0  0
   -2.8172   -0.7690    3.0274 H   0  0  0  0  0  0  0  0  0  0  0  0
   -0.6769   -0.7596    3.7333 C   0  0  0  0  0  0  0  0  0  0  0  0
   -0.7293   -0.9468    4.8103 H   0  0  0  0  0  0  0  0  0  0  0  0
    0.4769   -0.5526    2.9480 C   0  0  0  0  0  0  0  0  0  0  0  0
    1.5334   -0.5344    3.2397 H   0  0  0  0  0  0  0  0  0  0  0  0
   -2.0891   -2.3101   -1.2164 C   0  0  0  0  0  3  0  0  0  0  0  0
   -3.1555   -2.4822   -1.0534 H   0  0  0  0  0  0  0  0  0  0  0  0
   -1.1759   -3.0204   -1.9822 C   0  0  0  0  0  0  0  0  0  0  0  0
   -1.3754   -3.9100   -2.5875 H   0  0  0  0  0  0  0  0  0  0  0  0
    0.0548   -2.3523   -1.8079 C   0  0  0  0  0  0  0  0  0  0  0  0
    1.0438   -2.5776   -2.2236 H   0  0  0  0  0  0  0  0  0  0  0  0
   -2.4464    2.1693   -0.3908 C   0  0  0  0  0  3  0  0  0  0  0  0
   -3.5345    2.0794   -0.2660 H   0  0  0  0  0  0  0  0  0  0  0  0
   -1.6601    3.2403   -0.7924 C   0  0  0  0  0  0  0  0  0  0  0  0
   -2.0047    4.2486   -1.0418 H   0  0  0  0  0  0  0  0  0  0  0  0
   -0.3363    2.7528   -0.8110 C   0  0  0  0  0  0  0  0  0  0  0  0
    0.6001    3.2635   -1.0643 H   0  0  0  0  0  0  0  0  0  0  0  0
   -1.9093   -0.2456    0.3081 C   0  0  0  0  0  0  0  0  0  0  0  0
   -3.4215   -0.4261    0.5153 C   0  0  0  0  0  0  0  0  0  0  0  0
   -3.7493    0.3030    1.2801 H   0  0  0  0  0  0  0  0  0  0  0  0
   -3.5636   -1.4293    0.9574 H   0  0  0  0  0  0  0  0  0  0  0  0
   -4.3392   -0.2218   -0.7107 C   0  0  0  0  0  0  0  0  0  0  0  0
   -3.7396   -0.0410   -1.6348 H   0  0  0  0  0  0  0  0  0  0  0  0
   -4.9291   -1.1504   -0.8863 H   0  0  0  0  0  0  0  0  0  0  0  0
    0.1408   -0.3526    1.6629 N   0  0  0  0  0  2  0  0  0  0  0  0
   -1.2185   -0.4298    1.6032 N   0  0  0  0  0  0  0  0  0  0  0  0
   -0.0948   -1.2998   -0.9876 N   0  0  0  0  0  2  0  0  0  0  0  0
   -1.4100   -1.2654   -0.6349 N   0  0  0  0  0  0  0  0  0  0  0  0
   -0.3068    1.4612   -0.4457 N   0  0  0  0  0  2  0  0  0  0  0  0
   -1.6003    1.1006   -0.2009 N   0  0  0  0  0  0  0  0  0  0  0  0
   -5.1896    0.8665   -0.4004 O   0  0  0  0  0  0  0  0  0  0  0  0
   -5.8292    0.9910   -1.1269 H   0  0  0  0  0  0  0  0  0  0  0  0
  1  2  1  0  0  0  0
  1  3  1  0  0  0  0
  3  4  1  0  0  0  0
  5  6  1  0  0  0  0
  5  3  2  0  0  0  0
  7  8  1  0  0  0  0
  7 29  1  0  0  0  0
  9 11  2  0  0  0  0
  9  7  1  0  0  0  0
 10  9  1  0  0  0  0
 11 28  1  0  0  0  0
 12 11  1  0  0  0  0
 13 14  1  0  0  0  0
 13 31  1  0  0  0  0
 15 13  1  0  0  0  0
 16 15  1  0  0  0  0
 17 15  2  0  0  0  0
 17 30  1  0  0  0  0
 18 17  1  0  0  0  0
 19 20  1  0  0  0  0
 19 27  1  0  0  0  0
 20 22  1  0  0  0  0
 20 21  1  0  0  0  0
 23 32  1  0  0  0  0
 23 20  1  0  0  0  0
 24 23  1  0  0  0  0
 25 23  1  0  0  0  0
 26  5  1  0  0  0  0
 27 26  1  0  0  0  0
 27  1  1  0  0  0  0
 28 29  1  0  0  0  0
 29 19  1  0  0  0  0
 30 31  1  0  0  0  0
 31 19  1  0  0  0  0
 33 32  1  0  0  0  0
M  END
