1,11,31
 OpenBabel05122313063D

 49 53  0  0  0  0  0  0  0  0999 V2000
    0.1678    2.9020    0.1467 N   0  0  0  0  0  2  0  0  0  0  0  0
    1.3842    3.5106    0.1674 C   0  0  0  0  0  0  0  0  0  0  0  0
    1.4290    4.9203    0.1996 C   0  0  0  0  0  0  0  0  0  0  0  0
    2.3965    5.4387    0.2207 H   0  0  0  0  0  0  0  0  0  0  0  0
    0.2172    5.6287    0.1985 C   0  0  0  0  0  0  0  0  0  0  0  0
    0.2371    6.7287    0.2222 H   0  0  0  0  0  0  0  0  0  0  0  0
   -1.0206    4.9650    0.1644 C   0  0  0  0  0  0  0  0  0  0  0  0
   -1.9686    5.5188    0.1577 H   0  0  0  0  0  0  0  0  0  0  0  0
   -1.0267    3.5560    0.1379 C   0  0  0  0  0  0  0  0  0  0  0  0
    2.4773    2.5609    0.1250 C   0  0  0  0  0  0  0  0  0  0  0  0
    2.1368    1.2108    0.0835 N   0  0  0  0  0  2  0  0  0  0  0  0
    3.2161    0.4570   -0.0331 N   0  0  0  0  0  2  0  0  0  0  0  0
    4.2980    1.2916   -0.0587 C   0  0  0  0  0  0  0  0  0  0  0  0
    3.8763    2.6402    0.0437 C   0  0  0  0  0  0  0  0  0  0  0  0
    4.4914    3.5456    0.0261 H   0  0  0  0  0  0  0  0  0  0  0  0
    5.6550    0.7494   -0.2037 C   0  0  0  0  0  0  0  0  0  0  0  0
    5.8468   -0.5858   -0.6302 C   0  0  0  0  0  0  0  0  0  0  0  0
    4.9610   -1.1959   -0.8551 H   0  0  0  0  0  0  0  0  0  0  0  0
    7.1322   -1.1156   -0.7699 C   0  0  0  0  0  0  0  0  0  0  0  0
    7.2510   -2.1593   -1.1053 H   0  0  0  0  0  0  0  0  0  0  0  0
    8.2817   -0.3410   -0.4996 C   0  0  0  0  0  0  0  0  0  0  0  0
    8.0863    0.9894   -0.0798 C   0  0  0  0  0  0  0  0  0  0  0  0
    8.9638    1.6174    0.1432 H   0  0  0  0  0  0  0  0  0  0  0  0
    6.8005    1.5269    0.0683 C   0  0  0  0  0  0  0  0  0  0  0  0
    6.6859    2.5645    0.4174 H   0  0  0  0  0  0  0  0  0  0  0  0
    9.6632   -0.9226   -0.6648 C   0  0  0  0  0  0  0  0  0  0  0  0
   10.4484   -0.2065   -0.3533 H   0  0  0  0  0  0  0  0  0  0  0  0
    9.8616   -1.2004   -1.7219 H   0  0  0  0  0  0  0  0  0  0  0  0
    9.7896   -1.8475   -0.0638 H   0  0  0  0  0  0  0  0  0  0  0  0
   -2.1555    2.6452    0.0877 C   0  0  0  0  0  0  0  0  0  0  0  0
   -1.8519    1.2897    0.0906 N   0  0  0  0  0  2  0  0  0  0  0  0
   -2.9497    0.5556    0.0036 N   0  0  0  0  0  0  0  0  0  0  0  0
   -4.0100    1.4140   -0.0604 C   0  0  0  0  0  0  0  0  0  0  0  0
   -3.5532    2.7553   -0.0059 C   0  0  0  0  0  0  0  0  0  0  0  0
   -4.1451    3.6748   -0.0548 H   0  0  0  0  0  0  0  0  0  0  0  0
   -5.3729    0.8834   -0.1920 C   0  0  0  0  0  0  0  0  0  0  0  0
   -6.5111    1.7044   -0.0499 C   0  0  0  0  0  0  0  0  0  0  0  0
   -6.3887    2.7729    0.1845 H   0  0  0  0  0  0  0  0  0  0  0  0
   -7.8012    1.1752   -0.1903 C   0  0  0  0  0  0  0  0  0  0  0  0
   -8.6735    1.8380   -0.0723 H   0  0  0  0  0  0  0  0  0  0  0  0
   -8.0071   -0.1890   -0.4743 C   0  0  0  0  0  0  0  0  0  0  0  0
   -6.8643   -1.0071   -0.6148 C   0  0  0  0  0  0  0  0  0  0  0  0
   -6.9924   -2.0782   -0.8422 H   0  0  0  0  0  0  0  0  0  0  0  0
   -5.5743   -0.4882   -0.4794 C   0  0  0  0  0  0  0  0  0  0  0  0
   -4.6932   -1.1344   -0.6043 H   0  0  0  0  0  0  0  0  0  0  0  0
   -9.3928   -0.7643   -0.6252 C   0  0  0  0  0  0  0  0  0  0  0  0
  -10.1739    0.0092   -0.4916 H   0  0  0  0  0  0  0  0  0  0  0  0
   -9.5817   -1.5674    0.1183 H   0  0  0  0  0  0  0  0  0  0  0  0
   -9.5359   -1.2195   -1.6280 H   0  0  0  0  0  0  0  0  0  0  0  0
  1  2  1  0  0  0  0
  2  3  1  0  0  0  0
  3  4  1  0  0  0  0
  5  3  2  0  0  0  0
  5  6  1  0  0  0  0
  7  5  1  0  0  0  0
  8  7  1  0  0  0  0
  9  1  1  0  0  0  0
  9  7  2  0  0  0  0
 10  2  2  0  0  0  0
 11 10  1  0  0  0  0
 12 11  1  0  0  0  0
 13 12  1  0  0  0  0
 13 14  2  0  0  0  0
 14 10  1  0  0  0  0
 15 14  1  0  0  0  0
 16 13  1  0  0  0  0
 16 24  1  0  0  0  0
 17 16  2  0  0  0  0
 18 17  1  0  0  0  0
 19 17  1  0  0  0  0
 19 21  2  0  0  0  0
 20 19  1  0  0  0  0
 21 22  1  0  0  0  0
 22 24  2  0  0  0  0
 22 23  1  0  0  0  0
 24 25  1  0  0  0  0
 26 21  1  0  0  0  0
 26 27  1  0  0  0  0
 26 29  1  0  0  0  0
 28 26  1  0  0  0  0
 30 31  1  0  0  0  0
 30  9  1  0  0  0  0
 32 31  1  0  0  0  0
 33 34  1  0  0  0  0
 33 32  2  0  0  0  0
 34 30  2  0  0  0  0
 35 34  1  0  0  0  0
 36 33  1  0  0  0  0
 36 37  1  0  0  0  0
 37 38  1  0  0  0  0
 39 40  1  0  0  0  0
 39 37  2  0  0  0  0
 41 39  1  0  0  0  0
 42 44  1  0  0  0  0
 42 41  2  0  0  0  0
 43 42  1  0  0  0  0
 44 36  2  0  0  0  0
 45 44  1  0  0  0  0
 46 47  1  0  0  0  0
 46 41  1  0  0  0  0
 46 48  1  0  0  0  0
 49 46  1  0  0  0  0
M  END
