2,3,4
 OpenBabel05122313063D

 31 33  0  0  0  0  0  0  0  0999 V2000
    3.1501   -0.8597    0.0004 N   0  0  0  0  0  0  0  0  0  0  0  0
    1.9957   -0.1680   -0.0002 N   0  0  0  0  0  2  0  0  0  0  0  0
    0.0000    1.4465   -0.0001 N   0  0  0  0  0  2  0  0  0  0  0  0
   -1.9957   -0.1680   -0.0002 N   0  0  0  0  0  2  0  0  0  0  0  0
   -3.1501   -0.8597    0.0003 N   0  0  0  0  0  0  0  0  0  0  0  0
    3.1970   -2.3146    0.0001 C   0  0  0  0  0  0  0  0  0  0  0  0
    2.6819   -2.7118    0.8945 H   0  0  0  0  0  0  0  0  0  0  0  0
    4.2590   -2.6153   -0.0000 H   0  0  0  0  0  0  0  0  0  0  0  0
    2.6819   -2.7113   -0.8945 H   0  0  0  0  0  0  0  0  0  0  0  0
    4.2107   -0.0028    0.0009 C   0  0  0  0  0  3  0  0  0  0  0  0
    5.2360   -0.3874    0.0013 H   0  0  0  0  0  0  0  0  0  0  0  0
    3.7243    1.3035    0.0007 C   0  0  0  0  0  0  0  0  0  0  0  0
    4.3120    2.2260    0.0009 H   0  0  0  0  0  0  0  0  0  0  0  0
    2.3223    1.1668    0.0000 C   0  0  0  0  0  0  0  0  0  0  0  0
    1.1986    2.0959   -0.0001 C   0  0  0  0  0  0  0  0  0  0  0  0
    1.2209    3.4991   -0.0002 C   0  0  0  0  0  0  0  0  0  0  0  0
    2.1796    4.0350   -0.0003 H   0  0  0  0  0  0  0  0  0  0  0  0
    0.0000    4.1937   -0.0003 C   0  0  0  0  0  0  0  0  0  0  0  0
    0.0000    5.2931   -0.0004 H   0  0  0  0  0  0  0  0  0  0  0  0
   -1.2209    3.4991   -0.0002 C   0  0  0  0  0  0  0  0  0  0  0  0
   -2.1796    4.0351   -0.0003 H   0  0  0  0  0  0  0  0  0  0  0  0
   -1.1986    2.0959   -0.0001 C   0  0  0  0  0  0  0  0  0  0  0  0
   -2.3222    1.1668    0.0000 C   0  0  0  0  0  0  0  0  0  0  0  0
   -3.7243    1.3035    0.0006 C   0  0  0  0  0  0  0  0  0  0  0  0
   -4.3120    2.2260    0.0009 H   0  0  0  0  0  0  0  0  0  0  0  0
   -4.2107   -0.0028    0.0008 C   0  0  0  0  0  0  0  0  0  0  0  0
   -5.2360   -0.3874    0.0011 H   0  0  0  0  0  0  0  0  0  0  0  0
   -3.1969   -2.3145    0.0002 C   0  0  0  0  0  0  0  0  0  0  0  0
   -2.6825   -2.7116    0.8951 H   0  0  0  0  0  0  0  0  0  0  0  0
   -2.6812   -2.7115   -0.8939 H   0  0  0  0  0  0  0  0  0  0  0  0
   -4.2590   -2.6153   -0.0005 H   0  0  0  0  0  0  0  0  0  0  0  0
  1 10  1  0  0  0  0
  2 14  1  0  0  0  0
  2  1  1  0  0  0  0
  3 22  1  0  0  0  0
  4 23  1  0  0  0  0
  4  5  1  0  0  0  0
  5 26  1  0  0  0  0
  6  1  1  0  0  0  0
  6  7  1  0  0  0  0
  8  6  1  0  0  0  0
  9  6  1  0  0  0  0
 10 11  1  0  0  0  0
 12 10  1  0  0  0  0
 12 13  1  0  0  0  0
 14 12  2  0  0  0  0
 15  3  1  0  0  0  0
 15 14  1  0  0  0  0
 16 15  2  0  0  0  0
 17 16  1  0  0  0  0
 18 16  1  0  0  0  0
 18 20  2  0  0  0  0
 19 18  1  0  0  0  0
 20 22  1  0  0  0  0
 21 20  1  0  0  0  0
 22 23  2  0  0  0  0
 23 24  1  0  0  0  0
 24 26  2  0  0  0  0
 24 25  1  0  0  0  0
 26 27  1  0  0  0  0
 28  5  1  0  0  0  0
 28 29  1  0  0  0  0
 30 28  1  0  0  0  0
 31 28  1  0  0  0  0
M  END
