3,4,5
 OpenBabel05122313063D

 43 47  0  0  1  0  0  0  0  0999 V2000
   -1.2893    3.9997   -0.0621 S   0  0  0  0  0  0  0  0  0  0  0  0
   -1.2893   -3.9997    0.0621 S   0  0  0  0  0  0  0  0  0  0  0  0
   -1.2677    0.0000    0.0000 N   0  0  0  0  0  2  0  0  0  0  0  0
   -2.8931    1.9974   -0.0304 N   0  0  0  0  0  2  0  0  0  0  0  0
   -2.8931   -1.9974    0.0304 N   0  0  0  0  0  2  0  0  0  0  0  0
   -0.6104    1.1968   -0.0130 C   0  0  0  0  0  0  0  0  0  0  0  0
    0.7871    1.2190   -0.0142 C   0  0  0  0  0  0  0  0  0  0  0  0
    1.3146    2.1814   -0.0562 H   0  0  0  0  0  0  0  0  0  0  0  0
    1.5204    0.0000    0.0000 C   0  0  0  0  0  0  0  0  0  0  0  0
    0.7871   -1.2190    0.0142 C   0  0  0  0  0  0  0  0  0  0  0  0
    1.3146   -2.1814    0.0563 H   0  0  0  0  0  0  0  0  0  0  0  0
   -0.6104   -1.1968    0.0130 C   0  0  0  0  0  0  0  0  0  0  0  0
   -1.5705    2.2988   -0.0340 C   0  0  2  0  0  3  0  0  0  0  0  0
   -2.9972    4.2894   -0.0687 C   0  0  0  0  0  0  0  0  0  0  0  0
   -3.3878    5.3141   -0.0866 H   0  0  0  0  0  0  0  0  0  0  0  0
   -3.7012    3.1052   -0.0496 C   0  0  0  0  0  0  0  0  0  0  0  0
   -4.7910    2.9688   -0.0484 H   0  0  0  0  0  0  0  0  0  0  0  0
   -1.5704   -2.2988    0.0340 C   0  0  0  0  0  0  0  0  0  0  0  0
   -2.9972   -4.2894    0.0687 C   0  0  0  0  0  0  0  0  0  0  0  0
   -3.3877   -5.3141    0.0866 H   0  0  0  0  0  0  0  0  0  0  0  0
   -3.7012   -3.1052    0.0496 C   0  0  0  0  0  0  0  0  0  0  0  0
   -4.7910   -2.9688    0.0484 H   0  0  0  0  0  0  0  0  0  0  0  0
    2.9914    0.0000    0.0000 C   0  0  0  0  0  0  0  0  0  0  0  0
    3.7249    1.0876    0.5355 C   0  0  0  0  0  0  0  0  0  0  0  0
    3.1975    1.9311    1.0057 H   0  0  0  0  0  0  0  0  0  0  0  0
    5.1191    1.0835    0.5401 C   0  0  0  0  0  0  0  0  0  0  0  0
    5.6553    1.9223    1.0064 H   0  0  0  0  0  0  0  0  0  0  0  0
    5.8559    0.0000   -0.0000 C   0  0  0  0  0  0  0  0  0  0  0  0
    5.1191   -1.0834   -0.5401 C   0  0  0  0  0  0  0  0  0  0  0  0
    5.6552   -1.9223   -1.0064 H   0  0  0  0  0  0  0  0  0  0  0  0
    3.7249   -1.0875   -0.5355 C   0  0  0  0  0  0  0  0  0  0  0  0
    3.1975   -1.9310   -1.0056 H   0  0  0  0  0  0  0  0  0  0  0  0
    7.3344    0.0000   -0.0000 C   0  0  0  0  0  0  0  0  0  0  0  0
    8.0600    1.2110   -0.1015 C   0  0  0  0  0  0  0  0  0  0  0  0
    7.5205    2.1634   -0.2130 H   0  0  0  0  0  0  0  0  0  0  0  0
    9.4599    1.2099   -0.1056 C   0  0  0  0  0  0  0  0  0  0  0  0
   10.0059    2.1603   -0.1995 H   0  0  0  0  0  0  0  0  0  0  0  0
   10.1652   -0.0000   -0.0000 C   0  0  0  0  0  0  0  0  0  0  0  0
   11.2654   -0.0000   -0.0000 H   0  0  0  0  0  0  0  0  0  0  0  0
    9.4598   -1.2099    0.1056 C   0  0  0  0  0  0  0  0  0  0  0  0
   10.0059   -2.1603    0.1995 H   0  0  0  0  0  0  0  0  0  0  0  0
    8.0599   -1.2110    0.1015 C   0  0  0  0  0  0  0  0  0  0  0  0
    7.5205   -2.1634    0.2129 H   0  0  0  0  0  0  0  0  0  0  0  0
  1 13  1  0  0  0  0
  2 19  1  0  0  0  0
  3 12  1  0  0  0  0
  5 18  1  0  0  0  0
  5 21  1  0  0  0  0
  6  3  1  0  0  0  0
  7  6  2  0  0  0  0
  7  9  1  0  0  0  0
  8  7  1  0  0  0  0
  9 10  2  0  0  0  0
 10 11  1  0  0  0  0
 12 10  1  0  0  0  0
 12 18  2  0  0  0  0
 13  4  1  0  0  0  0
 13  6  1  1  0  0  0
 14  1  1  0  0  0  0
 14 16  2  0  0  0  0
 15 14  1  0  0  0  0
 16 17  1  0  0  0  0
 16  4  1  0  0  0  0
 18  2  1  0  0  0  0
 19 20  1  0  0  0  0
 21 19  2  0  0  0  0
 22 21  1  0  0  0  0
 23  9  1  0  0  0  0
 23 24  1  0  0  0  0
 24 26  2  0  0  0  0
 24 25  1  0  0  0  0
 26 27  1  0  0  0  0
 28 26  1  0  0  0  0
 29 31  1  0  0  0  0
 29 28  2  0  0  0  0
 30 29  1  0  0  0  0
 31 23  2  0  0  0  0
 32 31  1  0  0  0  0
 33 28  1  0  0  0  0
 33 42  1  0  0  0  0
 34 33  2  0  0  0  0
 35 34  1  0  0  0  0
 36 34  1  0  0  0  0
 36 38  2  0  0  0  0
 37 36  1  0  0  0  0
 38 40  1  0  0  0  0
 39 38  1  0  0  0  0
 40 41  1  0  0  0  0
 42 40  2  0  0  0  0
 42 43  1  0  0  0  0
M  END
