1,2,3
 OpenBabel05122313063D

 71 75  0  0  1  0  0  0  0  0999 V2000
    2.0526    1.6176   -0.0171 N   0  0  0  0  0  2  0  0  0  0  0  0
    0.0000    3.2332   -0.2681 N   0  0  0  0  0  2  0  0  0  0  0  0
   -2.0526    1.6176   -0.0171 N   0  0  0  0  0  2  0  0  0  0  0  0
   -2.7079   -0.6123    0.0031 N   0  0  0  0  0  0  0  0  0  0  0  0
   -1.7546   -0.8101   -0.3681 H   0  0  0  0  0  0  0  0  0  0  0  0
    2.7078   -0.6124    0.0034 N   0  0  0  0  0  0  0  0  0  0  0  0
    1.7545   -0.8102   -0.3679 H   0  0  0  0  0  0  0  0  0  0  0  0
    3.0655    0.7071   -0.0308 C   0  0  2  0  0  3  0  0  0  0  0  0
    4.4265    1.1224   -0.0664 C   0  0  0  0  0  0  0  0  0  0  0  0
    5.2187    0.3614   -0.0680 H   0  0  0  0  0  0  0  0  0  0  0  0
    4.7180    2.4832   -0.1305 C   0  0  0  0  0  0  0  0  0  0  0  0
    5.7650    2.8170   -0.1873 H   0  0  0  0  0  0  0  0  0  0  0  0
    3.6736    3.4226   -0.1454 C   0  0  0  0  0  0  0  0  0  0  0  0
    3.8787    4.4984   -0.2221 H   0  0  0  0  0  0  0  0  0  0  0  0
    2.3544    2.9469   -0.0775 C   0  0  0  0  0  0  0  0  0  0  0  0
    1.1783    3.8401    0.0134 C   0  0  2  0  0  3  0  0  0  0  0  0
    1.2133    5.1792    0.4407 C   0  0  0  0  0  0  0  0  0  0  0  0
    2.1712    5.6691    0.6637 H   0  0  0  0  0  0  0  0  0  0  0  0
    0.0001    5.8611    0.6253 C   0  0  0  0  0  0  0  0  0  0  0  0
    0.0001    6.9054    0.9705 H   0  0  0  0  0  0  0  0  0  0  0  0
   -1.2131    5.1792    0.4408 C   0  0  0  0  0  0  0  0  0  0  0  0
   -2.1710    5.6692    0.6639 H   0  0  0  0  0  0  0  0  0  0  0  0
   -1.1782    3.8401    0.0135 C   0  0  0  0  0  0  0  0  0  0  0  0
   -2.3544    2.9470   -0.0773 C   0  0  2  0  0  3  0  0  0  0  0  0
   -3.6735    3.4228   -0.1450 C   0  0  0  0  0  0  0  0  0  0  0  0
   -3.8786    4.4985   -0.2216 H   0  0  0  0  0  0  0  0  0  0  0  0
   -4.7180    2.4833   -0.1300 C   0  0  0  0  0  0  0  0  0  0  0  0
   -5.7650    2.8172   -0.1867 H   0  0  0  0  0  0  0  0  0  0  0  0
   -4.4266    1.1226   -0.0661 C   0  0  0  0  0  0  0  0  0  0  0  0
   -5.2187    0.3616   -0.0676 H   0  0  0  0  0  0  0  0  0  0  0  0
   -3.0655    0.7072   -0.0308 C   0  0  0  0  0  0  0  0  0  0  0  0
   -3.6251   -1.6862    0.1440 C   0  0  0  0  0  0  0  0  0  0  0  0
   -3.8422   -2.5706   -0.9451 C   0  0  0  0  0  0  0  0  0  0  0  0
   -4.7346   -3.6404   -0.7689 C   0  0  0  0  0  0  0  0  0  0  0  0
   -4.9075   -4.3263   -1.6146 H   0  0  0  0  0  0  0  0  0  0  0  0
   -5.4228   -3.8514    0.4418 C   0  0  0  0  0  0  0  0  0  0  0  0
   -5.1877   -2.9565    1.4994 C   0  0  0  0  0  0  0  0  0  0  0  0
   -5.7050   -3.1103    2.4606 H   0  0  0  0  0  0  0  0  0  0  0  0
   -4.2908   -1.8783    1.3810 C   0  0  0  0  0  0  0  0  0  0  0  0
   -3.1416   -2.3471   -2.2588 C   0  0  0  0  0  0  0  0  0  0  0  0
   -3.5083   -3.0501   -3.0307 H   0  0  0  0  0  0  0  0  0  0  0  0
   -2.0416   -2.4650   -2.1697 H   0  0  0  0  0  0  0  0  0  0  0  0
   -3.2941   -1.3105   -2.6242 H   0  0  0  0  0  0  0  0  0  0  0  0
   -6.3681   -5.0171    0.5947 C   0  0  0  0  0  0  0  0  0  0  0  0
   -7.1101   -5.0487   -0.2298 H   0  0  0  0  0  0  0  0  0  0  0  0
   -6.9232   -4.9714    1.5517 H   0  0  0  0  0  0  0  0  0  0  0  0
   -5.8220   -5.9841    0.5694 H   0  0  0  0  0  0  0  0  0  0  0  0
   -4.0290   -0.9623    2.5474 C   0  0  0  0  0  0  0  0  0  0  0  0
   -2.9482   -0.7320    2.6366 H   0  0  0  0  0  0  0  0  0  0  0  0
   -4.3792   -1.4131    3.4955 H   0  0  0  0  0  0  0  0  0  0  0  0
   -4.5445    0.0157    2.4291 H   0  0  0  0  0  0  0  0  0  0  0  0
    3.6250   -1.6863    0.1441 C   0  0  0  0  0  0  0  0  0  0  0  0
    4.2909   -1.8784    1.3810 C   0  0  0  0  0  0  0  0  0  0  0  0
    5.1881   -2.9564    1.4992 C   0  0  0  0  0  0  0  0  0  0  0  0
    5.7056   -3.1099    2.4603 H   0  0  0  0  0  0  0  0  0  0  0  0
    5.4231   -3.8513    0.4415 C   0  0  0  0  0  0  0  0  0  0  0  0
    4.7350   -3.6401   -0.7691 C   0  0  0  0  0  0  0  0  0  0  0  0
    4.9082   -4.3256   -1.6150 H   0  0  0  0  0  0  0  0  0  0  0  0
    3.8423   -2.5704   -0.9452 C   0  0  0  0  0  0  0  0  0  0  0  0
    4.0294   -0.9623    2.5474 C   0  0  0  0  0  0  0  0  0  0  0  0
    4.3798   -1.4130    3.4955 H   0  0  0  0  0  0  0  0  0  0  0  0
    2.9486   -0.7321    2.6368 H   0  0  0  0  0  0  0  0  0  0  0  0
    4.5448    0.0157    2.4290 H   0  0  0  0  0  0  0  0  0  0  0  0
    6.3663   -5.0186    0.5956 C   0  0  0  0  0  0  0  0  0  0  0  0
    7.0873   -5.0720   -0.2460 H   0  0  0  0  0  0  0  0  0  0  0  0
    5.8145   -5.9828    0.6048 H   0  0  0  0  0  0  0  0  0  0  0  0
    6.9446   -4.9561    1.5378 H   0  0  0  0  0  0  0  0  0  0  0  0
    3.1419   -2.3467   -2.2589 C   0  0  0  0  0  0  0  0  0  0  0  0
    2.0420   -2.4658   -2.1701 H   0  0  0  0  0  0  0  0  0  0  0  0
    3.5096   -3.0488   -3.0312 H   0  0  0  0  0  0  0  0  0  0  0  0
    3.2934   -1.3097   -2.6236 H   0  0  0  0  0  0  0  0  0  0  0  0
  2 16  1  0  0  0  0
  2 23  1  0  0  0  0
  4 32  1  0  0  0  0
  5  4  1  0  0  0  0
  6 52  1  0  0  0  0
  7  6  1  0  0  0  0
  8  1  1  0  0  0  0
  8  6  1  1  0  0  0
  9  8  1  0  0  0  0
 10  9  1  0  0  0  0
 11  9  2  0  0  0  0
 12 11  1  0  0  0  0
 13 11  1  0  0  0  0
 13 15  2  0  0  0  0
 14 13  1  0  0  0  0
 15  1  1  0  0  0  0
 16 15  1  1  0  0  0
 16 17  1  0  0  0  0
 17 19  2  0  0  0  0
 17 18  1  0  0  0  0
 19 20  1  0  0  0  0
 21 19  1  0  0  0  0
 21 22  1  0  0  0  0
 23 21  2  0  0  0  0
 24  3  1  0  0  0  0
 24 23  1  1  0  0  0
 25 27  2  0  0  0  0
 25 24  1  0  0  0  0
 26 25  1  0  0  0  0
 27 29  1  0  0  0  0
 28 27  1  0  0  0  0
 29 31  2  0  0  0  0
 30 29  1  0  0  0  0
 31  3  1  0  0  0  0
 31  4  1  0  0  0  0
 32 39  1  0  0  0  0
 33 34  1  0  0  0  0
 33 32  2  0  0  0  0
 34 36  2  0  0  0  0
 35 34  1  0  0  0  0
 36 44  1  0  0  0  0
 36 37  1  0  0  0  0
 37 38  1  0  0  0  0
 39 37  2  0  0  0  0
 39 48  1  0  0  0  0
 40 42  1  0  0  0  0
 40 33  1  0  0  0  0
 41 40  1  0  0  0  0
 43 40  1  0  0  0  0
 44 46  1  0  0  0  0
 45 44  1  0  0  0  0
 47 44  1  0  0  0  0
 48 49  1  0  0  0  0
 48 50  1  0  0  0  0
 51 48  1  0  0  0  0
 52 53  1  0  0  0  0
 53 54  2  0  0  0  0
 53 60  1  0  0  0  0
 54 55  1  0  0  0  0
 56 64  1  0  0  0  0
 56 54  1  0  0  0  0
 57 56  2  0  0  0  0
 58 57  1  0  0  0  0
 59 57  1  0  0  0  0
 59 52  2  0  0  0  0
 60 62  1  0  0  0  0
 60 61  1  0  0  0  0
 63 60  1  0  0  0  0
 64 66  1  0  0  0  0
 64 67  1  0  0  0  0
 65 64  1  0  0  0  0
 68 69  1  0  0  0  0
 68 59  1  0  0  0  0
 70 68  1  0  0  0  0
 71 68  1  0  0  0  0
M  END
