2,5,8
 OpenBabel05122313063D

 55 60  0  0  1  0  0  0  0  0999 V2000
   -0.9350    2.5175   -2.7497 P   0  0  1  0  0  0  0  0  0  0  0  0
   -1.5871    0.0438   -1.4755 N   0  0  0  0  0  2  0  0  0  0  0  0
   -3.1333   -0.8213   -2.8014 N   0  0  0  0  0  0  0  0  0  0  0  0
   -3.8680   -1.4550   -3.1214 H   0  0  0  0  0  0  0  0  0  0  0  0
   -0.7552    2.1667    0.0145 N   0  0  0  0  0  2  0  0  0  0  0  0
   -1.4296    4.0658    0.9213 N   0  0  0  0  0  0  0  0  0  0  0  0
   -1.7430    4.7316    1.6289 H   0  0  0  0  0  0  0  0  0  0  0  0
    1.0601    0.8369   -1.6348 N   0  0  0  0  0  2  0  0  0  0  0  0
    2.8504    1.2493   -2.8572 N   0  0  0  0  0  0  0  0  0  0  0  0
    3.8018    1.1518   -3.2161 H   0  0  0  0  0  0  0  0  0  0  0  0
   -2.4083   -1.0108   -1.6501 C   0  0  2  0  0  3  0  0  0  0  0  0
   -1.8303    0.9311   -2.5294 C   0  0  0  0  0  0  0  0  0  0  0  0
   -2.7960    0.3870   -3.3603 C   0  0  0  0  0  0  0  0  0  0  0  0
   -3.2539    0.7662   -4.2789 H   0  0  0  0  0  0  0  0  0  0  0  0
   -1.0118    2.7839    1.1858 C   0  0  1  0  0  3  0  0  0  0  0  0
   -1.0590    3.0571   -1.0064 C   0  0  0  0  0  0  0  0  0  0  0  0
   -1.4748    4.2540   -0.4421 C   0  0  0  0  0  0  0  0  0  0  0  0
   -1.7989    5.1948   -0.8973 H   0  0  0  0  0  0  0  0  0  0  0  0
    2.3543    0.5057   -1.8171 C   0  0  2  0  0  3  0  0  0  0  0  0
    0.7345    1.7918   -2.6024 C   0  0  0  0  0  0  0  0  0  0  0  0
    1.8582    2.0499   -3.3680 C   0  0  0  0  0  0  0  0  0  0  0  0
    2.0115    2.7230   -4.2168 H   0  0  0  0  0  0  0  0  0  0  0  0
   -2.6362   -2.1776   -0.7843 C   0  0  0  0  0  0  0  0  0  0  0  0
   -2.9529   -2.0068    0.5809 C   0  0  0  0  0  0  0  0  0  0  0  0
   -3.0209   -0.9923    0.9980 H   0  0  0  0  0  0  0  0  0  0  0  0
   -3.2255   -3.1168    1.3893 C   0  0  0  0  0  0  0  0  0  0  0  0
   -3.4797   -2.9698    2.4500 H   0  0  0  0  0  0  0  0  0  0  0  0
   -3.1994   -4.4120    0.8432 C   0  0  0  0  0  0  0  0  0  0  0  0
   -3.4185   -5.2834    1.4780 H   0  0  0  0  0  0  0  0  0  0  0  0
   -2.9056   -4.5889   -0.5183 C   0  0  0  0  0  0  0  0  0  0  0  0
   -2.8860   -5.6001   -0.9512 H   0  0  0  0  0  0  0  0  0  0  0  0
   -2.6261   -3.4799   -1.3295 C   0  0  0  0  0  0  0  0  0  0  0  0
   -2.3677   -3.6257   -2.3897 H   0  0  0  0  0  0  0  0  0  0  0  0
   -0.9772    2.1373    2.4917 C   0  0  0  0  0  0  0  0  0  0  0  0
   -0.6750    2.8245    3.6866 C   0  0  0  0  0  0  0  0  0  0  0  0
   -0.4374    3.8993    3.6631 H   0  0  0  0  0  0  0  0  0  0  0  0
   -0.6245    2.1278    4.9033 C   0  0  0  0  0  0  0  0  0  0  0  0
   -0.3787    2.6693    5.8288 H   0  0  0  0  0  0  0  0  0  0  0  0
   -0.8653    0.7447    4.9432 C   0  0  0  0  0  0  0  0  0  0  0  0
   -0.8123    0.2038    5.8995 H   0  0  0  0  0  0  0  0  0  0  0  0
   -1.1822    0.0542    3.7588 C   0  0  0  0  0  0  0  0  0  0  0  0
   -1.3862   -1.0265    3.7790 H   0  0  0  0  0  0  0  0  0  0  0  0
   -1.2508    0.7500    2.5501 C   0  0  0  0  0  0  0  0  0  0  0  0
   -1.5637    0.2238    1.6297 H   0  0  0  0  0  0  0  0  0  0  0  0
    3.1832   -0.5030   -1.1320 C   0  0  0  0  0  0  0  0  0  0  0  0
    2.9184   -1.8765   -1.3085 C   0  0  0  0  0  0  0  0  0  0  0  0
    2.0507   -2.1842   -1.9086 H   0  0  0  0  0  0  0  0  0  0  0  0
    3.7531   -2.8330   -0.7144 C   0  0  0  0  0  0  0  0  0  0  0  0
    3.5431   -3.9035   -0.8571 H   0  0  0  0  0  0  0  0  0  0  0  0
    4.8524   -2.4291    0.0588 C   0  0  0  0  0  0  0  0  0  0  0  0
    5.5040   -3.1828    0.5256 H   0  0  0  0  0  0  0  0  0  0  0  0
    5.1238   -1.0623    0.2329 C   0  0  0  0  0  0  0  0  0  0  0  0
    5.9839   -0.7426    0.8399 H   0  0  0  0  0  0  0  0  0  0  0  0
    4.2983   -0.1010   -0.3658 C   0  0  0  0  0  0  0  0  0  0  0  0
    4.4999    0.9714   -0.2218 H   0  0  0  0  0  0  0  0  0  0  0  0
  1 20  1  1  0  0  0
  1 12  1  0  0  0  0
  1 16  1  0  0  0  0
  3 11  1  0  0  0  0
  4  3  1  0  0  0  0
  5 15  1  0  0  0  0
  6 15  1  0  0  0  0
  6  7  1  0  0  0  0
  9 19  1  0  0  0  0
 10  9  1  0  0  0  0
 11  2  1  0  0  0  0
 11 23  1  1  0  0  0
 12  2  1  0  0  0  0
 13  3  1  0  0  0  0
 13 12  2  0  0  0  0
 14 13  1  0  0  0  0
 15 34  1  6  0  0  0
 16 17  2  0  0  0  0
 16  5  1  0  0  0  0
 17  6  1  0  0  0  0
 18 17  1  0  0  0  0
 19  8  1  0  0  0  0
 19 45  1  6  0  0  0
 20  8  1  0  0  0  0
 21  9  1  0  0  0  0
 21 20  2  0  0  0  0
 22 21  1  0  0  0  0
 23 24  1  0  0  0  0
 24 25  1  0  0  0  0
 24 26  2  0  0  0  0
 26 27  1  0  0  0  0
 28 26  1  0  0  0  0
 28 29  1  0  0  0  0
 30 28  2  0  0  0  0
 31 30  1  0  0  0  0
 32 23  2  0  0  0  0
 32 30  1  0  0  0  0
 33 32  1  0  0  0  0
 34 43  2  0  0  0  0
 34 35  1  0  0  0  0
 35 37  2  0  0  0  0
 36 35  1  0  0  0  0
 37 39  1  0  0  0  0
 37 38  1  0  0  0  0
 39 40  1  0  0  0  0
 41 42  1  0  0  0  0
 41 39  2  0  0  0  0
 43 41  1  0  0  0  0
 44 43  1  0  0  0  0
 45 54  1  0  0  0  0
 46 45  2  0  0  0  0
 46 48  1  0  0  0  0
 47 46  1  0  0  0  0
 48 50  2  0  0  0  0
 49 48  1  0  0  0  0
 50 52  1  0  0  0  0
 50 51  1  0  0  0  0
 52 53  1  0  0  0  0
 54 55  1  0  0  0  0
 54 52  2  0  0  0  0
M  END
