1,2,3
 OpenBabel05122313063D

 54 54  0  0  0  0  0  0  0  0999 V2000
   -1.2928   -1.1449   -0.8280 N   0  0  0  0  0  0  0  0  0  0  0  0
   -0.3136    1.6604   -0.9213 N   0  0  0  0  0  0  0  0  0  0  0  0
    1.9431   -0.3000   -0.6062 N   0  0  0  0  0  0  0  0  0  0  0  0
    2.0770   -1.6683   -1.1913 C   0  0  0  0  0  0  0  0  0  0  0  0
    0.8341   -2.5492   -1.0561 C   0  0  0  0  0  0  0  0  0  0  0  0
   -0.4683   -2.0346   -1.6952 C   0  0  0  0  0  0  0  0  0  0  0  0
   -1.9968   -0.0996   -1.6122 C   0  0  0  0  0  0  0  0  0  0  0  0
   -1.1157    1.0866   -2.0262 C   0  0  0  0  0  0  0  0  0  0  0  0
    1.0752    1.9681   -1.3229 C   0  0  0  0  0  0  0  0  0  0  0  0
    1.8757    0.7215   -1.6797 C   0  0  0  0  0  0  0  0  0  0  0  0
   -2.2984   -1.8874    0.0247 C   0  0  0  0  0  0  0  0  0  0  0  0
   -3.3967   -2.6013   -0.7761 C   0  0  0  0  0  0  0  0  0  0  0  0
   -1.6470   -2.8450    1.0213 C   0  0  0  0  0  0  0  0  0  0  0  0
    3.0244    0.0107    0.4005 C   0  0  0  0  0  0  0  0  0  0  0  0
    4.4478    0.0190   -0.1745 C   0  0  0  0  0  0  0  0  0  0  0  0
    2.9325   -0.9287    1.6040 C   0  0  0  0  0  0  0  0  0  0  0  0
   -0.9453    2.8304   -0.2231 C   0  0  0  0  0  0  0  0  0  0  0  0
   -2.2952    2.4693    0.3967 C   0  0  0  0  0  0  0  0  0  0  0  0
   -1.0565    4.0905   -1.0922 C   0  0  0  0  0  0  0  0  0  0  0  0
    2.3691   -1.5862   -2.2608 H   0  0  0  0  0  0  0  0  0  0  0  0
    2.9176   -2.1953   -0.7003 H   0  0  0  0  0  0  0  0  0  0  0  0
    0.6650   -2.7666    0.0151 H   0  0  0  0  0  0  0  0  0  0  0  0
    1.0817   -3.5252   -1.5260 H   0  0  0  0  0  0  0  0  0  0  0  0
   -1.0827   -2.8984   -2.0306 H   0  0  0  0  0  0  0  0  0  0  0  0
   -0.2243   -1.4769   -2.6224 H   0  0  0  0  0  0  0  0  0  0  0  0
   -2.8292    0.2651   -0.9832 H   0  0  0  0  0  0  0  0  0  0  0  0
   -2.4615   -0.5200   -2.5338 H   0  0  0  0  0  0  0  0  0  0  0  0
   -0.4268    0.7672   -2.8318 H   0  0  0  0  0  0  0  0  0  0  0  0
   -1.7708    1.8529   -2.4964 H   0  0  0  0  0  0  0  0  0  0  0  0
    1.1204    2.6597   -2.1975 H   0  0  0  0  0  0  0  0  0  0  0  0
    1.5514    2.5054   -0.4767 H   0  0  0  0  0  0  0  0  0  0  0  0
    2.8898    1.0372   -2.0115 H   0  0  0  0  0  0  0  0  0  0  0  0
    1.4200    0.2410   -2.5658 H   0  0  0  0  0  0  0  0  0  0  0  0
   -2.7773   -1.0777    0.6167 H   0  0  0  0  0  0  0  0  0  0  0  0
   -3.9443   -1.9210   -1.4562 H   0  0  0  0  0  0  0  0  0  0  0  0
   -4.1394   -3.0315   -0.0764 H   0  0  0  0  0  0  0  0  0  0  0  0
   -2.9973   -3.4442   -1.3758 H   0  0  0  0  0  0  0  0  0  0  0  0
   -0.8450   -2.3416    1.5968 H   0  0  0  0  0  0  0  0  0  0  0  0
   -1.2267   -3.7445    0.5291 H   0  0  0  0  0  0  0  0  0  0  0  0
   -2.4139   -3.1990    1.7378 H   0  0  0  0  0  0  0  0  0  0  0  0
    2.7863    1.0368    0.7550 H   0  0  0  0  0  0  0  0  0  0  0  0
    4.5802    0.7395   -1.0050 H   0  0  0  0  0  0  0  0  0  0  0  0
    4.7522   -0.9840   -0.5364 H   0  0  0  0  0  0  0  0  0  0  0  0
    5.1638    0.3091    0.6190 H   0  0  0  0  0  0  0  0  0  0  0  0
    1.8933   -0.9909    1.9797 H   0  0  0  0  0  0  0  0  0  0  0  0
    3.5809   -0.5603    2.4224 H   0  0  0  0  0  0  0  0  0  0  0  0
    3.2755   -1.9535    1.3559 H   0  0  0  0  0  0  0  0  0  0  0  0
   -0.2449    3.0481    0.6128 H   0  0  0  0  0  0  0  0  0  0  0  0
   -2.2252    1.5325    0.9837 H   0  0  0  0  0  0  0  0  0  0  0  0
   -3.0890    2.3569   -0.3691 H   0  0  0  0  0  0  0  0  0  0  0  0
   -2.6201    3.2810    1.0763 H   0  0  0  0  0  0  0  0  0  0  0  0
   -0.0765    4.4293   -1.4803 H   0  0  0  0  0  0  0  0  0  0  0  0
   -1.4756    4.9218   -0.4924 H   0  0  0  0  0  0  0  0  0  0  0  0
   -1.7374    3.9407   -1.9552 H   0  0  0  0  0  0  0  0  0  0  0  0
  1 11  1  0  0  0  0
  2 17  1  0  0  0  0
  3 14  1  0  0  0  0
  4  5  1  0  0  0  0
  4 21  1  0  0  0  0
  4  3  1  0  0  0  0
  5 22  1  0  0  0  0
  6  5  1  0  0  0  0
  6  1  1  0  0  0  0
  7 26  1  0  0  0  0
  7  1  1  0  0  0  0
  8  7  1  0  0  0  0
  8  2  1  0  0  0  0
  9  2  1  0  0  0  0
  9 31  1  0  0  0  0
 10  9  1  0  0  0  0
 10  3  1  0  0  0  0
 11 34  1  0  0  0  0
 11 13  1  0  0  0  0
 12 36  1  0  0  0  0
 12 11  1  0  0  0  0
 13 38  1  0  0  0  0
 13 40  1  0  0  0  0
 14 41  1  0  0  0  0
 14 16  1  0  0  0  0
 15 14  1  0  0  0  0
 15 44  1  0  0  0  0
 16 45  1  0  0  0  0
 16 46  1  0  0  0  0
 17 18  1  0  0  0  0
 17 48  1  0  0  0  0
 18 49  1  0  0  0  0
 18 51  1  0  0  0  0
 19 53  1  0  0  0  0
 19 17  1  0  0  0  0
 20  4  1  0  0  0  0
 23  5  1  0  0  0  0
 24  6  1  0  0  0  0
 25  6  1  0  0  0  0
 27  7  1  0  0  0  0
 28  8  1  0  0  0  0
 29  8  1  0  0  0  0
 30  9  1  0  0  0  0
 32 10  1  0  0  0  0
 33 10  1  0  0  0  0
 35 12  1  0  0  0  0
 37 12  1  0  0  0  0
 39 13  1  0  0  0  0
 42 15  1  0  0  0  0
 43 15  1  0  0  0  0
 47 16  1  0  0  0  0
 50 18  1  0  0  0  0
 52 19  1  0  0  0  0
 54 19  1  0  0  0  0
M  END
