1,2,3
 OpenBabel05122313063D

 34 34  0  0  1  0  0  0  0  0999 V2000
   -1.5068    1.3474   -0.0075 N   0  0  0  0  0  2  0  0  0  0  0  0
   -0.7705   -0.8840   -1.1677 N   0  0  0  0  0  2  0  0  0  0  0  0
    1.7407   -1.5122   -0.1465 N   0  0  0  0  0  0  0  0  0  0  0  0
   -1.7648    2.5496    0.5169 C   0  0  0  0  0  3  0  0  0  0  0  0
   -0.9182    3.0426    1.0235 H   0  0  0  0  0  0  0  0  0  0  0  0
   -3.0313    3.1477    0.4194 C   0  0  0  0  0  0  0  0  0  0  0  0
   -3.2114    4.1377    0.8621 H   0  0  0  0  0  0  0  0  0  0  0  0
   -4.0464    2.4522   -0.2523 C   0  0  0  0  0  0  0  0  0  0  0  0
   -5.0524    2.8869   -0.3497 H   0  0  0  0  0  0  0  0  0  0  0  0
   -3.7680    1.1929   -0.8023 C   0  0  0  0  0  0  0  0  0  0  0  0
   -4.5472    0.6335   -1.3369 H   0  0  0  0  0  0  0  0  0  0  0  0
   -2.4717    0.6650   -0.6625 C   0  0  0  0  0  0  0  0  0  0  0  0
   -2.0427   -0.6508   -1.2314 C   0  0  1  0  0  3  0  0  0  0  0  0
   -0.1599   -2.1284   -1.5782 C   0  0  0  0  0  0  0  0  0  0  0  0
   -0.4431   -2.4195   -2.6133 H   0  0  0  0  0  0  0  0  0  0  0  0
   -0.5243   -2.9421   -0.9044 H   0  0  0  0  0  0  0  0  0  0  0  0
    1.3633   -2.0018   -1.4758 C   0  0  0  0  0  0  0  0  0  0  0  0
    1.8254   -2.9807   -1.7344 H   0  0  0  0  0  0  0  0  0  0  0  0
    1.7257   -1.2605   -2.2200 H   0  0  0  0  0  0  0  0  0  0  0  0
    3.1811   -1.2053    0.0646 C   0  0  0  0  0  0  0  0  0  0  0  0
    3.4066   -0.3212   -0.5711 H   0  0  0  0  0  0  0  0  0  0  0  0
    3.3859   -0.8091    1.5261 C   0  0  0  0  0  0  0  0  0  0  0  0
    2.6995    0.0080    1.8174 H   0  0  0  0  0  0  0  0  0  0  0  0
    4.4216   -0.4520    1.6822 H   0  0  0  0  0  0  0  0  0  0  0  0
    3.2101   -1.6734    2.2015 H   0  0  0  0  0  0  0  0  0  0  0  0
    4.1127   -2.3545   -0.3379 C   0  0  0  0  0  0  0  0  0  0  0  0
    3.8872   -3.2739    0.2442 H   0  0  0  0  0  0  0  0  0  0  0  0
    5.1649   -2.0769   -0.1306 H   0  0  0  0  0  0  0  0  0  0  0  0
    4.0470   -2.6011   -1.4163 H   0  0  0  0  0  0  0  0  0  0  0  0
   -3.0522   -1.5563   -1.8773 C   0  0  0  0  0  0  0  0  0  0  0  0
   -3.2093   -1.2566   -2.9368 H   0  0  0  0  0  0  0  0  0  0  0  0
   -4.0250   -1.5083   -1.3569 H   0  0  0  0  0  0  0  0  0  0  0  0
   -2.7163   -2.6080   -1.8616 H   0  0  0  0  0  0  0  0  0  0  0  0
    1.4375   -2.1894    0.5720 H   0  0  0  0  0  0  0  0  0  0  0  0
  1  4  1  0  0  0  0
  3 20  1  0  0  0  0
  3 34  1  0  0  0  0
  4  5  1  0  0  0  0
  6  4  1  0  0  0  0
  6  7  1  0  0  0  0
  8  6  2  0  0  0  0
  9  8  1  0  0  0  0
 10 12  2  0  0  0  0
 10  8  1  0  0  0  0
 11 10  1  0  0  0  0
 12  1  1  0  0  0  0
 13  2  1  6  0  0  0
 13 12  1  0  0  0  0
 14 17  1  0  0  0  0
 14  2  1  0  0  0  0
 14 16  1  0  0  0  0
 15 14  1  0  0  0  0
 17  3  1  0  0  0  0
 18 17  1  0  0  0  0
 19 17  1  0  0  0  0
 20 22  1  0  0  0  0
 21 20  1  0  0  0  0
 22 24  1  0  0  0  0
 22 23  1  0  0  0  0
 22 25  1  0  0  0  0
 26 28  1  0  0  0  0
 26 20  1  0  0  0  0
 26 27  1  0  0  0  0
 29 26  1  0  0  0  0
 30 33  1  0  0  0  0
 30 32  1  0  0  0  0
 30 13  1  0  0  0  0
 31 30  1  0  0  0  0
M  END
