3,4,5
 OpenBabel05122313063D

 61 63  0  0  1  0  0  0  0  0999 V2000
   -1.1613    4.3252   -1.1641 Cl  0  0  0  0  0  0  0  0  0  0  0  0
    1.1877    4.3175    1.1661 Cl  0  0  0  0  0  0  0  0  0  0  0  0
    0.0019    0.7319    0.0005 N   0  0  0  0  0  0  0  0  0  0  0  0
    1.8439   -1.1374    0.3053 N   0  0  0  0  0  2  0  0  0  0  0  0
   -1.8509   -1.1263   -0.3058 N   0  0  0  0  0  2  0  0  0  0  0  0
   -3.7954   -0.3313   -1.0742 O   0  0  0  0  0  0  0  0  0  0  0  0
    3.7931   -0.3544    1.0741 O   0  0  0  0  0  0  0  0  0  0  0  0
   -0.8147    1.5247   -0.7781 C   0  0  0  0  0  0  0  0  0  0  0  0
   -0.5070    2.8659   -0.4914 C   0  0  0  0  0  0  0  0  0  0  0  0
    2.8353   -1.9997   -0.3651 C   0  0  2  0  0  0  0  0  0  0  0  0
    2.5963   -3.0508   -0.1076 H   0  0  0  0  0  0  0  0  0  0  0  0
    0.5244    2.8626    0.4930 C   0  0  0  0  0  0  0  0  0  0  0  0
    4.1575   -1.5267    0.2858 C   0  0  0  0  0  0  0  0  0  0  0  0
    4.5947   -2.2710    0.9803 H   0  0  0  0  0  0  0  0  0  0  0  0
    4.9315   -1.2136   -0.4421 H   0  0  0  0  0  0  0  0  0  0  0  0
    0.8236    1.5193    0.7794 C   0  0  0  0  0  3  0  0  0  0  0  0
   -2.8474   -1.9838    0.3632 C   0  0  2  0  0  0  0  0  0  0  0  0
   -2.6148   -3.0358    0.1032 H   0  0  0  0  0  0  0  0  0  0  0  0
    2.9179   -0.4022   -2.3657 C   0  0  0  0  0  0  0  0  0  0  0  0
    2.1903    0.2739   -1.8737 H   0  0  0  0  0  0  0  0  0  0  0  0
    2.7633   -0.3237   -3.4605 H   0  0  0  0  0  0  0  0  0  0  0  0
    3.9396   -0.0204   -2.1543 H   0  0  0  0  0  0  0  0  0  0  0  0
   -2.4587   -0.2366   -1.0281 C   0  0  1  0  0  3  0  0  0  0  0  0
   -1.7567    0.8731   -1.7831 C   0  0  0  0  0  0  0  0  0  0  0  0
   -4.1670   -1.5014   -0.2860 C   0  0  0  0  0  0  0  0  0  0  0  0
   -4.6104   -2.2422   -0.9802 H   0  0  0  0  0  0  0  0  0  0  0  0
   -4.9379   -1.1830    0.4431 H   0  0  0  0  0  0  0  0  0  0  0  0
    2.8014    1.8219    2.3799 C   0  0  0  0  0  0  0  0  0  0  0  0
    3.3951    2.3231    1.5933 H   0  0  0  0  0  0  0  0  0  0  0  0
    3.4932    1.2630    3.0385 H   0  0  0  0  0  0  0  0  0  0  0  0
    2.2960    2.6034    2.9739 H   0  0  0  0  0  0  0  0  0  0  0  0
    1.7615    0.8615    1.7840 C   0  0  0  0  0  0  0  0  0  0  0  0
   -3.7170   -2.8004    2.5928 C   0  0  0  0  0  0  0  0  0  0  0  0
   -4.7773   -2.5413    2.3828 H   0  0  0  0  0  0  0  0  0  0  0  0
   -3.5869   -2.7627    3.6928 H   0  0  0  0  0  0  0  0  0  0  0  0
   -3.5513   -3.8478    2.2678 H   0  0  0  0  0  0  0  0  0  0  0  0
    2.7386   -1.8499   -1.8993 C   0  0  0  0  0  0  0  0  0  0  0  0
    1.6994   -2.1702   -2.1342 H   0  0  0  0  0  0  0  0  0  0  0  0
   -2.7908    1.8402   -2.3782 C   0  0  0  0  0  0  0  0  0  0  0  0
   -3.3815    2.3444   -1.5913 H   0  0  0  0  0  0  0  0  0  0  0  0
   -3.4861    1.2858   -3.0371 H   0  0  0  0  0  0  0  0  0  0  0  0
   -2.2809    2.6189   -2.9718 H   0  0  0  0  0  0  0  0  0  0  0  0
   -0.9332    0.2192   -2.9279 C   0  0  0  0  0  0  0  0  0  0  0  0
   -0.3805    1.0085   -3.4733 H   0  0  0  0  0  0  0  0  0  0  0  0
   -1.5926   -0.3189   -3.6391 H   0  0  0  0  0  0  0  0  0  0  0  0
   -0.2016   -0.4988   -2.5070 H   0  0  0  0  0  0  0  0  0  0  0  0
   -2.7492   -1.8384    1.8977 C   0  0  0  0  0  0  0  0  0  0  0  0
   -1.7118   -2.1654    2.1314 H   0  0  0  0  0  0  0  0  0  0  0  0
    3.7010   -2.8161   -2.5963 C   0  0  0  0  0  0  0  0  0  0  0  0
    4.7627   -2.5638   -2.3853 H   0  0  0  0  0  0  0  0  0  0  0  0
    3.5714   -2.7750   -3.6962 H   0  0  0  0  0  0  0  0  0  0  0  0
    3.5289   -3.8632   -2.2737 H   0  0  0  0  0  0  0  0  0  0  0  0
   -2.9196   -0.3907    2.3678 C   0  0  0  0  0  0  0  0  0  0  0  0
   -2.1888    0.2824    1.8764 H   0  0  0  0  0  0  0  0  0  0  0  0
   -2.7631   -0.3157    3.4625 H   0  0  0  0  0  0  0  0  0  0  0  0
   -3.9394   -0.0026    2.1587 H   0  0  0  0  0  0  0  0  0  0  0  0
    2.4569   -0.2519    1.0282 C   0  0  1  0  0  3  0  0  0  0  0  0
    0.9341    0.2117    2.9283 C   0  0  0  0  0  0  0  0  0  0  0  0
    0.3859    1.0039    3.4741 H   0  0  0  0  0  0  0  0  0  0  0  0
    1.5902   -0.3307    3.6392 H   0  0  0  0  0  0  0  0  0  0  0  0
    0.1984   -0.5017    2.5068 H   0  0  0  0  0  0  0  0  0  0  0  0
  1  9  1  0  0  0  0
  3 16  1  0  0  0  0
  4 57  1  0  0  0  0
  5 17  1  0  0  0  0
  6 23  1  0  0  0  0
  6 25  1  0  0  0  0
  8  9  1  0  0  0  0
  8  3  2  0  0  0  0
  9 12  2  0  0  0  0
 10 11  1  1  0  0  0
 10 13  1  0  0  0  0
 10  4  1  0  0  0  0
 12 16  1  0  0  0  0
 12  2  1  0  0  0  0
 13 14  1  0  0  0  0
 13  7  1  0  0  0  0
 15 13  1  0  0  0  0
 16 32  1  0  0  0  0
 17 18  1  6  0  0  0
 17 47  1  0  0  0  0
 19 22  1  0  0  0  0
 19 37  1  0  0  0  0
 19 20  1  0  0  0  0
 21 19  1  0  0  0  0
 23 24  1  1  0  0  0
 23  5  1  0  0  0  0
 24  8  1  0  0  0  0
 25 17  1  0  0  0  0
 25 27  1  0  0  0  0
 26 25  1  0  0  0  0
 28 31  1  0  0  0  0
 28 30  1  0  0  0  0
 29 28  1  0  0  0  0
 32 28  1  0  0  0  0
 32 58  1  0  0  0  0
 33 35  1  0  0  0  0
 34 33  1  0  0  0  0
 36 33  1  0  0  0  0
 37 10  1  0  0  0  0
 38 37  1  0  0  0  0
 39 24  1  0  0  0  0
 39 40  1  0  0  0  0
 41 39  1  0  0  0  0
 42 39  1  0  0  0  0
 43 46  1  0  0  0  0
 43 24  1  0  0  0  0
 44 43  1  0  0  0  0
 45 43  1  0  0  0  0
 47 48  1  0  0  0  0
 47 53  1  0  0  0  0
 47 33  1  0  0  0  0
 49 50  1  0  0  0  0
 49 52  1  0  0  0  0
 49 37  1  0  0  0  0
 51 49  1  0  0  0  0
 53 55  1  0  0  0  0
 54 53  1  0  0  0  0
 56 53  1  0  0  0  0
 57  7  1  0  0  0  0
 57 32  1  6  0  0  0
 58 59  1  0  0  0  0
 58 60  1  0  0  0  0
 61 58  1  0  0  0  0
M  END
