1,14,27
 OpenBabel05122313063D

 39 41  0  0  1  0  0  0  0  0999 V2000
    0.0553    1.5184   -0.2645 N   0  0  0  0  0  2  0  0  0  0  0  0
   -4.4347    0.9175    0.4721 C   0  0  0  0  0  0  0  0  0  0  0  0
   -5.2534    0.9555   -0.2735 H   0  0  0  0  0  0  0  0  0  0  0  0
   -4.8470    1.1339    1.4783 H   0  0  0  0  0  0  0  0  0  0  0  0
   -5.2664   -2.0268   -0.6173 C   0  0  0  0  0  0  0  0  0  0  0  0
   -5.2729   -2.6714    0.2862 H   0  0  0  0  0  0  0  0  0  0  0  0
   -5.4756   -2.6763   -1.4898 H   0  0  0  0  0  0  0  0  0  0  0  0
   -6.1160   -1.3165   -0.5254 H   0  0  0  0  0  0  0  0  0  0  0  0
    3.6232    1.8349   -0.4797 O   0  0  0  0  0  0  0  0  0  0  0  0
    0.1161    4.2972   -0.3229 C   0  0  0  0  0  0  0  0  0  0  0  0
    0.1406    5.3967   -0.3481 H   0  0  0  0  0  0  0  0  0  0  0  0
   -3.4849    1.9785    0.1462 O   0  0  0  0  0  0  0  0  0  0  0  0
    1.2216    2.1576   -0.4229 C   0  0  0  0  0  0  0  0  0  0  0  0
   -2.2141    0.1068    0.2958 N   0  0  0  0  0  2  0  0  0  0  0  0
   -1.0783    2.2169   -0.1139 C   0  0  0  0  0  0  0  0  0  0  0  0
   -3.9250   -1.3142   -0.7780 C   0  0  0  0  0  0  0  0  0  0  0  0
   -3.9113   -0.7043   -1.7084 H   0  0  0  0  0  0  0  0  0  0  0  0
   -3.0930   -2.0427   -0.8847 H   0  0  0  0  0  0  0  0  0  0  0  0
   -3.5910   -0.3920    0.4051 C   0  0  2  0  0  0  0  0  0  0  0  0
   -3.6805   -0.9743    1.3476 H   0  0  0  0  0  0  0  0  0  0  0  0
    2.3966    1.2672   -0.5329 C   0  0  0  0  0  0  0  0  0  0  0  0
    3.8783   -1.6859    0.3316 C   0  0  0  0  0  0  0  0  0  0  0  0
    4.9713   -1.8039    0.5033 H   0  0  0  0  0  0  0  0  0  0  0  0
    3.4247   -1.3679    1.2957 H   0  0  0  0  0  0  0  0  0  0  0  0
    1.3042    3.5635   -0.4536 C   0  0  0  0  0  0  0  0  0  0  0  0
    2.2804    4.0516   -0.5770 H   0  0  0  0  0  0  0  0  0  0  0  0
    2.3092   -0.0114   -0.6460 N   0  0  0  0  0  2  0  0  0  0  0  0
    3.6826   -0.5417   -0.6735 C   0  0  1  0  0  0  0  0  0  0  0  0
    3.8676   -0.9316   -1.7010 H   0  0  0  0  0  0  0  0  0  0  0  0
   -2.2752    1.3800    0.1167 C   0  0  2  0  0  3  0  0  0  0  0  0
    4.5541    0.7157   -0.3942 C   0  0  0  0  0  0  0  0  0  0  0  0
    4.9814    0.7111    0.6312 H   0  0  0  0  0  0  0  0  0  0  0  0
    5.3638    0.8835   -1.1293 H   0  0  0  0  0  0  0  0  0  0  0  0
   -1.1023    3.6239   -0.1474 C   0  0  0  0  0  0  0  0  0  0  0  0
   -2.0533    4.1600   -0.0254 H   0  0  0  0  0  0  0  0  0  0  0  0
    3.2760   -3.0108   -0.1334 C   0  0  0  0  0  0  0  0  0  0  0  0
    2.2024   -2.9186   -0.3981 H   0  0  0  0  0  0  0  0  0  0  0  0
    3.3579   -3.7804    0.6590 H   0  0  0  0  0  0  0  0  0  0  0  0
    3.7995   -3.3950   -1.0342 H   0  0  0  0  0  0  0  0  0  0  0  0
  1 15  1  0  0  0  0
  2  4  1  0  0  0  0
  3  2  1  0  0  0  0
  5  8  1  0  0  0  0
  5  6  1  0  0  0  0
  7  5  1  0  0  0  0
  9 31  1  0  0  0  0
 10 34  1  0  0  0  0
 11 10  1  0  0  0  0
 12  2  1  0  0  0  0
 13  1  1  0  0  0  0
 14 19  1  0  0  0  0
 16  5  1  0  0  0  0
 16 19  1  0  0  0  0
 17 16  1  0  0  0  0
 18 16  1  0  0  0  0
 19  2  1  0  0  0  0
 19 20  1  1  0  0  0
 21  9  1  0  0  0  0
 21 13  2  0  0  0  0
 22 23  1  0  0  0  0
 22 24  1  0  0  0  0
 25 13  1  0  0  0  0
 25 10  2  0  0  0  0
 26 25  1  0  0  0  0
 27 21  1  0  0  0  0
 28 29  1  6  0  0  0
 28 27  1  0  0  0  0
 28 31  1  0  0  0  0
 28 22  1  0  0  0  0
 30 15  1  1  0  0  0
 30 12  1  0  0  0  0
 30 14  1  0  0  0  0
 31 32  1  0  0  0  0
 33 31  1  0  0  0  0
 34 15  2  0  0  0  0
 34 35  1  0  0  0  0
 36 22  1  0  0  0  0
 36 38  1  0  0  0  0
 37 36  1  0  0  0  0
 39 36  1  0  0  0  0
M  END
