2,12,13
 OpenBabel05122313063D

 27 27  0  0  1  0  0  0  0  0999 V2000
    1.4922   -0.1212    2.7831 O   0  0  0  0  0  0  0  0  0  0  0  0
    0.0846    1.4530    0.8698 N   0  0  0  0  0  0  0  0  0  0  0  0
    1.9828   -0.0274    1.4575 C   0  0  2  0  0  0  0  0  0  0  0  0
    1.5297    1.2731    0.7624 C   0  0  1  0  0  0  0  0  0  0  0  0
    3.1005   -0.0313    1.4397 H   0  0  0  0  0  0  0  0  0  0  0  0
    1.8786    0.6011    3.3111 H   0  0  0  0  0  0  0  0  0  0  0  0
   -0.2124    2.3438    0.4488 H   0  0  0  0  0  0  0  0  0  0  0  0
   -0.2229    1.4353    1.8521 H   0  0  0  0  0  0  0  0  0  0  0  0
    2.0713    2.1187    1.2552 H   0  0  0  0  0  0  0  0  0  0  0  0
    1.4930    2.4708   -1.2866 O   0  0  0  0  0  0  0  0  0  0  0  0
    1.4913   -2.3502   -1.4963 O   0  0  0  0  0  0  0  0  0  0  0  0
    0.0839   -1.4803    0.8227 N   0  0  0  0  0  0  0  0  0  0  0  0
    0.0843    0.0273   -1.6931 N   0  0  0  0  0  0  0  0  0  0  0  0
    1.9832    1.2756   -0.7053 C   0  0  2  0  0  0  0  0  0  0  0  0
    1.9824   -1.2493   -0.7521 C   0  0  2  0  0  0  0  0  0  0  0  0
    1.5289   -1.2972    0.7213 C   0  0  1  0  0  0  0  0  0  0  0  0
    1.5292    0.0234   -1.4835 C   0  0  1  0  0  0  0  0  0  0  0  0
    3.1009    1.2618   -0.6935 H   0  0  0  0  0  0  0  0  0  0  0  0
    3.1001   -1.2326   -0.7466 H   0  0  0  0  0  0  0  0  0  0  0  0
    1.8789    2.5667   -2.1764 H   0  0  0  0  0  0  0  0  0  0  0  0
    1.8779   -3.1687   -1.1350 H   0  0  0  0  0  0  0  0  0  0  0  0
   -0.2130   -0.7821   -2.2549 H   0  0  0  0  0  0  0  0  0  0  0  0
   -0.2131   -1.5617    1.8047 H   0  0  0  0  0  0  0  0  0  0  0  0
   -0.2228    0.8875   -2.1681 H   0  0  0  0  0  0  0  0  0  0  0  0
   -0.2232   -2.3219    0.3155 H   0  0  0  0  0  0  0  0  0  0  0  0
    2.0703   -2.1469    1.2074 H   0  0  0  0  0  0  0  0  0  0  0  0
    2.0707    0.0272   -2.4623 H   0  0  0  0  0  0  0  0  0  0  0  0
  1  6  1  0  0  0  0
  2  8  1  0  0  0  0
  3  5  1  1  0  0  0
  3  1  1  0  0  0  0
  4  2  1  0  0  0  0
  4  9  1  1  0  0  0
  4  3  1  0  0  0  0
  7  2  1  0  0  0  0
 10 14  1  0  0  0  0
 11 21  1  0  0  0  0
 11 15  1  0  0  0  0
 12 23  1  0  0  0  0
 13 17  1  0  0  0  0
 14 18  1  6  0  0  0
 14  4  1  0  0  0  0
 15 19  1  6  0  0  0
 15 16  1  0  0  0  0
 16 12  1  0  0  0  0
 16 26  1  1  0  0  0
 16  3  1  0  0  0  0
 17 27  1  6  0  0  0
 17 15  1  0  0  0  0
 17 14  1  0  0  0  0
 20 10  1  0  0  0  0
 22 13  1  0  0  0  0
 24 13  1  0  0  0  0
 25 12  1  0  0  0  0
M  END
