1,2,3
 OpenBabel05122313063D

 47 49  0  0  1  0  0  0  0  0999 V2000
    1.2413   -1.8728   -0.0860 N   0  0  0  0  0  2  0  0  0  0  0  0
   -2.3583   -0.0958   -0.1281 N   0  0  0  0  0  2  0  0  0  0  0  0
    0.1914    0.4747   -1.0305 N   0  0  0  0  0  0  0  0  0  0  0  0
    1.8032   -2.8291    0.6817 C   0  0  0  0  0  3  0  0  0  0  0  0
    1.1337   -3.2935    1.4227 H   0  0  0  0  0  0  0  0  0  0  0  0
    3.1431   -3.1970    0.5098 C   0  0  0  0  0  0  0  0  0  0  0  0
    3.5726   -3.9843    1.1448 H   0  0  0  0  0  0  0  0  0  0  0  0
    3.9087   -2.5483   -0.4680 C   0  0  0  0  0  0  0  0  0  0  0  0
    4.9660   -2.8129   -0.6169 H   0  0  0  0  0  0  0  0  0  0  0  0
    3.3130   -1.5507   -1.2576 C   0  0  0  0  0  0  0  0  0  0  0  0
    3.8867   -1.0221   -2.0324 H   0  0  0  0  0  0  0  0  0  0  0  0
    1.9666   -1.2357   -1.0522 C   0  0  0  0  0  0  0  0  0  0  0  0
    1.1882   -0.2452   -1.8871 C   0  0  0  0  0  0  0  0  0  0  0  0
    1.8689    0.4578   -2.4107 H   0  0  0  0  0  0  0  0  0  0  0  0
    0.6231   -0.8038   -2.6621 H   0  0  0  0  0  0  0  0  0  0  0  0
   -0.9677    1.0380   -1.7907 C   0  0  0  0  0  0  0  0  0  0  0  0
   -1.0816    0.4373   -2.7176 H   0  0  0  0  0  0  0  0  0  0  0  0
   -0.7750    2.0833   -2.1071 H   0  0  0  0  0  0  0  0  0  0  0  0
   -2.2609    0.9402   -1.0116 C   0  0  1  0  0  3  0  0  0  0  0  0
   -3.3416    1.8055   -1.2162 C   0  0  0  0  0  0  0  0  0  0  0  0
   -3.2469    2.6390   -1.9271 H   0  0  0  0  0  0  0  0  0  0  0  0
   -4.5336    1.5929   -0.5067 C   0  0  0  0  0  0  0  0  0  0  0  0
   -5.3926    2.2636   -0.6559 H   0  0  0  0  0  0  0  0  0  0  0  0
   -4.6127    0.5219    0.3938 C   0  0  0  0  0  0  0  0  0  0  0  0
   -5.5276    0.3216    0.9685 H   0  0  0  0  0  0  0  0  0  0  0  0
   -3.4983   -0.3064    0.5639 C   0  0  0  0  0  0  0  0  0  0  0  0
   -3.4801   -1.1698    1.2476 H   0  0  0  0  0  0  0  0  0  0  0  0
    0.8986    1.4898   -0.1431 C   0  0  0  0  0  0  0  0  0  0  0  0
    1.7615    0.9139    0.2522 H   0  0  0  0  0  0  0  0  0  0  0  0
    1.4716    2.6811   -0.9410 C   0  0  0  0  0  0  0  0  0  0  0  0
    1.5693    2.4129   -2.0141 H   0  0  0  0  0  0  0  0  0  0  0  0
    0.7698    3.5419   -0.9082 H   0  0  0  0  0  0  0  0  0  0  0  0
    2.8605    3.1015   -0.4276 C   0  0  0  0  0  0  0  0  0  0  0  0
    3.3193    3.7913   -1.1658 H   0  0  0  0  0  0  0  0  0  0  0  0
    3.5106    2.1969   -0.4151 H   0  0  0  0  0  0  0  0  0  0  0  0
    2.8868    3.7717    0.9516 C   0  0  0  0  0  0  0  0  0  0  0  0
    2.4431    4.7883    0.8634 H   0  0  0  0  0  0  0  0  0  0  0  0
    3.9475    3.9334    1.2354 H   0  0  0  0  0  0  0  0  0  0  0  0
    2.1597    3.0382    2.0903 C   0  0  0  0  0  0  0  0  0  0  0  0
    2.5605    2.0071    2.2186 H   0  0  0  0  0  0  0  0  0  0  0  0
    2.4009    3.5621    3.0374 H   0  0  0  0  0  0  0  0  0  0  0  0
    0.6289    3.0141    1.9327 C   0  0  0  0  0  0  0  0  0  0  0  0
    0.3101    4.0041    1.5414 H   0  0  0  0  0  0  0  0  0  0  0  0
    0.1520    2.9301    2.9299 H   0  0  0  0  0  0  0  0  0  0  0  0
    0.0321    1.8957    1.0548 C   0  0  0  0  0  0  0  0  0  0  0  0
   -0.1454    0.9829    1.6644 H   0  0  0  0  0  0  0  0  0  0  0  0
   -0.9678    2.2269    0.7040 H   0  0  0  0  0  0  0  0  0  0  0  0
  1  4  1  0  0  0  0
  2 26  1  0  0  0  0
  3 28  1  0  0  0  0
  4  5  1  0  0  0  0
  6  4  1  0  0  0  0
  6  7  1  0  0  0  0
  8  6  2  0  0  0  0
  9  8  1  0  0  0  0
 10 12  2  0  0  0  0
 10  8  1  0  0  0  0
 11 10  1  0  0  0  0
 12  1  1  0  0  0  0
 13 12  1  0  0  0  0
 13  3  1  0  0  0  0
 14 13  1  0  0  0  0
 15 13  1  0  0  0  0
 16  3  1  0  0  0  0
 17 16  1  0  0  0  0
 18 16  1  0  0  0  0
 19 16  1  6  0  0  0
 19  2  1  0  0  0  0
 20 19  1  0  0  0  0
 20 22  2  0  0  0  0
 21 20  1  0  0  0  0
 22 24  1  0  0  0  0
 23 22  1  0  0  0  0
 24 26  2  0  0  0  0
 24 25  1  0  0  0  0
 26 27  1  0  0  0  0
 28 29  1  0  0  0  0
 28 45  1  0  0  0  0
 30 32  1  0  0  0  0
 30 33  1  0  0  0  0
 30 28  1  0  0  0  0
 31 30  1  0  0  0  0
 33 35  1  0  0  0  0
 33 36  1  0  0  0  0
 34 33  1  0  0  0  0
 36 38  1  0  0  0  0
 36 39  1  0  0  0  0
 37 36  1  0  0  0  0
 39 40  1  0  0  0  0
 39 41  1  0  0  0  0
 42 39  1  0  0  0  0
 42 44  1  0  0  0  0
 43 42  1  0  0  0  0
 45 46  1  0  0  0  0
 45 42  1  0  0  0  0
 47 45  1  0  0  0  0
M  END
