1,2,5
 OpenBabel05122313063D

 31 33  0  0  1  0  0  0  0  0999 V2000
    0.0014    2.0183   -0.0005 N   0  0  0  0  0  2  0  0  0  0  0  0
    2.3308    0.5566   -0.4009 N   0  0  0  0  0  2  0  0  0  0  0  0
    3.5765    0.1559   -0.6952 N   0  0  0  0  0  0  0  0  0  0  0  0
    3.7931   -0.8424   -0.6909 H   0  0  0  0  0  0  0  0  0  0  0  0
   -2.3301    0.5599    0.3998 N   0  0  0  0  0  2  0  0  0  0  0  0
   -3.5762    0.1610    0.6949 N   0  0  0  0  0  0  0  0  0  0  0  0
   -3.7943   -0.8370    0.6904 H   0  0  0  0  0  0  0  0  0  0  0  0
   -1.1430    2.6958    0.2381 C   0  0  0  0  0  0  0  0  0  0  0  0
   -1.1792    4.1059    0.2428 C   0  0  0  0  0  0  0  0  0  0  0  0
   -2.1220    4.6369    0.4303 H   0  0  0  0  0  0  0  0  0  0  0  0
    0.0033    4.8122   -0.0012 C   0  0  0  0  0  0  0  0  0  0  0  0
    0.0040    5.9120   -0.0015 H   0  0  0  0  0  0  0  0  0  0  0  0
    1.1848    4.1042   -0.2449 C   0  0  0  0  0  0  0  0  0  0  0  0
    2.1283    4.6339   -0.4327 H   0  0  0  0  0  0  0  0  0  0  0  0
    1.1468    2.6942   -0.2394 C   0  0  0  0  0  0  0  0  0  0  0  0
    2.3620    1.9012   -0.4944 C   0  0  2  0  0  3  0  0  0  0  0  0
    3.6677    2.3429   -0.8550 C   0  0  0  0  0  0  0  0  0  0  0  0
    4.0202    3.3663   -1.0152 H   0  0  0  0  0  0  0  0  0  0  0  0
    4.4355    1.1853   -0.9807 C   0  0  0  0  0  0  0  0  0  0  0  0
    5.8675    0.9730   -1.3434 C   0  0  0  0  0  0  0  0  0  0  0  0
    5.9711    0.3912   -2.2828 H   0  0  0  0  0  0  0  0  0  0  0  0
    6.4172    0.4281   -0.5483 H   0  0  0  0  0  0  0  0  0  0  0  0
    6.3697    1.9455   -1.4937 H   0  0  0  0  0  0  0  0  0  0  0  0
   -2.3592    1.9045    0.4936 C   0  0  0  0  0  0  0  0  0  0  0  0
   -3.6641    2.3481    0.8551 C   0  0  0  0  0  0  0  0  0  0  0  0
   -4.0150    3.3719    1.0157 H   0  0  0  0  0  0  0  0  0  0  0  0
   -4.4335    1.1916    0.9810 C   0  0  0  0  0  0  0  0  0  0  0  0
   -5.8655    0.9813    1.3448 C   0  0  0  0  0  0  0  0  0  0  0  0
   -6.4161    0.4352    0.5512 H   0  0  0  0  0  0  0  0  0  0  0  0
   -6.3668    1.9546    1.4933 H   0  0  0  0  0  0  0  0  0  0  0  0
   -5.9692    0.4016    2.2855 H   0  0  0  0  0  0  0  0  0  0  0  0
  1  8  1  0  0  0  0
  3  4  1  0  0  0  0
  3  2  1  0  0  0  0
  5 24  1  0  0  0  0
  5  6  1  0  0  0  0
  6 27  1  0  0  0  0
  7  6  1  0  0  0  0
  8  9  1  0  0  0  0
  8 24  2  0  0  0  0
  9 10  1  0  0  0  0
 11  9  2  0  0  0  0
 12 11  1  0  0  0  0
 13 15  2  0  0  0  0
 13 11  1  0  0  0  0
 14 13  1  0  0  0  0
 15  1  1  0  0  0  0
 16  2  1  0  0  0  0
 16 15  1  6  0  0  0
 17 16  1  0  0  0  0
 18 17  1  0  0  0  0
 19 17  2  0  0  0  0
 19  3  1  0  0  0  0
 20 19  1  0  0  0  0
 20 22  1  0  0  0  0
 21 20  1  0  0  0  0
 23 20  1  0  0  0  0
 24 25  1  0  0  0  0
 25 27  2  0  0  0  0
 25 26  1  0  0  0  0
 27 28  1  0  0  0  0
 28 30  1  0  0  0  0
 28 31  1  0  0  0  0
 29 28  1  0  0  0  0
M  END
