1,2,4
 OpenBabel05122313063D

 49 51  0  0  1  0  0  0  0  0999 V2000
   -0.0002    1.8877   -0.0017 N   0  0  0  0  0  2  0  0  0  0  0  0
   -2.3469    0.4167    0.0357 N   0  0  0  0  0  2  0  0  0  0  0  0
   -3.6120   -0.0194    0.0128 N   0  0  0  0  0  0  0  0  0  0  0  0
    2.3468    0.4169    0.0343 N   0  0  0  0  0  2  0  0  0  0  0  0
    3.6120   -0.0189    0.0117 N   0  0  0  0  0  0  0  0  0  0  0  0
    1.1723    2.5604    0.0137 C   0  0  0  0  0  0  0  0  0  0  0  0
    1.2080    3.9711    0.0391 C   0  0  0  0  0  0  0  0  0  0  0  0
    2.1706    4.4999    0.0527 H   0  0  0  0  0  0  0  0  0  0  0  0
   -0.0003    4.6765    0.0505 C   0  0  0  0  0  0  0  0  0  0  0  0
   -0.0003    5.7765    0.0714 H   0  0  0  0  0  0  0  0  0  0  0  0
   -1.2086    3.9710    0.0393 C   0  0  0  0  0  0  0  0  0  0  0  0
   -2.1712    4.4997    0.0532 H   0  0  0  0  0  0  0  0  0  0  0  0
   -1.1726    2.5603    0.0137 C   0  0  0  0  0  0  0  0  0  0  0  0
   -2.4081    1.7623    0.0015 C   0  0  1  0  0  3  0  0  0  0  0  0
   -3.7639    2.1878   -0.0436 C   0  0  0  0  0  0  0  0  0  0  0  0
   -4.1595    3.2076   -0.0818 H   0  0  0  0  0  0  0  0  0  0  0  0
   -4.5193    1.0142   -0.0369 C   0  0  0  0  0  0  0  0  0  0  0  0
   -5.9998    0.8182   -0.0756 C   0  0  0  0  0  0  0  0  0  0  0  0
   -6.3216    0.2390   -0.9660 H   0  0  0  0  0  0  0  0  0  0  0  0
   -6.5040    1.8013   -0.1150 H   0  0  0  0  0  0  0  0  0  0  0  0
   -6.3746    0.2839    0.8222 H   0  0  0  0  0  0  0  0  0  0  0  0
    2.4078    1.7625    0.0014 C   0  0  0  0  0  0  0  0  0  0  0  0
    3.7636    2.1883   -0.0423 C   0  0  0  0  0  0  0  0  0  0  0  0
    4.1590    3.2082   -0.0791 H   0  0  0  0  0  0  0  0  0  0  0  0
    4.5192    1.0149   -0.0363 C   0  0  0  0  0  0  0  0  0  0  0  0
    5.9998    0.8191   -0.0741 C   0  0  0  0  0  0  0  0  0  0  0  0
    6.3223    0.2409   -0.9648 H   0  0  0  0  0  0  0  0  0  0  0  0
    6.3740    0.2841    0.8235 H   0  0  0  0  0  0  0  0  0  0  0  0
    6.5038    1.8024   -0.1122 H   0  0  0  0  0  0  0  0  0  0  0  0
   -3.8981   -1.4676    0.0313 C   0  0  0  0  0  0  0  0  0  0  0  0
   -5.0054   -1.5264    0.0411 H   0  0  0  0  0  0  0  0  0  0  0  0
   -3.3588   -2.1094    1.3117 C   0  0  0  0  0  0  0  0  0  0  0  0
   -3.7482   -1.5922    2.2112 H   0  0  0  0  0  0  0  0  0  0  0  0
   -2.2505   -2.0885    1.3386 H   0  0  0  0  0  0  0  0  0  0  0  0
   -3.6758   -3.1699    1.3554 H   0  0  0  0  0  0  0  0  0  0  0  0
   -3.3790   -2.1353   -1.2449 C   0  0  0  0  0  0  0  0  0  0  0  0
   -3.7914   -1.6432   -2.1483 H   0  0  0  0  0  0  0  0  0  0  0  0
   -3.6854   -3.1997   -1.2581 H   0  0  0  0  0  0  0  0  0  0  0  0
   -2.2716   -2.1031   -1.2950 H   0  0  0  0  0  0  0  0  0  0  0  0
    3.8984   -1.4672    0.0293 C   0  0  0  0  0  0  0  0  0  0  0  0
    5.0057   -1.5257    0.0378 H   0  0  0  0  0  0  0  0  0  0  0  0
    3.3608   -2.1095    1.3103 C   0  0  0  0  0  0  0  0  0  0  0  0
    3.7508   -1.5921    2.2094 H   0  0  0  0  0  0  0  0  0  0  0  0
    3.6787   -3.1697    1.3535 H   0  0  0  0  0  0  0  0  0  0  0  0
    2.2525   -2.0895    1.3383 H   0  0  0  0  0  0  0  0  0  0  0  0
    3.3779   -2.1344   -1.2464 C   0  0  0  0  0  0  0  0  0  0  0  0
    3.7901   -1.6427   -2.1501 H   0  0  0  0  0  0  0  0  0  0  0  0
    2.2705   -2.1012   -1.2957 H   0  0  0  0  0  0  0  0  0  0  0  0
    3.6833   -3.1991   -1.2597 H   0  0  0  0  0  0  0  0  0  0  0  0
  1  6  1  0  0  0  0
  1 13  1  0  0  0  0
  3 30  1  0  0  0  0
  3  2  1  0  0  0  0
  5 40  1  0  0  0  0
  5  4  1  0  0  0  0
  6  7  1  0  0  0  0
  7  9  2  0  0  0  0
  7  8  1  0  0  0  0
  9 10  1  0  0  0  0
 11  9  1  0  0  0  0
 11 12  1  0  0  0  0
 13 11  2  0  0  0  0
 14 13  1  6  0  0  0
 14  2  1  0  0  0  0
 15 17  2  0  0  0  0
 15 14  1  0  0  0  0
 16 15  1  0  0  0  0
 17  3  1  0  0  0  0
 18 17  1  0  0  0  0
 18 21  1  0  0  0  0
 19 18  1  0  0  0  0
 20 18  1  0  0  0  0
 22  6  2  0  0  0  0
 22  4  1  0  0  0  0
 23 25  2  0  0  0  0
 23 22  1  0  0  0  0
 24 23  1  0  0  0  0
 25  5  1  0  0  0  0
 26 25  1  0  0  0  0
 26 28  1  0  0  0  0
 27 26  1  0  0  0  0
 29 26  1  0  0  0  0
 30 31  1  0  0  0  0
 30 32  1  0  0  0  0
 32 34  1  0  0  0  0
 32 35  1  0  0  0  0
 32 33  1  0  0  0  0
 36 30  1  0  0  0  0
 37 36  1  0  0  0  0
 38 36  1  0  0  0  0
 39 36  1  0  0  0  0
 40 41  1  0  0  0  0
 40 42  1  0  0  0  0
 42 45  1  0  0  0  0
 42 44  1  0  0  0  0
 42 43  1  0  0  0  0
 46 40  1  0  0  0  0
 47 46  1  0  0  0  0
 48 46  1  0  0  0  0
 49 46  1  0  0  0  0
M  END
