1,9,12
 OpenBabel05122313063D

 38 39  0  0  0  0  0  0  0  0999 V2000
   -0.8082    0.2330   -0.0558 N   0  0  0  0  0  0  0  0  0  0  0  0
   -5.0707    1.3540    1.2297 C   0  0  0  0  0  0  0  0  0  0  0  0
   -5.4605    2.1272    1.9072 H   0  0  0  0  0  0  0  0  0  0  0  0
   -3.6789   -1.6679   -1.3157 O   0  0  0  0  0  0  0  0  0  0  0  0
   -3.1252   -2.3059   -0.8273 H   0  0  0  0  0  0  0  0  0  0  0  0
   -1.8287   -0.6128    0.6915 C   0  0  0  0  0  0  0  0  0  0  0  0
   -1.6916   -1.6489    0.3284 H   0  0  0  0  0  0  0  0  0  0  0  0
   -1.5015   -0.6162    1.7488 H   0  0  0  0  0  0  0  0  0  0  0  0
    0.9092   -0.7657   -2.1341 N   0  0  0  0  0  0  0  0  0  0  0  0
    1.3511    0.0255   -2.6278 H   0  0  0  0  0  0  0  0  0  0  0  0
    1.3203   -1.6148   -2.5468 H   0  0  0  0  0  0  0  0  0  0  0  0
    1.6229    1.4970   -0.1668 N   0  0  0  0  0  2  0  0  0  0  0  0
   -4.0965   -0.6789   -0.4575 C   0  0  0  0  0  0  0  0  0  0  0  0
   -3.2560   -0.1526    0.5594 C   0  0  0  0  0  0  0  0  0  0  0  0
   -0.5628   -0.7374   -2.3462 C   0  0  0  0  0  0  0  0  0  0  0  0
   -0.9785   -1.7162   -2.0388 H   0  0  0  0  0  0  0  0  0  0  0  0
   -0.8293   -0.5923   -3.4141 H   0  0  0  0  0  0  0  0  0  0  0  0
   -3.7794    0.8452    1.4107 C   0  0  0  0  0  0  0  0  0  0  0  0
   -3.1590    1.2187    2.2409 H   0  0  0  0  0  0  0  0  0  0  0  0
    2.7949    2.0695   -0.5375 C   0  0  0  0  0  3  0  0  0  0  0  0
    3.6386    1.3852   -0.7110 H   0  0  0  0  0  0  0  0  0  0  0  0
    2.9388    3.4526   -0.6762 C   0  0  0  0  0  0  0  0  0  0  0  0
    3.9115    3.8702   -0.9716 H   0  0  0  0  0  0  0  0  0  0  0  0
   -1.1460    0.3868   -1.5117 C   0  0  0  0  0  0  0  0  0  0  0  0
   -0.7170    1.3504   -1.8555 H   0  0  0  0  0  0  0  0  0  0  0  0
   -2.2435    0.4576   -1.6465 H   0  0  0  0  0  0  0  0  0  0  0  0
    0.6178    3.6858   -0.0525 C   0  0  0  0  0  0  0  0  0  0  0  0
   -0.2735    4.2982    0.1466 H   0  0  0  0  0  0  0  0  0  0  0  0
   -5.8678    0.8574    0.1836 C   0  0  0  0  0  0  0  0  0  0  0  0
   -6.8846    1.2489    0.0310 H   0  0  0  0  0  0  0  0  0  0  0  0
    1.8314    4.2773   -0.4310 C   0  0  0  0  0  0  0  0  0  0  0  0
    1.9104    5.3695   -0.5345 H   0  0  0  0  0  0  0  0  0  0  0  0
   -0.6978    1.5860    0.5605 C   0  0  0  0  0  0  0  0  0  0  0  0
   -0.6276    1.4490    1.6608 H   0  0  0  0  0  0  0  0  0  0  0  0
   -1.6038    2.1972    0.3631 H   0  0  0  0  0  0  0  0  0  0  0  0
    0.5444    2.2932    0.0816 C   0  0  0  0  0  0  0  0  0  0  0  0
   -5.3894   -0.1608   -0.6491 C   0  0  0  0  0  0  0  0  0  0  0  0
   -6.0095   -0.5897   -1.4492 H   0  0  0  0  0  0  0  0  0  0  0  0
  1 33  1  0  0  0  0
  1  6  1  0  0  0  0
  2 18  1  0  0  0  0
  2  3  1  0  0  0  0
  4  5  1  0  0  0  0
  4 13  1  0  0  0  0
  6  8  1  0  0  0  0
  7  6  1  0  0  0  0
 10  9  1  0  0  0  0
 11  9  1  0  0  0  0
 12 36  1  0  0  0  0
 13 14  1  0  0  0  0
 14  6  1  0  0  0  0
 14 18  2  0  0  0  0
 15  9  1  0  0  0  0
 15 16  1  0  0  0  0
 15 24  1  0  0  0  0
 17 15  1  0  0  0  0
 18 19  1  0  0  0  0
 20 12  1  0  0  0  0
 21 20  1  0  0  0  0
 22 20  1  0  0  0  0
 22 31  2  0  0  0  0
 23 22  1  0  0  0  0
 24  1  1  0  0  0  0
 25 24  1  0  0  0  0
 26 24  1  0  0  0  0
 27 36  2  0  0  0  0
 27 28  1  0  0  0  0
 29  2  2  0  0  0  0
 30 29  1  0  0  0  0
 31 27  1  0  0  0  0
 32 31  1  0  0  0  0
 33 34  1  0  0  0  0
 35 33  1  0  0  0  0
 36 33  1  0  0  0  0
 37 13  2  0  0  0  0
 37 29  1  0  0  0  0
 38 37  1  0  0  0  0
M  END
