2,6,7
 OpenBabel05122313063D

 39 41  0  0  1  0  0  0  0  0999 V2000
    3.9177   -1.4112   -0.6236 O   0  0  0  0  0  0  0  0  0  0  0  0
   -2.6608    0.3913   -0.3812 N   0  0  0  0  0  2  0  0  0  0  0  0
    1.6879   -1.4003    0.0363 N   0  0  0  0  0  0  0  0  0  0  0  0
    3.8506    1.3563   -1.1991 C   0  0  0  0  0  0  0  0  0  0  0  0
    4.7578    0.7734   -1.4090 H   0  0  0  0  0  0  0  0  0  0  0  0
    1.5250    1.3211   -0.5686 N   0  0  0  0  0  2  0  0  0  0  0  0
   -0.8874   -1.5245   -1.1974 N   0  0  0  0  0  2  0  0  0  0  0  0
   -4.8633    1.3471   -0.3752 C   0  0  0  0  0  0  0  0  0  0  0  0
   -5.5271    2.1614   -0.0502 H   0  0  0  0  0  0  0  0  0  0  0  0
   -3.1114   -0.6419   -1.1239 C   0  0  0  0  0  0  0  0  0  0  0  0
   -3.5041    1.3605   -0.0090 C   0  0  0  0  0  0  0  0  0  0  0  0
   -3.0497    2.1513    0.6179 H   0  0  0  0  0  0  0  0  0  0  0  0
    1.5134    2.6690   -0.5778 C   0  0  0  0  0  3  0  0  0  0  0  0
    0.5703    3.1307   -0.2376 H   0  0  0  0  0  0  0  0  0  0  0  0
   -5.3452    0.2782   -1.1422 C   0  0  0  0  0  0  0  0  0  0  0  0
   -6.4041    0.2317   -1.4385 H   0  0  0  0  0  0  0  0  0  0  0  0
    2.6283   -0.8546   -0.9193 C   0  0  1  0  0  0  0  0  0  0  0  0
    2.3618   -1.1619   -1.9543 H   0  0  0  0  0  0  0  0  0  0  0  0
    2.6421    3.4264   -0.9189 C   0  0  0  0  0  0  0  0  0  0  0  0
    2.5840    4.5245   -0.9198 H   0  0  0  0  0  0  0  0  0  0  0  0
   -2.1243   -1.6791   -1.4873 C   0  0  0  0  0  0  0  0  0  0  0  0
   -2.5108   -2.5878   -2.0047 H   0  0  0  0  0  0  0  0  0  0  0  0
    2.6644    0.6751   -0.8765 C   0  0  0  0  0  0  0  0  0  0  0  0
    0.1024   -2.5241   -1.5101 C   0  0  0  0  0  0  0  0  0  0  0  0
    0.6409   -2.1810   -2.4236 H   0  0  0  0  0  0  0  0  0  0  0  0
   -0.3439   -3.5156   -1.7590 H   0  0  0  0  0  0  0  0  0  0  0  0
   -4.4572   -0.7392   -1.5222 C   0  0  0  0  0  0  0  0  0  0  0  0
   -4.7950   -1.5999   -2.1192 H   0  0  0  0  0  0  0  0  0  0  0  0
    3.8347    2.7565   -1.2278 C   0  0  0  0  0  0  0  0  0  0  0  0
    4.7469    3.3190   -1.4794 H   0  0  0  0  0  0  0  0  0  0  0  0
    2.5026   -1.4512    1.2655 C   0  0  0  0  0  0  0  0  0  0  0  0
    2.0428   -2.1351    2.0013 H   0  0  0  0  0  0  0  0  0  0  0  0
    2.5169   -0.4387    1.7199 H   0  0  0  0  0  0  0  0  0  0  0  0
    1.1012   -2.6901   -0.3568 C   0  0  0  0  0  0  0  0  0  0  0  0
    0.5488   -3.0560    0.5328 H   0  0  0  0  0  0  0  0  0  0  0  0
    1.8711   -3.4393   -0.6579 H   0  0  0  0  0  0  0  0  0  0  0  0
    3.9045   -1.8345    0.7503 C   0  0  0  0  0  0  0  0  0  0  0  0
    4.7142   -1.3273    1.3166 H   0  0  0  0  0  0  0  0  0  0  0  0
    4.0882   -2.9313    0.7895 H   0  0  0  0  0  0  0  0  0  0  0  0
  1 37  1  0  0  0  0
  2 11  1  0  0  0  0
  3 31  1  0  0  0  0
  4 23  2  0  0  0  0
  5  4  1  0  0  0  0
  8  9  1  0  0  0  0
  8 11  2  0  0  0  0
 10  2  1  0  0  0  0
 11 12  1  0  0  0  0
 13  6  1  0  0  0  0
 13 14  1  0  0  0  0
 15  8  1  0  0  0  0
 16 15  1  0  0  0  0
 17 18  1  6  0  0  0
 17 23  1  0  0  0  0
 17  1  1  0  0  0  0
 17  3  1  0  0  0  0
 19 13  1  0  0  0  0
 20 19  1  0  0  0  0
 21  7  1  0  0  0  0
 21 10  2  0  0  0  0
 22 21  1  0  0  0  0
 23  6  1  0  0  0  0
 24  7  1  0  0  0  0
 24 34  1  0  0  0  0
 25 24  1  0  0  0  0
 26 24  1  0  0  0  0
 27 15  2  0  0  0  0
 27 10  1  0  0  0  0
 28 27  1  0  0  0  0
 29  4  1  0  0  0  0
 29 19  2  0  0  0  0
 30 29  1  0  0  0  0
 31 33  1  0  0  0  0
 31 32  1  0  0  0  0
 34  3  1  0  0  0  0
 34 35  1  0  0  0  0
 36 34  1  0  0  0  0
 37 39  1  0  0  0  0
 37 31  1  0  0  0  0
 37 38  1  0  0  0  0
M  END
