1,2,3
 OpenBabel05122313063D

 55 60  0  0  1  0  0  0  0  0999 V2000
    0.4127    0.5537   -0.3702 N   0  0  0  0  0  0  0  0  0  0  0  0
    3.0808    1.3092    0.1191 N   0  0  0  0  0  2  0  0  0  0  0  0
    1.9821   -0.8680    1.4866 N   0  0  0  0  0  2  0  0  0  0  0  0
    0.7834    1.9965   -0.2836 C   0  0  0  0  0  0  0  0  0  0  0  0
   -0.0169    2.5878    0.2078 H   0  0  0  0  0  0  0  0  0  0  0  0
    0.8640    2.3689   -1.3270 H   0  0  0  0  0  0  0  0  0  0  0  0
    2.1183    2.2386    0.3680 C   0  0  2  0  0  3  0  0  0  0  0  0
    2.3976    3.4040    1.0950 C   0  0  0  0  0  0  0  0  0  0  0  0
    1.5943    4.1293    1.2887 H   0  0  0  0  0  0  0  0  0  0  0  0
    3.7029    3.6322    1.5511 C   0  0  0  0  0  0  0  0  0  0  0  0
    3.9436    4.5431    2.1187 H   0  0  0  0  0  0  0  0  0  0  0  0
    4.6944    2.6817    1.2679 C   0  0  0  0  0  0  0  0  0  0  0  0
    5.7338    2.8205    1.5963 H   0  0  0  0  0  0  0  0  0  0  0  0
    4.3428    1.5304    0.5582 C   0  0  0  0  0  0  0  0  0  0  0  0
    5.0834    0.7515    0.3258 H   0  0  0  0  0  0  0  0  0  0  0  0
   -0.1864    0.0738    0.9111 C   0  0  0  0  0  0  0  0  0  0  0  0
   -0.7760   -0.8375    0.6773 H   0  0  0  0  0  0  0  0  0  0  0  0
   -0.9127    0.8115    1.3100 H   0  0  0  0  0  0  0  0  0  0  0  0
    0.8306   -0.3102    1.9495 C   0  0  1  0  0  3  0  0  0  0  0  0
    0.5690   -0.2090    3.3235 C   0  0  0  0  0  0  0  0  0  0  0  0
   -0.3678    0.2546    3.6646 H   0  0  0  0  0  0  0  0  0  0  0  0
    1.5011   -0.7146    4.2389 C   0  0  0  0  0  0  0  0  0  0  0  0
    1.3118   -0.6490    5.3204 H   0  0  0  0  0  0  0  0  0  0  0  0
    2.6755   -1.3073    3.7520 C   0  0  0  0  0  0  0  0  0  0  0  0
    3.4323   -1.7250    4.4305 H   0  0  0  0  0  0  0  0  0  0  0  0
    2.8831   -1.3580    2.3715 C   0  0  0  0  0  0  0  0  0  0  0  0
    3.7932   -1.8030    1.9442 H   0  0  0  0  0  0  0  0  0  0  0  0
   -0.5712    0.3319   -1.5196 C   0  0  0  0  0  0  0  0  0  0  0  0
   -0.1129    0.8183   -2.4015 H   0  0  0  0  0  0  0  0  0  0  0  0
   -0.5700   -0.7524   -1.7189 H   0  0  0  0  0  0  0  0  0  0  0  0
   -1.9622    0.8541   -1.2704 C   0  0  0  0  0  0  0  0  0  0  0  0
   -2.2360    2.2197   -1.4968 C   0  0  0  0  0  0  0  0  0  0  0  0
   -1.4547    2.8585   -1.9375 H   0  0  0  0  0  0  0  0  0  0  0  0
   -3.4800    2.7809   -1.2044 C   0  0  0  0  0  0  0  0  0  0  0  0
   -3.6659    3.8479   -1.3985 H   0  0  0  0  0  0  0  0  0  0  0  0
   -4.5176    1.9863   -0.6681 C   0  0  0  0  0  0  0  0  0  0  0  0
   -5.8023    2.5407   -0.3377 C   0  0  0  0  0  0  0  0  0  0  0  0
   -5.9660    3.6163   -0.5034 H   0  0  0  0  0  0  0  0  0  0  0  0
   -6.8065    1.7531    0.1693 C   0  0  0  0  0  0  0  0  0  0  0  0
   -7.7857    2.1902    0.4178 H   0  0  0  0  0  0  0  0  0  0  0  0
   -6.6113    0.3445    0.3814 C   0  0  0  0  0  0  0  0  0  0  0  0
   -7.6338   -0.4841    0.8962 C   0  0  0  0  0  0  0  0  0  0  0  0
   -8.6072   -0.0352    1.1463 H   0  0  0  0  0  0  0  0  0  0  0  0
   -7.4232   -1.8566    1.0841 C   0  0  0  0  0  0  0  0  0  0  0  0
   -8.2339   -2.4844    1.4825 H   0  0  0  0  0  0  0  0  0  0  0  0
   -6.1883   -2.4343    0.7624 C   0  0  0  0  0  0  0  0  0  0  0  0
   -6.0273   -3.5140    0.9033 H   0  0  0  0  0  0  0  0  0  0  0  0
   -5.1357   -1.6445    0.2480 C   0  0  0  0  0  0  0  0  0  0  0  0
   -3.8636   -2.2037   -0.1106 C   0  0  0  0  0  0  0  0  0  0  0  0
   -3.7159   -3.2889    0.0011 H   0  0  0  0  0  0  0  0  0  0  0  0
   -2.8469   -1.4204   -0.6039 C   0  0  0  0  0  0  0  0  0  0  0  0
   -1.9085   -1.9141   -0.8965 H   0  0  0  0  0  0  0  0  0  0  0  0
   -3.0024    0.0035   -0.7841 C   0  0  0  0  0  0  0  0  0  0  0  0
   -4.2840    0.5818   -0.4650 C   0  0  0  0  0  0  0  0  0  0  0  0
   -5.3385   -0.2368    0.0543 C   0  0  0  0  0  0  0  0  0  0  0  0
  1  4  1  0  0  0  0
  1 16  1  0  0  0  0
  2  7  1  0  0  0  0
  2 14  1  0  0  0  0
  3 19  1  0  0  0  0
  3 26  1  0  0  0  0
  4  5  1  0  0  0  0
  6  4  1  0  0  0  0
  7  4  1  6  0  0  0
  7  8  1  0  0  0  0
  8  9  1  0  0  0  0
  8 10  2  0  0  0  0
 10 11  1  0  0  0  0
 12 10  1  0  0  0  0
 12 13  1  0  0  0  0
 14 12  2  0  0  0  0
 15 14  1  0  0  0  0
 16 18  1  0  0  0  0
 17 16  1  0  0  0  0
 19 16  1  6  0  0  0
 19 20  1  0  0  0  0
 20 21  1  0  0  0  0
 20 22  2  0  0  0  0
 22 23  1  0  0  0  0
 24 22  1  0  0  0  0
 24 25  1  0  0  0  0
 26 24  2  0  0  0  0
 27 26  1  0  0  0  0
 28 31  1  0  0  0  0
 28  1  1  0  0  0  0
 29 28  1  0  0  0  0
 30 28  1  0  0  0  0
 31 53  1  0  0  0  0
 32 31  2  0  0  0  0
 32 34  1  0  0  0  0
 33 32  1  0  0  0  0
 34 36  2  0  0  0  0
 35 34  1  0  0  0  0
 36 54  1  0  0  0  0
 36 37  1  0  0  0  0
 37 39  2  0  0  0  0
 38 37  1  0  0  0  0
 39 41  1  0  0  0  0
 39 40  1  0  0  0  0
 41 42  1  0  0  0  0
 42 44  2  0  0  0  0
 42 43  1  0  0  0  0
 44 45  1  0  0  0  0
 46 47  1  0  0  0  0
 46 44  1  0  0  0  0
 48 46  2  0  0  0  0
 49 50  1  0  0  0  0
 49 48  1  0  0  0  0
 51 49  2  0  0  0  0
 52 51  1  0  0  0  0
 53 51  1  0  0  0  0
 53 54  2  0  0  0  0
 54 55  1  0  0  0  0
 55 48  1  0  0  0  0
 55 41  2  0  0  0  0
M  END
