3,5,6
 OpenBabel05122313063D

 66 66  0  0  0  0  0  0  0  0999 V2000
    1.3258    1.3230    0.6233 Si  0  0  2  0  0  0  0  0  0  0  0  0
   -1.3258    1.3230    0.6233 Si  0  0  1  0  0  0  0  0  0  0  0  0
    0.0000    0.5497    1.5762 N   0  0  0  0  0  0  0  0  0  0  0  0
    0.0000    2.1258   -0.2613 N   0  0  0  0  0  0  0  0  0  0  0  0
   -1.8720   -0.1539   -0.1249 N   0  0  0  0  0  2  0  0  0  0  0  0
    1.8720   -0.1540   -0.1249 N   0  0  0  0  0  2  0  0  0  0  0  0
    2.5531    2.5019    1.4184 C   0  0  0  0  0  0  0  0  0  0  0  0
   -2.5530    2.5020    1.4184 C   0  0  0  0  0  0  0  0  0  0  0  0
    0.0000    0.0984    2.9915 C   0  0  0  0  0  0  0  0  0  0  0  0
    0.0001    1.3347    3.9139 C   0  0  0  0  0  0  0  0  0  0  0  0
    1.2570   -0.7444    3.2717 C   0  0  0  0  0  0  0  0  0  0  0  0
   -1.2570   -0.7444    3.2717 C   0  0  0  0  0  0  0  0  0  0  0  0
    0.0000    3.0837   -1.3776 C   0  0  0  0  0  0  0  0  0  0  0  0
   -1.2477    2.8689   -2.2492 C   0  0  0  0  0  0  0  0  0  0  0  0
    0.0000    4.5213   -0.8150 C   0  0  0  0  0  0  0  0  0  0  0  0
    1.2478    2.8689   -2.2492 C   0  0  0  0  0  0  0  0  0  0  0  0
   -3.1828   -0.6137   -0.6329 C   0  0  0  0  0  0  0  0  0  0  0  0
   -3.1134   -2.1339   -0.8863 C   0  0  0  0  0  0  0  0  0  0  0  0
   -4.2818   -0.3522    0.4161 C   0  0  0  0  0  0  0  0  0  0  0  0
   -3.5463    0.0972   -1.9499 C   0  0  0  0  0  0  0  0  0  0  0  0
    3.1828   -0.6138   -0.6329 C   0  0  0  0  0  0  0  0  0  0  0  0
    3.1134   -2.1340   -0.8862 C   0  0  0  0  0  0  0  0  0  0  0  0
    4.2818   -0.3522    0.4160 C   0  0  0  0  0  0  0  0  0  0  0  0
    3.5462    0.0969   -1.9501 C   0  0  0  0  0  0  0  0  0  0  0  0
    1.9982    3.3394    1.8860 H   0  0  0  0  0  0  0  0  0  0  0  0
    3.2332    2.9284    0.6532 H   0  0  0  0  0  0  0  0  0  0  0  0
    3.1750    2.0046    2.1878 H   0  0  0  0  0  0  0  0  0  0  0  0
   -1.9980    3.3395    1.8860 H   0  0  0  0  0  0  0  0  0  0  0  0
   -3.1748    2.0048    2.1879 H   0  0  0  0  0  0  0  0  0  0  0  0
   -3.2332    2.9285    0.6533 H   0  0  0  0  0  0  0  0  0  0  0  0
    0.8974    1.9609    3.7380 H   0  0  0  0  0  0  0  0  0  0  0  0
    0.0001    1.0315    4.9806 H   0  0  0  0  0  0  0  0  0  0  0  0
   -0.8972    1.9610    3.7380 H   0  0  0  0  0  0  0  0  0  0  0  0
    2.1813   -0.1651    3.0738 H   0  0  0  0  0  0  0  0  0  0  0  0
    1.2817   -1.6535    2.6398 H   0  0  0  0  0  0  0  0  0  0  0  0
    1.2757   -1.0616    4.3332 H   0  0  0  0  0  0  0  0  0  0  0  0
   -2.1812   -0.1650    3.0738 H   0  0  0  0  0  0  0  0  0  0  0  0
   -1.2756   -1.0616    4.3333 H   0  0  0  0  0  0  0  0  0  0  0  0
   -1.2817   -1.6534    2.6398 H   0  0  0  0  0  0  0  0  0  0  0  0
   -2.1765    3.0137   -1.6589 H   0  0  0  0  0  0  0  0  0  0  0  0
   -1.2580    1.8439   -2.6660 H   0  0  0  0  0  0  0  0  0  0  0  0
   -1.2747    3.5926   -3.0883 H   0  0  0  0  0  0  0  0  0  0  0  0
    0.8963    4.6929   -0.1849 H   0  0  0  0  0  0  0  0  0  0  0  0
   -0.8963    4.6929   -0.1850 H   0  0  0  0  0  0  0  0  0  0  0  0
    0.0000    5.2769   -1.6279 H   0  0  0  0  0  0  0  0  0  0  0  0
    2.1766    3.0137   -1.6589 H   0  0  0  0  0  0  0  0  0  0  0  0
    1.2748    3.5926   -3.0882 H   0  0  0  0  0  0  0  0  0  0  0  0
    1.2581    1.8439   -2.6660 H   0  0  0  0  0  0  0  0  0  0  0  0
   -2.8691   -2.6816    0.0457 H   0  0  0  0  0  0  0  0  0  0  0  0
   -2.3473   -2.3773   -1.6513 H   0  0  0  0  0  0  0  0  0  0  0  0
   -4.0839   -2.5122   -1.2648 H   0  0  0  0  0  0  0  0  0  0  0  0
   -4.0160   -0.8254    1.3827 H   0  0  0  0  0  0  0  0  0  0  0  0
   -5.2521   -0.7719    0.0804 H   0  0  0  0  0  0  0  0  0  0  0  0
   -4.4306    0.7320    0.5859 H   0  0  0  0  0  0  0  0  0  0  0  0
   -3.6500    1.1897   -1.7945 H   0  0  0  0  0  0  0  0  0  0  0  0
   -4.5088   -0.2804   -2.3523 H   0  0  0  0  0  0  0  0  0  0  0  0
   -2.7585   -0.0738   -2.7097 H   0  0  0  0  0  0  0  0  0  0  0  0
    2.3473   -2.3775   -1.6512 H   0  0  0  0  0  0  0  0  0  0  0  0
    2.8692   -2.6816    0.0458 H   0  0  0  0  0  0  0  0  0  0  0  0
    4.0839   -2.5123   -1.2647 H   0  0  0  0  0  0  0  0  0  0  0  0
    4.4306    0.7321    0.5857 H   0  0  0  0  0  0  0  0  0  0  0  0
    5.2521   -0.7719    0.0803 H   0  0  0  0  0  0  0  0  0  0  0  0
    4.0160   -0.8253    1.3827 H   0  0  0  0  0  0  0  0  0  0  0  0
    2.7584   -0.0742   -2.7098 H   0  0  0  0  0  0  0  0  0  0  0  0
    4.5087   -0.2806   -2.3524 H   0  0  0  0  0  0  0  0  0  0  0  0
    3.6499    1.1894   -1.7948 H   0  0  0  0  0  0  0  0  0  0  0  0
  1  6  1  6  0  0  0
  1  7  1  0  0  0  0
  1  3  1  0  0  0  0
  2  5  1  6  0  0  0
  2  8  1  0  0  0  0
  2  3  1  0  0  0  0
  3  9  1  0  0  0  0
  4  1  1  0  0  0  0
  4  2  1  0  0  0  0
  7 25  1  0  0  0  0
  7 27  1  0  0  0  0
  8 28  1  0  0  0  0
  8 29  1  0  0  0  0
  9 11  1  0  0  0  0
  9 12  1  0  0  0  0
  9 10  1  0  0  0  0
 10 32  1  0  0  0  0
 11 36  1  0  0  0  0
 12 38  1  0  0  0  0
 13 15  1  0  0  0  0
 13  4  1  0  0  0  0
 14 40  1  0  0  0  0
 14 13  1  0  0  0  0
 15 44  1  0  0  0  0
 15 43  1  0  0  0  0
 16 46  1  0  0  0  0
 16 13  1  0  0  0  0
 17  5  1  0  0  0  0
 17 19  1  0  0  0  0
 18 17  1  0  0  0  0
 18 49  1  0  0  0  0
 19 54  1  0  0  0  0
 19 52  1  0  0  0  0
 20 55  1  0  0  0  0
 20 17  1  0  0  0  0
 21  6  1  0  0  0  0
 21 23  1  0  0  0  0
 22 21  1  0  0  0  0
 22 59  1  0  0  0  0
 23 61  1  0  0  0  0
 23 63  1  0  0  0  0
 24 66  1  0  0  0  0
 24 21  1  0  0  0  0
 26  7  1  0  0  0  0
 30  8  1  0  0  0  0
 31 10  1  0  0  0  0
 33 10  1  0  0  0  0
 34 11  1  0  0  0  0
 35 11  1  0  0  0  0
 37 12  1  0  0  0  0
 39 12  1  0  0  0  0
 41 14  1  0  0  0  0
 42 14  1  0  0  0  0
 45 15  1  0  0  0  0
 47 16  1  0  0  0  0
 48 16  1  0  0  0  0
 50 18  1  0  0  0  0
 51 18  1  0  0  0  0
 53 19  1  0  0  0  0
 56 20  1  0  0  0  0
 57 20  1  0  0  0  0
 58 22  1  0  0  0  0
 60 22  1  0  0  0  0
 62 23  1  0  0  0  0
 64 24  1  0  0  0  0
 65 24  1  0  0  0  0
M  END
