1,3,5
 OpenBabel05122313063D

 35 37  0  0  1  0  0  0  0  0999 V2000
   -2.1924    1.1111    0.5104 N   0  0  0  0  0  2  0  0  0  0  0  0
   -3.1821    0.2398    0.1820 N   0  0  0  0  0  0  0  0  0  0  0  0
   -0.9690   -1.3858    1.2783 N   0  0  0  0  0  2  0  0  0  0  0  0
   -2.1589   -1.8376    0.7986 N   0  0  0  0  0  0  0  0  0  0  0  0
   -0.7729   -0.4103   -1.3969 N   0  0  0  0  0  2  0  0  0  0  0  0
   -1.9889   -1.0332   -1.4505 N   0  0  0  0  0  0  0  0  0  0  0  0
   -4.4295    0.8216    0.2672 C   0  0  2  0  0  3  0  0  0  0  0  0
   -4.1989    2.1334    0.6806 C   0  0  0  0  0  0  0  0  0  0  0  0
   -4.9605    2.8994    0.8568 H   0  0  0  0  0  0  0  0  0  0  0  0
   -2.7958    2.2672    0.8119 C   0  0  0  0  0  0  0  0  0  0  0  0
   -2.1866    3.1361    1.0840 H   0  0  0  0  0  0  0  0  0  0  0  0
   -5.6924    0.0914   -0.0453 C   0  0  0  0  0  0  0  0  0  0  0  0
   -5.7283   -0.2554   -1.1000 H   0  0  0  0  0  0  0  0  0  0  0  0
   -6.5559    0.7638    0.1060 H   0  0  0  0  0  0  0  0  0  0  0  0
   -5.8425   -0.7909    0.6121 H   0  0  0  0  0  0  0  0  0  0  0  0
   -2.5519   -3.0179    1.3974 C   0  0  2  0  0  3  0  0  0  0  0  0
   -1.5439   -3.3186    2.3114 C   0  0  0  0  0  0  0  0  0  0  0  0
   -1.5108   -4.1886    2.9748 H   0  0  0  0  0  0  0  0  0  0  0  0
   -0.5867   -2.2811    2.1972 C   0  0  0  0  0  0  0  0  0  0  0  0
    0.3699   -2.1457    2.7127 H   0  0  0  0  0  0  0  0  0  0  0  0
   -3.8170   -3.7283    1.0501 C   0  0  0  0  0  0  0  0  0  0  0  0
   -4.7173   -3.1066    1.2417 H   0  0  0  0  0  0  0  0  0  0  0  0
   -3.9120   -4.6392    1.6682 H   0  0  0  0  0  0  0  0  0  0  0  0
   -3.8424   -4.0504   -0.0130 H   0  0  0  0  0  0  0  0  0  0  0  0
   -2.2651   -1.5082   -2.7168 C   0  0  1  0  0  3  0  0  0  0  0  0
   -1.1597   -1.1659   -3.4924 C   0  0  0  0  0  0  0  0  0  0  0  0
   -1.0242   -1.3838   -4.5563 H   0  0  0  0  0  0  0  0  0  0  0  0
   -0.2631   -0.4852   -2.6358 C   0  0  0  0  0  0  0  0  0  0  0  0
    0.7227   -0.0476   -2.8283 H   0  0  0  0  0  0  0  0  0  0  0  0
   -3.5258   -2.2287   -3.0581 C   0  0  0  0  0  0  0  0  0  0  0  0
   -3.6504   -3.1639   -2.4717 H   0  0  0  0  0  0  0  0  0  0  0  0
   -3.5110   -2.5123   -4.1259 H   0  0  0  0  0  0  0  0  0  0  0  0
   -4.4281   -1.6004   -2.8992 H   0  0  0  0  0  0  0  0  0  0  0  0
   -2.8115   -1.0924   -0.2585 C   0  0  2  0  0  0  0  0  0  0  0  0
   -3.7402   -1.6273   -0.5211 H   0  0  0  0  0  0  0  0  0  0  0  0
  1 10  1  0  0  0  0
  2  7  1  0  0  0  0
  2  1  1  0  0  0  0
  3 19  1  0  0  0  0
  4  3  1  0  0  0  0
  4 16  1  0  0  0  0
  6  5  1  0  0  0  0
  6 34  1  0  0  0  0
  7 12  1  1  0  0  0
  7  8  1  0  0  0  0
  8 10  2  0  0  0  0
  8  9  1  0  0  0  0
 10 11  1  0  0  0  0
 12 14  1  0  0  0  0
 12 15  1  0  0  0  0
 13 12  1  0  0  0  0
 16 21  1  6  0  0  0
 16 17  1  0  0  0  0
 17 18  1  0  0  0  0
 19 17  2  0  0  0  0
 19 20  1  0  0  0  0
 21 22  1  0  0  0  0
 21 23  1  0  0  0  0
 24 21  1  0  0  0  0
 25 30  1  1  0  0  0
 25  6  1  0  0  0  0
 26 25  1  0  0  0  0
 26 28  2  0  0  0  0
 27 26  1  0  0  0  0
 28  5  1  0  0  0  0
 29 28  1  0  0  0  0
 30 33  1  0  0  0  0
 30 31  1  0  0  0  0
 32 30  1  0  0  0  0
 34 35  1  6  0  0  0
 34  2  1  0  0  0  0
 34  4  1  0  0  0  0
M  END
