1,4,7
 OpenBabel05122313063D

 73 75  0  0  0  0  0  0  0  0999 V2000
   -0.4401   -1.9747    0.8336 N   0  0  0  0  0  2  0  0  0  0  0  0
   -1.6042   -3.6775   -0.4786 N   0  0  0  0  0  0  0  0  0  0  0  0
    0.4984   -3.1636   -0.9726 N   0  0  0  0  0  0  0  0  0  0  0  0
   -1.4900    1.3688    0.8323 N   0  0  0  0  0  2  0  0  0  0  0  0
   -2.9900    1.1493   -0.9731 N   0  0  0  0  0  0  0  0  0  0  0  0
   -2.3846    3.2274   -0.4793 N   0  0  0  0  0  0  0  0  0  0  0  0
    1.9308    0.6058    0.8326 N   0  0  0  0  0  2  0  0  0  0  0  0
    2.4917    2.0137   -0.9732 N   0  0  0  0  0  0  0  0  0  0  0  0
    3.9880    0.4498   -0.4788 N   0  0  0  0  0  0  0  0  0  0  0  0
   -0.0001    0.0009    2.8179 N   0  0  0  0  0  0  0  0  0  0  0  0
   -0.5367   -2.8851   -0.1222 C   0  0  0  0  0  3  0  0  0  0  0  0
   -2.9266   -3.7110    0.0972 C   0  0  0  0  0  0  0  0  0  0  0  0
   -3.0833   -4.5960    0.7546 H   0  0  0  0  0  0  0  0  0  0  0  0
   -3.6856   -3.7504   -0.7122 H   0  0  0  0  0  0  0  0  0  0  0  0
   -3.1136   -2.7989    0.6858 H   0  0  0  0  0  0  0  0  0  0  0  0
   -1.2241   -4.6043   -1.5449 C   0  0  0  0  0  0  0  0  0  0  0  0
   -2.0384   -4.6927   -2.2913 H   0  0  0  0  0  0  0  0  0  0  0  0
   -1.0168   -5.6218   -1.1381 H   0  0  0  0  0  0  0  0  0  0  0  0
    0.0378   -3.9385   -2.1154 C   0  0  0  0  0  0  0  0  0  0  0  0
    0.8042   -4.6711   -2.4356 H   0  0  0  0  0  0  0  0  0  0  0  0
   -0.1906   -3.2633   -2.9727 H   0  0  0  0  0  0  0  0  0  0  0  0
    1.8158   -2.5881   -0.9010 C   0  0  0  0  0  0  0  0  0  0  0  0
    1.9389   -1.7543   -1.6253 H   0  0  0  0  0  0  0  0  0  0  0  0
    2.5788   -3.3728   -1.0879 H   0  0  0  0  0  0  0  0  0  0  0  0
    1.9522   -2.1830    0.1185 H   0  0  0  0  0  0  0  0  0  0  0  0
   -1.1372   -2.0761    2.1059 C   0  0  0  0  0  0  0  0  0  0  0  0
   -1.3143   -3.1310    2.4083 H   0  0  0  0  0  0  0  0  0  0  0  0
   -2.1360   -1.5746    2.0961 H   0  0  0  0  0  0  0  0  0  0  0  0
   -0.2722   -1.3959    3.1745 C   0  0  0  0  0  0  0  0  0  0  0  0
   -0.7526   -1.4800    4.1784 H   0  0  0  0  0  0  0  0  0  0  0  0
    0.6932   -1.9376    3.2268 H   0  0  0  0  0  0  0  0  0  0  0  0
   -2.2311    1.9069   -0.1232 C   0  0  0  0  0  3  0  0  0  0  0  0
   -3.1487   -0.2796   -0.9029 C   0  0  0  0  0  0  0  0  0  0  0  0
   -2.8665   -0.6012    0.1165 H   0  0  0  0  0  0  0  0  0  0  0  0
   -2.4871   -0.8016   -1.6273 H   0  0  0  0  0  0  0  0  0  0  0  0
   -4.2094   -0.5489   -1.0906 H   0  0  0  0  0  0  0  0  0  0  0  0
   -3.4324    1.9357   -2.1153 C   0  0  0  0  0  0  0  0  0  0  0  0
   -4.4502    1.6376   -2.4347 H   0  0  0  0  0  0  0  0  0  0  0  0
   -2.7343    1.7968   -2.9735 H   0  0  0  0  0  0  0  0  0  0  0  0
   -3.3786    3.3613   -1.5443 C   0  0  0  0  0  0  0  0  0  0  0  0
   -3.0495    4.1112   -2.2908 H   0  0  0  0  0  0  0  0  0  0  0  0
   -4.3632    3.6895   -1.1363 H   0  0  0  0  0  0  0  0  0  0  0  0
   -1.7513    4.3896    0.0951 C   0  0  0  0  0  0  0  0  0  0  0  0
   -0.8655    4.0960    0.6805 H   0  0  0  0  0  0  0  0  0  0  0  0
   -2.4376    4.9669    0.7552 H   0  0  0  0  0  0  0  0  0  0  0  0
   -1.4093    5.0672   -0.7151 H   0  0  0  0  0  0  0  0  0  0  0  0
   -1.2299    2.0237    2.1045 C   0  0  0  0  0  0  0  0  0  0  0  0
   -2.0548    2.7049    2.4063 H   0  0  0  0  0  0  0  0  0  0  0  0
   -0.2959    2.6376    2.0948 H   0  0  0  0  0  0  0  0  0  0  0  0
   -1.0737    0.9351    3.1737 C   0  0  0  0  0  0  0  0  0  0  0  0
   -0.9066    1.3937    4.1774 H   0  0  0  0  0  0  0  0  0  0  0  0
   -2.0256    0.3700    3.2261 H   0  0  0  0  0  0  0  0  0  0  0  0
    2.7678    0.9778   -0.1229 C   0  0  0  0  0  3  0  0  0  0  0  0
    1.3344    2.8666   -0.9025 C   0  0  0  0  0  0  0  0  0  0  0  0
    0.5510    2.5561   -1.6270 H   0  0  0  0  0  0  0  0  0  0  0  0
    1.6326    3.9197   -1.0895 H   0  0  0  0  0  0  0  0  0  0  0  0
    0.9149    2.7827    0.1168 H   0  0  0  0  0  0  0  0  0  0  0  0
    3.3938    2.0028   -2.1155 C   0  0  0  0  0  0  0  0  0  0  0  0
    3.6453    3.0330   -2.4350 H   0  0  0  0  0  0  0  0  0  0  0  0
    2.9239    1.4680   -2.9734 H   0  0  0  0  0  0  0  0  0  0  0  0
    4.6011    1.2426   -1.5447 C   0  0  0  0  0  0  0  0  0  0  0  0
    5.0847    0.5816   -2.2910 H   0  0  0  0  0  0  0  0  0  0  0  0
    5.3787    1.9305   -1.1376 H   0  0  0  0  0  0  0  0  0  0  0  0
    4.6769   -0.6803    0.0954 C   0  0  0  0  0  0  0  0  0  0  0  0
    3.9799   -1.2981    0.6837 H   0  0  0  0  0  0  0  0  0  0  0  0
    5.5223   -0.3753    0.7528 H   0  0  0  0  0  0  0  0  0  0  0  0
    5.0893   -1.3176   -0.7148 H   0  0  0  0  0  0  0  0  0  0  0  0
    2.3672    0.0542    2.1055 C   0  0  0  0  0  0  0  0  0  0  0  0
    3.3692    0.4286    2.4076 H   0  0  0  0  0  0  0  0  0  0  0  0
    2.4323   -1.0616    2.0968 H   0  0  0  0  0  0  0  0  0  0  0  0
    1.3456    0.4641    3.1738 C   0  0  0  0  0  0  0  0  0  0  0  0
    1.6587    0.0914    4.1781 H   0  0  0  0  0  0  0  0  0  0  0  0
    1.3318    1.5711    3.2246 H   0  0  0  0  0  0  0  0  0  0  0  0
  1 26  1  0  0  0  0
  2 11  1  0  0  0  0
  2 12  1  0  0  0  0
  3 22  1  0  0  0  0
  3 11  1  0  0  0  0
  4 47  1  0  0  0  0
  5 33  1  0  0  0  0
  5 32  1  0  0  0  0
  6 32  1  0  0  0  0
  6 43  1  0  0  0  0
  7 68  1  0  0  0  0
  8 54  1  0  0  0  0
  8 53  1  0  0  0  0
  9 53  1  0  0  0  0
  9 64  1  0  0  0  0
 10 50  1  0  0  0  0
 10 71  1  0  0  0  0
 10 29  1  0  0  0  0
 11  1  1  0  0  0  0
 12 15  1  0  0  0  0
 12 13  1  0  0  0  0
 14 12  1  0  0  0  0
 16 18  1  0  0  0  0
 16  2  1  0  0  0  0
 17 16  1  0  0  0  0
 19 16  1  0  0  0  0
 19  3  1  0  0  0  0
 20 19  1  0  0  0  0
 21 19  1  0  0  0  0
 22 25  1  0  0  0  0
 23 22  1  0  0  0  0
 24 22  1  0  0  0  0
 26 27  1  0  0  0  0
 26 29  1  0  0  0  0
 28 26  1  0  0  0  0
 29 31  1  0  0  0  0
 29 30  1  0  0  0  0
 32  4  1  0  0  0  0
 33 34  1  0  0  0  0
 35 33  1  0  0  0  0
 36 33  1  0  0  0  0
 37 40  1  0  0  0  0
 37  5  1  0  0  0  0
 38 37  1  0  0  0  0
 39 37  1  0  0  0  0
 40 42  1  0  0  0  0
 40  6  1  0  0  0  0
 41 40  1  0  0  0  0
 43 44  1  0  0  0  0
 43 45  1  0  0  0  0
 46 43  1  0  0  0  0
 47 48  1  0  0  0  0
 47 50  1  0  0  0  0
 49 47  1  0  0  0  0
 50 52  1  0  0  0  0
 50 51  1  0  0  0  0
 53  7  1  0  0  0  0
 54 57  1  0  0  0  0
 55 54  1  0  0  0  0
 56 54  1  0  0  0  0
 58 61  1  0  0  0  0
 58  8  1  0  0  0  0
 59 58  1  0  0  0  0
 60 58  1  0  0  0  0
 61 63  1  0  0  0  0
 61  9  1  0  0  0  0
 62 61  1  0  0  0  0
 64 65  1  0  0  0  0
 64 66  1  0  0  0  0
 67 64  1  0  0  0  0
 68 69  1  0  0  0  0
 68 71  1  0  0  0  0
 70 68  1  0  0  0  0
 71 73  1  0  0  0  0
 71 72  1  0  0  0  0
M  END
