1,11,14
 OpenBabel05122313063D

 39 39  0  0  1  0  0  0  0  0999 V2000
    0.0000    1.2516   -0.0398 N   0  0  0  0  0  2  0  0  0  0  0  0
   -1.2051    1.9199   -0.0948 C   0  0  0  0  0  0  0  0  0  0  0  0
   -1.2180    3.3220   -0.2237 C   0  0  0  0  0  0  0  0  0  0  0  0
   -2.1777    3.8535   -0.2787 H   0  0  0  0  0  0  0  0  0  0  0  0
    0.0001    4.0184   -0.2870 C   0  0  0  0  0  0  0  0  0  0  0  0
    0.0001    5.1131   -0.3896 H   0  0  0  0  0  0  0  0  0  0  0  0
    1.2181    3.3219   -0.2236 C   0  0  0  0  0  0  0  0  0  0  0  0
    2.1779    3.8534   -0.2787 H   0  0  0  0  0  0  0  0  0  0  0  0
    1.2051    1.9198   -0.0947 C   0  0  0  0  0  0  0  0  0  0  0  0
   -2.3232    1.0053   -0.0167 C   0  0  0  0  0  0  0  0  0  0  0  0
   -1.9285   -0.2707    0.0802 N   0  0  0  0  0  2  0  0  0  0  0  0
   -2.8953   -1.2605    0.0618 N   0  0  0  0  0  0  0  0  0  0  0  0
    2.3232    1.0052   -0.0167 C   0  0  2  0  0  3  0  0  0  0  0  0
    1.9284   -0.2708    0.0803 N   0  0  0  0  0  2  0  0  0  0  0  0
    2.8953   -1.2606    0.0619 N   0  0  0  0  0  0  0  0  0  0  0  0
   -3.7488    1.4475    0.0023 C   0  0  0  0  0  0  0  0  0  0  0  0
   -4.1811    1.5708   -1.0147 H   0  0  0  0  0  0  0  0  0  0  0  0
   -3.8440    2.4224    0.5190 H   0  0  0  0  0  0  0  0  0  0  0  0
   -4.3544    0.6888    0.5370 H   0  0  0  0  0  0  0  0  0  0  0  0
    3.7488    1.4473    0.0023 C   0  0  0  0  0  0  0  0  0  0  0  0
    3.8441    2.4222    0.5191 H   0  0  0  0  0  0  0  0  0  0  0  0
    4.1812    1.5705   -1.0147 H   0  0  0  0  0  0  0  0  0  0  0  0
    4.3544    0.6886    0.5370 H   0  0  0  0  0  0  0  0  0  0  0  0
   -3.5477   -1.4584   -1.2360 C   0  0  0  0  0  0  0  0  0  0  0  0
   -3.9940   -0.5181   -1.6069 H   0  0  0  0  0  0  0  0  0  0  0  0
   -4.3646   -2.1945   -1.1054 H   0  0  0  0  0  0  0  0  0  0  0  0
   -2.8202   -1.8350   -1.9898 H   0  0  0  0  0  0  0  0  0  0  0  0
   -2.4280   -2.5063    0.6616 C   0  0  0  0  0  0  0  0  0  0  0  0
   -1.9387   -2.2799    1.6274 H   0  0  0  0  0  0  0  0  0  0  0  0
   -1.7052   -3.0424    0.0025 H   0  0  0  0  0  0  0  0  0  0  0  0
   -3.3070   -3.1564    0.8396 H   0  0  0  0  0  0  0  0  0  0  0  0
    2.4278   -2.5065    0.6614 C   0  0  0  0  0  0  0  0  0  0  0  0
    1.9384   -2.2801    1.6273 H   0  0  0  0  0  0  0  0  0  0  0  0
    3.3067   -3.1567    0.8395 H   0  0  0  0  0  0  0  0  0  0  0  0
    1.7051   -3.0425    0.0021 H   0  0  0  0  0  0  0  0  0  0  0  0
    3.5478   -1.4584   -1.2359 C   0  0  0  0  0  0  0  0  0  0  0  0
    3.9941   -0.5180   -1.6066 H   0  0  0  0  0  0  0  0  0  0  0  0
    2.8203   -1.8348   -1.9899 H   0  0  0  0  0  0  0  0  0  0  0  0
    4.3647   -2.1945   -1.1053 H   0  0  0  0  0  0  0  0  0  0  0  0
  2  1  1  0  0  0  0
  2 10  2  0  0  0  0
  3  2  1  0  0  0  0
  4  3  1  0  0  0  0
  5  3  2  0  0  0  0
  5  7  1  0  0  0  0
  6  5  1  0  0  0  0
  7  9  2  0  0  0  0
  8  7  1  0  0  0  0
  9  1  1  0  0  0  0
  9 13  1  0  0  0  0
 10 16  1  0  0  0  0
 10 11  1  0  0  0  0
 12 11  1  0  0  0  0
 12 28  1  0  0  0  0
 13 20  1  0  0  0  0
 13 14  1  1  0  0  0
 15 14  1  0  0  0  0
 15 32  1  0  0  0  0
 16 18  1  0  0  0  0
 16 19  1  0  0  0  0
 17 16  1  0  0  0  0
 20 21  1  0  0  0  0
 20 23  1  0  0  0  0
 22 20  1  0  0  0  0
 24 26  1  0  0  0  0
 24 12  1  0  0  0  0
 25 24  1  0  0  0  0
 27 24  1  0  0  0  0
 28 31  1  0  0  0  0
 28 29  1  0  0  0  0
 30 28  1  0  0  0  0
 32 34  1  0  0  0  0
 32 33  1  0  0  0  0
 35 32  1  0  0  0  0
 36 39  1  0  0  0  0
 36 15  1  0  0  0  0
 37 36  1  0  0  0  0
 38 36  1  0  0  0  0
M  END
