2,4,5
 OpenBabel05122313063D

 41 43  0  0  1  0  0  0  0  0999 V2000
   -0.2961   -0.2788   -1.5517 N   0  0  0  0  0  0  0  0  0  0  0  0
   -1.5614   -0.9037    0.8238 N   0  0  0  0  0  2  0  0  0  0  0  0
   -3.4220   -1.6646   -0.0951 N   0  0  0  0  0  0  0  0  0  0  0  0
    1.8407   -1.0034    0.0908 N   0  0  0  0  0  2  0  0  0  0  0  0
    0.1119    1.9727    0.0313 N   0  0  0  0  0  2  0  0  0  0  0  0
   -1.7519   -0.4033   -1.6023 C   0  0  0  0  0  0  0  0  0  0  0  0
   -2.1085   -0.9779   -2.4909 H   0  0  0  0  0  0  0  0  0  0  0  0
   -2.1806    0.6177   -1.7071 H   0  0  0  0  0  0  0  0  0  0  0  0
   -2.2441   -1.0135   -0.3192 C   0  0  1  0  0  3  0  0  0  0  0  0
   -4.4716   -1.9362   -1.0691 C   0  0  0  0  0  0  0  0  0  0  0  0
   -5.1535   -1.0685   -1.1740 H   0  0  0  0  0  0  0  0  0  0  0  0
   -5.0571   -2.8127   -0.7377 H   0  0  0  0  0  0  0  0  0  0  0  0
   -4.0270   -2.1678   -2.0549 H   0  0  0  0  0  0  0  0  0  0  0  0
   -3.4799   -1.9658    1.2601 C   0  0  0  0  0  0  0  0  0  0  0  0
   -4.3342   -2.4948    1.6945 H   0  0  0  0  0  0  0  0  0  0  0  0
   -2.3119   -1.4864    1.8192 C   0  0  0  0  0  0  0  0  0  0  0  0
   -1.9556   -1.5155    2.8550 H   0  0  0  0  0  0  0  0  0  0  0  0
    0.4302   -1.5113   -1.8387 C   0  0  0  0  0  0  0  0  0  0  0  0
    0.5644   -1.6949   -2.9313 H   0  0  0  0  0  0  0  0  0  0  0  0
   -0.1811   -2.3557   -1.4508 H   0  0  0  0  0  0  0  0  0  0  0  0
    1.7757   -1.5648   -1.1371 C   0  0  2  0  0  3  0  0  0  0  0  0
    2.8862   -2.2150   -1.6941 C   0  0  0  0  0  0  0  0  0  0  0  0
    2.8173   -2.6568   -2.6992 H   0  0  0  0  0  0  0  0  0  0  0  0
    4.0731   -2.2941   -0.9498 C   0  0  0  0  0  0  0  0  0  0  0  0
    4.9559   -2.8005   -1.3681 H   0  0  0  0  0  0  0  0  0  0  0  0
    4.1200   -1.7180    0.3277 C   0  0  0  0  0  0  0  0  0  0  0  0
    5.0300   -1.7595    0.9426 H   0  0  0  0  0  0  0  0  0  0  0  0
    2.9766   -1.0745    0.8149 C   0  0  0  0  0  0  0  0  0  0  0  0
    2.9273   -0.5966    1.8097 H   0  0  0  0  0  0  0  0  0  0  0  0
    0.2442    0.9238   -2.1744 C   0  0  0  0  0  0  0  0  0  0  0  0
   -0.1589    1.1088   -3.1979 H   0  0  0  0  0  0  0  0  0  0  0  0
    1.3389    0.7732   -2.2982 H   0  0  0  0  0  0  0  0  0  0  0  0
    0.0488    2.1560   -1.3065 C   0  0  2  0  0  3  0  0  0  0  0  0
   -0.1173    3.4363   -1.8544 C   0  0  0  0  0  0  0  0  0  0  0  0
   -0.1759    3.5636   -2.9456 H   0  0  0  0  0  0  0  0  0  0  0  0
   -0.1985    4.5409   -0.9931 C   0  0  0  0  0  0  0  0  0  0  0  0
   -0.3284    5.5539   -1.4025 H   0  0  0  0  0  0  0  0  0  0  0  0
   -0.1125    4.3364    0.3914 C   0  0  0  0  0  0  0  0  0  0  0  0
   -0.1670    5.1751    1.0997 H   0  0  0  0  0  0  0  0  0  0  0  0
    0.0410    3.0291    0.8672 C   0  0  0  0  0  0  0  0  0  0  0  0
    0.1237    2.7815    1.9407 H   0  0  0  0  0  0  0  0  0  0  0  0
  2 16  1  0  0  0  0
  3 14  1  0  0  0  0
  4 28  1  0  0  0  0
  5 40  1  0  0  0  0
  6  1  1  0  0  0  0
  7  6  1  0  0  0  0
  8  6  1  0  0  0  0
  9  6  1  1  0  0  0
  9  3  1  0  0  0  0
  9  2  1  0  0  0  0
 10 12  1  0  0  0  0
 10  3  1  0  0  0  0
 11 10  1  0  0  0  0
 13 10  1  0  0  0  0
 14 15  1  0  0  0  0
 14 16  2  0  0  0  0
 16 17  1  0  0  0  0
 18  1  1  0  0  0  0
 18 20  1  0  0  0  0
 19 18  1  0  0  0  0
 21 18  1  1  0  0  0
 21  4  1  0  0  0  0
 22 21  1  0  0  0  0
 22 24  2  0  0  0  0
 23 22  1  0  0  0  0
 24 26  1  0  0  0  0
 25 24  1  0  0  0  0
 26 28  2  0  0  0  0
 26 27  1  0  0  0  0
 28 29  1  0  0  0  0
 30  1  1  0  0  0  0
 31 30  1  0  0  0  0
 32 30  1  0  0  0  0
 33 30  1  6  0  0  0
 33  5  1  0  0  0  0
 34 33  1  0  0  0  0
 34 36  2  0  0  0  0
 35 34  1  0  0  0  0
 36 38  1  0  0  0  0
 37 36  1  0  0  0  0
 38 40  2  0  0  0  0
 38 39  1  0  0  0  0
 40 41  1  0  0  0  0
M  END
