1,2,28
 OpenBabel05122313063D

 51 53  0  0  1  0  0  0  0  0999 V2000
    2.2308    1.0850   -0.1583 N   0  0  0  0  0  2  0  0  0  0  0  0
   -0.0000    2.5738   -0.1472 N   0  0  0  0  0  2  0  0  0  0  0  0
    1.9147   -1.5785   -0.3533 O   0  0  0  0  0  0  0  0  0  0  0  0
    3.3037    0.3001   -0.1512 N   0  0  0  0  0  2  0  0  0  0  0  0
    3.0508   -1.0529   -0.2288 C   0  0  0  0  0  0  0  0  0  0  0  0
    4.2864   -1.8799   -0.1699 C   0  0  0  0  0  0  0  0  0  0  0  0
    4.8147    0.4170   -0.0445 H   0  0  0  0  0  0  0  0  0  0  0  0
    5.5966   -1.2978   -0.0710 C   0  0  0  0  0  0  0  0  0  0  0  0
    5.7935    0.0187   -0.0087 O   0  0  0  0  0  0  0  0  0  0  0  0
    6.7195   -2.1652   -0.0408 C   0  0  0  0  0  0  0  0  0  0  0  0
    7.7156   -1.7037    0.0340 H   0  0  0  0  0  0  0  0  0  0  0  0
    6.5580   -3.5507   -0.0996 C   0  0  0  0  0  0  0  0  0  0  0  0
    7.4486   -4.1995   -0.0707 H   0  0  0  0  0  0  0  0  0  0  0  0
    5.2722   -4.1240   -0.1927 C   0  0  0  0  0  0  0  0  0  0  0  0
    5.1499   -5.2167   -0.2351 H   0  0  0  0  0  0  0  0  0  0  0  0
    4.1569   -3.2840   -0.2281 C   0  0  0  0  0  0  0  0  0  0  0  0
    3.1330   -3.6811   -0.2993 H   0  0  0  0  0  0  0  0  0  0  0  0
    2.4046    2.3892   -0.1792 C   0  0  0  0  0  0  0  0  0  0  0  0
    3.7891    2.9741   -0.2064 C   0  0  0  0  0  0  0  0  0  0  0  0
    4.3728    2.5320   -1.0413 H   0  0  0  0  0  0  0  0  0  0  0  0
    4.3382    2.7011    0.7205 H   0  0  0  0  0  0  0  0  0  0  0  0
    3.8036    4.0727   -0.3090 H   0  0  0  0  0  0  0  0  0  0  0  0
    1.1836    3.2196   -0.1826 C   0  0  0  0  0  0  0  0  0  0  0  0
    1.2141    4.6371   -0.2326 C   0  0  0  0  0  0  0  0  0  0  0  0
    2.1661    5.1825   -0.2535 H   0  0  0  0  0  0  0  0  0  0  0  0
   -0.0000    5.3326   -0.2528 C   0  0  0  0  0  0  0  0  0  0  0  0
   -0.0000    6.4333   -0.2871 H   0  0  0  0  0  0  0  0  0  0  0  0
   -2.2308    1.0850   -0.1582 N   0  0  0  0  0  2  0  0  0  0  0  0
   -3.3037    0.3001   -0.1511 N   0  0  0  0  0  2  0  0  0  0  0  0
   -3.0508   -1.0529   -0.2288 C   0  0  0  0  0  0  0  0  0  0  0  0
   -1.9147   -1.5785   -0.3533 O   0  0  0  0  0  0  0  0  0  0  0  0
   -1.2141    4.6371   -0.2326 C   0  0  0  0  0  0  0  0  0  0  0  0
   -1.1836    3.2196   -0.1825 C   0  0  0  0  0  0  0  0  0  0  0  0
   -2.4046    2.3892   -0.1792 C   0  0  1  0  0  3  0  0  0  0  0  0
   -3.7892    2.9741   -0.2063 C   0  0  0  0  0  0  0  0  0  0  0  0
   -4.3728    2.5320   -1.0413 H   0  0  0  0  0  0  0  0  0  0  0  0
   -4.3382    2.7010    0.7206 H   0  0  0  0  0  0  0  0  0  0  0  0
   -3.8036    4.0727   -0.3088 H   0  0  0  0  0  0  0  0  0  0  0  0
   -2.1661    5.1825   -0.2535 H   0  0  0  0  0  0  0  0  0  0  0  0
   -4.2864   -1.8799   -0.1700 C   0  0  0  0  0  0  0  0  0  0  0  0
   -5.5966   -1.2978   -0.0710 C   0  0  0  0  0  0  0  0  0  0  0  0
   -5.7935    0.0187   -0.0085 O   0  0  0  0  0  0  0  0  0  0  0  0
   -4.8147    0.4170   -0.0443 H   0  0  0  0  0  0  0  0  0  0  0  0
   -6.7195   -2.1652   -0.0408 C   0  0  0  0  0  0  0  0  0  0  0  0
   -7.7156   -1.7037    0.0340 H   0  0  0  0  0  0  0  0  0  0  0  0
   -6.5580   -3.5507   -0.0997 C   0  0  0  0  0  0  0  0  0  0  0  0
   -7.4486   -4.1995   -0.0709 H   0  0  0  0  0  0  0  0  0  0  0  0
   -5.2722   -4.1240   -0.1929 C   0  0  0  0  0  0  0  0  0  0  0  0
   -5.1500   -5.2167   -0.2353 H   0  0  0  0  0  0  0  0  0  0  0  0
   -4.1570   -3.2840   -0.2282 C   0  0  0  0  0  0  0  0  0  0  0  0
   -3.1330   -3.6811   -0.2995 H   0  0  0  0  0  0  0  0  0  0  0  0
  1  4  1  0  0  0  0
  3  5  2  0  0  0  0
  5  6  1  0  0  0  0
  5  4  1  0  0  0  0
  6  8  1  0  0  0  0
  7  9  1  0  0  0  0
  8 10  2  0  0  0  0
  8  9  1  0  0  0  0
 10 11  1  0  0  0  0
 12 13  1  0  0  0  0
 12 10  1  0  0  0  0
 14 12  2  0  0  0  0
 15 14  1  0  0  0  0
 16 14  1  0  0  0  0
 16  6  2  0  0  0  0
 17 16  1  0  0  0  0
 18  1  1  0  0  0  0
 19 18  1  0  0  0  0
 19 21  1  0  0  0  0
 20 19  1  0  0  0  0
 22 19  1  0  0  0  0
 23 18  2  0  0  0  0
 23  2  1  0  0  0  0
 24 23  1  0  0  0  0
 25 24  1  0  0  0  0
 26 24  2  0  0  0  0
 26 32  1  0  0  0  0
 27 26  1  0  0  0  0
 28 29  1  0  0  0  0
 30 40  1  0  0  0  0
 30 29  1  0  0  0  0
 31 30  2  0  0  0  0
 32 33  2  0  0  0  0
 33 34  1  0  0  0  0
 33  2  1  0  0  0  0
 34 28  1  6  0  0  0
 35 34  1  0  0  0  0
 35 37  1  0  0  0  0
 36 35  1  0  0  0  0
 38 35  1  0  0  0  0
 39 32  1  0  0  0  0
 40 41  1  0  0  0  0
 41 44  2  0  0  0  0
 41 42  1  0  0  0  0
 43 42  1  0  0  0  0
 44 45  1  0  0  0  0
 46 47  1  0  0  0  0
 46 44  1  0  0  0  0
 48 46  2  0  0  0  0
 49 48  1  0  0  0  0
 50 48  1  0  0  0  0
 50 40  2  0  0  0  0
 51 50  1  0  0  0  0
M  END
