3,4,5
 OpenBabel05122313063D

 45 47  0  0  1  0  0  0  0  0999 V2000
    3.4498    1.5181   -0.9048 O   0  0  0  0  0  0  0  0  0  0  0  0
   -3.4027    1.6523    0.9249 O   0  0  0  0  0  0  0  0  0  0  0  0
    1.8874   -0.0193   -0.3532 N   0  0  0  0  0  2  0  0  0  0  0  0
    0.0191    1.6324   -0.0079 N   0  0  0  0  0  2  0  0  0  0  0  0
   -1.8879    0.0764    0.3440 N   0  0  0  0  0  2  0  0  0  0  0  0
    3.0795   -0.8360   -0.6393 C   0  0  1  0  0  0  0  0  0  0  0  0
    2.7861   -1.6036   -1.3800 H   0  0  0  0  0  0  0  0  0  0  0  0
    4.0408    0.2189   -1.2483 C   0  0  0  0  0  0  0  0  0  0  0  0
    5.0625    0.1937   -0.8261 H   0  0  0  0  0  0  0  0  0  0  0  0
    4.0916    0.1718   -2.3543 H   0  0  0  0  0  0  0  0  0  0  0  0
    2.2106    1.2366   -0.5045 C   0  0  0  0  0  0  0  0  0  0  0  0
    1.1845    2.2514   -0.2707 C   0  0  0  0  0  0  0  0  0  0  0  0
    1.2589    3.6531   -0.2987 C   0  0  0  0  0  0  0  0  0  0  0  0
    2.2112    4.1525   -0.5217 H   0  0  0  0  0  0  0  0  0  0  0  0
    0.0848    4.3792   -0.0317 C   0  0  0  0  0  0  0  0  0  0  0  0
    0.1116    5.4784   -0.0408 H   0  0  0  0  0  0  0  0  0  0  0  0
   -1.1259    3.7156    0.2471 C   0  0  0  0  0  0  0  0  0  0  0  0
   -2.0529    4.2643    0.4610 H   0  0  0  0  0  0  0  0  0  0  0  0
   -1.1161    2.3134    0.2419 C   0  0  0  0  0  0  0  0  0  0  0  0
   -2.1813    1.3396    0.4931 C   0  0  2  0  0  3  0  0  0  0  0  0
   -4.0116    0.3634    1.2949 C   0  0  0  0  0  0  0  0  0  0  0  0
   -5.0442    0.3575    0.8994 H   0  0  0  0  0  0  0  0  0  0  0  0
   -4.0344    0.3272    2.4022 H   0  0  0  0  0  0  0  0  0  0  0  0
   -3.0866   -0.7131    0.6676 C   0  0  1  0  0  0  0  0  0  0  0  0
   -2.7741   -1.4764    1.4062 H   0  0  0  0  0  0  0  0  0  0  0  0
    3.6094   -1.5623    0.6203 C   0  0  0  0  0  0  0  0  0  0  0  0
    2.7349   -2.1235    1.0091 H   0  0  0  0  0  0  0  0  0  0  0  0
    4.0993   -0.6044    1.7099 C   0  0  0  0  0  0  0  0  0  0  0  0
    4.4000   -1.1756    2.6110 H   0  0  0  0  0  0  0  0  0  0  0  0
    3.3002    0.0983    2.0157 H   0  0  0  0  0  0  0  0  0  0  0  0
    4.9894   -0.0229    1.3869 H   0  0  0  0  0  0  0  0  0  0  0  0
    4.6784   -2.5829    0.2151 C   0  0  0  0  0  0  0  0  0  0  0  0
    5.0281   -3.1524    1.0990 H   0  0  0  0  0  0  0  0  0  0  0  0
    5.5712   -2.0908   -0.2286 H   0  0  0  0  0  0  0  0  0  0  0  0
    4.2847   -3.3099   -0.5238 H   0  0  0  0  0  0  0  0  0  0  0  0
   -3.6544   -1.4276   -0.5809 C   0  0  0  0  0  0  0  0  0  0  0  0
   -2.7986   -1.9999   -0.9896 H   0  0  0  0  0  0  0  0  0  0  0  0
   -4.1276   -0.4562   -1.6656 C   0  0  0  0  0  0  0  0  0  0  0  0
   -3.3150    0.2254   -1.9849 H   0  0  0  0  0  0  0  0  0  0  0  0
   -4.9981    0.1542   -1.3416 H   0  0  0  0  0  0  0  0  0  0  0  0
   -4.4418   -1.0181   -2.5673 H   0  0  0  0  0  0  0  0  0  0  0  0
   -4.7486   -2.4134   -0.1610 C   0  0  0  0  0  0  0  0  0  0  0  0
   -5.1219   -2.9774   -1.0388 H   0  0  0  0  0  0  0  0  0  0  0  0
   -5.6241   -1.8975    0.2910 H   0  0  0  0  0  0  0  0  0  0  0  0
   -4.3658   -3.1476    0.5762 H   0  0  0  0  0  0  0  0  0  0  0  0
  1 11  1  0  0  0  0
  2 21  1  0  0  0  0
  4 19  1  0  0  0  0
  5 20  1  0  0  0  0
  5 24  1  0  0  0  0
  6  7  1  6  0  0  0
  6  3  1  0  0  0  0
  6 26  1  0  0  0  0
  8  1  1  0  0  0  0
  8  9  1  0  0  0  0
  8  6  1  0  0  0  0
 10  8  1  0  0  0  0
 11  3  1  0  0  0  0
 11 12  2  0  0  0  0
 12  4  1  0  0  0  0
 13 12  1  0  0  0  0
 13 15  2  0  0  0  0
 14 13  1  0  0  0  0
 15 17  1  0  0  0  0
 16 15  1  0  0  0  0
 17 18  1  0  0  0  0
 19 17  2  0  0  0  0
 20 19  1  1  0  0  0
 20  2  1  0  0  0  0
 21 23  1  0  0  0  0
 22 21  1  0  0  0  0
 24 21  1  0  0  0  0
 24 25  1  1  0  0  0
 26 27  1  0  0  0  0
 26 28  1  0  0  0  0
 28 30  1  0  0  0  0
 28 29  1  0  0  0  0
 31 28  1  0  0  0  0
 32 26  1  0  0  0  0
 32 33  1  0  0  0  0
 34 32  1  0  0  0  0
 35 32  1  0  0  0  0
 36 42  1  0  0  0  0
 36 24  1  0  0  0  0
 37 36  1  0  0  0  0
 38 40  1  0  0  0  0
 38 36  1  0  0  0  0
 39 38  1  0  0  0  0
 41 38  1  0  0  0  0
 42 44  1  0  0  0  0
 42 45  1  0  0  0  0
 43 42  1  0  0  0  0
M  END
