2,5,8
 OpenBabel05122313063D

 52 54  0  0  1  0  0  0  0  0999 V2000
   -1.2828   -0.6625    2.8392 P   0  0  2  0  0  0  0  0  0  0  0  0
    0.5271    1.0071    1.3963 N   0  0  0  0  0  2  0  0  0  0  0  0
    1.1719    2.5082    2.8514 N   0  0  0  0  0  0  0  0  0  0  0  0
    1.6737    3.3015    3.2544 H   0  0  0  0  0  0  0  0  0  0  0  0
    0.4200   -1.5877    0.7447 N   0  0  0  0  0  2  0  0  0  0  0  0
    0.9408   -3.6345    1.3162 N   0  0  0  0  0  0  0  0  0  0  0  0
    1.3778   -4.5574    1.2884 H   0  0  0  0  0  0  0  0  0  0  0  0
   -2.1320   -0.0339    0.1922 N   0  0  0  0  0  2  0  0  0  0  0  0
   -4.3372   -0.0500    0.3491 N   0  0  0  0  0  0  0  0  0  0  0  0
   -5.3188    0.0033    0.0705 H   0  0  0  0  0  0  0  0  0  0  0  0
    1.3310    2.0679    1.5671 C   0  0  1  0  0  3  0  0  0  0  0  0
    0.2678    1.7034    3.5127 C   0  0  0  0  0  0  0  0  0  0  0  0
   -0.0084    1.8574    4.5601 H   0  0  0  0  0  0  0  0  0  0  0  0
   -0.1408    0.7527    2.5941 C   0  0  0  0  0  0  0  0  0  0  0  0
    2.2515    2.6862    0.5573 C   0  0  0  0  0  0  0  0  0  0  0  0
    2.3324    1.9378   -0.2589 H   0  0  0  0  0  0  0  0  0  0  0  0
    1.6544    3.9815   -0.0255 C   0  0  0  0  0  0  0  0  0  0  0  0
    1.5353    4.7616    0.7552 H   0  0  0  0  0  0  0  0  0  0  0  0
    0.6683    3.7922   -0.4891 H   0  0  0  0  0  0  0  0  0  0  0  0
    2.3262    4.3887   -0.8068 H   0  0  0  0  0  0  0  0  0  0  0  0
    3.6557    2.9137    1.1428 C   0  0  0  0  0  0  0  0  0  0  0  0
    3.6573    3.6819    1.9456 H   0  0  0  0  0  0  0  0  0  0  0  0
    4.3376    3.2840    0.3523 H   0  0  0  0  0  0  0  0  0  0  0  0
    4.0860    1.9815    1.5605 H   0  0  0  0  0  0  0  0  0  0  0  0
    1.1376   -2.6601    0.3780 C   0  0  1  0  0  3  0  0  0  0  0  0
    0.0992   -3.1676    2.3045 C   0  0  0  0  0  0  0  0  0  0  0  0
   -0.1926   -3.7712    3.1691 H   0  0  0  0  0  0  0  0  0  0  0  0
   -0.2311   -1.8729    1.9450 C   0  0  0  0  0  0  0  0  0  0  0  0
    2.0001   -2.8023   -0.8408 C   0  0  0  0  0  0  0  0  0  0  0  0
    2.1715   -1.7646   -1.1978 H   0  0  0  0  0  0  0  0  0  0  0  0
    1.2715   -3.5848   -1.9507 C   0  0  0  0  0  0  0  0  0  0  0  0
    1.0572   -4.6279   -1.6376 H   0  0  0  0  0  0  0  0  0  0  0  0
    1.9048   -3.6296   -2.8588 H   0  0  0  0  0  0  0  0  0  0  0  0
    0.3188   -3.0943   -2.2241 H   0  0  0  0  0  0  0  0  0  0  0  0
    3.3629   -3.4268   -0.4979 C   0  0  0  0  0  0  0  0  0  0  0  0
    3.8882   -2.8642    0.2998 H   0  0  0  0  0  0  0  0  0  0  0  0
    4.0102   -3.4353   -1.3966 H   0  0  0  0  0  0  0  0  0  0  0  0
    3.2699   -4.4839   -0.1681 H   0  0  0  0  0  0  0  0  0  0  0  0
   -3.2640    0.1164   -0.4936 C   0  0  1  0  0  3  0  0  0  0  0  0
   -3.8696   -0.3236    1.6153 C   0  0  0  0  0  0  0  0  0  0  0  0
   -4.5335   -0.5095    2.4657 H   0  0  0  0  0  0  0  0  0  0  0  0
   -2.4859   -0.3103    1.5024 C   0  0  0  0  0  0  0  0  0  0  0  0
   -3.3875    0.4645   -1.9530 C   0  0  0  0  0  0  0  0  0  0  0  0
   -2.5626   -0.0821   -2.4567 H   0  0  0  0  0  0  0  0  0  0  0  0
   -4.7150   -0.0145   -2.5566 C   0  0  0  0  0  0  0  0  0  0  0  0
   -4.8768   -1.1003   -2.4040 H   0  0  0  0  0  0  0  0  0  0  0  0
   -4.7299    0.1791   -3.6464 H   0  0  0  0  0  0  0  0  0  0  0  0
   -5.5813    0.5361   -2.1301 H   0  0  0  0  0  0  0  0  0  0  0  0
   -3.1742    1.9755   -2.1787 C   0  0  0  0  0  0  0  0  0  0  0  0
   -3.9830    2.5631   -1.6977 H   0  0  0  0  0  0  0  0  0  0  0  0
   -3.1804    2.2057   -3.2624 H   0  0  0  0  0  0  0  0  0  0  0  0
   -2.2063    2.3117   -1.7609 H   0  0  0  0  0  0  0  0  0  0  0  0
  1 42  1  6  0  0  0
  2 11  1  0  0  0  0
  2 14  1  0  0  0  0
  3  4  1  0  0  0  0
  3 12  1  0  0  0  0
  5 28  1  0  0  0  0
  6 26  1  0  0  0  0
  7  6  1  0  0  0  0
  8 42  1  0  0  0  0
  9 40  1  0  0  0  0
 10  9  1  0  0  0  0
 11 15  1  1  0  0  0
 11  3  1  0  0  0  0
 12 13  1  0  0  0  0
 14  1  1  0  0  0  0
 14 12  2  0  0  0  0
 15 21  1  0  0  0  0
 16 15  1  0  0  0  0
 17 15  1  0  0  0  0
 17 18  1  0  0  0  0
 19 17  1  0  0  0  0
 20 17  1  0  0  0  0
 21 24  1  0  0  0  0
 21 22  1  0  0  0  0
 23 21  1  0  0  0  0
 25 29  1  6  0  0  0
 25  5  1  0  0  0  0
 25  6  1  0  0  0  0
 26 27  1  0  0  0  0
 28 26  2  0  0  0  0
 28  1  1  0  0  0  0
 29 35  1  0  0  0  0
 30 29  1  0  0  0  0
 31 32  1  0  0  0  0
 31 29  1  0  0  0  0
 33 31  1  0  0  0  0
 34 31  1  0  0  0  0
 35 38  1  0  0  0  0
 35 36  1  0  0  0  0
 37 35  1  0  0  0  0
 39 43  1  1  0  0  0
 39  8  1  0  0  0  0
 39  9  1  0  0  0  0
 40 41  1  0  0  0  0
 42 40  2  0  0  0  0
 44 43  1  0  0  0  0
 45 46  1  0  0  0  0
 45 48  1  0  0  0  0
 45 43  1  0  0  0  0
 47 45  1  0  0  0  0
 49 43  1  0  0  0  0
 49 52  1  0  0  0  0
 49 50  1  0  0  0  0
 51 49  1  0  0  0  0
M  END
