1,3,5
 OpenBabel05122313063D

 64 65  0  0  0  0  0  0  0  0999 V2000
    1.9852    0.0148    0.3622 N   0  0  0  0  0  0  0  0  0  0  0  0
    2.0526    0.9964    0.6831 H   0  0  0  0  0  0  0  0  0  0  0  0
    0.0127   -1.1847    1.7850 N   0  0  0  0  0  0  0  0  0  0  0  0
    0.0031   -2.1889    1.5365 H   0  0  0  0  0  0  0  0  0  0  0  0
   -1.9386   -0.0139    0.3150 N   0  0  0  0  0  0  0  0  0  0  0  0
   -1.9949    0.9691    0.6329 H   0  0  0  0  0  0  0  0  0  0  0  0
   -4.6988    1.4131   -0.1885 C   0  0  0  0  0  0  0  0  0  0  0  0
   -2.3550   -0.9062    1.4253 C   0  0  0  0  0  0  0  0  0  0  0  0
   -2.4602   -1.9315    1.0135 H   0  0  0  0  0  0  0  0  0  0  0  0
   -3.3445   -0.6128    1.8324 H   0  0  0  0  0  0  0  0  0  0  0  0
    2.8259   -0.0909   -0.8726 C   0  0  0  0  0  0  0  0  0  0  0  0
    2.4125    0.6641   -1.5700 H   0  0  0  0  0  0  0  0  0  0  0  0
    2.6155   -1.0824   -1.3125 H   0  0  0  0  0  0  0  0  0  0  0  0
   -1.2610   -0.8632    2.4780 C   0  0  0  0  0  0  0  0  0  0  0  0
   -1.1639    0.1567    2.9058 H   0  0  0  0  0  0  0  0  0  0  0  0
   -1.4605   -1.5621    3.3181 H   0  0  0  0  0  0  0  0  0  0  0  0
    2.3909   -0.8886    1.4678 C   0  0  0  0  0  0  0  0  0  0  0  0
    3.3692   -0.5930    1.9004 H   0  0  0  0  0  0  0  0  0  0  0  0
    2.5191   -1.9066    1.0441 H   0  0  0  0  0  0  0  0  0  0  0  0
    7.0629    0.5204   -0.0754 C   0  0  0  0  0  0  0  0  0  0  0  0
   -4.2631    0.1307   -0.6169 C   0  0  0  0  0  0  0  0  0  0  0  0
    6.1368    1.5679    0.0678 C   0  0  0  0  0  0  0  0  0  0  0  0
    6.4944    2.5612    0.3836 H   0  0  0  0  0  0  0  0  0  0  0  0
    1.2772   -0.8755    2.5024 C   0  0  0  0  0  0  0  0  0  0  0  0
    1.4662   -1.5896    3.3320 H   0  0  0  0  0  0  0  0  0  0  0  0
    1.1693    0.1351    2.9493 H   0  0  0  0  0  0  0  0  0  0  0  0
   -4.7992   -2.3016   -1.2412 C   0  0  0  0  0  0  0  0  0  0  0  0
   -5.6725   -2.9797   -1.2677 H   0  0  0  0  0  0  0  0  0  0  0  0
   -4.0353   -2.7800   -0.5924 H   0  0  0  0  0  0  0  0  0  0  0  0
   -4.3754   -2.2741   -2.2669 H   0  0  0  0  0  0  0  0  0  0  0  0
    5.2158   -0.9590   -0.7585 C   0  0  0  0  0  0  0  0  0  0  0  0
    4.7654    1.3917   -0.1893 C   0  0  0  0  0  0  0  0  0  0  0  0
    6.5766   -0.7339   -0.4898 C   0  0  0  0  0  0  0  0  0  0  0  0
    7.2857   -1.5678   -0.6153 H   0  0  0  0  0  0  0  0  0  0  0  0
   -7.0104    0.5849   -0.0391 C   0  0  0  0  0  0  0  0  0  0  0  0
    4.2981    0.1163   -0.6053 C   0  0  0  0  0  0  0  0  0  0  0  0
   -2.7997   -0.1077   -0.9093 C   0  0  0  0  0  0  0  0  0  0  0  0
   -2.6347   -1.1079   -1.3458 H   0  0  0  0  0  0  0  0  0  0  0  0
   -2.3819    0.6371   -1.6149 H   0  0  0  0  0  0  0  0  0  0  0  0
   -6.0623    1.6140    0.0919 C   0  0  0  0  0  0  0  0  0  0  0  0
   -6.3956    2.6128    0.4168 H   0  0  0  0  0  0  0  0  0  0  0  0
   -6.5550   -0.6770   -0.4656 C   0  0  0  0  0  0  0  0  0  0  0  0
   -7.2816   -1.4971   -0.5813 H   0  0  0  0  0  0  0  0  0  0  0  0
   -5.2035   -0.9266   -0.7586 C   0  0  0  0  0  0  0  0  0  0  0  0
    8.5332    0.7379    0.1676 C   0  0  0  0  0  0  0  0  0  0  0  0
    9.0634    0.9295   -0.7898 H   0  0  0  0  0  0  0  0  0  0  0  0
    9.0077   -0.1525    0.6252 H   0  0  0  0  0  0  0  0  0  0  0  0
    8.7173    1.6094    0.8247 H   0  0  0  0  0  0  0  0  0  0  0  0
   -3.7396    2.5681   -0.0035 C   0  0  0  0  0  0  0  0  0  0  0  0
   -3.3164    2.5935    1.0275 H   0  0  0  0  0  0  0  0  0  0  0  0
   -4.2586    3.5370   -0.1339 H   0  0  0  0  0  0  0  0  0  0  0  0
   -2.8850    2.5535   -0.7088 H   0  0  0  0  0  0  0  0  0  0  0  0
    4.7777   -2.3283   -1.2274 C   0  0  0  0  0  0  0  0  0  0  0  0
    4.0355   -2.7985   -0.5476 H   0  0  0  0  0  0  0  0  0  0  0  0
    5.6411   -3.0168   -1.2870 H   0  0  0  0  0  0  0  0  0  0  0  0
    4.3146   -2.2956   -2.2357 H   0  0  0  0  0  0  0  0  0  0  0  0
   -8.4719    0.8291    0.2297 C   0  0  0  0  0  0  0  0  0  0  0  0
   -8.9544   -0.0525    0.6958 H   0  0  0  0  0  0  0  0  0  0  0  0
   -9.0154    1.0303   -0.7183 H   0  0  0  0  0  0  0  0  0  0  0  0
   -8.6286    1.7038    0.8897 H   0  0  0  0  0  0  0  0  0  0  0  0
    3.8305    2.5647    0.0067 C   0  0  0  0  0  0  0  0  0  0  0  0
    3.4196    2.5975    1.0424 H   0  0  0  0  0  0  0  0  0  0  0  0
    2.9680    2.5658   -0.6893 H   0  0  0  0  0  0  0  0  0  0  0  0
    4.3657    3.5239   -0.1296 H   0  0  0  0  0  0  0  0  0  0  0  0
  1  2  1  0  0  0  0
  1 17  1  0  0  0  0
  3 14  1  0  0  0  0
  3 24  1  0  0  0  0
  4  3  1  0  0  0  0
  5  6  1  0  0  0  0
  5  8  1  0  0  0  0
  7 49  1  0  0  0  0
  7 40  1  0  0  0  0
  8 10  1  0  0  0  0
  8 14  1  0  0  0  0
  9  8  1  0  0  0  0
 11 36  1  0  0  0  0
 11  1  1  0  0  0  0
 12 11  1  0  0  0  0
 13 11  1  0  0  0  0
 14 15  1  0  0  0  0
 14 16  1  0  0  0  0
 17 18  1  0  0  0  0
 17 24  1  0  0  0  0
 19 17  1  0  0  0  0
 20 22  1  0  0  0  0
 20 45  1  0  0  0  0
 21  7  2  0  0  0  0
 22 23  1  0  0  0  0
 24 26  1  0  0  0  0
 24 25  1  0  0  0  0
 27 44  1  0  0  0  0
 27 29  1  0  0  0  0
 28 27  1  0  0  0  0
 30 27  1  0  0  0  0
 31 36  2  0  0  0  0
 31 33  1  0  0  0  0
 32 61  1  0  0  0  0
 32 22  2  0  0  0  0
 33 20  2  0  0  0  0
 34 33  1  0  0  0  0
 35 40  2  0  0  0  0
 35 57  1  0  0  0  0
 36 32  1  0  0  0  0
 37 21  1  0  0  0  0
 37  5  1  0  0  0  0
 38 37  1  0  0  0  0
 39 37  1  0  0  0  0
 40 41  1  0  0  0  0
 42 35  1  0  0  0  0
 43 42  1  0  0  0  0
 44 21  1  0  0  0  0
 44 42  2  0  0  0  0
 45 47  1  0  0  0  0
 45 48  1  0  0  0  0
 46 45  1  0  0  0  0
 49 50  1  0  0  0  0
 51 49  1  0  0  0  0
 52 49  1  0  0  0  0
 53 31  1  0  0  0  0
 53 54  1  0  0  0  0
 55 53  1  0  0  0  0
 56 53  1  0  0  0  0
 57 58  1  0  0  0  0
 57 60  1  0  0  0  0
 59 57  1  0  0  0  0
 61 62  1  0  0  0  0
 63 61  1  0  0  0  0
 64 61  1  0  0  0  0
M  END
