1,2,3
 OpenBabel05122313063D

 72 73  0  0  1  0  0  0  0  0999 V2000
   -1.6339    0.2555    0.0117 N   0  0  0  0  0  2  0  0  0  0  0  0
   -0.3886    2.3638   -0.0780 N   0  0  0  0  0  2  0  0  0  0  0  0
    1.9281    1.6482    0.2322 N   0  0  0  0  0  2  0  0  0  0  0  0
    3.9355   -1.3253   -0.0933 N   0  3  0  0  0  0  0  0  0  0  0  0
   -3.9518    1.2009   -0.1598 C   0  0  0  0  0  0  0  0  0  0  0  0
   -4.2983    0.1897    0.1187 H   0  0  0  0  0  0  0  0  0  0  0  0
   -4.3239    1.4196   -1.1833 H   0  0  0  0  0  0  0  0  0  0  0  0
   -4.4195    1.9382    0.5225 H   0  0  0  0  0  0  0  0  0  0  0  0
   -2.4585    1.2977   -0.1130 C   0  0  0  0  0  0  0  0  0  0  0  0
   -1.7515    2.5549   -0.1879 C   0  0  0  0  0  0  0  0  0  0  0  0
   -2.2746    3.8487   -0.3052 C   0  0  0  0  0  0  0  0  0  0  0  0
   -3.3603    3.9952   -0.3928 H   0  0  0  0  0  0  0  0  0  0  0  0
   -1.3978    4.9512   -0.2978 C   0  0  0  0  0  0  0  0  0  0  0  0
   -1.7958    5.9715   -0.3870 H   0  0  0  0  0  0  0  0  0  0  0  0
   -0.0179    4.7458   -0.1602 C   0  0  0  0  0  0  0  0  0  0  0  0
    0.6691    5.6031   -0.1342 H   0  0  0  0  0  0  0  0  0  0  0  0
    0.4833    3.4348   -0.0416 C   0  0  0  0  0  0  0  0  0  0  0  0
    1.8360    2.9898    0.1510 C   0  0  1  0  0  3  0  0  0  0  0  0
    2.9966    3.9347    0.2703 C   0  0  0  0  0  0  0  0  0  0  0  0
    3.8009    3.7077   -0.4599 H   0  0  0  0  0  0  0  0  0  0  0  0
    3.4490    3.9185    1.2848 H   0  0  0  0  0  0  0  0  0  0  0  0
    2.6738    4.9735    0.0805 H   0  0  0  0  0  0  0  0  0  0  0  0
    3.2184    1.0389    0.5437 C   0  0  0  0  0  0  0  0  0  0  0  0
    3.0977    0.4688    1.4900 H   0  0  0  0  0  0  0  0  0  0  0  0
    3.9829    1.8116    0.7527 H   0  0  0  0  0  0  0  0  0  0  0  0
    3.7465    0.0967   -0.5620 C   0  0  0  0  0  0  0  0  0  0  0  0
    3.0315    0.0716   -1.4026 H   0  0  0  0  0  0  0  0  0  0  0  0
    4.7298    0.4242   -0.9536 H   0  0  0  0  0  0  0  0  0  0  0  0
    4.1447   -2.2862   -1.2468 C   0  0  0  0  0  0  0  0  0  0  0  0
    4.5595   -3.2098   -0.8014 H   0  0  0  0  0  0  0  0  0  0  0  0
    4.9340   -1.8395   -1.8847 H   0  0  0  0  0  0  0  0  0  0  0  0
    2.8742   -2.5928   -2.0205 C   0  0  0  0  0  0  0  0  0  0  0  0
    3.1046   -3.3685   -2.7761 H   0  0  0  0  0  0  0  0  0  0  0  0
    2.4667   -1.7195   -2.5627 H   0  0  0  0  0  0  0  0  0  0  0  0
    2.0828   -2.9963   -1.3576 H   0  0  0  0  0  0  0  0  0  0  0  0
    5.0352   -1.4447    0.9390 C   0  0  0  0  0  0  0  0  0  0  0  0
    4.9893   -0.5322    1.5627 H   0  0  0  0  0  0  0  0  0  0  0  0
    5.9943   -1.4191    0.3830 H   0  0  0  0  0  0  0  0  0  0  0  0
    4.8900   -2.6836    1.8077 C   0  0  0  0  0  0  0  0  0  0  0  0
    5.6897   -2.6822    2.5730 H   0  0  0  0  0  0  0  0  0  0  0  0
    4.9883   -3.6268    1.2360 H   0  0  0  0  0  0  0  0  0  0  0  0
    3.9156   -2.6917    2.3362 H   0  0  0  0  0  0  0  0  0  0  0  0
   -2.1527   -1.0640    0.2391 C   0  0  0  0  0  0  0  0  0  0  0  0
   -2.5160   -1.8924   -0.8527 C   0  0  0  0  0  0  0  0  0  0  0  0
   -3.0068   -3.1808   -0.5650 C   0  0  0  0  0  0  0  0  0  0  0  0
   -3.2995   -3.8403   -1.3962 H   0  0  0  0  0  0  0  0  0  0  0  0
   -3.1325   -3.6342    0.7524 C   0  0  0  0  0  0  0  0  0  0  0  0
   -3.5251   -4.6421    0.9537 H   0  0  0  0  0  0  0  0  0  0  0  0
   -2.7567   -2.8023    1.8146 C   0  0  0  0  0  0  0  0  0  0  0  0
   -2.8570   -3.1645    2.8485 H   0  0  0  0  0  0  0  0  0  0  0  0
   -2.2566   -1.5080    1.5866 C   0  0  0  0  0  0  0  0  0  0  0  0
   -2.3782   -1.4413   -2.3007 C   0  0  0  0  0  0  0  0  0  0  0  0
   -1.9444   -0.4210   -2.2954 H   0  0  0  0  0  0  0  0  0  0  0  0
   -1.4089   -2.3537   -3.0727 C   0  0  0  0  0  0  0  0  0  0  0  0
   -0.4395   -2.4496   -2.5448 H   0  0  0  0  0  0  0  0  0  0  0  0
   -1.2087   -1.9471   -4.0843 H   0  0  0  0  0  0  0  0  0  0  0  0
   -1.8279   -3.3735   -3.1949 H   0  0  0  0  0  0  0  0  0  0  0  0
   -3.7421   -1.3619   -3.0087 C   0  0  0  0  0  0  0  0  0  0  0  0
   -4.4427   -0.6893   -2.4758 H   0  0  0  0  0  0  0  0  0  0  0  0
   -4.2229   -2.3596   -3.0704 H   0  0  0  0  0  0  0  0  0  0  0  0
   -3.6238   -0.9839   -4.0444 H   0  0  0  0  0  0  0  0  0  0  0  0
   -1.8852   -0.6032    2.7565 C   0  0  0  0  0  0  0  0  0  0  0  0
   -1.2673    0.2215    2.3441 H   0  0  0  0  0  0  0  0  0  0  0  0
   -1.0358   -1.3234    3.8151 C   0  0  0  0  0  0  0  0  0  0  0  0
   -0.1390   -1.7925    3.3645 H   0  0  0  0  0  0  0  0  0  0  0  0
   -1.6080   -2.1177    4.3366 H   0  0  0  0  0  0  0  0  0  0  0  0
   -0.7003   -0.6052    4.5904 H   0  0  0  0  0  0  0  0  0  0  0  0
   -3.1432    0.0211    3.3879 C   0  0  0  0  0  0  0  0  0  0  0  0
   -3.7366    0.5901    2.6455 H   0  0  0  0  0  0  0  0  0  0  0  0
   -2.8691    0.7148    4.2087 H   0  0  0  0  0  0  0  0  0  0  0  0
   -3.8045   -0.7626    3.8119 H   0  0  0  0  0  0  0  0  0  0  0  0
    3.0409   -1.6123    0.3802 H   0  0  0  0  0  0  0  0  0  0  0  0
  1 43  1  0  0  0  0
  2 17  1  0  0  0  0
  3 23  1  0  0  0  0
  4 72  1  0  0  0  0
  4 36  1  0  0  0  0
  5  9  1  0  0  0  0
  5  6  1  0  0  0  0
  5  8  1  0  0  0  0
  7  5  1  0  0  0  0
  9  1  1  0  0  0  0
 10  9  2  0  0  0  0
 10  2  1  0  0  0  0
 11 13  2  0  0  0  0
 11 10  1  0  0  0  0
 12 11  1  0  0  0  0
 13 15  1  0  0  0  0
 14 13  1  0  0  0  0
 15 16  1  0  0  0  0
 15 17  2  0  0  0  0
 17 18  1  0  0  0  0
 18  3  1  1  0  0  0
 18 19  1  0  0  0  0
 19 21  1  0  0  0  0
 20 19  1  0  0  0  0
 22 19  1  0  0  0  0
 23 25  1  0  0  0  0
 23 24  1  0  0  0  0
 26  4  1  0  0  0  0
 26 23  1  0  0  0  0
 27 26  1  0  0  0  0
 28 26  1  0  0  0  0
 29 30  1  0  0  0  0
 29  4  1  0  0  0  0
 31 29  1  0  0  0  0
 32 35  1  0  0  0  0
 32 29  1  0  0  0  0
 33 32  1  0  0  0  0
 34 32  1  0  0  0  0
 36 37  1  0  0  0  0
 36 39  1  0  0  0  0
 38 36  1  0  0  0  0
 39 42  1  0  0  0  0
 39 40  1  0  0  0  0
 41 39  1  0  0  0  0
 43 51  1  0  0  0  0
 44 45  1  0  0  0  0
 44 43  2  0  0  0  0
 45 47  2  0  0  0  0
 46 45  1  0  0  0  0
 47 48  1  0  0  0  0
 47 49  1  0  0  0  0
 49 50  1  0  0  0  0
 51 49  2  0  0  0  0
 51 62  1  0  0  0  0
 52 53  1  0  0  0  0
 52 44  1  0  0  0  0
 54 55  1  0  0  0  0
 54 52  1  0  0  0  0
 56 54  1  0  0  0  0
 57 54  1  0  0  0  0
 58 59  1  0  0  0  0
 58 52  1  0  0  0  0
 60 58  1  0  0  0  0
 61 58  1  0  0  0  0
 62 68  1  0  0  0  0
 62 64  1  0  0  0  0
 63 62  1  0  0  0  0
 64 66  1  0  0  0  0
 64 67  1  0  0  0  0
 65 64  1  0  0  0  0
 68 71  1  0  0  0  0
 68 70  1  0  0  0  0
 69 68  1  0  0  0  0
M  CHG  1   4   1
M  END
