2,3,4
 OpenBabel05122313063D

 37 39  0  0  1  0  0  0  0  0999 V2000
   -5.3142    1.2821   -1.8726 O   0  0  0  0  0  0  0  0  0  0  0  0
   -1.7435   -1.4722    1.3838 N   0  0  0  0  0  2  0  0  0  0  0  0
   -0.7613    0.3786   -1.9965 N   0  0  0  0  0  2  0  0  0  0  0  0
   -2.7853    0.0400   -0.5531 N   0  0  0  0  0  2  0  0  0  0  0  0
    0.5744    2.3426   -2.6110 C   0  0  0  0  0  0  0  0  0  0  0  0
   -0.2970    2.9768   -2.3959 H   0  0  0  0  0  0  0  0  0  0  0  0
   -5.6655   -0.1183    1.9006 C   0  0  0  0  0  0  0  0  0  0  0  0
   -6.6893    0.2651    2.0218 H   0  0  0  0  0  0  0  0  0  0  0  0
    2.7648    0.6601   -3.1529 C   0  0  0  0  0  0  0  0  0  0  0  0
    3.6146    0.0022   -3.3888 H   0  0  0  0  0  0  0  0  0  0  0  0
   -5.1173   -0.9468    2.8697 C   0  0  0  0  0  0  0  0  0  0  0  0
   -5.6909   -1.2288    3.7651 H   0  0  0  0  0  0  0  0  0  0  0  0
   -4.9391    0.2529    0.7449 C   0  0  0  0  0  0  0  0  0  0  0  0
   -5.3915    0.8930   -0.0235 H   0  0  0  0  0  0  0  0  0  0  0  0
    2.9026    2.0553   -3.2555 C   0  0  0  0  0  0  0  0  0  0  0  0
    3.8665    2.4922   -3.5562 H   0  0  0  0  0  0  0  0  0  0  0  0
   -1.8364   -2.6790    3.4650 C   0  0  0  0  0  0  0  0  0  0  0  0
   -1.3144   -3.3264    4.1832 H   0  0  0  0  0  0  0  0  0  0  0  0
   -3.1417   -2.2653    3.6793 C   0  0  0  0  0  0  0  0  0  0  0  0
   -3.6921   -2.5710    4.5818 H   0  0  0  0  0  0  0  0  0  0  0  0
   -3.6354   -0.2172    0.5395 C   0  0  0  0  0  0  0  0  0  0  0  0
   -3.7868   -1.4322    2.7202 C   0  0  0  0  0  0  0  0  0  0  0  0
    0.4512    0.9431   -2.4795 C   0  0  0  0  0  0  0  0  0  0  0  0
    1.5447    0.0991   -2.7571 C   0  0  0  0  0  0  0  0  0  0  0  0
    1.4123   -0.9884   -2.6898 H   0  0  0  0  0  0  0  0  0  0  0  0
   -1.1656   -2.2638    2.2923 C   0  0  0  0  0  0  0  0  0  0  0  0
   -0.1356   -2.5835    2.0760 H   0  0  0  0  0  0  0  0  0  0  0  0
   -2.9808    0.6463   -1.7565 C   0  0  2  0  0  3  0  0  0  0  0  0
   -3.0423   -1.0530    1.5572 C   0  0  2  0  0  3  0  0  0  0  0  0
   -1.8574    0.9005   -2.4845 N   0  0  0  0  0  2  0  0  0  0  0  0
   -4.1211    1.3139   -3.9420 C   0  0  0  0  0  0  0  0  0  0  0  0
   -5.1134    1.5877   -4.3415 H   0  0  0  0  0  0  0  0  0  0  0  0
   -3.7423    0.3985   -4.4399 H   0  0  0  0  0  0  0  0  0  0  0  0
   -3.3810    2.1086   -4.1599 H   0  0  0  0  0  0  0  0  0  0  0  0
   -4.2494    1.1022   -2.4508 C   0  0  0  0  0  0  0  0  0  0  0  0
    1.8051    2.8928   -2.9881 C   0  0  0  0  0  0  0  0  0  0  0  0
    1.9094    3.9846   -3.0779 H   0  0  0  0  0  0  0  0  0  0  0  0
  2 29  1  0  0  0  0
  2 26  1  0  0  0  0
  4 21  1  0  0  0  0
  5 23  1  0  0  0  0
  5  6  1  0  0  0  0
  7  8  1  0  0  0  0
  7 11  2  0  0  0  0
  9 24  1  0  0  0  0
 10  9  1  0  0  0  0
 11 12  1  0  0  0  0
 13  7  1  0  0  0  0
 14 13  1  0  0  0  0
 15  9  2  0  0  0  0
 15 36  1  0  0  0  0
 16 15  1  0  0  0  0
 17 19  1  0  0  0  0
 17 18  1  0  0  0  0
 19 20  1  0  0  0  0
 21 13  2  0  0  0  0
 22 11  1  0  0  0  0
 22 19  2  0  0  0  0
 23  3  1  0  0  0  0
 24 25  1  0  0  0  0
 24 23  2  0  0  0  0
 26 17  2  0  0  0  0
 27 26  1  0  0  0  0
 28 30  1  1  0  0  0
 28  4  1  0  0  0  0
 29 21  1  1  0  0  0
 29 22  1  0  0  0  0
 30  3  1  0  0  0  0
 31 35  1  0  0  0  0
 32 31  1  0  0  0  0
 33 31  1  0  0  0  0
 34 31  1  0  0  0  0
 35  1  2  0  0  0  0
 35 28  1  0  0  0  0
 36  5  2  0  0  0  0
 37 36  1  0  0  0  0
M  END
