61,62,63
 OpenBabel05122313063D

 66 69  0  0  1  0  0  0  0  0999 V2000
   -1.6314    0.3596   -0.0203 B   0  0  2  0  0  0  0  0  0  0  0  0
   -0.2795   -3.9534   -0.8186 C   0  0  0  0  0  0  0  0  0  0  0  0
   -0.3311   -3.2632    0.0469 H   0  0  0  0  0  0  0  0  0  0  0  0
    0.0548   -4.9425   -0.4469 H   0  0  0  0  0  0  0  0  0  0  0  0
   -1.3096   -4.0796   -1.2146 H   0  0  0  0  0  0  0  0  0  0  0  0
    0.6821   -3.4235   -1.8864 C   0  0  0  0  0  0  0  0  0  0  0  0
    1.6850   -3.3294   -1.4218 H   0  0  0  0  0  0  0  0  0  0  0  0
    0.8219   -4.3818   -3.0749 C   0  0  0  0  0  0  0  0  0  0  0  0
   -0.1508   -4.5589   -3.5813 H   0  0  0  0  0  0  0  0  0  0  0  0
    1.1975   -5.3691   -2.7397 H   0  0  0  0  0  0  0  0  0  0  0  0
    1.5315   -3.9910   -3.8331 H   0  0  0  0  0  0  0  0  0  0  0  0
    0.3030   -2.0029   -2.3686 C   0  0  1  0  0  0  0  0  0  0  0  0
    1.1044   -1.6507   -3.0516 H   0  0  0  0  0  0  0  0  0  0  0  0
   -1.0826   -1.8989   -3.0512 C   0  0  0  0  0  0  0  0  0  0  0  0
   -1.0554   -1.3468   -4.0127 H   0  0  0  0  0  0  0  0  0  0  0  0
   -1.5788   -2.8751   -3.2162 H   0  0  0  0  0  0  0  0  0  0  0  0
   -1.0802   -0.6549   -1.1684 C   0  0  2  0  0  3  0  0  0  0  0  0
    1.0410    2.5990   -3.0339 C   0  0  0  0  0  0  0  0  0  0  0  0
    0.1659    3.2754   -3.1361 H   0  0  0  0  0  0  0  0  0  0  0  0
    0.6578    1.5680   -2.8989 H   0  0  0  0  0  0  0  0  0  0  0  0
    1.5987    2.6333   -3.9909 H   0  0  0  0  0  0  0  0  0  0  0  0
    1.9447    3.0058   -1.8666 C   0  0  0  0  0  0  0  0  0  0  0  0
    2.7929    2.2923   -1.8299 H   0  0  0  0  0  0  0  0  0  0  0  0
    2.5409    4.4066   -2.0481 C   0  0  0  0  0  0  0  0  0  0  0  0
    3.1447    4.4573   -2.9760 H   0  0  0  0  0  0  0  0  0  0  0  0
    3.2022    4.6820   -1.2006 H   0  0  0  0  0  0  0  0  0  0  0  0
    1.7534    5.1857   -2.1302 H   0  0  0  0  0  0  0  0  0  0  0  0
    1.2312    2.8869   -0.4989 C   0  0  1  0  0  0  0  0  0  0  0  0
    1.9833    3.0826    0.2939 H   0  0  0  0  0  0  0  0  0  0  0  0
    0.0057    3.8142   -0.3274 C   0  0  0  0  0  0  0  0  0  0  0  0
    0.0165    4.3836    0.6241 H   0  0  0  0  0  0  0  0  0  0  0  0
   -0.1450    4.5226   -1.1651 H   0  0  0  0  0  0  0  0  0  0  0  0
   -0.6629    1.6539   -0.2157 C   0  0  2  0  0  3  0  0  0  0  0  0
    0.7657    1.2402    3.8301 C   0  0  0  0  0  0  0  0  0  0  0  0
    0.6761    1.6692    2.8123 H   0  0  0  0  0  0  0  0  0  0  0  0
    1.4465    1.8895    4.4159 H   0  0  0  0  0  0  0  0  0  0  0  0
   -0.2352    1.2917    4.3087 H   0  0  0  0  0  0  0  0  0  0  0  0
    1.2996   -0.1940    3.7757 C   0  0  0  0  0  0  0  0  0  0  0  0
    2.3014   -0.1653    3.3005 H   0  0  0  0  0  0  0  0  0  0  0  0
    1.4786   -0.8046    5.1706 C   0  0  0  0  0  0  0  0  0  0  0  0
    0.5215   -0.8412    5.7329 H   0  0  0  0  0  0  0  0  0  0  0  0
    2.1864   -0.2018    5.7738 H   0  0  0  0  0  0  0  0  0  0  0  0
    1.8784   -1.8383    5.1156 H   0  0  0  0  0  0  0  0  0  0  0  0
    0.4325   -1.1121    2.8823 C   0  0  1  0  0  0  0  0  0  0  0  0
    0.9479   -2.0927    2.8034 H   0  0  0  0  0  0  0  0  0  0  0  0
   -1.0260   -1.2978    3.3689 C   0  0  0  0  0  0  0  0  0  0  0  0
   -1.3418   -2.3601    3.4097 H   0  0  0  0  0  0  0  0  0  0  0  0
   -1.2369   -0.8273    4.3491 H   0  0  0  0  0  0  0  0  0  0  0  0
   -1.0342   -0.3015    1.3439 C   0  0  2  0  0  3  0  0  0  0  0  0
   -3.2340    0.5205   -0.0196 C   0  0  0  0  0  0  0  0  0  0  0  0
   -4.0216   -0.6467    0.1299 C   0  0  0  0  0  0  0  0  0  0  0  0
   -3.5231   -1.6237    0.2410 H   0  0  0  0  0  0  0  0  0  0  0  0
   -5.4222   -0.6032    0.1407 C   0  0  0  0  0  0  0  0  0  0  0  0
   -6.0008   -1.5332    0.2593 H   0  0  0  0  0  0  0  0  0  0  0  0
   -6.0873    0.6260   -0.0003 C   0  0  0  0  0  0  0  0  0  0  0  0
   -7.1877    0.6675    0.0071 H   0  0  0  0  0  0  0  0  0  0  0  0
   -5.3326    1.7980   -0.1509 C   0  0  0  0  0  0  0  0  0  0  0  0
   -5.8408    2.7690   -0.2631 H   0  0  0  0  0  0  0  0  0  0  0  0
   -3.9279    1.7424   -0.1599 C   0  0  0  0  0  0  0  0  0  0  0  0
   -3.3586    2.6746   -0.2788 H   0  0  0  0  0  0  0  0  0  0  0  0
    0.1607   -1.0466   -1.2503 N   0  0  0  0  0  2  0  0  0  0  0  0
    0.6366    1.5507   -0.2813 N   0  0  0  0  0  2  0  0  0  0  0  0
    0.2307   -0.5625    1.5246 N   0  0  0  0  0  2  0  0  0  0  0  0
   -1.8955   -1.1338   -2.1240 O   0  0  0  0  0  0  0  0  0  0  0  0
   -1.1327    2.9144   -0.2921 O   0  0  0  0  0  0  0  0  0  0  0  0
   -1.8388   -0.6314    2.3686 O   0  0  0  0  0  0  0  0  0  0  0  0
  1 50  1  6  0  0  0
  2  4  1  0  0  0  0
  2  3  1  0  0  0  0
  5  2  1  0  0  0  0
  6  7  1  0  0  0  0
  6  2  1  0  0  0  0
  8 10  1  0  0  0  0
  8  6  1  0  0  0  0
  9  8  1  0  0  0  0
 11  8  1  0  0  0  0
 12 13  1  6  0  0  0
 12  6  1  0  0  0  0
 12 61  1  0  0  0  0
 14 12  1  0  0  0  0
 14 64  1  0  0  0  0
 15 14  1  0  0  0  0
 16 14  1  0  0  0  0
 17  1  1  6  0  0  0
 18 20  1  0  0  0  0
 18 22  1  0  0  0  0
 19 18  1  0  0  0  0
 21 18  1  0  0  0  0
 22 23  1  0  0  0  0
 22 28  1  0  0  0  0
 24 22  1  0  0  0  0
 24 26  1  0  0  0  0
 25 24  1  0  0  0  0
 27 24  1  0  0  0  0
 28 30  1  0  0  0  0
 28 62  1  0  0  0  0
 28 29  1  1  0  0  0
 30 65  1  0  0  0  0
 30 31  1  0  0  0  0
 32 30  1  0  0  0  0
 33  1  1  1  0  0  0
 34 37  1  0  0  0  0
 34 36  1  0  0  0  0
 35 34  1  0  0  0  0
 38 34  1  0  0  0  0
 38 40  1  0  0  0  0
 39 38  1  0  0  0  0
 40 41  1  0  0  0  0
 40 42  1  0  0  0  0
 43 40  1  0  0  0  0
 44 45  1  6  0  0  0
 44 46  1  0  0  0  0
 44 38  1  0  0  0  0
 46 47  1  0  0  0  0
 46 48  1  0  0  0  0
 49  1  1  6  0  0  0
 49 63  1  0  0  0  0
 49 66  1  0  0  0  0
 50 51  1  0  0  0  0
 51 53  2  0  0  0  0
 51 52  1  0  0  0  0
 53 54  1  0  0  0  0
 55 56  1  0  0  0  0
 55 53  1  0  0  0  0
 57 55  2  0  0  0  0
 58 57  1  0  0  0  0
 59 57  1  0  0  0  0
 59 50  2  0  0  0  0
 60 59  1  0  0  0  0
 61 17  1  0  0  0  0
 62 33  1  0  0  0  0
 63 44  1  0  0  0  0
 64 17  1  0  0  0  0
 65 33  1  0  0  0  0
 66 46  1  0  0  0  0
M  END
