2,6,9
 OpenBabel05122313063D

 19 21  0  0  0  0  0  0  0  0999 V2000
   -0.2713   -0.9118   -3.8986 N   0  0  0  0  0  0  0  0  0  0  0  0
    1.2843   -0.0002   -0.0001 N   0  0  0  0  0  2  0  0  0  0  0  0
    1.0216   -0.8132   -3.5075 N   0  0  0  0  0  0  0  0  0  0  0  0
   -1.0962   -0.6699   -2.8840 N   0  0  0  0  0  2  0  0  0  0  0  0
   -1.0958    0.6700    2.8840 N   0  0  0  0  0  0  0  0  0  0  0  0
   -0.3478    0.4098    1.8143 N   0  0  0  0  0  0  0  0  0  0  0  0
    1.0221    0.8127    3.5073 N   0  0  0  0  0  0  0  0  0  0  0  0
   -0.2707    0.9116    3.8985 N   0  0  0  0  0  2  0  0  0  0  0  0
   -0.3481   -0.4098   -1.8144 N   0  0  0  0  0  2  0  0  0  0  0  0
    0.9590    0.5013    2.2125 C   0  0  0  0  0  0  0  0  0  0  0  0
    1.9320   -0.2615   -1.1627 C   0  0  0  0  0  0  0  0  0  0  0  0
    1.9322    0.2608    1.1624 C   0  0  0  0  0  0  0  0  0  0  0  0
    0.9587   -0.5017   -2.2127 C   0  0  0  0  0  0  0  0  0  0  0  0
    3.3359    0.2666    1.1943 C   0  0  0  0  0  0  0  0  0  0  0  0
    3.8543    0.4787    2.1387 H   0  0  0  0  0  0  0  0  0  0  0  0
    3.3357   -0.2677   -1.1946 C   0  0  0  0  0  0  0  0  0  0  0  0
    3.8539   -0.4800   -2.1391 H   0  0  0  0  0  0  0  0  0  0  0  0
    4.0275   -0.0007   -0.0002 C   0  0  0  0  0  0  0  0  0  0  0  0
    5.1278   -0.0009   -0.0003 H   0  0  0  0  0  0  0  0  0  0  0  0
  1  3  2  0  0  0  0
  1  4  1  0  0  0  0
  2 12  1  0  0  0  0
  3 13  1  0  0  0  0
  4  9  1  0  0  0  0
  5  8  1  0  0  0  0
  6 10  1  0  0  0  0
  6  5  2  0  0  0  0
  7  8  1  0  0  0  0
 10  7  2  0  0  0  0
 11  2  1  0  0  0  0
 12 14  2  0  0  0  0
 12 10  1  0  0  0  0
 13  9  1  0  0  0  0
 13 11  2  0  0  0  0
 14 15  1  0  0  0  0
 16 11  1  0  0  0  0
 16 18  2  0  0  0  0
 17 16  1  0  0  0  0
 18 14  1  0  0  0  0
 19 18  1  0  0  0  0
M  END
