1,2,3
 OpenBabel05122313063D

 39 40  0  0  1  0  0  0  0  0999 V2000
   -0.4677    1.9786   -0.1433 N   0  0  0  0  0  2  0  0  0  0  0  0
   -0.8667   -0.5539   -1.0322 N   0  0  0  0  0  2  0  0  0  0  0  0
    1.4561   -2.1308   -0.5767 N   0  0  0  0  0  0  0  0  0  0  0  0
    1.8357   -2.0652   -1.5360 H   0  0  0  0  0  0  0  0  0  0  0  0
    4.0555   -1.8300   -1.3257 O   0  0  0  0  0  0  0  0  0  0  0  0
    3.9862   -0.8473   -1.4027 H   0  0  0  0  0  0  0  0  0  0  0  0
   -0.2312    3.2606    0.1519 C   0  0  0  0  0  3  0  0  0  0  0  0
    0.8288    3.5395    0.2797 H   0  0  0  0  0  0  0  0  0  0  0  0
   -1.2665    4.2010    0.2959 C   0  0  0  0  0  0  0  0  0  0  0  0
   -1.0320    5.2469    0.5405 H   0  0  0  0  0  0  0  0  0  0  0  0
   -2.5881    3.7672    0.1315 C   0  0  0  0  0  0  0  0  0  0  0  0
   -3.4272    4.4697    0.2453 H   0  0  0  0  0  0  0  0  0  0  0  0
   -2.8315    2.4214   -0.1811 C   0  0  0  0  0  0  0  0  0  0  0  0
   -3.8537    2.0431   -0.3221 H   0  0  0  0  0  0  0  0  0  0  0  0
   -1.7356    1.5500   -0.3223 C   0  0  0  0  0  0  0  0  0  0  0  0
   -1.9183    0.1127   -0.7006 C   0  0  2  0  0  3  0  0  0  0  0  0
   -0.8811   -1.9523   -1.3984 C   0  0  0  0  0  0  0  0  0  0  0  0
   -0.5751   -2.0070   -2.4686 H   0  0  0  0  0  0  0  0  0  0  0  0
   -1.8843   -2.4244   -1.3130 H   0  0  0  0  0  0  0  0  0  0  0  0
    0.1294   -2.7427   -0.5531 C   0  0  0  0  0  0  0  0  0  0  0  0
   -0.2133   -2.7508    0.5036 H   0  0  0  0  0  0  0  0  0  0  0  0
    0.1453   -3.7986   -0.9151 H   0  0  0  0  0  0  0  0  0  0  0  0
    2.4700   -2.8467    0.2068 C   0  0  0  0  0  0  0  0  0  0  0  0
    2.1655   -2.8493    1.2746 H   0  0  0  0  0  0  0  0  0  0  0  0
    2.5437   -3.9086   -0.1331 H   0  0  0  0  0  0  0  0  0  0  0  0
    3.8184   -2.1345    0.0374 C   0  0  0  0  0  0  0  0  0  0  0  0
    3.8205   -1.2070    0.6539 H   0  0  0  0  0  0  0  0  0  0  0  0
    4.6255   -2.7934    0.4304 H   0  0  0  0  0  0  0  0  0  0  0  0
   -3.2908   -0.4748   -0.6042 C   0  0  0  0  0  0  0  0  0  0  0  0
   -4.1374   -0.5852   -1.7242 C   0  0  0  0  0  0  0  0  0  0  0  0
   -3.7980   -0.2162   -2.7043 H   0  0  0  0  0  0  0  0  0  0  0  0
   -5.4090   -1.1631   -1.5857 C   0  0  0  0  0  0  0  0  0  0  0  0
   -6.0692   -1.2472   -2.4622 H   0  0  0  0  0  0  0  0  0  0  0  0
   -5.8361   -1.6344   -0.3342 C   0  0  0  0  0  0  0  0  0  0  0  0
   -6.8330   -2.0887   -0.2289 H   0  0  0  0  0  0  0  0  0  0  0  0
   -4.9904   -1.5289    0.7823 C   0  0  0  0  0  0  0  0  0  0  0  0
   -5.3210   -1.9028    1.7631 H   0  0  0  0  0  0  0  0  0  0  0  0
   -3.7202   -0.9484    0.6538 C   0  0  0  0  0  0  0  0  0  0  0  0
   -3.0419   -0.8655    1.5187 H   0  0  0  0  0  0  0  0  0  0  0  0
  1  7  1  0  0  0  0
  3 20  1  0  0  0  0
  3 23  1  0  0  0  0
  4  3  1  0  0  0  0
  5 26  1  0  0  0  0
  6  5  1  0  0  0  0
  7  8  1  0  0  0  0
  7  9  1  0  0  0  0
  9 10  1  0  0  0  0
 11 12  1  0  0  0  0
 11  9  2  0  0  0  0
 13 11  1  0  0  0  0
 14 13  1  0  0  0  0
 15 13  2  0  0  0  0
 15  1  1  0  0  0  0
 16  2  1  1  0  0  0
 16 29  1  0  0  0  0
 16 15  1  0  0  0  0
 17 19  1  0  0  0  0
 17  2  1  0  0  0  0
 17 20  1  0  0  0  0
 18 17  1  0  0  0  0
 20 21  1  0  0  0  0
 22 20  1  0  0  0  0
 23 24  1  0  0  0  0
 25 23  1  0  0  0  0
 26 23  1  0  0  0  0
 26 28  1  0  0  0  0
 26 27  1  0  0  0  0
 29 38  1  0  0  0  0
 30 32  1  0  0  0  0
 30 29  2  0  0  0  0
 31 30  1  0  0  0  0
 32 34  2  0  0  0  0
 33 32  1  0  0  0  0
 34 35  1  0  0  0  0
 34 36  1  0  0  0  0
 36 37  1  0  0  0  0
 38 36  2  0  0  0  0
 38 39  1  0  0  0  0
M  END
