1,2,4
 OpenBabel05122313063D

 79 81  0  0  1  0  0  0  0  0999 V2000
   -0.0002    1.3768    0.0000 N   0  0  0  0  0  2  0  0  0  0  0  0
   -2.0264   -0.4828   -0.2675 N   0  0  0  0  0  2  0  0  0  0  0  0
    2.6641    0.3188   -0.6488 N   0  0  0  0  0  0  0  0  0  0  0  0
    2.0264   -0.4822    0.2679 N   0  0  0  0  0  2  0  0  0  0  0  0
   -2.6643    0.3184    0.6489 N   0  0  0  0  0  0  0  0  0  0  0  0
   -0.9049    2.0265    0.7670 C   0  0  1  0  0  3  0  0  0  0  0  0
    0.9044    2.0266   -0.7669 C   0  0  0  0  0  0  0  0  0  0  0  0
   -0.9273    3.4273    0.7841 C   0  0  0  0  0  0  0  0  0  0  0  0
   -1.6609    3.9590    1.4061 H   0  0  0  0  0  0  0  0  0  0  0  0
    4.0064    0.4204   -0.3638 C   0  0  1  0  0  3  0  0  0  0  0  0
   -1.8419    1.1233    1.5475 C   0  0  0  0  0  0  0  0  0  0  0  0
   -1.2414    0.4459    2.1931 H   0  0  0  0  0  0  0  0  0  0  0  0
   -2.5099    1.7129    2.1928 H   0  0  0  0  0  0  0  0  0  0  0  0
    4.2025   -0.3515    0.7796 C   0  0  0  0  0  0  0  0  0  0  0  0
    5.1538   -0.5142    1.2884 H   0  0  0  0  0  0  0  0  0  0  0  0
   -4.2023   -0.3517   -0.7801 C   0  0  0  0  0  0  0  0  0  0  0  0
   -5.1535   -0.5143   -1.2892 H   0  0  0  0  0  0  0  0  0  0  0  0
   -4.0065    0.4203    0.3633 C   0  0  1  0  0  3  0  0  0  0  0  0
    0.9266    3.4273   -0.7841 C   0  0  0  0  0  0  0  0  0  0  0  0
    1.6602    3.9591   -1.4060 H   0  0  0  0  0  0  0  0  0  0  0  0
    6.4327    0.8998   -0.5908 C   0  0  0  0  0  0  0  0  0  0  0  0
    7.2023    1.4293   -1.1852 H   0  0  0  0  0  0  0  0  0  0  0  0
    6.6703   -0.1815   -0.6163 H   0  0  0  0  0  0  0  0  0  0  0  0
    6.5149    1.2536    0.4557 H   0  0  0  0  0  0  0  0  0  0  0  0
   -2.9493   -0.8858   -1.1715 C   0  0  0  0  0  0  0  0  0  0  0  0
   -0.0004    4.1316    0.0000 C   0  0  0  0  0  0  0  0  0  0  0  0
   -0.0004    5.2314    0.0000 H   0  0  0  0  0  0  0  0  0  0  0  0
    5.0369    1.1875   -1.1826 C   0  0  0  0  0  0  0  0  0  0  0  0
    4.7980    2.7147   -1.1008 C   0  0  0  0  0  0  0  0  0  0  0  0
    5.6307    3.2484   -1.6006 H   0  0  0  0  0  0  0  0  0  0  0  0
    4.7569    3.0553   -0.0472 H   0  0  0  0  0  0  0  0  0  0  0  0
    3.8652    3.0385   -1.6025 H   0  0  0  0  0  0  0  0  0  0  0  0
    5.0297    0.7043   -2.6520 C   0  0  0  0  0  0  0  0  0  0  0  0
    5.8315    1.2188   -3.2180 H   0  0  0  0  0  0  0  0  0  0  0  0
    4.0763    0.9100   -3.1776 H   0  0  0  0  0  0  0  0  0  0  0  0
    5.2158   -0.3861   -2.7092 H   0  0  0  0  0  0  0  0  0  0  0  0
   -5.0372    1.1875    1.1817 C   0  0  0  0  0  0  0  0  0  0  0  0
   -4.7981    2.7147    1.1001 C   0  0  0  0  0  0  0  0  0  0  0  0
   -3.8656    3.0384    1.6023 H   0  0  0  0  0  0  0  0  0  0  0  0
   -5.6309    3.2486    1.5993 H   0  0  0  0  0  0  0  0  0  0  0  0
   -4.7563    3.0553    0.0465 H   0  0  0  0  0  0  0  0  0  0  0  0
    2.6952   -1.7329    2.4115 C   0  0  0  0  0  0  0  0  0  0  0  0
   -1.2997   -1.4633   -3.0102 C   0  0  0  0  0  0  0  0  0  0  0  0
   -1.1909   -2.0314   -3.9551 H   0  0  0  0  0  0  0  0  0  0  0  0
   -0.4899   -1.7924   -2.3315 H   0  0  0  0  0  0  0  0  0  0  0  0
   -1.1687   -0.3861   -3.2459 H   0  0  0  0  0  0  0  0  0  0  0  0
   -6.4328    0.9000    0.5893 C   0  0  0  0  0  0  0  0  0  0  0  0
   -7.2025    1.4297    1.1835 H   0  0  0  0  0  0  0  0  0  0  0  0
   -6.6706   -0.1813    0.6148 H   0  0  0  0  0  0  0  0  0  0  0  0
   -6.5146    1.2539   -0.4571 H   0  0  0  0  0  0  0  0  0  0  0  0
   -2.6947   -1.7338   -2.4111 C   0  0  0  0  0  0  0  0  0  0  0  0
    1.8415    1.1234   -1.5475 C   0  0  0  0  0  0  0  0  0  0  0  0
    1.2411    0.4459   -2.1930 H   0  0  0  0  0  0  0  0  0  0  0  0
    2.5093    1.7132   -2.1928 H   0  0  0  0  0  0  0  0  0  0  0  0
   -5.0307    0.7044    2.6511 C   0  0  0  0  0  0  0  0  0  0  0  0
   -4.0774    0.9099    3.1771 H   0  0  0  0  0  0  0  0  0  0  0  0
   -5.2169   -0.3860    2.7082 H   0  0  0  0  0  0  0  0  0  0  0  0
   -5.8325    1.2191    3.2168 H   0  0  0  0  0  0  0  0  0  0  0  0
    3.7539   -1.3647    3.4759 C   0  0  0  0  0  0  0  0  0  0  0  0
    4.7801   -1.6303    3.1543 H   0  0  0  0  0  0  0  0  0  0  0  0
    3.5496   -1.9329    4.4043 H   0  0  0  0  0  0  0  0  0  0  0  0
    3.7330   -0.2841    3.7234 H   0  0  0  0  0  0  0  0  0  0  0  0
    1.3002   -1.4625    3.0106 C   0  0  0  0  0  0  0  0  0  0  0  0
    1.1916   -2.0302    3.9558 H   0  0  0  0  0  0  0  0  0  0  0  0
    0.4904   -1.7922    2.3321 H   0  0  0  0  0  0  0  0  0  0  0  0
    1.1688   -0.3853    3.2458 H   0  0  0  0  0  0  0  0  0  0  0  0
   -2.8526   -3.2307   -2.0526 C   0  0  0  0  0  0  0  0  0  0  0  0
   -2.7197   -3.8466   -2.9650 H   0  0  0  0  0  0  0  0  0  0  0  0
   -3.8645   -3.4330   -1.6478 H   0  0  0  0  0  0  0  0  0  0  0  0
   -2.1010   -3.5409   -1.3038 H   0  0  0  0  0  0  0  0  0  0  0  0
   -3.7535   -1.3664   -3.4756 C   0  0  0  0  0  0  0  0  0  0  0  0
   -3.5489   -1.9349   -4.4038 H   0  0  0  0  0  0  0  0  0  0  0  0
   -3.7329   -0.2859   -3.7236 H   0  0  0  0  0  0  0  0  0  0  0  0
   -4.7796   -1.6322   -3.1540 H   0  0  0  0  0  0  0  0  0  0  0  0
    2.9495   -0.8853    1.1715 C   0  0  0  0  0  0  0  0  0  0  0  0
    2.8535   -3.2299    2.0537 C   0  0  0  0  0  0  0  0  0  0  0  0
    3.8654   -3.4321    1.6490 H   0  0  0  0  0  0  0  0  0  0  0  0
    2.1020   -3.5407    1.3051 H   0  0  0  0  0  0  0  0  0  0  0  0
    2.7208   -3.8455    2.9664 H   0  0  0  0  0  0  0  0  0  0  0  0
  1  6  1  0  0  0  0
  2  5  1  0  0  0  0
  3 10  1  0  0  0  0
  3  4  1  0  0  0  0
  4 75  1  0  0  0  0
  5 11  1  0  0  0  0
  6  8  1  0  0  0  0
  6 11  1  6  0  0  0
  7  1  1  0  0  0  0
  8  9  1  0  0  0  0
 10 28  1  6  0  0  0
 10 14  1  0  0  0  0
 11 13  1  0  0  0  0
 11 12  1  0  0  0  0
 14 75  2  0  0  0  0
 14 15  1  0  0  0  0
 16 18  1  0  0  0  0
 17 16  1  0  0  0  0
 18  5  1  0  0  0  0
 18 37  1  1  0  0  0
 19  7  2  0  0  0  0
 19 26  1  0  0  0  0
 20 19  1  0  0  0  0
 21 24  1  0  0  0  0
 22 21  1  0  0  0  0
 23 21  1  0  0  0  0
 25 16  2  0  0  0  0
 25  2  1  0  0  0  0
 26 27  1  0  0  0  0
 26  8  2  0  0  0  0
 28 29  1  0  0  0  0
 28 21  1  0  0  0  0
 29 31  1  0  0  0  0
 30 29  1  0  0  0  0
 32 29  1  0  0  0  0
 33 28  1  0  0  0  0
 34 33  1  0  0  0  0
 35 33  1  0  0  0  0
 36 33  1  0  0  0  0
 37 55  1  0  0  0  0
 38 37  1  0  0  0  0
 38 40  1  0  0  0  0
 38 39  1  0  0  0  0
 41 38  1  0  0  0  0
 42 63  1  0  0  0  0
 42 59  1  0  0  0  0
 43 51  1  0  0  0  0
 43 45  1  0  0  0  0
 44 43  1  0  0  0  0
 46 43  1  0  0  0  0
 47 49  1  0  0  0  0
 47 37  1  0  0  0  0
 47 48  1  0  0  0  0
 50 47  1  0  0  0  0
 51 67  1  0  0  0  0
 51 25  1  0  0  0  0
 52  7  1  0  0  0  0
 52  3  1  0  0  0  0
 53 52  1  0  0  0  0
 54 52  1  0  0  0  0
 55 57  1  0  0  0  0
 55 56  1  0  0  0  0
 55 58  1  0  0  0  0
 59 62  1  0  0  0  0
 59 61  1  0  0  0  0
 60 59  1  0  0  0  0
 63 66  1  0  0  0  0
 63 64  1  0  0  0  0
 65 63  1  0  0  0  0
 67 69  1  0  0  0  0
 67 70  1  0  0  0  0
 68 67  1  0  0  0  0
 71 74  1  0  0  0  0
 71 51  1  0  0  0  0
 72 71  1  0  0  0  0
 73 71  1  0  0  0  0
 75 42  1  0  0  0  0
 76 42  1  0  0  0  0
 76 79  1  0  0  0  0
 77 76  1  0  0  0  0
 78 76  1  0  0  0  0
M  END
