1,12,22
 OpenBabel05122313063D

 41 42  0  0  1  0  0  0  0  0999 V2000
    1.2643    1.6573    0.1063 N   0  0  0  0  0  2  0  0  0  0  0  0
    0.8194    2.8853   -0.1966 C   0  0  0  0  0  3  0  0  0  0  0  0
   -0.2178    2.9441   -0.5583 H   0  0  0  0  0  0  0  0  0  0  0  0
    1.6294    4.0194   -0.0672 C   0  0  0  0  0  0  0  0  0  0  0  0
    1.2358    5.0078   -0.3421 H   0  0  0  0  0  0  0  0  0  0  0  0
    2.9422    3.8544    0.4039 C   0  0  0  0  0  0  0  0  0  0  0  0
    3.6090    4.7220    0.5180 H   0  0  0  0  0  0  0  0  0  0  0  0
    3.3884    2.5735    0.7455 C   0  0  0  0  0  0  0  0  0  0  0  0
    4.3984    2.4204    1.1500 H   0  0  0  0  0  0  0  0  0  0  0  0
    2.5211    1.4723    0.6060 C   0  0  0  0  0  0  0  0  0  0  0  0
    2.8488    0.0778    0.9775 C   0  0  1  0  0  3  0  0  0  0  0  0
    1.8005   -0.6446    1.2468 N   0  0  0  0  0  2  0  0  0  0  0  0
    1.9033   -2.0630    1.4938 C   0  0  0  0  0  0  0  0  0  0  0  0
    2.3969   -2.2297    2.4798 H   0  0  0  0  0  0  0  0  0  0  0  0
    2.5481   -2.5674    0.7321 H   0  0  0  0  0  0  0  0  0  0  0  0
    0.5168   -2.7140    1.5094 C   0  0  0  0  0  0  0  0  0  0  0  0
    0.6385   -3.7681    1.8340 H   0  0  0  0  0  0  0  0  0  0  0  0
   -0.1337   -2.2183    2.2604 H   0  0  0  0  0  0  0  0  0  0  0  0
   -0.2005   -2.7518    0.1468 C   0  0  0  0  0  0  0  0  0  0  0  0
    0.5415   -2.9726   -0.6532 H   0  0  0  0  0  0  0  0  0  0  0  0
   -0.9276   -3.5855    0.1551 H   0  0  0  0  0  0  0  0  0  0  0  0
   -0.8784   -1.5088   -0.2210 N   0  0  0  0  0  2  0  0  0  0  0  0
   -2.1364   -1.4768   -0.5494 C   0  0  2  0  0  3  0  0  0  0  0  0
   -2.7158   -0.1665   -0.9672 C   0  0  0  0  0  0  0  0  0  0  0  0
   -4.0525    0.1658   -0.6721 C   0  0  0  0  0  0  0  0  0  0  0  0
   -4.6957   -0.5311   -0.1183 H   0  0  0  0  0  0  0  0  0  0  0  0
   -4.5237    1.4364   -1.0338 C   0  0  0  0  0  0  0  0  0  0  0  0
   -5.5508    1.7395   -0.7824 H   0  0  0  0  0  0  0  0  0  0  0  0
   -3.6622    2.3072   -1.7123 C   0  0  0  0  0  0  0  0  0  0  0  0
   -3.9931    3.3076   -2.0289 H   0  0  0  0  0  0  0  0  0  0  0  0
   -2.3545    1.8695   -1.9896 C   0  0  0  0  0  0  0  0  0  0  0  0
   -1.6544    2.5152   -2.5499 H   0  0  0  0  0  0  0  0  0  0  0  0
   -1.8800    0.6766   -1.6110 N   0  0  0  0  0  0  0  0  0  0  0  0
    4.2614   -0.4344    0.9279 C   0  0  0  0  0  0  0  0  0  0  0  0
    4.3589   -1.1187    0.0547 H   0  0  0  0  0  0  0  0  0  0  0  0
    4.5147   -1.0178    1.8367 H   0  0  0  0  0  0  0  0  0  0  0  0
    5.0083    0.3701    0.8042 H   0  0  0  0  0  0  0  0  0  0  0  0
   -3.0432   -2.6810   -0.5047 C   0  0  0  0  0  0  0  0  0  0  0  0
   -2.5955   -3.5509   -1.0226 H   0  0  0  0  0  0  0  0  0  0  0  0
   -4.0101   -2.4637   -0.9900 H   0  0  0  0  0  0  0  0  0  0  0  0
   -3.2398   -2.9672    0.5497 H   0  0  0  0  0  0  0  0  0  0  0  0
  1 10  1  0  0  0  0
  2  4  1  0  0  0  0
  2  1  1  0  0  0  0
  3  2  1  0  0  0  0
  4  6  2  0  0  0  0
  5  4  1  0  0  0  0
  6  7  1  0  0  0  0
  6  8  1  0  0  0  0
  8  9  1  0  0  0  0
 10  8  2  0  0  0  0
 10 11  1  0  0  0  0
 11 12  1  6  0  0  0
 12 13  1  0  0  0  0
 13 16  1  0  0  0  0
 13 14  1  0  0  0  0
 15 13  1  0  0  0  0
 16 17  1  0  0  0  0
 16 18  1  0  0  0  0
 19 21  1  0  0  0  0
 19 16  1  0  0  0  0
 20 19  1  0  0  0  0
 22 19  1  0  0  0  0
 23 38  1  0  0  0  0
 23 22  1  1  0  0  0
 24 25  1  0  0  0  0
 24 23  1  0  0  0  0
 25 26  1  0  0  0  0
 27 28  1  0  0  0  0
 27 25  2  0  0  0  0
 29 27  1  0  0  0  0
 30 29  1  0  0  0  0
 31 29  2  0  0  0  0
 31 33  1  0  0  0  0
 32 31  1  0  0  0  0
 33 24  2  0  0  0  0
 34 11  1  0  0  0  0
 34 36  1  0  0  0  0
 35 34  1  0  0  0  0
 37 34  1  0  0  0  0
 38 41  1  0  0  0  0
 39 38  1  0  0  0  0
 40 38  1  0  0  0  0
M  END
