4,5,6
 OpenBabel05122313063D

 41 44  0  0  1  0  0  0  0  0999 V2000
   -2.7218    2.5518   -0.3625 O   0  0  0  0  0  0  0  0  0  0  0  0
   -6.0560   -1.9343   -0.0122 O   0  0  0  0  0  0  0  0  0  0  0  0
   -6.1575    0.2536    0.1406 O   0  0  0  0  0  0  0  0  0  0  0  0
    0.1882   -0.5817   -0.9703 N   0  0  0  0  0  0  0  0  0  0  0  0
    1.6025    1.5360    0.1175 N   0  0  0  0  0  2  0  0  0  0  0  0
    2.6812   -1.0705   -0.1052 N   0  0  0  0  0  2  0  0  0  0  0  0
   -1.5995    1.8251   -0.6111 N   0  0  0  0  0  0  0  0  0  0  0  0
   -3.8430    1.7998   -0.2013 N   0  0  0  0  0  0  0  0  0  0  0  0
   -5.5692   -0.8070   -0.0329 N   0  0  0  0  0  0  0  0  0  0  0  0
    2.1759    2.5746    0.7748 C   0  0  0  0  0  3  0  0  0  0  0  0
    2.4503    2.4030    1.8250 H   0  0  0  0  0  0  0  0  0  0  0  0
    2.4097    3.8090    0.1681 C   0  0  0  0  0  0  0  0  0  0  0  0
    2.8761    4.6180    0.7474 H   0  0  0  0  0  0  0  0  0  0  0  0
    2.0293    3.9887   -1.1704 C   0  0  0  0  0  0  0  0  0  0  0  0
    2.1891    4.9516   -1.6772 H   0  0  0  0  0  0  0  0  0  0  0  0
    1.4296    2.9217   -1.8456 C   0  0  0  0  0  0  0  0  0  0  0  0
    1.1017    3.0252   -2.8901 H   0  0  0  0  0  0  0  0  0  0  0  0
    1.2274    1.7084   -1.1718 C   0  0  0  0  0  0  0  0  0  0  0  0
    0.6329    0.5260   -1.8879 C   0  0  0  0  0  0  0  0  0  0  0  0
    1.4047    0.1074   -2.5658 H   0  0  0  0  0  0  0  0  0  0  0  0
   -0.2070    0.8493   -2.5323 H   0  0  0  0  0  0  0  0  0  0  0  0
    0.8160   -1.8638   -1.4016 C   0  0  0  0  0  0  0  0  0  0  0  0
    0.4371   -2.6797   -0.7570 H   0  0  0  0  0  0  0  0  0  0  0  0
    0.5466   -2.1105   -2.4511 H   0  0  0  0  0  0  0  0  0  0  0  0
    2.3035   -1.7677   -1.2086 C   0  0  2  0  0  3  0  0  0  0  0  0
    3.2354   -2.3685   -2.0634 C   0  0  0  0  0  0  0  0  0  0  0  0
    2.8902   -2.9188   -2.9506 H   0  0  0  0  0  0  0  0  0  0  0  0
    4.6013   -2.2578   -1.7647 C   0  0  0  0  0  0  0  0  0  0  0  0
    5.3542   -2.7264   -2.4152 H   0  0  0  0  0  0  0  0  0  0  0  0
    4.9862   -1.5350   -0.6272 C   0  0  0  0  0  0  0  0  0  0  0  0
    6.0442   -1.4173   -0.3538 H   0  0  0  0  0  0  0  0  0  0  0  0
    3.9986   -0.9526    0.1740 C   0  0  0  0  0  0  0  0  0  0  0  0
    4.2647   -0.3810    1.0747 H   0  0  0  0  0  0  0  0  0  0  0  0
   -1.2458   -0.6511   -0.7978 C   0  0  0  0  0  0  0  0  0  0  0  0
   -1.9717   -1.8354   -0.7550 C   0  0  0  0  0  0  0  0  0  0  0  0
   -1.4821   -2.8047   -0.9050 H   0  0  0  0  0  0  0  0  0  0  0  0
   -3.3781   -1.8626   -0.5010 C   0  0  0  0  0  0  0  0  0  0  0  0
   -3.9164   -2.8205   -0.4644 H   0  0  0  0  0  0  0  0  0  0  0  0
   -4.1120   -0.7148   -0.2969 C   0  0  0  0  0  0  0  0  0  0  0  0
   -3.4301    0.5389   -0.3514 C   0  0  0  0  0  0  0  0  0  0  0  0
   -2.0065    0.5564   -0.6132 C   0  0  0  0  0  0  0  0  0  0  0  0
  1  8  1  0  0  0  0
  4 34  1  0  0  0  0
  5 10  1  0  0  0  0
  6 32  1  0  0  0  0
  7  1  1  0  0  0  0
  9  2  2  0  0  0  0
  9  3  2  0  0  0  0
 10 11  1  0  0  0  0
 12 13  1  0  0  0  0
 12 10  1  0  0  0  0
 14 12  2  0  0  0  0
 15 14  1  0  0  0  0
 16 18  2  0  0  0  0
 16 14  1  0  0  0  0
 17 16  1  0  0  0  0
 18  5  1  0  0  0  0
 19 18  1  0  0  0  0
 19  4  1  0  0  0  0
 20 19  1  0  0  0  0
 21 19  1  0  0  0  0
 22  4  1  0  0  0  0
 22 23  1  0  0  0  0
 24 22  1  0  0  0  0
 25 22  1  1  0  0  0
 25  6  1  0  0  0  0
 26 28  2  0  0  0  0
 26 25  1  0  0  0  0
 27 26  1  0  0  0  0
 28 30  1  0  0  0  0
 29 28  1  0  0  0  0
 30 31  1  0  0  0  0
 30 32  2  0  0  0  0
 32 33  1  0  0  0  0
 34 35  2  0  0  0  0
 34 41  1  0  0  0  0
 35 37  1  0  0  0  0
 36 35  1  0  0  0  0
 37 38  1  0  0  0  0
 37 39  2  0  0  0  0
 39  9  1  0  0  0  0
 40 39  1  0  0  0  0
 40  8  2  0  0  0  0
 41  7  2  0  0  0  0
 41 40  1  0  0  0  0
M  END
