2,12,23
 OpenBabel05122313063D

 30 30  0  0  0  0  0  0  0  0999 V2000
    2.3138   -0.0000   -0.9309 C   0  0  0  0  0  0  0  0  0  0  0  0
    1.0686   -0.0002   -1.7397 N   0  0  0  0  0  0  0  0  0  0  0  0
    1.0171   -0.8263   -2.3512 H   0  0  0  0  0  0  0  0  0  0  0  0
    1.0173    0.8255   -2.3517 H   0  0  0  0  0  0  0  0  0  0  0  0
    3.5828   -0.0001   -1.7923 C   0  0  0  0  0  0  0  0  0  0  0  0
    3.6147   -0.8970   -2.4435 H   0  0  0  0  0  0  0  0  0  0  0  0
    4.4994   -0.0000   -1.1692 H   0  0  0  0  0  0  0  0  0  0  0  0
    3.6146    0.8968   -2.4436 H   0  0  0  0  0  0  0  0  0  0  0  0
    2.2585    1.2815   -0.0785 C   0  0  0  0  0  0  0  0  0  0  0  0
    3.1847    1.3746    0.5343 H   0  0  0  0  0  0  0  0  0  0  0  0
    2.2488    2.1443   -0.7758 H   0  0  0  0  0  0  0  0  0  0  0  0
    1.0478    1.3646    0.7727 N   0  0  0  0  0  0  0  0  0  0  0  0
    0.6024    2.7661    0.9222 C   0  0  0  0  0  0  0  0  0  0  0  0
    1.3740    3.3901    1.4336 H   0  0  0  0  0  0  0  0  0  0  0  0
   -0.3365    2.7800    1.5046 H   0  0  0  0  0  0  0  0  0  0  0  0
    0.3817    3.1894   -0.0745 H   0  0  0  0  0  0  0  0  0  0  0  0
    1.2793    0.7728    2.1102 C   0  0  0  0  0  0  0  0  0  0  0  0
    2.2316    1.1705    2.5390 H   0  0  0  0  0  0  0  0  0  0  0  0
    0.4523    1.1217    2.7552 H   0  0  0  0  0  0  0  0  0  0  0  0
    1.2792   -0.7725    2.1103 C   0  0  0  0  0  0  0  0  0  0  0  0
    2.2314   -1.1703    2.5393 H   0  0  0  0  0  0  0  0  0  0  0  0
    0.4522   -1.1213    2.7552 H   0  0  0  0  0  0  0  0  0  0  0  0
    1.0478   -1.3645    0.7728 N   0  0  0  0  0  0  0  0  0  0  0  0
    0.6025   -2.7660    0.9224 C   0  0  0  0  0  0  0  0  0  0  0  0
    1.3741   -3.3899    1.4340 H   0  0  0  0  0  0  0  0  0  0  0  0
    0.3819   -3.1894   -0.0742 H   0  0  0  0  0  0  0  0  0  0  0  0
   -0.3365   -2.7799    1.5047 H   0  0  0  0  0  0  0  0  0  0  0  0
    2.2586   -1.2814   -0.0783 C   0  0  0  0  0  0  0  0  0  0  0  0
    2.2491   -2.1443   -0.7754 H   0  0  0  0  0  0  0  0  0  0  0  0
    3.1848   -1.3742    0.5347 H   0  0  0  0  0  0  0  0  0  0  0  0
  1  9  1  0  0  0  0
  1 28  1  0  0  0  0
  2  1  1  0  0  0  0
  3  2  1  0  0  0  0
  4  2  1  0  0  0  0
  5  7  1  0  0  0  0
  5  1  1  0  0  0  0
  6  5  1  0  0  0  0
  8  5  1  0  0  0  0
  9 10  1  0  0  0  0
  9 12  1  0  0  0  0
 11  9  1  0  0  0  0
 12 13  1  0  0  0  0
 12 17  1  0  0  0  0
 13 14  1  0  0  0  0
 13 15  1  0  0  0  0
 16 13  1  0  0  0  0
 17 20  1  0  0  0  0
 17 18  1  0  0  0  0
 17 19  1  0  0  0  0
 20 21  1  0  0  0  0
 20 22  1  0  0  0  0
 23 24  1  0  0  0  0
 23 20  1  0  0  0  0
 24 25  1  0  0  0  0
 24 27  1  0  0  0  0
 26 24  1  0  0  0  0
 28 30  1  0  0  0  0
 28 23  1  0  0  0  0
 29 28  1  0  0  0  0
M  END
