1,2,3
 OpenBabel05122313063D

 47 49  0  0  0  0  0  0  0  0999 V2000
   -0.6259    1.0633   -0.1669 N   0  0  0  0  0  2  0  0  0  0  0  0
    1.9939    1.1452   -0.0163 N   0  0  0  0  0  2  0  0  0  0  0  0
    2.1772   -1.7140    0.0041 N   0  0  0  0  0  2  0  0  0  0  0  0
    1.8767   -2.6944    0.0006 H   0  0  0  0  0  0  0  0  0  0  0  0
   -2.0126    0.7848   -0.2750 C   0  0  0  0  0  0  0  0  0  0  0  0
   -2.4768    0.0652   -1.3914 C   0  0  0  0  0  0  0  0  0  0  0  0
   -1.7620   -0.2333   -2.1705 H   0  0  0  0  0  0  0  0  0  0  0  0
   -3.8340   -0.2652   -1.4882 C   0  0  0  0  0  0  0  0  0  0  0  0
   -4.1906   -0.8211   -2.3698 H   0  0  0  0  0  0  0  0  0  0  0  0
   -4.7497    0.0765   -0.4734 C   0  0  0  0  0  0  0  0  0  0  0  0
   -4.2600    0.7779    0.6488 C   0  0  0  0  0  0  0  0  0  0  0  0
   -4.9411    1.0367    1.4740 H   0  0  0  0  0  0  0  0  0  0  0  0
   -2.9113    1.1300    0.7537 C   0  0  0  0  0  0  0  0  0  0  0  0
   -2.5316    1.6282    1.6566 H   0  0  0  0  0  0  0  0  0  0  0  0
   -0.1351    2.2814   -0.0341 C   0  0  0  0  0  0  0  0  0  0  0  0
   -0.9676    3.5309   -0.0599 C   0  0  0  0  0  0  0  0  0  0  0  0
   -1.9828    3.3176   -0.4397 H   0  0  0  0  0  0  0  0  0  0  0  0
   -0.5007    4.3012   -0.7045 H   0  0  0  0  0  0  0  0  0  0  0  0
   -1.0738    3.9682    0.9551 H   0  0  0  0  0  0  0  0  0  0  0  0
    1.3231    2.3473    0.0994 C   0  0  0  0  0  0  0  0  0  0  0  0
    2.0039    3.5432    0.3393 C   0  0  0  0  0  0  0  0  0  0  0  0
    1.4502    4.4857    0.4361 H   0  0  0  0  0  0  0  0  0  0  0  0
    3.3993    3.4994    0.4920 C   0  0  0  0  0  0  0  0  0  0  0  0
    3.9648    4.4129    0.7263 H   0  0  0  0  0  0  0  0  0  0  0  0
    4.0597    2.2843    0.3598 C   0  0  0  0  0  0  0  0  0  0  0  0
    5.1441    2.2509    0.5116 H   0  0  0  0  0  0  0  0  0  0  0  0
    3.3636    1.0731    0.0692 C   0  0  0  0  0  0  0  0  0  0  0  0
    4.1052   -0.1778   -0.1100 C   0  0  0  0  0  0  0  0  0  0  0  0
    3.4983   -1.5004   -0.1018 C   0  0  0  0  0  0  0  0  0  0  0  0
    4.3700   -2.6413   -0.2020 C   0  0  0  0  0  0  0  0  0  0  0  0
    3.9006   -3.6369   -0.1687 H   0  0  0  0  0  0  0  0  0  0  0  0
    5.7374   -2.5181   -0.3532 C   0  0  0  0  0  0  0  0  0  0  0  0
    6.3607   -3.4218   -0.4368 H   0  0  0  0  0  0  0  0  0  0  0  0
    6.3289   -1.2324   -0.4208 C   0  0  0  0  0  0  0  0  0  0  0  0
    7.4106   -1.1185   -0.5790 H   0  0  0  0  0  0  0  0  0  0  0  0
    5.5197   -0.1127   -0.2987 C   0  0  0  0  0  0  0  0  0  0  0  0
    6.0006    0.8701   -0.3895 H   0  0  0  0  0  0  0  0  0  0  0  0
   -6.2078   -0.3470   -0.5643 C   0  0  0  0  0  0  0  0  0  0  0  0
   -6.3464   -0.8032   -1.5689 H   0  0  0  0  0  0  0  0  0  0  0  0
   -6.5332   -1.4251    0.4852 C   0  0  0  0  0  0  0  0  0  0  0  0
   -6.4182   -1.0268    1.5146 H   0  0  0  0  0  0  0  0  0  0  0  0
   -5.8567   -2.2978    0.3896 H   0  0  0  0  0  0  0  0  0  0  0  0
   -7.5779   -1.7820    0.3758 H   0  0  0  0  0  0  0  0  0  0  0  0
   -7.1688    0.8480   -0.4587 C   0  0  0  0  0  0  0  0  0  0  0  0
   -8.2201    0.5194   -0.5899 H   0  0  0  0  0  0  0  0  0  0  0  0
   -6.9481    1.6141   -1.2288 H   0  0  0  0  0  0  0  0  0  0  0  0
   -7.0974    1.3381    0.5345 H   0  0  0  0  0  0  0  0  0  0  0  0
  1 15  1  0  0  0  0
  2 27  1  0  0  0  0
  2 20  1  0  0  0  0
  4  3  1  0  0  0  0
  5  1  1  0  0  0  0
  5 13  1  0  0  0  0
  6  5  2  0  0  0  0
  7  6  1  0  0  0  0
  8  6  1  0  0  0  0
  8 10  2  0  0  0  0
  9  8  1  0  0  0  0
 10 11  1  0  0  0  0
 11 13  2  0  0  0  0
 11 12  1  0  0  0  0
 13 14  1  0  0  0  0
 15 20  2  0  0  0  0
 16 15  1  0  0  0  0
 16 19  1  0  0  0  0
 17 16  1  0  0  0  0
 18 16  1  0  0  0  0
 20 21  1  0  0  0  0
 21 22  1  0  0  0  0
 21 23  2  0  0  0  0
 23 24  1  0  0  0  0
 25 23  1  0  0  0  0
 25 26  1  0  0  0  0
 27 25  2  0  0  0  0
 28 29  1  0  0  0  0
 28 27  1  0  0  0  0
 29  3  1  0  0  0  0
 30 31  1  0  0  0  0
 30 29  2  0  0  0  0
 32 30  1  0  0  0  0
 33 32  1  0  0  0  0
 34 32  2  0  0  0  0
 34 36  1  0  0  0  0
 35 34  1  0  0  0  0
 36 28  2  0  0  0  0
 37 36  1  0  0  0  0
 38 10  1  0  0  0  0
 38 44  1  0  0  0  0
 38 40  1  0  0  0  0
 39 38  1  0  0  0  0
 40 41  1  0  0  0  0
 42 40  1  0  0  0  0
 43 40  1  0  0  0  0
 44 47  1  0  0  0  0
 45 44  1  0  0  0  0
 46 44  1  0  0  0  0
M  END
