6,7,8
 OpenBabel05122313063D

 46 47  0  0  0  0  0  0  0  0999 V2000
    1.2417    4.0594    1.1354 O   0  0  0  0  0  0  0  0  0  0  0  0
    0.1518    4.3775   -0.7395 O   0  0  0  0  0  0  0  0  0  0  0  0
    4.8993    0.8381    0.4188 O   0  0  0  0  0  0  0  0  0  0  0  0
    4.6561   -0.7420   -1.0774 O   0  0  0  0  0  0  0  0  0  0  0  0
   -1.1634    1.6942   -1.1969 N   0  0  0  0  0  0  0  0  0  0  0  0
   -2.4794   -0.9138   -1.6254 N   0  0  0  0  0  0  0  0  0  0  0  0
   -3.2186   -1.6713    1.0652 N   0  0  0  0  0  0  0  0  0  0  0  0
   -1.9598    0.8165    1.6053 N   0  0  0  0  0  0  0  0  0  0  0  0
    0.8071    3.6874    0.0484 N   0  0  0  0  0  0  0  0  0  0  0  0
    4.2720    0.2577   -0.4634 N   0  0  0  0  0  0  0  0  0  0  0  0
   -1.9053    1.3899   -2.4307 C   0  0  0  0  0  0  0  0  0  0  0  0
   -2.9826    0.3099   -2.2727 C   0  0  0  0  0  0  0  0  0  0  0  0
   -3.5108   -1.9463   -1.3591 C   0  0  0  0  0  0  0  0  0  0  0  0
   -4.2163   -1.6871   -0.0235 C   0  0  0  0  0  0  0  0  0  0  0  0
   -3.5701   -0.9179    2.2907 C   0  0  0  0  0  0  0  0  0  0  0  0
   -3.3211    0.5845    2.1127 C   0  0  0  0  0  0  0  0  0  0  0  0
   -1.6208    2.2030    1.2380 C   0  0  0  0  0  0  0  0  0  0  0  0
   -1.9056    2.5232   -0.2336 C   0  0  0  0  0  0  0  0  0  0  0  0
    0.2326    1.5496   -1.1992 C   0  0  0  0  0  0  0  0  0  0  0  0
    1.1360    2.3241   -0.4064 C   0  0  0  0  0  0  0  0  0  0  0  0
    2.4423    1.8991   -0.1360 C   0  0  0  0  0  0  0  0  0  0  0  0
    2.9305    0.7717   -0.7928 C   0  0  0  0  0  0  0  0  0  0  0  0
    2.1542    0.1143   -1.7580 C   0  0  0  0  0  0  0  0  0  0  0  0
    0.8270    0.4878   -1.9364 C   0  0  0  0  0  0  0  0  0  0  0  0
   -2.3931    2.3172   -2.8028 H   0  0  0  0  0  0  0  0  0  0  0  0
   -1.1864    1.0977   -3.2164 H   0  0  0  0  0  0  0  0  0  0  0  0
   -3.4093    0.0910   -3.2768 H   0  0  0  0  0  0  0  0  0  0  0  0
   -3.8221    0.6943   -1.6560 H   0  0  0  0  0  0  0  0  0  0  0  0
   -1.7002   -1.3603   -2.1433 H   0  0  0  0  0  0  0  0  0  0  0  0
   -4.2529   -2.0010   -2.1841 H   0  0  0  0  0  0  0  0  0  0  0  0
   -2.9838   -2.9217   -1.3218 H   0  0  0  0  0  0  0  0  0  0  0  0
   -5.0115   -2.4456    0.1425 H   0  0  0  0  0  0  0  0  0  0  0  0
   -4.7228   -0.6997   -0.0434 H   0  0  0  0  0  0  0  0  0  0  0  0
   -2.9632   -2.6356    1.3138 H   0  0  0  0  0  0  0  0  0  0  0  0
   -4.6222   -1.0935    2.6043 H   0  0  0  0  0  0  0  0  0  0  0  0
   -2.9183   -1.2990    3.1031 H   0  0  0  0  0  0  0  0  0  0  0  0
   -3.4947    1.0989    3.0835 H   0  0  0  0  0  0  0  0  0  0  0  0
   -4.0481    1.0195    1.3926 H   0  0  0  0  0  0  0  0  0  0  0  0
   -1.2097    0.4674    2.2590 H   0  0  0  0  0  0  0  0  0  0  0  0
   -2.1806    2.9317    1.8627 H   0  0  0  0  0  0  0  0  0  0  0  0
   -0.5540    2.3401    1.4946 H   0  0  0  0  0  0  0  0  0  0  0  0
   -1.7402    3.6069   -0.4154 H   0  0  0  0  0  0  0  0  0  0  0  0
   -2.9801    2.3301   -0.4301 H   0  0  0  0  0  0  0  0  0  0  0  0
    3.0786    2.4731    0.5508 H   0  0  0  0  0  0  0  0  0  0  0  0
    2.5851   -0.7269   -2.3147 H   0  0  0  0  0  0  0  0  0  0  0  0
    0.2185   -0.1354   -2.6024 H   0  0  0  0  0  0  0  0  0  0  0  0
  2  9  2  0  0  0  0
  4 10  2  0  0  0  0
  5 18  1  0  0  0  0
  6 13  1  0  0  0  0
  7 34  1  0  0  0  0
  7 15  1  0  0  0  0
  8 16  1  0  0  0  0
  8 39  1  0  0  0  0
  9  1  2  0  0  0  0
 10  3  2  0  0  0  0
 11 12  1  0  0  0  0
 11  5  1  0  0  0  0
 12 28  1  0  0  0  0
 12  6  1  0  0  0  0
 13 31  1  0  0  0  0
 13 14  1  0  0  0  0
 14 32  1  0  0  0  0
 14  7  1  0  0  0  0
 15 35  1  0  0  0  0
 15 36  1  0  0  0  0
 16 15  1  0  0  0  0
 16 37  1  0  0  0  0
 17 41  1  0  0  0  0
 17  8  1  0  0  0  0
 17 40  1  0  0  0  0
 18 17  1  0  0  0  0
 19  5  1  0  0  0  0
 19 20  1  0  0  0  0
 20 21  2  0  0  0  0
 20  9  1  0  0  0  0
 21 44  1  0  0  0  0
 22 10  1  0  0  0  0
 22 21  1  0  0  0  0
 23 22  2  0  0  0  0
 24 23  1  0  0  0  0
 24 19  2  0  0  0  0
 25 11  1  0  0  0  0
 26 11  1  0  0  0  0
 27 12  1  0  0  0  0
 29  6  1  0  0  0  0
 30 13  1  0  0  0  0
 33 14  1  0  0  0  0
 38 16  1  0  0  0  0
 42 18  1  0  0  0  0
 43 18  1  0  0  0  0
 45 23  1  0  0  0  0
 46 24  1  0  0  0  0
M  END
