2,3,4
 OpenBabel05122313063D

 57 59  0  0  0  0  0  0  0  0999 V2000
    7.1384    0.2833   -0.0287 O   0  0  0  0  0  0  0  0  0  0  0  0
   -1.7672    1.8279   -0.0536 N   0  0  0  0  0  2  0  0  0  0  0  0
   -3.3282   -1.0249    0.1691 N   0  0  0  0  0  0  0  0  0  0  0  0
   -0.4412   -1.8173    0.3182 N   0  0  0  0  0  0  0  0  0  0  0  0
   -0.9107    2.7750    0.4070 C   0  0  0  0  0  3  0  0  0  0  0  0
   -1.2400    4.1302    0.4613 C   0  0  0  0  0  0  0  0  0  0  0  0
   -2.5103    4.5279    0.0203 C   0  0  0  0  0  0  0  0  0  0  0  0
   -3.3964    3.5513   -0.4516 C   0  0  0  0  0  0  0  0  0  0  0  0
   -3.0090    2.2004   -0.4835 C   0  0  0  0  0  0  0  0  0  0  0  0
   -3.9526    1.1328   -0.9863 C   0  0  0  0  0  0  0  0  0  0  0  0
   -4.3311    0.0472    0.0453 C   0  0  0  0  0  0  0  0  0  0  0  0
   -3.4088   -1.6906    1.4871 C   0  0  0  0  0  0  0  0  0  0  0  0
   -2.3698   -2.7908    1.7006 C   0  0  0  0  0  0  0  0  0  0  0  0
   -0.8959   -2.3919    1.6236 C   0  0  0  0  0  0  0  0  0  0  0  0
   -3.3591   -1.9785   -0.9725 C   0  0  0  0  0  0  0  0  0  0  0  0
   -2.0014   -2.1664   -1.6626 C   0  0  0  0  0  0  0  0  0  0  0  0
   -0.8257   -2.6968   -0.8360 C   0  0  0  0  0  0  0  0  0  0  0  0
    1.0357   -1.6087    0.3720 C   0  0  0  0  0  0  0  0  0  0  0  0
    1.5650   -0.6931   -0.7361 C   0  0  0  0  0  0  0  0  0  0  0  0
    3.0351   -0.3918   -0.5642 C   0  0  0  0  0  0  0  0  0  0  0  0
    3.4661    0.6413    0.2870 C   0  0  0  0  0  0  0  0  0  0  0  0
    4.8277    0.9065    0.4981 C   0  0  0  0  0  0  0  0  0  0  0  0
    5.8002    0.1184   -0.1547 C   0  0  0  0  0  0  0  0  0  0  0  0
    5.3808   -0.9230   -1.0137 C   0  0  0  0  0  0  0  0  0  0  0  0
    4.0217   -1.1690   -1.2098 C   0  0  0  0  0  0  0  0  0  0  0  0
    7.6224    1.3150    0.8153 C   0  0  0  0  0  0  0  0  0  0  0  0
    0.0798    2.4182    0.7276 H   0  0  0  0  0  0  0  0  0  0  0  0
   -0.5059    4.8573    0.8357 H   0  0  0  0  0  0  0  0  0  0  0  0
   -2.8074    5.5868    0.0406 H   0  0  0  0  0  0  0  0  0  0  0  0
   -4.3995    3.8304   -0.8050 H   0  0  0  0  0  0  0  0  0  0  0  0
   -4.8826    1.6304   -1.3226 H   0  0  0  0  0  0  0  0  0  0  0  0
   -3.5248    0.6526   -1.8934 H   0  0  0  0  0  0  0  0  0  0  0  0
   -5.3283   -0.3772   -0.2217 H   0  0  0  0  0  0  0  0  0  0  0  0
   -4.4517    0.5200    1.0414 H   0  0  0  0  0  0  0  0  0  0  0  0
   -3.2847   -0.9033    2.2612 H   0  0  0  0  0  0  0  0  0  0  0  0
   -4.4256   -2.1306    1.6397 H   0  0  0  0  0  0  0  0  0  0  0  0
   -2.5349   -3.2039    2.7167 H   0  0  0  0  0  0  0  0  0  0  0  0
   -2.5707   -3.6426    1.0193 H   0  0  0  0  0  0  0  0  0  0  0  0
   -0.2784   -3.2932    1.8494 H   0  0  0  0  0  0  0  0  0  0  0  0
   -0.6621   -1.6415    2.4073 H   0  0  0  0  0  0  0  0  0  0  0  0
   -3.7773   -2.9550   -0.6422 H   0  0  0  0  0  0  0  0  0  0  0  0
   -4.0731   -1.5996   -1.7317 H   0  0  0  0  0  0  0  0  0  0  0  0
   -2.1471   -2.8553   -2.5221 H   0  0  0  0  0  0  0  0  0  0  0  0
   -1.6943   -1.1903   -2.1044 H   0  0  0  0  0  0  0  0  0  0  0  0
    0.0488   -2.7741   -1.5102 H   0  0  0  0  0  0  0  0  0  0  0  0
   -1.0183   -3.7284   -0.4707 H   0  0  0  0  0  0  0  0  0  0  0  0
    1.2660   -1.1498    1.3548 H   0  0  0  0  0  0  0  0  0  0  0  0
    1.5587   -2.5934    0.3496 H   0  0  0  0  0  0  0  0  0  0  0  0
    1.3884   -1.1485   -1.7335 H   0  0  0  0  0  0  0  0  0  0  0  0
    0.9623    0.2459   -0.7100 H   0  0  0  0  0  0  0  0  0  0  0  0
    2.7192    1.2701    0.8008 H   0  0  0  0  0  0  0  0  0  0  0  0
    5.1216    1.7282    1.1642 H   0  0  0  0  0  0  0  0  0  0  0  0
    6.1516   -1.5217   -1.5196 H   0  0  0  0  0  0  0  0  0  0  0  0
    3.7168   -1.9821   -1.8882 H   0  0  0  0  0  0  0  0  0  0  0  0
    7.2911    2.3195    0.4698 H   0  0  0  0  0  0  0  0  0  0  0  0
    8.7253    1.2644    0.7679 H   0  0  0  0  0  0  0  0  0  0  0  0
    7.2983    1.1710    1.8700 H   0  0  0  0  0  0  0  0  0  0  0  0
  1 26  1  0  0  0  0
  2  5  1  0  0  0  0
  3 12  1  0  0  0  0
  4 18  1  0  0  0  0
  4 14  1  0  0  0  0
  5  6  1  0  0  0  0
  5 27  1  0  0  0  0
  6 28  1  0  0  0  0
  7 29  1  0  0  0  0
  7  6  2  0  0  0  0
  8  7  1  0  0  0  0
  9  8  2  0  0  0  0
  9  2  1  0  0  0  0
 10  9  1  0  0  0  0
 10 11  1  0  0  0  0
 11  3  1  0  0  0  0
 11 34  1  0  0  0  0
 12 36  1  0  0  0  0
 12 13  1  0  0  0  0
 12 35  1  0  0  0  0
 13 37  1  0  0  0  0
 14 13  1  0  0  0  0
 14 39  1  0  0  0  0
 14 40  1  0  0  0  0
 15 41  1  0  0  0  0
 15  3  1  0  0  0  0
 16 15  1  0  0  0  0
 16 17  1  0  0  0  0
 17 46  1  0  0  0  0
 17  4  1  0  0  0  0
 18 47  1  0  0  0  0
 19 50  1  0  0  0  0
 19 20  1  0  0  0  0
 19 18  1  0  0  0  0
 20 21  1  0  0  0  0
 21 22  2  0  0  0  0
 21 51  1  0  0  0  0
 22 52  1  0  0  0  0
 23  1  1  0  0  0  0
 23 22  1  0  0  0  0
 24 23  2  0  0  0  0
 25 24  1  0  0  0  0
 25 20  2  0  0  0  0
 26 57  1  0  0  0  0
 30  8  1  0  0  0  0
 31 10  1  0  0  0  0
 32 10  1  0  0  0  0
 33 11  1  0  0  0  0
 38 13  1  0  0  0  0
 42 15  1  0  0  0  0
 43 16  1  0  0  0  0
 44 16  1  0  0  0  0
 45 17  1  0  0  0  0
 48 18  1  0  0  0  0
 49 19  1  0  0  0  0
 53 24  1  0  0  0  0
 54 25  1  0  0  0  0
 55 26  1  0  0  0  0
 56 26  1  0  0  0  0
M  END
