1,2,3
 OpenBabel05122313063D

 61 64  0  0  1  0  0  0  0  0999 V2000
   -3.2484   -0.0327   -0.2308 N   0  0  0  0  0  2  0  0  0  0  0  0
   -1.8454    1.8116    0.4942 N   0  0  0  0  0  2  0  0  0  0  0  0
   -1.7791   -2.0007    0.0156 N   0  0  0  0  0  2  0  0  0  0  0  0
    0.5436    0.7864    0.8376 O   0  0  0  0  0  0  0  0  0  0  0  0
    1.1422   -1.7813    0.6199 O   0  0  0  0  0  0  0  0  0  0  0  0
   -3.9148    1.1735   -0.2655 C   0  0  0  0  0  0  0  0  0  0  0  0
   -5.2507    1.2240   -0.7038 C   0  0  0  0  0  0  0  0  0  0  0  0
   -5.7786    2.1870   -0.7321 H   0  0  0  0  0  0  0  0  0  0  0  0
   -5.8905    0.0429   -1.1046 C   0  0  0  0  0  0  0  0  0  0  0  0
   -6.9326    0.0706   -1.4529 H   0  0  0  0  0  0  0  0  0  0  0  0
   -5.1958   -1.1770   -1.0590 C   0  0  0  0  0  0  0  0  0  0  0  0
   -5.6858   -2.1103   -1.3669 H   0  0  0  0  0  0  0  0  0  0  0  0
   -3.8638   -1.1969   -0.6105 C   0  0  0  0  0  0  0  0  0  0  0  0
   -2.9767   -2.3338   -0.4287 C   0  0  2  0  0  3  0  0  0  0  0  0
   -3.4482   -3.7409   -0.6711 C   0  0  0  0  0  0  0  0  0  0  0  0
   -2.7657   -4.2895   -1.3507 H   0  0  0  0  0  0  0  0  0  0  0  0
   -4.4518   -3.7507   -1.1308 H   0  0  0  0  0  0  0  0  0  0  0  0
   -3.5088   -4.3152    0.2767 H   0  0  0  0  0  0  0  0  0  0  0  0
   -0.8354   -3.0478    0.3776 C   0  0  0  0  0  0  0  0  0  0  0  0
   -1.1823   -4.0464    0.0465 H   0  0  0  0  0  0  0  0  0  0  0  0
   -0.7682   -3.0584    1.4882 H   0  0  0  0  0  0  0  0  0  0  0  0
    0.5608   -2.7930   -0.1708 C   0  0  0  0  0  0  0  0  0  0  0  0
    1.1568   -3.7354   -0.1180 H   0  0  0  0  0  0  0  0  0  0  0  0
    0.5011   -2.4818   -1.2385 H   0  0  0  0  0  0  0  0  0  0  0  0
    2.0059   -0.8832   -0.0469 C   0  0  2  0  0  0  0  0  0  0  0  0
    1.6108   -0.6584   -1.0639 H   0  0  0  0  0  0  0  0  0  0  0  0
    3.4306   -1.4007   -0.1479 C   0  0  0  0  0  0  0  0  0  0  0  0
    3.9474   -2.2307    0.8648 C   0  0  0  0  0  0  0  0  0  0  0  0
    3.2864   -2.5280    1.6934 H   0  0  0  0  0  0  0  0  0  0  0  0
    5.2754   -2.6793    0.8058 C   0  0  0  0  0  0  0  0  0  0  0  0
    5.6698   -3.3307    1.6010 H   0  0  0  0  0  0  0  0  0  0  0  0
    6.0998   -2.2995   -0.2657 C   0  0  0  0  0  0  0  0  0  0  0  0
    7.1420   -2.6509   -0.3126 H   0  0  0  0  0  0  0  0  0  0  0  0
    5.5878   -1.4754   -1.2810 C   0  0  0  0  0  0  0  0  0  0  0  0
    6.2274   -1.1790   -2.1263 H   0  0  0  0  0  0  0  0  0  0  0  0
    4.2588   -1.0309   -1.2241 C   0  0  0  0  0  0  0  0  0  0  0  0
    3.8571   -0.3826   -2.0182 H   0  0  0  0  0  0  0  0  0  0  0  0
    1.9295    0.4141    0.7754 C   0  0  1  0  0  0  0  0  0  0  0  0
    2.2893    0.1814    1.8047 H   0  0  0  0  0  0  0  0  0  0  0  0
    2.7645    1.5207    0.1634 C   0  0  0  0  0  0  0  0  0  0  0  0
    2.3704    2.1005   -1.0616 C   0  0  0  0  0  0  0  0  0  0  0  0
    1.4491    1.7543   -1.5597 H   0  0  0  0  0  0  0  0  0  0  0  0
    3.1657    3.0930   -1.6525 C   0  0  0  0  0  0  0  0  0  0  0  0
    2.8566    3.5367   -2.6114 H   0  0  0  0  0  0  0  0  0  0  0  0
    4.3558    3.5128   -1.0336 C   0  0  0  0  0  0  0  0  0  0  0  0
    4.9780    4.2903   -1.5029 H   0  0  0  0  0  0  0  0  0  0  0  0
    4.7502    2.9365    0.1835 C   0  0  0  0  0  0  0  0  0  0  0  0
    5.6821    3.2591    0.6724 H   0  0  0  0  0  0  0  0  0  0  0  0
    3.9544    1.9462    0.7801 C   0  0  0  0  0  0  0  0  0  0  0  0
    4.2650    1.4852    1.7311 H   0  0  0  0  0  0  0  0  0  0  0  0
    0.2560    1.9022    1.6819 C   0  0  0  0  0  0  0  0  0  0  0  0
    1.1650    2.5199    1.8341 H   0  0  0  0  0  0  0  0  0  0  0  0
   -0.1180    1.5285    2.6597 H   0  0  0  0  0  0  0  0  0  0  0  0
   -0.8062    2.7143    0.9597 C   0  0  0  0  0  0  0  0  0  0  0  0
   -1.2119    3.5029    1.6291 H   0  0  0  0  0  0  0  0  0  0  0  0
   -0.3508    3.2144    0.0753 H   0  0  0  0  0  0  0  0  0  0  0  0
   -3.0553    2.2475    0.1806 C   0  0  0  0  0  0  0  0  0  0  0  0
   -3.4778    3.6819    0.2727 C   0  0  0  0  0  0  0  0  0  0  0  0
   -3.4266    4.0516    1.3189 H   0  0  0  0  0  0  0  0  0  0  0  0
   -4.5147    3.8230   -0.0804 H   0  0  0  0  0  0  0  0  0  0  0  0
   -2.8194    4.3346   -0.3374 H   0  0  0  0  0  0  0  0  0  0  0  0
  2 54  1  0  0  0  0
  3 19  1  0  0  0  0
  4 51  1  0  0  0  0
  6  1  1  0  0  0  0
  6 57  2  0  0  0  0
  7  6  1  0  0  0  0
  8  7  1  0  0  0  0
  9 11  1  0  0  0  0
  9  7  2  0  0  0  0
 10  9  1  0  0  0  0
 11 13  2  0  0  0  0
 12 11  1  0  0  0  0
 13 14  1  0  0  0  0
 13  1  1  0  0  0  0
 14 15  1  1  0  0  0
 14  3  1  0  0  0  0
 15 18  1  0  0  0  0
 16 15  1  0  0  0  0
 17 15  1  0  0  0  0
 19 21  1  0  0  0  0
 20 19  1  0  0  0  0
 22 23  1  0  0  0  0
 22 19  1  0  0  0  0
 22  5  1  0  0  0  0
 24 22  1  0  0  0  0
 25 26  1  6  0  0  0
 25  5  1  0  0  0  0
 25 38  1  0  0  0  0
 27 25  1  0  0  0  0
 27 28  1  0  0  0  0
 28 29  1  0  0  0  0
 30 28  2  0  0  0  0
 30 31  1  0  0  0  0
 32 30  1  0  0  0  0
 33 32  1  0  0  0  0
 34 36  1  0  0  0  0
 34 32  2  0  0  0  0
 35 34  1  0  0  0  0
 36 27  2  0  0  0  0
 37 36  1  0  0  0  0
 38  4  1  0  0  0  0
 38 39  1  1  0  0  0
 40 38  1  0  0  0  0
 40 49  1  0  0  0  0
 41 40  2  0  0  0  0
 42 41  1  0  0  0  0
 43 41  1  0  0  0  0
 43 45  2  0  0  0  0
 44 43  1  0  0  0  0
 45 47  1  0  0  0  0
 46 45  1  0  0  0  0
 47 48  1  0  0  0  0
 47 49  2  0  0  0  0
 49 50  1  0  0  0  0
 51 52  1  0  0  0  0
 51 53  1  0  0  0  0
 54 55  1  0  0  0  0
 54 51  1  0  0  0  0
 56 54  1  0  0  0  0
 57 58  1  0  0  0  0
 57  2  1  0  0  0  0
 58 59  1  0  0  0  0
 60 58  1  0  0  0  0
 61 58  1  0  0  0  0
M  END
