1,5,8
q = 0.0, confidence = 0.992

 63 68  0  0  1  0  0  0  0  0999 V2000
   -2.6576   -0.0284   -0.3938 N   0  0  0  0  0  2  0  0  0  0  0  0
   -2.0841    1.1865   -0.3997 C   0  0  2  0  0  3  0  0  0  0  0  0
   -0.5133   -1.0809   -0.2812 C   0  0  0  0  0  0  0  0  0  0  0  0
    0.0863   -2.0001   -0.2539 H   0  0  0  0  0  0  0  0  0  0  0  0
   -4.3482    1.9641   -0.3728 N   0  0  0  0  0  2  0  0  0  0  0  0
    6.4338    1.9149    0.0415 C   0  0  0  0  0  0  0  0  0  0  0  0
    4.4455    0.4968   -0.1220 C   0  0  0  0  0  0  0  0  0  0  0  0
   -4.0430   -2.2395   -0.2534 N   0  0  0  0  0  2  0  0  0  0  0  0
    6.6857   -0.5205   -0.0907 C   0  0  0  0  0  0  0  0  0  0  0  0
    5.8507    0.6159   -0.0567 N   0  0  0  0  0  0  0  0  0  0  0  0
    1.6031    0.2860   -0.2355 C   0  0  0  0  0  0  0  0  0  0  0  0
    0.1307    0.1773   -0.2929 C   0  0  0  0  0  0  0  0  0  0  0  0
   10.3278   -4.0599    0.4088 O   0  0  0  0  0  0  0  0  0  0  0  0
    7.8959   -0.5371    0.6507 C   0  0  0  0  0  0  0  0  0  0  0  0
    8.1636    0.3366    1.2617 H   0  0  0  0  0  0  0  0  0  0  0  0
   -2.6698    3.6742   -0.5363 C   0  0  0  0  0  0  0  0  0  0  0  0
   -1.6109    3.9608   -0.5975 H   0  0  0  0  0  0  0  0  0  0  0  0
   -1.9149   -1.1458   -0.3262 C   0  0  0  0  0  0  0  0  0  0  0  0
    2.3840   -0.6750    0.4498 C   0  0  0  0  0  0  0  0  0  0  0  0
    1.8875   -1.4952    0.9896 H   0  0  0  0  0  0  0  0  0  0  0  0
   -0.6882    1.3278   -0.3517 C   0  0  0  0  0  0  0  0  0  0  0  0
   -0.2306    2.3251   -0.3170 H   0  0  0  0  0  0  0  0  0  0  0  0
   -2.7043   -2.4097   -0.2984 C   0  0  2  0  0  3  0  0  0  0  0  0
    3.7737   -0.5720    0.5165 C   0  0  0  0  0  0  0  0  0  0  0  0
    4.3528   -1.3132    1.0849 H   0  0  0  0  0  0  0  0  0  0  0  0
    8.3805   -2.7846   -0.1605 C   0  0  0  0  0  0  0  0  0  0  0  0
    8.0855    3.5471   -0.6878 C   0  0  0  0  0  0  0  0  0  0  0  0
    8.9276    3.8175   -1.3426 H   0  0  0  0  0  0  0  0  0  0  0  0
   -5.3102    2.8937   -0.4078 C   0  0  0  0  0  3  0  0  0  0  0  0
   -6.3423    2.5033   -0.3700 H   0  0  0  0  0  0  0  0  0  0  0  0
   -3.0480    2.3226   -0.4369 C   0  0  0  0  0  0  0  0  0  0  0  0
    7.5127    2.2728   -0.7928 C   0  0  0  0  0  0  0  0  0  0  0  0
    7.8973    1.5436   -1.5207 H   0  0  0  0  0  0  0  0  0  0  0  0
    6.3390   -1.6508   -0.8709 C   0  0  0  0  0  0  0  0  0  0  0  0
    5.4133   -1.6366   -1.4633 H   0  0  0  0  0  0  0  0  0  0  0  0
    3.6758    1.4616   -0.8130 C   0  0  0  0  0  0  0  0  0  0  0  0
    4.1840    2.2903   -1.3259 H   0  0  0  0  0  0  0  0  0  0  0  0
    8.7274   -1.6527    0.6113 C   0  0  0  0  0  0  0  0  0  0  0  0
    9.6643   -1.6884    1.1880 H   0  0  0  0  0  0  0  0  0  0  0  0
    2.2853    1.3574   -0.8587 C   0  0  0  0  0  0  0  0  0  0  0  0
    1.7168    2.1041   -1.4330 H   0  0  0  0  0  0  0  0  0  0  0  0
    5.9318    2.8481    0.9719 C   0  0  0  0  0  0  0  0  0  0  0  0
    5.0953    2.5617    1.6259 H   0  0  0  0  0  0  0  0  0  0  0  0
    7.5810    4.4800    0.2332 C   0  0  0  0  0  0  0  0  0  0  0  0
    8.0299    5.4814    0.3088 H   0  0  0  0  0  0  0  0  0  0  0  0
    6.5007    4.1255    1.0580 C   0  0  0  0  0  0  0  0  0  0  0  0
    6.1043    4.8465    1.7888 H   0  0  0  0  0  0  0  0  0  0  0  0
   -2.9842   -4.8100   -0.2903 C   0  0  0  0  0  0  0  0  0  0  0  0
   -2.5624   -5.8261   -0.3049 H   0  0  0  0  0  0  0  0  0  0  0  0
    7.1775   -2.7662   -0.8962 C   0  0  0  0  0  0  0  0  0  0  0  0
    6.9084   -3.6400   -1.5122 H   0  0  0  0  0  0  0  0  0  0  0  0
    9.2692   -3.9662   -0.1934 C   0  0  0  0  0  0  0  0  0  0  0  0
    8.8862   -4.8137   -0.8412 H   0  0  0  0  0  0  0  0  0  0  0  0
   -4.8607   -3.2986   -0.2321 C   0  0  0  0  0  0  0  0  0  0  0  0
   -5.9385   -3.0596   -0.2141 H   0  0  0  0  0  0  0  0  0  0  0  0
   -2.1346   -3.6960   -0.3196 C   0  0  0  0  0  0  0  0  0  0  0  0
   -1.0450   -3.8303   -0.3642 H   0  0  0  0  0  0  0  0  0  0  0  0
   -5.0165    4.2625   -0.5001 C   0  0  0  0  0  0  0  0  0  0  0  0
   -5.8295    5.0022   -0.5226 H   0  0  0  0  0  0  0  0  0  0  0  0
   -4.3722   -4.6138   -0.2468 C   0  0  0  0  0  0  0  0  0  0  0  0
   -5.0699   -5.4631   -0.2258 H   0  0  0  0  0  0  0  0  0  0  0  0
   -3.6713    4.6540   -0.5641 C   0  0  0  0  0  0  0  0  0  0  0  0
   -3.4004    5.7178   -0.6393 H   0  0  0  0  0  0  0  0  0  0  0  0
  1 18  1  0  0  0  0
  2 31  1  1  0  0  0
  2  1  1  0  0  0  0
  2 21  1  0  0  0  0
  3  4  1  0  0  0  0
  6 42  1  0  0  0  0
  7 10  1  0  0  0  0
  7 24  1  0  0  0  0
  8 54  1  0  0  0  0
  9 10  1  0  0  0  0
  9 14  1  0  0  0  0
 10  6  1  0  0  0  0
 11 19  1  0  0  0  0
 12  3  1  0  0  0  0
 12 11  1  0  0  0  0
 14 15  1  0  0  0  0
 16 31  2  0  0  0  0
 17 16  1  0  0  0  0
 18  3  2  0  0  0  0
 19 24  2  0  0  0  0
 19 20  1  0  0  0  0
 21 22  1  0  0  0  0
 21 12  2  0  0  0  0
 23 18  1  6  0  0  0
 23  8  1  0  0  0  0
 24 25  1  0  0  0  0
 26 38  1  0  0  0  0
 27 44  2  0  0  0  0
 28 27  1  0  0  0  0
 29  5  1  0  0  0  0
 29 30  1  0  0  0  0
 31  5  1  0  0  0  0
 32 27  1  0  0  0  0
 32  6  2  0  0  0  0
 33 32  1  0  0  0  0
 34  9  2  0  0  0  0
 35 34  1  0  0  0  0
 36  7  2  0  0  0  0
 37 36  1  0  0  0  0
 38 14  2  0  0  0  0
 38 39  1  0  0  0  0
 40 36  1  0  0  0  0
 40 11  2  0  0  0  0
 41 40  1  0  0  0  0
 42 46  2  0  0  0  0
 42 43  1  0  0  0  0
 44 45  1  0  0  0  0
 44 46  1  0  0  0  0
 46 47  1  0  0  0  0
 48 60  1  0  0  0  0
 49 48  1  0  0  0  0
 50 34  1  0  0  0  0
 50 26  2  0  0  0  0
 51 50  1  0  0  0  0
 52 26  1  0  0  0  0
 52 13  2  0  0  0  0
 53 52  1  0  0  0  0
 54 55  1  0  0  0  0
 56 23  1  0  0  0  0
 56 48  2  0  0  0  0
 57 56  1  0  0  0  0
 58 29  1  0  0  0  0
 59 58  1  0  0  0  0
 60 54  2  0  0  0  0
 60 61  1  0  0  0  0
 62 16  1  0  0  0  0
 62 58  2  0  0  0  0
 63 62  1  0  0  0  0
M  END
