1,2,3
 OpenBabel05122313063D

 49 51  0  0  1  0  0  0  0  0999 V2000
    2.0969   -0.7467    0.0492 N   0  0  0  0  0  2  0  0  0  0  0  0
    0.0075    0.8193   -0.0283 N   0  0  0  0  0  2  0  0  0  0  0  0
   -2.0996   -0.7215   -0.0942 N   0  0  0  0  0  2  0  0  0  0  0  0
    2.3507    0.5431    0.0104 C   0  0  2  0  0  3  0  0  0  0  0  0
    3.7058    1.2134    0.0351 C   0  0  0  0  0  0  0  0  0  0  0  0
    3.6718    2.6176   -0.5950 C   0  0  0  0  0  0  0  0  0  0  0  0
    2.6030    3.5243    0.0279 C   0  0  0  0  0  0  0  0  0  0  0  0
    1.2500    2.8655   -0.0021 C   0  0  0  0  0  0  0  0  0  0  0  0
    1.1893    1.4524   -0.0178 C   0  0  0  0  0  0  0  0  0  0  0  0
    0.0230    3.5600   -0.0047 C   0  0  0  0  0  0  0  0  0  0  0  0
   -1.1667    1.4664   -0.0236 C   0  0  0  0  0  0  0  0  0  0  0  0
   -1.2119    2.8800   -0.0165 C   0  0  0  0  0  0  0  0  0  0  0  0
   -2.5585    3.5524   -0.0304 C   0  0  0  0  0  0  0  0  0  0  0  0
   -3.6323    2.6492    0.5898 C   0  0  0  0  0  0  0  0  0  0  0  0
   -3.6873    1.2533   -0.0582 C   0  0  0  0  0  0  0  0  0  0  0  0
   -2.3380    0.5709   -0.0525 C   0  0  0  0  0  0  0  0  0  0  0  0
    3.2084   -1.7103    0.1669 C   0  0  0  0  0  0  0  0  0  0  0  0
    3.2029   -2.6868   -1.0119 C   0  0  0  0  0  0  0  0  0  0  0  0
    3.1614   -2.3773    1.5479 C   0  0  0  0  0  0  0  0  0  0  0  0
   -3.2278   -1.6688   -0.1952 C   0  0  0  0  0  0  0  0  0  0  0  0
   -3.0475   -2.5814   -1.4121 C   0  0  0  0  0  0  0  0  0  0  0  0
   -3.4054   -2.4095    1.1350 C   0  0  0  0  0  0  0  0  0  0  0  0
    4.4653    0.5923   -0.4764 H   0  0  0  0  0  0  0  0  0  0  0  0
    4.0340    1.2811    1.0984 H   0  0  0  0  0  0  0  0  0  0  0  0
    4.6711    3.0828   -0.4920 H   0  0  0  0  0  0  0  0  0  0  0  0
    3.4785    2.5217   -1.6847 H   0  0  0  0  0  0  0  0  0  0  0  0
    2.8648    3.7464    1.0883 H   0  0  0  0  0  0  0  0  0  0  0  0
    2.5634    4.5062   -0.4850 H   0  0  0  0  0  0  0  0  0  0  0  0
    0.0295    4.6615    0.0044 H   0  0  0  0  0  0  0  0  0  0  0  0
   -2.8253    3.7883   -1.0865 H   0  0  0  0  0  0  0  0  0  0  0  0
   -2.5059    4.5282    0.4929 H   0  0  0  0  0  0  0  0  0  0  0  0
   -3.4312    2.5373    1.6765 H   0  0  0  0  0  0  0  0  0  0  0  0
   -4.6272    3.1266    0.5009 H   0  0  0  0  0  0  0  0  0  0  0  0
   -4.4466    0.6329    0.4540 H   0  0  0  0  0  0  0  0  0  0  0  0
   -4.0242    1.3404   -1.1174 H   0  0  0  0  0  0  0  0  0  0  0  0
    4.1632   -1.1488    0.1206 H   0  0  0  0  0  0  0  0  0  0  0  0
    2.2931   -3.3114   -1.0292 H   0  0  0  0  0  0  0  0  0  0  0  0
    4.0821   -3.3564   -0.9365 H   0  0  0  0  0  0  0  0  0  0  0  0
    3.2696   -2.1414   -1.9739 H   0  0  0  0  0  0  0  0  0  0  0  0
    4.0063   -3.0872    1.6431 H   0  0  0  0  0  0  0  0  0  0  0  0
    2.2186   -2.9328    1.7058 H   0  0  0  0  0  0  0  0  0  0  0  0
    3.2531   -1.6232    2.3543 H   0  0  0  0  0  0  0  0  0  0  0  0
   -4.1533   -1.0856   -0.3761 H   0  0  0  0  0  0  0  0  0  0  0  0
   -3.9480   -3.2164   -1.5258 H   0  0  0  0  0  0  0  0  0  0  0  0
   -2.1686   -3.2411   -1.3108 H   0  0  0  0  0  0  0  0  0  0  0  0
   -2.9316   -1.9841   -2.3378 H   0  0  0  0  0  0  0  0  0  0  0  0
   -3.6299   -1.6999    1.9560 H   0  0  0  0  0  0  0  0  0  0  0  0
   -2.4965   -2.9745    1.4138 H   0  0  0  0  0  0  0  0  0  0  0  0
   -4.2490   -3.1227    1.0546 H   0  0  0  0  0  0  0  0  0  0  0  0
  1 17  1  0  0  0  0
  2 11  1  0  0  0  0
  2  9  1  0  0  0  0
  3 16  1  0  0  0  0
  4  5  1  0  0  0  0
  4  1  1  1  0  0  0
  5 24  1  0  0  0  0
  6 25  1  0  0  0  0
  6  7  1  0  0  0  0
  6  5  1  0  0  0  0
  7 27  1  0  0  0  0
  8  7  1  0  0  0  0
  9  8  2  0  0  0  0
  9  4  1  0  0  0  0
 10  8  1  0  0  0  0
 10 29  1  0  0  0  0
 11 12  1  0  0  0  0
 12 10  2  0  0  0  0
 13 12  1  0  0  0  0
 13 31  1  0  0  0  0
 13 14  1  0  0  0  0
 14 32  1  0  0  0  0
 15 16  1  0  0  0  0
 15 34  1  0  0  0  0
 15 14  1  0  0  0  0
 16 11  2  0  0  0  0
 17 19  1  0  0  0  0
 18 38  1  0  0  0  0
 18 17  1  0  0  0  0
 19 40  1  0  0  0  0
 19 41  1  0  0  0  0
 19 42  1  0  0  0  0
 20  3  1  0  0  0  0
 20 22  1  0  0  0  0
 21 45  1  0  0  0  0
 21 20  1  0  0  0  0
 22 48  1  0  0  0  0
 22 47  1  0  0  0  0
 23  5  1  0  0  0  0
 26  6  1  0  0  0  0
 28  7  1  0  0  0  0
 30 13  1  0  0  0  0
 33 14  1  0  0  0  0
 35 15  1  0  0  0  0
 36 17  1  0  0  0  0
 37 18  1  0  0  0  0
 39 18  1  0  0  0  0
 43 20  1  0  0  0  0
 44 21  1  0  0  0  0
 46 21  1  0  0  0  0
 49 22  1  0  0  0  0
M  END
