3,5,6
 OpenBabel05122313063D

 64 68  0  0  1  0  0  0  0  0999 V2000
   -1.1309    0.1730   -0.3627 P   0  0  0  0  0  4  0  0  0  0  0  0
    0.2927    2.2371    0.5764 N   0  0  0  0  0  0  0  0  0  0  0  0
    1.5585    1.7609    0.3260 N   0  0  0  0  0  2  0  0  0  0  0  0
   -0.5420    0.6758    2.1746 N   0  0  0  0  0  0  0  0  0  0  0  0
    0.5530   -0.1378    2.3489 N   0  0  0  0  0  2  0  0  0  0  0  0
    0.0685   -0.9648   -0.5093 N   0  0  0  0  0  2  0  0  0  0  0  0
   -0.9855    4.3873    0.6615 C   0  0  0  0  0  0  0  0  0  0  0  0
   -1.7705    3.7214    1.0696 H   0  0  0  0  0  0  0  0  0  0  0  0
   -1.3527    4.8062   -0.2982 H   0  0  0  0  0  0  0  0  0  0  0  0
   -0.8192    5.2342    1.3562 H   0  0  0  0  0  0  0  0  0  0  0  0
    0.2650    3.6029    0.4591 C   0  0  2  0  0  3  0  0  0  0  0  0
    1.5635    4.0016    0.1274 C   0  0  0  0  0  0  0  0  0  0  0  0
    1.9114    5.0255   -0.0456 H   0  0  0  0  0  0  0  0  0  0  0  0
    2.3417    2.8194    0.0593 C   0  0  0  0  0  0  0  0  0  0  0  0
    3.7963    2.6597   -0.2418 C   0  0  0  0  0  0  0  0  0  0  0  0
    4.3233    2.1711    0.6032 H   0  0  0  0  0  0  0  0  0  0  0  0
    4.2686    3.6408   -0.4329 H   0  0  0  0  0  0  0  0  0  0  0  0
    3.9463    2.0061   -1.1260 H   0  0  0  0  0  0  0  0  0  0  0  0
   -2.6358    1.3976    3.3397 C   0  0  0  0  0  0  0  0  0  0  0  0
   -2.4847    2.4691    3.1002 H   0  0  0  0  0  0  0  0  0  0  0  0
   -3.0819    1.3156    4.3480 H   0  0  0  0  0  0  0  0  0  0  0  0
   -3.3599    1.0000    2.5990 H   0  0  0  0  0  0  0  0  0  0  0  0
   -1.3507    0.6459    3.2807 C   0  0  1  0  0  3  0  0  0  0  0  0
   -0.7375   -0.2111    4.1978 C   0  0  0  0  0  0  0  0  0  0  0  0
   -1.1053   -0.4724    5.1957 H   0  0  0  0  0  0  0  0  0  0  0  0
    0.4529   -0.6735    3.5751 C   0  0  0  0  0  0  0  0  0  0  0  0
    1.5048   -1.5921    4.1116 C   0  0  0  0  0  0  0  0  0  0  0  0
    1.9297   -2.2223    3.3058 H   0  0  0  0  0  0  0  0  0  0  0  0
    1.0898   -2.2516    4.8972 H   0  0  0  0  0  0  0  0  0  0  0  0
    2.3458   -1.0219    4.5592 H   0  0  0  0  0  0  0  0  0  0  0  0
   -0.7590    1.3317    0.9193 C   0  0  2  0  0  3  0  0  0  0  0  0
   -1.3180    1.1707   -1.8766 C   0  0  0  0  0  0  0  0  0  0  0  0
   -2.2155    2.2572   -1.9384 C   0  0  0  0  0  0  0  0  0  0  0  0
   -2.8584    2.4853   -1.0753 H   0  0  0  0  0  0  0  0  0  0  0  0
   -2.2588    3.0606   -3.0871 C   0  0  0  0  0  0  0  0  0  0  0  0
   -2.9583    3.9091   -3.1366 H   0  0  0  0  0  0  0  0  0  0  0  0
   -1.4023    2.7892   -4.1676 C   0  0  0  0  0  0  0  0  0  0  0  0
   -1.4355    3.4237   -5.0665 H   0  0  0  0  0  0  0  0  0  0  0  0
   -0.4964    1.7190   -4.0979 C   0  0  0  0  0  0  0  0  0  0  0  0
    0.1855    1.5157   -4.9372 H   0  0  0  0  0  0  0  0  0  0  0  0
   -0.4480    0.9093   -2.9531 C   0  0  0  0  0  0  0  0  0  0  0  0
    0.2762    0.0842   -2.8736 H   0  0  0  0  0  0  0  0  0  0  0  0
   -2.6939   -0.6570    0.0972 C   0  0  0  0  0  0  0  0  0  0  0  0
   -2.5979   -1.6484    1.0964 C   0  0  0  0  0  0  0  0  0  0  0  0
   -1.6091   -1.9285    1.4906 H   0  0  0  0  0  0  0  0  0  0  0  0
   -3.7579   -2.2751    1.5720 C   0  0  0  0  0  0  0  0  0  0  0  0
   -3.6788   -3.0440    2.3553 H   0  0  0  0  0  0  0  0  0  0  0  0
   -5.0126   -1.9318    1.0428 C   0  0  0  0  0  0  0  0  0  0  0  0
   -5.9216   -2.4300    1.4129 H   0  0  0  0  0  0  0  0  0  0  0  0
   -5.1061   -0.9627    0.0307 C   0  0  0  0  0  0  0  0  0  0  0  0
   -6.0866   -0.7047   -0.3977 H   0  0  0  0  0  0  0  0  0  0  0  0
   -3.9505   -0.3228   -0.4424 C   0  0  0  0  0  0  0  0  0  0  0  0
   -4.0278    0.4286   -1.2418 H   0  0  0  0  0  0  0  0  0  0  0  0
   -0.0277   -2.1731   -1.2117 C   0  0  0  0  0  0  0  0  0  0  0  0
   -1.0688   -2.4656   -2.1299 C   0  0  0  0  0  0  0  0  0  0  0  0
   -1.8501   -1.7173   -2.3305 H   0  0  0  0  0  0  0  0  0  0  0  0
   -1.1149   -3.6988   -2.7955 C   0  0  0  0  0  0  0  0  0  0  0  0
   -1.9375   -3.8966   -3.5005 H   0  0  0  0  0  0  0  0  0  0  0  0
   -0.1257   -4.6698   -2.5783 C   0  0  0  0  0  0  0  0  0  0  0  0
   -0.1630   -5.6341   -3.1064 H   0  0  0  0  0  0  0  0  0  0  0  0
    0.9159   -4.3871   -1.6772 C   0  0  0  0  0  0  0  0  0  0  0  0
    1.7055   -5.1326   -1.4945 H   0  0  0  0  0  0  0  0  0  0  0  0
    0.9658   -3.1630   -1.0027 C   0  0  0  0  0  0  0  0  0  0  0  0
    1.7806   -2.9503   -0.2926 H   0  0  0  0  0  0  0  0  0  0  0  0
  1 43  1  0  0  0  0
  2 31  1  0  0  0  0
  3  2  1  0  0  0  0
  4  5  1  0  0  0  0
  4 23  1  0  0  0  0
  5 26  1  0  0  0  0
  6  1  1  0  0  0  0
  7  8  1  0  0  0  0
  7 10  1  0  0  0  0
  9  7  1  0  0  0  0
 11  2  1  0  0  0  0
 11  7  1  6  0  0  0
 12 11  1  0  0  0  0
 13 12  1  0  0  0  0
 14 12  2  0  0  0  0
 14  3  1  0  0  0  0
 15 14  1  0  0  0  0
 15 16  1  0  0  0  0
 17 15  1  0  0  0  0
 18 15  1  0  0  0  0
 19 21  1  0  0  0  0
 20 19  1  0  0  0  0
 22 19  1  0  0  0  0
 23 19  1  6  0  0  0
 23 24  1  0  0  0  0
 24 25  1  0  0  0  0
 26 27  1  0  0  0  0
 26 24  2  0  0  0  0
 27 30  1  0  0  0  0
 27 29  1  0  0  0  0
 28 27  1  0  0  0  0
 31  1  1  6  0  0  0
 31  4  1  0  0  0  0
 32  1  1  0  0  0  0
 33 32  1  0  0  0  0
 33 34  1  0  0  0  0
 35 33  2  0  0  0  0
 36 35  1  0  0  0  0
 37 39  2  0  0  0  0
 37 35  1  0  0  0  0
 38 37  1  0  0  0  0
 39 41  1  0  0  0  0
 40 39  1  0  0  0  0
 41 42  1  0  0  0  0
 41 32  2  0  0  0  0
 43 44  1  0  0  0  0
 44 45  1  0  0  0  0
 44 46  2  0  0  0  0
 46 47  1  0  0  0  0
 48 49  1  0  0  0  0
 48 46  1  0  0  0  0
 50 48  2  0  0  0  0
 51 50  1  0  0  0  0
 52 50  1  0  0  0  0
 52 43  2  0  0  0  0
 53 52  1  0  0  0  0
 54 63  1  0  0  0  0
 54  6  1  0  0  0  0
 55 54  2  0  0  0  0
 56 55  1  0  0  0  0
 57 59  2  0  0  0  0
 57 55  1  0  0  0  0
 58 57  1  0  0  0  0
 59 61  1  0  0  0  0
 60 59  1  0  0  0  0
 61 62  1  0  0  0  0
 61 63  2  0  0  0  0
 63 64  1  0  0  0  0
M  END
