2,7,8
q = 0.0, confidence = 0.996

 65 70  0  0  1  0  0  0  0  0999 V2000
   -4.9062    1.0482   -0.0454 N   0  0  0  0  0  0  0  0  0  0  0  0
    5.3619    1.7255   -0.2446 N   0  0  0  0  0  2  0  0  0  0  0  0
   -7.8535   -1.1221    0.6884 C   0  0  0  0  0  0  0  0  0  0  0  0
   -8.7505   -1.1267    1.3242 H   0  0  0  0  0  0  0  0  0  0  0  0
    1.3376   -1.0486   -0.2848 C   0  0  0  0  0  0  0  0  0  0  0  0
    0.6804   -1.9281   -0.2719 H   0  0  0  0  0  0  0  0  0  0  0  0
    3.5426   -0.1328   -0.3797 N   0  0  0  0  0  2  0  0  0  0  0  0
    4.7934   -2.4107   -0.2134 N   0  0  0  0  0  2  0  0  0  0  0  0
   -0.6866    0.4518   -0.2172 C   0  0  0  0  0  0  0  0  0  0  0  0
   -2.6754    1.7816   -0.7599 C   0  0  0  0  0  0  0  0  0  0  0  0
   -3.1232    2.6589   -1.2474 H   0  0  0  0  0  0  0  0  0  0  0  0
    3.0506    1.1150   -0.3534 C   0  0  0  0  0  0  0  0  0  0  0  0
   -5.8015   -0.0497   -0.0826 C   0  0  0  0  0  0  0  0  0  0  0  0
   -7.6169   -2.2343   -0.1570 C   0  0  0  0  0  0  0  0  0  0  0  0
    4.0950    2.1795   -0.3553 C   0  0  0  0  0  0  0  0  0  0  0  0
   -9.6181   -3.4151    0.4953 N   0  0  0  0  0  0  0  0  0  0  0  0
    1.6672    1.3467   -0.3043 C   0  0  0  0  0  0  0  0  0  0  0  0
    1.2751    2.3705   -0.2421 H   0  0  0  0  0  0  0  0  0  0  0  0
    2.7322   -1.2005   -0.3271 C   0  0  0  0  0  0  0  0  0  0  0  0
   -6.9620   -0.0528    0.7291 C   0  0  0  0  0  0  0  0  0  0  0  0
   -7.1519    0.7992    1.3976 H   0  0  0  0  0  0  0  0  0  0  0  0
   -1.2950    1.5868   -0.8041 C   0  0  0  0  0  0  0  0  0  0  0  0
   -0.6760    2.3139   -1.3508 H   0  0  0  0  0  0  0  0  0  0  0  0
    3.8252    3.5549   -0.4739 C   0  0  0  0  0  0  0  0  0  0  0  0
    2.7937    3.9203   -0.5745 H   0  0  0  0  0  0  0  0  0  0  0  0
   -3.5136    0.8472   -0.1050 C   0  0  0  0  0  0  0  0  0  0  0  0
   -5.4312    2.3689    0.0482 C   0  0  0  0  0  0  0  0  0  0  0  0
   -6.4547   -2.2260   -0.9613 C   0  0  0  0  0  0  0  0  0  0  0  0
   -6.2560   -3.0743   -1.6353 H   0  0  0  0  0  0  0  0  0  0  0  0
    2.8181   -3.7613   -0.3982 C   0  0  0  0  0  0  0  0  0  0  0  0
    1.7253   -3.8370   -0.4865 H   0  0  0  0  0  0  0  0  0  0  0  0
    0.7750    0.2493   -0.2735 C   0  0  0  0  0  0  0  0  0  0  0  0
    3.4501   -2.5077   -0.3110 C   0  0  1  0  0  3  0  0  0  0  0  0
   -2.9150   -0.2875    0.4940 C   0  0  0  0  0  0  0  0  0  0  0  0
   -3.5453   -1.0103    1.0308 H   0  0  0  0  0  0  0  0  0  0  0  0
   -5.5630   -1.1506   -0.9343 C   0  0  0  0  0  0  0  0  0  0  0  0
   -4.6735   -1.1535   -1.5802 H   0  0  0  0  0  0  0  0  0  0  0  0
  -10.3989   -4.5182    0.3670 O   0  0  0  0  0  0  0  0  0  0  0  0
   -9.9778   -5.1353   -0.2856 H   0  0  0  0  0  0  0  0  0  0  0  0
   -1.5350   -0.4789    0.4292 C   0  0  0  0  0  0  0  0  0  0  0  0
   -1.0979   -1.3493    0.9410 H   0  0  0  0  0  0  0  0  0  0  0  0
   -8.5354   -3.3685   -0.2126 C   0  0  0  0  0  0  0  0  0  0  0  0
   -8.2726   -4.2121   -0.8973 H   0  0  0  0  0  0  0  0  0  0  0  0
    3.6104   -4.9178   -0.3822 C   0  0  0  0  0  0  0  0  0  0  0  0
    3.1389   -5.9099   -0.4482 H   0  0  0  0  0  0  0  0  0  0  0  0
    4.9003    4.4547   -0.4743 C   0  0  0  0  0  0  0  0  0  0  0  0
    4.7144    5.5355   -0.5641 H   0  0  0  0  0  0  0  0  0  0  0  0
    5.5576   -3.5084   -0.2071 C   0  0  0  0  0  0  0  0  0  0  0  0
    6.6436   -3.3172   -0.1416 H   0  0  0  0  0  0  0  0  0  0  0  0
    6.3943    2.5760   -0.2561 C   0  0  0  0  0  0  0  0  0  0  0  0
    7.3882    2.1000   -0.1801 H   0  0  0  0  0  0  0  0  0  0  0  0
    6.2095    3.9628   -0.3666 C   0  0  0  0  0  0  0  0  0  0  0  0
    7.0764    4.6390   -0.3689 H   0  0  0  0  0  0  0  0  0  0  0  0
    5.0045   -4.7958   -0.2878 C   0  0  0  0  0  0  0  0  0  0  0  0
    5.6566   -5.6809   -0.2774 H   0  0  0  0  0  0  0  0  0  0  0  0
   -6.5326    2.7526   -0.7458 C   0  0  0  0  0  0  0  0  0  0  0  0
   -6.9739    2.0252   -1.4425 H   0  0  0  0  0  0  0  0  0  0  0  0
   -4.8616    3.3013    0.9415 C   0  0  0  0  0  0  0  0  0  0  0  0
   -4.0111    2.9974    1.5689 H   0  0  0  0  0  0  0  0  0  0  0  0
   -7.0557    4.0479   -0.6411 C   0  0  0  0  0  0  0  0  0  0  0  0
   -7.9151    4.3358   -1.2653 H   0  0  0  0  0  0  0  0  0  0  0  0
   -5.3817    4.5991    1.0266 C   0  0  0  0  0  0  0  0  0  0  0  0
   -4.9309    5.3169    1.7286 H   0  0  0  0  0  0  0  0  0  0  0  0
   -6.4819    4.9791    0.2402 C   0  0  0  0  0  0  0  0  0  0  0  0
   -6.8923    5.9968    0.3158 H   0  0  0  0  0  0  0  0  0  0  0  0
  1 27  1  0  0  0  0
  3 20  1  0  0  0  0
  3  4  1  0  0  0  0
  5 32  1  0  0  0  0
  5  6  1  0  0  0  0
  7 12  1  0  0  0  0
  7 19  1  0  0  0  0
  8 48  1  0  0  0  0
  9 40  1  0  0  0  0
 10 26  2  0  0  0  0
 11 10  1  0  0  0  0
 12 17  1  0  0  0  0
 13  1  1  0  0  0  0
 13 20  2  0  0  0  0
 14  3  2  0  0  0  0
 15 12  2  0  0  0  0
 15  2  1  0  0  0  0
 17 32  2  0  0  0  0
 17 18  1  0  0  0  0
 19  5  2  0  0  0  0
 20 21  1  0  0  0  0
 22 10  1  0  0  0  0
 22  9  2  0  0  0  0
 23 22  1  0  0  0  0
 24 15  1  0  0  0  0
 25 24  1  0  0  0  0
 26  1  1  0  0  0  0
 26 34  1  0  0  0  0
 27 58  1  0  0  0  0
 28 36  2  0  0  0  0
 28 14  1  0  0  0  0
 29 28  1  0  0  0  0
 30 44  2  0  0  0  0
 30 33  1  0  0  0  0
 31 30  1  0  0  0  0
 32  9  1  0  0  0  0
 33 19  1  6  0  0  0
 33  8  1  0  0  0  0
 34 35  1  0  0  0  0
 36 13  1  0  0  0  0
 37 36  1  0  0  0  0
 38 16  1  0  0  0  0
 39 38  1  0  0  0  0
 40 34  2  0  0  0  0
 40 41  1  0  0  0  0
 42 14  1  0  0  0  0
 42 16  2  0  0  0  0
 43 42  1  0  0  0  0
 44 54  1  0  0  0  0
 45 44  1  0  0  0  0
 46 24  2  0  0  0  0
 46 52  1  0  0  0  0
 47 46  1  0  0  0  0
 48 49  1  0  0  0  0
 50  2  1  0  0  0  0
 50 51  1  0  0  0  0
 52 50  2  0  0  0  0
 53 52  1  0  0  0  0
 54 55  1  0  0  0  0
 54 48  2  0  0  0  0
 56 60  1  0  0  0  0
 56 27  2  0  0  0  0
 57 56  1  0  0  0  0
 58 62  2  0  0  0  0
 58 59  1  0  0  0  0
 60 64  2  0  0  0  0
 61 60  1  0  0  0  0
 62 63  1  0  0  0  0
 64 65  1  0  0  0  0
 64 62  1  0  0  0  0
M  END
