1,3,5
 OpenBabel05122313063D

 65 68  0  0  0  0  0  0  0  0999 V2000
   -0.0000    0.9258    0.1800 N   0  0  0  0  0  0  0  0  0  0  0  0
    2.3874    1.3447   -0.0033 N   0  0  0  0  0  0  0  0  0  0  0  0
    2.0849   -1.0742   -0.1099 N   0  0  0  0  0  2  0  0  0  0  0  0
   -2.3875    1.3447   -0.0036 N   0  0  0  0  0  0  0  0  0  0  0  0
   -2.0850   -1.0742   -0.1103 N   0  0  0  0  0  2  0  0  0  0  0  0
    1.1450    1.7170    0.0644 C   0  0  0  0  0  0  0  0  0  0  0  0
    0.7037    3.1179    0.0130 C   0  0  0  0  0  0  0  0  0  0  0  0
   -0.7038    3.1179    0.0129 C   0  0  0  0  0  0  0  0  0  0  0  0
   -1.1451    1.7170    0.0642 C   0  0  0  0  0  0  0  0  0  0  0  0
    1.4242    4.3126   -0.0363 C   0  0  0  0  0  3  0  0  0  0  0  0
    2.5241    4.2990   -0.0374 H   0  0  0  0  0  0  0  0  0  0  0  0
    0.7164    5.5322   -0.0889 C   0  0  0  0  0  0  0  0  0  0  0  0
   -0.7164    5.5322   -0.0890 C   0  0  0  0  0  0  0  0  0  0  0  0
   -1.4243    4.3126   -0.0365 C   0  0  0  0  0  0  0  0  0  0  0  0
   -2.5242    4.2990   -0.0378 H   0  0  0  0  0  0  0  0  0  0  0  0
    2.8517    0.0650    0.0201 C   0  0  0  0  0  0  0  0  0  0  0  0
    4.2553   -0.0685    0.1976 C   0  0  0  0  0  0  0  0  0  0  0  0
    4.7953    0.8827    0.2698 H   0  0  0  0  0  0  0  0  0  0  0  0
    4.8957   -1.3036    0.2972 C   0  0  0  0  0  0  0  0  0  0  0  0
    4.0528   -2.4390    0.2053 C   0  0  0  0  0  0  0  0  0  0  0  0
    4.4502   -3.4606    0.2770 H   0  0  0  0  0  0  0  0  0  0  0  0
    2.6905   -2.2942    0.0029 C   0  0  0  0  0  0  0  0  0  0  0  0
    2.0384   -3.1696   -0.1007 H   0  0  0  0  0  0  0  0  0  0  0  0
    6.4032   -1.4560    0.4947 C   0  0  0  0  0  0  0  0  0  0  0  0
    7.1143   -0.0948    0.5667 C   0  0  0  0  0  0  0  0  0  0  0  0
    6.9826    0.4914   -0.3648 H   0  0  0  0  0  0  0  0  0  0  0  0
    8.2015   -0.2516    0.7067 H   0  0  0  0  0  0  0  0  0  0  0  0
    6.7564    0.5155    1.4201 H   0  0  0  0  0  0  0  0  0  0  0  0
    6.6502   -2.2263    1.8140 C   0  0  0  0  0  0  0  0  0  0  0  0
    6.2402   -1.6750    2.6837 H   0  0  0  0  0  0  0  0  0  0  0  0
    7.7397   -2.3535    1.9718 H   0  0  0  0  0  0  0  0  0  0  0  0
    6.1953   -3.2365    1.8007 H   0  0  0  0  0  0  0  0  0  0  0  0
    6.9734   -2.2619   -0.6972 C   0  0  0  0  0  0  0  0  0  0  0  0
    6.5256   -3.2725   -0.7719 H   0  0  0  0  0  0  0  0  0  0  0  0
    8.0668   -2.3900   -0.5701 H   0  0  0  0  0  0  0  0  0  0  0  0
    6.7991   -1.7363   -1.6572 H   0  0  0  0  0  0  0  0  0  0  0  0
   -2.8517    0.0650    0.0198 C   0  0  0  0  0  0  0  0  0  0  0  0
   -4.2553   -0.0685    0.1975 C   0  0  0  0  0  0  0  0  0  0  0  0
   -4.7953    0.8827    0.2700 H   0  0  0  0  0  0  0  0  0  0  0  0
   -4.8957   -1.3036    0.2969 C   0  0  0  0  0  0  0  0  0  0  0  0
   -4.0528   -2.4390    0.2046 C   0  0  0  0  0  0  0  0  0  0  0  0
   -4.4503   -3.4606    0.2760 H   0  0  0  0  0  0  0  0  0  0  0  0
   -2.6906   -2.2942    0.0021 C   0  0  0  0  0  0  0  0  0  0  0  0
   -2.0385   -3.1696   -0.1017 H   0  0  0  0  0  0  0  0  0  0  0  0
   -6.4032   -1.4560    0.4949 C   0  0  0  0  0  0  0  0  0  0  0  0
   -7.1144   -0.0949    0.5665 C   0  0  0  0  0  0  0  0  0  0  0  0
   -6.7564    0.5158    1.4196 H   0  0  0  0  0  0  0  0  0  0  0  0
   -8.2015   -0.2516    0.7068 H   0  0  0  0  0  0  0  0  0  0  0  0
   -6.9828    0.4910   -0.3652 H   0  0  0  0  0  0  0  0  0  0  0  0
   -6.6497   -2.2258    1.8145 C   0  0  0  0  0  0  0  0  0  0  0  0
   -6.1947   -3.2360    1.8015 H   0  0  0  0  0  0  0  0  0  0  0  0
   -7.7391   -2.3531    1.9728 H   0  0  0  0  0  0  0  0  0  0  0  0
   -6.2395   -1.6741    2.6839 H   0  0  0  0  0  0  0  0  0  0  0  0
   -6.9737   -2.2624   -0.6964 C   0  0  0  0  0  0  0  0  0  0  0  0
   -6.7997   -1.7373   -1.6568 H   0  0  0  0  0  0  0  0  0  0  0  0
   -8.0672   -2.3905   -0.5690 H   0  0  0  0  0  0  0  0  0  0  0  0
   -6.5260   -3.2731   -0.7709 H   0  0  0  0  0  0  0  0  0  0  0  0
    1.4662    6.8341   -0.1476 C   0  0  0  0  0  0  0  0  0  0  0  0
    1.2071    7.4883    0.7113 H   0  0  0  0  0  0  0  0  0  0  0  0
    1.2078    7.4085   -1.0619 H   0  0  0  0  0  0  0  0  0  0  0  0
    2.5604    6.6765   -0.1400 H   0  0  0  0  0  0  0  0  0  0  0  0
   -1.4662    6.8341   -0.1478 C   0  0  0  0  0  0  0  0  0  0  0  0
   -1.2074    7.4882    0.7112 H   0  0  0  0  0  0  0  0  0  0  0  0
   -2.5604    6.6765   -0.1406 H   0  0  0  0  0  0  0  0  0  0  0  0
   -1.2075    7.4086   -1.0620 H   0  0  0  0  0  0  0  0  0  0  0  0
  2 16  2  0  0  0  0
  2  6  1  0  0  0  0
  3 22  1  0  0  0  0
  3 16  1  0  0  0  0
  4 37  2  0  0  0  0
  4  9  1  0  0  0  0
  5 43  1  0  0  0  0
  5 37  1  0  0  0  0
  6  1  1  0  0  0  0
  7  6  2  0  0  0  0
  8  7  1  0  0  0  0
  8  9  1  0  0  0  0
  9  1  2  0  0  0  0
 10  7  1  0  0  0  0
 11 10  1  0  0  0  0
 12 10  1  0  0  0  0
 13 12  2  0  0  0  0
 13 14  1  0  0  0  0
 14  8  2  0  0  0  0
 15 14  1  0  0  0  0
 16 17  1  0  0  0  0
 17 18  1  0  0  0  0
 17 19  2  0  0  0  0
 19 24  1  0  0  0  0
 20 21  1  0  0  0  0
 20 19  1  0  0  0  0
 22 20  2  0  0  0  0
 23 22  1  0  0  0  0
 24 25  1  0  0  0  0
 24 29  1  0  0  0  0
 25 27  1  0  0  0  0
 25 28  1  0  0  0  0
 26 25  1  0  0  0  0
 29 31  1  0  0  0  0
 29 30  1  0  0  0  0
 32 29  1  0  0  0  0
 33 35  1  0  0  0  0
 33 24  1  0  0  0  0
 34 33  1  0  0  0  0
 36 33  1  0  0  0  0
 37 38  1  0  0  0  0
 38 39  1  0  0  0  0
 38 40  2  0  0  0  0
 40 45  1  0  0  0  0
 41 42  1  0  0  0  0
 41 40  1  0  0  0  0
 43 41  2  0  0  0  0
 44 43  1  0  0  0  0
 45 46  1  0  0  0  0
 45 50  1  0  0  0  0
 46 48  1  0  0  0  0
 46 47  1  0  0  0  0
 49 46  1  0  0  0  0
 50 52  1  0  0  0  0
 50 53  1  0  0  0  0
 51 50  1  0  0  0  0
 54 56  1  0  0  0  0
 54 45  1  0  0  0  0
 55 54  1  0  0  0  0
 57 54  1  0  0  0  0
 58 61  1  0  0  0  0
 58 12  1  0  0  0  0
 58 59  1  0  0  0  0
 60 58  1  0  0  0  0
 62 64  1  0  0  0  0
 62 13  1  0  0  0  0
 62 63  1  0  0  0  0
 65 62  1  0  0  0  0
M  END
