3,5,7
 OpenBabel05122313063D

 36 38  0  0  1  0  0  0  0  0999 V2000
    2.9751    0.0017   -0.0974 O   0  0  0  0  0  0  0  0  0  0  0  0
    3.2860    0.0053   -1.0218 H   0  0  0  0  0  0  0  0  0  0  0  0
   -0.3751    1.3792   -0.8202 N   0  0  0  0  0  2  0  0  0  0  0  0
    1.5678    0.0012   -0.0973 C   0  0  2  0  0  0  0  0  0  0  0  0
   -0.2588   -0.0058    1.5673 N   0  0  0  0  0  2  0  0  0  0  0  0
    0.9527    1.2399   -0.7592 C   0  0  2  0  0  3  0  0  0  0  0  0
   -0.3741   -1.3727   -0.8307 N   0  0  0  0  0  2  0  0  0  0  0  0
   -0.6349    2.5897   -1.4221 C   0  0  0  0  0  0  0  0  0  0  0  0
   -1.6553    2.9474   -1.5934 H   0  0  0  0  0  0  0  0  0  0  0  0
    1.5699    2.3429   -1.2901 N   0  0  0  0  0  0  0  0  0  0  0  0
    0.5660    3.1982   -1.7212 C   0  0  0  0  0  0  0  0  0  0  0  0
    0.7961    4.1570   -2.1963 H   0  0  0  0  0  0  0  0  0  0  0  0
    1.7519   -0.0091    2.5186 N   0  0  0  0  0  0  0  0  0  0  0  0
    2.9951    2.6336   -1.4254 C   0  0  0  0  0  0  0  0  0  0  0  0
    3.5296    2.4149   -0.4845 H   0  0  0  0  0  0  0  0  0  0  0  0
    3.1103    3.7069   -1.6586 H   0  0  0  0  0  0  0  0  0  0  0  0
    3.4483    2.0560   -2.2575 H   0  0  0  0  0  0  0  0  0  0  0  0
    1.5716   -2.3320   -1.3068 N   0  0  0  0  0  0  0  0  0  0  0  0
    1.0596   -0.0044    1.3402 C   0  0  1  0  0  3  0  0  0  0  0  0
   -0.4331   -0.0119    2.9331 C   0  0  0  0  0  0  0  0  0  0  0  0
   -1.4265   -0.0141    3.3930 H   0  0  0  0  0  0  0  0  0  0  0  0
    0.8085   -0.0142    3.5356 C   0  0  0  0  0  0  0  0  0  0  0  0
    1.1038   -0.0185    4.5895 H   0  0  0  0  0  0  0  0  0  0  0  0
    3.1969   -0.0112    2.7378 C   0  0  0  0  0  0  0  0  0  0  0  0
    3.6600   -0.9131    2.2981 H   0  0  0  0  0  0  0  0  0  0  0  0
    3.3783   -0.0056    3.8267 H   0  0  0  0  0  0  0  0  0  0  0  0
    3.6637    0.8837    2.2882 H   0  0  0  0  0  0  0  0  0  0  0  0
    0.9536   -1.2330   -0.7683 C   0  0  2  0  0  3  0  0  0  0  0  0
   -0.6330   -2.5790   -1.4414 C   0  0  0  0  0  0  0  0  0  0  0  0
   -1.6532   -2.9359   -1.6156 H   0  0  0  0  0  0  0  0  0  0  0  0
    0.5683   -3.1846   -1.7445 C   0  0  0  0  0  0  0  0  0  0  0  0
    0.7990   -4.1399   -2.2264 H   0  0  0  0  0  0  0  0  0  0  0  0
    2.9970   -2.6209   -1.4437 C   0  0  0  0  0  0  0  0  0  0  0  0
    3.4493   -2.0397   -2.2738 H   0  0  0  0  0  0  0  0  0  0  0  0
    3.1130   -3.6933   -1.6809 H   0  0  0  0  0  0  0  0  0  0  0  0
    3.5315   -2.4052   -0.5022 H   0  0  0  0  0  0  0  0  0  0  0  0
  2  1  1  0  0  0  0
  3  6  1  0  0  0  0
  4  1  1  6  0  0  0
  5 20  1  0  0  0  0
  6  4  1  1  0  0  0
  7 28  1  0  0  0  0
  8  3  1  0  0  0  0
  9  8  1  0  0  0  0
 10  6  1  0  0  0  0
 11  8  2  0  0  0  0
 11 10  1  0  0  0  0
 12 11  1  0  0  0  0
 13 24  1  0  0  0  0
 13 22  1  0  0  0  0
 14 10  1  0  0  0  0
 14 15  1  0  0  0  0
 16 14  1  0  0  0  0
 17 14  1  0  0  0  0
 18 28  1  0  0  0  0
 19  4  1  6  0  0  0
 19  5  1  0  0  0  0
 19 13  1  0  0  0  0
 20 21  1  0  0  0  0
 20 22  2  0  0  0  0
 22 23  1  0  0  0  0
 24 26  1  0  0  0  0
 25 24  1  0  0  0  0
 27 24  1  0  0  0  0
 28  4  1  1  0  0  0
 29  7  1  0  0  0  0
 30 29  1  0  0  0  0
 31 29  2  0  0  0  0
 31 18  1  0  0  0  0
 32 31  1  0  0  0  0
 33 18  1  0  0  0  0
 33 36  1  0  0  0  0
 34 33  1  0  0  0  0
 35 33  1  0  0  0  0
M  END
