2,3,31
 OpenBabel05122313063D

 55 57  0  0  1  0  0  0  0  0999 V2000
    1.8636   -1.3231    0.8208 O   0  0  0  0  0  0  0  0  0  0  0  0
    0.0000    2.7496   -0.0001 N   0  0  0  0  0  2  0  0  0  0  0  0
    2.2223    1.3480    0.5923 N   0  0  0  0  0  2  0  0  0  0  0  0
    3.2535    0.5036    0.6148 N   0  0  0  0  0  0  0  0  0  0  0  0
    2.9248   -2.9526   -1.3772 N   0  0  0  0  0  0  0  0  0  0  0  0
    1.1630    3.4151    0.1498 C   0  0  1  0  0  3  0  0  0  0  0  0
    2.3982    2.6022    0.2878 C   0  0  2  0  0  3  0  0  0  0  0  0
    2.9927   -0.8834    0.6233 C   0  0  0  0  0  0  0  0  0  0  0  0
    4.1804   -1.7146    0.3219 C   0  0  0  0  0  0  0  0  0  0  0  0
    4.0665   -2.7546   -0.6623 C   0  0  0  0  0  0  0  0  0  0  0  0
    5.2135   -3.5732   -0.8698 C   0  0  0  0  0  0  0  0  0  0  0  0
    6.4002   -3.3595   -0.1706 C   0  0  0  0  0  0  0  0  0  0  0  0
    6.5139   -2.3154    0.7696 C   0  0  0  0  0  0  0  0  0  0  0  0
    5.4006   -1.5020    0.9987 C   0  0  0  0  0  0  0  0  0  0  0  0
   -0.0000    5.5335    0.0001 C   0  0  0  0  0  0  0  0  0  0  0  0
    1.1972    4.8292    0.1620 C   0  0  0  0  0  0  0  0  0  0  0  0
    3.7616    3.1711    0.0003 C   0  0  0  0  0  0  0  0  0  0  0  0
    4.1703    0.7914    0.2457 H   0  0  0  0  0  0  0  0  0  0  0  0
    2.9826   -3.5730   -2.1833 H   0  0  0  0  0  0  0  0  0  0  0  0
    2.2215   -2.1972   -1.4557 H   0  0  0  0  0  0  0  0  0  0  0  0
    5.1509   -4.3837   -1.6130 H   0  0  0  0  0  0  0  0  0  0  0  0
    7.2611   -4.0178   -0.3651 H   0  0  0  0  0  0  0  0  0  0  0  0
    7.4495   -2.1545    1.3234 H   0  0  0  0  0  0  0  0  0  0  0  0
    5.4508   -0.7037    1.7569 H   0  0  0  0  0  0  0  0  0  0  0  0
   -0.0000    6.6337    0.0002 H   0  0  0  0  0  0  0  0  0  0  0  0
    2.1408    5.3694    0.3149 H   0  0  0  0  0  0  0  0  0  0  0  0
    4.2115    2.6429   -0.8702 H   0  0  0  0  0  0  0  0  0  0  0  0
    4.4484    3.0400    0.8638 H   0  0  0  0  0  0  0  0  0  0  0  0
    3.7368    4.2428   -0.2579 H   0  0  0  0  0  0  0  0  0  0  0  0
   -1.8636   -1.3232   -0.8207 O   0  0  0  0  0  0  0  0  0  0  0  0
   -2.2222    1.3479   -0.5924 N   0  0  0  0  0  2  0  0  0  0  0  0
   -3.2535    0.5036   -0.6149 N   0  0  0  0  0  0  0  0  0  0  0  0
   -2.9249   -2.9524    1.3774 N   0  0  0  0  0  0  0  0  0  0  0  0
   -1.1630    3.4151   -0.1498 C   0  0  0  0  0  0  0  0  0  0  0  0
   -2.3982    2.6022   -0.2879 C   0  0  2  0  0  3  0  0  0  0  0  0
   -2.9927   -0.8834   -0.6233 C   0  0  0  0  0  0  0  0  0  0  0  0
   -4.1804   -1.7146   -0.3219 C   0  0  0  0  0  0  0  0  0  0  0  0
   -4.0666   -2.7545    0.6624 C   0  0  0  0  0  0  0  0  0  0  0  0
   -5.2135   -3.5731    0.8699 C   0  0  0  0  0  0  0  0  0  0  0  0
   -6.4002   -3.3594    0.1707 C   0  0  0  0  0  0  0  0  0  0  0  0
   -6.5139   -2.3154   -0.7696 C   0  0  0  0  0  0  0  0  0  0  0  0
   -5.4006   -1.5021   -0.9988 C   0  0  0  0  0  0  0  0  0  0  0  0
   -1.1973    4.8292   -0.1619 C   0  0  0  0  0  0  0  0  0  0  0  0
   -3.7616    3.1711   -0.0005 C   0  0  0  0  0  0  0  0  0  0  0  0
   -4.1703    0.7914   -0.2458 H   0  0  0  0  0  0  0  0  0  0  0  0
   -2.9827   -3.5726    2.1835 H   0  0  0  0  0  0  0  0  0  0  0  0
   -2.2216   -2.1970    1.4558 H   0  0  0  0  0  0  0  0  0  0  0  0
   -5.1509   -4.3836    1.6132 H   0  0  0  0  0  0  0  0  0  0  0  0
   -7.2612   -4.0178    0.3651 H   0  0  0  0  0  0  0  0  0  0  0  0
   -7.4495   -2.1546   -1.3235 H   0  0  0  0  0  0  0  0  0  0  0  0
   -5.4508   -0.7039   -1.7570 H   0  0  0  0  0  0  0  0  0  0  0  0
   -2.1408    5.3694   -0.3147 H   0  0  0  0  0  0  0  0  0  0  0  0
   -4.2115    2.6428    0.8700 H   0  0  0  0  0  0  0  0  0  0  0  0
   -4.4484    3.0400   -0.8640 H   0  0  0  0  0  0  0  0  0  0  0  0
   -3.7368    4.2428    0.2578 H   0  0  0  0  0  0  0  0  0  0  0  0
  2  6  1  0  0  0  0
  3  4  1  0  0  0  0
  4  8  1  0  0  0  0
  5 10  1  0  0  0  0
  6 16  1  0  0  0  0
  6  7  1  6  0  0  0
  7  3  1  6  0  0  0
  8  1  2  0  0  0  0
  9  8  1  0  0  0  0
  9 14  1  0  0  0  0
 10  9  2  0  0  0  0
 11 10  1  0  0  0  0
 11 12  2  0  0  0  0
 12 13  1  0  0  0  0
 13 14  2  0  0  0  0
 13 23  1  0  0  0  0
 14 24  1  0  0  0  0
 15 25  1  0  0  0  0
 15 16  2  0  0  0  0
 16 26  1  0  0  0  0
 17  7  1  0  0  0  0
 17 28  1  0  0  0  0
 18  4  1  0  0  0  0
 19  5  1  0  0  0  0
 20  5  1  0  0  0  0
 21 11  1  0  0  0  0
 22 12  1  0  0  0  0
 27 17  1  0  0  0  0
 29 17  1  0  0  0  0
 30 36  2  0  0  0  0
 32 31  1  0  0  0  0
 32 45  1  0  0  0  0
 33 47  1  0  0  0  0
 33 46  1  0  0  0  0
 34  2  1  0  0  0  0
 35 31  1  1  0  0  0
 35 34  1  0  0  0  0
 35 44  1  0  0  0  0
 36 32  1  0  0  0  0
 36 37  1  0  0  0  0
 37 38  1  0  0  0  0
 38 39  2  0  0  0  0
 38 33  1  0  0  0  0
 39 48  1  0  0  0  0
 40 49  1  0  0  0  0
 40 39  1  0  0  0  0
 41 40  2  0  0  0  0
 42 41  1  0  0  0  0
 42 37  2  0  0  0  0
 43 34  2  0  0  0  0
 43 15  1  0  0  0  0
 44 55  1  0  0  0  0
 44 53  1  0  0  0  0
 50 41  1  0  0  0  0
 51 42  1  0  0  0  0
 52 43  1  0  0  0  0
 54 44  1  0  0  0  0
M  END
