1,3,5
 OpenBabel05122313063D

 29 28  0  0  0  0  0  0  0  0999 V2000
   -0.6989   -2.0545    0.1853 N   0  0  0  0  0  0  0  0  0  0  0  0
   -0.2924   -2.3297    1.0949 H   0  0  0  0  0  0  0  0  0  0  0  0
    0.4863    1.9178   -0.0645 N   0  0  0  0  0  0  0  0  0  0  0  0
    1.1770    1.9158    0.7126 H   0  0  0  0  0  0  0  0  0  0  0  0
   -1.9369    0.5148    0.2086 N   0  0  0  0  0  0  0  0  0  0  0  0
   -2.1852   -1.9460    0.3496 C   0  0  0  0  0  0  0  0  0  0  0  0
   -2.5791   -2.7895    0.9543 H   0  0  0  0  0  0  0  0  0  0  0  0
   -2.6339   -2.0392   -0.6588 H   0  0  0  0  0  0  0  0  0  0  0  0
    1.1856    2.4637   -1.2534 C   0  0  0  0  0  0  0  0  0  0  0  0
    0.5623    2.3206   -2.1556 H   0  0  0  0  0  0  0  0  0  0  0  0
    2.1393    1.9223   -1.3799 H   0  0  0  0  0  0  0  0  0  0  0  0
    1.3985    3.5440   -1.1164 H   0  0  0  0  0  0  0  0  0  0  0  0
   -2.5547   -0.6091    0.9924 C   0  0  0  0  0  0  0  0  0  0  0  0
   -3.6587   -0.4912    1.0440 H   0  0  0  0  0  0  0  0  0  0  0  0
   -2.1571   -0.5509    2.0250 H   0  0  0  0  0  0  0  0  0  0  0  0
   -1.7673    1.7846    0.9952 C   0  0  0  0  0  0  0  0  0  0  0  0
   -1.4035    1.4990    2.0015 H   0  0  0  0  0  0  0  0  0  0  0  0
   -2.7417    2.3071    1.1131 H   0  0  0  0  0  0  0  0  0  0  0  0
   -2.6965    0.7597   -1.0478 C   0  0  0  0  0  0  0  0  0  0  0  0
   -3.7216    1.1157   -0.8105 H   0  0  0  0  0  0  0  0  0  0  0  0
   -2.7581   -0.1705   -1.6384 H   0  0  0  0  0  0  0  0  0  0  0  0
   -2.1787    1.5140   -1.6643 H   0  0  0  0  0  0  0  0  0  0  0  0
   -0.7519    2.6852    0.2917 C   0  0  0  0  0  0  0  0  0  0  0  0
   -1.1751    3.0959   -0.6458 H   0  0  0  0  0  0  0  0  0  0  0  0
   -0.5013    3.5550    0.9331 H   0  0  0  0  0  0  0  0  0  0  0  0
   -0.2745   -3.0666   -0.8158 C   0  0  0  0  0  0  0  0  0  0  0  0
   -0.6446   -4.0745   -0.5376 H   0  0  0  0  0  0  0  0  0  0  0  0
    0.8301   -3.0643   -0.8601 H   0  0  0  0  0  0  0  0  0  0  0  0
   -0.6733   -2.7854   -1.8077 H   0  0  0  0  0  0  0  0  0  0  0  0
  1  6  1  0  0  0  0
  1  2  1  0  0  0  0
  3 23  1  0  0  0  0
  3  4  1  0  0  0  0
  5 13  1  0  0  0  0
  5 16  1  0  0  0  0
  6  7  1  0  0  0  0
  6 13  1  0  0  0  0
  8  6  1  0  0  0  0
  9 12  1  0  0  0  0
  9  3  1  0  0  0  0
 10  9  1  0  0  0  0
 11  9  1  0  0  0  0
 13 14  1  0  0  0  0
 13 15  1  0  0  0  0
 16 18  1  0  0  0  0
 16 17  1  0  0  0  0
 19 20  1  0  0  0  0
 19  5  1  0  0  0  0
 21 19  1  0  0  0  0
 22 19  1  0  0  0  0
 23 25  1  0  0  0  0
 23 16  1  0  0  0  0
 24 23  1  0  0  0  0
 26 27  1  0  0  0  0
 26  1  1  0  0  0  0
 28 26  1  0  0  0  0
 29 26  1  0  0  0  0
M  END
