1,2,3
 OpenBabel05122313063D

 26 27  0  0  1  0  0  0  0  0999 V2000
   -2.1511    0.1281    0.0037 N   0  0  0  0  0  2  0  0  0  0  0  0
   -0.0433    0.5464    1.5562 N   0  0  0  0  0  2  0  0  0  0  0  0
    2.0107   -0.2668    0.0815 N   0  0  0  0  0  2  0  0  0  0  0  0
   -3.1709   -0.1412   -0.8160 C   0  0  0  0  0  3  0  0  0  0  0  0
   -2.9094   -0.3095   -1.8736 H   0  0  0  0  0  0  0  0  0  0  0  0
   -4.4980   -0.2149   -0.3558 C   0  0  0  0  0  0  0  0  0  0  0  0
   -5.3126   -0.4366   -1.0599 H   0  0  0  0  0  0  0  0  0  0  0  0
   -4.7500   -0.0018    1.0059 C   0  0  0  0  0  0  0  0  0  0  0  0
   -5.7760   -0.0522    1.3998 H   0  0  0  0  0  0  0  0  0  0  0  0
   -3.6741    0.2730    1.8641 C   0  0  0  0  0  0  0  0  0  0  0  0
   -3.8294    0.4393    2.9406 H   0  0  0  0  0  0  0  0  0  0  0  0
   -2.3798    0.3256    1.3224 C   0  0  0  0  0  0  0  0  0  0  0  0
   -1.1773    0.5882    2.1439 C   0  0  0  0  0  3  0  0  0  0  0  0
   -1.3092    0.8056    3.2258 H   0  0  0  0  0  0  0  0  0  0  0  0
    1.2399    0.7984    2.1446 C   0  0  0  0  0  0  0  0  0  0  0  0
    1.2998    0.5056    3.2165 H   0  0  0  0  0  0  0  0  0  0  0  0
    1.4250    1.8952    2.0759 H   0  0  0  0  0  0  0  0  0  0  0  0
    2.3302    0.1116    1.3321 C   0  0  2  0  0  3  0  0  0  0  0  0
    3.6198   -0.0923    1.8469 C   0  0  0  0  0  0  0  0  0  0  0  0
    3.8593    0.2183    2.8749 H   0  0  0  0  0  0  0  0  0  0  0  0
    4.5857   -0.6971    1.0316 C   0  0  0  0  0  0  0  0  0  0  0  0
    5.6040   -0.8670    1.4125 H   0  0  0  0  0  0  0  0  0  0  0  0
    4.2365   -1.0907   -0.2691 C   0  0  0  0  0  0  0  0  0  0  0  0
    4.9628   -1.5763   -0.9360 H   0  0  0  0  0  0  0  0  0  0  0  0
    2.9268   -0.8585   -0.7039 C   0  0  0  0  0  0  0  0  0  0  0  0
    2.5754   -1.1581   -1.7049 H   0  0  0  0  0  0  0  0  0  0  0  0
  1 12  1  0  0  0  0
  2 13  1  0  0  0  0
  2 15  1  0  0  0  0
  3 18  1  0  0  0  0
  4  6  1  0  0  0  0
  4  1  1  0  0  0  0
  5  4  1  0  0  0  0
  6  8  2  0  0  0  0
  7  6  1  0  0  0  0
  8  9  1  0  0  0  0
  8 10  1  0  0  0  0
 10 11  1  0  0  0  0
 12 10  2  0  0  0  0
 12 13  1  0  0  0  0
 13 14  1  0  0  0  0
 15 16  1  0  0  0  0
 17 15  1  0  0  0  0
 18 19  1  0  0  0  0
 18 15  1  6  0  0  0
 19 20  1  0  0  0  0
 21 22  1  0  0  0  0
 21 19  2  0  0  0  0
 23 21  1  0  0  0  0
 24 23  1  0  0  0  0
 25 23  2  0  0  0  0
 25  3  1  0  0  0  0
 26 25  1  0  0  0  0
M  END
