1,11,26
q = 0.0, confidence = 0.998

 39 41  0  0  1  0  0  0  0  0999 V2000
   -0.0000    1.5791   -0.1392 N   0  0  0  0  0  2  0  0  0  0  0  0
    1.1943    2.2160   -0.0713 C   0  0  0  0  0  0  0  0  0  0  0  0
    1.2191    3.6199   -0.0090 C   0  0  0  0  0  0  0  0  0  0  0  0
    2.1705    4.1649    0.0445 H   0  0  0  0  0  0  0  0  0  0  0  0
   -0.0000    4.3151    0.0068 C   0  0  0  0  0  0  0  0  0  0  0  0
   -0.0000    5.4134    0.0567 H   0  0  0  0  0  0  0  0  0  0  0  0
   -1.2191    3.6199   -0.0091 C   0  0  0  0  0  0  0  0  0  0  0  0
   -2.1705    4.1649    0.0444 H   0  0  0  0  0  0  0  0  0  0  0  0
   -1.1943    2.2160   -0.0714 C   0  0  0  0  0  0  0  0  0  0  0  0
    2.3491    1.2973   -0.0523 C   0  0  0  0  0  0  0  0  0  0  0  0
    2.0443   -0.0548   -0.0052 N   0  0  0  0  0  2  0  0  0  0  0  0
    3.0642   -0.9663   -0.1333 C   0  0  0  0  0  0  0  0  0  0  0  0
    4.4246   -0.5306   -0.1446 C   0  0  0  0  0  0  0  0  0  0  0  0
    5.2262   -1.2778   -0.1906 H   0  0  0  0  0  0  0  0  0  0  0  0
    4.7157    0.8231   -0.1168 C   0  0  0  0  0  0  0  0  0  0  0  0
    5.7611    1.1634   -0.1315 H   0  0  0  0  0  0  0  0  0  0  0  0
    3.6642    1.7588   -0.0986 C   0  0  0  0  0  0  0  0  0  0  0  0
    3.8693    2.8355   -0.1324 H   0  0  0  0  0  0  0  0  0  0  0  0
    2.7416   -2.2682   -0.2586 N   0  0  0  0  0  0  0  0  0  0  0  0
    1.7390   -2.4753   -0.2397 H   0  0  0  0  0  0  0  0  0  0  0  0
    3.6930   -3.3559   -0.3476 C   0  0  0  0  0  0  0  0  0  0  0  0
    4.3325   -3.2753   -1.2524 H   0  0  0  0  0  0  0  0  0  0  0  0
    3.1349   -4.3071   -0.4104 H   0  0  0  0  0  0  0  0  0  0  0  0
    4.3525   -3.4067    0.5452 H   0  0  0  0  0  0  0  0  0  0  0  0
   -2.3491    1.2973   -0.0524 C   0  0  2  0  0  3  0  0  0  0  0  0
   -2.0443   -0.0548   -0.0052 N   0  0  0  0  0  2  0  0  0  0  0  0
   -3.0642   -0.9663   -0.1332 C   0  0  0  0  0  0  0  0  0  0  0  0
   -4.4246   -0.5306   -0.1447 C   0  0  0  0  0  0  0  0  0  0  0  0
   -5.2261   -1.2778   -0.1908 H   0  0  0  0  0  0  0  0  0  0  0  0
   -4.7157    0.8231   -0.1171 C   0  0  0  0  0  0  0  0  0  0  0  0
   -5.7611    1.1634   -0.1319 H   0  0  0  0  0  0  0  0  0  0  0  0
   -3.6642    1.7588   -0.0988 C   0  0  0  0  0  0  0  0  0  0  0  0
   -3.8694    2.8355   -0.1327 H   0  0  0  0  0  0  0  0  0  0  0  0
   -2.7415   -2.2682   -0.2582 N   0  0  0  0  0  0  0  0  0  0  0  0
   -1.7389   -2.4753   -0.2394 H   0  0  0  0  0  0  0  0  0  0  0  0
   -3.6930   -3.3559   -0.3472 C   0  0  0  0  0  0  0  0  0  0  0  0
   -4.3529   -3.4063    0.5452 H   0  0  0  0  0  0  0  0  0  0  0  0
   -3.1348   -4.3072   -0.4092 H   0  0  0  0  0  0  0  0  0  0  0  0
   -4.3320   -3.2758   -1.2524 H   0  0  0  0  0  0  0  0  0  0  0  0
  1  9  1  0  0  0  0
  1  2  1  0  0  0  0
  2 10  2  0  0  0  0
  2  3  1  0  0  0  0
  3  5  2  0  0  0  0
  3  4  1  0  0  0  0
  5  6  1  0  0  0  0
  7  5  1  0  0  0  0
  7  8  1  0  0  0  0
  9  7  2  0  0  0  0
 10 11  1  0  0  0  0
 12 11  1  0  0  0  0
 13 12  2  0  0  0  0
 13 15  1  0  0  0  0
 14 13  1  0  0  0  0
 15 17  2  0  0  0  0
 16 15  1  0  0  0  0
 17 10  1  0  0  0  0
 18 17  1  0  0  0  0
 19 20  1  0  0  0  0
 19 12  1  0  0  0  0
 21 19  1  0  0  0  0
 21 24  1  0  0  0  0
 22 21  1  0  0  0  0
 23 21  1  0  0  0  0
 25  9  1  6  0  0  0
 25 26  1  0  0  0  0
 27 26  1  0  0  0  0
 28 27  2  0  0  0  0
 28 30  1  0  0  0  0
 29 28  1  0  0  0  0
 30 32  2  0  0  0  0
 31 30  1  0  0  0  0
 32 25  1  0  0  0  0
 33 32  1  0  0  0  0
 34 35  1  0  0  0  0
 34 27  1  0  0  0  0
 36 34  1  0  0  0  0
 36 37  1  0  0  0  0
 38 36  1  0  0  0  0
 39 36  1  0  0  0  0
M  END
