1,2,44
 OpenBabel05122313063D

 73 75  0  0  0  0  0  0  0  0999 V2000
   -0.0001   -1.0567    1.8898 N   0  0  0  0  0  2  0  0  0  0  0  0
   -1.8983   -0.2142    0.5593 N   0  0  0  0  0  2  0  0  0  0  0  0
    1.1992   -1.4457    2.4097 C   0  0  0  0  0  0  0  0  0  0  0  0
    1.2221   -2.2358    3.5713 C   0  0  0  0  0  0  0  0  0  0  0  0
    2.1822   -2.5456    4.0074 H   0  0  0  0  0  0  0  0  0  0  0  0
   -0.0003   -2.6216    4.1517 C   0  0  0  0  0  0  0  0  0  0  0  0
   -0.0004   -3.2371    5.0627 H   0  0  0  0  0  0  0  0  0  0  0  0
   -1.2226   -2.2353    3.5714 C   0  0  0  0  0  0  0  0  0  0  0  0
   -2.1828   -2.5446    4.0077 H   0  0  0  0  0  0  0  0  0  0  0  0
   -1.1994   -1.4451    2.4098 C   0  0  0  0  0  0  0  0  0  0  0  0
   -2.2775   -0.9158    1.6134 C   0  0  0  0  0  3  0  0  0  0  0  0
   -3.3438   -1.0648    1.8518 H   0  0  0  0  0  0  0  0  0  0  0  0
   -2.8862    0.3907   -0.2719 C   0  0  0  0  0  0  0  0  0  0  0  0
   -3.6549   -0.4018   -1.1613 C   0  0  0  0  0  0  0  0  0  0  0  0
   -4.6572    0.2506   -1.9053 C   0  0  0  0  0  0  0  0  0  0  0  0
   -5.2684   -0.3392   -2.6053 H   0  0  0  0  0  0  0  0  0  0  0  0
   -4.8740    1.6268   -1.7869 C   0  0  0  0  0  0  0  0  0  0  0  0
   -5.6643    2.1128   -2.3791 H   0  0  0  0  0  0  0  0  0  0  0  0
   -4.0695    2.3931   -0.9315 C   0  0  0  0  0  0  0  0  0  0  0  0
   -4.2318    3.4783   -0.8614 H   0  0  0  0  0  0  0  0  0  0  0  0
   -3.0527    1.7987   -0.1685 C   0  0  0  0  0  0  0  0  0  0  0  0
   -2.1814    2.6107    0.7788 C   0  0  0  0  0  0  0  0  0  0  0  0
   -1.2183    2.0631    0.8536 H   0  0  0  0  0  0  0  0  0  0  0  0
   -1.8632    4.0103    0.2436 C   0  0  0  0  0  0  0  0  0  0  0  0
   -1.4009    3.9452   -0.7605 H   0  0  0  0  0  0  0  0  0  0  0  0
   -1.1509    4.5249    0.9188 H   0  0  0  0  0  0  0  0  0  0  0  0
   -2.7667    4.6511    0.1780 H   0  0  0  0  0  0  0  0  0  0  0  0
   -2.8059    2.6734    2.1847 C   0  0  0  0  0  0  0  0  0  0  0  0
   -3.7814    3.2024    2.1600 H   0  0  0  0  0  0  0  0  0  0  0  0
   -2.1401    3.2157    2.8877 H   0  0  0  0  0  0  0  0  0  0  0  0
   -2.9855    1.6614    2.6009 H   0  0  0  0  0  0  0  0  0  0  0  0
   -3.3638   -1.8751   -1.4021 C   0  0  0  0  0  0  0  0  0  0  0  0
   -2.5846   -2.2032   -0.6860 H   0  0  0  0  0  0  0  0  0  0  0  0
   -4.6019   -2.7613   -1.2023 C   0  0  0  0  0  0  0  0  0  0  0  0
   -5.0288   -2.6458   -0.1844 H   0  0  0  0  0  0  0  0  0  0  0  0
   -4.3362   -3.8289   -1.3424 H   0  0  0  0  0  0  0  0  0  0  0  0
   -5.4068   -2.5241   -1.9292 H   0  0  0  0  0  0  0  0  0  0  0  0
   -2.7397   -2.0535   -2.7982 C   0  0  0  0  0  0  0  0  0  0  0  0
   -3.4530   -1.7726   -3.6015 H   0  0  0  0  0  0  0  0  0  0  0  0
   -2.4373   -3.1093   -2.9499 H   0  0  0  0  0  0  0  0  0  0  0  0
   -1.8310   -1.4282   -2.8919 H   0  0  0  0  0  0  0  0  0  0  0  0
    2.2774   -0.9168    1.6132 C   0  0  0  0  0  0  0  0  0  0  0  0
    3.3436   -1.0661    1.8515 H   0  0  0  0  0  0  0  0  0  0  0  0
    1.8984   -0.2149    0.5592 N   0  0  0  0  0  2  0  0  0  0  0  0
    2.8864    0.3899   -0.2719 C   0  0  0  0  0  0  0  0  0  0  0  0
    3.6545   -0.4026   -1.1619 C   0  0  0  0  0  0  0  0  0  0  0  0
    3.3626   -1.8756   -1.4033 C   0  0  0  0  0  0  0  0  0  0  0  0
    2.5836   -2.2036   -0.6871 H   0  0  0  0  0  0  0  0  0  0  0  0
    4.6004   -2.7624   -1.2045 C   0  0  0  0  0  0  0  0  0  0  0  0
    5.4052   -2.5253   -1.9315 H   0  0  0  0  0  0  0  0  0  0  0  0
    4.3342   -3.8298   -1.3450 H   0  0  0  0  0  0  0  0  0  0  0  0
    5.0277   -2.6477   -0.1867 H   0  0  0  0  0  0  0  0  0  0  0  0
    2.7378   -2.0530   -2.7992 C   0  0  0  0  0  0  0  0  0  0  0  0
    1.8295   -1.4271   -2.8923 H   0  0  0  0  0  0  0  0  0  0  0  0
    2.4348   -3.1085   -2.9514 H   0  0  0  0  0  0  0  0  0  0  0  0
    3.4511   -1.7721   -3.6027 H   0  0  0  0  0  0  0  0  0  0  0  0
    4.6569    0.2497   -1.9059 C   0  0  0  0  0  0  0  0  0  0  0  0
    5.2677   -0.3400   -2.6062 H   0  0  0  0  0  0  0  0  0  0  0  0
    4.8743    1.6258   -1.7868 C   0  0  0  0  0  0  0  0  0  0  0  0
    5.6647    2.1117   -2.3790 H   0  0  0  0  0  0  0  0  0  0  0  0
    4.0704    2.3921   -0.9309 C   0  0  0  0  0  0  0  0  0  0  0  0
    4.2332    3.4771   -0.8604 H   0  0  0  0  0  0  0  0  0  0  0  0
    3.0535    1.7977   -0.1680 C   0  0  0  0  0  0  0  0  0  0  0  0
    2.1828    2.6097    0.7799 C   0  0  0  0  0  0  0  0  0  0  0  0
    1.2195    2.0623    0.8549 H   0  0  0  0  0  0  0  0  0  0  0  0
    1.8646    4.0095    0.2452 C   0  0  0  0  0  0  0  0  0  0  0  0
    2.7683    4.6500    0.1791 H   0  0  0  0  0  0  0  0  0  0  0  0
    1.1530    4.5242    0.9210 H   0  0  0  0  0  0  0  0  0  0  0  0
    1.4017    3.9447   -0.7587 H   0  0  0  0  0  0  0  0  0  0  0  0
    2.8078    2.6718    2.1855 C   0  0  0  0  0  0  0  0  0  0  0  0
    2.9875    1.6597    2.6013 H   0  0  0  0  0  0  0  0  0  0  0  0
    2.1425    3.2141    2.8890 H   0  0  0  0  0  0  0  0  0  0  0  0
    3.7834    3.2006    2.1605 H   0  0  0  0  0  0  0  0  0  0  0  0
  1  3  1  0  0  0  0
  1 10  1  0  0  0  0
  2 11  1  0  0  0  0
  3  4  1  0  0  0  0
  4  5  1  0  0  0  0
  4  6  2  0  0  0  0
  6  7  1  0  0  0  0
  8  9  1  0  0  0  0
  8  6  1  0  0  0  0
 10  8  2  0  0  0  0
 11 12  1  0  0  0  0
 11 10  1  0  0  0  0
 13 21  1  0  0  0  0
 13  2  1  0  0  0  0
 14 13  2  0  0  0  0
 15 17  2  0  0  0  0
 15 14  1  0  0  0  0
 16 15  1  0  0  0  0
 17 19  1  0  0  0  0
 18 17  1  0  0  0  0
 19 20  1  0  0  0  0
 19 21  2  0  0  0  0
 21 22  1  0  0  0  0
 22 23  1  0  0  0  0
 22 28  1  0  0  0  0
 24 22  1  0  0  0  0
 24 26  1  0  0  0  0
 25 24  1  0  0  0  0
 27 24  1  0  0  0  0
 28 31  1  0  0  0  0
 28 30  1  0  0  0  0
 29 28  1  0  0  0  0
 32 34  1  0  0  0  0
 32 14  1  0  0  0  0
 32 33  1  0  0  0  0
 34 35  1  0  0  0  0
 36 34  1  0  0  0  0
 37 34  1  0  0  0  0
 38 32  1  0  0  0  0
 39 38  1  0  0  0  0
 40 38  1  0  0  0  0
 41 38  1  0  0  0  0
 42 43  1  0  0  0  0
 42  3  2  0  0  0  0
 44 42  1  0  0  0  0
 45 63  1  0  0  0  0
 45 44  1  0  0  0  0
 46 45  2  0  0  0  0
 47 49  1  0  0  0  0
 47 46  1  0  0  0  0
 47 48  1  0  0  0  0
 49 52  1  0  0  0  0
 50 49  1  0  0  0  0
 51 49  1  0  0  0  0
 53 47  1  0  0  0  0
 54 53  1  0  0  0  0
 55 53  1  0  0  0  0
 56 53  1  0  0  0  0
 57 59  2  0  0  0  0
 57 46  1  0  0  0  0
 58 57  1  0  0  0  0
 59 61  1  0  0  0  0
 60 59  1  0  0  0  0
 61 62  1  0  0  0  0
 61 63  2  0  0  0  0
 63 64  1  0  0  0  0
 64 65  1  0  0  0  0
 64 70  1  0  0  0  0
 66 64  1  0  0  0  0
 66 68  1  0  0  0  0
 67 66  1  0  0  0  0
 69 66  1  0  0  0  0
 70 71  1  0  0  0  0
 70 72  1  0  0  0  0
 73 70  1  0  0  0  0
M  END
