1,11,31
 OpenBabel05122313063D

 49 55  0  0  1  0  0  0  0  0999 V2000
   -0.0000    1.5934   -0.0009 N   0  0  0  0  0  2  0  0  0  0  0  0
   -1.0743    2.2544   -0.4530 C   0  0  0  0  0  0  0  0  0  0  0  0
   -1.1189    3.6598   -0.4839 C   0  0  0  0  0  0  0  0  0  0  0  0
   -2.0082    4.1782   -0.8678 H   0  0  0  0  0  0  0  0  0  0  0  0
   -0.0004    4.3596   -0.0010 C   0  0  0  0  0  0  0  0  0  0  0  0
   -0.0005    5.4596   -0.0011 H   0  0  0  0  0  0  0  0  0  0  0  0
    1.1183    3.6602    0.4819 C   0  0  0  0  0  0  0  0  0  0  0  0
    2.0074    4.1788    0.8658 H   0  0  0  0  0  0  0  0  0  0  0  0
    1.0740    2.2547    0.4512 C   0  0  0  0  0  0  0  0  0  0  0  0
   -2.1353    1.3247   -0.8893 C   0  0  0  0  0  0  0  0  0  0  0  0
   -2.0021    0.0612   -0.6772 N   0  0  0  0  0  2  0  0  0  0  0  0
   -3.2023   -0.5899   -1.1959 C   0  0  2  0  0  0  0  0  0  0  0  0
   -2.8892   -1.4370   -1.8419 H   0  0  0  0  0  0  0  0  0  0  0  0
   -3.9706    0.5540   -1.9418 C   0  0  2  0  0  0  0  0  0  0  0  0
   -3.9040    0.5124   -3.0465 H   0  0  0  0  0  0  0  0  0  0  0  0
   -3.2295    1.7661   -1.5380 O   0  0  0  0  0  0  0  0  0  0  0  0
   -5.4127    0.5659   -1.4124 C   0  0  0  0  0  0  0  0  0  0  0  0
   -5.7426    1.6016   -1.1906 H   0  0  0  0  0  0  0  0  0  0  0  0
   -6.1049    0.1717   -2.1874 H   0  0  0  0  0  0  0  0  0  0  0  0
   -5.3760   -0.3270   -0.1902 C   0  0  0  0  0  0  0  0  0  0  0  0
   -4.1413   -0.9937   -0.0749 C   0  0  0  0  0  0  0  0  0  0  0  0
   -3.8615   -1.8415    1.0058 C   0  0  0  0  0  0  0  0  0  0  0  0
   -2.8606   -2.2869    1.1280 H   0  0  0  0  0  0  0  0  0  0  0  0
   -4.8684   -2.0467    1.9629 C   0  0  0  0  0  0  0  0  0  0  0  0
   -4.6705   -2.7019    2.8247 H   0  0  0  0  0  0  0  0  0  0  0  0
   -6.1172   -1.4095    1.8408 C   0  0  0  0  0  0  0  0  0  0  0  0
   -6.8938   -1.5815    2.6018 H   0  0  0  0  0  0  0  0  0  0  0  0
   -6.3780   -0.5403    0.7679 C   0  0  0  0  0  0  0  0  0  0  0  0
   -7.3499   -0.0287    0.6885 H   0  0  0  0  0  0  0  0  0  0  0  0
    2.1352    1.3254    0.8878 C   0  0  2  0  0  3  0  0  0  0  0  0
    2.0022    0.0618    0.6760 N   0  0  0  0  0  2  0  0  0  0  0  0
    3.2023   -0.5891    1.1955 C   0  0  2  0  0  0  0  0  0  0  0  0
    2.8890   -1.4358    1.8419 H   0  0  0  0  0  0  0  0  0  0  0  0
    3.9703    0.5552    1.9411 C   0  0  2  0  0  0  0  0  0  0  0  0
    3.9036    0.5141    3.0457 H   0  0  0  0  0  0  0  0  0  0  0  0
    3.2290    1.7671    1.5368 O   0  0  0  0  0  0  0  0  0  0  0  0
    5.4125    0.5672    1.4119 C   0  0  0  0  0  0  0  0  0  0  0  0
    5.7422    1.6028    1.1895 H   0  0  0  0  0  0  0  0  0  0  0  0
    6.1047    0.1737    2.1873 H   0  0  0  0  0  0  0  0  0  0  0  0
    5.3762   -0.3265    0.1902 C   0  0  0  0  0  0  0  0  0  0  0  0
    4.1417   -0.9935    0.0750 C   0  0  0  0  0  0  0  0  0  0  0  0
    3.8623   -1.8420   -1.0052 C   0  0  0  0  0  0  0  0  0  0  0  0
    2.8615   -2.2877   -1.1272 H   0  0  0  0  0  0  0  0  0  0  0  0
    4.8695   -2.0478   -1.9619 C   0  0  0  0  0  0  0  0  0  0  0  0
    4.6720   -2.7035   -2.8232 H   0  0  0  0  0  0  0  0  0  0  0  0
    6.1182   -1.4102   -1.8398 C   0  0  0  0  0  0  0  0  0  0  0  0
    6.8950   -1.5826   -2.6005 H   0  0  0  0  0  0  0  0  0  0  0  0
    6.3785   -0.5403   -0.7675 C   0  0  0  0  0  0  0  0  0  0  0  0
    7.3503   -0.0285   -0.6880 H   0  0  0  0  0  0  0  0  0  0  0  0
  1  9  1  0  0  0  0
  2  1  1  0  0  0  0
  3  2  1  0  0  0  0
  3  5  2  0  0  0  0
  4  3  1  0  0  0  0
  5  7  1  0  0  0  0
  6  5  1  0  0  0  0
  7  8  1  0  0  0  0
  9  7  2  0  0  0  0
 10 11  1  0  0  0  0
 10  2  2  0  0  0  0
 12 13  1  6  0  0  0
 12 11  1  0  0  0  0
 12 21  1  0  0  0  0
 14 15  1  6  0  0  0
 14 16  1  0  0  0  0
 14 17  1  0  0  0  0
 14 12  1  0  0  0  0
 16 10  1  0  0  0  0
 17 18  1  0  0  0  0
 17 20  1  0  0  0  0
 19 17  1  0  0  0  0
 20 21  2  0  0  0  0
 20 28  1  0  0  0  0
 21 22  1  0  0  0  0
 22 23  1  0  0  0  0
 22 24  2  0  0  0  0
 24 25  1  0  0  0  0
 26 24  1  0  0  0  0
 26 27  1  0  0  0  0
 28 26  2  0  0  0  0
 29 28  1  0  0  0  0
 30  9  1  1  0  0  0
 30 36  1  0  0  0  0
 31 30  1  0  0  0  0
 31 32  1  0  0  0  0
 32 33  1  1  0  0  0
 32 34  1  0  0  0  0
 34 35  1  1  0  0  0
 36 34  1  0  0  0  0
 37 34  1  0  0  0  0
 37 39  1  0  0  0  0
 38 37  1  0  0  0  0
 40 37  1  0  0  0  0
 41 40  1  0  0  0  0
 41 32  1  0  0  0  0
 42 41  2  0  0  0  0
 43 42  1  0  0  0  0
 44 46  2  0  0  0  0
 44 42  1  0  0  0  0
 45 44  1  0  0  0  0
 46 48  1  0  0  0  0
 47 46  1  0  0  0  0
 48 49  1  0  0  0  0
 48 40  2  0  0  0  0
M  END
