1,2,5
 OpenBabel05122313063D

 25 26  0  0  0  0  0  0  0  0999 V2000
   -1.0765   -0.5273    1.8056 N   0  0  0  0  0  2  0  0  0  0  0  0
   -1.6093    1.1963   -0.0537 N   0  0  0  0  0  2  0  0  0  0  0  0
   -2.9774    2.9153   -0.9879 N   0  0  0  0  0  0  0  0  0  0  0  0
    0.5855   -2.1157    2.2711 C   0  0  0  0  0  0  0  0  0  0  0  0
    1.1690   -1.7551    1.0944 N   0  0  0  0  0  2  0  0  0  0  0  0
    2.9124   -3.3235    1.5416 C   0  0  0  0  0  0  0  0  0  0  0  0
    3.8584   -3.8046    1.2415 H   0  0  0  0  0  0  0  0  0  0  0  0
    2.3549   -3.7101    2.7031 N   0  0  0  0  0  0  0  0  0  0  0  0
   -3.8122    2.7671    0.0534 C   0  0  0  0  0  0  0  0  0  0  0  0
   -2.2091    0.1344    2.0077 N   0  0  0  0  0  0  0  0  0  0  0  0
   -3.6195    1.8588    1.0900 C   0  0  0  0  0  0  0  0  0  0  0  0
   -4.3117    1.7581    1.9349 H   0  0  0  0  0  0  0  0  0  0  0  0
   -2.4567    1.0425    1.0204 C   0  0  0  0  0  0  0  0  0  0  0  0
    2.3134   -2.3425    0.7333 C   0  0  0  0  0  0  0  0  0  0  0  0
    2.7594   -2.0190   -0.2234 H   0  0  0  0  0  0  0  0  0  0  0  0
   -0.6605   -1.4540    2.6531 C   0  0  0  0  0  0  0  0  0  0  0  0
   -1.9132    2.1133   -0.9812 C   0  0  0  0  0  0  0  0  0  0  0  0
   -1.2048    2.2080   -1.8247 H   0  0  0  0  0  0  0  0  0  0  0  0
   -1.4031   -1.8106    3.9050 C   0  0  0  0  0  0  0  0  0  0  0  0
   -0.7790   -1.6525    4.8094 H   0  0  0  0  0  0  0  0  0  0  0  0
   -1.7163   -2.8760    3.9078 H   0  0  0  0  0  0  0  0  0  0  0  0
   -2.3028   -1.1724    3.9753 H   0  0  0  0  0  0  0  0  0  0  0  0
    1.2139   -3.1180    3.0615 C   0  0  0  0  0  0  0  0  0  0  0  0
    0.7617   -3.4379    4.0153 H   0  0  0  0  0  0  0  0  0  0  0  0
   -5.2202    3.7980    0.0775 Cl  0  0  0  0  0  0  0  0  0  0  0  0
  1 10  1  0  0  0  0
  1 16  1  0  0  0  0
  2 13  1  0  0  0  0
  3 17  2  0  0  0  0
  3  9  1  0  0  0  0
  4 16  2  0  0  0  0
  4 23  1  0  0  0  0
  5  4  1  0  0  0  0
  6  8  1  0  0  0  0
  7  6  1  0  0  0  0
  8 23  2  0  0  0  0
  9 25  1  0  0  0  0
  9 11  2  0  0  0  0
 11 12  1  0  0  0  0
 13 11  1  0  0  0  0
 13 10  2  0  0  0  0
 14  5  1  0  0  0  0
 14  6  2  0  0  0  0
 15 14  1  0  0  0  0
 16 19  1  0  0  0  0
 17  2  1  0  0  0  0
 18 17  1  0  0  0  0
 19 21  1  0  0  0  0
 19 22  1  0  0  0  0
 19 20  1  0  0  0  0
 23 24  1  0  0  0  0
M  END
