1,2,3
 OpenBabel05122313063D

 67 71  0  0  1  0  0  0  0  0999 V2000
    1.2422   -2.1048   -0.0781 N   0  0  0  0  0  2  0  0  0  0  0  0
    2.9543   -0.1246   -0.2185 N   0  0  0  0  0  2  0  0  0  0  0  0
    1.4838    1.9957    0.2246 N   0  0  0  0  0  2  0  0  0  0  0  0
    2.5350   -2.4564   -0.3338 C   0  0  2  0  0  3  0  0  0  0  0  0
    2.8978   -3.7686   -0.6794 C   0  0  0  0  0  0  0  0  0  0  0  0
    3.9440   -4.0162   -0.9069 H   0  0  0  0  0  0  0  0  0  0  0  0
    1.8990   -4.7478   -0.7428 C   0  0  0  0  0  0  0  0  0  0  0  0
    2.1504   -5.7842   -1.0119 H   0  0  0  0  0  0  0  0  0  0  0  0
    0.5784   -4.3897   -0.4424 C   0  0  0  0  0  0  0  0  0  0  0  0
   -0.2240   -5.1407   -0.4359 H   0  0  0  0  0  0  0  0  0  0  0  0
    0.2752   -3.0537   -0.1114 C   0  0  0  0  0  0  0  0  0  0  0  0
    3.5100   -1.3533   -0.1663 C   0  0  2  0  0  3  0  0  0  0  0  0
    4.8786   -1.5123    0.1162 C   0  0  0  0  0  0  0  0  0  0  0  0
    5.3344   -2.5111    0.1561 H   0  0  0  0  0  0  0  0  0  0  0  0
    5.6411   -0.3676    0.3945 C   0  0  0  0  0  0  0  0  0  0  0  0
    6.7109   -0.4624    0.6306 H   0  0  0  0  0  0  0  0  0  0  0  0
    5.0239    0.8919    0.4271 C   0  0  0  0  0  0  0  0  0  0  0  0
    5.5980    1.7848    0.7096 H   0  0  0  0  0  0  0  0  0  0  0  0
    3.6521    0.9783    0.1256 C   0  0  0  0  0  0  0  0  0  0  0  0
    2.8291    2.2091    0.2075 C   0  0  2  0  0  3  0  0  0  0  0  0
    3.3782    3.4999    0.2925 C   0  0  0  0  0  0  0  0  0  0  0  0
    4.4656    3.6494    0.2483 H   0  0  0  0  0  0  0  0  0  0  0  0
    2.5128    4.5918    0.4272 C   0  0  0  0  0  0  0  0  0  0  0  0
    2.9133    5.6125    0.5139 H   0  0  0  0  0  0  0  0  0  0  0  0
    1.1316    4.3650    0.4464 C   0  0  0  0  0  0  0  0  0  0  0  0
    0.4233    5.1957    0.5702 H   0  0  0  0  0  0  0  0  0  0  0  0
    0.6384    3.0498    0.3199 C   0  0  0  0  0  0  0  0  0  0  0  0
   -1.1047   -2.6481    0.2789 C   0  0  0  0  0  0  0  0  0  0  0  0
   -2.1644   -2.7172   -0.6594 C   0  0  0  0  0  0  0  0  0  0  0  0
   -3.4601   -2.3553   -0.2434 C   0  0  0  0  0  0  0  0  0  0  0  0
   -4.2869   -2.4138   -0.9707 H   0  0  0  0  0  0  0  0  0  0  0  0
   -3.7359   -1.9525    1.0749 C   0  0  0  0  0  0  0  0  0  0  0  0
   -2.6643   -1.9035    1.9872 C   0  0  0  0  0  0  0  0  0  0  0  0
   -2.8603   -1.6114    3.0318 H   0  0  0  0  0  0  0  0  0  0  0  0
   -1.3532   -2.2467    1.6200 C   0  0  0  0  0  0  0  0  0  0  0  0
   -1.9315   -3.1707   -2.0815 C   0  0  0  0  0  0  0  0  0  0  0  0
   -2.7865   -2.8997   -2.7309 H   0  0  0  0  0  0  0  0  0  0  0  0
   -1.8227   -4.2733   -2.1484 H   0  0  0  0  0  0  0  0  0  0  0  0
   -1.0087   -2.7345   -2.5134 H   0  0  0  0  0  0  0  0  0  0  0  0
   -5.1378   -1.6259    1.5205 C   0  0  0  0  0  0  0  0  0  0  0  0
   -5.1780   -0.6701    2.0813 H   0  0  0  0  0  0  0  0  0  0  0  0
   -5.5265   -2.4105    2.2032 H   0  0  0  0  0  0  0  0  0  0  0  0
   -5.8378   -1.5542    0.6659 H   0  0  0  0  0  0  0  0  0  0  0  0
   -0.2559   -2.2608    2.6567 C   0  0  0  0  0  0  0  0  0  0  0  0
    0.5981   -1.6171    2.3694 H   0  0  0  0  0  0  0  0  0  0  0  0
    0.1549   -3.2844    2.7832 H   0  0  0  0  0  0  0  0  0  0  0  0
   -0.6311   -1.9229    3.6407 H   0  0  0  0  0  0  0  0  0  0  0  0
   -0.8236    2.7695    0.2827 C   0  0  0  0  0  0  0  0  0  0  0  0
   -1.6148    3.3272   -0.7555 C   0  0  0  0  0  0  0  0  0  0  0  0
   -2.9913    3.0356   -0.7837 C   0  0  0  0  0  0  0  0  0  0  0  0
   -3.6079    3.4737   -1.5859 H   0  0  0  0  0  0  0  0  0  0  0  0
   -3.6022    2.2090    0.1754 C   0  0  0  0  0  0  0  0  0  0  0  0
   -2.7925    1.6722    1.1935 C   0  0  0  0  0  0  0  0  0  0  0  0
   -3.2481    1.0323    1.9645 H   0  0  0  0  0  0  0  0  0  0  0  0
   -1.4157    1.9362    1.2696 C   0  0  0  0  0  0  0  0  0  0  0  0
   -1.0206    4.1866   -1.8471 C   0  0  0  0  0  0  0  0  0  0  0  0
   -1.7045    4.2476   -2.7156 H   0  0  0  0  0  0  0  0  0  0  0  0
   -0.0471    3.7944   -2.2025 H   0  0  0  0  0  0  0  0  0  0  0  0
   -0.8420    5.2285   -1.5093 H   0  0  0  0  0  0  0  0  0  0  0  0
   -5.0733    1.8893    0.1065 C   0  0  0  0  0  0  0  0  0  0  0  0
   -5.2410    0.8476   -0.2430 H   0  0  0  0  0  0  0  0  0  0  0  0
   -5.6103    2.5666   -0.5850 H   0  0  0  0  0  0  0  0  0  0  0  0
   -5.5527    1.9650    1.1030 H   0  0  0  0  0  0  0  0  0  0  0  0
   -0.6023    1.3541    2.3988 C   0  0  0  0  0  0  0  0  0  0  0  0
   -1.2551    0.8927    3.1628 H   0  0  0  0  0  0  0  0  0  0  0  0
    0.0255    2.1229    2.8928 H   0  0  0  0  0  0  0  0  0  0  0  0
    0.0934    0.5710    2.0328 H   0  0  0  0  0  0  0  0  0  0  0  0
  2 19  1  0  0  0  0
  3 27  1  0  0  0  0
  4  5  1  1  0  0  0
  4 12  1  0  0  0  0
  4  1  1  0  0  0  0
  6  5  1  0  0  0  0
  7  5  2  0  0  0  0
  7  9  1  0  0  0  0
  8  7  1  0  0  0  0
  9 10  1  0  0  0  0
  9 11  2  0  0  0  0
 11  1  1  0  0  0  0
 11 28  1  0  0  0  0
 12  2  1  1  0  0  0
 12 13  1  0  0  0  0
 13 14  1  0  0  0  0
 13 15  2  0  0  0  0
 15 17  1  0  0  0  0
 15 16  1  0  0  0  0
 17 18  1  0  0  0  0
 19 17  2  0  0  0  0
 20 19  1  1  0  0  0
 20  3  1  0  0  0  0
 20 21  1  0  0  0  0
 21 23  2  0  0  0  0
 22 21  1  0  0  0  0
 23 25  1  0  0  0  0
 23 24  1  0  0  0  0
 25 26  1  0  0  0  0
 27 25  2  0  0  0  0
 28 35  1  0  0  0  0
 29 30  1  0  0  0  0
 29 28  2  0  0  0  0
 30 32  2  0  0  0  0
 31 30  1  0  0  0  0
 32 40  1  0  0  0  0
 32 33  1  0  0  0  0
 33 34  1  0  0  0  0
 35 33  2  0  0  0  0
 35 44  1  0  0  0  0
 36 29  1  0  0  0  0
 37 36  1  0  0  0  0
 38 36  1  0  0  0  0
 39 36  1  0  0  0  0
 40 41  1  0  0  0  0
 40 42  1  0  0  0  0
 43 40  1  0  0  0  0
 44 46  1  0  0  0  0
 44 47  1  0  0  0  0
 45 44  1  0  0  0  0
 48 27  1  0  0  0  0
 48 55  1  0  0  0  0
 49 48  2  0  0  0  0
 50 49  1  0  0  0  0
 50 52  2  0  0  0  0
 51 50  1  0  0  0  0
 52 53  1  0  0  0  0
 53 55  2  0  0  0  0
 53 54  1  0  0  0  0
 55 64  1  0  0  0  0
 56 59  1  0  0  0  0
 56 49  1  0  0  0  0
 57 56  1  0  0  0  0
 58 56  1  0  0  0  0
 60 52  1  0  0  0  0
 60 63  1  0  0  0  0
 61 60  1  0  0  0  0
 62 60  1  0  0  0  0
 64 66  1  0  0  0  0
 64 65  1  0  0  0  0
 67 64  1  0  0  0  0
M  END
