2,3,4
 OpenBabel05122313063D

 26 26  0  0  0  0  0  0  0  0999 V2000
   -2.1202   -1.9896    0.2725 O   0  0  0  0  0  1  0  0  0  0  0  0
    1.4291    1.1882    0.0753 N   0  0  0  0  0  2  0  0  0  0  0  0
    0.4814   -0.2600   -1.8162 N   0  0  0  0  0  2  0  0  0  0  0  0
   -1.2688   -1.5092   -0.4952 N   0  0  0  0  0  2  0  0  0  0  0  0
    1.7501    1.9473    1.1441 C   0  0  0  0  0  3  0  0  0  0  0  0
    2.7891    2.8800    1.1041 C   0  0  0  0  0  0  0  0  0  0  0  0
    3.5169    3.0271   -0.0869 C   0  0  0  0  0  0  0  0  0  0  0  0
    3.1811    2.2348   -1.1918 C   0  0  0  0  0  0  0  0  0  0  0  0
    2.1292    1.3139   -1.0825 C   0  0  0  0  0  0  0  0  0  0  0  0
    1.7190    0.3845   -2.1993 C   0  0  0  0  0  0  0  0  0  0  0  0
    0.3191   -1.5866   -3.8866 C   0  0  0  0  0  0  0  0  0  0  0  0
   -0.1233   -1.2141   -2.5052 C   0  0  0  0  0  0  0  0  0  0  0  0
   -1.1756   -1.8896   -1.7964 C   0  0  0  0  0  0  0  0  0  0  0  0
   -2.1215   -2.9282   -2.3037 C   0  0  0  0  0  0  0  0  0  0  0  0
    1.1481    1.7807    2.0494 H   0  0  0  0  0  0  0  0  0  0  0  0
    3.0219    3.4787    1.9958 H   0  0  0  0  0  0  0  0  0  0  0  0
    4.3407    3.7530   -0.1537 H   0  0  0  0  0  0  0  0  0  0  0  0
    3.7323    2.3212   -2.1395 H   0  0  0  0  0  0  0  0  0  0  0  0
    1.6318    0.9466   -3.1573 H   0  0  0  0  0  0  0  0  0  0  0  0
    2.5236   -0.3743   -2.3428 H   0  0  0  0  0  0  0  0  0  0  0  0
    0.5163   -0.6897   -4.5065 H   0  0  0  0  0  0  0  0  0  0  0  0
    1.2702   -2.1590   -3.8258 H   0  0  0  0  0  0  0  0  0  0  0  0
   -0.4207   -2.2178   -4.4081 H   0  0  0  0  0  0  0  0  0  0  0  0
   -3.1709   -2.6168   -2.1222 H   0  0  0  0  0  0  0  0  0  0  0  0
   -1.9895   -3.1187   -3.3832 H   0  0  0  0  0  0  0  0  0  0  0  0
   -1.9843   -3.8843   -1.7564 H   0  0  0  0  0  0  0  0  0  0  0  0
  2  5  1  0  0  0  0
  4  1  1  0  0  0  0
  5 15  1  0  0  0  0
  6  5  1  0  0  0  0
  6 16  1  0  0  0  0
  7  6  2  0  0  0  0
  8  9  2  0  0  0  0
  8  7  1  0  0  0  0
  9  2  1  0  0  0  0
 10  3  1  0  0  0  0
 10  9  1  0  0  0  0
 11 22  1  0  0  0  0
 11 12  1  0  0  0  0
 12  3  1  0  0  0  0
 12 13  2  0  0  0  0
 13  4  1  0  0  0  0
 14 24  1  0  0  0  0
 14 13  1  0  0  0  0
 14 26  1  0  0  0  0
 17  7  1  0  0  0  0
 18  8  1  0  0  0  0
 19 10  1  0  0  0  0
 20 10  1  0  0  0  0
 21 11  1  0  0  0  0
 23 11  1  0  0  0  0
 25 14  1  0  0  0  0
M  END
