2,3,4
 OpenBabel05122313063D

 49 51  0  0  0  0  0  0  0  0999 V2000
   -1.7458   -3.1402   -0.4794 N   0  0  0  0  0  0  0  0  0  0  0  0
   -2.1965   -1.8874   -0.2860 N   0  0  0  0  0  2  0  0  0  0  0  0
   -3.4064    0.3643    0.0344 N   0  0  0  0  0  2  0  0  0  0  0  0
   -1.4269    2.0076    0.0539 N   0  0  0  0  0  2  0  0  0  0  0  0
   -0.5212    3.0032    0.0996 N   0  0  0  0  0  0  0  0  0  0  0  0
    2.6657   -3.8681    1.8767 C   0  0  0  0  0  0  0  0  0  0  0  0
    2.6604   -2.8385    2.2896 H   0  0  0  0  0  0  0  0  0  0  0  0
    3.7237   -4.1537    1.7136 H   0  0  0  0  0  0  0  0  0  0  0  0
    2.2496   -4.5464    2.6501 H   0  0  0  0  0  0  0  0  0  0  0  0
    1.8690   -3.9373    0.5745 C   0  0  0  0  0  0  0  0  0  0  0  0
    2.3259   -3.2493   -0.1688 H   0  0  0  0  0  0  0  0  0  0  0  0
    1.9400   -4.9572    0.1358 H   0  0  0  0  0  0  0  0  0  0  0  0
    0.3927   -3.5658    0.7575 C   0  0  0  0  0  0  0  0  0  0  0  0
    0.3171   -2.5866    1.2749 H   0  0  0  0  0  0  0  0  0  0  0  0
   -0.1215   -4.3167    1.3960 H   0  0  0  0  0  0  0  0  0  0  0  0
   -0.3209   -3.4631   -0.5919 C   0  0  0  0  0  0  0  0  0  0  0  0
    0.1452   -2.6753   -1.2163 H   0  0  0  0  0  0  0  0  0  0  0  0
   -0.2703   -4.4199   -1.1480 H   0  0  0  0  0  0  0  0  0  0  0  0
   -2.7882   -4.0178   -0.4843 C   0  0  0  0  0  3  0  0  0  0  0  0
   -2.6099   -5.0888   -0.6265 H   0  0  0  0  0  0  0  0  0  0  0  0
   -3.9702   -3.3021   -0.2967 C   0  0  0  0  0  0  0  0  0  0  0  0
   -4.9868   -3.7042   -0.2610 H   0  0  0  0  0  0  0  0  0  0  0  0
   -3.5665   -1.9573   -0.1772 C   0  0  0  0  0  0  0  0  0  0  0  0
   -4.2671   -0.6880    0.0056 C   0  0  0  0  0  0  0  0  0  0  0  0
   -5.6447   -0.4538    0.1409 C   0  0  0  0  0  0  0  0  0  0  0  0
   -6.3564   -1.2900    0.1199 H   0  0  0  0  0  0  0  0  0  0  0  0
   -6.0860    0.8712    0.3023 C   0  0  0  0  0  0  0  0  0  0  0  0
   -7.1613    1.0745    0.4093 H   0  0  0  0  0  0  0  0  0  0  0  0
   -5.1733    1.9397    0.3302 C   0  0  0  0  0  0  0  0  0  0  0  0
   -5.5159    2.9753    0.4582 H   0  0  0  0  0  0  0  0  0  0  0  0
   -3.8053    1.6549    0.1922 C   0  0  0  0  0  0  0  0  0  0  0  0
   -2.6713    2.5763    0.1990 C   0  0  0  0  0  0  0  0  0  0  0  0
   -2.5250    3.9703    0.3352 C   0  0  0  0  0  0  0  0  0  0  0  0
   -3.3108    4.7196    0.4679 H   0  0  0  0  0  0  0  0  0  0  0  0
   -1.1497    4.1999    0.2675 C   0  0  0  0  0  0  0  0  0  0  0  0
   -0.5776    5.1298    0.3281 H   0  0  0  0  0  0  0  0  0  0  0  0
    0.9150    2.7220   -0.0123 C   0  0  0  0  0  0  0  0  0  0  0  0
    1.0735    2.2094   -0.9824 H   0  0  0  0  0  0  0  0  0  0  0  0
    1.1580    1.9752    0.7694 H   0  0  0  0  0  0  0  0  0  0  0  0
    1.8113    3.9455    0.1121 C   0  0  0  0  0  0  0  0  0  0  0  0
    1.6372    4.4531    1.0861 H   0  0  0  0  0  0  0  0  0  0  0  0
    1.5757    4.6828   -0.6864 H   0  0  0  0  0  0  0  0  0  0  0  0
    3.2876    3.5320    0.0084 C   0  0  0  0  0  0  0  0  0  0  0  0
    3.5087    2.7750    0.7920 H   0  0  0  0  0  0  0  0  0  0  0  0
    3.4510    3.0069   -0.9579 H   0  0  0  0  0  0  0  0  0  0  0  0
    4.2528    4.7094    0.1331 C   0  0  0  0  0  0  0  0  0  0  0  0
    4.1373    5.2291    1.1066 H   0  0  0  0  0  0  0  0  0  0  0  0
    4.0877    5.4591   -0.6680 H   0  0  0  0  0  0  0  0  0  0  0  0
    5.3045    4.3687    0.0605 H   0  0  0  0  0  0  0  0  0  0  0  0
  1  2  1  0  0  0  0
  2 23  1  0  0  0  0
  3 31  1  0  0  0  0
  4  5  1  0  0  0  0
  4 32  1  0  0  0  0
  5 35  1  0  0  0  0
  6  7  1  0  0  0  0
  6  9  1  0  0  0  0
  8  6  1  0  0  0  0
 10 13  1  0  0  0  0
 10  6  1  0  0  0  0
 11 10  1  0  0  0  0
 12 10  1  0  0  0  0
 13 14  1  0  0  0  0
 13 15  1  0  0  0  0
 16  1  1  0  0  0  0
 16 13  1  0  0  0  0
 17 16  1  0  0  0  0
 18 16  1  0  0  0  0
 19  1  1  0  0  0  0
 19 21  1  0  0  0  0
 20 19  1  0  0  0  0
 21 22  1  0  0  0  0
 21 23  2  0  0  0  0
 23 24  1  0  0  0  0
 24  3  1  0  0  0  0
 24 25  2  0  0  0  0
 25 27  1  0  0  0  0
 26 25  1  0  0  0  0
 27 29  2  0  0  0  0
 27 28  1  0  0  0  0
 29 30  1  0  0  0  0
 31 32  2  0  0  0  0
 31 29  1  0  0  0  0
 32 33  1  0  0  0  0
 33 34  1  0  0  0  0
 35 36  1  0  0  0  0
 35 33  2  0  0  0  0
 37  5  1  0  0  0  0
 37 40  1  0  0  0  0
 37 39  1  0  0  0  0
 38 37  1  0  0  0  0
 40 41  1  0  0  0  0
 42 40  1  0  0  0  0
 43 40  1  0  0  0  0
 43 46  1  0  0  0  0
 43 44  1  0  0  0  0
 45 43  1  0  0  0  0
 46 47  1  0  0  0  0
 48 46  1  0  0  0  0
 49 46  1  0  0  0  0
M  END
