2,4,6
 OpenBabel05122313063D

 53 55  0  0  1  0  0  0  0  0999 V2000
   -1.7148   -0.9165    2.7671 N   0  0  0  0  0  0  0  0  0  0  0  0
   -1.8523   -1.0165    1.4292 N   0  0  0  0  0  2  0  0  0  0  0  0
   -0.2592    1.1300    2.8229 N   0  0  0  0  0  0  0  0  0  0  0  0
   -0.2243    1.3680    1.4924 N   0  0  0  0  0  2  0  0  0  0  0  0
    0.7944   -1.1757    2.8960 N   0  0  0  0  0  0  0  0  0  0  0  0
    1.0308   -1.3465    1.5785 N   0  0  0  0  0  2  0  0  0  0  0  0
   -3.0881   -1.4937    1.2013 C   0  0  1  0  0  3  0  0  0  0  0  0
   -3.7751   -1.7027    2.4176 C   0  0  0  0  0  0  0  0  0  0  0  0
   -2.8537   -1.3215    3.3944 C   0  0  0  0  0  0  0  0  0  0  0  0
   -3.5893   -1.6825   -0.1989 C   0  0  0  0  0  0  0  0  0  0  0  0
   -4.0335   -0.3372   -0.8652 C   0  0  0  0  0  0  0  0  0  0  0  0
   -4.3258   -0.4148   -2.3954 C   0  0  0  0  0  0  0  0  0  0  0  0
   -0.2128    2.7053    1.3456 C   0  0  2  0  0  3  0  0  0  0  0  0
   -0.2283    3.3491    2.6029 C   0  0  0  0  0  0  0  0  0  0  0  0
   -0.2619    2.2997    3.5191 C   0  0  0  0  0  0  0  0  0  0  0  0
   -0.1984    3.3678   -0.0018 C   0  0  0  0  0  0  0  0  0  0  0  0
    1.1927    3.9282   -0.4485 C   0  0  0  0  0  0  0  0  0  0  0  0
    2.3223    2.8795   -0.6579 C   0  0  0  0  0  0  0  0  0  0  0  0
    2.0745   -2.1905    1.4826 C   0  0  1  0  0  3  0  0  0  0  0  0
    2.5381   -2.5611    2.7641 C   0  0  0  0  0  0  0  0  0  0  0  0
    1.6839   -1.8900    3.6392 C   0  0  0  0  0  0  0  0  0  0  0  0
    2.6105   -2.6294    0.1517 C   0  0  0  0  0  0  0  0  0  0  0  0
    3.5605   -1.5753   -0.5013 C   0  0  0  0  0  0  0  0  0  0  0  0
    3.9580   -1.8533   -1.9833 C   0  0  0  0  0  0  0  0  0  0  0  0
   -2.6256   -2.2420   -0.9942 F   0  0  0  0  0  0  0  0  0  0  0  0
   -4.6711   -2.5112   -0.1888 F   0  0  0  0  0  0  0  0  0  0  0  0
   -3.0600    0.5957   -0.6903 F   0  0  0  0  0  0  0  0  0  0  0  0
   -5.1571    0.0855   -0.2351 F   0  0  0  0  0  0  0  0  0  0  0  0
   -5.1424   -1.4440   -2.6730 F   0  0  0  0  0  0  0  0  0  0  0  0
   -3.1832   -0.5624   -3.0833 F   0  0  0  0  0  0  0  0  0  0  0  0
   -4.9199    0.7244   -2.7882 F   0  0  0  0  0  0  0  0  0  0  0  0
   -0.6422    2.5259   -0.9769 F   0  0  0  0  0  0  0  0  0  0  0  0
   -1.0257    4.4568    0.0303 F   0  0  0  0  0  0  0  0  0  0  0  0
    1.6159    4.8019    0.5053 F   0  0  0  0  0  0  0  0  0  0  0  0
    1.0331    4.5970   -1.6152 F   0  0  0  0  0  0  0  0  0  0  0  0
    1.9810    2.0005   -1.6147 F   0  0  0  0  0  0  0  0  0  0  0  0
    3.4476    3.5072   -1.0335 F   0  0  0  0  0  0  0  0  0  0  0  0
    2.5627    2.2150    0.4866 F   0  0  0  0  0  0  0  0  0  0  0  0
    3.3241   -3.7804    0.3098 F   0  0  0  0  0  0  0  0  0  0  0  0
    1.5913   -2.8738   -0.7287 F   0  0  0  0  0  0  0  0  0  0  0  0
    2.9555   -0.3595   -0.4700 F   0  0  0  0  0  0  0  0  0  0  0  0
    4.6929   -1.5174    0.2421 F   0  0  0  0  0  0  0  0  0  0  0  0
    4.9373   -1.0054   -2.3411 F   0  0  0  0  0  0  0  0  0  0  0  0
    2.9071   -1.6617   -2.7945 F   0  0  0  0  0  0  0  0  0  0  0  0
    4.4032   -3.1117   -2.1290 F   0  0  0  0  0  0  0  0  0  0  0  0
   -0.4088   -0.3176    3.3627 B   0  0  2  0  0  0  0  0  0  0  0  0
   -4.7911   -2.0831    2.5538 H   0  0  0  0  0  0  0  0  0  0  0  0
   -2.9247   -1.3105    4.4871 H   0  0  0  0  0  0  0  0  0  0  0  0
   -0.2233    4.4242    2.8019 H   0  0  0  0  0  0  0  0  0  0  0  0
   -0.2962    2.2982    4.6136 H   0  0  0  0  0  0  0  0  0  0  0  0
    3.3683   -3.2307    3.0046 H   0  0  0  0  0  0  0  0  0  0  0  0
    1.6392   -1.8736    4.7331 H   0  0  0  0  0  0  0  0  0  0  0  0
   -0.4686   -0.3050    4.5805 H   0  0  0  0  0  0  0  0  0  0  0  0
  1 46  1  0  0  0  0
  1  9  1  0  0  0  0
  2  1  1  0  0  0  0
  3 46  1  0  0  0  0
  3 15  1  0  0  0  0
  4  3  1  0  0  0  0
  5 46  1  0  0  0  0
  5 21  1  0  0  0  0
  6  5  1  0  0  0  0
  7 10  1  6  0  0  0
  7  2  1  0  0  0  0
  7  8  1  0  0  0  0
  8 47  1  0  0  0  0
  8  9  2  0  0  0  0
  9 48  1  0  0  0  0
 10 26  1  0  0  0  0
 11 27  1  0  0  0  0
 11 28  1  0  0  0  0
 11 10  1  0  0  0  0
 12 11  1  0  0  0  0
 13 16  1  6  0  0  0
 13  4  1  0  0  0  0
 13 14  1  0  0  0  0
 14 49  1  0  0  0  0
 14 15  2  0  0  0  0
 15 50  1  0  0  0  0
 16 33  1  0  0  0  0
 17 16  1  0  0  0  0
 17 34  1  0  0  0  0
 18 17  1  0  0  0  0
 18 38  1  0  0  0  0
 19 22  1  1  0  0  0
 19  6  1  0  0  0  0
 19 20  1  0  0  0  0
 20 51  1  0  0  0  0
 20 21  2  0  0  0  0
 21 52  1  0  0  0  0
 22 39  1  0  0  0  0
 23 41  1  0  0  0  0
 23 22  1  0  0  0  0
 23 42  1  0  0  0  0
 24 23  1  0  0  0  0
 25 10  1  0  0  0  0
 29 12  1  0  0  0  0
 30 12  1  0  0  0  0
 31 12  1  0  0  0  0
 32 16  1  0  0  0  0
 35 17  1  0  0  0  0
 36 18  1  0  0  0  0
 37 18  1  0  0  0  0
 40 22  1  0  0  0  0
 43 24  1  0  0  0  0
 44 24  1  0  0  0  0
 45 24  1  0  0  0  0
 46 53  1  1  0  0  0
M  END
