1,2,3
 OpenBabel05122313063D

 36 37  0  0  0  0  0  0  0  0999 V2000
   -1.5267    1.5889    0.4413 N   0  0  0  0  0  2  0  0  0  0  0  0
   -2.3298   -0.8636    0.0683 N   0  0  0  0  0  0  0  0  0  0  0  0
    1.3671    0.9013   -0.6092 N   0  0  0  0  0  0  0  0  0  0  0  0
   -2.8024    1.3565    0.7083 C   0  0  0  0  0  3  0  0  0  0  0  0
   -3.4544    2.1770    1.0622 H   0  0  0  0  0  0  0  0  0  0  0  0
   -2.9156   -2.0690   -0.0666 C   0  0  0  0  0  0  0  0  0  0  0  0
   -2.3395   -2.9310   -0.4235 H   0  0  0  0  0  0  0  0  0  0  0  0
   -4.2841   -1.9697    0.3080 C   0  0  0  0  0  0  0  0  0  0  0  0
   -5.0077   -2.7935    0.3017 H   0  0  0  0  0  0  0  0  0  0  0  0
   -3.2843    0.0430    0.5233 C   0  0  0  0  0  3  0  0  0  0  0  0
    4.4922   -1.1283    0.1158 C   0  0  0  0  0  0  0  0  0  0  0  0
    5.3698   -1.5193   -0.4204 H   0  0  0  0  0  0  0  0  0  0  0  0
    1.4949    0.9005   -2.0874 C   0  0  0  0  0  0  0  0  0  0  0  0
    1.4523   -0.1455   -2.4416 H   0  0  0  0  0  0  0  0  0  0  0  0
    2.4379    1.3969   -2.4062 H   0  0  0  0  0  0  0  0  0  0  0  0
    0.6389    1.4502   -2.5168 H   0  0  0  0  0  0  0  0  0  0  0  0
    3.5308   -0.3880   -0.5935 C   0  0  0  0  0  0  0  0  0  0  0  0
    3.6721   -0.2217   -1.6680 H   0  0  0  0  0  0  0  0  0  0  0  0
    1.4365    2.3126   -0.1007 C   0  0  0  0  0  0  0  0  0  0  0  0
    2.3304    2.7805   -0.5709 H   0  0  0  0  0  0  0  0  0  0  0  0
    1.6409    2.2637    0.9857 H   0  0  0  0  0  0  0  0  0  0  0  0
    4.3353   -1.3770    1.4842 C   0  0  0  0  0  0  0  0  0  0  0  0
    5.0875   -1.9635    2.0323 H   0  0  0  0  0  0  0  0  0  0  0  0
   -4.5222   -0.6357    0.6794 C   0  0  0  0  0  0  0  0  0  0  0  0
   -5.4651   -0.1954    1.0245 H   0  0  0  0  0  0  0  0  0  0  0  0
    2.2359   -0.1517    1.4474 C   0  0  0  0  0  0  0  0  0  0  0  0
    1.3220    0.1922    1.9560 H   0  0  0  0  0  0  0  0  0  0  0  0
    3.1987   -0.8843    2.1480 C   0  0  0  0  0  0  0  0  0  0  0  0
    3.0486   -1.0891    3.2185 H   0  0  0  0  0  0  0  0  0  0  0  0
    2.3990    0.1054    0.0717 C   0  0  0  0  0  0  0  0  0  0  0  0
    0.1992    3.1774   -0.3351 C   0  0  0  0  0  0  0  0  0  0  0  0
    0.5143    4.2332   -0.2018 H   0  0  0  0  0  0  0  0  0  0  0  0
   -0.1649    3.0926   -1.3802 H   0  0  0  0  0  0  0  0  0  0  0  0
   -0.9421    2.8958    0.6430 C   0  0  0  0  0  0  0  0  0  0  0  0
   -0.5393    2.9752    1.6822 H   0  0  0  0  0  0  0  0  0  0  0  0
   -1.7245    3.6819    0.5451 H   0  0  0  0  0  0  0  0  0  0  0  0
  1 34  1  0  0  0  0
  1  4  1  0  0  0  0
  2 10  1  0  0  0  0
  3 19  1  0  0  0  0
  3 30  1  0  0  0  0
  4  5  1  0  0  0  0
  6  2  2  0  0  0  0
  6  8  1  0  0  0  0
  7  6  1  0  0  0  0
  8 24  2  0  0  0  0
  9  8  1  0  0  0  0
 10 24  1  0  0  0  0
 10  4  1  0  0  0  0
 11 22  1  0  0  0  0
 12 11  1  0  0  0  0
 13  3  1  0  0  0  0
 14 13  1  0  0  0  0
 15 13  1  0  0  0  0
 16 13  1  0  0  0  0
 17 30  1  0  0  0  0
 17 11  2  0  0  0  0
 18 17  1  0  0  0  0
 19 21  1  0  0  0  0
 20 19  1  0  0  0  0
 22 23  1  0  0  0  0
 22 28  2  0  0  0  0
 24 25  1  0  0  0  0
 26 27  1  0  0  0  0
 26 28  1  0  0  0  0
 28 29  1  0  0  0  0
 30 26  2  0  0  0  0
 31 32  1  0  0  0  0
 31 19  1  0  0  0  0
 31 34  1  0  0  0  0
 33 31  1  0  0  0  0
 34 35  1  0  0  0  0
 36 34  1  0  0  0  0
M  END
