6,7,8
 OpenBabel05122313063D

 41 44  0  0  1  0  0  0  0  0999 V2000
    1.2226   -0.9693    2.1970 S   0  0  0  0  0  0  0  0  0  0  0  0
    1.7069    0.4265    1.7979 O   0  0  0  0  0  1  0  0  0  0  0  0
   -0.2859   -1.1511    1.4225 O   0  0  0  0  0  0  0  0  0  0  0  0
    2.1389   -2.0182    1.6119 O   0  0  0  0  0  1  0  0  0  0  0  0
    0.8437   -1.1277    3.6015 O   0  0  0  0  0  1  0  0  0  0  0  0
    1.3675    2.3179   -0.5997 N   0  0  0  0  0  2  0  0  0  0  0  0
   -0.0100    0.2923   -0.4745 N   0  0  0  0  0  2  0  0  0  0  0  0
    1.5688   -1.4336   -1.1704 N   0  0  0  0  0  2  0  0  0  0  0  0
   -2.0594    1.3093    0.0480 N   0  0  0  0  0  0  0  0  0  0  0  0
   -1.8923   -1.0924   -0.2090 N   0  0  0  0  0  2  0  0  0  0  0  0
   -4.7776    1.0733   -0.1238 N   0  0  0  0  0  0  0  0  0  0  0  0
    2.2376    3.3460   -0.6373 C   0  0  0  0  0  3  0  0  0  0  0  0
    3.2882    3.0979   -0.8497 H   0  0  0  0  0  0  0  0  0  0  0  0
    1.8453    4.6694   -0.4066 C   0  0  0  0  0  0  0  0  0  0  0  0
    2.5967    5.4703   -0.4507 H   0  0  0  0  0  0  0  0  0  0  0  0
    0.4981    4.9445   -0.1184 C   0  0  0  0  0  0  0  0  0  0  0  0
    0.1663    5.9766    0.0671 H   0  0  0  0  0  0  0  0  0  0  0  0
   -0.4119    3.8816   -0.0623 C   0  0  0  0  0  0  0  0  0  0  0  0
   -1.4797    4.0047    0.1707 H   0  0  0  0  0  0  0  0  0  0  0  0
    0.0522    2.5852   -0.3006 C   0  0  0  0  0  0  0  0  0  0  0  0
   -0.7652    1.3660   -0.2194 C   0  0  2  0  0  3  0  0  0  0  0  0
   -2.5731    0.0355   -0.0700 C   0  0  0  0  0  0  0  0  0  0  0  0
   -0.4859   -0.9777   -0.0228 C   0  0  2  0  0  0  0  0  0  0  0  0
    0.3929   -1.9773   -0.7489 C   0  0  2  0  0  3  0  0  0  0  0  0
    0.0994   -3.3274   -0.9254 C   0  0  0  0  0  0  0  0  0  0  0  0
   -0.8710   -3.6996   -0.5690 H   0  0  0  0  0  0  0  0  0  0  0  0
    1.0548   -4.1460   -1.5409 C   0  0  0  0  0  0  0  0  0  0  0  0
    0.8569   -5.2175   -1.6926 H   0  0  0  0  0  0  0  0  0  0  0  0
    2.2731   -3.5830   -1.9548 C   0  0  0  0  0  0  0  0  0  0  0  0
    3.0517   -4.1939   -2.4330 H   0  0  0  0  0  0  0  0  0  0  0  0
    2.4979   -2.2181   -1.7544 C   0  0  0  0  0  0  0  0  0  0  0  0
    3.4306   -1.7127   -2.0448 H   0  0  0  0  0  0  0  0  0  0  0  0
   -4.0688   -0.0715   -0.0882 C   0  0  0  0  0  0  0  0  0  0  0  0
   -4.6769   -1.3460   -0.0672 C   0  0  0  0  0  0  0  0  0  0  0  0
   -4.0352   -2.2365   -0.0289 H   0  0  0  0  0  0  0  0  0  0  0  0
   -6.0731   -1.4249   -0.0892 C   0  0  0  0  0  0  0  0  0  0  0  0
   -6.5779   -2.4031   -0.0713 H   0  0  0  0  0  0  0  0  0  0  0  0
   -6.8151   -0.2348   -0.1258 C   0  0  0  0  0  0  0  0  0  0  0  0
   -7.9155   -0.2448   -0.1401 H   0  0  0  0  0  0  0  0  0  0  0  0
   -6.1128    0.9829   -0.1396 C   0  0  0  0  0  0  0  0  0  0  0  0
   -6.6671    1.9393   -0.1664 H   0  0  0  0  0  0  0  0  0  0  0  0
  1  5  1  0  0  0  0
  2  1  1  0  0  0  0
  3  1  1  0  0  0  0
  4  1  1  0  0  0  0
  6 20  1  0  0  0  0
  7 21  1  0  0  0  0
  7 23  1  0  0  0  0
 10 22  1  0  0  0  0
 10 23  1  0  0  0  0
 11 33  1  0  0  0  0
 12  6  1  0  0  0  0
 12 14  1  0  0  0  0
 13 12  1  0  0  0  0
 14 16  2  0  0  0  0
 15 14  1  0  0  0  0
 16 18  1  0  0  0  0
 16 17  1  0  0  0  0
 18 19  1  0  0  0  0
 20 18  2  0  0  0  0
 21 20  1  6  0  0  0
 21  9  1  0  0  0  0
 22  9  2  0  0  0  0
 23  3  1  1  0  0  0
 24  8  1  1  0  0  0
 24 23  1  0  0  0  0
 25 24  1  0  0  0  0
 25 26  1  0  0  0  0
 27 25  2  0  0  0  0
 28 27  1  0  0  0  0
 29 31  2  0  0  0  0
 29 27  1  0  0  0  0
 30 29  1  0  0  0  0
 31  8  1  0  0  0  0
 32 31  1  0  0  0  0
 33 22  1  0  0  0  0
 33 34  2  0  0  0  0
 34 35  1  0  0  0  0
 36 37  1  0  0  0  0
 36 34  1  0  0  0  0
 38 36  2  0  0  0  0
 39 38  1  0  0  0  0
 40 38  1  0  0  0  0
 40 11  2  0  0  0  0
 41 40  1  0  0  0  0
M  END
