5,29,32
 OpenBabel05122313063D

 36 37  0  0  1  0  0  0  0  0999 V2000
    2.3213   -0.9816   -0.7064 C   0  0  2  0  0  3  0  0  0  0  0  0
   -4.0758    0.9805    0.3996 C   0  0  0  0  0  0  0  0  0  0  0  0
   -4.7306    1.7358    0.8565 H   0  0  0  0  0  0  0  0  0  0  0  0
   -0.3007   -1.0178    2.2903 N   0  0  0  0  0  0  0  0  0  0  0  0
   -0.0183   -1.6335   -0.5799 N   0  0  0  0  0  0  0  0  0  0  0  0
    3.6799   -1.2796   -0.8357 C   0  0  0  0  0  0  0  0  0  0  0  0
    4.0002   -2.1130   -1.4773 H   0  0  0  0  0  0  0  0  0  0  0  0
    1.1997   -1.6585   -1.4448 C   0  0  0  0  0  0  0  0  0  0  0  0
    0.9753   -1.0587   -2.3514 H   0  0  0  0  0  0  0  0  0  0  0  0
    1.4602   -2.6903   -1.7664 H   0  0  0  0  0  0  0  0  0  0  0  0
    0.0752   -2.6524    0.5080 C   0  0  0  0  0  0  0  0  0  0  0  0
    1.1457   -2.7198    0.7932 H   0  0  0  0  0  0  0  0  0  0  0  0
   -0.2199   -3.6489    0.1114 H   0  0  0  0  0  0  0  0  0  0  0  0
   -4.6048   -0.1163   -0.2978 C   0  0  0  0  0  0  0  0  0  0  0  0
   -5.6923   -0.2443   -0.4003 H   0  0  0  0  0  0  0  0  0  0  0  0
   -2.6887    1.1091    0.5171 C   0  0  0  0  0  3  0  0  0  0  0  0
   -2.1980    1.9371    1.0513 H   0  0  0  0  0  0  0  0  0  0  0  0
   -1.2878   -1.7192   -1.3574 C   0  0  0  0  0  0  0  0  0  0  0  0
   -1.6205   -2.7721   -1.4804 H   0  0  0  0  0  0  0  0  0  0  0  0
   -1.0850   -1.3156   -2.3716 H   0  0  0  0  0  0  0  0  0  0  0  0
   -0.7456   -2.2987    1.7480 C   0  0  0  0  0  0  0  0  0  0  0  0
   -1.8204   -2.2196    1.4842 H   0  0  0  0  0  0  0  0  0  0  0  0
   -0.6676   -3.1563    2.4560 H   0  0  0  0  0  0  0  0  0  0  0  0
   -3.7247   -1.0524   -0.8639 C   0  0  0  0  0  0  0  0  0  0  0  0
   -4.1019   -1.9238   -1.4185 H   0  0  0  0  0  0  0  0  0  0  0  0
    4.1583    0.5636    0.6575 C   0  0  0  0  0  0  0  0  0  0  0  0
    4.8593    1.2053    1.2098 H   0  0  0  0  0  0  0  0  0  0  0  0
   -2.3473   -0.8587   -0.7223 C   0  0  0  0  0  0  0  0  0  0  0  0
   -1.8467    0.2089   -0.0386 N   0  0  0  0  0  2  0  0  0  0  0  0
    4.6161   -0.4910   -0.1462 C   0  0  0  0  0  0  0  0  0  0  0  0
    5.6919   -0.7001   -0.2374 H   0  0  0  0  0  0  0  0  0  0  0  0
    1.8895    0.0413    0.0858 N   0  0  0  0  0  2  0  0  0  0  0  0
    2.7834    0.7996    0.7576 C   0  0  0  0  0  0  0  0  0  0  0  0
    2.3519    1.6109    1.3631 H   0  0  0  0  0  0  0  0  0  0  0  0
   -0.9854   -0.6216    2.9445 H   0  0  0  0  0  0  0  0  0  0  0  0
    0.5834   -1.1136    2.8060 H   0  0  0  0  0  0  0  0  0  0  0  0
  1  8  1  6  0  0  0
  1 32  1  0  0  0  0
  2 16  1  0  0  0  0
  2  3  1  0  0  0  0
  4 36  1  0  0  0  0
  4 35  1  0  0  0  0
  5 11  1  0  0  0  0
  6  1  1  0  0  0  0
  6 30  2  0  0  0  0
  7  6  1  0  0  0  0
  8  5  1  0  0  0  0
  9  8  1  0  0  0  0
 10  8  1  0  0  0  0
 11 12  1  0  0  0  0
 11 21  1  0  0  0  0
 13 11  1  0  0  0  0
 14  2  2  0  0  0  0
 15 14  1  0  0  0  0
 16 17  1  0  0  0  0
 18 28  1  0  0  0  0
 18  5  1  0  0  0  0
 19 18  1  0  0  0  0
 20 18  1  0  0  0  0
 21  4  1  0  0  0  0
 21 23  1  0  0  0  0
 22 21  1  0  0  0  0
 24 28  2  0  0  0  0
 24 14  1  0  0  0  0
 25 24  1  0  0  0  0
 26 33  2  0  0  0  0
 26 27  1  0  0  0  0
 28 29  1  0  0  0  0
 29 16  1  0  0  0  0
 30 26  1  0  0  0  0
 31 30  1  0  0  0  0
 32 33  1  0  0  0  0
 33 34  1  0  0  0  0
M  END
