1,2,3
 OpenBabel05122313063D

 44 48  0  0  0  0  0  0  0  0999 V2000
   -0.6235   -0.1246    0.0001 N   0  0  0  0  0  2  0  0  0  0  0  0
   -2.5452   -1.8546   -0.0001 N   0  0  0  0  0  2  0  0  0  0  0  0
   -1.9214    2.1170    0.0001 N   0  0  0  0  0  2  0  0  0  0  0  0
    4.2920    0.4140   -0.0002 N   0  0  0  0  0  0  0  0  0  0  0  0
   -0.1722   -1.4078    0.0001 C   0  0  0  0  0  0  0  0  0  0  0  0
    1.2086   -1.6429    0.0001 C   0  0  0  0  0  0  0  0  0  0  0  0
    1.5778   -2.6758    0.0000 H   0  0  0  0  0  0  0  0  0  0  0  0
    2.1091   -0.5511    0.0002 C   0  0  0  0  0  0  0  0  0  0  0  0
    1.5806    0.7642    0.0002 C   0  0  0  0  0  0  0  0  0  0  0  0
    2.3030    1.5928    0.0002 H   0  0  0  0  0  0  0  0  0  0  0  0
    0.2003    0.9625    0.0001 C   0  0  0  0  0  0  0  0  0  0  0  0
   -1.2720   -2.3950   -0.0001 C   0  0  0  0  0  0  0  0  0  0  0  0
   -1.1005   -3.7855   -0.0001 C   0  0  0  0  0  0  0  0  0  0  0  0
   -0.0874   -4.2102   -0.0001 H   0  0  0  0  0  0  0  0  0  0  0  0
   -2.2243   -4.6235   -0.0002 C   0  0  0  0  0  0  0  0  0  0  0  0
   -2.0981   -5.7158   -0.0002 H   0  0  0  0  0  0  0  0  0  0  0  0
   -3.5045   -4.0523   -0.0002 C   0  0  0  0  0  0  0  0  0  0  0  0
   -4.4106   -4.6739   -0.0003 H   0  0  0  0  0  0  0  0  0  0  0  0
   -3.6290   -2.6583   -0.0002 C   0  0  0  0  0  3  0  0  0  0  0  0
   -4.5987   -2.1355   -0.0002 H   0  0  0  0  0  0  0  0  0  0  0  0
   -0.5441    2.2385    0.0002 C   0  0  0  0  0  0  0  0  0  0  0  0
    0.0511    3.5065    0.0003 C   0  0  0  0  0  0  0  0  0  0  0  0
    1.1463    3.5907    0.0003 H   0  0  0  0  0  0  0  0  0  0  0  0
   -0.7590    4.6506    0.0003 C   0  0  0  0  0  0  0  0  0  0  0  0
   -0.3015    5.6506    0.0003 H   0  0  0  0  0  0  0  0  0  0  0  0
   -2.1531    4.5032    0.0002 C   0  0  0  0  0  0  0  0  0  0  0  0
   -2.8225    5.3747    0.0002 H   0  0  0  0  0  0  0  0  0  0  0  0
   -2.7036    3.2164    0.0001 C   0  0  0  0  0  0  0  0  0  0  0  0
   -3.7876    3.0200    0.0000 H   0  0  0  0  0  0  0  0  0  0  0  0
    3.5868   -0.7177    0.0002 C   0  0  0  0  0  0  0  0  0  0  0  0
    4.2047   -2.0063    0.0006 C   0  0  0  0  0  0  0  0  0  0  0  0
    3.6069   -2.9277    0.0010 H   0  0  0  0  0  0  0  0  0  0  0  0
    5.5863   -2.0865    0.0006 C   0  0  0  0  0  0  0  0  0  0  0  0
    6.0913   -3.0647    0.0010 H   0  0  0  0  0  0  0  0  0  0  0  0
    6.3652   -0.8970    0.0002 C   0  0  0  0  0  0  0  0  0  0  0  0
    7.7875   -0.8895    0.0002 C   0  0  0  0  0  0  0  0  0  0  0  0
    8.3285   -1.8481    0.0005 H   0  0  0  0  0  0  0  0  0  0  0  0
    8.4784    0.3140   -0.0003 C   0  0  0  0  0  0  0  0  0  0  0  0
    9.5785    0.3157   -0.0003 H   0  0  0  0  0  0  0  0  0  0  0  0
    7.7762    1.5521   -0.0007 C   0  0  0  0  0  0  0  0  0  0  0  0
    8.3438    2.4946   -0.0011 H   0  0  0  0  0  0  0  0  0  0  0  0
    6.3908    1.5789   -0.0007 C   0  0  0  0  0  0  0  0  0  0  0  0
    5.8280    2.5232   -0.0010 H   0  0  0  0  0  0  0  0  0  0  0  0
    5.6489    0.3598   -0.0002 C   0  0  0  0  0  0  0  0  0  0  0  0
  1 11  1  0  0  0  0
  2 12  1  0  0  0  0
  3 28  1  0  0  0  0
  3 21  1  0  0  0  0
  4 30  1  0  0  0  0
  5  1  1  0  0  0  0
  5  6  2  0  0  0  0
  6  8  1  0  0  0  0
  7  6  1  0  0  0  0
  8 30  1  0  0  0  0
  9 10  1  0  0  0  0
  9  8  2  0  0  0  0
 11 21  2  0  0  0  0
 11  9  1  0  0  0  0
 12  5  1  0  0  0  0
 13 14  1  0  0  0  0
 13 12  2  0  0  0  0
 15 13  1  0  0  0  0
 16 15  1  0  0  0  0
 17 19  1  0  0  0  0
 17 15  2  0  0  0  0
 18 17  1  0  0  0  0
 19  2  1  0  0  0  0
 20 19  1  0  0  0  0
 21 22  1  0  0  0  0
 22 24  2  0  0  0  0
 22 23  1  0  0  0  0
 24 25  1  0  0  0  0
 26 27  1  0  0  0  0
 26 24  1  0  0  0  0
 28 26  2  0  0  0  0
 29 28  1  0  0  0  0
 30 31  2  0  0  0  0
 31 33  1  0  0  0  0
 31 32  1  0  0  0  0
 33 34  1  0  0  0  0
 35 33  2  0  0  0  0
 36 35  1  0  0  0  0
 36 37  1  0  0  0  0
 38 36  2  0  0  0  0
 39 38  1  0  0  0  0
 40 42  2  0  0  0  0
 40 38  1  0  0  0  0
 41 40  1  0  0  0  0
 42 44  1  0  0  0  0
 43 42  1  0  0  0  0
 44  4  2  0  0  0  0
 44 35  1  0  0  0  0
M  END
