2,3,4
 OpenBabel05122313063D

 30 31  0  0  0  0  0  0  0  0999 V2000
   -4.3050   -0.8393   -0.2811 N   0  0  0  0  0  0  0  0  0  0  0  0
   -2.2072   -0.2554   -0.0547 N   0  0  0  0  0  2  0  0  0  0  0  0
   -0.0985    1.7353   -0.2072 N   0  0  0  0  0  2  0  0  0  0  0  0
    1.9187   -0.0109   -0.0509 N   0  0  0  0  0  2  0  0  0  0  0  0
   -3.0256   -1.2687   -0.3654 C   0  0  0  0  0  3  0  0  0  0  0  0
   -4.3139    0.4903    0.0915 C   0  0  0  0  0  0  0  0  0  0  0  0
   -2.9880    0.8562    0.2362 C   0  0  0  0  0  0  0  0  0  0  0  0
   -2.3929    2.1740    0.6130 C   0  0  0  0  0  0  0  0  0  0  0  0
   -1.2658    2.5992   -0.3377 C   0  0  0  0  0  0  0  0  0  0  0  0
    1.0946    2.2383   -0.0972 C   0  0  0  0  0  0  0  0  0  0  0  0
    2.2222    1.3343   -0.0075 C   0  0  0  0  0  0  0  0  0  0  0  0
    3.5306    1.8259    0.0768 C   0  0  0  0  0  0  0  0  0  0  0  0
    4.5898    0.9110    0.1010 C   0  0  0  0  0  0  0  0  0  0  0  0
    4.2844   -0.4447    0.0111 C   0  0  0  0  0  0  0  0  0  0  0  0
    2.9439   -0.9057   -0.0719 C   0  0  0  0  0  0  0  0  0  0  0  0
    2.7021   -2.3724   -0.1898 C   0  0  0  0  0  0  0  0  0  0  0  0
   -2.7022   -2.2842   -0.6154 H   0  0  0  0  0  0  0  0  0  0  0  0
   -5.1281   -1.4163   -0.4665 H   0  0  0  0  0  0  0  0  0  0  0  0
   -5.2375    1.0594    0.2323 H   0  0  0  0  0  0  0  0  0  0  0  0
   -1.9996    2.1431    1.6525 H   0  0  0  0  0  0  0  0  0  0  0  0
   -3.1838    2.9480    0.5936 H   0  0  0  0  0  0  0  0  0  0  0  0
   -1.6199    2.5353   -1.3894 H   0  0  0  0  0  0  0  0  0  0  0  0
   -0.9705    3.6511   -0.1404 H   0  0  0  0  0  0  0  0  0  0  0  0
    1.2577    3.3318   -0.0948 H   0  0  0  0  0  0  0  0  0  0  0  0
    3.7016    2.9109    0.1143 H   0  0  0  0  0  0  0  0  0  0  0  0
    5.6327    1.2520    0.1725 H   0  0  0  0  0  0  0  0  0  0  0  0
    5.0857   -1.1966   -0.0003 H   0  0  0  0  0  0  0  0  0  0  0  0
    1.9882   -2.6003   -1.0034 H   0  0  0  0  0  0  0  0  0  0  0  0
    2.2305   -2.7693    0.7313 H   0  0  0  0  0  0  0  0  0  0  0  0
    3.6548   -2.9024   -0.3669 H   0  0  0  0  0  0  0  0  0  0  0  0
  1  6  1  0  0  0  0
  2  7  1  0  0  0  0
  3 10  1  0  0  0  0
  4 11  1  0  0  0  0
  5  1  1  0  0  0  0
  5  2  1  0  0  0  0
  6 19  1  0  0  0  0
  6  7  2  0  0  0  0
  7  8  1  0  0  0  0
  8 20  1  0  0  0  0
  9  3  1  0  0  0  0
  9 23  1  0  0  0  0
  9  8  1  0  0  0  0
 10 24  1  0  0  0  0
 10 11  2  0  0  0  0
 11 12  1  0  0  0  0
 12 13  2  0  0  0  0
 12 25  1  0  0  0  0
 13 26  1  0  0  0  0
 14 13  1  0  0  0  0
 15  4  1  0  0  0  0
 15 14  2  0  0  0  0
 16 15  1  0  0  0  0
 16 29  1  0  0  0  0
 17  5  1  0  0  0  0
 18  1  1  0  0  0  0
 21  8  1  0  0  0  0
 22  9  1  0  0  0  0
 27 14  1  0  0  0  0
 28 16  1  0  0  0  0
 30 16  1  0  0  0  0
M  END
