1,2,3
 OpenBabel05122313063D

 35 35  0  0  0  0  0  0  0  0999 V2000
   -0.2608    1.4726    0.0155 N   0  0  0  0  0  2  0  0  0  0  0  0
    2.0403    0.4226    0.0515 N   0  0  0  0  0  2  0  0  0  0  0  0
   -1.8522   -0.4873   -0.1063 N   0  0  0  0  0  2  0  0  0  0  0  0
    0.7538    2.4023    0.0722 C   0  0  0  0  0  0  0  0  0  0  0  0
    0.4477    3.7747    0.0912 C   0  0  0  0  0  0  0  0  0  0  0  0
   -0.8987    4.1772    0.0473 C   0  0  0  0  0  0  0  0  0  0  0  0
   -1.9235    3.2158   -0.0191 C   0  0  0  0  0  0  0  0  0  0  0  0
   -1.5856    1.8513   -0.0348 C   0  0  0  0  0  0  0  0  0  0  0  0
    2.0377    1.7439    0.1020 C   0  0  0  0  0  3  0  0  0  0  0  0
    3.3429   -0.2656    0.0985 C   0  0  0  0  0  0  0  0  0  0  0  0
    3.5839   -1.0114   -1.2186 C   0  0  0  0  0  0  0  0  0  0  0  0
    3.3923   -1.1964    1.3146 C   0  0  0  0  0  0  0  0  0  0  0  0
   -2.4473    0.6934   -0.0953 C   0  0  0  0  0  0  0  0  0  0  0  0
   -2.6361   -1.7375   -0.0816 C   0  0  0  0  0  0  0  0  0  0  0  0
   -2.6053   -2.3007    1.3466 C   0  0  0  0  0  0  0  0  0  0  0  0
   -4.0560   -1.6137   -0.6327 C   0  0  0  0  0  0  0  0  0  0  0  0
    1.2606    4.5135    0.1371 H   0  0  0  0  0  0  0  0  0  0  0  0
   -1.1515    5.2470    0.0614 H   0  0  0  0  0  0  0  0  0  0  0  0
   -2.9806    3.5149   -0.0594 H   0  0  0  0  0  0  0  0  0  0  0  0
    2.9820    2.3133    0.1700 H   0  0  0  0  0  0  0  0  0  0  0  0
    4.1284    0.5185    0.2151 H   0  0  0  0  0  0  0  0  0  0  0  0
    4.5904   -1.4758   -1.2039 H   0  0  0  0  0  0  0  0  0  0  0  0
    3.5304   -0.3191   -2.0822 H   0  0  0  0  0  0  0  0  0  0  0  0
    2.8219   -1.8051   -1.3476 H   0  0  0  0  0  0  0  0  0  0  0  0
    4.3925   -1.6698    1.3806 H   0  0  0  0  0  0  0  0  0  0  0  0
    2.6245   -1.9887    1.2136 H   0  0  0  0  0  0  0  0  0  0  0  0
    3.2073   -0.6357    2.2522 H   0  0  0  0  0  0  0  0  0  0  0  0
   -3.5439    0.7979   -0.1207 H   0  0  0  0  0  0  0  0  0  0  0  0
   -2.0498   -2.4364   -0.7148 H   0  0  0  0  0  0  0  0  0  0  0  0
   -3.1283   -1.6202    2.0502 H   0  0  0  0  0  0  0  0  0  0  0  0
   -1.5577   -2.4314    1.6775 H   0  0  0  0  0  0  0  0  0  0  0  0
   -3.1072   -3.2885    1.3715 H   0  0  0  0  0  0  0  0  0  0  0  0
   -4.5013   -2.6244   -0.7174 H   0  0  0  0  0  0  0  0  0  0  0  0
   -4.0656   -1.1541   -1.6416 H   0  0  0  0  0  0  0  0  0  0  0  0
   -4.7208   -1.0228    0.0316 H   0  0  0  0  0  0  0  0  0  0  0  0
  1  4  1  0  0  0  0
  2 10  1  0  0  0  0
  2  9  1  0  0  0  0
  3 13  1  0  0  0  0
  3 14  1  0  0  0  0
  4  5  2  0  0  0  0
  4  9  1  0  0  0  0
  5 17  1  0  0  0  0
  6 18  1  0  0  0  0
  6  5  1  0  0  0  0
  7  6  2  0  0  0  0
  8  7  1  0  0  0  0
  8  1  1  0  0  0  0
  9 20  1  0  0  0  0
 10 21  1  0  0  0  0
 10 12  1  0  0  0  0
 11 22  1  0  0  0  0
 11 10  1  0  0  0  0
 12 25  1  0  0  0  0
 12 27  1  0  0  0  0
 13  8  2  0  0  0  0
 14 15  1  0  0  0  0
 15 32  1  0  0  0  0
 15 31  1  0  0  0  0
 15 30  1  0  0  0  0
 16 14  1  0  0  0  0
 16 35  1  0  0  0  0
 19  7  1  0  0  0  0
 23 11  1  0  0  0  0
 24 11  1  0  0  0  0
 26 12  1  0  0  0  0
 28 13  1  0  0  0  0
 29 14  1  0  0  0  0
 33 16  1  0  0  0  0
 34 16  1  0  0  0  0
M  END
