2,3,5
 OpenBabel05122313063D

 46 46  0  0  0  0  0  0  0  0999 V2000
   -1.0675   -0.0827   -1.9600 O   0  0  0  0  0  0  0  0  0  0  0  0
    1.8363    1.9589   -0.4195 N   0  0  0  0  0  0  0  0  0  0  0  0
    1.4183    0.4970    2.1168 N   0  0  0  0  0  0  0  0  0  0  0  0
    2.1568    0.0998    2.7088 H   0  0  0  0  0  0  0  0  0  0  0  0
   -0.5139    0.0357    0.2642 N   0  0  0  0  0  2  0  0  0  0  0  0
    1.1564    2.5819    0.7415 C   0  0  0  0  0  0  0  0  0  0  0  0
    0.0718    2.4334    0.5936 H   0  0  0  0  0  0  0  0  0  0  0  0
    1.3473    3.6814    0.7606 H   0  0  0  0  0  0  0  0  0  0  0  0
    1.5972    1.9723    2.0717 C   0  0  0  0  0  0  0  0  0  0  0  0
    2.6720    2.1797    2.2453 H   0  0  0  0  0  0  0  0  0  0  0  0
    1.0378    2.4614    2.9000 H   0  0  0  0  0  0  0  0  0  0  0  0
    0.1063    0.0196    2.6316 C   0  0  0  0  0  0  0  0  0  0  0  0
   -0.1335    0.4973    3.6088 H   0  0  0  0  0  0  0  0  0  0  0  0
    0.2226   -1.0694    2.7995 H   0  0  0  0  0  0  0  0  0  0  0  0
   -1.0071    0.2754    1.6181 C   0  0  0  0  0  0  0  0  0  0  0  0
   -1.8727   -0.3702    1.8852 H   0  0  0  0  0  0  0  0  0  0  0  0
   -1.3837    1.3217    1.7376 H   0  0  0  0  0  0  0  0  0  0  0  0
    1.1353    2.3185   -1.6742 C   0  0  0  0  0  0  0  0  0  0  0  0
    1.0599    3.4255   -1.7798 H   0  0  0  0  0  0  0  0  0  0  0  0
    0.1349    1.8496   -1.6992 H   0  0  0  0  0  0  0  0  0  0  0  0
    1.7072    1.9158   -2.5301 H   0  0  0  0  0  0  0  0  0  0  0  0
    3.2453    2.3916   -0.5071 C   0  0  0  0  0  0  0  0  0  0  0  0
    3.3109    3.4924   -0.6708 H   0  0  0  0  0  0  0  0  0  0  0  0
    3.7349    1.8701   -1.3492 H   0  0  0  0  0  0  0  0  0  0  0  0
    3.7977    2.1299    0.4135 H   0  0  0  0  0  0  0  0  0  0  0  0
   -1.4066   -0.0130   -0.7626 C   0  0  0  0  0  0  0  0  0  0  0  0
   -2.8832    0.0021   -0.4211 C   0  0  0  0  0  0  0  0  0  0  0  0
   -3.6127    1.2108   -0.4469 C   0  0  0  0  0  0  0  0  0  0  0  0
   -4.9891    1.1798   -0.1556 C   0  0  0  0  0  0  0  0  0  0  0  0
   -5.5597    2.1232   -0.1729 H   0  0  0  0  0  0  0  0  0  0  0  0
   -5.6547   -0.0210    0.1498 C   0  0  0  0  0  0  0  0  0  0  0  0
   -4.9040   -1.2128    0.1545 C   0  0  0  0  0  0  0  0  0  0  0  0
   -5.4079   -2.1668    0.3826 H   0  0  0  0  0  0  0  0  0  0  0  0
   -3.5275   -1.2248   -0.1295 C   0  0  0  0  0  0  0  0  0  0  0  0
   -2.9193    2.5046   -0.7979 C   0  0  0  0  0  0  0  0  0  0  0  0
   -2.1319    2.7639   -0.0569 H   0  0  0  0  0  0  0  0  0  0  0  0
   -3.6300    3.3521   -0.8398 H   0  0  0  0  0  0  0  0  0  0  0  0
   -2.4142    2.4184   -1.7815 H   0  0  0  0  0  0  0  0  0  0  0  0
   -7.1371   -0.0432    0.4303 C   0  0  0  0  0  0  0  0  0  0  0  0
   -7.7070   -0.4033   -0.4533 H   0  0  0  0  0  0  0  0  0  0  0  0
   -7.5217    0.9648    0.6813 H   0  0  0  0  0  0  0  0  0  0  0  0
   -7.3838   -0.7249    1.2696 H   0  0  0  0  0  0  0  0  0  0  0  0
   -2.7409   -2.5124   -0.1501 C   0  0  0  0  0  0  0  0  0  0  0  0
   -2.3063   -2.6831   -1.1567 H   0  0  0  0  0  0  0  0  0  0  0  0
   -3.3721   -3.3827    0.1118 H   0  0  0  0  0  0  0  0  0  0  0  0
   -1.8787   -2.4845    0.5483 H   0  0  0  0  0  0  0  0  0  0  0  0
  1 26  2  0  0  0  0
  2  6  1  0  0  0  0
  3 12  1  0  0  0  0
  3  4  1  0  0  0  0
  5 15  1  0  0  0  0
  6  8  1  0  0  0  0
  6  9  1  0  0  0  0
  7  6  1  0  0  0  0
  9  3  1  0  0  0  0
  9 10  1  0  0  0  0
  9 11  1  0  0  0  0
 12 14  1  0  0  0  0
 12 13  1  0  0  0  0
 15 17  1  0  0  0  0
 15 16  1  0  0  0  0
 15 12  1  0  0  0  0
 18  2  1  0  0  0  0
 19 18  1  0  0  0  0
 20 18  1  0  0  0  0
 21 18  1  0  0  0  0
 22  2  1  0  0  0  0
 22 25  1  0  0  0  0
 23 22  1  0  0  0  0
 24 22  1  0  0  0  0
 26 27  1  0  0  0  0
 26  5  1  0  0  0  0
 27 34  1  0  0  0  0
 28 27  2  0  0  0  0
 28 29  1  0  0  0  0
 29 31  2  0  0  0  0
 30 29  1  0  0  0  0
 31 32  1  0  0  0  0
 31 39  1  0  0  0  0
 32 33  1  0  0  0  0
 34 32  2  0  0  0  0
 35 28  1  0  0  0  0
 35 36  1  0  0  0  0
 37 35  1  0  0  0  0
 38 35  1  0  0  0  0
 39 41  1  0  0  0  0
 39 42  1  0  0  0  0
 40 39  1  0  0  0  0
 43 34  1  0  0  0  0
 43 45  1  0  0  0  0
 43 46  1  0  0  0  0
 44 43  1  0  0  0  0
M  END
