5,6,7
 OpenBabel05122313063D

 43 45  0  0  1  0  0  0  0  0999 V2000
    3.1940    1.9422   -2.2138 O   0  0  0  0  0  0  0  0  0  0  0  0
   -3.8331    1.5530   -1.4924 O   0  0  0  0  0  0  0  0  0  0  0  0
    2.7579   -1.8468   -0.4903 N   0  0  0  0  0  0  0  0  0  0  0  0
    1.7554   -2.0013   -0.1847 H   0  0  0  0  0  0  0  0  0  0  0  0
    1.9417    0.1389   -1.3387 N   0  0  0  0  0  2  0  0  0  0  0  0
   -0.2864    1.4287   -1.7714 N   0  0  0  0  0  2  0  0  0  0  0  0
   -2.2221   -0.0928   -0.9957 N   0  0  0  0  0  2  0  0  0  0  0  0
   -2.6342   -2.3493   -1.1214 N   0  0  0  0  0  0  0  0  0  0  0  0
   -1.6742   -2.3412   -1.5644 H   0  0  0  0  0  0  0  0  0  0  0  0
    3.1897   -3.9396    0.6721 C   0  0  0  0  0  0  0  0  0  0  0  0
    2.2804   -4.3889    0.2263 H   0  0  0  0  0  0  0  0  0  0  0  0
    2.8995   -3.5825    1.6823 H   0  0  0  0  0  0  0  0  0  0  0  0
    3.9763   -4.7086    0.7737 H   0  0  0  0  0  0  0  0  0  0  0  0
    3.6768   -2.7875   -0.1520 C   0  0  2  0  0  3  0  0  0  0  0  0
    4.9942   -2.6089   -0.5631 C   0  0  0  0  0  0  0  0  0  0  0  0
    5.7532   -3.3581   -0.3024 H   0  0  0  0  0  0  0  0  0  0  0  0
    5.3149   -1.4552   -1.3137 C   0  0  0  0  0  0  0  0  0  0  0  0
    6.3490   -1.3033   -1.6598 H   0  0  0  0  0  0  0  0  0  0  0  0
    4.3559   -0.4984   -1.6205 C   0  0  0  0  0  0  0  0  0  0  0  0
    4.5892    0.4155   -2.1741 H   0  0  0  0  0  0  0  0  0  0  0  0
    3.0106   -0.6878   -1.1773 C   0  0  0  0  0  0  0  0  0  0  0  0
    2.1200    1.3987   -1.9263 C   0  0  0  0  0  0  0  0  0  0  0  0
    0.8258    2.0998   -2.1732 C   0  0  2  0  0  3  0  0  0  0  0  0
    0.7318    3.3667   -2.7582 C   0  0  0  0  0  0  0  0  0  0  0  0
    1.6685    3.8656   -3.0444 H   0  0  0  0  0  0  0  0  0  0  0  0
   -0.5340    3.9449   -2.9495 C   0  0  0  0  0  0  0  0  0  0  0  0
   -0.6305    4.9392   -3.4083 H   0  0  0  0  0  0  0  0  0  0  0  0
   -1.6729    3.2360   -2.5339 C   0  0  0  0  0  0  0  0  0  0  0  0
   -2.6944    3.6295   -2.6363 H   0  0  0  0  0  0  0  0  0  0  0  0
   -1.5221    1.9794   -1.9407 C   0  0  0  0  0  0  0  0  0  0  0  0
   -2.6646    1.1526   -1.4448 C   0  0  0  0  0  0  0  0  0  0  0  0
   -3.1225   -1.1011   -0.8390 C   0  0  1  0  0  3  0  0  0  0  0  0
   -4.4748   -1.0190   -0.4088 C   0  0  0  0  0  0  0  0  0  0  0  0
   -4.8967   -0.0276   -0.2166 H   0  0  0  0  0  0  0  0  0  0  0  0
   -5.1955   -2.1977   -0.2353 C   0  0  0  0  0  0  0  0  0  0  0  0
   -6.2359   -2.1432    0.1206 H   0  0  0  0  0  0  0  0  0  0  0  0
   -4.6138   -3.4608   -0.4868 C   0  0  0  0  0  0  0  0  0  0  0  0
   -5.1745   -4.3918   -0.3305 H   0  0  0  0  0  0  0  0  0  0  0  0
   -3.2991   -3.5169   -0.9503 C   0  0  0  0  0  0  0  0  0  0  0  0
   -2.5340   -4.7642   -1.2611 C   0  0  0  0  0  0  0  0  0  0  0  0
   -1.6490   -4.8246   -0.5930 H   0  0  0  0  0  0  0  0  0  0  0  0
   -2.1435   -4.7341   -2.2990 H   0  0  0  0  0  0  0  0  0  0  0  0
   -3.1618   -5.6638   -1.1336 H   0  0  0  0  0  0  0  0  0  0  0  0
  1 22  2  0  0  0  0
  2 31  2  0  0  0  0
  3  4  1  0  0  0  0
  3 14  1  0  0  0  0
  5 21  1  0  0  0  0
  8 39  1  0  0  0  0
  8 32  1  0  0  0  0
  9  8  1  0  0  0  0
 10 13  1  0  0  0  0
 10 12  1  0  0  0  0
 11 10  1  0  0  0  0
 14 10  1  1  0  0  0
 15 16  1  0  0  0  0
 15 14  1  0  0  0  0
 17 15  2  0  0  0  0
 18 17  1  0  0  0  0
 19 17  1  0  0  0  0
 19 21  2  0  0  0  0
 20 19  1  0  0  0  0
 21  3  1  0  0  0  0
 22  5  1  0  0  0  0
 23 22  1  1  0  0  0
 23  6  1  0  0  0  0
 24 23  1  0  0  0  0
 25 24  1  0  0  0  0
 26 24  2  0  0  0  0
 26 28  1  0  0  0  0
 27 26  1  0  0  0  0
 28 30  2  0  0  0  0
 29 28  1  0  0  0  0
 30  6  1  0  0  0  0
 30 31  1  0  0  0  0
 31  7  1  0  0  0  0
 32  7  1  1  0  0  0
 32 33  1  0  0  0  0
 33 35  2  0  0  0  0
 33 34  1  0  0  0  0
 35 36  1  0  0  0  0
 37 38  1  0  0  0  0
 37 35  1  0  0  0  0
 39 37  2  0  0  0  0
 40 43  1  0  0  0  0
 40 39  1  0  0  0  0
 40 41  1  0  0  0  0
 42 40  1  0  0  0  0
M  END
