1,11,23
 OpenBabel05122313063D

 33 35  0  0  1  0  0  0  0  0999 V2000
   -0.0000    1.3336   -0.1084 N   0  0  0  0  0  2  0  0  0  0  0  0
    1.1940    1.9685   -0.0245 C   0  0  0  0  0  0  0  0  0  0  0  0
    1.2190    3.3699    0.0816 C   0  0  0  0  0  0  0  0  0  0  0  0
    2.1702    3.9136    0.1503 H   0  0  0  0  0  0  0  0  0  0  0  0
   -0.0000    4.0642    0.1209 C   0  0  0  0  0  0  0  0  0  0  0  0
   -0.0000    5.1603    0.2056 H   0  0  0  0  0  0  0  0  0  0  0  0
   -1.2190    3.3699    0.0817 C   0  0  0  0  0  0  0  0  0  0  0  0
   -2.1702    3.9136    0.1504 H   0  0  0  0  0  0  0  0  0  0  0  0
   -1.1940    1.9685   -0.0245 C   0  0  0  0  0  0  0  0  0  0  0  0
    2.3495    1.0512   -0.0411 C   0  0  0  0  0  0  0  0  0  0  0  0
    2.0462   -0.3061   -0.0365 N   0  0  0  0  0  2  0  0  0  0  0  0
    3.0671   -1.2039   -0.1935 C   0  0  0  0  0  0  0  0  0  0  0  0
    4.4255   -0.7645   -0.2132 C   0  0  0  0  0  0  0  0  0  0  0  0
    5.2218   -1.5177   -0.2952 H   0  0  0  0  0  0  0  0  0  0  0  0
    4.7179    0.5855   -0.1471 C   0  0  0  0  0  0  0  0  0  0  0  0
    5.7620    0.9290   -0.1651 H   0  0  0  0  0  0  0  0  0  0  0  0
    3.6619    1.5159   -0.0837 C   0  0  0  0  0  0  0  0  0  0  0  0
    3.8642    2.5938   -0.0830 H   0  0  0  0  0  0  0  0  0  0  0  0
    2.7735   -2.5093   -0.3474 N   0  0  0  0  0  0  0  0  0  0  0  0
    3.5193   -3.1990   -0.4027 H   0  0  0  0  0  0  0  0  0  0  0  0
    1.8017   -2.8189   -0.2942 H   0  0  0  0  0  0  0  0  0  0  0  0
   -2.3495    1.0512   -0.0410 C   0  0  2  0  0  3  0  0  0  0  0  0
   -2.0462   -0.3061   -0.0365 N   0  0  0  0  0  2  0  0  0  0  0  0
   -3.0671   -1.2039   -0.1937 C   0  0  0  0  0  0  0  0  0  0  0  0
   -4.4255   -0.7645   -0.2132 C   0  0  0  0  0  0  0  0  0  0  0  0
   -5.2218   -1.5177   -0.2953 H   0  0  0  0  0  0  0  0  0  0  0  0
   -4.7179    0.5855   -0.1469 C   0  0  0  0  0  0  0  0  0  0  0  0
   -5.7621    0.9289   -0.1648 H   0  0  0  0  0  0  0  0  0  0  0  0
   -3.6619    1.5159   -0.0835 C   0  0  0  0  0  0  0  0  0  0  0  0
   -3.8642    2.5938   -0.0827 H   0  0  0  0  0  0  0  0  0  0  0  0
   -2.7735   -2.5092   -0.3479 N   0  0  0  0  0  0  0  0  0  0  0  0
   -1.8017   -2.8189   -0.2948 H   0  0  0  0  0  0  0  0  0  0  0  0
   -3.5193   -3.1989   -0.4033 H   0  0  0  0  0  0  0  0  0  0  0  0
  1  2  1  0  0  0  0
  1  9  1  0  0  0  0
  2  3  1  0  0  0  0
  3  5  2  0  0  0  0
  3  4  1  0  0  0  0
  5  6  1  0  0  0  0
  7  5  1  0  0  0  0
  7  8  1  0  0  0  0
  9  7  2  0  0  0  0
 10 11  1  0  0  0  0
 10  2  2  0  0  0  0
 12 11  1  0  0  0  0
 13 12  2  0  0  0  0
 13 15  1  0  0  0  0
 14 13  1  0  0  0  0
 15 17  2  0  0  0  0
 16 15  1  0  0  0  0
 17 18  1  0  0  0  0
 17 10  1  0  0  0  0
 19 21  1  0  0  0  0
 19 12  1  0  0  0  0
 20 19  1  0  0  0  0
 22 23  1  0  0  0  0
 22  9  1  6  0  0  0
 24 23  1  0  0  0  0
 25 24  2  0  0  0  0
 25 27  1  0  0  0  0
 26 25  1  0  0  0  0
 27 29  2  0  0  0  0
 28 27  1  0  0  0  0
 29 30  1  0  0  0  0
 29 22  1  0  0  0  0
 31 32  1  0  0  0  0
 31 24  1  0  0  0  0
 33 31  1  0  0  0  0
M  END
