1,3,9
 OpenBabel05122313063D

 46 46  0  0  0  0  0  0  0  0999 V2000
   -0.3647    1.0153    1.3494 N   0  0  0  0  0  0  0  0  0  0  0  0
    0.6603    0.9627    1.1297 H   0  0  0  0  0  0  0  0  0  0  0  0
    0.4039   -1.4937    0.1840 N   0  0  0  0  0  0  0  0  0  0  0  0
    1.2421   -0.8733    0.2643 H   0  0  0  0  0  0  0  0  0  0  0  0
    3.2019   -0.8361    0.0415 N   0  0  0  0  0  0  0  0  0  0  0  0
    3.5223   -1.0432    0.9968 H   0  0  0  0  0  0  0  0  0  0  0  0
    2.0853    1.8749    0.2379 N   0  0  0  0  0  0  0  0  0  0  0  0
    1.7645    1.7243   -0.7323 H   0  0  0  0  0  0  0  0  0  0  0  0
   -2.1874   -1.1417    1.1912 N   0  0  0  0  0  0  0  0  0  0  0  0
   -3.0022   -0.6476    1.5779 H   0  0  0  0  0  0  0  0  0  0  0  0
   -2.5129   -2.0716    0.8959 H   0  0  0  0  0  0  0  0  0  0  0  0
   -0.7069    0.2128    2.5314 C   0  0  0  0  0  0  0  0  0  0  0  0
   -1.5871    0.6812    3.0249 H   0  0  0  0  0  0  0  0  0  0  0  0
    0.1093    0.2107    3.2915 H   0  0  0  0  0  0  0  0  0  0  0  0
   -1.0969   -1.2396    2.1907 C   0  0  0  0  0  0  0  0  0  0  0  0
    0.0544   -2.0201    1.5150 C   0  0  0  0  0  0  0  0  0  0  0  0
    0.9243   -2.0438    2.2107 H   0  0  0  0  0  0  0  0  0  0  0  0
   -0.2804   -3.0745    1.3996 H   0  0  0  0  0  0  0  0  0  0  0  0
    0.8422   -2.5348   -0.7761 C   0  0  0  0  0  0  0  0  0  0  0  0
    0.7956   -2.0803   -1.7862 H   0  0  0  0  0  0  0  0  0  0  0  0
    0.0908   -3.3512   -0.7695 H   0  0  0  0  0  0  0  0  0  0  0  0
    2.2575   -3.0712   -0.5121 C   0  0  0  0  0  0  0  0  0  0  0  0
    2.3483   -3.4452    0.5332 H   0  0  0  0  0  0  0  0  0  0  0  0
    2.4361   -3.9530   -1.1628 H   0  0  0  0  0  0  0  0  0  0  0  0
    3.3425   -2.0280   -0.8025 C   0  0  0  0  0  0  0  0  0  0  0  0
    4.3601   -2.4897   -0.7365 H   0  0  0  0  0  0  0  0  0  0  0  0
    3.2260   -1.6916   -1.8552 H   0  0  0  0  0  0  0  0  0  0  0  0
    3.8851    0.3533   -0.4612 C   0  0  0  0  0  0  0  0  0  0  0  0
    4.9994    0.2475   -0.4739 H   0  0  0  0  0  0  0  0  0  0  0  0
    3.5712    0.4878   -1.5195 H   0  0  0  0  0  0  0  0  0  0  0  0
    3.5146    1.6194    0.3100 C   0  0  0  0  0  0  0  0  0  0  0  0
    4.1239    2.4607   -0.1113 H   0  0  0  0  0  0  0  0  0  0  0  0
    3.8228    1.5304    1.3786 H   0  0  0  0  0  0  0  0  0  0  0  0
    1.6596    3.2087    0.6634 C   0  0  0  0  0  0  0  0  0  0  0  0
    2.1458    4.0182    0.0606 H   0  0  0  0  0  0  0  0  0  0  0  0
    1.9961    3.3658    1.7147 H   0  0  0  0  0  0  0  0  0  0  0  0
    0.1349    3.3423    0.5788 C   0  0  0  0  0  0  0  0  0  0  0  0
   -0.1473    4.3974    0.7719 H   0  0  0  0  0  0  0  0  0  0  0  0
   -0.2076    3.1016   -0.4501 H   0  0  0  0  0  0  0  0  0  0  0  0
   -0.6164    2.4594    1.5731 C   0  0  0  0  0  0  0  0  0  0  0  0
   -0.3019    2.7400    2.6096 H   0  0  0  0  0  0  0  0  0  0  0  0
   -1.7086    2.6414    1.4951 H   0  0  0  0  0  0  0  0  0  0  0  0
   -1.5289   -1.9709    3.4688 C   0  0  0  0  0  0  0  0  0  0  0  0
   -1.8689   -3.0007    3.2369 H   0  0  0  0  0  0  0  0  0  0  0  0
   -2.3646   -1.4369    3.9653 H   0  0  0  0  0  0  0  0  0  0  0  0
   -0.6959   -2.0453    4.1969 H   0  0  0  0  0  0  0  0  0  0  0  0
  1 40  1  0  0  0  0
  1 12  1  0  0  0  0
  2  1  1  0  0  0  0
  3  4  1  0  0  0  0
  3 16  1  0  0  0  0
  5  6  1  0  0  0  0
  7 31  1  0  0  0  0
  7 34  1  0  0  0  0
  8  7  1  0  0  0  0
  9 10  1  0  0  0  0
  9 15  1  0  0  0  0
 11  9  1  0  0  0  0
 12 13  1  0  0  0  0
 12 14  1  0  0  0  0
 15 12  1  0  0  0  0
 15 43  1  0  0  0  0
 16 15  1  0  0  0  0
 16 17  1  0  0  0  0
 18 16  1  0  0  0  0
 19 21  1  0  0  0  0
 19 22  1  0  0  0  0
 19  3  1  0  0  0  0
 20 19  1  0  0  0  0
 22 23  1  0  0  0  0
 24 22  1  0  0  0  0
 25 26  1  0  0  0  0
 25 22  1  0  0  0  0
 25  5  1  0  0  0  0
 27 25  1  0  0  0  0
 28  5  1  0  0  0  0
 28 31  1  0  0  0  0
 29 28  1  0  0  0  0
 30 28  1  0  0  0  0
 31 33  1  0  0  0  0
 32 31  1  0  0  0  0
 34 36  1  0  0  0  0
 35 34  1  0  0  0  0
 37 34  1  0  0  0  0
 37 38  1  0  0  0  0
 37 40  1  0  0  0  0
 39 37  1  0  0  0  0
 40 41  1  0  0  0  0
 42 40  1  0  0  0  0
 43 45  1  0  0  0  0
 43 46  1  0  0  0  0
 44 43  1  0  0  0  0
M  END
