1,2,3
 OpenBabel05122313063D

 49 52  0  0  0  0  0  0  0  0999 V2000
   -2.1246   -0.1329    0.3110 N   0  0  0  0  0  2  0  0  0  0  0  0
    2.1245   -0.1335    0.3112 N   0  0  0  0  0  2  0  0  0  0  0  0
    0.0002    1.6750    0.6388 N   0  0  0  0  0  0  0  0  0  0  0  0
    0.0006    4.5664    0.6279 O   0  0  0  0  0  0  0  0  0  0  0  0
    0.0014    4.5614   -1.6384 O   0  0  0  0  0  0  0  0  0  0  0  0
   -3.1577   -0.9499   -0.0876 C   0  0  0  0  0  0  0  0  0  0  0  0
   -2.8836   -2.2349   -0.6339 C   0  0  0  0  0  0  0  0  0  0  0  0
   -1.8384   -2.5473   -0.7612 H   0  0  0  0  0  0  0  0  0  0  0  0
   -3.9304   -3.0608   -1.0184 C   0  0  0  0  0  0  0  0  0  0  0  0
   -3.7045   -4.0523   -1.4385 H   0  0  0  0  0  0  0  0  0  0  0  0
   -5.2828   -2.6492   -0.8814 C   0  0  0  0  0  0  0  0  0  0  0  0
   -6.0941   -3.3228   -1.1954 H   0  0  0  0  0  0  0  0  0  0  0  0
   -5.5780   -1.4029   -0.3520 C   0  0  0  0  0  3  0  0  0  0  0  0
   -6.6208   -1.0692   -0.2363 H   0  0  0  0  0  0  0  0  0  0  0  0
   -4.5308   -0.5305    0.0600 C   0  0  0  0  0  0  0  0  0  0  0  0
   -4.7768    0.7507    0.6225 C   0  0  0  0  0  0  0  0  0  0  0  0
   -5.8150    1.1009    0.7345 H   0  0  0  0  0  0  0  0  0  0  0  0
   -3.7138    1.5382    1.0240 C   0  0  0  0  0  0  0  0  0  0  0  0
   -3.8701    2.5312    1.4698 H   0  0  0  0  0  0  0  0  0  0  0  0
   -2.3884    1.0511    0.8630 C   0  0  0  0  0  0  0  0  0  0  0  0
   -1.2297    1.8477    1.4204 C   0  0  0  0  0  0  0  0  0  0  0  0
   -1.5083    2.9164    1.5331 H   0  0  0  0  0  0  0  0  0  0  0  0
   -1.0370    1.4389    2.4344 H   0  0  0  0  0  0  0  0  0  0  0  0
    1.2300    1.8473    1.4206 C   0  0  0  0  0  0  0  0  0  0  0  0
    1.0371    1.4385    2.4345 H   0  0  0  0  0  0  0  0  0  0  0  0
    1.5089    2.9160    1.5333 H   0  0  0  0  0  0  0  0  0  0  0  0
    2.3885    1.0504    0.8632 C   0  0  0  0  0  0  0  0  0  0  0  0
    3.7140    1.5372    1.0243 C   0  0  0  0  0  0  0  0  0  0  0  0
    3.8705    2.5301    1.4701 H   0  0  0  0  0  0  0  0  0  0  0  0
    4.7769    0.7495    0.6228 C   0  0  0  0  0  0  0  0  0  0  0  0
    5.8151    1.0994    0.7349 H   0  0  0  0  0  0  0  0  0  0  0  0
    4.5306   -0.5317    0.0603 C   0  0  0  0  0  0  0  0  0  0  0  0
    5.5776   -1.4043   -0.3517 C   0  0  0  0  0  3  0  0  0  0  0  0
    6.6204   -1.0709   -0.2360 H   0  0  0  0  0  0  0  0  0  0  0  0
    5.2820   -2.6505   -0.8812 C   0  0  0  0  0  0  0  0  0  0  0  0
    6.0932   -3.3243   -1.1952 H   0  0  0  0  0  0  0  0  0  0  0  0
    3.9296   -3.0618   -1.0182 C   0  0  0  0  0  0  0  0  0  0  0  0
    3.7035   -4.0533   -1.4382 H   0  0  0  0  0  0  0  0  0  0  0  0
    2.8830   -2.2357   -0.6337 C   0  0  0  0  0  0  0  0  0  0  0  0
    1.8377   -2.5479   -0.7610 H   0  0  0  0  0  0  0  0  0  0  0  0
    3.1574   -0.9508   -0.0874 C   0  0  0  0  0  0  0  0  0  0  0  0
    0.0004    2.4460   -0.6053 C   0  0  0  0  0  0  0  0  0  0  0  0
   -0.8693    2.1517   -1.2259 H   0  0  0  0  0  0  0  0  0  0  0  0
    0.8698    2.1512   -1.2260 H   0  0  0  0  0  0  0  0  0  0  0  0
    0.0008    3.9599   -0.4308 C   0  0  0  0  0  0  0  0  0  0  0  0
    0.0017    5.9962   -1.6202 C   0  0  0  0  0  0  0  0  0  0  0  0
   -0.8966    6.3829   -1.0985 H   0  0  0  0  0  0  0  0  0  0  0  0
    0.0022    6.3148   -2.6772 H   0  0  0  0  0  0  0  0  0  0  0  0
    0.8999    6.3825   -1.0979 H   0  0  0  0  0  0  0  0  0  0  0  0
  1 20  1  0  0  0  0
  2 27  1  0  0  0  0
  3 21  1  0  0  0  0
  3 24  1  0  0  0  0
  5 46  1  0  0  0  0
  5 45  1  0  0  0  0
  6 15  1  0  0  0  0
  6  1  1  0  0  0  0
  7  6  2  0  0  0  0
  8  7  1  0  0  0  0
  9 11  2  0  0  0  0
  9  7  1  0  0  0  0
 10  9  1  0  0  0  0
 11 13  1  0  0  0  0
 12 11  1  0  0  0  0
 13 14  1  0  0  0  0
 13 15  1  0  0  0  0
 15 16  2  0  0  0  0
 16 17  1  0  0  0  0
 16 18  1  0  0  0  0
 18 19  1  0  0  0  0
 20 18  2  0  0  0  0
 20 21  1  0  0  0  0
 21 22  1  0  0  0  0
 21 23  1  0  0  0  0
 24 26  1  0  0  0  0
 24 25  1  0  0  0  0
 27 28  2  0  0  0  0
 27 24  1  0  0  0  0
 28 29  1  0  0  0  0
 30 31  1  0  0  0  0
 30 28  1  0  0  0  0
 32 30  2  0  0  0  0
 33 34  1  0  0  0  0
 33 32  1  0  0  0  0
 35 33  1  0  0  0  0
 36 35  1  0  0  0  0
 37 35  2  0  0  0  0
 37 39  1  0  0  0  0
 38 37  1  0  0  0  0
 39 41  2  0  0  0  0
 40 39  1  0  0  0  0
 41 32  1  0  0  0  0
 41  2  1  0  0  0  0
 42 45  1  0  0  0  0
 42  3  1  0  0  0  0
 43 42  1  0  0  0  0
 44 42  1  0  0  0  0
 45  4  2  0  0  0  0
 46 47  1  0  0  0  0
 46 49  1  0  0  0  0
 48 46  1  0  0  0  0
M  END
