3,4,5
q = 0.0, confidence = 1.0

 27 29  0  0  1  0  0  0  0  0999 V2000
   -2.3329    3.5581    0.3211 O   0  0  0  0  0  0  0  0  0  0  0  0
   -2.1388   -3.5273   -0.1969 O   0  0  0  0  0  0  0  0  0  0  0  0
   -0.8771   -1.8850   -1.1074 N   0  0  0  0  0  2  0  0  0  0  0  0
   -2.0230    0.0089    0.2097 N   0  0  0  0  0  2  0  0  0  0  0  0
   -0.9596    2.1272   -0.7672 N   0  0  0  0  0  2  0  0  0  0  0  0
   -0.6394    3.4344   -1.3523 C   0  0  0  0  0  0  0  0  0  0  0  0
   -1.4299    4.4174   -0.4577 C   0  0  0  0  0  0  0  0  0  0  0  0
   -1.9395    2.3079    0.0901 C   0  0  0  0  0  0  0  0  0  0  0  0
   -2.5825    1.1407    0.6920 C   0  0  0  0  0  0  0  0  0  0  0  0
   -3.6521    1.0817    1.6009 C   0  0  0  0  0  0  0  0  0  0  0  0
   -4.1219   -0.1863    1.9830 C   0  0  0  0  0  0  0  0  0  0  0  0
   -3.5547   -1.3556    1.4444 C   0  0  0  0  0  0  0  0  0  0  0  0
   -2.4974   -1.2133    0.5324 C   0  0  0  0  0  0  0  0  0  0  0  0
   -1.8080   -2.2401   -0.2522 C   0  0  1  0  0  3  0  0  0  0  0  0
   -1.2643   -4.2176   -1.1536 C   0  0  0  0  0  0  0  0  0  0  0  0
   -0.4998   -3.0786   -1.8737 C   0  0  0  0  0  0  0  0  0  0  0  0
   -2.0546    5.1405   -1.0131 H   0  0  0  0  0  0  0  0  0  0  0  0
   -0.6063   -4.8901   -0.5684 H   0  0  0  0  0  0  0  0  0  0  0  0
   -0.7894    4.9589    0.2671 H   0  0  0  0  0  0  0  0  0  0  0  0
   -0.8152   -2.9306   -2.9278 H   0  0  0  0  0  0  0  0  0  0  0  0
   -3.9285   -2.3547    1.7045 H   0  0  0  0  0  0  0  0  0  0  0  0
    0.4520    3.6147   -1.3288 H   0  0  0  0  0  0  0  0  0  0  0  0
   -4.1032    2.0073    1.9830 H   0  0  0  0  0  0  0  0  0  0  0  0
   -0.9761    3.4279   -2.4109 H   0  0  0  0  0  0  0  0  0  0  0  0
    0.5983   -3.2193   -1.8549 H   0  0  0  0  0  0  0  0  0  0  0  0
   -1.9098   -4.8217   -1.8175 H   0  0  0  0  0  0  0  0  0  0  0  0
   -4.9556   -0.2654    2.6956 H   0  0  0  0  0  0  0  0  0  0  0  0
  3 14  1  0  0  0  0
  4 13  1  0  0  0  0
  4  9  1  0  0  0  0
  5  8  1  0  0  0  0
  6 22  1  0  0  0  0
  6  5  1  0  0  0  0
  6  7  1  0  0  0  0
  7 19  1  0  0  0  0
  7  1  1  0  0  0  0
  8  1  1  0  0  0  0
  8  9  2  0  0  0  0
  9 10  1  0  0  0  0
 10 23  1  0  0  0  0
 10 11  2  0  0  0  0
 11 27  1  0  0  0  0
 12 21  1  0  0  0  0
 12 11  1  0  0  0  0
 13 12  2  0  0  0  0
 14  2  1  0  0  0  0
 14 13  1  6  0  0  0
 15 18  1  0  0  0  0
 15  2  1  0  0  0  0
 16 25  1  0  0  0  0
 16 15  1  0  0  0  0
 16  3  1  0  0  0  0
 17  7  1  0  0  0  0
 20 16  1  0  0  0  0
 24  6  1  0  0  0  0
 26 15  1  0  0  0  0
M  END
