1,11,14
 OpenBabel05122313063D

 77 81  0  0  1  0  0  0  0  0999 V2000
   -0.0000    1.0564    0.5607 N   0  0  0  0  0  2  0  0  0  0  0  0
    1.1976    1.6612    0.7982 C   0  0  0  0  0  0  0  0  0  0  0  0
    1.2220    2.9629    1.3214 C   0  0  0  0  0  0  0  0  0  0  0  0
    2.1811    3.4556    1.5249 H   0  0  0  0  0  0  0  0  0  0  0  0
    0.0001    3.6058    1.5841 C   0  0  0  0  0  0  0  0  0  0  0  0
    0.0002    4.6210    2.0056 H   0  0  0  0  0  0  0  0  0  0  0  0
   -1.2218    2.9630    1.3214 C   0  0  0  0  0  0  0  0  0  0  0  0
   -2.1808    3.4558    1.5248 H   0  0  0  0  0  0  0  0  0  0  0  0
   -1.1975    1.6613    0.7982 C   0  0  0  0  0  0  0  0  0  0  0  0
    2.2840    0.7512    0.4590 C   0  0  0  0  0  0  0  0  0  0  0  0
    1.8932   -0.4798    0.1402 N   0  0  0  0  0  2  0  0  0  0  0  0
    3.9990    1.1888    0.5027 S   0  0  0  0  0  0  0  0  0  0  0  0
   -2.2840    0.7514    0.4590 C   0  0  1  0  0  3  0  0  0  0  0  0
   -1.8934   -0.4796    0.1402 N   0  0  0  0  0  2  0  0  0  0  0  0
   -3.9990    1.1892    0.5025 S   0  0  0  0  0  0  0  0  0  0  0  0
    2.8545   -1.4499   -0.2730 C   0  0  0  0  0  0  0  0  0  0  0  0
    3.6217   -2.1590    0.6823 C   0  0  0  0  0  0  0  0  0  0  0  0
    4.5504   -3.0981    0.2014 C   0  0  0  0  0  0  0  0  0  0  0  0
    5.1506   -3.6597    0.9353 H   0  0  0  0  0  0  0  0  0  0  0  0
    4.7301   -3.3480   -1.1705 C   0  0  0  0  0  0  0  0  0  0  0  0
    3.9458   -2.6212   -2.0857 C   0  0  0  0  0  0  0  0  0  0  0  0
    4.0676   -2.7990   -3.1664 H   0  0  0  0  0  0  0  0  0  0  0  0
    2.9978   -1.6782   -1.6641 C   0  0  0  0  0  0  0  0  0  0  0  0
    3.4290   -1.9421    2.1572 C   0  0  0  0  0  0  0  0  0  0  0  0
    4.0676   -2.6297    2.7429 H   0  0  0  0  0  0  0  0  0  0  0  0
    2.3673   -2.0921    2.4470 H   0  0  0  0  0  0  0  0  0  0  0  0
    3.6812   -0.9044    2.4634 H   0  0  0  0  0  0  0  0  0  0  0  0
    5.7043   -4.3947   -1.6478 C   0  0  0  0  0  0  0  0  0  0  0  0
    6.1510   -4.1234   -2.6251 H   0  0  0  0  0  0  0  0  0  0  0  0
    5.1967   -5.3744   -1.7832 H   0  0  0  0  0  0  0  0  0  0  0  0
    6.5260   -4.5508   -0.9215 H   0  0  0  0  0  0  0  0  0  0  0  0
    2.1533   -0.9171   -2.6470 C   0  0  0  0  0  0  0  0  0  0  0  0
    2.3958    0.1674   -2.6404 H   0  0  0  0  0  0  0  0  0  0  0  0
    1.0813   -1.0160   -2.3785 H   0  0  0  0  0  0  0  0  0  0  0  0
    2.2987   -1.2917   -3.6775 H   0  0  0  0  0  0  0  0  0  0  0  0
   -2.8547   -1.4498   -0.2727 C   0  0  0  0  0  0  0  0  0  0  0  0
   -2.9976   -1.6788   -1.6639 C   0  0  0  0  0  0  0  0  0  0  0  0
   -3.9456   -2.6218   -2.0851 C   0  0  0  0  0  0  0  0  0  0  0  0
   -4.0670   -2.8002   -3.1658 H   0  0  0  0  0  0  0  0  0  0  0  0
   -4.7303   -3.3481   -1.1697 C   0  0  0  0  0  0  0  0  0  0  0  0
   -4.5508   -3.0976    0.2020 C   0  0  0  0  0  0  0  0  0  0  0  0
   -5.1512   -3.6589    0.9360 H   0  0  0  0  0  0  0  0  0  0  0  0
   -3.6221   -2.1582    0.6827 C   0  0  0  0  0  0  0  0  0  0  0  0
   -2.1526   -0.9184   -2.6469 C   0  0  0  0  0  0  0  0  0  0  0  0
   -1.0806   -1.0187   -2.3787 H   0  0  0  0  0  0  0  0  0  0  0  0
   -2.3938    0.1664   -2.6399 H   0  0  0  0  0  0  0  0  0  0  0  0
   -2.2987   -1.2927   -3.6773 H   0  0  0  0  0  0  0  0  0  0  0  0
   -5.7047   -4.3943   -1.6478 C   0  0  0  0  0  0  0  0  0  0  0  0
   -5.1910   -5.3657   -1.8153 H   0  0  0  0  0  0  0  0  0  0  0  0
   -6.1748   -4.1070   -2.6095 H   0  0  0  0  0  0  0  0  0  0  0  0
   -6.5092   -4.5732   -0.9077 H   0  0  0  0  0  0  0  0  0  0  0  0
   -3.4299   -1.9407    2.1576 C   0  0  0  0  0  0  0  0  0  0  0  0
   -3.6831   -0.9031    2.4634 H   0  0  0  0  0  0  0  0  0  0  0  0
   -2.3682   -2.0897    2.4477 H   0  0  0  0  0  0  0  0  0  0  0  0
   -4.0681   -2.6286    2.7433 H   0  0  0  0  0  0  0  0  0  0  0  0
    4.8183    3.8025    0.2912 C   0  0  0  0  0  0  0  0  0  0  0  0
    5.4063    3.5834    1.1953 H   0  0  0  0  0  0  0  0  0  0  0  0
    4.8814    5.0679   -0.3122 C   0  0  0  0  0  0  0  0  0  0  0  0
    5.5352    5.8414    0.1185 H   0  0  0  0  0  0  0  0  0  0  0  0
    4.1049    5.3518   -1.4465 C   0  0  0  0  0  0  0  0  0  0  0  0
    4.1486    6.3482   -1.9107 H   0  0  0  0  0  0  0  0  0  0  0  0
    3.2747    4.3564   -1.9896 C   0  0  0  0  0  0  0  0  0  0  0  0
    2.6707    4.5688   -2.8848 H   0  0  0  0  0  0  0  0  0  0  0  0
    3.2217    3.0821   -1.4102 C   0  0  0  0  0  0  0  0  0  0  0  0
    2.5855    2.2973   -1.8458 H   0  0  0  0  0  0  0  0  0  0  0  0
    3.9845    2.8081   -0.2570 C   0  0  0  0  0  0  0  0  0  0  0  0
   -4.8177    3.8032    0.2908 C   0  0  0  0  0  0  0  0  0  0  0  0
   -5.4055    3.5844    1.1951 H   0  0  0  0  0  0  0  0  0  0  0  0
   -4.8806    5.0685   -0.3127 C   0  0  0  0  0  0  0  0  0  0  0  0
   -5.5340    5.8422    0.1180 H   0  0  0  0  0  0  0  0  0  0  0  0
   -4.1043    5.3520   -1.4473 C   0  0  0  0  0  0  0  0  0  0  0  0
   -4.1478    6.3484   -1.9116 H   0  0  0  0  0  0  0  0  0  0  0  0
   -3.2745    4.3563   -1.9905 C   0  0  0  0  0  0  0  0  0  0  0  0
   -2.6706    4.5684   -2.8858 H   0  0  0  0  0  0  0  0  0  0  0  0
   -3.2217    3.0821   -1.4108 C   0  0  0  0  0  0  0  0  0  0  0  0
   -2.5858    2.2970   -1.8465 H   0  0  0  0  0  0  0  0  0  0  0  0
   -3.9843    2.8085   -0.2574 C   0  0  0  0  0  0  0  0  0  0  0  0
  1  9  1  0  0  0  0
  1  2  1  0  0  0  0
  2  3  1  0  0  0  0
  3  4  1  0  0  0  0
  3  5  2  0  0  0  0
  5  6  1  0  0  0  0
  7  8  1  0  0  0  0
  7  5  1  0  0  0  0
  9  7  2  0  0  0  0
 10 12  1  0  0  0  0
 10  2  2  0  0  0  0
 11 10  1  0  0  0  0
 13 14  1  1  0  0  0
 13 15  1  0  0  0  0
 13  9  1  0  0  0  0
 16 11  1  0  0  0  0
 16 17  1  0  0  0  0
 17 24  1  0  0  0  0
 18 17  2  0  0  0  0
 18 19  1  0  0  0  0
 20 18  1  0  0  0  0
 21 23  1  0  0  0  0
 21 20  2  0  0  0  0
 22 21  1  0  0  0  0
 23 16  2  0  0  0  0
 24 26  1  0  0  0  0
 24 27  1  0  0  0  0
 24 25  1  0  0  0  0
 28 20  1  0  0  0  0
 28 31  1  0  0  0  0
 29 28  1  0  0  0  0
 30 28  1  0  0  0  0
 32 33  1  0  0  0  0
 32 34  1  0  0  0  0
 32 23  1  0  0  0  0
 35 32  1  0  0  0  0
 36 14  1  0  0  0  0
 36 43  1  0  0  0  0
 37 36  2  0  0  0  0
 38 37  1  0  0  0  0
 38 40  2  0  0  0  0
 39 38  1  0  0  0  0
 40 41  1  0  0  0  0
 41 43  2  0  0  0  0
 41 42  1  0  0  0  0
 43 52  1  0  0  0  0
 44 46  1  0  0  0  0
 44 45  1  0  0  0  0
 44 37  1  0  0  0  0
 47 44  1  0  0  0  0
 48 40  1  0  0  0  0
 48 51  1  0  0  0  0
 49 48  1  0  0  0  0
 50 48  1  0  0  0  0
 52 54  1  0  0  0  0
 52 53  1  0  0  0  0
 52 55  1  0  0  0  0
 56 57  1  0  0  0  0
 58 59  1  0  0  0  0
 58 56  2  0  0  0  0
 60 58  1  0  0  0  0
 61 60  1  0  0  0  0
 62 60  2  0  0  0  0
 62 64  1  0  0  0  0
 63 62  1  0  0  0  0
 64 66  2  0  0  0  0
 65 64  1  0  0  0  0
 66 56  1  0  0  0  0
 66 12  1  0  0  0  0
 67 68  1  0  0  0  0
 69 70  1  0  0  0  0
 69 67  2  0  0  0  0
 71 69  1  0  0  0  0
 72 71  1  0  0  0  0
 73 71  2  0  0  0  0
 73 75  1  0  0  0  0
 74 73  1  0  0  0  0
 75 77  2  0  0  0  0
 76 75  1  0  0  0  0
 77 67  1  0  0  0  0
 77 15  1  0  0  0  0
M  END
