5,8,39
 OpenBabel05122313063D

 65 68  0  0  1  0  0  0  0  0999 V2000
   -2.4060    1.2169   -0.2356 C   0  0  1  0  0  3  0  0  0  0  0  0
    1.1933    0.0735    0.1688 C   0  0  0  0  0  0  0  0  0  0  0  0
   -2.8148    3.5028   -1.3204 C   0  0  0  0  0  0  0  0  0  0  0  0
   -1.7395    3.7274   -1.3476 H   0  0  0  0  0  0  0  0  0  0  0  0
   -4.6053    2.0116   -0.7460 N   0  0  0  0  0  2  0  0  0  0  0  0
   -5.5022    2.8977   -1.1929 C   0  0  0  0  0  3  0  0  0  0  0  0
   -6.5560    2.5827   -1.0902 H   0  0  0  0  0  0  0  0  0  0  0  0
   -3.0751    0.2071    0.3417 N   0  0  0  0  0  2  0  0  0  0  0  0
   -1.0047    1.2109   -0.3070 C   0  0  0  0  0  0  0  0  0  0  0  0
   -0.4692    2.0226   -0.8170 H   0  0  0  0  0  0  0  0  0  0  0  0
    6.6782    1.8473    0.9764 C   0  0  0  0  0  0  0  0  0  0  0  0
   -0.2794    0.1197    0.2285 C   0  0  0  0  0  0  0  0  0  0  0  0
   -3.2840    2.2863   -0.7922 C   0  0  0  0  0  0  0  0  0  0  0  0
    5.4449   -0.0601   -0.0052 N   0  0  0  0  0  0  0  0  0  0  0  0
    1.9722    1.2540    0.1857 C   0  0  0  0  0  0  0  0  0  0  0  0
    1.4754    2.2308    0.2870 H   0  0  0  0  0  0  0  0  0  0  0  0
   -5.1155    4.1316   -1.7381 C   0  0  0  0  0  0  0  0  0  0  0  0
   -5.8743    4.8391   -2.1019 H   0  0  0  0  0  0  0  0  0  0  0  0
    6.9935    1.2858    2.0084 O   0  0  0  0  0  0  0  0  0  0  0  0
    6.7124    3.1832    0.7891 O   0  0  0  0  0  0  0  0  0  0  0  0
   -3.7469    4.4322   -1.8026 C   0  0  0  0  0  0  0  0  0  0  0  0
   -3.4037    5.3898   -2.2224 H   0  0  0  0  0  0  0  0  0  0  0  0
    4.0631   -0.0163    0.0510 C   0  0  0  0  0  0  0  0  0  0  0  0
    3.3651    1.2207    0.1378 C   0  0  0  0  0  0  0  0  0  0  0  0
    3.9196    2.1665    0.2068 H   0  0  0  0  0  0  0  0  0  0  0  0
    6.2214    1.1245   -0.2919 C   0  0  0  0  0  0  0  0  0  0  0  0
    5.6636    1.8156   -0.9510 H   0  0  0  0  0  0  0  0  0  0  0  0
    7.1240    0.8255   -0.8659 H   0  0  0  0  0  0  0  0  0  0  0  0
    7.1973    3.9680    1.9066 C   0  0  0  0  0  0  0  0  0  0  0  0
    6.5650    3.7477    2.7921 H   0  0  0  0  0  0  0  0  0  0  0  0
    8.2255    3.6305    2.1558 H   0  0  0  0  0  0  0  0  0  0  0  0
    7.1484    5.4275    1.5086 C   0  0  0  0  0  0  0  0  0  0  0  0
    7.7844    5.6213    0.6223 H   0  0  0  0  0  0  0  0  0  0  0  0
    7.5151    6.0584    2.3422 H   0  0  0  0  0  0  0  0  0  0  0  0
    6.1132    5.7408    1.2679 H   0  0  0  0  0  0  0  0  0  0  0  0
   -2.4275   -0.8569    0.8404 C   0  0  0  0  0  0  0  0  0  0  0  0
   -2.8809   -3.0428    2.1003 C   0  0  0  0  0  0  0  0  0  0  0  0
   -1.8092   -3.2132    2.2737 H   0  0  0  0  0  0  0  0  0  0  0  0
   -4.6433   -1.6885    1.1956 N   0  0  0  0  0  2  0  0  0  0  0  0
   -5.5579   -2.5448    1.6639 C   0  0  0  0  0  3  0  0  0  0  0  0
   -6.6058   -2.2625    1.4580 H   0  0  0  0  0  0  0  0  0  0  0  0
   -1.0267   -0.9314    0.8114 C   0  0  0  0  0  0  0  0  0  0  0  0
   -0.5048   -1.7928    1.2489 H   0  0  0  0  0  0  0  0  0  0  0  0
    6.4755   -2.0388   -1.0705 C   0  0  0  0  0  0  0  0  0  0  0  0
   -3.3267   -1.9072    1.3999 C   0  0  0  0  0  0  0  0  0  0  0  0
    1.8929   -1.1535    0.0890 C   0  0  0  0  0  0  0  0  0  0  0  0
    1.3297   -2.0967    0.0247 H   0  0  0  0  0  0  0  0  0  0  0  0
   -5.1952   -3.7023    2.3696 C   0  0  0  0  0  0  0  0  0  0  0  0
   -5.9682   -4.3903    2.7410 H   0  0  0  0  0  0  0  0  0  0  0  0
    6.8617   -1.4988   -2.0902 O   0  0  0  0  0  0  0  0  0  0  0  0
    6.2788   -3.3666   -0.9346 O   0  0  0  0  0  0  0  0  0  0  0  0
   -3.8318   -3.9511    2.5862 C   0  0  0  0  0  0  0  0  0  0  0  0
   -3.5072   -4.8470    3.1365 H   0  0  0  0  0  0  0  0  0  0  0  0
    3.2842   -1.2070    0.0227 C   0  0  0  0  0  0  0  0  0  0  0  0
    3.7715   -2.1843   -0.0961 H   0  0  0  0  0  0  0  0  0  0  0  0
    6.1652   -1.2931    0.2288 C   0  0  0  0  0  0  0  0  0  0  0  0
    5.6124   -1.9456    0.9295 H   0  0  0  0  0  0  0  0  0  0  0  0
    7.1264   -1.0510    0.7287 H   0  0  0  0  0  0  0  0  0  0  0  0
    6.5834   -4.1757   -2.0984 C   0  0  0  0  0  0  0  0  0  0  0  0
    5.9821   -3.8018   -2.9533 H   0  0  0  0  0  0  0  0  0  0  0  0
    7.6503   -4.0217   -2.3652 H   0  0  0  0  0  0  0  0  0  0  0  0
    6.2744   -5.6179   -1.7588 C   0  0  0  0  0  0  0  0  0  0  0  0
    6.8829   -5.9657   -0.9007 H   0  0  0  0  0  0  0  0  0  0  0  0
    6.5000   -6.2663   -2.6283 H   0  0  0  0  0  0  0  0  0  0  0  0
    5.2045   -5.7467   -1.5012 H   0  0  0  0  0  0  0  0  0  0  0  0
  1 13  1  6  0  0  0
  1  8  1  0  0  0  0
  2 15  1  0  0  0  0
  2 12  1  0  0  0  0
  3 13  2  0  0  0  0
  4  3  1  0  0  0  0
  6  7  1  0  0  0  0
  6  5  1  0  0  0  0
  8 36  1  0  0  0  0
  9  1  1  0  0  0  0
  9 12  2  0  0  0  0
 10  9  1  0  0  0  0
 11 19  2  0  0  0  0
 12 42  1  0  0  0  0
 13  5  1  0  0  0  0
 14 23  1  0  0  0  0
 14 56  1  0  0  0  0
 15 16  1  0  0  0  0
 17  6  1  0  0  0  0
 18 17  1  0  0  0  0
 20 11  1  0  0  0  0
 20 29  1  0  0  0  0
 21 17  2  0  0  0  0
 21  3  1  0  0  0  0
 22 21  1  0  0  0  0
 23 24  1  0  0  0  0
 24 15  2  0  0  0  0
 24 25  1  0  0  0  0
 26 14  1  0  0  0  0
 26 11  1  0  0  0  0
 27 26  1  0  0  0  0
 28 26  1  0  0  0  0
 29 31  1  0  0  0  0
 29 30  1  0  0  0  0
 32 29  1  0  0  0  0
 32 34  1  0  0  0  0
 33 32  1  0  0  0  0
 35 32  1  0  0  0  0
 36 45  1  0  0  0  0
 37 38  1  0  0  0  0
 37 52  1  0  0  0  0
 39 45  1  0  0  0  0
 39 40  1  0  0  0  0
 40 48  1  0  0  0  0
 41 40  1  0  0  0  0
 42 36  2  0  0  0  0
 42 43  1  0  0  0  0
 44 51  1  0  0  0  0
 44 56  1  0  0  0  0
 45 37  2  0  0  0  0
 46  2  2  0  0  0  0
 47 46  1  0  0  0  0
 48 52  2  0  0  0  0
 48 49  1  0  0  0  0
 50 44  2  0  0  0  0
 52 53  1  0  0  0  0
 54 23  2  0  0  0  0
 54 46  1  0  0  0  0
 55 54  1  0  0  0  0
 56 58  1  0  0  0  0
 56 57  1  0  0  0  0
 59 62  1  0  0  0  0
 59 51  1  0  0  0  0
 60 59  1  0  0  0  0
 61 59  1  0  0  0  0
 62 65  1  0  0  0  0
 62 63  1  0  0  0  0
 64 62  1  0  0  0  0
M  END
