1,3,5
 OpenBabel05122313063D

 80 82  0  0  1  0  0  0  0  0999 V2000
    0.6488   -0.4734    1.5152 N   0  0  0  0  0  2  0  0  0  0  0  0
   -0.5717   -0.9506    1.1433 N   0  0  0  0  0  0  0  0  0  0  0  0
    0.6745   -0.8359   -1.3345 N   0  0  0  0  0  2  0  0  0  0  0  0
   -0.6802   -0.7883   -1.2360 N   0  0  0  0  0  0  0  0  0  0  0  0
   -0.0475    1.7421   -0.1936 N   0  0  0  0  0  2  0  0  0  0  0  0
   -1.2104    1.1115    0.1185 N   0  0  0  0  0  0  0  0  0  0  0  0
   -1.2507   -0.3354    0.0182 C   0  0  2  0  0  0  0  0  0  0  0  0
    3.5602   -1.6004    2.1999 C   0  0  0  0  0  0  0  0  0  0  0  0
    2.5109   -1.6850    4.5204 C   0  0  0  0  0  0  0  0  0  0  0  0
    2.4372   -1.0753    3.1156 C   0  0  0  0  0  0  0  0  0  0  0  0
    1.0844   -1.2938    2.4860 C   0  0  2  0  0  3  0  0  0  0  0  0
    0.1228   -2.3170    2.7254 C   0  0  0  0  0  0  0  0  0  0  0  0
   -0.9301   -2.0856    1.8409 C   0  0  0  0  0  0  0  0  0  0  0  0
   -2.1962   -2.8547    1.5688 C   0  0  0  0  0  0  0  0  0  0  0  0
   -2.0547   -3.7424    0.3146 C   0  0  0  0  0  0  0  0  0  0  0  0
   -2.6165   -3.6808    2.7910 C   0  0  0  0  0  0  0  0  0  0  0  0
    3.1631   -2.1852   -2.2445 C   0  0  0  0  0  0  0  0  0  0  0  0
    2.4956   -1.4167   -4.5840 C   0  0  0  0  0  0  0  0  0  0  0  0
    2.3824   -1.1572   -3.0800 C   0  0  0  0  0  0  0  0  0  0  0  0
    0.9467   -1.0703   -2.6288 C   0  0  2  0  0  3  0  0  0  0  0  0
   -0.2691   -1.1692   -3.3668 C   0  0  0  0  0  0  0  0  0  0  0  0
   -1.3054   -0.9646   -2.4551 C   0  0  0  0  0  0  0  0  0  0  0  0
   -2.7980   -0.8787   -2.6365 C   0  0  0  0  0  0  0  0  0  0  0  0
   -3.2653   -1.7441   -3.8144 C   0  0  0  0  0  0  0  0  0  0  0  0
   -3.2618    0.5841   -2.7990 C   0  0  0  0  0  0  0  0  0  0  0  0
    0.4217    5.4227   -0.3623 C   0  0  0  0  0  0  0  0  0  0  0  0
    1.8161    3.9673    1.2013 C   0  0  0  0  0  0  0  0  0  0  0  0
    0.9112    4.0054   -0.0457 C   0  0  0  0  0  0  0  0  0  0  0  0
   -0.2307    3.0354    0.1144 C   0  0  2  0  0  3  0  0  0  0  0  0
   -1.5426    3.2272    0.6376 C   0  0  0  0  0  0  0  0  0  0  0  0
   -2.1528    1.9724    0.6448 C   0  0  0  0  0  0  0  0  0  0  0  0
   -3.4996    1.5145    1.1392 C   0  0  0  0  0  0  0  0  0  0  0  0
   -4.5267    2.6527    1.0889 C   0  0  0  0  0  0  0  0  0  0  0  0
   -3.3996    0.9117    2.5561 C   0  0  0  0  0  0  0  0  0  0  0  0
   -2.3106   -0.6471    0.0483 H   0  0  0  0  0  0  0  0  0  0  0  0
    4.5464   -1.4690    2.6902 H   0  0  0  0  0  0  0  0  0  0  0  0
    3.5843   -1.0347    1.2453 H   0  0  0  0  0  0  0  0  0  0  0  0
    3.4225   -2.6803    1.9836 H   0  0  0  0  0  0  0  0  0  0  0  0
    2.4386   -2.7925    4.4807 H   0  0  0  0  0  0  0  0  0  0  0  0
    1.6986   -1.3136    5.1776 H   0  0  0  0  0  0  0  0  0  0  0  0
    3.4797   -1.4389    4.9984 H   0  0  0  0  0  0  0  0  0  0  0  0
    2.5668    0.0268    3.1918 H   0  0  0  0  0  0  0  0  0  0  0  0
    0.1814   -3.1191    3.4671 H   0  0  0  0  0  0  0  0  0  0  0  0
   -3.0090   -2.1152    1.3757 H   0  0  0  0  0  0  0  0  0  0  0  0
   -1.7562   -3.1601   -0.5795 H   0  0  0  0  0  0  0  0  0  0  0  0
   -3.0098   -4.2597    0.0907 H   0  0  0  0  0  0  0  0  0  0  0  0
   -1.2738   -4.5121    0.4787 H   0  0  0  0  0  0  0  0  0  0  0  0
   -1.8602   -4.4592    3.0191 H   0  0  0  0  0  0  0  0  0  0  0  0
   -3.5774   -4.1977    2.5992 H   0  0  0  0  0  0  0  0  0  0  0  0
   -2.7343   -3.0454    3.6907 H   0  0  0  0  0  0  0  0  0  0  0  0
    2.7589   -3.2100   -2.3849 H   0  0  0  0  0  0  0  0  0  0  0  0
    3.1104   -1.9194   -1.1717 H   0  0  0  0  0  0  0  0  0  0  0  0
    4.2320   -2.1840   -2.5372 H   0  0  0  0  0  0  0  0  0  0  0  0
    3.5586   -1.4214   -4.8959 H   0  0  0  0  0  0  0  0  0  0  0  0
    1.9759   -0.6375   -5.1780 H   0  0  0  0  0  0  0  0  0  0  0  0
    2.0621   -2.4020   -4.8590 H   0  0  0  0  0  0  0  0  0  0  0  0
    2.8355   -0.1658   -2.8396 H   0  0  0  0  0  0  0  0  0  0  0  0
   -0.3782   -1.3761   -4.4355 H   0  0  0  0  0  0  0  0  0  0  0  0
   -3.2759   -1.2890   -1.7157 H   0  0  0  0  0  0  0  0  0  0  0  0
   -2.8439   -1.3694   -4.7693 H   0  0  0  0  0  0  0  0  0  0  0  0
   -4.3693   -1.7162   -3.9052 H   0  0  0  0  0  0  0  0  0  0  0  0
   -2.9495   -2.7990   -3.6939 H   0  0  0  0  0  0  0  0  0  0  0  0
   -2.9315    1.2228   -1.9561 H   0  0  0  0  0  0  0  0  0  0  0  0
   -4.3675    0.6409   -2.8674 H   0  0  0  0  0  0  0  0  0  0  0  0
   -2.8348    1.0181   -3.7255 H   0  0  0  0  0  0  0  0  0  0  0  0
   -0.1556    5.8487    0.4857 H   0  0  0  0  0  0  0  0  0  0  0  0
   -0.2279    5.4440   -1.2607 H   0  0  0  0  0  0  0  0  0  0  0  0
    1.2813    6.0980   -0.5441 H   0  0  0  0  0  0  0  0  0  0  0  0
    2.6663    4.6689    1.0818 H   0  0  0  0  0  0  0  0  0  0  0  0
    2.2390    2.9507    1.3306 H   0  0  0  0  0  0  0  0  0  0  0  0
    1.2519    4.2524    2.1140 H   0  0  0  0  0  0  0  0  0  0  0  0
    1.5218    3.6228   -0.8920 H   0  0  0  0  0  0  0  0  0  0  0  0
   -1.9972    4.1699    0.9573 H   0  0  0  0  0  0  0  0  0  0  0  0
   -3.8603    0.7144    0.4505 H   0  0  0  0  0  0  0  0  0  0  0  0
   -4.2384    3.4741    1.7761 H   0  0  0  0  0  0  0  0  0  0  0  0
   -5.5251    2.2905    1.4047 H   0  0  0  0  0  0  0  0  0  0  0  0
   -4.6140    3.0760    0.0691 H   0  0  0  0  0  0  0  0  0  0  0  0
   -2.6563    0.0916    2.6101 H   0  0  0  0  0  0  0  0  0  0  0  0
   -4.3813    0.5142    2.8849 H   0  0  0  0  0  0  0  0  0  0  0  0
   -3.0808    1.6892    3.2793 H   0  0  0  0  0  0  0  0  0  0  0  0
  1 11  1  0  0  0  0
  2  1  1  0  0  0  0
  2 13  1  0  0  0  0
  3  4  1  0  0  0  0
  4  7  1  0  0  0  0
  5 29  1  0  0  0  0
  5  6  1  0  0  0  0
  6 31  1  0  0  0  0
  7 35  1  1  0  0  0
  7  6  1  0  0  0  0
  7  2  1  0  0  0  0
  8 36  1  0  0  0  0
  8 10  1  0  0  0  0
  9 41  1  0  0  0  0
  9 40  1  0  0  0  0
 10 42  1  0  0  0  0
 10  9  1  0  0  0  0
 11 12  1  0  0  0  0
 11 10  1  6  0  0  0
 12 43  1  0  0  0  0
 13 12  2  0  0  0  0
 14 13  1  0  0  0  0
 14 16  1  0  0  0  0
 15 47  1  0  0  0  0
 15 14  1  0  0  0  0
 16 48  1  0  0  0  0
 16 50  1  0  0  0  0
 17 52  1  0  0  0  0
 18 19  1  0  0  0  0
 19 57  1  0  0  0  0
 19 17  1  0  0  0  0
 20 19  1  6  0  0  0
 20  3  1  0  0  0  0
 21 20  1  0  0  0  0
 21 22  2  0  0  0  0
 22  4  1  0  0  0  0
 23 22  1  0  0  0  0
 23 59  1  0  0  0  0
 24 62  1  0  0  0  0
 24 23  1  0  0  0  0
 25 23  1  0  0  0  0
 25 63  1  0  0  0  0
 26 28  1  0  0  0  0
 26 66  1  0  0  0  0
 27 70  1  0  0  0  0
 27 71  1  0  0  0  0
 28 27  1  0  0  0  0
 29 28  1  1  0  0  0
 29 30  1  0  0  0  0
 30 31  2  0  0  0  0
 30 73  1  0  0  0  0
 31 32  1  0  0  0  0
 32 34  1  0  0  0  0
 33 32  1  0  0  0  0
 33 76  1  0  0  0  0
 33 75  1  0  0  0  0
 34 78  1  0  0  0  0
 34 79  1  0  0  0  0
 34 80  1  0  0  0  0
 37  8  1  0  0  0  0
 38  8  1  0  0  0  0
 39  9  1  0  0  0  0
 44 14  1  0  0  0  0
 45 15  1  0  0  0  0
 46 15  1  0  0  0  0
 49 16  1  0  0  0  0
 51 17  1  0  0  0  0
 53 17  1  0  0  0  0
 54 18  1  0  0  0  0
 55 18  1  0  0  0  0
 56 18  1  0  0  0  0
 58 21  1  0  0  0  0
 60 24  1  0  0  0  0
 61 24  1  0  0  0  0
 64 25  1  0  0  0  0
 65 25  1  0  0  0  0
 67 26  1  0  0  0  0
 68 26  1  0  0  0  0
 69 27  1  0  0  0  0
 72 28  1  0  0  0  0
 74 32  1  0  0  0  0
 77 33  1  0  0  0  0
M  END
