2,14,17
 OpenBabel05122313063D

 32 34  0  0  1  0  0  0  0  0999 V2000
    2.6858   -2.5076   -1.4291 O   0  0  0  0  0  0  0  0  0  0  0  0
    1.6061    1.0412    0.8225 N   0  0  0  0  0  2  0  0  0  0  0  0
    2.8416    2.2208   -0.8907 C   0  0  0  0  0  0  0  0  0  0  0  0
    3.5102    3.0912   -1.0215 H   0  0  0  0  0  0  0  0  0  0  0  0
    1.9455    2.3333   -1.5431 H   0  0  0  0  0  0  0  0  0  0  0  0
    2.4005    2.1052    0.5430 C   0  0  2  0  0  3  0  0  0  0  0  0
    1.4551    0.6166    2.1115 C   0  0  0  0  0  0  0  0  0  0  0  0
    2.8627    2.9364    1.5757 C   0  0  0  0  0  0  0  0  0  0  0  0
    3.4858    3.8081    1.3305 H   0  0  0  0  0  0  0  0  0  0  0  0
    2.5364    2.6279    2.9050 C   0  0  0  0  0  0  0  0  0  0  0  0
    2.8592    3.2848    3.7260 H   0  0  0  0  0  0  0  0  0  0  0  0
    1.8671    1.4299    3.1817 C   0  0  0  0  0  0  0  0  0  0  0  0
    1.7032    1.1072    4.2184 H   0  0  0  0  0  0  0  0  0  0  0  0
    2.8234   -0.2094   -1.2525 N   0  0  0  0  0  2  0  0  0  0  0  0
    3.3842   -1.4767   -1.5220 C   0  0  0  0  0  0  0  0  0  0  0  0
    3.5552    0.9325   -1.2918 C   0  0  0  0  0  0  0  0  0  0  0  0
    0.8784   -1.4357    1.0402 N   0  0  0  0  0  2  0  0  0  0  0  0
    0.9995   -0.7779    2.2362 C   0  0  1  0  0  3  0  0  0  0  0  0
    0.6245   -2.7637    1.0473 C   0  0  0  0  0  0  0  0  0  0  0  0
    0.6052   -3.2442    0.0596 H   0  0  0  0  0  0  0  0  0  0  0  0
    0.5206   -2.8103    3.4628 C   0  0  0  0  0  0  0  0  0  0  0  0
    0.3690   -3.3480    4.4100 H   0  0  0  0  0  0  0  0  0  0  0  0
    4.9090    0.9396   -1.6298 C   0  0  0  0  0  0  0  0  0  0  0  0
    5.4709    1.8832   -1.6481 H   0  0  0  0  0  0  0  0  0  0  0  0
    4.7866   -1.4711   -1.8972 C   0  0  0  0  0  0  0  0  0  0  0  0
    5.2333   -2.4490   -2.1260 H   0  0  0  0  0  0  0  0  0  0  0  0
    5.5181   -0.2995   -1.9483 C   0  0  0  0  0  0  0  0  0  0  0  0
    6.5828   -0.3270   -2.2321 H   0  0  0  0  0  0  0  0  0  0  0  0
    0.8145   -1.4442    3.4623 C   0  0  0  0  0  0  0  0  0  0  0  0
    0.9082   -0.8922    4.4077 H   0  0  0  0  0  0  0  0  0  0  0  0
    0.4350   -3.4812    2.2307 C   0  0  0  0  0  0  0  0  0  0  0  0
    0.2261   -4.5587    2.1799 H   0  0  0  0  0  0  0  0  0  0  0  0
  2  7  1  0  0  0  0
  4  3  1  0  0  0  0
  5  3  1  0  0  0  0
  6  3  1  1  0  0  0
  6  2  1  0  0  0  0
  6  8  1  0  0  0  0
  7 12  2  0  0  0  0
  8 10  2  0  0  0  0
  9  8  1  0  0  0  0
 10 12  1  0  0  0  0
 10 11  1  0  0  0  0
 12 13  1  0  0  0  0
 15  1  2  0  0  0  0
 15 14  1  0  0  0  0
 16 14  1  0  0  0  0
 16  3  1  0  0  0  0
 17 19  1  0  0  0  0
 17 18  1  0  0  0  0
 18  7  1  1  0  0  0
 18 29  1  0  0  0  0
 19 31  2  0  0  0  0
 20 19  1  0  0  0  0
 21 22  1  0  0  0  0
 23 16  2  0  0  0  0
 24 23  1  0  0  0  0
 25 15  1  0  0  0  0
 26 25  1  0  0  0  0
 27 25  2  0  0  0  0
 27 23  1  0  0  0  0
 28 27  1  0  0  0  0
 29 21  2  0  0  0  0
 29 30  1  0  0  0  0
 31 21  1  0  0  0  0
 32 31  1  0  0  0  0
M  END
