1,2,3
 OpenBabel05122313063D

 49 51  0  0  1  0  0  0  0  0999 V2000
   -2.2798    0.5963   -0.0516 N   0  0  0  0  0  2  0  0  0  0  0  0
   -0.1353    2.1400    0.1124 N   0  0  0  0  0  2  0  0  0  0  0  0
    2.1440    0.8002   -0.0193 N   0  0  0  0  0  2  0  0  0  0  0  0
   -2.5263    1.8553    0.1449 C   0  0  2  0  0  3  0  0  0  0  0  0
   -1.3483    2.7443    0.0320 C   0  0  1  0  0  3  0  0  0  0  0  0
   -1.4377    4.1402   -0.1144 C   0  0  0  0  0  0  0  0  0  0  0  0
   -2.4233    4.6223   -0.1648 H   0  0  0  0  0  0  0  0  0  0  0  0
   -0.2631    4.8990   -0.2083 C   0  0  0  0  0  0  0  0  0  0  0  0
   -0.3136    5.9882   -0.3512 H   0  0  0  0  0  0  0  0  0  0  0  0
    0.9772    4.2516   -0.1207 C   0  0  0  0  0  0  0  0  0  0  0  0
    1.9135    4.8231   -0.1749 H   0  0  0  0  0  0  0  0  0  0  0  0
    1.0172    2.8541    0.0273 C   0  0  0  0  0  0  0  0  0  0  0  0
    2.2738    2.0789    0.1436 C   0  0  1  0  0  3  0  0  0  0  0  0
   -3.8652    2.4441    0.5056 C   0  0  0  0  0  0  0  0  0  0  0  0
   -4.5838    1.6424    0.7571 H   0  0  0  0  0  0  0  0  0  0  0  0
   -4.2920    3.0225   -0.3411 H   0  0  0  0  0  0  0  0  0  0  0  0
   -3.7783    3.1369    1.3667 H   0  0  0  0  0  0  0  0  0  0  0  0
    3.5635    2.7903    0.4570 C   0  0  0  0  0  0  0  0  0  0  0  0
    4.3681    2.0589    0.6563 H   0  0  0  0  0  0  0  0  0  0  0  0
    3.4521    3.4559    1.3368 H   0  0  0  0  0  0  0  0  0  0  0  0
    3.8863    3.4239   -0.3961 H   0  0  0  0  0  0  0  0  0  0  0  0
   -3.2221   -0.4273   -0.0276 C   0  0  0  0  0  0  0  0  0  0  0  0
   -3.0301   -1.5175    0.8576 C   0  0  0  0  0  0  0  0  0  0  0  0
   -2.1812   -1.4760    1.5565 H   0  0  0  0  0  0  0  0  0  0  0  0
   -3.9286   -2.5866    0.8509 C   0  0  0  0  0  0  0  0  0  0  0  0
   -3.7767   -3.4150    1.5624 H   0  0  0  0  0  0  0  0  0  0  0  0
   -5.0228   -2.6367   -0.0420 C   0  0  0  0  0  0  0  0  0  0  0  0
   -5.1889   -1.5554   -0.9296 C   0  0  0  0  0  0  0  0  0  0  0  0
   -6.0259   -1.5693   -1.6462 H   0  0  0  0  0  0  0  0  0  0  0  0
   -4.3140   -0.4612   -0.9255 C   0  0  0  0  0  0  0  0  0  0  0  0
   -4.4440    0.3601   -1.6456 H   0  0  0  0  0  0  0  0  0  0  0  0
   -5.9627   -3.8161   -0.0497 C   0  0  0  0  0  0  0  0  0  0  0  0
   -6.8346   -3.6392   -0.7092 H   0  0  0  0  0  0  0  0  0  0  0  0
   -6.3459   -4.0390    0.9680 H   0  0  0  0  0  0  0  0  0  0  0  0
   -5.4561   -4.7381   -0.4082 H   0  0  0  0  0  0  0  0  0  0  0  0
    3.1644   -0.1433    0.0169 C   0  0  0  0  0  0  0  0  0  0  0  0
    4.1434   -0.2102   -1.0028 C   0  0  0  0  0  0  0  0  0  0  0  0
    4.1257    0.5380   -1.8089 H   0  0  0  0  0  0  0  0  0  0  0  0
    5.0813   -1.2490   -1.0110 C   0  0  0  0  0  0  0  0  0  0  0  0
    5.8271   -1.2888   -1.8214 H   0  0  0  0  0  0  0  0  0  0  0  0
    5.0902   -2.2470   -0.0135 C   0  0  0  0  0  0  0  0  0  0  0  0
    4.1048   -2.1681    0.9951 C   0  0  0  0  0  0  0  0  0  0  0  0
    4.0894   -2.9298    1.7924 H   0  0  0  0  0  0  0  0  0  0  0  0
    3.1471   -1.1476    1.0155 C   0  0  0  0  0  0  0  0  0  0  0  0
    2.3686   -1.0952    1.7920 H   0  0  0  0  0  0  0  0  0  0  0  0
    6.1343   -3.3358   -0.0094 C   0  0  0  0  0  0  0  0  0  0  0  0
    5.8005   -4.2212    0.5675 H   0  0  0  0  0  0  0  0  0  0  0  0
    7.0829   -2.9859    0.4536 H   0  0  0  0  0  0  0  0  0  0  0  0
    6.3835   -3.6698   -1.0369 H   0  0  0  0  0  0  0  0  0  0  0  0
  1 22  1  0  0  0  0
  3 36  1  0  0  0  0
  4  1  1  1  0  0  0
  4 14  1  0  0  0  0
  5  2  1  0  0  0  0
  5  4  1  1  0  0  0
  6  5  1  0  0  0  0
  7  6  1  0  0  0  0
  8 10  1  0  0  0  0
  8  6  2  0  0  0  0
  9  8  1  0  0  0  0
 10 12  2  0  0  0  0
 11 10  1  0  0  0  0
 12  2  1  0  0  0  0
 12 13  1  0  0  0  0
 13  3  1  1  0  0  0
 13 18  1  0  0  0  0
 14 15  1  0  0  0  0
 14 17  1  0  0  0  0
 16 14  1  0  0  0  0
 18 19  1  0  0  0  0
 18 20  1  0  0  0  0
 21 18  1  0  0  0  0
 22 23  1  0  0  0  0
 23 24  1  0  0  0  0
 25 23  2  0  0  0  0
 25 26  1  0  0  0  0
 27 25  1  0  0  0  0
 28 30  1  0  0  0  0
 28 27  2  0  0  0  0
 29 28  1  0  0  0  0
 30 22  2  0  0  0  0
 31 30  1  0  0  0  0
 32 27  1  0  0  0  0
 32 34  1  0  0  0  0
 33 32  1  0  0  0  0
 35 32  1  0  0  0  0
 36 44  1  0  0  0  0
 37 36  2  0  0  0  0
 38 37  1  0  0  0  0
 39 37  1  0  0  0  0
 39 41  2  0  0  0  0
 40 39  1  0  0  0  0
 41 46  1  0  0  0  0
 41 42  1  0  0  0  0
 42 44  2  0  0  0  0
 42 43  1  0  0  0  0
 44 45  1  0  0  0  0
 46 48  1  0  0  0  0
 46 47  1  0  0  0  0
 49 46  1  0  0  0  0
M  END
