2,3,5
 OpenBabel05122313063D

 35 37  0  0  1  0  0  0  0  0999 V2000
    0.7570   -2.7328   -1.0956 O   0  0  0  0  0  0  0  0  0  0  0  0
   -2.2023   -1.0453    0.0564 N   0  0  0  0  0  2  0  0  0  0  0  0
    0.2932   -0.5517   -0.3967 N   0  0  0  0  0  2  0  0  0  0  0  0
    1.5773   -0.0480   -0.5007 N   0  0  0  0  0  0  0  0  0  0  0  0
    0.4688    1.9882   -0.1895 N   0  0  0  0  0  2  0  0  0  0  0  0
   -1.4588   -2.1023   -0.3741 C   0  0  1  0  0  3  0  0  0  0  0  0
   -0.0042   -1.8563   -0.6852 C   0  0  0  0  0  0  0  0  0  0  0  0
    2.6926   -0.8719   -0.0935 C   0  0  0  0  0  0  0  0  0  0  0  0
    2.7875   -1.2539    1.2544 C   0  0  0  0  0  0  0  0  0  0  0  0
    1.9958   -0.9345    1.9519 H   0  0  0  0  0  0  0  0  0  0  0  0
    3.8792   -2.0329    1.6623 C   0  0  0  0  0  0  0  0  0  0  0  0
    3.9639   -2.3417    2.7151 H   0  0  0  0  0  0  0  0  0  0  0  0
    4.8638   -2.4120    0.7346 C   0  0  0  0  0  0  0  0  0  0  0  0
    5.7207   -3.0207    1.0608 H   0  0  0  0  0  0  0  0  0  0  0  0
    4.7544   -2.0222   -0.6104 C   0  0  0  0  0  0  0  0  0  0  0  0
    5.5187   -2.3307   -1.3392 H   0  0  0  0  0  0  0  0  0  0  0  0
    3.6584   -1.2568   -1.0338 C   0  0  0  0  0  0  0  0  0  0  0  0
    3.5309   -0.9685   -2.0868 H   0  0  0  0  0  0  0  0  0  0  0  0
    1.6491    1.3239   -0.3952 C   0  0  2  0  0  3  0  0  0  0  0  0
    2.8670    2.0401   -0.4923 C   0  0  0  0  0  0  0  0  0  0  0  0
    3.8028    1.4846   -0.6320 H   0  0  0  0  0  0  0  0  0  0  0  0
    2.8385    3.4282   -0.4232 C   0  0  0  0  0  0  0  0  0  0  0  0
    3.7776    3.9956   -0.5027 H   0  0  0  0  0  0  0  0  0  0  0  0
    1.6090    4.1018   -0.2633 C   0  0  0  0  0  0  0  0  0  0  0  0
    1.5506    5.1969   -0.2119 H   0  0  0  0  0  0  0  0  0  0  0  0
    0.4502    3.3407   -0.1545 C   0  0  0  0  0  0  0  0  0  0  0  0
   -0.5370    3.8014   -0.0132 H   0  0  0  0  0  0  0  0  0  0  0  0
   -2.0156   -3.3761   -0.5180 C   0  0  0  0  0  0  0  0  0  0  0  0
   -1.3518   -4.1778   -0.8725 H   0  0  0  0  0  0  0  0  0  0  0  0
   -3.3681   -3.5686   -0.2102 C   0  0  0  0  0  0  0  0  0  0  0  0
   -3.8313   -4.5608   -0.3149 H   0  0  0  0  0  0  0  0  0  0  0  0
   -4.1220   -2.4721    0.2343 C   0  0  0  0  0  0  0  0  0  0  0  0
   -5.1863   -2.5715    0.4895 H   0  0  0  0  0  0  0  0  0  0  0  0
   -3.5053   -1.2215    0.3537 C   0  0  0  0  0  0  0  0  0  0  0  0
   -4.0573   -0.3347    0.6951 H   0  0  0  0  0  0  0  0  0  0  0  0
  1  7  2  0  0  0  0
  2 34  1  0  0  0  0
  4  3  1  0  0  0  0
  4  8  1  0  0  0  0
  5 26  1  0  0  0  0
  6  7  1  1  0  0  0
  6  2  1  0  0  0  0
  7  3  1  0  0  0  0
  8  9  1  0  0  0  0
  9 11  2  0  0  0  0
  9 10  1  0  0  0  0
 11 12  1  0  0  0  0
 13 14  1  0  0  0  0
 13 11  1  0  0  0  0
 15 13  2  0  0  0  0
 16 15  1  0  0  0  0
 17 15  1  0  0  0  0
 17  8  2  0  0  0  0
 18 17  1  0  0  0  0
 19  4  1  6  0  0  0
 19  5  1  0  0  0  0
 20 22  2  0  0  0  0
 20 19  1  0  0  0  0
 21 20  1  0  0  0  0
 22 24  1  0  0  0  0
 23 22  1  0  0  0  0
 24 25  1  0  0  0  0
 24 26  2  0  0  0  0
 26 27  1  0  0  0  0
 28  6  1  0  0  0  0
 28 30  2  0  0  0  0
 29 28  1  0  0  0  0
 30 32  1  0  0  0  0
 31 30  1  0  0  0  0
 32 34  2  0  0  0  0
 32 33  1  0  0  0  0
 34 35  1  0  0  0  0
M  END
