1,3,16
 OpenBabel05122313063D

 64 66  0  0  1  0  0  0  0  0999 V2000
    1.3033   -0.3030    1.2862 N   0  0  0  0  0  2  0  0  0  0  0  0
    4.4414   -0.2755   -0.3030 O   0  0  0  0  0  0  0  0  0  0  0  0
    0.4961   -0.5492   -1.1897 N   0  0  0  0  0  0  0  0  0  0  0  0
    1.4447   -0.2059   -2.3084 C   0  0  0  0  0  0  0  0  0  0  0  0
    0.9806    0.5600   -2.9683 H   0  0  0  0  0  0  0  0  0  0  0  0
    1.5790   -1.1465   -2.8797 H   0  0  0  0  0  0  0  0  0  0  0  0
    0.5179    0.6848    0.9606 C   0  0  1  0  0  3  0  0  0  0  0  0
   -1.4398   -1.6217    0.4900 N   0  0  0  0  0  0  0  0  0  0  0  0
    2.7883    2.7160   -1.2919 C   0  0  0  0  0  0  0  0  0  0  0  0
    3.3926    1.6043   -2.1291 C   0  0  0  0  0  0  0  0  0  0  0  0
    3.2382    1.8166   -3.2064 H   0  0  0  0  0  0  0  0  0  0  0  0
    4.4843    1.5425   -1.9475 H   0  0  0  0  0  0  0  0  0  0  0  0
   -1.7082   -1.7065   -0.7690 C   0  0  0  0  0  0  0  0  0  0  0  0
   -2.4909   -2.0106    1.3065 O   0  0  0  0  0  0  0  0  0  0  0  0
    1.7801   -0.3124    2.5637 O   0  0  0  0  0  0  0  0  0  0  0  0
    3.2861   -0.5968   -0.9545 N   0  0  0  0  0  2  0  0  0  0  0  0
    1.9468    3.6907   -1.8638 C   0  0  0  0  0  0  0  0  0  0  0  0
    1.7536    3.6697   -2.9485 H   0  0  0  0  0  0  0  0  0  0  0  0
   -4.2512   -0.6472   -3.0463 C   0  0  0  0  0  0  0  0  0  0  0  0
   -4.0085   -1.3809   -3.8316 H   0  0  0  0  0  0  0  0  0  0  0  0
   -3.0402   -2.1260   -1.3504 C   0  0  0  0  0  0  0  0  0  0  0  0
   -3.5764   -2.7330   -0.5957 H   0  0  0  0  0  0  0  0  0  0  0  0
   -2.8757   -2.7571   -2.2471 H   0  0  0  0  0  0  0  0  0  0  0  0
    2.7909    0.2627   -1.7842 C   0  0  1  0  0  3  0  0  0  0  0  0
    1.6222    4.7356    0.3092 C   0  0  0  0  0  0  0  0  0  0  0  0
    1.1766    5.5264    0.9316 H   0  0  0  0  0  0  0  0  0  0  0  0
    2.4591    3.7659    0.8891 C   0  0  0  0  0  0  0  0  0  0  0  0
    2.6660    3.7929    1.9699 H   0  0  0  0  0  0  0  0  0  0  0  0
   -1.2930    1.2065    2.5700 C   0  0  0  0  0  0  0  0  0  0  0  0
   -3.8488   -0.8948   -1.7204 C   0  0  0  0  0  0  0  0  0  0  0  0
    3.0278    2.7567    0.1005 C   0  0  0  0  0  0  0  0  0  0  0  0
    3.6638    1.9816    0.5549 H   0  0  0  0  0  0  0  0  0  0  0  0
    0.0494    0.6852   -0.4561 C   0  0  0  0  0  0  0  0  0  0  0  0
   -1.0583    0.7591   -0.4850 H   0  0  0  0  0  0  0  0  0  0  0  0
    0.4445    1.5885   -0.9707 H   0  0  0  0  0  0  0  0  0  0  0  0
   -0.6613   -1.2818   -1.7578 C   0  0  0  0  0  0  0  0  0  0  0  0
   -0.2450   -2.1952   -2.2400 H   0  0  0  0  0  0  0  0  0  0  0  0
   -1.1536   -0.6521   -2.5377 H   0  0  0  0  0  0  0  0  0  0  0  0
   -5.2703    1.4601   -2.3805 C   0  0  0  0  0  0  0  0  0  0  0  0
   -5.8247    2.3755   -2.6374 H   0  0  0  0  0  0  0  0  0  0  0  0
    1.3640    4.6926   -1.0696 C   0  0  0  0  0  0  0  0  0  0  0  0
    0.7128    5.4490   -1.5339 H   0  0  0  0  0  0  0  0  0  0  0  0
   -4.9603    0.5204   -3.3749 C   0  0  0  0  0  0  0  0  0  0  0  0
   -5.2703    0.6961   -4.4164 H   0  0  0  0  0  0  0  0  0  0  0  0
    0.0028    1.6986    1.9430 C   0  0  0  0  0  0  0  0  0  0  0  0
   -0.1635    2.6612    1.4214 H   0  0  0  0  0  0  0  0  0  0  0  0
    0.7738    1.8611    2.7205 H   0  0  0  0  0  0  0  0  0  0  0  0
   -2.5338    1.7507    2.1916 C   0  0  0  0  0  0  0  0  0  0  0  0
   -2.5642    2.5689    1.4543 H   0  0  0  0  0  0  0  0  0  0  0  0
   -1.2725    0.1547    3.5138 C   0  0  0  0  0  0  0  0  0  0  0  0
   -0.3049   -0.2823    3.8022 H   0  0  0  0  0  0  0  0  0  0  0  0
   -4.1630    0.0577   -0.7263 C   0  0  0  0  0  0  0  0  0  0  0  0
   -3.8477   -0.1294    0.3116 H   0  0  0  0  0  0  0  0  0  0  0  0
   -4.8685    1.2233   -1.0547 C   0  0  0  0  0  0  0  0  0  0  0  0
   -5.1088    1.9544   -0.2668 H   0  0  0  0  0  0  0  0  0  0  0  0
   -3.7318    1.2615    2.7399 C   0  0  0  0  0  0  0  0  0  0  0  0
   -4.6934    1.6996    2.4316 H   0  0  0  0  0  0  0  0  0  0  0  0
   -3.7044    0.2162    3.6734 C   0  0  0  0  0  0  0  0  0  0  0  0
   -4.6415   -0.1686    4.1025 H   0  0  0  0  0  0  0  0  0  0  0  0
   -2.4686   -0.3321    4.0640 C   0  0  0  0  0  0  0  0  0  0  0  0
   -2.4364   -1.1417    4.8099 H   0  0  0  0  0  0  0  0  0  0  0  0
    2.3842   -1.1288    2.5316 H   0  0  0  0  0  0  0  0  0  0  0  0
    4.4956   -1.0360    0.3360 H   0  0  0  0  0  0  0  0  0  0  0  0
   -2.1865   -1.7273    2.1953 H   0  0  0  0  0  0  0  0  0  0  0  0
  1 15  1  0  0  0  0
  2 63  1  0  0  0  0
  3 33  1  0  0  0  0
  4 24  1  0  0  0  0
  4  3  1  0  0  0  0
  5  4  1  0  0  0  0
  6  4  1  0  0  0  0
  7  1  1  1  0  0  0
  7 45  1  0  0  0  0
  8 14  1  0  0  0  0
  9 31  1  0  0  0  0
 10 12  1  0  0  0  0
 10 24  1  0  0  0  0
 10  9  1  0  0  0  0
 11 10  1  0  0  0  0
 13  8  2  0  0  0  0
 14 64  1  0  0  0  0
 16  2  1  0  0  0  0
 17  9  2  0  0  0  0
 17 41  1  0  0  0  0
 18 17  1  0  0  0  0
 19 30  1  0  0  0  0
 20 19  1  0  0  0  0
 21 13  1  0  0  0  0
 21 22  1  0  0  0  0
 23 21  1  0  0  0  0
 24 16  1  1  0  0  0
 25 27  1  0  0  0  0
 25 26  1  0  0  0  0
 27 28  1  0  0  0  0
 29 50  1  0  0  0  0
 30 21  1  0  0  0  0
 30 52  2  0  0  0  0
 31 32  1  0  0  0  0
 31 27  2  0  0  0  0
 33  7  1  0  0  0  0
 34 33  1  0  0  0  0
 35 33  1  0  0  0  0
 36  3  1  0  0  0  0
 36 13  1  0  0  0  0
 37 36  1  0  0  0  0
 38 36  1  0  0  0  0
 39 54  2  0  0  0  0
 40 39  1  0  0  0  0
 41 25  2  0  0  0  0
 42 41  1  0  0  0  0
 43 19  2  0  0  0  0
 43 39  1  0  0  0  0
 44 43  1  0  0  0  0
 45 29  1  0  0  0  0
 45 47  1  0  0  0  0
 46 45  1  0  0  0  0
 48 29  2  0  0  0  0
 48 56  1  0  0  0  0
 49 48  1  0  0  0  0
 50 51  1  0  0  0  0
 50 60  2  0  0  0  0
 52 53  1  0  0  0  0
 54 52  1  0  0  0  0
 54 55  1  0  0  0  0
 56 58  2  0  0  0  0
 57 56  1  0  0  0  0
 58 60  1  0  0  0  0
 58 59  1  0  0  0  0
 60 61  1  0  0  0  0
 62 15  1  0  0  0  0
M  END
