5,7,9
 OpenBabel05122313063D

 47 47  0  0  0  0  0  0  0  0999 V2000
    2.5605    1.6294    0.0702 O   0  0  0  0  0  0  0  0  0  0  0  0
    4.5311    1.8962    1.1242 O   0  0  0  0  0  0  0  0  0  0  0  0
    4.0991    2.7427    1.3770 H   0  0  0  0  0  0  0  0  0  0  0  0
    2.1561   -1.3272   -0.7452 N   0  0  0  0  0  0  0  0  0  0  0  0
    0.1332    0.6523   -1.3858 N   0  0  0  0  0  0  0  0  0  0  0  0
    0.9793    0.8587   -0.8137 H   0  0  0  0  0  0  0  0  0  0  0  0
   -1.2626    1.7435    0.9678 N   0  0  0  0  0  0  0  0  0  0  0  0
   -2.1171    1.6074    1.5408 H   0  0  0  0  0  0  0  0  0  0  0  0
    0.3421   -0.5341    1.3520 N   0  0  0  0  0  0  0  0  0  0  0  0
    1.1732   -0.3464    0.7449 H   0  0  0  0  0  0  0  0  0  0  0  0
    1.2632   -1.5540   -1.8913 C   0  0  0  0  0  0  0  0  0  0  0  0
    0.4817   -2.2664   -1.5820 H   0  0  0  0  0  0  0  0  0  0  0  0
    1.7972   -2.0559   -2.7356 H   0  0  0  0  0  0  0  0  0  0  0  0
    0.6141   -0.2801   -2.4408 C   0  0  0  0  0  0  0  0  0  0  0  0
    1.3374    0.2816   -3.0727 H   0  0  0  0  0  0  0  0  0  0  0  0
   -0.2370   -0.5463   -3.0988 H   0  0  0  0  0  0  0  0  0  0  0  0
   -0.2917    1.9529   -1.9887 C   0  0  0  0  0  0  0  0  0  0  0  0
   -1.2662    1.7864   -2.4873 H   0  0  0  0  0  0  0  0  0  0  0  0
    0.4577    2.2269   -2.7626 H   0  0  0  0  0  0  0  0  0  0  0  0
   -0.3737    3.0889   -0.9701 C   0  0  0  0  0  0  0  0  0  0  0  0
   -0.6047    4.0158   -1.5333 H   0  0  0  0  0  0  0  0  0  0  0  0
    0.6299    3.2584   -0.5252 H   0  0  0  0  0  0  0  0  0  0  0  0
   -1.4417    2.9486    0.1126 C   0  0  0  0  0  0  0  0  0  0  0  0
   -1.4359    3.8465    0.7674 H   0  0  0  0  0  0  0  0  0  0  0  0
   -2.4442    2.8553   -0.3456 H   0  0  0  0  0  0  0  0  0  0  0  0
   -0.0886    1.8284    1.8785 C   0  0  0  0  0  0  0  0  0  0  0  0
   -0.2861    2.5569    2.6929 H   0  0  0  0  0  0  0  0  0  0  0  0
    0.7745    2.2009    1.2957 H   0  0  0  0  0  0  0  0  0  0  0  0
    0.2279    0.4590    2.4510 C   0  0  0  0  0  0  0  0  0  0  0  0
    1.1709    0.4935    3.0387 H   0  0  0  0  0  0  0  0  0  0  0  0
   -0.5868    0.1130    3.1177 H   0  0  0  0  0  0  0  0  0  0  0  0
    0.5425   -1.9086    1.8937 C   0  0  0  0  0  0  0  0  0  0  0  0
   -0.4134   -2.2307    2.3538 H   0  0  0  0  0  0  0  0  0  0  0  0
    1.2956   -1.8337    2.7109 H   0  0  0  0  0  0  0  0  0  0  0  0
    1.0253   -2.9231    0.8587 C   0  0  0  0  0  0  0  0  0  0  0  0
    0.2071   -3.1908    0.1630 H   0  0  0  0  0  0  0  0  0  0  0  0
    1.2377   -3.8643    1.4058 H   0  0  0  0  0  0  0  0  0  0  0  0
    2.2955   -2.5399    0.0894 C   0  0  0  0  0  0  0  0  0  0  0  0
    3.1080   -2.3517    0.8220 H   0  0  0  0  0  0  0  0  0  0  0  0
    2.6336   -3.4097   -0.5269 H   0  0  0  0  0  0  0  0  0  0  0  0
    3.4587   -0.8100   -1.1906 C   0  0  0  0  0  0  0  0  0  0  0  0
    3.2784   -0.0888   -2.0125 H   0  0  0  0  0  0  0  0  0  0  0  0
    4.0806   -1.6294   -1.6272 H   0  0  0  0  0  0  0  0  0  0  0  0
    4.2690   -0.1027   -0.1077 C   0  0  0  0  0  0  0  0  0  0  0  0
    4.4159   -0.7368    0.7937 H   0  0  0  0  0  0  0  0  0  0  0  0
    5.2993    0.0957   -0.4689 H   0  0  0  0  0  0  0  0  0  0  0  0
    3.6837    1.2108    0.3519 C   0  0  0  0  0  0  0  0  0  0  0  0
  1 47  2  0  0  0  0
  2  3  1  0  0  0  0
  4 38  1  0  0  0  0
  5  6  1  0  0  0  0
  7  8  1  0  0  0  0
  7 26  1  0  0  0  0
  9 32  1  0  0  0  0
  9 29  1  0  0  0  0
 10  9  1  0  0  0  0
 11 12  1  0  0  0  0
 11  4  1  0  0  0  0
 13 11  1  0  0  0  0
 14 11  1  0  0  0  0
 14  5  1  0  0  0  0
 15 14  1  0  0  0  0
 16 14  1  0  0  0  0
 17  5  1  0  0  0  0
 17 20  1  0  0  0  0
 18 17  1  0  0  0  0
 19 17  1  0  0  0  0
 20 22  1  0  0  0  0
 20 23  1  0  0  0  0
 21 20  1  0  0  0  0
 23 24  1  0  0  0  0
 23  7  1  0  0  0  0
 25 23  1  0  0  0  0
 26 29  1  0  0  0  0
 26 27  1  0  0  0  0
 28 26  1  0  0  0  0
 29 30  1  0  0  0  0
 29 31  1  0  0  0  0
 32 33  1  0  0  0  0
 32 34  1  0  0  0  0
 35 37  1  0  0  0  0
 35 32  1  0  0  0  0
 36 35  1  0  0  0  0
 38 39  1  0  0  0  0
 38 35  1  0  0  0  0
 40 38  1  0  0  0  0
 41  4  1  0  0  0  0
 41 44  1  0  0  0  0
 42 41  1  0  0  0  0
 43 41  1  0  0  0  0
 44 47  1  0  0  0  0
 44 45  1  0  0  0  0
 46 44  1  0  0  0  0
 47  2  1  0  0  0  0
M  END
