1,2,3
 OpenBabel05122313063D

 75 77  0  0  1  0  0  0  0  0999 V2000
   -1.9930    0.3483    0.3955 N   0  0  0  0  0  2  0  0  0  0  0  0
    1.9368    0.4946    0.0287 N   0  0  0  0  0  2  0  0  0  0  0  0
   -0.0932    2.0413    0.1614 N   0  0  0  0  0  2  0  0  0  0  0  0
    2.9252   -0.4818   -0.3203 C   0  0  0  0  0  0  0  0  0  0  0  0
   -2.4622    1.7372    0.5930 C   0  0  0  0  0  0  0  0  0  0  0  0
   -2.8863   -0.6031   -0.1825 C   0  0  0  0  0  0  0  0  0  0  0  0
    0.9866    4.1094   -0.3639 C   0  0  0  0  0  0  0  0  0  0  0  0
    1.9073    4.6650   -0.5877 H   0  0  0  0  0  0  0  0  0  0  0  0
    3.0230   -0.9402   -1.6779 C   0  0  0  0  0  0  0  0  0  0  0  0
    3.7998   -1.0440    0.6629 C   0  0  0  0  0  0  0  0  0  0  0  0
   -3.6928   -1.4560    0.6222 C   0  0  0  0  0  0  0  0  0  0  0  0
   -2.9352   -0.7247   -1.6102 C   0  0  0  0  0  0  0  0  0  0  0  0
   -1.9659    0.0769   -2.4592 C   0  0  0  0  0  0  0  0  0  0  0  0
   -0.9348   -0.2340   -2.1707 H   0  0  0  0  0  0  0  0  0  0  0  0
   -2.0124    1.1484   -2.1738 H   0  0  0  0  0  0  0  0  0  0  0  0
    3.6781   -0.7182    2.1398 C   0  0  0  0  0  0  0  0  0  0  0  0
    2.7751   -0.1002    2.2921 H   0  0  0  0  0  0  0  0  0  0  0  0
    4.5389   -0.0868    2.4545 H   0  0  0  0  0  0  0  0  0  0  0  0
   -1.4147    4.0253   -0.0539 C   0  0  0  0  0  0  0  0  0  0  0  0
   -2.3974    4.5151   -0.0273 H   0  0  0  0  0  0  0  0  0  0  0  0
   -3.8321   -1.6344   -2.1922 C   0  0  0  0  0  0  0  0  0  0  0  0
   -3.8823   -1.7288   -3.2865 H   0  0  0  0  0  0  0  0  0  0  0  0
    1.0378    2.7299   -0.1031 C   0  0  1  0  0  3  0  0  0  0  0  0
   -1.3025    2.6508    0.1961 C   0  0  0  0  0  0  0  0  0  0  0  0
    4.9205   -2.3612   -1.0719 C   0  0  0  0  0  0  0  0  0  0  0  0
    5.7071   -3.0728   -1.3661 H   0  0  0  0  0  0  0  0  0  0  0  0
   -4.6647   -2.4375   -1.3970 C   0  0  0  0  0  0  0  0  0  0  0  0
   -5.3689   -3.1389   -1.8700 H   0  0  0  0  0  0  0  0  0  0  0  0
    4.0257   -1.8622   -2.0255 C   0  0  0  0  0  0  0  0  0  0  0  0
    4.1052   -2.1993   -3.0707 H   0  0  0  0  0  0  0  0  0  0  0  0
    4.7888   -1.9646    0.2611 C   0  0  0  0  0  0  0  0  0  0  0  0
    5.4700   -2.3807    1.0195 H   0  0  0  0  0  0  0  0  0  0  0  0
   -3.0542   -2.7850    2.6969 C   0  0  0  0  0  0  0  0  0  0  0  0
   -3.6994   -3.6433    2.4198 H   0  0  0  0  0  0  0  0  0  0  0  0
   -2.9919   -2.7510    3.8036 H   0  0  0  0  0  0  0  0  0  0  0  0
   -2.0378   -2.9973    2.3074 H   0  0  0  0  0  0  0  0  0  0  0  0
   -2.1092   -0.0542   -3.9734 C   0  0  0  0  0  0  0  0  0  0  0  0
   -1.9585   -1.0984   -4.3143 H   0  0  0  0  0  0  0  0  0  0  0  0
   -1.3549    0.5731   -4.4888 H   0  0  0  0  0  0  0  0  0  0  0  0
   -3.1107    0.2713   -4.3231 H   0  0  0  0  0  0  0  0  0  0  0  0
    1.4404   -1.5934   -3.5997 C   0  0  0  0  0  0  0  0  0  0  0  0
    0.8856   -2.3100   -2.9641 H   0  0  0  0  0  0  0  0  0  0  0  0
    2.2022   -2.1664   -4.1656 H   0  0  0  0  0  0  0  0  0  0  0  0
    0.7308   -1.1727   -4.3404 H   0  0  0  0  0  0  0  0  0  0  0  0
   -0.2545    4.7571   -0.3467 C   0  0  0  0  0  0  0  0  0  0  0  0
   -0.3199    5.8334   -0.5675 H   0  0  0  0  0  0  0  0  0  0  0  0
   -3.5897   -1.4610    2.1330 C   0  0  0  0  0  0  0  0  0  0  0  0
   -4.5901   -1.2526    2.5727 H   0  0  0  0  0  0  0  0  0  0  0  0
   -2.9226   -0.6371    2.4452 H   0  0  0  0  0  0  0  0  0  0  0  0
   -3.7516    2.0818   -0.1765 C   0  0  0  0  0  0  0  0  0  0  0  0
   -3.6198    2.0193   -1.2723 H   0  0  0  0  0  0  0  0  0  0  0  0
   -4.0987    3.1026    0.0765 H   0  0  0  0  0  0  0  0  0  0  0  0
   -4.5546    1.3765    0.1099 H   0  0  0  0  0  0  0  0  0  0  0  0
    2.3267    1.9167   -0.0838 C   0  0  0  0  0  0  0  0  0  0  0  0
   -4.5795   -2.3559   -0.0054 C   0  0  0  0  0  0  0  0  0  0  0  0
   -5.2139   -3.0044    0.6204 H   0  0  0  0  0  0  0  0  0  0  0  0
   -2.7244    2.0133    2.1044 C   0  0  0  0  0  0  0  0  0  0  0  0
   -3.5846    1.4081    2.4490 H   0  0  0  0  0  0  0  0  0  0  0  0
   -2.9558    3.0823    2.2899 H   0  0  0  0  0  0  0  0  0  0  0  0
   -1.8382    1.7312    2.7060 H   0  0  0  0  0  0  0  0  0  0  0  0
    2.0629   -0.4736   -2.7573 C   0  0  0  0  0  0  0  0  0  0  0  0
    2.5945    0.2302   -3.4359 H   0  0  0  0  0  0  0  0  0  0  0  0
    1.2612    0.1235   -2.2778 H   0  0  0  0  0  0  0  0  0  0  0  0
    3.1535    2.2432   -1.3505 C   0  0  0  0  0  0  0  0  0  0  0  0
    4.0318    1.5723   -1.4087 H   0  0  0  0  0  0  0  0  0  0  0  0
    3.5304    3.2839   -1.3164 H   0  0  0  0  0  0  0  0  0  0  0  0
    2.5566    2.1222   -2.2721 H   0  0  0  0  0  0  0  0  0  0  0  0
    3.6105   -1.9545    3.0456 C   0  0  0  0  0  0  0  0  0  0  0  0
    4.5454   -2.5499    3.0191 H   0  0  0  0  0  0  0  0  0  0  0  0
    2.7841   -2.6274    2.7383 H   0  0  0  0  0  0  0  0  0  0  0  0
    3.4350   -1.6600    4.0998 H   0  0  0  0  0  0  0  0  0  0  0  0
    3.1520    2.3777    1.1500 C   0  0  0  0  0  0  0  0  0  0  0  0
    2.5996    2.1766    2.0878 H   0  0  0  0  0  0  0  0  0  0  0  0
    3.3837    3.4608    1.0997 H   0  0  0  0  0  0  0  0  0  0  0  0
    4.1106    1.8252    1.1797 H   0  0  0  0  0  0  0  0  0  0  0  0
  1  5  1  0  0  0  0
  3 24  1  0  0  0  0
  4  2  1  0  0  0  0
  4 10  1  0  0  0  0
  5 57  1  0  0  0  0
  6  1  1  0  0  0  0
  6 11  1  0  0  0  0
  7 45  2  0  0  0  0
  7 23  1  0  0  0  0
  8  7  1  0  0  0  0
  9  4  2  0  0  0  0
 10 16  1  0  0  0  0
 11 47  1  0  0  0  0
 12  6  2  0  0  0  0
 13 15  1  0  0  0  0
 13 14  1  0  0  0  0
 13 12  1  0  0  0  0
 16 17  1  0  0  0  0
 16 18  1  0  0  0  0
 16 68  1  0  0  0  0
 19 20  1  0  0  0  0
 19 24  2  0  0  0  0
 21 12  1  0  0  0  0
 21 27  2  0  0  0  0
 22 21  1  0  0  0  0
 23 54  1  1  0  0  0
 23  3  1  0  0  0  0
 24  5  1  0  0  0  0
 25 31  1  0  0  0  0
 26 25  1  0  0  0  0
 27 55  1  0  0  0  0
 28 27  1  0  0  0  0
 29  9  1  0  0  0  0
 29 25  2  0  0  0  0
 30 29  1  0  0  0  0
 31 10  2  0  0  0  0
 31 32  1  0  0  0  0
 33 35  1  0  0  0  0
 34 33  1  0  0  0  0
 36 33  1  0  0  0  0
 37 13  1  0  0  0  0
 38 37  1  0  0  0  0
 39 37  1  0  0  0  0
 40 37  1  0  0  0  0
 41 42  1  0  0  0  0
 41 61  1  0  0  0  0
 43 41  1  0  0  0  0
 44 41  1  0  0  0  0
 45 19  1  0  0  0  0
 46 45  1  0  0  0  0
 47 49  1  0  0  0  0
 47 48  1  0  0  0  0
 47 33  1  0  0  0  0
 50 52  1  0  0  0  0
 50 53  1  0  0  0  0
 50  5  1  0  0  0  0
 51 50  1  0  0  0  0
 54  2  1  0  0  0  0
 54 72  1  0  0  0  0
 55 56  1  0  0  0  0
 55 11  2  0  0  0  0
 57 59  1  0  0  0  0
 57 58  1  0  0  0  0
 57 60  1  0  0  0  0
 61 63  1  0  0  0  0
 61  9  1  0  0  0  0
 62 61  1  0  0  0  0
 64 66  1  0  0  0  0
 64 54  1  0  0  0  0
 65 64  1  0  0  0  0
 67 64  1  0  0  0  0
 68 71  1  0  0  0  0
 69 68  1  0  0  0  0
 70 68  1  0  0  0  0
 72 75  1  0  0  0  0
 72 73  1  0  0  0  0
 74 72  1  0  0  0  0
M  END
