1,2,3
 OpenBabel05122313063D

 62 67  0  0  1  0  0  0  0  0999 V2000
   -4.5534   -1.8570   -0.1724 N   0  0  0  0  0  2  0  0  0  0  0  0
   -2.6477   -0.0683    0.0350 N   0  0  0  0  0  2  0  0  0  0  0  0
   -3.7757    2.2566    0.4805 N   0  0  0  0  0  2  0  0  0  0  0  0
    6.7038   -0.5169   -0.2478 N   0  0  0  0  0  0  0  0  0  0  0  0
    8.0262    1.3312   -0.8932 N   0  0  0  0  0  0  0  0  0  0  0  0
    7.1305   -1.8660    1.6058 N   0  0  0  0  0  0  0  0  0  0  0  0
   -5.6052   -2.6784   -0.2607 C   0  0  0  0  0  3  0  0  0  0  0  0
   -6.5877   -2.2193   -0.0614 H   0  0  0  0  0  0  0  0  0  0  0  0
   -5.4667   -4.0367   -0.5824 C   0  0  0  0  0  0  0  0  0  0  0  0
   -6.3520   -4.6850   -0.6482 H   0  0  0  0  0  0  0  0  0  0  0  0
   -4.1764   -4.5346   -0.8156 C   0  0  0  0  0  0  0  0  0  0  0  0
   -4.0232   -5.5931   -1.0742 H   0  0  0  0  0  0  0  0  0  0  0  0
   -3.0789   -3.6698   -0.7161 C   0  0  0  0  0  0  0  0  0  0  0  0
   -2.0615   -4.0427   -0.8962 H   0  0  0  0  0  0  0  0  0  0  0  0
   -3.3041   -2.3199   -0.3896 C   0  0  0  0  0  0  0  0  0  0  0  0
   -2.2207   -1.3087   -0.2423 C   0  0  2  0  0  3  0  0  0  0  0  0
   -0.8507   -1.5887   -0.3577 C   0  0  0  0  0  0  0  0  0  0  0  0
   -0.5013   -2.6115   -0.5507 H   0  0  0  0  0  0  0  0  0  0  0  0
    0.0913   -0.5496   -0.1904 C   0  0  0  0  0  0  0  0  0  0  0  0
   -0.4012    0.7391    0.1046 C   0  0  0  0  0  0  0  0  0  0  0  0
    0.2997    1.5777    0.2107 H   0  0  0  0  0  0  0  0  0  0  0  0
   -1.7871    0.9424    0.2156 C   0  0  0  0  0  0  0  0  0  0  0  0
   -2.4258    2.2533    0.5202 C   0  0  2  0  0  3  0  0  0  0  0  0
   -1.7070    3.4222    0.8343 C   0  0  0  0  0  0  0  0  0  0  0  0
   -0.6092    3.4135    0.8725 H   0  0  0  0  0  0  0  0  0  0  0  0
   -2.4149    4.5991    1.1088 C   0  0  0  0  0  0  0  0  0  0  0  0
   -1.8730    5.5235    1.3588 H   0  0  0  0  0  0  0  0  0  0  0  0
   -3.8169    4.5831    1.0658 C   0  0  0  0  0  0  0  0  0  0  0  0
   -4.4073    5.4858    1.2778 H   0  0  0  0  0  0  0  0  0  0  0  0
   -4.4569    3.3769    0.7459 C   0  0  0  0  0  0  0  0  0  0  0  0
   -5.5552    3.2909    0.7026 H   0  0  0  0  0  0  0  0  0  0  0  0
    1.5446   -0.8042   -0.3211 C   0  0  0  0  0  0  0  0  0  0  0  0
    2.0372   -1.7413   -1.2573 C   0  0  0  0  0  0  0  0  0  0  0  0
    1.3345   -2.2679   -1.9205 H   0  0  0  0  0  0  0  0  0  0  0  0
    3.4108   -1.9718   -1.3869 C   0  0  0  0  0  0  0  0  0  0  0  0
    3.7712   -2.6936   -2.1374 H   0  0  0  0  0  0  0  0  0  0  0  0
    4.3412   -1.2845   -0.5821 C   0  0  0  0  0  0  0  0  0  0  0  0
    3.8545   -0.3514    0.3528 C   0  0  0  0  0  0  0  0  0  0  0  0
    4.5645    0.1959    0.9905 H   0  0  0  0  0  0  0  0  0  0  0  0
    2.4814   -0.1134    0.4792 C   0  0  0  0  0  0  0  0  0  0  0  0
    2.1260    0.6021    1.2360 H   0  0  0  0  0  0  0  0  0  0  0  0
    5.8200   -1.5879   -0.7049 C   0  0  0  0  0  0  0  0  0  0  0  0
    6.0643   -2.4597   -0.0616 H   0  0  0  0  0  0  0  0  0  0  0  0
    6.0760   -1.8591   -1.7492 H   0  0  0  0  0  0  0  0  0  0  0  0
    6.9696    0.5356   -1.1391 C   0  0  0  0  0  0  0  0  0  0  0  0
    6.1546    0.7229   -2.2917 C   0  0  0  0  0  0  0  0  0  0  0  0
    5.2642    0.1086   -2.4725 H   0  0  0  0  0  0  0  0  0  0  0  0
    6.4879    1.7420   -3.1861 C   0  0  0  0  0  0  0  0  0  0  0  0
    5.8666    1.9015   -4.0807 H   0  0  0  0  0  0  0  0  0  0  0  0
    7.6011    2.5597   -2.9322 C   0  0  0  0  0  0  0  0  0  0  0  0
    7.8926    3.3708   -3.6143 H   0  0  0  0  0  0  0  0  0  0  0  0
    8.3243    2.3083   -1.7589 C   0  0  0  0  0  0  0  0  0  0  0  0
    9.2014    2.9289   -1.5000 H   0  0  0  0  0  0  0  0  0  0  0  0
    7.2482   -0.6438    1.0567 C   0  0  0  0  0  0  0  0  0  0  0  0
    7.8225    0.4359    1.7775 C   0  0  0  0  0  0  0  0  0  0  0  0
    7.9271    1.4187    1.3092 H   0  0  0  0  0  0  0  0  0  0  0  0
    8.2738    0.1968    3.0772 C   0  0  0  0  0  0  0  0  0  0  0  0
    8.7171    1.0238    3.6530 H   0  0  0  0  0  0  0  0  0  0  0  0
    8.1595   -1.0847    3.6419 C   0  0  0  0  0  0  0  0  0  0  0  0
    8.5079   -1.3038    4.6612 H   0  0  0  0  0  0  0  0  0  0  0  0
    7.5727   -2.0797    2.8514 C   0  0  0  0  0  0  0  0  0  0  0  0
    7.4479   -3.1066    3.2391 H   0  0  0  0  0  0  0  0  0  0  0  0
  2 22  1  0  0  0  0
  3 23  1  0  0  0  0
  3 30  1  0  0  0  0
  4 54  1  0  0  0  0
  6 61  1  0  0  0  0
  7  1  1  0  0  0  0
  7  8  1  0  0  0  0
  9  7  1  0  0  0  0
 10  9  1  0  0  0  0
 11 13  1  0  0  0  0
 11  9  2  0  0  0  0
 12 11  1  0  0  0  0
 13 15  2  0  0  0  0
 14 13  1  0  0  0  0
 15  1  1  0  0  0  0
 16 15  1  1  0  0  0
 16  2  1  0  0  0  0
 17 16  1  0  0  0  0
 17 19  2  0  0  0  0
 18 17  1  0  0  0  0
 19 20  1  0  0  0  0
 20 21  1  0  0  0  0
 20 22  2  0  0  0  0
 23 22  1  1  0  0  0
 23 24  1  0  0  0  0
 24 25  1  0  0  0  0
 24 26  2  0  0  0  0
 26 27  1  0  0  0  0
 28 26  1  0  0  0  0
 28 29  1  0  0  0  0
 30 28  2  0  0  0  0
 31 30  1  0  0  0  0
 32 19  1  0  0  0  0
 32 40  1  0  0  0  0
 33 32  2  0  0  0  0
 34 33  1  0  0  0  0
 35 33  1  0  0  0  0
 35 37  2  0  0  0  0
 36 35  1  0  0  0  0
 37 38  1  0  0  0  0
 38 40  2  0  0  0  0
 38 39  1  0  0  0  0
 40 41  1  0  0  0  0
 42 37  1  0  0  0  0
 42  4  1  0  0  0  0
 42 43  1  0  0  0  0
 44 42  1  0  0  0  0
 45  5  1  0  0  0  0
 45  4  1  0  0  0  0
 46 45  2  0  0  0  0
 47 46  1  0  0  0  0
 48 50  2  0  0  0  0
 48 46  1  0  0  0  0
 49 48  1  0  0  0  0
 50 52  1  0  0  0  0
 51 50  1  0  0  0  0
 52 53  1  0  0  0  0
 52  5  2  0  0  0  0
 54  6  2  0  0  0  0
 54 55  1  0  0  0  0
 55 57  2  0  0  0  0
 56 55  1  0  0  0  0
 57 59  1  0  0  0  0
 57 58  1  0  0  0  0
 59 60  1  0  0  0  0
 61 62  1  0  0  0  0
 61 59  2  0  0  0  0
M  END
