3,4,5
 OpenBabel05122313063D

 67 73  0  0  1  0  0  0  0  0999 V2000
    3.5508   -0.5934    2.3651 O   0  0  0  0  0  0  0  0  0  0  0  0
   -3.5506   -0.5925    2.3654 O   0  0  0  0  0  0  0  0  0  0  0  0
    1.9833    0.0869    0.8612 N   0  0  0  0  0  2  0  0  0  0  0  0
    0.0001   -0.4505    2.3369 N   0  0  0  0  0  2  0  0  0  0  0  0
   -1.9831    0.0872    0.8613 N   0  0  0  0  0  2  0  0  0  0  0  0
    3.2672    0.0653    0.0711 C   0  0  0  0  0  0  0  0  0  0  0  0
    4.3001   -0.0484    1.2370 C   0  0  0  0  0  0  0  0  0  0  0  0
    5.1530   -0.7160    1.0243 H   0  0  0  0  0  0  0  0  0  0  0  0
    4.6698    0.9524    1.5361 H   0  0  0  0  0  0  0  0  0  0  0  0
    2.2721   -0.3678    2.0573 C   0  0  0  0  0  0  0  0  0  0  0  0
    1.1802   -0.6744    2.9711 C   0  0  0  0  0  0  0  0  0  0  0  0
    1.2199   -1.1417    4.2938 C   0  0  0  0  0  0  0  0  0  0  0  0
    2.1879   -1.3139    4.7840 H   0  0  0  0  0  0  0  0  0  0  0  0
    0.0001   -1.3768    4.9551 C   0  0  0  0  0  0  0  0  0  0  0  0
    0.0001   -1.7434    5.9913 H   0  0  0  0  0  0  0  0  0  0  0  0
   -1.2196   -1.1415    4.2939 C   0  0  0  0  0  0  0  0  0  0  0  0
   -2.1876   -1.3134    4.7842 H   0  0  0  0  0  0  0  0  0  0  0  0
   -1.1800   -0.6742    2.9711 C   0  0  0  0  0  0  0  0  0  0  0  0
   -2.2719   -0.3674    2.0574 C   0  0  2  0  0  3  0  0  0  0  0  0
   -4.2999   -0.0472    1.2375 C   0  0  0  0  0  0  0  0  0  0  0  0
   -4.6690    0.9538    1.5366 H   0  0  0  0  0  0  0  0  0  0  0  0
   -5.1531   -0.7143    1.0249 H   0  0  0  0  0  0  0  0  0  0  0  0
   -3.2671    0.0660    0.0714 C   0  0  0  0  0  0  0  0  0  0  0  0
    3.2253   -1.1775   -0.8334 C   0  0  0  0  0  0  0  0  0  0  0  0
    3.6819   -2.4317   -0.3811 C   0  0  0  0  0  0  0  0  0  0  0  0
    4.0816   -2.5512    0.6371 H   0  0  0  0  0  0  0  0  0  0  0  0
    3.6426   -3.5534   -1.2256 C   0  0  0  0  0  0  0  0  0  0  0  0
    4.0283   -4.5196   -0.8662 H   0  0  0  0  0  0  0  0  0  0  0  0
    3.1329   -3.4352   -2.5282 C   0  0  0  0  0  0  0  0  0  0  0  0
    3.1197   -4.3089   -3.1976 H   0  0  0  0  0  0  0  0  0  0  0  0
    2.6422   -2.1955   -2.9711 C   0  0  0  0  0  0  0  0  0  0  0  0
    2.2300   -2.0946   -3.9866 H   0  0  0  0  0  0  0  0  0  0  0  0
    2.6853   -1.0744   -2.1307 C   0  0  0  0  0  0  0  0  0  0  0  0
    2.2767   -0.1115   -2.4689 H   0  0  0  0  0  0  0  0  0  0  0  0
    3.5955    1.3315   -0.7121 C   0  0  0  0  0  0  0  0  0  0  0  0
    4.7648    1.3275   -1.5012 C   0  0  0  0  0  0  0  0  0  0  0  0
    5.3536    0.4028   -1.6056 H   0  0  0  0  0  0  0  0  0  0  0  0
    5.1754    2.4881   -2.1711 C   0  0  0  0  0  0  0  0  0  0  0  0
    6.0881    2.4691   -2.7851 H   0  0  0  0  0  0  0  0  0  0  0  0
    4.4188    3.6662   -2.0663 C   0  0  0  0  0  0  0  0  0  0  0  0
    4.7349    4.5755   -2.5988 H   0  0  0  0  0  0  0  0  0  0  0  0
    3.2526    3.6712   -1.2880 C   0  0  0  0  0  0  0  0  0  0  0  0
    2.6411    4.5839   -1.2193 H   0  0  0  0  0  0  0  0  0  0  0  0
    2.8446    2.5121   -0.6098 C   0  0  0  0  0  0  0  0  0  0  0  0
    1.9143    2.5058   -0.0350 H   0  0  0  0  0  0  0  0  0  0  0  0
   -3.2258   -1.1769   -0.8330 C   0  0  0  0  0  0  0  0  0  0  0  0
   -3.6836   -2.4307   -0.3810 C   0  0  0  0  0  0  0  0  0  0  0  0
   -4.0837   -2.5501    0.6372 H   0  0  0  0  0  0  0  0  0  0  0  0
   -3.6451   -3.5524   -1.2256 C   0  0  0  0  0  0  0  0  0  0  0  0
   -4.0318   -4.5183   -0.8663 H   0  0  0  0  0  0  0  0  0  0  0  0
   -3.1349   -3.4346   -2.5280 C   0  0  0  0  0  0  0  0  0  0  0  0
   -3.1223   -4.3082   -3.1975 H   0  0  0  0  0  0  0  0  0  0  0  0
   -2.6430   -2.1953   -2.9706 C   0  0  0  0  0  0  0  0  0  0  0  0
   -2.2304   -2.0946   -3.9860 H   0  0  0  0  0  0  0  0  0  0  0  0
   -2.6854   -1.0742   -2.1301 C   0  0  0  0  0  0  0  0  0  0  0  0
   -2.2758   -0.1116   -2.4681 H   0  0  0  0  0  0  0  0  0  0  0  0
   -3.5950    1.3322   -0.7119 C   0  0  0  0  0  0  0  0  0  0  0  0
   -2.8440    2.5127   -0.6096 C   0  0  0  0  0  0  0  0  0  0  0  0
   -1.9138    2.5062   -0.0346 H   0  0  0  0  0  0  0  0  0  0  0  0
   -3.2516    3.6718   -1.2878 C   0  0  0  0  0  0  0  0  0  0  0  0
   -2.6400    4.5844   -1.2191 H   0  0  0  0  0  0  0  0  0  0  0  0
   -4.4178    3.6670   -2.0662 C   0  0  0  0  0  0  0  0  0  0  0  0
   -4.7336    4.5764   -2.5988 H   0  0  0  0  0  0  0  0  0  0  0  0
   -5.1746    2.4890   -2.1712 C   0  0  0  0  0  0  0  0  0  0  0  0
   -6.0873    2.4702   -2.7853 H   0  0  0  0  0  0  0  0  0  0  0  0
   -4.7643    1.3283   -1.5011 C   0  0  0  0  0  0  0  0  0  0  0  0
   -5.3532    0.4038   -1.6056 H   0  0  0  0  0  0  0  0  0  0  0  0
  3 10  1  0  0  0  0
  4 11  1  0  0  0  0
  4 18  1  0  0  0  0
  5 19  1  0  0  0  0
  6  3  1  0  0  0  0
  6  7  1  0  0  0  0
  7  9  1  0  0  0  0
  7  1  1  0  0  0  0
  8  7  1  0  0  0  0
 10  1  1  0  0  0  0
 10 11  2  0  0  0  0
 11 12  1  0  0  0  0
 12 13  1  0  0  0  0
 12 14  2  0  0  0  0
 14 15  1  0  0  0  0
 16 17  1  0  0  0  0
 16 14  1  0  0  0  0
 18 16  2  0  0  0  0
 19  2  1  0  0  0  0
 19 18  1  6  0  0  0
 20 21  1  0  0  0  0
 20  2  1  0  0  0  0
 22 20  1  0  0  0  0
 23  5  1  0  0  0  0
 23 20  1  0  0  0  0
 24 25  1  0  0  0  0
 24  6  1  0  0  0  0
 25 26  1  0  0  0  0
 27 28  1  0  0  0  0
 27 25  2  0  0  0  0
 29 27  1  0  0  0  0
 30 29  1  0  0  0  0
 31 29  2  0  0  0  0
 31 33  1  0  0  0  0
 32 31  1  0  0  0  0
 33 24  2  0  0  0  0
 34 33  1  0  0  0  0
 35 44  1  0  0  0  0
 35  6  1  0  0  0  0
 36 35  2  0  0  0  0
 37 36  1  0  0  0  0
 38 40  2  0  0  0  0
 38 36  1  0  0  0  0
 39 38  1  0  0  0  0
 40 42  1  0  0  0  0
 41 40  1  0  0  0  0
 42 43  1  0  0  0  0
 42 44  2  0  0  0  0
 44 45  1  0  0  0  0
 46 47  1  0  0  0  0
 46 23  1  0  0  0  0
 47 48  1  0  0  0  0
 49 50  1  0  0  0  0
 49 47  2  0  0  0  0
 51 49  1  0  0  0  0
 52 51  1  0  0  0  0
 53 51  2  0  0  0  0
 53 55  1  0  0  0  0
 54 53  1  0  0  0  0
 55 46  2  0  0  0  0
 56 55  1  0  0  0  0
 57 58  1  0  0  0  0
 57 23  1  0  0  0  0
 58 59  1  0  0  0  0
 60 61  1  0  0  0  0
 60 58  2  0  0  0  0
 62 60  1  0  0  0  0
 63 62  1  0  0  0  0
 64 62  2  0  0  0  0
 64 66  1  0  0  0  0
 65 64  1  0  0  0  0
 66 57  2  0  0  0  0
 67 66  1  0  0  0  0
M  END
