1,3,4
 OpenBabel05122313063D

 53 56  0  0  1  0  0  0  0  0999 V2000
   -1.3879    0.8986   -0.9236 N   0  0  0  0  0  2  0  0  0  0  0  0
    0.9521    2.3655    0.3452 N   0  0  0  0  0  0  0  0  0  0  0  0
    1.3553    1.2805   -0.2019 N   0  0  0  0  0  2  0  0  0  0  0  0
    2.1865   -1.0991   -1.2142 N   0  0  0  0  0  0  0  0  0  0  0  0
    2.3139   -1.3200   -2.2146 H   0  0  0  0  0  0  0  0  0  0  0  0
   -1.4972    2.0258   -0.1997 C   0  0  2  0  0  3  0  0  0  0  0  0
   -2.7850    2.6386    0.0422 C   0  0  0  0  0  0  0  0  0  0  0  0
   -3.6855    2.1340   -0.3248 H   0  0  0  0  0  0  0  0  0  0  0  0
   -2.9304    3.8157    0.7496 C   0  0  0  0  0  0  0  0  0  0  0  0
   -3.9432    4.2202    0.9017 H   0  0  0  0  0  0  0  0  0  0  0  0
   -1.8079    4.5041    1.2905 C   0  0  0  0  0  0  0  0  0  0  0  0
   -1.9401    5.4424    1.8474 H   0  0  0  0  0  0  0  0  0  0  0  0
   -0.5566    3.9583    1.1083 C   0  0  0  0  0  0  0  0  0  0  0  0
    0.3484    4.4357    1.5098 H   0  0  0  0  0  0  0  0  0  0  0  0
   -0.3481    2.7302    0.3938 C   0  0  0  0  0  0  0  0  0  0  0  0
    2.7564    1.0535   -0.2035 C   0  0  0  0  0  0  0  0  0  0  0  0
    3.6965    1.9774    0.3007 C   0  0  0  0  0  0  0  0  0  0  0  0
    3.3240    2.9135    0.7358 H   0  0  0  0  0  0  0  0  0  0  0  0
    5.0612    1.6851    0.2235 C   0  0  0  0  0  0  0  0  0  0  0  0
    5.7916    2.4101    0.6133 H   0  0  0  0  0  0  0  0  0  0  0  0
    5.5095    0.4835   -0.3565 C   0  0  0  0  0  0  0  0  0  0  0  0
    6.5854    0.2673   -0.4279 H   0  0  0  0  0  0  0  0  0  0  0  0
    4.5755   -0.4415   -0.8464 C   0  0  0  0  0  0  0  0  0  0  0  0
    4.9122   -1.3883   -1.2954 H   0  0  0  0  0  0  0  0  0  0  0  0
    3.2053   -0.1600   -0.7663 C   0  0  0  0  0  0  0  0  0  0  0  0
   -2.5951    0.3255   -1.5103 C   0  0  0  0  0  0  0  0  0  0  0  0
   -2.2740   -0.3852   -2.2975 H   0  0  0  0  0  0  0  0  0  0  0  0
   -3.1857    1.1214   -2.0159 H   0  0  0  0  0  0  0  0  0  0  0  0
   -3.4819   -0.4324   -0.5362 C   0  0  0  0  0  0  0  0  0  0  0  0
   -4.7709   -0.8277   -0.9465 C   0  0  0  0  0  0  0  0  0  0  0  0
   -5.1237   -0.5599   -1.9558 H   0  0  0  0  0  0  0  0  0  0  0  0
   -5.6048   -1.5583   -0.0887 C   0  0  0  0  0  0  0  0  0  0  0  0
   -6.6087   -1.8584   -0.4267 H   0  0  0  0  0  0  0  0  0  0  0  0
   -5.1626   -1.9040    1.1990 C   0  0  0  0  0  0  0  0  0  0  0  0
   -5.8172   -2.4739    1.8757 H   0  0  0  0  0  0  0  0  0  0  0  0
   -3.8815   -1.5124    1.6151 C   0  0  0  0  0  0  0  0  0  0  0  0
   -3.5290   -1.7713    2.6260 H   0  0  0  0  0  0  0  0  0  0  0  0
   -3.0457   -0.7837    0.7541 C   0  0  0  0  0  0  0  0  0  0  0  0
   -2.0409   -0.4819    1.0841 H   0  0  0  0  0  0  0  0  0  0  0  0
    2.1894   -2.4069   -0.4604 C   0  0  0  0  0  0  0  0  0  0  0  0
    3.2133   -2.8363   -0.4950 H   0  0  0  0  0  0  0  0  0  0  0  0
    1.4982   -3.0615   -1.0242 H   0  0  0  0  0  0  0  0  0  0  0  0
    1.7261   -2.2355    0.9641 C   0  0  0  0  0  0  0  0  0  0  0  0
    2.6250   -1.8490    1.9771 C   0  0  0  0  0  0  0  0  0  0  0  0
    3.6903   -1.7088    1.7360 H   0  0  0  0  0  0  0  0  0  0  0  0
    2.1707   -1.6338    3.2875 C   0  0  0  0  0  0  0  0  0  0  0  0
    2.8810   -1.3257    4.0696 H   0  0  0  0  0  0  0  0  0  0  0  0
    0.8145   -1.8167    3.5991 C   0  0  0  0  0  0  0  0  0  0  0  0
    0.4583   -1.6528    4.6276 H   0  0  0  0  0  0  0  0  0  0  0  0
   -0.0853   -2.2159    2.5972 C   0  0  0  0  0  0  0  0  0  0  0  0
   -1.1479   -2.3718    2.8362 H   0  0  0  0  0  0  0  0  0  0  0  0
    0.3643   -2.4172    1.2845 C   0  0  0  0  0  0  0  0  0  0  0  0
   -0.3419   -2.7029    0.4888 H   0  0  0  0  0  0  0  0  0  0  0  0
  2 15  2  0  0  0  0
  3  2  1  0  0  0  0
  4 25  1  0  0  0  0
  4 40  1  0  0  0  0
  5  4  1  0  0  0  0
  6  1  1  6  0  0  0
  6  7  1  0  0  0  0
  6 15  1  0  0  0  0
  7  9  2  0  0  0  0
  8  7  1  0  0  0  0
  9 10  1  0  0  0  0
  9 11  1  0  0  0  0
 11 12  1  0  0  0  0
 13 11  2  0  0  0  0
 13 14  1  0  0  0  0
 15 13  1  0  0  0  0
 16  3  1  0  0  0  0
 16 17  1  0  0  0  0
 17 18  1  0  0  0  0
 19 17  2  0  0  0  0
 19 20  1  0  0  0  0
 21 19  1  0  0  0  0
 22 21  1  0  0  0  0
 23 25  1  0  0  0  0
 23 21  2  0  0  0  0
 24 23  1  0  0  0  0
 25 16  2  0  0  0  0
 26  1  1  0  0  0  0
 26 29  1  0  0  0  0
 27 26  1  0  0  0  0
 28 26  1  0  0  0  0
 29 38  1  0  0  0  0
 30 29  2  0  0  0  0
 30 32  1  0  0  0  0
 31 30  1  0  0  0  0
 32 34  2  0  0  0  0
 33 32  1  0  0  0  0
 34 36  1  0  0  0  0
 34 35  1  0  0  0  0
 36 37  1  0  0  0  0
 38 39  1  0  0  0  0
 38 36  2  0  0  0  0
 40 43  1  0  0  0  0
 41 40  1  0  0  0  0
 42 40  1  0  0  0  0
 43 52  2  0  0  0  0
 43 44  1  0  0  0  0
 44 46  2  0  0  0  0
 45 44  1  0  0  0  0
 46 48  1  0  0  0  0
 46 47  1  0  0  0  0
 48 49  1  0  0  0  0
 50 51  1  0  0  0  0
 50 48  2  0  0  0  0
 52 50  1  0  0  0  0
 53 52  1  0  0  0  0
M  END
