1,4,6
 OpenBabel05122313063D

 26 25  0  0  0  0  0  0  0  0999 V2000
   -0.3908    1.5416   -1.5761 N   0  0  0  0  0  0  0  0  0  0  0  0
    0.4209    2.1159   -1.8445 H   0  0  0  0  0  0  0  0  0  0  0  0
   -0.7106    1.1119   -2.4556 H   0  0  0  0  0  0  0  0  0  0  0  0
   -1.2065    1.1459    1.1114 N   0  0  0  0  0  0  0  0  0  0  0  0
   -0.8790    1.2566    2.0806 H   0  0  0  0  0  0  0  0  0  0  0  0
   -1.3938   -1.4194   -0.2555 N   0  0  0  0  0  0  0  0  0  0  0  0
   -1.4654    2.4059   -1.0074 C   0  0  0  0  0  0  0  0  0  0  0  0
   -2.4427    1.9637   -1.2858 H   0  0  0  0  0  0  0  0  0  0  0  0
   -1.4506    3.4230   -1.4492 H   0  0  0  0  0  0  0  0  0  0  0  0
   -1.3421    2.5046    0.5117 C   0  0  0  0  0  0  0  0  0  0  0  0
   -0.4370    3.0797    0.7912 H   0  0  0  0  0  0  0  0  0  0  0  0
   -2.2220    3.0447    0.9241 H   0  0  0  0  0  0  0  0  0  0  0  0
   -2.4835    0.3635    1.1234 C   0  0  0  0  0  0  0  0  0  0  0  0
   -3.1294    0.7416    0.3077 H   0  0  0  0  0  0  0  0  0  0  0  0
   -3.0430    0.5396    2.0651 H   0  0  0  0  0  0  0  0  0  0  0  0
   -2.2251   -1.1265    0.9510 C   0  0  0  0  0  0  0  0  0  0  0  0
   -1.6760   -1.5197    1.8297 H   0  0  0  0  0  0  0  0  0  0  0  0
   -3.1940   -1.6735    0.8973 H   0  0  0  0  0  0  0  0  0  0  0  0
   -2.1678   -1.2146   -1.5021 C   0  0  0  0  0  0  0  0  0  0  0  0
   -1.5145   -1.4060   -2.3741 H   0  0  0  0  0  0  0  0  0  0  0  0
   -2.5589   -0.1834   -1.5641 H   0  0  0  0  0  0  0  0  0  0  0  0
   -3.0320   -1.9132   -1.5513 H   0  0  0  0  0  0  0  0  0  0  0  0
   -0.9651   -2.8454   -0.2168 C   0  0  0  0  0  0  0  0  0  0  0  0
   -1.8512   -3.5164   -0.2430 H   0  0  0  0  0  0  0  0  0  0  0  0
   -0.3875   -3.0440    0.7030 H   0  0  0  0  0  0  0  0  0  0  0  0
   -0.3238   -3.0617   -1.0902 H   0  0  0  0  0  0  0  0  0  0  0  0
  1  7  1  0  0  0  0
  2  1  1  0  0  0  0
  3  1  1  0  0  0  0
  4 13  1  0  0  0  0
  4  5  1  0  0  0  0
  6 23  1  0  0  0  0
  6 16  1  0  0  0  0
  7 10  1  0  0  0  0
  8  7  1  0  0  0  0
  9  7  1  0  0  0  0
 10 11  1  0  0  0  0
 10 12  1  0  0  0  0
 10  4  1  0  0  0  0
 13 15  1  0  0  0  0
 14 13  1  0  0  0  0
 16 13  1  0  0  0  0
 16 17  1  0  0  0  0
 18 16  1  0  0  0  0
 19  6  1  0  0  0  0
 20 19  1  0  0  0  0
 21 19  1  0  0  0  0
 22 19  1  0  0  0  0
 23 25  1  0  0  0  0
 24 23  1  0  0  0  0
 26 23  1  0  0  0  0
M  END
