1,2,3
 OpenBabel05122313063D

 44 45  0  0  1  0  0  0  0  0999 V2000
    1.0465    0.1393   -0.1848 N   0  0  0  0  0  2  0  0  0  0  0  0
   -0.3934    0.5637    2.0367 N   0  0  0  0  0  0  0  0  0  0  0  0
   -1.3394   -1.4744   -0.0949 N   0  0  0  0  0  2  0  0  0  0  0  0
    5.1072   -0.7038   -0.1971 O   0  0  0  0  0  0  0  0  0  0  0  0
    1.6336   -0.3345   -1.2971 C   0  0  0  0  0  3  0  0  0  0  0  0
    0.9654   -0.4431   -2.1661 H   0  0  0  0  0  0  0  0  0  0  0  0
    3.0026   -0.6233   -1.3702 C   0  0  0  0  0  0  0  0  0  0  0  0
    3.7709   -0.3948   -0.2049 C   0  0  0  0  0  0  0  0  0  0  0  0
    3.1670    0.1042    0.9747 C   0  0  0  0  0  0  0  0  0  0  0  0
    1.7849    0.3678    0.9268 C   0  0  0  0  0  0  0  0  0  0  0  0
    3.9846    0.3493    2.2148 C   0  0  0  0  0  0  0  0  0  0  0  0
    4.0954    1.4338    2.4250 H   0  0  0  0  0  0  0  0  0  0  0  0
    4.9934   -0.0866    2.1001 H   0  0  0  0  0  0  0  0  0  0  0  0
    3.5131   -0.1054    3.1095 H   0  0  0  0  0  0  0  0  0  0  0  0
    5.9719    0.3140   -0.7012 C   0  0  0  0  0  0  0  0  0  0  0  0
    5.7356    0.5738   -1.7561 H   0  0  0  0  0  0  0  0  0  0  0  0
    7.0014   -0.0870   -0.6503 H   0  0  0  0  0  0  0  0  0  0  0  0
    5.9097    1.2397   -0.0869 H   0  0  0  0  0  0  0  0  0  0  0  0
    3.6215   -1.1653   -2.6287 C   0  0  0  0  0  0  0  0  0  0  0  0
    2.8632   -1.6627   -3.2626 H   0  0  0  0  0  0  0  0  0  0  0  0
    4.4253   -1.8885   -2.3899 H   0  0  0  0  0  0  0  0  0  0  0  0
    4.0773   -0.3567   -3.2391 H   0  0  0  0  0  0  0  0  0  0  0  0
    1.0166    1.0162    2.0443 C   0  0  0  0  0  0  0  0  0  0  0  0
    1.4832    0.8504    3.0397 H   0  0  0  0  0  0  0  0  0  0  0  0
    0.9984    2.1062    1.8356 H   0  0  0  0  0  0  0  0  0  0  0  0
   -1.2296    1.5274    2.7789 C   0  0  0  0  0  0  0  0  0  0  0  0
   -2.2929    1.2469    2.6867 H   0  0  0  0  0  0  0  0  0  0  0  0
   -1.1126    2.5236    2.3205 H   0  0  0  0  0  0  0  0  0  0  0  0
   -0.9243    1.5603    3.8490 H   0  0  0  0  0  0  0  0  0  0  0  0
   -0.4922   -0.7803    2.6412 C   0  0  0  0  0  0  0  0  0  0  0  0
   -0.3683   -0.6891    3.7457 H   0  0  0  0  0  0  0  0  0  0  0  0
    0.3571   -1.3896    2.2685 H   0  0  0  0  0  0  0  0  0  0  0  0
   -1.8124   -1.4769    2.3155 C   0  0  0  0  0  0  0  0  0  0  0  0
   -2.0450   -2.2187    3.1030 H   0  0  0  0  0  0  0  0  0  0  0  0
   -2.6348   -0.7296    2.3105 H   0  0  0  0  0  0  0  0  0  0  0  0
   -1.7871   -2.1693    0.9841 C   0  0  2  0  0  3  0  0  0  0  0  0
   -2.2066   -3.5063    0.8686 C   0  0  0  0  0  0  0  0  0  0  0  0
   -2.5652   -4.0289    1.7672 H   0  0  0  0  0  0  0  0  0  0  0  0
   -2.1684   -4.1513   -0.3717 C   0  0  0  0  0  0  0  0  0  0  0  0
   -2.4970   -5.1965   -0.4722 H   0  0  0  0  0  0  0  0  0  0  0  0
   -1.7092   -3.4258   -1.4767 C   0  0  0  0  0  0  0  0  0  0  0  0
   -1.6678   -3.8682   -2.4821 H   0  0  0  0  0  0  0  0  0  0  0  0
   -1.3148   -2.0976   -1.2962 C   0  0  0  0  0  0  0  0  0  0  0  0
   -1.0192   -1.4536   -2.1387 H   0  0  0  0  0  0  0  0  0  0  0  0
  1 10  1  0  0  0  0
  2 23  1  0  0  0  0
  2 30  1  0  0  0  0
  2 26  1  0  0  0  0
  3 36  1  0  0  0  0
  5  1  1  0  0  0  0
  6  5  1  0  0  0  0
  7  5  1  0  0  0  0
  7  8  2  0  0  0  0
  8  4  1  0  0  0  0
  8  9  1  0  0  0  0
  9 11  1  0  0  0  0
 10  9  2  0  0  0  0
 10 23  1  0  0  0  0
 11 12  1  0  0  0  0
 11 14  1  0  0  0  0
 13 11  1  0  0  0  0
 15 17  1  0  0  0  0
 15  4  1  0  0  0  0
 15 18  1  0  0  0  0
 16 15  1  0  0  0  0
 19 21  1  0  0  0  0
 19  7  1  0  0  0  0
 20 19  1  0  0  0  0
 22 19  1  0  0  0  0
 23 24  1  0  0  0  0
 25 23  1  0  0  0  0
 26 29  1  0  0  0  0
 27 26  1  0  0  0  0
 28 26  1  0  0  0  0
 30 31  1  0  0  0  0
 32 30  1  0  0  0  0
 33 30  1  0  0  0  0
 33 34  1  0  0  0  0
 35 33  1  0  0  0  0
 36 33  1  1  0  0  0
 37 36  1  0  0  0  0
 37 38  1  0  0  0  0
 39 37  2  0  0  0  0
 40 39  1  0  0  0  0
 41 43  2  0  0  0  0
 41 39  1  0  0  0  0
 42 41  1  0  0  0  0
 43  3  1  0  0  0  0
 44 43  1  0  0  0  0
M  END
