2,4,6
 OpenBabel05122313063D

 53 55  0  0  0  0  0  0  0  0999 V2000
   -2.9623   -0.3643    0.5275 B   0  0  2  0  0  0  0  0  0  0  0  0
   -1.2940    1.2180   -0.3887 N   0  0  0  0  0  2  0  0  0  0  0  0
   -2.6081    0.9792   -0.1466 N   0  0  0  0  0  0  0  0  0  0  0  0
   -0.8496   -0.3859    1.9412 N   0  0  0  0  0  2  0  0  0  0  0  0
   -2.2101   -0.4482    1.8742 N   0  0  0  0  0  0  0  0  0  0  0  0
   -1.1805   -1.6253   -0.7671 N   0  0  0  0  0  2  0  0  0  0  0  0
   -2.4879   -1.5061   -0.3988 N   0  0  0  0  0  0  0  0  0  0  0  0
   -1.2126    2.4315   -0.9630 C   0  0  0  0  0  3  0  0  0  0  0  0
   -2.4976    2.9883   -1.0969 C   0  0  0  0  0  0  0  0  0  0  0  0
   -3.3744    2.0282   -0.5639 C   0  0  0  0  0  0  0  0  0  0  0  0
   -4.8796    2.0229   -0.4874 C   0  0  0  0  0  0  0  0  0  0  0  0
   -5.4490    3.4468   -0.5013 C   0  0  0  0  0  0  0  0  0  0  0  0
   -5.4809    1.1706   -1.6221 C   0  0  0  0  0  0  0  0  0  0  0  0
   -2.7295   -0.5214    3.1239 C   0  0  0  0  0  3  0  0  0  0  0  0
   -1.6753   -0.5291    4.0368 C   0  0  0  0  0  0  0  0  0  0  0  0
   -0.4998   -0.4388    3.2547 C   0  0  0  0  0  0  0  0  0  0  0  0
    0.9331   -0.4667    3.7156 C   0  0  0  0  0  0  0  0  0  0  0  0
    1.4076   -1.9150    3.9369 C   0  0  0  0  0  0  0  0  0  0  0  0
    1.1414    0.3977    4.9666 C   0  0  0  0  0  0  0  0  0  0  0  0
   -3.2307   -2.4521   -1.0236 C   0  0  0  0  0  3  0  0  0  0  0  0
   -2.3795   -3.2287   -1.8096 C   0  0  0  0  0  0  0  0  0  0  0  0
   -1.0900   -2.6764   -1.6261 C   0  0  0  0  0  0  0  0  0  0  0  0
    0.2208   -3.1571   -2.1889 C   0  0  0  0  0  0  0  0  0  0  0  0
    0.7808   -4.3211   -1.3506 C   0  0  0  0  0  0  0  0  0  0  0  0
    0.0956   -3.5320   -3.6721 C   0  0  0  0  0  0  0  0  0  0  0  0
   -0.2334    2.8306   -1.2452 H   0  0  0  0  0  0  0  0  0  0  0  0
   -2.7632    3.9609   -1.5212 H   0  0  0  0  0  0  0  0  0  0  0  0
   -5.1593    1.5463    0.4770 H   0  0  0  0  0  0  0  0  0  0  0  0
   -6.5502    3.4264   -0.3777 H   0  0  0  0  0  0  0  0  0  0  0  0
   -5.2344    3.9539   -1.4648 H   0  0  0  0  0  0  0  0  0  0  0  0
   -5.0202    4.0659    0.3114 H   0  0  0  0  0  0  0  0  0  0  0  0
   -6.5864    1.1292   -1.5404 H   0  0  0  0  0  0  0  0  0  0  0  0
   -5.0928    0.1333   -1.5982 H   0  0  0  0  0  0  0  0  0  0  0  0
   -5.2232    1.6032   -2.6106 H   0  0  0  0  0  0  0  0  0  0  0  0
   -3.8144   -0.5547    3.2694 H   0  0  0  0  0  0  0  0  0  0  0  0
   -1.7413   -0.5876    5.1273 H   0  0  0  0  0  0  0  0  0  0  0  0
    1.5375   -0.0357    2.8903 H   0  0  0  0  0  0  0  0  0  0  0  0
    2.4767   -1.9306    4.2340 H   0  0  0  0  0  0  0  0  0  0  0  0
    1.3007   -2.5080    3.0083 H   0  0  0  0  0  0  0  0  0  0  0  0
    0.8211   -2.4071    4.7408 H   0  0  0  0  0  0  0  0  0  0  0  0
    2.2134    0.4141    5.2494 H   0  0  0  0  0  0  0  0  0  0  0  0
    0.5773    0.0008    5.8367 H   0  0  0  0  0  0  0  0  0  0  0  0
    0.8146    1.4430    4.7966 H   0  0  0  0  0  0  0  0  0  0  0  0
   -4.3137   -2.4969   -0.8657 H   0  0  0  0  0  0  0  0  0  0  0  0
   -2.6502   -4.0821   -2.4383 H   0  0  0  0  0  0  0  0  0  0  0  0
    0.9301   -2.3076   -2.1029 H   0  0  0  0  0  0  0  0  0  0  0  0
    1.7688   -4.6399   -1.7427 H   0  0  0  0  0  0  0  0  0  0  0  0
    0.1003   -5.1977   -1.3823 H   0  0  0  0  0  0  0  0  0  0  0  0
    0.9128   -4.0150   -0.2951 H   0  0  0  0  0  0  0  0  0  0  0  0
    1.0847   -3.8215   -4.0811 H   0  0  0  0  0  0  0  0  0  0  0  0
   -0.2904   -2.6849   -4.2734 H   0  0  0  0  0  0  0  0  0  0  0  0
   -0.5875   -4.3948   -3.8196 H   0  0  0  0  0  0  0  0  0  0  0  0
   -4.1600   -0.4734    0.7272 H   0  0  0  0  0  0  0  0  0  0  0  0
  1 53  1  1  0  0  0
  1  5  1  0  0  0  0
  2  3  1  0  0  0  0
  3  1  1  0  0  0  0
  4 16  1  0  0  0  0
  5  4  1  0  0  0  0
  5 14  1  0  0  0  0
  6  7  1  0  0  0  0
  7  1  1  0  0  0  0
  8  2  1  0  0  0  0
  9  8  1  0  0  0  0
  9 10  2  0  0  0  0
 10 11  1  0  0  0  0
 10  3  1  0  0  0  0
 11 28  1  0  0  0  0
 12 11  1  0  0  0  0
 12 29  1  0  0  0  0
 12 31  1  0  0  0  0
 13 33  1  0  0  0  0
 13 32  1  0  0  0  0
 13 11  1  0  0  0  0
 14 35  1  0  0  0  0
 14 15  1  0  0  0  0
 15 36  1  0  0  0  0
 16 17  1  0  0  0  0
 16 15  2  0  0  0  0
 17 18  1  0  0  0  0
 17 19  1  0  0  0  0
 18 38  1  0  0  0  0
 18 40  1  0  0  0  0
 19 41  1  0  0  0  0
 19 42  1  0  0  0  0
 20 44  1  0  0  0  0
 20  7  1  0  0  0  0
 21 22  2  0  0  0  0
 21 20  1  0  0  0  0
 22  6  1  0  0  0  0
 23 46  1  0  0  0  0
 23 22  1  0  0  0  0
 23 24  1  0  0  0  0
 24 49  1  0  0  0  0
 25 23  1  0  0  0  0
 26  8  1  0  0  0  0
 27  9  1  0  0  0  0
 30 12  1  0  0  0  0
 34 13  1  0  0  0  0
 37 17  1  0  0  0  0
 39 18  1  0  0  0  0
 43 19  1  0  0  0  0
 45 21  1  0  0  0  0
 47 24  1  0  0  0  0
 48 24  1  0  0  0  0
 50 25  1  0  0  0  0
 51 25  1  0  0  0  0
 52 25  1  0  0  0  0
M  END
