1,2,3
 OpenBabel05122313063D

 29 31  0  0  0  0  0  0  0  0999 V2000
   -2.5940    0.2156    0.0000 N   0  0  0  0  0  2  0  0  0  0  0  0
   -0.7419   -1.5913    0.0000 N   0  0  0  0  0  2  0  0  0  0  0  0
    1.3956   -0.1588    0.0001 N   0  0  0  0  0  0  0  0  0  0  0  0
    2.5279    0.5163    0.0004 N   0  0  0  0  0  2  0  0  0  0  0  0
   -3.4940    1.2271    0.0001 C   0  0  0  0  0  0  0  0  0  0  0  0
   -3.0389    2.2450   -0.0001 H   0  0  0  0  0  0  0  0  0  0  0  0
   -4.8730    0.9808    0.0006 C   0  0  0  0  0  0  0  0  0  0  0  0
   -5.5630    1.8365    0.0009 H   0  0  0  0  0  0  0  0  0  0  0  0
   -5.3446   -0.3387    0.0009 C   0  0  0  0  0  0  0  0  0  0  0  0
   -6.4229   -0.5561    0.0013 H   0  0  0  0  0  0  0  0  0  0  0  0
   -4.4136   -1.3838    0.0006 C   0  0  0  0  0  0  0  0  0  0  0  0
   -4.7449   -2.4311    0.0008 H   0  0  0  0  0  0  0  0  0  0  0  0
   -3.0409   -1.0952    0.0002 C   0  0  0  0  0  0  0  0  0  0  0  0
   -1.9912   -2.1262   -0.0000 C   0  0  0  0  0  0  0  0  0  0  0  0
   -2.1465   -3.5225   -0.0003 C   0  0  0  0  0  0  0  0  0  0  0  0
   -3.1469   -3.9747   -0.0005 H   0  0  0  0  0  0  0  0  0  0  0  0
   -0.9947   -4.3275   -0.0004 C   0  0  0  0  0  0  0  0  0  0  0  0
   -1.0970   -5.4223   -0.0007 H   0  0  0  0  0  0  0  0  0  0  0  0
    0.2848   -3.7495   -0.0003 C   0  0  0  0  0  0  0  0  0  0  0  0
    1.1898   -4.3719   -0.0003 H   0  0  0  0  0  0  0  0  0  0  0  0
    0.4055   -2.3483   -0.0000 C   0  0  0  0  0  0  0  0  0  0  0  0
    1.6036   -1.5318    0.0001 C   0  0  0  0  0  0  0  0  0  0  0  0
    2.9964   -1.7301    0.0002 C   0  0  0  0  0  0  0  0  0  0  0  0
    3.5555   -2.6703    0.0003 H   0  0  0  0  0  0  0  0  0  0  0  0
    3.5139   -0.4191    0.0003 C   0  0  0  0  0  0  0  0  0  0  0  0
    4.9546   -0.0053    0.0003 C   0  0  0  0  0  0  0  0  0  0  0  0
    5.7578   -1.1003    0.0002 F   0  0  0  0  0  0  0  0  0  0  0  0
    5.2744    0.7346    1.0882 F   0  0  0  0  0  0  0  0  0  0  0  0
    5.2744    0.7346   -1.0877 F   0  0  0  0  0  0  0  0  0  0  0  0
  1  5  1  0  0  0  0
  1 13  1  0  0  0  0
  3 22  2  0  0  0  0
  3  4  1  0  0  0  0
  5  7  2  0  0  0  0
  6  5  1  0  0  0  0
  7  8  1  0  0  0  0
  7  9  1  0  0  0  0
  9 10  1  0  0  0  0
 11 12  1  0  0  0  0
 11  9  2  0  0  0  0
 13 11  1  0  0  0  0
 14  2  1  0  0  0  0
 14 13  2  0  0  0  0
 15 14  1  0  0  0  0
 16 15  1  0  0  0  0
 17 15  2  0  0  0  0
 17 19  1  0  0  0  0
 18 17  1  0  0  0  0
 19 21  2  0  0  0  0
 20 19  1  0  0  0  0
 21  2  1  0  0  0  0
 21 22  1  0  0  0  0
 22 23  1  0  0  0  0
 23 24  1  0  0  0  0
 23 25  2  0  0  0  0
 25  4  1  0  0  0  0
 26 25  1  0  0  0  0
 26 28  1  0  0  0  0
 27 26  1  0  0  0  0
 29 26  1  0  0  0  0
M  END
