2,3,4
 OpenBabel05122313063D

 57 60  0  0  1  0  0  0  0  0999 V2000
   -4.2670    1.0699    0.1434 O   0  0  0  0  0  0  0  0  0  0  0  0
   -2.3715   -0.1671    0.0714 N   0  0  0  0  0  2  0  0  0  0  0  0
   -0.7377    1.6795   -0.1381 N   0  0  0  0  0  2  0  0  0  0  0  0
    1.4049    0.4735   -0.1700 N   0  0  0  0  0  2  0  0  0  0  0  0
    2.6364   -1.0865   -2.3249 C   0  0  0  0  0  0  0  0  0  0  0  0
    1.8572   -0.3016   -2.3967 H   0  0  0  0  0  0  0  0  0  0  0  0
   -3.4393   -1.0460    0.2134 C   0  0  0  0  0  0  0  0  0  0  0  0
    3.1801   -1.0808   -0.9053 C   0  0  0  0  0  0  0  0  0  0  0  0
   -2.9150    1.0536    0.0309 C   0  0  2  0  0  3  0  0  0  0  0  0
    2.5454   -0.3481    0.1263 C   0  0  0  0  0  0  0  0  0  0  0  0
    1.5757    1.7841   -0.3573 C   0  0  0  0  0  0  0  0  0  0  0  0
    2.9922   -0.4111    1.4751 C   0  0  0  0  0  0  0  0  0  0  0  0
   -2.2818    3.5465   -0.2059 C   0  0  0  0  0  0  0  0  0  0  0  0
   -3.3169    3.9115   -0.1630 H   0  0  0  0  0  0  0  0  0  0  0  0
    0.3283    2.5215   -0.3539 C   0  0  0  0  0  0  0  0  0  0  0  0
   -3.5044   -2.4450    0.3106 C   0  0  0  0  0  0  0  0  0  0  0  0
   -2.5814   -3.0393    0.2965 H   0  0  0  0  0  0  0  0  0  0  0  0
   -4.6194   -0.2644    0.2543 C   0  0  0  0  0  0  0  0  0  0  0  0
   -2.0259    2.1706   -0.1026 C   0  0  0  0  0  0  0  0  0  0  0  0
    2.8979    2.4613   -0.5403 C   0  0  0  0  0  0  0  0  0  0  0  0
    3.7338    1.7778   -0.3080 H   0  0  0  0  0  0  0  0  0  0  0  0
    2.9853    3.3667    0.0933 H   0  0  0  0  0  0  0  0  0  0  0  0
    3.0054    2.7890   -1.5970 H   0  0  0  0  0  0  0  0  0  0  0  0
    4.7853   -1.9076    0.7449 C   0  0  0  0  0  0  0  0  0  0  0  0
    5.6704   -2.5155    0.9870 H   0  0  0  0  0  0  0  0  0  0  0  0
    0.1129    3.9067   -0.4767 C   0  0  0  0  0  0  0  0  0  0  0  0
    0.9682    4.5747   -0.6480 H   0  0  0  0  0  0  0  0  0  0  0  0
    2.2901    0.3450    2.5992 C   0  0  0  0  0  0  0  0  0  0  0  0
    1.3116    0.6819    2.2015 H   0  0  0  0  0  0  0  0  0  0  0  0
    4.3074   -1.8540   -0.5690 C   0  0  0  0  0  0  0  0  0  0  0  0
    4.8166   -2.4274   -1.3585 H   0  0  0  0  0  0  0  0  0  0  0  0
   -1.1940    4.4173   -0.3884 C   0  0  0  0  0  0  0  0  0  0  0  0
   -1.3675    5.4989   -0.4789 H   0  0  0  0  0  0  0  0  0  0  0  0
    3.7107   -0.7775   -3.3775 C   0  0  0  0  0  0  0  0  0  0  0  0
    4.2115    0.1916   -3.1750 H   0  0  0  0  0  0  0  0  0  0  0  0
    3.2547   -0.7221   -4.3870 H   0  0  0  0  0  0  0  0  0  0  0  0
    4.4976   -1.5597   -3.4155 H   0  0  0  0  0  0  0  0  0  0  0  0
   -5.9493   -2.2106    0.4802 C   0  0  0  0  0  0  0  0  0  0  0  0
   -6.9294   -2.6989    0.5862 H   0  0  0  0  0  0  0  0  0  0  0  0
    4.1254   -1.1959    1.7542 C   0  0  0  0  0  0  0  0  0  0  0  0
    4.4929   -1.2551    2.7898 H   0  0  0  0  0  0  0  0  0  0  0  0
   -5.8949   -0.8090    0.3869 C   0  0  0  0  0  0  0  0  0  0  0  0
   -6.7953   -0.1806    0.4155 H   0  0  0  0  0  0  0  0  0  0  0  0
    1.9289   -2.4255   -2.6007 C   0  0  0  0  0  0  0  0  0  0  0  0
    1.4296   -2.4063   -3.5904 H   0  0  0  0  0  0  0  0  0  0  0  0
    1.1534   -2.6194   -1.8340 H   0  0  0  0  0  0  0  0  0  0  0  0
    2.6498   -3.2701   -2.5859 H   0  0  0  0  0  0  0  0  0  0  0  0
    1.9929   -0.5573    3.8071 C   0  0  0  0  0  0  0  0  0  0  0  0
    1.4186   -1.4493    3.4924 H   0  0  0  0  0  0  0  0  0  0  0  0
    1.3939   -0.0041    4.5593 H   0  0  0  0  0  0  0  0  0  0  0  0
    2.9227   -0.8934    4.3111 H   0  0  0  0  0  0  0  0  0  0  0  0
    3.0916    1.5868    3.0294 C   0  0  0  0  0  0  0  0  0  0  0  0
    2.5521    2.1479    3.8202 H   0  0  0  0  0  0  0  0  0  0  0  0
    3.2736    2.2791    2.1847 H   0  0  0  0  0  0  0  0  0  0  0  0
    4.0818    1.2959    3.4384 H   0  0  0  0  0  0  0  0  0  0  0  0
   -4.7809   -3.0081    0.4427 C   0  0  0  0  0  0  0  0  0  0  0  0
   -4.8799   -4.1007    0.5228 H   0  0  0  0  0  0  0  0  0  0  0  0
  1 18  1  0  0  0  0
  2  7  1  0  0  0  0
  3 19  1  0  0  0  0
  4 10  1  0  0  0  0
  5  8  1  0  0  0  0
  6  5  1  0  0  0  0
  7 18  2  0  0  0  0
  7 16  1  0  0  0  0
  8 30  2  0  0  0  0
  8 10  1  0  0  0  0
  9 19  1  1  0  0  0
  9  2  1  0  0  0  0
  9  1  1  0  0  0  0
 10 12  2  0  0  0  0
 11 15  2  0  0  0  0
 11  4  1  0  0  0  0
 12 40  1  0  0  0  0
 12 28  1  0  0  0  0
 13 14  1  0  0  0  0
 13 19  2  0  0  0  0
 15  3  1  0  0  0  0
 16 56  2  0  0  0  0
 17 16  1  0  0  0  0
 18 42  1  0  0  0  0
 20 11  1  0  0  0  0
 20 21  1  0  0  0  0
 20 22  1  0  0  0  0
 23 20  1  0  0  0  0
 24 25  1  0  0  0  0
 24 40  2  0  0  0  0
 26 32  2  0  0  0  0
 26 15  1  0  0  0  0
 27 26  1  0  0  0  0
 28 52  1  0  0  0  0
 28 48  1  0  0  0  0
 29 28  1  0  0  0  0
 30 24  1  0  0  0  0
 31 30  1  0  0  0  0
 32 13  1  0  0  0  0
 33 32  1  0  0  0  0
 34 35  1  0  0  0  0
 34  5  1  0  0  0  0
 36 34  1  0  0  0  0
 37 34  1  0  0  0  0
 38 39  1  0  0  0  0
 40 41  1  0  0  0  0
 42 43  1  0  0  0  0
 42 38  2  0  0  0  0
 44 47  1  0  0  0  0
 44  5  1  0  0  0  0
 44 46  1  0  0  0  0
 45 44  1  0  0  0  0
 48 51  1  0  0  0  0
 48 50  1  0  0  0  0
 49 48  1  0  0  0  0
 52 55  1  0  0  0  0
 52 53  1  0  0  0  0
 54 52  1  0  0  0  0
 56 38  1  0  0  0  0
 56 57  1  0  0  0  0
M  END
