7,8,9
 OpenBabel05122313063D

 31 30  0  0  1  0  0  0  0  0999 V2000
    1.9225    1.9630   -1.0757 O   0  0  0  0  0  0  0  0  0  0  0  0
    1.3895    2.5663   -0.4614 H   0  0  0  0  0  0  0  0  0  0  0  0
   -2.5917    1.3264   -1.2735 O   0  0  0  0  0  0  0  0  0  0  0  0
   -2.0627    2.1058   -0.9689 H   0  0  0  0  0  0  0  0  0  0  0  0
    2.1993   -0.5017    1.8873 O   0  0  0  0  0  0  0  0  0  0  0  0
    1.3357   -0.3841    2.3560 H   0  0  0  0  0  0  0  0  0  0  0  0
    1.2857    0.7848   -0.8846 N   0  0  0  0  0  2  0  0  0  0  0  0
   -1.7602    0.3089   -0.9038 N   0  0  0  0  0  2  0  0  0  0  0  0
    0.1155   -1.4361   -0.1447 N   0  0  0  0  0  0  0  0  0  0  0  0
    0.8130   -1.4347   -1.4696 C   0  0  0  0  0  0  0  0  0  0  0  0
    0.0378   -1.4525   -2.2666 H   0  0  0  0  0  0  0  0  0  0  0  0
    1.4147   -2.3639   -1.5872 H   0  0  0  0  0  0  0  0  0  0  0  0
    1.6563   -0.2076   -1.6475 C   0  0  1  0  0  3  0  0  0  0  0  0
    2.7187   -0.0760   -2.6881 C   0  0  0  0  0  0  0  0  0  0  0  0
    2.4029    0.6257   -3.4903 H   0  0  0  0  0  0  0  0  0  0  0  0
    2.9605   -1.0528   -3.1469 H   0  0  0  0  0  0  0  0  0  0  0  0
    3.6389    0.3568   -2.2447 H   0  0  0  0  0  0  0  0  0  0  0  0
   -1.2914   -1.9106   -0.2829 C   0  0  0  0  0  0  0  0  0  0  0  0
   -1.6585   -2.0986    0.7493 H   0  0  0  0  0  0  0  0  0  0  0  0
   -1.3157   -2.8778   -0.8383 H   0  0  0  0  0  0  0  0  0  0  0  0
   -2.2324   -0.8928   -0.8971 C   0  0  1  0  0  3  0  0  0  0  0  0
   -3.6256   -1.3021   -1.2579 C   0  0  0  0  0  0  0  0  0  0  0  0
   -4.2437   -0.4057   -1.4470 H   0  0  0  0  0  0  0  0  0  0  0  0
   -4.0879   -1.8944   -0.4400 H   0  0  0  0  0  0  0  0  0  0  0  0
   -3.6356   -1.9402   -2.1672 H   0  0  0  0  0  0  0  0  0  0  0  0
    0.8362   -2.2810    0.8482 C   0  0  0  0  0  0  0  0  0  0  0  0
    0.9392   -3.3154    0.4434 H   0  0  0  0  0  0  0  0  0  0  0  0
    0.1866   -2.3145    1.7456 H   0  0  0  0  0  0  0  0  0  0  0  0
    2.2102   -1.7589    1.2666 C   0  0  0  0  0  0  0  0  0  0  0  0
    2.6395   -2.5538    1.9288 H   0  0  0  0  0  0  0  0  0  0  0  0
    2.8926   -1.6958    0.3875 H   0  0  0  0  0  0  0  0  0  0  0  0
  1  7  1  0  0  0  0
  1  2  1  0  0  0  0
  3  4  1  0  0  0  0
  3  8  1  0  0  0  0
  5  6  1  0  0  0  0
  9 26  1  0  0  0  0
 10  9  1  0  0  0  0
 11 10  1  0  0  0  0
 12 10  1  0  0  0  0
 13 10  1  0  0  0  0
 13  7  1  6  0  0  0
 14 17  1  0  0  0  0
 14 13  1  0  0  0  0
 15 14  1  0  0  0  0
 16 14  1  0  0  0  0
 18  9  1  0  0  0  0
 18 19  1  0  0  0  0
 20 18  1  0  0  0  0
 21  8  1  1  0  0  0
 21 18  1  0  0  0  0
 22 21  1  0  0  0  0
 22 24  1  0  0  0  0
 23 22  1  0  0  0  0
 25 22  1  0  0  0  0
 26 29  1  0  0  0  0
 26 28  1  0  0  0  0
 27 26  1  0  0  0  0
 29  5  1  0  0  0  0
 29 30  1  0  0  0  0
 31 29  1  0  0  0  0
M  END
