7,8,9
 OpenBabel05122313063D

 60 63  0  0  0  0  0  0  0  0999 V2000
    2.3664   -2.1965    3.4734 O   0  0  0  0  0  0  0  0  0  0  0  0
    3.6532   -1.5480   -2.6022 O   0  0  0  0  0  0  0  0  0  0  0  0
   -1.4595   -4.4897   -0.7444 O   0  0  0  0  0  0  0  0  0  0  0  0
    2.8625   -0.0570    2.7797 N   0  0  0  0  0  0  0  0  0  0  0  0
    1.6931   -0.6922   -3.4644 N   0  0  0  0  0  0  0  0  0  0  0  0
   -2.4744   -2.9927    0.6812 N   0  0  0  0  0  0  0  0  0  0  0  0
    0.7033    2.3417    0.9587 N   0  0  0  0  0  2  0  0  0  0  0  0
   -0.6730    1.6248   -1.8094 N   0  0  0  0  0  2  0  0  0  0  0  0
   -2.1730    0.7004    0.8722 N   0  0  0  0  0  2  0  0  0  0  0  0
    2.3295   -1.2841    0.0567 C   0  0  0  0  0  0  0  0  0  0  0  0
    3.2869   -0.7439    0.0614 H   0  0  0  0  0  0  0  0  0  0  0  0
    1.7445   -1.6227   -1.1761 C   0  0  0  0  0  0  0  0  0  0  0  0
    0.5394   -2.3445   -1.1987 C   0  0  0  0  0  0  0  0  0  0  0  0
    0.0776   -2.6323   -2.1543 H   0  0  0  0  0  0  0  0  0  0  0  0
   -0.1027   -2.6890    0.0037 C   0  0  0  0  0  0  0  0  0  0  0  0
    0.4823   -2.3427    1.2329 C   0  0  0  0  0  0  0  0  0  0  0  0
    0.0020   -2.6200    2.1825 H   0  0  0  0  0  0  0  0  0  0  0  0
    1.6924   -1.6263    1.2629 C   0  0  0  0  0  0  0  0  0  0  0  0
    2.3118   -1.3304    2.6042 C   0  0  0  0  0  0  0  0  0  0  0  0
    3.7091    0.1693    3.9494 C   0  0  0  0  0  0  0  0  0  0  0  0
    3.3314    1.0249    4.5441 H   0  0  0  0  0  0  0  0  0  0  0  0
    4.7607    0.3712    3.6571 H   0  0  0  0  0  0  0  0  0  0  0  0
    3.6738   -0.7511    4.5606 H   0  0  0  0  0  0  0  0  0  0  0  0
    1.1289    1.3072    1.7148 C   0  0  0  0  0  3  0  0  0  0  0  0
    0.3520    0.6331    2.1078 H   0  0  0  0  0  0  0  0  0  0  0  0
    2.4866    1.0644    1.9984 C   0  0  0  0  0  0  0  0  0  0  0  0
    3.4422    1.9876    1.5240 C   0  0  0  0  0  0  0  0  0  0  0  0
    4.5114    1.8450    1.7351 H   0  0  0  0  0  0  0  0  0  0  0  0
    2.9947    3.0770    0.7629 C   0  0  0  0  0  0  0  0  0  0  0  0
    3.7066    3.8197    0.3742 H   0  0  0  0  0  0  0  0  0  0  0  0
    1.6296    3.2203    0.4944 C   0  0  0  0  0  0  0  0  0  0  0  0
    1.2377    4.0643   -0.0942 H   0  0  0  0  0  0  0  0  0  0  0  0
    2.4657   -1.2744   -2.4523 C   0  0  0  0  0  0  0  0  0  0  0  0
    2.2702   -0.6117   -4.8049 C   0  0  0  0  0  0  0  0  0  0  0  0
    1.6895   -1.2165   -5.5320 H   0  0  0  0  0  0  0  0  0  0  0  0
    3.3001   -1.0084   -4.7432 H   0  0  0  0  0  0  0  0  0  0  0  0
    2.2997    0.4394   -5.1559 H   0  0  0  0  0  0  0  0  0  0  0  0
    0.4274    0.9137   -2.1096 C   0  0  0  0  0  3  0  0  0  0  0  0
    1.2998    1.0515   -1.4505 H   0  0  0  0  0  0  0  0  0  0  0  0
    0.4995    0.0290   -3.2051 C   0  0  0  0  0  0  0  0  0  0  0  0
   -0.6243   -0.0561   -4.0523 C   0  0  0  0  0  0  0  0  0  0  0  0
   -0.6136   -0.7228   -4.9267 H   0  0  0  0  0  0  0  0  0  0  0  0
   -1.7574    0.7156   -3.7514 C   0  0  0  0  0  0  0  0  0  0  0  0
   -2.6479    0.6750   -4.3958 H   0  0  0  0  0  0  0  0  0  0  0  0
   -1.7549    1.5390   -2.6189 C   0  0  0  0  0  0  0  0  0  0  0  0
   -2.6102    2.1696   -2.3162 H   0  0  0  0  0  0  0  0  0  0  0  0
   -1.3890   -3.4644   -0.0725 C   0  0  0  0  0  0  0  0  0  0  0  0
   -3.6126   -3.8977    0.8379 C   0  0  0  0  0  0  0  0  0  0  0  0
   -4.5579   -3.3735    0.5966 H   0  0  0  0  0  0  0  0  0  0  0  0
   -3.6751   -4.2972    1.8718 H   0  0  0  0  0  0  0  0  0  0  0  0
   -3.4609   -4.7393    0.1384 H   0  0  0  0  0  0  0  0  0  0  0  0
   -2.0404   -0.5690    0.4657 C   0  0  0  0  0  3  0  0  0  0  0  0
   -1.4646   -0.7212   -0.4582 H   0  0  0  0  0  0  0  0  0  0  0  0
   -2.6083   -1.6658    1.1539 C   0  0  0  0  0  0  0  0  0  0  0  0
   -3.3869   -1.3728    2.2946 C   0  0  0  0  0  0  0  0  0  0  0  0
   -3.8604   -2.1805    2.8698 H   0  0  0  0  0  0  0  0  0  0  0  0
   -3.5592   -0.0360    2.6817 C   0  0  0  0  0  0  0  0  0  0  0  0
   -4.1802    0.2146    3.5542 H   0  0  0  0  0  0  0  0  0  0  0  0
   -2.9387    0.9818    1.9490 C   0  0  0  0  0  0  0  0  0  0  0  0
   -3.0691    2.0571    2.1604 H   0  0  0  0  0  0  0  0  0  0  0  0
  2 33  2  0  0  0  0
  3 47  2  0  0  0  0
  4 20  1  0  0  0  0
  5 40  1  0  0  0  0
  5 33  1  0  0  0  0
  6 48  1  0  0  0  0
  6 54  1  0  0  0  0
  7 24  1  0  0  0  0
  9 59  1  0  0  0  0
 10 11  1  0  0  0  0
 10 18  1  0  0  0  0
 12 10  2  0  0  0  0
 13 12  1  0  0  0  0
 13 15  2  0  0  0  0
 14 13  1  0  0  0  0
 15 16  1  0  0  0  0
 16 18  2  0  0  0  0
 16 17  1  0  0  0  0
 18 19  1  0  0  0  0
 19  4  1  0  0  0  0
 19  1  2  0  0  0  0
 20 21  1  0  0  0  0
 20 23  1  0  0  0  0
 22 20  1  0  0  0  0
 24 26  1  0  0  0  0
 24 25  1  0  0  0  0
 26  4  1  0  0  0  0
 27 28  1  0  0  0  0
 27 26  2  0  0  0  0
 29 27  1  0  0  0  0
 30 29  1  0  0  0  0
 31 29  2  0  0  0  0
 31  7  1  0  0  0  0
 32 31  1  0  0  0  0
 33 12  1  0  0  0  0
 34 36  1  0  0  0  0
 34  5  1  0  0  0  0
 35 34  1  0  0  0  0
 37 34  1  0  0  0  0
 38  8  1  0  0  0  0
 38 39  1  0  0  0  0
 40 38  1  0  0  0  0
 41 43  1  0  0  0  0
 41 40  2  0  0  0  0
 42 41  1  0  0  0  0
 43 45  2  0  0  0  0
 44 43  1  0  0  0  0
 45 46  1  0  0  0  0
 45  8  1  0  0  0  0
 47 15  1  0  0  0  0
 47  6  1  0  0  0  0
 48 50  1  0  0  0  0
 49 48  1  0  0  0  0
 51 48  1  0  0  0  0
 52  9  1  0  0  0  0
 52 54  1  0  0  0  0
 53 52  1  0  0  0  0
 54 55  2  0  0  0  0
 55 57  1  0  0  0  0
 55 56  1  0  0  0  0
 57 58  1  0  0  0  0
 59 60  1  0  0  0  0
 59 57  2  0  0  0  0
M  END
