1,2,3
 OpenBabel05122313063D

 35 39  0  0  1  0  0  0  0  0999 V2000
    1.8888    0.1132   -0.2303 N   0  0  0  0  0  2  0  0  0  0  0  0
   -0.5977    0.9060   -0.3174 N   0  0  0  0  0  2  0  0  0  0  0  0
   -2.1630   -1.2381   -0.2962 N   0  0  0  0  0  2  0  0  0  0  0  0
    2.8287    2.1460   -0.1809 N   0  0  0  0  0  0  0  0  0  0  0  0
    2.9138    3.1614   -0.1652 H   0  0  0  0  0  0  0  0  0  0  0  0
    4.0196   -1.2303   -0.1960 C   0  0  0  0  0  0  0  0  0  0  0  0
    3.5057   -2.2026   -0.2370 H   0  0  0  0  0  0  0  0  0  0  0  0
    5.4078   -1.0840   -0.1549 C   0  0  0  0  0  0  0  0  0  0  0  0
    6.0469   -1.9794   -0.1533 H   0  0  0  0  0  0  0  0  0  0  0  0
    6.0219    0.1962   -0.1169 C   0  0  0  0  0  0  0  0  0  0  0  0
    7.1198    0.2602   -0.0843 H   0  0  0  0  0  0  0  0  0  0  0  0
    5.2749    1.3813   -0.1209 C   0  0  0  0  0  0  0  0  0  0  0  0
    5.7628    2.3664   -0.0925 H   0  0  0  0  0  0  0  0  0  0  0  0
    3.8790    1.2376   -0.1614 C   0  0  0  0  0  0  0  0  0  0  0  0
    3.2535   -0.0480   -0.1959 C   0  0  0  0  0  0  0  0  0  0  0  0
    1.6562    1.4239   -0.2240 C   0  0  2  0  0  3  0  0  0  0  0  0
    0.2771    1.9139   -0.2411 C   0  0  0  0  0  0  0  0  0  0  0  0
   -0.1658    3.2612   -0.1535 C   0  0  0  0  0  0  0  0  0  0  0  0
    0.5529    4.0917   -0.0931 H   0  0  0  0  0  0  0  0  0  0  0  0
   -1.5350    3.5186   -0.1362 C   0  0  0  0  0  0  0  0  0  0  0  0
   -1.9021    4.5542   -0.0709 H   0  0  0  0  0  0  0  0  0  0  0  0
   -1.9153    1.1343   -0.2660 C   0  0  0  0  0  0  0  0  0  0  0  0
   -2.7713   -0.0316   -0.2681 C   0  0  0  0  0  0  0  0  0  0  0  0
   -2.9088   -2.3386   -0.2996 C   0  0  0  0  0  0  0  0  0  0  0  0
   -2.3478   -3.2891   -0.3281 H   0  0  0  0  0  0  0  0  0  0  0  0
   -4.3250   -2.2857   -0.2680 C   0  0  0  0  0  0  0  0  0  0  0  0
   -4.9043   -3.2204   -0.2711 H   0  0  0  0  0  0  0  0  0  0  0  0
   -4.9635   -1.0488   -0.2257 C   0  0  0  0  0  0  0  0  0  0  0  0
   -6.0620   -0.9810   -0.1907 H   0  0  0  0  0  0  0  0  0  0  0  0
   -4.1844    0.1393   -0.2231 C   0  0  0  0  0  0  0  0  0  0  0  0
   -4.7209    1.4760   -0.1707 C   0  0  0  0  0  0  0  0  0  0  0  0
   -5.8143    1.6000   -0.1396 H   0  0  0  0  0  0  0  0  0  0  0  0
   -3.8994    2.5838   -0.1470 C   0  0  0  0  0  0  0  0  0  0  0  0
   -4.3335    3.5939   -0.0931 H   0  0  0  0  0  0  0  0  0  0  0  0
   -2.4687    2.4462   -0.1844 C   0  0  0  0  0  0  0  0  0  0  0  0
  1 16  1  0  0  0  0
  1 15  1  0  0  0  0
  2 22  1  0  0  0  0
  2 17  1  0  0  0  0
  3 23  1  0  0  0  0
  4  5  1  0  0  0  0
  4 14  1  0  0  0  0
  6 15  2  0  0  0  0
  6  8  1  0  0  0  0
  7  6  1  0  0  0  0
  8  9  1  0  0  0  0
  8 10  2  0  0  0  0
 10 11  1  0  0  0  0
 12 10  1  0  0  0  0
 12 13  1  0  0  0  0
 14 12  2  0  0  0  0
 15 14  1  0  0  0  0
 16 17  1  1  0  0  0
 16  4  1  0  0  0  0
 17 18  2  0  0  0  0
 18 20  1  0  0  0  0
 18 19  1  0  0  0  0
 20 21  1  0  0  0  0
 22 35  1  0  0  0  0
 23 22  2  0  0  0  0
 23 30  1  0  0  0  0
 24  3  1  0  0  0  0
 24 26  2  0  0  0  0
 25 24  1  0  0  0  0
 26 28  1  0  0  0  0
 27 26  1  0  0  0  0
 28 30  2  0  0  0  0
 28 29  1  0  0  0  0
 30 31  1  0  0  0  0
 31 33  2  0  0  0  0
 31 32  1  0  0  0  0
 33 34  1  0  0  0  0
 35 33  1  0  0  0  0
 35 20  2  0  0  0  0
M  END
