1,2,3
 OpenBabel05122313063D

 63 69  0  0  1  0  0  0  0  0999 V2000
   -2.0650    0.1633    0.0376 N   0  0  0  0  0  2  0  0  0  0  0  0
   -0.0515    1.8080   -0.1083 N   0  0  0  0  0  2  0  0  0  0  0  0
    2.0617    0.2961    0.0371 N   0  0  0  0  0  2  0  0  0  0  0  0
   -5.4823   -1.2607   -0.1080 N   0  0  0  0  0  0  0  0  0  0  0  0
    5.5639   -0.9034   -0.1069 N   0  0  0  0  0  0  0  0  0  0  0  0
   -3.0652   -0.7862   -0.0383 C   0  0  0  0  0  0  0  0  0  0  0  0
   -2.7850   -2.1607   -0.1333 C   0  0  0  0  0  0  0  0  0  0  0  0
   -3.8409   -3.0843   -0.1889 C   0  0  0  0  0  0  0  0  0  0  0  0
   -3.6189   -4.4963   -0.2692 C   0  0  0  0  0  0  0  0  0  0  0  0
   -4.6921   -5.3648   -0.3062 C   0  0  0  0  0  0  0  0  0  0  0  0
   -6.0339   -4.8690   -0.2700 C   0  0  0  0  0  0  0  0  0  0  0  0
   -6.2901   -3.5130   -0.1985 C   0  0  0  0  0  3  0  0  0  0  0  0
   -5.2074   -2.5788   -0.1570 C   0  0  0  0  0  0  0  0  0  0  0  0
   -4.4702   -0.3857   -0.0610 C   0  0  0  0  0  0  0  0  0  0  0  0
   -4.7701    1.0096   -0.0557 C   0  0  0  0  0  0  0  0  0  0  0  0
   -3.7421    1.9262   -0.0654 C   0  0  0  0  0  0  0  0  0  0  0  0
   -2.3911    1.4803   -0.0268 C   0  0  0  0  0  0  0  0  0  0  0  0
   -1.2623    2.4212   -0.0727 C   0  0  1  0  0  3  0  0  0  0  0  0
   -1.3229    3.8211   -0.0758 C   0  0  0  0  0  0  0  0  0  0  0  0
   -0.1392    4.5942   -0.0924 C   0  0  0  0  0  0  0  0  0  0  0  0
    1.0881    3.9019   -0.0778 C   0  0  0  0  0  0  0  0  0  0  0  0
    1.1145    2.4967   -0.0729 C   0  0  0  0  0  0  0  0  0  0  0  0
    2.3019    1.6319   -0.0263 C   0  0  0  0  0  0  0  0  0  0  0  0
    3.6211    2.1644   -0.0630 C   0  0  0  0  0  0  0  0  0  0  0  0
    4.7063    1.3162   -0.0530 C   0  0  0  0  0  0  0  0  0  0  0  0
    4.4974   -0.0956   -0.0601 C   0  0  0  0  0  0  0  0  0  0  0  0
    5.3748   -2.2365   -0.1573 C   0  0  0  0  0  0  0  0  0  0  0  0
    6.5156   -3.0988   -0.1984 C   0  0  0  0  0  3  0  0  0  0  0  0
    6.3476   -4.4685   -0.2714 C   0  0  0  0  0  0  0  0  0  0  0  0
    5.0407   -5.0499   -0.3098 C   0  0  0  0  0  0  0  0  0  0  0  0
    3.9136   -4.2526   -0.2734 C   0  0  0  0  0  0  0  0  0  0  0  0
    4.0438   -2.8293   -0.1914 C   0  0  0  0  0  0  0  0  0  0  0  0
    2.9304   -1.9761   -0.1364 C   0  0  0  0  0  0  0  0  0  0  0  0
    3.1211   -0.5863   -0.0392 C   0  0  0  0  0  0  0  0  0  0  0  0
   -0.2249    6.1245   -0.1051 C   0  0  0  0  0  0  0  0  0  0  0  0
    1.1666    6.7793   -0.1135 C   0  0  0  0  0  0  0  0  0  0  0  0
   -0.9917    6.5633   -1.3756 C   0  0  0  0  0  0  0  0  0  0  0  0
   -0.9890    6.5909    1.1570 C   0  0  0  0  0  0  0  0  0  0  0  0
   -1.7417   -2.5040   -0.1407 H   0  0  0  0  0  0  0  0  0  0  0  0
   -2.5841   -4.8696   -0.2873 H   0  0  0  0  0  0  0  0  0  0  0  0
   -4.5208   -6.4500   -0.3608 H   0  0  0  0  0  0  0  0  0  0  0  0
   -6.8703   -5.5834   -0.3002 H   0  0  0  0  0  0  0  0  0  0  0  0
   -7.3121   -3.1097   -0.1725 H   0  0  0  0  0  0  0  0  0  0  0  0
   -5.8282    1.3071   -0.0671 H   0  0  0  0  0  0  0  0  0  0  0  0
   -3.9526    3.0028   -0.1013 H   0  0  0  0  0  0  0  0  0  0  0  0
   -2.3017    4.3170   -0.0518 H   0  0  0  0  0  0  0  0  0  0  0  0
    2.0333    4.4558   -0.0565 H   0  0  0  0  0  0  0  0  0  0  0  0
    3.7612    3.2525   -0.0971 H   0  0  0  0  0  0  0  0  0  0  0  0
    5.7430    1.6816   -0.0625 H   0  0  0  0  0  0  0  0  0  0  0  0
    7.5094   -2.6303   -0.1708 H   0  0  0  0  0  0  0  0  0  0  0  0
    7.2284   -5.1273   -0.3012 H   0  0  0  0  0  0  0  0  0  0  0  0
    4.9399   -6.1439   -0.3655 H   0  0  0  0  0  0  0  0  0  0  0  0
    2.9051   -4.6920   -0.2932 H   0  0  0  0  0  0  0  0  0  0  0  0
    1.9115   -2.3860   -0.1462 H   0  0  0  0  0  0  0  0  0  0  0  0
   -2.0230    6.1941    1.1931 H   0  0  0  0  0  0  0  0  0  0  0  0
   -1.0592    7.6968    1.1631 H   0  0  0  0  0  0  0  0  0  0  0  0
   -0.4676    6.2756    2.0827 H   0  0  0  0  0  0  0  0  0  0  0  0
   -2.0234    6.1597   -1.4028 H   0  0  0  0  0  0  0  0  0  0  0  0
   -1.0672    7.6685   -1.4033 H   0  0  0  0  0  0  0  0  0  0  0  0
   -0.4693    6.2325   -2.2955 H   0  0  0  0  0  0  0  0  0  0  0  0
    1.7532    6.5229    0.7918 H   0  0  0  0  0  0  0  0  0  0  0  0
    1.0568    7.8808   -0.1294 H   0  0  0  0  0  0  0  0  0  0  0  0
    1.7544    6.4963   -1.0100 H   0  0  0  0  0  0  0  0  0  0  0  0
  2 22  1  0  0  0  0
  2 18  1  0  0  0  0
  4 14  1  0  0  0  0
  5 26  1  0  0  0  0
  6  1  1  0  0  0  0
  7  6  2  0  0  0  0
  8 13  1  0  0  0  0
  8  7  1  0  0  0  0
  9  8  2  0  0  0  0
 10 11  2  0  0  0  0
 10  9  1  0  0  0  0
 11 12  1  0  0  0  0
 12 43  1  0  0  0  0
 12 13  1  0  0  0  0
 13  4  2  0  0  0  0
 14 15  2  0  0  0  0
 14  6  1  0  0  0  0
 16 15  1  0  0  0  0
 16 17  2  0  0  0  0
 17  1  1  0  0  0  0
 18 17  1  1  0  0  0
 19 18  1  0  0  0  0
 19 46  1  0  0  0  0
 20 21  1  0  0  0  0
 20 19  2  0  0  0  0
 21 22  2  0  0  0  0
 21 47  1  0  0  0  0
 22 23  1  0  0  0  0
 23  3  1  0  0  0  0
 24 25  1  0  0  0  0
 24 23  2  0  0  0  0
 26 25  2  0  0  0  0
 26 34  1  0  0  0  0
 27  5  2  0  0  0  0
 28 50  1  0  0  0  0
 28 27  1  0  0  0  0
 29 28  1  0  0  0  0
 30 31  1  0  0  0  0
 30 29  2  0  0  0  0
 31 32  2  0  0  0  0
 32 27  1  0  0  0  0
 32 33  1  0  0  0  0
 33 34  2  0  0  0  0
 34  3  1  0  0  0  0
 35 20  1  0  0  0  0
 35 38  1  0  0  0  0
 36 35  1  0  0  0  0
 36 61  1  0  0  0  0
 37 35  1  0  0  0  0
 38 56  1  0  0  0  0
 38 55  1  0  0  0  0
 38 57  1  0  0  0  0
 39  7  1  0  0  0  0
 40  9  1  0  0  0  0
 41 10  1  0  0  0  0
 42 11  1  0  0  0  0
 44 15  1  0  0  0  0
 45 16  1  0  0  0  0
 48 24  1  0  0  0  0
 49 25  1  0  0  0  0
 51 29  1  0  0  0  0
 52 30  1  0  0  0  0
 53 31  1  0  0  0  0
 54 33  1  0  0  0  0
 58 37  1  0  0  0  0
 59 37  1  0  0  0  0
 60 37  1  0  0  0  0
 62 36  1  0  0  0  0
 63 36  1  0  0  0  0
M  END
