2,4,6
 OpenBabel05122313063D

 67 69  0  0  0  0  0  0  0  0999 V2000
    3.4324   -0.0014   -0.0020 N   0  0  0  0  0  0  0  0  0  0  0  0
    1.4598    1.3602    1.8330 N   0  0  0  0  0  0  0  0  0  0  0  0
    1.4533    0.7104    2.6327 H   0  0  0  0  0  0  0  0  0  0  0  0
    1.4564   -2.2684    0.2613 N   0  0  0  0  0  0  0  0  0  0  0  0
    1.4494   -2.6370   -0.7010 H   0  0  0  0  0  0  0  0  0  0  0  0
    1.4565    0.9071   -2.0952 N   0  0  0  0  0  0  0  0  0  0  0  0
    1.4509    1.9246   -1.9323 H   0  0  0  0  0  0  0  0  0  0  0  0
    3.7904    0.6871    1.2382 C   0  0  0  0  0  0  0  0  0  0  0  0
    4.8327    1.0917    1.2085 H   0  0  0  0  0  0  0  0  0  0  0  0
    3.7823   -0.0567    2.0623 H   0  0  0  0  0  0  0  0  0  0  0  0
    2.8355    1.8265    1.6087 C   0  0  0  0  0  0  0  0  0  0  0  0
    3.2439    2.3543    2.5031 H   0  0  0  0  0  0  0  0  0  0  0  0
    2.8036    2.5838    0.7963 H   0  0  0  0  0  0  0  0  0  0  0  0
    0.5033    2.4488    2.1319 C   0  0  0  0  0  0  0  0  0  0  0  0
    0.4935    3.1362    1.2612 H   0  0  0  0  0  0  0  0  0  0  0  0
    0.8412    3.0424    3.0146 H   0  0  0  0  0  0  0  0  0  0  0  0
   -0.8770    1.8920    2.3757 C   0  0  0  0  0  0  0  0  0  0  0  0
   -1.2090    1.3589    3.6384 C   0  0  0  0  0  0  0  0  0  0  0  0
   -0.4736    1.3994    4.4590 H   0  0  0  0  0  0  0  0  0  0  0  0
   -2.4763    0.8035    3.8694 C   0  0  0  0  0  0  0  0  0  0  0  0
   -2.7264    0.3976    4.8610 H   0  0  0  0  0  0  0  0  0  0  0  0
   -3.4341    0.7951    2.8419 C   0  0  0  0  0  0  0  0  0  0  0  0
   -4.4376    0.3839    3.0295 H   0  0  0  0  0  0  0  0  0  0  0  0
   -3.1127    1.3254    1.5829 C   0  0  0  0  0  0  0  0  0  0  0  0
   -3.8594    1.3340    0.7764 H   0  0  0  0  0  0  0  0  0  0  0  0
   -1.8365    1.8578    1.3441 C   0  0  0  0  0  0  0  0  0  0  0  0
   -1.5971    2.2728    0.3511 H   0  0  0  0  0  0  0  0  0  0  0  0
    3.7881   -1.4202   -0.0263 C   0  0  0  0  0  0  0  0  0  0  0  0
    4.8304   -1.5985    0.3381 H   0  0  0  0  0  0  0  0  0  0  0  0
    3.7784   -1.7622   -1.0825 H   0  0  0  0  0  0  0  0  0  0  0  0
    2.8324   -2.3089    0.7764 C   0  0  0  0  0  0  0  0  0  0  0  0
    3.2394   -3.3479    0.7868 H   0  0  0  0  0  0  0  0  0  0  0  0
    2.8018   -1.9831    1.8382 H   0  0  0  0  0  0  0  0  0  0  0  0
    0.5000   -3.0705    1.0557 C   0  0  0  0  0  0  0  0  0  0  0  0
    0.4905   -2.6590    2.0859 H   0  0  0  0  0  0  0  0  0  0  0  0
    0.8378   -4.1316    1.1294 H   0  0  0  0  0  0  0  0  0  0  0  0
   -0.8804   -3.0041    0.4517 C   0  0  0  0  0  0  0  0  0  0  0  0
   -1.8401   -2.0934    0.9369 C   0  0  0  0  0  0  0  0  0  0  0  0
   -1.6013   -1.4402    1.7925 H   0  0  0  0  0  0  0  0  0  0  0  0
   -3.1160   -2.0343    0.3556 C   0  0  0  0  0  0  0  0  0  0  0  0
   -3.8631   -1.3401    0.7653 H   0  0  0  0  0  0  0  0  0  0  0  0
   -3.4367   -2.8601   -0.7329 C   0  0  0  0  0  0  0  0  0  0  0  0
   -4.4399   -2.8172   -1.1834 H   0  0  0  0  0  0  0  0  0  0  0  0
   -2.4787   -3.7547   -1.2382 C   0  0  0  0  0  0  0  0  0  0  0  0
   -2.7283   -4.4111   -2.0852 H   0  0  0  0  0  0  0  0  0  0  0  0
   -1.2118   -3.8319   -0.6409 C   0  0  0  0  0  0  0  0  0  0  0  0
   -0.4761   -4.5629   -1.0152 H   0  0  0  0  0  0  0  0  0  0  0  0
    3.7885    0.7286   -1.2186 C   0  0  0  0  0  0  0  0  0  0  0  0
    4.8303    0.5010   -1.5557 H   0  0  0  0  0  0  0  0  0  0  0  0
    3.7801    1.8142   -0.9862 H   0  0  0  0  0  0  0  0  0  0  0  0
    2.8317    0.4793   -2.3890 C   0  0  0  0  0  0  0  0  0  0  0  0
    3.2387    0.9892   -3.2943 H   0  0  0  0  0  0  0  0  0  0  0  0
    2.7992   -0.6031   -2.6371 H   0  0  0  0  0  0  0  0  0  0  0  0
    0.4988    0.6224   -3.1863 C   0  0  0  0  0  0  0  0  0  0  0  0
    0.8361    1.0901   -4.1419 H   0  0  0  0  0  0  0  0  0  0  0  0
    0.4881   -0.4753   -3.3466 H   0  0  0  0  0  0  0  0  0  0  0  0
   -0.8809    1.1130   -2.8249 C   0  0  0  0  0  0  0  0  0  0  0  0
   -1.8419    0.2365   -2.2825 C   0  0  0  0  0  0  0  0  0  0  0  0
   -1.6042   -0.8317   -2.1485 H   0  0  0  0  0  0  0  0  0  0  0  0
   -3.1176    0.7104   -1.9400 C   0  0  0  0  0  0  0  0  0  0  0  0
   -3.8658    0.0077   -1.5469 H   0  0  0  0  0  0  0  0  0  0  0  0
   -3.4369    2.0668   -2.1064 C   0  0  0  0  0  0  0  0  0  0  0  0
   -4.4399    2.4356   -1.8436 H   0  0  0  0  0  0  0  0  0  0  0  0
   -2.4775    2.9526   -2.6245 C   0  0  0  0  0  0  0  0  0  0  0  0
   -2.7259    4.0151   -2.7659 H   0  0  0  0  0  0  0  0  0  0  0  0
   -1.2109    2.4740   -2.9910 C   0  0  0  0  0  0  0  0  0  0  0  0
   -0.4742    3.1645   -3.4341 H   0  0  0  0  0  0  0  0  0  0  0  0
  1  8  1  0  0  0  0
  2 14  1  0  0  0  0
  2  3  1  0  0  0  0
  4 31  1  0  0  0  0
  4 34  1  0  0  0  0
  5  4  1  0  0  0  0
  6  7  1  0  0  0  0
  8 11  1  0  0  0  0
  8 10  1  0  0  0  0
  9  8  1  0  0  0  0
 11  2  1  0  0  0  0
 11 12  1  0  0  0  0
 13 11  1  0  0  0  0
 14 17  1  0  0  0  0
 14 16  1  0  0  0  0
 15 14  1  0  0  0  0
 17 18  1  0  0  0  0
 18 20  2  0  0  0  0
 18 19  1  0  0  0  0
 20 21  1  0  0  0  0
 22 23  1  0  0  0  0
 22 20  1  0  0  0  0
 24 22  2  0  0  0  0
 25 24  1  0  0  0  0
 26 24  1  0  0  0  0
 26 17  2  0  0  0  0
 27 26  1  0  0  0  0
 28  1  1  0  0  0  0
 28 29  1  0  0  0  0
 28 31  1  0  0  0  0
 30 28  1  0  0  0  0
 31 32  1  0  0  0  0
 31 33  1  0  0  0  0
 34 36  1  0  0  0  0
 34 35  1  0  0  0  0
 37 38  1  0  0  0  0
 37 34  1  0  0  0  0
 38 39  1  0  0  0  0
 40 41  1  0  0  0  0
 40 38  2  0  0  0  0
 42 40  1  0  0  0  0
 43 42  1  0  0  0  0
 44 42  2  0  0  0  0
 44 46  1  0  0  0  0
 45 44  1  0  0  0  0
 46 37  2  0  0  0  0
 47 46  1  0  0  0  0
 48 50  1  0  0  0  0
 48  1  1  0  0  0  0
 49 48  1  0  0  0  0
 51  6  1  0  0  0  0
 51 48  1  0  0  0  0
 52 51  1  0  0  0  0
 53 51  1  0  0  0  0
 54 57  1  0  0  0  0
 54  6  1  0  0  0  0
 55 54  1  0  0  0  0
 56 54  1  0  0  0  0
 57 58  1  0  0  0  0
 58 59  1  0  0  0  0
 58 60  2  0  0  0  0
 60 61  1  0  0  0  0
 62 60  1  0  0  0  0
 62 63  1  0  0  0  0
 64 62  2  0  0  0  0
 65 64  1  0  0  0  0
 66 57  2  0  0  0  0
 66 64  1  0  0  0  0
 67 66  1  0  0  0  0
M  END
