3,5,8
 OpenBabel05122313063D

 43 45  0  0  1  0  0  0  0  0999 V2000
   -4.0078    0.8553    2.0634 Cl  0  0  0  0  0  0  0  0  0  0  0  0
   -1.8608    0.4994   -0.1677 O   0  0  0  0  0  0  0  0  0  0  0  0
   -1.7951   -1.7876   -0.2293 N   0  0  0  0  0  2  0  0  0  0  0  0
   -2.3156   -2.6718   -0.2246 H   0  0  0  0  0  0  0  0  0  0  0  0
    2.0656   -0.9414   -0.1344 N   0  0  0  0  0  2  0  0  0  0  0  0
    2.7958   -1.6650   -0.1110 H   0  0  0  0  0  0  0  0  0  0  0  0
   -2.4953   -0.6809   -0.2021 C   0  0  2  0  0  3  0  0  0  0  0  0
   -0.4328    0.3534   -0.0809 N   0  0  0  0  0  2  0  0  0  0  0  0
   -4.6302   -1.2812   -1.3184 C   0  0  0  0  0  0  0  0  0  0  0  0
   -4.0243   -1.8163   -2.0651 H   0  0  0  0  0  0  0  0  0  0  0  0
    2.4554    0.3309   -0.1022 C   0  0  2  0  0  3  0  0  0  0  0  0
   -6.0249   -1.2512   -1.4289 C   0  0  0  0  0  0  0  0  0  0  0  0
   -6.5201   -1.7780   -2.2573 H   0  0  0  0  0  0  0  0  0  0  0  0
   -6.7816   -0.5369   -0.4869 C   0  0  0  0  0  0  0  0  0  0  0  0
   -7.8782   -0.5016   -0.5671 H   0  0  0  0  0  0  0  0  0  0  0  0
   -4.7495    0.0941    0.6827 C   0  0  0  0  0  0  0  0  0  0  0  0
   -6.1476    0.1312    0.5699 C   0  0  0  0  0  0  0  0  0  0  0  0
   -6.7286    0.6752    1.3275 H   0  0  0  0  0  0  0  0  0  0  0  0
   -3.9683   -0.6030   -0.2707 C   0  0  0  0  0  0  0  0  0  0  0  0
    4.6516   -1.6591    1.2736 Cl  0  0  0  0  0  0  0  0  0  0  0  0
    1.6478    1.4108   -0.1136 N   0  0  0  0  0  0  0  0  0  0  0  0
   -0.2957    2.8371   -0.1330 C   0  0  0  0  0  0  0  0  0  0  0  0
    3.9221    0.6613   -0.0963 C   0  0  0  0  0  0  0  0  0  0  0  0
   -1.4627    3.1836    0.5815 C   0  0  0  0  0  0  0  0  0  0  0  0
   -1.9881    2.4315    1.1821 H   0  0  0  0  0  0  0  0  0  0  0  0
    4.3104    1.8918   -0.6773 C   0  0  0  0  0  0  0  0  0  0  0  0
    3.5046    2.5257   -1.0706 H   0  0  0  0  0  0  0  0  0  0  0  0
    0.3103    1.4732   -0.1054 C   0  0  0  0  0  0  0  0  0  0  0  0
    5.6447    2.2991   -0.7458 C   0  0  0  0  0  0  0  0  0  0  0  0
    5.9004    3.2600   -1.2161 H   0  0  0  0  0  0  0  0  0  0  0  0
    0.3732    3.8373   -0.8725 C   0  0  0  0  0  0  0  0  0  0  0  0
    1.2912    3.5647   -1.4113 H   0  0  0  0  0  0  0  0  0  0  0  0
   -1.9494    4.4976    0.5449 C   0  0  0  0  0  0  0  0  0  0  0  0
   -2.8545    4.7529    1.1168 H   0  0  0  0  0  0  0  0  0  0  0  0
    6.3026    0.2670    0.3954 C   0  0  0  0  0  0  0  0  0  0  0  0
    7.0673   -0.3844    0.8409 H   0  0  0  0  0  0  0  0  0  0  0  0
    6.6499    1.4808   -0.2074 C   0  0  0  0  0  0  0  0  0  0  0  0
    7.7062    1.7860   -0.2472 H   0  0  0  0  0  0  0  0  0  0  0  0
    4.9579   -0.1392    0.4492 C   0  0  0  0  0  0  0  0  0  0  0  0
   -0.1251    5.1443   -0.9187 C   0  0  0  0  0  0  0  0  0  0  0  0
    0.4014    5.9086   -1.5103 H   0  0  0  0  0  0  0  0  0  0  0  0
   -1.2898    5.4804   -0.2089 C   0  0  0  0  0  0  0  0  0  0  0  0
   -1.6792    6.5094   -0.2392 H   0  0  0  0  0  0  0  0  0  0  0  0
  2  8  1  0  0  0  0
  3  4  1  0  0  0  0
  5  6  1  0  0  0  0
  7  3  1  6  0  0  0
  7  2  1  0  0  0  0
  9 19  1  0  0  0  0
 10  9  1  0  0  0  0
 11  5  1  6  0  0  0
 11 23  1  0  0  0  0
 12  9  2  0  0  0  0
 12 14  1  0  0  0  0
 13 12  1  0  0  0  0
 14 17  2  0  0  0  0
 15 14  1  0  0  0  0
 16  1  1  0  0  0  0
 17 16  1  0  0  0  0
 17 18  1  0  0  0  0
 19  7  1  0  0  0  0
 19 16  2  0  0  0  0
 21 28  2  0  0  0  0
 21 11  1  0  0  0  0
 22 28  1  0  0  0  0
 22 24  1  0  0  0  0
 23 39  1  0  0  0  0
 24 25  1  0  0  0  0
 26 23  2  0  0  0  0
 27 26  1  0  0  0  0
 28  8  1  0  0  0  0
 29 26  1  0  0  0  0
 29 37  2  0  0  0  0
 30 29  1  0  0  0  0
 31 22  2  0  0  0  0
 32 31  1  0  0  0  0
 33 24  2  0  0  0  0
 33 34  1  0  0  0  0
 35 39  2  0  0  0  0
 35 36  1  0  0  0  0
 37 35  1  0  0  0  0
 38 37  1  0  0  0  0
 39 20  1  0  0  0  0
 40 31  1  0  0  0  0
 40 42  2  0  0  0  0
 41 40  1  0  0  0  0
 42 33  1  0  0  0  0
 43 42  1  0  0  0  0
M  END
