14,15,28
 OpenBabel05122313063D

 43 45  0  0  1  0  0  0  0  0999 V2000
    6.0438   -2.7178    0.0865 Br  0  0  0  0  0  0  0  0  0  0  0  0
    0.7438    1.4607   -0.0644 O   0  0  0  0  0  0  0  0  0  0  0  0
    3.2066    5.7871   -0.4174 C   0  0  0  0  0  0  0  0  0  0  0  0
    3.9666    6.5773   -0.5097 H   0  0  0  0  0  0  0  0  0  0  0  0
    1.8896    6.1169   -0.0562 C   0  0  0  0  0  0  0  0  0  0  0  0
    1.6158    7.1638    0.1415 H   0  0  0  0  0  0  0  0  0  0  0  0
    3.8951   -0.9538    0.7871 C   0  0  0  0  0  0  0  0  0  0  0  0
    4.6612   -0.4037    1.3512 H   0  0  0  0  0  0  0  0  0  0  0  0
    0.1344   -0.8288    0.0458 C   0  0  1  0  0  3  0  0  0  0  0  0
    1.5733   -1.2184    0.0652 C   0  0  0  0  0  0  0  0  0  0  0  0
    3.2653   -2.8508   -0.6160 C   0  0  0  0  0  0  0  0  0  0  0  0
    3.5446   -3.7656   -1.1573 H   0  0  0  0  0  0  0  0  0  0  0  0
    4.2393   -2.1190    0.0834 C   0  0  0  0  0  0  0  0  0  0  0  0
   -0.2645    0.4535    0.0501 N   0  0  0  0  0  2  0  0  0  0  0  0
   -2.8396   -0.6694    0.1261 N   0  0  0  0  0  2  0  0  0  0  0  0
   -3.8570   -0.7864    0.2051 H   0  0  0  0  0  0  0  0  0  0  0  0
    0.9208    5.1148    0.0637 C   0  0  0  0  0  0  0  0  0  0  0  0
   -0.1002    5.3880    0.3709 H   0  0  0  0  0  0  0  0  0  0  0  0
    1.9404   -2.4025   -0.6109 C   0  0  0  0  0  0  0  0  0  0  0  0
    1.1558   -2.9679   -1.1335 H   0  0  0  0  0  0  0  0  0  0  0  0
    3.5505    4.4466   -0.6562 C   0  0  0  0  0  0  0  0  0  0  0  0
    4.5804    4.1830   -0.9393 H   0  0  0  0  0  0  0  0  0  0  0  0
    2.5871    3.4378   -0.5408 C   0  0  0  0  0  0  0  0  0  0  0  0
    2.8534    2.3894   -0.7344 H   0  0  0  0  0  0  0  0  0  0  0  0
    2.5678   -0.5064    0.7717 C   0  0  0  0  0  0  0  0  0  0  0  0
    2.3064    0.3962    1.3386 H   0  0  0  0  0  0  0  0  0  0  0  0
    1.2579    3.7643   -0.1828 C   0  0  0  0  0  0  0  0  0  0  0  0
   -1.0596    2.8598    0.0249 N   0  0  0  0  0  2  0  0  0  0  0  0
   -1.4353    3.8127   -0.0099 H   0  0  0  0  0  0  0  0  0  0  0  0
    0.2402    2.7106   -0.0693 C   0  0  2  0  0  3  0  0  0  0  0  0
   -0.7539   -1.8301    0.0023 N   0  0  0  0  0  0  0  0  0  0  0  0
   -2.7956   -3.0935   -0.0918 C   0  0  0  0  0  0  0  0  0  0  0  0
   -2.1002   -1.7744    0.0139 C   0  0  0  0  0  0  0  0  0  0  0  0
   -2.1079   -4.2730    0.2658 C   0  0  0  0  0  0  0  0  0  0  0  0
   -1.0680   -4.1806    0.6092 H   0  0  0  0  0  0  0  0  0  0  0  0
   -4.1273   -3.1938   -0.5504 C   0  0  0  0  0  0  0  0  0  0  0  0
   -4.6705   -2.2949   -0.8810 H   0  0  0  0  0  0  0  0  0  0  0  0
   -4.7608   -4.4413   -0.6307 C   0  0  0  0  0  0  0  0  0  0  0  0
   -5.7961   -4.5035   -0.9983 H   0  0  0  0  0  0  0  0  0  0  0  0
   -4.0732   -5.6071   -0.2573 C   0  0  0  0  0  0  0  0  0  0  0  0
   -4.5719   -6.5862   -0.3204 H   0  0  0  0  0  0  0  0  0  0  0  0
   -2.7442   -5.5179    0.1887 C   0  0  0  0  0  0  0  0  0  0  0  0
   -2.1989   -6.4284    0.4807 H   0  0  0  0  0  0  0  0  0  0  0  0
  2 14  1  0  0  0  0
  3  5  1  0  0  0  0
  4  3  1  0  0  0  0
  5 17  2  0  0  0  0
  5  6  1  0  0  0  0
  7  8  1  0  0  0  0
  9 31  1  6  0  0  0
  9 14  1  0  0  0  0
  9 10  1  0  0  0  0
 10 25  2  0  0  0  0
 11 19  2  0  0  0  0
 11 13  1  0  0  0  0
 12 11  1  0  0  0  0
 13  1  1  0  0  0  0
 13  7  2  0  0  0  0
 15 16  1  0  0  0  0
 17 18  1  0  0  0  0
 19 10  1  0  0  0  0
 20 19  1  0  0  0  0
 21 23  1  0  0  0  0
 21  3  2  0  0  0  0
 22 21  1  0  0  0  0
 23 27  2  0  0  0  0
 24 23  1  0  0  0  0
 25  7  1  0  0  0  0
 25 26  1  0  0  0  0
 27 30  1  0  0  0  0
 27 17  1  0  0  0  0
 29 28  1  0  0  0  0
 30  2  1  1  0  0  0
 30 28  1  0  0  0  0
 31 33  2  0  0  0  0
 32 33  1  0  0  0  0
 32 34  1  0  0  0  0
 33 15  1  0  0  0  0
 34 35  1  0  0  0  0
 36 32  2  0  0  0  0
 37 36  1  0  0  0  0
 38 36  1  0  0  0  0
 38 40  2  0  0  0  0
 39 38  1  0  0  0  0
 40 42  1  0  0  0  0
 41 40  1  0  0  0  0
 42 34  2  0  0  0  0
 42 43  1  0  0  0  0
M  END
