48,50,52
 OpenBabel05122313063D

 53 55  0  0  1  0  0  0  0  0999 V2000
    1.7426   -0.1592   -1.1820 C   0  0  2  0  0  0  0  0  0  0  0  0
    2.6139   -0.2263   -1.8562 H   0  0  0  0  0  0  0  0  0  0  0  0
    3.5245   -0.4161    0.6341 C   0  0  2  0  0  3  0  0  0  0  0  0
    3.4225   -0.4792    2.0253 C   0  0  0  0  0  0  0  0  0  0  0  0
    4.2451   -0.6130    2.7336 H   0  0  0  0  0  0  0  0  0  0  0  0
    2.0514   -0.3407    2.3289 C   0  0  0  0  0  0  0  0  0  0  0  0
    1.5441   -0.3379    3.3006 H   0  0  0  0  0  0  0  0  0  0  0  0
    4.7231   -0.4467   -0.2769 C   0  0  0  0  0  0  0  0  0  0  0  0
    4.4545   -1.0582   -1.1705 H   0  0  0  0  0  0  0  0  0  0  0  0
    5.9162   -1.1331    0.4015 C   0  0  0  0  0  0  0  0  0  0  0  0
    6.2642   -0.5487    1.2769 H   0  0  0  0  0  0  0  0  0  0  0  0
    6.7654   -1.2064   -0.3046 H   0  0  0  0  0  0  0  0  0  0  0  0
    5.6618   -2.1546    0.7443 H   0  0  0  0  0  0  0  0  0  0  0  0
    5.0907    0.9755   -0.7513 C   0  0  0  0  0  0  0  0  0  0  0  0
    4.2474    1.4912   -1.2547 H   0  0  0  0  0  0  0  0  0  0  0  0
    5.9417    0.9386   -1.4593 H   0  0  0  0  0  0  0  0  0  0  0  0
    5.3882    1.6039    0.1116 H   0  0  0  0  0  0  0  0  0  0  0  0
    1.4389    2.0839   -2.3314 C   0  0  0  0  0  3  0  0  0  0  0  0
    2.3116    1.9745   -2.9851 H   0  0  0  0  0  0  0  0  0  0  0  0
    0.5041    3.0969   -2.1992 C   0  0  0  0  0  0  0  0  0  0  0  0
    0.4699    4.0355   -2.7609 H   0  0  0  0  0  0  0  0  0  0  0  0
   -0.4034    2.6721   -1.1880 C   0  0  0  0  0  0  0  0  0  0  0  0
   -1.6103    3.4017   -0.6676 C   0  0  0  0  0  0  0  0  0  0  0  0
   -2.0343    2.7769    0.1431 H   0  0  0  0  0  0  0  0  0  0  0  0
   -2.6769    3.5424   -1.7685 C   0  0  0  0  0  0  0  0  0  0  0  0
   -2.3037    4.1492   -2.6188 H   0  0  0  0  0  0  0  0  0  0  0  0
   -3.5745    4.0486   -1.3621 H   0  0  0  0  0  0  0  0  0  0  0  0
   -2.9911    2.5544   -2.1585 H   0  0  0  0  0  0  0  0  0  0  0  0
   -1.2119    4.7596   -0.0641 C   0  0  0  0  0  0  0  0  0  0  0  0
   -0.4783    4.6397    0.7572 H   0  0  0  0  0  0  0  0  0  0  0  0
   -2.1062    5.2660    0.3490 H   0  0  0  0  0  0  0  0  0  0  0  0
   -0.7704    5.4308   -0.8291 H   0  0  0  0  0  0  0  0  0  0  0  0
    1.0365   -2.2528   -2.4306 C   0  0  0  0  0  3  0  0  0  0  0  0
    1.9269   -2.2864   -3.0687 H   0  0  0  0  0  0  0  0  0  0  0  0
   -0.0763   -3.0733   -2.3524 C   0  0  0  0  0  0  0  0  0  0  0  0
   -0.2788   -3.9638   -2.9553 H   0  0  0  0  0  0  0  0  0  0  0  0
   -0.9036   -2.5259   -1.3312 C   0  0  0  0  0  0  0  0  0  0  0  0
   -2.2349   -3.0340   -0.8521 C   0  0  0  0  0  0  0  0  0  0  0  0
   -2.5510   -2.3667   -0.0261 H   0  0  0  0  0  0  0  0  0  0  0  0
   -2.1068   -4.4604   -0.2901 C   0  0  0  0  0  0  0  0  0  0  0  0
   -1.7814   -5.1775   -1.0715 H   0  0  0  0  0  0  0  0  0  0  0  0
   -3.0874   -4.8048    0.0928 H   0  0  0  0  0  0  0  0  0  0  0  0
   -1.3806   -4.5043    0.5452 H   0  0  0  0  0  0  0  0  0  0  0  0
   -3.2880   -2.9390   -1.9705 C   0  0  0  0  0  0  0  0  0  0  0  0
   -3.4057   -1.8979   -2.3301 H   0  0  0  0  0  0  0  0  0  0  0  0
   -4.2714   -3.2820   -1.5935 H   0  0  0  0  0  0  0  0  0  0  0  0
   -3.0180   -3.5773   -2.8367 H   0  0  0  0  0  0  0  0  0  0  0  0
    1.3337   -0.1996    1.2030 N   0  0  0  0  0  2  0  0  0  0  0  0
    2.2335   -0.2425    0.1807 N   0  0  0  0  0  0  0  0  0  0  0  0
   -0.0274    1.4555   -0.7338 N   0  0  0  0  0  2  0  0  0  0  0  0
    1.0929    1.1104   -1.4326 N   0  0  0  0  0  0  0  0  0  0  0  0
   -0.3107   -1.4240   -0.8197 N   0  0  0  0  0  2  0  0  0  0  0  0
    0.8655   -1.2689   -1.4941 N   0  0  0  0  0  0  0  0  0  0  0  0
  1  2  1  6  0  0  0
  1 49  1  0  0  0  0
  3  8  1  1  0  0  0
  3  4  1  0  0  0  0
  4  6  2  0  0  0  0
  4  5  1  0  0  0  0
  6  7  1  0  0  0  0
  8 10  1  0  0  0  0
  9  8  1  0  0  0  0
 10 13  1  0  0  0  0
 10 11  1  0  0  0  0
 12 10  1  0  0  0  0
 14  8  1  0  0  0  0
 14 17  1  0  0  0  0
 15 14  1  0  0  0  0
 16 14  1  0  0  0  0
 18 20  1  0  0  0  0
 18 51  1  0  0  0  0
 19 18  1  0  0  0  0
 20 22  2  0  0  0  0
 21 20  1  0  0  0  0
 22 50  1  0  0  0  0
 22 23  1  0  0  0  0
 23 29  1  0  0  0  0
 23 24  1  0  0  0  0
 25 27  1  0  0  0  0
 25 23  1  0  0  0  0
 26 25  1  0  0  0  0
 28 25  1  0  0  0  0
 29 31  1  0  0  0  0
 29 30  1  0  0  0  0
 32 29  1  0  0  0  0
 33 35  1  0  0  0  0
 33 53  1  0  0  0  0
 34 33  1  0  0  0  0
 35 37  2  0  0  0  0
 36 35  1  0  0  0  0
 37 38  1  0  0  0  0
 37 52  1  0  0  0  0
 38 40  1  0  0  0  0
 38 39  1  0  0  0  0
 40 42  1  0  0  0  0
 40 43  1  0  0  0  0
 41 40  1  0  0  0  0
 44 46  1  0  0  0  0
 44 38  1  0  0  0  0
 45 44  1  0  0  0  0
 47 44  1  0  0  0  0
 48  6  1  0  0  0  0
 49  3  1  0  0  0  0
 49 48  1  0  0  0  0
 51  1  1  0  0  0  0
 51 50  1  0  0  0  0
 53  1  1  0  0  0  0
 53 52  1  0  0  0  0
M  END
