1,2,5
 OpenBabel05122313063D

 29 31  0  0  1  0  0  0  0  0999 V2000
   -2.2646   -0.4935   -0.3396 N   0  0  0  0  0  2  0  0  0  0  0  0
    0.0001    0.9388   -0.3120 N   0  0  0  0  0  2  0  0  0  0  0  0
   -1.2056    2.9680   -0.1109 N   0  0  0  0  0  0  0  0  0  0  0  0
    1.2076    2.9669   -0.1117 N   0  0  0  0  0  0  0  0  0  0  0  0
    2.2637   -0.4953   -0.3426 N   0  0  0  0  0  2  0  0  0  0  0  0
    0.0019    4.9318    0.0774 N   0  0  0  0  0  0  0  0  0  0  0  0
   -0.8845    5.4241    0.1675 H   0  0  0  0  0  0  0  0  0  0  0  0
    0.8888    5.4233    0.1669 H   0  0  0  0  0  0  0  0  0  0  0  0
   -3.3493   -1.2684   -0.4480 C   0  0  0  0  0  3  0  0  0  0  0  0
   -3.1587   -2.3548   -0.4867 H   0  0  0  0  0  0  0  0  0  0  0  0
   -4.6475   -0.7332   -0.5146 C   0  0  0  0  0  0  0  0  0  0  0  0
   -5.5159   -1.4021   -0.6024 H   0  0  0  0  0  0  0  0  0  0  0  0
   -4.8032    0.6599   -0.4630 C   0  0  0  0  0  0  0  0  0  0  0  0
   -5.8053    1.1125   -0.5057 H   0  0  0  0  0  0  0  0  0  0  0  0
   -3.6644    1.4706   -0.3608 C   0  0  0  0  0  0  0  0  0  0  0  0
   -3.7190    2.5672   -0.3248 H   0  0  0  0  0  0  0  0  0  0  0  0
   -2.4057    0.8470   -0.3084 C   0  0  0  0  0  0  0  0  0  0  0  0
   -1.1431    1.6398   -0.2342 C   0  0  1  0  0  3  0  0  0  0  0  0
    0.0013    3.5884   -0.0510 C   0  0  0  0  0  0  0  0  0  0  0  0
    1.1440    1.6389   -0.2349 C   0  0  0  0  0  0  0  0  0  0  0  0
    2.4059    0.8451   -0.3100 C   0  0  2  0  0  3  0  0  0  0  0  0
    3.6650    1.4678   -0.3616 C   0  0  0  0  0  0  0  0  0  0  0  0
    3.7205    2.5642   -0.3246 H   0  0  0  0  0  0  0  0  0  0  0  0
    4.8032    0.6563   -0.4641 C   0  0  0  0  0  0  0  0  0  0  0  0
    5.8057    1.1081   -0.5061 H   0  0  0  0  0  0  0  0  0  0  0  0
    4.6465   -0.7366   -0.5170 C   0  0  0  0  0  0  0  0  0  0  0  0
    5.5145   -1.4061   -0.6050 H   0  0  0  0  0  0  0  0  0  0  0  0
    3.3479   -1.2709   -0.4513 C   0  0  0  0  0  0  0  0  0  0  0  0
    3.1566   -2.3571   -0.4910 H   0  0  0  0  0  0  0  0  0  0  0  0
  1 17  1  0  0  0  0
  2 20  1  0  0  0  0
  2 18  1  0  0  0  0
  3 19  2  0  0  0  0
  4 19  1  0  0  0  0
  5 21  1  0  0  0  0
  6  8  1  0  0  0  0
  6  7  1  0  0  0  0
  9  1  1  0  0  0  0
 10  9  1  0  0  0  0
 11 13  2  0  0  0  0
 11  9  1  0  0  0  0
 12 11  1  0  0  0  0
 13 15  1  0  0  0  0
 14 13  1  0  0  0  0
 15 16  1  0  0  0  0
 15 17  2  0  0  0  0
 18 17  1  6  0  0  0
 18  3  1  0  0  0  0
 19  6  1  0  0  0  0
 20  4  2  0  0  0  0
 21 20  1  6  0  0  0
 22 23  1  0  0  0  0
 22 21  1  0  0  0  0
 24 22  2  0  0  0  0
 25 24  1  0  0  0  0
 26 24  1  0  0  0  0
 26 28  2  0  0  0  0
 27 26  1  0  0  0  0
 28  5  1  0  0  0  0
 29 28  1  0  0  0  0
M  END
