5,22,41
 OpenBabel05122313063D

 78 77  0  0  0  0  0  0  0  0999 V2000
    3.3333    0.2086   -0.0051 P   0  0  0  0  0  4  0  0  0  0  0  0
   -3.3186    0.2433   -0.0053 P   0  0  0  0  0  4  0  0  0  0  0  0
    4.0201    0.7084    1.6584 C   0  0  0  0  0  0  0  0  0  0  0  0
    4.9984    1.1820    1.4262 H   0  0  0  0  0  0  0  0  0  0  0  0
    2.0619   -0.8494    0.0956 N   0  0  0  0  0  2  0  0  0  0  0  0
   -4.6967   -0.7529   -0.7914 C   0  0  0  0  0  0  0  0  0  0  0  0
   -4.7434   -1.6463   -0.1299 H   0  0  0  0  0  0  0  0  0  0  0  0
   -2.7440    1.6464   -1.0597 C   0  0  0  0  0  0  0  0  0  0  0  0
   -2.0152    2.1256   -0.3674 H   0  0  0  0  0  0  0  0  0  0  0  0
   -1.9571    1.2161   -2.3028 C   0  0  0  0  0  0  0  0  0  0  0  0
   -1.4280    2.1002   -2.7119 H   0  0  0  0  0  0  0  0  0  0  0  0
   -2.6111    0.8171   -3.1012 H   0  0  0  0  0  0  0  0  0  0  0  0
   -1.1904    0.4558   -2.0526 H   0  0  0  0  0  0  0  0  0  0  0  0
   -6.0825   -0.0930   -0.7656 C   0  0  0  0  0  0  0  0  0  0  0  0
   -6.8174   -0.7770   -1.2369 H   0  0  0  0  0  0  0  0  0  0  0  0
   -6.1059    0.8549   -1.3368 H   0  0  0  0  0  0  0  0  0  0  0  0
   -6.4419    0.1119    0.2605 H   0  0  0  0  0  0  0  0  0  0  0  0
   -3.8672    2.6382   -1.3897 C   0  0  0  0  0  0  0  0  0  0  0  0
   -3.4224    3.5464   -1.8436 H   0  0  0  0  0  0  0  0  0  0  0  0
   -4.4378    2.9656   -0.4989 H   0  0  0  0  0  0  0  0  0  0  0  0
   -4.5828    2.2245   -2.1279 H   0  0  0  0  0  0  0  0  0  0  0  0
   -2.0380   -0.7735    0.2244 N   0  0  0  0  0  2  0  0  0  0  0  0
    2.8004    1.7473   -0.8768 C   0  0  0  0  0  0  0  0  0  0  0  0
    2.0691    2.1482   -0.1397 H   0  0  0  0  0  0  0  0  0  0  0  0
    4.4115   -0.9048   -2.3578 C   0  0  0  0  0  0  0  0  0  0  0  0
    5.1069   -1.6595   -2.7771 H   0  0  0  0  0  0  0  0  0  0  0  0
    4.5307    0.0202   -2.9550 H   0  0  0  0  0  0  0  0  0  0  0  0
    3.3769   -1.2712   -2.5063 H   0  0  0  0  0  0  0  0  0  0  0  0
    2.0191    1.4898   -2.1702 C   0  0  0  0  0  0  0  0  0  0  0  0
    1.4879    2.4199   -2.4565 H   0  0  0  0  0  0  0  0  0  0  0  0
    1.2547    0.7010   -2.0287 H   0  0  0  0  0  0  0  0  0  0  0  0
    2.6758    1.2048   -3.0138 H   0  0  0  0  0  0  0  0  0  0  0  0
    6.1241   -0.0122   -0.6978 C   0  0  0  0  0  0  0  0  0  0  0  0
    6.8767   -0.6120   -1.2490 H   0  0  0  0  0  0  0  0  0  0  0  0
    6.4466    0.0191    0.3602 H   0  0  0  0  0  0  0  0  0  0  0  0
    6.1650    1.0165   -1.1033 H   0  0  0  0  0  0  0  0  0  0  0  0
    4.2608   -0.5557    2.4968 C   0  0  0  0  0  0  0  0  0  0  0  0
    4.7225   -0.2801    3.4659 H   0  0  0  0  0  0  0  0  0  0  0  0
    4.9381   -1.2832    2.0055 H   0  0  0  0  0  0  0  0  0  0  0  0
    3.2994   -1.0621    2.7175 H   0  0  0  0  0  0  0  0  0  0  0  0
   -0.0414   -2.5314   -0.3342 N   0  0  0  0  0  0  0  0  0  0  0  0
    0.2010   -2.6524   -1.3277 H   0  0  0  0  0  0  0  0  0  0  0  0
   -4.0716    0.9684    1.5425 C   0  0  0  0  0  0  0  0  0  0  0  0
   -5.0188    1.4334    1.1923 H   0  0  0  0  0  0  0  0  0  0  0  0
    3.9413    2.7562   -1.0611 C   0  0  0  0  0  0  0  0  0  0  0  0
    3.5147    3.7259   -1.3877 H   0  0  0  0  0  0  0  0  0  0  0  0
    4.6572    2.4368   -1.8446 H   0  0  0  0  0  0  0  0  0  0  0  0
    4.5092    2.9480   -0.1297 H   0  0  0  0  0  0  0  0  0  0  0  0
   -3.2035    2.0470    2.1982 C   0  0  0  0  0  0  0  0  0  0  0  0
   -3.6990    2.3952    3.1272 H   0  0  0  0  0  0  0  0  0  0  0  0
   -3.0598    2.9306    1.5473 H   0  0  0  0  0  0  0  0  0  0  0  0
   -2.1978    1.6630    2.4565 H   0  0  0  0  0  0  0  0  0  0  0  0
   -4.4089   -0.1598    2.5294 C   0  0  0  0  0  0  0  0  0  0  0  0
   -4.9517    0.2591    3.4003 H   0  0  0  0  0  0  0  0  0  0  0  0
   -3.4855   -0.6354    2.9153 H   0  0  0  0  0  0  0  0  0  0  0  0
   -5.0520   -0.9495    2.0919 H   0  0  0  0  0  0  0  0  0  0  0  0
    3.1472    1.7208    2.4070 C   0  0  0  0  0  0  0  0  0  0  0  0
    3.6022    1.9277    3.3970 H   0  0  0  0  0  0  0  0  0  0  0  0
    2.1190    1.3417    2.5641 H   0  0  0  0  0  0  0  0  0  0  0  0
    3.0631    2.6861    1.8722 H   0  0  0  0  0  0  0  0  0  0  0  0
   -4.3102   -1.2321   -2.1976 C   0  0  0  0  0  0  0  0  0  0  0  0
   -4.9861   -2.0519   -2.5139 H   0  0  0  0  0  0  0  0  0  0  0  0
   -3.2690   -1.6064   -2.2382 H   0  0  0  0  0  0  0  0  0  0  0  0
   -4.4099   -0.4184   -2.9426 H   0  0  0  0  0  0  0  0  0  0  0  0
    4.7431   -0.6587   -0.8784 C   0  0  0  0  0  0  0  0  0  0  0  0
    4.7732   -1.6437   -0.3649 H   0  0  0  0  0  0  0  0  0  0  0  0
   -1.3997   -3.0895   -0.0782 C   0  0  0  0  0  0  0  0  0  0  0  0
   -1.9110   -3.1936   -1.0547 H   0  0  0  0  0  0  0  0  0  0  0  0
   -1.3210   -4.0977    0.3812 H   0  0  0  0  0  0  0  0  0  0  0  0
    2.3312   -2.2952    0.1047 C   0  0  0  0  0  0  0  0  0  0  0  0
    2.6554   -2.6663   -0.9007 H   0  0  0  0  0  0  0  0  0  0  0  0
    3.1332   -2.5957    0.8152 H   0  0  0  0  0  0  0  0  0  0  0  0
   -2.1788   -2.1089    0.8034 C   0  0  0  0  0  0  0  0  0  0  0  0
   -3.2343   -2.4518    0.8812 H   0  0  0  0  0  0  0  0  0  0  0  0
   -1.7723   -2.1452    1.8413 H   0  0  0  0  0  0  0  0  0  0  0  0
    1.0711   -3.0608    0.4897 C   0  0  0  0  0  0  0  0  0  0  0  0
    0.8136   -2.8912    1.5543 H   0  0  0  0  0  0  0  0  0  0  0  0
    1.2049   -4.1548    0.3297 H   0  0  0  0  0  0  0  0  0  0  0  0
  1  5  1  0  0  0  0
  1  3  1  0  0  0  0
  2 22  1  0  0  0  0
  2 43  1  0  0  0  0
  3 57  1  0  0  0  0
  3 37  1  0  0  0  0
  4  3  1  0  0  0  0
  5 70  1  0  0  0  0
  6 14  1  0  0  0  0
  6  7  1  0  0  0  0
  6  2  1  0  0  0  0
  8  9  1  0  0  0  0
  8  2  1  0  0  0  0
 10 13  1  0  0  0  0
 10  8  1  0  0  0  0
 11 10  1  0  0  0  0
 12 10  1  0  0  0  0
 14 17  1  0  0  0  0
 15 14  1  0  0  0  0
 16 14  1  0  0  0  0
 18  8  1  0  0  0  0
 18 20  1  0  0  0  0
 19 18  1  0  0  0  0
 21 18  1  0  0  0  0
 22 73  1  0  0  0  0
 23 24  1  0  0  0  0
 23  1  1  0  0  0  0
 25 65  1  0  0  0  0
 26 25  1  0  0  0  0
 27 25  1  0  0  0  0
 28 25  1  0  0  0  0
 29 31  1  0  0  0  0
 29 23  1  0  0  0  0
 30 29  1  0  0  0  0
 32 29  1  0  0  0  0
 33 35  1  0  0  0  0
 34 33  1  0  0  0  0
 36 33  1  0  0  0  0
 37 40  1  0  0  0  0
 37 38  1  0  0  0  0
 39 37  1  0  0  0  0
 41 67  1  0  0  0  0
 41 76  1  0  0  0  0
 42 41  1  0  0  0  0
 43 49  1  0  0  0  0
 43 53  1  0  0  0  0
 44 43  1  0  0  0  0
 45 23  1  0  0  0  0
 45 48  1  0  0  0  0
 46 45  1  0  0  0  0
 47 45  1  0  0  0  0
 49 52  1  0  0  0  0
 49 50  1  0  0  0  0
 51 49  1  0  0  0  0
 53 55  1  0  0  0  0
 53 54  1  0  0  0  0
 56 53  1  0  0  0  0
 57 59  1  0  0  0  0
 57 58  1  0  0  0  0
 60 57  1  0  0  0  0
 61  6  1  0  0  0  0
 62 61  1  0  0  0  0
 63 61  1  0  0  0  0
 64 61  1  0  0  0  0
 65 33  1  0  0  0  0
 65 66  1  0  0  0  0
 65  1  1  0  0  0  0
 67 69  1  0  0  0  0
 67 73  1  0  0  0  0
 68 67  1  0  0  0  0
 70 76  1  0  0  0  0
 70 72  1  0  0  0  0
 71 70  1  0  0  0  0
 73 74  1  0  0  0  0
 73 75  1  0  0  0  0
 76 77  1  0  0  0  0
 78 76  1  0  0  0  0
M  END
