2,3,4
 OpenBabel05122313063D

 57 60  0  0  1  0  0  0  0  0999 V2000
   -4.5602    1.2008    0.1722 S   0  0  0  0  0  0  0  0  0  0  0  0
   -2.2909   -0.1024    0.1233 N   0  0  0  0  0  2  0  0  0  0  0  0
    1.5149    0.4425   -0.2583 N   0  0  0  0  0  2  0  0  0  0  0  0
   -0.6123    1.6806   -0.2832 N   0  0  0  0  0  2  0  0  0  0  0  0
   -2.8212    1.1265    0.0158 C   0  0  0  0  0  0  0  0  0  0  0  0
    1.6937    1.7186   -0.6043 C   0  0  1  0  0  3  0  0  0  0  0  0
   -4.5879   -0.5471    0.3612 C   0  0  0  0  0  0  0  0  0  0  0  0
   -1.8900    2.1947   -0.2382 C   0  0  0  0  0  0  0  0  0  0  0  0
   -3.2634   -1.0721    0.3048 C   0  0  0  0  0  0  0  0  0  0  0  0
    0.4587    2.4747   -0.6298 C   0  0  0  0  0  0  0  0  0  0  0  0
    3.0133    2.3462   -0.9290 C   0  0  0  0  0  0  0  0  0  0  0  0
    3.8512    1.6715   -0.6793 H   0  0  0  0  0  0  0  0  0  0  0  0
    3.1536    3.3077   -0.3955 H   0  0  0  0  0  0  0  0  0  0  0  0
    3.0598    2.5663   -2.0175 H   0  0  0  0  0  0  0  0  0  0  0  0
    2.6569   -0.3495    0.1069 C   0  0  0  0  0  0  0  0  0  0  0  0
    0.2633    3.8442   -0.8822 C   0  0  0  0  0  0  0  0  0  0  0  0
    1.1216    4.4723   -1.1577 H   0  0  0  0  0  0  0  0  0  0  0  0
   -2.1179    3.5622   -0.4645 C   0  0  0  0  0  0  0  0  0  0  0  0
   -3.1419    3.9587   -0.4138 H   0  0  0  0  0  0  0  0  0  0  0  0
    3.2310   -1.2442   -0.8287 C   0  0  0  0  0  0  0  0  0  0  0  0
   -3.0535   -2.4618    0.4113 C   0  0  0  0  0  0  0  0  0  0  0  0
   -2.0263   -2.8470    0.3753 H   0  0  0  0  0  0  0  0  0  0  0  0
   -5.4727   -2.7604    0.6446 C   0  0  0  0  0  0  0  0  0  0  0  0
   -6.3290   -3.4377    0.7799 H   0  0  0  0  0  0  0  0  0  0  0  0
   -1.0283    4.3893   -0.7833 C   0  0  0  0  0  0  0  0  0  0  0  0
   -1.1891    5.4601   -0.9720 H   0  0  0  0  0  0  0  0  0  0  0  0
    3.1721   -0.2154    1.4270 C   0  0  0  0  0  0  0  0  0  0  0  0
    2.6204   -1.4528   -2.2047 C   0  0  0  0  0  0  0  0  0  0  0  0
    1.8594   -0.6634   -2.3652 H   0  0  0  0  0  0  0  0  0  0  0  0
   -5.7015   -1.3828    0.5358 C   0  0  0  0  0  0  0  0  0  0  0  0
   -6.7200   -0.9715    0.5799 H   0  0  0  0  0  0  0  0  0  0  0  0
   -4.1644   -3.2912    0.5795 C   0  0  0  0  0  0  0  0  0  0  0  0
   -4.0175   -4.3780    0.6648 H   0  0  0  0  0  0  0  0  0  0  0  0
    4.3065   -0.9739    1.7679 C   0  0  0  0  0  0  0  0  0  0  0  0
    4.7249   -0.8822    2.7816 H   0  0  0  0  0  0  0  0  0  0  0  0
    3.3993    1.9785    2.6766 C   0  0  0  0  0  0  0  0  0  0  0  0
    2.9109    2.6628    3.4007 H   0  0  0  0  0  0  0  0  0  0  0  0
    3.5647    2.5391    1.7366 H   0  0  0  0  0  0  0  0  0  0  0  0
    4.3978    1.7149    3.0841 H   0  0  0  0  0  0  0  0  0  0  0  0
    4.3626   -1.9815   -0.4322 C   0  0  0  0  0  0  0  0  0  0  0  0
    4.8242   -2.6777   -1.1488 H   0  0  0  0  0  0  0  0  0  0  0  0
    2.5449    0.7161    2.4607 C   0  0  0  0  0  0  0  0  0  0  0  0
    1.5568    1.0245    2.0647 H   0  0  0  0  0  0  0  0  0  0  0  0
    4.9048   -1.8457    0.8503 C   0  0  0  0  0  0  0  0  0  0  0  0
    5.7923   -2.4285    1.1405 H   0  0  0  0  0  0  0  0  0  0  0  0
    1.8669   -2.7948   -2.2348 C   0  0  0  0  0  0  0  0  0  0  0  0
    1.1318   -2.8452   -1.4078 H   0  0  0  0  0  0  0  0  0  0  0  0
    2.5672   -3.6499   -2.1265 H   0  0  0  0  0  0  0  0  0  0  0  0
    1.3127   -2.9106   -3.1880 H   0  0  0  0  0  0  0  0  0  0  0  0
    3.6487   -1.3479   -3.3399 C   0  0  0  0  0  0  0  0  0  0  0  0
    4.1855   -0.3774   -3.3136 H   0  0  0  0  0  0  0  0  0  0  0  0
    3.1438   -1.4322   -4.3238 H   0  0  0  0  0  0  0  0  0  0  0  0
    4.4107   -2.1539   -3.2923 H   0  0  0  0  0  0  0  0  0  0  0  0
    2.2871    0.0051    3.7990 C   0  0  0  0  0  0  0  0  0  0  0  0
    1.7376    0.6780    4.4889 H   0  0  0  0  0  0  0  0  0  0  0  0
    3.2332   -0.2808    4.3038 H   0  0  0  0  0  0  0  0  0  0  0  0
    1.6785   -0.9055    3.6439 H   0  0  0  0  0  0  0  0  0  0  0  0
  1  7  1  0  0  0  0
  2  9  1  0  0  0  0
  3 15  1  0  0  0  0
  4  8  1  0  0  0  0
  5  2  1  0  0  0  0
  5  1  1  0  0  0  0
  6  3  1  1  0  0  0
  7 30  1  0  0  0  0
  8  5  2  0  0  0  0
  9  7  2  0  0  0  0
  9 21  1  0  0  0  0
 10  6  1  0  0  0  0
 10  4  1  0  0  0  0
 11 12  1  0  0  0  0
 11  6  1  0  0  0  0
 11 13  1  0  0  0  0
 14 11  1  0  0  0  0
 15 27  1  0  0  0  0
 16 25  1  0  0  0  0
 16 10  2  0  0  0  0
 17 16  1  0  0  0  0
 18 19  1  0  0  0  0
 18  8  1  0  0  0  0
 20 40  1  0  0  0  0
 20 15  2  0  0  0  0
 21 32  2  0  0  0  0
 22 21  1  0  0  0  0
 23 24  1  0  0  0  0
 25 18  2  0  0  0  0
 26 25  1  0  0  0  0
 27 34  2  0  0  0  0
 27 42  1  0  0  0  0
 28 20  1  0  0  0  0
 29 28  1  0  0  0  0
 30 31  1  0  0  0  0
 30 23  2  0  0  0  0
 32 23  1  0  0  0  0
 32 33  1  0  0  0  0
 34 35  1  0  0  0  0
 36 39  1  0  0  0  0
 36 37  1  0  0  0  0
 38 36  1  0  0  0  0
 40 44  2  0  0  0  0
 41 40  1  0  0  0  0
 42 36  1  0  0  0  0
 42 54  1  0  0  0  0
 43 42  1  0  0  0  0
 44 45  1  0  0  0  0
 44 34  1  0  0  0  0
 46 28  1  0  0  0  0
 46 48  1  0  0  0  0
 46 47  1  0  0  0  0
 49 46  1  0  0  0  0
 50 51  1  0  0  0  0
 50 53  1  0  0  0  0
 50 28  1  0  0  0  0
 52 50  1  0  0  0  0
 54 56  1  0  0  0  0
 54 55  1  0  0  0  0
 57 54  1  0  0  0  0
M  END
