1,2,3
 OpenBabel05122313063D

 43 45  0  0  1  0  0  0  0  0999 V2000
   -0.7659    0.9936   -1.0788 N   0  0  0  0  0  2  0  0  0  0  0  0
    0.7458   -1.3069   -0.6290 N   0  0  0  0  0  0  0  0  0  0  0  0
    2.9019    0.1549    0.3020 N   0  0  0  0  0  2  0  0  0  0  0  0
   -1.6158    2.0277   -0.8743 C   0  0  0  0  0  3  0  0  0  0  0  0
   -1.1858    2.9238   -0.4097 H   0  0  0  0  0  0  0  0  0  0  0  0
   -2.9691    1.9435   -1.2040 C   0  0  0  0  0  0  0  0  0  0  0  0
   -3.6335    2.7882   -0.9792 H   0  0  0  0  0  0  0  0  0  0  0  0
   -3.4588    0.7458   -1.7430 C   0  0  0  0  0  0  0  0  0  0  0  0
   -4.5282    0.6339   -1.9725 H   0  0  0  0  0  0  0  0  0  0  0  0
   -2.5786   -0.3247   -1.9526 C   0  0  0  0  0  0  0  0  0  0  0  0
   -2.9348   -1.2928   -2.3298 H   0  0  0  0  0  0  0  0  0  0  0  0
   -1.2329   -0.1921   -1.5968 C   0  0  0  0  0  0  0  0  0  0  0  0
   -0.2296   -1.3161   -1.7611 C   0  0  0  0  0  0  0  0  0  0  0  0
    0.3473   -1.1496   -2.6951 H   0  0  0  0  0  0  0  0  0  0  0  0
   -0.7506   -2.2981   -1.8195 H   0  0  0  0  0  0  0  0  0  0  0  0
    2.1083   -1.7889   -0.9550 C   0  0  0  0  0  0  0  0  0  0  0  0
    2.3481   -1.4642   -1.9896 H   0  0  0  0  0  0  0  0  0  0  0  0
    2.1774   -2.8988   -0.9182 H   0  0  0  0  0  0  0  0  0  0  0  0
    3.1209   -1.1638   -0.0190 C   0  0  1  0  0  3  0  0  0  0  0  0
    4.2354   -1.8453    0.4792 C   0  0  0  0  0  0  0  0  0  0  0  0
    4.3753   -2.9041    0.2184 H   0  0  0  0  0  0  0  0  0  0  0  0
    5.1514   -1.1749    1.3040 C   0  0  0  0  0  0  0  0  0  0  0  0
    6.0312   -1.7010    1.7023 H   0  0  0  0  0  0  0  0  0  0  0  0
    4.9159    0.1701    1.6199 C   0  0  0  0  0  0  0  0  0  0  0  0
    5.5992    0.7358    2.2686 H   0  0  0  0  0  0  0  0  0  0  0  0
    3.7791    0.8006    1.1060 C   0  0  0  0  0  0  0  0  0  0  0  0
    3.5396    1.8496    1.3287 H   0  0  0  0  0  0  0  0  0  0  0  0
    0.2062   -2.0387    0.5855 C   0  0  0  0  0  0  0  0  0  0  0  0
    0.8450   -1.7403    1.4408 H   0  0  0  0  0  0  0  0  0  0  0  0
    0.3150   -3.1279    0.3842 H   0  0  0  0  0  0  0  0  0  0  0  0
   -1.2430   -1.7643    0.8235 C   0  0  0  0  0  0  0  0  0  0  0  0
   -2.1903   -2.7375    0.2535 C   0  0  0  0  0  0  0  0  0  0  0  0
   -1.7975   -3.7110   -0.4486 O   0  0  0  0  0  0  0  0  0  0  0  0
   -3.5971   -2.4485    0.4989 C   0  0  0  0  0  0  0  0  0  0  0  0
   -4.3229   -3.1955    0.1425 H   0  0  0  0  0  0  0  0  0  0  0  0
   -4.0151   -1.2512    1.0463 C   0  0  0  0  0  0  0  0  0  0  0  0
   -5.0792   -0.9913    1.1401 H   0  0  0  0  0  0  0  0  0  0  0  0
   -3.0574   -0.2902    1.4715 C   0  0  2  0  0  3  0  0  0  0  0  0
   -3.4751    1.0432    1.8125 N   0  0  0  0  0  0  0  0  0  0  0  0
   -2.5977    1.8879    2.0880 O   0  0  0  0  0  0  0  0  0  0  0  0
   -4.6869    1.3178    1.7569 O   0  0  0  0  0  0  0  0  0  0  0  0
   -1.6833   -0.5857    1.4170 C   0  0  0  0  0  0  0  0  0  0  0  0
   -0.9743    0.1765    1.7742 H   0  0  0  0  0  0  0  0  0  0  0  0
  1  4  1  0  0  0  0
  2 28  1  0  0  0  0
  3 26  1  0  0  0  0
  4  5  1  0  0  0  0
  6  7  1  0  0  0  0
  6  4  1  0  0  0  0
  8  6  2  0  0  0  0
  9  8  1  0  0  0  0
 10  8  1  0  0  0  0
 10 12  2  0  0  0  0
 11 10  1  0  0  0  0
 12  1  1  0  0  0  0
 13 12  1  0  0  0  0
 13  2  1  0  0  0  0
 14 13  1  0  0  0  0
 15 13  1  0  0  0  0
 16 18  1  0  0  0  0
 16  2  1  0  0  0  0
 17 16  1  0  0  0  0
 19 16  1  6  0  0  0
 19  3  1  0  0  0  0
 19 20  1  0  0  0  0
 20 22  2  0  0  0  0
 21 20  1  0  0  0  0
 22 24  1  0  0  0  0
 22 23  1  0  0  0  0
 24 25  1  0  0  0  0
 26 27  1  0  0  0  0
 26 24  2  0  0  0  0
 28 31  1  0  0  0  0
 28 29  1  0  0  0  0
 30 28  1  0  0  0  0
 31 42  2  0  0  0  0
 32 34  1  0  0  0  0
 32 31  1  0  0  0  0
 33 32  2  0  0  0  0
 34 36  2  0  0  0  0
 35 34  1  0  0  0  0
 36 37  1  0  0  0  0
 36 38  1  0  0  0  0
 38 39  1  6  0  0  0
 39 40  2  0  0  0  0
 41 39  2  0  0  0  0
 42 38  1  0  0  0  0
 42 43  1  0  0  0  0
M  END
