1,3,4
 OpenBabel05122313063D

 36 38  0  0  0  0  0  0  0  0999 V2000
   -2.6778   -0.6185    0.1548 N   0  0  0  0  0  2  0  0  0  0  0  0
   -2.4210    1.7517    0.1810 N   0  0  0  0  0  0  0  0  0  0  0  0
   -1.1664    1.4054    0.0155 N   0  0  0  0  0  2  0  0  0  0  0  0
    1.2220    0.3407   -0.2627 N   0  0  0  0  0  2  0  0  0  0  0  0
   -3.4720   -1.6970    0.2169 C   0  0  0  0  0  0  0  0  0  0  0  0
   -2.9543   -2.6662    0.1255 H   0  0  0  0  0  0  0  0  0  0  0  0
   -4.8553   -1.5502    0.3896 C   0  0  0  0  0  0  0  0  0  0  0  0
   -5.5154   -2.4257    0.4468 H   0  0  0  0  0  0  0  0  0  0  0  0
   -5.3434   -0.2369    0.4860 C   0  0  0  0  0  0  0  0  0  0  0  0
   -6.4235   -0.0494    0.6238 H   0  0  0  0  0  0  0  0  0  0  0  0
   -4.5614    0.8472    0.4190 N   0  0  0  0  0  0  0  0  0  0  0  0
   -3.2449    0.6579    0.2556 C   0  0  0  0  0  0  0  0  0  0  0  0
   -0.1453    2.3103   -0.1015 C   0  0  0  0  0  0  0  0  0  0  0  0
   -0.3223    3.7192   -0.0831 C   0  0  0  0  0  0  0  0  0  0  0  0
   -1.3407    4.1112    0.0417 H   0  0  0  0  0  0  0  0  0  0  0  0
    0.7844    4.5358   -0.2301 C   0  0  0  0  0  0  0  0  0  0  0  0
    0.6727    5.6295   -0.2227 H   0  0  0  0  0  0  0  0  0  0  0  0
    2.0778    3.9550   -0.4138 C   0  0  0  0  0  0  0  0  0  0  0  0
    2.9438    4.6183   -0.5630 H   0  0  0  0  0  0  0  0  0  0  0  0
    2.2772    2.5847   -0.4260 C   0  0  0  0  0  0  0  0  0  0  0  0
    3.2786    2.1652   -0.5873 H   0  0  0  0  0  0  0  0  0  0  0  0
    1.1655    1.6947   -0.2537 C   0  0  0  0  0  0  0  0  0  0  0  0
    2.4430   -0.3703   -0.2389 C   0  0  0  0  0  0  0  0  0  0  0  0
    3.4175   -0.0914    0.7467 C   0  0  0  0  0  0  0  0  0  0  0  0
    3.2036    0.6796    1.5027 H   0  0  0  0  0  0  0  0  0  0  0  0
    4.6310   -0.7976    0.7941 C   0  0  0  0  0  0  0  0  0  0  0  0
    4.8568   -1.8053   -0.1682 C   0  0  0  0  0  0  0  0  0  0  0  0
    5.8012   -2.3716   -0.1477 H   0  0  0  0  0  0  0  0  0  0  0  0
    3.8861   -2.1012   -1.1358 C   0  0  0  0  0  0  0  0  0  0  0  0
    4.0721   -2.8976   -1.8722 H   0  0  0  0  0  0  0  0  0  0  0  0
    2.6764   -1.3970   -1.1759 C   0  0  0  0  0  0  0  0  0  0  0  0
    1.9039   -1.6326   -1.9194 H   0  0  0  0  0  0  0  0  0  0  0  0
    5.6563   -0.5100    1.8631 C   0  0  0  0  0  0  0  0  0  0  0  0
    6.6618   -0.3443    1.4244 H   0  0  0  0  0  0  0  0  0  0  0  0
    5.7501   -1.3639    2.5667 H   0  0  0  0  0  0  0  0  0  0  0  0
    5.3898    0.3856    2.4569 H   0  0  0  0  0  0  0  0  0  0  0  0
  1  5  1  0  0  0  0
  1 12  1  0  0  0  0
  2 12  2  0  0  0  0
  3  2  1  0  0  0  0
  4 22  1  0  0  0  0
  4 23  1  0  0  0  0
  5  7  2  0  0  0  0
  6  5  1  0  0  0  0
  7  8  1  0  0  0  0
  7  9  1  0  0  0  0
  9 10  1  0  0  0  0
 11  9  2  0  0  0  0
 12 11  1  0  0  0  0
 13 14  1  0  0  0  0
 13  3  1  0  0  0  0
 14 15  1  0  0  0  0
 16 17  1  0  0  0  0
 16 14  2  0  0  0  0
 18 16  1  0  0  0  0
 19 18  1  0  0  0  0
 20 18  2  0  0  0  0
 20 22  1  0  0  0  0
 21 20  1  0  0  0  0
 22 13  2  0  0  0  0
 23 24  1  0  0  0  0
 24 26  2  0  0  0  0
 24 25  1  0  0  0  0
 26 33  1  0  0  0  0
 27 28  1  0  0  0  0
 27 26  1  0  0  0  0
 29 27  2  0  0  0  0
 30 29  1  0  0  0  0
 31 29  1  0  0  0  0
 31 23  2  0  0  0  0
 32 31  1  0  0  0  0
 33 36  1  0  0  0  0
 33 35  1  0  0  0  0
 34 33  1  0  0  0  0
M  END
