2,4,5
 OpenBabel05122313063D

 26 28  0  0  1  0  0  0  0  0999 V2000
   -1.6709   -0.4676   -1.1861 N   0  0  0  0  0  0  0  0  0  0  0  0
   -0.3575   -0.7359   -1.3889 N   0  0  0  0  0  2  0  0  0  0  0  0
   -1.6708   -0.4684    1.1859 N   0  0  0  0  0  0  0  0  0  0  0  0
   -0.3574   -0.7368    1.3884 N   0  0  0  0  0  2  0  0  0  0  0  0
    0.0031    1.6063    0.0005 N   0  0  0  0  0  2  0  0  0  0  0  0
    0.3943    2.8888    0.0009 N   0  0  0  0  0  0  0  0  0  0  0  0
    1.3928    3.1140    0.0010 H   0  0  0  0  0  0  0  0  0  0  0  0
   -2.0415    0.2965    0.0002 C   0  0  1  0  0  0  0  0  0  0  0  0
   -3.1377    0.4248    0.0003 H   0  0  0  0  0  0  0  0  0  0  0  0
   -2.4513   -0.9975   -2.1745 C   0  0  0  0  0  3  0  0  0  0  0  0
   -3.5404   -0.8759   -2.1713 H   0  0  0  0  0  0  0  0  0  0  0  0
   -1.5918   -1.6362   -3.0626 C   0  0  0  0  0  0  0  0  0  0  0  0
   -1.8637   -2.1687   -3.9793 H   0  0  0  0  0  0  0  0  0  0  0  0
   -0.2976   -1.4482   -2.5277 C   0  0  0  0  0  0  0  0  0  0  0  0
    0.6701   -1.7946   -2.9088 H   0  0  0  0  0  0  0  0  0  0  0  0
   -2.4511   -0.9990    2.1740 C   0  0  0  0  0  3  0  0  0  0  0  0
   -3.5402   -0.8775    2.1710 H   0  0  0  0  0  0  0  0  0  0  0  0
   -1.5915   -1.6383    3.0617 C   0  0  0  0  0  0  0  0  0  0  0  0
   -1.8634   -2.1715    3.9779 H   0  0  0  0  0  0  0  0  0  0  0  0
   -0.2974   -1.4499    2.5268 C   0  0  0  0  0  0  0  0  0  0  0  0
    0.6703   -1.7965    2.9076 H   0  0  0  0  0  0  0  0  0  0  0  0
   -1.3426    1.6302    0.0006 C   0  0  2  0  0  3  0  0  0  0  0  0
   -1.8185    2.9600    0.0010 C   0  0  0  0  0  0  0  0  0  0  0  0
   -2.8550    3.3112    0.0012 H   0  0  0  0  0  0  0  0  0  0  0  0
   -0.6631    3.7436    0.0013 C   0  0  0  0  0  0  0  0  0  0  0  0
   -0.5219    4.8298    0.0016 H   0  0  0  0  0  0  0  0  0  0  0  0
  1  8  1  0  0  0  0
  2  1  1  0  0  0  0
  3  4  1  0  0  0  0
  3 16  1  0  0  0  0
  4 20  1  0  0  0  0
  5 22  1  0  0  0  0
  5  6  1  0  0  0  0
  6  7  1  0  0  0  0
  6 25  1  0  0  0  0
  8  9  1  1  0  0  0
  8  3  1  0  0  0  0
 10 11  1  0  0  0  0
 10  1  1  0  0  0  0
 12 14  2  0  0  0  0
 12 10  1  0  0  0  0
 13 12  1  0  0  0  0
 14  2  1  0  0  0  0
 15 14  1  0  0  0  0
 16 18  1  0  0  0  0
 17 16  1  0  0  0  0
 18 19  1  0  0  0  0
 20 21  1  0  0  0  0
 20 18  2  0  0  0  0
 22  8  1  6  0  0  0
 22 23  1  0  0  0  0
 23 24  1  0  0  0  0
 23 25  2  0  0  0  0
 25 26  1  0  0  0  0
M  END
