1,2,3
 OpenBabel05122313063D

 55 55  0  0  1  0  0  0  0  0999 V2000
   -2.0346    1.3817    0.1562 N   0  0  0  0  0  2  0  0  0  0  0  0
    0.7177    1.0127   -0.0897 N   0  0  0  0  0  2  0  0  0  0  0  0
   -2.5352   -1.2663    0.1155 N   0  0  0  0  0  0  0  0  0  0  0  0
   -2.8474    3.7180    0.0961 C   0  0  0  0  0  0  0  0  0  0  0  0
   -3.5909    3.5375   -0.7081 H   0  0  0  0  0  0  0  0  0  0  0  0
   -2.4346    4.7333   -0.0410 H   0  0  0  0  0  0  0  0  0  0  0  0
   -3.4044    3.7062    1.0571 H   0  0  0  0  0  0  0  0  0  0  0  0
   -1.7374    2.6881    0.0743 C   0  0  1  0  0  3  0  0  0  0  0  0
   -0.4168    3.1581   -0.0183 C   0  0  0  0  0  0  0  0  0  0  0  0
   -0.2715    4.2452   -0.0382 H   0  0  0  0  0  0  0  0  0  0  0  0
    0.7406    2.3562   -0.0373 C   0  0  0  0  0  0  0  0  0  0  0  0
    2.0761    3.0710    0.0122 C   0  0  0  0  0  0  0  0  0  0  0  0
    2.7128    2.8064   -0.8550 H   0  0  0  0  0  0  0  0  0  0  0  0
    2.6515    2.7739    0.9123 H   0  0  0  0  0  0  0  0  0  0  0  0
    1.9307    4.1663    0.0299 H   0  0  0  0  0  0  0  0  0  0  0  0
   -3.4402    0.9984    0.2749 C   0  0  0  0  0  0  0  0  0  0  0  0
   -3.9586    1.0487   -0.7130 H   0  0  0  0  0  0  0  0  0  0  0  0
   -4.0057    1.6738    0.9514 H   0  0  0  0  0  0  0  0  0  0  0  0
   -3.4949   -0.4024    0.8389 C   0  0  0  0  0  0  0  0  0  0  0  0
   -3.1782   -0.3755    1.8985 H   0  0  0  0  0  0  0  0  0  0  0  0
   -4.5247   -0.8239    0.8049 H   0  0  0  0  0  0  0  0  0  0  0  0
   -2.3207   -2.5388    0.8691 C   0  0  0  0  0  0  0  0  0  0  0  0
   -1.7860   -3.2203    0.1816 H   0  0  0  0  0  0  0  0  0  0  0  0
   -3.3180   -2.9780    1.1000 H   0  0  0  0  0  0  0  0  0  0  0  0
   -1.4947   -2.3848    2.1385 C   0  0  0  0  0  0  0  0  0  0  0  0
   -0.4672   -2.0679    1.8765 H   0  0  0  0  0  0  0  0  0  0  0  0
   -1.4344   -3.3644    2.6538 H   0  0  0  0  0  0  0  0  0  0  0  0
   -1.9258   -1.6612    2.8592 H   0  0  0  0  0  0  0  0  0  0  0  0
   -2.9516   -1.5424   -1.2961 C   0  0  0  0  0  0  0  0  0  0  0  0
   -2.0977   -2.0906   -1.7410 H   0  0  0  0  0  0  0  0  0  0  0  0
   -2.9965   -0.5666   -1.8192 H   0  0  0  0  0  0  0  0  0  0  0  0
   -4.2613   -2.3061   -1.4844 C   0  0  0  0  0  0  0  0  0  0  0  0
   -5.1418   -1.7689   -1.0767 H   0  0  0  0  0  0  0  0  0  0  0  0
   -4.2311   -3.3154   -1.0286 H   0  0  0  0  0  0  0  0  0  0  0  0
   -4.4391   -2.4437   -2.5695 H   0  0  0  0  0  0  0  0  0  0  0  0
    1.9891    0.3523   -0.0429 C   0  0  0  0  0  0  0  0  0  0  0  0
    2.5261   -0.0185    1.2107 C   0  0  0  0  0  0  0  0  0  0  0  0
    3.7919   -0.6305    1.2468 C   0  0  0  0  0  0  0  0  0  0  0  0
    4.2113   -0.9246    2.2231 H   0  0  0  0  0  0  0  0  0  0  0  0
    4.5319   -0.8759    0.0774 C   0  0  0  0  0  0  0  0  0  0  0  0
    3.9676   -0.4939   -1.1553 C   0  0  0  0  0  0  0  0  0  0  0  0
    4.5255   -0.6858   -2.0869 H   0  0  0  0  0  0  0  0  0  0  0  0
    2.7047    0.1116   -1.2420 C   0  0  0  0  0  0  0  0  0  0  0  0
    1.7438    0.2371    2.4716 C   0  0  0  0  0  0  0  0  0  0  0  0
    1.6290    1.3235    2.6751 H   0  0  0  0  0  0  0  0  0  0  0  0
    2.2304   -0.2268    3.3509 H   0  0  0  0  0  0  0  0  0  0  0  0
    0.7123   -0.1621    2.3788 H   0  0  0  0  0  0  0  0  0  0  0  0
    5.8784   -1.5546    0.1293 C   0  0  0  0  0  0  0  0  0  0  0  0
    6.2651   -1.6181    1.1653 H   0  0  0  0  0  0  0  0  0  0  0  0
    6.6304   -1.0173   -0.4846 H   0  0  0  0  0  0  0  0  0  0  0  0
    5.8216   -2.5905   -0.2689 H   0  0  0  0  0  0  0  0  0  0  0  0
    2.0899    0.4579   -2.5703 C   0  0  0  0  0  0  0  0  0  0  0  0
    1.7896    1.5244   -2.6325 H   0  0  0  0  0  0  0  0  0  0  0  0
    1.1666   -0.1436   -2.7081 H   0  0  0  0  0  0  0  0  0  0  0  0
    2.7845    0.2414   -3.4044 H   0  0  0  0  0  0  0  0  0  0  0  0
  1 16  1  0  0  0  0
  2 36  1  0  0  0  0
  2 11  1  0  0  0  0
  3 19  1  0  0  0  0
  3 22  1  0  0  0  0
  4  7  1  0  0  0  0
  5  4  1  0  0  0  0
  6  4  1  0  0  0  0
  8  9  1  1  0  0  0
  8  4  1  0  0  0  0
  8  1  1  0  0  0  0
 10  9  1  0  0  0  0
 11  9  2  0  0  0  0
 11 12  1  0  0  0  0
 12 15  1  0  0  0  0
 12 14  1  0  0  0  0
 13 12  1  0  0  0  0
 16 19  1  0  0  0  0
 16 18  1  0  0  0  0
 17 16  1  0  0  0  0
 19 20  1  0  0  0  0
 21 19  1  0  0  0  0
 22 24  1  0  0  0  0
 22 25  1  0  0  0  0
 23 22  1  0  0  0  0
 25 27  1  0  0  0  0
 25 28  1  0  0  0  0
 26 25  1  0  0  0  0
 29  3  1  0  0  0  0
 30 29  1  0  0  0  0
 31 29  1  0  0  0  0
 32 29  1  0  0  0  0
 32 33  1  0  0  0  0
 32 34  1  0  0  0  0
 35 32  1  0  0  0  0
 36 37  1  0  0  0  0
 37 38  2  0  0  0  0
 37 44  1  0  0  0  0
 38 39  1  0  0  0  0
 40 48  1  0  0  0  0
 40 38  1  0  0  0  0
 41 40  2  0  0  0  0
 42 41  1  0  0  0  0
 43 41  1  0  0  0  0
 43 36  2  0  0  0  0
 44 45  1  0  0  0  0
 44 46  1  0  0  0  0
 47 44  1  0  0  0  0
 48 49  1  0  0  0  0
 50 48  1  0  0  0  0
 51 48  1  0  0  0  0
 52 43  1  0  0  0  0
 53 52  1  0  0  0  0
 54 52  1  0  0  0  0
 55 52  1  0  0  0  0
M  END
