1,2,3
 OpenBabel05122313063D

 35 37  0  0  1  0  0  0  0  0999 V2000
    1.6100   -0.6714   -0.3895 N   0  0  0  0  0  2  0  0  0  0  0  0
   -0.1040    1.6626   -0.3282 N   0  0  0  0  0  2  0  0  0  0  0  0
   -2.4014   -0.0092    0.2543 N   0  0  0  0  0  2  0  0  0  0  0  0
    1.9871   -1.8778   -0.8577 C   0  0  0  0  0  3  0  0  0  0  0  0
    1.1800   -2.5248   -1.2248 H   0  0  0  0  0  0  0  0  0  0  0  0
    3.3186   -2.3357   -0.8160 C   0  0  0  0  0  0  0  0  0  0  0  0
    3.5477   -3.3372   -1.2048 H   0  0  0  0  0  0  0  0  0  0  0  0
    4.2880   -1.5290   -0.2494 C   0  0  0  0  0  0  0  0  0  0  0  0
    5.3296   -1.8696   -0.1493 H   0  0  0  0  0  0  0  0  0  0  0  0
    3.9394   -0.2207    0.1843 C   0  0  0  0  0  0  0  0  0  0  0  0
    4.9226    0.6628    0.7165 C   0  0  0  0  0  0  0  0  0  0  0  0
    5.9499    0.2884    0.8398 H   0  0  0  0  0  0  0  0  0  0  0  0
    4.5996    1.9703    1.0457 C   0  0  0  0  0  0  0  0  0  0  0  0
    5.3614    2.6517    1.4498 H   0  0  0  0  0  0  0  0  0  0  0  0
    3.2925    2.4366    0.8065 C   0  0  0  0  0  0  0  0  0  0  0  0
    3.0580    3.4970    0.9866 H   0  0  0  0  0  0  0  0  0  0  0  0
    2.2709    1.5982    0.3249 C   0  0  0  0  0  0  0  0  0  0  0  0
    2.5725    0.2156    0.0522 C   0  0  1  0  0  3  0  0  0  0  0  0
    1.0217    2.2441   -0.0226 C   0  0  0  0  0  0  0  0  0  0  0  0
    1.0541    3.3497   -0.0683 H   0  0  0  0  0  0  0  0  0  0  0  0
   -1.2153    2.5249   -0.7816 C   0  0  0  0  0  0  0  0  0  0  0  0
   -0.8097    3.2787   -1.4859 H   0  0  0  0  0  0  0  0  0  0  0  0
   -1.6236    3.0701    0.0968 H   0  0  0  0  0  0  0  0  0  0  0  0
   -2.3293    1.7317   -1.4680 C   0  0  0  0  0  0  0  0  0  0  0  0
   -3.0175    2.4450   -1.9594 H   0  0  0  0  0  0  0  0  0  0  0  0
   -1.8936    1.0909   -2.2649 H   0  0  0  0  0  0  0  0  0  0  0  0
   -3.1028    0.8931   -0.4885 C   0  0  2  0  0  3  0  0  0  0  0  0
   -4.4808    1.0604   -0.2879 C   0  0  0  0  0  0  0  0  0  0  0  0
   -5.0245    1.7866   -0.9085 H   0  0  0  0  0  0  0  0  0  0  0  0
   -5.1437    0.3100    0.6912 C   0  0  0  0  0  0  0  0  0  0  0  0
   -6.2250    0.4331    0.8514 H   0  0  0  0  0  0  0  0  0  0  0  0
   -4.4001   -0.5885    1.4659 C   0  0  0  0  0  0  0  0  0  0  0  0
   -4.8655   -1.1921    2.2572 H   0  0  0  0  0  0  0  0  0  0  0  0
   -3.0329   -0.7266    1.2209 C   0  0  0  0  0  0  0  0  0  0  0  0
   -2.4106   -1.4396    1.7764 H   0  0  0  0  0  0  0  0  0  0  0  0
  2 19  1  0  0  0  0
  3 34  1  0  0  0  0
  4  6  1  0  0  0  0
  4  1  1  0  0  0  0
  5  4  1  0  0  0  0
  6  8  2  0  0  0  0
  7  6  1  0  0  0  0
  8  9  1  0  0  0  0
  8 10  1  0  0  0  0
 10 11  2  0  0  0  0
 11 12  1  0  0  0  0
 11 13  1  0  0  0  0
 13 14  1  0  0  0  0
 15 16  1  0  0  0  0
 15 13  2  0  0  0  0
 17 15  1  0  0  0  0
 18  1  1  6  0  0  0
 18 10  1  0  0  0  0
 18 17  1  0  0  0  0
 19 17  2  0  0  0  0
 20 19  1  0  0  0  0
 21  2  1  0  0  0  0
 21 23  1  0  0  0  0
 22 21  1  0  0  0  0
 24 21  1  0  0  0  0
 25 24  1  0  0  0  0
 26 24  1  0  0  0  0
 27 24  1  1  0  0  0
 27 28  1  0  0  0  0
 27  3  1  0  0  0  0
 28 30  2  0  0  0  0
 29 28  1  0  0  0  0
 30 31  1  0  0  0  0
 30 32  1  0  0  0  0
 32 33  1  0  0  0  0
 34 32  2  0  0  0  0
 34 35  1  0  0  0  0
M  END
