5,6,7
 OpenBabel05122313063D

 53 55  0  0  1  0  0  0  0  0999 V2000
   -6.2869   -3.5902   -0.7138 O   0  0  0  0  0  0  0  0  0  0  0  0
   -5.4828   -4.2339    1.2147 O   0  0  0  0  0  0  0  0  0  0  0  0
    5.4828   -4.2341   -1.2143 O   0  0  0  0  0  0  0  0  0  0  0  0
    6.2869   -3.5902    0.7140 O   0  0  0  0  0  0  0  0  0  0  0  0
   -1.9277    0.9175    0.2298 N   0  0  0  0  0  2  0  0  0  0  0  0
   -0.0000    2.4265   -0.0001 N   0  0  0  0  0  2  0  0  0  0  0  0
    1.9277    0.9175   -0.2301 N   0  0  0  0  0  2  0  0  0  0  0  0
   -5.5263   -3.4729    0.2479 N   0  0  0  0  0  0  0  0  0  0  0  0
    5.5263   -3.4730   -0.2477 N   0  0  0  0  0  0  0  0  0  0  0  0
   -2.2992    2.1867    0.3464 C   0  0  0  0  0  0  0  0  0  0  0  0
   -1.1861    3.1062    0.2014 C   0  0  0  0  0  0  0  0  0  0  0  0
   -1.1969    4.5104    0.2122 C   0  0  0  0  0  0  0  0  0  0  0  0
   -2.1441    5.0425    0.3771 H   0  0  0  0  0  0  0  0  0  0  0  0
    0.0000    5.2149    0.0001 C   0  0  0  0  0  0  0  0  0  0  0  0
    0.0000    6.3138    0.0001 H   0  0  0  0  0  0  0  0  0  0  0  0
    1.1970    4.5104   -0.2121 C   0  0  0  0  0  0  0  0  0  0  0  0
    2.1442    5.0425   -0.3770 H   0  0  0  0  0  0  0  0  0  0  0  0
    1.1861    3.1061   -0.2015 C   0  0  0  0  0  0  0  0  0  0  0  0
    2.2992    2.1867   -0.3465 C   0  0  2  0  0  3  0  0  0  0  0  0
   -3.6905    2.6627    0.6225 C   0  0  0  0  0  0  0  0  0  0  0  0
   -4.3799    1.8164    0.7933 H   0  0  0  0  0  0  0  0  0  0  0  0
   -4.0808    3.2718   -0.2195 H   0  0  0  0  0  0  0  0  0  0  0  0
   -3.6996    3.3103    1.5234 H   0  0  0  0  0  0  0  0  0  0  0  0
    3.6905    2.6627   -0.6225 C   0  0  0  0  0  0  0  0  0  0  0  0
    4.3798    1.8165   -0.7937 H   0  0  0  0  0  0  0  0  0  0  0  0
    4.0809    3.2715    0.2196 H   0  0  0  0  0  0  0  0  0  0  0  0
    3.6995    3.3107   -1.5232 H   0  0  0  0  0  0  0  0  0  0  0  0
   -2.8617   -0.1531    0.2207 C   0  0  0  0  0  0  0  0  0  0  0  0
   -3.7486   -0.3322   -0.8801 C   0  0  0  0  0  0  0  0  0  0  0  0
   -4.6125   -1.4393   -0.8403 C   0  0  0  0  0  0  0  0  0  0  0  0
   -5.3155   -1.6362   -1.6613 H   0  0  0  0  0  0  0  0  0  0  0  0
   -4.5912   -2.3226    0.2444 C   0  0  0  0  0  0  0  0  0  0  0  0
   -3.7102   -2.1556    1.3196 C   0  0  0  0  0  0  0  0  0  0  0  0
   -3.7221   -2.8785    2.1455 H   0  0  0  0  0  0  0  0  0  0  0  0
   -2.8375   -1.0664    1.2969 C   0  0  0  0  0  0  0  0  0  0  0  0
   -2.1083   -0.8987    2.1021 H   0  0  0  0  0  0  0  0  0  0  0  0
   -3.7654    0.6057   -2.0580 C   0  0  0  0  0  0  0  0  0  0  0  0
   -4.2550    0.1269   -2.9266 H   0  0  0  0  0  0  0  0  0  0  0  0
   -2.7343    0.8873   -2.3479 H   0  0  0  0  0  0  0  0  0  0  0  0
   -4.3306    1.5354   -1.8356 H   0  0  0  0  0  0  0  0  0  0  0  0
    2.8617   -0.1531   -0.2208 C   0  0  0  0  0  0  0  0  0  0  0  0
    3.7487   -0.3321    0.8800 C   0  0  0  0  0  0  0  0  0  0  0  0
    4.6125   -1.4392    0.8403 C   0  0  0  0  0  0  0  0  0  0  0  0
    5.3156   -1.6359    1.6613 H   0  0  0  0  0  0  0  0  0  0  0  0
    4.5912   -2.3226   -0.2442 C   0  0  0  0  0  0  0  0  0  0  0  0
    3.7101   -2.1558   -1.3194 C   0  0  0  0  0  0  0  0  0  0  0  0
    3.7218   -2.8789   -2.1451 H   0  0  0  0  0  0  0  0  0  0  0  0
    2.8374   -1.0666   -1.2967 C   0  0  0  0  0  0  0  0  0  0  0  0
    2.1081   -0.8990   -2.1020 H   0  0  0  0  0  0  0  0  0  0  0  0
    3.7656    0.6059    2.0578 C   0  0  0  0  0  0  0  0  0  0  0  0
    2.7347    0.8883    2.3473 H   0  0  0  0  0  0  0  0  0  0  0  0
    4.3316    1.5352    1.8356 H   0  0  0  0  0  0  0  0  0  0  0  0
    4.2545    0.1268    2.9267 H   0  0  0  0  0  0  0  0  0  0  0  0
  1  8  2  0  0  0  0
  3  9  2  0  0  0  0
  5 10  1  0  0  0  0
  6 11  1  0  0  0  0
  7 41  1  0  0  0  0
  8  2  2  0  0  0  0
  9 45  1  0  0  0  0
  9  4  2  0  0  0  0
 10 20  1  0  0  0  0
 11 12  1  0  0  0  0
 11 10  2  0  0  0  0
 12 13  1  0  0  0  0
 14 15  1  0  0  0  0
 14 12  2  0  0  0  0
 16 18  2  0  0  0  0
 16 14  1  0  0  0  0
 17 16  1  0  0  0  0
 18  6  1  0  0  0  0
 19  7  1  6  0  0  0
 19 18  1  0  0  0  0
 20 21  1  0  0  0  0
 20 23  1  0  0  0  0
 22 20  1  0  0  0  0
 24 19  1  0  0  0  0
 24 26  1  0  0  0  0
 25 24  1  0  0  0  0
 27 24  1  0  0  0  0
 28  5  1  0  0  0  0
 28 35  1  0  0  0  0
 29 30  1  0  0  0  0
 29 28  2  0  0  0  0
 30 32  2  0  0  0  0
 31 30  1  0  0  0  0
 32  8  1  0  0  0  0
 32 33  1  0  0  0  0
 33 34  1  0  0  0  0
 35 33  2  0  0  0  0
 35 36  1  0  0  0  0
 37 40  1  0  0  0  0
 37 29  1  0  0  0  0
 38 37  1  0  0  0  0
 39 37  1  0  0  0  0
 41 42  1  0  0  0  0
 42 50  1  0  0  0  0
 43 42  2  0  0  0  0
 43 44  1  0  0  0  0
 45 43  1  0  0  0  0
 46 48  1  0  0  0  0
 46 45  2  0  0  0  0
 47 46  1  0  0  0  0
 48 41  2  0  0  0  0
 49 48  1  0  0  0  0
 50 51  1  0  0  0  0
 50 53  1  0  0  0  0
 52 50  1  0  0  0  0
M  END
