5,7,9
 OpenBabel05122313063D

 72 75  0  0  1  0  0  0  0  0999 V2000
    2.2987    2.6969   -0.1196 S   0  0  0  0  0  0  0  0  0  0  0  0
    1.1913   -3.3401   -0.1157 S   0  0  0  0  0  0  0  0  0  0  0  0
   -3.4863    0.6427   -0.1149 S   0  0  0  0  0  0  0  0  0  0  0  0
    0.2960    4.1822   -1.3121 N   0  0  0  0  0  0  0  0  0  0  0  0
   -0.0414    1.9780   -1.4309 N   0  0  0  0  0  2  0  0  0  0  0  0
    3.4767   -2.3469   -1.3115 N   0  0  0  0  0  0  0  0  0  0  0  0
    1.7340   -0.9558   -1.4320 N   0  0  0  0  0  2  0  0  0  0  0  0
   -3.7765   -1.8340   -1.3075 N   0  0  0  0  0  0  0  0  0  0  0  0
   -1.6979   -1.0269   -1.4288 N   0  0  0  0  0  2  0  0  0  0  0  0
    0.8308    1.1472    1.7201 C   0  0  0  0  0  0  0  0  0  0  0  0
    1.4180   -0.1480    1.7064 C   0  0  0  0  0  0  0  0  0  0  0  0
    0.5802   -1.2896    1.7198 C   0  0  0  0  0  0  0  0  0  0  0  0
   -0.8352   -1.1504    1.7059 C   0  0  0  0  0  0  0  0  0  0  0  0
   -1.4050    0.1458    1.7203 C   0  0  0  0  0  0  0  0  0  0  0  0
   -0.5768    1.3020    1.7074 C   0  0  0  0  0  0  0  0  0  0  0  0
    1.7154    2.3580    1.6336 C   0  0  0  0  0  0  0  0  0  0  0  0
    2.6728    2.2331    2.1722 H   0  0  0  0  0  0  0  0  0  0  0  0
    1.2435    3.2769    2.0211 H   0  0  0  0  0  0  0  0  0  0  0  0
    0.7908    2.9359   -0.9756 C   0  0  1  0  0  3  0  0  0  0  0  0
   -0.8829    3.9910   -1.9984 C   0  0  0  0  0  0  0  0  0  0  0  0
   -1.4676    4.8302   -2.3890 H   0  0  0  0  0  0  0  0  0  0  0  0
   -1.0827    2.6234   -2.0581 C   0  0  0  0  0  0  0  0  0  0  0  0
   -1.9137    2.0699   -2.5068 H   0  0  0  0  0  0  0  0  0  0  0  0
    0.8930    5.4715   -0.9987 C   0  0  0  0  0  0  0  0  0  0  0  0
    1.8257    5.2908   -0.4333 H   0  0  0  0  0  0  0  0  0  0  0  0
    0.1983    6.0779   -0.3852 H   0  0  0  0  0  0  0  0  0  0  0  0
    1.1327    6.0226   -1.9288 H   0  0  0  0  0  0  0  0  0  0  0  0
    2.9279   -0.2869    1.7144 C   0  0  0  0  0  0  0  0  0  0  0  0
    3.3780    0.5154    1.0974 H   0  0  0  0  0  0  0  0  0  0  0  0
    3.2280   -1.2200    1.2016 H   0  0  0  0  0  0  0  0  0  0  0  0
    3.5241   -0.2758    3.1308 C   0  0  0  0  0  0  0  0  0  0  0  0
    4.6290   -0.3562    3.1020 H   0  0  0  0  0  0  0  0  0  0  0  0
    3.1343   -1.1194    3.7359 H   0  0  0  0  0  0  0  0  0  0  0  0
    3.2649    0.6535    3.6776 H   0  0  0  0  0  0  0  0  0  0  0  0
    1.1869   -2.6611    1.6358 C   0  0  0  0  0  0  0  0  0  0  0  0
    0.5997   -3.4269    2.1754 H   0  0  0  0  0  0  0  0  0  0  0  0
    2.2182   -2.7106    2.0247 H   0  0  0  0  0  0  0  0  0  0  0  0
    2.1499   -2.1538   -0.9746 C   0  0  1  0  0  3  0  0  0  0  0  0
    3.8981   -1.2311   -2.0006 C   0  0  0  0  0  0  0  0  0  0  0  0
    4.9168   -1.1435   -2.3921 H   0  0  0  0  0  0  0  0  0  0  0  0
    2.8121   -0.3763   -2.0614 C   0  0  0  0  0  0  0  0  0  0  0  0
    2.7465    0.6192   -2.5121 H   0  0  0  0  0  0  0  0  0  0  0  0
    4.2971   -3.5062   -0.9959 C   0  0  0  0  0  0  0  0  0  0  0  0
    3.6763   -4.2228   -0.4271 H   0  0  0  0  0  0  0  0  0  0  0  0
    5.1701   -3.2044   -0.3846 H   0  0  0  0  0  0  0  0  0  0  0  0
    4.6538   -3.9919   -1.9249 H   0  0  0  0  0  0  0  0  0  0  0  0
   -1.7099   -2.3890    1.7131 C   0  0  0  0  0  0  0  0  0  0  0  0
   -1.2383   -3.1799    1.0974 H   0  0  0  0  0  0  0  0  0  0  0  0
   -2.6673   -2.1833    1.1985 H   0  0  0  0  0  0  0  0  0  0  0  0
   -2.0005   -2.9104    3.1293 C   0  0  0  0  0  0  0  0  0  0  0  0
   -2.6213   -3.8280    3.0998 H   0  0  0  0  0  0  0  0  0  0  0  0
   -2.5383   -2.1515    3.7330 H   0  0  0  0  0  0  0  0  0  0  0  0
   -1.0668   -3.1491    3.6780 H   0  0  0  0  0  0  0  0  0  0  0  0
   -2.8961    0.3061    1.6364 C   0  0  0  0  0  0  0  0  0  0  0  0
   -3.2659    1.1972    2.1766 H   0  0  0  0  0  0  0  0  0  0  0  0
   -3.4544   -0.5626    2.0246 H   0  0  0  0  0  0  0  0  0  0  0  0
   -2.9428   -0.7832   -0.9724 C   0  0  1  0  0  3  0  0  0  0  0  0
   -3.0233   -2.7606   -1.9941 C   0  0  0  0  0  0  0  0  0  0  0  0
   -3.4595   -3.6861   -2.3839 H   0  0  0  0  0  0  0  0  0  0  0  0
   -1.7384   -2.2518   -2.0552 C   0  0  0  0  0  0  0  0  0  0  0  0
   -0.8445   -2.6965   -2.5042 H   0  0  0  0  0  0  0  0  0  0  0  0
   -5.1914   -1.9595   -0.9927 C   0  0  0  0  0  0  0  0  0  0  0  0
   -5.4990   -1.0613   -0.4262 H   0  0  0  0  0  0  0  0  0  0  0  0
   -5.3700   -2.8645   -0.3797 H   0  0  0  0  0  0  0  0  0  0  0  0
   -5.7897   -2.0257   -1.9222 H   0  0  0  0  0  0  0  0  0  0  0  0
   -1.2119    2.6788    1.7169 C   0  0  0  0  0  0  0  0  0  0  0  0
   -0.5544    3.4058    1.2042 H   0  0  0  0  0  0  0  0  0  0  0  0
   -2.1323    2.6676    1.1008 H   0  0  0  0  0  0  0  0  0  0  0  0
   -1.5183    3.1887    3.1340 C   0  0  0  0  0  0  0  0  0  0  0  0
   -2.0025    4.1852    3.1062 H   0  0  0  0  0  0  0  0  0  0  0  0
   -0.5920    3.2739    3.7378 H   0  0  0  0  0  0  0  0  0  0  0  0
   -2.1917    2.4985    3.6815 H   0  0  0  0  0  0  0  0  0  0  0  0
  1 16  1  0  0  0  0
  2 35  1  0  0  0  0
  3 54  1  0  0  0  0
  4 24  1  0  0  0  0
  4 19  1  0  0  0  0
  5 19  1  0  0  0  0
  6 43  1  0  0  0  0
  6 38  1  0  0  0  0
  7 38  1  0  0  0  0
  8 62  1  0  0  0  0
  8 57  1  0  0  0  0
  9 57  1  0  0  0  0
 11 28  1  0  0  0  0
 11 12  1  0  0  0  0
 11 10  2  0  0  0  0
 13 47  1  0  0  0  0
 13 12  2  0  0  0  0
 13 14  1  0  0  0  0
 15 66  1  0  0  0  0
 15 10  1  0  0  0  0
 15 14  2  0  0  0  0
 16 10  1  0  0  0  0
 16 18  1  0  0  0  0
 16 17  1  0  0  0  0
 19  1  1  6  0  0  0
 20  4  1  0  0  0  0
 21 20  1  0  0  0  0
 22 20  2  0  0  0  0
 22  5  1  0  0  0  0
 23 22  1  0  0  0  0
 24 25  1  0  0  0  0
 24 26  1  0  0  0  0
 27 24  1  0  0  0  0
 28 31  1  0  0  0  0
 29 28  1  0  0  0  0
 30 28  1  0  0  0  0
 31 34  1  0  0  0  0
 31 33  1  0  0  0  0
 32 31  1  0  0  0  0
 35 12  1  0  0  0  0
 35 37  1  0  0  0  0
 35 36  1  0  0  0  0
 38  2  1  6  0  0  0
 39  6  1  0  0  0  0
 40 39  1  0  0  0  0
 41 39  2  0  0  0  0
 41  7  1  0  0  0  0
 42 41  1  0  0  0  0
 43 44  1  0  0  0  0
 43 45  1  0  0  0  0
 46 43  1  0  0  0  0
 47 50  1  0  0  0  0
 48 47  1  0  0  0  0
 49 47  1  0  0  0  0
 50 53  1  0  0  0  0
 50 52  1  0  0  0  0
 51 50  1  0  0  0  0
 54 14  1  0  0  0  0
 54 56  1  0  0  0  0
 54 55  1  0  0  0  0
 57  3  1  6  0  0  0
 58  8  1  0  0  0  0
 59 58  1  0  0  0  0
 60 58  2  0  0  0  0
 60  9  1  0  0  0  0
 61 60  1  0  0  0  0
 62 63  1  0  0  0  0
 62 64  1  0  0  0  0
 65 62  1  0  0  0  0
 66 69  1  0  0  0  0
 67 66  1  0  0  0  0
 68 66  1  0  0  0  0
 69 72  1  0  0  0  0
 69 71  1  0  0  0  0
 70 69  1  0  0  0  0
M  END
