6,12,33
 OpenBabel05122313063D

 50 52  0  0  0  0  0  0  0  0999 V2000
   -0.0006    1.1388    3.5672 C   0  0  0  0  0  0  0  0  0  0  0  0
   -0.8979    0.8182    4.1345 H   0  0  0  0  0  0  0  0  0  0  0  0
   -0.0005    2.2465    3.5296 H   0  0  0  0  0  0  0  0  0  0  0  0
    0.8964    0.8182    4.1349 H   0  0  0  0  0  0  0  0  0  0  0  0
   -0.0004    0.5277    2.1603 C   0  0  0  0  0  0  0  0  0  0  0  0
   -0.0004   -0.9572    2.1801 N   0  0  0  0  0  0  0  0  0  0  0  0
   -0.8262   -1.3269    2.6704 H   0  0  0  0  0  0  0  0  0  0  0  0
    0.8251   -1.3270    2.6706 H   0  0  0  0  0  0  0  0  0  0  0  0
    1.2840    0.9389    1.4170 C   0  0  0  0  0  0  0  0  0  0  0  0
    1.3803    2.0474    1.4008 H   0  0  0  0  0  0  0  0  0  0  0  0
    2.1411    0.5597    2.0089 H   0  0  0  0  0  0  0  0  0  0  0  0
    1.3737    0.3703    0.0517 N   0  0  0  0  0  0  0  0  0  0  0  0
    2.7852    0.0154   -0.3178 C   0  0  0  0  0  0  0  0  0  0  0  0
    3.1162   -0.7568    0.4026 H   0  0  0  0  0  0  0  0  0  0  0  0
    2.7240   -0.4846   -1.3034 H   0  0  0  0  0  0  0  0  0  0  0  0
    3.7560    1.1796   -0.3436 C   0  0  0  0  0  0  0  0  0  0  0  0
    4.5192    1.5085    0.7961 C   0  0  0  0  0  0  0  0  0  0  0  0
    4.4488    0.8762    1.6959 H   0  0  0  0  0  0  0  0  0  0  0  0
    5.3872    2.6107    0.7926 C   0  0  0  0  0  0  0  0  0  0  0  0
    5.9786    2.8460    1.6906 H   0  0  0  0  0  0  0  0  0  0  0  0
    5.5120    3.4018   -0.3599 C   0  0  0  0  0  0  0  0  0  0  0  0
    6.1956    4.2642   -0.3674 H   0  0  0  0  0  0  0  0  0  0  0  0
    4.7756    3.0751   -1.5097 C   0  0  0  0  0  0  0  0  0  0  0  0
    4.8851    3.6774   -2.4244 H   0  0  0  0  0  0  0  0  0  0  0  0
    3.9092    1.9722   -1.5007 C   0  0  0  0  0  0  0  0  0  0  0  0
    3.3537    1.7093   -2.4143 H   0  0  0  0  0  0  0  0  0  0  0  0
    0.7738    1.2755   -0.9547 C   0  0  0  0  0  0  0  0  0  0  0  0
    1.1156    0.9150   -1.9421 H   0  0  0  0  0  0  0  0  0  0  0  0
    1.1636    2.3114   -0.8217 H   0  0  0  0  0  0  0  0  0  0  0  0
   -0.7733    1.2755   -0.9550 C   0  0  0  0  0  0  0  0  0  0  0  0
   -1.1632    2.3114   -0.8223 H   0  0  0  0  0  0  0  0  0  0  0  0
   -1.1147    0.9149   -1.9426 H   0  0  0  0  0  0  0  0  0  0  0  0
   -1.3736    0.3703    0.0512 N   0  0  0  0  0  0  0  0  0  0  0  0
   -2.7850    0.0155   -0.3187 C   0  0  0  0  0  0  0  0  0  0  0  0
   -3.1161   -0.7569    0.4013 H   0  0  0  0  0  0  0  0  0  0  0  0
   -2.7236   -0.4841   -1.3045 H   0  0  0  0  0  0  0  0  0  0  0  0
   -3.7559    1.1796   -0.3442 C   0  0  0  0  0  0  0  0  0  0  0  0
   -3.9084    1.9733   -1.5008 C   0  0  0  0  0  0  0  0  0  0  0  0
   -3.3524    1.7112   -2.4143 H   0  0  0  0  0  0  0  0  0  0  0  0
   -4.7750    3.0761   -1.5094 C   0  0  0  0  0  0  0  0  0  0  0  0
   -4.8839    3.6792   -2.4236 H   0  0  0  0  0  0  0  0  0  0  0  0
   -5.5121    3.4017   -0.3597 C   0  0  0  0  0  0  0  0  0  0  0  0
   -6.1958    4.2641   -0.3669 H   0  0  0  0  0  0  0  0  0  0  0  0
   -5.3880    2.6095    0.7921 C   0  0  0  0  0  0  0  0  0  0  0  0
   -5.9801    2.8440    1.6899 H   0  0  0  0  0  0  0  0  0  0  0  0
   -4.5199    1.5075    0.7953 C   0  0  0  0  0  0  0  0  0  0  0  0
   -4.4500    0.8744    1.6945 H   0  0  0  0  0  0  0  0  0  0  0  0
   -1.2844    0.9390    1.4165 C   0  0  0  0  0  0  0  0  0  0  0  0
   -2.1417    0.5600    2.0081 H   0  0  0  0  0  0  0  0  0  0  0  0
   -1.3805    2.0475    1.4002 H   0  0  0  0  0  0  0  0  0  0  0  0
  1  2  1  0  0  0  0
  1  4  1  0  0  0  0
  3  1  1  0  0  0  0
  5  6  1  0  0  0  0
  5  1  1  0  0  0  0
  6  7  1  0  0  0  0
  6  8  1  0  0  0  0
  9 11  1  0  0  0  0
  9  5  1  0  0  0  0
 10  9  1  0  0  0  0
 12  9  1  0  0  0  0
 13 12  1  0  0  0  0
 13 14  1  0  0  0  0
 15 13  1  0  0  0  0
 16 13  1  0  0  0  0
 16 17  1  0  0  0  0
 17 18  1  0  0  0  0
 19 17  2  0  0  0  0
 19 20  1  0  0  0  0
 21 19  1  0  0  0  0
 22 21  1  0  0  0  0
 23 25  1  0  0  0  0
 23 21  2  0  0  0  0
 24 23  1  0  0  0  0
 25 16  2  0  0  0  0
 26 25  1  0  0  0  0
 27 29  1  0  0  0  0
 27 12  1  0  0  0  0
 28 27  1  0  0  0  0
 30 27  1  0  0  0  0
 30 31  1  0  0  0  0
 30 33  1  0  0  0  0
 32 30  1  0  0  0  0
 33 48  1  0  0  0  0
 34 33  1  0  0  0  0
 34 35  1  0  0  0  0
 36 34  1  0  0  0  0
 37 34  1  0  0  0  0
 37 46  1  0  0  0  0
 38 37  2  0  0  0  0
 39 38  1  0  0  0  0
 40 38  1  0  0  0  0
 40 42  2  0  0  0  0
 41 40  1  0  0  0  0
 42 44  1  0  0  0  0
 43 42  1  0  0  0  0
 44 46  2  0  0  0  0
 44 45  1  0  0  0  0
 46 47  1  0  0  0  0
 48 49  1  0  0  0  0
 48  5  1  0  0  0  0
 50 48  1  0  0  0  0
M  END
