1,2,3
 OpenBabel05122313063D

 47 49  0  0  1  0  0  0  0  0999 V2000
   -1.7651    1.8842    0.2346 N   0  0  0  0  0  2  0  0  0  0  0  0
   -2.5424   -0.6073    0.0762 N   0  0  0  0  0  0  0  0  0  0  0  0
   -0.0202   -1.6311    0.4363 N   0  0  0  0  0  0  0  0  0  0  0  0
   -1.3976    3.1091    0.6683 C   0  0  0  0  0  3  0  0  0  0  0  0
   -2.2133    4.2314    0.4885 C   0  0  0  0  0  0  0  0  0  0  0  0
   -3.4439    4.0799   -0.1644 C   0  0  0  0  0  0  0  0  0  0  0  0
   -3.8234    2.8046   -0.6094 C   0  0  0  0  0  0  0  0  0  0  0  0
   -2.9613    1.7231   -0.3977 C   0  0  0  0  0  0  0  0  0  0  0  0
   -3.2325    0.3164   -0.8575 C   0  0  0  0  0  0  0  0  0  0  0  0
   -2.2867   -1.9764   -0.4358 C   0  0  1  0  0  0  0  0  0  0  0  0
   -1.1703   -2.5873    0.4211 C   0  0  1  0  0  0  0  0  0  0  0  0
   -0.8174   -3.9886   -0.1005 C   0  0  0  0  0  0  0  0  0  0  0  0
   -2.0560   -4.8945   -0.1314 C   0  0  0  0  0  0  0  0  0  0  0  0
   -3.1794   -4.2795   -0.9720 C   0  0  0  0  0  0  0  0  0  0  0  0
   -3.5307   -2.8686   -0.4817 C   0  0  0  0  0  0  0  0  0  0  0  0
    1.1055   -2.0257    1.3386 C   0  0  0  0  0  0  0  0  0  0  0  0
    2.4570   -1.8536    0.6846 C   0  0  0  0  0  0  0  0  0  0  0  0
    2.6916   -2.3612   -0.6110 C   0  0  0  0  0  0  0  0  0  0  0  0
    3.9290   -2.1672   -1.2403 C   0  0  0  0  0  0  0  0  0  0  0  0
    4.9549   -1.4786   -0.5729 C   0  0  0  0  0  0  0  0  0  0  0  0
    4.7374   -0.9914    0.7247 C   0  0  0  0  0  0  0  0  0  0  0  0
    3.4950   -1.1761    1.3497 C   0  0  0  0  0  0  0  0  0  0  0  0
   -3.1019   -0.6826    0.9413 H   0  0  0  0  0  0  0  0  0  0  0  0
    0.3530   -1.5983   -0.5288 H   0  0  0  0  0  0  0  0  0  0  0  0
   -2.7609    0.1752   -1.8524 H   0  0  0  0  0  0  0  0  0  0  0  0
   -4.3197    0.1137   -0.9461 H   0  0  0  0  0  0  0  0  0  0  0  0
    1.0664   -1.4307    2.2714 H   0  0  0  0  0  0  0  0  0  0  0  0
    0.9601   -3.0860    1.6362 H   0  0  0  0  0  0  0  0  0  0  0  0
   -1.8814   -1.8381   -1.4615 H   0  0  0  0  0  0  0  0  0  0  0  0
   -1.5351   -2.6757    1.4723 H   0  0  0  0  0  0  0  0  0  0  0  0
   -0.4053   -3.8838   -1.1291 H   0  0  0  0  0  0  0  0  0  0  0  0
   -0.0190   -4.4480    0.5156 H   0  0  0  0  0  0  0  0  0  0  0  0
   -2.4149   -5.0632    0.9080 H   0  0  0  0  0  0  0  0  0  0  0  0
   -1.7761   -5.8911   -0.5270 H   0  0  0  0  0  0  0  0  0  0  0  0
   -2.8606   -4.2267   -2.0357 H   0  0  0  0  0  0  0  0  0  0  0  0
   -4.0822   -4.9217   -0.9489 H   0  0  0  0  0  0  0  0  0  0  0  0
   -3.9696   -2.9263    0.5413 H   0  0  0  0  0  0  0  0  0  0  0  0
   -4.2999   -2.4099   -1.1366 H   0  0  0  0  0  0  0  0  0  0  0  0
   -0.4094    3.1738    1.1435 H   0  0  0  0  0  0  0  0  0  0  0  0
   -1.8723    5.2111    0.8515 H   0  0  0  0  0  0  0  0  0  0  0  0
   -4.1053    4.9442   -0.3235 H   0  0  0  0  0  0  0  0  0  0  0  0
   -4.7832    2.6431   -1.1209 H   0  0  0  0  0  0  0  0  0  0  0  0
    3.3264   -0.7469    2.3476 H   0  0  0  0  0  0  0  0  0  0  0  0
    5.5305   -0.4406    1.2510 H   0  0  0  0  0  0  0  0  0  0  0  0
    5.9239   -1.3190   -1.0685 H   0  0  0  0  0  0  0  0  0  0  0  0
    4.0914   -2.5542   -2.2568 H   0  0  0  0  0  0  0  0  0  0  0  0
    1.9050   -2.9157   -1.1491 H   0  0  0  0  0  0  0  0  0  0  0  0
  1  4  1  0  0  0  0
  2 23  1  0  0  0  0
  3 16  1  0  0  0  0
  4 39  1  0  0  0  0
  5  4  1  0  0  0  0
  5 40  1  0  0  0  0
  6  5  2  0  0  0  0
  7  8  2  0  0  0  0
  7  6  1  0  0  0  0
  8  1  1  0  0  0  0
  9  8  1  0  0  0  0
  9  2  1  0  0  0  0
 10 29  1  6  0  0  0
 10  2  1  0  0  0  0
 10 11  1  0  0  0  0
 11  3  1  0  0  0  0
 11 30  1  1  0  0  0
 12 11  1  0  0  0  0
 12 32  1  0  0  0  0
 13 12  1  0  0  0  0
 13 33  1  0  0  0  0
 14 36  1  0  0  0  0
 14 15  1  0  0  0  0
 14 13  1  0  0  0  0
 15 10  1  0  0  0  0
 15 37  1  0  0  0  0
 16 28  1  0  0  0  0
 16 27  1  0  0  0  0
 17 16  1  0  0  0  0
 17 22  1  0  0  0  0
 18 17  2  0  0  0  0
 19 18  1  0  0  0  0
 19 20  2  0  0  0  0
 20 21  1  0  0  0  0
 21 44  1  0  0  0  0
 21 22  2  0  0  0  0
 22 43  1  0  0  0  0
 24  3  1  0  0  0  0
 25  9  1  0  0  0  0
 26  9  1  0  0  0  0
 31 12  1  0  0  0  0
 34 13  1  0  0  0  0
 35 14  1  0  0  0  0
 38 15  1  0  0  0  0
 41  6  1  0  0  0  0
 42  7  1  0  0  0  0
 45 20  1  0  0  0  0
 46 19  1  0  0  0  0
 47 18  1  0  0  0  0
M  END
