1,3,7
 OpenBabel05122313063D

 43 45  0  0  1  0  0  0  0  0999 V2000
    0.0293    1.1615   -0.2230 N   0  0  0  0  0  2  0  0  0  0  0  0
    2.2892    0.9390   -0.3070 N   0  0  0  0  0  0  0  0  0  0  0  0
    1.9724   -0.3938   -0.4906 N   0  0  0  0  0  2  0  0  0  0  0  0
   -2.2192    0.9141   -0.3611 N   0  0  1  0  0  0  0  0  0  0  0  0
   -1.1550    1.8078   -0.3697 C   0  0  2  0  0  3  0  0  0  0  0  0
    1.2095    1.8220   -0.3358 C   0  0  0  0  0  0  0  0  0  0  0  0
   -1.8777   -0.4214   -0.4803 N   0  0  0  0  0  2  0  0  0  0  0  0
    4.1915   -0.1810   -0.0419 C   0  0  0  0  0  0  0  0  0  0  0  0
    3.1145   -1.0789   -0.3203 C   0  0  1  0  0  3  0  0  0  0  0  0
    4.2711    2.4189    0.2550 C   0  0  0  0  0  0  0  0  0  0  0  0
   -4.2317    2.3799    0.1104 C   0  0  0  0  0  0  0  0  0  0  0  0
    3.6382    1.1009   -0.0309 C   0  0  0  0  0  0  0  0  0  0  0  0
   -3.5775    1.0647   -0.1340 C   0  0  2  0  0  3  0  0  0  0  0  0
    0.0192    3.8929   -0.5839 C   0  0  0  0  0  0  0  0  0  0  0  0
    3.1530   -2.5679   -0.4025 C   0  0  0  0  0  0  0  0  0  0  0  0
    1.2469    3.2135   -0.5031 C   0  0  0  0  0  0  0  0  0  0  0  0
   -1.2028    3.1971   -0.5414 C   0  0  0  0  0  0  0  0  0  0  0  0
   -4.1178   -0.2210   -0.1447 C   0  0  0  0  0  0  0  0  0  0  0  0
   -5.5487   -0.6148    0.0443 C   0  0  0  0  0  0  0  0  0  0  0  0
   -3.0228   -1.1144   -0.3587 C   0  0  0  0  0  0  0  0  0  0  0  0
    5.6184   -0.5647    0.1933 C   0  0  0  0  0  0  0  0  0  0  0  0
   -3.0554   -2.6042   -0.4218 C   0  0  0  0  0  0  0  0  0  0  0  0
    2.1947    3.7515   -0.6024 H   0  0  0  0  0  0  0  0  0  0  0  0
    0.0142    4.9829   -0.7250 H   0  0  0  0  0  0  0  0  0  0  0  0
   -2.1531    3.7247   -0.6664 H   0  0  0  0  0  0  0  0  0  0  0  0
   -4.2499    3.0270   -0.7928 H   0  0  0  0  0  0  0  0  0  0  0  0
   -5.2810    2.2175    0.4181 H   0  0  0  0  0  0  0  0  0  0  0  0
   -3.7250    2.9416    0.9225 H   0  0  0  0  0  0  0  0  0  0  0  0
   -5.6728   -1.2841    0.9208 H   0  0  0  0  0  0  0  0  0  0  0  0
   -6.1990    0.2664    0.2045 H   0  0  0  0  0  0  0  0  0  0  0  0
   -5.9420   -1.1595   -0.8394 H   0  0  0  0  0  0  0  0  0  0  0  0
   -2.5714   -3.0453    0.4741 H   0  0  0  0  0  0  0  0  0  0  0  0
   -4.0962   -2.9720   -0.4764 H   0  0  0  0  0  0  0  0  0  0  0  0
   -2.4946   -2.9792   -1.3005 H   0  0  0  0  0  0  0  0  0  0  0  0
    4.3256    3.0726   -0.6420 H   0  0  0  0  0  0  0  0  0  0  0  0
    3.7264    2.9761    1.0455 H   0  0  0  0  0  0  0  0  0  0  0  0
    5.3069    2.2616    0.6083 H   0  0  0  0  0  0  0  0  0  0  0  0
    6.0540   -1.0769   -0.6901 H   0  0  0  0  0  0  0  0  0  0  0  0
    6.2515    0.3177    0.4077 H   0  0  0  0  0  0  0  0  0  0  0  0
    5.7143   -1.2608    1.0520 H   0  0  0  0  0  0  0  0  0  0  0  0
    2.6036   -2.9327   -1.2922 H   0  0  0  0  0  0  0  0  0  0  0  0
    4.1948   -2.9353   -0.4439 H   0  0  0  0  0  0  0  0  0  0  0  0
    2.6566   -3.0146    0.4841 H   0  0  0  0  0  0  0  0  0  0  0  0
  2 12  1  0  0  0  0
  3  9  1  0  0  0  0
  3  2  1  0  0  0  0
  4  7  1  1  0  0  0
  4 13  1  0  0  0  0
  5 17  1  6  0  0  0
  5  4  1  0  0  0  0
  5  1  1  0  0  0  0
  6  2  1  0  0  0  0
  6  1  1  0  0  0  0
  7 20  1  0  0  0  0
  8 12  2  0  0  0  0
  8 21  1  0  0  0  0
  9 15  1  1  0  0  0
  9  8  1  0  0  0  0
 10 37  1  0  0  0  0
 10 36  1  0  0  0  0
 11 27  1  0  0  0  0
 11 28  1  0  0  0  0
 12 10  1  0  0  0  0
 13 11  1  1  0  0  0
 14 17  2  0  0  0  0
 14 16  1  0  0  0  0
 15 43  1  0  0  0  0
 16  6  2  0  0  0  0
 18 13  1  0  0  0  0
 18 19  1  0  0  0  0
 19 30  1  0  0  0  0
 19 29  1  0  0  0  0
 20 18  2  0  0  0  0
 21 39  1  0  0  0  0
 21 40  1  0  0  0  0
 22 20  1  0  0  0  0
 22 32  1  0  0  0  0
 23 16  1  0  0  0  0
 24 14  1  0  0  0  0
 25 17  1  0  0  0  0
 26 11  1  0  0  0  0
 31 19  1  0  0  0  0
 33 22  1  0  0  0  0
 34 22  1  0  0  0  0
 35 10  1  0  0  0  0
 38 21  1  0  0  0  0
 41 15  1  0  0  0  0
 42 15  1  0  0  0  0
M  END
