5,23,32
 OpenBabel05122313063D

 51 53  0  0  1  0  0  0  0  0999 V2000
    2.4910   -1.1682    1.3603 S   0  0  0  0  0  0  0  0  0  0  0  0
    1.2044   -1.3370    0.5698 O   0  0  0  0  0  0  0  0  0  0  0  0
    2.6761   -2.0277    2.5519 O   0  0  0  0  0  0  0  0  0  0  0  0
    2.7367    0.4278    1.7797 N   0  0  0  0  0  2  0  0  0  0  0  0
    1.8751    1.2342    1.1717 N   0  0  0  0  0  2  0  0  0  0  0  0
    3.8300   -1.5356    0.2156 C   0  0  0  0  0  0  0  0  0  0  0  0
    4.8311   -2.4337    0.6101 C   0  0  0  0  0  0  0  0  0  0  0  0
    4.7634   -2.9046    1.6014 H   0  0  0  0  0  0  0  0  0  0  0  0
    1.9768    2.5406    1.3554 C   0  0  0  0  0  0  0  0  0  0  0  0
    4.9153   -1.1798   -1.9090 C   0  0  0  0  0  0  0  0  0  0  0  0
    4.9558   -0.6872   -2.8936 H   0  0  0  0  0  0  0  0  0  0  0  0
    5.9291   -2.0802   -1.5329 C   0  0  0  0  0  0  0  0  0  0  0  0
    6.7595   -2.2927   -2.2233 H   0  0  0  0  0  0  0  0  0  0  0  0
    0.9745    3.3621    0.6735 C   0  0  0  0  0  0  0  0  0  0  0  0
    3.8548   -0.8980   -1.0368 C   0  0  0  0  0  0  0  0  0  0  0  0
    3.0406   -0.2110   -1.3227 H   0  0  0  0  0  0  0  0  0  0  0  0
    5.8856   -2.7047   -0.2762 C   0  0  0  0  0  0  0  0  0  0  0  0
    6.6786   -3.4090    0.0181 H   0  0  0  0  0  0  0  0  0  0  0  0
    3.0530    3.1609    2.1988 C   0  0  0  0  0  0  0  0  0  0  0  0
    3.6607    2.3582    2.6550 H   0  0  0  0  0  0  0  0  0  0  0  0
    2.6290    3.7950    3.0058 H   0  0  0  0  0  0  0  0  0  0  0  0
    3.7238    3.8086    1.5946 H   0  0  0  0  0  0  0  0  0  0  0  0
    0.0001    2.7121    0.0000 N   0  0  0  0  0  2  0  0  0  0  0  0
    0.9972    4.7793    0.6954 C   0  0  0  0  0  0  0  0  0  0  0  0
    1.7863    5.3154    1.2383 H   0  0  0  0  0  0  0  0  0  0  0  0
    0.0002    5.4747    0.0000 C   0  0  0  0  0  0  0  0  0  0  0  0
    0.0003    6.5758    0.0000 H   0  0  0  0  0  0  0  0  0  0  0  0
   -2.4910   -1.1681   -1.3603 S   0  0  0  0  0  0  0  0  0  0  0  0
   -1.2045   -1.3369   -0.5698 O   0  0  0  0  0  0  0  0  0  0  0  0
   -2.6762   -2.0275   -2.5520 O   0  0  0  0  0  0  0  0  0  0  0  0
   -2.7367    0.4280   -1.7796 N   0  0  0  0  0  2  0  0  0  0  0  0
   -1.8750    1.2343   -1.1717 N   0  0  0  0  0  2  0  0  0  0  0  0
   -3.8301   -1.5355   -0.2156 C   0  0  0  0  0  0  0  0  0  0  0  0
   -4.8312   -2.4334   -0.6102 C   0  0  0  0  0  0  0  0  0  0  0  0
   -4.7636   -2.9043   -1.6015 H   0  0  0  0  0  0  0  0  0  0  0  0
   -1.9766    2.5408   -1.3553 C   0  0  2  0  0  3  0  0  0  0  0  0
   -4.9155   -1.1797    1.9090 C   0  0  0  0  0  0  0  0  0  0  0  0
   -4.9559   -0.6871    2.8936 H   0  0  0  0  0  0  0  0  0  0  0  0
   -5.9292   -2.0800    1.5328 C   0  0  0  0  0  0  0  0  0  0  0  0
   -6.7597   -2.2925    2.2231 H   0  0  0  0  0  0  0  0  0  0  0  0
   -0.9742    3.3622   -0.6735 C   0  0  0  0  0  0  0  0  0  0  0  0
   -3.8549   -0.8979    1.0368 C   0  0  0  0  0  0  0  0  0  0  0  0
   -3.0406   -0.2110    1.3228 H   0  0  0  0  0  0  0  0  0  0  0  0
   -5.8858   -2.7044    0.2761 C   0  0  0  0  0  0  0  0  0  0  0  0
   -6.6788   -3.4087   -0.0184 H   0  0  0  0  0  0  0  0  0  0  0  0
   -3.0527    3.1611   -2.1987 C   0  0  0  0  0  0  0  0  0  0  0  0
   -3.6605    2.3584   -2.6549 H   0  0  0  0  0  0  0  0  0  0  0  0
   -2.6288    3.7953   -3.0056 H   0  0  0  0  0  0  0  0  0  0  0  0
   -3.7235    3.8088   -1.5944 H   0  0  0  0  0  0  0  0  0  0  0  0
   -0.9968    4.7793   -0.6954 C   0  0  0  0  0  0  0  0  0  0  0  0
   -1.7859    5.3155   -1.2382 H   0  0  0  0  0  0  0  0  0  0  0  0
  1  4  1  0  0  0  0
  1  3  2  0  0  0  0
  2  1  2  0  0  0  0
  5  9  1  0  0  0  0
  5  4  1  0  0  0  0
  6  7  1  0  0  0  0
  6  1  1  0  0  0  0
  7  8  1  0  0  0  0
  9 19  1  0  0  0  0
 10 12  2  0  0  0  0
 10 15  1  0  0  0  0
 11 10  1  0  0  0  0
 12 17  1  0  0  0  0
 13 12  1  0  0  0  0
 14 24  1  0  0  0  0
 14  9  2  0  0  0  0
 15  6  2  0  0  0  0
 16 15  1  0  0  0  0
 17 18  1  0  0  0  0
 17  7  2  0  0  0  0
 19 20  1  0  0  0  0
 19 21  1  0  0  0  0
 22 19  1  0  0  0  0
 23 14  1  0  0  0  0
 24 25  1  0  0  0  0
 26 27  1  0  0  0  0
 26 24  2  0  0  0  0
 28 29  2  0  0  0  0
 28 33  1  0  0  0  0
 30 28  2  0  0  0  0
 31 28  1  0  0  0  0
 31 32  1  0  0  0  0
 33 42  1  0  0  0  0
 34 33  2  0  0  0  0
 34 44  1  0  0  0  0
 35 34  1  0  0  0  0
 36 32  1  1  0  0  0
 36 41  1  0  0  0  0
 37 38  1  0  0  0  0
 39 37  1  0  0  0  0
 39 40  1  0  0  0  0
 41 23  1  0  0  0  0
 42 43  1  0  0  0  0
 42 37  2  0  0  0  0
 44 39  2  0  0  0  0
 45 44  1  0  0  0  0
 46 49  1  0  0  0  0
 46 36  1  0  0  0  0
 47 46  1  0  0  0  0
 48 46  1  0  0  0  0
 50 41  2  0  0  0  0
 50 26  1  0  0  0  0
 51 50  1  0  0  0  0
M  END
