1,11,18
 OpenBabel05122313063D

 30 31  0  0  0  0  0  0  0  0999 V2000
   -2.2692   -0.4216    0.2499 N   0  0  0  0  0  2  0  0  0  0  0  0
   -3.1295   -1.3975    0.6005 C   0  0  0  0  0  3  0  0  0  0  0  0
   -2.8554   -2.4515    0.4687 H   0  0  0  0  0  0  0  0  0  0  0  0
   -4.3288   -0.8194    1.1005 C   0  0  0  0  0  0  0  0  0  0  0  0
   -5.2052   -1.3729    1.4580 H   0  0  0  0  0  0  0  0  0  0  0  0
   -4.1769    0.5778    1.0410 C   0  0  0  0  0  0  0  0  0  0  0  0
   -4.9026    1.3417    1.3444 H   0  0  0  0  0  0  0  0  0  0  0  0
   -2.8812    0.8085    0.5074 C   0  0  0  0  0  0  0  0  0  0  0  0
   -2.0586    1.9100    0.1702 C   0  0  0  0  0  0  0  0  0  0  0  0
   -2.3638    2.9673    0.2666 H   0  0  0  0  0  0  0  0  0  0  0  0
   -0.8650    1.5644   -0.2942 N   0  0  0  0  0  2  0  0  0  0  0  0
    0.1927    2.4447   -0.7488 C   0  0  0  0  0  0  0  0  0  0  0  0
    0.8252    2.7823    0.1047 H   0  0  0  0  0  0  0  0  0  0  0  0
   -0.1944    3.3586   -1.2514 H   0  0  0  0  0  0  0  0  0  0  0  0
    1.0304    1.6106   -1.7216 C   0  0  0  0  0  0  0  0  0  0  0  0
    0.4831    1.4913   -2.6775 H   0  0  0  0  0  0  0  0  0  0  0  0
    2.0206    2.0701   -1.9288 H   0  0  0  0  0  0  0  0  0  0  0  0
    1.1876    0.2334   -1.1510 N   0  0  0  0  0  0  0  0  0  0  0  0
    1.3590   -0.4548   -1.9011 H   0  0  0  0  0  0  0  0  0  0  0  0
    2.2340    0.0850   -0.1571 C   0  0  0  0  0  0  0  0  0  0  0  0
    3.4760   -0.4535   -0.5313 C   0  0  0  0  0  0  0  0  0  0  0  0
    3.6401   -0.7728   -1.5723 H   0  0  0  0  0  0  0  0  0  0  0  0
    4.4925   -0.6001    0.4241 C   0  0  0  0  0  0  0  0  0  0  0  0
    5.4583   -1.0362    0.1282 H   0  0  0  0  0  0  0  0  0  0  0  0
    4.2758   -0.1957    1.7500 C   0  0  0  0  0  0  0  0  0  0  0  0
    5.0726   -0.3118    2.4996 H   0  0  0  0  0  0  0  0  0  0  0  0
    3.0323    0.3412    2.1205 C   0  0  0  0  0  0  0  0  0  0  0  0
    2.8485    0.6403    3.1632 H   0  0  0  0  0  0  0  0  0  0  0  0
    2.0065    0.4757    1.1749 C   0  0  0  0  0  0  0  0  0  0  0  0
    1.0127    0.8427    1.4687 H   0  0  0  0  0  0  0  0  0  0  0  0
  1  8  1  0  0  0  0
  1  2  1  0  0  0  0
  2  4  1  0  0  0  0
  3  2  1  0  0  0  0
  4  5  1  0  0  0  0
  6  4  2  0  0  0  0
  6  7  1  0  0  0  0
  8  6  1  0  0  0  0
  9 10  1  0  0  0  0
  9  8  2  0  0  0  0
 11  9  1  0  0  0  0
 12 11  1  0  0  0  0
 12 13  1  0  0  0  0
 14 12  1  0  0  0  0
 15 18  1  0  0  0  0
 15 12  1  0  0  0  0
 16 15  1  0  0  0  0
 17 15  1  0  0  0  0
 18 20  1  0  0  0  0
 19 18  1  0  0  0  0
 20 29  1  0  0  0  0
 21 20  2  0  0  0  0
 21 23  1  0  0  0  0
 22 21  1  0  0  0  0
 23 25  2  0  0  0  0
 24 23  1  0  0  0  0
 25 27  1  0  0  0  0
 25 26  1  0  0  0  0
 27 28  1  0  0  0  0
 29 30  1  0  0  0  0
 29 27  2  0  0  0  0
M  END
