3,4,24
 OpenBabel05122313063D

 24 24  0  0  1  0  0  0  0  0999 V2000
   -3.1198    0.8751    0.0002 O   0  0  0  0  0  0  0  0  0  0  0  0
   -3.2580   -0.1397    0.0004 H   0  0  0  0  0  0  0  0  0  0  0  0
   -1.7850    0.9429   -0.0001 N   0  0  0  0  0  2  0  0  0  0  0  0
    0.7510    0.7137   -0.0001 N   0  0  0  0  0  2  0  0  0  0  0  0
    0.3003    1.9940   -0.0001 C   0  0  0  0  0  0  0  0  0  0  0  0
    1.2365    3.0411    0.0002 C   0  0  0  0  0  0  0  0  0  0  0  0
    0.9076    4.0885    0.0004 H   0  0  0  0  0  0  0  0  0  0  0  0
    2.6077    2.7022    0.0004 C   0  0  0  0  0  0  0  0  0  0  0  0
    3.3586    3.5064    0.0008 H   0  0  0  0  0  0  0  0  0  0  0  0
    3.0333    1.3698    0.0004 C   0  0  0  0  0  0  0  0  0  0  0  0
    4.1018    1.1163    0.0008 H   0  0  0  0  0  0  0  0  0  0  0  0
    2.0585    0.3350   -0.0001 C   0  0  0  0  0  0  0  0  0  0  0  0
    2.2680   -1.0888   -0.0004 C   0  0  1  0  0  3  0  0  0  0  0  0
    3.6174   -1.7321   -0.0006 C   0  0  0  0  0  0  0  0  0  0  0  0
    4.2036   -1.4576    0.9022 H   0  0  0  0  0  0  0  0  0  0  0  0
    4.2137   -1.4342   -0.8890 H   0  0  0  0  0  0  0  0  0  0  0  0
    3.4898   -2.8297   -0.0147 H   0  0  0  0  0  0  0  0  0  0  0  0
   -1.1727    2.1104   -0.0002 C   0  0  0  0  0  0  0  0  0  0  0  0
   -1.8864    3.4222   -0.0002 C   0  0  0  0  0  0  0  0  0  0  0  0
   -2.9792    3.2661   -0.0045 H   0  0  0  0  0  0  0  0  0  0  0  0
   -1.6063    4.0210   -0.8915 H   0  0  0  0  0  0  0  0  0  0  0  0
   -1.6132    4.0172    0.8957 H   0  0  0  0  0  0  0  0  0  0  0  0
    1.1551   -3.0893    0.0007 O   0  0  0  0  0  1  0  0  0  0  0  0
    1.1286   -1.8541    0.0001 N   0  0  0  0  0  2  0  0  0  0  0  0
  1  2  1  0  0  0  0
  3  1  1  0  0  0  0
  4 12  1  0  0  0  0
  4  5  1  0  0  0  0
  5  6  1  0  0  0  0
  6  7  1  0  0  0  0
  6  8  2  0  0  0  0
  8  9  1  0  0  0  0
 10  8  1  0  0  0  0
 10 11  1  0  0  0  0
 12 10  2  0  0  0  0
 13 12  1  0  0  0  0
 13 24  1  1  0  0  0
 14 13  1  0  0  0  0
 14 15  1  0  0  0  0
 16 14  1  0  0  0  0
 17 14  1  0  0  0  0
 18 19  1  0  0  0  0
 18  3  1  0  0  0  0
 18  5  2  0  0  0  0
 19 22  1  0  0  0  0
 20 19  1  0  0  0  0
 21 19  1  0  0  0  0
 24 23  1  0  0  0  0
M  END
