1,2,4
 OpenBabel05122313063D

 43 45  0  0  1  0  0  0  0  0999 V2000
    1.9320   -0.4793   -0.6805 N   0  0  0  0  0  2  0  0  0  0  0  0
   -2.0807   -0.3634   -0.5843 N   0  0  0  0  0  2  0  0  0  0  0  0
   -0.8094    1.5456    1.7908 N   0  0  0  0  0  0  0  0  0  0  0  0
   -0.0963   -1.7262    0.7032 N   0  0  0  0  0  0  0  0  0  0  0  0
    1.1622   -2.4938    0.4593 C   0  0  0  0  0  0  0  0  0  0  0  0
    2.2946   -1.5882    0.0274 C   0  0  1  0  0  3  0  0  0  0  0  0
    3.6442   -1.8782    0.2579 C   0  0  0  0  0  0  0  0  0  0  0  0
    4.6264   -1.0202   -0.2609 C   0  0  0  0  0  0  0  0  0  0  0  0
    4.2322    0.1089   -0.9924 C   0  0  0  0  0  0  0  0  0  0  0  0
    2.8681    0.3558   -1.1791 C   0  0  0  0  0  0  0  0  0  0  0  0
   -1.3452   -2.4765    0.3577 C   0  0  0  0  0  0  0  0  0  0  0  0
   -2.4625   -1.4995    0.0692 C   0  0  2  0  0  3  0  0  0  0  0  0
   -3.8054   -1.7240    0.3852 C   0  0  0  0  0  0  0  0  0  0  0  0
   -4.7640   -0.7699    0.0062 C   0  0  0  0  0  0  0  0  0  0  0  0
   -4.3510    0.3848   -0.6709 C   0  0  0  0  0  0  0  0  0  0  0  0
   -2.9902    0.5628   -0.9463 C   0  0  0  0  0  0  0  0  0  0  0  0
   -0.2043   -1.2171    2.1121 C   0  0  0  0  0  0  0  0  0  0  0  0
    0.7966   -0.1391    2.5107 C   0  0  0  0  0  0  0  0  0  0  0  0
    0.4939    1.2207    1.9024 C   0  0  0  0  0  0  0  0  0  0  0  0
    1.5239    2.1015    1.5211 C   0  0  0  0  0  0  0  0  0  0  0  0
    1.1818    3.3475    0.9797 C   0  0  0  0  0  0  0  0  0  0  0  0
   -0.1735    3.6787    0.8486 C   0  0  0  0  0  0  0  0  0  0  0  0
   -1.1277    2.7449    1.2802 C   0  0  0  0  0  0  0  0  0  0  0  0
    0.9634   -3.2076   -0.3678 H   0  0  0  0  0  0  0  0  0  0  0  0
    1.4440   -3.0935    1.3513 H   0  0  0  0  0  0  0  0  0  0  0  0
    3.9208   -2.7713    0.8365 H   0  0  0  0  0  0  0  0  0  0  0  0
    5.6921   -1.2344   -0.0925 H   0  0  0  0  0  0  0  0  0  0  0  0
    4.9709    0.8019   -1.4188 H   0  0  0  0  0  0  0  0  0  0  0  0
    2.4746    1.2186   -1.7397 H   0  0  0  0  0  0  0  0  0  0  0  0
   -1.6251   -3.1864    1.1658 H   0  0  0  0  0  0  0  0  0  0  0  0
   -1.1428   -3.0666   -0.5603 H   0  0  0  0  0  0  0  0  0  0  0  0
   -4.0967   -2.6382    0.9216 H   0  0  0  0  0  0  0  0  0  0  0  0
   -5.8260   -0.9296    0.2438 H   0  0  0  0  0  0  0  0  0  0  0  0
   -5.0716    1.1523   -0.9861 H   0  0  0  0  0  0  0  0  0  0  0  0
   -2.5844    1.4403   -1.4735 H   0  0  0  0  0  0  0  0  0  0  0  0
   -0.1297   -2.0987    2.7865 H   0  0  0  0  0  0  0  0  0  0  0  0
   -1.2160   -0.7750    2.2129 H   0  0  0  0  0  0  0  0  0  0  0  0
    1.8453   -0.4354    2.3095 H   0  0  0  0  0  0  0  0  0  0  0  0
    0.7221   -0.0488    3.6168 H   0  0  0  0  0  0  0  0  0  0  0  0
    2.5779    1.8063    1.6379 H   0  0  0  0  0  0  0  0  0  0  0  0
    1.9644    4.0516    0.6595 H   0  0  0  0  0  0  0  0  0  0  0  0
   -0.4882    4.6416    0.4221 H   0  0  0  0  0  0  0  0  0  0  0  0
   -2.2054    2.9728    1.2034 H   0  0  0  0  0  0  0  0  0  0  0  0
  1  6  1  0  0  0  0
  2 12  1  0  0  0  0
  3 19  1  0  0  0  0
  4 17  1  0  0  0  0
  5  4  1  0  0  0  0
  5 25  1  0  0  0  0
  6  7  1  0  0  0  0
  6  5  1  6  0  0  0
  7 26  1  0  0  0  0
  8 27  1  0  0  0  0
  8  7  2  0  0  0  0
  9  8  1  0  0  0  0
 10  9  2  0  0  0  0
 10  1  1  0  0  0  0
 11  4  1  0  0  0  0
 11 30  1  0  0  0  0
 12 11  1  6  0  0  0
 12 13  1  0  0  0  0
 13 32  1  0  0  0  0
 14 33  1  0  0  0  0
 14 13  2  0  0  0  0
 15 14  1  0  0  0  0
 16 15  2  0  0  0  0
 16  2  1  0  0  0  0
 17 37  1  0  0  0  0
 17 18  1  0  0  0  0
 17 36  1  0  0  0  0
 18 39  1  0  0  0  0
 19 18  1  0  0  0  0
 20 40  1  0  0  0  0
 20 19  2  0  0  0  0
 21 20  1  0  0  0  0
 22 21  2  0  0  0  0
 22 23  1  0  0  0  0
 23  3  2  0  0  0  0
 24  5  1  0  0  0  0
 28  9  1  0  0  0  0
 29 10  1  0  0  0  0
 31 11  1  0  0  0  0
 34 15  1  0  0  0  0
 35 16  1  0  0  0  0
 38 18  1  0  0  0  0
 41 21  1  0  0  0  0
 42 22  1  0  0  0  0
 43 23  1  0  0  0  0
M  END
