1,14,23
 OpenBabel05122313063D

 51 54  0  0  1  0  0  0  0  0999 V2000
   -1.8406   -1.5069   -0.0001 N   0  0  0  0  0  2  0  0  0  0  0  0
   -0.1657   -3.2718   -0.0009 C   0  0  0  0  0  0  0  0  0  0  0  0
    0.3473   -2.8560   -0.8946 H   0  0  0  0  0  0  0  0  0  0  0  0
   -0.0687   -4.3730   -0.0012 H   0  0  0  0  0  0  0  0  0  0  0  0
    0.3477   -2.8564    0.8928 H   0  0  0  0  0  0  0  0  0  0  0  0
   -1.6005   -2.8446   -0.0004 C   0  0  2  0  0  3  0  0  0  0  0  0
   -2.6723   -3.7525   -0.0003 C   0  0  0  0  0  0  0  0  0  0  0  0
   -2.4555   -4.8302   -0.0006 H   0  0  0  0  0  0  0  0  0  0  0  0
   -3.9959   -3.2845    0.0002 C   0  0  0  0  0  0  0  0  0  0  0  0
   -4.8373   -3.9927    0.0002 H   0  0  0  0  0  0  0  0  0  0  0  0
   -4.2307   -1.9070    0.0005 C   0  0  0  0  0  0  0  0  0  0  0  0
   -5.2527   -1.5041    0.0009 H   0  0  0  0  0  0  0  0  0  0  0  0
   -3.1307   -1.0347    0.0004 C   0  0  0  0  0  0  0  0  0  0  0  0
   -1.9322    0.9829    0.0004 N   0  0  0  0  0  2  0  0  0  0  0  0
   -3.1928    0.4251    0.0006 C   0  0  2  0  0  3  0  0  0  0  0  0
   -4.3253    1.2494    0.0010 C   0  0  0  0  0  0  0  0  0  0  0  0
   -5.3268    0.7976    0.0012 H   0  0  0  0  0  0  0  0  0  0  0  0
   -4.1668    2.6452    0.0011 C   0  0  0  0  0  0  0  0  0  0  0  0
   -5.0481    3.3015    0.0014 H   0  0  0  0  0  0  0  0  0  0  0  0
   -2.8759    3.1970    0.0008 C   0  0  0  0  0  0  0  0  0  0  0  0
   -2.7323    4.2862    0.0009 H   0  0  0  0  0  0  0  0  0  0  0  0
   -1.7590    2.3495    0.0005 C   0  0  0  0  0  0  0  0  0  0  0  0
    0.4951    1.6177   -0.0000 N   0  0  0  0  0  2  0  0  0  0  0  0
   -0.3450    2.7142    0.0001 C   0  0  2  0  0  3  0  0  0  0  0  0
    0.1501    4.0286    0.0000 C   0  0  0  0  0  0  0  0  0  0  0  0
   -0.5503    4.8751    0.0001 H   0  0  0  0  0  0  0  0  0  0  0  0
    1.5306    4.2371   -0.0003 C   0  0  0  0  0  0  0  0  0  0  0  0
    1.9431    5.2564   -0.0004 H   0  0  0  0  0  0  0  0  0  0  0  0
    2.3805    3.1187   -0.0004 C   0  0  0  0  0  0  0  0  0  0  0  0
    3.4737    3.2334   -0.0006 H   0  0  0  0  0  0  0  0  0  0  0  0
    1.8463    1.8211   -0.0002 C   0  0  0  0  0  0  0  0  0  0  0  0
    2.7337    0.6188   -0.0001 C   0  0  0  0  0  0  0  0  0  0  0  0
    3.1837    0.0765    1.2322 C   0  0  0  0  0  0  0  0  0  0  0  0
    3.9363   -1.1109    1.2058 C   0  0  0  0  0  0  0  0  0  0  0  0
    4.2643   -1.5479    2.1628 H   0  0  0  0  0  0  0  0  0  0  0  0
    4.2907   -1.7427    0.0002 C   0  0  0  0  0  0  0  0  0  0  0  0
    3.9360   -1.1115   -1.2055 C   0  0  0  0  0  0  0  0  0  0  0  0
    4.2638   -1.5489   -2.1625 H   0  0  0  0  0  0  0  0  0  0  0  0
    3.1834    0.0759   -1.2323 C   0  0  0  0  0  0  0  0  0  0  0  0
    2.9463    0.7998    2.5327 C   0  0  0  0  0  0  0  0  0  0  0  0
    3.2403    0.1731    3.3962 H   0  0  0  0  0  0  0  0  0  0  0  0
    1.8816    1.0727    2.6638 H   0  0  0  0  0  0  0  0  0  0  0  0
    3.5467    1.7344    2.5700 H   0  0  0  0  0  0  0  0  0  0  0  0
    5.0354   -3.0538    0.0005 C   0  0  0  0  0  0  0  0  0  0  0  0
    5.6749   -3.1625   -0.8979 H   0  0  0  0  0  0  0  0  0  0  0  0
    4.3265   -3.9101    0.0007 H   0  0  0  0  0  0  0  0  0  0  0  0
    5.6750   -3.1621    0.8988 H   0  0  0  0  0  0  0  0  0  0  0  0
    2.9459    0.7987   -2.5331 C   0  0  0  0  0  0  0  0  0  0  0  0
    1.8814    1.0726   -2.6638 H   0  0  0  0  0  0  0  0  0  0  0  0
    3.2388    0.1712   -3.3964 H   0  0  0  0  0  0  0  0  0  0  0  0
    3.5471    1.7327   -2.5713 H   0  0  0  0  0  0  0  0  0  0  0  0
  1 13  1  0  0  0  0
  2  5  1  0  0  0  0
  3  2  1  0  0  0  0
  4  2  1  0  0  0  0
  6  2  1  6  0  0  0
  6  7  1  0  0  0  0
  6  1  1  0  0  0  0
  7  9  2  0  0  0  0
  8  7  1  0  0  0  0
  9 10  1  0  0  0  0
  9 11  1  0  0  0  0
 11 12  1  0  0  0  0
 13 11  2  0  0  0  0
 14 22  1  0  0  0  0
 14 15  1  0  0  0  0
 15 13  1  1  0  0  0
 15 16  1  0  0  0  0
 16 18  2  0  0  0  0
 16 17  1  0  0  0  0
 18 19  1  0  0  0  0
 20 21  1  0  0  0  0
 20 18  1  0  0  0  0
 22 20  2  0  0  0  0
 23 24  1  0  0  0  0
 24 22  1  1  0  0  0
 25 24  1  0  0  0  0
 25 26  1  0  0  0  0
 27 25  2  0  0  0  0
 28 27  1  0  0  0  0
 29 27  1  0  0  0  0
 29 31  2  0  0  0  0
 30 29  1  0  0  0  0
 31 32  1  0  0  0  0
 31 23  1  0  0  0  0
 32 33  1  0  0  0  0
 33 40  1  0  0  0  0
 34 33  2  0  0  0  0
 34 35  1  0  0  0  0
 36 44  1  0  0  0  0
 36 34  1  0  0  0  0
 37 36  2  0  0  0  0
 38 37  1  0  0  0  0
 39 37  1  0  0  0  0
 39 32  2  0  0  0  0
 40 43  1  0  0  0  0
 40 42  1  0  0  0  0
 40 41  1  0  0  0  0
 44 46  1  0  0  0  0
 44 47  1  0  0  0  0
 45 44  1  0  0  0  0
 48 39  1  0  0  0  0
 49 48  1  0  0  0  0
 50 48  1  0  0  0  0
 51 48  1  0  0  0  0
M  END
