3,5,7
 OpenBabel05122313063D

 73 78  0  0  1  0  0  0  0  0999 V2000
   -3.0673    0.0125    1.3630 P   0  0  2  0  0  0  0  0  0  0  0  0
   -3.4847   -2.4081   -0.0874 N   0  0  0  0  0  0  0  0  0  0  0  0
   -1.4401   -1.5698   -0.3155 N   0  0  0  0  0  2  0  0  0  0  0  0
   -3.4688    2.4300   -0.0972 N   0  0  0  0  0  0  0  0  0  0  0  0
   -1.4300    1.5770   -0.3225 N   0  0  0  0  0  2  0  0  0  0  0  0
   -1.5700    0.0132    3.7584 N   0  0  0  0  0  0  0  0  0  0  0  0
   -0.2646    0.0052    1.9555 N   0  0  0  0  0  2  0  0  0  0  0  0
   -2.6423   -1.3831    0.2560 C   0  0  2  0  0  3  0  0  0  0  0  0
   -2.7803   -3.2698   -0.8985 C   0  0  0  0  0  0  0  0  0  0  0  0
   -3.2216   -4.1954   -1.2807 H   0  0  0  0  0  0  0  0  0  0  0  0
   -1.4914   -2.7502   -1.0367 C   0  0  0  0  0  0  0  0  0  0  0  0
   -4.8716   -2.5869    0.3209 C   0  0  0  0  0  0  0  0  0  0  0  0
   -4.9995   -3.5706    0.8122 H   0  0  0  0  0  0  0  0  0  0  0  0
   -5.5419   -2.5322   -0.5590 H   0  0  0  0  0  0  0  0  0  0  0  0
   -5.1453   -1.7890    1.0350 H   0  0  0  0  0  0  0  0  0  0  0  0
   -0.3535   -3.3364   -1.7510 C   0  0  0  0  0  0  0  0  0  0  0  0
    0.9566   -3.2258   -1.2401 C   0  0  0  0  0  0  0  0  0  0  0  0
    1.1372   -2.6794   -0.3042 H   0  0  0  0  0  0  0  0  0  0  0  0
    2.0301   -3.8191   -1.9099 C   0  0  0  0  0  0  0  0  0  0  0  0
    3.0444   -3.7153   -1.4949 H   0  0  0  0  0  0  0  0  0  0  0  0
    1.8392   -4.5425   -3.1052 C   0  0  0  0  0  0  0  0  0  0  0  0
    0.5239   -4.6590   -3.6042 C   0  0  0  0  0  0  0  0  0  0  0  0
    0.3474   -5.2177   -4.5363 H   0  0  0  0  0  0  0  0  0  0  0  0
   -0.5563   -4.0669   -2.9428 C   0  0  0  0  0  0  0  0  0  0  0  0
   -1.5684   -4.1510   -3.3678 H   0  0  0  0  0  0  0  0  0  0  0  0
    3.0058   -5.1442   -3.8427 C   0  0  0  0  0  0  0  0  0  0  0  0
    3.4435   -4.4061   -4.5490 H   0  0  0  0  0  0  0  0  0  0  0  0
    2.7040   -6.0271   -4.4389 H   0  0  0  0  0  0  0  0  0  0  0  0
    3.8144   -5.4487   -3.1500 H   0  0  0  0  0  0  0  0  0  0  0  0
   -2.6332    1.4008    0.2502 C   0  0  1  0  0  3  0  0  0  0  0  0
   -2.7589    3.2835   -0.9120 C   0  0  0  0  0  0  0  0  0  0  0  0
   -3.1941    4.2105   -1.2979 H   0  0  0  0  0  0  0  0  0  0  0  0
   -1.4735    2.7547   -1.0486 C   0  0  0  0  0  0  0  0  0  0  0  0
   -4.8542    2.6199    0.3109 C   0  0  0  0  0  0  0  0  0  0  0  0
   -5.5252    2.5665   -0.5686 H   0  0  0  0  0  0  0  0  0  0  0  0
   -4.9752    3.6063    0.7985 H   0  0  0  0  0  0  0  0  0  0  0  0
   -5.1332    1.8266    1.0280 H   0  0  0  0  0  0  0  0  0  0  0  0
   -0.3321    3.3302   -1.7659 C   0  0  0  0  0  0  0  0  0  0  0  0
   -0.5305    4.0574   -2.9604 C   0  0  0  0  0  0  0  0  0  0  0  0
   -1.5423    4.1470   -3.3850 H   0  0  0  0  0  0  0  0  0  0  0  0
    0.5534    4.6392   -3.6248 C   0  0  0  0  0  0  0  0  0  0  0  0
    0.3801    5.1955   -4.5591 H   0  0  0  0  0  0  0  0  0  0  0  0
    1.8682    4.5153   -3.1263 C   0  0  0  0  0  0  0  0  0  0  0  0
    2.0548    3.7954   -1.9283 C   0  0  0  0  0  0  0  0  0  0  0  0
    3.0686    3.6860   -1.5136 H   0  0  0  0  0  0  0  0  0  0  0  0
    0.9776    3.2123   -1.2554 C   0  0  0  0  0  0  0  0  0  0  0  0
    1.1551    2.6682   -0.3175 H   0  0  0  0  0  0  0  0  0  0  0  0
    3.0384    5.1058   -3.8670 C   0  0  0  0  0  0  0  0  0  0  0  0
    3.8493    5.4082   -3.1760 H   0  0  0  0  0  0  0  0  0  0  0  0
    2.7424    5.9879   -4.4673 H   0  0  0  0  0  0  0  0  0  0  0  0
    3.4711    4.3615   -4.5699 H   0  0  0  0  0  0  0  0  0  0  0  0
   -1.5434    0.0098    2.3873 C   0  0  2  0  0  3  0  0  0  0  0  0
   -0.2705    0.0104    4.2002 C   0  0  0  0  0  0  0  0  0  0  0  0
   -0.0335    0.0118    5.2677 H   0  0  0  0  0  0  0  0  0  0  0  0
    0.5577    0.0055    3.0733 C   0  0  0  0  0  0  0  0  0  0  0  0
   -2.7398    0.0183    4.6273 C   0  0  0  0  0  0  0  0  0  0  0  0
   -2.7343    0.9213    5.2679 H   0  0  0  0  0  0  0  0  0  0  0  0
   -2.7402   -0.8828    5.2707 H   0  0  0  0  0  0  0  0  0  0  0  0
   -3.6543    0.0204    4.0072 H   0  0  0  0  0  0  0  0  0  0  0  0
    2.0259    0.0015    3.0597 C   0  0  0  0  0  0  0  0  0  0  0  0
    2.7441    0.0077    4.2808 C   0  0  0  0  0  0  0  0  0  0  0  0
    2.2102    0.0161    5.2426 H   0  0  0  0  0  0  0  0  0  0  0  0
    4.1398    0.0037    4.2921 C   0  0  0  0  0  0  0  0  0  0  0  0
    4.6699    0.0088    5.2573 H   0  0  0  0  0  0  0  0  0  0  0  0
    4.8849   -0.0064    3.0910 C   0  0  0  0  0  0  0  0  0  0  0  0
    4.1653   -0.0122    1.8810 C   0  0  0  0  0  0  0  0  0  0  0  0
    4.7059   -0.0197    0.9217 H   0  0  0  0  0  0  0  0  0  0  0  0
    2.7655   -0.0084    1.8606 C   0  0  0  0  0  0  0  0  0  0  0  0
    2.2680   -0.0131    0.8811 H   0  0  0  0  0  0  0  0  0  0  0  0
    6.3897   -0.0110    3.1185 C   0  0  0  0  0  0  0  0  0  0  0  0
    6.8186   -0.0136    2.0987 H   0  0  0  0  0  0  0  0  0  0  0  0
    6.7772   -0.9018    3.6554 H   0  0  0  0  0  0  0  0  0  0  0  0
    6.7830    0.8783    3.6536 H   0  0  0  0  0  0  0  0  0  0  0  0
  2  8  1  0  0  0  0
  2 12  1  0  0  0  0
  3  8  1  0  0  0  0
  4 30  1  0  0  0  0
  4 34  1  0  0  0  0
  5 30  1  0  0  0  0
  6 53  1  0  0  0  0
  6 56  1  0  0  0  0
  7 52  1  0  0  0  0
  7 55  1  0  0  0  0
  8  1  1  1  0  0  0
  9  2  1  0  0  0  0
 10  9  1  0  0  0  0
 11  9  2  0  0  0  0
 11  3  1  0  0  0  0
 12 13  1  0  0  0  0
 12 15  1  0  0  0  0
 14 12  1  0  0  0  0
 16 17  1  0  0  0  0
 16 11  1  0  0  0  0
 17 18  1  0  0  0  0
 19 20  1  0  0  0  0
 19 17  2  0  0  0  0
 21 19  1  0  0  0  0
 22 21  2  0  0  0  0
 22 24  1  0  0  0  0
 23 22  1  0  0  0  0
 24 16  2  0  0  0  0
 25 24  1  0  0  0  0
 26 29  1  0  0  0  0
 26 21  1  0  0  0  0
 27 26  1  0  0  0  0
 28 26  1  0  0  0  0
 30  1  1  1  0  0  0
 31  4  1  0  0  0  0
 32 31  1  0  0  0  0
 33 31  2  0  0  0  0
 33  5  1  0  0  0  0
 34 36  1  0  0  0  0
 34 37  1  0  0  0  0
 35 34  1  0  0  0  0
 38 46  1  0  0  0  0
 38 33  1  0  0  0  0
 39 38  2  0  0  0  0
 40 39  1  0  0  0  0
 41 43  2  0  0  0  0
 41 39  1  0  0  0  0
 42 41  1  0  0  0  0
 43 44  1  0  0  0  0
 44 45  1  0  0  0  0
 44 46  2  0  0  0  0
 46 47  1  0  0  0  0
 48 49  1  0  0  0  0
 48 43  1  0  0  0  0
 50 48  1  0  0  0  0
 51 48  1  0  0  0  0
 52  1  1  6  0  0  0
 52  6  1  0  0  0  0
 53 54  1  0  0  0  0
 55 53  2  0  0  0  0
 56 57  1  0  0  0  0
 56 58  1  0  0  0  0
 59 56  1  0  0  0  0
 60 55  1  0  0  0  0
 60 61  1  0  0  0  0
 61 63  2  0  0  0  0
 61 62  1  0  0  0  0
 63 64  1  0  0  0  0
 65 70  1  0  0  0  0
 65 63  1  0  0  0  0
 66 65  2  0  0  0  0
 67 66  1  0  0  0  0
 68 66  1  0  0  0  0
 68 60  2  0  0  0  0
 69 68  1  0  0  0  0
 70 73  1  0  0  0  0
 70 72  1  0  0  0  0
 71 70  1  0  0  0  0
M  END
