1,2,5
 OpenBabel05122313063D

 50 54  0  0  1  0  0  0  0  0999 V2000
    0.2389    1.5535    0.0009 N   0  0  0  0  0  2  0  0  0  0  0  0
    2.1915    0.0195    0.0823 N   0  0  0  0  0  2  0  0  0  0  0  0
    3.8472    1.5190    0.2169 N   0  0  0  0  0  0  0  0  0  0  0  0
    4.3229    2.4179    0.2716 H   0  0  0  0  0  0  0  0  0  0  0  0
   -1.6671   -0.0788   -0.1330 N   0  0  0  0  0  2  0  0  0  0  0  0
    1.3843    2.2614    0.1305 C   0  0  0  0  0  0  0  0  0  0  0  0
   -0.9628    2.1418   -0.1163 C   0  0  0  0  0  0  0  0  0  0  0  0
   -1.1074    3.5429   -0.1138 C   0  0  0  0  0  0  0  0  0  0  0  0
   -2.0487    1.1757   -0.1932 C   0  0  1  0  0  3  0  0  0  0  0  0
    2.4914    1.3264    0.1775 C   0  0  0  0  0  0  0  0  0  0  0  0
    0.0744    4.2992    0.0269 C   0  0  0  0  0  0  0  0  0  0  0  0
    0.0175    5.3981    0.0469 H   0  0  0  0  0  0  0  0  0  0  0  0
   -3.4462    1.7100   -0.3326 C   0  0  0  0  0  0  0  0  0  0  0  0
   -4.1763    1.0038    0.1077 H   0  0  0  0  0  0  0  0  0  0  0  0
   -3.6771    1.7503   -1.4225 H   0  0  0  0  0  0  0  0  0  0  0  0
    4.4536    0.2716    0.1348 C   0  0  0  0  0  0  0  0  0  0  0  0
    3.3843   -0.6737    0.0438 C   0  0  0  0  0  0  0  0  0  0  0  0
    5.7992   -0.1260    0.1296 C   0  0  0  0  0  0  0  0  0  0  0  0
    6.6201    0.6020    0.2013 H   0  0  0  0  0  0  0  0  0  0  0  0
    1.3265    3.6680    0.1486 C   0  0  0  0  0  0  0  0  0  0  0  0
    2.2421    4.2665    0.2587 H   0  0  0  0  0  0  0  0  0  0  0  0
   -2.6449   -1.1197   -0.0224 C   0  0  0  0  0  0  0  0  0  0  0  0
   -3.5616    3.1171    0.2839 C   0  0  0  0  0  0  0  0  0  0  0  0
   -4.5762    3.5206    0.0969 H   0  0  0  0  0  0  0  0  0  0  0  0
   -3.4485    3.0354    1.3864 H   0  0  0  0  0  0  0  0  0  0  0  0
   -3.2286   -1.3399    1.2536 C   0  0  0  0  0  0  0  0  0  0  0  0
   -3.0042   -1.8842   -1.1596 C   0  0  0  0  0  0  0  0  0  0  0  0
   -2.5033    4.0975   -0.2563 C   0  0  0  0  0  0  0  0  0  0  0  0
   -2.6991    4.2962   -1.3354 H   0  0  0  0  0  0  0  0  0  0  0  0
   -2.5799    5.0796    0.2536 H   0  0  0  0  0  0  0  0  0  0  0  0
    6.0454   -1.5001    0.0224 C   0  0  0  0  0  0  0  0  0  0  0  0
    7.0863   -1.8564    0.0112 H   0  0  0  0  0  0  0  0  0  0  0  0
    3.6486   -2.0521   -0.0682 C   0  0  0  0  0  0  0  0  0  0  0  0
    2.8013   -2.7493   -0.1492 H   0  0  0  0  0  0  0  0  0  0  0  0
   -4.1833   -2.3664    1.3696 C   0  0  0  0  0  0  0  0  0  0  0  0
   -4.6350   -2.5572    2.3557 H   0  0  0  0  0  0  0  0  0  0  0  0
   -3.9739   -2.8902   -0.9867 C   0  0  0  0  0  0  0  0  0  0  0  0
   -4.2641   -3.4930   -1.8612 H   0  0  0  0  0  0  0  0  0  0  0  0
    4.9895   -2.4426   -0.0771 C   0  0  0  0  0  0  0  0  0  0  0  0
    5.2369   -3.5108   -0.1659 H   0  0  0  0  0  0  0  0  0  0  0  0
   -2.3672   -1.6565   -2.4988 C   0  0  0  0  0  0  0  0  0  0  0  0
   -2.2986   -0.5826   -2.7627 H   0  0  0  0  0  0  0  0  0  0  0  0
   -2.9181   -2.1928   -3.2949 H   0  0  0  0  0  0  0  0  0  0  0  0
   -1.3142   -2.0068   -2.4785 H   0  0  0  0  0  0  0  0  0  0  0  0
   -4.5552   -3.1388    0.2621 C   0  0  0  0  0  0  0  0  0  0  0  0
   -5.3014   -3.9401    0.3736 H   0  0  0  0  0  0  0  0  0  0  0  0
   -2.8446   -0.4963    2.4409 C   0  0  0  0  0  0  0  0  0  0  0  0
   -1.7459   -0.3170    2.4462 H   0  0  0  0  0  0  0  0  0  0  0  0
   -3.1527   -0.9854    3.3848 H   0  0  0  0  0  0  0  0  0  0  0  0
   -3.3460    0.4975    2.4125 H   0  0  0  0  0  0  0  0  0  0  0  0
  1  6  1  0  0  0  0
  2 10  1  0  0  0  0
  3  4  1  0  0  0  0
  5 22  1  0  0  0  0
  6 20  1  0  0  0  0
  6 10  2  0  0  0  0
  7  8  2  0  0  0  0
  7  1  1  0  0  0  0
  8 11  1  0  0  0  0
  9  5  1  6  0  0  0
  9  7  1  0  0  0  0
 10  3  1  0  0  0  0
 11 12  1  0  0  0  0
 11 20  2  0  0  0  0
 13  9  1  0  0  0  0
 13 14  1  0  0  0  0
 13 23  1  0  0  0  0
 15 13  1  0  0  0  0
 16  3  1  0  0  0  0
 17  2  1  0  0  0  0
 17 16  2  0  0  0  0
 18 16  1  0  0  0  0
 18 19  1  0  0  0  0
 20 21  1  0  0  0  0
 22 26  1  0  0  0  0
 23 25  1  0  0  0  0
 24 23  1  0  0  0  0
 26 35  2  0  0  0  0
 26 47  1  0  0  0  0
 27 37  1  0  0  0  0
 27 22  2  0  0  0  0
 28  8  1  0  0  0  0
 28 30  1  0  0  0  0
 28 23  1  0  0  0  0
 29 28  1  0  0  0  0
 31 18  2  0  0  0  0
 32 31  1  0  0  0  0
 33 17  1  0  0  0  0
 34 33  1  0  0  0  0
 35 36  1  0  0  0  0
 37 45  2  0  0  0  0
 38 37  1  0  0  0  0
 39 33  2  0  0  0  0
 39 31  1  0  0  0  0
 40 39  1  0  0  0  0
 41 44  1  0  0  0  0
 41 27  1  0  0  0  0
 42 41  1  0  0  0  0
 43 41  1  0  0  0  0
 45 46  1  0  0  0  0
 45 35  1  0  0  0  0
 47 48  1  0  0  0  0
 47 49  1  0  0  0  0
 50 47  1  0  0  0  0
M  END
