1,2,5
 OpenBabel05122313063D

 53 57  0  0  1  0  0  0  0  0999 V2000
   -0.6771    1.6022   -0.0273 N   0  0  0  0  0  2  0  0  0  0  0  0
    1.4936    0.3260    0.0708 N   0  0  0  0  0  2  0  0  0  0  0  0
   -4.2261    0.9379   -0.1905 N   0  0  0  0  0  0  0  0  0  0  0  0
   -4.8498    1.7384   -0.2777 H   0  0  0  0  0  0  0  0  0  0  0  0
   -2.3363   -0.2453   -0.0045 N   0  0  0  0  0  2  0  0  0  0  0  0
   -2.8632    0.9896   -0.0632 C   0  0  1  0  0  3  0  0  0  0  0  0
    0.3062    3.7960    0.0367 C   0  0  0  0  0  0  0  0  0  0  0  0
    0.4085    2.3897    0.0251 C   0  0  0  0  0  0  0  0  0  0  0  0
   -1.9342    2.1021   -0.0454 C   0  0  0  0  0  0  0  0  0  0  0  0
    2.6253   -0.5401   -0.0168 C   0  0  0  0  0  0  0  0  0  0  0  0
    1.6495    1.6303    0.0605 C   0  0  0  0  0  0  0  0  0  0  0  0
   -3.3794   -1.1431   -0.1119 C   0  0  0  0  0  0  0  0  0  0  0  0
   -0.9949    4.3355   -0.0055 C   0  0  0  0  0  0  0  0  0  0  0  0
   -1.1314    5.4276    0.0070 H   0  0  0  0  0  0  0  0  0  0  0  0
   -4.5962   -0.4009   -0.2277 C   0  0  0  0  0  0  0  0  0  0  0  0
    2.9349    2.4060    0.0823 C   0  0  0  0  0  0  0  0  0  0  0  0
    3.2804    2.5464   -0.9671 H   0  0  0  0  0  0  0  0  0  0  0  0
    3.7230    1.8121    0.5869 H   0  0  0  0  0  0  0  0  0  0  0  0
    3.0105   -1.2829    1.1284 C   0  0  0  0  0  0  0  0  0  0  0  0
    2.7255    3.7794    0.7491 C   0  0  0  0  0  0  0  0  0  0  0  0
    2.4894    3.6281    1.8240 H   0  0  0  0  0  0  0  0  0  0  0  0
    3.6697    4.3576    0.7074 H   0  0  0  0  0  0  0  0  0  0  0  0
   -2.1246    3.4967   -0.0464 C   0  0  0  0  0  0  0  0  0  0  0  0
   -3.1365    3.9260   -0.0610 H   0  0  0  0  0  0  0  0  0  0  0  0
   -5.8431   -1.0329   -0.3485 C   0  0  0  0  0  0  0  0  0  0  0  0
   -6.7780   -0.4608   -0.4367 H   0  0  0  0  0  0  0  0  0  0  0  0
   -3.3892   -2.5505   -0.1254 C   0  0  0  0  0  0  0  0  0  0  0  0
   -2.4320   -3.0867   -0.0421 H   0  0  0  0  0  0  0  0  0  0  0  0
    4.7964   -2.3381   -0.1971 C   0  0  0  0  0  0  0  0  0  0  0  0
    3.3241   -0.6633   -1.2491 C   0  0  0  0  0  0  0  0  0  0  0  0
    4.0983   -2.1633    1.0094 C   0  0  0  0  0  0  0  0  0  0  0  0
    4.4031   -2.7370    1.9000 H   0  0  0  0  0  0  0  0  0  0  0  0
    1.5898    4.5878    0.0953 C   0  0  0  0  0  0  0  0  0  0  0  0
    1.4251    5.5429    0.6349 H   0  0  0  0  0  0  0  0  0  0  0  0
    1.8840    4.8698   -0.9423 H   0  0  0  0  0  0  0  0  0  0  0  0
   -5.8367   -2.4329   -0.3568 C   0  0  0  0  0  0  0  0  0  0  0  0
   -6.7920   -2.9702   -0.4529 H   0  0  0  0  0  0  0  0  0  0  0  0
    4.3955   -1.5715   -1.3051 C   0  0  0  0  0  0  0  0  0  0  0  0
    4.9295   -1.6872   -2.2624 H   0  0  0  0  0  0  0  0  0  0  0  0
   -4.6323   -3.1751   -0.2490 C   0  0  0  0  0  0  0  0  0  0  0  0
   -4.6816   -4.2740   -0.2665 H   0  0  0  0  0  0  0  0  0  0  0  0
    2.3400   -1.0822    2.4603 C   0  0  0  0  0  0  0  0  0  0  0  0
    1.3521   -0.5857    2.3601 H   0  0  0  0  0  0  0  0  0  0  0  0
    2.9830   -0.4593    3.1213 H   0  0  0  0  0  0  0  0  0  0  0  0
    2.1941   -2.0548    2.9696 H   0  0  0  0  0  0  0  0  0  0  0  0
    2.9595    0.1316   -2.4766 C   0  0  0  0  0  0  0  0  0  0  0  0
    1.8684    0.3200   -2.5347 H   0  0  0  0  0  0  0  0  0  0  0  0
    3.2577   -0.4169   -3.3907 H   0  0  0  0  0  0  0  0  0  0  0  0
    3.4973    1.1057   -2.5024 H   0  0  0  0  0  0  0  0  0  0  0  0
    5.9160   -3.3413   -0.3106 C   0  0  0  0  0  0  0  0  0  0  0  0
    6.4491   -3.4708    0.6522 H   0  0  0  0  0  0  0  0  0  0  0  0
    6.6556   -3.0460   -1.0812 H   0  0  0  0  0  0  0  0  0  0  0  0
    5.5227   -4.3395   -0.6015 H   0  0  0  0  0  0  0  0  0  0  0  0
  1  8  1  0  0  0  0
  3  6  1  0  0  0  0
  4  3  1  0  0  0  0
  6  9  1  6  0  0  0
  6  5  1  0  0  0  0
  7 33  1  0  0  0  0
  8  7  1  0  0  0  0
  8 11  2  0  0  0  0
  9  1  1  0  0  0  0
 10  2  1  0  0  0  0
 10 19  1  0  0  0  0
 11  2  1  0  0  0  0
 11 16  1  0  0  0  0
 12  5  1  0  0  0  0
 13 14  1  0  0  0  0
 13  7  2  0  0  0  0
 15  3  1  0  0  0  0
 15 12  2  0  0  0  0
 16 18  1  0  0  0  0
 16 20  1  0  0  0  0
 17 16  1  0  0  0  0
 19 42  1  0  0  0  0
 20 21  1  0  0  0  0
 22 20  1  0  0  0  0
 23  9  2  0  0  0  0
 23 13  1  0  0  0  0
 24 23  1  0  0  0  0
 25 15  1  0  0  0  0
 26 25  1  0  0  0  0
 27 12  1  0  0  0  0
 27 28  1  0  0  0  0
 29 31  1  0  0  0  0
 30 10  2  0  0  0  0
 31 19  2  0  0  0  0
 31 32  1  0  0  0  0
 33 34  1  0  0  0  0
 33 20  1  0  0  0  0
 35 33  1  0  0  0  0
 36 25  2  0  0  0  0
 36 40  1  0  0  0  0
 37 36  1  0  0  0  0
 38 30  1  0  0  0  0
 38 29  2  0  0  0  0
 39 38  1  0  0  0  0
 40 27  2  0  0  0  0
 41 40  1  0  0  0  0
 42 45  1  0  0  0  0
 42 44  1  0  0  0  0
 43 42  1  0  0  0  0
 46 30  1  0  0  0  0
 47 46  1  0  0  0  0
 48 46  1  0  0  0  0
 49 46  1  0  0  0  0
 50 29  1  0  0  0  0
 50 51  1  0  0  0  0
 52 50  1  0  0  0  0
 53 50  1  0  0  0  0
M  END
