2,3,4
 OpenBabel05122313063D

 81 86  0  0  1  0  0  0  0  0999 V2000
   -5.5582   -0.2437   -0.2069 B   0  0  0  0  0  0  0  0  0  0  0  0
    4.5104   -0.1474   -0.2863 N   0  0  0  0  0  2  0  0  0  0  0  0
    5.4123    2.1958    0.4096 N   0  0  0  0  0  2  0  0  0  0  0  0
    6.5895   -1.7064   -0.4660 N   0  0  0  0  0  2  0  0  0  0  0  0
   -6.9413   -0.6717    0.4108 C   0  0  0  0  0  0  0  0  0  0  0  0
   -7.0061   -1.4298    1.6181 C   0  0  0  0  0  0  0  0  0  0  0  0
   -8.2564   -1.7875    2.1542 C   0  0  0  0  0  0  0  0  0  0  0  0
   -8.2882   -2.3470    3.1039 H   0  0  0  0  0  0  0  0  0  0  0  0
   -9.4642   -1.4491    1.5209 C   0  0  0  0  0  0  0  0  0  0  0  0
   -9.3921   -0.7042    0.3295 C   0  0  0  0  0  0  0  0  0  0  0  0
  -10.3263   -0.4196   -0.1825 H   0  0  0  0  0  0  0  0  0  0  0  0
   -8.1658   -0.2969   -0.2227 C   0  0  0  0  0  0  0  0  0  0  0  0
   -5.7641   -1.8332    2.3854 C   0  0  0  0  0  0  0  0  0  0  0  0
   -6.0052   -2.0337    3.4476 H   0  0  0  0  0  0  0  0  0  0  0  0
   -4.9733   -1.0583    2.3579 H   0  0  0  0  0  0  0  0  0  0  0  0
   -5.3080   -2.7549    1.9688 H   0  0  0  0  0  0  0  0  0  0  0  0
  -10.7930   -1.8825    2.0846 C   0  0  0  0  0  0  0  0  0  0  0  0
  -11.1639   -2.7950    1.5693 H   0  0  0  0  0  0  0  0  0  0  0  0
  -11.5679   -1.1012    1.9502 H   0  0  0  0  0  0  0  0  0  0  0  0
  -10.7227   -2.1207    3.1639 H   0  0  0  0  0  0  0  0  0  0  0  0
   -8.1859    0.5330   -1.4871 C   0  0  0  0  0  0  0  0  0  0  0  0
   -7.5231    0.1191   -2.2734 H   0  0  0  0  0  0  0  0  0  0  0  0
   -7.8331    1.5671   -1.2975 H   0  0  0  0  0  0  0  0  0  0  0  0
   -9.2086    0.5922   -1.9069 H   0  0  0  0  0  0  0  0  0  0  0  0
   -5.2299    1.2481   -0.5903 C   0  0  0  0  0  0  0  0  0  0  0  0
   -4.7393    1.5851   -1.8863 C   0  0  0  0  0  0  0  0  0  0  0  0
   -4.4560    2.9274   -2.2017 C   0  0  0  0  0  0  0  0  0  0  0  0
   -4.1032    3.1733   -3.2171 H   0  0  0  0  0  0  0  0  0  0  0  0
   -4.6138    3.9623   -1.2659 C   0  0  0  0  0  0  0  0  0  0  0  0
   -5.0945    3.6216    0.0125 C   0  0  0  0  0  0  0  0  0  0  0  0
   -5.2305    4.4168    0.7643 H   0  0  0  0  0  0  0  0  0  0  0  0
   -5.4205    2.3001    0.3589 C   0  0  0  0  0  0  0  0  0  0  0  0
   -4.5454    0.5483   -2.9733 C   0  0  0  0  0  0  0  0  0  0  0  0
   -4.6111    1.0135   -3.9764 H   0  0  0  0  0  0  0  0  0  0  0  0
   -5.2939   -0.2663   -2.9272 H   0  0  0  0  0  0  0  0  0  0  0  0
   -3.5511    0.0607   -2.8991 H   0  0  0  0  0  0  0  0  0  0  0  0
   -4.2904    5.3936   -1.6105 C   0  0  0  0  0  0  0  0  0  0  0  0
   -3.4868    5.7926   -0.9563 H   0  0  0  0  0  0  0  0  0  0  0  0
   -5.1723    6.0521   -1.4659 H   0  0  0  0  0  0  0  0  0  0  0  0
   -3.9560    5.4977   -2.6607 H   0  0  0  0  0  0  0  0  0  0  0  0
   -5.9629    2.0318    1.7451 C   0  0  0  0  0  0  0  0  0  0  0  0
   -5.4057    1.2278    2.2667 H   0  0  0  0  0  0  0  0  0  0  0  0
   -7.0207    1.7016    1.7081 H   0  0  0  0  0  0  0  0  0  0  0  0
   -5.9092    2.9404    2.3752 H   0  0  0  0  0  0  0  0  0  0  0  0
   -4.4604   -1.3470   -0.4503 C   0  0  0  0  0  0  0  0  0  0  0  0
   -3.0892   -1.0214   -0.4019 C   0  0  0  0  0  0  0  0  0  0  0  0
   -2.7866    0.0173   -0.1982 H   0  0  0  0  0  0  0  0  0  0  0  0
   -2.0850   -2.0000   -0.6065 C   0  0  0  0  0  0  0  0  0  0  0  0
   -2.4766   -3.3341   -0.8953 C   0  0  0  0  0  0  0  0  0  0  0  0
   -1.7017   -4.0957   -1.0653 H   0  0  0  0  0  0  0  0  0  0  0  0
   -3.8343   -3.6683   -0.9610 C   0  0  0  0  0  0  0  0  0  0  0  0
   -4.1290   -4.7042   -1.1880 H   0  0  0  0  0  0  0  0  0  0  0  0
   -4.8135   -2.6912   -0.7268 C   0  0  0  0  0  0  0  0  0  0  0  0
   -5.8804   -2.9641   -0.7600 H   0  0  0  0  0  0  0  0  0  0  0  0
   -0.7090   -1.6426   -0.5385 C   0  0  0  0  0  0  0  0  0  0  0  0
    0.4775   -1.3152   -0.4792 C   0  0  0  0  0  0  0  0  0  0  0  0
    1.8413   -0.9245   -0.4099 C   0  0  0  0  0  0  0  0  0  0  0  0
    2.1947    0.4173   -0.1147 C   0  0  0  0  0  0  0  0  0  0  0  0
    1.4020    1.1526    0.0742 H   0  0  0  0  0  0  0  0  0  0  0  0
    3.5523    0.7640   -0.0553 C   0  0  0  0  0  0  0  0  0  0  0  0
    4.2139   -1.4305   -0.5461 C   0  0  0  0  0  0  0  0  0  0  0  0
    2.8822   -1.8638   -0.6245 C   0  0  0  0  0  0  0  0  0  0  0  0
    2.6274   -2.9108   -0.8336 H   0  0  0  0  0  0  0  0  0  0  0  0
    4.0713    2.1236    0.2706 C   0  0  0  0  0  0  0  0  0  0  0  0
    3.2631    3.2651    0.4178 C   0  0  0  0  0  0  0  0  0  0  0  0
    2.1727    3.2042    0.2954 H   0  0  0  0  0  0  0  0  0  0  0  0
    3.8769    4.4904    0.7138 C   0  0  0  0  0  0  0  0  0  0  0  0
    3.2660    5.3975    0.8352 H   0  0  0  0  0  0  0  0  0  0  0  0
    5.2720    4.5470    0.8464 C   0  0  0  0  0  0  0  0  0  0  0  0
    5.7870    5.4915    1.0730 H   0  0  0  0  0  0  0  0  0  0  0  0
    6.0071    3.3628    0.6817 C   0  0  0  0  0  0  0  0  0  0  0  0
    7.1081    3.3158    0.7572 H   0  0  0  0  0  0  0  0  0  0  0  0
    5.4077   -2.3072   -0.7213 C   0  0  1  0  0  3  0  0  0  0  0  0
    5.3497   -3.6519   -1.1292 C   0  0  0  0  0  0  0  0  0  0  0  0
    4.3866   -4.1352   -1.3446 H   0  0  0  0  0  0  0  0  0  0  0  0
    6.5486   -4.3655   -1.2678 C   0  0  0  0  0  0  0  0  0  0  0  0
    6.5293   -5.4192   -1.5842 H   0  0  0  0  0  0  0  0  0  0  0  0
    7.7668   -3.7217   -1.0057 C   0  0  0  0  0  0  0  0  0  0  0  0
    8.7260   -4.2490   -1.1090 H   0  0  0  0  0  0  0  0  0  0  0  0
    7.7388   -2.3767   -0.6056 C   0  0  0  0  0  0  0  0  0  0  0  0
    8.6482   -1.7882   -0.3893 H   0  0  0  0  0  0  0  0  0  0  0  0
  1  5  1  0  0  0  0
  2 60  1  0  0  0  0
  3 71  1  0  0  0  0
  5  6  1  0  0  0  0
  6  7  2  0  0  0  0
  6 13  1  0  0  0  0
  7  8  1  0  0  0  0
  9 17  1  0  0  0  0
  9  7  1  0  0  0  0
 10  9  2  0  0  0  0
 11 10  1  0  0  0  0
 12 10  1  0  0  0  0
 12  5  2  0  0  0  0
 13 14  1  0  0  0  0
 15 13  1  0  0  0  0
 16 13  1  0  0  0  0
 17 20  1  0  0  0  0
 18 17  1  0  0  0  0
 19 17  1  0  0  0  0
 21 23  1  0  0  0  0
 21 12  1  0  0  0  0
 22 21  1  0  0  0  0
 24 21  1  0  0  0  0
 25  1  1  0  0  0  0
 25 32  1  0  0  0  0
 26 25  2  0  0  0  0
 27 26  1  0  0  0  0
 27 29  2  0  0  0  0
 28 27  1  0  0  0  0
 29 30  1  0  0  0  0
 30 32  2  0  0  0  0
 30 31  1  0  0  0  0
 32 41  1  0  0  0  0
 33 35  1  0  0  0  0
 33 36  1  0  0  0  0
 33 26  1  0  0  0  0
 34 33  1  0  0  0  0
 37 39  1  0  0  0  0
 37 29  1  0  0  0  0
 37 38  1  0  0  0  0
 40 37  1  0  0  0  0
 41 42  1  0  0  0  0
 41 44  1  0  0  0  0
 43 41  1  0  0  0  0
 45 46  1  0  0  0  0
 45  1  1  0  0  0  0
 46 47  1  0  0  0  0
 48 55  1  0  0  0  0
 48 46  2  0  0  0  0
 49 48  1  0  0  0  0
 50 49  1  0  0  0  0
 51 49  2  0  0  0  0
 51 53  1  0  0  0  0
 52 51  1  0  0  0  0
 53 45  2  0  0  0  0
 54 53  1  0  0  0  0
 55 56  3  0  0  0  0
 56 57  1  0  0  0  0
 57 58  2  0  0  0  0
 58 60  1  0  0  0  0
 58 59  1  0  0  0  0
 60 64  2  0  0  0  0
 61  2  1  0  0  0  0
 62 61  2  0  0  0  0
 62 57  1  0  0  0  0
 63 62  1  0  0  0  0
 64  3  1  0  0  0  0
 64 65  1  0  0  0  0
 65 67  2  0  0  0  0
 66 65  1  0  0  0  0
 67 68  1  0  0  0  0
 67 69  1  0  0  0  0
 69 70  1  0  0  0  0
 71 72  1  0  0  0  0
 71 69  2  0  0  0  0
 73 61  1  6  0  0  0
 73  4  1  0  0  0  0
 74 73  1  0  0  0  0
 75 74  1  0  0  0  0
 76 74  2  0  0  0  0
 76 78  1  0  0  0  0
 77 76  1  0  0  0  0
 78 80  2  0  0  0  0
 79 78  1  0  0  0  0
 80  4  1  0  0  0  0
 80 81  1  0  0  0  0
M  END
