1,10,20
 OpenBabel05122313063D

 49 52  0  0  1  0  0  0  0  0999 V2000
   -1.2187    0.0279   -0.6037 N   0  0  0  0  0  2  0  0  0  0  0  0
   -0.5817    1.2047   -0.6156 C   0  0  0  0  0  0  0  0  0  0  0  0
    0.8082    1.2899   -0.8174 C   0  0  0  0  0  0  0  0  0  0  0  0
    1.3154    2.2612   -0.8082 H   0  0  0  0  0  0  0  0  0  0  0  0
    1.5268    0.0884   -0.9928 C   0  0  0  0  0  0  0  0  0  0  0  0
    0.8349   -1.1435   -0.9566 C   0  0  0  0  0  0  0  0  0  0  0  0
    1.4084   -2.0724   -1.0718 H   0  0  0  0  0  0  0  0  0  0  0  0
   -0.5484   -1.1287   -0.7475 C   0  0  0  0  0  0  0  0  0  0  0  0
   -1.4709    2.3791   -0.3778 C   0  0  0  0  0  0  0  0  0  0  0  0
   -2.7375    2.0633   -0.0333 N   0  0  0  0  0  2  0  0  0  0  0  0
   -3.6428    3.0223    0.1889 C   0  0  0  0  0  0  0  0  0  0  0  0
   -4.6529    2.6558    0.4451 H   0  0  0  0  0  0  0  0  0  0  0  0
   -3.3177    4.3842    0.0897 C   0  0  0  0  0  0  0  0  0  0  0  0
   -4.0811    5.1517    0.2819 H   0  0  0  0  0  0  0  0  0  0  0  0
   -2.0051    4.7328   -0.2601 C   0  0  0  0  0  0  0  0  0  0  0  0
   -1.7119    5.7896   -0.3503 H   0  0  0  0  0  0  0  0  0  0  0  0
   -1.0661    3.7201   -0.5025 C   0  0  0  0  0  0  0  0  0  0  0  0
   -0.0379    3.9749   -0.7953 H   0  0  0  0  0  0  0  0  0  0  0  0
   -1.4056   -2.3447   -0.6435 C   0  0  1  0  0  3  0  0  0  0  0  0
   -2.6800   -2.1037   -0.2690 N   0  0  0  0  0  2  0  0  0  0  0  0
   -3.5584   -3.1066   -0.1579 C   0  0  0  0  0  0  0  0  0  0  0  0
   -4.5781   -2.7997    0.1355 H   0  0  0  0  0  0  0  0  0  0  0  0
   -3.1956   -4.4389   -0.4087 C   0  0  0  0  0  0  0  0  0  0  0  0
   -3.9375   -5.2438   -0.3062 H   0  0  0  0  0  0  0  0  0  0  0  0
   -1.8737   -4.7100   -0.7914 C   0  0  0  0  0  0  0  0  0  0  0  0
   -1.5514   -5.7416   -0.9982 H   0  0  0  0  0  0  0  0  0  0  0  0
   -0.9630   -3.6513   -0.9162 C   0  0  0  0  0  0  0  0  0  0  0  0
    0.0726   -3.8412   -1.2312 H   0  0  0  0  0  0  0  0  0  0  0  0
    2.8602    0.0145   -1.1832 O   0  0  0  0  0  0  0  0  0  0  0  0
    3.6308    1.2233   -1.2160 C   0  0  0  0  0  0  0  0  0  0  0  0
    3.4908    1.7913   -0.2696 H   0  0  0  0  0  0  0  0  0  0  0  0
    3.2829    1.8501   -2.0678 H   0  0  0  0  0  0  0  0  0  0  0  0
    5.1058    0.8889   -1.3869 C   0  0  0  0  0  0  0  0  0  0  0  0
    5.2097    0.1485   -2.2260 H   0  0  0  0  0  0  0  0  0  0  0  0
    5.6009    1.8212   -1.7309 H   0  0  0  0  0  0  0  0  0  0  0  0
    5.7691    0.4662   -0.1667 N   0  0  0  0  0  0  0  0  0  0  0  0
    7.2210    0.6167   -0.2333 C   0  0  0  0  0  0  0  0  0  0  0  0
    7.4683    1.6672   -0.4976 H   0  0  0  0  0  0  0  0  0  0  0  0
    7.6735   -0.0447   -1.0211 H   0  0  0  0  0  0  0  0  0  0  0  0
    7.8457    0.2704    1.1177 C   0  0  0  0  0  0  0  0  0  0  0  0
    8.9513    0.3213    1.0573 H   0  0  0  0  0  0  0  0  0  0  0  0
    7.4966    1.0140    1.8775 H   0  0  0  0  0  0  0  0  0  0  0  0
    7.5111   -1.0446    1.5231 O   0  0  0  0  0  0  0  0  0  0  0  0
    6.1031   -1.1905    1.6069 C   0  0  0  0  0  0  0  0  0  0  0  0
    5.6871   -0.5093    2.3906 H   0  0  0  0  0  0  0  0  0  0  0  0
    5.9037   -2.2373    1.9112 H   0  0  0  0  0  0  0  0  0  0  0  0
    5.4227   -0.8861    0.2742 C   0  0  0  0  0  0  0  0  0  0  0  0
    5.7394   -1.6526   -0.4842 H   0  0  0  0  0  0  0  0  0  0  0  0
    4.3251   -0.9720    0.3886 H   0  0  0  0  0  0  0  0  0  0  0  0
  2  1  1  0  0  0  0
  2  9  2  0  0  0  0
  3  4  1  0  0  0  0
  3  2  1  0  0  0  0
  5  6  1  0  0  0  0
  5  3  2  0  0  0  0
  6  8  2  0  0  0  0
  7  6  1  0  0  0  0
  8  1  1  0  0  0  0
  9 10  1  0  0  0  0
 10 11  1  0  0  0  0
 11 12  1  0  0  0  0
 13 11  2  0  0  0  0
 13 14  1  0  0  0  0
 15 13  1  0  0  0  0
 16 15  1  0  0  0  0
 17  9  1  0  0  0  0
 17 15  2  0  0  0  0
 18 17  1  0  0  0  0
 19  8  1  6  0  0  0
 19 20  1  0  0  0  0
 20 21  1  0  0  0  0
 21 22  1  0  0  0  0
 23 24  1  0  0  0  0
 23 21  2  0  0  0  0
 25 23  1  0  0  0  0
 26 25  1  0  0  0  0
 27 25  2  0  0  0  0
 27 19  1  0  0  0  0
 28 27  1  0  0  0  0
 29  5  1  0  0  0  0
 30 29  1  0  0  0  0
 30 31  1  0  0  0  0
 32 30  1  0  0  0  0
 33 30  1  0  0  0  0
 33 36  1  0  0  0  0
 34 33  1  0  0  0  0
 35 33  1  0  0  0  0
 36 47  1  0  0  0  0
 37 36  1  0  0  0  0
 37 40  1  0  0  0  0
 38 37  1  0  0  0  0
 39 37  1  0  0  0  0
 40 43  1  0  0  0  0
 40 42  1  0  0  0  0
 41 40  1  0  0  0  0
 43 44  1  0  0  0  0
 44 46  1  0  0  0  0
 44 45  1  0  0  0  0
 47 49  1  0  0  0  0
 47 44  1  0  0  0  0
 48 47  1  0  0  0  0
M  END
