4,5,9
 OpenBabel05122313063D

 58 61  0  0  1  0  0  0  0  0999 V2000
   -3.5659    0.3376    2.3504 O   0  0  0  0  0  0  0  0  0  0  0  0
    1.3705   -3.1446   -1.2443 O   0  0  0  0  0  0  0  0  0  0  0  0
   -3.1635   -3.1962   -1.8943 O   0  0  0  0  0  0  0  0  0  0  0  0
    1.9704   -1.6062    1.1607 N   0  0  0  0  0  2  0  0  0  0  0  0
    0.3820    0.5416    1.0742 N   0  0  0  0  0  2  0  0  0  0  0  0
    1.4973    3.1576    0.8914 N   0  0  0  0  0  0  0  0  0  0  0  0
   -4.4508   -0.8647   -1.9833 N   0  0  0  0  0  0  0  0  0  0  0  0
   -4.4109   -1.9124   -1.9994 H   0  0  0  0  0  0  0  0  0  0  0  0
    0.3136   -1.0809   -1.2638 N   0  0  0  0  0  2  0  0  0  0  0  0
   -0.8851   -3.1262   -1.6097 N   0  0  0  0  0  0  0  0  0  0  0  0
   -0.8529   -4.1511   -1.6558 H   0  0  0  0  0  0  0  0  0  0  0  0
    0.8318   -1.6768    1.9070 C   0  0  1  0  0  3  0  0  0  0  0  0
    0.6164   -2.7374    2.8052 C   0  0  0  0  0  0  0  0  0  0  0  0
   -0.2991   -2.7725    3.4102 H   0  0  0  0  0  0  0  0  0  0  0  0
    1.5934   -3.7286    2.9444 C   0  0  0  0  0  0  0  0  0  0  0  0
    1.4447   -4.5597    3.6490 H   0  0  0  0  0  0  0  0  0  0  0  0
    2.7659   -3.6365    2.1798 C   0  0  0  0  0  0  0  0  0  0  0  0
    3.5633   -4.3884    2.2574 H   0  0  0  0  0  0  0  0  0  0  0  0
    2.9127   -2.5651    1.2961 C   0  0  0  0  0  0  0  0  0  0  0  0
    3.8014   -2.4645    0.6582 H   0  0  0  0  0  0  0  0  0  0  0  0
   -0.1149   -0.5527    1.7328 C   0  0  2  0  0  3  0  0  0  0  0  0
   -1.4329   -0.6097    2.1900 C   0  0  0  0  0  0  0  0  0  0  0  0
   -1.8426   -1.5113    2.6622 H   0  0  0  0  0  0  0  0  0  0  0  0
   -2.2835    0.5012    2.0006 C   0  0  0  0  0  0  0  0  0  0  0  0
   -1.7138    1.6804    1.4776 C   0  0  0  0  0  0  0  0  0  0  0  0
   -2.2686    2.6254    1.4407 H   0  0  0  0  0  0  0  0  0  0  0  0
   -0.3822    1.6648    1.0259 C   0  0  0  0  0  0  0  0  0  0  0  0
    0.2309    2.9202    0.5030 C   0  0  0  0  0  0  0  0  0  0  0  0
   -0.4924    3.8044   -0.3224 C   0  0  0  0  0  0  0  0  0  0  0  0
   -1.5220    3.5726   -0.6347 H   0  0  0  0  0  0  0  0  0  0  0  0
    0.1422    4.9726   -0.7682 C   0  0  0  0  0  0  0  0  0  0  0  0
   -0.3842    5.6759   -1.4303 H   0  0  0  0  0  0  0  0  0  0  0  0
    1.4606    5.2188   -0.3655 C   0  0  0  0  0  0  0  0  0  0  0  0
    1.9986    6.1194   -0.6950 H   0  0  0  0  0  0  0  0  0  0  0  0
    2.0923    4.2789    0.4697 C   0  0  0  0  0  0  0  0  0  0  0  0
    3.1317    4.4337    0.8077 H   0  0  0  0  0  0  0  0  0  0  0  0
   -4.5405    1.3751    2.1202 C   0  0  0  0  0  0  0  0  0  0  0  0
   -4.2369    1.9877    1.2445 H   0  0  0  0  0  0  0  0  0  0  0  0
   -4.5654    2.0406    3.0092 H   0  0  0  0  0  0  0  0  0  0  0  0
   -5.8887    0.7097    1.8782 C   0  0  0  0  0  0  0  0  0  0  0  0
   -6.6605    1.5086    1.8548 H   0  0  0  0  0  0  0  0  0  0  0  0
   -6.1268    0.0741    2.7555 H   0  0  0  0  0  0  0  0  0  0  0  0
   -5.9423   -0.1321    0.5939 C   0  0  0  0  0  0  0  0  0  0  0  0
   -6.8572   -0.7603    0.6071 H   0  0  0  0  0  0  0  0  0  0  0  0
   -5.0872   -0.8425    0.6036 H   0  0  0  0  0  0  0  0  0  0  0  0
   -5.9209    0.6961   -0.6970 C   0  0  0  0  0  0  0  0  0  0  0  0
   -6.8694    1.2627   -0.8067 H   0  0  0  0  0  0  0  0  0  0  0  0
   -5.1226    1.4704   -0.6527 H   0  0  0  0  0  0  0  0  0  0  0  0
   -5.7200   -0.1334   -1.9732 C   0  0  0  0  0  0  0  0  0  0  0  0
   -5.7709    0.5208   -2.8693 H   0  0  0  0  0  0  0  0  0  0  0  0
   -6.5226   -0.8884   -2.0800 H   0  0  0  0  0  0  0  0  0  0  0  0
   -3.2557   -0.3103   -1.8753 C   0  0  0  0  0  0  0  0  0  0  0  0
   -3.2000    0.7927   -1.8479 H   0  0  0  0  0  0  0  0  0  0  0  0
   -2.0679   -1.0639   -1.7590 C   0  0  0  0  0  0  0  0  0  0  0  0
   -0.8241   -0.4420   -1.5141 C   0  0  0  0  0  3  0  0  0  0  0  0
   -0.7793    0.6605   -1.4799 H   0  0  0  0  0  0  0  0  0  0  0  0
    0.3473   -2.4959   -1.3693 C   0  0  0  0  0  0  0  0  0  0  0  0
   -2.1265   -2.5294   -1.7650 C   0  0  0  0  0  0  0  0  0  0  0  0
  3 58  2  0  0  0  0
  4 19  1  0  0  0  0
  7 49  1  0  0  0  0
  7 52  1  0  0  0  0
  8  7  1  0  0  0  0
 10 57  1  0  0  0  0
 11 10  1  0  0  0  0
 12  4  1  1  0  0  0
 12 13  1  0  0  0  0
 13 15  2  0  0  0  0
 13 14  1  0  0  0  0
 15 16  1  0  0  0  0
 17 18  1  0  0  0  0
 17 15  1  0  0  0  0
 19 17  2  0  0  0  0
 20 19  1  0  0  0  0
 21  5  1  6  0  0  0
 21 12  1  0  0  0  0
 21 22  1  0  0  0  0
 22 23  1  0  0  0  0
 24 22  2  0  0  0  0
 24  1  1  0  0  0  0
 25 24  1  0  0  0  0
 26 25  1  0  0  0  0
 27  5  1  0  0  0  0
 27 25  2  0  0  0  0
 28  6  1  0  0  0  0
 28 27  1  0  0  0  0
 29 28  2  0  0  0  0
 30 29  1  0  0  0  0
 31 33  2  0  0  0  0
 31 29  1  0  0  0  0
 32 31  1  0  0  0  0
 33 35  1  0  0  0  0
 34 33  1  0  0  0  0
 35 36  1  0  0  0  0
 35  6  2  0  0  0  0
 37  1  1  0  0  0  0
 37 39  1  0  0  0  0
 38 37  1  0  0  0  0
 40 37  1  0  0  0  0
 40 42  1  0  0  0  0
 41 40  1  0  0  0  0
 43 45  1  0  0  0  0
 43 44  1  0  0  0  0
 43 40  1  0  0  0  0
 46 48  1  0  0  0  0
 46 43  1  0  0  0  0
 47 46  1  0  0  0  0
 49 46  1  0  0  0  0
 50 49  1  0  0  0  0
 51 49  1  0  0  0  0
 52 53  1  0  0  0  0
 52 54  2  0  0  0  0
 54 55  1  0  0  0  0
 55 56  1  0  0  0  0
 55  9  1  0  0  0  0
 57  9  1  0  0  0  0
 57  2  2  0  0  0  0
 58 54  1  0  0  0  0
 58 10  1  0  0  0  0
M  END
