1,2,4
 OpenBabel05122313063D

 56 57  0  0  0  0  0  0  0  0999 V2000
   -1.8417   -0.8565    0.5687 N   0  0  0  0  0  2  0  0  0  0  0  0
    0.0486   -2.6171    1.0636 N   0  0  0  0  0  0  0  0  0  0  0  0
    0.6325   -3.3082    0.5713 H   0  0  0  0  0  0  0  0  0  0  0  0
    1.7474   -0.6253    0.7873 N   0  0  0  0  0  2  0  0  0  0  0  0
   -2.2515   -1.9395    1.4572 C   0  0  0  0  0  0  0  0  0  0  0  0
   -3.3029   -2.2470    1.2588 H   0  0  0  0  0  0  0  0  0  0  0  0
   -2.2326   -1.6254    2.5310 H   0  0  0  0  0  0  0  0  0  0  0  0
   -1.3238   -3.1271    1.2183 C   0  0  0  0  0  0  0  0  0  0  0  0
   -1.4020   -3.8835    2.0331 H   0  0  0  0  0  0  0  0  0  0  0  0
   -1.5947   -3.6147    0.2605 H   0  0  0  0  0  0  0  0  0  0  0  0
    0.7200   -2.1979    2.3062 C   0  0  0  0  0  0  0  0  0  0  0  0
    0.8962   -3.0518    2.9997 H   0  0  0  0  0  0  0  0  0  0  0  0
    0.0507   -1.4780    2.8216 H   0  0  0  0  0  0  0  0  0  0  0  0
    2.0184   -1.5040    1.9176 C   0  0  0  0  0  0  0  0  0  0  0  0
    2.4250   -0.9430    2.7911 H   0  0  0  0  0  0  0  0  0  0  0  0
    2.7976   -2.2650    1.6592 H   0  0  0  0  0  0  0  0  0  0  0  0
   -2.8649    0.1061    0.2792 C   0  0  0  0  0  0  0  0  0  0  0  0
   -2.9901    1.2720    1.0794 C   0  0  0  0  0  0  0  0  0  0  0  0
   -3.9951    2.2029    0.7701 C   0  0  0  0  0  0  0  0  0  0  0  0
   -4.0890    3.1081    1.3924 H   0  0  0  0  0  0  0  0  0  0  0  0
   -4.8773    2.0163   -0.3106 C   0  0  0  0  0  0  0  0  0  0  0  0
   -4.7377    0.8494   -1.0824 C   0  0  0  0  0  0  0  0  0  0  0  0
   -5.4204    0.6804   -1.9313 H   0  0  0  0  0  0  0  0  0  0  0  0
   -3.7494   -0.1135   -0.8094 C   0  0  0  0  0  0  0  0  0  0  0  0
   -2.0358    1.5234    2.2185 C   0  0  0  0  0  0  0  0  0  0  0  0
   -1.9574    0.6524    2.9008 H   0  0  0  0  0  0  0  0  0  0  0  0
   -2.3493    2.4001    2.8167 H   0  0  0  0  0  0  0  0  0  0  0  0
   -1.0120    1.7262    1.8399 H   0  0  0  0  0  0  0  0  0  0  0  0
   -5.9186    3.0544   -0.6468 C   0  0  0  0  0  0  0  0  0  0  0  0
   -5.4784    3.8795   -1.2476 H   0  0  0  0  0  0  0  0  0  0  0  0
   -6.3477    3.5140    0.2662 H   0  0  0  0  0  0  0  0  0  0  0  0
   -6.7491    2.6244   -1.2403 H   0  0  0  0  0  0  0  0  0  0  0  0
   -3.6283   -1.3508   -1.6636 C   0  0  0  0  0  0  0  0  0  0  0  0
   -4.3919   -1.3552   -2.4645 H   0  0  0  0  0  0  0  0  0  0  0  0
   -3.7598   -2.2792   -1.0685 H   0  0  0  0  0  0  0  0  0  0  0  0
   -2.6301   -1.4338   -2.1419 H   0  0  0  0  0  0  0  0  0  0  0  0
    2.8531    0.1961    0.3854 C   0  0  0  0  0  0  0  0  0  0  0  0
    3.8214   -0.3034   -0.5279 C   0  0  0  0  0  0  0  0  0  0  0  0
    4.8918    0.5290   -0.9029 C   0  0  0  0  0  0  0  0  0  0  0  0
    5.6382    0.1393   -1.6144 H   0  0  0  0  0  0  0  0  0  0  0  0
    5.0383    1.8335   -0.4003 C   0  0  0  0  0  0  0  0  0  0  0  0
    4.0761    2.2978    0.5147 C   0  0  0  0  0  0  0  0  0  0  0  0
    4.1735    3.3146    0.9295 H   0  0  0  0  0  0  0  0  0  0  0  0
    2.9868    1.5074    0.9177 C   0  0  0  0  0  0  0  0  0  0  0  0
    3.7123   -1.6944   -1.1017 C   0  0  0  0  0  0  0  0  0  0  0  0
    3.6678   -2.4700   -0.3087 H   0  0  0  0  0  0  0  0  0  0  0  0
    4.5843   -1.9241   -1.7430 H   0  0  0  0  0  0  0  0  0  0  0  0
    2.7964   -1.8216   -1.7156 H   0  0  0  0  0  0  0  0  0  0  0  0
    6.1738    2.7198   -0.8470 C   0  0  0  0  0  0  0  0  0  0  0  0
    7.0252    2.1292   -1.2384 H   0  0  0  0  0  0  0  0  0  0  0  0
    6.5456    3.3564   -0.0192 H   0  0  0  0  0  0  0  0  0  0  0  0
    5.8478    3.4046   -1.6596 H   0  0  0  0  0  0  0  0  0  0  0  0
    1.9580    2.0665    1.8651 C   0  0  0  0  0  0  0  0  0  0  0  0
    1.0544    2.3837    1.3011 H   0  0  0  0  0  0  0  0  0  0  0  0
    2.3480    2.9534    2.4003 H   0  0  0  0  0  0  0  0  0  0  0  0
    1.6236    1.3226    2.6149 H   0  0  0  0  0  0  0  0  0  0  0  0
  1  5  1  0  0  0  0
  2  8  1  0  0  0  0
  2 11  1  0  0  0  0
  3  2  1  0  0  0  0
  4 14  1  0  0  0  0
  5  7  1  0  0  0  0
  6  5  1  0  0  0  0
  8  5  1  0  0  0  0
  8  9  1  0  0  0  0
 10  8  1  0  0  0  0
 11 13  1  0  0  0  0
 11 12  1  0  0  0  0
 14 11  1  0  0  0  0
 14 15  1  0  0  0  0
 16 14  1  0  0  0  0
 17  1  1  0  0  0  0
 17 18  1  0  0  0  0
 18 25  1  0  0  0  0
 19 18  2  0  0  0  0
 19 20  1  0  0  0  0
 21 19  1  0  0  0  0
 22 24  1  0  0  0  0
 22 21  2  0  0  0  0
 23 22  1  0  0  0  0
 24 17  2  0  0  0  0
 25 27  1  0  0  0  0
 25 26  1  0  0  0  0
 28 25  1  0  0  0  0
 29 21  1  0  0  0  0
 29 31  1  0  0  0  0
 30 29  1  0  0  0  0
 32 29  1  0  0  0  0
 33 35  1  0  0  0  0
 33 24  1  0  0  0  0
 34 33  1  0  0  0  0
 36 33  1  0  0  0  0
 37  4  1  0  0  0  0
 37 44  1  0  0  0  0
 38 37  2  0  0  0  0
 39 38  1  0  0  0  0
 39 41  2  0  0  0  0
 40 39  1  0  0  0  0
 41 42  1  0  0  0  0
 42 44  2  0  0  0  0
 42 43  1  0  0  0  0
 44 53  1  0  0  0  0
 45 38  1  0  0  0  0
 45 46  1  0  0  0  0
 47 45  1  0  0  0  0
 48 45  1  0  0  0  0
 49 41  1  0  0  0  0
 49 51  1  0  0  0  0
 50 49  1  0  0  0  0
 52 49  1  0  0  0  0
 53 55  1  0  0  0  0
 53 56  1  0  0  0  0
 54 53  1  0  0  0  0
M  END
