69,70,71
q = -1.0, confidence = 0.064

 71 75  0  0  1  0  0  0  0  0999 V2000
    2.6182    1.1007   -0.0002 C   0  0  0  0  0  0  0  0  0  0  0  0
    2.2243    2.4575   -0.0002 C   0  0  0  0  0  0  0  0  0  0  0  0
    3.2576    3.4331   -0.0002 C   0  0  0  0  0  3  0  0  0  0  0  0
    2.9699    4.4969   -0.0002 H   0  0  0  0  0  0  0  0  0  0  0  0
    4.6208    3.0935   -0.0002 C   0  0  0  0  0  0  0  0  0  0  0  0
    4.9879    1.7222   -0.0002 C   0  0  0  0  0  0  0  0  0  0  0  0
    6.0557    1.4487   -0.0002 H   0  0  0  0  0  0  0  0  0  0  0  0
    4.0072    0.7272   -0.0002 C   0  0  0  0  0  0  0  0  0  0  0  0
    5.6903    4.1588   -0.0003 C   0  0  0  0  0  0  0  0  0  0  0  0
    5.2535    5.1759   -0.0001 H   0  0  0  0  0  0  0  0  0  0  0  0
    6.3467    4.0743   -0.8916 H   0  0  0  0  0  0  0  0  0  0  0  0
    6.3471    4.0741    0.8908 H   0  0  0  0  0  0  0  0  0  0  0  0
    2.6183   -1.1006   -0.0001 C   0  0  2  0  0  3  0  0  0  0  0  0
    4.0072   -0.7271   -0.0001 C   0  0  0  0  0  0  0  0  0  0  0  0
    4.9880   -1.7220   -0.0001 C   0  0  0  0  0  0  0  0  0  0  0  0
    6.0557   -1.4485   -0.0001 H   0  0  0  0  0  0  0  0  0  0  0  0
    4.6209   -3.0933   -0.0000 C   0  0  0  0  0  0  0  0  0  0  0  0
    3.2577   -3.4330   -0.0000 C   0  0  0  0  0  0  0  0  0  0  0  0
    2.9701   -4.4968   -0.0000 H   0  0  0  0  0  0  0  0  0  0  0  0
    2.2244   -2.4575   -0.0001 C   0  0  0  0  0  0  0  0  0  0  0  0
    5.6905   -4.1586    0.0000 C   0  0  0  0  0  0  0  0  0  0  0  0
    5.2537   -5.1757   -0.0001 H   0  0  0  0  0  0  0  0  0  0  0  0
    6.3469   -4.0740    0.8914 H   0  0  0  0  0  0  0  0  0  0  0  0
    6.3472   -4.0738   -0.8911 H   0  0  0  0  0  0  0  0  0  0  0  0
    0.8444    2.8475   -0.0001 C   0  0  0  0  0  0  0  0  0  0  0  0
    0.6430    3.9367   -0.0002 H   0  0  0  0  0  0  0  0  0  0  0  0
   -1.4680    2.7646   -0.0000 C   0  0  0  0  0  0  0  0  0  0  0  0
   -2.0592    3.1098    1.2347 C   0  0  0  0  0  0  0  0  0  0  0  0
   -3.2580    3.8416    1.2066 C   0  0  0  0  0  0  0  0  0  0  0  0
   -3.7300    4.1153    2.1644 H   0  0  0  0  0  0  0  0  0  0  0  0
   -3.8743    4.2202   -0.0002 C   0  0  0  0  0  0  0  0  0  0  0  0
   -3.2580    3.8416   -1.2067 C   0  0  0  0  0  0  0  0  0  0  0  0
   -3.7299    4.1152   -2.1645 H   0  0  0  0  0  0  0  0  0  0  0  0
   -2.0589    3.1096   -1.2346 C   0  0  0  0  0  0  0  0  0  0  0  0
   -1.4477    2.6445    2.5283 C   0  0  0  0  0  0  0  0  0  0  0  0
   -2.0336    2.9963    3.3983 H   0  0  0  0  0  0  0  0  0  0  0  0
   -0.4009    2.9908    2.6532 H   0  0  0  0  0  0  0  0  0  0  0  0
   -1.4212    1.5335    2.5469 H   0  0  0  0  0  0  0  0  0  0  0  0
   -5.1839    4.9690    0.0007 C   0  0  0  0  0  0  0  0  0  0  0  0
   -5.3036    5.5864   -0.9115 H   0  0  0  0  0  0  0  0  0  0  0  0
   -5.2751    5.6341    0.8824 H   0  0  0  0  0  0  0  0  0  0  0  0
   -6.0439    4.2654    0.0338 H   0  0  0  0  0  0  0  0  0  0  0  0
   -1.4476    2.6442   -2.5283 C   0  0  0  0  0  0  0  0  0  0  0  0
   -0.4007    2.9902   -2.6532 H   0  0  0  0  0  0  0  0  0  0  0  0
   -2.0334    2.9963   -3.3982 H   0  0  0  0  0  0  0  0  0  0  0  0
   -1.4215    1.5332   -2.5470 H   0  0  0  0  0  0  0  0  0  0  0  0
    0.8445   -2.8475   -0.0001 C   0  0  0  0  0  0  0  0  0  0  0  0
    0.6432   -3.9366   -0.0003 H   0  0  0  0  0  0  0  0  0  0  0  0
   -1.4679   -2.7647   -0.0001 C   0  0  0  0  0  0  0  0  0  0  0  0
   -2.0594   -3.1089   -1.2349 C   0  0  0  0  0  0  0  0  0  0  0  0
   -3.2583   -3.8408   -1.2070 C   0  0  0  0  0  0  0  0  0  0  0  0
   -3.7305   -4.1138   -2.1649 H   0  0  0  0  0  0  0  0  0  0  0  0
   -3.8742   -4.2203   -0.0003 C   0  0  0  0  0  0  0  0  0  0  0  0
   -3.2575   -3.8426    1.2063 C   0  0  0  0  0  0  0  0  0  0  0  0
   -3.7291   -4.1170    2.1641 H   0  0  0  0  0  0  0  0  0  0  0  0
   -2.0585   -3.1107    1.2344 C   0  0  0  0  0  0  0  0  0  0  0  0
   -1.4484   -2.6426   -2.5283 C   0  0  0  0  0  0  0  0  0  0  0  0
   -1.4227   -1.5315   -2.5465 H   0  0  0  0  0  0  0  0  0  0  0  0
   -2.0341   -2.9944   -3.3984 H   0  0  0  0  0  0  0  0  0  0  0  0
   -0.4014   -2.9881   -2.6535 H   0  0  0  0  0  0  0  0  0  0  0  0
   -5.1838   -4.9691   -0.0011 C   0  0  0  0  0  0  0  0  0  0  0  0
   -5.2795   -5.6263   -0.8882 H   0  0  0  0  0  0  0  0  0  0  0  0
   -6.0439   -4.2652   -0.0233 H   0  0  0  0  0  0  0  0  0  0  0  0
   -5.2988   -5.5946    0.9063 H   0  0  0  0  0  0  0  0  0  0  0  0
   -1.4467   -2.6462    2.5282 C   0  0  0  0  0  0  0  0  0  0  0  0
   -0.4000   -2.9929    2.6528 H   0  0  0  0  0  0  0  0  0  0  0  0
   -2.0325   -2.9984    3.3981 H   0  0  0  0  0  0  0  0  0  0  0  0
   -1.4199   -1.5352    2.5475 H   0  0  0  0  0  0  0  0  0  0  0  0
    1.8072    0.0000   -0.0002 N   0  0  0  0  0  2  0  0  0  0  0  0
   -0.2089    2.0600    0.0001 N   0  0  0  0  0  2  0  0  0  0  0  0
   -0.2088   -2.0600   -0.0000 N   0  0  0  0  0  2  0  0  0  0  0  0
  1 69  1  0  0  0  0
  1  8  2  0  0  0  0
  1  2  1  0  0  0  0
  2 25  2  0  0  0  0
  3  2  1  0  0  0  0
  4  3  1  0  0  0  0
  5  3  1  0  0  0  0
  5  6  2  0  0  0  0
  6  8  1  0  0  0  0
  6  7  1  0  0  0  0
  8 14  1  0  0  0  0
  9  5  1  0  0  0  0
  9 10  1  0  0  0  0
  9 12  1  0  0  0  0
 11  9  1  0  0  0  0
 13 69  1  6  0  0  0
 13 20  1  0  0  0  0
 14 13  1  0  0  0  0
 14 15  2  0  0  0  0
 15 17  1  0  0  0  0
 16 15  1  0  0  0  0
 17 21  1  0  0  0  0
 18 17  2  0  0  0  0
 18 19  1  0  0  0  0
 20 18  1  0  0  0  0
 21 23  1  0  0  0  0
 22 21  1  0  0  0  0
 24 21  1  0  0  0  0
 25 70  1  0  0  0  0
 26 25  1  0  0  0  0
 27 70  1  0  0  0  0
 27 28  1  0  0  0  0
 28 35  1  0  0  0  0
 29 28  2  0  0  0  0
 29 30  1  0  0  0  0
 31 39  1  0  0  0  0
 31 29  1  0  0  0  0
 32 31  2  0  0  0  0
 33 32  1  0  0  0  0
 34 32  1  0  0  0  0
 34 27  2  0  0  0  0
 35 38  1  0  0  0  0
 35 37  1  0  0  0  0
 35 36  1  0  0  0  0
 39 42  1  0  0  0  0
 39 41  1  0  0  0  0
 40 39  1  0  0  0  0
 43 34  1  0  0  0  0
 44 43  1  0  0  0  0
 45 43  1  0  0  0  0
 46 43  1  0  0  0  0
 47 20  2  0  0  0  0
 47 71  1  0  0  0  0
 48 47  1  0  0  0  0
 49 71  1  0  0  0  0
 49 56  1  0  0  0  0
 50 51  1  0  0  0  0
 50 49  2  0  0  0  0
 51 53  2  0  0  0  0
 52 51  1  0  0  0  0
 53 54  1  0  0  0  0
 54 56  2  0  0  0  0
 54 55  1  0  0  0  0
 56 65  1  0  0  0  0
 57 50  1  0  0  0  0
 58 57  1  0  0  0  0
 59 57  1  0  0  0  0
 60 57  1  0  0  0  0
 61 53  1  0  0  0  0
 61 64  1  0  0  0  0
 62 61  1  0  0  0  0
 63 61  1  0  0  0  0
 65 68  1  0  0  0  0
 65 66  1  0  0  0  0
 65 67  1  0  0  0  0
M  END
