1,2,3
 OpenBabel05122313063D

 53 56  0  0  1  0  0  0  0  0999 V2000
   -1.6624    2.2201   -0.0392 N   0  0  0  0  0  2  0  0  0  0  0  0
   -2.2739   -0.0770   -1.4239 N   0  0  0  0  0  0  0  0  0  0  0  0
   -2.6845   -1.7243    0.6817 N   0  0  0  0  0  2  0  0  0  0  0  0
    2.6027   -0.3751   -0.6366 N   0  0  0  0  0  0  0  0  0  0  0  0
    2.5500    0.5369   -0.1557 H   0  0  0  0  0  0  0  0  0  0  0  0
    4.4007    1.1247    0.6021 N   0  0  0  0  0  0  0  0  0  0  0  0
    1.4379   -2.0246   -1.7445 O   0  0  0  0  0  0  0  0  0  0  0  0
   -1.0117    3.1688    0.6517 C   0  0  0  0  0  3  0  0  0  0  0  0
   -0.8727    2.9500    1.7247 H   0  0  0  0  0  0  0  0  0  0  0  0
   -0.5205    4.3253    0.0309 C   0  0  0  0  0  0  0  0  0  0  0  0
    0.0087    5.0868    0.6214 H   0  0  0  0  0  0  0  0  0  0  0  0
   -0.7103    4.4747   -1.3512 C   0  0  0  0  0  0  0  0  0  0  0  0
   -0.3303    5.3654   -1.8744 H   0  0  0  0  0  0  0  0  0  0  0  0
   -1.3776    3.4679   -2.0644 C   0  0  0  0  0  0  0  0  0  0  0  0
   -1.5281    3.5429   -3.1517 H   0  0  0  0  0  0  0  0  0  0  0  0
   -1.8474    2.3446   -1.3667 C   0  0  0  0  0  0  0  0  0  0  0  0
   -2.6163    1.2149   -2.0181 C   0  0  0  0  0  0  0  0  0  0  0  0
   -3.6902    1.3978   -1.7858 H   0  0  0  0  0  0  0  0  0  0  0  0
   -2.4742    1.2347   -3.1249 H   0  0  0  0  0  0  0  0  0  0  0  0
   -3.3286   -1.0876   -1.5570 C   0  0  0  0  0  0  0  0  0  0  0  0
   -3.3815   -1.5384   -2.5758 H   0  0  0  0  0  0  0  0  0  0  0  0
   -4.2939   -0.5801   -1.3285 H   0  0  0  0  0  0  0  0  0  0  0  0
   -3.1381   -2.1636   -0.5088 C   0  0  2  0  0  3  0  0  0  0  0  0
   -3.4218   -3.5207   -0.7215 C   0  0  0  0  0  0  0  0  0  0  0  0
   -3.7779   -3.8605   -1.7054 H   0  0  0  0  0  0  0  0  0  0  0  0
   -3.2309   -4.4240    0.3345 C   0  0  0  0  0  0  0  0  0  0  0  0
   -3.4443   -5.4944    0.1926 H   0  0  0  0  0  0  0  0  0  0  0  0
   -2.7493   -3.9509    1.5641 C   0  0  0  0  0  0  0  0  0  0  0  0
   -2.5726   -4.6310    2.4094 H   0  0  0  0  0  0  0  0  0  0  0  0
   -2.4824   -2.5816    1.6945 C   0  0  0  0  0  0  0  0  0  0  0  0
   -2.0779   -2.1260    2.6151 H   0  0  0  0  0  0  0  0  0  0  0  0
   -0.9487   -0.6025   -1.8097 C   0  0  0  0  0  0  0  0  0  0  0  0
   -0.7764   -0.4486   -2.9017 H   0  0  0  0  0  0  0  0  0  0  0  0
   -0.9520   -1.6998   -1.6622 H   0  0  0  0  0  0  0  0  0  0  0  0
    0.2263   -0.0574   -0.9996 C   0  0  0  0  0  0  0  0  0  0  0  0
   -0.0271   -0.0490    0.0876 H   0  0  0  0  0  0  0  0  0  0  0  0
    0.4768    0.9912   -1.2610 H   0  0  0  0  0  0  0  0  0  0  0  0
    1.4660   -0.9296   -1.1826 C   0  0  0  0  0  0  0  0  0  0  0  0
    3.8879   -0.9015   -0.5723 C   0  0  0  0  0  0  0  0  0  0  0  0
    4.8468   -0.0633    0.1086 C   0  0  0  0  0  0  0  0  0  0  0  0
    5.2594    1.9094    1.2380 C   0  0  0  0  0  0  0  0  0  0  0  0
    4.8649    2.8640    1.6293 H   0  0  0  0  0  0  0  0  0  0  0  0
    6.6274    1.5743    1.4288 C   0  0  0  0  0  0  0  0  0  0  0  0
    7.2916    2.2670    1.9662 H   0  0  0  0  0  0  0  0  0  0  0  0
    7.0967    0.3691    0.9283 C   0  0  0  0  0  0  0  0  0  0  0  0
    8.1502    0.0735    1.0556 H   0  0  0  0  0  0  0  0  0  0  0  0
    6.2084   -0.5054    0.2404 C   0  0  0  0  0  0  0  0  0  0  0  0
    6.5918   -1.7629   -0.3071 C   0  0  0  0  0  0  0  0  0  0  0  0
    7.6346   -2.0995   -0.2053 H   0  0  0  0  0  0  0  0  0  0  0  0
    5.6460   -2.5437   -0.9575 C   0  0  0  0  0  0  0  0  0  0  0  0
    5.9406   -3.5165   -1.3801 H   0  0  0  0  0  0  0  0  0  0  0  0
    4.2965   -2.1298   -1.0973 C   0  0  0  0  0  0  0  0  0  0  0  0
    3.5559   -2.7554   -1.6091 H   0  0  0  0  0  0  0  0  0  0  0  0
  1  8  1  0  0  0  0
  3 30  1  0  0  0  0
  4 39  1  0  0  0  0
  4  5  1  0  0  0  0
  6 41  1  0  0  0  0
  7 38  2  0  0  0  0
  8  9  1  0  0  0  0
 10 11  1  0  0  0  0
 10  8  1  0  0  0  0
 12 10  2  0  0  0  0
 13 12  1  0  0  0  0
 14 16  2  0  0  0  0
 14 12  1  0  0  0  0
 15 14  1  0  0  0  0
 16  1  1  0  0  0  0
 17 18  1  0  0  0  0
 17  2  1  0  0  0  0
 17 16  1  0  0  0  0
 19 17  1  0  0  0  0
 20  2  1  0  0  0  0
 20 22  1  0  0  0  0
 21 20  1  0  0  0  0
 23 20  1  1  0  0  0
 23  3  1  0  0  0  0
 24 23  1  0  0  0  0
 24 26  2  0  0  0  0
 25 24  1  0  0  0  0
 26 28  1  0  0  0  0
 27 26  1  0  0  0  0
 28 30  2  0  0  0  0
 28 29  1  0  0  0  0
 30 31  1  0  0  0  0
 32 34  1  0  0  0  0
 32  2  1  0  0  0  0
 32 35  1  0  0  0  0
 33 32  1  0  0  0  0
 35 36  1  0  0  0  0
 37 35  1  0  0  0  0
 38 35  1  0  0  0  0
 38  4  1  0  0  0  0
 39 40  1  0  0  0  0
 40 47  1  0  0  0  0
 40  6  2  0  0  0  0
 41 43  2  0  0  0  0
 41 42  1  0  0  0  0
 43 44  1  0  0  0  0
 45 46  1  0  0  0  0
 45 43  1  0  0  0  0
 47 45  2  0  0  0  0
 48 49  1  0  0  0  0
 48 47  1  0  0  0  0
 50 48  2  0  0  0  0
 51 50  1  0  0  0  0
 52 50  1  0  0  0  0
 52 39  2  0  0  0  0
 53 52  1  0  0  0  0
M  END
