1,12,20
 OpenBabel05122313063D

 78 80  0  0  1  0  0  0  0  0999 V2000
   -0.0470    1.0968    1.7219 N   0  0  0  0  0  2  0  0  0  0  0  0
    1.1289    1.6471    2.1961 C   0  0  0  0  0  0  0  0  0  0  0  0
    1.0983    2.6342    3.2004 C   0  0  0  0  0  0  0  0  0  0  0  0
    2.0425    3.0732    3.5531 H   0  0  0  0  0  0  0  0  0  0  0  0
   -0.1339    3.0308    3.7250 C   0  0  0  0  0  0  0  0  0  0  0  0
   -0.1846    3.8030    4.5057 H   0  0  0  0  0  0  0  0  0  0  0  0
   -1.3174    2.4175    3.2561 C   0  0  0  0  0  0  0  0  0  0  0  0
   -2.2958    2.6925    3.6757 H   0  0  0  0  0  0  0  0  0  0  0  0
   -1.2454    1.4404    2.2610 C   0  0  0  0  0  0  0  0  0  0  0  0
   -2.4315    0.6871    1.7009 C   0  0  1  0  0  0  0  0  0  0  0  0
   -3.1318    1.4244    1.2619 H   0  0  0  0  0  0  0  0  0  0  0  0
   -1.9754   -0.2098    0.5768 N   0  0  0  0  0  0  0  0  0  0  0  0
   -1.9775   -1.1686    0.9598 H   0  0  0  0  0  0  0  0  0  0  0  0
   -3.1891   -0.1152    2.7653 C   0  0  0  0  0  0  0  0  0  0  0  0
   -4.0757   -0.6034    2.3132 H   0  0  0  0  0  0  0  0  0  0  0  0
   -3.5438    0.5463    3.5796 H   0  0  0  0  0  0  0  0  0  0  0  0
   -2.5236   -0.8867    3.2005 H   0  0  0  0  0  0  0  0  0  0  0  0
    2.2554    1.1179    1.4914 C   0  0  0  0  0  0  0  0  0  0  0  0
    3.2868    1.4724    1.6437 H   0  0  0  0  0  0  0  0  0  0  0  0
    1.9608    0.2077    0.5662 N   0  0  0  0  0  2  0  0  0  0  0  0
   -2.8342   -0.1799   -0.5862 C   0  0  0  0  0  0  0  0  0  0  0  0
   -2.9557    1.0135   -1.3445 C   0  0  0  0  0  0  0  0  0  0  0  0
   -3.8462    1.0163   -2.4333 C   0  0  0  0  0  0  0  0  0  0  0  0
   -3.9580    1.9342   -3.0303 H   0  0  0  0  0  0  0  0  0  0  0  0
   -4.5680   -0.1282   -2.7867 C   0  0  0  0  0  0  0  0  0  0  0  0
   -5.2558   -0.1057   -3.6454 H   0  0  0  0  0  0  0  0  0  0  0  0
   -4.3983   -1.3090   -2.0548 C   0  0  0  0  0  0  0  0  0  0  0  0
   -4.9528   -2.2107   -2.3504 H   0  0  0  0  0  0  0  0  0  0  0  0
   -3.5360   -1.3636   -0.9444 C   0  0  0  0  0  0  0  0  0  0  0  0
   -2.1295    2.2642   -1.0529 C   0  0  0  0  0  0  0  0  0  0  0  0
   -1.3691    1.9858   -0.2960 H   0  0  0  0  0  0  0  0  0  0  0  0
   -1.3452    2.7261   -2.2926 C   0  0  0  0  0  0  0  0  0  0  0  0
   -0.6659    3.5615   -2.0249 H   0  0  0  0  0  0  0  0  0  0  0  0
   -2.0207    3.0916   -3.0931 H   0  0  0  0  0  0  0  0  0  0  0  0
   -0.7356    1.8972   -2.6975 H   0  0  0  0  0  0  0  0  0  0  0  0
   -2.9839    3.4202   -0.5031 C   0  0  0  0  0  0  0  0  0  0  0  0
   -2.3471    4.2939   -0.2547 H   0  0  0  0  0  0  0  0  0  0  0  0
   -3.5474    3.1418    0.4110 H   0  0  0  0  0  0  0  0  0  0  0  0
   -3.7302    3.7498   -1.2552 H   0  0  0  0  0  0  0  0  0  0  0  0
   -3.3144   -2.6805   -0.2025 C   0  0  0  0  0  0  0  0  0  0  0  0
   -3.1311   -2.4516    0.8726 H   0  0  0  0  0  0  0  0  0  0  0  0
   -4.5301   -3.6162   -0.2223 C   0  0  0  0  0  0  0  0  0  0  0  0
   -5.4516   -3.1048    0.1218 H   0  0  0  0  0  0  0  0  0  0  0  0
   -4.3490   -4.4864    0.4397 H   0  0  0  0  0  0  0  0  0  0  0  0
   -4.7218   -4.0193   -1.2377 H   0  0  0  0  0  0  0  0  0  0  0  0
   -2.0563   -3.3935   -0.7364 C   0  0  0  0  0  0  0  0  0  0  0  0
   -1.1643   -2.7409   -0.6902 H   0  0  0  0  0  0  0  0  0  0  0  0
   -2.2024   -3.6787   -1.7983 H   0  0  0  0  0  0  0  0  0  0  0  0
   -1.8448   -4.3101   -0.1494 H   0  0  0  0  0  0  0  0  0  0  0  0
    3.0174   -0.1839   -0.3261 C   0  0  0  0  0  0  0  0  0  0  0  0
    3.6393   -1.4474   -0.1733 C   0  0  0  0  0  0  0  0  0  0  0  0
    4.7046   -1.7661   -1.0354 C   0  0  0  0  0  0  0  0  0  0  0  0
    5.2066   -2.7393   -0.9262 H   0  0  0  0  0  0  0  0  0  0  0  0
    5.1333   -0.8718   -2.0227 C   0  0  0  0  0  0  0  0  0  0  0  0
    5.9728   -1.1381   -2.6829 H   0  0  0  0  0  0  0  0  0  0  0  0
    4.4798    0.3559   -2.1793 C   0  0  0  0  0  0  0  0  0  0  0  0
    4.8025    1.0450   -2.9743 H   0  0  0  0  0  0  0  0  0  0  0  0
    3.4056    0.7241   -1.3487 C   0  0  0  0  0  0  0  0  0  0  0  0
    3.1406   -2.4589    0.8456 C   0  0  0  0  0  0  0  0  0  0  0  0
    2.4670   -1.9297    1.5475 H   0  0  0  0  0  0  0  0  0  0  0  0
    2.2885   -3.5254    0.1336 C   0  0  0  0  0  0  0  0  0  0  0  0
    1.8153   -4.2041    0.8715 H   0  0  0  0  0  0  0  0  0  0  0  0
    2.9082   -4.1319   -0.5601 H   0  0  0  0  0  0  0  0  0  0  0  0
    1.4814   -3.0483   -0.4560 H   0  0  0  0  0  0  0  0  0  0  0  0
    4.2675   -3.0908    1.6744 C   0  0  0  0  0  0  0  0  0  0  0  0
    4.8821   -2.3191    2.1810 H   0  0  0  0  0  0  0  0  0  0  0  0
    4.9483   -3.7106    1.0542 H   0  0  0  0  0  0  0  0  0  0  0  0
    3.8412   -3.7547    2.4538 H   0  0  0  0  0  0  0  0  0  0  0  0
    2.6803    2.0464   -1.5811 C   0  0  0  0  0  0  0  0  0  0  0  0
    1.7270    1.9975   -1.0169 H   0  0  0  0  0  0  0  0  0  0  0  0
    2.3087    2.2376   -3.0602 C   0  0  0  0  0  0  0  0  0  0  0  0
    1.6852    3.1458   -3.1860 H   0  0  0  0  0  0  0  0  0  0  0  0
    1.7333    1.3670   -3.4296 H   0  0  0  0  0  0  0  0  0  0  0  0
    3.2059    2.3636   -3.7007 H   0  0  0  0  0  0  0  0  0  0  0  0
    3.4929    3.2434   -1.0578 C   0  0  0  0  0  0  0  0  0  0  0  0
    2.9436    4.1938   -1.2216 H   0  0  0  0  0  0  0  0  0  0  0  0
    4.4679    3.3214   -1.5826 H   0  0  0  0  0  0  0  0  0  0  0  0
    3.7059    3.1564    0.0263 H   0  0  0  0  0  0  0  0  0  0  0  0
  1  2  1  0  0  0  0
  1  9  1  0  0  0  0
  2  3  1  0  0  0  0
  3  4  1  0  0  0  0
  3  5  2  0  0  0  0
  5  6  1  0  0  0  0
  7  8  1  0  0  0  0
  7  5  1  0  0  0  0
  9  7  2  0  0  0  0
 10 11  1  6  0  0  0
 10  9  1  0  0  0  0
 10 14  1  0  0  0  0
 12 13  1  0  0  0  0
 12 10  1  0  0  0  0
 14 17  1  0  0  0  0
 14 16  1  0  0  0  0
 15 14  1  0  0  0  0
 18 19  1  0  0  0  0
 18  2  2  0  0  0  0
 20 18  1  0  0  0  0
 21 12  1  0  0  0  0
 22 30  1  0  0  0  0
 22 21  2  0  0  0  0
 23 22  1  0  0  0  0
 24 23  1  0  0  0  0
 25 23  2  0  0  0  0
 25 27  1  0  0  0  0
 26 25  1  0  0  0  0
 27 29  2  0  0  0  0
 28 27  1  0  0  0  0
 29 21  1  0  0  0  0
 29 40  1  0  0  0  0
 30 36  1  0  0  0  0
 30 31  1  0  0  0  0
 32 33  1  0  0  0  0
 32 30  1  0  0  0  0
 34 32  1  0  0  0  0
 35 32  1  0  0  0  0
 36 37  1  0  0  0  0
 36 38  1  0  0  0  0
 39 36  1  0  0  0  0
 40 41  1  0  0  0  0
 42 40  1  0  0  0  0
 42 43  1  0  0  0  0
 42 44  1  0  0  0  0
 45 42  1  0  0  0  0
 46 47  1  0  0  0  0
 46 40  1  0  0  0  0
 46 49  1  0  0  0  0
 48 46  1  0  0  0  0
 50 51  1  0  0  0  0
 50 20  1  0  0  0  0
 51 59  1  0  0  0  0
 52 53  1  0  0  0  0
 52 51  2  0  0  0  0
 54 52  1  0  0  0  0
 55 54  1  0  0  0  0
 56 54  2  0  0  0  0
 56 58  1  0  0  0  0
 57 56  1  0  0  0  0
 58 50  2  0  0  0  0
 59 60  1  0  0  0  0
 59 65  1  0  0  0  0
 61 59  1  0  0  0  0
 61 62  1  0  0  0  0
 63 61  1  0  0  0  0
 64 61  1  0  0  0  0
 65 66  1  0  0  0  0
 65 68  1  0  0  0  0
 67 65  1  0  0  0  0
 69 58  1  0  0  0  0
 69 75  1  0  0  0  0
 69 70  1  0  0  0  0
 71 69  1  0  0  0  0
 72 71  1  0  0  0  0
 73 71  1  0  0  0  0
 74 71  1  0  0  0  0
 75 78  1  0  0  0  0
 76 75  1  0  0  0  0
 77 75  1  0  0  0  0
M  END
