1,4,5
 OpenBabel05122313063D

 36 39  0  0  1  0  0  0  0  0999 V2000
    0.4369   -1.9650   -0.4164 N   0  0  0  0  0  2  0  0  0  0  0  0
    0.5393    1.9611   -1.1908 C   0  0  2  0  0  3  0  0  0  0  0  0
    1.6441    2.6582   -1.5497 N   0  0  0  0  0  0  0  0  0  0  0  0
   -1.8266    1.8999   -0.7584 N   0  0  0  0  0  2  0  0  0  0  0  0
    0.5642    0.6487   -0.9420 N   0  0  0  0  0  2  0  0  0  0  0  0
    1.1388   -4.2068   -0.9212 C   0  0  0  0  0  0  0  0  0  0  0  0
    0.9097   -5.2820   -0.9138 H   0  0  0  0  0  0  0  0  0  0  0  0
    2.8062    2.0833   -1.3326 N   0  0  0  0  0  0  0  0  0  0  0  0
    4.2490    0.3857   -0.4297 C   0  0  0  0  0  0  0  0  0  0  0  0
   -0.8985    4.0088   -1.4857 C   0  0  0  0  0  0  0  0  0  0  0  0
   -0.0023    4.5709   -1.7814 H   0  0  0  0  0  0  0  0  0  0  0  0
    1.6113   -1.4873   -0.8842 C   0  0  2  0  0  3  0  0  0  0  0  0
    2.9097    0.8024   -0.9098 C   0  0  0  0  0  0  0  0  0  0  0  0
   -3.0439    2.4544   -0.7160 C   0  0  0  0  0  3  0  0  0  0  0  0
   -3.8672    1.7880   -0.4055 H   0  0  0  0  0  0  0  0  0  0  0  0
   -0.7720    2.6507   -1.1414 C   0  0  0  0  0  0  0  0  0  0  0  0
    4.2933   -0.7005    0.3675 N   0  0  0  0  0  0  0  0  0  0  0  0
    1.7290   -0.0050   -0.8959 C   0  0  0  0  0  0  0  0  0  0  0  0
    2.3504   -3.7200   -1.4343 C   0  0  0  0  0  0  0  0  0  0  0  0
    3.0996   -4.4088   -1.8522 H   0  0  0  0  0  0  0  0  0  0  0  0
    0.2037   -3.2848   -0.4275 C   0  0  0  0  0  0  0  0  0  0  0  0
   -0.7817   -3.6028   -0.0455 H   0  0  0  0  0  0  0  0  0  0  0  0
   -3.2675    3.8007   -1.0517 C   0  0  0  0  0  0  0  0  0  0  0  0
   -4.2839    4.2173   -1.0045 H   0  0  0  0  0  0  0  0  0  0  0  0
    6.6733   -0.3737    0.6176 C   0  0  0  0  0  0  0  0  0  0  0  0
    7.6195   -0.7164    1.0619 H   0  0  0  0  0  0  0  0  0  0  0  0
    5.3931    1.1496   -0.7495 C   0  0  0  0  0  0  0  0  0  0  0  0
    5.2876    2.0315   -1.3957 H   0  0  0  0  0  0  0  0  0  0  0  0
   -2.1732    4.5881   -1.4384 C   0  0  0  0  0  0  0  0  0  0  0  0
   -2.3107    5.6476   -1.7014 H   0  0  0  0  0  0  0  0  0  0  0  0
    2.5960   -2.3427   -1.4153 C   0  0  0  0  0  0  0  0  0  0  0  0
    3.5275   -1.9307   -1.8234 H   0  0  0  0  0  0  0  0  0  0  0  0
    5.4752   -1.0640    0.8764 C   0  0  0  0  0  0  0  0  0  0  0  0
    5.4723   -1.9534    1.5311 H   0  0  0  0  0  0  0  0  0  0  0  0
    6.6246    0.7547   -0.2145 C   0  0  0  0  0  0  0  0  0  0  0  0
    7.5382    1.3242   -0.4430 H   0  0  0  0  0  0  0  0  0  0  0  0
  2 16  1  6  0  0  0
  2  5  1  0  0  0  0
  3  8  2  0  0  0  0
  3  2  1  0  0  0  0
  4 14  1  0  0  0  0
  5 18  1  0  0  0  0
  6  7  1  0  0  0  0
  6 21  2  0  0  0  0
  8 13  1  0  0  0  0
  9 17  1  0  0  0  0
 10 29  1  0  0  0  0
 10 16  2  0  0  0  0
 11 10  1  0  0  0  0
 12 18  1  6  0  0  0
 12  1  1  0  0  0  0
 13 18  2  0  0  0  0
 13  9  1  0  0  0  0
 14 15  1  0  0  0  0
 16  4  1  0  0  0  0
 17 33  2  0  0  0  0
 19 31  2  0  0  0  0
 19  6  1  0  0  0  0
 20 19  1  0  0  0  0
 21  1  1  0  0  0  0
 21 22  1  0  0  0  0
 23 24  1  0  0  0  0
 23 14  1  0  0  0  0
 25 33  1  0  0  0  0
 25 26  1  0  0  0  0
 27  9  2  0  0  0  0
 27 35  1  0  0  0  0
 28 27  1  0  0  0  0
 29 23  2  0  0  0  0
 30 29  1  0  0  0  0
 31 12  1  0  0  0  0
 32 31  1  0  0  0  0
 33 34  1  0  0  0  0
 35 25  2  0  0  0  0
 36 35  1  0  0  0  0
M  END
