1,8,16
 OpenBabel05122313063D

 34 34  0  0  0  0  0  0  0  0999 V2000
    0.8328    0.7032   -0.0389 N   0  0  0  0  0  0  0  0  0  0  0  0
    0.5581    1.7174    1.0037 C   0  0  0  0  0  0  0  0  0  0  0  0
    0.1768    2.6403    0.5216 H   0  0  0  0  0  0  0  0  0  0  0  0
    1.4918    2.0230    1.5223 H   0  0  0  0  0  0  0  0  0  0  0  0
   -0.4490    1.2212    2.0467 C   0  0  0  0  0  0  0  0  0  0  0  0
   -0.0052    0.3902    2.6282 H   0  0  0  0  0  0  0  0  0  0  0  0
   -0.6968    2.0554    2.7439 H   0  0  0  0  0  0  0  0  0  0  0  0
   -1.6403    0.6658    1.3875 N   0  0  0  0  0  0  0  0  0  0  0  0
   -2.1600    0.0643    2.0377 H   0  0  0  0  0  0  0  0  0  0  0  0
   -2.5348    1.6353    0.7240 C   0  0  0  0  0  0  0  0  0  0  0  0
   -2.0259    2.6207    0.6971 H   0  0  0  0  0  0  0  0  0  0  0  0
   -3.4680    1.7911    1.3046 H   0  0  0  0  0  0  0  0  0  0  0  0
   -2.8911    1.1829   -0.7018 C   0  0  0  0  0  0  0  0  0  0  0  0
   -3.6050    0.3384   -0.6545 H   0  0  0  0  0  0  0  0  0  0  0  0
   -3.3644    2.0268   -1.2553 H   0  0  0  0  0  0  0  0  0  0  0  0
   -1.6906    0.6645   -1.3729 N   0  0  0  0  0  0  0  0  0  0  0  0
   -1.9515    0.0673   -2.1666 H   0  0  0  0  0  0  0  0  0  0  0  0
   -0.6819    1.6658   -1.7685 C   0  0  0  0  0  0  0  0  0  0  0  0
   -0.9239    2.6224   -1.2625 H   0  0  0  0  0  0  0  0  0  0  0  0
   -0.7303    1.8821   -2.8569 H   0  0  0  0  0  0  0  0  0  0  0  0
    0.7426    1.2234   -1.4160 C   0  0  0  0  0  0  0  0  0  0  0  0
    1.0408    0.3871   -2.0783 H   0  0  0  0  0  0  0  0  0  0  0  0
    1.4359    2.0792   -1.5931 H   0  0  0  0  0  0  0  0  0  0  0  0
    2.0948   -0.0465    0.1967 C   0  0  0  0  0  0  0  0  0  0  0  0
    2.0759   -0.9165   -0.4899 H   0  0  0  0  0  0  0  0  0  0  0  0
    2.0263   -0.4747    1.2162 H   0  0  0  0  0  0  0  0  0  0  0  0
    3.3954    0.7564    0.0116 C   0  0  0  0  0  0  0  0  0  0  0  0
    3.5120    1.0774   -1.0448 H   0  0  0  0  0  0  0  0  0  0  0  0
    3.3563    1.6853    0.6269 H   0  0  0  0  0  0  0  0  0  0  0  0
    4.5928   -0.0517    0.4261 C   0  0  0  0  0  0  0  0  0  0  0  0
    4.6144   -0.3698    1.4853 H   0  0  0  0  0  0  0  0  0  0  0  0
    5.5929   -0.4300   -0.3875 C   0  0  0  0  0  0  0  0  0  0  0  0
    5.6044   -0.1468   -1.4536 H   0  0  0  0  0  0  0  0  0  0  0  0
    6.4350   -1.0375   -0.0216 H   0  0  0  0  0  0  0  0  0  0  0  0
  1 24  1  0  0  0  0
  1  2  1  0  0  0  0
  2  4  1  0  0  0  0
  2  5  1  0  0  0  0
  3  2  1  0  0  0  0
  5  6  1  0  0  0  0
  5  7  1  0  0  0  0
  8  9  1  0  0  0  0
  8  5  1  0  0  0  0
 10 12  1  0  0  0  0
 10  8  1  0  0  0  0
 11 10  1  0  0  0  0
 13 14  1  0  0  0  0
 13 10  1  0  0  0  0
 15 13  1  0  0  0  0
 16 13  1  0  0  0  0
 17 16  1  0  0  0  0
 18 21  1  0  0  0  0
 18 16  1  0  0  0  0
 18 19  1  0  0  0  0
 20 18  1  0  0  0  0
 21  1  1  0  0  0  0
 22 21  1  0  0  0  0
 23 21  1  0  0  0  0
 24 26  1  0  0  0  0
 25 24  1  0  0  0  0
 27 24  1  0  0  0  0
 27 30  1  0  0  0  0
 27 29  1  0  0  0  0
 28 27  1  0  0  0  0
 30 31  1  0  0  0  0
 32 34  1  0  0  0  0
 32 30  2  0  0  0  0
 33 32  1  0  0  0  0
M  END
