1,2,4
 OpenBabel05122313063D

 31 31  0  0  0  0  0  0  0  0999 V2000
   -1.1969    0.3918   -0.2632 N   0  0  0  0  0  0  0  0  0  0  0  0
    0.9917    0.8092    1.5096 N   0  0  0  0  0  0  0  0  0  0  0  0
    1.5264    0.3065    2.2280 H   0  0  0  0  0  0  0  0  0  0  0  0
    1.4341    0.9168   -1.2150 N   0  0  0  0  0  0  0  0  0  0  0  0
    1.9238    0.4141   -1.9648 H   0  0  0  0  0  0  0  0  0  0  0  0
   -4.6683   -0.0501    0.4566 C   0  0  0  0  0  0  0  0  0  0  0  0
   -4.5182   -0.4967    1.4545 H   0  0  0  0  0  0  0  0  0  0  0  0
   -5.6678    0.3556    0.2338 H   0  0  0  0  0  0  0  0  0  0  0  0
    2.3934    1.6433   -0.3709 C   0  0  0  0  0  0  0  0  0  0  0  0
    2.7580    2.5844   -0.8442 H   0  0  0  0  0  0  0  0  0  0  0  0
    3.2510    0.9595   -0.2229 H   0  0  0  0  0  0  0  0  0  0  0  0
   -2.3080   -0.6081   -0.2112 C   0  0  0  0  0  0  0  0  0  0  0  0
   -2.2421   -1.1129    0.7724 H   0  0  0  0  0  0  0  0  0  0  0  0
   -2.0461   -1.3804   -0.9656 H   0  0  0  0  0  0  0  0  0  0  0  0
   -0.3715    1.0885    1.9896 C   0  0  0  0  0  0  0  0  0  0  0  0
   -0.4015    1.9306    2.7197 H   0  0  0  0  0  0  0  0  0  0  0  0
   -0.7126    0.1653    2.4965 H   0  0  0  0  0  0  0  0  0  0  0  0
    0.3078    1.7062   -1.7494 C   0  0  0  0  0  0  0  0  0  0  0  0
    0.4649    1.9656   -2.8179 H   0  0  0  0  0  0  0  0  0  0  0  0
    0.2725    2.6732   -1.2080 H   0  0  0  0  0  0  0  0  0  0  0  0
   -1.2975    1.4060    0.8120 C   0  0  0  0  0  0  0  0  0  0  0  0
   -2.3450    1.4909    1.1729 H   0  0  0  0  0  0  0  0  0  0  0  0
   -1.0478    2.4020    0.3939 H   0  0  0  0  0  0  0  0  0  0  0  0
    1.7506    1.9638    0.9885 C   0  0  0  0  0  0  0  0  0  0  0  0
    2.5379    2.2880    1.7006 H   0  0  0  0  0  0  0  0  0  0  0  0
    1.0568    2.8238    0.8903 H   0  0  0  0  0  0  0  0  0  0  0  0
   -1.0297    0.9701   -1.6104 C   0  0  0  0  0  0  0  0  0  0  0  0
   -1.8539    1.6727   -1.8769 H   0  0  0  0  0  0  0  0  0  0  0  0
   -1.0511    0.1159   -2.3151 H   0  0  0  0  0  0  0  0  0  0  0  0
   -3.6766   -0.0363   -0.4525 C   0  0  0  0  0  0  0  0  0  0  0  0
   -3.8721    0.4033   -1.4479 H   0  0  0  0  0  0  0  0  0  0  0  0
  1 12  1  0  0  0  0
  1 21  1  0  0  0  0
  2 15  1  0  0  0  0
  2  3  1  0  0  0  0
  4  9  1  0  0  0  0
  5  4  1  0  0  0  0
  6  7  1  0  0  0  0
  8  6  1  0  0  0  0
  9 11  1  0  0  0  0
  9 24  1  0  0  0  0
 10  9  1  0  0  0  0
 12 13  1  0  0  0  0
 14 12  1  0  0  0  0
 15 17  1  0  0  0  0
 15 16  1  0  0  0  0
 18 27  1  0  0  0  0
 18  4  1  0  0  0  0
 18 20  1  0  0  0  0
 19 18  1  0  0  0  0
 21 22  1  0  0  0  0
 21 15  1  0  0  0  0
 23 21  1  0  0  0  0
 24  2  1  0  0  0  0
 24 25  1  0  0  0  0
 26 24  1  0  0  0  0
 27  1  1  0  0  0  0
 28 27  1  0  0  0  0
 29 27  1  0  0  0  0
 30 12  1  0  0  0  0
 30  6  2  0  0  0  0
 31 30  1  0  0  0  0
M  END
