1,2,3
 OpenBabel05122313063D

 39 38  0  0  0  0  0  0  0  0999 V2000
   -0.9015    0.2762    2.0444 N   0  0  0  0  0  2  0  0  0  0  0  0
   -1.5396   -2.1012   -0.5478 N   0  0  0  0  0  2  0  0  0  0  0  0
   -3.2437   -0.5818    0.9729 N   0  0  0  0  0  0  0  0  0  0  0  0
   -3.8325   -1.6371    0.1319 C   0  0  0  0  0  0  0  0  0  0  0  0
   -2.8024   -2.7172   -0.1787 C   0  0  0  0  0  0  0  0  0  0  0  0
   -2.9151   -1.0412    2.3362 C   0  0  0  0  0  0  0  0  0  0  0  0
   -1.9435   -0.0664    2.9934 C   0  0  0  0  0  0  0  0  0  0  0  0
   -4.0805    0.6181    1.0015 C   0  0  0  0  0  0  0  0  0  0  0  0
   -1.1260   -3.2125   -2.7487 C   0  0  0  0  0  0  0  0  0  0  0  0
   -0.6387   -2.9839   -1.3070 C   0  0  0  0  0  0  0  0  0  0  0  0
   -0.3566   -4.3188   -0.5970 C   0  0  0  0  0  0  0  0  0  0  0  0
    0.2701    0.9419    2.6340 C   0  0  0  0  0  0  0  0  0  0  0  0
   -0.0995    2.1757    3.4751 C   0  0  0  0  0  0  0  0  0  0  0  0
    1.1651   -0.0277    3.4235 C   0  0  0  0  0  0  0  0  0  0  0  0
   -4.7508   -2.0705    0.6022 H   0  0  0  0  0  0  0  0  0  0  0  0
   -4.1426   -1.1506   -0.8165 H   0  0  0  0  0  0  0  0  0  0  0  0
   -2.7081   -3.4155    0.6928 H   0  0  0  0  0  0  0  0  0  0  0  0
   -3.2237   -3.3491   -0.9978 H   0  0  0  0  0  0  0  0  0  0  0  0
   -3.8409   -1.1762    2.9494 H   0  0  0  0  0  0  0  0  0  0  0  0
   -2.4219   -2.0293    2.2426 H   0  0  0  0  0  0  0  0  0  0  0  0
   -1.5472   -0.5557    3.9169 H   0  0  0  0  0  0  0  0  0  0  0  0
   -2.5014    0.8323    3.3650 H   0  0  0  0  0  0  0  0  0  0  0  0
   -3.5540    1.4352    1.5296 H   0  0  0  0  0  0  0  0  0  0  0  0
   -5.0544    0.4308    1.5150 H   0  0  0  0  0  0  0  0  0  0  0  0
   -4.2881    0.9548   -0.0319 H   0  0  0  0  0  0  0  0  0  0  0  0
   -1.2352   -2.2445   -3.2788 H   0  0  0  0  0  0  0  0  0  0  0  0
   -2.1047   -3.7369   -2.7834 H   0  0  0  0  0  0  0  0  0  0  0  0
   -0.4029   -3.8324   -3.3178 H   0  0  0  0  0  0  0  0  0  0  0  0
    0.3204   -2.4344   -1.3743 H   0  0  0  0  0  0  0  0  0  0  0  0
   -0.0486   -4.1424    0.4539 H   0  0  0  0  0  0  0  0  0  0  0  0
   -1.2453   -4.9843   -0.5842 H   0  0  0  0  0  0  0  0  0  0  0  0
    0.4627   -4.8672   -1.1046 H   0  0  0  0  0  0  0  0  0  0  0  0
    0.8703    1.3080    1.7779 H   0  0  0  0  0  0  0  0  0  0  0  0
   -0.7667    2.8570    2.9063 H   0  0  0  0  0  0  0  0  0  0  0  0
    0.8117    2.7447    3.7493 H   0  0  0  0  0  0  0  0  0  0  0  0
   -0.6172    1.9046    4.4190 H   0  0  0  0  0  0  0  0  0  0  0  0
    1.4817   -0.8673    2.7739 H   0  0  0  0  0  0  0  0  0  0  0  0
    2.0772    0.4850    3.7931 H   0  0  0  0  0  0  0  0  0  0  0  0
    0.6415   -0.4497    4.3076 H   0  0  0  0  0  0  0  0  0  0  0  0
  1 12  1  0  0  0  0
  1  7  1  0  0  0  0
  2  5  1  0  0  0  0
  3  8  1  0  0  0  0
  3  6  1  0  0  0  0
  4 15  1  0  0  0  0
  4  3  1  0  0  0  0
  5  4  1  0  0  0  0
  5 17  1  0  0  0  0
  6 19  1  0  0  0  0
  6  7  1  0  0  0  0
  7 22  1  0  0  0  0
  7 21  1  0  0  0  0
  8 24  1  0  0  0  0
  8 23  1  0  0  0  0
  9 10  1  0  0  0  0
 10 11  1  0  0  0  0
 10  2  1  0  0  0  0
 11 31  1  0  0  0  0
 11 30  1  0  0  0  0
 12 14  1  0  0  0  0
 12 13  1  0  0  0  0
 13 35  1  0  0  0  0
 13 36  1  0  0  0  0
 14 38  1  0  0  0  0
 14 39  1  0  0  0  0
 16  4  1  0  0  0  0
 18  5  1  0  0  0  0
 20  6  1  0  0  0  0
 25  8  1  0  0  0  0
 26  9  1  0  0  0  0
 27  9  1  0  0  0  0
 28  9  1  0  0  0  0
 29 10  1  0  0  0  0
 32 11  1  0  0  0  0
 33 12  1  0  0  0  0
 34 13  1  0  0  0  0
 37 14  1  0  0  0  0
M  END
