3,4,5
 OpenBabel05122313063D

 41 42  0  0  1  0  0  0  0  0999 V2000
    2.0873   -1.4480    0.0202 O   0  0  0  0  0  0  0  0  0  0  0  0
    3.2902    1.2307    0.4355 O   0  0  0  0  0  0  0  0  0  0  0  0
   -1.5872    0.2892    0.0203 N   0  0  0  0  0  2  0  0  0  0  0  0
   -0.5839   -1.8923   -0.2157 N   0  0  0  0  0  2  0  0  0  0  0  0
    0.3623    1.7994   -0.1160 N   0  0  0  0  0  2  0  0  0  0  0  0
   -4.2652    0.9485    0.3568 C   0  0  0  0  0  0  0  0  0  0  0  0
   -3.8907   -0.3930    0.1859 C   0  0  0  0  0  0  0  0  0  0  0  0
   -2.5313   -0.7151    0.0243 C   0  0  0  0  0  0  0  0  0  0  0  0
   -1.8999   -2.0072   -0.1528 C   0  0  0  0  0  0  0  0  0  0  0  0
   -2.6469   -3.2990   -0.2938 C   0  0  0  0  0  0  0  0  0  0  0  0
    0.3229   -2.9899   -0.4745 C   0  0  0  0  0  0  0  0  0  0  0  0
    1.5794   -2.7483    0.3403 C   0  0  0  0  0  0  0  0  0  0  0  0
    3.2195   -1.1476    0.8577 C   0  0  0  0  0  0  0  0  0  0  0  0
    4.0050    0.0220    0.3074 C   0  0  0  0  0  0  0  0  0  0  0  0
    2.7752    1.7710   -0.7645 C   0  0  0  0  0  0  0  0  0  0  0  0
    1.5498    2.5924   -0.4303 C   0  0  0  0  0  0  0  0  0  0  0  0
   -0.7692    2.4601    0.0658 C   0  0  1  0  0  3  0  0  0  0  0  0
   -0.8670    3.9557    0.0810 C   0  0  0  0  0  0  0  0  0  0  0  0
   -1.9370    1.6047    0.1741 C   0  0  0  0  0  0  0  0  0  0  0  0
   -3.2867    1.9559    0.3543 C   0  0  0  0  0  0  0  0  0  0  0  0
   -5.3238    1.2109    0.4934 H   0  0  0  0  0  0  0  0  0  0  0  0
   -4.6452   -1.1915    0.1832 H   0  0  0  0  0  0  0  0  0  0  0  0
   -2.2992   -4.0537    0.4415 H   0  0  0  0  0  0  0  0  0  0  0  0
   -3.7304   -3.1546   -0.1348 H   0  0  0  0  0  0  0  0  0  0  0  0
   -2.5108   -3.7340   -1.3063 H   0  0  0  0  0  0  0  0  0  0  0  0
   -0.1062   -3.9813   -0.2176 H   0  0  0  0  0  0  0  0  0  0  0  0
    0.5660   -2.9789   -1.5604 H   0  0  0  0  0  0  0  0  0  0  0  0
    2.3521   -3.5150    0.1049 H   0  0  0  0  0  0  0  0  0  0  0  0
    1.3417   -2.7935    1.4278 H   0  0  0  0  0  0  0  0  0  0  0  0
    2.8589   -0.9270    1.8873 H   0  0  0  0  0  0  0  0  0  0  0  0
    3.8804   -2.0442    0.8855 H   0  0  0  0  0  0  0  0  0  0  0  0
    4.2915   -0.1769   -0.7506 H   0  0  0  0  0  0  0  0  0  0  0  0
    4.9457    0.0993    0.8990 H   0  0  0  0  0  0  0  0  0  0  0  0
    3.5235    2.4472   -1.2486 H   0  0  0  0  0  0  0  0  0  0  0  0
    2.5042    0.9842   -1.5023 H   0  0  0  0  0  0  0  0  0  0  0  0
    1.3255    3.2577   -1.2934 H   0  0  0  0  0  0  0  0  0  0  0  0
    1.7960    3.2519    0.4320 H   0  0  0  0  0  0  0  0  0  0  0  0
   -0.1539    4.3941    0.8086 H   0  0  0  0  0  0  0  0  0  0  0  0
   -0.6153    4.3839   -0.9128 H   0  0  0  0  0  0  0  0  0  0  0  0
   -1.8825    4.2967    0.3477 H   0  0  0  0  0  0  0  0  0  0  0  0
   -3.5667    3.0094    0.4887 H   0  0  0  0  0  0  0  0  0  0  0  0
  1 12  1  0  0  0  0
  1 13  1  0  0  0  0
  3  8  1  0  0  0  0
  3 19  1  0  0  0  0
  4  9  1  0  0  0  0
  5 17  1  0  0  0  0
  6 21  1  0  0  0  0
  7  6  2  0  0  0  0
  8  7  1  0  0  0  0
  9  8  2  0  0  0  0
 10  9  1  0  0  0  0
 10 24  1  0  0  0  0
 10 23  1  0  0  0  0
 11 26  1  0  0  0  0
 11  4  1  0  0  0  0
 11 12  1  0  0  0  0
 12 29  1  0  0  0  0
 13 31  1  0  0  0  0
 13 30  1  0  0  0  0
 14  2  1  0  0  0  0
 14 13  1  0  0  0  0
 14 33  1  0  0  0  0
 15 16  1  0  0  0  0
 15  2  1  0  0  0  0
 16  5  1  0  0  0  0
 16 37  1  0  0  0  0
 17 18  1  6  0  0  0
 17 19  1  0  0  0  0
 18 40  1  0  0  0  0
 18 38  1  0  0  0  0
 19 20  2  0  0  0  0
 20  6  1  0  0  0  0
 20 41  1  0  0  0  0
 22  7  1  0  0  0  0
 25 10  1  0  0  0  0
 27 11  1  0  0  0  0
 28 12  1  0  0  0  0
 32 14  1  0  0  0  0
 34 15  1  0  0  0  0
 35 15  1  0  0  0  0
 36 16  1  0  0  0  0
 39 18  1  0  0  0  0
M  END
