2,15,20
 OpenBabel05122313063D

 35 38  0  0  0  0  0  0  0  0999 V2000
    2.4041   -1.5272    0.0046 N   0  0  0  0  0  2  0  0  0  0  0  0
    0.0003   -1.0013   -0.0011 N   0  0  0  0  0  0  0  0  0  0  0  0
   -4.3113    2.1651   -0.0093 C   0  0  0  0  0  0  0  0  0  0  0  0
   -4.7894    3.1541   -0.0096 H   0  0  0  0  0  0  0  0  0  0  0  0
   -2.4032   -1.5284   -0.0079 N   0  0  0  0  0  2  0  0  0  0  0  0
    0.7025   -3.2396   -0.0011 C   0  0  0  0  0  0  0  0  0  0  0  0
    2.9193    2.0623    0.0104 C   0  0  0  0  0  3  0  0  0  0  0  0
    2.2893    2.9669    0.0106 H   0  0  0  0  0  0  0  0  0  0  0  0
    1.4336   -4.4311   -0.0001 C   0  0  0  0  0  0  0  0  0  0  0  0
    2.5331   -4.4082    0.0028 H   0  0  0  0  0  0  0  0  0  0  0  0
   -4.3935   -0.2445   -0.0116 C   0  0  0  0  0  0  0  0  0  0  0  0
   -4.9195   -1.2082   -0.0137 H   0  0  0  0  0  0  0  0  0  0  0  0
   -1.4313   -4.4318   -0.0078 C   0  0  0  0  0  0  0  0  0  0  0  0
   -2.5307   -4.4094   -0.0107 H   0  0  0  0  0  0  0  0  0  0  0  0
   -2.2579    0.8818   -0.0056 N   0  0  0  0  0  2  0  0  0  0  0  0
    1.1294   -1.8222    0.0012 C   0  0  0  0  0  0  0  0  0  0  0  0
    5.0628    0.9769    0.0127 C   0  0  0  0  0  0  0  0  0  0  0  0
    6.1629    1.0086    0.0147 H   0  0  0  0  0  0  0  0  0  0  0  0
   -1.1284   -1.8227   -0.0048 C   0  0  0  0  0  0  0  0  0  0  0  0
    2.2575    0.8829    0.0074 N   0  0  0  0  0  2  0  0  0  0  0  0
   -0.7008   -3.2400   -0.0048 C   0  0  0  0  0  3  0  0  0  0  0  0
    2.9707   -0.2838    0.0071 C   0  0  0  0  0  0  0  0  0  0  0  0
   -5.0632    0.9743   -0.0121 C   0  0  0  0  0  0  0  0  0  0  0  0
   -6.1634    1.0054   -0.0146 H   0  0  0  0  0  0  0  0  0  0  0  0
    4.3937   -0.2422    0.0097 C   0  0  0  0  0  0  0  0  0  0  0  0
    4.9203   -1.2056    0.0094 H   0  0  0  0  0  0  0  0  0  0  0  0
   -0.7043   -5.6361   -0.0068 C   0  0  0  0  0  0  0  0  0  0  0  0
   -1.2420   -6.5965   -0.0090 H   0  0  0  0  0  0  0  0  0  0  0  0
    0.7073   -5.6357   -0.0030 C   0  0  0  0  0  0  0  0  0  0  0  0
    1.2454   -6.5959   -0.0023 H   0  0  0  0  0  0  0  0  0  0  0  0
    4.3102    2.1673    0.0131 C   0  0  0  0  0  0  0  0  0  0  0  0
    4.7878    3.1566    0.0155 H   0  0  0  0  0  0  0  0  0  0  0  0
   -2.9203    2.0608   -0.0061 C   0  0  0  0  0  3  0  0  0  0  0  0
   -2.2909    2.9657   -0.0039 H   0  0  0  0  0  0  0  0  0  0  0  0
   -2.9704   -0.2852   -0.0083 C   0  0  0  0  0  0  0  0  0  0  0  0
  1 22  1  0  0  0  0
  2 16  1  0  0  0  0
  3 33  1  0  0  0  0
  4  3  1  0  0  0  0
  5 19  1  0  0  0  0
  6  9  1  0  0  0  0
  6 16  2  0  0  0  0
  7  8  1  0  0  0  0
  7 31  1  0  0  0  0
  9 10  1  0  0  0  0
 11 35  2  0  0  0  0
 12 11  1  0  0  0  0
 13 27  2  0  0  0  0
 13 21  1  0  0  0  0
 14 13  1  0  0  0  0
 16  1  1  0  0  0  0
 17 31  2  0  0  0  0
 17 18  1  0  0  0  0
 19  2  2  0  0  0  0
 20  7  1  0  0  0  0
 21 19  1  0  0  0  0
 21  6  1  0  0  0  0
 22 20  1  0  0  0  0
 22 25  2  0  0  0  0
 23 11  1  0  0  0  0
 23  3  2  0  0  0  0
 24 23  1  0  0  0  0
 25 17  1  0  0  0  0
 26 25  1  0  0  0  0
 27 29  1  0  0  0  0
 28 27  1  0  0  0  0
 29 30  1  0  0  0  0
 29  9  2  0  0  0  0
 31 32  1  0  0  0  0
 33 15  1  0  0  0  0
 33 34  1  0  0  0  0
 35  5  1  0  0  0  0
 35 15  1  0  0  0  0
M  END
