1,2,3
 OpenBabel05122313063D

 39 38  0  0  1  0  0  0  0  0999 V2000
    2.0367    1.2198   -0.6923 N   0  0  0  0  0  2  0  0  0  0  0  0
   -0.3057    1.9008    0.4564 N   0  0  0  0  0  2  0  0  0  0  0  0
   -1.6326   -0.1077   -0.9245 N   0  0  0  0  0  2  0  0  0  0  0  0
    3.0771    1.6620   -2.8876 C   0  0  0  0  0  0  0  0  0  0  0  0
    4.5584    1.2843   -0.8578 C   0  0  0  0  0  0  0  0  0  0  0  0
    3.2206    0.9529   -1.5334 C   0  0  0  0  0  0  0  0  0  0  0  0
    1.9502    2.4093   -0.0267 C   0  0  0  0  0  0  0  0  0  0  0  0
    0.7710    2.7693    0.5971 C   0  0  0  0  0  0  0  0  0  0  0  0
   -1.5522    2.2411    0.8477 C   0  0  1  0  0  3  0  0  0  0  0  0
   -1.7573    3.5152    1.6322 C   0  0  0  0  0  0  0  0  0  0  0  0
   -2.7032    1.4973    0.4877 C   0  0  0  0  0  0  0  0  0  0  0  0
   -2.7590    0.4399   -0.4377 C   0  0  0  0  0  0  0  0  0  0  0  0
   -4.1377   -0.0330   -0.9624 C   0  0  0  0  0  0  0  0  0  0  0  0
   -5.0937   -0.3290    0.2128 C   0  0  0  0  0  0  0  0  0  0  0  0
   -4.7304    1.0926   -1.8420 C   0  0  0  0  0  0  0  0  0  0  0  0
   -4.0136   -1.3104   -1.8134 C   0  0  0  0  0  0  0  0  0  0  0  0
   -1.8100   -0.8095   -1.6525 H   0  0  0  0  0  0  0  0  0  0  0  0
    3.9286    1.4227   -3.5573 H   0  0  0  0  0  0  0  0  0  0  0  0
    3.0440    2.7632   -2.7503 H   0  0  0  0  0  0  0  0  0  0  0  0
    2.1399    1.3455   -3.3854 H   0  0  0  0  0  0  0  0  0  0  0  0
    4.6404    0.7988    0.1345 H   0  0  0  0  0  0  0  0  0  0  0  0
    4.7010    2.3755   -0.7162 H   0  0  0  0  0  0  0  0  0  0  0  0
    5.3982    0.9275   -1.4870 H   0  0  0  0  0  0  0  0  0  0  0  0
    3.2098   -0.1387   -1.7313 H   0  0  0  0  0  0  0  0  0  0  0  0
    2.8185    3.0895    0.0163 H   0  0  0  0  0  0  0  0  0  0  0  0
    0.6694    3.7330    1.1140 H   0  0  0  0  0  0  0  0  0  0  0  0
   -2.8075    3.6159    1.9606 H   0  0  0  0  0  0  0  0  0  0  0  0
   -1.5043    4.4074    1.0197 H   0  0  0  0  0  0  0  0  0  0  0  0
   -1.1027    3.5477    2.5287 H   0  0  0  0  0  0  0  0  0  0  0  0
   -3.6559    1.8861    0.8690 H   0  0  0  0  0  0  0  0  0  0  0  0
   -5.2697    0.5639    0.8431 H   0  0  0  0  0  0  0  0  0  0  0  0
   -4.6935   -1.1316    0.8636 H   0  0  0  0  0  0  0  0  0  0  0  0
   -6.0791   -0.6609   -0.1744 H   0  0  0  0  0  0  0  0  0  0  0  0
   -4.8767    2.0231   -1.2593 H   0  0  0  0  0  0  0  0  0  0  0  0
   -5.7132    0.7856   -2.2568 H   0  0  0  0  0  0  0  0  0  0  0  0
   -4.0554    1.3281   -2.6894 H   0  0  0  0  0  0  0  0  0  0  0  0
   -3.5680   -2.1489   -1.2397 H   0  0  0  0  0  0  0  0  0  0  0  0
   -3.4068   -1.1508   -2.7290 H   0  0  0  0  0  0  0  0  0  0  0  0
   -5.0182   -1.6334   -2.1511 H   0  0  0  0  0  0  0  0  0  0  0  0
  1  7  1  0  0  0  0
  2  8  1  0  0  0  0
  3 12  1  0  0  0  0
  4 19  1  0  0  0  0
  4  6  1  0  0  0  0
  5 22  1  0  0  0  0
  5 21  1  0  0  0  0
  6  5  1  0  0  0  0
  6  1  1  0  0  0  0
  7 25  1  0  0  0  0
  7  8  2  0  0  0  0
  8 26  1  0  0  0  0
  9  2  1  6  0  0  0
  9 10  1  0  0  0  0
 10 27  1  0  0  0  0
 10 29  1  0  0  0  0
 11  9  1  0  0  0  0
 11 30  1  0  0  0  0
 12 11  2  0  0  0  0
 13 12  1  0  0  0  0
 13 14  1  0  0  0  0
 14 31  1  0  0  0  0
 14 32  1  0  0  0  0
 15 34  1  0  0  0  0
 15 13  1  0  0  0  0
 16 37  1  0  0  0  0
 16 13  1  0  0  0  0
 17  3  1  0  0  0  0
 18  4  1  0  0  0  0
 20  4  1  0  0  0  0
 23  5  1  0  0  0  0
 24  6  1  0  0  0  0
 28 10  1  0  0  0  0
 33 14  1  0  0  0  0
 35 15  1  0  0  0  0
 36 15  1  0  0  0  0
 38 16  1  0  0  0  0
 39 16  1  0  0  0  0
M  END
