2,3,4
 OpenBabel05122313063D

 66 68  0  0  1  0  0  0  0  0999 V2000
    2.2530   -1.2288    2.2256 O   0  0  0  0  0  0  0  0  0  0  0  0
   -2.0769   -0.4755    1.4142 N   0  0  0  0  0  0  0  0  0  0  0  0
   -3.6454   -1.1911   -0.7699 N   0  0  0  0  0  2  0  0  0  0  0  0
   -1.9937    1.8313   -0.1523 N   0  0  0  0  0  2  0  0  0  0  0  0
    2.0873   -0.8047   -0.0370 N   0  0  0  0  0  0  0  0  0  0  0  0
    1.4006   -0.6935   -0.8125 H   0  0  0  0  0  0  0  0  0  0  0  0
   -2.8733   -1.6897    1.5010 C   0  0  0  0  0  0  0  0  0  0  0  0
   -3.3268   -1.8543    2.5100 H   0  0  0  0  0  0  0  0  0  0  0  0
   -2.1927   -2.5486    1.3220 H   0  0  0  0  0  0  0  0  0  0  0  0
   -3.9565   -1.7403    0.4373 C   0  0  2  0  0  3  0  0  0  0  0  0
   -5.1900   -2.3636    0.6666 C   0  0  0  0  0  0  0  0  0  0  0  0
   -5.4070   -2.7801    1.6622 H   0  0  0  0  0  0  0  0  0  0  0  0
   -6.1285   -2.4515   -0.3733 C   0  0  0  0  0  0  0  0  0  0  0  0
   -7.1004   -2.9405   -0.2119 H   0  0  0  0  0  0  0  0  0  0  0  0
   -5.7959   -1.9002   -1.6203 C   0  0  0  0  0  0  0  0  0  0  0  0
   -6.4911   -1.9460   -2.4710 H   0  0  0  0  0  0  0  0  0  0  0  0
   -4.5518   -1.2817   -1.7735 C   0  0  0  0  0  0  0  0  0  0  0  0
   -4.2480   -0.8394   -2.7353 H   0  0  0  0  0  0  0  0  0  0  0  0
   -1.5545    2.8933   -0.8573 C   0  0  0  0  0  3  0  0  0  0  0  0
   -1.3061    2.6908   -1.9121 H   0  0  0  0  0  0  0  0  0  0  0  0
   -1.3881    4.1575   -0.2792 C   0  0  0  0  0  0  0  0  0  0  0  0
   -1.0349    4.9992   -0.8923 H   0  0  0  0  0  0  0  0  0  0  0  0
   -1.6577    4.3147    1.0886 C   0  0  0  0  0  0  0  0  0  0  0  0
   -1.5197    5.2889    1.5805 H   0  0  0  0  0  0  0  0  0  0  0  0
   -2.0840    3.1989    1.8260 C   0  0  0  0  0  0  0  0  0  0  0  0
   -2.2844    3.2739    2.9054 H   0  0  0  0  0  0  0  0  0  0  0  0
   -2.2513    1.9715    1.1708 C   0  0  0  0  0  0  0  0  0  0  0  0
   -2.7718    0.7263    1.8664 C   0  0  0  0  0  0  0  0  0  0  0  0
   -2.7280    0.8615    2.9753 H   0  0  0  0  0  0  0  0  0  0  0  0
   -3.8463    0.6155    1.5996 H   0  0  0  0  0  0  0  0  0  0  0  0
   -0.6991   -0.5699    1.9104 C   0  0  0  0  0  0  0  0  0  0  0  0
   -0.6580   -0.7630    3.0101 H   0  0  0  0  0  0  0  0  0  0  0  0
   -0.2479    0.4319    1.7543 H   0  0  0  0  0  0  0  0  0  0  0  0
    0.1291   -1.6124    1.1429 C   0  0  0  0  0  0  0  0  0  0  0  0
    0.0406   -2.6178    1.6022 H   0  0  0  0  0  0  0  0  0  0  0  0
   -0.2391   -1.6581    0.0958 H   0  0  0  0  0  0  0  0  0  0  0  0
    1.6054   -1.2175    1.1768 C   0  0  0  0  0  0  0  0  0  0  0  0
    3.3842   -0.2359   -0.2202 C   0  0  0  0  0  0  0  0  0  0  0  0
    3.4790    1.1665   -0.4303 C   0  0  0  0  0  0  0  0  0  0  0  0
    4.7521    1.7241   -0.6388 C   0  0  0  0  0  0  0  0  0  0  0  0
    4.8503    2.8062   -0.8086 H   0  0  0  0  0  0  0  0  0  0  0  0
    5.9018    0.9220   -0.6194 C   0  0  0  0  0  0  0  0  0  0  0  0
    6.8922    1.3766   -0.7762 H   0  0  0  0  0  0  0  0  0  0  0  0
    5.7898   -0.4549   -0.4024 C   0  0  0  0  0  0  0  0  0  0  0  0
    6.6970   -1.0785   -0.3903 H   0  0  0  0  0  0  0  0  0  0  0  0
    4.5336   -1.0636   -0.2109 C   0  0  0  0  0  0  0  0  0  0  0  0
    2.2291    2.0356   -0.3431 C   0  0  0  0  0  0  0  0  0  0  0  0
    1.3776    1.4390   -0.7333 H   0  0  0  0  0  0  0  0  0  0  0  0
    2.3021    3.3091   -1.1920 C   0  0  0  0  0  0  0  0  0  0  0  0
    3.0740    4.0169   -0.8236 H   0  0  0  0  0  0  0  0  0  0  0  0
    1.3321    3.8443   -1.1577 H   0  0  0  0  0  0  0  0  0  0  0  0
    2.5262    3.0763   -2.2522 H   0  0  0  0  0  0  0  0  0  0  0  0
    1.9334    2.3674    1.1341 C   0  0  0  0  0  0  0  0  0  0  0  0
    1.9296    1.4563    1.7647 H   0  0  0  0  0  0  0  0  0  0  0  0
    0.9526    2.8768    1.2381 H   0  0  0  0  0  0  0  0  0  0  0  0
    2.7145    3.0413    1.5445 H   0  0  0  0  0  0  0  0  0  0  0  0
    4.4386   -2.5672    0.0068 C   0  0  0  0  0  0  0  0  0  0  0  0
    3.3640   -2.8340   -0.0559 H   0  0  0  0  0  0  0  0  0  0  0  0
    5.1717   -3.3606   -1.0868 C   0  0  0  0  0  0  0  0  0  0  0  0
    4.8123   -3.0858   -2.0989 H   0  0  0  0  0  0  0  0  0  0  0  0
    5.0115   -4.4497   -0.9480 H   0  0  0  0  0  0  0  0  0  0  0  0
    6.2674   -3.1856   -1.0589 H   0  0  0  0  0  0  0  0  0  0  0  0
    4.9340   -2.9452    1.4143 C   0  0  0  0  0  0  0  0  0  0  0  0
    6.0112   -2.7018    1.5327 H   0  0  0  0  0  0  0  0  0  0  0  0
    4.8124   -4.0338    1.5947 H   0  0  0  0  0  0  0  0  0  0  0  0
    4.3592   -2.3921    2.1815 H   0  0  0  0  0  0  0  0  0  0  0  0
  2  7  1  0  0  0  0
  2 28  1  0  0  0  0
  2 31  1  0  0  0  0
  3 10  1  0  0  0  0
  4 27  1  0  0  0  0
  5 37  1  0  0  0  0
  6  5  1  0  0  0  0
  7  8  1  0  0  0  0
  9  7  1  0  0  0  0
 10 11  1  0  0  0  0
 10  7  1  6  0  0  0
 11 12  1  0  0  0  0
 13 14  1  0  0  0  0
 13 11  2  0  0  0  0
 15 13  1  0  0  0  0
 16 15  1  0  0  0  0
 17 15  2  0  0  0  0
 17  3  1  0  0  0  0
 18 17  1  0  0  0  0
 19 21  1  0  0  0  0
 19  4  1  0  0  0  0
 20 19  1  0  0  0  0
 21 23  2  0  0  0  0
 22 21  1  0  0  0  0
 23 24  1  0  0  0  0
 23 25  1  0  0  0  0
 25 26  1  0  0  0  0
 27 25  2  0  0  0  0
 27 28  1  0  0  0  0
 28 29  1  0  0  0  0
 30 28  1  0  0  0  0
 31 32  1  0  0  0  0
 33 31  1  0  0  0  0
 34 37  1  0  0  0  0
 34 35  1  0  0  0  0
 34 31  1  0  0  0  0
 36 34  1  0  0  0  0
 37  1  2  0  0  0  0
 38 46  1  0  0  0  0
 38  5  1  0  0  0  0
 39 47  1  0  0  0  0
 39 38  2  0  0  0  0
 40 42  2  0  0  0  0
 40 39  1  0  0  0  0
 41 40  1  0  0  0  0
 42 44  1  0  0  0  0
 43 42  1  0  0  0  0
 44 45  1  0  0  0  0
 44 46  2  0  0  0  0
 46 57  1  0  0  0  0
 47 53  1  0  0  0  0
 48 47  1  0  0  0  0
 49 51  1  0  0  0  0
 49 50  1  0  0  0  0
 49 47  1  0  0  0  0
 52 49  1  0  0  0  0
 53 55  1  0  0  0  0
 53 56  1  0  0  0  0
 53 54  1  0  0  0  0
 57 63  1  0  0  0  0
 58 57  1  0  0  0  0
 59 62  1  0  0  0  0
 59 61  1  0  0  0  0
 59 57  1  0  0  0  0
 60 59  1  0  0  0  0
 63 64  1  0  0  0  0
 63 65  1  0  0  0  0
 63 66  1  0  0  0  0
M  END
