35,36,37
 OpenBabel05122313063D

 39 42  0  0  1  0  0  0  0  0999 V2000
    2.5327   -1.7826    0.8954 C   0  0  0  0  0  0  0  0  0  0  0  0
    2.0477   -2.7576    0.7234 H   0  0  0  0  0  0  0  0  0  0  0  0
    3.7355   -1.6544    1.6293 C   0  0  0  0  0  0  0  0  0  0  0  0
    4.2043   -2.5474    2.0664 H   0  0  0  0  0  0  0  0  0  0  0  0
    4.3003   -0.3949    1.7750 C   0  0  0  0  0  0  0  0  0  0  0  0
    5.2356   -0.2594    2.3409 H   0  0  0  0  0  0  0  0  0  0  0  0
    3.6860    0.7430    1.1807 C   0  0  0  0  0  0  0  0  0  0  0  0
    4.2203    2.0581    1.2604 C   0  0  0  0  0  0  0  0  0  0  0  0
    5.1520    2.2300    1.8194 H   0  0  0  0  0  0  0  0  0  0  0  0
    3.5583    3.0964    0.6165 C   0  0  0  0  0  0  0  0  0  0  0  0
    3.9712    4.1160    0.6666 H   0  0  0  0  0  0  0  0  0  0  0  0
    2.3666    2.8909   -0.1183 C   0  0  0  0  0  0  0  0  0  0  0  0
    1.8746    3.7196   -0.6409 H   0  0  0  0  0  0  0  0  0  0  0  0
    1.7839    1.6134   -0.2167 C   0  0  0  0  0  0  0  0  0  0  0  0
    2.4652    0.5213    0.4516 C   0  0  1  0  0  3  0  0  0  0  0  0
   -0.0632    2.1627   -1.6734 C   0  0  0  0  0  0  0  0  0  0  0  0
   -1.3170    1.5412   -2.3230 C   0  0  0  0  0  0  0  0  0  0  0  0
   -2.0461    2.3483   -2.5269 H   0  0  0  0  0  0  0  0  0  0  0  0
   -1.0459    1.0571   -3.2824 H   0  0  0  0  0  0  0  0  0  0  0  0
   -2.6521    0.8085   -0.4460 C   0  0  0  0  0  0  0  0  0  0  0  0
   -3.6406    1.7893   -0.4417 C   0  0  0  0  0  0  0  0  0  0  0  0
   -3.7929    2.4181   -1.3296 H   0  0  0  0  0  0  0  0  0  0  0  0
   -4.4769    1.9591    0.6908 C   0  0  0  0  0  0  0  0  0  0  0  0
   -5.2553    2.7359    0.6603 H   0  0  0  0  0  0  0  0  0  0  0  0
   -4.3467    1.1535    1.8130 C   0  0  0  0  0  0  0  0  0  0  0  0
   -5.0155    1.2730    2.6779 H   0  0  0  0  0  0  0  0  0  0  0  0
   -3.3302    0.1581    1.8526 C   0  0  0  0  0  0  0  0  0  0  0  0
   -3.1174   -0.7110    2.9599 C   0  0  0  0  0  0  0  0  0  0  0  0
   -3.7802   -0.6341    3.8358 H   0  0  0  0  0  0  0  0  0  0  0  0
   -2.0878   -1.6391    2.9251 C   0  0  0  0  0  0  0  0  0  0  0  0
   -1.9094   -2.3289    3.7619 H   0  0  0  0  0  0  0  0  0  0  0  0
   -1.2362   -1.6777    1.7947 C   0  0  0  0  0  0  0  0  0  0  0  0
   -0.3907   -2.3803    1.7359 H   0  0  0  0  0  0  0  0  0  0  0  0
   -2.4477    0.0070    0.7277 C   0  0  2  0  0  3  0  0  0  0  0  0
    1.9257   -0.7301    0.3474 N   0  0  0  0  0  2  0  0  0  0  0  0
    0.6223    1.2793   -0.8928 N   0  0  0  0  0  2  0  0  0  0  0  0
   -1.4066   -0.8777    0.7448 N   0  0  0  0  0  2  0  0  0  0  0  0
    0.2048    3.3383   -1.9447 O   0  0  0  0  0  0  0  0  0  0  0  0
   -1.8799    0.4895   -1.5183 O   0  0  0  0  0  0  0  0  0  0  0  0
  1  3  2  0  0  0  0
  2  1  1  0  0  0  0
  3  5  1  0  0  0  0
  3  4  1  0  0  0  0
  5  6  1  0  0  0  0
  7  8  1  0  0  0  0
  7  5  2  0  0  0  0
  8  9  1  0  0  0  0
 10 11  1  0  0  0  0
 10  8  2  0  0  0  0
 12 10  1  0  0  0  0
 13 12  1  0  0  0  0
 14 12  2  0  0  0  0
 15 14  1  6  0  0  0
 15  7  1  0  0  0  0
 16 36  1  0  0  0  0
 17 16  1  0  0  0  0
 17 39  1  0  0  0  0
 18 17  1  0  0  0  0
 19 17  1  0  0  0  0
 20 21  2  0  0  0  0
 21 23  1  0  0  0  0
 22 21  1  0  0  0  0
 23 25  2  0  0  0  0
 24 23  1  0  0  0  0
 25 27  1  0  0  0  0
 25 26  1  0  0  0  0
 27 28  2  0  0  0  0
 28 29  1  0  0  0  0
 30 28  1  0  0  0  0
 30 31  1  0  0  0  0
 32 30  2  0  0  0  0
 33 32  1  0  0  0  0
 34 20  1  1  0  0  0
 34 37  1  0  0  0  0
 34 27  1  0  0  0  0
 35 15  1  0  0  0  0
 35  1  1  0  0  0  0
 36 14  1  0  0  0  0
 37 32  1  0  0  0  0
 38 16  2  0  0  0  0
 39 20  1  0  0  0  0
M  END
