11,40,47
 OpenBabel05122313063D

 56 61  0  0  0  0  0  0  0  0999 V2000
   -3.2974   -0.0788    0.2871 N   0  0  0  0  0  0  0  0  0  0  0  0
   -3.6404   -1.3871    0.2401 C   0  0  0  0  0  0  0  0  0  0  0  0
   -4.9808   -1.8010    0.1000 C   0  0  0  0  0  0  0  0  0  0  0  0
   -5.2325   -2.8699    0.0572 H   0  0  0  0  0  0  0  0  0  0  0  0
   -5.9835   -0.8278    0.0131 C   0  0  0  0  0  0  0  0  0  0  0  0
   -7.0370   -1.1251   -0.0958 H   0  0  0  0  0  0  0  0  0  0  0  0
   -5.6236    0.5266    0.0687 C   0  0  0  0  0  0  0  0  0  0  0  0
   -6.3792    1.3231    0.0120 H   0  0  0  0  0  0  0  0  0  0  0  0
   -4.2634    0.8465    0.2045 C   0  0  0  0  0  0  0  0  0  0  0  0
   -3.9357    1.8990    0.2564 H   0  0  0  0  0  0  0  0  0  0  0  0
   -1.2636   -1.9188    0.3998 N   0  0  0  0  0  2  0  0  0  0  0  0
   -0.4810   -2.9990    0.5496 N   0  0  0  0  0  0  0  0  0  0  0  0
   -1.2226   -4.1448    0.6004 C   0  0  0  0  0  3  0  0  0  0  0  0
   -0.7494   -5.1249    0.7260 H   0  0  0  0  0  0  0  0  0  0  0  0
   -2.5586   -3.7746    0.4788 C   0  0  0  0  0  0  0  0  0  0  0  0
   -3.4248   -4.4426    0.4855 H   0  0  0  0  0  0  0  0  0  0  0  0
   -2.5391   -2.3588    0.3605 C   0  0  0  0  0  0  0  0  0  0  0  0
    0.9580   -2.8417    0.7237 C   0  0  0  0  0  0  0  0  0  0  0  0
    1.3711   -3.8671    0.8196 H   0  0  0  0  0  0  0  0  0  0  0  0
    1.1320   -2.3574    1.6996 H   0  0  0  0  0  0  0  0  0  0  0  0
    2.5324   -0.2869    2.0722 C   0  0  0  0  0  0  0  0  0  0  0  0
    1.5920   -0.8336    2.2489 H   0  0  0  0  0  0  0  0  0  0  0  0
    3.1073   -0.2936    3.0175 H   0  0  0  0  0  0  0  0  0  0  0  0
    1.6500   -2.1469   -0.4417 C   0  0  0  0  0  0  0  0  0  0  0  0
    1.1928   -2.4831   -1.7170 C   0  0  0  0  0  0  0  0  0  0  0  0
    0.2508   -3.0442   -1.8145 H   0  0  0  0  0  0  0  0  0  0  0  0
    1.9325   -2.1900   -2.8848 C   0  0  0  0  0  0  0  0  0  0  0  0
    1.5303   -2.4587   -3.8723 H   0  0  0  0  0  0  0  0  0  0  0  0
    3.1983   -1.6482   -2.7574 C   0  0  0  0  0  0  0  0  0  0  0  0
    3.8396   -1.5022   -3.6397 H   0  0  0  0  0  0  0  0  0  0  0  0
    5.0412   -0.7791   -1.3827 C   0  0  0  0  0  0  0  0  0  0  0  0
    5.6456   -0.7222   -2.3007 H   0  0  0  0  0  0  0  0  0  0  0  0
    5.5688   -0.3938   -0.1645 C   0  0  0  0  0  0  0  0  0  0  0  0
    6.6109   -0.0536   -0.0809 H   0  0  0  0  0  0  0  0  0  0  0  0
    4.7192   -0.3653    0.9648 C   0  0  0  0  0  0  0  0  0  0  0  0
    5.1024    0.0698    1.9019 H   0  0  0  0  0  0  0  0  0  0  0  0
    3.3921   -0.7964    0.9199 C   0  0  0  0  0  0  0  0  0  0  0  0
    2.8819   -1.4058   -0.2911 C   0  0  0  0  0  0  0  0  0  0  0  0
    3.7081   -1.2745   -1.4804 C   0  0  0  0  0  0  0  0  0  0  0  0
    1.0987    1.3642    1.0135 N   0  0  0  0  0  2  0  0  0  0  0  0
    2.1352    1.1058    1.8219 N   0  0  0  0  0  0  0  0  0  0  0  0
    2.8316    2.2444    2.1183 C   0  0  0  0  0  0  0  0  0  0  0  0
    3.7200    2.2226    2.7581 H   0  0  0  0  0  0  0  0  0  0  0  0
    2.1922    3.2970    1.4712 C   0  0  0  0  0  0  0  0  0  0  0  0
    2.4765    4.3530    1.5024 H   0  0  0  0  0  0  0  0  0  0  0  0
    1.1066    2.6923    0.7805 C   0  0  0  0  0  0  0  0  0  0  0  0
   -0.7874    2.3934   -0.6733 N   0  0  0  0  0  2  0  0  0  0  0  0
    0.0854    3.2665   -0.1099 C   0  0  0  0  0  0  0  0  0  0  0  0
    0.0240    4.6472   -0.3846 C   0  0  0  0  0  0  0  0  0  0  0  0
    0.7388    5.3362    0.0862 H   0  0  0  0  0  0  0  0  0  0  0  0
   -0.9556    5.1240   -1.2628 C   0  0  0  0  0  0  0  0  0  0  0  0
   -1.0202    6.1982   -1.4909 H   0  0  0  0  0  0  0  0  0  0  0  0
   -1.8485    4.2134   -1.8473 C   0  0  0  0  0  0  0  0  0  0  0  0
   -2.6283    4.5434   -2.5482 H   0  0  0  0  0  0  0  0  0  0  0  0
   -1.7234    2.8562   -1.5183 C   0  0  0  0  0  0  0  0  0  0  0  0
   -2.4014    2.1033   -1.9522 H   0  0  0  0  0  0  0  0  0  0  0  0
  2  1  1  0  0  0  0
  2 17  1  0  0  0  0
  3  2  2  0  0  0  0
  4  3  1  0  0  0  0
  5  7  2  0  0  0  0
  5  3  1  0  0  0  0
  6  5  1  0  0  0  0
  7  9  1  0  0  0  0
  8  7  1  0  0  0  0
  9 10  1  0  0  0  0
  9  1  2  0  0  0  0
 11 12  1  0  0  0  0
 12 13  1  0  0  0  0
 12 18  1  0  0  0  0
 13 14  1  0  0  0  0
 15 16  1  0  0  0  0
 15 13  1  0  0  0  0
 17 11  1  0  0  0  0
 17 15  2  0  0  0  0
 18 19  1  0  0  0  0
 18 20  1  0  0  0  0
 21 22  1  0  0  0  0
 21 23  1  0  0  0  0
 24 38  1  0  0  0  0
 24 18  1  0  0  0  0
 25 24  2  0  0  0  0
 26 25  1  0  0  0  0
 27 29  2  0  0  0  0
 27 25  1  0  0  0  0
 28 27  1  0  0  0  0
 29 39  1  0  0  0  0
 30 29  1  0  0  0  0
 31 33  1  0  0  0  0
 32 31  1  0  0  0  0
 33 34  1  0  0  0  0
 33 35  2  0  0  0  0
 35 36  1  0  0  0  0
 37 35  1  0  0  0  0
 37 21  1  0  0  0  0
 38 37  2  0  0  0  0
 39 31  2  0  0  0  0
 39 38  1  0  0  0  0
 40 41  1  0  0  0  0
 41 21  1  0  0  0  0
 41 42  1  0  0  0  0
 42 43  1  0  0  0  0
 44 45  1  0  0  0  0
 44 42  2  0  0  0  0
 46 40  1  0  0  0  0
 46 44  1  0  0  0  0
 47 48  1  0  0  0  0
 48 46  2  0  0  0  0
 49 48  1  0  0  0  0
 49 50  1  0  0  0  0
 51 49  2  0  0  0  0
 52 51  1  0  0  0  0
 53 55  2  0  0  0  0
 53 51  1  0  0  0  0
 54 53  1  0  0  0  0
 55 47  1  0  0  0  0
 56 55  1  0  0  0  0
M  END
