21,41,61
 OpenBabel05122313063D

 61 66  0  0  1  0  0  0  0  0999 V2000
   -0.0012   -0.0004    2.0682 N   0  0  0  0  0  0  0  0  0  0  0  0
   -0.3005    1.3929    2.3489 C   0  0  0  0  0  0  0  0  0  0  0  0
    0.0002    1.7099    3.3774 H   0  0  0  0  0  0  0  0  0  0  0  0
   -1.4041    1.5209    2.2982 H   0  0  0  0  0  0  0  0  0  0  0  0
    0.3325    2.2754    1.3067 C   0  0  2  0  0  3  0  0  0  0  0  0
    0.7234    3.5774    1.4857 N   0  0  0  0  0  0  0  0  0  0  0  0
    0.6334    4.3931    2.6841 C   0  0  0  0  0  0  0  0  0  0  0  0
    1.6172    4.8536    2.9021 H   0  0  0  0  0  0  0  0  0  0  0  0
   -0.1143    5.2012    2.5512 H   0  0  0  0  0  0  0  0  0  0  0  0
    0.3351    3.7742    3.5484 H   0  0  0  0  0  0  0  0  0  0  0  0
    1.2080    4.0354    0.2585 C   0  0  0  0  0  0  0  0  0  0  0  0
    1.7299    5.2774   -0.1349 C   0  0  0  0  0  0  0  0  0  0  0  0
    1.8168    6.1250    0.5594 H   0  0  0  0  0  0  0  0  0  0  0  0
    2.1335    5.3840   -1.4718 C   0  0  0  0  0  0  0  0  0  0  0  0
    2.5479    6.3375   -1.8306 H   0  0  0  0  0  0  0  0  0  0  0  0
    2.0166    4.2978   -2.3747 C   0  0  0  0  0  0  0  0  0  0  0  0
    2.3415    4.4345   -3.4165 H   0  0  0  0  0  0  0  0  0  0  0  0
    1.4948    3.0613   -1.9808 C   0  0  0  0  0  0  0  0  0  0  0  0
    1.3773    2.2134   -2.6721 H   0  0  0  0  0  0  0  0  0  0  0  0
    1.0875    2.9406   -0.6393 C   0  0  0  0  0  0  0  0  0  0  0  0
    0.5387    1.8643    0.0541 N   0  0  0  0  0  2  0  0  0  0  0  0
   -1.0583   -0.9560    2.3493 C   0  0  0  0  0  0  0  0  0  0  0  0
   -1.4833   -0.8534    3.3776 H   0  0  0  0  0  0  0  0  0  0  0  0
   -0.6175   -1.9759    2.2991 H   0  0  0  0  0  0  0  0  0  0  0  0
   -2.1387   -0.8495    1.3068 C   0  0  2  0  0  3  0  0  0  0  0  0
   -3.4617   -1.1625    1.4854 N   0  0  0  0  0  0  0  0  0  0  0  0
   -4.1237   -1.6473    2.6839 C   0  0  0  0  0  0  0  0  0  0  0  0
   -3.4387   -1.5964    3.5483 H   0  0  0  0  0  0  0  0  0  0  0  0
   -5.0139   -1.0247    2.9014 H   0  0  0  0  0  0  0  0  0  0  0  0
   -4.4505   -2.6986    2.5514 H   0  0  0  0  0  0  0  0  0  0  0  0
   -4.1003   -0.9724    0.2578 C   0  0  0  0  0  0  0  0  0  0  0  0
   -5.4366   -1.1420   -0.1360 C   0  0  0  0  0  0  0  0  0  0  0  0
   -6.2142   -1.4906    0.5582 H   0  0  0  0  0  0  0  0  0  0  0  0
   -5.7303   -0.8463   -1.4730 C   0  0  0  0  0  0  0  0  0  0  0  0
   -6.7632   -0.9648   -1.8322 H   0  0  0  0  0  0  0  0  0  0  0  0
   -4.7311   -0.4043   -2.3756 C   0  0  0  0  0  0  0  0  0  0  0  0
   -5.0117   -0.1917   -3.4176 H   0  0  0  0  0  0  0  0  0  0  0  0
   -3.3996   -0.2372   -1.9813 C   0  0  0  0  0  0  0  0  0  0  0  0
   -2.6065    0.0852   -2.6724 H   0  0  0  0  0  0  0  0  0  0  0  0
   -3.0918   -0.5291   -0.6396 C   0  0  0  0  0  0  0  0  0  0  0  0
   -1.8855   -0.4656    0.0542 N   0  0  0  0  0  2  0  0  0  0  0  0
    1.3547   -0.4381    2.3504 C   0  0  0  0  0  0  0  0  0  0  0  0
    1.4771   -0.8584    3.3785 H   0  0  0  0  0  0  0  0  0  0  0  0
    2.0176    0.4536    2.3022 H   0  0  0  0  0  0  0  0  0  0  0  0
    1.8041   -1.4262    1.3077 C   0  0  2  0  0  3  0  0  0  0  0  0
    2.7376   -2.4145    1.4865 N   0  0  0  0  0  0  0  0  0  0  0  0
    3.4887   -2.7442    2.6852 C   0  0  0  0  0  0  0  0  0  0  0  0
    3.0999   -2.1783    3.5499 H   0  0  0  0  0  0  0  0  0  0  0  0
    3.3976   -3.8269    2.9018 H   0  0  0  0  0  0  0  0  0  0  0  0
    4.5619   -2.4984    2.5537 H   0  0  0  0  0  0  0  0  0  0  0  0
    2.8935   -3.0622    0.2590 C   0  0  0  0  0  0  0  0  0  0  0  0
    3.7100   -4.1337   -0.1347 C   0  0  0  0  0  0  0  0  0  0  0  0
    4.4009   -4.6321    0.5596 H   0  0  0  0  0  0  0  0  0  0  0  0
    3.6017   -4.5359   -1.4718 C   0  0  0  0  0  0  0  0  0  0  0  0
    4.2217   -5.3704   -1.8308 H   0  0  0  0  0  0  0  0  0  0  0  0
    2.7188   -3.8925   -2.3747 C   0  0  0  0  0  0  0  0  0  0  0  0
    2.6756   -4.2418   -3.4167 H   0  0  0  0  0  0  0  0  0  0  0  0
    1.9070   -2.8239   -1.9805 C   0  0  0  0  0  0  0  0  0  0  0  0
    1.2308   -2.2990   -2.6718 H   0  0  0  0  0  0  0  0  0  0  0  0
    2.0050   -2.4113   -0.6388 C   0  0  0  0  0  0  0  0  0  0  0  0
    1.3455   -1.3992    0.0549 N   0  0  0  0  0  2  0  0  0  0  0  0
  1  2  1  0  0  0  0
  1 22  1  0  0  0  0
  1 42  1  0  0  0  0
  2  3  1  0  0  0  0
  4  2  1  0  0  0  0
  5  6  1  0  0  0  0
  5  2  1  6  0  0  0
  6  7  1  0  0  0  0
  7  8  1  0  0  0  0
  7 10  1  0  0  0  0
  9  7  1  0  0  0  0
 11  6  1  0  0  0  0
 12 11  1  0  0  0  0
 12 13  1  0  0  0  0
 14 12  2  0  0  0  0
 15 14  1  0  0  0  0
 16 18  2  0  0  0  0
 16 14  1  0  0  0  0
 17 16  1  0  0  0  0
 18 20  1  0  0  0  0
 19 18  1  0  0  0  0
 20 21  1  0  0  0  0
 20 11  2  0  0  0  0
 21  5  1  0  0  0  0
 22 23  1  0  0  0  0
 24 22  1  0  0  0  0
 25 26  1  0  0  0  0
 25 22  1  6  0  0  0
 26 27  1  0  0  0  0
 27 29  1  0  0  0  0
 27 28  1  0  0  0  0
 30 27  1  0  0  0  0
 31 26  1  0  0  0  0
 32 31  1  0  0  0  0
 32 33  1  0  0  0  0
 34 32  2  0  0  0  0
 35 34  1  0  0  0  0
 36 38  2  0  0  0  0
 36 34  1  0  0  0  0
 37 36  1  0  0  0  0
 38 40  1  0  0  0  0
 39 38  1  0  0  0  0
 40 41  1  0  0  0  0
 40 31  2  0  0  0  0
 41 25  1  0  0  0  0
 42 43  1  0  0  0  0
 44 42  1  0  0  0  0
 45 46  1  0  0  0  0
 45 42  1  6  0  0  0
 46 47  1  0  0  0  0
 47 49  1  0  0  0  0
 47 48  1  0  0  0  0
 50 47  1  0  0  0  0
 51 46  1  0  0  0  0
 52 51  1  0  0  0  0
 52 53  1  0  0  0  0
 54 52  2  0  0  0  0
 55 54  1  0  0  0  0
 56 58  2  0  0  0  0
 56 54  1  0  0  0  0
 57 56  1  0  0  0  0
 58 60  1  0  0  0  0
 59 58  1  0  0  0  0
 60 61  1  0  0  0  0
 60 51  2  0  0  0  0
 61 45  1  0  0  0  0
M  END
