1,2,3
 OpenBabel05122313063D

 44 44  0  0  0  0  0  0  0  0999 V2000
   -0.2619   -1.3971    1.2127 N   0  0  0  0  0  2  0  0  0  0  0  0
   -0.3937    1.3759    1.1448 N   0  0  0  0  0  2  0  0  0  0  0  0
   -2.1756   -0.1411    0.1127 N   0  0  0  0  0  0  0  0  0  0  0  0
   -1.9466   -1.2848    1.4827 P   0  0  2  0  0  0  0  0  0  0  0  0
   -2.0694    1.1072    1.4080 P   0  0  1  0  0  0  0  0  0  0  0  0
    0.5640   -2.2461    2.1228 C   0  0  0  0  0  0  0  0  0  0  0  0
    1.3621   -1.3311    3.0694 C   0  0  0  0  0  0  0  0  0  0  0  0
    1.5039   -3.1095    1.2670 C   0  0  0  0  0  0  0  0  0  0  0  0
   -0.3269   -3.1795    2.9656 C   0  0  0  0  0  0  0  0  0  0  0  0
    0.1921    2.5617    1.8481 C   0  0  0  0  0  0  0  0  0  0  0  0
    1.7113    2.5915    1.6731 C   0  0  0  0  0  0  0  0  0  0  0  0
   -0.4095    3.8370    1.2200 C   0  0  0  0  0  0  0  0  0  0  0  0
   -0.1443    2.4858    3.3508 C   0  0  0  0  0  0  0  0  0  0  0  0
   -3.4441   -0.2266   -0.7073 C   0  0  0  0  0  0  0  0  0  0  0  0
   -3.4451   -1.5581   -1.4642 C   0  0  0  0  0  0  0  0  0  0  0  0
   -4.6689   -0.1600    0.2243 C   0  0  0  0  0  0  0  0  0  0  0  0
   -3.4550    0.9565   -1.6789 C   0  0  0  0  0  0  0  0  0  0  0  0
    0.6736   -0.7210    3.6875 H   0  0  0  0  0  0  0  0  0  0  0  0
    2.0100   -0.6447    2.4946 H   0  0  0  0  0  0  0  0  0  0  0  0
    2.0002   -1.9333    3.7471 H   0  0  0  0  0  0  0  0  0  0  0  0
    2.1737   -2.4765    0.6583 H   0  0  0  0  0  0  0  0  0  0  0  0
    0.9239   -3.7453    0.5705 H   0  0  0  0  0  0  0  0  0  0  0  0
    2.1243   -3.7581    1.9174 H   0  0  0  0  0  0  0  0  0  0  0  0
    0.3127   -3.8102    3.6142 H   0  0  0  0  0  0  0  0  0  0  0  0
   -0.9323   -3.8507    2.3241 H   0  0  0  0  0  0  0  0  0  0  0  0
   -1.0129   -2.6127    3.6291 H   0  0  0  0  0  0  0  0  0  0  0  0
    2.1800    1.6767    2.0817 H   0  0  0  0  0  0  0  0  0  0  0  0
    2.1268    3.4667    2.2102 H   0  0  0  0  0  0  0  0  0  0  0  0
    1.9770    2.6793    0.6042 H   0  0  0  0  0  0  0  0  0  0  0  0
    0.0494    4.7425    1.6662 H   0  0  0  0  0  0  0  0  0  0  0  0
   -1.5048    3.8831    1.3879 H   0  0  0  0  0  0  0  0  0  0  0  0
   -0.2287    3.8408    0.1268 H   0  0  0  0  0  0  0  0  0  0  0  0
    0.2787    1.5663    3.8012 H   0  0  0  0  0  0  0  0  0  0  0  0
   -1.2401    2.4844    3.5264 H   0  0  0  0  0  0  0  0  0  0  0  0
    0.2768    3.3630    3.8815 H   0  0  0  0  0  0  0  0  0  0  0  0
   -3.3792   -2.4139   -0.7602 H   0  0  0  0  0  0  0  0  0  0  0  0
   -2.5886   -1.6213   -2.1597 H   0  0  0  0  0  0  0  0  0  0  0  0
   -4.3889   -1.6582   -2.0361 H   0  0  0  0  0  0  0  0  0  0  0  0
   -4.6684   -0.9993    0.9520 H   0  0  0  0  0  0  0  0  0  0  0  0
   -5.6030   -0.2293   -0.3675 H   0  0  0  0  0  0  0  0  0  0  0  0
   -4.6975    0.7954    0.7893 H   0  0  0  0  0  0  0  0  0  0  0  0
   -4.4005    0.9584   -2.2568 H   0  0  0  0  0  0  0  0  0  0  0  0
   -2.6007    0.9028   -2.3786 H   0  0  0  0  0  0  0  0  0  0  0  0
   -3.3833    1.9189   -1.1310 H   0  0  0  0  0  0  0  0  0  0  0  0
  1  6  1  0  0  0  0
  2 10  1  0  0  0  0
  3  5  1  0  0  0  0
  3  4  1  0  0  0  0
  4  1  1  6  0  0  0
  5  2  1  6  0  0  0
  5  4  1  0  0  0  0
  6  9  1  0  0  0  0
  6  7  1  0  0  0  0
  7 18  1  0  0  0  0
  7 20  1  0  0  0  0
  8 23  1  0  0  0  0
  8  6  1  0  0  0  0
  9 24  1  0  0  0  0
  9 26  1  0  0  0  0
 10 13  1  0  0  0  0
 11 10  1  0  0  0  0
 11 27  1  0  0  0  0
 11 28  1  0  0  0  0
 12 31  1  0  0  0  0
 12 30  1  0  0  0  0
 12 10  1  0  0  0  0
 13 34  1  0  0  0  0
 13 33  1  0  0  0  0
 13 35  1  0  0  0  0
 14  3  1  0  0  0  0
 14 16  1  0  0  0  0
 15 36  1  0  0  0  0
 15 14  1  0  0  0  0
 16 41  1  0  0  0  0
 16 39  1  0  0  0  0
 17 44  1  0  0  0  0
 17 14  1  0  0  0  0
 19  7  1  0  0  0  0
 21  8  1  0  0  0  0
 22  8  1  0  0  0  0
 25  9  1  0  0  0  0
 29 11  1  0  0  0  0
 32 12  1  0  0  0  0
 37 15  1  0  0  0  0
 38 15  1  0  0  0  0
 40 16  1  0  0  0  0
 42 17  1  0  0  0  0
 43 17  1  0  0  0  0
M  END
