4,5,6
 OpenBabel05122313063D

 59 61  0  0  1  0  0  0  0  0999 V2000
    1.2643    2.1111    2.5295 O   0  0  0  0  0  0  0  0  0  0  0  0
   -2.4594    0.0356    2.5310 O   0  0  0  0  0  0  0  0  0  0  0  0
    1.2014   -2.1510    2.5271 O   0  0  0  0  0  0  0  0  0  0  0  0
   -1.6438   -0.0416    0.4179 N   0  0  0  0  0  2  0  0  0  0  0  0
    0.7865    1.4434    0.4170 N   0  0  0  0  0  2  0  0  0  0  0  0
    0.8570   -1.4038    0.4152 N   0  0  0  0  0  2  0  0  0  0  0  0
    0.0014   -0.0018    2.2779 C   0  0  2  0  0  0  0  0  0  0  0  0
    0.0025   -0.0027    3.8092 C   0  0  0  0  0  0  0  0  0  0  0  0
   -0.5065   -0.9062    4.1882 H   0  0  0  0  0  0  0  0  0  0  0  0
   -0.5248    0.8898    4.1893 H   0  0  0  0  0  0  0  0  0  0  0  0
    1.0397    0.0076    4.1876 H   0  0  0  0  0  0  0  0  0  0  0  0
    0.6972    1.2220    1.6886 C   0  0  1  0  0  3  0  0  0  0  0  0
    1.8541    3.1416    1.6821 C   0  0  0  0  0  0  0  0  0  0  0  0
    2.9396    3.1739    1.8983 H   0  0  0  0  0  0  0  0  0  0  0  0
    1.4009    4.1113    1.9706 H   0  0  0  0  0  0  0  0  0  0  0  0
    1.5199    2.7102    0.2246 C   0  0  2  0  0  0  0  0  0  0  0  0
    2.4452    2.4799   -0.3449 H   0  0  0  0  0  0  0  0  0  0  0  0
    0.6993    3.7247   -0.5990 C   0  0  0  0  0  0  0  0  0  0  0  0
    0.5471    3.2313   -1.5819 H   0  0  0  0  0  0  0  0  0  0  0  0
   -0.6830    3.9848    0.0043 C   0  0  0  0  0  0  0  0  0  0  0  0
   -1.2411    3.0344    0.1219 H   0  0  0  0  0  0  0  0  0  0  0  0
   -1.2773    4.6404   -0.6623 H   0  0  0  0  0  0  0  0  0  0  0  0
   -0.6237    4.4858    0.9948 H   0  0  0  0  0  0  0  0  0  0  0  0
    1.4974    5.0129   -0.8231 C   0  0  0  0  0  0  0  0  0  0  0  0
    0.9469    5.7005   -1.4955 H   0  0  0  0  0  0  0  0  0  0  0  0
    2.4836    4.8068   -1.2879 H   0  0  0  0  0  0  0  0  0  0  0  0
    1.6769    5.5621    0.1267 H   0  0  0  0  0  0  0  0  0  0  0  0
   -1.4066   -0.0101    1.6893 C   0  0  1  0  0  3  0  0  0  0  0  0
   -3.6473    0.0330    1.6845 C   0  0  0  0  0  0  0  0  0  0  0  0
   -4.2173    0.9570    1.9023 H   0  0  0  0  0  0  0  0  0  0  0  0
   -4.2610   -0.8443    1.9723 H   0  0  0  0  0  0  0  0  0  0  0  0
   -3.1078   -0.0392    0.2265 C   0  0  2  0  0  0  0  0  0  0  0  0
   -3.3712    0.8780   -0.3417 H   0  0  0  0  0  0  0  0  0  0  0  0
   -3.5772   -1.2559   -0.5983 C   0  0  0  0  0  0  0  0  0  0  0  0
   -3.0763   -1.1388   -1.5822 H   0  0  0  0  0  0  0  0  0  0  0  0
   -5.0924   -1.2096   -0.8187 C   0  0  0  0  0  0  0  0  0  0  0  0
   -5.4136   -2.0290   -1.4921 H   0  0  0  0  0  0  0  0  0  0  0  0
   -5.4090   -0.2518   -1.2806 H   0  0  0  0  0  0  0  0  0  0  0  0
   -5.6555   -1.3313    0.1323 H   0  0  0  0  0  0  0  0  0  0  0  0
   -3.1090   -2.5840    0.0011 C   0  0  0  0  0  0  0  0  0  0  0  0
   -2.0065   -2.5923    0.1151 H   0  0  0  0  0  0  0  0  0  0  0  0
   -3.3818   -3.4254   -0.6660 H   0  0  0  0  0  0  0  0  0  0  0  0
   -3.5691   -2.7851    0.9929 H   0  0  0  0  0  0  0  0  0  0  0  0
    0.7124   -1.2159    1.6871 C   0  0  1  0  0  3  0  0  0  0  0  0
    1.7959   -3.1778    1.6786 C   0  0  0  0  0  0  0  0  0  0  0  0
    1.2790   -4.1329    1.8944 H   0  0  0  0  0  0  0  0  0  0  0  0
    2.8623   -3.2730    1.9663 H   0  0  0  0  0  0  0  0  0  0  0  0
    1.5895   -2.6711    0.2216 C   0  0  2  0  0  0  0  0  0  0  0  0
    0.9288   -3.3576   -0.3492 H   0  0  0  0  0  0  0  0  0  0  0  0
    2.8788   -2.4648   -0.6008 C   0  0  0  0  0  0  0  0  0  0  0  0
    2.5285   -2.0826   -1.5825 H   0  0  0  0  0  0  0  0  0  0  0  0
    3.7955   -1.4004    0.0070 C   0  0  0  0  0  0  0  0  0  0  0  0
    4.1981   -1.7057    0.9972 H   0  0  0  0  0  0  0  0  0  0  0  0
    3.2523   -0.4417    0.1269 H   0  0  0  0  0  0  0  0  0  0  0  0
    4.6614   -1.2123   -0.6577 H   0  0  0  0  0  0  0  0  0  0  0  0
    3.5953   -3.7994   -0.8294 C   0  0  0  0  0  0  0  0  0  0  0  0
    4.4667   -3.6640   -1.5005 H   0  0  0  0  0  0  0  0  0  0  0  0
    2.9240   -4.5485   -1.2977 H   0  0  0  0  0  0  0  0  0  0  0  0
    3.9802   -4.2331    0.1191 H   0  0  0  0  0  0  0  0  0  0  0  0
  4 28  1  0  0  0  0
  5 12  1  0  0  0  0
  6 44  1  0  0  0  0
  7  8  1  1  0  0  0
  8 11  1  0  0  0  0
  8  9  1  0  0  0  0
  8 10  1  0  0  0  0
 12  7  1  6  0  0  0
 12  1  1  0  0  0  0
 13 14  1  0  0  0  0
 13 15  1  0  0  0  0
 13  1  1  0  0  0  0
 16 17  1  6  0  0  0
 16  5  1  0  0  0  0
 16 13  1  0  0  0  0
 18 20  1  0  0  0  0
 18 16  1  0  0  0  0
 19 18  1  0  0  0  0
 20 21  1  0  0  0  0
 20 23  1  0  0  0  0
 22 20  1  0  0  0  0
 24 18  1  0  0  0  0
 24 27  1  0  0  0  0
 25 24  1  0  0  0  0
 26 24  1  0  0  0  0
 28  7  1  6  0  0  0
 28  2  1  0  0  0  0
 29 30  1  0  0  0  0
 29 31  1  0  0  0  0
 29  2  1  0  0  0  0
 32 33  1  6  0  0  0
 32  4  1  0  0  0  0
 32 29  1  0  0  0  0
 34 40  1  0  0  0  0
 34 32  1  0  0  0  0
 35 34  1  0  0  0  0
 36 34  1  0  0  0  0
 36 39  1  0  0  0  0
 37 36  1  0  0  0  0
 38 36  1  0  0  0  0
 40 41  1  0  0  0  0
 40 43  1  0  0  0  0
 42 40  1  0  0  0  0
 44  7  1  6  0  0  0
 44  3  1  0  0  0  0
 45 46  1  0  0  0  0
 45 47  1  0  0  0  0
 45  3  1  0  0  0  0
 48 49  1  6  0  0  0
 48  6  1  0  0  0  0
 48 45  1  0  0  0  0
 50 52  1  0  0  0  0
 50 48  1  0  0  0  0
 51 50  1  0  0  0  0
 52 54  1  0  0  0  0
 52 53  1  0  0  0  0
 55 52  1  0  0  0  0
 56 50  1  0  0  0  0
 56 59  1  0  0  0  0
 57 56  1  0  0  0  0
 58 56  1  0  0  0  0
M  END
