1,2,12
 OpenBabel05122313063D

 37 41  0  0  0  0  0  0  0  0999 V2000
    0.6621   -0.0121    1.7721 N   0  0  0  0  0  2  0  0  0  0  0  0
    0.1064    1.9120    0.2719 N   0  0  0  0  0  2  0  0  0  0  0  0
    0.5735    3.6000    1.6506 N   0  0  0  0  0  0  0  0  0  0  0  0
    0.8543    4.0906    2.4993 H   0  0  0  0  0  0  0  0  0  0  0  0
    0.4770   -3.6199    1.6359 N   0  0  0  0  0  0  0  0  0  0  0  0
    2.2284   -0.0408    5.5700 O   0  0  0  0  0  0  0  0  0  0  0  0
    0.5593    2.2454    1.4945 C   0  0  0  0  0  0  0  0  0  0  0  0
    1.4163   -1.2623    3.6810 C   0  0  0  0  0  3  0  0  0  0  0  0
    1.6054   -2.2201    4.1873 H   0  0  0  0  0  0  0  0  0  0  0  0
   -0.7169    3.3252   -1.6855 C   0  0  0  0  0  0  0  0  0  0  0  0
   -0.9674    2.4985   -2.3626 H   0  0  0  0  0  0  0  0  0  0  0  0
    0.0557   -1.9145    0.2638 N   0  0  0  0  0  2  0  0  0  0  0  0
    0.8932   -1.1999    2.4002 C   0  0  0  0  0  0  0  0  0  0  0  0
    0.4990   -2.2649    1.4851 C   0  0  0  0  0  0  0  0  0  0  0  0
    1.7456   -0.0320    4.4273 C   0  0  0  0  0  0  0  0  0  0  0  0
   -0.1994    3.0851   -0.3980 C   0  0  0  0  0  0  0  0  0  0  0  0
    0.9248    1.1666    2.4051 C   0  0  0  0  0  0  0  0  0  0  0  0
   -0.8032   -3.2976   -1.6999 C   0  0  0  0  0  0  0  0  0  0  0  0
   -1.0312   -2.4621   -2.3740 H   0  0  0  0  0  0  0  0  0  0  0  0
   -0.0124   -4.1783    0.4602 C   0  0  0  0  0  0  0  0  0  0  0  0
   -0.6127    5.7320   -1.1849 C   0  0  0  0  0  0  0  0  0  0  0  0
   -0.7888    6.7643   -1.5213 H   0  0  0  0  0  0  0  0  0  0  0  0
   -0.2467   -5.5067    0.0766 C   0  0  0  0  0  0  0  0  0  0  0  0
   -0.0398   -6.3486    0.7528 H   0  0  0  0  0  0  0  0  0  0  0  0
   -0.1009    5.5116    0.0994 C   0  0  0  0  0  0  0  0  0  0  0  0
    0.1284    6.3450    0.7788 H   0  0  0  0  0  0  0  0  0  0  0  0
    1.4493    1.2098    3.6861 C   0  0  0  0  0  3  0  0  0  0  0  0
    1.6638    2.1601    4.1963 H   0  0  0  0  0  0  0  0  0  0  0  0
    0.0986    4.1759    0.4774 C   0  0  0  0  0  0  0  0  0  0  0  0
   -0.9154    4.6581   -2.0577 C   0  0  0  0  0  0  0  0  0  0  0  0
   -1.3249    4.8770   -3.0547 H   0  0  0  0  0  0  0  0  0  0  0  0
   -0.2808   -3.0765   -0.4109 C   0  0  0  0  0  0  0  0  0  0  0  0
   -1.0363   -4.6234   -2.0777 C   0  0  0  0  0  0  0  0  0  0  0  0
   -1.4503   -4.8274   -3.0759 H   0  0  0  0  0  0  0  0  0  0  0  0
   -0.7629   -5.7084   -1.2090 C   0  0  0  0  0  0  0  0  0  0  0  0
   -0.9656   -6.7344   -1.5498 H   0  0  0  0  0  0  0  0  0  0  0  0
    0.7442   -4.1212    2.4827 H   0  0  0  0  0  0  0  0  0  0  0  0
  1 13  1  0  0  0  0
  1 17  1  0  0  0  0
  2  7  1  0  0  0  0
  3  4  1  0  0  0  0
  5 37  1  0  0  0  0
  7  3  1  0  0  0  0
  7 17  2  0  0  0  0
  8  9  1  0  0  0  0
  8 15  1  0  0  0  0
 10 16  1  0  0  0  0
 11 10  1  0  0  0  0
 12 14  1  0  0  0  0
 13  8  1  0  0  0  0
 14  5  1  0  0  0  0
 14 13  2  0  0  0  0
 15  6  2  0  0  0  0
 16  2  1  0  0  0  0
 16 29  2  0  0  0  0
 17 27  1  0  0  0  0
 18 32  1  0  0  0  0
 19 18  1  0  0  0  0
 20  5  1  0  0  0  0
 21 25  2  0  0  0  0
 22 21  1  0  0  0  0
 23 20  1  0  0  0  0
 23 24  1  0  0  0  0
 25 29  1  0  0  0  0
 25 26  1  0  0  0  0
 27 28  1  0  0  0  0
 27 15  1  0  0  0  0
 29  3  1  0  0  0  0
 30 10  2  0  0  0  0
 30 21  1  0  0  0  0
 31 30  1  0  0  0  0
 32 12  1  0  0  0  0
 32 20  2  0  0  0  0
 33 18  2  0  0  0  0
 33 35  1  0  0  0  0
 34 33  1  0  0  0  0
 35 23  2  0  0  0  0
 36 35  1  0  0  0  0
M  END
