2,6,13
 OpenBabel05122313063D

 31 33  0  0  0  0  0  0  0  0999 V2000
   -2.1164    2.4210    0.4907 C   0  0  0  0  0  0  0  0  0  0  0  0
   -0.9139    2.0511    1.0567 N   0  0  0  0  0  2  0  0  0  0  0  0
   -0.4409   -2.1103   -3.2933 S   0  0  0  0  0  0  0  0  0  0  0  0
   -2.9135    3.4135    1.1049 C   0  0  0  0  0  0  0  0  0  0  0  0
   -3.8637    3.7025    0.6343 H   0  0  0  0  0  0  0  0  0  0  0  0
   -1.5784    0.7858   -1.0606 N   0  0  0  0  0  2  0  0  0  0  0  0
   -2.4834    3.9998    2.2959 C   0  0  0  0  0  0  0  0  0  0  0  0
   -3.0969    4.7704    2.7858 H   0  0  0  0  0  0  0  0  0  0  0  0
   -1.6919    0.0235   -2.1298 N   0  0  0  0  0  0  0  0  0  0  0  0
    2.5316   -1.8283   -0.5753 C   0  0  0  0  0  0  0  0  0  0  0  0
   -1.2647    3.5904    2.8663 C   0  0  0  0  0  0  0  0  0  0  0  0
   -0.8972    4.0157    3.8097 H   0  0  0  0  0  0  0  0  0  0  0  0
    0.4134   -0.7002   -1.2995 N   0  0  0  0  0  2  0  0  0  0  0  0
    3.6143   -0.9319   -0.6848 C   0  0  0  0  0  0  0  0  0  0  0  0
    3.5924   -0.1475   -1.4560 H   0  0  0  0  0  0  0  0  0  0  0  0
    2.5757   -2.8569    0.3882 C   0  0  0  0  0  0  0  0  0  0  0  0
    1.7324   -3.5597    0.4659 H   0  0  0  0  0  0  0  0  0  0  0  0
   -0.5085    2.6130    2.2103 C   0  0  0  0  0  0  0  0  0  0  0  0
    0.4454    2.2579    2.6249 H   0  0  0  0  0  0  0  0  0  0  0  0
    3.6752   -2.9685    1.2510 C   0  0  0  0  0  0  0  0  0  0  0  0
    3.6984   -3.7675    2.0068 H   0  0  0  0  0  0  0  0  0  0  0  0
   -2.4599    1.7132   -0.7066 C   0  0  0  0  0  0  0  0  0  0  0  0
   -3.3795    1.8752   -1.2865 H   0  0  0  0  0  0  0  0  0  0  0  0
    4.7408   -2.0610    1.1511 C   0  0  0  0  0  0  0  0  0  0  0  0
    5.6036   -2.1488    1.8280 H   0  0  0  0  0  0  0  0  0  0  0  0
   -0.6159   -0.7898   -2.1796 C   0  0  0  0  0  0  0  0  0  0  0  0
    4.7130   -1.0495    0.1769 C   0  0  0  0  0  0  0  0  0  0  0  0
    5.5592   -0.3521    0.0838 H   0  0  0  0  0  0  0  0  0  0  0  0
    1.0488   -2.5589   -2.5055 C   0  0  0  0  0  0  0  0  0  0  0  0
    1.6458   -3.4043   -2.8642 H   0  0  0  0  0  0  0  0  0  0  0  0
    1.3509   -1.7061   -1.4631 C   0  0  0  0  0  0  0  0  0  0  0  0
  1  2  1  0  0  0  0
  1  4  1  0  0  0  0
  2 18  1  0  0  0  0
  3 29  1  0  0  0  0
  3 26  1  0  0  0  0
  4  7  2  0  0  0  0
  5  4  1  0  0  0  0
  6 22  1  0  0  0  0
  7  8  1  0  0  0  0
  7 11  1  0  0  0  0
  9  6  1  0  0  0  0
 10 16  1  0  0  0  0
 11 12  1  0  0  0  0
 14 10  2  0  0  0  0
 14 27  1  0  0  0  0
 15 14  1  0  0  0  0
 16 17  1  0  0  0  0
 16 20  2  0  0  0  0
 18 19  1  0  0  0  0
 18 11  2  0  0  0  0
 20 21  1  0  0  0  0
 22  1  2  0  0  0  0
 23 22  1  0  0  0  0
 24 20  1  0  0  0  0
 24 25  1  0  0  0  0
 26  9  2  0  0  0  0
 26 13  1  0  0  0  0
 27 24  2  0  0  0  0
 28 27  1  0  0  0  0
 29 31  2  0  0  0  0
 30 29  1  0  0  0  0
 31 13  1  0  0  0  0
 31 10  1  0  0  0  0
M  END
