1,3,6
 OpenBabel05122313063D

 58 64  0  0  1  0  0  0  0  0999 V2000
   -1.9927   -1.6732   -0.0853 N   0  0  0  0  0  2  0  0  0  0  0  0
   -2.4493    1.4308   -1.9716 N   0  0  0  0  0  0  0  0  0  0  0  0
   -0.2016    0.9449    2.3298 N   0  0  0  0  0  2  0  0  0  0  0  0
    1.2423    0.0287   -0.1040 N   0  0  0  0  0  0  0  0  0  0  0  0
    1.4277    1.3750   -0.1086 C   0  0  0  0  0  0  0  0  0  0  0  0
   -1.4545    0.7511   -0.1017 N   0  0  0  0  0  2  0  0  0  0  0  0
   -2.3521    0.3953   -1.0632 C   0  0  2  0  0  3  0  0  0  0  0  0
    3.3237    0.4106   -0.8093 N   0  0  0  0  0  0  0  0  0  0  0  0
   -0.9250    1.9729   -0.3880 C   0  0  0  0  0  0  0  0  0  0  0  0
    0.4508    3.0163    4.1211 C   0  0  0  0  0  0  0  0  0  0  0  0
    0.7022    3.8300    4.8174 H   0  0  0  0  0  0  0  0  0  0  0  0
   -1.5294    2.4510   -1.5616 C   0  0  0  0  0  0  0  0  0  0  0  0
   -2.7217   -0.9987   -1.0526 C   0  0  1  0  0  3  0  0  0  0  0  0
    0.1904    2.1655    1.8658 C   0  0  2  0  0  3  0  0  0  0  0  0
    2.3714   -0.5664   -0.5349 C   0  0  0  0  0  0  0  0  0  0  0  0
   -3.2228    1.5821   -3.1005 C   0  0  0  0  0  0  0  0  0  0  0  0
   -3.9166    0.7663   -3.3327 H   0  0  0  0  0  0  0  0  0  0  0  0
    0.3373    2.3240    0.3553 C   0  0  1  0  0  0  0  0  0  0  0  0
    0.6425    3.3639    0.1371 H   0  0  0  0  0  0  0  0  0  0  0  0
    3.4936    2.8481   -0.7403 C   0  0  0  0  0  0  0  0  0  0  0  0
    3.0306    3.8213   -0.5239 H   0  0  0  0  0  0  0  0  0  0  0  0
    2.7322    1.6699   -0.5405 C   0  0  0  0  0  0  0  0  0  0  0  0
   -0.2632    0.7512    3.6760 C   0  0  0  0  0  0  0  0  0  0  0  0
   -0.5810   -0.2550    3.9826 H   0  0  0  0  0  0  0  0  0  0  0  0
   -3.1058    2.7238   -3.8684 C   0  0  0  0  0  0  0  0  0  0  0  0
   -3.7355    2.8224   -4.7626 H   0  0  0  0  0  0  0  0  0  0  0  0
    0.0617    1.7542    4.5913 C   0  0  0  0  0  0  0  0  0  0  0  0
    0.0009    1.5369    5.6672 H   0  0  0  0  0  0  0  0  0  0  0  0
    0.5160    3.2154    2.7350 C   0  0  0  0  0  0  0  0  0  0  0  0
    0.8241    4.1841    2.3145 H   0  0  0  0  0  0  0  0  0  0  0  0
   -2.1942    3.7553   -3.4989 C   0  0  0  0  0  0  0  0  0  0  0  0
   -2.1138    4.6608   -4.1167 H   0  0  0  0  0  0  0  0  0  0  0  0
    1.4220   -2.8586   -0.5921 C   0  0  0  0  0  0  0  0  0  0  0  0
    0.4673   -2.4386   -0.2593 H   0  0  0  0  0  0  0  0  0  0  0  0
    3.7514   -2.4621   -1.1419 N   0  0  0  0  0  0  0  0  0  0  0  0
    2.5359   -2.0028   -0.7602 C   0  0  0  0  0  0  0  0  0  0  0  0
    2.8507   -4.7045   -1.2129 C   0  0  0  0  0  0  0  0  0  0  0  0
    3.0270   -5.7738   -1.4007 H   0  0  0  0  0  0  0  0  0  0  0  0
   -2.2134   -2.9874    0.1053 C   0  0  0  0  0  0  0  0  0  0  0  0
   -1.6259   -3.4280    0.9301 H   0  0  0  0  0  0  0  0  0  0  0  0
   -1.4183    3.6179   -2.3575 C   0  0  0  0  0  0  0  0  0  0  0  0
   -0.7112    4.3992   -2.0459 H   0  0  0  0  0  0  0  0  0  0  0  0
    5.3589    1.4615   -1.4578 C   0  0  0  0  0  0  0  0  0  0  0  0
    6.3933    1.3675   -1.8162 H   0  0  0  0  0  0  0  0  0  0  0  0
   -3.1141   -3.7179   -0.6783 C   0  0  0  0  0  0  0  0  0  0  0  0
   -3.2528   -4.7915   -0.4886 H   0  0  0  0  0  0  0  0  0  0  0  0
   -3.6496   -1.6788   -1.8662 C   0  0  0  0  0  0  0  0  0  0  0  0
   -4.2346   -1.1349   -2.6194 H   0  0  0  0  0  0  0  0  0  0  0  0
    4.6280    0.3124   -1.2648 C   0  0  0  0  0  0  0  0  0  0  0  0
    4.9668   -0.7201   -1.4285 H   0  0  0  0  0  0  0  0  0  0  0  0
    4.7962    2.7499   -1.1950 C   0  0  0  0  0  0  0  0  0  0  0  0
    5.4006    3.6546   -1.3515 H   0  0  0  0  0  0  0  0  0  0  0  0
    1.5899   -4.2245   -0.8218 C   0  0  0  0  0  0  0  0  0  0  0  0
    0.7391   -4.9098   -0.6883 H   0  0  0  0  0  0  0  0  0  0  0  0
   -3.8372   -3.0531   -1.6840 C   0  0  0  0  0  0  0  0  0  0  0  0
   -4.5592   -3.5976   -2.3104 H   0  0  0  0  0  0  0  0  0  0  0  0
    3.8932   -3.7769   -1.3588 C   0  0  0  0  0  0  0  0  0  0  0  0
    4.8992   -4.1129   -1.6670 H   0  0  0  0  0  0  0  0  0  0  0  0
  1 39  1  0  0  0  0
  2 12  1  0  0  0  0
  2  7  1  0  0  0  0
  3 23  1  0  0  0  0
  5  4  1  0  0  0  0
  5 18  1  0  0  0  0
  7 13  1  0  0  0  0
  7  6  1  6  0  0  0
  8 22  1  0  0  0  0
  8 15  1  0  0  0  0
  9  6  1  0  0  0  0
  9 18  1  0  0  0  0
 10 27  1  0  0  0  0
 10 11  1  0  0  0  0
 12  9  2  0  0  0  0
 13 47  1  6  0  0  0
 13  1  1  0  0  0  0
 14 18  1  1  0  0  0
 14  3  1  0  0  0  0
 14 29  1  0  0  0  0
 15  4  2  0  0  0  0
 16  2  1  0  0  0  0
 17 16  1  0  0  0  0
 18 19  1  6  0  0  0
 20 22  1  0  0  0  0
 20 21  1  0  0  0  0
 22  5  2  0  0  0  0
 23 24  1  0  0  0  0
 23 27  2  0  0  0  0
 25 31  1  0  0  0  0
 25 16  2  0  0  0  0
 26 25  1  0  0  0  0
 27 28  1  0  0  0  0
 29 10  2  0  0  0  0
 30 29  1  0  0  0  0
 31 41  2  0  0  0  0
 32 31  1  0  0  0  0
 33 34  1  0  0  0  0
 35 36  2  0  0  0  0
 36 33  1  0  0  0  0
 36 15  1  0  0  0  0
 37 53  1  0  0  0  0
 38 37  1  0  0  0  0
 39 40  1  0  0  0  0
 41 42  1  0  0  0  0
 41 12  1  0  0  0  0
 43 49  2  0  0  0  0
 43 51  1  0  0  0  0
 44 43  1  0  0  0  0
 45 46  1  0  0  0  0
 45 39  2  0  0  0  0
 47 55  2  0  0  0  0
 48 47  1  0  0  0  0
 49  8  1  0  0  0  0
 50 49  1  0  0  0  0
 51 20  2  0  0  0  0
 52 51  1  0  0  0  0
 53 54  1  0  0  0  0
 53 33  2  0  0  0  0
 55 45  1  0  0  0  0
 56 55  1  0  0  0  0
 57 37  2  0  0  0  0
 57 35  1  0  0  0  0
 58 57  1  0  0  0  0
M  END
