1,2,3
 OpenBabel05122313063D

 39 40  0  0  0  0  0  0  0  0999 V2000
   -0.7533   -0.7586   -0.7322 N   0  0  0  0  0  2  0  0  0  0  0  0
   -0.3322    1.8176   -0.3462 N   0  0  0  0  0  2  0  0  0  0  0  0
    1.6646   -1.8946   -0.2300 N   0  0  0  0  0  0  0  0  0  0  0  0
    1.9459   -1.9407   -1.2275 H   0  0  0  0  0  0  0  0  0  0  0  0
    3.9654   -1.8503   -1.6283 O   0  0  0  0  0  0  0  0  0  0  0  0
    3.9651   -0.8828   -1.4054 H   0  0  0  0  0  0  0  0  0  0  0  0
   -3.2040   -0.6061   -0.5023 C   0  0  0  0  0  0  0  0  0  0  0  0
   -1.6167    1.4234   -0.4892 C   0  0  0  0  0  0  0  0  0  0  0  0
   -2.6681    2.3543   -0.5480 C   0  0  0  0  0  0  0  0  0  0  0  0
   -3.7034    2.0075   -0.6725 H   0  0  0  0  0  0  0  0  0  0  0  0
   -1.8250   -0.0521   -0.6051 C   0  0  0  0  0  0  0  0  0  0  0  0
   -3.8144   -1.2730   -1.5835 C   0  0  0  0  0  0  0  0  0  0  0  0
   -3.2804   -1.3583   -2.5422 H   0  0  0  0  0  0  0  0  0  0  0  0
   -3.8883   -0.4942    0.7276 C   0  0  0  0  0  0  0  0  0  0  0  0
   -3.3922    0.0041    1.5751 H   0  0  0  0  0  0  0  0  0  0  0  0
   -0.7019   -2.2006   -0.8009 C   0  0  0  0  0  0  0  0  0  0  0  0
   -0.5249   -2.4723   -1.8676 H   0  0  0  0  0  0  0  0  0  0  0  0
   -1.6470   -2.6955   -0.4876 H   0  0  0  0  0  0  0  0  0  0  0  0
   -5.7800   -1.6979   -0.2158 C   0  0  0  0  0  0  0  0  0  0  0  0
   -6.7884   -2.1243   -0.1045 H   0  0  0  0  0  0  0  0  0  0  0  0
    0.4796   -2.7039    0.0467 C   0  0  0  0  0  0  0  0  0  0  0  0
    0.2316   -2.5706    1.1210 H   0  0  0  0  0  0  0  0  0  0  0  0
    0.6328   -3.7905   -0.1504 H   0  0  0  0  0  0  0  0  0  0  0  0
   -2.3616    3.7204   -0.4529 C   0  0  0  0  0  0  0  0  0  0  0  0
   -3.1642    4.4719   -0.4958 H   0  0  0  0  0  0  0  0  0  0  0  0
    2.8879   -2.1964    0.5451 C   0  0  0  0  0  0  0  0  0  0  0  0
    2.7012   -3.0117    1.2744 H   0  0  0  0  0  0  0  0  0  0  0  0
    3.1700   -1.2975    1.1332 H   0  0  0  0  0  0  0  0  0  0  0  0
    4.0245   -2.5840   -0.4209 C   0  0  0  0  0  0  0  0  0  0  0  0
    5.0005   -2.4706    0.1084 H   0  0  0  0  0  0  0  0  0  0  0  0
    3.9344   -3.6541   -0.7103 H   0  0  0  0  0  0  0  0  0  0  0  0
   -5.1022   -1.8104   -1.4403 C   0  0  0  0  0  0  0  0  0  0  0  0
   -5.5785   -2.3218   -2.2902 H   0  0  0  0  0  0  0  0  0  0  0  0
   -5.1698   -1.0451    0.8680 C   0  0  0  0  0  0  0  0  0  0  0  0
   -5.6943   -0.9666    1.8321 H   0  0  0  0  0  0  0  0  0  0  0  0
   -0.0330    3.1175   -0.2599 C   0  0  0  0  0  0  0  0  0  0  0  0
    1.0399    3.3524   -0.1510 H   0  0  0  0  0  0  0  0  0  0  0  0
   -1.0242    4.1125   -0.3073 C   0  0  0  0  0  0  0  0  0  0  0  0
   -0.7438    5.1727   -0.2297 H   0  0  0  0  0  0  0  0  0  0  0  0
  1 11  1  0  0  0  0
  2 36  1  0  0  0  0
  3 21  1  0  0  0  0
  3 26  1  0  0  0  0
  4  3  1  0  0  0  0
  5  6  1  0  0  0  0
  5 29  1  0  0  0  0
  7 14  1  0  0  0  0
  8  2  1  0  0  0  0
  9  8  1  0  0  0  0
  9 24  2  0  0  0  0
 10  9  1  0  0  0  0
 11  7  1  0  0  0  0
 11  8  2  0  0  0  0
 12 32  1  0  0  0  0
 12  7  2  0  0  0  0
 13 12  1  0  0  0  0
 14 34  2  0  0  0  0
 14 15  1  0  0  0  0
 16  1  1  0  0  0  0
 16 18  1  0  0  0  0
 16 21  1  0  0  0  0
 17 16  1  0  0  0  0
 19 20  1  0  0  0  0
 19 34  1  0  0  0  0
 21 22  1  0  0  0  0
 23 21  1  0  0  0  0
 24 38  1  0  0  0  0
 25 24  1  0  0  0  0
 26 28  1  0  0  0  0
 26 27  1  0  0  0  0
 29 30  1  0  0  0  0
 29 26  1  0  0  0  0
 31 29  1  0  0  0  0
 32 19  2  0  0  0  0
 33 32  1  0  0  0  0
 34 35  1  0  0  0  0
 36 37  1  0  0  0  0
 38 36  2  0  0  0  0
 38 39  1  0  0  0  0
M  END
