1,2,3
 OpenBabel05122313063D

 74 79  0  0  1  0  0  0  0  0999 V2000
    0.2785    1.3539    0.7364 N   0  0  0  0  0  2  0  0  0  0  0  0
   -1.9395   -0.3483    0.0755 N   0  0  0  0  0  2  0  0  0  0  0  0
    0.5462   -1.3659   -0.7788 N   0  0  0  0  0  2  0  0  0  0  0  0
    0.4647    0.4231    1.7143 N   0  0  0  0  0  0  0  0  0  0  0  0
    1.3139    0.8997    2.6674 C   0  0  2  0  0  3  0  0  0  0  0  0
    1.6651    2.1888    2.3026 C   0  0  0  0  0  0  0  0  0  0  0  0
    1.0087    2.4388    1.0643 C   0  0  0  0  0  0  0  0  0  0  0  0
    1.9982    0.3998    3.8998 C   0  0  0  0  0  0  0  0  0  0  0  0
    2.8141   -0.3093    3.6315 H   0  0  0  0  0  0  0  0  0  0  0  0
    1.3382   -0.1222    4.6242 H   0  0  0  0  0  0  0  0  0  0  0  0
    2.5617    1.7437    4.4694 C   0  0  0  0  0  0  0  0  0  0  0  0
    1.8395    2.1373    5.2134 H   0  0  0  0  0  0  0  0  0  0  0  0
    3.5261    1.6017    4.9943 H   0  0  0  0  0  0  0  0  0  0  0  0
    2.6618    2.7522    3.2793 C   0  0  0  0  0  0  0  0  0  0  0  0
    2.4505    3.7919    3.6004 H   0  0  0  0  0  0  0  0  0  0  0  0
    3.6789    2.7560    2.8299 H   0  0  0  0  0  0  0  0  0  0  0  0
    1.0244    3.6516    0.1737 C   0  0  0  0  0  0  0  0  0  0  0  0
    0.6702    3.3172   -0.8225 H   0  0  0  0  0  0  0  0  0  0  0  0
    2.4479    4.2089    0.0193 C   0  0  0  0  0  0  0  0  0  0  0  0
    3.1448    3.4530   -0.3929 H   0  0  0  0  0  0  0  0  0  0  0  0
    2.8522    4.5659    0.9899 H   0  0  0  0  0  0  0  0  0  0  0  0
    2.4415    5.0730   -0.6744 H   0  0  0  0  0  0  0  0  0  0  0  0
    0.0378    4.7115    0.6955 C   0  0  0  0  0  0  0  0  0  0  0  0
    0.0269    5.5908    0.0204 H   0  0  0  0  0  0  0  0  0  0  0  0
    0.3208    5.0622    1.7106 H   0  0  0  0  0  0  0  0  0  0  0  0
   -0.9911    4.3037    0.7405 H   0  0  0  0  0  0  0  0  0  0  0  0
   -1.4825   -0.8817    1.2488 N   0  0  0  0  0  0  0  0  0  0  0  0
   -2.5203   -1.3086    2.0243 C   0  0  1  0  0  3  0  0  0  0  0  0
   -3.6875   -1.0571    1.3236 C   0  0  0  0  0  0  0  0  0  0  0  0
   -3.2828   -0.4603    0.0917 C   0  0  0  0  0  0  0  0  0  0  0  0
   -2.7182   -2.0153    3.3280 C   0  0  0  0  0  0  0  0  0  0  0  0
   -2.1429   -1.5904    4.1772 H   0  0  0  0  0  0  0  0  0  0  0  0
   -2.4341   -3.0893    3.2487 H   0  0  0  0  0  0  0  0  0  0  0  0
   -4.2617   -1.8322    3.5090 C   0  0  0  0  0  0  0  0  0  0  0  0
   -4.7263   -2.6939    4.0261 H   0  0  0  0  0  0  0  0  0  0  0  0
   -4.4341   -0.9396    4.1438 H   0  0  0  0  0  0  0  0  0  0  0  0
   -4.8759   -1.5698    2.0951 C   0  0  0  0  0  0  0  0  0  0  0  0
   -5.2725   -2.5040    1.6398 H   0  0  0  0  0  0  0  0  0  0  0  0
   -5.7247   -0.8586    2.1434 H   0  0  0  0  0  0  0  0  0  0  0  0
   -4.1134    0.0403   -1.0619 C   0  0  0  0  0  0  0  0  0  0  0  0
   -3.4717   -0.0332   -1.9639 H   0  0  0  0  0  0  0  0  0  0  0  0
   -5.3514   -0.8399   -1.2822 C   0  0  0  0  0  0  0  0  0  0  0  0
   -5.0793   -1.9059   -1.4196 H   0  0  0  0  0  0  0  0  0  0  0  0
   -5.8986   -0.5089   -2.1869 H   0  0  0  0  0  0  0  0  0  0  0  0
   -6.0560   -0.7731   -0.4272 H   0  0  0  0  0  0  0  0  0  0  0  0
   -4.4949    1.5200   -0.8612 C   0  0  0  0  0  0  0  0  0  0  0  0
   -3.5909    2.1492   -0.7509 H   0  0  0  0  0  0  0  0  0  0  0  0
   -5.1318    1.6465    0.0397 H   0  0  0  0  0  0  0  0  0  0  0  0
   -5.0571    1.8918   -1.7408 H   0  0  0  0  0  0  0  0  0  0  0  0
    0.6575   -1.6824    0.5435 N   0  0  0  0  0  0  0  0  0  0  0  0
    1.6301   -2.6203    0.7239 C   0  0  1  0  0  3  0  0  0  0  0  0
    2.1400   -2.9369   -0.5243 C   0  0  0  0  0  0  0  0  0  0  0  0
    1.4439   -2.1117   -1.4518 C   0  0  0  0  0  0  0  0  0  0  0  0
    2.3163   -3.3074    1.8616 C   0  0  0  0  0  0  0  0  0  0  0  0
    1.6378   -3.7348    2.6294 H   0  0  0  0  0  0  0  0  0  0  0  0
    3.0005   -2.6025    2.3863 H   0  0  0  0  0  0  0  0  0  0  0  0
    3.1060   -4.4118    1.0842 C   0  0  0  0  0  0  0  0  0  0  0  0
    2.5007   -5.3411    1.0874 H   0  0  0  0  0  0  0  0  0  0  0  0
    4.0729   -4.6507    1.5676 H   0  0  0  0  0  0  0  0  0  0  0  0
    3.2705   -3.9210   -0.3908 C   0  0  0  0  0  0  0  0  0  0  0  0
    4.2455   -3.4090   -0.5459 H   0  0  0  0  0  0  0  0  0  0  0  0
    3.2330   -4.7616   -1.1125 H   0  0  0  0  0  0  0  0  0  0  0  0
    1.5613   -2.0012   -2.9480 C   0  0  0  0  0  0  0  0  0  0  0  0
    1.0583   -1.0547   -3.2352 H   0  0  0  0  0  0  0  0  0  0  0  0
    0.8208   -3.1679   -3.6266 C   0  0  0  0  0  0  0  0  0  0  0  0
   -0.2473   -3.1853   -3.3331 H   0  0  0  0  0  0  0  0  0  0  0  0
    1.2722   -4.1446   -3.3515 H   0  0  0  0  0  0  0  0  0  0  0  0
    0.8723   -3.0674   -4.7295 H   0  0  0  0  0  0  0  0  0  0  0  0
    3.0309   -1.9170   -3.3896 C   0  0  0  0  0  0  0  0  0  0  0  0
    3.5502   -1.0482   -2.9405 H   0  0  0  0  0  0  0  0  0  0  0  0
    3.0879   -1.8088   -4.4911 H   0  0  0  0  0  0  0  0  0  0  0  0
    3.5880   -2.8381   -3.1173 H   0  0  0  0  0  0  0  0  0  0  0  0
   -0.0674   -0.9158    1.5414 C   0  0  1  0  0  0  0  0  0  0  0  0
    0.0636   -1.4406    2.5059 H   0  0  0  0  0  0  0  0  0  0  0  0
  1  7  1  0  0  0  0
  1  4  1  0  0  0  0
  2 30  1  0  0  0  0
  2 27  1  0  0  0  0
  3 50  1  0  0  0  0
  4  5  1  0  0  0  0
  5  6  1  6  0  0  0
  5  8  1  0  0  0  0
  6 14  1  0  0  0  0
  7  6  2  0  0  0  0
  8 11  1  0  0  0  0
  8 10  1  0  0  0  0
  9  8  1  0  0  0  0
 11 13  1  0  0  0  0
 11 12  1  0  0  0  0
 14 15  1  0  0  0  0
 14 11  1  0  0  0  0
 16 14  1  0  0  0  0
 17 23  1  0  0  0  0
 17  7  1  0  0  0  0
 18 17  1  0  0  0  0
 19 17  1  0  0  0  0
 19 21  1  0  0  0  0
 20 19  1  0  0  0  0
 22 19  1  0  0  0  0
 23 26  1  0  0  0  0
 23 25  1  0  0  0  0
 24 23  1  0  0  0  0
 27 73  1  0  0  0  0
 27 28  1  0  0  0  0
 28 29  1  6  0  0  0
 28 31  1  0  0  0  0
 29 37  1  0  0  0  0
 30 29  2  0  0  0  0
 31 34  1  0  0  0  0
 31 32  1  0  0  0  0
 33 31  1  0  0  0  0
 34 35  1  0  0  0  0
 34 36  1  0  0  0  0
 37 39  1  0  0  0  0
 37 34  1  0  0  0  0
 38 37  1  0  0  0  0
 40 46  1  0  0  0  0
 40 30  1  0  0  0  0
 41 40  1  0  0  0  0
 42 40  1  0  0  0  0
 42 45  1  0  0  0  0
 43 42  1  0  0  0  0
 44 42  1  0  0  0  0
 46 47  1  0  0  0  0
 46 48  1  0  0  0  0
 49 46  1  0  0  0  0
 50 51  1  0  0  0  0
 50 73  1  0  0  0  0
 51 52  1  1  0  0  0
 51 54  1  0  0  0  0
 52 60  1  0  0  0  0
 53  3  1  0  0  0  0
 53 52  2  0  0  0  0
 54 56  1  0  0  0  0
 54 55  1  0  0  0  0
 57 58  1  0  0  0  0
 57 59  1  0  0  0  0
 57 54  1  0  0  0  0
 60 57  1  0  0  0  0
 61 60  1  0  0  0  0
 62 60  1  0  0  0  0
 63 53  1  0  0  0  0
 64 63  1  0  0  0  0
 65 67  1  0  0  0  0
 65 66  1  0  0  0  0
 65 63  1  0  0  0  0
 68 65  1  0  0  0  0
 69 72  1  0  0  0  0
 69 63  1  0  0  0  0
 69 70  1  0  0  0  0
 71 69  1  0  0  0  0
 73  4  1  0  0  0  0
 73 74  1  1  0  0  0
M  END
