2,4,5
 OpenBabel05122313063D

 40 43  0  0  0  0  0  0  0  0999 V2000
    6.5149    2.0416   -0.0868 O   0  0  0  0  0  0  0  0  0  0  0  0
    1.8969    0.4186   -0.0342 N   0  0  0  0  0  2  0  0  0  0  0  0
    0.3428    2.6511    1.0592 N   0  0  0  0  0  0  0  0  0  0  0  0
   -0.2703    1.2634   -1.4551 N   0  0  0  0  0  2  0  0  0  0  0  0
   -0.2629    1.4541    1.2659 N   0  0  0  0  0  2  0  0  0  0  0  0
    0.3356    2.4775   -1.4205 N   0  0  0  0  0  0  0  0  0  0  0  0
    2.3123    1.7040   -0.1264 N   0  0  0  0  0  0  0  0  0  0  0  0
    5.4725    0.0027   -0.0175 N   0  0  0  0  0  0  0  0  0  0  0  0
    5.6081   -0.9993    0.1136 H   0  0  0  0  0  0  0  0  0  0  0  0
    2.9960   -0.3607    0.0180 C   0  0  0  0  0  3  0  0  0  0  0  0
    2.9023   -1.4494    0.0946 H   0  0  0  0  0  0  0  0  0  0  0  0
    4.1524    0.4563   -0.0423 C   0  0  0  0  0  0  0  0  0  0  0  0
    0.0280    3.5131    2.0618 C   0  0  0  0  0  3  0  0  0  0  0  0
    0.4307    4.5316    2.0642 H   0  0  0  0  0  0  0  0  0  0  0  0
    3.6720    1.7730   -0.1338 C   0  0  0  0  0  0  0  0  0  0  0  0
    4.2151    2.7174   -0.1981 H   0  0  0  0  0  0  0  0  0  0  0  0
    7.9102    0.0898   -0.0241 C   0  0  0  0  0  0  0  0  0  0  0  0
    0.0139    3.1918   -2.5313 C   0  0  0  0  0  3  0  0  0  0  0  0
    0.4156    4.2000   -2.6778 H   0  0  0  0  0  0  0  0  0  0  0  0
   -0.8171    2.8481    2.9544 C   0  0  0  0  0  0  0  0  0  0  0  0
   -1.2587    3.2436    3.8743 H   0  0  0  0  0  0  0  0  0  0  0  0
   -0.9852    1.2033   -2.5977 C   0  0  0  0  0  0  0  0  0  0  0  0
   -1.5597    0.3016   -2.8361 H   0  0  0  0  0  0  0  0  0  0  0  0
    6.5897    0.8118   -0.0512 C   0  0  0  0  0  0  0  0  0  0  0  0
   -0.9708    1.5540    2.4101 C   0  0  0  0  0  0  0  0  0  0  0  0
   -1.5438    0.6947    2.7750 H   0  0  0  0  0  0  0  0  0  0  0  0
    9.0426    0.8478    0.3370 C   0  0  0  0  0  0  0  0  0  0  0  0
    8.8914    1.9112    0.5740 H   0  0  0  0  0  0  0  0  0  0  0  0
   -0.8360    2.4091   -3.3176 C   0  0  0  0  0  0  0  0  0  0  0  0
   -1.2838    2.6728   -4.2807 H   0  0  0  0  0  0  0  0  0  0  0  0
   10.4653   -1.1029    0.0566 C   0  0  0  0  0  0  0  0  0  0  0  0
   11.4616   -1.5694    0.0903 H   0  0  0  0  0  0  0  0  0  0  0  0
    9.3475   -1.8612   -0.3260 C   0  0  0  0  0  0  0  0  0  0  0  0
    9.4663   -2.9193   -0.6042 H   0  0  0  0  0  0  0  0  0  0  0  0
    8.0773   -1.2683   -0.3680 C   0  0  0  0  0  0  0  0  0  0  0  0
    7.2215   -1.8729   -0.7087 H   0  0  0  0  0  0  0  0  0  0  0  0
   10.3097    0.2545    0.3845 C   0  0  0  0  0  0  0  0  0  0  0  0
   11.1852    0.8543    0.6766 H   0  0  0  0  0  0  0  0  0  0  0  0
    1.2287    2.8052   -0.2002 B   0  0  2  0  0  0  0  0  0  0  0  0
    1.7158    3.9196   -0.2795 H   0  0  0  0  0  0  0  0  0  0  0  0
  1 24  2  0  0  0  0
  2 10  1  0  0  0  0
  3  5  1  0  0  0  0
  3 13  1  0  0  0  0
  4  6  1  0  0  0  0
  5 25  1  0  0  0  0
  6 39  1  0  0  0  0
  7  2  1  0  0  0  0
  8  9  1  0  0  0  0
 10 11  1  0  0  0  0
 12  8  1  0  0  0  0
 12 10  1  0  0  0  0
 13 14  1  0  0  0  0
 13 20  1  0  0  0  0
 15  7  1  0  0  0  0
 15 12  2  0  0  0  0
 16 15  1  0  0  0  0
 17 27  1  0  0  0  0
 18  6  1  0  0  0  0
 19 18  1  0  0  0  0
 20 21  1  0  0  0  0
 22  4  1  0  0  0  0
 23 22  1  0  0  0  0
 24 17  1  0  0  0  0
 24  8  1  0  0  0  0
 25 26  1  0  0  0  0
 25 20  2  0  0  0  0
 27 37  2  0  0  0  0
 27 28  1  0  0  0  0
 29 22  2  0  0  0  0
 29 18  1  0  0  0  0
 30 29  1  0  0  0  0
 31 32  1  0  0  0  0
 31 37  1  0  0  0  0
 33 31  2  0  0  0  0
 34 33  1  0  0  0  0
 35 33  1  0  0  0  0
 35 17  2  0  0  0  0
 36 35  1  0  0  0  0
 37 38  1  0  0  0  0
 39 40  1  6  0  0  0
 39  7  1  0  0  0  0
 39  3  1  0  0  0  0
M  END
