1,2,3
q = 0.0, confidence = 0.99

 45 47  0  0  1  0  0  0  0  0999 V2000
    1.4874   -1.9392    0.0859 N   0  0  0  0  0  2  0  0  0  0  0  0
   -0.4082   -0.0183    0.5095 N   0  0  0  0  0  0  0  0  0  0  0  0
    1.2951    2.0725    0.0806 N   0  0  0  0  0  2  0  0  0  0  0  0
    2.3589   -2.8283   -0.4420 C   0  0  0  0  0  3  0  0  0  0  0  0
    3.2694   -2.3894   -0.8791 H   0  0  0  0  0  0  0  0  0  0  0  0
    2.0981   -4.2018   -0.4083 C   0  0  0  0  0  0  0  0  0  0  0  0
    2.8298   -4.8996   -0.8388 H   0  0  0  0  0  0  0  0  0  0  0  0
    0.9032   -4.6571    0.1648 C   0  0  0  0  0  0  0  0  0  0  0  0
    0.6693   -5.7315    0.1901 H   0  0  0  0  0  0  0  0  0  0  0  0
    0.0022   -3.7243    0.7036 C   0  0  0  0  0  0  0  0  0  0  0  0
   -0.9489   -4.0416    1.1525 H   0  0  0  0  0  0  0  0  0  0  0  0
    0.3220   -2.3657    0.6672 C   0  0  0  0  0  0  0  0  0  0  0  0
   -0.5257   -1.2849    1.2999 C   0  0  0  0  0  0  0  0  0  0  0  0
   -1.5798   -1.6093    1.3937 H   0  0  0  0  0  0  0  0  0  0  0  0
   -0.1278   -1.0764    2.3149 H   0  0  0  0  0  0  0  0  0  0  0  0
   -0.6350    1.2270    1.3067 C   0  0  0  0  0  0  0  0  0  0  0  0
   -1.7172    1.4398    1.4228 H   0  0  0  0  0  0  0  0  0  0  0  0
   -0.2086    1.0523    2.3163 H   0  0  0  0  0  0  0  0  0  0  0  0
    0.0997    2.3875    0.6728 C   0  0  1  0  0  3  0  0  0  0  0  0
   -0.3426    3.7115    0.7222 C   0  0  0  0  0  0  0  0  0  0  0  0
   -1.3091    3.9439    1.1921 H   0  0  0  0  0  0  0  0  0  0  0  0
    0.4630    4.7261    0.1782 C   0  0  0  0  0  0  0  0  0  0  0  0
    0.1315    5.7743    0.2127 H   0  0  0  0  0  0  0  0  0  0  0  0
    1.6884    4.3846   -0.4088 C   0  0  0  0  0  0  0  0  0  0  0  0
    2.3486    5.1485   -0.8427 H   0  0  0  0  0  0  0  0  0  0  0  0
    2.0757    3.0409   -0.4495 C   0  0  0  0  0  0  0  0  0  0  0  0
    3.0209    2.6902   -0.8929 H   0  0  0  0  0  0  0  0  0  0  0  0
   -1.2621   -0.0531   -0.7535 C   0  0  0  0  0  0  0  0  0  0  0  0
   -0.9170    0.7959   -1.3733 H   0  0  0  0  0  0  0  0  0  0  0  0
   -0.9850   -0.9858   -1.2797 H   0  0  0  0  0  0  0  0  0  0  0  0
   -2.7486    0.0288   -0.5340 C   0  0  0  0  0  0  0  0  0  0  0  0
   -3.5397   -1.1355   -0.3850 C   0  0  0  0  0  0  0  0  0  0  0  0
   -2.9005   -2.3463   -0.3974 O   0  0  0  0  0  0  0  0  0  0  0  0
   -3.5712   -3.0553   -0.4214 H   0  0  0  0  0  0  0  0  0  0  0  0
   -4.9344   -1.0383   -0.2324 C   0  0  0  0  0  0  0  0  0  0  0  0
   -5.5268   -1.9616   -0.1182 H   0  0  0  0  0  0  0  0  0  0  0  0
   -5.5867    0.2068   -0.2281 C   0  0  0  0  0  0  0  0  0  0  0  0
   -4.8015    1.3707   -0.3889 C   0  0  0  0  0  0  0  0  0  0  0  0
   -5.2885    2.3571   -0.4089 H   0  0  0  0  0  0  0  0  0  0  0  0
   -3.4171    1.2728   -0.5465 C   0  0  0  0  0  0  0  0  0  0  0  0
   -2.8254    2.1878   -0.7138 H   0  0  0  0  0  0  0  0  0  0  0  0
   -7.0816    0.3020   -0.0805 C   0  0  0  0  0  0  0  0  0  0  0  0
   -7.5416   -0.6797    0.1390 H   0  0  0  0  0  0  0  0  0  0  0  0
   -7.5434    0.6931   -1.0111 H   0  0  0  0  0  0  0  0  0  0  0  0
   -7.3590    1.0040    0.7319 H   0  0  0  0  0  0  0  0  0  0  0  0
  1 12  1  0  0  0  0
  2 13  1  0  0  0  0
  2 16  1  0  0  0  0
  3 19  1  0  0  0  0
  4  6  1  0  0  0  0
  4  1  1  0  0  0  0
  5  4  1  0  0  0  0
  6  8  2  0  0  0  0
  7  6  1  0  0  0  0
  8  9  1  0  0  0  0
  8 10  1  0  0  0  0
 10 11  1  0  0  0  0
 12 10  2  0  0  0  0
 12 13  1  0  0  0  0
 13 14  1  0  0  0  0
 13 15  1  0  0  0  0
 16 17  1  0  0  0  0
 16 18  1  0  0  0  0
 19 20  1  0  0  0  0
 19 16  1  1  0  0  0
 20 21  1  0  0  0  0
 22 23  1  0  0  0  0
 22 20  2  0  0  0  0
 24 22  1  0  0  0  0
 25 24  1  0  0  0  0
 26 24  2  0  0  0  0
 26  3  1  0  0  0  0
 27 26  1  0  0  0  0
 28 31  1  0  0  0  0
 28  2  1  0  0  0  0
 29 28  1  0  0  0  0
 30 28  1  0  0  0  0
 31 32  1  0  0  0  0
 32 35  2  0  0  0  0
 33 32  1  0  0  0  0
 34 33  1  0  0  0  0
 35 37  1  0  0  0  0
 35 36  1  0  0  0  0
 37 42  1  0  0  0  0
 38 37  2  0  0  0  0
 39 38  1  0  0  0  0
 40 31  2  0  0  0  0
 40 38  1  0  0  0  0
 41 40  1  0  0  0  0
 42 43  1  0  0  0  0
 42 45  1  0  0  0  0
 44 42  1  0  0  0  0
M  END
