5,6,8
q = 0.0, confidence = 0.97

 42 45  0  0  1  0  0  0  0  0999 V2000
   -2.1425   -1.7754    0.0565 S   0  0  0  0  0  0  0  0  0  0  0  0
   -1.4995   -1.8116    1.3700 O   0  0  0  0  0  0  0  0  0  0  0  0
   -2.5066   -2.9564   -0.7306 O   0  0  0  0  0  0  0  0  0  0  0  0
   -0.8717   -0.9930   -1.0778 N   0  0  0  0  0  0  0  0  0  0  0  0
    0.2591   -0.3336   -0.7467 N   0  0  0  0  0  2  0  0  0  0  0  0
    3.0164   -0.6629   -0.3231 N   0  0  0  0  0  2  0  0  0  0  0  0
    3.1380   -0.0415   -1.5188 N   0  0  0  0  0  0  0  0  0  0  0  0
    1.7561    1.7685    0.2937 N   0  0  0  0  0  2  0  0  0  0  0  0
    2.0416    2.0029   -1.0088 N   0  0  0  0  0  0  0  0  0  0  0  0
   -1.1033   -0.9531   -2.4216 C   0  0  0  0  0  3  0  0  0  0  0  0
   -1.9773   -1.4479   -2.8573 H   0  0  0  0  0  0  0  0  0  0  0  0
   -0.0696   -0.2260   -3.0029 C   0  0  0  0  0  0  0  0  0  0  0  0
    0.0721   -0.0006   -4.0647 H   0  0  0  0  0  0  0  0  0  0  0  0
    0.7516    0.1372   -1.9150 C   0  0  0  0  0  0  0  0  0  0  0  0
    2.0688    0.8650   -1.9166 C   0  0  2  0  0  0  0  0  0  0  0  0
    2.2959    1.2404   -2.9295 H   0  0  0  0  0  0  0  0  0  0  0  0
    4.0960   -1.4566   -0.2078 C   0  0  0  0  0  3  0  0  0  0  0  0
    4.2344   -2.0696    0.6903 H   0  0  0  0  0  0  0  0  0  0  0  0
    4.9169   -1.3430   -1.3524 C   0  0  0  0  0  0  0  0  0  0  0  0
    5.8570   -1.8662   -1.5534 H   0  0  0  0  0  0  0  0  0  0  0  0
    4.2733   -0.4238   -2.1754 C   0  0  0  0  0  0  0  0  0  0  0  0
    4.5264   -0.0235   -3.1635 H   0  0  0  0  0  0  0  0  0  0  0  0
    1.8019    2.9665    0.9034 C   0  0  0  0  0  3  0  0  0  0  0  0
    1.6081    3.0422    1.9795 H   0  0  0  0  0  0  0  0  0  0  0  0
    2.1198    3.9823   -0.0261 C   0  0  0  0  0  0  0  0  0  0  0  0
    2.2260    5.0541    0.1674 H   0  0  0  0  0  0  0  0  0  0  0  0
    2.2715    3.3289   -1.2452 C   0  0  0  0  0  0  0  0  0  0  0  0
    2.5161    3.6978   -2.2475 H   0  0  0  0  0  0  0  0  0  0  0  0
   -3.4495   -0.5826    0.0116 C   0  0  0  0  0  0  0  0  0  0  0  0
   -3.4501    0.4786    0.9332 C   0  0  0  0  0  0  0  0  0  0  0  0
   -2.6513    0.5802    1.6800 H   0  0  0  0  0  0  0  0  0  0  0  0
   -4.5100    1.3899    0.8894 C   0  0  0  0  0  0  0  0  0  0  0  0
   -4.5269    2.2239    1.6074 H   0  0  0  0  0  0  0  0  0  0  0  0
   -5.5635    1.2550   -0.0432 C   0  0  0  0  0  0  0  0  0  0  0  0
   -5.5296    0.1659   -0.9440 C   0  0  0  0  0  0  0  0  0  0  0  0
   -6.3486    0.0360   -1.6678 H   0  0  0  0  0  0  0  0  0  0  0  0
   -4.4837   -0.7610   -0.9251 C   0  0  0  0  0  0  0  0  0  0  0  0
   -4.4757   -1.6240   -1.6060 H   0  0  0  0  0  0  0  0  0  0  0  0
   -6.7147    2.2209   -0.0490 C   0  0  0  0  0  0  0  0  0  0  0  0
   -7.5198    1.8591    0.6266 H   0  0  0  0  0  0  0  0  0  0  0  0
   -7.1597    2.3243   -1.0572 H   0  0  0  0  0  0  0  0  0  0  0  0
   -6.4131    3.2225    0.3127 H   0  0  0  0  0  0  0  0  0  0  0  0
  1  2  2  0  0  0  0
  3  1  2  0  0  0  0
  4  5  1  0  0  0  0
  4  1  1  0  0  0  0
  6 17  1  0  0  0  0
  7  6  1  0  0  0  0
  8 23  1  0  0  0  0
  9  8  1  0  0  0  0
 10  4  1  0  0  0  0
 11 10  1  0  0  0  0
 12 10  1  0  0  0  0
 12 14  2  0  0  0  0
 13 12  1  0  0  0  0
 14  5  1  0  0  0  0
 15 16  1  6  0  0  0
 15 14  1  0  0  0  0
 15  7  1  0  0  0  0
 15  9  1  0  0  0  0
 17 18  1  0  0  0  0
 19 17  1  0  0  0  0
 20 19  1  0  0  0  0
 21  7  1  0  0  0  0
 21 19  2  0  0  0  0
 22 21  1  0  0  0  0
 23 24  1  0  0  0  0
 25 26  1  0  0  0  0
 25 23  1  0  0  0  0
 27  9  1  0  0  0  0
 27 25  2  0  0  0  0
 28 27  1  0  0  0  0
 29  1  1  0  0  0  0
 29 30  1  0  0  0  0
 30 31  1  0  0  0  0
 32 30  2  0  0  0  0
 32 33  1  0  0  0  0
 34 32  1  0  0  0  0
 35 37  1  0  0  0  0
 35 34  2  0  0  0  0
 36 35  1  0  0  0  0
 37 29  2  0  0  0  0
 38 37  1  0  0  0  0
 39 34  1  0  0  0  0
 39 42  1  0  0  0  0
 39 40  1  0  0  0  0
 41 39  1  0  0  0  0
M  END
