1,2,3
q = 0.0, confidence = 0.976

 58 60  0  0  1  0  0  0  0  0999 V2000
   -1.3751   -1.1964    0.1483 N   0  0  0  0  0  2  0  0  0  0  0  0
    1.0048   -0.6322    0.0422 N   0  0  0  0  0  2  0  0  0  0  0  0
   -2.3556    1.0579    0.3617 N   0  0  0  0  0  2  0  0  0  0  0  0
   -3.2729    0.0212    0.3370 N   0  0  2  0  0  0  0  0  0  0  0  0
   -2.7236   -1.2553    0.1939 C   0  0  2  0  0  3  0  0  0  0  0  0
   -3.3898   -2.4831    0.1029 C   0  0  0  0  0  0  0  0  0  0  0  0
   -4.4781   -2.5528    0.1869 H   0  0  0  0  0  0  0  0  0  0  0  0
   -2.6080   -3.6409   -0.1111 C   0  0  0  0  0  0  0  0  0  0  0  0
   -3.1109   -4.6141   -0.2020 H   0  0  0  0  0  0  0  0  0  0  0  0
   -1.2162   -3.5615   -0.2181 C   0  0  0  0  0  0  0  0  0  0  0  0
   -0.6107   -4.4564   -0.4138 H   0  0  0  0  0  0  0  0  0  0  0  0
   -0.5987   -2.3029   -0.0747 C   0  0  0  0  0  0  0  0  0  0  0  0
    0.7978   -1.9438   -0.1118 C   0  0  1  0  0  3  0  0  0  0  0  0
    1.8931   -2.9406   -0.3255 C   0  0  0  0  0  0  0  0  0  0  0  0
    2.8220   -2.6237    0.1842 H   0  0  0  0  0  0  0  0  0  0  0  0
    2.1312   -3.0264   -1.4078 H   0  0  0  0  0  0  0  0  0  0  0  0
    1.6015   -3.9432    0.0404 H   0  0  0  0  0  0  0  0  0  0  0  0
   -4.5669    0.5062    0.2962 C   0  0  1  0  0  3  0  0  0  0  0  0
   -4.4463    1.8887    0.2917 C   0  0  0  0  0  0  0  0  0  0  0  0
   -5.2713    2.6081    0.2711 H   0  0  0  0  0  0  0  0  0  0  0  0
   -3.0580    2.2003    0.3101 C   0  0  0  0  0  0  0  0  0  0  0  0
   -5.7886   -0.3453    0.2552 C   0  0  0  0  0  0  0  0  0  0  0  0
   -5.8576   -1.0270    1.1284 H   0  0  0  0  0  0  0  0  0  0  0  0
   -5.8303   -0.9649   -0.6651 H   0  0  0  0  0  0  0  0  0  0  0  0
   -6.6823    0.3047    0.2630 H   0  0  0  0  0  0  0  0  0  0  0  0
   -2.4254    3.5439    0.2184 C   0  0  0  0  0  0  0  0  0  0  0  0
   -1.7541    3.7342    1.0769 H   0  0  0  0  0  0  0  0  0  0  0  0
   -3.2028    4.3276    0.1580 H   0  0  0  0  0  0  0  0  0  0  0  0
   -1.7785    3.5795   -0.6812 H   0  0  0  0  0  0  0  0  0  0  0  0
    2.3383   -0.1322    0.1328 C   0  0  0  0  0  0  0  0  0  0  0  0
    2.8775    0.0570    1.4333 C   0  0  0  0  0  0  0  0  0  0  0  0
    4.2195    0.4601    1.5329 C   0  0  0  0  0  0  0  0  0  0  0  0
    4.6663    0.6013    2.5287 H   0  0  0  0  0  0  0  0  0  0  0  0
    4.9890    0.6981    0.3860 C   0  0  0  0  0  0  0  0  0  0  0  0
    6.0383    1.0158    0.4840 H   0  0  0  0  0  0  0  0  0  0  0  0
    4.4162    0.5555   -0.8834 C   0  0  0  0  0  0  0  0  0  0  0  0
    5.0157    0.7774   -1.7794 H   0  0  0  0  0  0  0  0  0  0  0  0
    3.0787    0.1468   -1.0423 C   0  0  0  0  0  0  0  0  0  0  0  0
    2.0337   -0.1840    2.6780 C   0  0  0  0  0  0  0  0  0  0  0  0
    2.4052   -1.5154    3.3537 C   0  0  0  0  0  0  0  0  0  0  0  0
    2.2894   -2.3735    2.6605 H   0  0  0  0  0  0  0  0  0  0  0  0
    1.7606   -1.7036    4.2372 H   0  0  0  0  0  0  0  0  0  0  0  0
    3.4601   -1.5071    3.6998 H   0  0  0  0  0  0  0  0  0  0  0  0
    2.1041    0.9960    3.6579 C   0  0  0  0  0  0  0  0  0  0  0  0
    1.4206    0.8246    4.5149 H   0  0  0  0  0  0  0  0  0  0  0  0
    1.7959    1.9282    3.1459 H   0  0  0  0  0  0  0  0  0  0  0  0
    3.1241    1.1357    4.0725 H   0  0  0  0  0  0  0  0  0  0  0  0
    2.4423    0.0985   -2.4221 C   0  0  0  0  0  0  0  0  0  0  0  0
    3.2442   -0.7518   -3.4183 C   0  0  0  0  0  0  0  0  0  0  0  0
    2.7066   -0.8159   -4.3861 H   0  0  0  0  0  0  0  0  0  0  0  0
    3.4039   -1.7859   -3.0474 H   0  0  0  0  0  0  0  0  0  0  0  0
    4.2444   -0.3170   -3.6265 H   0  0  0  0  0  0  0  0  0  0  0  0
    2.2270    1.5336   -2.9377 C   0  0  0  0  0  0  0  0  0  0  0  0
    1.6230    2.1124   -2.2131 H   0  0  0  0  0  0  0  0  0  0  0  0
    1.6711    1.5139   -3.8963 H   0  0  0  0  0  0  0  0  0  0  0  0
    3.1961    2.0530   -3.0963 H   0  0  0  0  0  0  0  0  0  0  0  0
    0.9805   -0.2531    2.3375 H   0  0  0  0  0  0  0  0  0  0  0  0
    1.4263   -0.3370   -2.3264 H   0  0  0  0  0  0  0  0  0  0  0  0
  1  5  1  0  0  0  0
  2 30  1  0  0  0  0
  4  3  1  6  0  0  0
  5  6  1  1  0  0  0
  5  4  1  0  0  0  0
  6  7  1  0  0  0  0
  8  6  2  0  0  0  0
  9  8  1  0  0  0  0
 10  8  1  0  0  0  0
 10 12  2  0  0  0  0
 11 10  1  0  0  0  0
 12  1  1  0  0  0  0
 13 12  1  0  0  0  0
 13  2  1  6  0  0  0
 14 13  1  0  0  0  0
 14 17  1  0  0  0  0
 14 15  1  0  0  0  0
 16 14  1  0  0  0  0
 18 22  1  6  0  0  0
 18  4  1  0  0  0  0
 19 18  1  0  0  0  0
 19 21  2  0  0  0  0
 20 19  1  0  0  0  0
 21  3  1  0  0  0  0
 22 25  1  0  0  0  0
 22 23  1  0  0  0  0
 24 22  1  0  0  0  0
 26 21  1  0  0  0  0
 26 27  1  0  0  0  0
 28 26  1  0  0  0  0
 29 26  1  0  0  0  0
 30 31  1  0  0  0  0
 31 32  2  0  0  0  0
 31 39  1  0  0  0  0
 32 33  1  0  0  0  0
 34 35  1  0  0  0  0
 34 32  1  0  0  0  0
 36 34  2  0  0  0  0
 37 36  1  0  0  0  0
 38 36  1  0  0  0  0
 38 30  2  0  0  0  0
 39 40  1  0  0  0  0
 39 44  1  0  0  0  0
 40 43  1  0  0  0  0
 40 42  1  0  0  0  0
 41 40  1  0  0  0  0
 44 47  1  0  0  0  0
 44 45  1  0  0  0  0
 46 44  1  0  0  0  0
 48 58  1  0  0  0  0
 48 38  1  0  0  0  0
 49 51  1  0  0  0  0
 49 48  1  0  0  0  0
 50 49  1  0  0  0  0
 52 49  1  0  0  0  0
 53 48  1  0  0  0  0
 53 54  1  0  0  0  0
 55 53  1  0  0  0  0
 56 53  1  0  0  0  0
 57 39  1  0  0  0  0
M  END
