1,2,3
q = -2.0, confidence = 0.972

 50 52  0  0  1  0  0  0  0  0999 V2000
    0.8404    0.6005   -0.6193 N   0  0  0  0  0  2  0  0  0  0  0  0
   -1.6721    1.0917   -0.9042 N   0  0  0  0  0  2  0  0  0  0  0  0
   -2.8481   -0.5767    0.7253 N   0  0  0  0  0  0  0  0  0  0  0  0
    0.5677    1.6404   -1.5855 C   0  0  0  0  0  0  0  0  0  0  0  0
    0.9423    1.3847   -2.6126 H   0  0  0  0  0  0  0  0  0  0  0  0
    1.0837    2.6004   -1.3331 H   0  0  0  0  0  0  0  0  0  0  0  0
   -0.9127    1.9059   -1.6693 C   0  0  2  0  0  3  0  0  0  0  0  0
   -1.4888    2.9150   -2.4537 C   0  0  0  0  0  0  0  0  0  0  0  0
   -0.8530    3.5633   -3.0729 H   0  0  0  0  0  0  0  0  0  0  0  0
   -2.8864    3.0764   -2.4125 C   0  0  0  0  0  0  0  0  0  0  0  0
   -3.3658    3.8645   -3.0132 H   0  0  0  0  0  0  0  0  0  0  0  0
   -3.6675    2.2491   -1.6026 C   0  0  0  0  0  0  0  0  0  0  0  0
   -4.7581    2.3684   -1.5484 H   0  0  0  0  0  0  0  0  0  0  0  0
   -3.0366    1.2424   -0.8364 C   0  0  0  0  0  0  0  0  0  0  0  0
   -3.6792    0.3132    0.0535 C   0  0  0  0  0  0  0  0  0  0  0  0
   -5.0232    0.0740    0.4050 C   0  0  0  0  0  0  0  0  0  0  0  0
   -5.9026    0.6157    0.0367 H   0  0  0  0  0  0  0  0  0  0  0  0
   -5.0065   -1.0049    1.3213 C   0  0  0  0  0  0  0  0  0  0  0  0
   -5.8707   -1.4664    1.8137 H   0  0  0  0  0  0  0  0  0  0  0  0
   -3.6583   -1.3739    1.4857 C   0  0  0  0  0  3  0  0  0  0  0  0
   -3.2346   -2.1671    2.1157 H   0  0  0  0  0  0  0  0  0  0  0  0
    2.1890    0.5135   -0.1695 C   0  0  0  0  0  0  0  0  0  0  0  0
    2.6402    1.3540    0.8961 C   0  0  0  0  0  0  0  0  0  0  0  0
    3.9568    1.2116    1.3702 C   0  0  0  0  0  0  0  0  0  0  0  0
    4.3045    1.8523    2.1962 H   0  0  0  0  0  0  0  0  0  0  0  0
    4.8316    0.2687    0.8154 C   0  0  0  0  0  0  0  0  0  0  0  0
    5.8567    0.1683    1.2038 H   0  0  0  0  0  0  0  0  0  0  0  0
    4.3949   -0.5404   -0.2398 C   0  0  0  0  0  0  0  0  0  0  0  0
    5.0875   -1.2727   -0.6842 H   0  0  0  0  0  0  0  0  0  0  0  0
    3.0883   -0.4299   -0.7520 C   0  0  0  0  0  0  0  0  0  0  0  0
    1.7257    2.4025    1.5171 C   0  0  0  0  0  0  0  0  0  0  0  0
    0.7253    2.2633    1.0566 H   0  0  0  0  0  0  0  0  0  0  0  0
    1.5607    2.2039    3.0315 C   0  0  0  0  0  0  0  0  0  0  0  0
    0.8394    2.9370    3.4480 H   0  0  0  0  0  0  0  0  0  0  0  0
    2.5210    2.3391    3.5709 H   0  0  0  0  0  0  0  0  0  0  0  0
    1.1834    1.1876    3.2540 H   0  0  0  0  0  0  0  0  0  0  0  0
    2.2064    3.8282    1.1933 C   0  0  0  0  0  0  0  0  0  0  0  0
    1.4957    4.5841    1.5870 H   0  0  0  0  0  0  0  0  0  0  0  0
    2.3072    3.9873    0.1004 H   0  0  0  0  0  0  0  0  0  0  0  0
    3.1986    4.0300    1.6486 H   0  0  0  0  0  0  0  0  0  0  0  0
    2.6657   -1.2847   -1.9381 C   0  0  0  0  0  0  0  0  0  0  0  0
    1.5862   -1.0888   -2.0889 H   0  0  0  0  0  0  0  0  0  0  0  0
    3.4089   -0.8618   -3.2174 C   0  0  0  0  0  0  0  0  0  0  0  0
    3.0463   -1.4385   -4.0937 H   0  0  0  0  0  0  0  0  0  0  0  0
    4.5015   -1.0375   -3.1279 H   0  0  0  0  0  0  0  0  0  0  0  0
    3.2630    0.2165   -3.4308 H   0  0  0  0  0  0  0  0  0  0  0  0
    2.8314   -2.7870   -1.6662 C   0  0  0  0  0  0  0  0  0  0  0  0
    2.4650   -3.3850   -2.5261 H   0  0  0  0  0  0  0  0  0  0  0  0
    2.2565   -3.0959   -0.7708 H   0  0  0  0  0  0  0  0  0  0  0  0
    3.8941   -3.0620   -1.5022 H   0  0  0  0  0  0  0  0  0  0  0  0
  1 22  1  0  0  0  0
  2 14  1  0  0  0  0
  3 20  1  0  0  0  0
  4  6  1  0  0  0  0
  4  1  1  0  0  0  0
  5  4  1  0  0  0  0
  7  4  1  1  0  0  0
  7  2  1  0  0  0  0
  8 10  2  0  0  0  0
  8  7  1  0  0  0  0
  9  8  1  0  0  0  0
 10 12  1  0  0  0  0
 11 10  1  0  0  0  0
 12 13  1  0  0  0  0
 12 14  2  0  0  0  0
 14 15  1  0  0  0  0
 15 16  1  0  0  0  0
 15  3  2  0  0  0  0
 16 18  2  0  0  0  0
 17 16  1  0  0  0  0
 18 20  1  0  0  0  0
 18 19  1  0  0  0  0
 20 21  1  0  0  0  0
 22 23  1  0  0  0  0
 23 24  2  0  0  0  0
 23 31  1  0  0  0  0
 24 25  1  0  0  0  0
 26 27  1  0  0  0  0
 26 24  1  0  0  0  0
 28 26  2  0  0  0  0
 29 28  1  0  0  0  0
 30 28  1  0  0  0  0
 30 22  2  0  0  0  0
 31 33  1  0  0  0  0
 32 31  1  0  0  0  0
 33 36  1  0  0  0  0
 33 34  1  0  0  0  0
 33 35  1  0  0  0  0
 37 31  1  0  0  0  0
 37 38  1  0  0  0  0
 37 40  1  0  0  0  0
 39 37  1  0  0  0  0
 41 47  1  0  0  0  0
 41 30  1  0  0  0  0
 42 41  1  0  0  0  0
 43 45  1  0  0  0  0
 43 41  1  0  0  0  0
 44 43  1  0  0  0  0
 46 43  1  0  0  0  0
 47 50  1  0  0  0  0
 47 49  1  0  0  0  0
 48 47  1  0  0  0  0
M  END
