2,3,5
q = -2.0, confidence = 0.968

 35 37  0  0  1  0  0  0  0  0999 V2000
   -3.1347   -1.6010    2.0090 O   0  0  0  0  0  0  0  0  0  0  0  0
   -0.2580   -1.8442   -0.0299 N   0  0  0  0  0  2  0  0  0  0  0  0
    1.3697   -0.4830   -1.3686 N   0  0  0  0  0  2  0  0  0  0  0  0
    2.5689   -2.3711   -2.0825 O   0  0  0  0  0  0  0  0  0  0  0  0
   -1.4490   -0.1067    1.3384 N   0  0  0  0  0  2  0  0  0  0  0  0
   -1.3020   -2.3521    0.6483 C   0  0  1  0  0  3  0  0  0  0  0  0
    0.5879   -2.6099   -0.7405 C   0  0  0  0  0  0  0  0  0  0  0  0
   -1.6575    3.0713    3.2000 N   0  0  0  0  0  0  0  0  0  0  0  0
   -0.6779   -4.5572   -0.0977 C   0  0  0  0  0  0  0  0  0  0  0  0
   -0.8489   -5.6441   -0.1296 H   0  0  0  0  0  0  0  0  0  0  0  0
   -1.5551   -3.7282    0.6226 C   0  0  0  0  0  0  0  0  0  0  0  0
   -2.4295   -4.1036    1.1724 H   0  0  0  0  0  0  0  0  0  0  0  0
    0.4144   -3.9978   -0.7823 C   0  0  0  0  0  0  0  0  0  0  0  0
    1.1333   -4.5916   -1.3639 H   0  0  0  0  0  0  0  0  0  0  0  0
   -2.0933   -1.3184    1.3985 C   0  0  0  0  0  0  0  0  0  0  0  0
    1.6465   -1.8247   -1.4627 C   0  0  0  0  0  0  0  0  0  0  0  0
   -3.3945    1.3462    1.8032 C   0  0  0  0  0  0  0  0  0  0  0  0
   -4.0652    0.6574    1.2738 H   0  0  0  0  0  0  0  0  0  0  0  0
    2.2496    0.4540   -1.9216 C   0  0  0  0  0  0  0  0  0  0  0  0
   -2.0243    1.0228    1.9298 C   0  0  0  0  0  0  0  0  0  0  0  0
    4.4386    1.4364   -2.2376 C   0  0  0  0  0  0  0  0  0  0  0  0
    5.5290    1.4367   -2.0841 H   0  0  0  0  0  0  0  0  0  0  0  0
   -1.2159    1.9244    2.6686 C   0  0  0  0  0  0  0  0  0  0  0  0
   -0.1546    1.6684    2.8256 H   0  0  0  0  0  0  0  0  0  0  0  0
    3.6467    0.4066   -1.7180 C   0  0  0  0  0  0  0  0  0  0  0  0
    4.0841   -0.4301   -1.1574 H   0  0  0  0  0  0  0  0  0  0  0  0
    3.8203    2.4797   -2.9455 C   0  0  0  0  0  0  0  0  0  0  0  0
    4.4237    3.3124   -3.3520 H   0  0  0  0  0  0  0  0  0  0  0  0
   -3.8613    2.5398    2.3644 C   0  0  0  0  0  0  0  0  0  0  0  0
   -4.9206    2.8264    2.2711 H   0  0  0  0  0  0  0  0  0  0  0  0
   -2.9568    3.3749    3.0396 C   0  0  0  0  0  0  0  0  0  0  0  0
   -3.2995    4.3297    3.4796 H   0  0  0  0  0  0  0  0  0  0  0  0
    2.4972    2.5282   -3.1770 N   0  0  0  0  0  0  0  0  0  0  0  0
    1.7441    1.5352   -2.6868 C   0  0  0  0  0  0  0  0  0  0  0  0
    0.6617    1.5658   -2.8983 H   0  0  0  0  0  0  0  0  0  0  0  0
  2  6  1  0  0  0  0
  4 16  2  0  0  0  0
  5 15  1  0  0  0  0
  5 20  1  0  0  0  0
  6 15  1  1  0  0  0
  7  2  1  0  0  0  0
  9 11  2  0  0  0  0
 10  9  1  0  0  0  0
 11  6  1  0  0  0  0
 11 12  1  0  0  0  0
 13  7  2  0  0  0  0
 13  9  1  0  0  0  0
 14 13  1  0  0  0  0
 15  1  2  0  0  0  0
 16  3  1  0  0  0  0
 16  7  1  0  0  0  0
 17 20  2  0  0  0  0
 17 29  1  0  0  0  0
 18 17  1  0  0  0  0
 19 25  1  0  0  0  0
 19  3  1  0  0  0  0
 20 23  1  0  0  0  0
 21 22  1  0  0  0  0
 21 25  2  0  0  0  0
 23 24  1  0  0  0  0
 23  8  2  0  0  0  0
 25 26  1  0  0  0  0
 27 21  1  0  0  0  0
 28 27  1  0  0  0  0
 29 31  2  0  0  0  0
 30 29  1  0  0  0  0
 31  8  1  0  0  0  0
 31 32  1  0  0  0  0
 33 27  2  0  0  0  0
 33 34  1  0  0  0  0
 34 19  2  0  0  0  0
 35 34  1  0  0  0  0
M  END
