7,10,13
q = -1.0, confidence = 0.064

 32 34  0  0  1  0  0  0  0  0999 V2000
    0.2984    1.9965   -2.4973 O   0  0  0  0  0  0  0  0  0  0  0  0
   -0.4578    4.0507   -2.6431 O   0  0  0  0  0  0  0  0  0  0  0  0
    0.3025   -3.1600   -0.4708 O   0  0  0  0  0  0  0  0  0  0  0  0
   -0.4454   -4.3120   -2.1816 O   0  0  0  0  0  0  0  0  0  0  0  0
    0.2971    1.1770    2.9727 O   0  0  0  0  0  0  0  0  0  0  0  0
   -0.4512    0.2698    4.8248 O   0  0  0  0  0  0  0  0  0  0  0  0
   -1.9822    1.2828   -1.1350 N   0  0  0  0  0  2  0  0  0  0  0  0
   -3.2901    1.2089   -0.8111 N   0  0  0  0  0  0  0  0  0  0  0  0
   -0.5644    2.8608   -2.3419 N   0  0  0  0  0  0  0  0  0  0  0  0
   -1.9783   -1.6239   -0.5437 N   0  0  0  0  0  2  0  0  0  0  0  0
   -3.2865   -1.3086   -0.6447 N   0  0  0  0  0  0  0  0  0  0  0  0
   -0.5564   -3.4573   -1.3012 N   0  0  0  0  0  0  0  0  0  0  0  0
   -1.9810    0.3425    1.6764 N   0  0  0  0  0  2  0  0  0  0  0  0
   -3.2883    0.0943    1.4523 N   0  0  0  0  0  0  0  0  0  0  0  0
   -0.5616    0.6051    3.6443 N   0  0  0  0  0  0  0  0  0  0  0  0
   -1.8400    2.4570   -1.7718 C   0  0  1  0  0  3  0  0  0  0  0  0
   -3.0572    3.1658   -1.8616 C   0  0  0  0  0  0  0  0  0  0  0  0
   -3.2224    4.1372   -2.3338 H   0  0  0  0  0  0  0  0  0  0  0  0
   -3.9663    2.3186   -1.2335 C   0  0  0  0  0  0  0  0  0  0  0  0
   -5.0433    2.4159   -1.0601 H   0  0  0  0  0  0  0  0  0  0  0  0
   -1.8328   -2.7627   -1.2410 C   0  0  1  0  0  3  0  0  0  0  0  0
   -3.0480   -3.1971   -1.8124 C   0  0  0  0  0  0  0  0  0  0  0  0
   -3.2105   -4.0925   -2.4173 H   0  0  0  0  0  0  0  0  0  0  0  0
   -3.9596   -2.2307   -1.3954 C   0  0  0  0  0  0  0  0  0  0  0  0
   -5.0364   -2.1311   -1.5686 H   0  0  0  0  0  0  0  0  0  0  0  0
   -1.8368    0.3076    3.0114 C   0  0  1  0  0  3  0  0  0  0  0  0
   -3.0521    0.0265    3.6718 C   0  0  0  0  0  0  0  0  0  0  0  0
   -3.2156   -0.0506    4.7495 H   0  0  0  0  0  0  0  0  0  0  0  0
   -3.9622   -0.0971    2.6253 C   0  0  0  0  0  0  0  0  0  0  0  0
   -5.0385   -0.2996    2.6245 H   0  0  0  0  0  0  0  0  0  0  0  0
   -3.8218   -0.0026   -0.0012 B   0  0  1  0  0  0  0  0  0  0  0  0
   -5.0418   -0.0043   -0.0012 H   0  0  0  0  0  0  0  0  0  0  0  0
  1  9  2  0  0  0  0
  2  9  2  0  0  0  0
  4 12  2  0  0  0  0
  5 15  2  0  0  0  0
  7  8  1  0  0  0  0
  8 31  1  0  0  0  0
 11 10  1  0  0  0  0
 11 31  1  0  0  0  0
 12  3  2  0  0  0  0
 13 26  1  0  0  0  0
 14 13  1  0  0  0  0
 14 29  1  0  0  0  0
 15  6  2  0  0  0  0
 16  9  1  6  0  0  0
 16  7  1  0  0  0  0
 17 16  1  0  0  0  0
 17 19  2  0  0  0  0
 18 17  1  0  0  0  0
 19 20  1  0  0  0  0
 19  8  1  0  0  0  0
 21 12  1  1  0  0  0
 21 10  1  0  0  0  0
 22 24  2  0  0  0  0
 22 21  1  0  0  0  0
 23 22  1  0  0  0  0
 24 11  1  0  0  0  0
 25 24  1  0  0  0  0
 26 15  1  1  0  0  0
 26 27  1  0  0  0  0
 27 28  1  0  0  0  0
 29 27  2  0  0  0  0
 30 29  1  0  0  0  0
 31 32  1  1  0  0  0
 31 14  1  0  0  0  0
M  END
