1,4,24
q = 0.0, confidence = 0.958

 48 51  0  0  1  0  0  0  0  0999 V2000
    0.1783    1.1931   -0.7417 N   0  0  0  0  0  2  0  0  0  0  0  0
    0.6605    3.9672   -0.4426 C   0  0  0  0  0  0  0  0  0  0  0  0
    0.8477    5.0459   -0.3300 H   0  0  0  0  0  0  0  0  0  0  0  0
   -1.9391    0.0591    0.7499 N   0  0  0  0  0  0  0  0  0  0  0  0
    2.8142   -1.8426    0.5969 C   0  0  0  0  0  0  0  0  0  0  0  0
    2.2277   -2.4635   -0.0896 H   0  0  0  0  0  0  0  0  0  0  0  0
    1.4094    1.7180   -1.1077 C   0  0  0  0  0  0  0  0  0  0  0  0
    2.4426    0.8891   -1.6181 C   0  0  0  0  0  0  0  0  0  0  0  0
    2.2606   -0.1819   -1.7367 H   0  0  0  0  0  0  0  0  0  0  0  0
    0.8332    0.8371    3.1586 C   0  0  0  0  0  0  0  0  0  0  0  0
    0.2637    1.4795    3.8446 H   0  0  0  0  0  0  0  0  0  0  0  0
    4.9495   -1.2467    1.6251 C   0  0  0  0  0  0  0  0  0  0  0  0
    6.0371   -1.3950    1.6922 H   0  0  0  0  0  0  0  0  0  0  0  0
   -4.7662    1.2529    1.4876 N   0  0  0  0  0  0  0  0  0  0  0  0
   -0.7504    2.0191   -0.2260 C   0  0  0  0  0  0  0  0  0  0  0  0
   -4.3331   -0.1262    1.7271 C   0  0  0  0  0  0  0  0  0  0  0  0
   -5.1904   -0.8344    1.6763 H   0  0  0  0  0  0  0  0  0  0  0  0
   -3.9715   -0.1549    2.7730 H   0  0  0  0  0  0  0  0  0  0  0  0
    0.1484    0.1099    2.1566 C   0  0  0  0  0  0  0  0  0  0  0  0
   -0.5473    3.4111   -0.0635 C   0  0  0  0  0  0  0  0  0  0  0  0
   -1.3531    4.0257    0.3612 H   0  0  0  0  0  0  0  0  0  0  0  0
    4.1856   -2.0201    0.7109 C   0  0  0  0  0  0  0  0  0  0  0  0
    4.6840   -2.7799    0.0908 H   0  0  0  0  0  0  0  0  0  0  0  0
    0.7808   -0.6764    1.2659 N   0  0  0  0  0  2  0  0  0  0  0  0
   -5.5331    1.4656    0.5397 N   0  0  0  0  0  4  0  0  0  0  0  0
    2.1430   -0.8827    1.3995 C   0  0  1  0  0  3  0  0  0  0  0  0
   -3.2614   -0.6531    0.7610 C   0  0  0  0  0  0  0  0  0  0  0  0
   -3.0626   -1.7110    1.0205 H   0  0  0  0  0  0  0  0  0  0  0  0
   -3.6423   -0.6458   -0.2791 H   0  0  0  0  0  0  0  0  0  0  0  0
    2.9519    3.6487   -1.3434 C   0  0  0  0  0  3  0  0  0  0  0  0
    3.1325    4.7286   -1.2332 H   0  0  0  0  0  0  0  0  0  0  0  0
    2.9063   -0.1434    2.3761 C   0  0  0  0  0  0  0  0  0  0  0  0
    1.6787    3.1311   -0.9676 C   0  0  0  0  0  0  0  0  0  0  0  0
    4.3169   -0.3322    2.4511 C   0  0  0  0  0  0  0  0  0  0  0  0
    4.8877    0.2502    3.1899 H   0  0  0  0  0  0  0  0  0  0  0  0
    3.6742    1.4224   -1.9708 C   0  0  0  0  0  0  0  0  0  0  0  0
    4.4540    0.7546   -2.3659 H   0  0  0  0  0  0  0  0  0  0  0  0
   -6.2369    1.8096   -0.3027 N   0  0  0  0  0  2  0  0  0  0  0  0
    2.2122    0.7384    3.2438 C   0  0  0  0  0  0  0  0  0  0  0  0
    2.7746    1.3210    3.9893 H   0  0  0  0  0  0  0  0  0  0  0  0
    3.9377    2.8100   -1.8356 C   0  0  0  0  0  0  0  0  0  0  0  0
    4.9185    3.2142   -2.1252 H   0  0  0  0  0  0  0  0  0  0  0  0
   -2.0760    1.4214    0.1538 C   0  0  0  0  0  0  0  0  0  0  0  0
   -2.6301    2.0951    0.8383 H   0  0  0  0  0  0  0  0  0  0  0  0
   -2.6937    1.3153   -0.7639 H   0  0  0  0  0  0  0  0  0  0  0  0
   -1.3602    0.1153    2.1196 C   0  0  0  0  0  0  0  0  0  0  0  0
   -1.7624    0.9791    2.6887 H   0  0  0  0  0  0  0  0  0  0  0  0
   -1.6871   -0.8042    2.6514 H   0  0  0  0  0  0  0  0  0  0  0  0
  1 15  1  0  0  0  0
  2  3  1  0  0  0  0
  2 20  1  0  0  0  0
  4 27  1  0  0  0  0
  4 46  1  0  0  0  0
  5 22  2  0  0  0  0
  6  5  1  0  0  0  0
  7 33  1  0  0  0  0
  7  1  1  0  0  0  0
  8  7  2  0  0  0  0
  9  8  1  0  0  0  0
 10 39  1  0  0  0  0
 10 11  1  0  0  0  0
 12 13  1  0  0  0  0
 12 34  2  0  0  0  0
 14 16  1  0  0  0  0
 15 20  2  0  0  0  0
 15 43  1  0  0  0  0
 16 18  1  0  0  0  0
 17 16  1  0  0  0  0
 19 10  2  0  0  0  0
 20 21  1  0  0  0  0
 22 12  1  0  0  0  0
 23 22  1  0  0  0  0
 24 26  1  0  0  0  0
 24 19  1  0  0  0  0
 25 14  2  0  0  0  0
 26  5  1  1  0  0  0
 26 32  1  0  0  0  0
 27 28  1  0  0  0  0
 27 16  1  0  0  0  0
 29 27  1  0  0  0  0
 30 31  1  0  0  0  0
 30 33  1  0  0  0  0
 32 34  1  0  0  0  0
 32 39  2  0  0  0  0
 33  2  2  0  0  0  0
 34 35  1  0  0  0  0
 36 41  2  0  0  0  0
 36  8  1  0  0  0  0
 37 36  1  0  0  0  0
 38 25  2  0  0  0  0
 39 40  1  0  0  0  0
 41 30  1  0  0  0  0
 42 41  1  0  0  0  0
 43  4  1  0  0  0  0
 43 44  1  0  0  0  0
 45 43  1  0  0  0  0
 46 19  1  0  0  0  0
 46 48  1  0  0  0  0
 46 47  1  0  0  0  0
M  END
