2,3,4
q = 0.0, confidence = 0.998

 36 39  0  0  1  0  0  0  0  0999 V2000
   -6.8316    0.5209   -0.2952 S   0  0  0  0  0  0  0  0  0  0  0  0
    1.5645   -1.9777   -0.0395 N   0  0  0  0  0  2  0  0  0  0  0  0
   -0.1056   -0.0193    0.0086 N   0  0  0  0  0  2  0  0  0  0  0  0
    1.4711    2.0158    0.0333 N   0  0  0  0  0  2  0  0  0  0  0  0
    2.5413   -2.8993   -0.0683 C   0  0  0  0  0  3  0  0  0  0  0  0
    3.5633   -2.4843   -0.0715 H   0  0  0  0  0  0  0  0  0  0  0  0
    2.2468   -4.2681   -0.0914 C   0  0  0  0  0  0  0  0  0  0  0  0
    3.0682   -4.9978   -0.1149 H   0  0  0  0  0  0  0  0  0  0  0  0
    0.9052   -4.6781   -0.0844 C   0  0  0  0  0  0  0  0  0  0  0  0
    0.6460   -5.7468   -0.1028 H   0  0  0  0  0  0  0  0  0  0  0  0
   -0.1068   -3.7102   -0.0539 C   0  0  0  0  0  0  0  0  0  0  0  0
   -1.1654   -4.0040   -0.0483 H   0  0  0  0  0  0  0  0  0  0  0  0
    0.2421   -2.3514   -0.0313 C   0  0  0  0  0  0  0  0  0  0  0  0
   -0.7178   -1.2296    0.0004 C   0  0  2  0  0  3  0  0  0  0  0  0
   -2.1169   -1.2834    0.0152 C   0  0  0  0  0  0  0  0  0  0  0  0
   -2.6295   -2.2537   -0.0171 H   0  0  0  0  0  0  0  0  0  0  0  0
   -2.8705   -0.0843    0.0394 C   0  0  0  0  0  0  0  0  0  0  0  0
   -4.3427   -0.1235    0.0478 C   0  0  0  0  0  0  0  0  0  0  0  0
   -5.1274   -1.2168    0.5598 C   0  0  0  0  0  0  0  0  0  0  0  0
   -4.6999   -2.1118    1.0313 H   0  0  0  0  0  0  0  0  0  0  0  0
   -6.4842   -1.0055    0.4466 C   0  0  0  0  0  0  0  0  0  0  0  0
   -7.3038   -1.6565    0.7739 H   0  0  0  0  0  0  0  0  0  0  0  0
   -5.1562    0.8935   -0.4476 C   0  0  0  0  0  0  0  0  0  0  0  0
   -4.8486    1.8232   -0.9407 H   0  0  0  0  0  0  0  0  0  0  0  0
   -2.1733    1.1490    0.0528 C   0  0  0  0  0  0  0  0  0  0  0  0
   -2.7316    2.0930    0.1063 H   0  0  0  0  0  0  0  0  0  0  0  0
   -0.7741    1.1614    0.0340 C   0  0  0  0  0  0  0  0  0  0  0  0
    0.1328    2.3271    0.0503 C   0  0  1  0  0  3  0  0  0  0  0  0
   -0.2788    3.6680    0.0815 C   0  0  0  0  0  0  0  0  0  0  0  0
   -1.3499    3.9118    0.0959 H   0  0  0  0  0  0  0  0  0  0  0  0
    0.6871    4.6822    0.0949 C   0  0  0  0  0  0  0  0  0  0  0  0
    0.3785    5.7376    0.1199 H   0  0  0  0  0  0  0  0  0  0  0  0
    2.0464    4.3355    0.0764 C   0  0  0  0  0  0  0  0  0  0  0  0
    2.8330    5.1029    0.0859 H   0  0  0  0  0  0  0  0  0  0  0  0
    2.4041    2.9821    0.0455 C   0  0  0  0  0  0  0  0  0  0  0  0
    3.4442    2.6153    0.0297 H   0  0  0  0  0  0  0  0  0  0  0  0
  1 21  1  0  0  0  0
  2 13  1  0  0  0  0
  3 27  1  0  0  0  0
  4 35  1  0  0  0  0
  4 28  1  0  0  0  0
  5  2  1  0  0  0  0
  6  5  1  0  0  0  0
  7  9  2  0  0  0  0
  7  5  1  0  0  0  0
  8  7  1  0  0  0  0
  9 11  1  0  0  0  0
 10  9  1  0  0  0  0
 11 12  1  0  0  0  0
 11 13  2  0  0  0  0
 14 13  1  6  0  0  0
 14  3  1  0  0  0  0
 14 15  1  0  0  0  0
 15 17  2  0  0  0  0
 16 15  1  0  0  0  0
 17 18  1  0  0  0  0
 17 25  1  0  0  0  0
 18 19  1  0  0  0  0
 19 20  1  0  0  0  0
 21 19  2  0  0  0  0
 21 22  1  0  0  0  0
 23  1  1  0  0  0  0
 23 18  2  0  0  0  0
 24 23  1  0  0  0  0
 25 26  1  0  0  0  0
 27 25  2  0  0  0  0
 28 27  1  1  0  0  0
 28 29  1  0  0  0  0
 29 31  2  0  0  0  0
 29 30  1  0  0  0  0
 31 32  1  0  0  0  0
 33 34  1  0  0  0  0
 33 31  1  0  0  0  0
 35 33  2  0  0  0  0
 36 35  1  0  0  0  0
M  END
