5,6,7
q = -2.0, confidence = 0.924

 65 69  0  0  1  0  0  0  0  0999 V2000
    4.8077   -5.0751    0.8180 F   0  0  0  0  0  0  0  0  0  0  0  0
   -3.2794    4.3583    1.3470 O   0  0  0  0  0  0  0  0  0  0  0  0
    3.2770    4.3606   -1.3458 O   0  0  0  0  0  0  0  0  0  0  0  0
   -4.8057   -5.0781   -0.8184 F   0  0  0  0  0  0  0  0  0  0  0  0
    1.9222    2.5760   -0.6657 N   0  0  0  0  0  2  0  0  0  0  0  0
   -1.9243    2.5747    0.6647 N   0  0  0  0  0  2  0  0  0  0  0  0
   -0.0014    4.1777   -0.0001 N   0  0  0  0  0  2  0  0  0  0  0  0
   -2.8220    1.5681    1.0745 C   0  0  0  0  0  0  0  0  0  0  0  0
    2.8209    1.5700   -1.0749 C   0  0  0  0  0  0  0  0  0  0  0  0
    1.1026    4.8097   -0.4381 C   0  0  1  0  0  3  0  0  0  0  0  0
    2.2298    3.9003   -0.8800 C   0  0  0  0  0  0  0  0  0  0  0  0
   -4.4592   -0.5368    1.9672 C   0  0  0  0  0  0  0  0  0  0  0  0
   -5.1033   -1.3592    2.3107 H   0  0  0  0  0  0  0  0  0  0  0  0
   -3.9859    0.4109    2.8821 C   0  0  0  0  0  0  0  0  0  0  0  0
   -4.2537    0.3310    3.9463 H   0  0  0  0  0  0  0  0  0  0  0  0
    3.1685    1.4561   -2.4387 C   0  0  0  0  0  0  0  0  0  0  0  0
    2.7808    2.2071   -3.1413 H   0  0  0  0  0  0  0  0  0  0  0  0
   -3.1688    1.4540    2.4386 C   0  0  0  0  0  0  0  0  0  0  0  0
   -2.7813    2.2053    3.1410 H   0  0  0  0  0  0  0  0  0  0  0  0
   -2.2323    3.8988    0.8802 C   0  0  0  0  0  0  0  0  0  0  0  0
    3.0910   -3.7664   -1.8623 N   0  0  0  0  0  0  0  0  0  0  0  0
    4.1445   -0.4256   -0.5954 C   0  0  0  0  0  0  0  0  0  0  0  0
    3.3273    0.6391   -0.1249 C   0  0  0  0  0  0  0  0  0  0  0  0
    4.7042   -1.4379    0.3412 C   0  0  0  0  0  0  0  0  0  0  0  0
   -3.3281    0.6366    0.1249 C   0  0  0  0  0  0  0  0  0  0  0  0
   -4.1444   -0.4285    0.5959 C   0  0  0  0  0  0  0  0  0  0  0  0
    1.1301    6.2099   -0.4550 C   0  0  0  0  0  0  0  0  0  0  0  0
    2.0394    6.7058   -0.8237 H   0  0  0  0  0  0  0  0  0  0  0  0
    3.9867    0.4138   -2.8818 C   0  0  0  0  0  0  0  0  0  0  0  0
    4.2553    0.3340   -3.9458 H   0  0  0  0  0  0  0  0  0  0  0  0
   -1.1058    4.8090    0.4383 C   0  0  0  0  0  0  0  0  0  0  0  0
    4.4602   -0.5336   -1.9665 C   0  0  0  0  0  0  0  0  0  0  0  0
    5.1051   -1.3555   -2.3097 H   0  0  0  0  0  0  0  0  0  0  0  0
   -0.0021    6.9092    0.0006 C   0  0  0  0  0  0  0  0  0  0  0  0
   -0.0024    8.0098    0.0008 H   0  0  0  0  0  0  0  0  0  0  0  0
   -4.4830   -2.8351   -0.1286 C   0  0  0  0  0  0  0  0  0  0  0  0
   -2.9888    0.8024   -1.3344 C   0  0  0  0  0  0  0  0  0  0  0  0
   -3.7557    1.4124   -1.8577 H   0  0  0  0  0  0  0  0  0  0  0  0
   -2.9178   -0.1680   -1.8605 H   0  0  0  0  0  0  0  0  0  0  0  0
   -2.0317    1.3457   -1.4507 H   0  0  0  0  0  0  0  0  0  0  0  0
    2.9873    0.8051    1.3342 C   0  0  0  0  0  0  0  0  0  0  0  0
    3.7529    1.4170    1.8572 H   0  0  0  0  0  0  0  0  0  0  0  0
    2.9179   -0.1650    1.8610 H   0  0  0  0  0  0  0  0  0  0  0  0
    2.0292    1.3467    1.4500 H   0  0  0  0  0  0  0  0  0  0  0  0
   -1.1340    6.2091    0.4559 C   0  0  0  0  0  0  0  0  0  0  0  0
   -2.0434    6.7045    0.8250 H   0  0  0  0  0  0  0  0  0  0  0  0
    4.4843   -2.8322    0.1285 C   0  0  0  0  0  0  0  0  0  0  0  0
    3.7087   -3.3266   -0.9660 C   0  0  0  0  0  0  0  0  0  0  0  0
   -3.7055   -3.3293    0.9647 C   0  0  0  0  0  0  0  0  0  0  0  0
   -3.0862   -3.7688    1.8601 N   0  0  0  0  0  0  0  0  0  0  0  0
    5.4887   -1.0572    1.4481 C   0  0  0  0  0  0  0  0  0  0  0  0
    5.6899    0.0106    1.6077 H   0  0  0  0  0  0  0  0  0  0  0  0
   -5.4903   -1.0604   -1.4463 C   0  0  0  0  0  0  0  0  0  0  0  0
   -5.6925    0.0073   -1.6053 H   0  0  0  0  0  0  0  0  0  0  0  0
   -5.0387   -3.7745   -1.0297 C   0  0  0  0  0  0  0  0  0  0  0  0
   -6.0339   -2.0111   -2.3210 C   0  0  0  0  0  0  0  0  0  0  0  0
   -6.6502   -1.6814   -3.1707 H   0  0  0  0  0  0  0  0  0  0  0  0
   -4.7042   -1.4409   -0.3405 C   0  0  0  0  0  0  0  0  0  0  0  0
    5.0396   -3.7715    1.0301 C   0  0  0  0  0  0  0  0  0  0  0  0
   -5.8087   -3.3817   -2.1237 C   0  0  0  0  0  0  0  0  0  0  0  0
   -6.2200   -4.1489   -2.7941 H   0  0  0  0  0  0  0  0  0  0  0  0
    5.8080   -3.3785    2.1250 C   0  0  0  0  0  0  0  0  0  0  0  0
    6.2190   -4.1456    2.7957 H   0  0  0  0  0  0  0  0  0  0  0  0
    6.0319   -2.0078    2.3231 C   0  0  0  0  0  0  0  0  0  0  0  0
    6.6470   -1.6780    3.1736 H   0  0  0  0  0  0  0  0  0  0  0  0
  1 59  1  0  0  0  0
  3 11  2  0  0  0  0
  6 20  1  0  0  0  0
  6  8  1  0  0  0  0
  7 31  1  0  0  0  0
  8 18  1  0  0  0  0
  9  5  1  0  0  0  0
  9 23  1  0  0  0  0
 10 11  1  6  0  0  0
 10  7  1  0  0  0  0
 11  5  1  0  0  0  0
 12 13  1  0  0  0  0
 12 14  1  0  0  0  0
 14 15  1  0  0  0  0
 16  9  2  0  0  0  0
 17 16  1  0  0  0  0
 18 14  2  0  0  0  0
 18 19  1  0  0  0  0
 20  2  2  0  0  0  0
 21 48  3  0  0  0  0
 22 23  2  0  0  0  0
 22 24  1  0  0  0  0
 23 41  1  0  0  0  0
 24 51  1  0  0  0  0
 25 26  1  0  0  0  0
 25  8  2  0  0  0  0
 26 12  2  0  0  0  0
 27 10  1  0  0  0  0
 27 34  2  0  0  0  0
 28 27  1  0  0  0  0
 29 16  1  0  0  0  0
 29 32  2  0  0  0  0
 30 29  1  0  0  0  0
 31 45  2  0  0  0  0
 31 20  1  0  0  0  0
 32 22  1  0  0  0  0
 33 32  1  0  0  0  0
 34 35  1  0  0  0  0
 34 45  1  0  0  0  0
 36 49  1  0  0  0  0
 37 25  1  0  0  0  0
 38 37  1  0  0  0  0
 39 37  1  0  0  0  0
 40 37  1  0  0  0  0
 41 44  1  0  0  0  0
 41 42  1  0  0  0  0
 41 43  1  0  0  0  0
 45 46  1  0  0  0  0
 47 24  2  0  0  0  0
 47 59  1  0  0  0  0
 48 47  1  0  0  0  0
 49 50  3  0  0  0  0
 51 52  1  0  0  0  0
 51 64  2  0  0  0  0
 53 58  2  0  0  0  0
 54 53  1  0  0  0  0
 55  4  1  0  0  0  0
 55 36  2  0  0  0  0
 56 60  2  0  0  0  0
 56 53  1  0  0  0  0
 57 56  1  0  0  0  0
 58 36  1  0  0  0  0
 58 26  1  0  0  0  0
 59 62  2  0  0  0  0
 60 55  1  0  0  0  0
 61 60  1  0  0  0  0
 62 64  1  0  0  0  0
 62 63  1  0  0  0  0
 64 65  1  0  0  0  0
M  END
