4,5,6
q = 0.0, confidence = 0.994

 72 78  0  0  1  0  0  0  0  0999 V2000
    3.5600    0.6114    0.7605 S   0  0  0  0  0  0  0  0  0  0  0  0
   -1.2482   -3.3918    0.7554 S   0  0  0  0  0  0  0  0  0  0  0  0
   -2.3104    2.7769    0.7597 S   0  0  0  0  0  0  0  0  0  0  0  0
    1.4501    1.7102   -0.6700 N   0  0  0  0  0  2  0  0  0  0  0  0
    0.7573   -2.1101   -0.6727 N   0  0  0  0  0  2  0  0  0  0  0  0
   -2.2073    0.4012   -0.6718 N   0  0  0  0  0  2  0  0  0  0  0  0
    3.1292    3.1278   -0.2442 N   0  0  0  0  0  0  0  0  0  0  0  0
    4.0366    3.4425    0.1025 H   0  0  0  0  0  0  0  0  0  0  0  0
   -0.3764   -1.3673    2.5349 C   0  0  0  0  0  0  0  0  0  0  0  0
   -4.2746    1.1467   -0.2465 N   0  0  0  0  0  0  0  0  0  0  0  0
   -5.0009    1.7752    0.1000 H   0  0  0  0  0  0  0  0  0  0  0  0
   -0.9957    1.0050    2.5361 C   0  0  0  0  0  0  0  0  0  0  0  0
    1.1484   -4.2729   -0.2488 N   0  0  0  0  0  0  0  0  0  0  0  0
    0.9684   -5.2167    0.0969 H   0  0  0  0  0  0  0  0  0  0  0  0
    1.3685    0.3551    2.5370 C   0  0  0  0  0  0  0  0  0  0  0  0
    0.9955   -1.0208    2.5269 C   0  0  0  0  0  0  0  0  0  0  0  0
   -3.1216   -0.4797   -1.2354 C   0  0  0  0  0  0  0  0  0  0  0  0
    0.2836   -3.2120   -0.0825 C   0  0  2  0  0  3  0  0  0  0  0  0
    0.3824    1.3699    2.5279 C   0  0  0  0  0  0  0  0  0  0  0  0
   -1.3815   -0.3564    2.5252 C   0  0  0  0  0  0  0  0  0  0  0  0
    2.1807    5.1859   -1.4312 C   0  0  0  0  0  0  0  0  0  0  0  0
    3.0030    5.8875   -1.2312 H   0  0  0  0  0  0  0  0  0  0  0  0
    1.9782   -2.4592   -1.2359 C   0  0  0  0  0  0  0  0  0  0  0  0
    2.6408    1.8492   -0.0785 C   0  0  2  0  0  3  0  0  0  0  0  0
    2.2077    3.8575   -0.9741 C   0  0  0  0  0  0  0  0  0  0  0  0
    2.0880   -2.0610    2.4739 C   0  0  0  0  0  0  0  0  0  0  0  0
    1.7079   -3.0930    2.4042 H   0  0  0  0  0  0  0  0  0  0  0  0
    2.7403   -2.0157    3.3711 H   0  0  0  0  0  0  0  0  0  0  0  0
    2.7379   -1.8961    1.5894 H   0  0  0  0  0  0  0  0  0  0  0  0
    1.1445    2.9424   -1.2337 C   0  0  0  0  0  0  0  0  0  0  0  0
    0.7368    2.8362    2.4759 C   0  0  0  0  0  0  0  0  0  0  0  0
    1.8205    3.0235    2.4050 H   0  0  0  0  0  0  0  0  0  0  0  0
    0.3724    3.3774    3.3742 H   0  0  0  0  0  0  0  0  0  0  0  0
    0.2679    3.3174    1.5925 H   0  0  0  0  0  0  0  0  0  0  0  0
   -2.9231    1.3629   -0.0805 C   0  0  2  0  0  3  0  0  0  0  0  0
   -0.8035   -2.8049    2.4819 C   0  0  0  0  0  0  0  0  0  0  0  0
   -1.7504   -2.9855    3.0242 H   0  0  0  0  0  0  0  0  0  0  0  0
   -0.0567   -3.5030    2.8968 H   0  0  0  0  0  0  0  0  0  0  0  0
    2.8952   -1.6843   -1.9719 C   0  0  0  0  0  0  0  0  0  0  0  0
    2.6888   -0.6232   -2.1721 H   0  0  0  0  0  0  0  0  0  0  0  0
    2.2409   -3.8373   -0.9775 C   0  0  0  0  0  0  0  0  0  0  0  0
   -2.9112   -1.6611   -1.9723 C   0  0  0  0  0  0  0  0  0  0  0  0
   -1.8896   -2.0140   -2.1735 H   0  0  0  0  0  0  0  0  0  0  0  0
   -2.8283   -0.7827    2.4703 C   0  0  0  0  0  0  0  0  0  0  0  0
   -3.5321    0.0623    2.3986 H   0  0  0  0  0  0  0  0  0  0  0  0
   -3.1166   -1.3696    3.3675 H   0  0  0  0  0  0  0  0  0  0  0  0
   -3.0088   -1.4285    1.5859 H   0  0  0  0  0  0  0  0  0  0  0  0
    2.8270    0.7043    2.4859 C   0  0  0  0  0  0  0  0  0  0  0  0
    3.4562   -0.0248    3.0297 H   0  0  0  0  0  0  0  0  0  0  0  0
    3.0574    1.7005    2.9005 H   0  0  0  0  0  0  0  0  0  0  0  0
   -2.0267    2.0941    2.4848 C   0  0  0  0  0  0  0  0  0  0  0  0
   -1.7100    3.0029    3.0299 H   0  0  0  0  0  0  0  0  0  0  0  0
   -3.0052    1.7956    2.8980 H   0  0  0  0  0  0  0  0  0  0  0  0
   -4.4457   -0.0164   -0.9761 C   0  0  0  0  0  0  0  0  0  0  0  0
    3.4061   -4.4759   -1.4345 C   0  0  0  0  0  0  0  0  0  0  0  0
    3.6040   -5.5387   -1.2356 H   0  0  0  0  0  0  0  0  0  0  0  0
    1.0501    5.5727   -2.1585 C   0  0  0  0  0  0  0  0  0  0  0  0
    0.9847    6.6035   -2.5365 H   0  0  0  0  0  0  0  0  0  0  0  0
   -0.0127    4.6712   -2.4255 C   0  0  0  0  0  0  0  0  0  0  0  0
   -0.8771    5.0249   -3.0062 H   0  0  0  0  0  0  0  0  0  0  0  0
    0.0165    3.3509   -1.9711 C   0  0  0  0  0  0  0  0  0  0  0  0
   -0.8001    2.6428   -2.1725 H   0  0  0  0  0  0  0  0  0  0  0  0
    4.0545   -2.3171   -2.4263 C   0  0  0  0  0  0  0  0  0  0  0  0
    4.7925   -1.7436   -3.0060 H   0  0  0  0  0  0  0  0  0  0  0  0
   -5.5826   -0.7044   -1.4328 C   0  0  0  0  0  0  0  0  0  0  0  0
   -6.6013   -0.3430   -1.2329 H   0  0  0  0  0  0  0  0  0  0  0  0
    4.3056   -3.6881   -2.1605 C   0  0  0  0  0  0  0  0  0  0  0  0
    5.2319   -4.1452   -2.5386 H   0  0  0  0  0  0  0  0  0  0  0  0
   -4.0400   -2.3469   -2.4264 C   0  0  0  0  0  0  0  0  0  0  0  0
   -3.9140   -3.2725   -3.0067 H   0  0  0  0  0  0  0  0  0  0  0  0
   -5.3521   -1.8772   -2.1595 C   0  0  0  0  0  0  0  0  0  0  0  0
   -6.2121   -2.4495   -2.5373 H   0  0  0  0  0  0  0  0  0  0  0  0
  1 48  1  0  0  0  0
  2 36  1  0  0  0  0
  3 51  1  0  0  0  0
  4 24  1  0  0  0  0
  5 18  1  0  0  0  0
  6 35  1  0  0  0  0
  7 24  1  0  0  0  0
  7  8  1  0  0  0  0
 10 35  1  0  0  0  0
 10 11  1  0  0  0  0
 13 18  1  0  0  0  0
 13 14  1  0  0  0  0
 16  9  1  0  0  0  0
 16 15  2  0  0  0  0
 17 54  1  0  0  0  0
 17  6  1  0  0  0  0
 18  2  1  6  0  0  0
 19 12  2  0  0  0  0
 19 15  1  0  0  0  0
 20  9  2  0  0  0  0
 20 12  1  0  0  0  0
 21 22  1  0  0  0  0
 21 25  1  0  0  0  0
 23 41  1  0  0  0  0
 23  5  1  0  0  0  0
 24  1  1  6  0  0  0
 25  7  1  0  0  0  0
 26 16  1  0  0  0  0
 26 28  1  0  0  0  0
 27 26  1  0  0  0  0
 29 26  1  0  0  0  0
 30 25  2  0  0  0  0
 30  4  1  0  0  0  0
 31 19  1  0  0  0  0
 31 33  1  0  0  0  0
 32 31  1  0  0  0  0
 34 31  1  0  0  0  0
 35  3  1  6  0  0  0
 36  9  1  0  0  0  0
 36 38  1  0  0  0  0
 36 37  1  0  0  0  0
 39 23  2  0  0  0  0
 40 39  1  0  0  0  0
 41 13  1  0  0  0  0
 42 17  2  0  0  0  0
 43 42  1  0  0  0  0
 44 20  1  0  0  0  0
 44 46  1  0  0  0  0
 45 44  1  0  0  0  0
 47 44  1  0  0  0  0
 48 15  1  0  0  0  0
 48 50  1  0  0  0  0
 48 49  1  0  0  0  0
 51 12  1  0  0  0  0
 51 53  1  0  0  0  0
 51 52  1  0  0  0  0
 54 10  1  0  0  0  0
 55 56  1  0  0  0  0
 55 41  2  0  0  0  0
 57 21  2  0  0  0  0
 58 57  1  0  0  0  0
 59 57  1  0  0  0  0
 59 61  2  0  0  0  0
 60 59  1  0  0  0  0
 61 30  1  0  0  0  0
 62 61  1  0  0  0  0
 63 67  2  0  0  0  0
 63 39  1  0  0  0  0
 64 63  1  0  0  0  0
 65 66  1  0  0  0  0
 65 54  2  0  0  0  0
 67 55  1  0  0  0  0
 68 67  1  0  0  0  0
 69 71  2  0  0  0  0
 69 42  1  0  0  0  0
 70 69  1  0  0  0  0
 71 65  1  0  0  0  0
 72 71  1  0  0  0  0
M  END
