3,4,5
q = 0.0, confidence = 0.928

 38 41  0  0  1  0  0  0  0  0999 V2000
   -2.3216    0.7597   -2.6767 Cl  0  0  0  0  0  0  0  0  0  0  0  0
   -2.8487   -0.1913    2.6567 Cl  0  0  0  0  0  0  0  0  0  0  0  0
    2.0400   -1.4038   -0.1249 N   0  0  0  0  0  2  0  0  0  0  0  0
    1.0754    0.9135    0.0255 N   0  0  0  0  0  2  0  0  0  0  0  0
   -1.3066    0.5426    0.1487 N   0  0  0  0  0  2  0  0  0  0  0  0
    2.4820   -2.6659   -0.2261 C   0  0  0  0  0  0  0  0  0  0  0  0
    1.7095   -3.4488   -0.2276 H   0  0  0  0  0  0  0  0  0  0  0  0
    3.8593   -2.9605   -0.3427 C   0  0  0  0  0  0  0  0  0  0  0  0
    4.1670   -4.0131   -0.4214 H   0  0  0  0  0  0  0  0  0  0  0  0
    4.8147   -1.9397   -0.3528 C   0  0  0  0  0  0  0  0  0  0  0  0
    5.8870   -2.1717   -0.4390 H   0  0  0  0  0  0  0  0  0  0  0  0
    4.3793   -0.5927   -0.2505 C   0  0  0  0  0  0  0  0  0  0  0  0
    5.1975    0.5934   -0.2519 C   0  0  0  0  0  0  0  0  0  0  0  0
    6.2887    0.4753   -0.3345 H   0  0  0  0  0  0  0  0  0  0  0  0
    4.6500    1.8643   -0.1552 C   0  0  0  0  0  0  0  0  0  0  0  0
    5.3121    2.7437   -0.1590 H   0  0  0  0  0  0  0  0  0  0  0  0
    3.2306    2.0713   -0.0526 C   0  0  0  0  0  0  0  0  0  0  0  0
    2.5260    3.3116    0.0530 C   0  0  0  0  0  0  0  0  0  0  0  0
    3.0833    4.2596    0.0596 H   0  0  0  0  0  0  0  0  0  0  0  0
    1.1347    3.3149    0.1553 C   0  0  0  0  0  0  0  0  0  0  0  0
    0.5917    4.2666    0.2437 H   0  0  0  0  0  0  0  0  0  0  0  0
    0.3947    2.1011    0.1479 C   0  0  0  0  0  0  0  0  0  0  0  0
    2.9769   -0.4007   -0.1379 C   0  0  0  0  0  0  0  0  0  0  0  0
    2.4362    0.9023   -0.0505 C   0  0  0  0  0  0  0  0  0  0  0  0
   -1.0220    1.8518    0.1959 C   0  0  1  0  0  3  0  0  0  0  0  0
   -2.0707    2.9178    0.2141 C   0  0  0  0  0  0  0  0  0  0  0  0
   -2.5664    2.9915   -0.7770 H   0  0  0  0  0  0  0  0  0  0  0  0
   -1.6391    3.9053    0.4592 H   0  0  0  0  0  0  0  0  0  0  0  0
   -2.8527    2.6792    0.9619 H   0  0  0  0  0  0  0  0  0  0  0  0
   -2.6441    0.1175   -0.0397 C   0  0  0  0  0  0  0  0  0  0  0  0
   -3.2104    0.0843   -1.3385 C   0  0  0  0  0  0  0  0  0  0  0  0
   -4.4861   -0.4480   -1.5688 C   0  0  0  0  0  0  0  0  0  0  0  0
   -4.8790   -0.4682   -2.5941 H   0  0  0  0  0  0  0  0  0  0  0  0
   -5.2324   -0.9404   -0.4900 C   0  0  0  0  0  0  0  0  0  0  0  0
   -6.2311   -1.3662   -0.6662 H   0  0  0  0  0  0  0  0  0  0  0  0
   -4.7231   -0.8767    0.8132 C   0  0  0  0  0  0  0  0  0  0  0  0
   -5.3068   -1.2276    1.6749 H   0  0  0  0  0  0  0  0  0  0  0  0
   -3.4435   -0.3437    1.0318 C   0  0  0  0  0  0  0  0  0  0  0  0
  1 31  1  0  0  0  0
  4 22  1  0  0  0  0
  6  3  1  0  0  0  0
  7  6  1  0  0  0  0
  8  6  2  0  0  0  0
  9  8  1  0  0  0  0
 10  8  1  0  0  0  0
 10 12  2  0  0  0  0
 11 10  1  0  0  0  0
 12 23  1  0  0  0  0
 13 12  1  0  0  0  0
 13 15  2  0  0  0  0
 14 13  1  0  0  0  0
 15 17  1  0  0  0  0
 16 15  1  0  0  0  0
 17 24  1  0  0  0  0
 17 18  2  0  0  0  0
 18 19  1  0  0  0  0
 18 20  1  0  0  0  0
 20 21  1  0  0  0  0
 22 20  2  0  0  0  0
 22 25  1  0  0  0  0
 23  3  1  0  0  0  0
 23 24  2  0  0  0  0
 24  4  1  0  0  0  0
 25  5  1  6  0  0  0
 25 26  1  0  0  0  0
 26 28  1  0  0  0  0
 26 29  1  0  0  0  0
 27 26  1  0  0  0  0
 30  5  1  0  0  0  0
 30 38  1  0  0  0  0
 31 30  2  0  0  0  0
 32 31  1  0  0  0  0
 32 34  2  0  0  0  0
 33 32  1  0  0  0  0
 34 36  1  0  0  0  0
 35 34  1  0  0  0  0
 36 38  2  0  0  0  0
 36 37  1  0  0  0  0
 38  2  1  0  0  0  0
M  END
