1,4,7
q = 0.0, confidence = 0.952

 47 50  0  0  1  0  0  0  0  0999 V2000
   -2.0372   -1.4526   -0.0546 N   0  0  0  0  0  2  0  0  0  0  0  0
   -2.4252   -2.7358   -0.0858 C   0  0  0  0  0  0  0  0  0  0  0  0
   -1.6237   -3.4855   -0.0134 H   0  0  0  0  0  0  0  0  0  0  0  0
   -1.1733    0.9088   -0.0429 N   0  0  0  0  0  2  0  0  0  0  0  0
   -3.7851   -3.0957   -0.2213 C   0  0  0  0  0  0  0  0  0  0  0  0
   -4.0478   -4.1632   -0.2384 H   0  0  0  0  0  0  0  0  0  0  0  0
    1.2298    0.6490    0.1750 N   0  0  0  0  0  2  0  0  0  0  0  0
   -4.7800   -2.1189   -0.3263 C   0  0  0  0  0  0  0  0  0  0  0  0
   -5.8391   -2.4009   -0.4264 H   0  0  0  0  0  0  0  0  0  0  0  0
   -4.4021   -0.7511   -0.3027 C   0  0  0  0  0  0  0  0  0  0  0  0
   -3.0123   -0.4939   -0.1647 C   0  0  0  0  0  0  0  0  0  0  0  0
   -2.5286    0.8342   -0.1523 C   0  0  0  0  0  0  0  0  0  0  0  0
   -3.3688    1.9674   -0.2496 C   0  0  0  0  0  0  0  0  0  0  0  0
   -2.7185    3.2396   -0.2017 C   0  0  0  0  0  0  0  0  0  0  0  0
   -3.3133    4.1621   -0.2702 H   0  0  0  0  0  0  0  0  0  0  0  0
   -1.3310    3.3067   -0.0574 C   0  0  0  0  0  0  0  0  0  0  0  0
   -0.8260    4.2822   -0.0095 H   0  0  0  0  0  0  0  0  0  0  0  0
   -0.5469    2.1258    0.0307 C   0  0  0  0  0  0  0  0  0  0  0  0
   -4.7753    1.6939   -0.3768 C   0  0  0  0  0  0  0  0  0  0  0  0
   -5.4725    2.5421   -0.4553 H   0  0  0  0  0  0  0  0  0  0  0  0
   -5.2670    0.3973   -0.4054 C   0  0  0  0  0  0  0  0  0  0  0  0
   -6.3495    0.2278   -0.5096 H   0  0  0  0  0  0  0  0  0  0  0  0
    0.8796    1.9407    0.1394 C   0  0  2  0  0  3  0  0  0  0  0  0
    1.8422    3.0877    0.1522 C   0  0  0  0  0  0  0  0  0  0  0  0
    2.8692    2.7413    0.3685 H   0  0  0  0  0  0  0  0  0  0  0  0
    1.5463    3.8308    0.9207 H   0  0  0  0  0  0  0  0  0  0  0  0
    1.8539    3.6164   -0.8247 H   0  0  0  0  0  0  0  0  0  0  0  0
    2.6066    0.2838    0.0426 C   0  0  0  0  0  0  0  0  0  0  0  0
    3.1828    0.2957   -1.2544 C   0  0  0  0  0  0  0  0  0  0  0  0
    4.5188   -0.1170   -1.3914 C   0  0  0  0  0  0  0  0  0  0  0  0
    4.9658   -0.1207   -2.3989 H   0  0  0  0  0  0  0  0  0  0  0  0
    5.2939   -0.5242   -0.2912 C   0  0  0  0  0  0  0  0  0  0  0  0
    4.6977   -0.4909    0.9817 C   0  0  0  0  0  0  0  0  0  0  0  0
    5.2918   -0.7793    1.8642 H   0  0  0  0  0  0  0  0  0  0  0  0
    3.3621   -0.0962    1.1783 C   0  0  0  0  0  0  0  0  0  0  0  0
    2.3927    0.7529   -2.4535 C   0  0  0  0  0  0  0  0  0  0  0  0
    2.9037    0.4680   -3.3926 H   0  0  0  0  0  0  0  0  0  0  0  0
    2.2678    1.8572   -2.4667 H   0  0  0  0  0  0  0  0  0  0  0  0
    1.3832    0.2984   -2.4534 H   0  0  0  0  0  0  0  0  0  0  0  0
    6.7113   -1.0057   -0.4744 C   0  0  0  0  0  0  0  0  0  0  0  0
    7.2033   -0.5130   -1.3365 H   0  0  0  0  0  0  0  0  0  0  0  0
    6.7372   -2.1002   -0.6673 H   0  0  0  0  0  0  0  0  0  0  0  0
    7.3266   -0.8204    0.4283 H   0  0  0  0  0  0  0  0  0  0  0  0
    2.7717   -0.0460    2.5603 C   0  0  0  0  0  0  0  0  0  0  0  0
    1.9190   -0.7468    2.6668 H   0  0  0  0  0  0  0  0  0  0  0  0
    2.3483    0.9547    2.7875 H   0  0  0  0  0  0  0  0  0  0  0  0
    3.5345   -0.2835    3.3258 H   0  0  0  0  0  0  0  0  0  0  0  0
  2  1  1  0  0  0  0
  2  3  1  0  0  0  0
  4 18  1  0  0  0  0
  5  2  2  0  0  0  0
  6  5  1  0  0  0  0
  8 10  2  0  0  0  0
  8  5  1  0  0  0  0
  9  8  1  0  0  0  0
 10 11  1  0  0  0  0
 11 12  2  0  0  0  0
 11  1  1  0  0  0  0
 12  4  1  0  0  0  0
 13 14  2  0  0  0  0
 13 12  1  0  0  0  0
 14 16  1  0  0  0  0
 15 14  1  0  0  0  0
 16 17  1  0  0  0  0
 16 18  2  0  0  0  0
 18 23  1  0  0  0  0
 19 13  1  0  0  0  0
 20 19  1  0  0  0  0
 21 19  2  0  0  0  0
 21 10  1  0  0  0  0
 22 21  1  0  0  0  0
 23 24  1  0  0  0  0
 23  7  1  6  0  0  0
 24 25  1  0  0  0  0
 24 26  1  0  0  0  0
 27 24  1  0  0  0  0
 28  7  1  0  0  0  0
 28 35  1  0  0  0  0
 29 28  2  0  0  0  0
 30 29  1  0  0  0  0
 30 32  2  0  0  0  0
 31 30  1  0  0  0  0
 32 33  1  0  0  0  0
 33 35  2  0  0  0  0
 33 34  1  0  0  0  0
 35 44  1  0  0  0  0
 36 39  1  0  0  0  0
 36 29  1  0  0  0  0
 37 36  1  0  0  0  0
 38 36  1  0  0  0  0
 40 32  1  0  0  0  0
 40 43  1  0  0  0  0
 41 40  1  0  0  0  0
 42 40  1  0  0  0  0
 44 45  1  0  0  0  0
 44 46  1  0  0  0  0
 44 47  1  0  0  0  0
M  END
