1,2,3
q = -2.0, confidence = 0.906

 63 65  0  0  1  0  0  0  0  0999 V2000
    1.7888    0.1957   -0.0927 N   0  0  0  0  0  2  0  0  0  0  0  0
   -0.0067    1.8595   -0.0772 N   0  0  0  0  0  2  0  0  0  0  0  0
   -1.7810    0.1745   -0.1408 N   0  0  0  0  0  2  0  0  0  0  0  0
    2.3740    1.5732   -0.0370 C   0  0  0  0  0  0  0  0  0  0  0  0
    1.1786    2.5148    0.0261 C   0  0  1  0  0  3  0  0  0  0  0  0
    1.1951    3.9040    0.1707 C   0  0  0  0  0  0  0  0  0  0  0  0
    2.1517    4.4402    0.2524 H   0  0  0  0  0  0  0  0  0  0  0  0
   -0.0267    4.6022    0.2156 C   0  0  0  0  0  0  0  0  0  0  0  0
   -0.0345    5.6958    0.3296 H   0  0  0  0  0  0  0  0  0  0  0  0
   -1.2384    3.8917    0.1200 C   0  0  0  0  0  0  0  0  0  0  0  0
   -2.2029    4.4180    0.1611 H   0  0  0  0  0  0  0  0  0  0  0  0
   -1.2021    2.5028   -0.0238 C   0  0  0  0  0  0  0  0  0  0  0  0
   -2.3814    1.5476   -0.1472 C   0  0  0  0  0  0  0  0  0  0  0  0
    3.1812    1.8640   -1.3244 C   0  0  0  0  0  0  0  0  0  0  0  0
    4.0358    1.1636   -1.4035 H   0  0  0  0  0  0  0  0  0  0  0  0
    3.5819    2.8970   -1.2984 H   0  0  0  0  0  0  0  0  0  0  0  0
    2.5388    1.7565   -2.2181 H   0  0  0  0  0  0  0  0  0  0  0  0
    3.2891    1.7994    1.1851 C   0  0  0  0  0  0  0  0  0  0  0  0
    2.7227    1.7261    2.1305 H   0  0  0  0  0  0  0  0  0  0  0  0
    3.7465    2.8070    1.1328 H   0  0  0  0  0  0  0  0  0  0  0  0
    4.1075    1.0538    1.1972 H   0  0  0  0  0  0  0  0  0  0  0  0
   -3.3950    1.7989    0.9885 C   0  0  0  0  0  0  0  0  0  0  0  0
   -4.2031    1.0434    0.9584 H   0  0  0  0  0  0  0  0  0  0  0  0
   -3.8562    2.7983    0.8640 H   0  0  0  0  0  0  0  0  0  0  0  0
   -2.9100    1.7641    1.9799 H   0  0  0  0  0  0  0  0  0  0  0  0
   -3.0869    1.7943   -1.5039 C   0  0  0  0  0  0  0  0  0  0  0  0
   -2.3705    1.6794   -2.3390 H   0  0  0  0  0  0  0  0  0  0  0  0
   -3.5063    2.8198   -1.5343 H   0  0  0  0  0  0  0  0  0  0  0  0
   -3.9167    1.0724   -1.6351 H   0  0  0  0  0  0  0  0  0  0  0  0
    2.6642   -0.9153    0.0399 C   0  0  0  0  0  0  0  0  0  0  0  0
    3.1411   -1.5810   -1.1318 C   0  0  0  0  0  0  0  0  0  0  0  0
    4.0348   -2.6575   -0.9786 C   0  0  0  0  0  0  0  0  0  0  0  0
    4.4088   -3.1644   -1.8822 H   0  0  0  0  0  0  0  0  0  0  0  0
    4.4244   -3.1087    0.2886 C   0  0  0  0  0  0  0  0  0  0  0  0
    5.1263   -3.9507    0.3855 H   0  0  0  0  0  0  0  0  0  0  0  0
    3.8661   -2.5203    1.4285 C   0  0  0  0  0  0  0  0  0  0  0  0
    4.1070   -2.9183    2.4273 H   0  0  0  0  0  0  0  0  0  0  0  0
    2.9683   -1.4404    1.3300 C   0  0  0  0  0  0  0  0  0  0  0  0
    2.6281   -1.2163   -2.5023 C   0  0  0  0  0  0  0  0  0  0  0  0
    1.5371   -1.0261   -2.4422 H   0  0  0  0  0  0  0  0  0  0  0  0
    2.8077   -2.0454   -3.2132 H   0  0  0  0  0  0  0  0  0  0  0  0
    3.1059   -0.3093   -2.9216 H   0  0  0  0  0  0  0  0  0  0  0  0
    2.2904   -0.9266    2.5764 C   0  0  0  0  0  0  0  0  0  0  0  0
    2.9835   -0.3498    3.2235 H   0  0  0  0  0  0  0  0  0  0  0  0
    1.9158   -1.7772    3.1806 H   0  0  0  0  0  0  0  0  0  0  0  0
    1.4290   -0.2805    2.3243 H   0  0  0  0  0  0  0  0  0  0  0  0
   -2.6548   -0.9342    0.0219 C   0  0  0  0  0  0  0  0  0  0  0  0
   -3.0157   -1.3681    1.3266 C   0  0  0  0  0  0  0  0  0  0  0  0
   -3.9364   -2.4251    1.4601 C   0  0  0  0  0  0  0  0  0  0  0  0
   -4.2225   -2.7545    2.4721 H   0  0  0  0  0  0  0  0  0  0  0  0
   -4.4620   -3.0726    0.3379 C   0  0  0  0  0  0  0  0  0  0  0  0
   -5.1881   -3.8911    0.4576 H   0  0  0  0  0  0  0  0  0  0  0  0
   -4.0105   -2.7106   -0.9385 C   0  0  0  0  0  0  0  0  0  0  0  0
   -4.3573   -3.2678   -1.8232 H   0  0  0  0  0  0  0  0  0  0  0  0
   -3.0844   -1.6686   -1.1218 C   0  0  0  0  0  0  0  0  0  0  0  0
   -2.3657   -0.7962    2.5636 C   0  0  0  0  0  0  0  0  0  0  0  0
   -1.5315   -0.1183    2.3041 H   0  0  0  0  0  0  0  0  0  0  0  0
   -1.9503   -1.6185    3.1813 H   0  0  0  0  0  0  0  0  0  0  0  0
   -3.0854   -0.2433    3.2026 H   0  0  0  0  0  0  0  0  0  0  0  0
   -2.4671   -1.4332   -2.4749 C   0  0  0  0  0  0  0  0  0  0  0  0
   -2.8602   -2.1569   -3.2146 H   0  0  0  0  0  0  0  0  0  0  0  0
   -1.3714   -1.5805   -2.3618 H   0  0  0  0  0  0  0  0  0  0  0  0
   -2.6338   -0.4144   -2.8713 H   0  0  0  0  0  0  0  0  0  0  0  0
  1  4  1  0  0  0  0
  1 30  1  0  0  0  0
  2 12  1  0  0  0  0
  2  5  1  0  0  0  0
  3 47  1  0  0  0  0
  4 18  1  0  0  0  0
  5  4  1  6  0  0  0
  5  6  1  0  0  0  0
  6  8  2  0  0  0  0
  6  7  1  0  0  0  0
  8  9  1  0  0  0  0
 10 11  1  0  0  0  0
 10  8  1  0  0  0  0
 12 10  2  0  0  0  0
 13  3  1  0  0  0  0
 13 12  1  0  0  0  0
 13 22  1  0  0  0  0
 14 16  1  0  0  0  0
 14  4  1  0  0  0  0
 15 14  1  0  0  0  0
 17 14  1  0  0  0  0
 18 21  1  0  0  0  0
 18 19  1  0  0  0  0
 20 18  1  0  0  0  0
 22 25  1  0  0  0  0
 23 22  1  0  0  0  0
 24 22  1  0  0  0  0
 26 13  1  0  0  0  0
 27 26  1  0  0  0  0
 28 26  1  0  0  0  0
 29 26  1  0  0  0  0
 30 38  1  0  0  0  0
 31 32  1  0  0  0  0
 31 30  2  0  0  0  0
 32 34  2  0  0  0  0
 33 32  1  0  0  0  0
 34 35  1  0  0  0  0
 34 36  1  0  0  0  0
 36 37  1  0  0  0  0
 38 36  2  0  0  0  0
 38 43  1  0  0  0  0
 39 40  1  0  0  0  0
 39 31  1  0  0  0  0
 41 39  1  0  0  0  0
 42 39  1  0  0  0  0
 43 45  1  0  0  0  0
 43 44  1  0  0  0  0
 46 43  1  0  0  0  0
 47 48  1  0  0  0  0
 48 49  2  0  0  0  0
 48 56  1  0  0  0  0
 49 50  1  0  0  0  0
 51 52  1  0  0  0  0
 51 49  1  0  0  0  0
 53 51  2  0  0  0  0
 54 53  1  0  0  0  0
 55 53  1  0  0  0  0
 55 47  2  0  0  0  0
 56 58  1  0  0  0  0
 56 59  1  0  0  0  0
 57 56  1  0  0  0  0
 60 62  1  0  0  0  0
 60 55  1  0  0  0  0
 61 60  1  0  0  0  0
 63 60  1  0  0  0  0
M  END
