4,6,8
q = -1.0, confidence = 0.042

 26 28  0  0  0  0  0  0  0  0999 V2000
   -2.8234   -4.7213   -1.1198 Cl  0  0  0  0  0  0  0  0  0  0  0  0
   -2.8238    4.7211   -1.1195 Cl  0  0  0  0  0  0  0  0  0  0  0  0
    4.8484    0.0003   -2.7187 Cl  0  0  0  0  0  0  0  0  0  0  0  0
   -0.8258    1.4814   -0.2073 N   0  0  0  0  0  2  0  0  0  0  0  0
   -1.0686    1.2641   -1.5213 N   0  0  0  0  0  0  0  0  0  0  0  0
   -0.8257   -1.4814   -0.2074 N   0  0  0  0  0  2  0  0  0  0  0  0
   -1.0685   -1.2641   -1.5213 N   0  0  0  0  0  0  0  0  0  0  0  0
    1.5185    0.0001   -0.6484 N   0  0  0  0  0  2  0  0  0  0  0  0
    1.0331    0.0001   -1.9161 N   0  0  0  0  0  0  0  0  0  0  0  0
   -1.9862    3.2203   -1.0174 C   0  0  0  0  0  0  0  0  0  0  0  0
   -1.3783    2.6606    0.1270 C   0  0  0  0  0  3  0  0  0  0  0  0
   -1.3458    3.0375    1.1530 H   0  0  0  0  0  0  0  0  0  0  0  0
   -1.7651    2.3032   -2.0504 C   0  0  0  0  0  0  0  0  0  0  0  0
   -2.0508    2.3268   -3.1062 H   0  0  0  0  0  0  0  0  0  0  0  0
   -1.7649   -2.3032   -2.0506 C   0  0  0  0  0  3  0  0  0  0  0  0
   -2.0506   -2.3268   -3.1064 H   0  0  0  0  0  0  0  0  0  0  0  0
   -1.9859   -3.2204   -1.0176 C   0  0  0  0  0  0  0  0  0  0  0  0
   -1.3781   -2.6607    0.1269 C   0  0  0  0  0  0  0  0  0  0  0  0
   -1.3456   -3.0377    1.1528 H   0  0  0  0  0  0  0  0  0  0  0  0
    2.8649    0.0002   -0.7362 C   0  0  0  0  0  3  0  0  0  0  0  0
    3.5032    0.0002    0.1487 H   0  0  0  0  0  0  0  0  0  0  0  0
    3.2448    0.0002   -2.0933 C   0  0  0  0  0  0  0  0  0  0  0  0
    2.0492    0.0002   -2.8160 C   0  0  0  0  0  0  0  0  0  0  0  0
    1.8574    0.0002   -3.8929 H   0  0  0  0  0  0  0  0  0  0  0  0
   -0.4927    0.0001   -2.1901 B   0  0  2  0  0  0  0  0  0  0  0  0
   -0.7144    0.0001   -3.3880 H   0  0  0  0  0  0  0  0  0  0  0  0
  1 17  1  0  0  0  0
  2 10  1  0  0  0  0
  3 22  1  0  0  0  0
  4 11  1  0  0  0  0
  5  4  1  0  0  0  0
  6 18  1  0  0  0  0
  7  6  1  0  0  0  0
  9  8  1  0  0  0  0
 10 11  1  0  0  0  0
 11 12  1  0  0  0  0
 13  5  1  0  0  0  0
 13 10  2  0  0  0  0
 14 13  1  0  0  0  0
 15  7  1  0  0  0  0
 15 17  1  0  0  0  0
 16 15  1  0  0  0  0
 17 18  2  0  0  0  0
 18 19  1  0  0  0  0
 20  8  1  0  0  0  0
 20 21  1  0  0  0  0
 22 20  1  0  0  0  0
 23 22  2  0  0  0  0
 23  9  1  0  0  0  0
 24 23  1  0  0  0  0
 25 26  1  6  0  0  0
 25  9  1  0  0  0  0
 25  7  1  0  0  0  0
 25  5  1  0  0  0  0
M  END
