1,8,16
q = 0.0, confidence = 0.996

 31 31  0  0  0  0  0  0  0  0999 V2000
   -1.2281    0.2003    0.0938 N   0  0  0  0  0  0  0  0  0  0  0  0
   -1.3280    1.2709   -0.9340 C   0  0  0  0  0  0  0  0  0  0  0  0
   -1.2375    2.2551   -0.4317 H   0  0  0  0  0  0  0  0  0  0  0  0
   -2.3326    1.2693   -1.3979 H   0  0  0  0  0  0  0  0  0  0  0  0
   -0.2492    1.1321   -2.0100 C   0  0  0  0  0  0  0  0  0  0  0  0
   -0.4276    0.2144   -2.6032 H   0  0  0  0  0  0  0  0  0  0  0  0
   -0.2947    2.0129   -2.6922 H   0  0  0  0  0  0  0  0  0  0  0  0
    1.0785    0.9671   -1.3958 N   0  0  0  0  0  0  0  0  0  0  0  0
    1.7396    0.5727   -2.0753 H   0  0  0  0  0  0  0  0  0  0  0  0
    1.6433    2.1588   -0.7319 C   0  0  0  0  0  0  0  0  0  0  0  0
    0.8500    2.9314   -0.6663 H   0  0  0  0  0  0  0  0  0  0  0  0
    2.4598    2.6108   -1.3330 H   0  0  0  0  0  0  0  0  0  0  0  0
    2.1709    1.8209    0.6721 C   0  0  0  0  0  0  0  0  0  0  0  0
    3.1114    1.2437    0.5855 H   0  0  0  0  0  0  0  0  0  0  0  0
    2.3740    2.7630    1.2326 H   0  0  0  0  0  0  0  0  0  0  0  0
    1.2162    0.9427    1.3624 N   0  0  0  0  0  0  0  0  0  0  0  0
    1.6764    0.4461    2.1344 H   0  0  0  0  0  0  0  0  0  0  0  0
   -0.0434    1.5698    1.8050 C   0  0  0  0  0  0  0  0  0  0  0  0
   -0.1312    2.5596    1.3134 H   0  0  0  0  0  0  0  0  0  0  0  0
   -0.0321    1.7763    2.8964 H   0  0  0  0  0  0  0  0  0  0  0  0
   -1.2662    0.7054    1.4778 C   0  0  0  0  0  0  0  0  0  0  0  0
   -1.2647   -0.1878    2.1334 H   0  0  0  0  0  0  0  0  0  0  0  0
   -2.1897    1.2981    1.6766 H   0  0  0  0  0  0  0  0  0  0  0  0
   -2.1945   -0.9076   -0.1277 C   0  0  0  0  0  0  0  0  0  0  0  0
   -1.8082   -1.7890    0.4253 H   0  0  0  0  0  0  0  0  0  0  0  0
   -2.1448   -1.1702   -1.2013 H   0  0  0  0  0  0  0  0  0  0  0  0
   -3.6288   -0.6497    0.3154 C   0  0  0  0  0  0  0  0  0  0  0  0
   -4.2139   -1.5641    0.0522 H   0  0  0  0  0  0  0  0  0  0  0  0
   -3.6706   -0.5575    1.4278 H   0  0  0  0  0  0  0  0  0  0  0  0
   -4.1449    0.5166   -0.3150 O   0  0  0  0  0  0  0  0  0  0  0  0
   -5.0637    0.6363   -0.0169 H   0  0  0  0  0  0  0  0  0  0  0  0
  1 21  1  0  0  0  0
  2  3  1  0  0  0  0
  2  1  1  0  0  0  0
  4  2  1  0  0  0  0
  5  8  1  0  0  0  0
  5  2  1  0  0  0  0
  6  5  1  0  0  0  0
  7  5  1  0  0  0  0
  8 10  1  0  0  0  0
  9  8  1  0  0  0  0
 10 11  1  0  0  0  0
 10 13  1  0  0  0  0
 12 10  1  0  0  0  0
 13 15  1  0  0  0  0
 13 16  1  0  0  0  0
 14 13  1  0  0  0  0
 16 18  1  0  0  0  0
 16 17  1  0  0  0  0
 18 20  1  0  0  0  0
 19 18  1  0  0  0  0
 21 23  1  0  0  0  0
 21 18  1  0  0  0  0
 21 22  1  0  0  0  0
 24  1  1  0  0  0  0
 24 27  1  0  0  0  0
 24 25  1  0  0  0  0
 26 24  1  0  0  0  0
 27 29  1  0  0  0  0
 28 27  1  0  0  0  0
 30 31  1  0  0  0  0
 30 27  1  0  0  0  0
M  END
