1,2,4
q = 0.0, confidence = 0.998

 48 51  0  0  1  0  0  0  0  0999 V2000
   -0.1012    0.6953    1.1399 N   0  0  0  0  0  2  0  0  0  0  0  0
    2.9052   -0.2166    0.0340 N   0  0  0  0  0  2  0  0  0  0  0  0
   -3.0546    1.5676   -1.1958 N   0  0  0  0  0  0  0  0  0  0  0  0
    0.5099   -1.0425   -0.9775 N   0  0  0  0  0  0  0  0  0  0  0  0
   -0.6218   -0.5526    1.2019 C   0  0  1  0  0  3  0  0  0  0  0  0
    0.0238   -1.5921    0.3103 C   0  0  0  0  0  0  0  0  0  0  0  0
   -1.7489   -0.2242   -1.6480 C   0  0  0  0  0  0  0  0  0  0  0  0
   -1.6554   -0.8727    2.0953 C   0  0  0  0  0  0  0  0  0  0  0  0
    3.9623   -2.3406   -0.3606 C   0  0  0  0  0  0  0  0  0  0  0  0
   -3.7117    0.4797   -0.6476 C   0  0  0  0  0  0  0  0  0  0  0  0
   -2.9202   -0.6806   -0.9333 C   0  0  0  0  0  0  0  0  0  0  0  0
    1.7197   -1.7470   -1.4379 C   0  0  0  0  0  0  0  0  0  0  0  0
   -1.8901    1.1519   -1.7996 C   0  0  0  0  0  0  0  0  0  0  0  0
    2.9078   -1.4379   -0.5492 C   0  0  2  0  0  3  0  0  0  0  0  0
   -1.6446    1.4258    2.8378 C   0  0  0  0  0  0  0  0  0  0  0  0
   -2.1784    0.1308    2.9195 C   0  0  0  0  0  0  0  0  0  0  0  0
    3.9338    0.1731    0.8259 C   0  0  0  0  0  0  0  0  0  0  0  0
   -0.6034    1.6633    1.9352 C   0  0  0  0  0  0  0  0  0  0  0  0
   -3.3874   -1.9434   -0.5012 C   0  0  0  0  0  0  0  0  0  0  0  0
   -0.5526   -1.0290   -2.0350 C   0  0  0  0  0  0  0  0  0  0  0  0
    5.0283   -0.6840    1.0419 C   0  0  0  0  0  0  0  0  0  0  0  0
    5.0431   -1.9493    0.4422 C   0  0  0  0  0  0  0  0  0  0  0  0
   -4.9140    0.4125    0.0765 C   0  0  0  0  0  0  0  0  0  0  0  0
   -4.5833   -2.0145    0.2190 C   0  0  0  0  0  0  0  0  0  0  0  0
    3.8364    1.5387    1.4394 C   0  0  0  0  0  0  0  0  0  0  0  0
   -5.3335   -0.8486    0.5131 C   0  0  0  0  0  0  0  0  0  0  0  0
    3.9338   -3.3319   -0.8356 H   0  0  0  0  0  0  0  0  0  0  0  0
    5.8574   -0.3549    1.6841 H   0  0  0  0  0  0  0  0  0  0  0  0
    5.8894   -2.6326    0.6070 H   0  0  0  0  0  0  0  0  0  0  0  0
   -2.0642   -1.8918    2.1181 H   0  0  0  0  0  0  0  0  0  0  0  0
   -2.0277    2.2448    3.4626 H   0  0  0  0  0  0  0  0  0  0  0  0
   -3.0027   -0.0946    3.6119 H   0  0  0  0  0  0  0  0  0  0  0  0
   -0.1497    2.6620    1.8373 H   0  0  0  0  0  0  0  0  0  0  0  0
   -3.4163    2.5204   -1.2139 H   0  0  0  0  0  0  0  0  0  0  0  0
   -1.2421    1.8681   -2.3169 H   0  0  0  0  0  0  0  0  0  0  0  0
   -2.8317   -2.8635   -0.7405 H   0  0  0  0  0  0  0  0  0  0  0  0
   -5.5079    1.3142    0.2870 H   0  0  0  0  0  0  0  0  0  0  0  0
   -4.9602   -2.9929    0.5522 H   0  0  0  0  0  0  0  0  0  0  0  0
   -6.2731   -0.9391    1.0777 H   0  0  0  0  0  0  0  0  0  0  0  0
   -0.6699   -2.4465    0.1531 H   0  0  0  0  0  0  0  0  0  0  0  0
    0.9021   -1.9954    0.8584 H   0  0  0  0  0  0  0  0  0  0  0  0
    1.5680   -2.8492   -1.5100 H   0  0  0  0  0  0  0  0  0  0  0  0
    1.9402   -1.3915   -2.4678 H   0  0  0  0  0  0  0  0  0  0  0  0
   -0.0789   -0.6143   -2.9474 H   0  0  0  0  0  0  0  0  0  0  0  0
   -0.8496   -2.0788   -2.2673 H   0  0  0  0  0  0  0  0  0  0  0  0
    4.6639    1.7344    2.1451 H   0  0  0  0  0  0  0  0  0  0  0  0
    3.8611    2.3192    0.6501 H   0  0  0  0  0  0  0  0  0  0  0  0
    2.8732    1.6492    1.9785 H   0  0  0  0  0  0  0  0  0  0  0  0
  1  5  1  0  0  0  0
  1 18  1  0  0  0  0
  2 17  1  0  0  0  0
  3 10  1  0  0  0  0
  4  6  1  0  0  0  0
  5  6  1  1  0  0  0
  5  8  1  0  0  0  0
  6 41  1  0  0  0  0
  7 11  1  0  0  0  0
  8 30  1  0  0  0  0
  8 16  2  0  0  0  0
  9 22  2  0  0  0  0
 10 23  1  0  0  0  0
 11 10  2  0  0  0  0
 11 19  1  0  0  0  0
 12  4  1  0  0  0  0
 13  7  2  0  0  0  0
 13  3  1  0  0  0  0
 14 12  1  6  0  0  0
 14  9  1  0  0  0  0
 14  2  1  0  0  0  0
 15 16  1  0  0  0  0
 15 31  1  0  0  0  0
 16 32  1  0  0  0  0
 17 21  2  0  0  0  0
 17 25  1  0  0  0  0
 18 15  2  0  0  0  0
 19 24  2  0  0  0  0
 20  7  1  0  0  0  0
 20  4  1  0  0  0  0
 21 28  1  0  0  0  0
 22 29  1  0  0  0  0
 22 21  1  0  0  0  0
 23 37  1  0  0  0  0
 23 26  2  0  0  0  0
 24 26  1  0  0  0  0
 24 38  1  0  0  0  0
 25 48  1  0  0  0  0
 25 46  1  0  0  0  0
 26 39  1  0  0  0  0
 27  9  1  0  0  0  0
 33 18  1  0  0  0  0
 34  3  1  0  0  0  0
 35 13  1  0  0  0  0
 36 19  1  0  0  0  0
 40  6  1  0  0  0  0
 42 12  1  0  0  0  0
 43 12  1  0  0  0  0
 44 20  1  0  0  0  0
 45 20  1  0  0  0  0
 47 25  1  0  0  0  0
M  END
