1,2,3
q = -1.0, confidence = 0.0

 30 32  0  0  0  0  0  0  0  0999 V2000
    1.6069   -0.6441    0.0000 N   0  0  0  0  0  2  0  0  0  0  0  0
   -0.3731    1.0135    0.0001 N   0  0  0  0  0  2  0  0  0  0  0  0
   -2.3917   -0.5814    0.0002 N   0  0  0  0  0  0  0  0  0  0  0  0
   -3.5541   -1.2273    0.0004 N   0  0  0  0  0  2  0  0  0  0  0  0
   -4.5164   -0.3118   -0.0002 N   0  0  0  0  0  0  0  0  0  0  0  0
   -4.0045    0.9383   -0.0003 N   0  0  0  0  0  0  0  0  0  0  0  0
    2.5680   -1.5935   -0.0002 C   0  0  0  0  0  0  0  0  0  0  0  0
    2.1851   -2.6283   -0.0001 H   0  0  0  0  0  0  0  0  0  0  0  0
    3.9235   -1.2666   -0.0006 C   0  0  0  0  0  0  0  0  0  0  0  0
    4.6673   -2.0770   -0.0010 H   0  0  0  0  0  0  0  0  0  0  0  0
    4.3306    0.0854   -0.0008 C   0  0  0  0  0  0  0  0  0  0  0  0
    3.3163    1.0588   -0.0009 C   0  0  0  0  0  0  0  0  0  0  0  0
    3.5803    2.1259   -0.0014 H   0  0  0  0  0  0  0  0  0  0  0  0
    1.9638    0.6886   -0.0004 C   0  0  0  0  0  0  0  0  0  0  0  0
    0.8340    1.6378   -0.0005 C   0  0  0  0  0  0  0  0  0  0  0  0
    0.8759    3.0410   -0.0014 C   0  0  0  0  0  0  0  0  0  0  0  0
    1.8423    3.5641   -0.0023 H   0  0  0  0  0  0  0  0  0  0  0  0
   -0.3259    3.7834   -0.0015 C   0  0  0  0  0  0  0  0  0  0  0  0
   -1.5549    3.0878   -0.0014 C   0  0  0  0  0  0  0  0  0  0  0  0
   -2.5174    3.6188   -0.0022 H   0  0  0  0  0  0  0  0  0  0  0  0
   -1.5621    1.6874   -0.0004 C   0  0  0  0  0  0  0  0  0  0  0  0
   -2.6826    0.7656   -0.0003 C   0  0  0  0  0  0  0  0  0  0  0  0
    5.7861    0.4592    0.0009 C   0  0  0  0  0  0  0  0  0  0  0  0
    5.9324    1.5554   -0.0199 H   0  0  0  0  0  0  0  0  0  0  0  0
    6.3064    0.0230   -0.8765 H   0  0  0  0  0  0  0  0  0  0  0  0
    6.2936    0.0597    0.9033 H   0  0  0  0  0  0  0  0  0  0  0  0
   -0.3086    5.2881    0.0019 C   0  0  0  0  0  0  0  0  0  0  0  0
    0.7210    5.6906   -0.0387 H   0  0  0  0  0  0  0  0  0  0  0  0
   -0.7981    5.6851    0.9152 H   0  0  0  0  0  0  0  0  0  0  0  0
   -0.8733    5.6921   -0.8631 H   0  0  0  0  0  0  0  0  0  0  0  0
  3  4  1  0  0  0  0
  5  4  1  0  0  0  0
  6  5  2  0  0  0  0
  7  8  1  0  0  0  0
  7  1  1  0  0  0  0
  9  7  2  0  0  0  0
 10  9  1  0  0  0  0
 11  9  1  0  0  0  0
 11 23  1  0  0  0  0
 12 11  2  0  0  0  0
 12 14  1  0  0  0  0
 13 12  1  0  0  0  0
 14  1  1  0  0  0  0
 15 14  2  0  0  0  0
 15  2  1  0  0  0  0
 16 15  1  0  0  0  0
 17 16  1  0  0  0  0
 18 16  2  0  0  0  0
 18 19  1  0  0  0  0
 18 27  1  0  0  0  0
 19 21  2  0  0  0  0
 20 19  1  0  0  0  0
 21 22  1  0  0  0  0
 21  2  1  0  0  0  0
 22  6  1  0  0  0  0
 22  3  2  0  0  0  0
 23 26  1  0  0  0  0
 24 23  1  0  0  0  0
 25 23  1  0  0  0  0
 27 29  1  0  0  0  0
 28 27  1  0  0  0  0
 30 27  1  0  0  0  0
M  END
