1,2,3
q = 0.0, confidence = 0.998

 36 36  0  0  0  0  0  0  0  0999 V2000
   -1.0092    1.6050   -0.6830 N   0  0  0  0  0  0  0  0  0  0  0  0
   -2.7918   -0.3536    0.7505 N   0  0  0  0  0  0  0  0  0  0  0  0
   -1.3093   -1.1587   -1.3834 N   0  0  0  0  0  0  0  0  0  0  0  0
   -2.3283    1.1363   -1.2540 C   0  0  0  0  0  0  0  0  0  0  0  0
   -3.2673    0.7563   -0.0901 C   0  0  0  0  0  0  0  0  0  0  0  0
   -3.1925   -1.6650    0.2039 C   0  0  0  0  0  0  0  0  0  0  0  0
   -2.2697   -2.1816   -0.9141 C   0  0  0  0  0  0  0  0  0  0  0  0
   -2.0326   -0.0947   -2.1227 C   0  0  0  0  0  0  0  0  0  0  0  0
   -3.0400    2.1928   -2.1174 C   0  0  0  0  0  0  0  0  0  0  0  0
    0.0212    1.8498   -1.7193 C   0  0  0  0  0  0  0  0  0  0  0  0
   -1.1311    2.8569    0.0974 C   0  0  0  0  0  0  0  0  0  0  0  0
   -3.3009   -0.2297    2.1273 C   0  0  0  0  0  0  0  0  0  0  0  0
   -0.3062   -1.8196   -2.2386 C   0  0  0  0  0  0  0  0  0  0  0  0
   -4.2737    0.5262   -0.5172 H   0  0  0  0  0  0  0  0  0  0  0  0
   -3.4052    1.6431    0.5554 H   0  0  0  0  0  0  0  0  0  0  0  0
   -4.2547   -1.6174   -0.1383 H   0  0  0  0  0  0  0  0  0  0  0  0
   -3.1401   -2.3910    1.0351 H   0  0  0  0  0  0  0  0  0  0  0  0
   -2.8655   -2.5522   -1.7818 H   0  0  0  0  0  0  0  0  0  0  0  0
   -1.6684   -3.0178   -0.5161 H   0  0  0  0  0  0  0  0  0  0  0  0
   -2.9904   -0.4896   -2.5286 H   0  0  0  0  0  0  0  0  0  0  0  0
   -1.4339    0.2108   -3.0004 H   0  0  0  0  0  0  0  0  0  0  0  0
   -3.9346    1.7502   -2.5974 H   0  0  0  0  0  0  0  0  0  0  0  0
   -3.3818    3.0540   -1.5120 H   0  0  0  0  0  0  0  0  0  0  0  0
   -2.3861    2.5750   -2.9248 H   0  0  0  0  0  0  0  0  0  0  0  0
    0.9256    2.2300   -1.2181 H   0  0  0  0  0  0  0  0  0  0  0  0
   -0.3159    2.6004   -2.4701 H   0  0  0  0  0  0  0  0  0  0  0  0
    0.3216    0.9215   -2.2294 H   0  0  0  0  0  0  0  0  0  0  0  0
   -0.1588    3.0627    0.5760 H   0  0  0  0  0  0  0  0  0  0  0  0
   -1.8615    2.7538    0.9158 H   0  0  0  0  0  0  0  0  0  0  0  0
   -1.4060    3.7146   -0.5563 H   0  0  0  0  0  0  0  0  0  0  0  0
   -2.8468   -1.0294    2.7423 H   0  0  0  0  0  0  0  0  0  0  0  0
   -4.4134   -0.3132    2.1642 H   0  0  0  0  0  0  0  0  0  0  0  0
   -2.9753    0.7353    2.5554 H   0  0  0  0  0  0  0  0  0  0  0  0
    0.4560   -1.0901   -2.5674 H   0  0  0  0  0  0  0  0  0  0  0  0
   -0.7804   -2.2907   -3.1312 H   0  0  0  0  0  0  0  0  0  0  0  0
    0.2072   -2.5949   -1.6446 H   0  0  0  0  0  0  0  0  0  0  0  0
  1 11  1  0  0  0  0
  2 12  1  0  0  0  0
  3  7  1  0  0  0  0
  4  1  1  0  0  0  0
  4  5  1  0  0  0  0
  5 15  1  0  0  0  0
  5  2  1  0  0  0  0
  6  2  1  0  0  0  0
  6 17  1  0  0  0  0
  7 19  1  0  0  0  0
  7  6  1  0  0  0  0
  8  3  1  0  0  0  0
  8  4  1  0  0  0  0
  9 23  1  0  0  0  0
  9  4  1  0  0  0  0
 10 25  1  0  0  0  0
 10  1  1  0  0  0  0
 11 28  1  0  0  0  0
 11 29  1  0  0  0  0
 12 32  1  0  0  0  0
 12 33  1  0  0  0  0
 12 31  1  0  0  0  0
 13 36  1  0  0  0  0
 13  3  1  0  0  0  0
 14  5  1  0  0  0  0
 16  6  1  0  0  0  0
 18  7  1  0  0  0  0
 20  8  1  0  0  0  0
 21  8  1  0  0  0  0
 22  9  1  0  0  0  0
 24  9  1  0  0  0  0
 26 10  1  0  0  0  0
 27 10  1  0  0  0  0
 30 11  1  0  0  0  0
 34 13  1  0  0  0  0
 35 13  1  0  0  0  0
M  END
