1,5,8
q = 0.0, confidence = 0.998

 52 56  0  0  1  0  0  0  0  0999 V2000
   -0.0557    1.3615    0.1466 N   0  0  0  0  0  2  0  0  0  0  0  0
   -0.1655    4.1014   -0.3579 N   0  0  0  0  0  0  0  0  0  0  0  0
   -2.4284    1.2405    0.1175 N   0  0  0  0  0  0  0  0  0  0  0  0
   -3.8640   -0.1665   -1.1195 N   0  0  2  0  0  0  0  0  0  0  0  0
   -1.5933   -0.7695   -0.7808 N   0  0  0  0  0  2  0  0  0  0  0  0
    2.3175    1.4085   -0.0087 N   0  0  2  0  0  0  0  0  0  0  0  0
    3.8281    0.0149   -1.1599 N   0  0  1  0  0  0  0  0  0  0  0  0
    1.5854   -0.6841   -0.8217 N   0  0  0  0  0  2  0  0  0  0  0  0
    1.0843    2.0695   -0.0706 C   0  0  2  0  0  3  0  0  0  0  0  0
    1.0036    3.4609   -0.3100 C   0  0  0  0  0  0  0  0  0  0  0  0
    1.9106    4.0589   -0.4900 H   0  0  0  0  0  0  0  0  0  0  0  0
   -1.2832    3.3867   -0.2215 C   0  0  0  0  0  0  0  0  0  0  0  0
   -2.2397    3.9236   -0.3210 H   0  0  0  0  0  0  0  0  0  0  0  0
   -1.2528    1.9916    0.0043 C   0  0  0  0  0  0  0  0  0  0  0  0
   -3.6323    1.8566    0.6964 C   0  0  0  0  0  0  0  0  0  0  0  0
   -3.3357    2.7856    1.2133 H   0  0  0  0  0  0  0  0  0  0  0  0
   -4.0197    1.1681    1.4787 H   0  0  0  0  0  0  0  0  0  0  0  0
   -4.6590    2.0873   -0.4031 C   0  0  0  0  0  0  0  0  0  0  0  0
   -4.2318    2.7640   -1.1721 H   0  0  0  0  0  0  0  0  0  0  0  0
   -5.5739    2.5709   -0.0091 H   0  0  0  0  0  0  0  0  0  0  0  0
   -5.0168    0.7352   -1.0061 C   0  0  0  0  0  0  0  0  0  0  0  0
   -5.7780    0.2290   -0.3703 H   0  0  0  0  0  0  0  0  0  0  0  0
   -5.4713    0.8552   -2.0128 H   0  0  0  0  0  0  0  0  0  0  0  0
   -4.1271   -1.4699   -1.7398 C   0  0  0  0  0  0  0  0  0  0  0  0
   -4.3252   -2.2330   -0.9533 H   0  0  0  0  0  0  0  0  0  0  0  0
   -5.0473   -1.3736   -2.3469 H   0  0  0  0  0  0  0  0  0  0  0  0
   -2.9308   -1.8615   -2.5965 C   0  0  0  0  0  0  0  0  0  0  0  0
   -3.0909   -2.8500   -3.0695 H   0  0  0  0  0  0  0  0  0  0  0  0
   -2.8133   -1.1189   -3.4132 H   0  0  0  0  0  0  0  0  0  0  0  0
   -1.6892   -1.8970   -1.7116 C   0  0  0  0  0  0  0  0  0  0  0  0
   -0.7742   -1.9089   -2.3377 H   0  0  0  0  0  0  0  0  0  0  0  0
   -1.6693   -2.8349   -1.1141 H   0  0  0  0  0  0  0  0  0  0  0  0
   -2.6103    0.0567   -0.6276 C   0  0  2  0  0  3  0  0  0  0  0  0
    3.5015    2.1396    0.4686 C   0  0  0  0  0  0  0  0  0  0  0  0
    3.9949    1.5139    1.2437 H   0  0  0  0  0  0  0  0  0  0  0  0
    3.1662    3.0624    0.9718 H   0  0  0  0  0  0  0  0  0  0  0  0
    4.4286    2.4000   -0.7104 C   0  0  0  0  0  0  0  0  0  0  0  0
    3.8888    2.9872   -1.4818 H   0  0  0  0  0  0  0  0  0  0  0  0
    5.3172    2.9886   -0.4102 H   0  0  0  0  0  0  0  0  0  0  0  0
    4.8708    1.0467   -1.2532 C   0  0  0  0  0  0  0  0  0  0  0  0
    5.2045    1.1206   -2.3114 H   0  0  0  0  0  0  0  0  0  0  0  0
    5.7444    0.6768   -0.6721 H   0  0  0  0  0  0  0  0  0  0  0  0
    4.2867   -1.3114   -1.6040 C   0  0  0  0  0  0  0  0  0  0  0  0
    5.2567   -1.5195   -1.1030 H   0  0  0  0  0  0  0  0  0  0  0  0
    4.4952   -1.2585   -2.6959 H   0  0  0  0  0  0  0  0  0  0  0  0
    3.2664   -2.3964   -1.3027 C   0  0  0  0  0  0  0  0  0  0  0  0
    3.2843   -2.6710   -0.2276 H   0  0  0  0  0  0  0  0  0  0  0  0
    3.5088   -3.3080   -1.8825 H   0  0  0  0  0  0  0  0  0  0  0  0
    1.8821   -1.8579   -1.6495 C   0  0  0  0  0  0  0  0  0  0  0  0
    1.8311   -1.5876   -2.7295 H   0  0  0  0  0  0  0  0  0  0  0  0
    1.1054   -2.6205   -1.4672 H   0  0  0  0  0  0  0  0  0  0  0  0
    2.5573    0.2024   -0.6961 C   0  0  1  0  0  3  0  0  0  0  0  0
  2 10  2  0  0  0  0
  2 12  1  0  0  0  0
  3 15  1  0  0  0  0
  4 24  1  1  0  0  0
  4 21  1  0  0  0  0
  4 33  1  0  0  0  0
  6 34  1  6  0  0  0
  7 43  1  1  0  0  0
  7 52  1  0  0  0  0
  9 10  1  1  0  0  0
  9  6  1  0  0  0  0
  9  1  1  0  0  0  0
 11 10  1  0  0  0  0
 12 14  2  0  0  0  0
 13 12  1  0  0  0  0
 14  3  1  0  0  0  0
 14  1  1  0  0  0  0
 15 16  1  0  0  0  0
 15 17  1  0  0  0  0
 18 20  1  0  0  0  0
 18 15  1  0  0  0  0
 19 18  1  0  0  0  0
 21 18  1  0  0  0  0
 21 22  1  0  0  0  0
 23 21  1  0  0  0  0
 24 25  1  0  0  0  0
 26 24  1  0  0  0  0
 27 24  1  0  0  0  0
 27 30  1  0  0  0  0
 28 27  1  0  0  0  0
 29 27  1  0  0  0  0
 30 32  1  0  0  0  0
 30  5  1  0  0  0  0
 31 30  1  0  0  0  0
 33  5  1  1  0  0  0
 33  3  1  0  0  0  0
 34 36  1  0  0  0  0
 34 35  1  0  0  0  0
 37 39  1  0  0  0  0
 37 34  1  0  0  0  0
 38 37  1  0  0  0  0
 40  7  1  0  0  0  0
 40 37  1  0  0  0  0
 40 42  1  0  0  0  0
 41 40  1  0  0  0  0
 43 46  1  0  0  0  0
 43 44  1  0  0  0  0
 45 43  1  0  0  0  0
 46 47  1  0  0  0  0
 48 46  1  0  0  0  0
 49 51  1  0  0  0  0
 49 46  1  0  0  0  0
 49  8  1  0  0  0  0
 50 49  1  0  0  0  0
 52  8  1  1  0  0  0
 52  6  1  0  0  0  0
M  END
