6,7,8
q = 0.0, confidence = 0.912

 68 72  0  0  0  0  0  0  0  0999 V2000
   -7.1731   -1.3911   -0.5698 O   0  0  0  0  0  0  0  0  0  0  0  0
   -9.6610   -1.7686    0.7727 O   0  0  0  0  0  0  0  0  0  0  0  0
  -10.6824    1.1322    0.7306 O   0  0  0  0  0  0  0  0  0  0  0  0
   -7.5778    3.0282    0.8576 O   0  0  0  0  0  0  0  0  0  0  0  0
   -6.2023    0.9929   -0.6500 O   0  0  0  0  0  0  0  0  0  0  0  0
    5.5835   -1.8887    0.1623 N   0  0  0  0  0  2  0  0  0  0  0  0
    3.7281   -0.0946   -0.0266 N   0  0  0  0  0  2  0  0  0  0  0  0
    5.1073    2.0949   -0.0344 N   0  0  0  0  0  2  0  0  0  0  0  0
    6.6361   -2.7277    0.2627 C   0  0  0  0  0  3  0  0  0  0  0  0
    7.6218   -2.2373    0.3018 H   0  0  0  0  0  0  0  0  0  0  0  0
    6.4620   -4.1150    0.3118 C   0  0  0  0  0  0  0  0  0  0  0  0
    7.3436   -4.7658    0.3937 H   0  0  0  0  0  0  0  0  0  0  0  0
    5.1642   -4.6428    0.2554 C   0  0  0  0  0  0  0  0  0  0  0  0
    4.9992   -5.7293    0.2922 H   0  0  0  0  0  0  0  0  0  0  0  0
    4.0735   -3.7690    0.1513 C   0  0  0  0  0  0  0  0  0  0  0  0
    3.0471   -4.1577    0.1058 H   0  0  0  0  0  0  0  0  0  0  0  0
    4.2943   -2.3860    0.1052 C   0  0  0  0  0  0  0  0  0  0  0  0
    3.2307   -1.3651   -0.0031 C   0  0  0  0  0  0  0  0  0  0  0  0
    1.8526   -1.5591   -0.0788 C   0  0  0  0  0  0  0  0  0  0  0  0
    1.4227   -2.5687   -0.0619 H   0  0  0  0  0  0  0  0  0  0  0  0
    0.9798   -0.4308   -0.1800 C   0  0  0  0  0  0  0  0  0  0  0  0
    1.5615    0.8754   -0.2001 C   0  0  0  0  0  0  0  0  0  0  0  0
    0.9063    1.7525   -0.2768 H   0  0  0  0  0  0  0  0  0  0  0  0
    2.9457    1.0192   -0.1214 C   0  0  0  0  0  0  0  0  0  0  0  0
    3.7380    2.2672   -0.1246 C   0  0  0  0  0  0  0  0  0  0  0  0
    3.1979    3.5574   -0.2097 C   0  0  0  0  0  0  0  0  0  0  0  0
    2.1095    3.6876   -0.2806 H   0  0  0  0  0  0  0  0  0  0  0  0
    4.0513    4.6689   -0.2030 C   0  0  0  0  0  0  0  0  0  0  0  0
    3.6350    5.6846   -0.2692 H   0  0  0  0  0  0  0  0  0  0  0  0
    5.4361    4.4691   -0.1108 C   0  0  0  0  0  0  0  0  0  0  0  0
    6.1389    5.3137   -0.1023 H   0  0  0  0  0  0  0  0  0  0  0  0
    5.9319    3.1636   -0.0277 C   0  0  0  0  0  0  0  0  0  0  0  0
    7.0048    2.9246    0.0474 H   0  0  0  0  0  0  0  0  0  0  0  0
   -0.4134   -0.6026   -0.2561 C   0  0  0  0  0  0  0  0  0  0  0  0
   -1.6400   -0.7606   -0.3184 C   0  0  0  0  0  0  0  0  0  0  0  0
   -3.0366   -0.9435   -0.3853 C   0  0  0  0  0  0  0  0  0  0  0  0
   -3.9079    0.1821   -0.4961 C   0  0  0  0  0  0  0  0  0  0  0  0
   -3.4720    1.1877   -0.5322 H   0  0  0  0  0  0  0  0  0  0  0  0
   -5.2904    0.0068   -0.5549 C   0  0  0  0  0  0  0  0  0  0  0  0
   -5.8375   -1.3242   -0.5073 C   0  0  0  0  0  0  0  0  0  0  0  0
   -4.9722   -2.4312   -0.3977 C   0  0  0  0  0  0  0  0  0  0  0  0
   -5.3846   -3.4474   -0.3562 H   0  0  0  0  0  0  0  0  0  0  0  0
   -3.5887   -2.2486   -0.3379 C   0  0  0  0  0  0  0  0  0  0  0  0
   -2.9214   -3.1169   -0.2516 H   0  0  0  0  0  0  0  0  0  0  0  0
   -5.7740    2.3513   -0.5630 C   0  0  0  0  0  0  0  0  0  0  0  0
   -5.1952    2.6335   -1.4730 H   0  0  0  0  0  0  0  0  0  0  0  0
   -5.1234    2.4879    0.3297 H   0  0  0  0  0  0  0  0  0  0  0  0
   -7.0065    3.2240   -0.4169 C   0  0  0  0  0  0  0  0  0  0  0  0
   -6.6920    4.2883   -0.5442 H   0  0  0  0  0  0  0  0  0  0  0  0
   -7.7195    2.9911   -1.2401 H   0  0  0  0  0  0  0  0  0  0  0  0
   -8.9672    2.7484    0.8855 C   0  0  0  0  0  0  0  0  0  0  0  0
   -9.3106    2.9546    1.9196 H   0  0  0  0  0  0  0  0  0  0  0  0
   -9.5415    3.4256    0.2099 H   0  0  0  0  0  0  0  0  0  0  0  0
   -9.2861    1.2918    0.5441 C   0  0  0  0  0  0  0  0  0  0  0  0
   -8.6884    0.6095    1.1891 H   0  0  0  0  0  0  0  0  0  0  0  0
   -8.9952    1.0561   -0.5087 H   0  0  0  0  0  0  0  0  0  0  0  0
  -11.2648    0.0077    0.1143 C   0  0  0  0  0  0  0  0  0  0  0  0
  -10.9443   -0.0676   -0.9561 H   0  0  0  0  0  0  0  0  0  0  0  0
  -12.3618    0.1846    0.1114 H   0  0  0  0  0  0  0  0  0  0  0  0
  -11.0076   -1.3135    0.8408 C   0  0  0  0  0  0  0  0  0  0  0  0
  -11.2259   -1.1702    1.9190 H   0  0  0  0  0  0  0  0  0  0  0  0
  -11.7081   -2.0933    0.4511 H   0  0  0  0  0  0  0  0  0  0  0  0
   -9.3217   -2.4073   -0.4336 C   0  0  0  0  0  0  0  0  0  0  0  0
   -9.5878   -1.7972   -1.3298 H   0  0  0  0  0  0  0  0  0  0  0  0
   -9.8465   -3.3907   -0.5379 H   0  0  0  0  0  0  0  0  0  0  0  0
   -7.8300   -2.6568   -0.4424 C   0  0  0  0  0  0  0  0  0  0  0  0
   -7.5257   -3.1446    0.5097 H   0  0  0  0  0  0  0  0  0  0  0  0
   -7.5551   -3.3183   -1.2938 H   0  0  0  0  0  0  0  0  0  0  0  0
  1 40  1  0  0  0  0
  1 66  1  0  0  0  0
  2 60  1  0  0  0  0
  4 51  1  0  0  0  0
  5 45  1  0  0  0  0
  5 39  1  0  0  0  0
  6  9  1  0  0  0  0
  7 18  1  0  0  0  0
  8 32  1  0  0  0  0
  9 10  1  0  0  0  0
  9 11  1  0  0  0  0
 11 12  1  0  0  0  0
 13 14  1  0  0  0  0
 13 11  2  0  0  0  0
 15 13  1  0  0  0  0
 16 15  1  0  0  0  0
 17 15  2  0  0  0  0
 17  6  1  0  0  0  0
 18 17  1  0  0  0  0
 19 20  1  0  0  0  0
 19 18  2  0  0  0  0
 21 19  1  0  0  0  0
 22 21  2  0  0  0  0
 22 24  1  0  0  0  0
 23 22  1  0  0  0  0
 24  7  1  0  0  0  0
 25 24  2  0  0  0  0
 25  8  1  0  0  0  0
 26 28  2  0  0  0  0
 26 25  1  0  0  0  0
 27 26  1  0  0  0  0
 28 30  1  0  0  0  0
 29 28  1  0  0  0  0
 30 31  1  0  0  0  0
 30 32  2  0  0  0  0
 32 33  1  0  0  0  0
 34 21  1  0  0  0  0
 35 34  3  0  0  0  0
 36 43  1  0  0  0  0
 36 35  1  0  0  0  0
 37 36  2  0  0  0  0
 38 37  1  0  0  0  0
 39 40  2  0  0  0  0
 39 37  1  0  0  0  0
 40 41  1  0  0  0  0
 41 42  1  0  0  0  0
 41 43  2  0  0  0  0
 43 44  1  0  0  0  0
 45 48  1  0  0  0  0
 45 47  1  0  0  0  0
 46 45  1  0  0  0  0
 48  4  1  0  0  0  0
 49 48  1  0  0  0  0
 50 48  1  0  0  0  0
 51 52  1  0  0  0  0
 53 51  1  0  0  0  0
 54  3  1  0  0  0  0
 54 51  1  0  0  0  0
 54 55  1  0  0  0  0
 56 54  1  0  0  0  0
 57  3  1  0  0  0  0
 57 60  1  0  0  0  0
 58 57  1  0  0  0  0
 59 57  1  0  0  0  0
 60 61  1  0  0  0  0
 62 60  1  0  0  0  0
 63  2  1  0  0  0  0
 64 63  1  0  0  0  0
 65 63  1  0  0  0  0
 66 63  1  0  0  0  0
 66 67  1  0  0  0  0
 68 66  1  0  0  0  0
M  END
