2,3,4
q = 0.0, confidence = 0.982

 52 53  0  0  0  0  0  0  0  0999 V2000
   -4.3198    1.1539   -0.1811 S   0  0  0  0  0  0  0  0  0  0  0  0
    1.4305   -1.4670   -0.6941 N   0  0  0  0  0  0  0  0  0  0  0  0
   -0.9204    0.0039   -0.2534 N   0  0  0  0  0  0  0  0  0  0  0  0
    1.4890    1.3537   -0.7741 N   0  0  0  0  0  0  0  0  0  0  0  0
    0.2749    1.7196   -1.5715 C   0  0  0  0  0  0  0  0  0  0  0  0
    0.3199    1.1967   -2.5483 H   0  0  0  0  0  0  0  0  0  0  0  0
    0.2662    2.8022   -1.8137 H   0  0  0  0  0  0  0  0  0  0  0  0
    2.1444    2.5795   -0.1654 C   0  0  0  0  0  0  0  0  0  0  0  0
    1.3198    3.0589    0.4001 H   0  0  0  0  0  0  0  0  0  0  0  0
    2.4643    0.6051   -1.6054 C   0  0  0  0  0  0  0  0  0  0  0  0
    3.4086    0.5550   -1.0362 H   0  0  0  0  0  0  0  0  0  0  0  0
    2.6869    1.1359   -2.5604 H   0  0  0  0  0  0  0  0  0  0  0  0
    0.1206   -2.1187   -0.9637 C   0  0  0  0  0  0  0  0  0  0  0  0
   -0.1501   -2.6536   -0.0309 H   0  0  0  0  0  0  0  0  0  0  0  0
    0.1794   -2.8564   -1.7988 H   0  0  0  0  0  0  0  0  0  0  0  0
   -2.0159   -0.2224    0.7730 C   0  0  0  0  0  0  0  0  0  0  0  0
   -1.8694    0.5727    1.5311 H   0  0  0  0  0  0  0  0  0  0  0  0
   -1.7671   -1.1724    1.2822 H   0  0  0  0  0  0  0  0  0  0  0  0
   -4.1903   -1.4126    0.0258 C   0  0  0  0  0  0  0  0  0  0  0  0
   -3.8256   -2.4245    0.2552 H   0  0  0  0  0  0  0  0  0  0  0  0
   -1.0087    1.3719   -0.8324 C   0  0  0  0  0  0  0  0  0  0  0  0
   -1.1377    2.0551    0.0304 H   0  0  0  0  0  0  0  0  0  0  0  0
   -1.8815    1.4755   -1.5173 H   0  0  0  0  0  0  0  0  0  0  0  0
    2.7718   -3.6222   -1.0136 C   0  0  0  0  0  0  0  0  0  0  0  0
    3.3725   -3.3094   -1.8941 H   0  0  0  0  0  0  0  0  0  0  0  0
    1.8824   -4.1716   -1.3802 H   0  0  0  0  0  0  0  0  0  0  0  0
    3.3889   -4.3470   -0.4465 H   0  0  0  0  0  0  0  0  0  0  0  0
   -5.4953   -1.1241   -0.4760 C   0  0  0  0  0  0  0  0  0  0  0  0
   -6.2553   -1.8860   -0.6976 H   0  0  0  0  0  0  0  0  0  0  0  0
    1.9766   -0.8021   -1.9114 C   0  0  0  0  0  0  0  0  0  0  0  0
    1.1914   -0.7742   -2.6911 H   0  0  0  0  0  0  0  0  0  0  0  0
    2.8087   -1.3892   -2.3532 H   0  0  0  0  0  0  0  0  0  0  0  0
    3.6374   -1.7423    0.4502 C   0  0  0  0  0  0  0  0  0  0  0  0
    4.2899   -1.3349   -0.3503 H   0  0  0  0  0  0  0  0  0  0  0  0
    4.2465   -2.4564    1.0384 H   0  0  0  0  0  0  0  0  0  0  0  0
    3.3459   -0.9221    1.1367 H   0  0  0  0  0  0  0  0  0  0  0  0
    3.1993    2.1890    0.8701 C   0  0  0  0  0  0  0  0  0  0  0  0
    2.7650    1.5065    1.6270 H   0  0  0  0  0  0  0  0  0  0  0  0
    3.5229    3.0990    1.4128 H   0  0  0  0  0  0  0  0  0  0  0  0
    4.1073    1.7376    0.4197 H   0  0  0  0  0  0  0  0  0  0  0  0
    2.4030   -2.4565   -0.0917 C   0  0  0  0  0  0  0  0  0  0  0  0
    1.8491   -2.8401    0.7904 H   0  0  0  0  0  0  0  0  0  0  0  0
   -0.9317   -1.0704   -1.2901 C   0  0  0  0  0  0  0  0  0  0  0  0
   -0.7480   -0.6145   -2.2826 H   0  0  0  0  0  0  0  0  0  0  0  0
   -1.9365   -1.5373   -1.3566 H   0  0  0  0  0  0  0  0  0  0  0  0
   -3.4108   -0.2824    0.2388 C   0  0  0  0  0  0  0  0  0  0  0  0
    2.7231    3.5511   -1.2005 C   0  0  0  0  0  0  0  0  0  0  0  0
    3.6254    3.1439   -1.7018 H   0  0  0  0  0  0  0  0  0  0  0  0
    3.0293    4.4849   -0.6890 H   0  0  0  0  0  0  0  0  0  0  0  0
    1.9953    3.8378   -1.9862 H   0  0  0  0  0  0  0  0  0  0  0  0
   -5.7080    0.2310   -0.6449 C   0  0  0  0  0  0  0  0  0  0  0  0
   -6.6094    0.7397   -1.0080 H   0  0  0  0  0  0  0  0  0  0  0  0
  1 46  1  0  0  0  0
  2 41  1  0  0  0  0
  3 16  1  0  0  0  0
  4  8  1  0  0  0  0
  5 21  1  0  0  0  0
  5  4  1  0  0  0  0
  6  5  1  0  0  0  0
  7  5  1  0  0  0  0
  8  9  1  0  0  0  0
  8 37  1  0  0  0  0
 10 11  1  0  0  0  0
 10  4  1  0  0  0  0
 12 10  1  0  0  0  0
 13  2  1  0  0  0  0
 13 14  1  0  0  0  0
 15 13  1  0  0  0  0
 16 18  1  0  0  0  0
 16 17  1  0  0  0  0
 19 46  2  0  0  0  0
 19 20  1  0  0  0  0
 21  3  1  0  0  0  0
 21 22  1  0  0  0  0
 23 21  1  0  0  0  0
 24 27  1  0  0  0  0
 24 41  1  0  0  0  0
 25 24  1  0  0  0  0
 26 24  1  0  0  0  0
 28 19  1  0  0  0  0
 29 28  1  0  0  0  0
 30 10  1  0  0  0  0
 30  2  1  0  0  0  0
 31 30  1  0  0  0  0
 32 30  1  0  0  0  0
 33 35  1  0  0  0  0
 33 36  1  0  0  0  0
 34 33  1  0  0  0  0
 37 39  1  0  0  0  0
 37 38  1  0  0  0  0
 40 37  1  0  0  0  0
 41 33  1  0  0  0  0
 41 42  1  0  0  0  0
 43 13  1  0  0  0  0
 43  3  1  0  0  0  0
 44 43  1  0  0  0  0
 45 43  1  0  0  0  0
 46 16  1  0  0  0  0
 47 49  1  0  0  0  0
 47  8  1  0  0  0  0
 48 47  1  0  0  0  0
 50 47  1  0  0  0  0
 51 28  2  0  0  0  0
 51  1  1  0  0  0  0
 52 51  1  0  0  0  0
M  END
