19,21,22
q = 0.0, confidence = 1.0

 24 24  0  0  1  0  0  0  0  0999 V2000
   -2.1036   -1.6027    0.0216 C   0  0  0  0  0  3  0  0  0  0  0  0
   -1.6191   -2.5949    0.0282 H   0  0  0  0  0  0  0  0  0  0  0  0
   -3.4924   -1.4003    0.1429 C   0  0  0  0  0  0  0  0  0  0  0  0
   -4.1770   -2.2560    0.2736 H   0  0  0  0  0  0  0  0  0  0  0  0
   -3.1993    0.8603   -0.0606 C   0  0  0  0  0  0  0  0  0  0  0  0
   -3.6569    1.8632   -0.1026 H   0  0  0  0  0  0  0  0  0  0  0  0
   -1.8060    0.6844   -0.1825 C   0  0  0  0  0  0  0  0  0  0  0  0
   -0.8193    1.7887   -0.3974 C   0  0  2  0  0  3  0  0  0  0  0  0
    1.5436    2.2404   -0.7985 C   0  0  0  0  0  0  0  0  0  0  0  0
    1.3992    3.3034   -0.5041 H   0  0  0  0  0  0  0  0  0  0  0  0
    1.7597    2.2335   -1.8928 H   0  0  0  0  0  0  0  0  0  0  0  0
    2.7485    1.6540   -0.0404 C   0  0  0  0  0  0  0  0  0  0  0  0
    3.6525    2.2616   -0.2704 H   0  0  0  0  0  0  0  0  0  0  0  0
    2.5367    1.7150    1.0471 H   0  0  0  0  0  0  0  0  0  0  0  0
   -1.3166    3.2071   -0.3800 C   0  0  0  0  0  0  0  0  0  0  0  0
   -0.4978    3.9393   -0.4919 H   0  0  0  0  0  0  0  0  0  0  0  0
   -1.8477    3.4188    0.5702 H   0  0  0  0  0  0  0  0  0  0  0  0
   -2.0427    3.3760   -1.2019 H   0  0  0  0  0  0  0  0  0  0  0  0
   -1.2889   -0.5585   -0.1283 N   0  0  0  0  0  2  0  0  0  0  0  0
   -4.0363   -0.1755    0.1048 N   0  0  0  0  0  0  0  0  0  0  0  0
    0.3947    1.3980   -0.5846 N   0  0  0  0  0  2  0  0  0  0  0  0
    2.8900    0.2293   -0.3458 N   0  0  0  0  0  0  0  0  0  0  0  0
    3.4859   -0.2455    0.3428 H   0  0  0  0  0  0  0  0  0  0  0  0
    3.2670    0.0391   -1.2835 H   0  0  0  0  0  0  0  0  0  0  0  0
  1  2  1  0  0  0  0
  1  3  1  0  0  0  0
  3  4  1  0  0  0  0
  5 20  1  0  0  0  0
  6  5  1  0  0  0  0
  7 19  1  0  0  0  0
  7  5  2  0  0  0  0
  8 21  1  6  0  0  0
  8 15  1  0  0  0  0
  8  7  1  0  0  0  0
  9 21  1  0  0  0  0
  9 10  1  0  0  0  0
  9 12  1  0  0  0  0
 11  9  1  0  0  0  0
 12 14  1  0  0  0  0
 13 12  1  0  0  0  0
 15 17  1  0  0  0  0
 16 15  1  0  0  0  0
 18 15  1  0  0  0  0
 19  1  1  0  0  0  0
 20  3  2  0  0  0  0
 22 12  1  0  0  0  0
 22 23  1  0  0  0  0
 24 22  1  0  0  0  0
M  END
