1,2,16
q = -1.0, confidence = 0.008

 51 56  0  0  1  0  0  0  0  0999 V2000
   -1.9947   -0.8267    0.0448 N   0  0  0  0  0  2  0  0  0  0  0  0
    1.9947   -0.8267   -0.0449 N   0  0  0  0  0  2  0  0  0  0  0  0
    3.9870    2.3133    0.1692 C   0  0  0  0  0  0  0  0  0  0  0  0
    5.0283    2.6617    0.1984 H   0  0  0  0  0  0  0  0  0  0  0  0
   -2.9154   -1.7733    0.1037 C   0  0  0  0  0  0  0  0  0  0  0  0
   -2.5386   -2.8090    0.1441 H   0  0  0  0  0  0  0  0  0  0  0  0
   -4.3122   -1.4714    0.1060 C   0  0  0  0  0  0  0  0  0  0  0  0
   -4.7303   -0.1021    0.0265 C   0  0  0  0  0  0  0  0  0  0  0  0
   -3.7064    0.9298   -0.0513 C   0  0  0  0  0  0  0  0  0  0  0  0
   -3.9870    2.3133   -0.1691 C   0  0  0  0  0  3  0  0  0  0  0  0
   -5.0283    2.6617   -0.1982 H   0  0  0  0  0  0  0  0  0  0  0  0
   -2.9531    3.2500   -0.2748 C   0  0  0  0  0  0  0  0  0  0  0  0
   -1.6031    2.8300   -0.2301 C   0  0  0  0  0  0  0  0  0  0  0  0
   -0.8249    3.5898   -0.3531 H   0  0  0  0  0  0  0  0  0  0  0  0
   -1.2560    1.4718   -0.0748 C   0  0  0  0  0  0  0  0  0  0  0  0
   -0.0000    0.9114   -0.0001 N   0  0  0  0  0  2  0  0  0  0  0  0
    1.2560    1.4718    0.0747 C   0  0  0  0  0  0  0  0  0  0  0  0
    2.3432    0.5190    0.0208 C   0  0  1  0  0  3  0  0  0  0  0  0
    2.9155   -1.7733   -0.1038 C   0  0  0  0  0  0  0  0  0  0  0  0
    2.5386   -2.8090   -0.1443 H   0  0  0  0  0  0  0  0  0  0  0  0
    4.3122   -1.4714   -0.1058 C   0  0  0  0  0  0  0  0  0  0  0  0
    4.7303   -0.1021   -0.0263 C   0  0  0  0  0  0  0  0  0  0  0  0
    3.7064    0.9298    0.0514 C   0  0  0  0  0  0  0  0  0  0  0  0
    2.9531    3.2500    0.2748 C   0  0  0  0  0  0  0  0  0  0  0  0
    1.6031    2.8300    0.2300 C   0  0  0  0  0  0  0  0  0  0  0  0
    0.8248    3.5898    0.3530 H   0  0  0  0  0  0  0  0  0  0  0  0
    3.2557    4.7190    0.4389 C   0  0  0  0  0  0  0  0  0  0  0  0
    4.3445    4.9126    0.4800 H   0  0  0  0  0  0  0  0  0  0  0  0
    2.8022    5.1184    1.3699 H   0  0  0  0  0  0  0  0  0  0  0  0
    2.8351    5.3106   -0.4010 H   0  0  0  0  0  0  0  0  0  0  0  0
    6.1219    0.1704   -0.0255 C   0  0  0  0  0  0  0  0  0  0  0  0
    6.4745    1.2093    0.0323 H   0  0  0  0  0  0  0  0  0  0  0  0
    7.0533   -0.8627   -0.1003 C   0  0  0  0  0  0  0  0  0  0  0  0
    8.1281   -0.6256   -0.0997 H   0  0  0  0  0  0  0  0  0  0  0  0
    6.6336   -2.2126   -0.1773 C   0  0  0  0  0  0  0  0  0  0  0  0
    7.3802   -3.0185   -0.2351 H   0  0  0  0  0  0  0  0  0  0  0  0
    5.2771   -2.5123   -0.1796 C   0  0  0  0  0  0  0  0  0  0  0  0
    4.9282   -3.5545   -0.2384 H   0  0  0  0  0  0  0  0  0  0  0  0
   -2.3432    0.5190   -0.0209 C   0  0  0  0  0  0  0  0  0  0  0  0
   -3.2558    4.7189   -0.4391 C   0  0  0  0  0  0  0  0  0  0  0  0
   -2.8035    5.1179   -1.3710 H   0  0  0  0  0  0  0  0  0  0  0  0
   -2.8338    5.3108    0.3999 H   0  0  0  0  0  0  0  0  0  0  0  0
   -4.3446    4.9127   -0.4788 H   0  0  0  0  0  0  0  0  0  0  0  0
   -6.1219    0.1704    0.0260 C   0  0  0  0  0  0  0  0  0  0  0  0
   -6.4745    1.2093   -0.0316 H   0  0  0  0  0  0  0  0  0  0  0  0
   -7.0533   -0.8627    0.1010 C   0  0  0  0  0  0  0  0  0  0  0  0
   -8.1280   -0.6256    0.1006 H   0  0  0  0  0  0  0  0  0  0  0  0
   -6.6336   -2.2126    0.1779 C   0  0  0  0  0  0  0  0  0  0  0  0
   -7.3801   -3.0185    0.2358 H   0  0  0  0  0  0  0  0  0  0  0  0
   -5.2771   -2.5123    0.1799 C   0  0  0  0  0  0  0  0  0  0  0  0
   -4.9281   -3.5545    0.2386 H   0  0  0  0  0  0  0  0  0  0  0  0
  1  5  1  0  0  0  0
  3  4  1  0  0  0  0
  3 24  2  0  0  0  0
  5  7  2  0  0  0  0
  5  6  1  0  0  0  0
  7 50  1  0  0  0  0
  8  7  1  0  0  0  0
  9 39  1  0  0  0  0
  9  8  2  0  0  0  0
 10  9  1  0  0  0  0
 11 10  1  0  0  0  0
 12 13  2  0  0  0  0
 12 10  1  0  0  0  0
 13 15  1  0  0  0  0
 14 13  1  0  0  0  0
 15 39  2  0  0  0  0
 15 16  1  0  0  0  0
 16 17  1  0  0  0  0
 17 25  2  0  0  0  0
 18  2  1  1  0  0  0
 18 23  1  0  0  0  0
 18 17  1  0  0  0  0
 19  2  1  0  0  0  0
 20 19  1  0  0  0  0
 21 19  2  0  0  0  0
 21 22  1  0  0  0  0
 22 31  1  0  0  0  0
 22 23  2  0  0  0  0
 23  3  1  0  0  0  0
 24 27  1  0  0  0  0
 25 24  1  0  0  0  0
 25 26  1  0  0  0  0
 27 28  1  0  0  0  0
 27 29  1  0  0  0  0
 30 27  1  0  0  0  0
 31 32  1  0  0  0  0
 33 34  1  0  0  0  0
 33 31  2  0  0  0  0
 35 33  1  0  0  0  0
 36 35  1  0  0  0  0
 37 35  2  0  0  0  0
 37 21  1  0  0  0  0
 38 37  1  0  0  0  0
 39  1  1  0  0  0  0
 40 12  1  0  0  0  0
 40 42  1  0  0  0  0
 41 40  1  0  0  0  0
 43 40  1  0  0  0  0
 44  8  1  0  0  0  0
 44 46  2  0  0  0  0
 45 44  1  0  0  0  0
 46 48  1  0  0  0  0
 47 46  1  0  0  0  0
 48 50  2  0  0  0  0
 48 49  1  0  0  0  0
 50 51  1  0  0  0  0
M  END
