4,5,6
q = 0.0, confidence = 0.998

 59 61  0  0  1  0  0  0  0  0999 V2000
   -1.6877   -2.5908    1.8227 O   0  0  0  0  0  0  0  0  0  0  0  0
    2.3899   -1.9324    2.0090 O   0  0  0  0  0  0  0  0  0  0  0  0
   -0.0363    1.3158    3.0965 O   0  0  0  0  0  0  0  0  0  0  0  0
    1.6393   -0.9314    0.1165 N   0  0  0  0  0  2  0  0  0  0  0  0
   -1.1726   -1.3371    0.0059 N   0  0  0  0  0  2  0  0  0  0  0  0
   -0.0993    1.2068    0.8336 N   0  0  0  0  0  2  0  0  0  0  0  0
    0.1331   -1.4084    3.5417 C   0  0  0  0  0  0  0  0  0  0  0  0
    0.2845   -2.5010    3.5817 H   0  0  0  0  0  0  0  0  0  0  0  0
   -0.8296   -1.1641    4.0251 H   0  0  0  0  0  0  0  0  0  0  0  0
    0.9467   -0.9124    4.0991 H   0  0  0  0  0  0  0  0  0  0  0  0
    0.1261   -0.9321    2.0861 C   0  0  2  0  0  0  0  0  0  0  0  0
   -0.9587   -1.6064    1.2538 C   0  0  2  0  0  3  0  0  0  0  0  0
   -2.4556   -3.1832    0.7338 C   0  0  0  0  0  0  0  0  0  0  0  0
   -3.4990   -3.3056    1.0818 H   0  0  0  0  0  0  0  0  0  0  0  0
   -2.0229   -4.1832    0.5263 H   0  0  0  0  0  0  0  0  0  0  0  0
   -2.2928   -2.1902   -0.4480 C   0  0  1  0  0  0  0  0  0  0  0  0
   -1.9716   -2.7119   -1.3721 H   0  0  0  0  0  0  0  0  0  0  0  0
   -3.5491   -1.3539   -0.7762 C   0  0  0  0  0  0  0  0  0  0  0  0
   -3.2113   -0.6069   -1.5232 H   0  0  0  0  0  0  0  0  0  0  0  0
   -4.6243   -2.2303   -1.4270 C   0  0  0  0  0  0  0  0  0  0  0  0
   -4.2407   -2.7376   -2.3356 H   0  0  0  0  0  0  0  0  0  0  0  0
   -5.4981   -1.6185   -1.7271 H   0  0  0  0  0  0  0  0  0  0  0  0
   -4.9980   -3.0133   -0.7319 H   0  0  0  0  0  0  0  0  0  0  0  0
   -4.0838   -0.5941    0.4410 C   0  0  0  0  0  0  0  0  0  0  0  0
   -4.5050   -1.2758    1.2104 H   0  0  0  0  0  0  0  0  0  0  0  0
   -4.8937    0.0994    0.1398 H   0  0  0  0  0  0  0  0  0  0  0  0
   -3.2895    0.0140    0.9174 H   0  0  0  0  0  0  0  0  0  0  0  0
    1.4270   -1.2543    1.3518 C   0  0  1  0  0  3  0  0  0  0  0  0
    3.4699   -2.1213    1.0481 C   0  0  0  0  0  0  0  0  0  0  0  0
    3.6261   -3.2109    0.9268 H   0  0  0  0  0  0  0  0  0  0  0  0
    4.3862   -1.6737    1.4825 H   0  0  0  0  0  0  0  0  0  0  0  0
    2.9880   -1.4104   -0.2505 C   0  0  2  0  0  0  0  0  0  0  0  0
    2.8710   -2.1374   -1.0817 H   0  0  0  0  0  0  0  0  0  0  0  0
    3.8939   -0.2650   -0.7491 C   0  0  0  0  0  0  0  0  0  0  0  0
    3.3868    0.1260   -1.6551 H   0  0  0  0  0  0  0  0  0  0  0  0
    3.9910    0.8853    0.2559 C   0  0  0  0  0  0  0  0  0  0  0  0
    4.5000    0.5826    1.1965 H   0  0  0  0  0  0  0  0  0  0  0  0
    2.9819    1.2677    0.5086 H   0  0  0  0  0  0  0  0  0  0  0  0
    4.5675    1.7268   -0.1762 H   0  0  0  0  0  0  0  0  0  0  0  0
    5.2680   -0.8023   -1.1625 C   0  0  0  0  0  0  0  0  0  0  0  0
    5.8814    0.0033   -1.6125 H   0  0  0  0  0  0  0  0  0  0  0  0
    5.1800   -1.6157   -1.9120 H   0  0  0  0  0  0  0  0  0  0  0  0
    5.8389   -1.1993   -0.2952 H   0  0  0  0  0  0  0  0  0  0  0  0
   -0.0456    0.5788    1.9646 C   0  0  1  0  0  3  0  0  0  0  0  0
   -0.2203    2.6976    2.6662 C   0  0  0  0  0  0  0  0  0  0  0  0
    0.5319    3.3179    3.1873 H   0  0  0  0  0  0  0  0  0  0  0  0
   -1.2363    3.0136    2.9827 H   0  0  0  0  0  0  0  0  0  0  0  0
   -0.0565    2.6573    1.1249 C   0  0  2  0  0  0  0  0  0  0  0  0
    0.9594    3.0043    0.8308 H   0  0  0  0  0  0  0  0  0  0  0  0
   -1.0730    3.4799    0.3137 C   0  0  0  0  0  0  0  0  0  0  0  0
   -0.8050    3.2871   -0.7468 H   0  0  0  0  0  0  0  0  0  0  0  0
   -2.5166    3.0168    0.5148 C   0  0  0  0  0  0  0  0  0  0  0  0
   -2.8873    3.2163    1.5431 H   0  0  0  0  0  0  0  0  0  0  0  0
   -2.6111    1.9339    0.3082 H   0  0  0  0  0  0  0  0  0  0  0  0
   -3.1900    3.5451   -0.1881 H   0  0  0  0  0  0  0  0  0  0  0  0
   -0.8938    4.9759    0.5955 C   0  0  0  0  0  0  0  0  0  0  0  0
   -1.1515    5.2314    1.6464 H   0  0  0  0  0  0  0  0  0  0  0  0
   -1.5567    5.5781   -0.0569 H   0  0  0  0  0  0  0  0  0  0  0  0
    0.1493    5.3058    0.4109 H   0  0  0  0  0  0  0  0  0  0  0  0
  4 28  1  0  0  0  0
  5 12  1  0  0  0  0
  6 48  1  0  0  0  0
  6 44  1  0  0  0  0
  7  8  1  0  0  0  0
  7  9  1  0  0  0  0
  7 10  1  0  0  0  0
 11  7  1  1  0  0  0
 12  1  1  0  0  0  0
 12 11  1  6  0  0  0
 13 14  1  0  0  0  0
 13  1  1  0  0  0  0
 15 13  1  0  0  0  0
 16 17  1  6  0  0  0
 16  5  1  0  0  0  0
 16 13  1  0  0  0  0
 18 16  1  0  0  0  0
 18 24  1  0  0  0  0
 19 18  1  0  0  0  0
 20 18  1  0  0  0  0
 20 23  1  0  0  0  0
 21 20  1  0  0  0  0
 22 20  1  0  0  0  0
 24 27  1  0  0  0  0
 24 25  1  0  0  0  0
 26 24  1  0  0  0  0
 28  2  1  0  0  0  0
 28 11  1  6  0  0  0
 29 31  1  0  0  0  0
 29  2  1  0  0  0  0
 30 29  1  0  0  0  0
 32 33  1  6  0  0  0
 32  4  1  0  0  0  0
 32 29  1  0  0  0  0
 34 32  1  0  0  0  0
 34 36  1  0  0  0  0
 35 34  1  0  0  0  0
 36 38  1  0  0  0  0
 36 37  1  0  0  0  0
 39 36  1  0  0  0  0
 40 34  1  0  0  0  0
 40 43  1  0  0  0  0
 41 40  1  0  0  0  0
 42 40  1  0  0  0  0
 44 11  1  6  0  0  0
 44  3  1  0  0  0  0
 45 47  1  0  0  0  0
 45  3  1  0  0  0  0
 45 46  1  0  0  0  0
 48 49  1  6  0  0  0
 48 45  1  0  0  0  0
 50 52  1  0  0  0  0
 50 56  1  0  0  0  0
 50 48  1  0  0  0  0
 51 50  1  0  0  0  0
 52 53  1  0  0  0  0
 54 52  1  0  0  0  0
 55 52  1  0  0  0  0
 56 57  1  0  0  0  0
 58 56  1  0  0  0  0
 59 56  1  0  0  0  0
M  END
