1,2,4
q = 0.0, confidence = 1.0

 33 35  0  0  1  0  0  0  0  0999 V2000
   -0.6525   -1.1802    0.9665 N   0  0  0  0  0  2  0  0  0  0  0  0
   -0.8731    0.2713   -1.2568 N   0  0  0  0  0  0  0  0  0  0  0  0
   -0.6439    0.4627   -2.2464 H   0  0  0  0  0  0  0  0  0  0  0  0
    0.6858    1.6121    0.5806 N   0  0  0  0  0  2  0  0  0  0  0  0
   -0.4386    2.2216    0.1316 C   0  0  2  0  0  3  0  0  0  0  0  0
   -2.7522    1.7584   -0.7958 C   0  0  0  0  0  0  0  0  0  0  0  0
   -3.1994    2.6481   -0.3352 H   0  0  0  0  0  0  0  0  0  0  0  0
   -0.4613    3.5216    0.5789 N   0  0  0  0  0  0  0  0  0  0  0  0
   -2.1693   -2.1869    2.2681 C   0  0  0  0  0  0  0  0  0  0  0  0
   -2.7320   -2.6797    3.0670 H   0  0  0  0  0  0  0  0  0  0  0  0
   -1.4175    1.4920   -0.6445 C   0  0  0  0  0  0  0  0  0  0  0  0
   -0.8721   -1.7169    2.2159 C   0  0  0  0  0  0  0  0  0  0  0  0
   -0.0927   -1.7386    2.9843 H   0  0  0  0  0  0  0  0  0  0  0  0
   -3.2014   -0.4449   -1.7170 C   0  0  0  0  0  0  0  0  0  0  0  0
   -3.8157   -1.1782   -2.2588 H   0  0  0  0  0  0  0  0  0  0  0  0
   -2.7395   -1.9285    1.0304 N   0  0  0  0  0  0  0  0  0  0  0  0
    0.6757    3.7193    1.3353 C   0  0  0  0  0  0  0  0  0  0  0  0
    0.8953    4.6846    1.8026 H   0  0  0  0  0  0  0  0  0  0  0  0
    1.3804    2.5267    1.3273 C   0  0  0  0  0  0  0  0  0  0  0  0
    2.3356    2.2831    1.8040 H   0  0  0  0  0  0  0  0  0  0  0  0
   -4.1024   -2.2860    0.6481 C   0  0  0  0  0  0  0  0  0  0  0  0
   -4.0998   -2.9228   -0.2568 H   0  0  0  0  0  0  0  0  0  0  0  0
   -4.7077   -1.3803    0.4567 H   0  0  0  0  0  0  0  0  0  0  0  0
   -4.5596   -2.8581    1.4745 H   0  0  0  0  0  0  0  0  0  0  0  0
   -1.4616    4.5421    0.2949 C   0  0  0  0  0  0  0  0  0  0  0  0
   -2.3545    4.4187    0.9402 H   0  0  0  0  0  0  0  0  0  0  0  0
   -1.7637    4.4917   -0.7679 H   0  0  0  0  0  0  0  0  0  0  0  0
   -1.0207    5.5360    0.4887 H   0  0  0  0  0  0  0  0  0  0  0  0
   -3.6047    0.8378   -1.5257 C   0  0  0  0  0  0  0  0  0  0  0  0
   -4.5859    1.1830   -1.8850 H   0  0  0  0  0  0  0  0  0  0  0  0
   -1.8478   -0.8589   -1.1804 C   0  0  2  0  0  0  0  0  0  0  0  0
   -1.4231   -1.6661   -1.8168 H   0  0  0  0  0  0  0  0  0  0  0  0
   -1.7927   -1.3132    0.2671 C   0  0  2  0  0  3  0  0  0  0  0  0
  1 12  1  0  0  0  0
  2 31  1  0  0  0  0
  2 11  1  0  0  0  0
  3  2  1  0  0  0  0
  4 19  1  0  0  0  0
  5 11  1  1  0  0  0
  5  8  1  0  0  0  0
  5  4  1  0  0  0  0
  6 11  2  0  0  0  0
  6  7  1  0  0  0  0
  8 17  1  0  0  0  0
  9 10  1  0  0  0  0
 12  9  2  0  0  0  0
 12 13  1  0  0  0  0
 14 29  2  0  0  0  0
 14 31  1  0  0  0  0
 15 14  1  0  0  0  0
 16  9  1  0  0  0  0
 17 18  1  0  0  0  0
 19 17  2  0  0  0  0
 19 20  1  0  0  0  0
 21 16  1  0  0  0  0
 21 24  1  0  0  0  0
 22 21  1  0  0  0  0
 23 21  1  0  0  0  0
 25 28  1  0  0  0  0
 25  8  1  0  0  0  0
 25 26  1  0  0  0  0
 27 25  1  0  0  0  0
 29  6  1  0  0  0  0
 30 29  1  0  0  0  0
 31 32  1  6  0  0  0
 31 33  1  0  0  0  0
 33  1  1  6  0  0  0
 33 16  1  0  0  0  0
M  END
