1,2,5
q = -2.0, confidence = 0.894

 36 40  0  0  0  0  0  0  0  0999 V2000
   -0.6226    0.0125   -1.7802 N   0  0  0  0  0  2  0  0  0  0  0  0
    1.7490   -0.0210   -0.9212 N   0  0  0  0  0  2  0  0  0  0  0  0
   -1.9863    0.0379   -5.6548 O   0  0  0  0  0  0  0  0  0  0  0  0
    0.2668    0.0030   -2.8149 C   0  0  0  0  0  0  0  0  0  0  0  0
   -1.8552    0.0241    0.3811 N   0  0  0  0  0  0  0  0  0  0  0  0
    1.6119   -0.0160   -2.2596 C   0  0  0  0  0  0  0  0  0  0  0  0
    2.8321   -0.0307   -2.8716 N   0  0  0  0  0  0  0  0  0  0  0  0
    3.8123   -0.0463   -1.8854 C   0  0  0  0  0  0  0  0  0  0  0  0
   -2.4798    0.0265    2.8619 C   0  0  0  0  0  0  0  0  0  0  0  0
   -1.4697    0.0135    3.2939 H   0  0  0  0  0  0  0  0  0  0  0  0
    5.2114   -0.0713    0.5099 C   0  0  0  0  0  0  0  0  0  0  0  0
    5.7899   -0.0816    1.4454 H   0  0  0  0  0  0  0  0  0  0  0  0
   -3.9834    0.0526   -0.4645 N   0  0  0  0  0  0  0  0  0  0  0  0
    5.2127   -0.0648   -1.9480 C   0  0  0  0  0  0  0  0  0  0  0  0
    5.7480   -0.0694   -2.9084 H   0  0  0  0  0  0  0  0  0  0  0  0
    3.8135   -0.0528    0.5758 C   0  0  0  0  0  0  0  0  0  0  0  0
    3.2883   -0.0487    1.5399 H   0  0  0  0  0  0  0  0  0  0  0  0
   -1.5832    0.0304   -4.4797 C   0  0  0  0  0  0  0  0  0  0  0  0
   -2.6820    0.0370   -0.7345 C   0  0  0  0  0  0  0  0  0  0  0  0
   -1.9714    0.0305   -2.0128 C   0  0  0  0  0  0  0  0  0  0  0  0
   -5.1496    0.0620    1.7764 C   0  0  0  0  0  0  0  0  0  0  0  0
   -6.1649    0.0756    1.3529 H   0  0  0  0  0  0  0  0  0  0  0  0
   -3.6093    0.0386    3.6883 C   0  0  0  0  0  0  0  0  0  0  0  0
   -3.4722    0.0345    4.7807 H   0  0  0  0  0  0  0  0  0  0  0  0
   -0.1445    0.0111   -4.1370 C   0  0  0  0  0  3  0  0  0  0  0  0
    0.5723    0.0034   -4.9718 H   0  0  0  0  0  0  0  0  0  0  0  0
   -4.9249    0.0560    3.1560 C   0  0  0  0  0  0  0  0  0  0  0  0
   -5.7817    0.0650    3.8470 H   0  0  0  0  0  0  0  0  0  0  0  0
    3.1060   -0.0400   -0.6416 C   0  0  0  0  0  0  0  0  0  0  0  0
   -4.0320    0.0501    0.9150 C   0  0  0  0  0  0  0  0  0  0  0  0
   -2.4712    0.0396   -3.3060 C   0  0  0  0  0  0  0  0  0  0  0  0
   -3.5582    0.0540   -3.4658 H   0  0  0  0  0  0  0  0  0  0  0  0
   -2.6964    0.0321    1.4678 C   0  0  0  0  0  3  0  0  0  0  0  0
    5.8999   -0.0771   -0.7270 C   0  0  0  0  0  0  0  0  0  0  0  0
    6.9997   -0.0917   -0.7311 H   0  0  0  0  0  0  0  0  0  0  0  0
    2.9799   -0.0302   -3.8806 H   0  0  0  0  0  0  0  0  0  0  0  0
  2 29  1  0  0  0  0
  3 18  2  0  0  0  0
  4  6  2  0  0  0  0
  4  1  1  0  0  0  0
  5 33  1  0  0  0  0
  6  2  1  0  0  0  0
  7  6  1  0  0  0  0
  7  8  1  0  0  0  0
  8 29  1  0  0  0  0
  9 10  1  0  0  0  0
  9 23  2  0  0  0  0
 11 16  1  0  0  0  0
 11 12  1  0  0  0  0
 13 30  2  0  0  0  0
 14  8  2  0  0  0  0
 14 34  1  0  0  0  0
 15 14  1  0  0  0  0
 16 17  1  0  0  0  0
 18 25  1  0  0  0  0
 18 31  1  0  0  0  0
 19 13  1  0  0  0  0
 19  5  2  0  0  0  0
 20  1  1  0  0  0  0
 20 19  1  0  0  0  0
 21 27  2  0  0  0  0
 22 21  1  0  0  0  0
 23 24  1  0  0  0  0
 25  4  1  0  0  0  0
 26 25  1  0  0  0  0
 27 23  1  0  0  0  0
 27 28  1  0  0  0  0
 29 16  2  0  0  0  0
 30 33  1  0  0  0  0
 30 21  1  0  0  0  0
 31 20  2  0  0  0  0
 32 31  1  0  0  0  0
 33  9  1  0  0  0  0
 34 11  2  0  0  0  0
 35 34  1  0  0  0  0
 36  7  1  0  0  0  0
M  END
