2,3,4
q = 0.0, confidence = 0.998

 47 48  0  0  1  0  0  0  0  0999 V2000
    2.2547   -0.7264   -0.1355 N   0  0  0  0  0  0  0  0  0  0  0  0
    1.0870   -0.0695   -0.1574 N   0  0  0  0  0  2  0  0  0  0  0  0
   -0.9368    1.2447   -0.0220 N   0  0  0  0  0  2  0  0  0  0  0  0
   -2.7470   -0.6360    0.2036 N   0  0  0  0  0  0  0  0  0  0  0  0
    3.3228    0.1282    0.0026 C   0  0  1  0  0  3  0  0  0  0  0  0
    2.7875    1.4199    0.0476 C   0  0  0  0  0  0  0  0  0  0  0  0
    1.3779    1.2616   -0.0527 C   0  0  0  0  0  0  0  0  0  0  0  0
    0.1751    2.0658    0.0100 C   0  0  2  0  0  3  0  0  0  0  0  0
    0.0165    3.4544    0.1315 C   0  0  0  0  0  0  0  0  0  0  0  0
   -1.2765    3.9931    0.1999 C   0  0  0  0  0  0  0  0  0  0  0  0
   -2.3968    3.1356    0.1225 C   0  0  0  0  0  0  0  0  0  0  0  0
   -2.1926    1.7615   -0.0065 C   0  0  0  0  0  0  0  0  0  0  0  0
   -3.2397    0.7026   -0.2387 C   0  0  0  0  0  0  0  0  0  0  0  0
    4.7455   -0.3841    0.0788 C   0  0  0  0  0  0  0  0  0  0  0  0
    4.8893   -1.3161    1.3043 C   0  0  0  0  0  0  0  0  0  0  0  0
    5.0784   -1.1662   -1.2127 C   0  0  0  0  0  0  0  0  0  0  0  0
    5.7102    0.8044    0.2229 C   0  0  0  0  0  0  0  0  0  0  0  0
   -2.9618   -0.8630    1.6649 C   0  0  0  0  0  0  0  0  0  0  0  0
   -2.1528    0.0290    2.5988 C   0  0  0  0  0  0  0  0  0  0  0  0
   -3.3773   -1.7404   -0.5833 C   0  0  0  0  0  0  0  0  0  0  0  0
   -4.8954   -1.8728   -0.4760 C   0  0  0  0  0  0  0  0  0  0  0  0
    2.1987   -1.7483   -0.0679 H   0  0  0  0  0  0  0  0  0  0  0  0
    3.3491    2.3523    0.1477 H   0  0  0  0  0  0  0  0  0  0  0  0
    0.9052    4.1003    0.1688 H   0  0  0  0  0  0  0  0  0  0  0  0
   -1.4181    5.0787    0.2990 H   0  0  0  0  0  0  0  0  0  0  0  0
   -3.4204    3.5367    0.1435 H   0  0  0  0  0  0  0  0  0  0  0  0
   -3.3816    0.6317   -1.3379 H   0  0  0  0  0  0  0  0  0  0  0  0
   -4.2132    0.9689    0.2285 H   0  0  0  0  0  0  0  0  0  0  0  0
    4.2131   -2.1928    1.2378 H   0  0  0  0  0  0  0  0  0  0  0  0
    4.6520   -0.7772    2.2431 H   0  0  0  0  0  0  0  0  0  0  0  0
    5.9271   -1.7005    1.3758 H   0  0  0  0  0  0  0  0  0  0  0  0
    4.9784   -0.5181   -2.1058 H   0  0  0  0  0  0  0  0  0  0  0  0
    4.4031   -2.0349   -1.3494 H   0  0  0  0  0  0  0  0  0  0  0  0
    6.1182   -1.5499   -1.1736 H   0  0  0  0  0  0  0  0  0  0  0  0
    5.5021    1.3836    1.1448 H   0  0  0  0  0  0  0  0  0  0  0  0
    5.6347    1.4917   -0.6433 H   0  0  0  0  0  0  0  0  0  0  0  0
    6.7556    0.4406    0.2785 H   0  0  0  0  0  0  0  0  0  0  0  0
   -4.0474   -0.7535    1.8892 H   0  0  0  0  0  0  0  0  0  0  0  0
   -2.6773   -1.9183    1.8459 H   0  0  0  0  0  0  0  0  0  0  0  0
   -2.3811   -0.2559    3.6453 H   0  0  0  0  0  0  0  0  0  0  0  0
   -2.3882    1.1051    2.4859 H   0  0  0  0  0  0  0  0  0  0  0  0
   -1.0652   -0.1149    2.4415 H   0  0  0  0  0  0  0  0  0  0  0  0
   -3.0651   -1.5734   -1.6336 H   0  0  0  0  0  0  0  0  0  0  0  0
   -2.8694   -2.6669   -0.2486 H   0  0  0  0  0  0  0  0  0  0  0  0
   -5.2288   -2.7011   -1.1325 H   0  0  0  0  0  0  0  0  0  0  0  0
   -5.4249   -0.9588   -0.8152 H   0  0  0  0  0  0  0  0  0  0  0  0
   -5.2410   -2.1112    0.5500 H   0  0  0  0  0  0  0  0  0  0  0  0
  1 22  1  0  0  0  0
  1  5  1  0  0  0  0
  2  1  1  0  0  0  0
  2  7  1  0  0  0  0
  3 12  1  0  0  0  0
  3  8  1  0  0  0  0
  4 18  1  0  0  0  0
  5  6  1  0  0  0  0
  5 14  1  1  0  0  0
  6 23  1  0  0  0  0
  7  6  2  0  0  0  0
  8  7  1  1  0  0  0
  8  9  1  0  0  0  0
  9 24  1  0  0  0  0
  9 10  2  0  0  0  0
 10 25  1  0  0  0  0
 11 26  1  0  0  0  0
 11 10  1  0  0  0  0
 12 11  2  0  0  0  0
 13 12  1  0  0  0  0
 13  4  1  0  0  0  0
 13 28  1  0  0  0  0
 14 17  1  0  0  0  0
 14 15  1  0  0  0  0
 15 31  1  0  0  0  0
 15 30  1  0  0  0  0
 16 34  1  0  0  0  0
 16 14  1  0  0  0  0
 17 37  1  0  0  0  0
 17 35  1  0  0  0  0
 18 39  1  0  0  0  0
 18 38  1  0  0  0  0
 18 19  1  0  0  0  0
 19 40  1  0  0  0  0
 20 21  1  0  0  0  0
 20 44  1  0  0  0  0
 20  4  1  0  0  0  0
 21 47  1  0  0  0  0
 27 13  1  0  0  0  0
 29 15  1  0  0  0  0
 32 16  1  0  0  0  0
 33 16  1  0  0  0  0
 36 17  1  0  0  0  0
 41 19  1  0  0  0  0
 42 19  1  0  0  0  0
 43 20  1  0  0  0  0
 45 21  1  0  0  0  0
 46 21  1  0  0  0  0
M  END
