2,9,13
q = -1.0, confidence = 0.002

 31 33  0  0  0  0  0  0  0  0999 V2000
   -1.1119   -1.9140   -3.3216 Se  0  0  0  0  0  0  0  0  0  0  0  0
   -0.6708    2.2500    1.2327 N   0  0  0  0  0  2  0  0  0  0  0  0
   -1.9657    2.6218    0.9346 C   0  0  0  0  0  0  0  0  0  0  0  0
   -2.6185    3.6062    1.7107 C   0  0  0  0  0  0  0  0  0  0  0  0
   -3.6467    3.8952    1.4518 H   0  0  0  0  0  0  0  0  0  0  0  0
   -1.9499    4.1841    2.7905 C   0  0  0  0  0  0  0  0  0  0  0  0
   -2.4481    4.9487    3.4046 H   0  0  0  0  0  0  0  0  0  0  0  0
   -2.0875    0.2638   -1.7512 N   0  0  0  0  0  0  0  0  0  0  0  0
   -1.7607    1.0018   -0.7080 N   0  0  0  0  0  2  0  0  0  0  0  0
    2.3646   -1.5817   -1.0648 C   0  0  0  0  0  0  0  0  0  0  0  0
   -0.6384    3.7734    3.0894 C   0  0  0  0  0  0  0  0  0  0  0  0
   -0.0815    4.1925    3.9382 H   0  0  0  0  0  0  0  0  0  0  0  0
    0.1291   -0.4937   -1.3730 N   0  0  0  0  0  2  0  0  0  0  0  0
    2.5729   -2.5834   -0.0949 C   0  0  0  0  0  0  0  0  0  0  0  0
    1.7496   -3.2682    0.1588 H   0  0  0  0  0  0  0  0  0  0  0  0
   -0.0349    2.8033    2.2817 C   0  0  0  0  0  0  0  0  0  0  0  0
    0.9845    2.4473    2.4860 H   0  0  0  0  0  0  0  0  0  0  0  0
    3.8134   -2.6950    0.5492 C   0  0  0  0  0  0  0  0  0  0  0  0
    3.9664   -3.4753    1.3096 H   0  0  0  0  0  0  0  0  0  0  0  0
   -2.5490    1.9260   -0.1730 C   0  0  0  0  0  0  0  0  0  0  0  0
   -3.5651    2.0980   -0.5553 H   0  0  0  0  0  0  0  0  0  0  0  0
    4.8551   -1.8127    0.2243 C   0  0  0  0  0  0  0  0  0  0  0  0
    5.8286   -1.9005    0.7292 H   0  0  0  0  0  0  0  0  0  0  0  0
   -1.0500   -0.5467   -2.0389 C   0  0  0  0  0  0  0  0  0  0  0  0
    4.6605   -0.8285   -0.7588 C   0  0  0  0  0  0  0  0  0  0  0  0
    5.4848   -0.1519   -1.0306 H   0  0  0  0  0  0  0  0  0  0  0  0
    0.6247   -2.3256   -2.7316 C   0  0  0  0  0  0  0  0  0  0  0  0
    1.2091   -3.1400   -3.1740 H   0  0  0  0  0  0  0  0  0  0  0  0
    1.0431   -1.4719   -1.7345 C   0  0  0  0  0  0  0  0  0  0  0  0
    3.4218   -0.7133   -1.4042 C   0  0  0  0  0  0  0  0  0  0  0  0
    3.2678    0.0486   -2.1830 H   0  0  0  0  0  0  0  0  0  0  0  0
  1 27  1  0  0  0  0
  1 24  1  0  0  0  0
  2 16  1  0  0  0  0
  3  2  1  0  0  0  0
  3  4  1  0  0  0  0
  4  6  2  0  0  0  0
  5  4  1  0  0  0  0
  6 11  1  0  0  0  0
  6  7  1  0  0  0  0
  8  9  1  0  0  0  0
  9 20  1  0  0  0  0
 10 14  1  0  0  0  0
 11 12  1  0  0  0  0
 14 15  1  0  0  0  0
 14 18  2  0  0  0  0
 16 17  1  0  0  0  0
 16 11  2  0  0  0  0
 18 19  1  0  0  0  0
 20  3  2  0  0  0  0
 21 20  1  0  0  0  0
 22 18  1  0  0  0  0
 22 23  1  0  0  0  0
 24  8  2  0  0  0  0
 24 13  1  0  0  0  0
 25 22  2  0  0  0  0
 26 25  1  0  0  0  0
 27 29  2  0  0  0  0
 28 27  1  0  0  0  0
 29 13  1  0  0  0  0
 29 10  1  0  0  0  0
 30 10  2  0  0  0  0
 30 25  1  0  0  0  0
 31 30  1  0  0  0  0
M  END
