2,9,13
q = -1.0, confidence = 0.0

 34 36  0  0  0  0  0  0  0  0999 V2000
   -1.8110    2.7017    1.2073 C   0  0  0  0  0  0  0  0  0  0  0  0
   -0.4871    2.3287    1.3170 N   0  0  0  0  0  2  0  0  0  0  0  0
   -1.5819   -1.8352   -3.1262 Se  0  0  0  0  0  0  0  0  0  0  0  0
   -2.3453    3.6862    2.0695 C   0  0  0  0  0  0  0  0  0  0  0  0
   -3.3998    3.9759    1.9606 H   0  0  0  0  0  0  0  0  0  0  0  0
   -1.5288    4.2627    3.0429 C   0  0  0  0  0  0  0  0  0  0  0  0
   -1.9336    5.0271    3.7225 H   0  0  0  0  0  0  0  0  0  0  0  0
   -2.3206    0.3445   -1.4331 N   0  0  0  0  0  0  0  0  0  0  0  0
   -1.8455    1.0817   -0.4480 N   0  0  0  0  0  2  0  0  0  0  0  0
    2.1797   -1.5024   -1.3851 C   0  0  0  0  0  0  0  0  0  0  0  0
   -0.1883    3.8509    3.1509 C   0  0  0  0  0  0  0  0  0  0  0  0
    0.4845    4.2690    3.9116 H   0  0  0  0  0  0  0  0  0  0  0  0
   -0.0737   -0.4151   -1.3774 N   0  0  0  0  0  2  0  0  0  0  0  0
    3.1819   -0.6298   -1.8529 C   0  0  0  0  0  0  0  0  0  0  0  0
    2.9294    0.1325   -2.6052 H   0  0  0  0  0  0  0  0  0  0  0  0
    0.2926    2.8809    2.2647 C   0  0  0  0  0  0  0  0  0  0  0  0
    1.3305    2.5242    2.3209 H   0  0  0  0  0  0  0  0  0  0  0  0
    4.4913   -0.7357   -1.3697 C   0  0  0  0  0  0  0  0  0  0  0  0
    5.2660   -0.0501   -1.7482 H   0  0  0  0  0  0  0  0  0  0  0  0
   -2.5473    2.0076    0.1943 C   0  0  0  0  0  0  0  0  0  0  0  0
   -3.6076    2.1806   -0.0377 H   0  0  0  0  0  0  0  0  0  0  0  0
    4.8427   -1.7117   -0.4130 C   0  0  0  0  0  0  0  0  0  0  0  0
   -1.3358   -0.4675   -1.8667 C   0  0  0  0  0  0  0  0  0  0  0  0
    3.8396   -2.6026    0.0209 C   0  0  0  0  0  0  0  0  0  0  0  0
    4.0920   -3.3874    0.7509 H   0  0  0  0  0  0  0  0  0  0  0  0
    0.2218   -2.2466   -2.7929 C   0  0  0  0  0  0  0  0  0  0  0  0
    0.7361   -3.0614   -3.3143 H   0  0  0  0  0  0  0  0  0  0  0  0
    0.7799   -1.3937   -1.8658 C   0  0  0  0  0  0  0  0  0  0  0  0
    6.2405   -1.7889    0.1416 C   0  0  0  0  0  0  0  0  0  0  0  0
    6.3225   -1.1906    1.0746 H   0  0  0  0  0  0  0  0  0  0  0  0
    6.9884   -1.3896   -0.5706 H   0  0  0  0  0  0  0  0  0  0  0  0
    6.5232   -2.8287    0.3971 H   0  0  0  0  0  0  0  0  0  0  0  0
    2.5273   -2.5041   -0.4570 C   0  0  0  0  0  0  0  0  0  0  0  0
    1.7545   -3.2021   -0.1005 H   0  0  0  0  0  0  0  0  0  0  0  0
  1  2  1  0  0  0  0
  1  4  1  0  0  0  0
  2 16  1  0  0  0  0
  3 26  1  0  0  0  0
  3 23  1  0  0  0  0
  4  6  2  0  0  0  0
  5  4  1  0  0  0  0
  6 11  1  0  0  0  0
  6  7  1  0  0  0  0
  8  9  1  0  0  0  0
  9 20  1  0  0  0  0
 10 33  1  0  0  0  0
 11 12  1  0  0  0  0
 14 10  2  0  0  0  0
 14 18  1  0  0  0  0
 15 14  1  0  0  0  0
 16 17  1  0  0  0  0
 16 11  2  0  0  0  0
 18 22  2  0  0  0  0
 19 18  1  0  0  0  0
 20  1  2  0  0  0  0
 21 20  1  0  0  0  0
 22 24  1  0  0  0  0
 22 29  1  0  0  0  0
 23  8  2  0  0  0  0
 23 13  1  0  0  0  0
 24 25  1  0  0  0  0
 26 28  2  0  0  0  0
 27 26  1  0  0  0  0
 28 10  1  0  0  0  0
 28 13  1  0  0  0  0
 29 32  1  0  0  0  0
 29 30  1  0  0  0  0
 31 29  1  0  0  0  0
 33 34  1  0  0  0  0
 33 24  2  0  0  0  0
M  END
