3,6,7
q = 0.0, confidence = 0.996

 33 34  0  0  1  0  0  0  0  0999 V2000
   -3.1438   -1.1202    0.1364 C   0  0  0  0  0  0  0  0  0  0  0  0
   -3.1143   -2.2038    0.2892 H   0  0  0  0  0  0  0  0  0  0  0  0
   -1.9918   -0.3880   -0.0219 N   0  0  0  0  0  2  0  0  0  0  0  0
   -4.2101   -0.2429    0.0621 C   0  0  0  0  0  0  0  0  0  0  0  0
   -5.2892   -0.4109    0.1336 H   0  0  0  0  0  0  0  0  0  0  0  0
    0.0001    1.4667    0.2130 N   0  0  0  0  0  0  0  0  0  0  0  0
    1.9918   -0.3881   -0.0223 N   0  0  0  0  0  2  0  0  0  0  0  0
   -2.3301    0.9065   -0.1826 C   0  0  2  0  0  3  0  0  0  0  0  0
   -3.6853    1.0273   -0.1309 N   0  0  0  0  0  0  0  0  0  0  0  0
   -1.2660    1.9339   -0.4515 C   0  0  0  0  0  0  0  0  0  0  0  0
   -1.5529    2.9492   -0.1011 H   0  0  0  0  0  0  0  0  0  0  0  0
   -1.0678    1.9937   -1.5427 H   0  0  0  0  0  0  0  0  0  0  0  0
    3.6853    1.0272   -0.1309 N   0  0  0  0  0  0  0  0  0  0  0  0
    1.2659    1.9338   -0.4520 C   0  0  0  0  0  0  0  0  0  0  0  0
    1.0674    1.9931   -1.5431 H   0  0  0  0  0  0  0  0  0  0  0  0
    1.5529    2.9491   -0.1019 H   0  0  0  0  0  0  0  0  0  0  0  0
    2.3301    0.9064   -0.1830 C   0  0  1  0  0  3  0  0  0  0  0  0
    4.2101   -0.2429    0.0624 C   0  0  0  0  0  0  0  0  0  0  0  0
    5.2892   -0.4109    0.1341 H   0  0  0  0  0  0  0  0  0  0  0  0
    3.1437   -1.1203    0.1365 C   0  0  0  0  0  0  0  0  0  0  0  0
    3.1142   -2.2039    0.2894 H   0  0  0  0  0  0  0  0  0  0  0  0
   -4.4603    2.2476   -0.3210 C   0  0  0  0  0  0  0  0  0  0  0  0
   -5.4575    2.1155    0.1352 H   0  0  0  0  0  0  0  0  0  0  0  0
   -4.5855    2.4752   -1.3985 H   0  0  0  0  0  0  0  0  0  0  0  0
   -3.9606    3.0993    0.1777 H   0  0  0  0  0  0  0  0  0  0  0  0
    0.0003    1.8260    1.6573 C   0  0  0  0  0  0  0  0  0  0  0  0
    0.0004    2.9313    1.7799 H   0  0  0  0  0  0  0  0  0  0  0  0
    0.8954    1.3940    2.1401 H   0  0  0  0  0  0  0  0  0  0  0  0
   -0.8947    1.3941    2.1403 H   0  0  0  0  0  0  0  0  0  0  0  0
    4.4604    2.2475   -0.3211 C   0  0  0  0  0  0  0  0  0  0  0  0
    3.9601    3.0995    0.1764 H   0  0  0  0  0  0  0  0  0  0  0  0
    4.5867    2.4742   -1.3986 H   0  0  0  0  0  0  0  0  0  0  0  0
    5.4572    2.1158    0.1363 H   0  0  0  0  0  0  0  0  0  0  0  0
  1  2  1  0  0  0  0
  3  1  1  0  0  0  0
  4  5  1  0  0  0  0
  4  1  2  0  0  0  0
  6 26  1  0  0  0  0
  7 20  1  0  0  0  0
  8 10  1  6  0  0  0
  8  9  1  0  0  0  0
  8  3  1  0  0  0  0
  9  4  1  0  0  0  0
 10 11  1  0  0  0  0
 10  6  1  0  0  0  0
 12 10  1  0  0  0  0
 13 18  1  0  0  0  0
 14 16  1  0  0  0  0
 14  6  1  0  0  0  0
 15 14  1  0  0  0  0
 17 14  1  6  0  0  0
 17 13  1  0  0  0  0
 17  7  1  0  0  0  0
 18 19  1  0  0  0  0
 18 20  2  0  0  0  0
 20 21  1  0  0  0  0
 22  9  1  0  0  0  0
 22 23  1  0  0  0  0
 22 25  1  0  0  0  0
 24 22  1  0  0  0  0
 26 27  1  0  0  0  0
 26 28  1  0  0  0  0
 26 29  1  0  0  0  0
 30 13  1  0  0  0  0
 30 33  1  0  0  0  0
 30 31  1  0  0  0  0
 32 30  1  0  0  0  0
M  END
