4,12,20
q = 0.0, confidence = 0.998

 38 39  0  0  1  0  0  0  0  0999 V2000
    0.6178    2.7113    0.4412 C   0  0  0  0  0  0  0  0  0  0  0  0
   -0.6178    2.7113   -0.4412 C   0  0  0  0  0  0  0  0  0  0  0  0
    1.3144    1.4552    0.2310 N   0  0  0  0  0  0  0  0  0  0  0  0
   -1.3144    1.4552   -0.2310 N   0  0  0  0  0  2  0  0  0  0  0  0
    2.6191    1.4069    0.2709 C   0  0  0  0  0  0  0  0  0  0  0  0
    3.4875    2.6097    0.5171 C   0  0  0  0  0  0  0  0  0  0  0  0
    3.1681    0.0734    0.0854 C   0  0  1  0  0  3  0  0  0  0  0  0
    4.5468   -0.2202    0.0062 C   0  0  0  0  0  0  0  0  0  0  0  0
    4.9645   -1.5375   -0.1714 C   0  0  0  0  0  0  0  0  0  0  0  0
    3.9789   -2.5380   -0.2570 C   0  0  0  0  0  0  0  0  0  0  0  0
    2.6344   -2.1799   -0.1726 C   0  0  0  0  0  0  0  0  0  0  0  0
    2.2140   -0.9045   -0.0076 N   0  0  0  0  0  2  0  0  0  0  0  0
   -2.6191    1.4069   -0.2709 C   0  0  0  0  0  0  0  0  0  0  0  0
   -3.4875    2.6097   -0.5171 C   0  0  0  0  0  0  0  0  0  0  0  0
   -3.1681    0.0734   -0.0854 C   0  0  0  0  0  0  0  0  0  0  0  0
   -4.5468   -0.2202   -0.0062 C   0  0  0  0  0  0  0  0  0  0  0  0
   -4.9644   -1.5375    0.1714 C   0  0  0  0  0  0  0  0  0  0  0  0
   -3.9789   -2.5380    0.2570 C   0  0  0  0  0  0  0  0  0  0  0  0
   -2.6344   -2.1799    0.1726 C   0  0  0  0  0  0  0  0  0  0  0  0
   -2.2140   -0.9045    0.0076 N   0  0  0  0  0  2  0  0  0  0  0  0
    0.3165    2.7535    1.5122 H   0  0  0  0  0  0  0  0  0  0  0  0
    1.2467    3.5966    0.2189 H   0  0  0  0  0  0  0  0  0  0  0  0
   -0.3165    2.7535   -1.5122 H   0  0  0  0  0  0  0  0  0  0  0  0
   -1.2466    3.5966   -0.2189 H   0  0  0  0  0  0  0  0  0  0  0  0
    3.2302    3.0840    1.4860 H   0  0  0  0  0  0  0  0  0  0  0  0
    4.5595    2.3538    0.5449 H   0  0  0  0  0  0  0  0  0  0  0  0
    3.3445    3.3744   -0.2744 H   0  0  0  0  0  0  0  0  0  0  0  0
    5.2833    0.5906    0.0776 H   0  0  0  0  0  0  0  0  0  0  0  0
    6.0339   -1.7837   -0.2415 H   0  0  0  0  0  0  0  0  0  0  0  0
    4.2456   -3.5959   -0.3901 H   0  0  0  0  0  0  0  0  0  0  0  0
    1.8227   -2.9207   -0.2312 H   0  0  0  0  0  0  0  0  0  0  0  0
   -3.2303    3.0839   -1.4861 H   0  0  0  0  0  0  0  0  0  0  0  0
   -4.5595    2.3538   -0.5447 H   0  0  0  0  0  0  0  0  0  0  0  0
   -3.3444    3.3745    0.2743 H   0  0  0  0  0  0  0  0  0  0  0  0
   -5.2833    0.5905   -0.0775 H   0  0  0  0  0  0  0  0  0  0  0  0
   -6.0339   -1.7837    0.2415 H   0  0  0  0  0  0  0  0  0  0  0  0
   -4.2455   -3.5959    0.3901 H   0  0  0  0  0  0  0  0  0  0  0  0
   -1.8227   -2.9207    0.2311 H   0  0  0  0  0  0  0  0  0  0  0  0
  1 21  1  0  0  0  0
  2  4  1  0  0  0  0
  2 24  1  0  0  0  0
  2  1  1  0  0  0  0
  3  5  2  0  0  0  0
  3  1  1  0  0  0  0
  5  6  1  0  0  0  0
  6 26  1  0  0  0  0
  6 25  1  0  0  0  0
  7  5  1  1  0  0  0
  8 28  1  0  0  0  0
  8  7  1  0  0  0  0
  9  8  2  0  0  0  0
 10 11  2  0  0  0  0
 10  9  1  0  0  0  0
 11 12  1  0  0  0  0
 12  7  1  0  0  0  0
 13  4  1  0  0  0  0
 13 15  2  0  0  0  0
 14 13  1  0  0  0  0
 14 34  1  0  0  0  0
 15 16  1  0  0  0  0
 15 20  1  0  0  0  0
 16 17  2  0  0  0  0
 17 36  1  0  0  0  0
 17 18  1  0  0  0  0
 18 37  1  0  0  0  0
 19 38  1  0  0  0  0
 19 18  2  0  0  0  0
 20 19  1  0  0  0  0
 22  1  1  0  0  0  0
 23  2  1  0  0  0  0
 27  6  1  0  0  0  0
 29  9  1  0  0  0  0
 30 10  1  0  0  0  0
 31 11  1  0  0  0  0
 32 14  1  0  0  0  0
 33 14  1  0  0  0  0
 35 16  1  0  0  0  0
M  END
