2,4,6
q = -1.0, confidence = 0.014

 62 64  0  0  1  0  0  0  0  0999 V2000
   -0.1782   -0.9055    1.8868 B   0  0  2  0  0  0  0  0  0  0  0  0
    0.8720   -1.2725   -0.3710 N   0  0  0  0  0  2  0  0  0  0  0  0
    0.6249   -1.7679    0.8746 N   0  0  0  0  0  0  0  0  0  0  0  0
   -1.7868   -0.1834    0.1564 N   0  0  0  0  0  2  0  0  0  0  0  0
   -1.6162   -0.7338    1.3842 N   0  0  0  0  0  0  0  0  0  0  0  0
    0.7687    1.1269    0.7489 N   0  0  0  0  0  2  0  0  0  0  0  0
    0.5289    0.4773    1.9222 N   0  0  0  0  0  0  0  0  0  0  0  0
    1.3379   -3.6609    2.3669 C   0  0  0  0  0  0  0  0  0  0  0  0
    1.3703   -2.8912    1.0864 C   0  0  2  0  0  3  0  0  0  0  0  0
    2.1188   -3.1170   -0.0728 C   0  0  0  0  0  0  0  0  0  0  0  0
    1.7898   -2.0678   -0.9638 C   0  0  0  0  0  0  0  0  0  0  0  0
    2.3793   -1.7775   -2.3180 C   0  0  0  0  0  0  0  0  0  0  0  0
    3.9100   -1.6525   -2.2266 C   0  0  0  0  0  0  0  0  0  0  0  0
    1.9558   -2.8194   -3.3656 C   0  0  0  0  0  0  0  0  0  0  0  0
   -2.9512   -1.6728    3.2976 C   0  0  0  0  0  0  0  0  0  0  0  0
   -2.8196   -1.0458    1.9472 C   0  0  2  0  0  3  0  0  0  0  0  0
   -3.8044   -0.6723    1.0264 C   0  0  0  0  0  0  0  0  0  0  0  0
   -3.1121   -0.1342   -0.0876 C   0  0  0  0  0  0  0  0  0  0  0  0
   -3.6791    0.4590   -1.3509 C   0  0  0  0  0  0  0  0  0  0  0  0
   -4.1533    1.9053   -1.1171 C   0  0  0  0  0  0  0  0  0  0  0  0
   -4.8016   -0.4131   -1.9324 C   0  0  0  0  0  0  0  0  0  0  0  0
    1.1485    0.6097    4.3545 C   0  0  0  0  0  0  0  0  0  0  0  0
    1.1941    1.0942    2.9416 C   0  0  1  0  0  3  0  0  0  0  0  0
    1.8813    2.1805    2.3908 C   0  0  0  0  0  0  0  0  0  0  0  0
    1.6003    2.1607    1.0037 C   0  0  0  0  0  0  0  0  0  0  0  0
    2.1574    3.0493   -0.0760 C   0  0  0  0  0  0  0  0  0  0  0  0
    3.6952    3.0006   -0.0772 C   0  0  0  0  0  0  0  0  0  0  0  0
    1.6344    4.4900    0.0370 C   0  0  0  0  0  0  0  0  0  0  0  0
   -0.1614   -1.4186    2.9883 H   0  0  0  0  0  0  0  0  0  0  0  0
    1.9571   -4.5722    2.2723 H   0  0  0  0  0  0  0  0  0  0  0  0
    1.7320   -3.0659    3.2167 H   0  0  0  0  0  0  0  0  0  0  0  0
    0.3077   -3.9692    2.6369 H   0  0  0  0  0  0  0  0  0  0  0  0
    2.8272   -3.9341   -0.2438 H   0  0  0  0  0  0  0  0  0  0  0  0
    1.9816   -0.7853   -2.6187 H   0  0  0  0  0  0  0  0  0  0  0  0
    4.2056   -0.8764   -1.4922 H   0  0  0  0  0  0  0  0  0  0  0  0
    4.3757   -2.6101   -1.9138 H   0  0  0  0  0  0  0  0  0  0  0  0
    4.3377   -1.3777   -3.2123 H   0  0  0  0  0  0  0  0  0  0  0  0
    0.8542   -2.8665   -3.4650 H   0  0  0  0  0  0  0  0  0  0  0  0
    2.3780   -2.5689   -4.3601 H   0  0  0  0  0  0  0  0  0  0  0  0
    2.3190   -3.8307   -3.0872 H   0  0  0  0  0  0  0  0  0  0  0  0
   -2.5066   -1.0397    4.0930 H   0  0  0  0  0  0  0  0  0  0  0  0
   -4.0193   -1.8254    3.5399 H   0  0  0  0  0  0  0  0  0  0  0  0
   -2.4446   -2.6588    3.3475 H   0  0  0  0  0  0  0  0  0  0  0  0
   -4.8868   -0.7820    1.1500 H   0  0  0  0  0  0  0  0  0  0  0  0
   -2.8497    0.4858   -2.0875 H   0  0  0  0  0  0  0  0  0  0  0  0
   -4.5335    2.3514   -2.0590 H   0  0  0  0  0  0  0  0  0  0  0  0
   -4.9729    1.9340   -0.3693 H   0  0  0  0  0  0  0  0  0  0  0  0
   -3.3295    2.5447   -0.7454 H   0  0  0  0  0  0  0  0  0  0  0  0
   -5.1663    0.0072   -2.8915 H   0  0  0  0  0  0  0  0  0  0  0  0
   -4.4543   -1.4487   -2.1185 H   0  0  0  0  0  0  0  0  0  0  0  0
   -5.6694   -0.4652   -1.2422 H   0  0  0  0  0  0  0  0  0  0  0  0
    1.6956    1.3125    5.0100 H   0  0  0  0  0  0  0  0  0  0  0  0
    0.1079    0.5269    4.7287 H   0  0  0  0  0  0  0  0  0  0  0  0
    1.6132   -0.3921    4.4631 H   0  0  0  0  0  0  0  0  0  0  0  0
    2.5194    2.8898    2.9281 H   0  0  0  0  0  0  0  0  0  0  0  0
    1.8093    2.6152   -1.0374 H   0  0  0  0  0  0  0  0  0  0  0  0
    4.1037    3.6071   -0.9111 H   0  0  0  0  0  0  0  0  0  0  0  0
    4.1126    3.4051    0.8684 H   0  0  0  0  0  0  0  0  0  0  0  0
    4.0632    1.9612   -0.1923 H   0  0  0  0  0  0  0  0  0  0  0  0
    2.0360    5.1180   -0.7843 H   0  0  0  0  0  0  0  0  0  0  0  0
    0.5292    4.5229   -0.0177 H   0  0  0  0  0  0  0  0  0  0  0  0
    1.9446    4.9497    0.9985 H   0  0  0  0  0  0  0  0  0  0  0  0
  1  7  1  0  0  0  0
  1 29  1  1  0  0  0
  2  3  1  0  0  0  0
  3  9  1  0  0  0  0
  3  1  1  0  0  0  0
  4  5  1  0  0  0  0
  5  1  1  0  0  0  0
  5 16  1  0  0  0  0
  6 25  1  0  0  0  0
  6  7  1  0  0  0  0
  7 23  1  0  0  0  0
  8 32  1  0  0  0  0
  8 31  1  0  0  0  0
  9  8  1  1  0  0  0
 10  9  1  0  0  0  0
 11  2  1  0  0  0  0
 11 10  2  0  0  0  0
 12 13  1  0  0  0  0
 12 11  1  0  0  0  0
 13 36  1  0  0  0  0
 13 35  1  0  0  0  0
 14 40  1  0  0  0  0
 14 12  1  0  0  0  0
 15 43  1  0  0  0  0
 15 42  1  0  0  0  0
 15 41  1  0  0  0  0
 16 15  1  6  0  0  0
 17 44  1  0  0  0  0
 17 16  1  0  0  0  0
 18  4  1  0  0  0  0
 18 17  2  0  0  0  0
 19 20  1  0  0  0  0
 19 18  1  0  0  0  0
 20 48  1  0  0  0  0
 20 47  1  0  0  0  0
 21 19  1  0  0  0  0
 21 51  1  0  0  0  0
 22 54  1  0  0  0  0
 22 53  1  0  0  0  0
 22 52  1  0  0  0  0
 23 22  1  6  0  0  0
 24 55  1  0  0  0  0
 24 23  1  0  0  0  0
 25 24  2  0  0  0  0
 26 28  1  0  0  0  0
 26 25  1  0  0  0  0
 27 26  1  0  0  0  0
 27 58  1  0  0  0  0
 28 62  1  0  0  0  0
 30  8  1  0  0  0  0
 33 10  1  0  0  0  0
 34 12  1  0  0  0  0
 37 13  1  0  0  0  0
 38 14  1  0  0  0  0
 39 14  1  0  0  0  0
 45 19  1  0  0  0  0
 46 20  1  0  0  0  0
 49 21  1  0  0  0  0
 50 21  1  0  0  0  0
 56 26  1  0  0  0  0
 57 27  1  0  0  0  0
 59 27  1  0  0  0  0
 60 28  1  0  0  0  0
 61 28  1  0  0  0  0
M  END
