1,2,3
q = 0.0, confidence = 0.998

 47 50  0  0  0  0  0  0  0  0999 V2000
   -2.2649   -2.0075    0.0494 N   0  0  0  0  0  2  0  0  0  0  0  0
   -0.6375   -0.0000   -0.0000 N   0  0  0  0  0  2  0  0  0  0  0  0
   -2.2649    2.0075   -0.0494 N   0  0  0  0  0  2  0  0  0  0  0  0
    7.8637    0.0000   -0.0000 N   0  0  0  0  0  0  0  0  0  0  0  0
    0.0116   -1.1977    0.0243 C   0  0  0  0  0  0  0  0  0  0  0  0
    1.4063   -1.2165    0.0258 C   0  0  0  0  0  0  0  0  0  0  0  0
    1.9326   -2.1778    0.0776 H   0  0  0  0  0  0  0  0  0  0  0  0
    2.1505   -0.0000   -0.0000 C   0  0  0  0  0  0  0  0  0  0  0  0
    1.4063    1.2164   -0.0258 C   0  0  0  0  0  0  0  0  0  0  0  0
    1.9327    2.1777   -0.0776 H   0  0  0  0  0  0  0  0  0  0  0  0
    0.0116    1.1977   -0.0244 C   0  0  0  0  0  0  0  0  0  0  0  0
   -0.9228   -2.3430    0.0567 C   0  0  0  0  0  0  0  0  0  0  0  0
   -0.5381   -3.6900    0.0919 C   0  0  0  0  0  0  0  0  0  0  0  0
    0.5290   -3.9504    0.0981 H   0  0  0  0  0  0  0  0  0  0  0  0
   -1.5176   -4.6919    0.1194 C   0  0  0  0  0  0  0  0  0  0  0  0
   -1.2230   -5.7510    0.1475 H   0  0  0  0  0  0  0  0  0  0  0  0
   -2.8714   -4.3270    0.1106 C   0  0  0  0  0  0  0  0  0  0  0  0
   -3.6698   -5.0817    0.1310 H   0  0  0  0  0  0  0  0  0  0  0  0
   -3.2107   -2.9703    0.0752 C   0  0  0  0  0  3  0  0  0  0  0  0
   -4.2497   -2.6038    0.0663 H   0  0  0  0  0  0  0  0  0  0  0  0
   -0.9227    2.3430   -0.0568 C   0  0  0  0  0  0  0  0  0  0  0  0
   -0.5380    3.6900   -0.0920 C   0  0  0  0  0  0  0  0  0  0  0  0
    0.5291    3.9504   -0.0983 H   0  0  0  0  0  0  0  0  0  0  0  0
   -1.5175    4.6919   -0.1195 C   0  0  0  0  0  0  0  0  0  0  0  0
   -1.2229    5.7510   -0.1477 H   0  0  0  0  0  0  0  0  0  0  0  0
   -2.8713    4.3270   -0.1106 C   0  0  0  0  0  0  0  0  0  0  0  0
   -3.6697    5.0818   -0.1310 H   0  0  0  0  0  0  0  0  0  0  0  0
   -3.2106    2.9703   -0.0751 C   0  0  0  0  0  0  0  0  0  0  0  0
   -4.2496    2.6039   -0.0662 H   0  0  0  0  0  0  0  0  0  0  0  0
    3.6126   -0.0001   -0.0000 C   0  0  0  0  0  0  0  0  0  0  0  0
    4.3604   -1.1369   -0.4077 C   0  0  0  0  0  0  0  0  0  0  0  0
    3.8407   -2.0359   -0.7707 H   0  0  0  0  0  0  0  0  0  0  0  0
    5.7486   -1.1454   -0.4179 C   0  0  0  0  0  0  0  0  0  0  0  0
    6.2665   -2.0465   -0.7680 H   0  0  0  0  0  0  0  0  0  0  0  0
    6.4960   -0.0000   -0.0000 C   0  0  0  0  0  0  0  0  0  0  0  0
    5.7486    1.1453    0.4179 C   0  0  0  0  0  0  0  0  0  0  0  0
    6.2665    2.0464    0.7680 H   0  0  0  0  0  0  0  0  0  0  0  0
    4.3604    1.1368    0.4077 C   0  0  0  0  0  0  0  0  0  0  0  0
    3.8407    2.0358    0.7707 H   0  0  0  0  0  0  0  0  0  0  0  0
    8.5973   -1.1883   -0.4099 C   0  0  0  0  0  0  0  0  0  0  0  0
    8.3508   -2.0636    0.2288 H   0  0  0  0  0  0  0  0  0  0  0  0
    9.6806   -0.9970   -0.3206 H   0  0  0  0  0  0  0  0  0  0  0  0
    8.3841   -1.4610   -1.4664 H   0  0  0  0  0  0  0  0  0  0  0  0
    8.5971    1.1884    0.4101 C   0  0  0  0  0  0  0  0  0  0  0  0
    8.3504    2.0638   -0.2284 H   0  0  0  0  0  0  0  0  0  0  0  0
    9.6804    0.9973    0.3205 H   0  0  0  0  0  0  0  0  0  0  0  0
    8.3840    1.4609    1.4666 H   0  0  0  0  0  0  0  0  0  0  0  0
  1 12  1  0  0  0  0
  1 19  1  0  0  0  0
  2  5  1  0  0  0  0
  4 44  1  0  0  0  0
  5  6  2  0  0  0  0
  5 12  1  0  0  0  0
  6  7  1  0  0  0  0
  8 30  1  0  0  0  0
  8  6  1  0  0  0  0
  9 11  1  0  0  0  0
  9  8  2  0  0  0  0
 10  9  1  0  0  0  0
 11  2  1  0  0  0  0
 12 13  2  0  0  0  0
 13 14  1  0  0  0  0
 13 15  1  0  0  0  0
 15 16  1  0  0  0  0
 17 15  2  0  0  0  0
 17 18  1  0  0  0  0
 19 17  1  0  0  0  0
 20 19  1  0  0  0  0
 21  3  1  0  0  0  0
 21 11  2  0  0  0  0
 22 21  1  0  0  0  0
 23 22  1  0  0  0  0
 24 26  1  0  0  0  0
 24 22  2  0  0  0  0
 25 24  1  0  0  0  0
 26 28  2  0  0  0  0
 27 26  1  0  0  0  0
 28 29  1  0  0  0  0
 28  3  1  0  0  0  0
 30 38  1  0  0  0  0
 31 30  2  0  0  0  0
 32 31  1  0  0  0  0
 33 31  1  0  0  0  0
 33 35  2  0  0  0  0
 34 33  1  0  0  0  0
 35  4  1  0  0  0  0
 35 36  1  0  0  0  0
 36 37  1  0  0  0  0
 38 36  2  0  0  0  0
 38 39  1  0  0  0  0
 40 42  1  0  0  0  0
 40  4  1  0  0  0  0
 40 41  1  0  0  0  0
 43 40  1  0  0  0  0
 44 47  1  0  0  0  0
 45 44  1  0  0  0  0
 46 44  1  0  0  0  0
M  END
