1,3,5
q = -1.0, confidence = 0.01

 41 44  0  0  1  0  0  0  0  0999 V2000
   -0.0420    2.0482    0.6709 N   0  0  0  0  0  2  0  0  0  0  0  0
   -3.6728    1.8185    0.2153 N   0  0  0  0  0  0  0  0  0  0  0  0
   -1.9385    0.4939   -0.2655 N   0  0  0  0  0  2  0  0  0  0  0  0
    3.5781    1.8838    0.2212 N   0  0  0  0  0  0  0  0  0  0  0  0
    1.8656    0.6231   -0.4670 N   0  0  0  0  0  2  0  0  0  0  0  0
   -1.2645    2.7530    0.3419 C   0  0  0  0  0  0  0  0  0  0  0  0
   -2.3181    1.7185    0.1279 C   0  0  1  0  0  3  0  0  0  0  0  0
   -4.4582    2.9869    0.5770 C   0  0  0  0  0  0  0  0  0  0  0  0
   -4.2024    0.5757   -0.1445 C   0  0  0  0  0  0  0  0  0  0  0  0
   -3.0918   -0.2632   -0.4467 C   0  0  0  0  0  0  0  0  0  0  0  0
   -3.3003   -1.5917   -0.8600 C   0  0  0  0  0  0  0  0  0  0  0  0
   -4.6232   -2.0391   -0.9512 C   0  0  0  0  0  0  0  0  0  0  0  0
   -5.7184   -1.1968   -0.6450 C   0  0  0  0  0  0  0  0  0  0  0  0
   -5.5287    0.1298   -0.2390 C   0  0  0  0  0  0  0  0  0  0  0  0
    1.1621    2.7977    0.3663 C   0  0  0  0  0  0  0  0  0  0  0  0
    2.2291    1.8027    0.0580 C   0  0  2  0  0  3  0  0  0  0  0  0
    4.3496    3.0112    0.7159 C   0  0  0  0  0  0  0  0  0  0  0  0
    4.1192    0.6713   -0.2177 C   0  0  0  0  0  0  0  0  0  0  0  0
    3.0201   -0.1304   -0.6383 C   0  0  0  0  0  0  0  0  0  0  0  0
    3.2389   -1.4248   -1.1426 C   0  0  0  0  0  0  0  0  0  0  0  0
    4.5621   -1.8765   -1.2074 C   0  0  0  0  0  0  0  0  0  0  0  0
    5.6470   -1.0684   -0.7910 C   0  0  0  0  0  0  0  0  0  0  0  0
    5.4463    0.2252   -0.2931 C   0  0  0  0  0  0  0  0  0  0  0  0
   -1.1987    3.3837   -0.5867 H   0  0  0  0  0  0  0  0  0  0  0  0
   -1.5379    3.4600    1.1641 H   0  0  0  0  0  0  0  0  0  0  0  0
   -3.7904    3.7945    0.9244 H   0  0  0  0  0  0  0  0  0  0  0  0
   -5.0385    3.3506   -0.2946 H   0  0  0  0  0  0  0  0  0  0  0  0
   -5.1603    2.7315    1.3946 H   0  0  0  0  0  0  0  0  0  0  0  0
   -2.4565   -2.2454   -1.1138 H   0  0  0  0  0  0  0  0  0  0  0  0
   -4.8179   -3.0713   -1.2768 H   0  0  0  0  0  0  0  0  0  0  0  0
   -6.7415   -1.5899   -0.7345 H   0  0  0  0  0  0  0  0  0  0  0  0
   -6.3803    0.7867   -0.0125 H   0  0  0  0  0  0  0  0  0  0  0  0
    1.0616    3.4912   -0.5116 H   0  0  0  0  0  0  0  0  0  0  0  0
    1.4425    3.4457    1.2325 H   0  0  0  0  0  0  0  0  0  0  0  0
    4.9308    3.4799   -0.1036 H   0  0  0  0  0  0  0  0  0  0  0  0
    3.6720    3.7663    1.1519 H   0  0  0  0  0  0  0  0  0  0  0  0
    5.0495    2.6689    1.5028 H   0  0  0  0  0  0  0  0  0  0  0  0
    2.4006   -2.0504   -1.4721 H   0  0  0  0  0  0  0  0  0  0  0  0
    4.7662   -2.8834   -1.6000 H   0  0  0  0  0  0  0  0  0  0  0  0
    6.6711   -1.4618   -0.8658 H   0  0  0  0  0  0  0  0  0  0  0  0
    6.2909    0.8562    0.0175 H   0  0  0  0  0  0  0  0  0  0  0  0
  2  8  1  0  0  0  0
  3  7  1  0  0  0  0
  4 17  1  0  0  0  0
  5 16  1  0  0  0  0
  6  1  1  0  0  0  0
  6 25  1  0  0  0  0
  7  2  1  0  0  0  0
  7  6  1  6  0  0  0
  8 26  1  0  0  0  0
  8 28  1  0  0  0  0
  9  2  1  0  0  0  0
 10  3  1  0  0  0  0
 10  9  2  0  0  0  0
 11 10  1  0  0  0  0
 12 11  2  0  0  0  0
 12 13  1  0  0  0  0
 13 14  2  0  0  0  0
 14  9  1  0  0  0  0
 14 32  1  0  0  0  0
 15  1  1  0  0  0  0
 15 34  1  0  0  0  0
 16  4  1  0  0  0  0
 16 15  1  6  0  0  0
 17 36  1  0  0  0  0
 17 37  1  0  0  0  0
 18  4  1  0  0  0  0
 19  5  1  0  0  0  0
 19 18  2  0  0  0  0
 20 19  1  0  0  0  0
 21 20  2  0  0  0  0
 21 22  1  0  0  0  0
 22 23  2  0  0  0  0
 23 18  1  0  0  0  0
 23 41  1  0  0  0  0
 24  6  1  0  0  0  0
 27  8  1  0  0  0  0
 29 11  1  0  0  0  0
 30 12  1  0  0  0  0
 31 13  1  0  0  0  0
 33 15  1  0  0  0  0
 35 17  1  0  0  0  0
 38 20  1  0  0  0  0
 39 21  1  0  0  0  0
 40 22  1  0  0  0  0
M  END
