1,2
q = -2.0, confidence = 0.706

 40 43  0  0  0  0  0  0  0  0999 V2000
    0.0576    0.1546   -1.5626 O   0  5  0  0  0  0  0  0  0  0  0  0
    0.0575   -0.1549    1.5622 O   0  5  0  0  0  0  0  0  0  0  0  0
    1.0820   -0.9758    1.3119 C   0  0  0  0  0  0  0  0  0  0  0  0
    2.0482   -0.6673    0.3294 C   0  0  0  0  0  0  0  0  0  0  0  0
    3.0570   -1.6211   -0.0233 C   0  0  0  0  0  0  0  0  0  0  0  0
    3.9959   -1.3895   -1.0762 C   0  0  0  0  0  0  0  0  0  0  0  0
    4.9670   -2.3295   -1.3896 C   0  0  0  0  0  0  0  0  0  0  0  0
    5.0597   -3.5451   -0.6598 C   0  0  0  0  0  0  0  0  0  0  0  0
    4.1690   -3.7973    0.3742 C   0  0  0  0  0  0  0  0  0  0  0  0
    3.1547   -2.8573    0.7153 C   0  0  0  0  0  0  0  0  0  0  0  0
    2.2367   -3.0855    1.7783 C   0  0  0  0  0  0  0  0  0  0  0  0
    1.2161   -2.1959    2.0812 C   0  0  0  0  0  0  0  0  0  0  0  0
    0.2413   -2.4961    3.1861 C   0  0  0  0  0  0  0  0  0  0  0  0
    1.0819    0.9757   -1.3122 C   0  0  0  0  0  0  0  0  0  0  0  0
    2.0481    0.6674   -0.3296 C   0  0  0  0  0  0  0  0  0  0  0  0
    3.0567    1.6213    0.0232 C   0  0  0  0  0  0  0  0  0  0  0  0
    3.9956    1.3899    1.0762 C   0  0  0  0  0  0  0  0  0  0  0  0
    4.9663    2.3300    1.3898 C   0  0  0  0  0  0  0  0  0  0  0  0
    5.0588    3.5457    0.6600 C   0  0  0  0  0  0  0  0  0  0  0  0
    4.1682    3.7978   -0.3740 C   0  0  0  0  0  0  0  0  0  0  0  0
    3.1542    2.8576   -0.7153 C   0  0  0  0  0  0  0  0  0  0  0  0
    2.2361    3.0857   -1.7784 C   0  0  0  0  0  0  0  0  0  0  0  0
    1.2158    2.1959   -2.0814 C   0  0  0  0  0  0  0  0  0  0  0  0
    0.2410    2.4960   -3.1863 C   0  0  0  0  0  0  0  0  0  0  0  0
    3.9299   -0.4489   -1.6417 H   0  0  0  0  0  0  0  0  0  0  0  0
    5.6736   -2.1310   -2.2102 H   0  0  0  0  0  0  0  0  0  0  0  0
    5.8373   -4.2813   -0.9142 H   0  0  0  0  0  0  0  0  0  0  0  0
    4.2320   -4.7345    0.9504 H   0  0  0  0  0  0  0  0  0  0  0  0
    2.3385   -4.0110    2.3699 H   0  0  0  0  0  0  0  0  0  0  0  0
    0.0048   -1.5890    3.7770 H   0  0  0  0  0  0  0  0  0  0  0  0
   -0.7169   -2.8803    2.7749 H   0  0  0  0  0  0  0  0  0  0  0  0
    0.6394   -3.2711    3.8694 H   0  0  0  0  0  0  0  0  0  0  0  0
    3.9297    0.4492    1.6416 H   0  0  0  0  0  0  0  0  0  0  0  0
    5.6729    2.1317    2.2104 H   0  0  0  0  0  0  0  0  0  0  0  0
    5.8363    4.2821    0.9145 H   0  0  0  0  0  0  0  0  0  0  0  0
    4.2310    4.7351   -0.9502 H   0  0  0  0  0  0  0  0  0  0  0  0
    2.3378    4.0112   -2.3699 H   0  0  0  0  0  0  0  0  0  0  0  0
    0.0045    1.5888   -3.7771 H   0  0  0  0  0  0  0  0  0  0  0  0
   -0.7172    2.8802   -2.7752 H   0  0  0  0  0  0  0  0  0  0  0  0
    0.6391    3.2709   -3.8697 H   0  0  0  0  0  0  0  0  0  0  0  0
  1 14  1  0  0  0  0
  3  2  1  0  0  0  0
  3 12  1  0  0  0  0
  4  3  2  0  0  0  0
  5  4  1  0  0  0  0
  5 10  1  0  0  0  0
  6  5  2  0  0  0  0
  7  6  1  0  0  0  0
  7  8  2  0  0  0  0
  8  9  1  0  0  0  0
  9 10  2  0  0  0  0
  9 28  1  0  0  0  0
 10 11  1  0  0  0  0
 11 12  2  0  0  0  0
 11 29  1  0  0  0  0
 12 13  1  0  0  0  0
 13 30  1  0  0  0  0
 13 32  1  0  0  0  0
 14 15  1  0  0  0  0
 15 16  2  0  0  0  0
 15  4  1  0  0  0  0
 16 17  1  0  0  0  0
 17 18  2  0  0  0  0
 17 33  1  0  0  0  0
 18 34  1  0  0  0  0
 19 35  1  0  0  0  0
 19 18  1  0  0  0  0
 20 19  2  0  0  0  0
 21 20  1  0  0  0  0
 21 16  1  0  0  0  0
 22 21  2  0  0  0  0
 23 22  1  0  0  0  0
 23 14  2  0  0  0  0
 24 39  1  0  0  0  0
 24 23  1  0  0  0  0
 25  6  1  0  0  0  0
 26  7  1  0  0  0  0
 27  8  1  0  0  0  0
 31 13  1  0  0  0  0
 36 20  1  0  0  0  0
 37 22  1  0  0  0  0
 38 24  1  0  0  0  0
 40 24  1  0  0  0  0
M  CHG  2   1  -1   2  -1
M  END
