1,2
q = -1.0, confidence = 0.014

 27 29  0  0  1  0  0  0  0  0999 V2000
    1.5118    0.6322    0.0004 O   0  5  0  0  0  0  0  0  0  0  0  0
    1.6759   -2.0320    0.0001 O   0  5  0  0  0  0  0  0  0  0  0  0
    5.1115    0.1637    0.0000 O   0  0  0  0  0  0  0  0  0  0  0  0
    2.7203    0.0738    0.0003 C   0  0  0  0  0  0  0  0  0  0  0  0
    2.7740   -1.3695    0.0002 C   0  0  0  0  0  0  0  0  0  0  0  0
    4.0648   -2.0144    0.0001 C   0  0  0  0  0  0  0  0  0  0  0  0
    4.2294   -3.4226    0.0001 C   0  0  0  0  0  0  0  0  0  0  0  0
    3.3238   -4.0457    0.0002 H   0  0  0  0  0  0  0  0  0  0  0  0
    5.5068   -3.9725    0.0001 C   0  0  0  0  0  0  0  0  0  0  0  0
    5.6371   -5.0645    0.0001 H   0  0  0  0  0  0  0  0  0  0  0  0
    6.6453   -3.1294    0.0001 C   0  0  0  0  0  0  0  0  0  0  0  0
    7.6526   -3.5720    0.0001 H   0  0  0  0  0  0  0  0  0  0  0  0
    6.5094   -1.7418    0.0000 C   0  0  0  0  0  0  0  0  0  0  0  0
    7.3790   -1.0700    0.0000 H   0  0  0  0  0  0  0  0  0  0  0  0
    5.2147   -1.1872    0.0001 C   0  0  1  0  0  3  0  0  0  0  0  0
    3.9117    0.8186    0.0000 C   0  0  0  0  0  0  0  0  0  0  0  0
    4.0532    2.2740   -0.0003 C   0  0  0  0  0  0  0  0  0  0  0  0
    2.9219    3.1315   -0.0002 C   0  0  0  0  0  0  0  0  0  0  0  0
    1.9190    2.6882    0.0002 H   0  0  0  0  0  0  0  0  0  0  0  0
    3.0926    4.5206   -0.0005 C   0  0  0  0  0  0  0  0  0  0  0  0
    2.2048    5.1708   -0.0005 H   0  0  0  0  0  0  0  0  0  0  0  0
    4.3777    5.0856   -0.0010 C   0  0  0  0  0  0  0  0  0  0  0  0
    4.5033    6.1790   -0.0012 H   0  0  0  0  0  0  0  0  0  0  0  0
    5.5039    4.2450   -0.0010 C   0  0  0  0  0  0  0  0  0  0  0  0
    6.5158    4.6778   -0.0014 H   0  0  0  0  0  0  0  0  0  0  0  0
    5.3479    2.8562   -0.0007 C   0  0  0  0  0  0  0  0  0  0  0  0
    6.2316    2.2046   -0.0008 H   0  0  0  0  0  0  0  0  0  0  0  0
  2  5  1  0  0  0  0
  3 16  1  0  0  0  0
  4  1  1  0  0  0  0
  5  4  1  0  0  0  0
  6  7  1  0  0  0  0
  6  5  2  0  0  0  0
  7  8  1  0  0  0  0
  9  7  2  0  0  0  0
  9 10  1  0  0  0  0
 11  9  1  0  0  0  0
 12 11  1  0  0  0  0
 13 15  1  0  0  0  0
 13 11  2  0  0  0  0
 14 13  1  0  0  0  0
 15  3  1  6  0  0  0
 15  6  1  0  0  0  0
 16  4  2  0  0  0  0
 17 18  1  0  0  0  0
 17 16  1  0  0  0  0
 18 19  1  0  0  0  0
 20 21  1  0  0  0  0
 20 18  2  0  0  0  0
 22 20  1  0  0  0  0
 23 22  1  0  0  0  0
 24 22  2  0  0  0  0
 24 26  1  0  0  0  0
 25 24  1  0  0  0  0
 26 17  2  0  0  0  0
 27 26  1  0  0  0  0
M  CHG  2   1  -1   2  -1
M  END
