2,3
q = -1.0, confidence = 0.022

 33 32  0  0  1  0  0  0  0  0999 V2000
   -4.0703   -1.8517   -0.1414 O   0  0  0  0  0  0  0  0  0  0  0  0
   -0.2808    1.5710   -0.0397 O   0  5  0  0  0  0  0  0  0  0  0  0
   -0.5390   -1.3702    0.1614 O   0  0  0  0  0  1  0  0  0  0  0  0
   -2.3243    2.8278    0.0092 C   0  0  0  0  0  0  0  0  0  0  0  0
   -3.1581    2.9717    1.3014 C   0  0  0  0  0  0  0  0  0  0  0  0
   -3.9135    2.1678    1.4008 H   0  0  0  0  0  0  0  0  0  0  0  0
   -3.6945    3.9431    1.2974 H   0  0  0  0  0  0  0  0  0  0  0  0
   -2.5089    2.9434    2.1997 H   0  0  0  0  0  0  0  0  0  0  0  0
   -2.9840   -2.4148    1.8662 C   0  0  0  0  0  0  0  0  0  0  0  0
   -3.4366   -1.5109    2.3173 H   0  0  0  0  0  0  0  0  0  0  0  0
   -2.0183   -2.6197    2.3663 H   0  0  0  0  0  0  0  0  0  0  0  0
   -3.6689   -3.2708    2.0276 H   0  0  0  0  0  0  0  0  0  0  0  0
   -2.2940    0.2829    0.1522 C   0  0  0  0  0  0  0  0  0  0  0  0
   -3.3877    0.3505    0.2122 H   0  0  0  0  0  0  0  0  0  0  0  0
   -2.7746   -2.2025    0.3589 C   0  0  0  0  0  0  0  0  0  0  0  0
   -1.7786   -1.0246    0.1929 C   0  0  2  0  0  3  0  0  0  0  0  0
   -2.2218   -3.4780   -0.2923 C   0  0  0  0  0  0  0  0  0  0  0  0
   -2.9704   -4.2897   -0.2009 H   0  0  0  0  0  0  0  0  0  0  0  0
   -1.2887   -3.7866    0.2120 H   0  0  0  0  0  0  0  0  0  0  0  0
   -1.9801   -3.3290   -1.3623 H   0  0  0  0  0  0  0  0  0  0  0  0
   -1.5603    1.4859    0.0441 C   0  0  0  0  0  0  0  0  0  0  0  0
   -1.3347    3.9992   -0.0922 C   0  0  0  0  0  0  0  0  0  0  0  0
   -0.6452    4.0205    0.7736 H   0  0  0  0  0  0  0  0  0  0  0  0
   -1.8919    4.9573   -0.1207 H   0  0  0  0  0  0  0  0  0  0  0  0
   -0.7145    3.9258   -1.0060 H   0  0  0  0  0  0  0  0  0  0  0  0
   -3.2585    2.8374   -1.2216 C   0  0  0  0  0  0  0  0  0  0  0  0
   -2.6810    2.7173   -2.1604 H   0  0  0  0  0  0  0  0  0  0  0  0
   -3.8022    3.8032   -1.2753 H   0  0  0  0  0  0  0  0  0  0  0  0
   -4.0110    2.0256   -1.1772 H   0  0  0  0  0  0  0  0  0  0  0  0
   -4.1923   -1.7419   -1.5458 C   0  0  0  0  0  0  0  0  0  0  0  0
   -3.4294   -1.0600   -1.9901 H   0  0  0  0  0  0  0  0  0  0  0  0
   -5.1957   -1.3170   -1.7455 H   0  0  0  0  0  0  0  0  0  0  0  0
   -4.1244   -2.7271   -2.0610 H   0  0  0  0  0  0  0  0  0  0  0  0
  1 15  1  0  0  0  0
  2 21  1  0  0  0  0
  4 21  1  0  0  0  0
  4  5  1  0  0  0  0
  5  6  1  0  0  0  0
  5  8  1  0  0  0  0
  7  5  1  0  0  0  0
  9 12  1  0  0  0  0
  9 10  1  0  0  0  0
  9 11  1  0  0  0  0
 13 16  1  0  0  0  0
 13 14  1  0  0  0  0
 15  9  1  0  0  0  0
 16  3  1  1  0  0  0
 16 15  1  0  0  0  0
 17 18  1  0  0  0  0
 17 19  1  0  0  0  0
 17 15  1  0  0  0  0
 20 17  1  0  0  0  0
 21 13  2  0  0  0  0
 22  4  1  0  0  0  0
 22 23  1  0  0  0  0
 24 22  1  0  0  0  0
 25 22  1  0  0  0  0
 26 29  1  0  0  0  0
 26  4  1  0  0  0  0
 27 26  1  0  0  0  0
 28 26  1  0  0  0  0
 30  1  1  0  0  0  0
 31 30  1  0  0  0  0
 32 30  1  0  0  0  0
 33 30  1  0  0  0  0
M  CHG  1   2  -1
M  END
