7,8
q = -1.0, confidence = 0.016

 14 13  0  0  1  0  0  0  0  0999 V2000
    3.2947   -2.8481   -1.5811 F   0  0  0  0  0  0  0  0  0  0  0  0
    3.2558   -3.0812    0.5894 F   0  0  0  0  0  0  0  0  0  0  0  0
    2.3136   -4.5825   -0.6873 F   0  0  0  0  0  0  0  0  0  0  0  0
   -3.2953   -2.8470   -1.5812 F   0  0  0  0  0  0  0  0  0  0  0  0
   -3.2564   -3.0808    0.5892 F   0  0  0  0  0  0  0  0  0  0  0  0
   -2.3146   -4.5819   -0.6881 F   0  0  0  0  0  0  0  0  0  0  0  0
    1.4610   -1.1925   -0.3756 O   0  0  0  0  0  1  0  0  0  0  0  0
   -1.4613   -1.1922   -0.3756 O   0  5  0  0  0  0  0  0  0  0  0  0
    2.5426   -3.2595   -0.5440 C   0  0  0  0  0  0  0  0  0  0  0  0
    1.2362   -2.4376   -0.4707 C   0  0  1  0  0  3  0  0  0  0  0  0
   -0.0003   -3.1103   -0.5058 C   0  0  0  0  0  0  0  0  0  0  0  0
   -0.0004   -4.2022   -0.5913 H   0  0  0  0  0  0  0  0  0  0  0  0
   -1.2367   -2.4373   -0.4709 C   0  0  0  0  0  0  0  0  0  0  0  0
   -2.5432   -3.2589   -0.5444 C   0  0  0  0  0  0  0  0  0  0  0  0
  1  9  1  0  0  0  0
  3  9  1  0  0  0  0
  4 14  1  0  0  0  0
  6 14  1  0  0  0  0
  9 10  1  0  0  0  0
  9  2  1  0  0  0  0
 10  7  1  1  0  0  0
 11 13  2  0  0  0  0
 11 10  1  0  0  0  0
 12 11  1  0  0  0  0
 13  8  1  0  0  0  0
 14 13  1  0  0  0  0
 14  5  1  0  0  0  0
M  CHG  1   8  -1
M  END
