1,2
q = 0.0, confidence = 0.766

  6  5  0  0  0  0  0  0  0  0999 V2000
    1.2588   -1.1513    1.6180 O   0  5  0  0  0  0  0  0  0  0  0  0
    0.5738   -1.8679   -0.8221 O   0  5  0  0  0  0  0  0  0  0  0  0
   -0.4497   -2.2784    2.5448 O   0  0  0  0  0  0  0  0  0  0  0  0
   -1.2630   -2.9486   -0.1109 O   0  0  0  0  0  0  0  0  0  0  0  0
    0.1714   -1.9089    1.5627 C   0  0  0  0  0  0  0  0  0  0  0  0
   -0.2520   -2.3008    0.1195 C   0  0  0  0  0  0  0  0  0  0  0  0
  2  6  1  0  0  0  0
  4  6  2  0  0  0  0
  5  1  1  0  0  0  0
  5  3  2  0  0  0  0
  6  5  1  0  0  0  0
M  CHG  2   1  -1   2  -1
M  END
