1,2
q = -2.0, confidence = 0.558

 36 36  0  0  0  0  0  0  0  0999 V2000
   -1.2343    0.8589    0.1187 O   0  5  0  0  0  0  0  0  0  0  0  0
    1.3429    0.7033    0.0530 O   0  5  0  0  0  0  0  0  0  0  0  0
   -0.4446    4.3941   -0.2683 C   0  0  0  0  0  0  0  0  0  0  0  0
   -0.8976    5.3899   -0.3641 H   0  0  0  0  0  0  0  0  0  0  0  0
   -2.8056    3.3588   -0.0627 C   0  0  0  0  0  0  0  0  0  0  0  0
   -3.4279    2.4765   -1.1707 C   0  0  0  0  0  0  0  0  0  0  0  0
   -3.1384    1.4166   -1.0493 H   0  0  0  0  0  0  0  0  0  0  0  0
   -3.0972    2.8176   -2.1730 H   0  0  0  0  0  0  0  0  0  0  0  0
   -4.5356    2.5431   -1.1334 H   0  0  0  0  0  0  0  0  0  0  0  0
   -0.5914    2.0256   -0.0087 C   0  0  0  0  0  0  0  0  0  0  0  0
    3.1934    2.9971   -0.2076 C   0  0  0  0  0  0  0  0  0  0  0  0
    0.8396    1.9394   -0.0442 C   0  0  0  0  0  0  0  0  0  0  0  0
    1.6597    3.0961   -0.1919 C   0  0  0  0  0  0  0  0  0  0  0  0
    0.9666    4.3091   -0.3027 C   0  0  0  0  0  0  0  0  0  0  0  0
    1.5305    5.2437   -0.4231 H   0  0  0  0  0  0  0  0  0  0  0  0
   -1.2725    3.2731   -0.1202 C   0  0  0  0  0  0  0  0  0  0  0  0
   -3.3035    4.8007   -0.2628 C   0  0  0  0  0  0  0  0  0  0  0  0
   -2.9266    5.4842    0.5248 H   0  0  0  0  0  0  0  0  0  0  0  0
   -4.4114    4.8193   -0.2180 H   0  0  0  0  0  0  0  0  0  0  0  0
   -3.0006    5.2085   -1.2485 H   0  0  0  0  0  0  0  0  0  0  0  0
    3.6745    2.4564    1.1594 C   0  0  0  0  0  0  0  0  0  0  0  0
    3.2243    1.4697    1.3726 H   0  0  0  0  0  0  0  0  0  0  0  0
    3.3945    3.1510    1.9772 H   0  0  0  0  0  0  0  0  0  0  0  0
    4.7801    2.3466    1.1642 H   0  0  0  0  0  0  0  0  0  0  0  0
   -3.2840    2.8722    1.3254 C   0  0  0  0  0  0  0  0  0  0  0  0
   -2.9478    1.8370    1.5170 H   0  0  0  0  0  0  0  0  0  0  0  0
   -4.3928    2.8960    1.3823 H   0  0  0  0  0  0  0  0  0  0  0  0
   -2.8833    3.5231    2.1289 H   0  0  0  0  0  0  0  0  0  0  0  0
    3.6538    2.0471   -1.3384 C   0  0  0  0  0  0  0  0  0  0  0  0
    3.2458    1.0292   -1.1989 H   0  0  0  0  0  0  0  0  0  0  0  0
    4.7625    1.9814   -1.3535 H   0  0  0  0  0  0  0  0  0  0  0  0
    3.3209    2.4257   -2.3262 H   0  0  0  0  0  0  0  0  0  0  0  0
    3.8505    4.3690   -0.4379 C   0  0  0  0  0  0  0  0  0  0  0  0
    3.5523    4.8107   -1.4103 H   0  0  0  0  0  0  0  0  0  0  0  0
    4.9537    4.2549   -0.4457 H   0  0  0  0  0  0  0  0  0  0  0  0
    3.5960    5.0924    0.3630 H   0  0  0  0  0  0  0  0  0  0  0  0
  3 16  1  0  0  0  0
  4  3  1  0  0  0  0
  5 25  1  0  0  0  0
  6  9  1  0  0  0  0
  6  7  1  0  0  0  0
  6  5  1  0  0  0  0
  8  6  1  0  0  0  0
 10  1  1  0  0  0  0
 11 13  1  0  0  0  0
 11 21  1  0  0  0  0
 12 10  1  0  0  0  0
 12  2  1  0  0  0  0
 13 12  2  0  0  0  0
 14  3  2  0  0  0  0
 14 13  1  0  0  0  0
 15 14  1  0  0  0  0
 16  5  1  0  0  0  0
 16 10  2  0  0  0  0
 17 19  1  0  0  0  0
 17  5  1  0  0  0  0
 17 18  1  0  0  0  0
 20 17  1  0  0  0  0
 21 24  1  0  0  0  0
 21 22  1  0  0  0  0
 21 23  1  0  0  0  0
 25 27  1  0  0  0  0
 25 26  1  0  0  0  0
 25 28  1  0  0  0  0
 29 30  1  0  0  0  0
 29 11  1  0  0  0  0
 31 29  1  0  0  0  0
 32 29  1  0  0  0  0
 33 11  1  0  0  0  0
 33 36  1  0  0  0  0
 34 33  1  0  0  0  0
 35 33  1  0  0  0  0
M  CHG  2   1  -1   2  -1
M  END
