1,2
q = -2.0, confidence = 0.714

 22 23  0  0  0  0  0  0  0  0999 V2000
    0.3532    1.6751   -1.2699 O   0  5  0  0  0  0  0  0  0  0  0  0
   -0.3539    1.6749    1.2703 O   0  5  0  0  0  0  0  0  0  0  0  0
    1.0602    2.8177   -1.2046 C   0  0  0  0  0  0  0  0  0  0  0  0
    2.2388    2.9185   -1.9760 C   0  0  0  0  0  0  0  0  0  0  0  0
    2.5115    2.0570   -2.6024 H   0  0  0  0  0  0  0  0  0  0  0  0
    3.0246    4.0753   -1.9307 C   0  0  0  0  0  0  0  0  0  0  0  0
    3.9456    4.1354   -2.5309 H   0  0  0  0  0  0  0  0  0  0  0  0
    2.6327    5.1519   -1.1182 C   0  0  0  0  0  0  0  0  0  0  0  0
    3.2464    6.0634   -1.0655 H   0  0  0  0  0  0  0  0  0  0  0  0
    1.4533    5.0599   -0.3677 C   0  0  0  0  0  0  0  0  0  0  0  0
    1.1545    5.8989    0.2788 H   0  0  0  0  0  0  0  0  0  0  0  0
    0.6355    3.9069   -0.3847 C   0  0  0  0  0  0  0  0  0  0  0  0
   -0.6379    3.9064    0.3849 C   0  0  0  0  0  0  0  0  0  0  0  0
   -1.4566    5.0588    0.3679 C   0  0  0  0  0  0  0  0  0  0  0  0
   -1.1585    5.8980   -0.2787 H   0  0  0  0  0  0  0  0  0  0  0  0
   -2.6361    5.1499    1.1183 C   0  0  0  0  0  0  0  0  0  0  0  0
   -3.2505    6.0609    1.0656 H   0  0  0  0  0  0  0  0  0  0  0  0
   -3.0272    4.0730    1.9310 C   0  0  0  0  0  0  0  0  0  0  0  0
   -3.9482    4.1324    2.5311 H   0  0  0  0  0  0  0  0  0  0  0  0
   -2.2404    2.9168    1.9762 C   0  0  0  0  0  0  0  0  0  0  0  0
   -2.5124    2.0552    2.6028 H   0  0  0  0  0  0  0  0  0  0  0  0
   -1.0618    2.8169    1.2049 C   0  0  0  0  0  0  0  0  0  0  0  0
  1  3  1  0  0  0  0
  3 12  1  0  0  0  0
  4  6  1  0  0  0  0
  4  3  2  0  0  0  0
  5  4  1  0  0  0  0
  6  8  2  0  0  0  0
  7  6  1  0  0  0  0
  8  9  1  0  0  0  0
  8 10  1  0  0  0  0
 10 11  1  0  0  0  0
 12 10  2  0  0  0  0
 12 13  1  0  0  0  0
 13 22  1  0  0  0  0
 14 13  2  0  0  0  0
 14 16  1  0  0  0  0
 15 14  1  0  0  0  0
 16 18  2  0  0  0  0
 17 16  1  0  0  0  0
 18 20  1  0  0  0  0
 18 19  1  0  0  0  0
 20 21  1  0  0  0  0
 22  2  1  0  0  0  0
 22 20  2  0  0  0  0
M  CHG  2   1  -1   2  -1
M  END
