1,2
q = -1.0, confidence = 0.004

 21 21  0  0  1  0  0  0  0  0999 V2000
   -1.9576    0.1477   -0.2797 O   0  0  0  0  0  1  0  0  0  0  0  0
    0.0990   -1.1764   -1.3342 O   0  5  0  0  0  0  0  0  0  0  0  0
    0.3984   -3.0837   -3.3354 F   0  0  0  0  0  0  0  0  0  0  0  0
    0.7122   -3.9065   -1.3375 F   0  0  0  0  0  0  0  0  0  0  0  0
   -1.1591   -4.2942   -2.3976 F   0  0  0  0  0  0  0  0  0  0  0  0
   -2.6970   -0.8340   -0.6546 C   0  0  2  0  0  3  0  0  0  0  0  0
   -2.1387   -2.0138   -1.2140 C   0  0  0  0  0  0  0  0  0  0  0  0
   -2.7745   -2.8653   -1.4735 H   0  0  0  0  0  0  0  0  0  0  0  0
   -0.7779   -2.0815   -1.5295 C   0  0  0  0  0  0  0  0  0  0  0  0
   -4.1616   -0.6520   -0.4878 C   0  0  0  0  0  0  0  0  0  0  0  0
   -5.1007   -1.6443   -0.8509 C   0  0  0  0  0  0  0  0  0  0  0  0
   -4.7650   -2.5995   -1.2781 H   0  0  0  0  0  0  0  0  0  0  0  0
   -6.4705   -1.4224   -0.6689 C   0  0  0  0  0  0  0  0  0  0  0  0
   -7.1922   -2.2029   -0.9525 H   0  0  0  0  0  0  0  0  0  0  0  0
   -6.9228   -0.2068   -0.1282 C   0  0  0  0  0  0  0  0  0  0  0  0
   -8.0010   -0.0350    0.0118 H   0  0  0  0  0  0  0  0  0  0  0  0
   -5.9974    0.7873    0.2322 C   0  0  0  0  0  0  0  0  0  0  0  0
   -6.3466    1.7415    0.6547 H   0  0  0  0  0  0  0  0  0  0  0  0
   -4.6274    0.5680    0.0563 C   0  0  0  0  0  0  0  0  0  0  0  0
   -3.8907    1.3344    0.3370 H   0  0  0  0  0  0  0  0  0  0  0  0
   -0.2080   -3.3622   -2.1663 C   0  0  0  0  0  0  0  0  0  0  0  0
  3 21  1  0  0  0  0
  5 21  1  0  0  0  0
  6 10  1  0  0  0  0
  6  1  1  6  0  0  0
  7  6  1  0  0  0  0
  8  7  1  0  0  0  0
  9  2  1  0  0  0  0
  9  7  2  0  0  0  0
 10 19  1  0  0  0  0
 11 13  1  0  0  0  0
 11 10  2  0  0  0  0
 12 11  1  0  0  0  0
 13 15  2  0  0  0  0
 14 13  1  0  0  0  0
 15 16  1  0  0  0  0
 15 17  1  0  0  0  0
 17 18  1  0  0  0  0
 19 17  2  0  0  0  0
 19 20  1  0  0  0  0
 21  9  1  0  0  0  0
 21  4  1  0  0  0  0
M  CHG  1   2  -1
M  END
