1,2
q = -2.0, confidence = 0.624

 60 61  0  0  1  0  0  0  0  0999 V2000
    1.1631    1.4727    0.0679 O   0  5  0  0  0  0  0  0  0  0  0  0
    1.1632   -1.4730   -0.0680 O   0  5  0  0  0  0  0  0  0  0  0  0
    0.1936    2.2075    0.6325 C   0  0  0  0  0  0  0  0  0  0  0  0
    1.8488    3.9849    1.3188 C   0  0  0  0  0  0  0  0  0  0  0  0
    2.6488    3.4007    0.8247 H   0  0  0  0  0  0  0  0  0  0  0  0
    1.8327    3.7126    2.3938 H   0  0  0  0  0  0  0  0  0  0  0  0
    2.1106    5.0604    1.2482 H   0  0  0  0  0  0  0  0  0  0  0  0
    0.4845    3.7188    0.6508 C   0  0  0  0  0  0  0  0  0  0  0  0
   -0.6043    4.5030    1.3981 C   0  0  0  0  0  0  0  0  0  0  0  0
   -0.7060    4.1579    2.4466 H   0  0  0  0  0  0  0  0  0  0  0  0
   -1.5913    4.4039    0.9044 H   0  0  0  0  0  0  0  0  0  0  0  0
   -0.3463    5.5815    1.4167 H   0  0  0  0  0  0  0  0  0  0  0  0
    0.5411    4.2037   -0.8158 C   0  0  0  0  0  0  0  0  0  0  0  0
    1.2942    3.6326   -1.3929 H   0  0  0  0  0  0  0  0  0  0  0  0
    0.8094    5.2793   -0.8638 H   0  0  0  0  0  0  0  0  0  0  0  0
   -0.4422    4.0723   -1.3107 H   0  0  0  0  0  0  0  0  0  0  0  0
   -0.9916    1.6394    1.0003 C   0  0  0  0  0  0  0  0  0  0  0  0
   -1.7854    2.2853    1.3939 H   0  0  0  0  0  0  0  0  0  0  0  0
   -1.2722    0.1799    0.7870 C   0  0  2  0  0  0  0  0  0  0  0  0
   -0.4020   -0.3927    1.1624 H   0  0  0  0  0  0  0  0  0  0  0  0
   -1.2723   -0.1796   -0.7874 C   0  0  1  0  0  0  0  0  0  0  0  0
   -0.4023    0.3932   -1.1630 H   0  0  0  0  0  0  0  0  0  0  0  0
   -0.9915   -1.6389   -1.0008 C   0  0  0  0  0  0  0  0  0  0  0  0
   -1.7852   -2.2848   -1.3948 H   0  0  0  0  0  0  0  0  0  0  0  0
    0.1936   -2.2073   -0.6330 C   0  0  0  0  0  0  0  0  0  0  0  0
    0.4842   -3.7187   -0.6519 C   0  0  0  0  0  0  0  0  0  0  0  0
    1.8491   -3.9846   -1.3185 C   0  0  0  0  0  0  0  0  0  0  0  0
    1.8343   -3.7113   -2.3933 H   0  0  0  0  0  0  0  0  0  0  0  0
    2.1105   -5.0602   -1.2485 H   0  0  0  0  0  0  0  0  0  0  0  0
    2.6487   -3.4011   -0.8230 H   0  0  0  0  0  0  0  0  0  0  0  0
    0.5391   -4.2043    0.8146 C   0  0  0  0  0  0  0  0  0  0  0  0
   -0.4448   -4.0733    1.3083 H   0  0  0  0  0  0  0  0  0  0  0  0
    1.2914   -3.6334    1.3929 H   0  0  0  0  0  0  0  0  0  0  0  0
    0.8075   -5.2799    0.8624 H   0  0  0  0  0  0  0  0  0  0  0  0
   -0.6039   -4.5023   -1.4008 C   0  0  0  0  0  0  0  0  0  0  0  0
   -1.5914   -4.4035   -0.9080 H   0  0  0  0  0  0  0  0  0  0  0  0
   -0.3460   -5.5807   -1.4198 H   0  0  0  0  0  0  0  0  0  0  0  0
   -0.7045   -4.1565   -2.4491 H   0  0  0  0  0  0  0  0  0  0  0  0
   -2.5048   -0.3453    1.4833 C   0  0  0  0  0  0  0  0  0  0  0  0
   -2.4845   -1.6308    2.0635 C   0  0  0  0  0  0  0  0  0  0  0  0
   -1.5462   -2.2063    2.0433 H   0  0  0  0  0  0  0  0  0  0  0  0
   -3.6310   -2.1789    2.6584 C   0  0  0  0  0  0  0  0  0  0  0  0
   -3.5883   -3.1836    3.1069 H   0  0  0  0  0  0  0  0  0  0  0  0
   -4.8266   -1.4437    2.6884 C   0  0  0  0  0  0  0  0  0  0  0  0
   -5.7277   -1.8679    3.1574 H   0  0  0  0  0  0  0  0  0  0  0  0
   -4.8619   -0.1609    2.1193 C   0  0  0  0  0  0  0  0  0  0  0  0
   -5.7951    0.4232    2.1335 H   0  0  0  0  0  0  0  0  0  0  0  0
   -3.7144    0.3798    1.5203 C   0  0  0  0  0  0  0  0  0  0  0  0
   -3.7659    1.3761    1.0564 H   0  0  0  0  0  0  0  0  0  0  0  0
   -2.5053    0.3454   -1.4833 C   0  0  0  0  0  0  0  0  0  0  0  0
   -2.4857    1.6312   -2.0630 C   0  0  0  0  0  0  0  0  0  0  0  0
   -1.5476    2.2070   -2.0429 H   0  0  0  0  0  0  0  0  0  0  0  0
   -3.6326    2.1790   -2.6572 C   0  0  0  0  0  0  0  0  0  0  0  0
   -3.5904    3.1839   -3.1054 H   0  0  0  0  0  0  0  0  0  0  0  0
   -4.8280    1.4434   -2.6872 C   0  0  0  0  0  0  0  0  0  0  0  0
   -5.7293    1.8674   -3.1557 H   0  0  0  0  0  0  0  0  0  0  0  0
   -4.8626    0.1603   -2.1185 C   0  0  0  0  0  0  0  0  0  0  0  0
   -5.7955   -0.4241   -2.1326 H   0  0  0  0  0  0  0  0  0  0  0  0
   -3.7146   -0.3801   -1.5202 C   0  0  0  0  0  0  0  0  0  0  0  0
   -3.7655   -1.3766   -1.0566 H   0  0  0  0  0  0  0  0  0  0  0  0
  1  3  1  0  0  0  0
  3  8  1  0  0  0  0
  3 17  2  0  0  0  0
  4  6  1  0  0  0  0
  5  4  1  0  0  0  0
  7  4  1  0  0  0  0
  8  4  1  0  0  0  0
  8  9  1  0  0  0  0
  9 12  1  0  0  0  0
  9 10  1  0  0  0  0
 11  9  1  0  0  0  0
 13  8  1  0  0  0  0
 14 13  1  0  0  0  0
 15 13  1  0  0  0  0
 16 13  1  0  0  0  0
 17 18  1  0  0  0  0
 19 17  1  0  0  0  0
 19 20  1  1  0  0  0
 19 39  1  0  0  0  0
 21 22  1  6  0  0  0
 21 19  1  0  0  0  0
 23 21  1  0  0  0  0
 23 25  2  0  0  0  0
 24 23  1  0  0  0  0
 25  2  1  0  0  0  0
 26 25  1  0  0  0  0
 26 31  1  0  0  0  0
 27 29  1  0  0  0  0
 27 30  1  0  0  0  0
 27 26  1  0  0  0  0
 28 27  1  0  0  0  0
 31 34  1  0  0  0  0
 31 32  1  0  0  0  0
 31 33  1  0  0  0  0
 35 36  1  0  0  0  0
 35 26  1  0  0  0  0
 37 35  1  0  0  0  0
 38 35  1  0  0  0  0
 39 48  2  0  0  0  0
 39 40  1  0  0  0  0
 40 42  2  0  0  0  0
 41 40  1  0  0  0  0
 42 44  1  0  0  0  0
 42 43  1  0  0  0  0
 44 45  1  0  0  0  0
 46 47  1  0  0  0  0
 46 44  2  0  0  0  0
 48 46  1  0  0  0  0
 49 48  1  0  0  0  0
 50 21  1  0  0  0  0
 51 52  1  0  0  0  0
 51 50  2  0  0  0  0
 53 51  1  0  0  0  0
 54 53  1  0  0  0  0
 55 53  2  0  0  0  0
 55 57  1  0  0  0  0
 56 55  1  0  0  0  0
 57 59  2  0  0  0  0
 58 57  1  0  0  0  0
 59 50  1  0  0  0  0
 59 60  1  0  0  0  0
M  CHG  2   1  -1   2  -1
M  END
