1,4
q = 0.0, confidence = 0.562

 15 15  0  0  0  0  0  0  0  0999 V2000
    1.3981   -0.0554    0.3618 O   0  5  0  0  0  0  0  0  0  0  0  0
    2.5292   -0.0322   -1.6250 N   0  0  0  0  0  0  0  0  0  0  0  0
    2.4540   -0.3452   -0.3230 C   0  0  0  0  0  0  0  0  0  0  0  0
    1.3641    0.5334   -2.0111 O   0  5  0  0  0  0  0  0  0  0  0  0
    3.5606   -1.3290    1.6830 C   0  0  0  0  0  0  0  0  0  0  0  0
    2.6315   -1.1114    2.2296 H   0  0  0  0  0  0  0  0  0  0  0  0
    4.6554   -1.9371    2.3117 C   0  0  0  0  0  0  0  0  0  0  0  0
    4.5977   -2.2030    3.3785 H   0  0  0  0  0  0  0  0  0  0  0  0
    5.8237   -2.2114    1.5817 C   0  0  0  0  0  0  0  0  0  0  0  0
    6.6835   -2.6896    2.0755 H   0  0  0  0  0  0  0  0  0  0  0  0
    5.8920   -1.8761    0.2174 C   0  0  0  0  0  0  0  0  0  0  0  0
    6.8060   -2.0923   -0.3567 H   0  0  0  0  0  0  0  0  0  0  0  0
    4.8015   -1.2684   -0.4154 C   0  0  0  0  0  0  0  0  0  0  0  0
    4.8354   -0.9993   -1.4808 H   0  0  0  0  0  0  0  0  0  0  0  0
    3.6251   -0.9886    0.3156 C   0  0  0  0  0  0  0  0  0  0  0  0
  2  3  2  0  0  0  0
  3 15  1  0  0  0  0
  3  1  1  0  0  0  0
  4  2  1  0  0  0  0
  5  6  1  0  0  0  0
  5  7  1  0  0  0  0
  7  8  1  0  0  0  0
  9 10  1  0  0  0  0
  9  7  2  0  0  0  0
 11  9  1  0  0  0  0
 12 11  1  0  0  0  0
 13 11  2  0  0  0  0
 13 15  1  0  0  0  0
 14 13  1  0  0  0  0
 15  5  2  0  0  0  0
M  CHG  2   1  -1   4  -1
M  END
