2,6
q = -1.0, confidence = 0.046

  7  6  0  0  0  0  0  0  0  0999 V2000
   -3.9289   -2.1585   -0.7834 F   0  0  0  0  0  0  0  0  0  0  0  0
   -2.4617   -0.0529    0.8000 O   0  0  0  0  0  0  0  0  0  0  0  0
   -4.4857   -1.8084    1.3078 F   0  0  0  0  0  0  0  0  0  0  0  0
   -3.1921   -3.4900    0.7921 F   0  0  0  0  0  0  0  0  0  0  0  0
   -2.2540   -1.2938    0.6105 C   0  0  0  0  0  0  0  0  0  0  0  0
   -1.1111   -1.7745    0.3904 O   0  0  0  0  0  0  0  0  0  0  0  0
   -3.4921   -2.2201    0.5081 C   0  0  0  0  0  0  0  0  0  0  0  0
  1  7  1  0  0  0  0
  5  2  1  0  0  0  0
  6  5  1  0  0  0  0
  7  5  1  0  0  0  0
  7  4  1  0  0  0  0
  7  3  1  0  0  0  0
M  END
