2,3
q = -1.0, confidence = 0.064

  3  2  0  0  0  0  0  0  0  0999 V2000
   -0.0002    2.5724   -0.0004 N   0  0  0  0  0  0  0  0  0  0  0  0
    0.7250    1.8708   -0.7692 O   0  0  0  0  0  0  0  0  0  0  0  0
   -0.7254    1.8712    0.7687 O   0  0  0  0  0  0  0  0  0  0  0  0
  1  3  1  0  0  0  0
  2  1  1  0  0  0  0
M  END
