1,2
q = 0.0, confidence = 0.924

 23 23  0  0  1  0  0  0  0  0999 V2000
   -1.7941    2.0095   -0.0651 O   0  5  0  0  0  0  0  0  0  0  0  0
    0.4536    0.7883   -0.9528 O   0  0  0  0  0  1  0  0  0  0  0  0
    2.3987    1.9603   -0.8022 N   0  0  0  0  0  0  0  0  0  0  0  0
   -1.1296    3.0783   -0.2274 C   0  0  0  0  0  0  0  0  0  0  0  0
    0.2691    3.1191   -0.5285 C   0  0  0  0  0  0  0  0  0  0  0  0
    0.7969    4.0818   -0.4951 H   0  0  0  0  0  0  0  0  0  0  0  0
    3.2149    0.8626   -0.7144 C   0  0  2  0  0  3  0  0  0  0  0  0
    0.9757    1.9351   -0.7737 C   0  0  2  0  0  3  0  0  0  0  0  0
   -1.8744    4.3812   -0.0492 C   0  0  0  0  0  0  0  0  0  0  0  0
   -1.2445    5.2734   -0.2201 H   0  0  0  0  0  0  0  0  0  0  0  0
   -2.2978    4.4178    0.9753 H   0  0  0  0  0  0  0  0  0  0  0  0
   -2.7351    4.3990   -0.7483 H   0  0  0  0  0  0  0  0  0  0  0  0
    2.6864   -0.3873   -0.8404 N   0  0  0  0  0  0  0  0  0  0  0  0
    3.3954   -1.5296   -0.6970 C   0  0  0  0  0  0  0  0  0  0  0  0
    2.7988   -2.4517   -0.7850 H   0  0  0  0  0  0  0  0  0  0  0  0
    4.6085    0.9639   -0.4783 C   0  0  0  0  0  0  0  0  0  0  0  0
    5.0679    1.9568   -0.3757 H   0  0  0  0  0  0  0  0  0  0  0  0
    4.7586   -1.4725   -0.4535 C   0  0  0  0  0  0  0  0  0  0  0  0
    5.3393   -2.3964   -0.3380 H   0  0  0  0  0  0  0  0  0  0  0  0
    5.3629   -0.1980   -0.3523 C   0  0  0  0  0  0  0  0  0  0  0  0
    6.4427   -0.1176   -0.1574 H   0  0  0  0  0  0  0  0  0  0  0  0
    1.6412   -0.4253   -0.9875 H   0  0  0  0  0  0  0  0  0  0  0  0
    2.8475    2.8607   -0.6257 H   0  0  0  0  0  0  0  0  0  0  0  0
  3  8  1  0  0  0  0
  3 23  1  0  0  0  0
  4  1  1  0  0  0  0
  4  9  1  0  0  0  0
  5  6  1  0  0  0  0
  5  4  2  0  0  0  0
  7  3  1  1  0  0  0
  7 16  1  0  0  0  0
  8  2  1  1  0  0  0
  8  5  1  0  0  0  0
  9 11  1  0  0  0  0
 10  9  1  0  0  0  0
 12  9  1  0  0  0  0
 13  7  1  0  0  0  0
 13 14  1  0  0  0  0
 14 18  2  0  0  0  0
 15 14  1  0  0  0  0
 16 17  1  0  0  0  0
 16 20  2  0  0  0  0
 18 20  1  0  0  0  0
 18 19  1  0  0  0  0
 20 21  1  0  0  0  0
 22 13  1  0  0  0  0
M  CHG  1   1  -1
M  END
