1,14
q = -1.0, confidence = 0.25

 17 17  0  0  1  0  0  0  0  0999 V2000
    1.4548   -2.2591    1.5280 O   0  0  0  0  0  1  0  0  0  0  0  0
    2.8496   -2.2415    1.8183 O   0  0  0  0  0  0  0  0  0  0  0  0
    7.3062    0.7785   -1.3871 Cl  0  0  0  0  0  0  0  0  0  0  0  0
    3.7439    4.5809    0.3166 Cl  0  0  0  0  0  0  0  0  0  0  0  0
    5.3474    0.1996    0.4119 C   0  0  0  0  0  0  0  0  0  0  0  0
    5.9479    1.2218   -0.3931 C   0  0  0  0  0  0  0  0  0  0  0  0
    5.4721    2.5509   -0.4169 C   0  0  0  0  0  0  0  0  0  0  0  0
    4.3526    2.9624    0.3574 C   0  0  0  0  0  0  0  0  0  0  0  0
    3.8713    1.8960    1.0954 C   0  0  0  0  0  3  0  0  0  0  0  0
    4.2736    0.6961    1.1500 C   0  0  0  0  0  3  0  0  0  0  0  0
    5.8168   -1.0673    0.3694 O   0  0  0  0  0  0  0  0  0  0  0  0
    5.0991   -2.0023    1.1540 C   0  0  0  0  0  0  0  0  0  0  0  0
    3.6260   -2.0369    0.7637 C   0  0  2  0  0  3  0  0  0  0  0  0
    3.2204   -1.8691   -0.3933 O   0  0  0  0  0  1  0  0  0  0  0  0
    5.9776    3.2844   -1.0611 H   0  0  0  0  0  0  0  0  0  0  0  0
    5.1841   -1.7850    2.2410 H   0  0  0  0  0  0  0  0  0  0  0  0
    5.5581   -2.9898    0.9475 H   0  0  0  0  0  0  0  0  0  0  0  0
  1  2  1  0  0  0  0
  3  6  1  0  0  0  0
  4  8  1  0  0  0  0
  5 10  1  0  0  0  0
  6  5  2  0  0  0  0
  7  6  1  0  0  0  0
  7  8  2  0  0  0  0
  8  9  1  0  0  0  0
  9 10  2  0  0  0  0
 11  5  1  0  0  0  0
 11 12  1  0  0  0  0
 12 16  1  0  0  0  0
 13 14  1  1  0  0  0
 13 12  1  0  0  0  0
 13  2  1  0  0  0  0
 15  7  1  0  0  0  0
 17 12  1  0  0  0  0
M  END
