3,7
q = -2.0, confidence = 0.802

 13 12  0  0  0  0  0  0  0  0999 V2000
    1.1986    1.6075   -0.0103 P   0  0  2  0  0  0  0  0  0  0  0  0
    1.5012   -1.4701   -0.2196 P   0  0  2  0  0  0  0  0  0  0  0  0
   -0.1096    1.1672    0.8088 O   0  0  0  0  0  1  0  0  0  0  0  0
    1.9028    2.7601    0.8913 O   0  0  0  0  0  0  0  0  0  0  0  0
    0.9228    2.1337   -1.4039 O   0  0  0  0  0  0  0  0  0  0  0  0
    2.3246    0.1632   -0.0181 C   0  0  0  0  0  0  0  0  0  0  0  0
   -0.0017   -1.2287   -0.7000 O   0  0  0  0  0  1  0  0  0  0  0  0
    1.3097   -1.9472    1.3897 O   0  0  0  0  0  0  0  0  0  0  0  0
    2.2728   -2.4802   -1.0068 O   0  0  0  0  0  0  0  0  0  0  0  0
    2.1370    2.4702    1.7945 H   0  0  0  0  0  0  0  0  0  0  0  0
    2.9220    0.1099    0.9135 H   0  0  0  0  0  0  0  0  0  0  0  0
    3.0236    0.2880   -0.8697 H   0  0  0  0  0  0  0  0  0  0  0  0
    1.7909   -2.7929    1.5059 H   0  0  0  0  0  0  0  0  0  0  0  0
  1  5  2  6  0  0  0
  1  3  1  0  0  0  0
  1  4  1  0  0  0  0
  2  9  2  6  0  0  0
  2  6  1  0  0  0  0
  2  8  1  0  0  0  0
  4 10  1  0  0  0  0
  6  1  1  0  0  0  0
  6 11  1  0  0  0  0
  7  2  1  0  0  0  0
  8 13  1  0  0  0  0
 12  6  1  0  0  0  0
M  END
