11,22
q = 0.0, confidence = 1.0

 22 23  0  0  0  0  0  0  0  0999 V2000
   -2.5350   -2.3187   -1.2588 C   0  0  0  0  0  3  0  0  0  0  0  0
   -3.1900   -1.4435   -1.1561 H   0  0  0  0  0  0  0  0  0  0  0  0
   -2.7440   -3.3274   -2.1916 C   0  0  0  0  0  0  0  0  0  0  0  0
   -3.6123   -3.2378   -2.8594 H   0  0  0  0  0  0  0  0  0  0  0  0
   -1.8658   -4.4196   -2.2692 C   0  0  0  0  0  0  0  0  0  0  0  0
   -2.0214   -5.2228   -3.0024 H   0  0  0  0  0  0  0  0  0  0  0  0
   -0.7728   -4.4490   -1.3964 C   0  0  0  0  0  0  0  0  0  0  0  0
   -0.0377   -5.2656   -1.4271 H   0  0  0  0  0  0  0  0  0  0  0  0
   -0.5617   -3.4141   -0.4774 C   0  0  0  0  0  0  0  0  0  0  0  0
   -1.4686   -2.3651   -0.3920 N   0  0  0  0  0  0  0  0  0  0  0  0
   -1.3207   -1.4621    0.5145 O   0  0  0  0  0  1  0  0  0  0  0  0
    2.5344   -2.3193    1.2586 C   0  0  0  0  0  3  0  0  0  0  0  0
    3.1895   -1.4443    1.1559 H   0  0  0  0  0  0  0  0  0  0  0  0
    2.7432   -3.3281    2.1913 C   0  0  0  0  0  0  0  0  0  0  0  0
    3.6115   -3.2387    2.8591 H   0  0  0  0  0  0  0  0  0  0  0  0
    1.8648   -4.4201    2.2689 C   0  0  0  0  0  0  0  0  0  0  0  0
    2.0203   -5.2234    3.0021 H   0  0  0  0  0  0  0  0  0  0  0  0
    0.7717   -4.4492    1.3962 C   0  0  0  0  0  0  0  0  0  0  0  0
    0.0364   -5.2657    1.4269 H   0  0  0  0  0  0  0  0  0  0  0  0
    0.5608   -3.4142    0.4772 C   0  0  0  0  0  0  0  0  0  0  0  0
    1.4679   -2.3654    0.3919 N   0  0  0  0  0  0  0  0  0  0  0  0
    1.3202   -1.4623   -0.5146 O   0  0  0  0  0  1  0  0  0  0  0  0
  1  2  1  0  0  0  0
  1 10  1  0  0  0  0
  3  1  1  0  0  0  0
  4  3  1  0  0  0  0
  5  3  2  0  0  0  0
  5  7  1  0  0  0  0
  6  5  1  0  0  0  0
  7  9  2  0  0  0  0
  8  7  1  0  0  0  0
  9 10  1  0  0  0  0
  9 20  1  0  0  0  0
 10 11  1  0  0  0  0
 12 14  1  0  0  0  0
 13 12  1  0  0  0  0
 14 16  2  0  0  0  0
 14 15  1  0  0  0  0
 16 17  1  0  0  0  0
 18 19  1  0  0  0  0
 18 16  1  0  0  0  0
 20 18  2  0  0  0  0
 21 20  1  0  0  0  0
 21 12  1  0  0  0  0
 22 21  1  0  0  0  0
M  END
