3,5
q = -2.0, confidence = 0.828

 15 15  0  0  0  0  0  0  0  0999 V2000
    5.1464   -0.4498   -0.0702 Cl  0  0  0  0  0  0  0  0  0  0  0  0
    0.7114    0.0380   -0.0659 N   0  0  0  0  0  0  0  0  0  0  0  0
   -0.6509    2.1226    0.0679 O   0  5  0  0  0  0  0  0  0  0  0  0
    1.4738    1.1381   -0.0666 C   0  0  0  0  0  0  0  0  0  0  0  0
   -1.0720   -1.6859    0.0554 O   0  5  0  0  0  0  0  0  0  0  0  0
    2.8676    1.0350   -0.0665 C   0  0  0  0  0  0  0  0  0  0  0  0
    3.4818    1.9460   -0.0624 H   0  0  0  0  0  0  0  0  0  0  0  0
    1.1480    3.5142    0.0718 O   0  0  0  0  0  0  0  0  0  0  0  0
    3.4260   -0.2604   -0.0619 C   0  0  0  0  0  0  0  0  0  0  0  0
    0.3625   -3.4443    0.1262 O   0  0  0  0  0  0  0  0  0  0  0  0
    2.6001   -1.4041   -0.0340 C   0  0  0  0  0  0  0  0  0  0  0  0
    3.0031   -2.4258   -0.0044 H   0  0  0  0  0  0  0  0  0  0  0  0
    1.2179   -1.2006   -0.0364 C   0  0  0  0  0  0  0  0  0  0  0  0
    0.6347    2.4078    0.0138 C   0  0  0  0  0  0  0  0  0  0  0  0
    0.1206   -2.2513    0.0469 C   0  0  0  0  0  0  0  0  0  0  0  0
  1  9  1  0  0  0  0
  2 13  1  0  0  0  0
  4  6  1  0  0  0  0
  4  2  2  0  0  0  0
  4 14  1  0  0  0  0
  6  7  1  0  0  0  0
  6  9  2  0  0  0  0
  9 11  1  0  0  0  0
 11 12  1  0  0  0  0
 13 11  2  0  0  0  0
 13 15  1  0  0  0  0
 14  3  1  0  0  0  0
 14  8  2  0  0  0  0
 15  5  1  0  0  0  0
 15 10  2  0  0  0  0
M  CHG  2   3  -1   5  -1
M  END
