1,2
q = -1.0, confidence = 0.002

 17 17  0  0  1  0  0  0  0  0999 V2000
    1.3687    1.7697   -1.4273 O   0  0  0  0  0  1  0  0  0  0  0  0
    1.1828    0.4376    0.7579 O   0  0  0  0  0  1  0  0  0  0  0  0
    4.2561   -0.8714   -1.7698 O   0  0  0  0  0  0  0  0  0  0  0  0
    2.2509    0.7885   -1.1654 N   0  0  0  0  0  0  0  0  0  0  0  0
    2.1138    0.0863   -0.0309 C   0  0  2  0  0  3  0  0  0  0  0  0
    3.0154   -1.0471    0.2763 C   0  0  0  0  0  0  0  0  0  0  0  0
    4.0539   -1.5082   -0.5752 C   0  0  0  0  0  0  0  0  0  0  0  0
    4.8518   -2.5982   -0.1876 C   0  0  0  0  0  0  0  0  0  0  0  0
    4.6323   -3.2378    1.0393 C   0  0  0  0  0  0  0  0  0  0  0  0
    3.6098   -2.7921    1.8927 C   0  0  0  0  0  0  0  0  0  0  0  0
    2.8156   -1.7080    1.5077 C   0  0  0  0  0  0  0  0  0  0  0  0
    2.9390    0.5674   -1.8938 H   0  0  0  0  0  0  0  0  0  0  0  0
    5.6537   -2.9432   -0.8611 H   0  0  0  0  0  0  0  0  0  0  0  0
    5.2681   -4.0886    1.3264 H   0  0  0  0  0  0  0  0  0  0  0  0
    3.4353   -3.2890    2.8578 H   0  0  0  0  0  0  0  0  0  0  0  0
    2.0079   -1.3285    2.1497 H   0  0  0  0  0  0  0  0  0  0  0  0
    5.0001   -1.2925   -2.2390 H   0  0  0  0  0  0  0  0  0  0  0  0
  1  4  1  0  0  0  0
  3  7  1  0  0  0  0
  4  5  1  0  0  0  0
  5  6  1  0  0  0  0
  5  2  1  6  0  0  0
  6 11  1  0  0  0  0
  7  8  1  0  0  0  0
  7  6  2  0  0  0  0
  8  9  2  0  0  0  0
  9 14  1  0  0  0  0
  9 10  1  0  0  0  0
 10 15  1  0  0  0  0
 11 10  2  0  0  0  0
 11 16  1  0  0  0  0
 12  4  1  0  0  0  0
 13  8  1  0  0  0  0
 17  3  1  0  0  0  0
M  END
