1,2
q = -2.0, confidence = 0.796

 34 36  0  0  0  0  0  0  0  0999 V2000
    0.2966   -1.1157    1.7025 O   0  5  0  0  0  0  0  0  0  0  0  0
    0.3257    1.6008    1.2218 O   0  5  0  0  0  0  0  0  0  0  0  0
   -1.6807    0.1450    0.1524 N   0  0  0  0  0  0  0  0  0  0  0  0
   -0.9307   -1.0550    2.1921 C   0  0  0  0  0  0  0  0  0  0  0  0
   -1.9917   -0.4559    1.4675 C   0  0  0  0  0  0  0  0  0  0  0  0
   -3.2882   -0.3885    2.0017 C   0  0  0  0  0  0  0  0  0  0  0  0
   -4.0812    0.1095    1.4245 H   0  0  0  0  0  0  0  0  0  0  0  0
   -3.5697   -0.9457    3.2551 C   0  0  0  0  0  0  0  0  0  0  0  0
   -4.5871   -0.8893    3.6684 H   0  0  0  0  0  0  0  0  0  0  0  0
   -2.5314   -1.5624    3.9806 C   0  0  0  0  0  0  0  0  0  0  0  0
   -2.7380   -1.9990    4.9703 H   0  0  0  0  0  0  0  0  0  0  0  0
   -1.2355   -1.6158    3.4630 C   0  0  0  0  0  0  0  0  0  0  0  0
   -0.4128   -2.0822    4.0253 H   0  0  0  0  0  0  0  0  0  0  0  0
   -1.8660    1.5966    0.2905 C   0  0  0  0  0  0  0  0  0  0  0  0
   -0.7886    2.2593    0.9503 C   0  0  0  0  0  0  0  0  0  0  0  0
   -0.9584    3.6319    1.2647 C   0  0  0  0  0  0  0  0  0  0  0  0
   -0.1430    4.1455    1.7960 H   0  0  0  0  0  0  0  0  0  0  0  0
   -2.1264    4.3130    0.8929 C   0  0  0  0  0  0  0  0  0  0  0  0
   -2.2268    5.3834    1.1314 H   0  0  0  0  0  0  0  0  0  0  0  0
   -3.1637    3.6481    0.2166 C   0  0  0  0  0  0  0  0  0  0  0  0
   -4.0754    4.1871   -0.0793 H   0  0  0  0  0  0  0  0  0  0  0  0
   -3.0383    2.2748   -0.0616 C   0  0  0  0  0  0  0  0  0  0  0  0
   -3.8540    1.7342   -0.5643 H   0  0  0  0  0  0  0  0  0  0  0  0
   -2.3622   -0.4929   -0.9603 C   0  0  0  0  0  0  0  0  0  0  0  0
   -2.3888    0.1325   -2.2242 C   0  0  0  0  0  0  0  0  0  0  0  0
   -1.9150    1.1129   -2.3438 H   0  0  0  0  0  0  0  0  0  0  0  0
   -3.0122   -0.4892   -3.3115 C   0  0  0  0  0  0  0  0  0  0  0  0
   -3.0178    0.0184   -4.2882 H   0  0  0  0  0  0  0  0  0  0  0  0
   -3.6262   -1.7454   -3.1654 C   0  0  0  0  0  0  0  0  0  0  0  0
   -4.1181   -2.2300   -4.0217 H   0  0  0  0  0  0  0  0  0  0  0  0
   -3.6052   -2.3668   -1.9095 C   0  0  0  0  0  0  0  0  0  0  0  0
   -4.0814   -3.3492   -1.7694 H   0  0  0  0  0  0  0  0  0  0  0  0
   -2.9827   -1.7486   -0.8121 C   0  0  0  0  0  0  0  0  0  0  0  0
   -2.9860   -2.2402    0.1689 H   0  0  0  0  0  0  0  0  0  0  0  0
  1  4  1  0  0  0  0
  3 14  1  0  0  0  0
  3  5  1  0  0  0  0
  4 12  1  0  0  0  0
  5  6  1  0  0  0  0
  5  4  2  0  0  0  0
  6  8  2  0  0  0  0
  7  6  1  0  0  0  0
  8  9  1  0  0  0  0
  8 10  1  0  0  0  0
 10 11  1  0  0  0  0
 12 10  2  0  0  0  0
 12 13  1  0  0  0  0
 14 15  1  0  0  0  0
 15  2  1  0  0  0  0
 15 16  2  0  0  0  0
 16 17  1  0  0  0  0
 18 19  1  0  0  0  0
 18 16  1  0  0  0  0
 20 18  2  0  0  0  0
 21 20  1  0  0  0  0
 22 20  1  0  0  0  0
 22 14  2  0  0  0  0
 23 22  1  0  0  0  0
 24 33  1  0  0  0  0
 24  3  1  0  0  0  0
 25 24  2  0  0  0  0
 26 25  1  0  0  0  0
 27 29  2  0  0  0  0
 27 25  1  0  0  0  0
 28 27  1  0  0  0  0
 29 31  1  0  0  0  0
 30 29  1  0  0  0  0
 31 32  1  0  0  0  0
 31 33  2  0  0  0  0
 33 34  1  0  0  0  0
M  CHG  2   1  -1   2  -1
M  END
