1,2
q = -1.0, confidence = 0.002

 17 17  0  0  1  0  0  0  0  0999 V2000
   -0.5486    0.8482    1.4990 O   0  5  0  0  0  0  0  0  0  0  0  0
   -0.5167    2.1306   -0.8370 O   0  5  0  0  0  0  0  0  0  0  0  0
    1.2823    4.4803    1.2190 O   0  0  0  0  0  0  0  0  0  0  0  0
   -0.0029    1.9767    1.4818 C   0  0  0  0  0  0  0  0  0  0  0  0
    0.0566    2.7050    0.2099 C   0  0  0  0  0  0  0  0  0  0  0  0
    0.7129    3.9195    0.1111 C   0  0  2  0  0  3  0  0  0  0  0  0
    1.2142    3.8629    2.4166 C   0  0  0  0  0  0  0  0  0  0  0  0
    1.7115    4.4510    3.2007 H   0  0  0  0  0  0  0  0  0  0  0  0
    0.6044    2.6555    2.6073 C   0  0  0  0  0  0  0  0  0  0  0  0
    0.5889    2.1904    3.6024 H   0  0  0  0  0  0  0  0  0  0  0  0
    0.9337    4.6660   -1.1627 C   0  0  0  0  0  0  0  0  0  0  0  0
    1.0903    5.7375   -0.9235 H   0  0  0  0  0  0  0  0  0  0  0  0
    0.0079    4.5837   -1.7675 H   0  0  0  0  0  0  0  0  0  0  0  0
    2.1212    4.1036   -1.9653 C   0  0  0  0  0  0  0  0  0  0  0  0
    3.0645    4.1762   -1.3879 H   0  0  0  0  0  0  0  0  0  0  0  0
    2.2537    4.6628   -2.9127 H   0  0  0  0  0  0  0  0  0  0  0  0
    1.9470    3.0378   -2.2137 H   0  0  0  0  0  0  0  0  0  0  0  0
  2  5  1  0  0  0  0
  3  7  1  0  0  0  0
  4  1  1  0  0  0  0
  4  9  1  0  0  0  0
  5  4  2  0  0  0  0
  6 11  1  6  0  0  0
  6  5  1  0  0  0  0
  6  3  1  0  0  0  0
  7  9  2  0  0  0  0
  7  8  1  0  0  0  0
  9 10  1  0  0  0  0
 11 12  1  0  0  0  0
 13 11  1  0  0  0  0
 14 15  1  0  0  0  0
 14 11  1  0  0  0  0
 16 14  1  0  0  0  0
 17 14  1  0  0  0  0
M  CHG  2   1  -1   2  -1
M  END
