18,19
q = -1.0, confidence = 0.054

 26 25  0  0  1  0  0  0  0  0999 V2000
    4.7580    2.2803    0.5754 C   0  0  0  0  0  0  0  0  0  0  0  0
    3.3130    1.6899    0.5572 C   0  0  0  0  0  0  0  0  0  0  0  0
    2.4471    2.1101   -0.6729 C   0  0  0  0  0  0  0  0  0  0  0  0
    0.9567    1.7779   -0.4596 C   0  0  2  0  0  3  0  0  0  0  0  0
    0.0302    2.8228   -0.3459 C   0  0  0  0  0  0  0  0  0  0  0  0
    0.4112    3.8500   -0.4062 H   0  0  0  0  0  0  0  0  0  0  0  0
   -1.3661    2.6525   -0.1687 C   0  0  0  0  0  0  0  0  0  0  0  0
   -2.2382    3.8918   -0.0564 C   0  0  0  0  0  0  0  0  0  0  0  0
   -2.0521    4.5210   -0.9557 H   0  0  0  0  0  0  0  0  0  0  0  0
   -1.8557    4.4977    0.7960 H   0  0  0  0  0  0  0  0  0  0  0  0
   -3.7335    3.6224    0.1089 C   0  0  0  0  0  0  0  0  0  0  0  0
   -3.8883    2.9884    1.0074 H   0  0  0  0  0  0  0  0  0  0  0  0
   -4.0870    3.0115   -0.7486 H   0  0  0  0  0  0  0  0  0  0  0  0
   -4.5559    4.9063    0.2187 C   0  0  0  0  0  0  0  0  0  0  0  0
   -4.2416    5.5174    1.0906 H   0  0  0  0  0  0  0  0  0  0  0  0
   -5.6360    4.6876    0.3382 H   0  0  0  0  0  0  0  0  0  0  0  0
   -4.4428    5.5408   -0.6852 H   0  0  0  0  0  0  0  0  0  0  0  0
    0.7487    0.5222   -0.4065 O   0  0  0  0  0  1  0  0  0  0  0  0
   -1.9894    1.5329   -0.0922 O   0  5  0  0  0  0  0  0  0  0  0  0
    4.7357    3.5968    0.8326 F   0  0  0  0  0  0  0  0  0  0  0  0
    5.4721    1.6698    1.5373 F   0  0  0  0  0  0  0  0  0  0  0  0
    5.3657    2.0743   -0.6057 F   0  0  0  0  0  0  0  0  0  0  0  0
    3.4222    0.3431    0.5911 F   0  0  0  0  0  0  0  0  0  0  0  0
    2.6850    2.1143    1.6878 F   0  0  0  0  0  0  0  0  0  0  0  0
    2.6392    3.4471   -0.8839 F   0  0  0  0  0  0  0  0  0  0  0  0
    2.9056    1.4396   -1.7658 F   0  0  0  0  0  0  0  0  0  0  0  0
  1 20  1  0  0  0  0
  1 21  1  0  0  0  0
  2  1  1  0  0  0  0
  2 23  1  0  0  0  0
  2 24  1  0  0  0  0
  3  4  1  0  0  0  0
  3  2  1  0  0  0  0
  4 18  1  1  0  0  0
  4  5  1  0  0  0  0
  5  7  2  0  0  0  0
  6  5  1  0  0  0  0
  7 19  1  0  0  0  0
  7  8  1  0  0  0  0
  8 11  1  0  0  0  0
  8 10  1  0  0  0  0
  9  8  1  0  0  0  0
 11 14  1  0  0  0  0
 11 12  1  0  0  0  0
 13 11  1  0  0  0  0
 14 16  1  0  0  0  0
 14 15  1  0  0  0  0
 17 14  1  0  0  0  0
 22  1  1  0  0  0  0
 25  3  1  0  0  0  0
 26  3  1  0  0  0  0
M  CHG  1  19  -1
M  END
