1,3
q = 0.0, confidence = 1.0

 24 23  0  0  1  0  0  0  0  0999 V2000
   -1.0690    1.2033    0.7068 O   0  5  0  0  0  0  0  0  0  0  0  0
    0.4841    2.6896   -0.0120 O   0  0  0  0  0  0  0  0  0  0  0  0
    0.9834   -0.0146   -0.7748 O   0  0  0  0  0  1  0  0  0  0  0  0
    3.1501    0.4992   -0.4928 O   0  0  0  0  0  0  0  0  0  0  0  0
   -0.7814    2.2675    0.1476 C   0  0  0  0  0  0  0  0  0  0  0  0
   -1.7697    3.1977   -0.4151 C   0  0  0  0  0  0  0  0  0  0  0  0
   -3.0631    2.8227   -0.4921 C   0  0  0  0  0  3  0  0  0  0  0  0
    1.8594    0.7125   -0.3069 C   0  0  2  0  0  3  0  0  0  0  0  0
    2.7065    2.8449    0.8744 C   0  0  0  0  0  0  0  0  0  0  0  0
    1.5492    1.9085    0.5927 C   0  0  1  0  0  0  0  0  0  0  0  0
    3.5200   -0.7539   -1.1637 C   0  0  0  0  0  0  0  0  0  0  0  0
    3.5648   -1.8987   -0.1704 C   0  0  0  0  0  0  0  0  0  0  0  0
   -1.3980    4.1608   -0.7951 H   0  0  0  0  0  0  0  0  0  0  0  0
   -3.8239    3.4818   -0.9359 H   0  0  0  0  0  0  0  0  0  0  0  0
   -3.3731    1.8324   -0.1218 H   0  0  0  0  0  0  0  0  0  0  0  0
    2.3750    3.6512    1.5553 H   0  0  0  0  0  0  0  0  0  0  0  0
    3.5289    2.2870    1.3586 H   0  0  0  0  0  0  0  0  0  0  0  0
    3.0924    3.2975   -0.0589 H   0  0  0  0  0  0  0  0  0  0  0  0
    1.1542    1.4335    1.5222 H   0  0  0  0  0  0  0  0  0  0  0  0
    2.7840   -0.9406   -1.9695 H   0  0  0  0  0  0  0  0  0  0  0  0
    4.5101   -0.5302   -1.6030 H   0  0  0  0  0  0  0  0  0  0  0  0
    3.8908   -2.8192   -0.6947 H   0  0  0  0  0  0  0  0  0  0  0  0
    2.5650   -2.0895    0.2664 H   0  0  0  0  0  0  0  0  0  0  0  0
    4.2827   -1.6924    0.6476 H   0  0  0  0  0  0  0  0  0  0  0  0
  2  5  1  0  0  0  0
  2 10  1  0  0  0  0
  4  8  1  0  0  0  0
  5  1  1  0  0  0  0
  6  5  2  0  0  0  0
  7  6  1  0  0  0  0
  7 15  1  0  0  0  0
  8  3  1  1  0  0  0
  8 10  1  0  0  0  0
  9 17  1  0  0  0  0
  9 16  1  0  0  0  0
 10  9  1  0  0  0  0
 10 19  1  1  0  0  0
 11  4  1  0  0  0  0
 11 12  1  0  0  0  0
 12 23  1  0  0  0  0
 12 24  1  0  0  0  0
 13  6  1  0  0  0  0
 14  7  1  0  0  0  0
 18  9  1  0  0  0  0
 20 11  1  0  0  0  0
 21 11  1  0  0  0  0
 22 12  1  0  0  0  0
M  CHG  1   1  -1
M  END
