1,2
q = -1.0, confidence = 0.012

 14 14  0  0  1  0  0  0  0  0999 V2000
   -2.2076    1.6281   -0.9839 O   0  5  0  0  0  0  0  0  0  0  0  0
    0.0900    2.3672    0.0773 O   0  0  0  0  0  1  0  0  0  0  0  0
   -2.0785    2.8834   -0.7256 C   0  0  0  0  0  0  0  0  0  0  0  0
   -0.7836    3.3104   -0.1436 C   0  0  2  0  0  3  0  0  0  0  0  0
   -1.1101    5.8418    0.0878 C   0  0  0  0  0  0  0  0  0  0  0  0
   -0.5525    6.7298    0.4292 H   0  0  0  0  0  0  0  0  0  0  0  0
   -3.1745    3.7490   -1.0156 C   0  0  0  0  0  0  0  0  0  0  0  0
   -4.0343    3.1967   -1.4283 H   0  0  0  0  0  0  0  0  0  0  0  0
   -0.4056    4.6359    0.1849 C   0  0  0  0  0  0  0  0  0  0  0  0
    0.6196    4.6908    0.5868 H   0  0  0  0  0  0  0  0  0  0  0  0
   -2.4113    6.0826   -0.3742 C   0  0  0  0  0  0  0  0  0  0  0  0
   -2.7575    7.1275   -0.3526 H   0  0  0  0  0  0  0  0  0  0  0  0
   -3.3212    5.1278   -0.8633 C   0  0  0  0  0  0  0  0  0  0  0  0
   -4.3013    5.5245   -1.1772 H   0  0  0  0  0  0  0  0  0  0  0  0
  1  3  1  0  0  0  0
  3  4  1  0  0  0  0
  4  2  1  6  0  0  0
  4  9  1  0  0  0  0
  5  9  2  0  0  0  0
  5  6  1  0  0  0  0
  7 13  1  0  0  0  0
  7  3  2  0  0  0  0
  8  7  1  0  0  0  0
  9 10  1  0  0  0  0
 11 12  1  0  0  0  0
 11  5  1  0  0  0  0
 13 11  2  0  0  0  0
 14 13  1  0  0  0  0
M  CHG  1   1  -1
M  END
