1,2
q = -2.0, confidence = 0.846

 55 56  0  0  0  0  0  0  0  0999 V2000
    1.3646   -0.1477   -0.2875 O   0  5  0  0  0  0  0  0  0  0  0  0
   -1.3644   -0.1477   -0.2875 O   0  5  0  0  0  0  0  0  0  0  0  0
    1.9744    1.0518   -0.2463 C   0  0  0  0  0  0  0  0  0  0  0  0
    3.2820    1.2090    0.3238 C   0  0  0  0  0  0  0  0  0  0  0  0
    3.7602    2.5252    0.4265 C   0  0  0  0  0  0  0  0  0  0  0  0
    4.7443    2.6925    0.8831 H   0  0  0  0  0  0  0  0  0  0  0  0
    3.0581    3.6529   -0.0430 C   0  0  0  0  0  0  0  0  0  0  0  0
    1.8338    3.4387   -0.6960 C   0  0  0  0  0  0  0  0  0  0  0  0
    1.2979    4.2924   -1.1404 H   0  0  0  0  0  0  0  0  0  0  0  0
    1.2819    2.1580   -0.8176 C   0  0  0  0  0  0  0  0  0  0  0  0
   -0.0001    1.9597   -1.6004 C   0  0  0  0  0  0  0  0  0  0  0  0
   -0.0000    0.9646   -2.0817 H   0  0  0  0  0  0  0  0  0  0  0  0
   -0.0001    2.7027   -2.4219 H   0  0  0  0  0  0  0  0  0  0  0  0
    4.1608    0.0208    0.7531 C   0  0  0  0  0  0  0  0  0  0  0  0
    5.5660    0.4791    1.1910 C   0  0  0  0  0  0  0  0  0  0  0  0
    6.1028    1.0185    0.3846 H   0  0  0  0  0  0  0  0  0  0  0  0
    6.1675   -0.4142    1.4511 H   0  0  0  0  0  0  0  0  0  0  0  0
    5.5365    1.1274    2.0898 H   0  0  0  0  0  0  0  0  0  0  0  0
    3.5275   -0.7247    1.9474 C   0  0  0  0  0  0  0  0  0  0  0  0
    3.4191   -0.0464    2.8177 H   0  0  0  0  0  0  0  0  0  0  0  0
    4.1773   -1.5712    2.2492 H   0  0  0  0  0  0  0  0  0  0  0  0
    2.5322   -1.1355    1.7140 H   0  0  0  0  0  0  0  0  0  0  0  0
    4.3411   -0.9226   -0.4592 C   0  0  0  0  0  0  0  0  0  0  0  0
    4.8335   -0.3903   -1.2983 H   0  0  0  0  0  0  0  0  0  0  0  0
    3.3796   -1.3299   -0.8189 H   0  0  0  0  0  0  0  0  0  0  0  0
    4.9791   -1.7840   -0.1754 H   0  0  0  0  0  0  0  0  0  0  0  0
    3.6185    5.0379    0.1399 C   0  0  0  0  0  0  0  0  0  0  0  0
    4.7188    5.0546    0.0070 H   0  0  0  0  0  0  0  0  0  0  0  0
    3.4133    5.4124    1.1663 H   0  0  0  0  0  0  0  0  0  0  0  0
    3.1703    5.7604   -0.5695 H   0  0  0  0  0  0  0  0  0  0  0  0
   -1.9744    1.0517   -0.2463 C   0  0  0  0  0  0  0  0  0  0  0  0
   -3.2821    1.2087    0.3238 C   0  0  0  0  0  0  0  0  0  0  0  0
   -3.7605    2.5249    0.4264 C   0  0  0  0  0  0  0  0  0  0  0  0
   -4.7445    2.6921    0.8830 H   0  0  0  0  0  0  0  0  0  0  0  0
   -3.0586    3.6527   -0.0433 C   0  0  0  0  0  0  0  0  0  0  0  0
   -1.8342    3.4385   -0.6962 C   0  0  0  0  0  0  0  0  0  0  0  0
   -1.2985    4.2922   -1.1408 H   0  0  0  0  0  0  0  0  0  0  0  0
   -1.2821    2.1579   -0.8177 C   0  0  0  0  0  0  0  0  0  0  0  0
   -4.1607    0.0205    0.7533 C   0  0  0  0  0  0  0  0  0  0  0  0
   -4.3410   -0.9230   -0.4590 C   0  0  0  0  0  0  0  0  0  0  0  0
   -4.8335   -0.3907   -1.2981 H   0  0  0  0  0  0  0  0  0  0  0  0
   -4.9789   -1.7845   -0.1751 H   0  0  0  0  0  0  0  0  0  0  0  0
   -3.3795   -1.3301   -0.8188 H   0  0  0  0  0  0  0  0  0  0  0  0
   -5.5659    0.4787    1.1912 C   0  0  0  0  0  0  0  0  0  0  0  0
   -5.5364    1.1271    2.0901 H   0  0  0  0  0  0  0  0  0  0  0  0
   -6.1673   -0.4147    1.4516 H   0  0  0  0  0  0  0  0  0  0  0  0
   -6.1029    1.0179    0.3849 H   0  0  0  0  0  0  0  0  0  0  0  0
   -3.5272   -0.7249    1.9476 C   0  0  0  0  0  0  0  0  0  0  0  0
   -3.4188   -0.0465    2.8178 H   0  0  0  0  0  0  0  0  0  0  0  0
   -2.5320   -1.1356    1.7141 H   0  0  0  0  0  0  0  0  0  0  0  0
   -4.1770   -1.5714    2.2495 H   0  0  0  0  0  0  0  0  0  0  0  0
   -3.6192    5.0376    0.1395 C   0  0  0  0  0  0  0  0  0  0  0  0
   -3.1704    5.7603   -0.5694 H   0  0  0  0  0  0  0  0  0  0  0  0
   -3.4148    5.4119    1.1661 H   0  0  0  0  0  0  0  0  0  0  0  0
   -4.7193    5.0542    0.0057 H   0  0  0  0  0  0  0  0  0  0  0  0
  1  3  1  0  0  0  0
  2 31  1  0  0  0  0
  3  4  1  0  0  0  0
  4  5  2  0  0  0  0
  4 14  1  0  0  0  0
  5  6  1  0  0  0  0
  7 27  1  0  0  0  0
  7  5  1  0  0  0  0
  8  7  2  0  0  0  0
  9  8  1  0  0  0  0
 10  8  1  0  0  0  0
 10  3  2  0  0  0  0
 11 38  1  0  0  0  0
 11 10  1  0  0  0  0
 12 11  1  0  0  0  0
 13 11  1  0  0  0  0
 14 15  1  0  0  0  0
 14 19  1  0  0  0  0
 15 17  1  0  0  0  0
 15 18  1  0  0  0  0
 16 15  1  0  0  0  0
 19 21  1  0  0  0  0
 19 20  1  0  0  0  0
 22 19  1  0  0  0  0
 23 26  1  0  0  0  0
 23 14  1  0  0  0  0
 24 23  1  0  0  0  0
 25 23  1  0  0  0  0
 27 29  1  0  0  0  0
 28 27  1  0  0  0  0
 30 27  1  0  0  0  0
 31 32  1  0  0  0  0
 32 33  2  0  0  0  0
 32 39  1  0  0  0  0
 33 34  1  0  0  0  0
 35 52  1  0  0  0  0
 35 33  1  0  0  0  0
 36 35  2  0  0  0  0
 37 36  1  0  0  0  0
 38 36  1  0  0  0  0
 38 31  2  0  0  0  0
 39 44  1  0  0  0  0
 39 48  1  0  0  0  0
 40 42  1  0  0  0  0
 40 39  1  0  0  0  0
 41 40  1  0  0  0  0
 43 40  1  0  0  0  0
 44 46  1  0  0  0  0
 44 45  1  0  0  0  0
 47 44  1  0  0  0  0
 48 51  1  0  0  0  0
 48 49  1  0  0  0  0
 50 48  1  0  0  0  0
 52 54  1  0  0  0  0
 53 52  1  0  0  0  0
 55 52  1  0  0  0  0
M  CHG  2   1  -1   2  -1
M  END
