1,2
q = -1.0, confidence = 0.014

 13 12  0  0  0  0  0  0  0  0999 V2000
   -0.0405    2.0595   -0.9112 O   0  5  0  0  0  0  0  0  0  0  0  0
    1.7434    1.3129   -1.8970 O   0  5  0  0  0  0  0  0  0  0  0  0
    1.1211    2.3087   -1.3891 C   0  0  0  0  0  3  0  0  0  0  0  0
    1.7275    3.6906   -1.3258 C   0  0  0  0  0  0  0  0  0  0  0  0
    1.8322    4.0029   -2.3899 H   0  0  0  0  0  0  0  0  0  0  0  0
    0.8135    4.6780   -0.5954 C   0  0  0  0  0  0  0  0  0  0  0  0
    1.2527    5.6949   -0.6168 H   0  0  0  0  0  0  0  0  0  0  0  0
   -0.1903    4.7182   -1.0601 H   0  0  0  0  0  0  0  0  0  0  0  0
    0.6819    4.3773    0.4636 H   0  0  0  0  0  0  0  0  0  0  0  0
    3.1364    3.6102   -0.7123 C   0  0  0  0  0  0  0  0  0  0  0  0
    3.6258    4.6038   -0.7437 H   0  0  0  0  0  0  0  0  0  0  0  0
    3.0835    3.2841    0.3467 H   0  0  0  0  0  0  0  0  0  0  0  0
    3.7701    2.8893   -1.2634 H   0  0  0  0  0  0  0  0  0  0  0  0
  2  3  1  0  0  0  0
  3  4  1  0  0  0  0
  3  1  1  0  0  0  0
  4 10  1  0  0  0  0
  4  6  1  0  0  0  0
  5  4  1  0  0  0  0
  6  9  1  0  0  0  0
  7  6  1  0  0  0  0
  8  6  1  0  0  0  0
 10 12  1  0  0  0  0
 11 10  1  0  0  0  0
 13 10  1  0  0  0  0
M  CHG  2   1  -1   2  -1
M  END
