1,3
q = -2.0, confidence = 0.756

 14 14  0  0  0  0  0  0  0  0999 V2000
   -0.0569   -0.6248    1.5301 O   0  5  0  0  0  0  0  0  0  0  0  0
    1.6098   -0.2808    2.9961 O   0  0  0  0  0  0  0  0  0  0  0  0
    0.4135   -0.2945   -1.0482 O   0  5  0  0  0  0  0  0  0  0  0  0
    1.2274   -0.3754    1.8385 C   0  0  0  0  0  0  0  0  0  0  0  0
    2.1486   -0.2828    0.6582 C   0  0  0  0  0  0  0  0  0  0  0  0
    1.7009   -0.2617   -0.7006 C   0  0  0  0  0  0  0  0  0  0  0  0
    2.6723   -0.2247   -1.7374 C   0  0  0  0  0  0  0  0  0  0  0  0
    2.3088   -0.2183   -2.7756 H   0  0  0  0  0  0  0  0  0  0  0  0
    4.0357   -0.1940   -1.4417 C   0  0  0  0  0  0  0  0  0  0  0  0
    4.7672   -0.1601   -2.2642 H   0  0  0  0  0  0  0  0  0  0  0  0
    4.4783   -0.2041   -0.1028 C   0  0  0  0  0  0  0  0  0  0  0  0
    5.5532   -0.1739    0.1286 H   0  0  0  0  0  0  0  0  0  0  0  0
    3.5354   -0.2539    0.9251 C   0  0  0  0  0  0  0  0  0  0  0  0
    3.8338   -0.2684    1.9843 H   0  0  0  0  0  0  0  0  0  0  0  0
  1  4  1  0  0  0  0
  3  6  1  0  0  0  0
  4  2  2  0  0  0  0
  5 13  1  0  0  0  0
  5  4  1  0  0  0  0
  6  5  2  0  0  0  0
  7  9  2  0  0  0  0
  7  6  1  0  0  0  0
  8  7  1  0  0  0  0
  9 11  1  0  0  0  0
 10  9  1  0  0  0  0
 11 12  1  0  0  0  0
 11 13  2  0  0  0  0
 13 14  1  0  0  0  0
M  CHG  2   1  -1   3  -1
M  END
