1,2
q = -1.0, confidence = 0.0

 18 18  0  0  0  0  0  0  0  0999 V2000
    0.1378   -1.0294   -0.8346 O   0  0  0  0  0  1  0  0  0  0  0  0
   -1.3550   -2.2821    0.6762 O   0  0  0  0  0  1  0  0  0  0  0  0
    0.4425   -2.2588   -0.4771 N   0  0  0  0  0  0  0  0  0  0  0  0
   -0.3181   -2.9457    0.3142 N   0  0  0  0  0  2  0  0  0  0  0  0
    2.8961   -2.0734   -0.3382 C   0  0  0  0  0  0  0  0  0  0  0  0
    2.9568   -1.8211    1.0458 C   0  0  0  0  0  0  0  0  0  0  0  0
    4.0525   -1.1419    1.5943 C   0  0  0  0  0  0  0  0  0  0  0  0
    5.1053   -0.7183    0.7665 C   0  0  0  0  0  0  0  0  0  0  0  0
    5.0516   -0.9688   -0.6127 C   0  0  0  0  0  0  0  0  0  0  0  0
    3.9463   -1.6366   -1.1634 C   0  0  0  0  0  0  0  0  0  0  0  0
    1.7153   -2.8182   -0.9263 C   0  0  0  0  0  0  0  0  0  0  0  0
    2.1319   -2.1541    1.6955 H   0  0  0  0  0  0  0  0  0  0  0  0
    4.0857   -0.9408    2.6756 H   0  0  0  0  0  0  0  0  0  0  0  0
    5.9649   -0.1835    1.1976 H   0  0  0  0  0  0  0  0  0  0  0  0
    5.8679   -0.6309   -1.2687 H   0  0  0  0  0  0  0  0  0  0  0  0
    3.8966   -1.8156   -2.2490 H   0  0  0  0  0  0  0  0  0  0  0  0
    1.7308   -2.7698   -2.0334 H   0  0  0  0  0  0  0  0  0  0  0  0
    1.6959   -3.8805   -0.6124 H   0  0  0  0  0  0  0  0  0  0  0  0
  1  3  1  0  0  0  0
  3  4  1  0  0  0  0
  4  2  1  0  0  0  0
  5  6  1  0  0  0  0
  6  7  2  0  0  0  0
  6 12  1  0  0  0  0
  7 13  1  0  0  0  0
  8 14  1  0  0  0  0
  8  7  1  0  0  0  0
  9  8  2  0  0  0  0
 10  9  1  0  0  0  0
 10  5  2  0  0  0  0
 11 18  1  0  0  0  0
 11  3  1  0  0  0  0
 11  5  1  0  0  0  0
 15  9  1  0  0  0  0
 16 10  1  0  0  0  0
 17 11  1  0  0  0  0
M  END
