1,2
q = -2.0, confidence = 0.644

 27 28  0  0  0  0  0  0  0  0999 V2000
   -0.5288   -0.2253   -0.6771 O   0  0  0  0  0  1  0  0  0  0  0  0
    0.2478   -0.4617    1.7208 O   0  5  0  0  0  0  0  0  0  0  0  0
   -1.7206   -0.0260    2.6988 O   0  0  0  0  0  0  0  0  0  0  0  0
   -1.0666   -0.1743    1.6858 C   0  0  0  0  0  0  0  0  0  0  0  0
   -1.6120   -0.0518    0.2481 C   0  0  0  0  0  0  0  0  0  0  0  0
   -2.6556   -1.1563    0.0354 C   0  0  0  0  0  0  0  0  0  0  0  0
   -2.4284   -2.1964   -0.8822 C   0  0  0  0  0  0  0  0  0  0  0  0
   -1.4890   -2.2135   -1.4518 H   0  0  0  0  0  0  0  0  0  0  0  0
   -3.3972   -3.1970   -1.0660 C   0  0  0  0  0  0  0  0  0  0  0  0
   -3.2112   -4.0072   -1.7877 H   0  0  0  0  0  0  0  0  0  0  0  0
   -4.5933   -3.1664   -0.3347 C   0  0  0  0  0  0  0  0  0  0  0  0
   -5.3511   -3.9517   -0.4793 H   0  0  0  0  0  0  0  0  0  0  0  0
   -4.8193   -2.1281    0.5852 C   0  0  0  0  0  0  0  0  0  0  0  0
   -5.7543   -2.0985    1.1652 H   0  0  0  0  0  0  0  0  0  0  0  0
   -3.8582   -1.1258    0.7691 C   0  0  0  0  0  0  0  0  0  0  0  0
   -4.0248   -0.3182    1.4961 H   0  0  0  0  0  0  0  0  0  0  0  0
   -2.2155    1.3340   -0.0189 C   0  0  0  0  0  0  0  0  0  0  0  0
   -2.7565    1.5637   -1.3008 C   0  0  0  0  0  0  0  0  0  0  0  0
   -2.7930    0.7323   -2.0207 H   0  0  0  0  0  0  0  0  0  0  0  0
   -3.2305    2.8316   -1.6586 C   0  0  0  0  0  0  0  0  0  0  0  0
   -3.6475    2.9965   -2.6640 H   0  0  0  0  0  0  0  0  0  0  0  0
   -3.1798    3.8900   -0.7343 C   0  0  0  0  0  0  0  0  0  0  0  0
   -3.5549    4.8867   -1.0124 H   0  0  0  0  0  0  0  0  0  0  0  0
   -2.6616    3.6630    0.5484 C   0  0  0  0  0  0  0  0  0  0  0  0
   -2.6316    4.4814    1.2842 H   0  0  0  0  0  0  0  0  0  0  0  0
   -2.1811    2.3914    0.9071 C   0  0  0  0  0  0  0  0  0  0  0  0
   -1.7949    2.2215    1.9215 H   0  0  0  0  0  0  0  0  0  0  0  0
  1  5  1  0  0  0  0
  4  2  1  0  0  0  0
  4  3  2  0  0  0  0
  5  4  1  0  0  0  0
  6  5  1  0  0  0  0
  6 15  1  0  0  0  0
  7  6  2  0  0  0  0
  8  7  1  0  0  0  0
  9  7  1  0  0  0  0
  9 11  2  0  0  0  0
 10  9  1  0  0  0  0
 11 13  1  0  0  0  0
 12 11  1  0  0  0  0
 13 15  2  0  0  0  0
 13 14  1  0  0  0  0
 15 16  1  0  0  0  0
 17  5  1  0  0  0  0
 17 26  1  0  0  0  0
 18 17  2  0  0  0  0
 19 18  1  0  0  0  0
 20 18  1  0  0  0  0
 20 22  2  0  0  0  0
 21 20  1  0  0  0  0
 22 24  1  0  0  0  0
 23 22  1  0  0  0  0
 24 26  2  0  0  0  0
 24 25  1  0  0  0  0
 26 27  1  0  0  0  0
M  CHG  1   2  -1
M  END
