2,3
q = -2.0, confidence = 0.916

 23 24  0  0  0  0  0  0  0  0999 V2000
   -1.6414    0.5100   -1.0323 Se  0  0  0  0  0  0  0  0  0  0  0  0
   -1.2446    0.4334    1.9541 O   0  5  0  0  0  0  0  0  0  0  0  0
   -0.5530   -1.8392    0.5539 O   0  5  0  0  0  0  0  0  0  0  0  0
   -2.8461    1.1768    0.3198 C   0  0  0  0  0  0  0  0  0  0  0  0
   -2.3814    0.9886    1.6596 C   0  0  0  0  0  0  0  0  0  0  0  0
   -3.2666    1.4502    2.6890 C   0  0  0  0  0  0  0  0  0  0  0  0
   -4.4898    2.0441    2.3774 C   0  0  0  0  0  0  0  0  0  0  0  0
   -4.9118    2.2204    1.0409 C   0  0  0  0  0  0  0  0  0  0  0  0
   -4.0717    1.7780    0.0082 C   0  0  0  0  0  0  0  0  0  0  0  0
   -2.1921   -1.3399   -1.1440 C   0  0  0  0  0  0  0  0  0  0  0  0
   -1.5027   -2.2238   -0.2528 C   0  0  0  0  0  0  0  0  0  0  0  0
   -1.9085   -3.5966   -0.3006 C   0  0  0  0  0  0  0  0  0  0  0  0
   -2.9124   -4.0243   -1.1697 C   0  0  0  0  0  0  0  0  0  0  0  0
   -3.5700   -3.1267   -2.0395 C   0  0  0  0  0  0  0  0  0  0  0  0
   -3.1981   -1.7747   -2.0174 C   0  0  0  0  0  0  0  0  0  0  0  0
   -2.9399    1.3176    3.7313 H   0  0  0  0  0  0  0  0  0  0  0  0
   -5.1394    2.3879    3.1995 H   0  0  0  0  0  0  0  0  0  0  0  0
   -5.8767    2.6965    0.8114 H   0  0  0  0  0  0  0  0  0  0  0  0
   -4.3669    1.8955   -1.0473 H   0  0  0  0  0  0  0  0  0  0  0  0
   -1.3965   -4.2962    0.3772 H   0  0  0  0  0  0  0  0  0  0  0  0
   -3.1958   -5.0899   -1.1747 H   0  0  0  0  0  0  0  0  0  0  0  0
   -4.3591   -3.4779   -2.7210 H   0  0  0  0  0  0  0  0  0  0  0  0
   -3.6941   -1.0452   -2.6783 H   0  0  0  0  0  0  0  0  0  0  0  0
  1  4  1  0  0  0  0
  4  5  1  0  0  0  0
  5  2  1  0  0  0  0
  5  6  2  0  0  0  0
  6 16  1  0  0  0  0
  7  6  1  0  0  0  0
  7 17  1  0  0  0  0
  8  7  2  0  0  0  0
  9  4  2  0  0  0  0
  9  8  1  0  0  0  0
 10  1  1  0  0  0  0
 10 11  1  0  0  0  0
 11  3  1  0  0  0  0
 12 11  2  0  0  0  0
 12 20  1  0  0  0  0
 13 12  1  0  0  0  0
 14 15  1  0  0  0  0
 14 13  2  0  0  0  0
 15 10  2  0  0  0  0
 18  8  1  0  0  0  0
 19  9  1  0  0  0  0
 21 13  1  0  0  0  0
 22 14  1  0  0  0  0
 23 15  1  0  0  0  0
M  CHG  2   2  -1   3  -1
M  END
