7,8
q = -2.0, confidence = 0.828

 38 39  0  0  0  0  0  0  0  0999 V2000
   -1.6552    0.0471   -3.3815 S   0  0  0  0  0  1  0  0  0  0  0  0
    0.0064   -1.7606   -1.2318 S   0  0  0  0  0  0  0  0  0  0  0  0
    1.5627   -0.6693    3.4605 S   0  0  0  0  0  1  0  0  0  0  0  0
    0.1234   -2.0625    0.8629 S   0  0  0  0  0  0  0  0  0  0  0  0
   -1.5699   -0.3034   -1.4507 P   0  0  1  0  0  4  0  0  0  0  0  0
    1.6422   -0.6707    1.5001 P   0  0  1  0  0  4  0  0  0  0  0  0
   -1.2429    0.8886   -0.4270 O   0  0  0  0  0  1  0  0  0  0  0  0
    1.3502    0.6565    0.6590 O   0  0  0  0  0  1  0  0  0  0  0  0
   -3.0577   -1.0651   -0.7437 C   0  0  0  0  0  0  0  0  0  0  0  0
   -4.0425   -1.5880   -1.5996 C   0  0  0  0  0  0  0  0  0  0  0  0
   -5.1826   -2.2180   -1.0827 C   0  0  0  0  0  0  0  0  0  0  0  0
   -5.3416   -2.3378    0.3150 C   0  0  0  0  0  0  0  0  0  0  0  0
   -4.3507   -1.8163    1.1787 C   0  0  0  0  0  0  0  0  0  0  0  0
   -3.2227   -1.1861    0.6568 C   0  0  0  0  0  0  0  0  0  0  0  0
   -6.4031   -2.9292    0.9192 O   0  0  0  0  0  0  0  0  0  0  0  0
   -7.4248   -3.4798    0.1072 C   0  0  0  0  0  0  0  0  0  0  0  0
    3.2122   -1.2513    0.7981 C   0  0  0  0  0  0  0  0  0  0  0  0
    3.4948   -1.0710   -0.5702 C   0  0  0  0  0  0  0  0  0  0  0  0
    4.6889   -1.5532   -1.1237 C   0  0  0  0  0  0  0  0  0  0  0  0
    5.6207   -2.2241   -0.3017 C   0  0  0  0  0  0  0  0  0  0  0  0
    5.3390   -2.4028    1.0724 C   0  0  0  0  0  0  0  0  0  0  0  0
    4.1468   -1.9245    1.6136 C   0  0  0  0  0  0  0  0  0  0  0  0
    6.8047   -2.7259   -0.7359 O   0  0  0  0  0  0  0  0  0  0  0  0
    7.1371   -2.5891   -2.1058 C   0  0  0  0  0  0  0  0  0  0  0  0
   -3.9069   -1.4864   -2.6880 H   0  0  0  0  0  0  0  0  0  0  0  0
   -5.9388   -2.6105   -1.7752 H   0  0  0  0  0  0  0  0  0  0  0  0
   -4.4960   -1.9231    2.2633 H   0  0  0  0  0  0  0  0  0  0  0  0
   -2.4539   -0.7897    1.3327 H   0  0  0  0  0  0  0  0  0  0  0  0
   -7.0376   -4.2866   -0.5543 H   0  0  0  0  0  0  0  0  0  0  0  0
   -7.9150   -2.7051   -0.5239 H   0  0  0  0  0  0  0  0  0  0  0  0
   -8.1746   -3.9089    0.7971 H   0  0  0  0  0  0  0  0  0  0  0  0
    2.7650   -0.5615   -1.2143 H   0  0  0  0  0  0  0  0  0  0  0  0
    4.8824   -1.4021   -2.1939 H   0  0  0  0  0  0  0  0  0  0  0  0
    6.0819   -2.9243    1.6929 H   0  0  0  0  0  0  0  0  0  0  0  0
    3.9215   -2.0551    2.6836 H   0  0  0  0  0  0  0  0  0  0  0  0
    8.1250   -3.0679   -2.2366 H   0  0  0  0  0  0  0  0  0  0  0  0
    6.3979   -3.0980   -2.7638 H   0  0  0  0  0  0  0  0  0  0  0  0
    7.2098   -1.5209   -2.4099 H   0  0  0  0  0  0  0  0  0  0  0  0
  2  4  1  0  0  0  0
  4  6  1  0  0  0  0
  5  1  1  6  0  0  0
  5  2  1  0  0  0  0
  5  9  1  0  0  0  0
  5  7  1  0  0  0  0
  6  8  1  6  0  0  0
  6  3  1  0  0  0  0
  9 14  1  0  0  0  0
 10 11  1  0  0  0  0
 10  9  2  0  0  0  0
 11 12  2  0  0  0  0
 12 15  1  0  0  0  0
 12 13  1  0  0  0  0
 13 27  1  0  0  0  0
 14 13  2  0  0  0  0
 14 28  1  0  0  0  0
 16 31  1  0  0  0  0
 16 15  1  0  0  0  0
 17  6  1  0  0  0  0
 17 22  1  0  0  0  0
 18 17  2  0  0  0  0
 19 18  1  0  0  0  0
 19 20  2  0  0  0  0
 20 21  1  0  0  0  0
 21 22  2  0  0  0  0
 21 34  1  0  0  0  0
 22 35  1  0  0  0  0
 23 20  1  0  0  0  0
 24 23  1  0  0  0  0
 25 10  1  0  0  0  0
 26 11  1  0  0  0  0
 29 16  1  0  0  0  0
 30 16  1  0  0  0  0
 32 18  1  0  0  0  0
 33 19  1  0  0  0  0
 36 24  1  0  0  0  0
 37 24  1  0  0  0  0
 38 24  1  0  0  0  0
M  END
