1,2
q = -1.0, confidence = 0.016

 38 40  0  0  1  0  0  0  0  0999 V2000
    0.5733   -1.6182   -0.2288 O   0  0  0  0  0  1  0  0  0  0  0  0
    0.2730    1.3209    0.0222 O   0  5  0  0  0  0  0  0  0  0  0  0
   -1.6447   -2.6670   -0.1773 C   0  0  2  0  0  0  0  0  0  0  0  0
   -0.6910   -1.4686   -0.1667 C   0  0  2  0  0  3  0  0  0  0  0  0
   -1.4877   -0.2883   -0.1095 C   0  0  0  0  0  0  0  0  0  0  0  0
   -2.9287   -0.7905   -0.0800 C   0  0  1  0  0  0  0  0  0  0  0  0
   -3.6679   -0.0695    0.3156 H   0  0  0  0  0  0  0  0  0  0  0  0
   -3.2378   -1.3349   -1.5056 C   0  0  0  0  0  0  0  0  0  0  0  0
   -4.3088   -1.5967   -1.6202 H   0  0  0  0  0  0  0  0  0  0  0  0
   -2.9972   -0.5860   -2.2849 H   0  0  0  0  0  0  0  0  0  0  0  0
   -2.3232   -2.5895   -1.5888 C   0  0  0  0  0  0  0  0  0  0  0  0
   -1.5601   -2.5233   -2.3891 H   0  0  0  0  0  0  0  0  0  0  0  0
   -2.9025   -3.5170   -1.7727 H   0  0  0  0  0  0  0  0  0  0  0  0
   -2.7851   -2.1078    0.7546 C   0  0  0  0  0  0  0  0  0  0  0  0
   -4.0491   -2.9767    0.7912 C   0  0  0  0  0  0  0  0  0  0  0  0
   -4.4316   -3.2552   -0.2082 H   0  0  0  0  0  0  0  0  0  0  0  0
   -4.8623   -2.4410    1.3234 H   0  0  0  0  0  0  0  0  0  0  0  0
   -3.8569   -3.9169    1.3474 H   0  0  0  0  0  0  0  0  0  0  0  0
   -2.3334   -1.8655    2.2017 C   0  0  0  0  0  0  0  0  0  0  0  0
   -1.4203   -1.2425    2.2658 H   0  0  0  0  0  0  0  0  0  0  0  0
   -2.1286   -2.8271    2.7151 H   0  0  0  0  0  0  0  0  0  0  0  0
   -3.1328   -1.3497    2.7723 H   0  0  0  0  0  0  0  0  0  0  0  0
   -1.0026   -3.9984    0.1580 C   0  0  0  0  0  0  0  0  0  0  0  0
   -1.7452   -4.8206    0.1163 H   0  0  0  0  0  0  0  0  0  0  0  0
   -0.5508   -3.9855    1.1699 H   0  0  0  0  0  0  0  0  0  0  0  0
   -0.1898   -4.2292   -0.5590 H   0  0  0  0  0  0  0  0  0  0  0  0
   -0.9861    1.0293   -0.0593 C   0  0  0  0  0  0  0  0  0  0  0  0
   -1.8912    2.2203   -0.0318 C   0  0  0  0  0  0  0  0  0  0  0  0
   -1.5063    3.3399    0.7391 C   0  0  0  0  0  0  0  0  0  0  0  0
   -0.5618    3.2885    1.2993 H   0  0  0  0  0  0  0  0  0  0  0  0
   -2.3108    4.4845    0.7868 C   0  0  0  0  0  0  0  0  0  0  0  0
   -2.0050    5.3432    1.4041 H   0  0  0  0  0  0  0  0  0  0  0  0
   -3.5028    4.5410    0.0448 C   0  0  0  0  0  0  0  0  0  0  0  0
   -4.1329    5.4429    0.0773 H   0  0  0  0  0  0  0  0  0  0  0  0
   -3.8801    3.4459   -0.7479 C   0  0  0  0  0  0  0  0  0  0  0  0
   -4.7998    3.4921   -1.3509 H   0  0  0  0  0  0  0  0  0  0  0  0
   -3.0840    2.2917   -0.7834 C   0  0  0  0  0  0  0  0  0  0  0  0
   -3.3732    1.4539   -1.4321 H   0  0  0  0  0  0  0  0  0  0  0  0
  3  4  1  0  0  0  0
  3 23  1  1  0  0  0
  3 14  1  0  0  0  0
  4  1  1  6  0  0  0
  4  5  1  0  0  0  0
  5  6  1  0  0  0  0
  5 27  2  0  0  0  0
  6  7  1  1  0  0  0
  6 14  1  0  0  0  0
  8  6  1  0  0  0  0
  9  8  1  0  0  0  0
 10  8  1  0  0  0  0
 11  8  1  0  0  0  0
 11  3  1  0  0  0  0
 12 11  1  0  0  0  0
 13 11  1  0  0  0  0
 14 15  1  0  0  0  0
 14 19  1  0  0  0  0
 15 17  1  0  0  0  0
 15 18  1  0  0  0  0
 16 15  1  0  0  0  0
 19 20  1  0  0  0  0
 19 21  1  0  0  0  0
 19 22  1  0  0  0  0
 23 25  1  0  0  0  0
 24 23  1  0  0  0  0
 26 23  1  0  0  0  0
 27 28  1  0  0  0  0
 27  2  1  0  0  0  0
 28 29  1  0  0  0  0
 29 31  2  0  0  0  0
 29 30  1  0  0  0  0
 31 32  1  0  0  0  0
 33 34  1  0  0  0  0
 33 31  1  0  0  0  0
 35 33  2  0  0  0  0
 36 35  1  0  0  0  0
 37 35  1  0  0  0  0
 37 28  2  0  0  0  0
 38 37  1  0  0  0  0
M  CHG  1   2  -1
M  END
