2,4
q = -2.0, confidence = 0.75

 21 22  0  0  1  0  0  0  0  0999 V2000
    2.4605    0.6249    0.3249 O   0  0  0  0  0  0  0  0  0  0  0  0
    0.7016   -1.8284    1.0527 O   0  5  0  0  0  0  0  0  0  0  0  0
    2.0304   -3.2753    2.1416 O   0  0  0  0  0  0  0  0  0  0  0  0
    1.1107   -1.0117   -1.9134 O   0  5  0  0  0  0  0  0  0  0  0  0
    2.0667   -3.0554   -1.9407 O   0  0  0  0  0  0  0  0  0  0  0  0
    2.0466   -1.8792   -1.5901 C   0  0  0  0  0  0  0  0  0  0  0  0
    1.8720   -2.3343    1.3700 C   0  0  0  0  0  0  0  0  0  0  0  0
    3.2106   -1.3201   -0.7363 C   0  0  2  0  0  0  0  0  0  0  0  0
    4.1251   -1.8081   -1.1241 H   0  0  0  0  0  0  0  0  0  0  0  0
    3.1052   -1.5868    0.8157 C   0  0  1  0  0  0  0  0  0  0  0  0
    3.9806   -2.1575    1.1750 H   0  0  0  0  0  0  0  0  0  0  0  0
    3.3379    0.2131   -0.7776 C   0  0  2  0  0  0  0  0  0  0  0  0
    2.9729    0.6753   -1.7113 H   0  0  0  0  0  0  0  0  0  0  0  0
    3.1521   -0.1359    1.3625 C   0  0  1  0  0  0  0  0  0  0  0  0
    2.6320    0.0185    2.3255 H   0  0  0  0  0  0  0  0  0  0  0  0
    4.7165    0.6702   -0.2663 C   0  0  0  0  0  0  0  0  0  0  0  0
    4.8881    1.7401   -0.4982 H   0  0  0  0  0  0  0  0  0  0  0  0
    5.5361    0.0891   -0.7305 H   0  0  0  0  0  0  0  0  0  0  0  0
    4.5816    0.4283    1.2671 C   0  0  0  0  0  0  0  0  0  0  0  0
    4.6712    1.3723    1.8404 H   0  0  0  0  0  0  0  0  0  0  0  0
    5.3281   -0.2831    1.6679 H   0  0  0  0  0  0  0  0  0  0  0  0
  1 14  1  0  0  0  0
  2  7  1  0  0  0  0
  4  6  1  0  0  0  0
  5  6  2  0  0  0  0
  6  8  1  0  0  0  0
  7  3  2  0  0  0  0
  8  9  1  6  0  0  0
  8 10  1  0  0  0  0
 10 11  1  1  0  0  0
 10 14  1  0  0  0  0
 10  7  1  0  0  0  0
 12 13  1  6  0  0  0
 12  8  1  0  0  0  0
 12 16  1  0  0  0  0
 12  1  1  0  0  0  0
 14 15  1  1  0  0  0
 16 19  1  0  0  0  0
 17 16  1  0  0  0  0
 18 16  1  0  0  0  0
 19 14  1  0  0  0  0
 19 21  1  0  0  0  0
 19 20  1  0  0  0  0
M  CHG  2   2  -1   4  -1
M  END
