1,2
q = -1.0, confidence = 0.002

 14 14  0  0  0  0  0  0  0  0999 V2000
   -1.0190    0.9266    1.2969 O   0  5  0  0  0  0  0  0  0  0  0  0
   -1.0189    0.9266   -1.2970 O   0  5  0  0  0  0  0  0  0  0  0  0
   -0.7317    2.0568    0.7431 C   0  0  0  0  0  0  0  0  0  0  0  0
   -0.7316    2.0568   -0.7431 C   0  0  0  0  0  0  0  0  0  0  0  0
   -0.1074    4.4899    1.2561 C   0  0  0  0  0  0  0  0  0  0  0  0
    0.0587    5.1475    2.1259 H   0  0  0  0  0  0  0  0  0  0  0  0
    0.0513    5.0975   -0.0000 C   0  0  0  0  0  0  0  0  0  0  0  0
    0.3248    6.1640   -0.0000 H   0  0  0  0  0  0  0  0  0  0  0  0
   -0.4488    3.1727   -1.5762 C   0  0  0  0  0  0  0  0  0  0  0  0
   -0.5198    2.9218   -2.6470 H   0  0  0  0  0  0  0  0  0  0  0  0
   -0.1073    4.4899   -1.2562 C   0  0  0  0  0  0  0  0  0  0  0  0
    0.0588    5.1474   -2.1259 H   0  0  0  0  0  0  0  0  0  0  0  0
   -0.4489    3.1728    1.5761 C   0  0  0  0  0  3  0  0  0  0  0  0
   -0.5199    2.9219    2.6469 H   0  0  0  0  0  0  0  0  0  0  0  0
  2  4  1  0  0  0  0
  3  1  1  0  0  0  0
  3 13  1  0  0  0  0
  4  3  2  0  0  0  0
  5 13  1  0  0  0  0
  5  6  1  0  0  0  0
  7  5  2  0  0  0  0
  8  7  1  0  0  0  0
  9 11  2  0  0  0  0
  9  4  1  0  0  0  0
 10  9  1  0  0  0  0
 11  7  1  0  0  0  0
 12 11  1  0  0  0  0
 13 14  1  0  0  0  0
M  CHG  2   1  -1   2  -1
M  END
