1,2
q = -1.0, confidence = 0.014

 27 27  0  0  1  0  0  0  0  0999 V2000
   -0.7425   -0.8056    0.0096 O   0  5  0  0  0  0  0  0  0  0  0  0
    1.6545    0.7580    0.3150 O   0  0  0  0  0  1  0  0  0  0  0  0
    2.9793    4.8192   -0.5474 C   0  0  0  0  0  0  0  0  0  0  0  0
    2.2301    5.6341   -0.4624 H   0  0  0  0  0  0  0  0  0  0  0  0
    3.6298    5.0537   -1.4137 H   0  0  0  0  0  0  0  0  0  0  0  0
    3.6104    4.8544    0.3650 H   0  0  0  0  0  0  0  0  0  0  0  0
    2.3098    3.4552   -0.7065 C   0  0  0  0  0  0  0  0  0  0  0  0
    3.0753    2.6583   -0.8103 H   0  0  0  0  0  0  0  0  0  0  0  0
    1.7095    3.4314   -1.6420 H   0  0  0  0  0  0  0  0  0  0  0  0
    1.3988    3.0952    0.4799 C   0  0  0  0  0  0  0  0  0  0  0  0
    2.0033    3.1037    1.4138 H   0  0  0  0  0  0  0  0  0  0  0  0
    0.5988    3.8537    0.5995 H   0  0  0  0  0  0  0  0  0  0  0  0
    0.7913    1.7133    0.3457 C   0  0  1  0  0  3  0  0  0  0  0  0
   -0.6073    1.5736    0.2490 C   0  0  0  0  0  0  0  0  0  0  0  0
   -1.1920    2.5002    0.2754 H   0  0  0  0  0  0  0  0  0  0  0  0
   -1.3029    0.3515    0.1045 C   0  0  0  0  0  0  0  0  0  0  0  0
   -2.7967    0.3296    0.0335 C   0  0  0  0  0  0  0  0  0  0  0  0
   -3.4341   -0.8586   -0.3896 C   0  0  0  0  0  0  0  0  0  0  0  0
   -2.8053   -1.7212   -0.6501 H   0  0  0  0  0  0  0  0  0  0  0  0
   -4.8292   -0.9296   -0.4757 C   0  0  0  0  0  0  0  0  0  0  0  0
   -5.3094   -1.8605   -0.8136 H   0  0  0  0  0  0  0  0  0  0  0  0
   -5.6146    0.1828   -0.1313 C   0  0  0  0  0  0  0  0  0  0  0  0
   -6.7119    0.1274   -0.1961 H   0  0  0  0  0  0  0  0  0  0  0  0
   -4.9937    1.3656    0.3018 C   0  0  0  0  0  0  0  0  0  0  0  0
   -5.6029    2.2373    0.5846 H   0  0  0  0  0  0  0  0  0  0  0  0
   -3.5973    1.4402    0.3826 C   0  0  0  0  0  0  0  0  0  0  0  0
   -3.1319    2.3683    0.7432 H   0  0  0  0  0  0  0  0  0  0  0  0
  1 16  1  0  0  0  0
  3  4  1  0  0  0  0
  3  6  1  0  0  0  0
  5  3  1  0  0  0  0
  7  3  1  0  0  0  0
  7 10  1  0  0  0  0
  8  7  1  0  0  0  0
  9  7  1  0  0  0  0
 10 12  1  0  0  0  0
 10 11  1  0  0  0  0
 13  2  1  6  0  0  0
 13 10  1  0  0  0  0
 14 15  1  0  0  0  0
 14 13  1  0  0  0  0
 16 14  2  0  0  0  0
 17 16  1  0  0  0  0
 17 26  1  0  0  0  0
 18 17  2  0  0  0  0
 19 18  1  0  0  0  0
 20 18  1  0  0  0  0
 20 22  2  0  0  0  0
 21 20  1  0  0  0  0
 22 24  1  0  0  0  0
 23 22  1  0  0  0  0
 24 26  2  0  0  0  0
 24 25  1  0  0  0  0
 26 27  1  0  0  0  0
M  CHG  1   1  -1
M  END
