3,7
q = -1.0, confidence = 0.09

 31 32  0  0  1  0  0  0  0  0999 V2000
   -3.0427   -2.1173   -0.0665 P   0  0  2  0  0  0  0  0  0  0  0  0
   -1.3337   -0.4316   -2.0835 P   0  0  2  0  0  0  0  0  0  0  0  0
   -1.8479   -2.5869    0.8034 O   0  0  0  0  0  1  0  0  0  0  0  0
   -4.2158   -1.7082    1.0836 O   0  0  0  0  0  0  0  0  0  0  0  0
   -3.7865   -1.9412    1.9325 H   0  0  0  0  0  0  0  0  0  0  0  0
   -3.6231   -3.0035   -1.1484 O   0  0  0  0  0  0  0  0  0  0  0  0
    0.0047   -0.5991   -1.3349 O   0  0  0  0  0  1  0  0  0  0  0  0
   -1.6599   -1.3762   -3.2380 O   0  0  0  0  0  0  0  0  0  0  0  0
   -1.4373    1.1360   -2.6947 O   0  0  0  0  0  0  0  0  0  0  0  0
   -1.3977    0.9772   -3.6604 H   0  0  0  0  0  0  0  0  0  0  0  0
   -2.2176    0.4465    0.3209 O   0  0  0  0  0  0  0  0  0  0  0  0
   -1.3565    0.0776    0.7103 H   0  0  0  0  0  0  0  0  0  0  0  0
   -4.1007    3.8529   -1.0719 N   0  0  0  0  0  0  0  0  0  0  0  0
   -4.0124    4.8189   -1.3834 H   0  0  0  0  0  0  0  0  0  0  0  0
   -4.4372    2.0973    0.2027 N   0  0  0  0  0  0  0  0  0  0  0  0
   -2.6458   -0.3965   -0.7319 C   0  0  2  0  0  0  0  0  0  0  0  0
   -3.9703    0.1614   -1.3434 C   0  0  0  0  0  0  0  0  0  0  0  0
   -3.9800   -0.0327   -2.4318 H   0  0  0  0  0  0  0  0  0  0  0  0
   -4.8510   -0.3700   -0.9259 H   0  0  0  0  0  0  0  0  0  0  0  0
   -4.1066    1.6113   -1.0731 C   0  0  0  0  0  0  0  0  0  0  0  0
   -3.8958    2.7246   -1.8509 C   0  0  0  0  0  0  0  0  0  0  0  0
   -3.5580    2.7747   -2.8877 H   0  0  0  0  0  0  0  0  0  0  0  0
   -4.4302    3.4826    0.1957 C   0  0  1  0  0  3  0  0  0  0  0  0
   -4.7188    4.2170    1.3584 C   0  0  0  0  0  0  0  0  0  0  0  0
   -4.7169    5.3147    1.3334 H   0  0  0  0  0  0  0  0  0  0  0  0
   -4.9896    3.4970    2.5180 C   0  0  0  0  0  0  0  0  0  0  0  0
   -5.2177    4.0340    3.4499 H   0  0  0  0  0  0  0  0  0  0  0  0
   -4.9615    2.0776    2.5092 C   0  0  0  0  0  0  0  0  0  0  0  0
   -5.1551    1.5092    3.4285 H   0  0  0  0  0  0  0  0  0  0  0  0
   -4.6724    1.3793    1.3521 C   0  0  0  0  0  0  0  0  0  0  0  0
   -4.5853    0.2785    1.2762 H   0  0  0  0  0  0  0  0  0  0  0  0
  1  6  2  6  0  0  0
  1  3  1  0  0  0  0
  1  4  1  0  0  0  0
  2  8  2  6  0  0  0
  2  7  1  0  0  0  0
  2 16  1  0  0  0  0
  4  5  1  0  0  0  0
  9  2  1  0  0  0  0
 10  9  1  0  0  0  0
 11 12  1  0  0  0  0
 13 23  1  0  0  0  0
 14 13  1  0  0  0  0
 15 30  1  0  0  0  0
 16  1  1  0  0  0  0
 16 11  1  1  0  0  0
 17 20  1  0  0  0  0
 17 19  1  0  0  0  0
 17 16  1  0  0  0  0
 18 17  1  0  0  0  0
 20 15  1  0  0  0  0
 21 20  2  0  0  0  0
 21 13  1  0  0  0  0
 22 21  1  0  0  0  0
 23 15  1  0  0  0  0
 23 24  1  1  0  0  0
 24 26  2  0  0  0  0
 25 24  1  0  0  0  0
 26 27  1  0  0  0  0
 28 26  1  0  0  0  0
 28 29  1  0  0  0  0
 30 28  2  0  0  0  0
 31 30  1  0  0  0  0
M  END
