2,3
q = -2.0, confidence = 0.74

 18 18  0  0  1  0  0  0  0  0999 V2000
   -2.9302    3.0668    0.1314 O   0  0  0  0  0  0  0  0  0  0  0  0
   -0.0906    1.7100    0.1734 O   0  5  0  0  0  0  0  0  0  0  0  0
   -0.5120   -0.9684   -0.4933 O   0  5  0  0  0  0  0  0  0  0  0  0
   -3.5875    0.9494   -0.4414 O   0  0  0  0  0  0  0  0  0  0  0  0
   -3.0026   -1.2480    1.6092 O   0  0  0  0  0  0  0  0  0  0  0  0
   -3.5223   -1.7944    2.2268 H   0  0  0  0  0  0  0  0  0  0  0  0
   -5.7492   -0.8102   -0.7959 O   0  0  0  0  0  0  0  0  0  0  0  0
   -5.4487    0.1022   -0.9911 H   0  0  0  0  0  0  0  0  0  0  0  0
   -2.6078    1.9200   -0.0927 C   0  0  0  0  0  0  0  0  0  0  0  0
   -1.3269    1.2218   -0.1058 C   0  0  0  0  0  0  0  0  0  0  0  0
   -1.5194   -0.0905   -0.4273 C   0  0  0  0  0  0  0  0  0  0  0  0
   -2.9810   -0.3509   -0.6296 C   0  0  1  0  0  0  0  0  0  0  0  0
   -3.2226   -0.6840   -1.6641 H   0  0  0  0  0  0  0  0  0  0  0  0
   -3.6081   -1.3729    0.3322 C   0  0  2  0  0  0  0  0  0  0  0  0
   -3.4075   -2.3802   -0.1134 H   0  0  0  0  0  0  0  0  0  0  0  0
   -5.1340   -1.1302    0.4320 C   0  0  0  0  0  0  0  0  0  0  0  0
   -5.6317   -2.0463    0.8224 H   0  0  0  0  0  0  0  0  0  0  0  0
   -5.2593   -0.3246    1.1941 H   0  0  0  0  0  0  0  0  0  0  0  0
  3 11  1  0  0  0  0
  4  9  1  0  0  0  0
  5  6  1  0  0  0  0
  7 16  1  0  0  0  0
  8  7  1  0  0  0  0
  9  1  2  0  0  0  0
 10  9  1  0  0  0  0
 10  2  1  0  0  0  0
 11 10  2  0  0  0  0
 12 13  1  6  0  0  0
 12  4  1  0  0  0  0
 12 11  1  0  0  0  0
 12 14  1  0  0  0  0
 14 15  1  6  0  0  0
 14 16  1  0  0  0  0
 14  5  1  0  0  0  0
 16 17  1  0  0  0  0
 16 18  1  0  0  0  0
M  CHG  2   2  -1   3  -1
M  END
