4,5
q = -1.0, confidence = 0.102

 23 22  0  0  1  0  0  0  0  0999 V2000
   -2.2274   -1.9214   -0.0796 P   0  0  1  0  0  0  0  0  0  0  0  0
   -2.6643    1.0182    0.7567 P   0  0  0  0  0  4  0  0  0  0  0  0
   -2.4157    0.7916    2.3141 O   0  0  0  0  0  0  0  0  0  0  0  0
   -1.3879    1.2743   -0.1027 O   0  0  0  0  0  1  0  0  0  0  0  0
   -1.0641   -1.2519   -0.9216 O   0  0  0  0  0  1  0  0  0  0  0  0
   -3.6786    2.2234    0.6728 O   0  0  0  0  0  0  0  0  0  0  0  0
   -3.5069   -0.5627    0.2164 C   0  0  2  0  0  0  0  0  0  0  0  0
   -4.4108   -0.9494    1.2380 O   0  0  0  0  0  0  0  0  0  0  0  0
   -5.5790    0.3357   -1.0872 C   0  0  0  0  0  0  0  0  0  0  0  0
   -4.2855   -0.4798   -1.1135 C   0  0  0  0  0  0  0  0  0  0  0  0
   -2.8335   -3.1926   -0.6021 O   0  0  0  0  0  0  0  0  0  0  0  0
   -1.6222   -2.1222    1.4777 O   0  0  0  0  0  0  0  0  0  0  0  0
   -5.3334    1.7879   -1.2186 N   0  0  0  0  0  0  0  0  0  0  0  0
   -6.2067    2.3231   -1.1230 H   0  0  0  0  0  0  0  0  0  0  0  0
   -4.3688    2.1346   -0.1508 H   0  0  0  0  0  0  0  0  0  0  0  0
   -4.9496    2.0106   -2.1480 H   0  0  0  0  0  0  0  0  0  0  0  0
   -3.5975   -0.1274   -1.9118 H   0  0  0  0  0  0  0  0  0  0  0  0
   -6.0833    0.1574   -0.1163 H   0  0  0  0  0  0  0  0  0  0  0  0
   -4.5442   -1.5286   -1.3691 H   0  0  0  0  0  0  0  0  0  0  0  0
   -6.2551   -0.0335   -1.8885 H   0  0  0  0  0  0  0  0  0  0  0  0
   -3.9227   -0.8324    2.0818 H   0  0  0  0  0  0  0  0  0  0  0  0
   -1.4462    0.4526    2.5934 H   0  0  0  0  0  0  0  0  0  0  0  0
   -1.6062   -3.0878    1.6419 H   0  0  0  0  0  0  0  0  0  0  0  0
  1  5  1  6  0  0  0
  1  7  1  0  0  0  0
  1 12  1  0  0  0  0
  2  3  1  0  0  0  0
  3 22  1  0  0  0  0
  4  2  1  0  0  0  0
  6  2  1  0  0  0  0
  7  2  1  0  0  0  0
  7  8  1  1  0  0  0
  8 21  1  0  0  0  0
  9 18  1  0  0  0  0
 10  9  1  0  0  0  0
 10  7  1  0  0  0  0
 11  1  2  0  0  0  0
 12 23  1  0  0  0  0
 13 14  1  0  0  0  0
 13  9  1  0  0  0  0
 15  6  1  0  0  0  0
 16 13  1  0  0  0  0
 17 10  1  0  0  0  0
 19 10  1  0  0  0  0
 20  9  1  0  0  0  0
M  END
