4,5
q = -1.0, confidence = 0.102

 23 22  0  0  1  0  0  0  0  0999 V2000
    2.2275    1.9216    0.0791 P   0  0  2  0  0  0  0  0  0  0  0  0
    2.6645   -1.0182   -0.7569 P   0  0  0  0  0  4  0  0  0  0  0  0
    2.4167   -0.7919   -2.3143 O   0  0  0  0  0  0  0  0  0  0  0  0
    1.3874   -1.2741    0.1017 O   0  0  0  0  0  1  0  0  0  0  0  0
    1.0638    1.2523    0.9206 O   0  0  0  0  0  1  0  0  0  0  0  0
    3.6785   -2.2235   -0.6720 O   0  0  0  0  0  0  0  0  0  0  0  0
    3.5069    0.5626   -0.2163 C   0  0  1  0  0  0  0  0  0  0  0  0
    4.4114    0.9490   -1.2375 O   0  0  0  0  0  0  0  0  0  0  0  0
    5.5780   -0.3363    1.0887 C   0  0  0  0  0  0  0  0  0  0  0  0
    4.2849    0.4798    1.1140 C   0  0  0  0  0  0  0  0  0  0  0  0
    2.8337    3.1926    0.6017 O   0  0  0  0  0  0  0  0  0  0  0  0
    1.6228    2.1227   -1.4784 O   0  0  0  0  0  0  0  0  0  0  0  0
    5.3317   -1.7884    1.2207 N   0  0  0  0  0  0  0  0  0  0  0  0
    6.2049   -2.3239    1.1258 H   0  0  0  0  0  0  0  0  0  0  0  0
    4.3678   -2.1350    0.1523 H   0  0  0  0  0  0  0  0  0  0  0  0
    4.9474   -2.0105    2.1501 H   0  0  0  0  0  0  0  0  0  0  0  0
    3.5963    0.1279    1.9121 H   0  0  0  0  0  0  0  0  0  0  0  0
    6.0829   -0.1587    0.1180 H   0  0  0  0  0  0  0  0  0  0  0  0
    4.5438    1.5286    1.3694 H   0  0  0  0  0  0  0  0  0  0  0  0
    6.2538    0.0330    1.8901 H   0  0  0  0  0  0  0  0  0  0  0  0
    3.9238    0.8320   -2.0815 H   0  0  0  0  0  0  0  0  0  0  0  0
    1.4472   -0.4530   -2.5942 H   0  0  0  0  0  0  0  0  0  0  0  0
    1.6074    3.0883   -1.6425 H   0  0  0  0  0  0  0  0  0  0  0  0
  1 11  2  1  0  0  0
  1  5  1  0  0  0  0
  2  6  1  0  0  0  0
  2  7  1  0  0  0  0
  2  4  1  0  0  0  0
  3  2  1  0  0  0  0
  6 15  1  0  0  0  0
  7  8  1  6  0  0  0
  7  1  1  0  0  0  0
  7 10  1  0  0  0  0
  9 10  1  0  0  0  0
  9 13  1  0  0  0  0
  9 20  1  0  0  0  0
 10 19  1  0  0  0  0
 10 17  1  0  0  0  0
 12  1  1  0  0  0  0
 13 16  1  0  0  0  0
 14 13  1  0  0  0  0
 18  9  1  0  0  0  0
 21  8  1  0  0  0  0
 22  3  1  0  0  0  0
 23 12  1  0  0  0  0
M  END
