7,8
q = -2.0, confidence = 0.858

 16 15  0  0  1  0  0  0  0  0999 V2000
    3.8538   -1.2635    0.3249 F   0  0  0  0  0  0  0  0  0  0  0  0
    2.4905   -1.2523    2.0276 F   0  0  0  0  0  0  0  0  0  0  0  0
    2.5045   -2.9504    0.6421 F   0  0  0  0  0  0  0  0  0  0  0  0
    2.4989    3.1756   -0.6235 F   0  0  0  0  0  0  0  0  0  0  0  0
    0.5303    3.4233   -1.5412 F   0  0  0  0  0  0  0  0  0  0  0  0
    0.7802    3.7320    0.6058 F   0  0  0  0  0  0  0  0  0  0  0  0
    0.3215   -1.2794    0.4369 O   0  0  0  0  0  1  0  0  0  0  0  0
   -0.4600    1.3829    0.0473 O   0  5  0  0  0  0  0  0  0  0  0  0
    1.6441   -1.4950   -1.4800 O   0  0  0  0  0  0  0  0  0  0  0  0
    1.5110   -0.9260   -0.1395 C   0  0  1  0  0  0  0  0  0  0  0  0
    1.7889    0.5445   -0.2906 C   0  0  0  0  0  0  0  0  0  0  0  0
    0.8372    1.5071   -0.1992 C   0  0  0  0  0  0  0  0  0  0  0  0
    2.6215   -1.5960    0.7372 C   0  0  0  0  0  0  0  0  0  0  0  0
    1.1856    2.9757   -0.4393 C   0  0  0  0  0  0  0  0  0  0  0  0
    2.8150    0.8339   -0.5461 H   0  0  0  0  0  0  0  0  0  0  0  0
    1.7534   -2.4634   -1.3626 H   0  0  0  0  0  0  0  0  0  0  0  0
  1 13  1  0  0  0  0
  3 13  1  0  0  0  0
  4 14  1  0  0  0  0
  5 14  1  0  0  0  0
  9 16  1  0  0  0  0
  9 10  1  0  0  0  0
 10  7  1  1  0  0  0
 10 13  1  0  0  0  0
 11 12  2  0  0  0  0
 11 10  1  0  0  0  0
 12  8  1  0  0  0  0
 13  2  1  0  0  0  0
 14 12  1  0  0  0  0
 14  6  1  0  0  0  0
 15 11  1  0  0  0  0
M  CHG  1   8  -1
M  END
