2,3
q = -2.0, confidence = 0.736

 23 22  0  0  1  0  0  0  0  0999 V2000
   -0.3872    3.7476    0.2834 O   0  5  0  0  0  0  0  0  0  0  0  0
    1.2546    2.2478   -0.0370 O   0  0  0  0  0  0  0  0  0  0  0  0
   -0.0181    0.2492    0.9947 O   0  0  0  0  0  1  0  0  0  0  0  0
   -1.8042    1.1560   -1.2299 O   0  0  0  0  0  0  0  0  0  0  0  0
   -2.6864    1.1899   -1.6766 H   0  0  0  0  0  0  0  0  0  0  0  0
   -2.2075   -1.0871    1.0347 O   0  0  0  0  0  0  0  0  0  0  0  0
   -1.2737   -0.7735    1.1948 H   0  0  0  0  0  0  0  0  0  0  0  0
   -4.4621    0.7151   -1.1843 O   0  0  0  0  0  0  0  0  0  0  0  0
   -5.0865    1.2216   -0.6288 H   0  0  0  0  0  0  0  0  0  0  0  0
   -4.5631   -2.5043    0.6325 O   0  0  0  0  0  0  0  0  0  0  0  0
   -3.7221   -2.3014    1.0950 H   0  0  0  0  0  0  0  0  0  0  0  0
    0.0365    2.6110    0.3590 C   0  0  0  0  0  0  0  0  0  0  0  0
   -0.7925    1.4373    0.9450 C   0  0  1  0  0  0  0  0  0  0  0  0
   -1.0767    1.7434    1.9804 H   0  0  0  0  0  0  0  0  0  0  0  0
   -2.1050    1.2616    0.1664 C   0  0  2  0  0  0  0  0  0  0  0  0
   -2.6812    2.1988    0.3313 H   0  0  0  0  0  0  0  0  0  0  0  0
   -2.9596    0.0680    0.6631 C   0  0  1  0  0  0  0  0  0  0  0  0
   -3.5335    0.4373    1.5513 H   0  0  0  0  0  0  0  0  0  0  0  0
   -3.9578   -0.3899   -0.4286 C   0  0  1  0  0  0  0  0  0  0  0  0
   -3.3663   -0.9933   -1.1492 H   0  0  0  0  0  0  0  0  0  0  0  0
   -5.0638   -1.2896    0.1338 C   0  0  0  0  0  0  0  0  0  0  0  0
   -5.6322   -0.7038    0.9080 H   0  0  0  0  0  0  0  0  0  0  0  0
   -5.7801   -1.5163   -0.6844 H   0  0  0  0  0  0  0  0  0  0  0  0
  1 12  1  0  0  0  0
  2 12  2  0  0  0  0
  4 15  1  0  0  0  0
  5  4  1  0  0  0  0
  6  7  1  0  0  0  0
  8  9  1  0  0  0  0
  8 19  1  0  0  0  0
 10 11  1  0  0  0  0
 12 13  1  0  0  0  0
 13  3  1  0  0  0  0
 13 14  1  1  0  0  0
 15 16  1  1  0  0  0
 15 17  1  0  0  0  0
 15 13  1  0  0  0  0
 17  6  1  0  0  0  0
 17 18  1  1  0  0  0
 19 20  1  6  0  0  0
 19 21  1  0  0  0  0
 19 17  1  0  0  0  0
 21 10  1  0  0  0  0
 21 22  1  0  0  0  0
 23 21  1  0  0  0  0
M  CHG  1   1  -1
M  END
