1,2
q = 0.0, confidence = 0.968

 21 20  0  0  1  0  0  0  0  0999 V2000
    0.4530    1.3420   -0.0758 O   0  0  0  0  0  1  0  0  0  0  0  0
    0.4525   -1.3407   -0.0847 O   0  0  0  0  0  1  0  0  0  0  0  0
    1.6788    1.2887   -0.1362 C   0  0  2  0  0  3  0  0  0  0  0  0
    2.4818   -0.0003    0.1411 C   0  0  0  0  0  0  0  0  0  0  0  0
    1.6785   -1.2880   -0.1417 C   0  0  1  0  0  3  0  0  0  0  0  0
    2.4319    2.5573   -0.4406 C   0  0  0  0  0  0  0  0  0  0  0  0
    2.7238   -0.0033    1.6854 C   0  0  0  0  0  0  0  0  0  0  0  0
    3.8305    0.0008   -0.6042 C   0  0  0  0  0  0  0  0  0  0  0  0
    2.4315   -2.5562   -0.4480 C   0  0  0  0  0  0  0  0  0  0  0  0
    3.2794    2.7185    0.2544 H   0  0  0  0  0  0  0  0  0  0  0  0
    1.7288    3.4072   -0.3939 H   0  0  0  0  0  0  0  0  0  0  0  0
    2.8574    2.4972   -1.4642 H   0  0  0  0  0  0  0  0  0  0  0  0
    3.3095   -0.8993    1.9729 H   0  0  0  0  0  0  0  0  0  0  0  0
    1.7592   -0.0046    2.2302 H   0  0  0  0  0  0  0  0  0  0  0  0
    3.3092    0.8918    1.9764 H   0  0  0  0  0  0  0  0  0  0  0  0
    4.4327   -0.8853   -0.3312 H   0  0  0  0  0  0  0  0  0  0  0  0
    4.4331    0.8855   -0.3278 H   0  0  0  0  0  0  0  0  0  0  0  0
    3.6966    0.0029   -1.7043 H   0  0  0  0  0  0  0  0  0  0  0  0
    3.2784   -2.7192    0.2474 H   0  0  0  0  0  0  0  0  0  0  0  0
    2.8579   -2.4941   -1.4711 H   0  0  0  0  0  0  0  0  0  0  0  0
    1.7281   -3.4059   -0.4038 H   0  0  0  0  0  0  0  0  0  0  0  0
  3  1  1  1  0  0  0
  3  4  1  0  0  0  0
  4  7  1  0  0  0  0
  5  2  1  1  0  0  0
  5  4  1  0  0  0  0
  6 11  1  0  0  0  0
  6  3  1  0  0  0  0
  6 10  1  0  0  0  0
  7 13  1  0  0  0  0
  7 15  1  0  0  0  0
  7 14  1  0  0  0  0
  8 16  1  0  0  0  0
  8 17  1  0  0  0  0
  8  4  1  0  0  0  0
  9 21  1  0  0  0  0
  9  5  1  0  0  0  0
  9 19  1  0  0  0  0
 12  6  1  0  0  0  0
 18  8  1  0  0  0  0
 20  9  1  0  0  0  0
M  END
