1,3
q = 0.0, confidence = 0.538

 33 36  0  0  1  0  0  0  0  0999 V2000
    0.6720    1.7473   -1.4433 O   0  0  0  0  0  1  0  0  0  0  0  0
    1.8458    3.0608   -0.0743 O   0  0  0  0  0  0  0  0  0  0  0  0
    1.4366   -1.0549   -1.8364 O   0  0  0  0  0  1  0  0  0  0  0  0
    3.4237   -1.7447   -1.0128 O   0  0  0  0  0  0  0  0  0  0  0  0
    1.1336   -2.9193    0.5284 O   0  0  0  0  0  0  0  0  0  0  0  0
    1.0564    2.8919   -1.1089 C   0  0  2  0  0  3  0  0  0  0  0  0
    0.6040    4.1244   -1.8258 C   0  0  0  0  0  0  0  0  0  0  0  0
    2.4919   -1.7303   -1.9347 C   0  0  1  0  0  3  0  0  0  0  0  0
    2.7399   -2.6034   -3.1274 C   0  0  0  0  0  0  0  0  0  0  0  0
    2.2131    1.8134    0.5840 B   0  0  1  0  0  0  0  0  0  0  0  0
    1.6688   -1.6948    0.9181 B   0  0  1  0  0  0  0  0  0  0  0  0
    1.6710    1.1633    2.0855 B   0  0  0  0  0  0  0  0  0  0  0  0
    3.4845    0.7635    0.0497 B   0  0  2  0  0  0  0  0  0  0  0  0
    3.1293   -0.9243    0.1886 B   0  0  2  0  0  0  0  0  0  0  0  0
    1.4291   -0.5462    2.2017 B   0  0  0  0  0  0  0  0  0  0  0  0
    3.4642    1.4907    1.7160 B   0  0  0  0  0  0  0  0  0  0  0  0
    3.0317   -1.4480    1.9403 B   0  0  0  0  0  0  0  0  0  0  0  0
    2.9910    0.1281    2.7609 B   0  0  1  0  0  0  0  0  0  0  0  0
    4.1546   -0.1379    1.4263 B   0  0  2  0  0  0  0  0  0  0  0  0
    1.6218   -3.6429    0.9646 H   0  0  0  0  0  0  0  0  0  0  0  0
    0.4044    3.8938   -2.8871 H   0  0  0  0  0  0  0  0  0  0  0  0
    1.3412    4.9403   -1.7244 H   0  0  0  0  0  0  0  0  0  0  0  0
   -0.3509    4.4501   -1.3609 H   0  0  0  0  0  0  0  0  0  0  0  0
    2.0386   -2.3475   -3.9397 H   0  0  0  0  0  0  0  0  0  0  0  0
    2.5765   -3.6593   -2.8294 H   0  0  0  0  0  0  0  0  0  0  0  0
    3.7898   -2.5102   -3.4632 H   0  0  0  0  0  0  0  0  0  0  0  0
    0.9676    1.8828    2.7680 H   0  0  0  0  0  0  0  0  0  0  0  0
    4.1035    1.1260   -0.9324 H   0  0  0  0  0  0  0  0  0  0  0  0
    0.5091   -0.9412    2.8890 H   0  0  0  0  0  0  0  0  0  0  0  0
    4.1383    2.4143    2.1189 H   0  0  0  0  0  0  0  0  0  0  0  0
    3.4664   -2.4406    2.4937 H   0  0  0  0  0  0  0  0  0  0  0  0
    3.2803    0.1434    3.9377 H   0  0  0  0  0  0  0  0  0  0  0  0
    5.3407   -0.3430    1.5611 H   0  0  0  0  0  0  0  0  0  0  0  0
  5 20  1  0  0  0  0
  6  1  1  1  0  0  0
  6  2  1  0  0  0  0
  7 22  1  0  0  0  0
  7 23  1  0  0  0  0
  7  6  1  0  0  0  0
  8  3  1  1  0  0  0
  8  4  1  0  0  0  0
  9 25  1  0  0  0  0
  9  8  1  0  0  0  0
 10  2  1  6  0  0  0
 10 16  1  0  0  0  0
 10 12  1  0  0  0  0
 11  5  1  6  0  0  0
 11 17  1  0  0  0  0
 11 15  1  0  0  0  0
 12 15  1  0  0  0  0
 12 27  1  0  0  0  0
 13 28  1  6  0  0  0
 13 14  1  0  0  0  0
 13 10  1  0  0  0  0
 13 19  1  0  0  0  0
 14  4  1  6  0  0  0
 14 11  1  0  0  0  0
 14 19  1  0  0  0  0
 15 29  1  0  0  0  0
 16 30  1  0  0  0  0
 16 18  1  0  0  0  0
 17 31  1  0  0  0  0
 17 18  1  0  0  0  0
 18 32  1  1  0  0  0
 19 33  1  1  0  0  0
 19 18  1  0  0  0  0
 21  7  1  0  0  0  0
 24  9  1  0  0  0  0
 26  9  1  0  0  0  0
M  END
