4,5
q = -2.0, confidence = 0.85

 21 21  0  0  1  0  0  0  0  0999 V2000
    3.5624   -1.7135   -0.7554 C   0  0  0  0  0  0  0  0  0  0  0  0
    3.4332   -2.6359   -1.3602 H   0  0  0  0  0  0  0  0  0  0  0  0
    3.9061   -0.9059   -1.4448 H   0  0  0  0  0  0  0  0  0  0  0  0
   -0.1627   -1.1134   -0.6586 O   0  0  0  0  0  1  0  0  0  0  0  0
    0.1344    1.3491   -1.2403 O   0  0  0  0  0  1  0  0  0  0  0  0
    2.3417   -0.2171    0.7728 O   0  0  0  0  0  0  0  0  0  0  0  0
    4.4048    1.8865    0.5260 C   0  0  0  0  0  0  0  0  0  0  0  0
    4.6551    1.1057    1.2778 H   0  0  0  0  0  0  0  0  0  0  0  0
    3.9602    2.7590    1.0574 H   0  0  0  0  0  0  0  0  0  0  0  0
    5.3317    2.2066    0.0165 H   0  0  0  0  0  0  0  0  0  0  0  0
    2.2054   -1.3397   -0.1533 C   0  0  1  0  0  0  0  0  0  0  0  0
    1.8410   -2.1923    0.4557 H   0  0  0  0  0  0  0  0  0  0  0  0
    1.1459   -0.8650   -1.1511 C   0  0  2  0  0  0  0  0  0  0  0  0
    1.2642   -1.3621   -2.1397 H   0  0  0  0  0  0  0  0  0  0  0  0
    1.3576    0.6887   -1.2309 C   0  0  2  0  0  0  0  0  0  0  0  0
    1.9219    0.9810   -2.1449 H   0  0  0  0  0  0  0  0  0  0  0  0
    2.2782    1.0006   -0.0153 C   0  0  2  0  0  0  0  0  0  0  0  0
    1.8350    1.7764    0.6547 H   0  0  0  0  0  0  0  0  0  0  0  0
    3.5240    1.3942   -0.4769 O   0  0  0  0  0  0  0  0  0  0  0  0
    4.4960   -1.9993    0.2565 O   0  0  0  0  0  0  0  0  0  0  0  0
    4.5176   -1.2143    0.8368 H   0  0  0  0  0  0  0  0  0  0  0  0
  1 11  1  0  0  0  0
  1 20  1  0  0  0  0
  2  1  1  0  0  0  0
  3  1  1  0  0  0  0
  5 15  1  0  0  0  0
  7  9  1  0  0  0  0
  7  8  1  0  0  0  0
 10  7  1  0  0  0  0
 11 12  1  1  0  0  0
 11  6  1  0  0  0  0
 13 14  1  6  0  0  0
 13  4  1  0  0  0  0
 13 11  1  0  0  0  0
 15 16  1  6  0  0  0
 15 13  1  0  0  0  0
 15 17  1  0  0  0  0
 17 18  1  1  0  0  0
 17  6  1  0  0  0  0
 19 17  1  0  0  0  0
 19  7  1  0  0  0  0
 20 21  1  0  0  0  0
M  END
