1,2
q = -2.0, confidence = 0.962

 63 67  0  0  1  0  0  0  0  0999 V2000
    1.3306    0.9682   -0.6888 O   0  0  0  0  0  1  0  0  0  0  0  0
   -1.1998    1.1966    0.5387 O   0  0  0  0  0  1  0  0  0  0  0  0
    0.8614   -2.3983    0.6345 O   0  0  0  0  0  0  0  0  0  0  0  0
   -1.2057   -2.3424   -0.3553 O   0  0  0  0  0  0  0  0  0  0  0  0
    0.5807   -1.0262    0.4289 C   0  0  2  0  0  0  0  0  0  0  0  0
    0.4690   -0.5036    1.4061 H   0  0  0  0  0  0  0  0  0  0  0  0
   -0.7559   -0.9999   -0.3463 C   0  0  2  0  0  0  0  0  0  0  0  0
   -0.5752   -0.6718   -1.3937 H   0  0  0  0  0  0  0  0  0  0  0  0
   -0.2784   -3.2067    0.3214 C   0  0  0  0  0  0  0  0  0  0  0  0
   -0.8939   -3.7429    1.6131 C   0  0  0  0  0  0  0  0  0  0  0  0
   -1.1219   -2.9132    2.3073 H   0  0  0  0  0  0  0  0  0  0  0  0
   -0.1847   -4.4371    2.1047 H   0  0  0  0  0  0  0  0  0  0  0  0
   -1.8335   -4.2860    1.3962 H   0  0  0  0  0  0  0  0  0  0  0  0
    0.1430   -4.3118   -0.6415 C   0  0  0  0  0  0  0  0  0  0  0  0
    0.5497   -3.8650   -1.5675 H   0  0  0  0  0  0  0  0  0  0  0  0
   -0.7286   -4.9465   -0.8930 H   0  0  0  0  0  0  0  0  0  0  0  0
    0.9230   -4.9464   -0.1781 H   0  0  0  0  0  0  0  0  0  0  0  0
    1.7688   -0.3233   -0.3255 C   0  0  0  0  0  0  0  0  0  0  0  0
    2.9990   -0.1645    0.5830 C   0  0  0  0  0  0  0  0  0  0  0  0
    4.0446    0.6606    0.1200 C   0  0  0  0  0  0  0  0  0  0  0  0
    3.9521    1.1239   -0.8737 H   0  0  0  0  0  0  0  0  0  0  0  0
    5.1752    0.8970    0.9106 C   0  0  0  0  0  0  0  0  0  0  0  0
    5.9812    1.5457    0.5341 H   0  0  0  0  0  0  0  0  0  0  0  0
    5.2812    0.3074    2.1827 C   0  0  0  0  0  0  0  0  0  0  0  0
    6.1682    0.4924    2.8077 H   0  0  0  0  0  0  0  0  0  0  0  0
    4.2530   -0.5260    2.6444 C   0  0  0  0  0  0  0  0  0  0  0  0
    4.3316   -1.0026    3.6338 H   0  0  0  0  0  0  0  0  0  0  0  0
    3.1176   -0.7640    1.8496 C   0  0  0  0  0  0  0  0  0  0  0  0
    2.3345   -1.4438    2.2134 H   0  0  0  0  0  0  0  0  0  0  0  0
    2.1342   -1.1079   -1.5913 C   0  0  0  0  0  0  0  0  0  0  0  0
    1.6720   -0.6794   -2.8493 C   0  0  0  0  0  0  0  0  0  0  0  0
    1.0980    0.2559   -2.9102 H   0  0  0  0  0  0  0  0  0  0  0  0
    1.9615   -1.4204   -4.0066 C   0  0  0  0  0  0  0  0  0  0  0  0
    1.5928   -1.0718   -4.9836 H   0  0  0  0  0  0  0  0  0  0  0  0
    2.7241   -2.5947   -3.9197 C   0  0  0  0  0  0  0  0  0  0  0  0
    2.9546   -3.1747   -4.8265 H   0  0  0  0  0  0  0  0  0  0  0  0
    3.2030   -3.0184   -2.6688 C   0  0  0  0  0  0  0  0  0  0  0  0
    3.8120   -3.9324   -2.5925 H   0  0  0  0  0  0  0  0  0  0  0  0
    2.9120   -2.2802   -1.5131 C   0  0  0  0  0  0  0  0  0  0  0  0
    3.2883   -2.6129   -0.5358 H   0  0  0  0  0  0  0  0  0  0  0  0
   -1.8473   -0.0207    0.2452 C   0  0  0  0  0  0  0  0  0  0  0  0
   -2.9476    0.2523   -0.7930 C   0  0  0  0  0  0  0  0  0  0  0  0
   -3.6972    1.4394   -0.6735 C   0  0  0  0  0  0  0  0  0  0  0  0
   -3.4718    2.1273    0.1541 H   0  0  0  0  0  0  0  0  0  0  0  0
   -4.6980    1.7497   -1.6030 C   0  0  0  0  0  0  0  0  0  0  0  0
   -5.2706    2.6841   -1.4980 H   0  0  0  0  0  0  0  0  0  0  0  0
   -4.9692    0.8731   -2.6673 C   0  0  0  0  0  0  0  0  0  0  0  0
   -5.7529    1.1169   -3.4007 H   0  0  0  0  0  0  0  0  0  0  0  0
   -4.2348   -0.3153   -2.7870 C   0  0  0  0  0  0  0  0  0  0  0  0
   -4.4415   -1.0109   -3.6149 H   0  0  0  0  0  0  0  0  0  0  0  0
   -3.2288   -0.6269   -1.8563 C   0  0  0  0  0  0  0  0  0  0  0  0
   -2.6684   -1.5682   -1.9522 H   0  0  0  0  0  0  0  0  0  0  0  0
   -2.4442   -0.5919    1.5369 C   0  0  0  0  0  0  0  0  0  0  0  0
   -1.9070   -0.2259    2.7859 C   0  0  0  0  0  0  0  0  0  0  0  0
   -1.0981    0.5169    2.8218 H   0  0  0  0  0  0  0  0  0  0  0  0
   -2.4048   -0.7895    3.9715 C   0  0  0  0  0  0  0  0  0  0  0  0
   -1.9722   -0.4929    4.9394 H   0  0  0  0  0  0  0  0  0  0  0  0
   -3.4538   -1.7203    3.9239 C   0  0  0  0  0  0  0  0  0  0  0  0
   -3.8475   -2.1603    4.8528 H   0  0  0  0  0  0  0  0  0  0  0  0
   -4.0044   -2.0780    2.6827 C   0  0  0  0  0  0  0  0  0  0  0  0
   -4.8337   -2.8004    2.6352 H   0  0  0  0  0  0  0  0  0  0  0  0
   -3.5039   -1.5190    1.4987 C   0  0  0  0  0  0  0  0  0  0  0  0
   -3.9387   -1.8041    0.5307 H   0  0  0  0  0  0  0  0  0  0  0  0
  1 18  1  0  0  0  0
  4  7  1  0  0  0  0
  4  9  1  0  0  0  0
  5  3  1  0  0  0  0
  5  6  1  1  0  0  0
  7  8  1  6  0  0  0
  7 41  1  0  0  0  0
  7  5  1  0  0  0  0
  9  3  1  0  0  0  0
  9 10  1  0  0  0  0
 10 12  1  0  0  0  0
 10 11  1  0  0  0  0
 13 10  1  0  0  0  0
 14 17  1  0  0  0  0
 14  9  1  0  0  0  0
 15 14  1  0  0  0  0
 16 14  1  0  0  0  0
 18  5  1  0  0  0  0
 18 19  1  0  0  0  0
 19 28  1  0  0  0  0
 20 19  2  0  0  0  0
 20 22  1  0  0  0  0
 21 20  1  0  0  0  0
 22 24  2  0  0  0  0
 23 22  1  0  0  0  0
 24 26  1  0  0  0  0
 24 25  1  0  0  0  0
 26 27  1  0  0  0  0
 28 29  1  0  0  0  0
 28 26  2  0  0  0  0
 30 39  1  0  0  0  0
 30 18  1  0  0  0  0
 31 30  2  0  0  0  0
 32 31  1  0  0  0  0
 33 35  2  0  0  0  0
 33 31  1  0  0  0  0
 34 33  1  0  0  0  0
 35 37  1  0  0  0  0
 36 35  1  0  0  0  0
 37 38  1  0  0  0  0
 37 39  2  0  0  0  0
 39 40  1  0  0  0  0
 41  2  1  0  0  0  0
 41 53  1  0  0  0  0
 42 43  1  0  0  0  0
 42 41  1  0  0  0  0
 43 44  1  0  0  0  0
 45 46  1  0  0  0  0
 45 43  2  0  0  0  0
 47 45  1  0  0  0  0
 48 47  1  0  0  0  0
 49 47  2  0  0  0  0
 49 51  1  0  0  0  0
 50 49  1  0  0  0  0
 51 42  2  0  0  0  0
 52 51  1  0  0  0  0
 53 54  1  0  0  0  0
 54 55  1  0  0  0  0
 54 56  2  0  0  0  0
 56 57  1  0  0  0  0
 58 56  1  0  0  0  0
 58 59  1  0  0  0  0
 60 58  2  0  0  0  0
 61 60  1  0  0  0  0
 62 53  2  0  0  0  0
 62 60  1  0  0  0  0
 63 62  1  0  0  0  0
M  END
