1,2
q = -2.0, confidence = 0.546

  7  6  0  0  0  0  0  0  0  0999 V2000
    2.4046   -0.0477   -0.0000 O   0  5  0  0  0  0  0  0  0  0  0  0
    1.0091    2.1930    0.0001 O   0  0  0  0  0  1  0  0  0  0  0  0
    4.4079    0.9756    0.0000 O   0  0  0  0  0  0  0  0  0  0  0  0
    3.1971    1.0484    0.0000 C   0  0  0  0  0  0  0  0  0  0  0  0
    2.4159    2.3649    0.0001 C   0  0  0  0  0  0  0  0  0  0  0  0
    2.7291    2.9501   -0.8951 H   0  0  0  0  0  0  0  0  0  0  0  0
    2.7291    2.9500    0.8953 H   0  0  0  0  0  0  0  0  0  0  0  0
  1  4  1  0  0  0  0
  2  5  1  0  0  0  0
  3  4  2  0  0  0  0
  4  5  1  0  0  0  0
  5  7  1  0  0  0  0
  6  5  1  0  0  0  0
M  CHG  1   1  -1
M  END
