1,14
q = -2.0, confidence = 0.622

 16 16  0  0  0  0  0  0  0  0999 V2000
   -1.2830    0.5993    0.7969 O   0  5  0  0  0  0  0  0  0  0  0  0
   -2.4003   -0.0068    0.4385 C   0  0  0  0  0  0  0  0  0  0  0  0
   -3.6999    0.4722    0.7688 C   0  0  0  0  0  0  0  0  0  0  0  0
   -3.8800    1.7399    1.4847 N   0  0  0  0  0  0  0  0  0  0  0  0
   -4.9799    1.9510    2.0022 O   0  0  0  0  0  0  0  0  0  0  0  0
   -2.9360    2.5413    1.5214 O   0  0  0  0  0  0  0  0  0  0  0  0
   -4.8543   -0.2486    0.4194 C   0  0  0  0  0  0  0  0  0  0  0  0
   -4.7033   -1.4369   -0.2924 C   0  0  0  0  0  0  0  0  0  0  0  0
   -5.9095   -2.1902   -0.6743 N   0  0  0  0  0  0  0  0  0  0  0  0
   -5.7501   -3.2413   -1.3035 O   0  0  0  0  0  0  0  0  0  0  0  0
   -7.0062   -1.7306   -0.3446 O   0  0  0  0  0  0  0  0  0  0  0  0
   -3.4411   -1.9446   -0.6668 C   0  0  0  0  0  0  0  0  0  0  0  0
   -2.2890   -1.2359   -0.3141 C   0  0  0  0  0  0  0  0  0  0  0  0
   -1.0603   -1.6535   -0.6542 O   0  5  0  0  0  0  0  0  0  0  0  0
   -5.8460    0.1242    0.6976 H   0  0  0  0  0  0  0  0  0  0  0  0
   -3.3764   -2.8823   -1.2324 H   0  0  0  0  0  0  0  0  0  0  0  0
  2  3  1  0  0  0  0
  2  1  1  0  0  0  0
  3  4  1  0  0  0  0
  4  6  2  0  0  0  0
  4  5  2  0  0  0  0
  7 15  1  0  0  0  0
  7  3  2  0  0  0  0
  8  7  1  0  0  0  0
  9 11  2  0  0  0  0
  9  8  1  0  0  0  0
 10  9  2  0  0  0  0
 12 13  1  0  0  0  0
 12  8  2  0  0  0  0
 13  2  2  0  0  0  0
 14 13  1  0  0  0  0
 16 12  1  0  0  0  0
M  CHG  2   1  -1  14  -1
M  END
