2,3
q = -1.0, confidence = 0.02

 14 14  0  0  1  0  0  0  0  0999 V2000
    1.4316   -3.4571   -0.2585 Br  0  0  0  0  0  0  0  0  0  0  0  0
   -0.5048   -1.2872   -0.3373 O   0  5  0  0  0  0  0  0  0  0  0  0
   -0.5048    1.2873   -0.3370 O   0  5  0  0  0  0  0  0  0  0  0  0
    0.6436   -0.7498   -0.2418 C   0  0  0  0  0  0  0  0  0  0  0  0
    0.6436    0.7499   -0.2417 C   0  0  0  0  0  0  0  0  0  0  0  0
    1.8152    1.5819   -0.1830 C   0  0  0  0  0  0  0  0  0  0  0  0
    1.8152   -1.5819   -0.1831 C   0  0  1  0  0  3  0  0  0  0  0  0
    3.1709    1.2653   -0.0688 C   0  0  0  0  0  0  0  0  0  0  0  0
    3.8501    2.1282   -0.0206 H   0  0  0  0  0  0  0  0  0  0  0  0
    3.1708   -1.2653   -0.0688 C   0  0  0  0  0  0  0  0  0  0  0  0
    3.8500   -2.1283   -0.0206 H   0  0  0  0  0  0  0  0  0  0  0  0
    3.7724   -0.0000   -0.0108 C   0  0  0  0  0  0  0  0  0  0  0  0
    5.6916   -0.0001    0.1622 Br  0  0  0  0  0  0  0  0  0  0  0  0
    1.4317    3.4572   -0.2583 Br  0  0  0  0  0  0  0  0  0  0  0  0
  2  4  1  0  0  0  0
  3  5  1  0  0  0  0
  4  5  2  0  0  0  0
  4  7  1  0  0  0  0
  5  6  1  0  0  0  0
  6  8  2  0  0  0  0
  7  1  1  1  0  0  0
  7 10  1  0  0  0  0
  8  9  1  0  0  0  0
  8 12  1  0  0  0  0
 10 11  1  0  0  0  0
 10 12  2  0  0  0  0
 12 13  1  0  0  0  0
 14  6  1  0  0  0  0
M  CHG  2   2  -1   3  -1
M  END
