1,2
q = -1.0, confidence = 0.014

 18 18  0  0  1  0  0  0  0  0999 V2000
    0.1859    1.0584   -0.0001 O   0  5  0  0  0  0  0  0  0  0  0  0
   -0.2471   -1.5801    0.0000 O   0  5  0  0  0  0  0  0  0  0  0  0
    3.6021   -0.1588    0.0000 N   0  0  0  0  0  0  0  0  0  0  0  0
    1.2290    0.2584   -0.0000 C   0  0  0  0  0  0  0  0  0  0  0  0
    2.5500    0.7446    0.0001 C   0  0  2  0  0  3  0  0  0  0  0  0
    3.3857   -1.5074   -0.0000 C   0  0  0  0  0  0  0  0  0  0  0  0
    4.2847   -2.1377   -0.0001 H   0  0  0  0  0  0  0  0  0  0  0  0
    2.1069   -2.0396   -0.0001 C   0  0  0  0  0  0  0  0  0  0  0  0
    1.9575   -3.1276   -0.0001 H   0  0  0  0  0  0  0  0  0  0  0  0
    0.9856   -1.1715   -0.0000 C   0  0  0  0  0  0  0  0  0  0  0  0
    2.8176    2.2163    0.0000 C   0  0  0  0  0  0  0  0  0  0  0  0
    1.8413    2.7338    0.0017 H   0  0  0  0  0  0  0  0  0  0  0  0
    3.3846    2.5466   -0.8962 H   0  0  0  0  0  0  0  0  0  0  0  0
    3.3878    2.5463    0.8943 H   0  0  0  0  0  0  0  0  0  0  0  0
    4.9751    0.3446    0.0001 C   0  0  0  0  0  0  0  0  0  0  0  0
    5.1680    0.9625    0.8988 H   0  0  0  0  0  0  0  0  0  0  0  0
    5.1676    0.9637   -0.8980 H   0  0  0  0  0  0  0  0  0  0  0  0
    5.6736   -0.5100   -0.0006 H   0  0  0  0  0  0  0  0  0  0  0  0
  1  4  1  0  0  0  0
  3 15  1  0  0  0  0
  3  5  1  0  0  0  0
  4 10  2  0  0  0  0
  4  5  1  0  0  0  0
  5 11  1  6  0  0  0
  6  3  1  0  0  0  0
  7  6  1  0  0  0  0
  8  6  2  0  0  0  0
  8 10  1  0  0  0  0
  9  8  1  0  0  0  0
 10  2  1  0  0  0  0
 11 12  1  0  0  0  0
 11 14  1  0  0  0  0
 13 11  1  0  0  0  0
 15 16  1  0  0  0  0
 17 15  1  0  0  0  0
 18 15  1  0  0  0  0
M  CHG  2   1  -1   2  -1
M  END
