1,2
q = -1.0, confidence = 0.0

 19 19  0  0  1  0  0  0  0  0999 V2000
   -1.9264   -0.7754    0.3868 O   0  0  0  0  0  1  0  0  0  0  0  0
   -0.5631    0.5443   -1.2850 O   0  0  0  0  0  1  0  0  0  0  0  0
   -2.5628    0.1675   -0.3650 N   0  0  0  0  0  0  0  0  0  0  0  0
   -3.9408    0.3359   -0.0564 C   0  0  0  0  0  0  0  0  0  0  0  0
   -4.3458    0.2449    1.2898 C   0  0  0  0  0  0  0  0  0  0  0  0
   -5.6982    0.4063    1.6114 C   0  0  0  0  0  0  0  0  0  0  0  0
   -6.6474    0.6543    0.6049 C   0  0  0  0  0  0  0  0  0  0  0  0
   -6.2387    0.7189   -0.7358 C   0  0  0  0  0  0  0  0  0  0  0  0
   -4.8892    0.5440   -1.0753 C   0  0  0  0  0  0  0  0  0  0  0  0
   -1.7746    0.8900   -1.1983 C   0  0  1  0  0  3  0  0  0  0  0  0
   -2.2967    2.0759   -1.9574 C   0  0  0  0  0  0  0  0  0  0  0  0
   -3.5895    0.0385    2.0588 H   0  0  0  0  0  0  0  0  0  0  0  0
   -6.0148    0.3381    2.6630 H   0  0  0  0  0  0  0  0  0  0  0  0
   -7.7088    0.7808    0.8649 H   0  0  0  0  0  0  0  0  0  0  0  0
   -6.9790    0.8825   -1.5332 H   0  0  0  0  0  0  0  0  0  0  0  0
   -4.5784    0.5391   -2.1288 H   0  0  0  0  0  0  0  0  0  0  0  0
   -2.5639    1.7842   -2.9935 H   0  0  0  0  0  0  0  0  0  0  0  0
   -1.4717    2.8094   -2.0252 H   0  0  0  0  0  0  0  0  0  0  0  0
   -3.1798    2.5388   -1.4815 H   0  0  0  0  0  0  0  0  0  0  0  0
  3  4  1  0  0  0  0
  3  1  1  0  0  0  0
  4  5  1  0  0  0  0
  5  6  2  0  0  0  0
  5 12  1  0  0  0  0
  6 13  1  0  0  0  0
  7 14  1  0  0  0  0
  7  6  1  0  0  0  0
  8  7  2  0  0  0  0
  9  8  1  0  0  0  0
  9  4  2  0  0  0  0
 10  2  1  1  0  0  0
 10  3  1  0  0  0  0
 11 19  1  0  0  0  0
 11 10  1  0  0  0  0
 15  8  1  0  0  0  0
 16  9  1  0  0  0  0
 17 11  1  0  0  0  0
 18 11  1  0  0  0  0
M  END
