5,22
q = -2.0, confidence = 0.844

 34 33  0  0  0  0  0  0  0  0999 V2000
   -0.9880   -4.0429    0.3216 O   0  5  0  0  0  0  0  0  0  0  0  0
    0.7824   -1.2350    1.8495 N   0  0  0  0  0  0  0  0  0  0  0  0
    3.0055    0.5407    1.3572 O   0  0  0  0  0  0  0  0  0  0  0  0
    4.4188   -1.2252    1.3714 O   0  0  0  0  0  0  0  0  0  0  0  0
    0.0841   -2.2765   -0.5911 O   0  0  0  0  0  0  0  0  0  0  0  0
    3.1894   -0.6612    1.4497 C   0  0  0  0  0  0  0  0  0  0  0  0
    0.6374   -0.4252    3.0654 C   0  0  0  0  0  0  0  0  0  0  0  0
    1.5225    0.2326    3.1420 H   0  0  0  0  0  0  0  0  0  0  0  0
    0.6290   -1.0667    3.9816 H   0  0  0  0  0  0  0  0  0  0  0  0
    2.1381   -1.7320    1.6502 C   0  0  0  0  0  0  0  0  0  0  0  0
    2.1512   -2.3256    0.7111 H   0  0  0  0  0  0  0  0  0  0  0  0
    2.4761   -2.4098    2.4751 H   0  0  0  0  0  0  0  0  0  0  0  0
   -0.3715   -2.9776    0.4067 C   0  0  0  0  0  0  0  0  0  0  0  0
   -0.1717   -2.3539    1.8050 C   0  0  0  0  0  0  0  0  0  0  0  0
   -1.1733   -1.9788    2.0939 H   0  0  0  0  0  0  0  0  0  0  0  0
    0.1024   -3.1640    2.5225 H   0  0  0  0  0  0  0  0  0  0  0  0
    5.0337   -0.5116    1.0884 H   0  0  0  0  0  0  0  0  0  0  0  0
    0.9883    4.0428    0.3220 O   0  5  0  0  0  0  0  0  0  0  0  0
   -0.7822    1.2348    1.8496 N   0  0  0  0  0  0  0  0  0  0  0  0
   -3.0052   -0.5409    1.3570 O   0  0  0  0  0  0  0  0  0  0  0  0
   -4.4186    1.2249    1.3716 O   0  0  0  0  0  0  0  0  0  0  0  0
   -0.0842    2.2767   -0.5909 O   0  0  0  0  0  0  0  0  0  0  0  0
   -3.1892    0.6610    1.4498 C   0  0  0  0  0  0  0  0  0  0  0  0
   -0.6372    0.4248    3.0654 C   0  0  0  0  0  0  0  0  0  0  0  0
   -1.5223   -0.2329    3.1420 H   0  0  0  0  0  0  0  0  0  0  0  0
   -0.6288    1.0663    3.9816 H   0  0  0  0  0  0  0  0  0  0  0  0
   -2.1379    1.7318    1.6505 C   0  0  0  0  0  0  0  0  0  0  0  0
   -2.1510    2.3256    0.7115 H   0  0  0  0  0  0  0  0  0  0  0  0
   -2.4759    2.4093    2.4756 H   0  0  0  0  0  0  0  0  0  0  0  0
    0.3716    2.9776    0.4069 C   0  0  0  0  0  0  0  0  0  0  0  0
    0.1719    2.3536    1.8052 C   0  0  0  0  0  0  0  0  0  0  0  0
    1.1735    1.9785    2.0940 H   0  0  0  0  0  0  0  0  0  0  0  0
   -0.1022    3.1636    2.5228 H   0  0  0  0  0  0  0  0  0  0  0  0
   -5.0335    0.5115    1.0884 H   0  0  0  0  0  0  0  0  0  0  0  0
  1 13  1  0  0  0  0
  2  7  1  0  0  0  0
  3  6  2  0  0  0  0
  4  6  1  0  0  0  0
  5 13  2  0  0  0  0
  6 10  1  0  0  0  0
  7 24  1  0  0  0  0
  7  8  1  0  0  0  0
  7  9  1  0  0  0  0
 10  2  1  0  0  0  0
 10 12  1  0  0  0  0
 11 10  1  0  0  0  0
 13 14  1  0  0  0  0
 14  2  1  0  0  0  0
 14 15  1  0  0  0  0
 14 16  1  0  0  0  0
 17  4  1  0  0  0  0
 18 30  1  0  0  0  0
 19 24  1  0  0  0  0
 20 23  2  0  0  0  0
 21 23  1  0  0  0  0
 22 30  2  0  0  0  0
 23 27  1  0  0  0  0
 24 25  1  0  0  0  0
 24 26  1  0  0  0  0
 27 19  1  0  0  0  0
 27 29  1  0  0  0  0
 28 27  1  0  0  0  0
 30 31  1  0  0  0  0
 31 19  1  0  0  0  0
 31 32  1  0  0  0  0
 31 33  1  0  0  0  0
 34 21  1  0  0  0  0
M  CHG  2   1  -1  18  -1
M  END
