1,2
q = -2.0, confidence = 0.8

 15 14  0  0  1  0  0  0  0  0999 V2000
    0.9146   -2.3124   -1.4391 O   0  5  0  0  0  0  0  0  0  0  0  0
   -1.7094   -1.7779   -1.5222 O   0  0  0  0  0  1  0  0  0  0  0  0
   -3.1629   -3.2682    0.2216 O   0  0  0  0  0  0  0  0  0  0  0  0
   -3.2841   -2.4911   -0.3713 H   0  0  0  0  0  0  0  0  0  0  0  0
   -0.1003   -5.1727    0.8091 O   0  0  0  0  0  0  0  0  0  0  0  0
    0.3538   -5.1817   -0.0663 H   0  0  0  0  0  0  0  0  0  0  0  0
    0.6123   -4.5093   -1.7766 O   0  0  0  0  0  0  0  0  0  0  0  0
   -1.3420   -3.1320   -1.3264 C   0  0  1  0  0  0  0  0  0  0  0  0
   -1.9152   -3.7701   -2.0390 H   0  0  0  0  0  0  0  0  0  0  0  0
    0.1534   -3.3851   -1.5584 C   0  0  0  0  0  0  0  0  0  0  0  0
   -1.7763   -3.5333    0.1099 C   0  0  2  0  0  0  0  0  0  0  0  0
   -1.1913   -2.8722    0.8064 H   0  0  0  0  0  0  0  0  0  0  0  0
   -1.4735   -4.9753    0.5272 C   0  0  0  0  0  0  0  0  0  0  0  0
   -2.0483   -5.1757    1.4567 H   0  0  0  0  0  0  0  0  0  0  0  0
   -1.8559   -5.6811   -0.2491 H   0  0  0  0  0  0  0  0  0  0  0  0
  2  8  1  0  0  0  0
  4  3  1  0  0  0  0
  6  5  1  0  0  0  0
  7 10  2  0  0  0  0
  8  9  1  6  0  0  0
  8 11  1  0  0  0  0
 10  1  1  0  0  0  0
 10  8  1  0  0  0  0
 11  3  1  0  0  0  0
 11 13  1  0  0  0  0
 11 12  1  1  0  0  0
 13  5  1  0  0  0  0
 13 14  1  0  0  0  0
 15 13  1  0  0  0  0
M  CHG  1   1  -1
M  END
