4,6
q = -2.0, confidence = 0.802

 14 14  0  0  0  0  0  0  0  0999 V2000
   -0.9691    3.3630    0.4855 Cl  0  0  0  0  0  0  0  0  0  0  0  0
   -5.3413    0.2082   -0.0141 Cl  0  0  0  0  0  0  0  0  0  0  0  0
   -3.5345   -2.2848   -0.5258 Cl  0  0  0  0  0  0  0  0  0  0  0  0
    0.7439   -1.4719   -0.9034 O   0  5  0  0  0  0  0  0  0  0  0  0
   -0.7528   -2.9663   -0.1481 O   0  0  0  0  0  0  0  0  0  0  0  0
    0.5076    0.9258    0.0611 O   0  5  0  0  0  0  0  0  0  0  0  0
   -0.4535   -1.8114   -0.3904 C   0  0  0  0  0  0  0  0  0  0  0  0
   -1.3584   -0.6202   -0.1739 C   0  0  0  0  0  0  0  0  0  0  0  0
   -0.7872    0.6798    0.0496 C   0  0  0  0  0  0  0  0  0  0  0  0
   -1.6696    1.7834    0.2487 C   0  0  0  0  0  0  0  0  0  0  0  0
   -3.0514    1.6272    0.2351 C   0  0  0  0  0  0  0  0  0  0  0  0
   -3.7089    2.4919    0.3926 H   0  0  0  0  0  0  0  0  0  0  0  0
   -3.6091    0.3573    0.0071 C   0  0  0  0  0  0  0  0  0  0  0  0
   -2.7746   -0.7612   -0.2016 C   0  0  0  0  0  0  0  0  0  0  0  0
  2 13  1  0  0  0  0
  3 14  1  0  0  0  0
  4  7  1  0  0  0  0
  7  8  1  0  0  0  0
  7  5  2  0  0  0  0
  8  9  1  0  0  0  0
  9  6  1  0  0  0  0
  9 10  2  0  0  0  0
 10  1  1  0  0  0  0
 11 10  1  0  0  0  0
 11 12  1  0  0  0  0
 13 11  2  0  0  0  0
 14  8  2  0  0  0  0
 14 13  1  0  0  0  0
M  CHG  2   4  -1   6  -1
M  END
