16,17
q = -1.0, confidence = 0.006

 17 17  0  0  0  0  0  0  0  0999 V2000
    3.6177   -1.7544   -0.3201 C   0  0  0  0  0  0  0  0  0  0  0  0
    3.9419   -2.8077    0.5582 C   0  0  0  0  0  0  0  0  0  0  0  0
    3.1847   -3.1235    1.2905 H   0  0  0  0  0  0  0  0  0  0  0  0
    2.2768   -1.0896   -0.2413 C   0  0  0  0  0  3  0  0  0  0  0  0
    5.1952   -3.4244    0.4888 C   0  0  0  0  0  0  0  0  0  0  0  0
    5.4376   -4.2465    1.1817 H   0  0  0  0  0  0  0  0  0  0  0  0
    4.5713   -1.3351   -1.2660 C   0  0  0  0  0  0  0  0  0  0  0  0
    4.3040   -0.5126   -1.9454 H   0  0  0  0  0  0  0  0  0  0  0  0
    6.1597   -3.0120   -0.4571 C   0  0  0  0  0  0  0  0  0  0  0  0
    5.8252   -1.9563   -1.3302 C   0  0  0  0  0  0  0  0  0  0  0  0
    6.5653   -1.6191   -2.0739 H   0  0  0  0  0  0  0  0  0  0  0  0
    7.4992   -3.6999   -0.5379 C   0  0  0  0  0  0  0  0  0  0  0  0
    7.3987   -4.7200   -0.9672 H   0  0  0  0  0  0  0  0  0  0  0  0
    7.9559   -3.8204    0.4658 H   0  0  0  0  0  0  0  0  0  0  0  0
    8.2107   -3.1397   -1.1752 H   0  0  0  0  0  0  0  0  0  0  0  0
    2.0048   -0.1252   -1.0387 O   0  5  0  0  0  0  0  0  0  0  0  0
    1.4393   -1.4797    0.6339 O   0  5  0  0  0  0  0  0  0  0  0  0
  1  4  1  0  0  0  0
  1  2  1  0  0  0  0
  2  3  1  0  0  0  0
  4 17  1  0  0  0  0
  5  2  2  0  0  0  0
  5  6  1  0  0  0  0
  7  1  2  0  0  0  0
  8  7  1  0  0  0  0
  9  5  1  0  0  0  0
 10  7  1  0  0  0  0
 10  9  2  0  0  0  0
 11 10  1  0  0  0  0
 12  9  1  0  0  0  0
 12 14  1  0  0  0  0
 13 12  1  0  0  0  0
 15 12  1  0  0  0  0
 16  4  1  0  0  0  0
M  CHG  2  16  -1  17  -1
M  END
