1,2
q = -1.0, confidence = 0.014

 22 21  0  0  1  0  0  0  0  0999 V2000
    0.6085    2.6540    0.6539 O   0  0  0  0  0  1  0  0  0  0  0  0
   -1.8741    1.4254    0.2408 O   0  5  0  0  0  0  0  0  0  0  0  0
    0.5572    4.8998    0.5589 O   0  0  0  0  0  0  0  0  0  0  0  0
   -3.5997    2.8500    0.0097 O   0  0  0  0  0  0  0  0  0  0  0  0
   -0.0877    3.7109    0.4907 C   0  0  2  0  0  3  0  0  0  0  0  0
   -2.2714    2.6382    0.1748 C   0  0  0  0  0  0  0  0  0  0  0  0
    1.9811    4.8696    0.7882 C   0  0  0  0  0  0  0  0  0  0  0  0
    2.7685    4.5732   -0.4794 C   0  0  0  0  0  0  0  0  0  0  0  0
   -4.4386    1.6848   -0.0810 C   0  0  0  0  0  0  0  0  0  0  0  0
   -5.8540    2.1575   -0.3460 C   0  0  0  0  0  0  0  0  0  0  0  0
   -1.4758    3.7960    0.2544 C   0  0  0  0  0  0  0  0  0  0  0  0
   -1.9451    4.7811    0.1592 H   0  0  0  0  0  0  0  0  0  0  0  0
    2.2107    5.8822    1.1758 H   0  0  0  0  0  0  0  0  0  0  0  0
    2.2113    4.1223    1.5744 H   0  0  0  0  0  0  0  0  0  0  0  0
   -4.0696    1.0195   -0.8889 H   0  0  0  0  0  0  0  0  0  0  0  0
   -4.3681    1.1040    0.8646 H   0  0  0  0  0  0  0  0  0  0  0  0
    3.8550    4.6709   -0.2792 H   0  0  0  0  0  0  0  0  0  0  0  0
    2.4998    5.2831   -1.2874 H   0  0  0  0  0  0  0  0  0  0  0  0
    2.5817    3.5389   -0.8266 H   0  0  0  0  0  0  0  0  0  0  0  0
   -6.5355    1.2869   -0.4215 H   0  0  0  0  0  0  0  0  0  0  0  0
   -5.9090    2.7251   -1.2963 H   0  0  0  0  0  0  0  0  0  0  0  0
   -6.2165    2.8156    0.4687 H   0  0  0  0  0  0  0  0  0  0  0  0
  3  7  1  0  0  0  0
  4  6  1  0  0  0  0
  5  3  1  0  0  0  0
  5  1  1  1  0  0  0
  6  2  1  0  0  0  0
  6 11  2  0  0  0  0
  7 13  1  0  0  0  0
  7 14  1  0  0  0  0
  8 17  1  0  0  0  0
  8  7  1  0  0  0  0
  9  4  1  0  0  0  0
  9 16  1  0  0  0  0
 10  9  1  0  0  0  0
 10 22  1  0  0  0  0
 11  5  1  0  0  0  0
 12 11  1  0  0  0  0
 15  9  1  0  0  0  0
 18  8  1  0  0  0  0
 19  8  1  0  0  0  0
 20 10  1  0  0  0  0
 21 10  1  0  0  0  0
M  CHG  1   2  -1
M  END
