19,20
q = -1.0, confidence = 0.016

 20 20  0  0  1  0  0  0  0  0999 V2000
   -2.5987    1.7026   -0.1739 N   0  0  0  0  0  0  0  0  0  0  0  0
   -3.7993    1.0378   -0.1014 N   0  0  0  0  0  0  0  0  0  0  0  0
   -3.5114   -0.2558   -0.1086 C   0  0  0  0  0  0  0  0  0  0  0  0
   -2.0781   -0.4688   -0.1801 C   0  0  0  0  0  0  0  0  0  0  0  0
   -1.5231    0.8601   -0.2168 C   0  0  0  0  0  0  0  0  0  0  0  0
   -1.2938   -1.6421   -0.2660 C   0  0  1  0  0  3  0  0  0  0  0  0
   -2.5581    3.1437   -0.1823 C   0  0  0  0  0  0  0  0  0  0  0  0
   -3.0990    3.5445    0.6979 H   0  0  0  0  0  0  0  0  0  0  0  0
   -3.0261    3.5492   -1.1031 H   0  0  0  0  0  0  0  0  0  0  0  0
   -1.4975    3.4523   -0.1396 H   0  0  0  0  0  0  0  0  0  0  0  0
   -4.6214   -1.2546   -0.0179 C   0  0  0  0  0  0  0  0  0  0  0  0
   -5.5803   -0.7125    0.0815 H   0  0  0  0  0  0  0  0  0  0  0  0
   -4.5034   -1.9248    0.8583 H   0  0  0  0  0  0  0  0  0  0  0  0
   -4.6787   -1.9003   -0.9186 H   0  0  0  0  0  0  0  0  0  0  0  0
   -1.9306   -3.0082   -0.3577 C   0  0  0  0  0  0  0  0  0  0  0  0
   -1.1461   -3.7665   -0.5294 H   0  0  0  0  0  0  0  0  0  0  0  0
   -2.6837   -3.0561   -1.1675 H   0  0  0  0  0  0  0  0  0  0  0  0
   -2.4514   -3.2434    0.5928 H   0  0  0  0  0  0  0  0  0  0  0  0
   -0.0143   -1.6413   -0.2780 O   0  0  0  0  0  1  0  0  0  0  0  0
   -0.3167    1.2882   -0.3205 O   0  5  0  0  0  0  0  0  0  0  0  0
  1  2  1  0  0  0  0
  3  2  2  0  0  0  0
  3 11  1  0  0  0  0
  4  3  1  0  0  0  0
  5  4  2  0  0  0  0
  5  1  1  0  0  0  0
  6 19  1  6  0  0  0
  6  4  1  0  0  0  0
  7  1  1  0  0  0  0
  7 10  1  0  0  0  0
  7  8  1  0  0  0  0
  9  7  1  0  0  0  0
 11 12  1  0  0  0  0
 11 13  1  0  0  0  0
 14 11  1  0  0  0  0
 15  6  1  0  0  0  0
 15 18  1  0  0  0  0
 16 15  1  0  0  0  0
 17 15  1  0  0  0  0
 20  5  1  0  0  0  0
M  CHG  1  20  -1
M  END
