1,3
q = -1.0, confidence = 0.008

 35 35  0  0  1  0  0  0  0  0999 V2000
   -0.1406   -1.0954   -1.5984 O   0  0  0  0  0  1  0  0  0  0  0  0
   -2.2826   -1.8635   -1.4293 O   0  0  0  0  0  0  0  0  0  0  0  0
   -0.1260   -1.5576    1.1581 O   0  0  0  0  0  1  0  0  0  0  0  0
   -2.3105   -2.1523    0.9630 O   0  0  0  0  0  0  0  0  0  0  0  0
   -1.9832    0.1060    0.0590 O   0  0  0  0  0  0  0  0  0  0  0  0
   -4.0643   -0.8984   -0.1437 O   0  0  0  0  0  0  0  0  0  0  0  0
   -1.1234   -1.7532   -2.0189 C   0  0  1  0  0  3  0  0  0  0  0  0
   -1.0141   -2.4978   -3.3232 C   0  0  0  0  0  0  0  0  0  0  0  0
   -1.7515   -2.0892   -4.0436 H   0  0  0  0  0  0  0  0  0  0  0  0
    0.0044   -2.4087   -3.7382 H   0  0  0  0  0  0  0  0  0  0  0  0
   -1.2754   -3.5636   -3.1690 H   0  0  0  0  0  0  0  0  0  0  0  0
   -1.1180   -2.2602    1.4735 C   0  0  2  0  0  3  0  0  0  0  0  0
   -0.9741   -3.3246    2.5283 C   0  0  0  0  0  0  0  0  0  0  0  0
   -1.3408   -4.2938    2.1365 H   0  0  0  0  0  0  0  0  0  0  0  0
    0.0759   -3.4145    2.8562 H   0  0  0  0  0  0  0  0  0  0  0  0
   -1.6149   -3.0677    3.3963 H   0  0  0  0  0  0  0  0  0  0  0  0
   -2.9514    1.1699   -0.2141 C   0  0  0  0  0  0  0  0  0  0  0  0
   -2.9945    1.4334   -1.7245 C   0  0  0  0  0  0  0  0  0  0  0  0
   -3.3676    0.5450   -2.2695 H   0  0  0  0  0  0  0  0  0  0  0  0
   -3.6566    2.2905   -1.9577 H   0  0  0  0  0  0  0  0  0  0  0  0
   -1.9729    1.6675   -2.0741 H   0  0  0  0  0  0  0  0  0  0  0  0
   -2.5588    2.4264    0.5515 C   0  0  0  0  0  0  0  0  0  0  0  0
   -1.6503    2.8741    0.1070 H   0  0  0  0  0  0  0  0  0  0  0  0
   -3.3777    3.1717    0.4954 H   0  0  0  0  0  0  0  0  0  0  0  0
   -2.3443    2.2019    1.6112 H   0  0  0  0  0  0  0  0  0  0  0  0
   -4.2582    0.4540    0.2985 C   0  0  0  0  0  0  0  0  0  0  0  0
   -5.5470    0.9897   -0.3216 C   0  0  0  0  0  0  0  0  0  0  0  0
   -6.4128    0.4388    0.0957 H   0  0  0  0  0  0  0  0  0  0  0  0
   -5.6830    2.0666   -0.0950 H   0  0  0  0  0  0  0  0  0  0  0  0
   -5.5544    0.8487   -1.4178 H   0  0  0  0  0  0  0  0  0  0  0  0
   -4.3618    0.4716    1.8328 C   0  0  0  0  0  0  0  0  0  0  0  0
   -3.4067    0.1609    2.2983 H   0  0  0  0  0  0  0  0  0  0  0  0
   -4.6350    1.4731    2.2204 H   0  0  0  0  0  0  0  0  0  0  0  0
   -5.1447   -0.2489    2.1396 H   0  0  0  0  0  0  0  0  0  0  0  0
   -2.6747   -1.1734   -0.1371 B   0  0  0  0  0  0  0  0  0  0  0  0
  2 35  1  0  0  0  0
  4 12  1  0  0  0  0
  6 35  1  0  0  0  0
  6 26  1  0  0  0  0
  7  1  1  6  0  0  0
  7  2  1  0  0  0  0
  8 11  1  0  0  0  0
  8  7  1  0  0  0  0
  9  8  1  0  0  0  0
 10  8  1  0  0  0  0
 12  3  1  1  0  0  0
 12 13  1  0  0  0  0
 13 15  1  0  0  0  0
 13 16  1  0  0  0  0
 14 13  1  0  0  0  0
 17  5  1  0  0  0  0
 17 26  1  0  0  0  0
 17 22  1  0  0  0  0
 18 17  1  0  0  0  0
 19 18  1  0  0  0  0
 20 18  1  0  0  0  0
 21 18  1  0  0  0  0
 22 25  1  0  0  0  0
 23 22  1  0  0  0  0
 24 22  1  0  0  0  0
 26 31  1  0  0  0  0
 27 29  1  0  0  0  0
 27 28  1  0  0  0  0
 27 26  1  0  0  0  0
 30 27  1  0  0  0  0
 31 34  1  0  0  0  0
 31 33  1  0  0  0  0
 31 32  1  0  0  0  0
 35  5  1  0  0  0  0
 35  4  1  0  0  0  0
M  END
