1,2
q = 0.0, confidence = 0.826

 32 32  0  0  1  0  0  0  0  0999 V2000
   -1.9075   -0.0421   -0.8245 O   0  5  0  0  0  0  0  0  0  0  0  0
    0.0561   -1.8208   -0.9250 O   0  0  0  0  0  1  0  0  0  0  0  0
   -6.8501   -0.4537    0.4007 O   0  0  0  0  0  0  0  0  0  0  0  0
   -0.0924   -4.0394    0.1366 C   0  0  0  0  0  0  0  0  0  0  0  0
   -0.6479   -2.5057   -0.0572 C   0  0  2  0  0  0  0  0  0  0  0  0
   -2.0446   -2.1969    0.1881 C   0  0  0  0  0  0  0  0  0  0  0  0
   -2.5546   -0.9304   -0.1423 C   0  0  0  0  0  0  0  0  0  0  0  0
   -3.9122   -0.4979    0.3849 C   0  0  0  0  0  0  0  0  0  0  0  0
   -4.8032    0.0970   -0.7123 C   0  0  0  0  0  0  0  0  0  0  0  0
   -6.1307    0.6151   -0.1848 C   0  0  0  0  0  0  0  0  0  0  0  0
   -8.0787   -0.0536    0.9483 C   0  0  0  0  0  0  0  0  0  0  0  0
    1.0234   -4.3979   -0.8221 C   0  0  0  0  0  0  0  0  0  0  0  0
   -1.1408   -5.1172    0.3167 C   0  0  0  0  0  0  0  0  0  0  0  0
    0.1673   -3.0939    1.2248 C   0  0  0  0  0  0  0  0  0  0  0  0
   -2.6489   -2.8501    0.8313 H   0  0  0  0  0  0  0  0  0  0  0  0
   -3.7373    0.2797    1.1637 H   0  0  0  0  0  0  0  0  0  0  0  0
   -4.4315   -1.3424    0.8787 H   0  0  0  0  0  0  0  0  0  0  0  0
   -4.9990   -0.6713   -1.4908 H   0  0  0  0  0  0  0  0  0  0  0  0
   -4.2577    0.9261   -1.2080 H   0  0  0  0  0  0  0  0  0  0  0  0
   -5.9560    1.4244    0.5721 H   0  0  0  0  0  0  0  0  0  0  0  0
   -8.5685   -0.9490    1.3792 H   0  0  0  0  0  0  0  0  0  0  0  0
   -7.9542    0.7070    1.7596 H   0  0  0  0  0  0  0  0  0  0  0  0
   -8.7620    0.3877    0.1800 H   0  0  0  0  0  0  0  0  0  0  0  0
    1.5996   -5.2497   -0.4022 H   0  0  0  0  0  0  0  0  0  0  0  0
    0.6156   -4.7093   -1.8046 H   0  0  0  0  0  0  0  0  0  0  0  0
    1.7014   -3.5421   -0.9846 H   0  0  0  0  0  0  0  0  0  0  0  0
   -0.6403   -6.0428    0.6737 H   0  0  0  0  0  0  0  0  0  0  0  0
   -1.9129   -4.8507    1.0616 H   0  0  0  0  0  0  0  0  0  0  0  0
   -1.6429   -5.3533   -0.6425 H   0  0  0  0  0  0  0  0  0  0  0  0
   -0.4078   -3.1682    2.1598 H   0  0  0  0  0  0  0  0  0  0  0  0
    1.1514   -2.6048    1.2822 H   0  0  0  0  0  0  0  0  0  0  0  0
   -6.7249    1.0777   -1.0139 H   0  0  0  0  0  0  0  0  0  0  0  0
  1  7  1  0  0  0  0
  3 11  1  0  0  0  0
  4 13  1  0  0  0  0
  4 14  1  0  0  0  0
  5  2  1  6  0  0  0
  5  4  1  0  0  0  0
  5  6  1  0  0  0  0
  5 14  1  0  0  0  0
  6 15  1  0  0  0  0
  7  6  2  0  0  0  0
  7  8  1  0  0  0  0
  8 17  1  0  0  0  0
  8 16  1  0  0  0  0
  9 10  1  0  0  0  0
  9  8  1  0  0  0  0
 10  3  1  0  0  0  0
 10 20  1  0  0  0  0
 11 21  1  0  0  0  0
 11 22  1  0  0  0  0
 12 24  1  0  0  0  0
 12  4  1  0  0  0  0
 13 27  1  0  0  0  0
 13 28  1  0  0  0  0
 14 31  1  0  0  0  0
 14 30  1  0  0  0  0
 18  9  1  0  0  0  0
 19  9  1  0  0  0  0
 23 11  1  0  0  0  0
 25 12  1  0  0  0  0
 26 12  1  0  0  0  0
 29 13  1  0  0  0  0
 32 10  1  0  0  0  0
M  CHG  1   1  -1
M  END
