1,4
q = -2.0, confidence = 0.512

  6  5  0  0  0  0  0  0  0  0999 V2000
   -0.9616    0.0621    1.9266 O   0  0  0  0  0  1  0  0  0  0  0  0
   -2.2680    0.1749    2.3226 B   0  0  0  0  0  0  0  0  0  0  0  0
   -1.7465    0.3720    4.1688 H   0  0  0  0  0  0  0  0  0  0  0  0
   -2.9720   -0.0596    0.0527 O   0  0  0  0  0  1  0  0  0  0  0  0
   -3.3482    0.1531    1.4579 O   0  0  0  0  0  0  0  0  0  0  0  0
   -2.5776    0.3434    3.6624 O   0  0  0  0  0  0  0  0  0  0  0  0
  1  2  1  0  0  0  0
  2  6  1  0  0  0  0
  4  5  1  0  0  0  0
  5  2  1  0  0  0  0
  6  3  1  0  0  0  0
M  END
