3,4
q = -2.0, confidence = 0.596

 12 11  0  0  0  0  0  0  0  0999 V2000
   -3.6129   -2.8428    0.1554 O   0  5  0  0  0  0  0  0  0  0  0  0
   -3.7591    1.3839   -0.8979 O   0  5  0  0  0  0  0  0  0  0  0  0
   -1.5338   -2.0993   -0.1004 O   0  0  0  0  0  0  0  0  0  0  0  0
   -1.6693    0.6354   -0.9373 O   0  0  0  0  0  0  0  0  0  0  0  0
   -2.9241    0.5842   -0.4972 C   0  0  0  0  0  0  0  0  0  0  0  0
   -3.2581   -0.4803    0.5721 C   0  0  0  0  0  0  0  0  0  0  0  0
   -2.6144   -0.2137    1.4443 H   0  0  0  0  0  0  0  0  0  0  0  0
   -2.8236   -1.9104    0.1765 C   0  0  0  0  0  0  0  0  0  0  0  0
   -4.7285   -0.4312    0.9698 C   0  0  0  0  0  0  0  0  0  0  0  0
   -4.9336   -1.1430    1.7916 H   0  0  0  0  0  0  0  0  0  0  0  0
   -5.3642   -0.7159    0.1106 H   0  0  0  0  0  0  0  0  0  0  0  0
   -5.0123    0.5924    1.2786 H   0  0  0  0  0  0  0  0  0  0  0  0
  1  8  1  0  0  0  0
  2  5  1  0  0  0  0
  3  8  2  0  0  0  0
  4  5  2  0  0  0  0
  5  6  1  0  0  0  0
  6  9  1  0  0  0  0
  6  7  1  0  0  0  0
  8  6  1  0  0  0  0
  9 12  1  0  0  0  0
  9 10  1  0  0  0  0
 11  9  1  0  0  0  0
M  CHG  2   1  -1   2  -1
M  END
