2,4
q = 0.0, confidence = 0.996

 40 42  0  0  1  0  0  0  0  0999 V2000
   -0.5800   -1.2106   -1.2615 S   0  0  0  0  0  0  0  0  0  0  0  0
    0.2762   -1.7625   -0.1807 O   0  0  0  0  0  1  0  0  0  0  0  0
   -0.1841   -1.2790   -2.6721 O   0  0  0  0  0  1  0  0  0  0  0  0
    1.2886    0.8338   -0.9310 O   0  0  0  0  0  1  0  0  0  0  0  0
   -0.9398    0.4908   -0.8393 N   0  0  0  0  0  0  0  0  0  0  0  0
   -3.1028   -0.5932   -0.4567 C   0  0  2  0  0  0  0  0  0  0  0  0
   -2.3619    0.7750   -0.7074 C   0  0  1  0  0  0  0  0  0  0  0  0
   -2.8119    1.6390    0.5064 C   0  0  0  0  0  0  0  0  0  0  0  0
   -3.9282    0.7786    1.1324 C   0  0  1  0  0  0  0  0  0  0  0  0
   -5.0861    0.6685    0.1050 C   0  0  0  0  0  0  0  0  0  0  0  0
   -4.5436   -0.3406   -0.9563 C   0  0  0  0  0  0  0  0  0  0  0  0
   -3.3017   -0.6454    1.1047 C   0  0  0  0  0  0  0  0  0  0  0  0
   -2.0159   -0.8019    1.9226 C   0  0  0  0  0  0  0  0  0  0  0  0
   -4.2607   -1.7593    1.5576 C   0  0  0  0  0  0  0  0  0  0  0  0
   -2.3292   -1.7330   -1.0938 C   0  0  0  0  0  0  0  0  0  0  0  0
    0.1348    1.3307   -0.8439 C   0  0  1  0  0  3  0  0  0  0  0  0
   -0.0679    2.7771   -0.7360 C   0  0  0  0  0  0  0  0  0  0  0  0
    0.9751    3.5577   -0.3585 C   0  0  0  0  0  0  0  0  0  0  0  0
    0.9272    5.0311   -0.1703 C   0  0  0  0  0  0  0  0  0  0  0  0
   -2.7192    1.2095   -1.6666 H   0  0  0  0  0  0  0  0  0  0  0  0
   -1.9693    1.7910    1.2066 H   0  0  0  0  0  0  0  0  0  0  0  0
   -3.1756    2.6354    0.1879 H   0  0  0  0  0  0  0  0  0  0  0  0
   -4.2451    1.1334    2.1322 H   0  0  0  0  0  0  0  0  0  0  0  0
   -6.0144    0.2962    0.5790 H   0  0  0  0  0  0  0  0  0  0  0  0
   -5.3290    1.6549   -0.3382 H   0  0  0  0  0  0  0  0  0  0  0  0
   -5.1274   -1.2808   -0.9726 H   0  0  0  0  0  0  0  0  0  0  0  0
   -4.5485    0.0629   -1.9885 H   0  0  0  0  0  0  0  0  0  0  0  0
   -2.2350   -0.6317    2.9964 H   0  0  0  0  0  0  0  0  0  0  0  0
   -1.6111   -1.8299    1.8350 H   0  0  0  0  0  0  0  0  0  0  0  0
   -1.1891   -0.1255    1.6460 H   0  0  0  0  0  0  0  0  0  0  0  0
   -3.8408   -2.7582    1.3166 H   0  0  0  0  0  0  0  0  0  0  0  0
   -4.3739   -1.7213    2.6593 H   0  0  0  0  0  0  0  0  0  0  0  0
   -5.2739   -1.7044    1.1190 H   0  0  0  0  0  0  0  0  0  0  0  0
   -2.3197   -2.6644   -0.4959 H   0  0  0  0  0  0  0  0  0  0  0  0
   -2.6296   -1.9523   -2.1360 H   0  0  0  0  0  0  0  0  0  0  0  0
   -1.0670    3.1995   -0.9217 H   0  0  0  0  0  0  0  0  0  0  0  0
    1.9340    3.0453   -0.1586 H   0  0  0  0  0  0  0  0  0  0  0  0
    1.2082    5.2910    0.8733 H   0  0  0  0  0  0  0  0  0  0  0  0
    1.6870    5.5262   -0.8131 H   0  0  0  0  0  0  0  0  0  0  0  0
   -0.0671    5.4643   -0.3925 H   0  0  0  0  0  0  0  0  0  0  0  0
  1 15  1  0  0  0  0
  1  5  1  0  0  0  0
  1  2  1  0  0  0  0
  3  1  1  0  0  0  0
  5  7  1  0  0  0  0
  6 15  1  6  0  0  0
  6 12  1  0  0  0  0
  7 20  1  6  0  0  0
  7  6  1  0  0  0  0
  7  8  1  0  0  0  0
  8  9  1  0  0  0  0
  8 21  1  0  0  0  0
  9 23  1  1  0  0  0
 10 24  1  0  0  0  0
 10  9  1  0  0  0  0
 11  6  1  0  0  0  0
 11 10  1  0  0  0  0
 12  9  1  0  0  0  0
 12 14  1  0  0  0  0
 12 13  1  0  0  0  0
 13 28  1  0  0  0  0
 14 32  1  0  0  0  0
 15 34  1  0  0  0  0
 16  4  1  1  0  0  0
 16  5  1  0  0  0  0
 16 17  1  0  0  0  0
 17 18  2  0  0  0  0
 18 19  1  0  0  0  0
 18 37  1  0  0  0  0
 19 38  1  0  0  0  0
 22  8  1  0  0  0  0
 25 10  1  0  0  0  0
 26 11  1  0  0  0  0
 27 11  1  0  0  0  0
 29 13  1  0  0  0  0
 30 13  1  0  0  0  0
 31 14  1  0  0  0  0
 33 14  1  0  0  0  0
 35 15  1  0  0  0  0
 36 17  1  0  0  0  0
 39 19  1  0  0  0  0
 40 19  1  0  0  0  0
M  END
