1,2
q = -2.0, confidence = 0.794

 37 39  0  0  1  0  0  0  0  0999 V2000
    0.2429   -1.0181   -1.2653 O   0  0  0  0  0  1  0  0  0  0  0  0
   -1.3949   -1.8573    0.6847 O   0  5  0  0  0  0  0  0  0  0  0  0
   -0.0928    0.1797   -0.6068 N   0  0  0  0  0  0  0  0  0  0  0  0
   -1.5074    0.6075   -0.9137 C   0  0  1  0  0  0  0  0  0  0  0  0
   -1.4632    1.0679   -1.9248 H   0  0  0  0  0  0  0  0  0  0  0  0
   -2.4922   -0.5455   -0.9953 C   0  0  0  0  0  0  0  0  0  0  0  0
   -2.4289   -1.6886   -0.1568 C   0  0  0  0  0  0  0  0  0  0  0  0
   -3.4424   -2.6685   -0.2113 C   0  0  0  0  0  0  0  0  0  0  0  0
   -3.3494   -3.5422    0.4492 H   0  0  0  0  0  0  0  0  0  0  0  0
   -4.5184   -2.5199   -1.0927 C   0  0  0  0  0  0  0  0  0  0  0  0
   -5.3030   -3.2908   -1.1291 H   0  0  0  0  0  0  0  0  0  0  0  0
   -4.5907   -1.3958   -1.9323 C   0  0  0  0  0  0  0  0  0  0  0  0
   -5.4305   -1.2758   -2.6321 H   0  0  0  0  0  0  0  0  0  0  0  0
   -3.5815   -0.4250   -1.8766 C   0  0  0  0  0  0  0  0  0  0  0  0
   -3.6389    0.4615   -2.5283 H   0  0  0  0  0  0  0  0  0  0  0  0
   -1.9465    1.6817    0.0695 C   0  0  0  0  0  0  0  0  0  0  0  0
   -2.0893    3.0120   -0.3652 C   0  0  0  0  0  0  0  0  0  0  0  0
   -1.8789    3.2623   -1.4170 H   0  0  0  0  0  0  0  0  0  0  0  0
   -2.4783    4.0182    0.5319 C   0  0  0  0  0  0  0  0  0  0  0  0
   -2.5861    5.0552    0.1794 H   0  0  0  0  0  0  0  0  0  0  0  0
   -2.7217    3.6999    1.8765 C   0  0  0  0  0  0  0  0  0  0  0  0
   -3.0224    4.4872    2.5846 H   0  0  0  0  0  0  0  0  0  0  0  0
   -2.5815    2.3727    2.3162 C   0  0  0  0  0  0  0  0  0  0  0  0
   -2.7671    2.1172    3.3704 H   0  0  0  0  0  0  0  0  0  0  0  0
   -2.2027    1.3655    1.4188 C   0  0  0  0  0  0  0  0  0  0  0  0
   -2.0799    0.3326    1.7732 H   0  0  0  0  0  0  0  0  0  0  0  0
    0.8685    1.2403   -0.8422 C   0  0  0  0  0  0  0  0  0  0  0  0
    1.1456    2.1517    0.1892 C   0  0  0  0  0  0  0  0  0  0  0  0
    0.6723    2.0125    1.1702 H   0  0  0  0  0  0  0  0  0  0  0  0
    2.0480    3.1984   -0.0494 C   0  0  0  0  0  0  0  0  0  0  0  0
    2.2711    3.9134    0.7566 H   0  0  0  0  0  0  0  0  0  0  0  0
    2.6734    3.3282   -1.3009 C   0  0  0  0  0  0  0  0  0  0  0  0
    3.3858    4.1476   -1.4795 H   0  0  0  0  0  0  0  0  0  0  0  0
    2.3888    2.4078   -2.3237 C   0  0  0  0  0  0  0  0  0  0  0  0
    2.8750    2.5058   -3.3063 H   0  0  0  0  0  0  0  0  0  0  0  0
    1.4794    1.3635   -2.1004 C   0  0  0  0  0  0  0  0  0  0  0  0
    1.2456    0.6297   -2.8847 H   0  0  0  0  0  0  0  0  0  0  0  0
  1  3  1  0  0  0  0
  4  5  1  6  0  0  0
  4  3  1  0  0  0  0
  4 16  1  0  0  0  0
  6  4  1  0  0  0  0
  6  7  1  0  0  0  0
  7  2  1  0  0  0  0
  8  7  2  0  0  0  0
  8  9  1  0  0  0  0
 10  8  1  0  0  0  0
 11 10  1  0  0  0  0
 12 14  1  0  0  0  0
 12 10  2  0  0  0  0
 13 12  1  0  0  0  0
 14  6  2  0  0  0  0
 15 14  1  0  0  0  0
 16 25  1  0  0  0  0
 17 16  2  0  0  0  0
 17 19  1  0  0  0  0
 18 17  1  0  0  0  0
 19 21  2  0  0  0  0
 20 19  1  0  0  0  0
 21 23  1  0  0  0  0
 21 22  1  0  0  0  0
 23 24  1  0  0  0  0
 25 26  1  0  0  0  0
 25 23  2  0  0  0  0
 27  3  1  0  0  0  0
 27 28  1  0  0  0  0
 28 29  1  0  0  0  0
 30 28  2  0  0  0  0
 30 31  1  0  0  0  0
 32 30  1  0  0  0  0
 33 32  1  0  0  0  0
 34 36  1  0  0  0  0
 34 32  2  0  0  0  0
 35 34  1  0  0  0  0
 36 27  2  0  0  0  0
 37 36  1  0  0  0  0
M  CHG  1   2  -1
M  END
