4,5
q = -1.0, confidence = 0.006

 27 28  0  0  1  0  0  0  0  0999 V2000
    0.3762    4.0603   -1.1747 F   0  0  0  0  0  0  0  0  0  0  0  0
   -1.5638    3.5882   -2.0539 F   0  0  0  0  0  0  0  0  0  0  0  0
   -1.3865    3.8705    0.1036 F   0  0  0  0  0  0  0  0  0  0  0  0
   -1.6229    1.2132   -0.7030 O   0  0  0  0  0  1  0  0  0  0  0  0
    0.2951   -0.8731   -0.0646 O   0  5  0  0  0  0  0  0  0  0  0  0
    0.7871    1.3947   -0.6649 C   0  0  0  0  0  0  0  0  0  0  0  0
    1.5876    2.1227   -0.8287 H   0  0  0  0  0  0  0  0  0  0  0  0
    4.2075   -2.1038    0.1343 C   0  0  0  0  0  0  0  0  0  0  0  0
    4.4572   -3.1762    0.1491 H   0  0  0  0  0  0  0  0  0  0  0  0
    5.2590   -1.1539    0.3054 C   0  0  0  0  0  0  0  0  0  0  0  0
    2.5642   -0.3067   -0.0891 C   0  0  0  0  0  0  0  0  0  0  0  0
    4.9295    0.2509    0.2775 C   0  0  0  0  0  0  0  0  0  0  0  0
    3.5766    0.6392    0.0753 C   0  0  0  0  0  0  0  0  0  0  0  0
    3.3444    1.7142    0.0751 H   0  0  0  0  0  0  0  0  0  0  0  0
    2.9000   -1.6968   -0.0510 C   0  0  0  0  0  0  0  0  0  0  0  0
    2.0892   -2.4257   -0.1858 H   0  0  0  0  0  0  0  0  0  0  0  0
    6.6161   -1.5380    0.5033 C   0  0  0  0  0  0  0  0  0  0  0  0
    6.8656   -2.6103    0.5220 H   0  0  0  0  0  0  0  0  0  0  0  0
   -0.5239    1.8567   -0.7908 C   0  0  2  0  0  3  0  0  0  0  0  0
    7.6076   -0.5813    0.6702 C   0  0  0  0  0  0  0  0  0  0  0  0
    8.6522   -0.8925    0.8226 H   0  0  0  0  0  0  0  0  0  0  0  0
    5.9719    1.2092    0.4542 C   0  0  0  0  0  0  0  0  0  0  0  0
    5.7154    2.2799    0.4331 H   0  0  0  0  0  0  0  0  0  0  0  0
    7.2835    0.8026    0.6460 C   0  0  0  0  0  0  0  0  0  0  0  0
    8.0791    1.5510    0.7793 H   0  0  0  0  0  0  0  0  0  0  0  0
    1.1336    0.0687   -0.2872 C   0  0  0  0  0  0  0  0  0  0  0  0
   -0.7677    3.3627   -0.9944 C   0  0  0  0  0  0  0  0  0  0  0  0
  1 27  1  0  0  0  0
  2 27  1  0  0  0  0
  6 26  2  0  0  0  0
  7  6  1  0  0  0  0
  8  9  1  0  0  0  0
  8 10  1  0  0  0  0
 10 17  1  0  0  0  0
 11 15  1  0  0  0  0
 11 13  2  0  0  0  0
 12 10  2  0  0  0  0
 12 22  1  0  0  0  0
 13 12  1  0  0  0  0
 14 13  1  0  0  0  0
 15  8  2  0  0  0  0
 16 15  1  0  0  0  0
 17 18  1  0  0  0  0
 17 20  2  0  0  0  0
 19  4  1  1  0  0  0
 19  6  1  0  0  0  0
 20 21  1  0  0  0  0
 22 24  2  0  0  0  0
 23 22  1  0  0  0  0
 24 20  1  0  0  0  0
 24 25  1  0  0  0  0
 26 11  1  0  0  0  0
 26  5  1  0  0  0  0
 27 19  1  0  0  0  0
 27  3  1  0  0  0  0
M  CHG  1   5  -1
M  END
