1,11
q = -2.0, confidence = 0.81

 20 21  0  0  0  0  0  0  0  0999 V2000
    1.4880    0.1519    1.3843 O   0  5  0  0  0  0  0  0  0  0  0  0
    4.6920    1.4457    0.2299 N   0  0  0  0  0  0  0  0  0  0  0  0
    4.7368    2.6059    0.8995 C   0  0  0  0  0  0  0  0  0  0  0  0
    5.6347    3.2310    0.7446 H   0  0  0  0  0  0  0  0  0  0  0  0
    3.7141    3.0298    1.7647 C   0  0  0  0  0  0  0  0  0  0  0  0
    3.7967    3.9877    2.3019 H   0  0  0  0  0  0  0  0  0  0  0  0
    2.5935    2.2083    1.9300 C   0  0  0  0  0  0  0  0  0  0  0  0
    1.7645    2.4794    2.6016 H   0  0  0  0  0  0  0  0  0  0  0  0
    2.5191    0.9882    1.2222 C   0  0  0  0  0  0  0  0  0  0  0  0
    3.6197    0.6519    0.3697 C   0  0  0  0  0  0  0  0  0  0  0  0
    1.4880   -0.1518   -1.3843 O   0  5  0  0  0  0  0  0  0  0  0  0
    4.6920   -1.4455   -0.2298 N   0  0  0  0  0  0  0  0  0  0  0  0
    4.7370   -2.6056   -0.8994 C   0  0  0  0  0  0  0  0  0  0  0  0
    5.6349   -3.2307   -0.7445 H   0  0  0  0  0  0  0  0  0  0  0  0
    3.7143   -3.0296   -1.7646 C   0  0  0  0  0  0  0  0  0  0  0  0
    3.7969   -3.9875   -2.3018 H   0  0  0  0  0  0  0  0  0  0  0  0
    2.5936   -2.2082   -1.9300 C   0  0  0  0  0  0  0  0  0  0  0  0
    1.7647   -2.4793   -2.6016 H   0  0  0  0  0  0  0  0  0  0  0  0
    2.5192   -0.9880   -1.2222 C   0  0  0  0  0  0  0  0  0  0  0  0
    3.6197   -0.6517   -0.3697 C   0  0  0  0  0  0  0  0  0  0  0  0
  2 10  2  0  0  0  0
  2  3  1  0  0  0  0
  3  5  2  0  0  0  0
  4  3  1  0  0  0  0
  5  7  1  0  0  0  0
  5  6  1  0  0  0  0
  7  8  1  0  0  0  0
  9  1  1  0  0  0  0
  9  7  2  0  0  0  0
 10  9  1  0  0  0  0
 11 19  1  0  0  0  0
 13 14  1  0  0  0  0
 13 12  2  0  0  0  0
 15 13  1  0  0  0  0
 16 15  1  0  0  0  0
 17 15  2  0  0  0  0
 17 19  1  0  0  0  0
 18 17  1  0  0  0  0
 19 20  2  0  0  0  0
 20 12  1  0  0  0  0
 20 10  1  0  0  0  0
M  CHG  2   1  -1  11  -1
M  END
