3,4
q = 0.0, confidence = 0.918

 76 82  0  0  0  0  0  0  0  0999 V2000
    2.0784   -0.0232    0.5939 P   0  0  0  0  0  4  0  0  0  0  0  0
   -2.4541   -0.3135    0.1514 P   0  0  0  0  0  4  0  0  0  0  0  0
    0.8762   -0.7869    0.0134 O   0  0  0  0  0  1  0  0  0  0  0  0
   -1.7563   -0.9505   -1.0609 O   0  0  0  0  0  1  0  0  0  0  0  0
   -0.3802    1.7469    0.1276 O   0  0  0  0  0  0  0  0  0  0  0  0
    3.6292   -0.2839   -0.3301 C   0  0  0  0  0  0  0  0  0  0  0  0
    3.7297    0.2840   -1.6199 C   0  0  0  0  0  0  0  0  0  0  0  0
    4.8789    0.0554   -2.3863 C   0  0  0  0  0  0  0  0  0  0  0  0
    5.9280   -0.7265   -1.8755 C   0  0  0  0  0  0  0  0  0  0  0  0
    5.8287   -1.2874   -0.5930 C   0  0  0  0  0  0  0  0  0  0  0  0
    4.6805   -1.0693    0.1835 C   0  0  0  0  0  0  0  0  0  0  0  0
    2.3488   -0.6669    2.2737 C   0  0  0  0  0  0  0  0  0  0  0  0
    2.2366   -2.0675    2.4164 C   0  0  0  0  0  0  0  0  0  0  0  0
    2.5077   -2.6581    3.6586 C   0  0  0  0  0  0  0  0  0  0  0  0
    2.8522   -1.8592    4.7614 C   0  0  0  0  0  0  0  0  0  0  0  0
    2.9239   -0.4634    4.6255 C   0  0  0  0  0  0  0  0  0  0  0  0
    2.6801    0.1359    3.3802 C   0  0  0  0  0  0  0  0  0  0  0  0
    1.9302    1.7973    0.6453 C   0  0  0  0  0  0  0  0  0  0  0  0
    3.0994    2.5373    0.9167 C   0  0  0  0  0  0  0  0  0  0  0  0
    3.0833    3.9343    0.8612 C   0  0  0  0  0  0  0  0  0  0  0  0
    1.9156    4.5951    0.4517 C   0  0  0  0  0  0  0  0  0  0  0  0
    0.7396    3.8952    0.1341 C   0  0  0  0  0  0  0  0  0  0  0  0
    0.7469    2.4910    0.3004 C   0  0  0  0  0  0  0  0  0  0  0  0
   -0.4582    4.5729   -0.5398 C   0  0  0  0  0  0  0  0  0  0  0  0
   -0.6519    6.0154   -0.0410 C   0  0  0  0  0  0  0  0  0  0  0  0
   -0.1734    4.5750   -2.0692 C   0  0  0  0  0  0  0  0  0  0  0  0
   -1.7139    3.7280   -0.3182 C   0  0  0  0  0  0  0  0  0  0  0  0
   -3.0157    4.2400   -0.4724 C   0  0  0  0  0  0  0  0  0  0  0  0
   -4.1455    3.4122   -0.4192 C   0  0  0  0  0  0  0  0  0  0  0  0
   -3.9928    2.0345   -0.2147 C   0  0  0  0  0  0  0  0  0  0  0  0
   -2.7103    1.4868   -0.0340 C   0  0  0  0  0  0  0  0  0  0  0  0
   -1.5883    2.3461   -0.0841 C   0  0  0  0  0  0  0  0  0  0  0  0
   -4.1214   -1.0461    0.2493 C   0  0  0  0  0  0  0  0  0  0  0  0
   -4.5808   -1.7873   -0.8556 C   0  0  0  0  0  0  0  0  0  0  0  0
   -5.8559   -2.3714   -0.8159 C   0  0  0  0  0  0  0  0  0  0  0  0
   -6.6671   -2.2166    0.3196 C   0  0  0  0  0  0  0  0  0  0  0  0
   -6.2033   -1.4828    1.4249 C   0  0  0  0  0  0  0  0  0  0  0  0
   -4.9286   -0.8999    1.3951 C   0  0  0  0  0  0  0  0  0  0  0  0
   -1.7248   -0.5840    1.7962 C   0  0  0  0  0  0  0  0  0  0  0  0
   -1.6628    0.4433    2.7580 C   0  0  0  0  0  0  0  0  0  0  0  0
   -1.1745    0.1642    4.0438 C   0  0  0  0  0  0  0  0  0  0  0  0
   -0.7661   -1.1376    4.3717 C   0  0  0  0  0  0  0  0  0  0  0  0
   -0.8338   -2.1587    3.4096 C   0  0  0  0  0  0  0  0  0  0  0  0
   -1.3028   -1.8896    2.1174 C   0  0  0  0  0  0  0  0  0  0  0  0
    2.8834    0.8563   -2.0373 H   0  0  0  0  0  0  0  0  0  0  0  0
    4.9476    0.4810   -3.3985 H   0  0  0  0  0  0  0  0  0  0  0  0
    6.8274   -0.9055   -2.4843 H   0  0  0  0  0  0  0  0  0  0  0  0
    6.6482   -1.9031   -0.1929 H   0  0  0  0  0  0  0  0  0  0  0  0
    4.6034   -1.5108    1.1879 H   0  0  0  0  0  0  0  0  0  0  0  0
    1.9101   -2.6785    1.5580 H   0  0  0  0  0  0  0  0  0  0  0  0
    2.4314   -3.7505    3.7690 H   0  0  0  0  0  0  0  0  0  0  0  0
    3.0565   -2.3268    5.7368 H   0  0  0  0  0  0  0  0  0  0  0  0
    3.1744    0.1643    5.4941 H   0  0  0  0  0  0  0  0  0  0  0  0
    2.7394    1.2292    3.2718 H   0  0  0  0  0  0  0  0  0  0  0  0
    4.0350    2.0051    1.1469 H   0  0  0  0  0  0  0  0  0  0  0  0
    3.9922    4.5088    1.0905 H   0  0  0  0  0  0  0  0  0  0  0  0
    1.9328    5.6887    0.3449 H   0  0  0  0  0  0  0  0  0  0  0  0
   -0.8476    6.0468    1.0490 H   0  0  0  0  0  0  0  0  0  0  0  0
   -1.4963    6.5043   -0.5628 H   0  0  0  0  0  0  0  0  0  0  0  0
    0.2399    6.6342   -0.2564 H   0  0  0  0  0  0  0  0  0  0  0  0
    0.7488    5.1514   -2.2871 H   0  0  0  0  0  0  0  0  0  0  0  0
   -1.0215    5.0361   -2.6153 H   0  0  0  0  0  0  0  0  0  0  0  0
   -0.0380    3.5408   -2.4449 H   0  0  0  0  0  0  0  0  0  0  0  0
   -3.1504    5.3148   -0.6594 H   0  0  0  0  0  0  0  0  0  0  0  0
   -5.1490    3.8412   -0.5539 H   0  0  0  0  0  0  0  0  0  0  0  0
   -4.8718    1.3746   -0.1931 H   0  0  0  0  0  0  0  0  0  0  0  0
   -3.9202   -1.9075   -1.7272 H   0  0  0  0  0  0  0  0  0  0  0  0
   -6.2149   -2.9562   -1.6761 H   0  0  0  0  0  0  0  0  0  0  0  0
   -7.6659   -2.6784    0.3484 H   0  0  0  0  0  0  0  0  0  0  0  0
   -6.8353   -1.3725    2.3191 H   0  0  0  0  0  0  0  0  0  0  0  0
   -4.5546   -0.3396    2.2662 H   0  0  0  0  0  0  0  0  0  0  0  0
   -1.9949    1.4614    2.5046 H   0  0  0  0  0  0  0  0  0  0  0  0
   -1.1143    0.9690    4.7920 H   0  0  0  0  0  0  0  0  0  0  0  0
   -0.3803   -1.3557    5.3790 H   0  0  0  0  0  0  0  0  0  0  0  0
   -0.5003   -3.1760    3.6622 H   0  0  0  0  0  0  0  0  0  0  0  0
   -1.2932   -2.6721    1.3397 H   0  0  0  0  0  0  0  0  0  0  0  0
  1 18  1  0  0  0  0
  1 12  1  0  0  0  0
  2 33  1  0  0  0  0
  2 39  1  0  0  0  0
  3  1  1  0  0  0  0
  4  2  1  0  0  0  0
  5 23  1  0  0  0  0
  6 11  1  0  0  0  0
  6  1  1  0  0  0  0
  7  6  2  0  0  0  0
  8  9  2  0  0  0  0
  8  7  1  0  0  0  0
  9 10  1  0  0  0  0
 10 48  1  0  0  0  0
 10 11  2  0  0  0  0
 11 49  1  0  0  0  0
 12 13  2  0  0  0  0
 12 17  1  0  0  0  0
 13 14  1  0  0  0  0
 14 51  1  0  0  0  0
 14 15  2  0  0  0  0
 15 52  1  0  0  0  0
 16 15  1  0  0  0  0
 16 53  1  0  0  0  0
 17 16  2  0  0  0  0
 18 19  1  0  0  0  0
 19 55  1  0  0  0  0
 20 19  2  0  0  0  0
 20 56  1  0  0  0  0
 21 20  1  0  0  0  0
 22 23  1  0  0  0  0
 22 21  2  0  0  0  0
 23 18  2  0  0  0  0
 24 27  1  0  0  0  0
 24 25  1  0  0  0  0
 24 22  1  0  0  0  0
 25 58  1  0  0  0  0
 26 24  1  0  0  0  0
 27 32  1  0  0  0  0
 28 29  1  0  0  0  0
 28 27  2  0  0  0  0
 29 30  2  0  0  0  0
 30 66  1  0  0  0  0
 30 31  1  0  0  0  0
 31  2  1  0  0  0  0
 32 31  2  0  0  0  0
 32  5  1  0  0  0  0
 33 38  1  0  0  0  0
 34 35  1  0  0  0  0
 34 33  2  0  0  0  0
 35 36  2  0  0  0  0
 36 69  1  0  0  0  0
 36 37  1  0  0  0  0
 37 70  1  0  0  0  0
 38 37  2  0  0  0  0
 38 71  1  0  0  0  0
 39 44  2  0  0  0  0
 39 40  1  0  0  0  0
 40 41  2  0  0  0  0
 41 42  1  0  0  0  0
 41 73  1  0  0  0  0
 42 74  1  0  0  0  0
 43 75  1  0  0  0  0
 43 42  2  0  0  0  0
 44 43  1  0  0  0  0
 45  7  1  0  0  0  0
 46  8  1  0  0  0  0
 47  9  1  0  0  0  0
 50 13  1  0  0  0  0
 54 17  1  0  0  0  0
 57 21  1  0  0  0  0
 59 25  1  0  0  0  0
 60 25  1  0  0  0  0
 61 26  1  0  0  0  0
 62 26  1  0  0  0  0
 63 26  1  0  0  0  0
 64 28  1  0  0  0  0
 65 29  1  0  0  0  0
 67 34  1  0  0  0  0
 68 35  1  0  0  0  0
 72 40  1  0  0  0  0
 76 44  1  0  0  0  0
M  END
