4,8
q = -2.0, confidence = 0.948

 40 44  0  0  0  0  0  0  0  0999 V2000
   -4.0100   -4.3705   -1.4525 S   0  0  0  0  0  0  0  0  0  0  0  0
    2.3847    3.3498   -1.9242 S   0  0  0  0  0  0  0  0  0  0  0  0
   -1.2269    4.1142   -0.1879 C   0  0  0  0  0  0  0  0  0  0  0  0
    2.6037    2.8376    0.5859 O   0  0  0  0  0  1  0  0  0  0  0  0
   -4.9017    3.1650    1.4381 O   0  0  0  0  0  0  0  0  0  0  0  0
    0.1219    4.2684   -0.6182 C   0  0  0  0  0  0  0  0  0  0  0  0
    0.7760    4.9942   -0.1137 H   0  0  0  0  0  0  0  0  0  0  0  0
    2.6260    1.8894   -2.2097 O   0  0  0  0  0  1  0  0  0  0  0  0
   -4.1866    0.2060   -0.5590 C   0  0  0  0  0  0  0  0  0  0  0  0
   -5.2581   -2.0351   -0.4879 C   0  0  0  0  0  0  0  0  0  0  0  0
   -6.0525   -2.7037   -0.1205 H   0  0  0  0  0  0  0  0  0  0  0  0
   -3.2456    2.6943   -0.0852 C   0  0  0  0  0  0  0  0  0  0  0  0
   -2.0172    3.0346   -0.7470 C   0  0  0  0  0  0  0  0  0  0  0  0
   -3.6156   -4.7938   -0.0505 O   0  0  0  0  0  1  0  0  0  0  0  0
   -1.5167    2.3806   -1.9087 C   0  0  0  0  0  0  0  0  0  0  0  0
   -2.1876    1.7447   -2.4950 H   0  0  0  0  0  0  0  0  0  0  0  0
   -2.8646   -4.4909   -2.4215 O   0  0  0  0  0  1  0  0  0  0  0  0
    3.0728    3.7196   -0.4636 O   0  0  0  0  0  0  0  0  0  0  0  0
   -4.2283   -2.5623   -1.2567 C   0  0  0  0  0  0  0  0  0  0  0  0
   -3.2177   -1.7079   -1.7476 C   0  0  0  0  0  0  0  0  0  0  0  0
   -2.4347   -2.1562   -2.3764 H   0  0  0  0  0  0  0  0  0  0  0  0
    0.6292    3.4343   -1.6035 C   0  0  0  0  0  0  0  0  0  0  0  0
   -3.0483    4.7500    1.3299 C   0  0  0  0  0  0  0  0  0  0  0  0
   -3.4965    5.4007    2.0937 H   0  0  0  0  0  0  0  0  0  0  0  0
   -5.1519    1.9285    0.8880 C   0  0  0  0  0  0  0  0  0  0  0  0
   -0.2063    2.5422   -2.3217 C   0  0  0  0  0  0  0  0  0  0  0  0
    0.1915    1.9736   -3.1736 H   0  0  0  0  0  0  0  0  0  0  0  0
   -5.2650   -0.6609   -0.1157 C   0  0  0  0  0  0  0  0  0  0  0  0
   -1.7776    4.9693    0.8207 C   0  0  0  0  0  0  0  0  0  0  0  0
   -1.1684    5.8082    1.1889 H   0  0  0  0  0  0  0  0  0  0  0  0
   -5.3257   -4.8911   -1.9051 O   0  0  0  0  0  1  0  0  0  0  0  0
   -6.2325    1.1181    1.2900 C   0  0  0  0  0  0  0  0  0  0  0  0
   -6.9775    1.4948    2.0041 H   0  0  0  0  0  0  0  0  0  0  0  0
    2.9006    4.3459   -2.8671 O   0  0  0  0  0  1  0  0  0  0  0  0
   -3.7310    3.5987    0.8878 C   0  0  0  0  0  0  0  0  0  0  0  0
   -4.1625    1.5570   -0.0486 C   0  0  0  0  0  0  0  0  0  0  0  0
   -3.1894   -0.3681   -1.3907 C   0  0  0  0  0  0  0  0  0  0  0  0
   -2.3353    0.2317   -1.7107 H   0  0  0  0  0  0  0  0  0  0  0  0
   -6.2798   -0.1634    0.7672 C   0  0  0  0  0  0  0  0  0  0  0  0
   -7.0917   -0.8468    1.0593 H   0  0  0  0  0  0  0  0  0  0  0  0
  1 19  1  0  0  0  0
  1 14  1  0  0  0  0
  2 22  1  0  0  0  0
  2 18  1  0  0  0  0
  3 29  1  0  0  0  0
  6  3  1  0  0  0  0
  6  7  1  0  0  0  0
  8  2  1  0  0  0  0
  9 28  2  0  0  0  0
  9 36  1  0  0  0  0
 10 11  1  0  0  0  0
 10 28  1  0  0  0  0
 12 36  1  0  0  0  0
 12 35  2  0  0  0  0
 13  3  2  0  0  0  0
 13 12  1  0  0  0  0
 15 13  1  0  0  0  0
 16 15  1  0  0  0  0
 17  1  1  0  0  0  0
 18  4  1  0  0  0  0
 19 10  2  0  0  0  0
 20 37  2  0  0  0  0
 20 19  1  0  0  0  0
 21 20  1  0  0  0  0
 22  6  2  0  0  0  0
 23 24  1  0  0  0  0
 25 32  1  0  0  0  0
 25  5  1  0  0  0  0
 26 15  2  0  0  0  0
 26 22  1  0  0  0  0
 27 26  1  0  0  0  0
 28 39  1  0  0  0  0
 29 30  1  0  0  0  0
 29 23  2  0  0  0  0
 31  1  1  0  0  0  0
 32 33  1  0  0  0  0
 34  2  1  0  0  0  0
 35 23  1  0  0  0  0
 35  5  1  0  0  0  0
 36 25  2  0  0  0  0
 37  9  1  0  0  0  0
 38 37  1  0  0  0  0
 39 40  1  0  0  0  0
 39 32  2  0  0  0  0
M  END
