4,6
q = -1.0, confidence = 0.012

 23 24  0  0  0  0  0  0  0  0999 V2000
    3.3255   -2.4535    0.2752 N   0  0  0  0  0  0  0  0  0  0  0  0
    3.8676   -3.1883    0.7337 H   0  0  0  0  0  0  0  0  0  0  0  0
    2.0812   -2.7763   -0.2350 C   0  0  0  0  0  0  0  0  0  0  0  0
    1.0054    0.5706   -1.1878 O   0  5  0  0  0  0  0  0  0  0  0  0
    3.1107   -0.1357   -0.2952 C   0  0  0  0  0  0  0  0  0  0  0  0
    3.0207    2.2278   -0.6661 O   0  5  0  0  0  0  0  0  0  0  0  0
    4.9427    1.3346    0.0791 O   0  0  0  0  0  0  0  0  0  0  0  0
    1.3006   -1.7410   -0.8145 C   0  0  0  0  0  0  0  0  0  0  0  0
    3.7726    1.2183   -0.2606 C   0  0  0  0  0  0  0  0  0  0  0  0
    3.8190   -1.1944    0.2397 C   0  0  0  0  0  0  0  0  0  0  0  0
    4.8184   -1.0127    0.6629 H   0  0  0  0  0  0  0  0  0  0  0  0
    1.7852   -0.3597   -0.8074 C   0  0  0  0  0  0  0  0  0  0  0  0
    1.5857   -4.0984   -0.1698 C   0  0  0  0  0  0  0  0  0  0  0  0
    2.2064   -4.8860    0.2866 H   0  0  0  0  0  0  0  0  0  0  0  0
    0.0174   -2.0666   -1.3156 C   0  0  0  0  0  3  0  0  0  0  0  0
   -0.5782   -1.2497   -1.7483 H   0  0  0  0  0  0  0  0  0  0  0  0
   -0.2154   -5.8169   -0.6229 C   0  0  0  0  0  0  0  0  0  0  0  0
    0.4711   -6.5039   -0.0927 H   0  0  0  0  0  0  0  0  0  0  0  0
   -0.3750   -6.2164   -1.6464 H   0  0  0  0  0  0  0  0  0  0  0  0
   -1.1999   -5.8517   -0.1120 H   0  0  0  0  0  0  0  0  0  0  0  0
    0.3205   -4.4102   -0.6742 C   0  0  0  0  0  0  0  0  0  0  0  0
   -0.4605   -3.3689   -1.2511 C   0  0  0  0  0  0  0  0  0  0  0  0
   -1.4584   -3.6074   -1.6511 H   0  0  0  0  0  0  0  0  0  0  0  0
  1  2  1  0  0  0  0
  3 13  2  0  0  0  0
  3  1  1  0  0  0  0
  4 12  1  0  0  0  0
  5  9  1  0  0  0  0
  5 10  2  0  0  0  0
  6  9  1  0  0  0  0
  8 12  2  0  0  0  0
  8  3  1  0  0  0  0
  9  7  2  0  0  0  0
 10  1  1  0  0  0  0
 10 11  1  0  0  0  0
 12  5  1  0  0  0  0
 13 14  1  0  0  0  0
 15 22  1  0  0  0  0
 15  8  1  0  0  0  0
 16 15  1  0  0  0  0
 17 20  1  0  0  0  0
 17 18  1  0  0  0  0
 19 17  1  0  0  0  0
 21 17  1  0  0  0  0
 21 13  1  0  0  0  0
 22 21  2  0  0  0  0
 23 22  1  0  0  0  0
M  CHG  2   4  -1   6  -1
M  END
