4,5
q = 0.0, confidence = 0.618

 26 28  0  0  0  0  0  0  0  0999 V2000
   -5.7708   -0.3701   -0.0314 N   0  0  0  0  0  0  0  0  0  0  0  0
   -6.6977   -2.0402    1.3530 O   0  0  0  0  0  0  0  0  0  0  0  0
   -5.6051    1.5425   -1.4026 O   0  0  0  0  0  0  0  0  0  0  0  0
   -0.4319   -1.9902   -0.0796 O   0  5  0  0  0  0  0  0  0  0  0  0
   -1.0100    0.5972    0.0301 O   0  5  0  0  0  0  0  0  0  0  0  0
   -6.8136   -1.0359    0.6734 C   0  0  0  0  0  0  0  0  0  0  0  0
   -8.0560   -0.2501    0.4012 C   0  0  0  0  0  0  0  0  0  0  0  0
   -9.3630   -0.4599    0.8425 C   0  0  0  0  0  0  0  0  0  0  0  0
   -9.6045   -1.3138    1.4925 H   0  0  0  0  0  0  0  0  0  0  0  0
  -10.3448    0.4595    0.4220 C   0  0  0  0  0  0  0  0  0  0  0  0
  -11.3879    0.3289    0.7483 H   0  0  0  0  0  0  0  0  0  0  0  0
  -10.0136    1.5455   -0.4116 C   0  0  0  0  0  0  0  0  0  0  0  0
  -10.8033    2.2459   -0.7235 H   0  0  0  0  0  0  0  0  0  0  0  0
   -8.6898    1.7479   -0.8501 C   0  0  0  0  0  0  0  0  0  0  0  0
   -8.4136    2.5911   -1.5003 H   0  0  0  0  0  0  0  0  0  0  0  0
   -7.7260    0.8318   -0.4270 C   0  0  0  0  0  0  0  0  0  0  0  0
   -6.2611    0.7758   -0.7202 C   0  0  0  0  0  0  0  0  0  0  0  0
   -4.4097   -0.7936   -0.0414 C   0  0  0  0  0  0  0  0  0  0  0  0
   -3.3823    0.1678    0.0108 C   0  0  0  0  0  0  0  0  0  0  0  0
   -3.6011    1.2415    0.0477 H   0  0  0  0  0  0  0  0  0  0  0  0
   -2.0450   -0.2603   -0.0107 C   0  0  0  0  0  0  0  0  0  0  0  0
   -1.7317   -1.6543   -0.0695 C   0  0  0  0  0  0  0  0  0  0  0  0
   -2.7730   -2.6008   -0.1151 C   0  0  0  0  0  0  0  0  0  0  0  0
   -2.5192   -3.6699   -0.1600 H   0  0  0  0  0  0  0  0  0  0  0  0
   -4.1056   -2.1741   -0.1071 C   0  0  0  0  0  0  0  0  0  0  0  0
   -4.9187   -2.9093   -0.1352 H   0  0  0  0  0  0  0  0  0  0  0  0
  1  6  1  0  0  0  0
  3 17  2  0  0  0  0
  4 22  1  0  0  0  0
  6  2  2  0  0  0  0
  7  6  1  0  0  0  0
  7  8  1  0  0  0  0
  8  9  1  0  0  0  0
 10 11  1  0  0  0  0
 10  8  2  0  0  0  0
 12 10  1  0  0  0  0
 13 12  1  0  0  0  0
 14 16  1  0  0  0  0
 14 12  2  0  0  0  0
 15 14  1  0  0  0  0
 16  7  2  0  0  0  0
 17 16  1  0  0  0  0
 17  1  1  0  0  0  0
 18  1  1  0  0  0  0
 18 19  1  0  0  0  0
 19 20  1  0  0  0  0
 21 19  2  0  0  0  0
 21  5  1  0  0  0  0
 22 21  1  0  0  0  0
 23 25  1  0  0  0  0
 23 22  2  0  0  0  0
 24 23  1  0  0  0  0
 25 18  2  0  0  0  0
 26 25  1  0  0  0  0
M  CHG  2   4  -1   5  -1
M  END
