1,2
q = -2.0, confidence = 0.644

 24 24  0  0  1  0  0  0  0  0999 V2000
    1.2246   -1.1630   -1.0770 O   0  0  0  0  0  1  0  0  0  0  0  0
    0.8578   -1.5303    1.2797 O   0  0  0  0  0  1  0  0  0  0  0  0
    2.3089   -1.8987   -0.5921 C   0  0  1  0  0  0  0  0  0  0  0  0
    2.4862   -2.7998   -1.2284 H   0  0  0  0  0  0  0  0  0  0  0  0
    3.5861   -1.0747   -0.6092 C   0  0  0  0  0  0  0  0  0  0  0  0
    3.5396    0.3284   -0.5071 C   0  0  0  0  0  0  0  0  0  0  0  0
    2.5579    0.8222   -0.4720 H   0  0  0  0  0  0  0  0  0  0  0  0
    4.7239    1.0798   -0.4671 C   0  0  0  0  0  0  0  0  0  0  0  0
    4.6698    2.1770   -0.3877 H   0  0  0  0  0  0  0  0  0  0  0  0
    5.9719    0.4404   -0.5394 C   0  0  0  0  0  0  0  0  0  0  0  0
    6.9008    1.0304   -0.5117 H   0  0  0  0  0  0  0  0  0  0  0  0
    6.0269   -0.9574   -0.6654 C   0  0  0  0  0  0  0  0  0  0  0  0
    7.0000   -1.4668   -0.7419 H   0  0  0  0  0  0  0  0  0  0  0  0
    4.8415   -1.7061   -0.7058 C   0  0  0  0  0  0  0  0  0  0  0  0
    4.8900   -2.8018   -0.8172 H   0  0  0  0  0  0  0  0  0  0  0  0
    1.8713   -2.4239    0.8634 C   0  0  0  0  0  0  0  0  0  0  0  0
    3.0047   -2.4373    1.8924 C   0  0  0  0  0  0  0  0  0  0  0  0
    3.8237   -3.1181    1.5877 H   0  0  0  0  0  0  0  0  0  0  0  0
    2.6080   -2.7835    2.8677 H   0  0  0  0  0  0  0  0  0  0  0  0
    3.4349   -1.4259    2.0205 H   0  0  0  0  0  0  0  0  0  0  0  0
    1.2470   -3.8209    0.7235 C   0  0  0  0  0  0  0  0  0  0  0  0
    0.4454   -3.8037   -0.0411 H   0  0  0  0  0  0  0  0  0  0  0  0
    2.0060   -4.5739    0.4286 H   0  0  0  0  0  0  0  0  0  0  0  0
    0.7961   -4.1307    1.6871 H   0  0  0  0  0  0  0  0  0  0  0  0
  1  3  1  0  0  0  0
  3  4  1  6  0  0  0
  3 16  1  0  0  0  0
  5  3  1  0  0  0  0
  5  6  1  0  0  0  0
  6  7  1  0  0  0  0
  6  8  2  0  0  0  0
  8  9  1  0  0  0  0
 10 11  1  0  0  0  0
 10  8  1  0  0  0  0
 12 10  2  0  0  0  0
 13 12  1  0  0  0  0
 14 12  1  0  0  0  0
 14  5  2  0  0  0  0
 15 14  1  0  0  0  0
 16  2  1  0  0  0  0
 16 17  1  0  0  0  0
 17 20  1  0  0  0  0
 17 19  1  0  0  0  0
 18 17  1  0  0  0  0
 21 16  1  0  0  0  0
 21 24  1  0  0  0  0
 22 21  1  0  0  0  0
 23 21  1  0  0  0  0
M  END
