1,2
q = -2.0, confidence = 0.538

 28 29  0  0  1  0  0  0  0  0999 V2000
   -0.5605    0.7157    1.0222 O   0  0  0  0  0  1  0  0  0  0  0  0
   -0.6737   -0.5980   -1.0278 O   0  0  0  0  0  1  0  0  0  0  0  0
   -1.8909    0.3733    0.7651 C   0  0  1  0  0  0  0  0  0  0  0  0
   -2.1780   -0.5392    1.3435 H   0  0  0  0  0  0  0  0  0  0  0  0
   -2.8568    1.4903    1.0899 C   0  0  0  0  0  0  0  0  0  0  0  0
   -2.4467    2.8322    0.9672 C   0  0  0  0  0  0  0  0  0  0  0  0
   -1.3993    3.0401    0.7012 H   0  0  0  0  0  0  0  0  0  0  0  0
   -3.3542    3.8756    1.1995 C   0  0  0  0  0  0  0  0  0  0  0  0
   -3.0214    4.9212    1.1073 H   0  0  0  0  0  0  0  0  0  0  0  0
   -4.6839    3.5905    1.5529 C   0  0  0  0  0  0  0  0  0  0  0  0
   -5.3958    4.4099    1.7360 H   0  0  0  0  0  0  0  0  0  0  0  0
   -5.0981    2.2550    1.6801 C   0  0  0  0  0  0  0  0  0  0  0  0
   -6.1363    2.0237    1.9641 H   0  0  0  0  0  0  0  0  0  0  0  0
   -4.1881    1.2110    1.4533 C   0  0  0  0  0  0  0  0  0  0  0  0
   -4.5124    0.1635    1.5549 H   0  0  0  0  0  0  0  0  0  0  0  0
   -1.9254   -0.0310   -0.7725 C   0  0  2  0  0  0  0  0  0  0  0  0
   -2.0510    0.9163   -1.3525 H   0  0  0  0  0  0  0  0  0  0  0  0
   -3.0680   -0.9670   -1.0962 C   0  0  0  0  0  0  0  0  0  0  0  0
   -2.8944   -2.3585   -0.9626 C   0  0  0  0  0  0  0  0  0  0  0  0
   -1.8991   -2.7403   -0.6892 H   0  0  0  0  0  0  0  0  0  0  0  0
   -3.9663   -3.2325   -1.1932 C   0  0  0  0  0  0  0  0  0  0  0  0
   -3.8180   -4.3190   -1.0925 H   0  0  0  0  0  0  0  0  0  0  0  0
   -5.2259   -2.7263   -1.5555 C   0  0  0  0  0  0  0  0  0  0  0  0
   -6.0670   -3.4128   -1.7372 H   0  0  0  0  0  0  0  0  0  0  0  0
   -5.4046   -1.3404   -1.6934 C   0  0  0  0  0  0  0  0  0  0  0  0
   -6.3867   -0.9368   -1.9844 H   0  0  0  0  0  0  0  0  0  0  0  0
   -4.3300   -0.4662   -1.4684 C   0  0  0  0  0  0  0  0  0  0  0  0
   -4.4695    0.6206   -1.5785 H   0  0  0  0  0  0  0  0  0  0  0  0
  2 16  1  0  0  0  0
  3  1  1  0  0  0  0
  3  5  1  0  0  0  0
  3  4  1  1  0  0  0
  5 14  1  0  0  0  0
  6  5  2  0  0  0  0
  6  8  1  0  0  0  0
  7  6  1  0  0  0  0
  8 10  2  0  0  0  0
  9  8  1  0  0  0  0
 10 12  1  0  0  0  0
 10 11  1  0  0  0  0
 12 13  1  0  0  0  0
 14 15  1  0  0  0  0
 14 12  2  0  0  0  0
 16 17  1  6  0  0  0
 16  3  1  0  0  0  0
 18 19  1  0  0  0  0
 18 16  1  0  0  0  0
 19 20  1  0  0  0  0
 21 22  1  0  0  0  0
 21 19  2  0  0  0  0
 23 21  1  0  0  0  0
 24 23  1  0  0  0  0
 25 23  2  0  0  0  0
 25 27  1  0  0  0  0
 26 25  1  0  0  0  0
 27 18  2  0  0  0  0
 28 27  1  0  0  0  0
M  END
