2,3
q = -2.0, confidence = 0.956

 36 38  0  0  0  0  0  0  0  0999 V2000
   -1.0137    0.5040    0.0161 P   0  0  2  0  0  0  0  0  0  0  0  0
    0.8756    0.0720    2.1218 O   0  5  0  0  0  0  0  0  0  0  0  0
    1.3803    2.1248    0.0755 O   0  5  0  0  0  0  0  0  0  0  0  0
   -2.1604   -2.2270    0.1690 O   0  0  0  0  0  0  0  0  0  0  0  0
   -1.4994    0.1956    1.7316 C   0  0  0  0  0  0  0  0  0  0  0  0
   -0.3632    0.0632    2.5871 C   0  0  0  0  0  0  0  0  0  0  0  0
   -0.6111   -0.0933    3.9807 C   0  0  0  0  0  0  0  0  0  0  0  0
   -1.9192   -0.1309    4.4681 C   0  0  0  0  0  0  0  0  0  0  0  0
   -3.0311   -0.0088    3.6061 C   0  0  0  0  0  0  0  0  0  0  0  0
   -2.8114    0.1632    2.2344 C   0  0  0  0  0  0  0  0  0  0  0  0
   -1.0249    2.2994   -0.2434 C   0  0  0  0  0  0  0  0  0  0  0  0
    0.3179    2.8524   -0.1134 C   0  0  0  0  0  0  0  0  0  0  0  0
   -2.1526    4.5043   -0.4750 C   0  0  0  0  0  0  0  0  0  0  0  0
   -2.1908    3.0907   -0.3878 C   0  0  0  0  0  0  0  0  0  0  0  0
   -2.1998   -0.2623   -1.1393 C   0  0  0  0  0  0  0  0  0  0  0  0
   -2.6032    0.4131   -2.3069 C   0  0  0  0  0  0  0  0  0  0  0  0
   -3.4907   -0.1809   -3.2171 C   0  0  0  0  0  0  0  0  0  0  0  0
   -3.9880   -1.4658   -2.9567 C   0  0  0  0  0  0  0  0  0  0  0  0
   -3.5844   -2.1706   -1.8121 C   0  0  0  0  0  0  0  0  0  0  0  0
   -2.6693   -1.5863   -0.9142 C   0  0  0  0  0  0  0  0  0  0  0  0
   -2.7570   -3.4340    0.6117 C   0  0  0  0  0  0  0  0  0  0  0  0
   -0.8250    4.9211   -0.3708 C   0  0  0  0  0  3  0  0  0  0  0  0
    0.2435    4.2616   -0.2302 C   0  0  0  0  0  3  0  0  0  0  0  0
    0.2545   -0.1880    4.6530 H   0  0  0  0  0  0  0  0  0  0  0  0
   -2.0831   -0.2586    5.5500 H   0  0  0  0  0  0  0  0  0  0  0  0
   -4.0547   -0.0395    4.0074 H   0  0  0  0  0  0  0  0  0  0  0  0
   -3.6620    0.2698    1.5413 H   0  0  0  0  0  0  0  0  0  0  0  0
   -3.0549    5.1206   -0.5814 H   0  0  0  0  0  0  0  0  0  0  0  0
   -3.1727    2.5891   -0.4244 H   0  0  0  0  0  0  0  0  0  0  0  0
   -2.2175    1.4269   -2.4909 H   0  0  0  0  0  0  0  0  0  0  0  0
   -3.7992    0.3649   -4.1204 H   0  0  0  0  0  0  0  0  0  0  0  0
   -4.6963   -1.9372   -3.6550 H   0  0  0  0  0  0  0  0  0  0  0  0
   -3.9686   -3.1835   -1.6319 H   0  0  0  0  0  0  0  0  0  0  0  0
   -2.6028   -4.2638   -0.1137 H   0  0  0  0  0  0  0  0  0  0  0  0
   -2.2598   -3.6876    1.5657 H   0  0  0  0  0  0  0  0  0  0  0  0
   -3.8461   -3.3046    0.7918 H   0  0  0  0  0  0  0  0  0  0  0  0
  1 15  1  6  0  0  0
  1  5  1  0  0  0  0
  2  6  1  0  0  0  0
  4 21  1  0  0  0  0
  5 10  2  0  0  0  0
  5  6  1  0  0  0  0
  6  7  2  0  0  0  0
  7  8  1  0  0  0  0
  7 24  1  0  0  0  0
  8 25  1  0  0  0  0
  9 26  1  0  0  0  0
  9  8  2  0  0  0  0
 10  9  1  0  0  0  0
 11 12  1  0  0  0  0
 11  1  1  0  0  0  0
 12  3  1  0  0  0  0
 13 14  1  0  0  0  0
 13 22  2  0  0  0  0
 14 11  2  0  0  0  0
 15 20  1  0  0  0  0
 16 15  2  0  0  0  0
 17 18  2  0  0  0  0
 17 16  1  0  0  0  0
 18 19  1  0  0  0  0
 19 33  1  0  0  0  0
 19 20  2  0  0  0  0
 20  4  1  0  0  0  0
 21 36  1  0  0  0  0
 21 35  1  0  0  0  0
 22 23  1  0  0  0  0
 23 12  2  0  0  0  0
 27 10  1  0  0  0  0
 28 13  1  0  0  0  0
 29 14  1  0  0  0  0
 30 16  1  0  0  0  0
 31 17  1  0  0  0  0
 32 18  1  0  0  0  0
 34 21  1  0  0  0  0
M  CHG  2   2  -1   3  -1
M  END
