2,3
q = -1.0, confidence = 0.002

 33 35  0  0  1  0  0  0  0  0999 V2000
   -2.0161   -1.4248   -1.3835 N   0  0  0  0  0  0  0  0  0  0  0  0
   -1.2536   -2.5494   -1.4912 O   0  0  0  0  0  1  0  0  0  0  0  0
   -1.1820   -1.2576    0.6675 O   0  0  0  0  0  1  0  0  0  0  0  0
   -1.9215   -0.7432   -0.2245 C   0  0  1  0  0  3  0  0  0  0  0  0
   -2.5996    0.6065    0.0303 C   0  0  2  0  0  0  0  0  0  0  0  0
   -4.1507    0.5177   -0.0012 C   0  0  0  0  0  0  0  0  0  0  0  0
   -4.4860   -0.2370    0.7411 H   0  0  0  0  0  0  0  0  0  0  0  0
   -4.5157    0.1717   -0.9895 H   0  0  0  0  0  0  0  0  0  0  0  0
   -2.1119    1.6788   -0.9851 C   0  0  0  0  0  0  0  0  0  0  0  0
   -1.0036    1.7421   -0.9404 H   0  0  0  0  0  0  0  0  0  0  0  0
   -2.3686    1.3930   -2.0248 H   0  0  0  0  0  0  0  0  0  0  0  0
   -2.1853    1.0764    1.4512 C   0  0  0  0  0  0  0  0  0  0  0  0
   -2.4989    0.3151    2.1930 H   0  0  0  0  0  0  0  0  0  0  0  0
   -1.0791    1.1226    1.5103 H   0  0  0  0  0  0  0  0  0  0  0  0
   -4.7652    1.8962    0.3138 C   0  0  2  0  0  0  0  0  0  0  0  0
   -5.8716    1.8125    0.2660 H   0  0  0  0  0  0  0  0  0  0  0  0
   -4.2785    2.9269   -0.7246 C   0  0  0  0  0  0  0  0  0  0  0  0
   -4.7450    3.9152   -0.5257 H   0  0  0  0  0  0  0  0  0  0  0  0
   -4.5954    2.6223   -1.7459 H   0  0  0  0  0  0  0  0  0  0  0  0
   -2.7427    3.0458   -0.6596 C   0  0  1  0  0  0  0  0  0  0  0  0
   -2.3926    3.7881   -1.4083 H   0  0  0  0  0  0  0  0  0  0  0  0
   -2.3164    3.4879    0.7519 C   0  0  0  0  0  0  0  0  0  0  0  0
   -1.2099    3.5875    0.8013 H   0  0  0  0  0  0  0  0  0  0  0  0
   -2.7417    4.4875    0.9851 H   0  0  0  0  0  0  0  0  0  0  0  0
   -2.8024    2.4467    1.7770 C   0  0  1  0  0  0  0  0  0  0  0  0
   -2.4834    2.7484    2.7971 H   0  0  0  0  0  0  0  0  0  0  0  0
   -4.3377    2.3455    1.7227 C   0  0  0  0  0  0  0  0  0  0  0  0
   -4.7981    3.3268    1.9667 H   0  0  0  0  0  0  0  0  0  0  0  0
   -4.6997    1.6193    2.4813 H   0  0  0  0  0  0  0  0  0  0  0  0
   -2.7350   -1.1631   -2.6114 C   0  0  0  0  0  0  0  0  0  0  0  0
   -2.0151   -0.9616   -3.4309 H   0  0  0  0  0  0  0  0  0  0  0  0
   -3.4128   -0.3043   -2.4887 H   0  0  0  0  0  0  0  0  0  0  0  0
   -3.3259   -2.0637   -2.8720 H   0  0  0  0  0  0  0  0  0  0  0  0
  1  4  1  0  0  0  0
  2  1  1  0  0  0  0
  4  3  1  6  0  0  0
  5  4  1  6  0  0  0
  5 12  1  0  0  0  0
  6  5  1  0  0  0  0
  6 15  1  0  0  0  0
  6  7  1  0  0  0  0
  8  6  1  0  0  0  0
  9 10  1  0  0  0  0
  9 20  1  0  0  0  0
  9  5  1  0  0  0  0
 11  9  1  0  0  0  0
 12 14  1  0  0  0  0
 12 25  1  0  0  0  0
 12 13  1  0  0  0  0
 15 16  1  6  0  0  0
 15 27  1  0  0  0  0
 17 20  1  0  0  0  0
 17 18  1  0  0  0  0
 17 15  1  0  0  0  0
 19 17  1  0  0  0  0
 20 21  1  6  0  0  0
 20 22  1  0  0  0  0
 22 23  1  0  0  0  0
 22 24  1  0  0  0  0
 22 25  1  0  0  0  0
 25 26  1  1  0  0  0
 27 25  1  0  0  0  0
 27 28  1  0  0  0  0
 27 29  1  0  0  0  0
 30 32  1  0  0  0  0
 30  1  1  0  0  0  0
 31 30  1  0  0  0  0
 33 30  1  0  0  0  0
M  END
