1,2
q = -1.0, confidence = 0.004

 28 29  0  0  1  0  0  0  0  0999 V2000
   -0.3184    0.5916    0.6476 O   0  0  0  0  0  1  0  0  0  0  0  0
   -1.0258   -1.1627   -1.4725 O   0  5  0  0  0  0  0  0  0  0  0  0
    0.8784    0.3432    0.2701 C   0  0  1  0  0  3  0  0  0  0  0  0
    1.2293   -0.6491   -0.7066 C   0  0  0  0  0  0  0  0  0  0  0  0
    0.2356   -1.2887   -1.5008 C   0  0  0  0  0  0  0  0  0  0  0  0
    1.9086    1.2270    0.9103 C   0  0  0  0  0  0  0  0  0  0  0  0
    3.0539    1.6882    0.2246 C   0  0  0  0  0  0  0  0  0  0  0  0
    3.9417    2.5782    0.8437 C   0  0  0  0  0  0  0  0  0  0  0  0
    3.7098    3.0113    2.1595 C   0  0  0  0  0  0  0  0  0  0  0  0
    2.5680    2.5668    2.8467 C   0  0  0  0  0  0  0  0  0  0  0  0
    1.6683    1.6941    2.2217 C   0  0  0  0  0  0  0  0  0  0  0  0
    2.6310   -1.1026   -0.9095 C   0  0  0  0  0  0  0  0  0  0  0  0
    3.4335   -1.4943    0.1887 C   0  0  0  0  0  0  0  0  0  0  0  0
    4.7471   -1.9426    0.0031 C   0  0  0  0  0  0  0  0  0  0  0  0
    5.2905   -2.0310   -1.2898 C   0  0  0  0  0  0  0  0  0  0  0  0
    4.5045   -1.6628   -2.3927 C   0  0  0  0  0  0  0  0  0  0  0  0
    3.1935   -1.1997   -2.2039 C   0  0  0  0  0  0  0  0  0  0  0  0
    0.6290   -2.0150   -2.2549 H   0  0  0  0  0  0  0  0  0  0  0  0
    3.2442    1.3555   -0.8051 H   0  0  0  0  0  0  0  0  0  0  0  0
    4.8242    2.9368    0.2923 H   0  0  0  0  0  0  0  0  0  0  0  0
    4.4154    3.7015    2.6467 H   0  0  0  0  0  0  0  0  0  0  0  0
    2.3749    2.9088    3.8750 H   0  0  0  0  0  0  0  0  0  0  0  0
    0.7552    1.3613    2.7362 H   0  0  0  0  0  0  0  0  0  0  0  0
    3.0108   -1.4403    1.2037 H   0  0  0  0  0  0  0  0  0  0  0  0
    5.3509   -2.2359    0.8757 H   0  0  0  0  0  0  0  0  0  0  0  0
    6.3216   -2.3867   -1.4361 H   0  0  0  0  0  0  0  0  0  0  0  0
    4.9196   -1.7238   -3.4107 H   0  0  0  0  0  0  0  0  0  0  0  0
    2.5964   -0.8818   -3.0729 H   0  0  0  0  0  0  0  0  0  0  0  0
  3  1  1  6  0  0  0
  3  6  1  0  0  0  0
  4  3  1  0  0  0  0
  5  2  1  0  0  0  0
  5  4  2  0  0  0  0
  6 11  1  0  0  0  0
  7  8  1  0  0  0  0
  7  6  2  0  0  0  0
  8  9  2  0  0  0  0
  9 21  1  0  0  0  0
  9 10  1  0  0  0  0
 10 22  1  0  0  0  0
 11 23  1  0  0  0  0
 11 10  2  0  0  0  0
 12  4  1  0  0  0  0
 12 13  1  0  0  0  0
 13 24  1  0  0  0  0
 14 13  2  0  0  0  0
 14 25  1  0  0  0  0
 15 14  1  0  0  0  0
 16 17  1  0  0  0  0
 16 15  2  0  0  0  0
 17 12  2  0  0  0  0
 18  5  1  0  0  0  0
 19  7  1  0  0  0  0
 20  8  1  0  0  0  0
 26 15  1  0  0  0  0
 27 16  1  0  0  0  0
 28 17  1  0  0  0  0
M  CHG  1   2  -1
M  END
