1,2
q = -2.0, confidence = 0.852

 44 49  0  0  0  0  0  0  0  0999 V2000
   -0.3042   -0.1390    1.2836 O   0  0  0  0  0  1  0  0  0  0  0  0
   -0.3068    0.1563   -1.2853 O   0  0  0  0  0  1  0  0  0  0  0  0
    0.9506   -0.4077    0.6777 C   0  0  0  0  0  0  0  0  0  0  0  0
    1.1627   -1.9027    0.4009 C   0  0  0  0  0  0  0  0  0  0  0  0
    0.3181   -2.8142   -0.2360 C   0  0  0  0  0  0  0  0  0  0  0  0
    0.7599   -4.1373   -0.4295 C   0  0  0  0  0  0  0  0  0  0  0  0
    2.0324   -4.5380    0.0173 C   0  0  0  0  0  0  0  0  0  0  0  0
    2.8741   -3.6301    0.6822 C   0  0  0  0  0  0  0  0  0  0  0  0
    2.4282   -2.3146    0.8832 C   0  0  0  0  0  0  0  0  0  0  0  0
    3.0457   -1.1856    1.5950 C   0  0  0  0  0  0  0  0  0  0  0  0
    4.2663   -1.0971    2.2804 C   0  0  0  0  0  0  0  0  0  0  0  0
    4.5751    0.0923    2.9613 C   0  0  0  0  0  0  0  0  0  0  0  0
    3.6702    1.1686    2.9631 C   0  0  0  0  0  0  0  0  0  0  0  0
    2.4522    1.0875    2.2621 C   0  0  0  0  0  0  0  0  0  0  0  0
    2.1517   -0.0843    1.5620 C   0  0  0  0  0  0  0  0  0  0  0  0
    0.9515    0.4185   -0.6827 C   0  0  0  0  0  0  0  0  0  0  0  0
    1.1741    1.9111   -0.4065 C   0  0  0  0  0  0  0  0  0  0  0  0
    0.3322    2.8301    0.2229 C   0  0  0  0  0  0  0  0  0  0  0  0
    0.7848    4.1490    0.4198 C   0  0  0  0  0  0  0  0  0  0  0  0
    2.0649    4.5377   -0.0158 C   0  0  0  0  0  0  0  0  0  0  0  0
    2.9031    3.6227   -0.6757 C   0  0  0  0  0  0  0  0  0  0  0  0
    2.4464    2.3118   -0.8810 C   0  0  0  0  0  0  0  0  0  0  0  0
    3.0560    1.1783   -1.5926 C   0  0  0  0  0  0  0  0  0  0  0  0
    4.2784    1.0792   -2.2731 C   0  0  0  0  0  0  0  0  0  0  0  0
    4.5777   -0.1111   -2.9569 C   0  0  0  0  0  0  0  0  0  0  0  0
    3.6616   -1.1777   -2.9663 C   0  0  0  0  0  0  0  0  0  0  0  0
    2.4417   -1.0864   -2.2697 C   0  0  0  0  0  0  0  0  0  0  0  0
    2.1505    0.0861   -1.5668 C   0  0  0  0  0  0  0  0  0  0  0  0
   -0.6693   -2.4905   -0.5991 H   0  0  0  0  0  0  0  0  0  0  0  0
    0.1055   -4.8642   -0.9351 H   0  0  0  0  0  0  0  0  0  0  0  0
    2.3661   -5.5745   -0.1444 H   0  0  0  0  0  0  0  0  0  0  0  0
    3.8620   -3.9505    1.0473 H   0  0  0  0  0  0  0  0  0  0  0  0
    4.9650   -1.9476    2.2956 H   0  0  0  0  0  0  0  0  0  0  0  0
    5.5274    0.1781    3.5071 H   0  0  0  0  0  0  0  0  0  0  0  0
    3.9166    2.0875    3.5168 H   0  0  0  0  0  0  0  0  0  0  0  0
    1.7513    1.9328    2.2654 H   0  0  0  0  0  0  0  0  0  0  0  0
   -0.6632    2.5170    0.5723 H   0  0  0  0  0  0  0  0  0  0  0  0
    0.1322    4.8824    0.9185 H   0  0  0  0  0  0  0  0  0  0  0  0
    2.4070    5.5710    0.1490 H   0  0  0  0  0  0  0  0  0  0  0  0
    3.8962    3.9345   -1.0339 H   0  0  0  0  0  0  0  0  0  0  0  0
    4.9861    1.9224   -2.2825 H   0  0  0  0  0  0  0  0  0  0  0  0
    5.5313   -0.2049   -3.4989 H   0  0  0  0  0  0  0  0  0  0  0  0
    3.9004   -2.0972   -3.5223 H   0  0  0  0  0  0  0  0  0  0  0  0
    1.7322   -1.9245   -2.2785 H   0  0  0  0  0  0  0  0  0  0  0  0
  2 16  1  0  0  0  0
  3  1  1  0  0  0  0
  3 15  1  0  0  0  0
  4  3  1  0  0  0  0
  4  9  1  0  0  0  0
  5  4  2  0  0  0  0
  6  5  1  0  0  0  0
  6  7  2  0  0  0  0
  7  8  1  0  0  0  0
  8  9  2  0  0  0  0
  8 32  1  0  0  0  0
  9 10  1  0  0  0  0
 10 11  1  0  0  0  0
 11 33  1  0  0  0  0
 11 12  2  0  0  0  0
 12 13  1  0  0  0  0
 12 34  1  0  0  0  0
 13 35  1  0  0  0  0
 14 36  1  0  0  0  0
 14 13  2  0  0  0  0
 15 10  2  0  0  0  0
 15 14  1  0  0  0  0
 16 17  1  0  0  0  0
 16  3  1  0  0  0  0
 17 18  1  0  0  0  0
 18 19  2  0  0  0  0
 18 37  1  0  0  0  0
 19 38  1  0  0  0  0
 20 39  1  0  0  0  0
 20 19  1  0  0  0  0
 21 20  2  0  0  0  0
 22 21  1  0  0  0  0
 22 17  2  0  0  0  0
 23 28  1  0  0  0  0
 23 22  1  0  0  0  0
 24 23  2  0  0  0  0
 25 24  1  0  0  0  0
 26 25  2  0  0  0  0
 26 27  1  0  0  0  0
 27 28  2  0  0  0  0
 28 16  1  0  0  0  0
 29  5  1  0  0  0  0
 30  6  1  0  0  0  0
 31  7  1  0  0  0  0
 40 21  1  0  0  0  0
 41 24  1  0  0  0  0
 42 25  1  0  0  0  0
 43 26  1  0  0  0  0
 44 27  1  0  0  0  0
M  END
