2,3
q = -1.0, confidence = 0.008

 24 24  0  0  1  0  0  0  0  0999 V2000
   -8.0434   -0.0127    0.0059 I   0  0  0  0  0  0  0  0  0  0  0  0
    0.3278   -0.6161    1.3415 O   0  5  0  0  0  0  0  0  0  0  0  0
    0.3248    0.5092   -1.3854 O   0  0  0  0  0  1  0  0  0  0  0  0
   -0.9334   -0.5615    1.1419 C   0  0  0  0  0  0  0  0  0  0  0  0
   -1.5933   -0.0526   -0.0195 C   0  0  0  0  0  0  0  0  0  0  0  0
   -0.9361    0.4466   -1.1865 C   0  0  2  0  0  3  0  0  0  0  0  0
   -1.7793   -1.0852    2.2887 C   0  0  0  0  0  0  0  0  0  0  0  0
   -1.1118   -1.4399    3.0944 H   0  0  0  0  0  0  0  0  0  0  0  0
   -2.4358   -1.9141    1.9564 H   0  0  0  0  0  0  0  0  0  0  0  0
   -2.4544   -0.2976    2.6805 H   0  0  0  0  0  0  0  0  0  0  0  0
   -1.7850    0.9495   -2.3405 C   0  0  0  0  0  0  0  0  0  0  0  0
   -1.1196    1.2849   -3.1561 H   0  0  0  0  0  0  0  0  0  0  0  0
   -2.4335    1.7897   -2.0208 H   0  0  0  0  0  0  0  0  0  0  0  0
   -2.4678    0.1594   -2.7126 H   0  0  0  0  0  0  0  0  0  0  0  0
   -3.0930   -0.0455   -0.0146 C   0  0  0  0  0  0  0  0  0  0  0  0
   -3.8318   -1.1550   -0.4780 C   0  0  0  0  0  0  0  0  0  0  0  0
   -3.2894   -2.0393   -0.8488 H   0  0  0  0  0  0  0  0  0  0  0  0
   -5.2350   -1.1574   -0.4766 C   0  0  0  0  0  0  0  0  0  0  0  0
   -5.7897   -2.0334   -0.8420 H   0  0  0  0  0  0  0  0  0  0  0  0
   -5.9191   -0.0266   -0.0029 C   0  0  0  0  0  0  0  0  0  0  0  0
   -5.2163    1.0950    0.4650 C   0  0  0  0  0  0  0  0  0  0  0  0
   -5.7563    1.9783    0.8348 H   0  0  0  0  0  0  0  0  0  0  0  0
   -3.8133    1.0738    0.4547 C   0  0  0  0  0  0  0  0  0  0  0  0
   -3.2556    1.9507    0.8205 H   0  0  0  0  0  0  0  0  0  0  0  0
  4  2  1  0  0  0  0
  4  7  1  0  0  0  0
  5 15  1  0  0  0  0
  5  4  2  0  0  0  0
  6  3  1  6  0  0  0
  6  5  1  0  0  0  0
  7 10  1  0  0  0  0
  7  8  1  0  0  0  0
  9  7  1  0  0  0  0
 11 13  1  0  0  0  0
 11  6  1  0  0  0  0
 12 11  1  0  0  0  0
 14 11  1  0  0  0  0
 15 23  1  0  0  0  0
 16 18  1  0  0  0  0
 16 15  2  0  0  0  0
 17 16  1  0  0  0  0
 18 20  2  0  0  0  0
 19 18  1  0  0  0  0
 20  1  1  0  0  0  0
 20 21  1  0  0  0  0
 21 22  1  0  0  0  0
 23 21  2  0  0  0  0
 23 24  1  0  0  0  0
M  CHG  1   2  -1
M  END
