1,3
q = -1.0, confidence = 0.002

 30 30  0  0  1  0  0  0  0  0999 V2000
   -0.5593   -1.9219   -0.0010 O   0  5  0  0  0  0  0  0  0  0  0  0
   -1.9137   -3.8546    0.0620 C   0  0  0  0  0  0  0  0  0  0  0  0
   -1.8760    0.6911   -0.0111 O   0  0  0  0  0  1  0  0  0  0  0  0
   -2.9188   -0.0622    0.0036 C   0  0  2  0  0  3  0  0  0  0  0  0
   -4.2140    0.6896   -0.0000 C   0  0  0  0  0  0  0  0  0  0  0  0
   -6.6388    0.8269   -0.2706 C   0  0  0  0  0  0  0  0  0  0  0  0
   -7.5971    0.3344   -0.4948 H   0  0  0  0  0  0  0  0  0  0  0  0
   -5.3723    2.8234    0.2825 C   0  0  0  0  0  0  0  0  0  0  0  0
   -5.3359    3.9012    0.5027 H   0  0  0  0  0  0  0  0  0  0  0  0
   -1.2133   -4.4043   -1.2005 C   0  0  0  0  0  0  0  0  0  0  0  0
   -1.7235   -4.0575   -2.1222 H   0  0  0  0  0  0  0  0  0  0  0  0
   -1.2311   -5.5133   -1.1933 H   0  0  0  0  0  0  0  0  0  0  0  0
   -0.1605   -4.0660   -1.2407 H   0  0  0  0  0  0  0  0  0  0  0  0
   -1.7824   -2.3136    0.0300 C   0  0  0  0  0  0  0  0  0  0  0  0
   -1.1775   -4.3547    1.3248 C   0  0  0  0  0  0  0  0  0  0  0  0
   -1.1943   -5.4631    1.3615 H   0  0  0  0  0  0  0  0  0  0  0  0
   -1.6624   -3.9724    2.2461 H   0  0  0  0  0  0  0  0  0  0  0  0
   -0.1245   -4.0147    1.3225 H   0  0  0  0  0  0  0  0  0  0  0  0
   -2.9175   -1.4780    0.0359 C   0  0  0  0  0  0  0  0  0  0  0  0
   -3.8923   -1.9692    0.0880 H   0  0  0  0  0  0  0  0  0  0  0  0
   -5.4559    0.0762   -0.2765 C   0  0  0  0  0  0  0  0  0  0  0  0
   -5.5032   -0.9942   -0.5215 H   0  0  0  0  0  0  0  0  0  0  0  0
   -4.1886    2.0765    0.2715 C   0  0  0  0  0  0  0  0  0  0  0  0
   -3.2170    2.5484    0.4738 H   0  0  0  0  0  0  0  0  0  0  0  0
   -6.6026    2.2017    0.0130 C   0  0  0  0  0  0  0  0  0  0  0  0
   -7.5335    2.7889    0.0194 H   0  0  0  0  0  0  0  0  0  0  0  0
   -3.3695   -4.3423    0.0916 C   0  0  0  0  0  0  0  0  0  0  0  0
   -3.9343   -4.0168   -0.8050 H   0  0  0  0  0  0  0  0  0  0  0  0
   -3.9077   -3.9887    0.9939 H   0  0  0  0  0  0  0  0  0  0  0  0
   -3.3856   -5.4508    0.1095 H   0  0  0  0  0  0  0  0  0  0  0  0
  1 14  1  0  0  0  0
  2 27  1  0  0  0  0
  2 15  1  0  0  0  0
  4  3  1  1  0  0  0
  4 19  1  0  0  0  0
  5  4  1  0  0  0  0
  5 23  1  0  0  0  0
  6 25  2  0  0  0  0
  7  6  1  0  0  0  0
  8  9  1  0  0  0  0
 10 12  1  0  0  0  0
 10  2  1  0  0  0  0
 11 10  1  0  0  0  0
 13 10  1  0  0  0  0
 14 19  2  0  0  0  0
 14  2  1  0  0  0  0
 15 16  1  0  0  0  0
 15 17  1  0  0  0  0
 18 15  1  0  0  0  0
 19 20  1  0  0  0  0
 21  6  1  0  0  0  0
 21  5  2  0  0  0  0
 22 21  1  0  0  0  0
 23  8  2  0  0  0  0
 23 24  1  0  0  0  0
 25 26  1  0  0  0  0
 25  8  1  0  0  0  0
 27 30  1  0  0  0  0
 27 29  1  0  0  0  0
 28 27  1  0  0  0  0
M  CHG  1   1  -1
M  END
