1,2
q = -1.0, confidence = 0.01

 28 29  0  0  0  0  0  0  0  0999 V2000
    2.0387    1.9548    0.3417 O   0  5  0  0  0  0  0  0  0  0  0  0
    0.2669    0.9442    1.2178 O   0  5  0  0  0  0  0  0  0  0  0  0
   -2.0953    1.6952    0.3243 N   0  0  0  0  0  0  0  0  0  0  0  0
   -2.2640    3.7817   -0.7648 N   0  0  0  0  0  0  0  0  0  0  0  0
    0.7832    1.9215    0.5649 C   0  0  0  0  0  3  0  0  0  0  0  0
   -0.0876    3.0021    0.0149 C   0  0  0  0  0  0  0  0  0  0  0  0
    0.4954    4.1843   -0.4621 C   0  0  0  0  0  0  0  0  0  0  0  0
   -0.2995    5.1682   -1.0642 C   0  0  0  0  0  0  0  0  0  0  0  0
   -1.6703    4.8998   -1.1997 C   0  0  0  0  0  0  0  0  0  0  0  0
   -1.5109    2.8481   -0.1487 C   0  0  0  0  0  0  0  0  0  0  0  0
   -3.2976    1.0771    0.0063 C   0  0  0  0  0  0  0  0  0  0  0  0
   -3.4696   -0.2495    0.4712 C   0  0  0  0  0  0  0  0  0  0  0  0
   -4.6161   -0.9825    0.1422 C   0  0  0  0  0  0  0  0  0  0  0  0
   -5.6371   -0.4069   -0.6343 C   0  0  0  0  0  0  0  0  0  0  0  0
   -5.4800    0.9180   -1.0694 C   0  0  0  0  0  0  0  0  0  0  0  0
   -4.3339    1.6625   -0.7642 C   0  0  0  0  0  0  0  0  0  0  0  0
   -4.6935   -2.4227    0.5758 C   0  0  0  0  0  0  0  0  0  0  0  0
   -4.2369   -2.6047    1.8380 F   0  0  0  0  0  0  0  0  0  0  0  0
   -5.9459   -2.9214    0.5134 F   0  0  0  0  0  0  0  0  0  0  0  0
   -3.9156   -3.2231   -0.2268 F   0  0  0  0  0  0  0  0  0  0  0  0
   -1.3990    1.1311    0.8568 H   0  0  0  0  0  0  0  0  0  0  0  0
    1.5848    4.2961   -0.3589 H   0  0  0  0  0  0  0  0  0  0  0  0
    0.1295    6.1093   -1.4361 H   0  0  0  0  0  0  0  0  0  0  0  0
   -2.3332    5.6348   -1.6916 H   0  0  0  0  0  0  0  0  0  0  0  0
   -2.6913   -0.7092    1.0988 H   0  0  0  0  0  0  0  0  0  0  0  0
   -6.5369   -0.9860   -0.8816 H   0  0  0  0  0  0  0  0  0  0  0  0
   -6.2758    1.3890   -1.6666 H   0  0  0  0  0  0  0  0  0  0  0  0
   -4.2050    2.6968   -1.1051 H   0  0  0  0  0  0  0  0  0  0  0  0
  1  5  1  0  0  0  0
  3 21  1  0  0  0  0
  4 10  1  0  0  0  0
  5  2  1  0  0  0  0
  6  5  1  0  0  0  0
  7 22  1  0  0  0  0
  7  6  1  0  0  0  0
  8  7  2  0  0  0  0
  9  8  1  0  0  0  0
  9  4  2  0  0  0  0
 10  6  2  0  0  0  0
 10  3  1  0  0  0  0
 11  3  1  0  0  0  0
 11 12  1  0  0  0  0
 12 25  1  0  0  0  0
 13 12  2  0  0  0  0
 13 17  1  0  0  0  0
 14 13  1  0  0  0  0
 15 16  1  0  0  0  0
 15 14  2  0  0  0  0
 16 11  2  0  0  0  0
 17 18  1  0  0  0  0
 19 17  1  0  0  0  0
 20 17  1  0  0  0  0
 23  8  1  0  0  0  0
 24  9  1  0  0  0  0
 26 14  1  0  0  0  0
 27 15  1  0  0  0  0
 28 16  1  0  0  0  0
M  CHG  2   1  -1   2  -1
M  END
