4,5
q = -2.0, confidence = 0.942

 33 34  0  0  1  0  0  0  0  0999 V2000
   -3.6492    0.6451   -1.4702 O   0  0  0  0  0  0  0  0  0  0  0  0
   -4.4547   -1.7684    1.7603 O   0  0  0  0  0  0  0  0  0  0  0  0
   -0.3454   -3.7591    1.4354 O   0  0  0  0  0  0  0  0  0  0  0  0
    0.3813   -2.0370   -0.6444 O   0  0  0  0  0  1  0  0  0  0  0  0
   -0.9575    0.0170    0.1984 O   0  0  0  0  0  1  0  0  0  0  0  0
   -6.0752    2.1915   -0.4992 O   0  0  0  0  0  0  0  0  0  0  0  0
   -6.2351    2.9195   -1.1268 H   0  0  0  0  0  0  0  0  0  0  0  0
   -1.7928    2.4905    0.1611 O   0  0  0  0  0  0  0  0  0  0  0  0
   -1.5204    1.5198    0.1979 H   0  0  0  0  0  0  0  0  0  0  0  0
   -3.0730   -1.0335    0.0766 N   0  0  0  0  0  0  0  0  0  0  0  0
   -2.3654   -2.6987    1.5837 N   0  0  0  0  0  0  0  0  0  0  0  0
   -2.5718   -3.2030    2.4512 H   0  0  0  0  0  0  0  0  0  0  0  0
   -3.3789   -1.8126    1.1721 C   0  0  0  0  0  0  0  0  0  0  0  0
   -1.1577   -2.9837    0.9629 C   0  0  0  0  0  0  0  0  0  0  0  0
   -0.9967   -2.3085   -0.4191 C   0  0  1  0  0  0  0  0  0  0  0  0
   -1.7493   -0.9693   -0.4829 C   0  0  2  0  0  0  0  0  0  0  0  0
   -1.8500   -0.6615   -1.5443 H   0  0  0  0  0  0  0  0  0  0  0  0
   -4.1103   -0.0462   -0.3238 C   0  0  1  0  0  0  0  0  0  0  0  0
   -5.0264   -0.6239   -0.5758 H   0  0  0  0  0  0  0  0  0  0  0  0
   -4.4161    1.0247    0.7401 C   0  0  0  0  0  0  0  0  0  0  0  0
   -3.5202    1.2019    1.3620 H   0  0  0  0  0  0  0  0  0  0  0  0
   -5.2660    0.7424    1.3847 H   0  0  0  0  0  0  0  0  0  0  0  0
   -4.7108    2.2611   -0.1020 C   0  0  1  0  0  0  0  0  0  0  0  0
   -4.4839    3.2027    0.4510 H   0  0  0  0  0  0  0  0  0  0  0  0
   -3.7466    2.0716   -1.2919 C   0  0  1  0  0  0  0  0  0  0  0  0
   -4.1966    2.4828   -2.2254 H   0  0  0  0  0  0  0  0  0  0  0  0
   -2.3666    2.7190   -1.1065 C   0  0  0  0  0  0  0  0  0  0  0  0
   -1.7082    2.3681   -1.9378 H   0  0  0  0  0  0  0  0  0  0  0  0
   -2.4911    3.8187   -1.2299 H   0  0  0  0  0  0  0  0  0  0  0  0
   -1.4750   -3.2940   -1.4880 C   0  0  0  0  0  0  0  0  0  0  0  0
   -2.5510   -3.5276   -1.3631 H   0  0  0  0  0  0  0  0  0  0  0  0
   -0.8894   -4.2295   -1.4068 H   0  0  0  0  0  0  0  0  0  0  0  0
   -1.3145   -2.8522   -2.4908 H   0  0  0  0  0  0  0  0  0  0  0  0
  1 25  1  0  0  0  0
  1 18  1  0  0  0  0
  6 23  1  0  0  0  0
  7  6  1  0  0  0  0
  8  9  1  0  0  0  0
 10 13  1  0  0  0  0
 11 12  1  0  0  0  0
 13 11  1  0  0  0  0
 13  2  2  0  0  0  0
 14  3  2  0  0  0  0
 14 11  1  0  0  0  0
 15  4  1  6  0  0  0
 15 14  1  0  0  0  0
 16 17  1  6  0  0  0
 16 15  1  0  0  0  0
 16 10  1  0  0  0  0
 16  5  1  0  0  0  0
 18 19  1  6  0  0  0
 18 10  1  0  0  0  0
 18 20  1  0  0  0  0
 20 21  1  0  0  0  0
 20 22  1  0  0  0  0
 23 24  1  1  0  0  0
 23 20  1  0  0  0  0
 25 26  1  6  0  0  0
 25 27  1  0  0  0  0
 25 23  1  0  0  0  0
 27  8  1  0  0  0  0
 28 27  1  0  0  0  0
 29 27  1  0  0  0  0
 30 32  1  0  0  0  0
 30 31  1  0  0  0  0
 30 15  1  0  0  0  0
 33 30  1  0  0  0  0
M  END
