30,31
q = -2.0, confidence = 0.846

 39 43  0  0  1  0  0  0  0  0999 V2000
   -0.1848    1.1529   -1.4287 C   0  0  2  0  0  0  0  0  0  0  0  0
   -0.2898    0.8171   -2.4875 H   0  0  0  0  0  0  0  0  0  0  0  0
    1.0342    2.1178   -1.3580 C   0  0  1  0  0  0  0  0  0  0  0  0
    1.1216    2.6582   -2.3289 H   0  0  0  0  0  0  0  0  0  0  0  0
    1.0084    3.2376   -0.2453 C   0  0  2  0  0  0  0  0  0  0  0  0
    2.0313    3.2493    0.1954 H   0  0  0  0  0  0  0  0  0  0  0  0
   -0.0104    2.9076    0.7980 C   0  0  0  0  0  0  0  0  0  0  0  0
   -0.0547    3.0091    2.1758 C   0  0  0  0  0  0  0  0  0  0  0  0
    0.6353    3.4242    2.9178 H   0  0  0  0  0  0  0  0  0  0  0  0
   -1.1832    2.4330    2.6748 O   0  0  0  0  0  0  0  0  0  0  0  0
   -1.8801    1.9368    1.6002 C   0  0  0  0  0  0  0  0  0  0  0  0
   -3.0210    1.0407    1.6863 C   0  0  0  0  0  0  0  0  0  0  0  0
   -3.3562    0.4077    0.3522 C   0  0  0  0  0  0  0  0  0  0  0  0
   -4.4012   -0.5505    0.3044 C   0  0  0  0  0  0  0  0  0  0  0  0
   -5.3147   -1.0276    1.4168 C   0  0  0  0  0  0  0  0  0  0  0  0
   -5.8490   -0.1718    1.8755 H   0  0  0  0  0  0  0  0  0  0  0  0
   -4.7170   -1.4470    2.2505 H   0  0  0  0  0  0  0  0  0  0  0  0
   -6.2528   -2.0581    0.7564 C   0  0  0  0  0  0  0  0  0  0  0  0
   -6.2078   -3.0627    1.2250 H   0  0  0  0  0  0  0  0  0  0  0  0
   -7.3207   -1.7568    0.7848 H   0  0  0  0  0  0  0  0  0  0  0  0
   -5.8178   -2.1719   -0.7124 C   0  0  0  0  0  0  0  0  0  0  0  0
   -4.6985   -1.2114   -0.9001 C   0  0  0  0  0  0  0  0  0  0  0  0
   -3.9880   -0.9554   -2.0820 C   0  0  0  0  0  0  0  0  0  0  0  0
   -4.2467   -1.5033   -3.0011 H   0  0  0  0  0  0  0  0  0  0  0  0
   -2.9691   -0.0040   -2.0457 C   0  0  0  0  0  0  0  0  0  0  0  0
   -2.4001    0.2158   -2.9615 H   0  0  0  0  0  0  0  0  0  0  0  0
   -2.6382    0.6821   -0.8545 C   0  0  0  0  0  0  0  0  0  0  0  0
   -1.5392    1.7491   -0.9272 C   0  0  1  0  0  0  0  0  0  0  0  0
   -1.2098    2.2339    0.4381 C   0  0  0  0  0  0  0  0  0  0  0  0
    0.0682    0.0105   -0.6101 O   0  0  0  0  0  1  0  0  0  0  0  0
    2.2206    1.3343   -1.2066 O   0  0  0  0  0  1  0  0  0  0  0  0
    0.6748    4.5171   -0.7968 O   0  0  0  0  0  0  0  0  0  0  0  0
    1.3491    4.7168   -1.4738 H   0  0  0  0  0  0  0  0  0  0  0  0
   -3.6199    0.7634    2.7294 O   0  0  0  0  0  0  0  0  0  0  0  0
   -6.2970   -2.9077   -1.5622 O   0  0  0  0  0  0  0  0  0  0  0  0
   -1.9996    2.9139   -1.8414 C   0  0  0  0  0  0  0  0  0  0  0  0
   -2.9719    3.3080   -1.4879 H   0  0  0  0  0  0  0  0  0  0  0  0
   -2.1264    2.5672   -2.8863 H   0  0  0  0  0  0  0  0  0  0  0  0
   -1.2587    3.7362   -1.8125 H   0  0  0  0  0  0  0  0  0  0  0  0
  1  2  1  6  0  0  0
  1  3  1  0  0  0  0
  1 28  1  0  0  0  0
  1 30  1  0  0  0  0
  3  4  1  6  0  0  0
  3 31  1  0  0  0  0
  3  5  1  0  0  0  0
  5  6  1  1  0  0  0
  5  7  1  0  0  0  0
  7  8  2  0  0  0  0
  8 10  1  0  0  0  0
  8  9  1  0  0  0  0
 11 12  1  0  0  0  0
 11 10  1  0  0  0  0
 12 34  2  0  0  0  0
 13 12  1  0  0  0  0
 14 13  1  0  0  0  0
 14 15  1  0  0  0  0
 15 16  1  0  0  0  0
 15 17  1  0  0  0  0
 18 20  1  0  0  0  0
 18 19  1  0  0  0  0
 18 15  1  0  0  0  0
 21 18  1  0  0  0  0
 22 21  1  0  0  0  0
 22 14  2  0  0  0  0
 23 25  2  0  0  0  0
 23 22  1  0  0  0  0
 24 23  1  0  0  0  0
 25 27  1  0  0  0  0
 26 25  1  0  0  0  0
 27 13  2  0  0  0  0
 28 36  1  6  0  0  0
 28 27  1  0  0  0  0
 28 29  1  0  0  0  0
 29  7  1  0  0  0  0
 29 11  2  0  0  0  0
 32  5  1  0  0  0  0
 33 32  1  0  0  0  0
 35 21  2  0  0  0  0
 36 39  1  0  0  0  0
 36 37  1  0  0  0  0
 38 36  1  0  0  0  0
M  END
