1,2
q = 0.0, confidence = 0.844

 26 27  0  0  0  0  0  0  0  0999 V2000
   -0.5540    1.3956   -0.4496 O   0  5  0  0  0  0  0  0  0  0  0  0
   -0.6219   -1.1312   -0.8599 O   0  5  0  0  0  0  0  0  0  0  0  0
    0.5784   -0.6347   -0.5142 C   0  0  0  0  0  0  0  0  0  0  0  0
    1.6517   -1.6207   -0.2898 C   0  0  0  0  0  0  0  0  0  0  0  0
    0.6253    0.7737   -0.3814 C   0  0  0  0  0  0  0  0  0  0  0  0
    1.8130    1.6401   -0.2554 C   0  0  0  0  0  0  0  0  0  0  0  0
    1.6866    2.8646    0.4420 C   0  0  0  0  0  0  0  0  0  0  0  0
    1.5688   -2.8747   -0.9431 C   0  0  0  0  0  0  0  0  0  0  0  0
    3.0528    1.3372   -0.8681 C   0  0  0  0  0  0  0  0  0  0  0  0
    2.7750    3.7393    0.5582 C   0  0  0  0  0  0  0  0  0  0  0  0
    2.7125   -1.4094    0.6245 C   0  0  0  0  0  0  0  0  0  0  0  0
    3.6758   -2.4019    0.8430 C   0  0  0  0  0  0  0  0  0  0  0  0
    4.1370    2.2142   -0.7511 C   0  0  0  0  0  0  0  0  0  0  0  0
    2.5366   -3.8624   -0.7250 C   0  0  0  0  0  0  0  0  0  0  0  0
    4.0072    3.4156   -0.0317 C   0  0  0  0  0  0  0  0  0  0  0  0
    3.5988   -3.6304    0.1649 C   0  0  0  0  0  0  0  0  0  0  0  0
    0.7130    3.1153    0.8874 H   0  0  0  0  0  0  0  0  0  0  0  0
    0.7237   -3.0532   -1.6231 H   0  0  0  0  0  0  0  0  0  0  0  0
    3.1563    0.4122   -1.4527 H   0  0  0  0  0  0  0  0  0  0  0  0
    2.6603    4.6835    1.1125 H   0  0  0  0  0  0  0  0  0  0  0  0
    2.7779   -0.4598    1.1744 H   0  0  0  0  0  0  0  0  0  0  0  0
    4.4901   -2.2181    1.5605 H   0  0  0  0  0  0  0  0  0  0  0  0
    5.0920    1.9644   -1.2383 H   0  0  0  0  0  0  0  0  0  0  0  0
    2.4605   -4.8261   -1.2520 H   0  0  0  0  0  0  0  0  0  0  0  0
    4.8625    4.1025    0.0574 H   0  0  0  0  0  0  0  0  0  0  0  0
    4.3570   -4.4087    0.3400 H   0  0  0  0  0  0  0  0  0  0  0  0
  1  5  1  0  0  0  0
  2  3  1  0  0  0  0
  3  5  2  0  0  0  0
  3  4  1  0  0  0  0
  4 11  1  0  0  0  0
  5  6  1  0  0  0  0
  6  7  1  0  0  0  0
  7 10  2  0  0  0  0
  7 17  1  0  0  0  0
  8 14  1  0  0  0  0
  8  4  2  0  0  0  0
  9 13  1  0  0  0  0
  9  6  2  0  0  0  0
 10 20  1  0  0  0  0
 11 12  2  0  0  0  0
 11 21  1  0  0  0  0
 12 22  1  0  0  0  0
 13 15  2  0  0  0  0
 14 16  2  0  0  0  0
 15 25  1  0  0  0  0
 15 10  1  0  0  0  0
 16 26  1  0  0  0  0
 16 12  1  0  0  0  0
 18  8  1  0  0  0  0
 19  9  1  0  0  0  0
 23 13  1  0  0  0  0
 24 14  1  0  0  0  0
M  CHG  2   1  -1   2  -1
M  END
