21,23
q = -1.0, confidence = 0.042

 42 43  0  0  1  0  0  0  0  0999 V2000
    3.0419    1.6747   -0.0120 N   0  0  0  0  0  0  0  0  0  0  0  0
    4.3713    1.1869   -0.0282 C   0  0  0  0  0  0  0  0  0  0  0  0
    4.6666   -0.1510    0.3104 C   0  0  0  0  0  0  0  0  0  0  0  0
    3.8556   -0.8277    0.6020 H   0  0  0  0  0  0  0  0  0  0  0  0
    5.9974   -0.5908    0.2807 C   0  0  0  0  0  0  0  0  0  0  0  0
    6.2208   -1.6347    0.5498 H   0  0  0  0  0  0  0  0  0  0  0  0
    7.0384    0.2818   -0.0725 C   0  0  0  0  0  0  0  0  0  0  0  0
    8.0797   -0.0730   -0.0916 H   0  0  0  0  0  0  0  0  0  0  0  0
    6.7366    1.6157   -0.3924 C   0  0  0  0  0  0  0  0  0  0  0  0
    7.5429    2.3145   -0.6631 H   0  0  0  0  0  0  0  0  0  0  0  0
    5.4134    2.0727   -0.3731 C   0  0  0  0  0  0  0  0  0  0  0  0
    5.1576    3.1133   -0.6101 H   0  0  0  0  0  0  0  0  0  0  0  0
    2.8234    3.0383    0.0324 N   0  0  0  0  0  0  0  0  0  0  0  0
    1.5143    3.2176    0.0135 C   0  0  0  0  0  0  0  0  0  0  0  0
    0.9716    4.6098    0.0817 C   0  0  0  0  0  0  0  0  0  0  0  0
    1.8165    5.3182    0.1667 H   0  0  0  0  0  0  0  0  0  0  0  0
    0.3052    4.7486    0.9575 H   0  0  0  0  0  0  0  0  0  0  0  0
    0.3833    4.8725   -0.8215 H   0  0  0  0  0  0  0  0  0  0  0  0
    0.8125    1.9512   -0.0490 C   0  0  0  0  0  0  0  0  0  0  0  0
    1.8570    0.9616   -0.0666 C   0  0  1  0  0  3  0  0  0  0  0  0
    1.8140   -0.3128   -0.1695 O   0  0  0  0  0  1  0  0  0  0  0  0
   -0.5646    1.6330   -0.1584 C   0  0  0  0  0  0  0  0  0  0  0  0
   -1.0067    0.4374   -0.2095 O   0  5  0  0  0  0  0  0  0  0  0  0
   -1.6261    2.7169   -0.2314 C   0  0  0  0  0  0  0  0  0  0  0  0
   -1.3608    3.4295   -1.0417 H   0  0  0  0  0  0  0  0  0  0  0  0
   -1.5544    3.3100    0.7073 H   0  0  0  0  0  0  0  0  0  0  0  0
   -3.0472    2.1882   -0.4138 C   0  0  0  0  0  0  0  0  0  0  0  0
   -3.2494    1.4425    0.3811 H   0  0  0  0  0  0  0  0  0  0  0  0
   -3.1081    1.6241   -1.3701 H   0  0  0  0  0  0  0  0  0  0  0  0
   -4.1114    3.2888   -0.3987 C   0  0  0  0  0  0  0  0  0  0  0  0
   -3.8520    4.0615   -1.1559 H   0  0  0  0  0  0  0  0  0  0  0  0
   -4.0868    3.8114    0.5847 H   0  0  0  0  0  0  0  0  0  0  0  0
   -5.5344    2.7818   -0.6700 C   0  0  0  0  0  0  0  0  0  0  0  0
   -6.2231    3.6526   -0.7392 H   0  0  0  0  0  0  0  0  0  0  0  0
   -5.5638    2.2964   -1.6725 H   0  0  0  0  0  0  0  0  0  0  0  0
   -6.0808    1.8026    0.3759 C   0  0  0  0  0  0  0  0  0  0  0  0
   -6.0269    2.2777    1.3810 H   0  0  0  0  0  0  0  0  0  0  0  0
   -5.4213    0.9093    0.4341 H   0  0  0  0  0  0  0  0  0  0  0  0
   -7.5142    1.3528    0.0914 C   0  0  0  0  0  0  0  0  0  0  0  0
   -8.2118    2.2161    0.0655 H   0  0  0  0  0  0  0  0  0  0  0  0
   -7.8849    0.6469    0.8619 H   0  0  0  0  0  0  0  0  0  0  0  0
   -7.5880    0.8429   -0.8923 H   0  0  0  0  0  0  0  0  0  0  0  0
  1 13  1  0  0  0  0
  2  1  1  0  0  0  0
  2  3  1  0  0  0  0
  3  4  1  0  0  0  0
  5  3  2  0  0  0  0
  5  6  1  0  0  0  0
  7  5  1  0  0  0  0
  8  7  1  0  0  0  0
  9 11  1  0  0  0  0
  9  7  2  0  0  0  0
 10  9  1  0  0  0  0
 11  2  2  0  0  0  0
 12 11  1  0  0  0  0
 14 13  2  0  0  0  0
 14 15  1  0  0  0  0
 15 16  1  0  0  0  0
 15 17  1  0  0  0  0
 18 15  1  0  0  0  0
 19 14  1  0  0  0  0
 20 21  1  6  0  0  0
 20 19  1  0  0  0  0
 20  1  1  0  0  0  0
 22 19  2  0  0  0  0
 23 22  1  0  0  0  0
 24 22  1  0  0  0  0
 24 26  1  0  0  0  0
 25 24  1  0  0  0  0
 27 30  1  0  0  0  0
 27 24  1  0  0  0  0
 27 28  1  0  0  0  0
 29 27  1  0  0  0  0
 30 32  1  0  0  0  0
 31 30  1  0  0  0  0
 33 30  1  0  0  0  0
 33 36  1  0  0  0  0
 34 33  1  0  0  0  0
 35 33  1  0  0  0  0
 36 38  1  0  0  0  0
 36 37  1  0  0  0  0
 39 36  1  0  0  0  0
 39 41  1  0  0  0  0
 40 39  1  0  0  0  0
 42 39  1  0  0  0  0
M  CHG  1  23  -1
M  END
