2,3
q = -1.0, confidence = 0.008

 18 19  0  0  1  0  0  0  0  0999 V2000
   -3.6483   -3.4649    0.0404 Cl  0  0  0  0  0  0  0  0  0  0  0  0
   -1.7546    1.2171   -0.2436 O   0  5  0  0  0  0  0  0  0  0  0  0
   -1.4291   -1.4379   -0.0790 O   0  5  0  0  0  0  0  0  0  0  0  0
   -6.1668   -1.8927    0.1251 O   0  0  0  0  0  0  0  0  0  0  0  0
   -2.7924    0.5218   -0.1231 C   0  0  0  0  0  0  0  0  0  0  0  0
   -2.6345   -0.9706   -0.0423 C   0  0  0  0  0  0  0  0  0  0  0  0
   -3.7959   -1.7455    0.0107 C   0  0  2  0  0  3  0  0  0  0  0  0
   -5.1550   -1.1919    0.0572 C   0  0  0  0  0  0  0  0  0  0  0  0
   -6.5426    0.8973    0.0625 C   0  0  0  0  0  0  0  0  0  0  0  0
   -7.4123    0.2270    0.1299 H   0  0  0  0  0  0  0  0  0  0  0  0
   -6.6779    2.2954    0.0237 C   0  0  0  0  0  0  0  0  0  0  0  0
   -7.6802    2.7486    0.0622 H   0  0  0  0  0  0  0  0  0  0  0  0
   -5.5409    3.1171   -0.0636 C   0  0  0  0  0  0  0  0  0  0  0  0
   -5.6516    4.2114   -0.0931 H   0  0  0  0  0  0  0  0  0  0  0  0
   -4.2640    2.5411   -0.1127 C   0  0  0  0  0  0  0  0  0  0  0  0
   -3.3559    3.1578   -0.1799 H   0  0  0  0  0  0  0  0  0  0  0  0
   -4.1254    1.1400   -0.0723 C   0  0  0  0  0  0  0  0  0  0  0  0
   -5.2709    0.3123    0.0152 C   0  0  0  0  0  0  0  0  0  0  0  0
  2  5  1  0  0  0  0
  3  6  1  0  0  0  0
  5 17  1  0  0  0  0
  5  6  2  0  0  0  0
  6  7  1  0  0  0  0
  7  1  1  1  0  0  0
  7  8  1  0  0  0  0
  8  4  2  0  0  0  0
  9 10  1  0  0  0  0
 11 12  1  0  0  0  0
 11  9  1  0  0  0  0
 13 11  2  0  0  0  0
 14 13  1  0  0  0  0
 15 17  2  0  0  0  0
 15 13  1  0  0  0  0
 16 15  1  0  0  0  0
 17 18  1  0  0  0  0
 18  8  1  0  0  0  0
 18  9  2  0  0  0  0
M  CHG  2   2  -1   3  -1
M  END
