1,2
q = -1.0, confidence = 0.016

 36 36  0  0  1  0  0  0  0  0999 V2000
   -0.2527    0.8059    0.0001 O   0  0  0  0  0  1  0  0  0  0  0  0
   -1.1943   -1.9524   -0.0002 O   0  5  0  0  0  0  0  0  0  0  0  0
   -1.8994    2.4906    0.0002 C   0  0  0  0  0  0  0  0  0  0  0  0
   -0.9836    3.1087    0.0010 H   0  0  0  0  0  0  0  0  0  0  0  0
   -2.5187    2.7378    0.8857 H   0  0  0  0  0  0  0  0  0  0  0  0
   -2.5173    2.7381   -0.8862 H   0  0  0  0  0  0  0  0  0  0  0  0
   -1.5179    1.0253    0.0001 C   0  0  1  0  0  3  0  0  0  0  0  0
   -2.5540    0.0479   -0.0000 C   0  0  0  0  0  0  0  0  0  0  0  0
   -2.3323   -1.3592   -0.0002 C   0  0  0  0  0  0  0  0  0  0  0  0
   -3.5361   -2.2802   -0.0003 C   0  0  0  0  0  0  0  0  0  0  0  0
   -3.2009   -3.3332   -0.0011 H   0  0  0  0  0  0  0  0  0  0  0  0
   -4.1770   -2.0933   -0.8853 H   0  0  0  0  0  0  0  0  0  0  0  0
   -4.1762   -2.0944    0.8854 H   0  0  0  0  0  0  0  0  0  0  0  0
   -3.9776    0.5349    0.0000 C   0  0  0  0  0  0  0  0  0  0  0  0
   -4.6451    0.7626    1.2339 C   0  0  0  0  0  0  0  0  0  0  0  0
   -5.9865    1.2202    1.2302 C   0  0  0  0  0  0  0  0  0  0  0  0
   -6.6269    1.4387    0.0001 C   0  0  0  0  0  0  0  0  0  0  0  0
   -7.6705    1.7951    0.0001 H   0  0  0  0  0  0  0  0  0  0  0  0
   -5.9863    1.2210   -1.2301 C   0  0  0  0  0  0  0  0  0  0  0  0
   -4.6449    0.7634   -1.2338 C   0  0  0  0  0  0  0  0  0  0  0  0
   -3.9527    0.5293   -2.5539 C   0  0  0  0  0  0  0  0  0  0  0  0
   -3.9195    1.4564   -3.1656 H   0  0  0  0  0  0  0  0  0  0  0  0
   -4.4935   -0.2213   -3.1696 H   0  0  0  0  0  0  0  0  0  0  0  0
   -2.9148    0.1746   -2.4172 H   0  0  0  0  0  0  0  0  0  0  0  0
   -6.7170    1.4721   -2.5246 C   0  0  0  0  0  0  0  0  0  0  0  0
   -6.7757    0.5555   -3.1496 H   0  0  0  0  0  0  0  0  0  0  0  0
   -6.2025    2.2354   -3.1468 H   0  0  0  0  0  0  0  0  0  0  0  0
   -7.7507    1.8245   -2.3435 H   0  0  0  0  0  0  0  0  0  0  0  0
   -6.7174    1.4705    2.5248 C   0  0  0  0  0  0  0  0  0  0  0  0
   -7.7510    1.8230    2.3438 H   0  0  0  0  0  0  0  0  0  0  0  0
   -6.2030    2.2333    3.1476 H   0  0  0  0  0  0  0  0  0  0  0  0
   -6.7762    0.5533    3.1492 H   0  0  0  0  0  0  0  0  0  0  0  0
   -3.9531    0.5276    2.5540 C   0  0  0  0  0  0  0  0  0  0  0  0
   -4.4940   -0.2232    3.1692 H   0  0  0  0  0  0  0  0  0  0  0  0
   -3.9198    1.4544    3.1662 H   0  0  0  0  0  0  0  0  0  0  0  0
   -2.9152    0.1730    2.4172 H   0  0  0  0  0  0  0  0  0  0  0  0
  3  4  1  0  0  0  0
  3  5  1  0  0  0  0
  6  3  1  0  0  0  0
  7  1  1  6  0  0  0
  7  3  1  0  0  0  0
  8 14  1  0  0  0  0
  8  7  1  0  0  0  0
  9  2  1  0  0  0  0
  9  8  2  0  0  0  0
 10  9  1  0  0  0  0
 10 13  1  0  0  0  0
 11 10  1  0  0  0  0
 12 10  1  0  0  0  0
 14 15  1  0  0  0  0
 15 33  1  0  0  0  0
 16 15  2  0  0  0  0
 16 29  1  0  0  0  0
 17 18  1  0  0  0  0
 17 16  1  0  0  0  0
 19 17  2  0  0  0  0
 20 19  1  0  0  0  0
 20 14  2  0  0  0  0
 21 24  1  0  0  0  0
 21 20  1  0  0  0  0
 22 21  1  0  0  0  0
 23 21  1  0  0  0  0
 25 28  1  0  0  0  0
 25 19  1  0  0  0  0
 26 25  1  0  0  0  0
 27 25  1  0  0  0  0
 29 31  1  0  0  0  0
 29 32  1  0  0  0  0
 30 29  1  0  0  0  0
 33 35  1  0  0  0  0
 33 34  1  0  0  0  0
 36 33  1  0  0  0  0
M  CHG  1   2  -1
M  END
