2,3
q = -1.0, confidence = 0.012

 20 21  0  0  1  0  0  0  0  0999 V2000
    4.1429   -1.7548   -0.0000 S   0  0  0  0  0  0  0  0  0  0  0  0
    0.1644   -2.1220   -0.0004 O   0  5  0  0  0  0  0  0  0  0  0  0
    1.0773    0.7215   -0.0002 O   0  5  0  0  0  0  0  0  0  0  0  0
    1.8511   -3.8051    0.0004 C   0  0  0  0  0  0  0  0  0  0  0  0
    0.9613   -4.4594   -0.0123 H   0  0  0  0  0  0  0  0  0  0  0  0
    2.4611   -4.0311    0.8999 H   0  0  0  0  0  0  0  0  0  0  0  0
    2.4846   -4.0268   -0.8836 H   0  0  0  0  0  0  0  0  0  0  0  0
    1.4201   -2.3574   -0.0006 C   0  0  0  0  0  0  0  0  0  0  0  0
    2.4080   -1.3363   -0.0005 C   0  0  0  0  0  0  0  0  0  0  0  0
    2.1992    0.0779   -0.0003 C   0  0  0  0  0  0  0  0  0  0  0  0
    3.4655    0.8021   -0.0001 C   0  0  0  0  0  0  0  0  0  0  0  0
    3.6493    2.1999    0.0000 C   0  0  0  0  0  0  0  0  0  0  0  0
    2.7644    2.8532   -0.0000 H   0  0  0  0  0  0  0  0  0  0  0  0
    4.9462    2.7176    0.0003 C   0  0  0  0  0  0  0  0  0  0  0  0
    5.1048    3.8061    0.0003 H   0  0  0  0  0  0  0  0  0  0  0  0
    6.0622    1.8482    0.0004 C   0  0  0  0  0  0  0  0  0  0  0  0
    7.0789    2.2699    0.0005 H   0  0  0  0  0  0  0  0  0  0  0  0
    5.9000    0.4580    0.0003 C   0  0  0  0  0  0  0  0  0  0  0  0
    6.7724   -0.2118    0.0004 H   0  0  0  0  0  0  0  0  0  0  0  0
    4.5925   -0.0616    0.0000 C   0  0  1  0  0  3  0  0  0  0  0  0
  1 20  1  0  0  0  0
  4  6  1  0  0  0  0
  5  4  1  0  0  0  0
  7  4  1  0  0  0  0
  8  9  2  0  0  0  0
  8  2  1  0  0  0  0
  8  4  1  0  0  0  0
  9 10  1  0  0  0  0
  9  1  1  0  0  0  0
 10  3  1  0  0  0  0
 10 11  2  0  0  0  0
 11 12  1  0  0  0  0
 12 14  2  0  0  0  0
 13 12  1  0  0  0  0
 14 15  1  0  0  0  0
 14 16  1  0  0  0  0
 16 17  1  0  0  0  0
 18 16  2  0  0  0  0
 18 19  1  0  0  0  0
 20 11  1  1  0  0  0
 20 18  1  0  0  0  0
M  CHG  2   2  -1   3  -1
M  END
