1,2
q = 0.0, confidence = 1.0

 23 22  0  0  1  0  0  0  0  0999 V2000
   -0.3484    1.3986    0.3199 O   0  0  0  0  0  1  0  0  0  0  0  0
   -0.3474   -1.3988    0.3199 O   0  0  0  0  0  1  0  0  0  0  0  0
   -2.4183    2.1562    0.7385 O   0  0  0  0  0  0  0  0  0  0  0  0
   -2.4168   -2.1578    0.7385 O   0  0  0  0  0  0  0  0  0  0  0  0
   -1.4641    1.2414    0.8148 C   0  0  2  0  0  3  0  0  0  0  0  0
   -1.4633   -1.2424    0.8149 C   0  0  1  0  0  3  0  0  0  0  0  0
   -2.0970    3.3641   -0.0283 C   0  0  0  0  0  0  0  0  0  0  0  0
   -2.2327    3.1159   -1.5192 C   0  0  0  0  0  0  0  0  0  0  0  0
   -2.0947   -3.3655   -0.0283 C   0  0  0  0  0  0  0  0  0  0  0  0
   -2.2304   -3.1173   -1.5192 C   0  0  0  0  0  0  0  0  0  0  0  0
   -1.8680   -0.0006    1.5742 C   0  0  0  0  0  0  0  0  0  0  0  0
   -1.0697    3.6794    0.2412 H   0  0  0  0  0  0  0  0  0  0  0  0
   -2.8242    4.1087    0.3456 H   0  0  0  0  0  0  0  0  0  0  0  0
   -2.0376    4.0610   -2.0644 H   0  0  0  0  0  0  0  0  0  0  0  0
   -1.4990    2.3619   -1.8679 H   0  0  0  0  0  0  0  0  0  0  0  0
   -3.2556    2.7761   -1.7759 H   0  0  0  0  0  0  0  0  0  0  0  0
   -2.8215   -4.1106    0.3455 H   0  0  0  0  0  0  0  0  0  0  0  0
   -1.0673   -3.6801    0.2413 H   0  0  0  0  0  0  0  0  0  0  0  0
   -1.4971   -2.3628   -1.8677 H   0  0  0  0  0  0  0  0  0  0  0  0
   -2.0347   -4.0622   -2.0645 H   0  0  0  0  0  0  0  0  0  0  0  0
   -3.2535   -2.7781   -1.7760 H   0  0  0  0  0  0  0  0  0  0  0  0
   -1.2383   -0.0004    2.4956 H   0  0  0  0  0  0  0  0  0  0  0  0
   -2.9405   -0.0010    1.8290 H   0  0  0  0  0  0  0  0  0  0  0  0
  3  5  1  0  0  0  0
  4  6  1  0  0  0  0
  5  1  1  1  0  0  0
  5 11  1  0  0  0  0
  6  2  1  1  0  0  0
  6 11  1  0  0  0  0
  7 12  1  0  0  0  0
  7 13  1  0  0  0  0
  7  3  1  0  0  0  0
  8  7  1  0  0  0  0
  9 18  1  0  0  0  0
  9 17  1  0  0  0  0
  9  4  1  0  0  0  0
 10  9  1  0  0  0  0
 11 23  1  0  0  0  0
 11 22  1  0  0  0  0
 14  8  1  0  0  0  0
 15  8  1  0  0  0  0
 16  8  1  0  0  0  0
 19 10  1  0  0  0  0
 20 10  1  0  0  0  0
 21 10  1  0  0  0  0
M  END
