1,3
q = -2.0, confidence = 0.916

 17 17  0  0  0  0  0  0  0  0999 V2000
   -0.6663   -1.3845    1.3958 O   0  5  0  0  0  0  0  0  0  0  0  0
    0.4907   -2.5923    2.8357 O   0  0  0  0  0  0  0  0  0  0  0  0
    0.4969   -0.9483   -1.0611 O   0  5  0  0  0  0  0  0  0  0  0  0
    1.6311   -1.9931    0.8238 C   0  0  0  0  0  0  0  0  0  0  0  0
    1.5846   -1.4696   -0.5008 C   0  0  0  0  0  0  0  0  0  0  0  0
    2.7687   -1.5313   -1.2863 C   0  0  0  0  0  0  0  0  0  0  0  0
    3.9358   -2.1066   -0.7853 C   0  0  0  0  0  0  0  0  0  0  0  0
    3.9951   -2.6374    0.5253 C   0  0  0  0  0  0  0  0  0  0  0  0
    2.8291   -2.5635    1.2995 C   0  0  0  0  0  0  0  0  0  0  0  0
    0.4547   -1.9986    1.7544 C   0  0  0  0  0  0  0  0  0  0  0  0
    5.2671   -3.2488    1.0594 C   0  0  0  0  0  0  0  0  0  0  0  0
    2.8038   -2.9595    2.3274 H   0  0  0  0  0  0  0  0  0  0  0  0
    4.8351   -2.1369   -1.4231 H   0  0  0  0  0  0  0  0  0  0  0  0
    2.7269   -1.1083   -2.3010 H   0  0  0  0  0  0  0  0  0  0  0  0
    6.1043   -2.5180    1.0651 H   0  0  0  0  0  0  0  0  0  0  0  0
    5.1337   -3.6134    2.0966 H   0  0  0  0  0  0  0  0  0  0  0  0
    5.6011   -4.1095    0.4412 H   0  0  0  0  0  0  0  0  0  0  0  0
  1 10  1  0  0  0  0
  3  5  1  0  0  0  0
  4  9  1  0  0  0  0
  4 10  1  0  0  0  0
  5  4  2  0  0  0  0
  6  7  2  0  0  0  0
  6  5  1  0  0  0  0
  7  8  1  0  0  0  0
  8 11  1  0  0  0  0
  8  9  2  0  0  0  0
  9 12  1  0  0  0  0
 10  2  2  0  0  0  0
 11 15  1  0  0  0  0
 11 16  1  0  0  0  0
 13  7  1  0  0  0  0
 14  6  1  0  0  0  0
 17 11  1  0  0  0  0
M  CHG  2   1  -1   3  -1
M  END
