3,5
q = -2.0, confidence = 0.834

 31 32  0  0  0  0  0  0  0  0999 V2000
   -1.4176   -0.7338    0.0821 N   0  0  0  0  0  0  0  0  0  0  0  0
   -2.6931   -1.3439    0.0856 N   0  0  0  0  0  0  0  0  0  0  0  0
    0.5730   -0.5902    1.2662 O   0  5  0  0  0  0  0  0  0  0  0  0
   -1.3483   -1.0243    2.3561 O   0  0  0  0  0  0  0  0  0  0  0  0
    0.3502    0.0105   -1.1949 O   0  5  0  0  0  0  0  0  0  0  0  0
   -1.6265   -0.3948   -2.1906 O   0  0  0  0  0  0  0  0  0  0  0  0
   -0.7359   -0.7942    1.3249 C   0  0  0  0  0  0  0  0  0  0  0  0
   -0.9196   -0.3659   -1.1968 C   0  0  0  0  0  0  0  0  0  0  0  0
   -3.6944   -0.5235    0.0104 C   0  0  0  0  0  0  0  0  0  0  0  0
   -3.5633    0.9649    0.0904 C   0  0  0  0  0  0  0  0  0  0  0  0
   -3.2627    1.5595    1.3334 C   0  0  0  0  0  0  0  0  0  0  0  0
   -3.1981    2.9574    1.4426 C   0  0  0  0  0  0  0  0  0  0  0  0
   -3.4164    3.7656    0.3148 C   0  0  0  0  0  0  0  0  0  0  0  0
   -3.6916    3.1721   -0.9282 C   0  0  0  0  0  0  0  0  0  0  0  0
   -3.7695    1.7760   -1.0425 C   0  0  0  0  0  0  0  0  0  0  0  0
   -5.0506   -1.1140   -0.1092 C   0  0  0  0  0  0  0  0  0  0  0  0
   -6.2066   -0.3158    0.0340 C   0  0  0  0  0  0  0  0  0  0  0  0
   -7.4822   -0.8891   -0.0690 C   0  0  0  0  0  0  0  0  0  0  0  0
   -7.6190   -2.2630   -0.3178 C   0  0  0  0  0  0  0  0  0  0  0  0
   -6.4721   -3.0650   -0.4630 C   0  0  0  0  0  0  0  0  0  0  0  0
   -5.1987   -2.4980   -0.3615 C   0  0  0  0  0  0  0  0  0  0  0  0
   -3.0756    0.9112    2.2032 H   0  0  0  0  0  0  0  0  0  0  0  0
   -2.9741    3.4180    2.4170 H   0  0  0  0  0  0  0  0  0  0  0  0
   -3.3648    4.8616    0.4032 H   0  0  0  0  0  0  0  0  0  0  0  0
   -3.8476    3.8015   -1.8175 H   0  0  0  0  0  0  0  0  0  0  0  0
   -3.9725    1.3012   -2.0132 H   0  0  0  0  0  0  0  0  0  0  0  0
   -6.1019    0.7603    0.2345 H   0  0  0  0  0  0  0  0  0  0  0  0
   -8.3755   -0.2569    0.0473 H   0  0  0  0  0  0  0  0  0  0  0  0
   -8.6208   -2.7116   -0.4022 H   0  0  0  0  0  0  0  0  0  0  0  0
   -6.5763   -4.1425   -0.6626 H   0  0  0  0  0  0  0  0  0  0  0  0
   -4.2885   -3.1030   -0.4763 H   0  0  0  0  0  0  0  0  0  0  0  0
  1  2  1  0  0  0  0
  1  7  1  0  0  0  0
  3  7  1  0  0  0  0
  6  8  2  0  0  0  0
  7  4  2  0  0  0  0
  8  5  1  0  0  0  0
  8  1  1  0  0  0  0
  9  2  2  0  0  0  0
  9 10  1  0  0  0  0
 10 11  1  0  0  0  0
 11 12  2  0  0  0  0
 11 22  1  0  0  0  0
 12 23  1  0  0  0  0
 13 24  1  0  0  0  0
 13 12  1  0  0  0  0
 14 13  2  0  0  0  0
 15 14  1  0  0  0  0
 15 10  2  0  0  0  0
 16  9  1  0  0  0  0
 16 17  1  0  0  0  0
 17 27  1  0  0  0  0
 18 17  2  0  0  0  0
 18 28  1  0  0  0  0
 19 18  1  0  0  0  0
 20 21  1  0  0  0  0
 20 19  2  0  0  0  0
 21 16  2  0  0  0  0
 25 14  1  0  0  0  0
 26 15  1  0  0  0  0
 29 19  1  0  0  0  0
 30 20  1  0  0  0  0
 31 21  1  0  0  0  0
M  CHG  2   3  -1   5  -1
M  END
