13,14
q = -2.0, confidence = 0.924

 28 27  0  0  0  0  0  0  0  0999 V2000
    2.8167   -2.1136   -2.2001 F   0  0  0  0  0  0  0  0  0  0  0  0
    1.9716   -3.8907   -1.2497 F   0  0  0  0  0  0  0  0  0  0  0  0
    3.6290   -2.8182   -0.3142 F   0  0  0  0  0  0  0  0  0  0  0  0
    0.2958   -1.5607    1.8191 F   0  0  0  0  0  0  0  0  0  0  0  0
    1.9686   -2.9480    1.7700 F   0  0  0  0  0  0  0  0  0  0  0  0
    0.0999   -3.4625    0.7632 F   0  0  0  0  0  0  0  0  0  0  0  0
   -5.1241   -0.1296    1.3621 F   0  0  0  0  0  0  0  0  0  0  0  0
   -4.8213   -1.6371   -0.1876 F   0  0  0  0  0  0  0  0  0  0  0  0
   -3.6328   -1.6878    1.6433 F   0  0  0  0  0  0  0  0  0  0  0  0
   -4.7109    1.7227   -0.5309 F   0  0  0  0  0  0  0  0  0  0  0  0
   -4.1990    0.2620   -2.0671 F   0  0  0  0  0  0  0  0  0  0  0  0
   -2.7557    1.7951   -1.4853 F   0  0  0  0  0  0  0  0  0  0  0  0
    2.1791   -0.6134    0.0959 O   0  0  0  0  0  1  0  0  0  0  0  0
   -0.3074    0.6346   -0.1538 O   0  5  0  0  0  0  0  0  0  0  0  0
   -2.5805    0.8304    1.1019 O   0  0  0  0  0  0  0  0  0  0  0  0
    1.4697   -1.7376   -0.2574 C   0  0  0  0  0  0  0  0  0  0  0  0
    0.2938   -1.4504   -1.2282 C   0  0  0  0  0  0  0  0  0  0  0  0
   -0.7404   -0.5435   -0.6213 C   0  0  0  0  0  0  0  0  0  0  0  0
   -2.0594   -0.8846   -0.5621 C   0  0  0  0  0  0  0  0  0  0  0  0
   -3.0937    0.0162    0.0730 C   0  0  0  0  0  0  0  0  0  0  0  0
    2.4825   -2.6629   -1.0048 C   0  0  0  0  0  0  0  0  0  0  0  0
    0.9494   -2.4460    1.0361 C   0  0  0  0  0  0  0  0  0  0  0  0
   -4.1899   -0.8672    0.7337 C   0  0  0  0  0  0  0  0  0  0  0  0
   -3.7158    0.9526   -1.0129 C   0  0  0  0  0  0  0  0  0  0  0  0
    0.7509   -0.9451   -2.1048 H   0  0  0  0  0  0  0  0  0  0  0  0
   -0.1661   -2.3949   -1.5729 H   0  0  0  0  0  0  0  0  0  0  0  0
   -2.3944   -1.8334   -0.9976 H   0  0  0  0  0  0  0  0  0  0  0  0
   -1.6034    0.8575    0.9148 H   0  0  0  0  0  0  0  0  0  0  0  0
  1 21  1  0  0  0  0
  2 21  1  0  0  0  0
  6 22  1  0  0  0  0
  8 23  1  0  0  0  0
 11 24  1  0  0  0  0
 12 24  1  0  0  0  0
 16 13  1  0  0  0  0
 16 22  1  0  0  0  0
 17 18  1  0  0  0  0
 17 16  1  0  0  0  0
 18 19  2  0  0  0  0
 18 14  1  0  0  0  0
 19 20  1  0  0  0  0
 20 23  1  0  0  0  0
 20 15  1  0  0  0  0
 21  3  1  0  0  0  0
 21 16  1  0  0  0  0
 22  5  1  0  0  0  0
 22  4  1  0  0  0  0
 23  7  1  0  0  0  0
 23  9  1  0  0  0  0
 24 10  1  0  0  0  0
 24 20  1  0  0  0  0
 25 17  1  0  0  0  0
 26 17  1  0  0  0  0
 27 19  1  0  0  0  0
 28 15  1  0  0  0  0
M  CHG  1  14  -1
M  END
