1,19
q = -1.0, confidence = 0.004

 24 23  0  0  1  0  0  0  0  0999 V2000
    1.8726    0.4356    0.0933 O   0  0  0  0  0  1  0  0  0  0  0  0
    3.9135    0.6510   -0.8326 O   0  0  0  0  0  0  0  0  0  0  0  0
    2.6226    0.2800   -0.9170 C   0  0  1  0  0  3  0  0  0  0  0  0
    2.2320   -0.2735   -2.1673 C   0  0  0  0  0  0  0  0  0  0  0  0
    3.0004   -0.3836   -2.9414 H   0  0  0  0  0  0  0  0  0  0  0  0
    4.4240    1.4136    0.3230 C   0  0  0  0  0  0  0  0  0  0  0  0
    4.2977    0.6047    1.6214 C   0  0  0  0  0  0  0  0  0  0  0  0
    3.2464    0.5374    1.9530 H   0  0  0  0  0  0  0  0  0  0  0  0
    4.8975    1.0936    2.4153 H   0  0  0  0  0  0  0  0  0  0  0  0
    4.6965   -0.4192    1.4735 H   0  0  0  0  0  0  0  0  0  0  0  0
    3.6943    2.7599    0.4086 C   0  0  0  0  0  0  0  0  0  0  0  0
    3.8145    3.3226   -0.5386 H   0  0  0  0  0  0  0  0  0  0  0  0
    4.1304    3.3664    1.2275 H   0  0  0  0  0  0  0  0  0  0  0  0
    2.6151    2.6208    0.6060 H   0  0  0  0  0  0  0  0  0  0  0  0
    5.8968    1.6117   -0.0448 C   0  0  0  0  0  0  0  0  0  0  0  0
    6.4113    0.6343   -0.1319 H   0  0  0  0  0  0  0  0  0  0  0  0
    6.4080    2.2113    0.7334 H   0  0  0  0  0  0  0  0  0  0  0  0
    5.9867    2.1394   -1.0144 H   0  0  0  0  0  0  0  0  0  0  0  0
   -0.0791   -0.5400   -1.5982 O   0  5  0  0  0  0  0  0  0  0  0  0
    0.9114   -0.6603   -2.4183 C   0  0  0  0  0  0  0  0  0  0  0  0
    0.5399   -1.2855   -3.7438 C   0  0  0  0  0  0  0  0  0  0  0  0
   -0.3500   -0.7739   -4.1620 H   0  0  0  0  0  0  0  0  0  0  0  0
    1.3684   -1.2496   -4.4746 H   0  0  0  0  0  0  0  0  0  0  0  0
    0.2541   -2.3450   -3.5757 H   0  0  0  0  0  0  0  0  0  0  0  0
  2  6  1  0  0  0  0
  3  2  1  0  0  0  0
  3  1  1  1  0  0  0
  4  3  1  0  0  0  0
  5  4  1  0  0  0  0
  6 11  1  0  0  0  0
  6  7  1  0  0  0  0
  7  8  1  0  0  0  0
  7  9  1  0  0  0  0
 10  7  1  0  0  0  0
 11 14  1  0  0  0  0
 11 13  1  0  0  0  0
 12 11  1  0  0  0  0
 15  6  1  0  0  0  0
 15 17  1  0  0  0  0
 16 15  1  0  0  0  0
 18 15  1  0  0  0  0
 20  4  2  0  0  0  0
 20 19  1  0  0  0  0
 21 24  1  0  0  0  0
 21 20  1  0  0  0  0
 22 21  1  0  0  0  0
 23 21  1  0  0  0  0
M  CHG  1  19  -1
M  END
