1,2
q = 0.0, confidence = 0.894

 15 14  0  0  1  0  0  0  0  0999 V2000
    0.7000   -1.0700    1.5497 O   0  0  0  0  0  1  0  0  0  0  0  0
    1.5564    0.2983   -0.6044 O   0  0  0  0  0  1  0  0  0  0  0  0
    2.2178   -2.3330    2.8793 C   0  0  0  0  0  0  0  0  0  0  0  0
    1.2945   -2.5827    3.4328 H   0  0  0  0  0  0  0  0  0  0  0  0
    2.9631   -1.8984    3.5794 H   0  0  0  0  0  0  0  0  0  0  0  0
    2.6627   -3.2660    2.4678 H   0  0  0  0  0  0  0  0  0  0  0  0
    1.8958   -1.3778    1.7676 C   0  0  2  0  0  3  0  0  0  0  0  0
    3.0488   -0.8250    0.9650 C   0  0  0  0  0  0  0  0  0  0  0  0
    3.6830   -1.6825    0.6304 H   0  0  0  0  0  0  0  0  0  0  0  0
    3.7191   -0.2628    1.6616 H   0  0  0  0  0  0  0  0  0  0  0  0
    2.7379    0.0427   -0.2291 C   0  0  2  0  0  3  0  0  0  0  0  0
    3.8901    0.6696   -0.9558 C   0  0  0  0  0  0  0  0  0  0  0  0
    3.5314    1.1584   -1.8802 H   0  0  0  0  0  0  0  0  0  0  0  0
    4.6713   -0.0821   -1.2008 H   0  0  0  0  0  0  0  0  0  0  0  0
    4.3823    1.4485   -0.3291 H   0  0  0  0  0  0  0  0  0  0  0  0
  3  4  1  0  0  0  0
  3  5  1  0  0  0  0
  6  3  1  0  0  0  0
  7  1  1  1  0  0  0
  7  3  1  0  0  0  0
  8 10  1  0  0  0  0
  8  7  1  0  0  0  0
  9  8  1  0  0  0  0
 11  2  1  1  0  0  0
 11  8  1  0  0  0  0
 12 15  1  0  0  0  0
 12 11  1  0  0  0  0
 13 12  1  0  0  0  0
 14 12  1  0  0  0  0
M  END
