3,5
q = -2.0, confidence = 0.834

 21 22  0  0  1  0  0  0  0  0999 V2000
   -3.6134    1.4900   -0.6758 Cl  0  0  0  0  0  0  0  0  0  0  0  0
   -3.0210   -2.4430    0.1280 Cl  0  0  0  0  0  0  0  0  0  0  0  0
    1.6882    1.3821   -0.7093 O   0  5  0  0  0  0  0  0  0  0  0  0
    0.9292    3.4118   -0.1704 O   0  0  0  0  0  0  0  0  0  0  0  0
    1.7492   -0.2747    1.4540 O   0  5  0  0  0  0  0  0  0  0  0  0
    1.0278    0.7548    3.3016 O   0  0  0  0  0  0  0  0  0  0  0  0
   -0.3140   -0.6717   -0.5105 O   0  0  0  0  0  0  0  0  0  0  0  0
    0.7725    2.2029   -0.2107 C   0  0  0  0  0  0  0  0  0  0  0  0
    0.8417    0.3938    2.1514 C   0  0  0  0  0  0  0  0  0  0  0  0
   -0.5209    0.5808    1.4521 C   0  0  1  0  0  0  0  0  0  0  0  0
   -0.5563    1.5405    0.2031 C   0  0  2  0  0  0  0  0  0  0  0  0
   -0.9926    0.5671   -0.9060 C   0  0  2  0  0  0  0  0  0  0  0  0
   -2.4653    0.1227   -0.7857 C   0  0  1  0  0  0  0  0  0  0  0  0
   -2.4291   -0.7799    0.4776 C   0  0  2  0  0  0  0  0  0  0  0  0
   -0.9364   -0.7646    0.8193 C   0  0  1  0  0  0  0  0  0  0  0  0
   -1.2330    0.9196    2.2264 H   0  0  0  0  0  0  0  0  0  0  0  0
   -1.2904    2.3519    0.3487 H   0  0  0  0  0  0  0  0  0  0  0  0
   -0.6892    0.8342   -1.9328 H   0  0  0  0  0  0  0  0  0  0  0  0
   -2.7560   -0.4774   -1.6666 H   0  0  0  0  0  0  0  0  0  0  0  0
   -3.0489   -0.3743    1.2966 H   0  0  0  0  0  0  0  0  0  0  0  0
   -0.5765   -1.6757    1.3258 H   0  0  0  0  0  0  0  0  0  0  0  0
  2 14  1  0  0  0  0
  3  8  1  0  0  0  0
  5  9  1  0  0  0  0
  7 15  1  0  0  0  0
  8  4  2  0  0  0  0
  8 11  1  0  0  0  0
  9  6  2  0  0  0  0
 10  9  1  0  0  0  0
 10 16  1  1  0  0  0
 11 17  1  1  0  0  0
 11 10  1  0  0  0  0
 12 18  1  6  0  0  0
 12 13  1  0  0  0  0
 12  7  1  0  0  0  0
 12 11  1  0  0  0  0
 13 19  1  6  0  0  0
 13  1  1  0  0  0  0
 13 14  1  0  0  0  0
 14 15  1  0  0  0  0
 14 20  1  1  0  0  0
 15 21  1  1  0  0  0
 15 10  1  0  0  0  0
M  CHG  2   3  -1   5  -1
M  END
