3,4
q = -2.0, confidence = 0.8

 14 14  0  0  0  0  0  0  0  0999 V2000
    4.2964   -1.4839    0.2318 S   0  0  0  0  0  0  0  0  0  0  0  0
    4.2963    1.4839    0.2318 S   0  0  0  0  0  0  0  0  0  0  0  0
    0.0063   -1.4879   -0.3395 O   0  5  0  0  0  0  0  0  0  0  0  0
    0.0062    1.4878   -0.3396 O   0  5  0  0  0  0  0  0  0  0  0  0
    1.3196   -1.3397   -0.1646 C   0  0  0  0  0  0  0  0  0  0  0  0
    2.0060   -2.3687   -0.0679 O   0  0  0  0  0  0  0  0  0  0  0  0
    1.3196    1.3396   -0.1646 C   0  0  0  0  0  0  0  0  0  0  0  0
    2.0059    2.3686   -0.0677 O   0  0  0  0  0  0  0  0  0  0  0  0
    1.9572   -0.0000   -0.0818 C   0  0  0  0  0  0  0  0  0  0  0  0
    3.3525    0.0000    0.1054 C   0  0  0  0  0  0  0  0  0  0  0  0
    5.8436   -0.6761    0.4364 C   0  0  0  0  0  0  0  0  0  0  0  0
    6.7293   -1.3174    0.5539 H   0  0  0  0  0  0  0  0  0  0  0  0
    5.8436    0.6762    0.4365 C   0  0  0  0  0  0  0  0  0  0  0  0
    6.7293    1.3176    0.5540 H   0  0  0  0  0  0  0  0  0  0  0  0
  1 11  1  0  0  0  0
  2 13  1  0  0  0  0
  3  5  1  0  0  0  0
  4  7  1  0  0  0  0
  5  9  1  0  0  0  0
  5  6  2  0  0  0  0
  7  9  1  0  0  0  0
  7  8  2  0  0  0  0
  9 10  2  0  0  0  0
 10  1  1  0  0  0  0
 10  2  1  0  0  0  0
 11 13  2  0  0  0  0
 11 12  1  0  0  0  0
 13 14  1  0  0  0  0
M  CHG  2   3  -1   4  -1
M  END
