4,5
q = -1.0, confidence = 0.108

 62 65  0  0  1  0  0  0  0  0999 V2000
    1.0538    4.0087   -0.2952 N   0  0  0  0  0  0  0  0  0  0  0  0
   -3.8469    0.9102   -0.5478 N   0  0  0  0  0  0  0  0  0  0  0  0
   -1.9822   -3.2415   -0.3127 N   0  0  0  0  0  0  0  0  0  0  0  0
    2.9229    0.3732   -0.1934 O   0  0  0  0  0  1  0  0  0  0  0  0
    1.9161   -2.0013   -0.1225 O   0  5  0  0  0  0  0  0  0  0  0  0
    0.3458    6.5706    0.7320 O   0  0  0  0  0  0  0  0  0  0  0  0
   -6.0333    1.1721    1.2639 O   0  0  0  0  0  0  0  0  0  0  0  0
   -4.3762   -4.5122    0.5634 O   0  0  0  0  0  0  0  0  0  0  0  0
    1.0650   -1.0430   -0.3727 C   0  0  0  0  0  0  0  0  0  0  0  0
    1.6343    0.3066   -0.4057 C   0  0  1  0  0  3  0  0  0  0  0  0
    0.9431    1.5375   -0.6084 C   0  0  0  0  0  0  0  0  0  0  0  0
   -0.4054    1.7170   -0.9452 C   0  0  0  0  0  0  0  0  0  0  0  0
   -0.6628    2.7827   -1.0838 H   0  0  0  0  0  0  0  0  0  0  0  0
   -1.4472    0.7951   -1.1186 C   0  0  0  0  0  0  0  0  0  0  0  0
   -1.3659   -0.5962   -0.9322 C   0  0  0  0  0  0  0  0  0  0  0  0
   -2.3104   -1.1509   -1.0688 H   0  0  0  0  0  0  0  0  0  0  0  0
   -0.2983   -1.4209   -0.5705 C   0  0  0  0  0  0  0  0  0  0  0  0
    1.8118    2.7841   -0.4738 C   0  0  0  0  0  0  0  0  0  0  0  0
    2.5517    2.6099    0.3471 H   0  0  0  0  0  0  0  0  0  0  0  0
    2.4321    2.8745   -1.3936 H   0  0  0  0  0  0  0  0  0  0  0  0
    1.7549    5.2139   -0.7230 C   0  0  0  0  0  0  0  0  0  0  0  0
    2.0701    5.0969   -1.7813 H   0  0  0  0  0  0  0  0  0  0  0  0
    2.6798    5.3985   -0.1135 H   0  0  0  0  0  0  0  0  0  0  0  0
    0.8277    6.4216   -0.5932 C   0  0  0  0  0  0  0  0  0  0  0  0
    1.3675    7.3558   -0.8471 H   0  0  0  0  0  0  0  0  0  0  0  0
   -0.0264    6.2997   -1.3058 H   0  0  0  0  0  0  0  0  0  0  0  0
   -0.3467    5.4059    1.1470 C   0  0  0  0  0  0  0  0  0  0  0  0
   -1.2575    5.2475    0.5152 H   0  0  0  0  0  0  0  0  0  0  0  0
   -0.6736    5.5800    2.1917 H   0  0  0  0  0  0  0  0  0  0  0  0
    0.5396    4.1653    1.0636 C   0  0  0  0  0  0  0  0  0  0  0  0
    1.3772    4.2567    1.8055 H   0  0  0  0  0  0  0  0  0  0  0  0
   -0.0497    3.2657    1.3408 H   0  0  0  0  0  0  0  0  0  0  0  0
   -2.8230    1.3288   -1.4944 C   0  0  0  0  0  0  0  0  0  0  0  0
   -2.7738    2.4447   -1.6017 H   0  0  0  0  0  0  0  0  0  0  0  0
   -3.1122    0.9295   -2.4917 H   0  0  0  0  0  0  0  0  0  0  0  0
   -3.6661    1.4880    0.7805 C   0  0  0  0  0  0  0  0  0  0  0  0
   -3.7455    2.6092    0.7531 H   0  0  0  0  0  0  0  0  0  0  0  0
   -2.6509    1.2371    1.1535 H   0  0  0  0  0  0  0  0  0  0  0  0
   -4.7190    0.9365    1.7390 C   0  0  0  0  0  0  0  0  0  0  0  0
   -4.5462   -0.1606    1.8769 H   0  0  0  0  0  0  0  0  0  0  0  0
   -4.6396    1.4296    2.7284 H   0  0  0  0  0  0  0  0  0  0  0  0
   -6.2124    0.5879   -0.0155 C   0  0  0  0  0  0  0  0  0  0  0  0
   -7.2482    0.8192   -0.3345 H   0  0  0  0  0  0  0  0  0  0  0  0
   -6.1013   -0.5238    0.0461 H   0  0  0  0  0  0  0  0  0  0  0  0
   -5.2060    1.1325   -1.0281 C   0  0  0  0  0  0  0  0  0  0  0  0
   -5.3364    0.6156   -2.0026 H   0  0  0  0  0  0  0  0  0  0  0  0
   -5.4140    2.2240   -1.1954 H   0  0  0  0  0  0  0  0  0  0  0  0
   -0.5731   -2.9122   -0.4056 C   0  0  0  0  0  0  0  0  0  0  0  0
   -0.1330   -3.4440   -1.2785 H   0  0  0  0  0  0  0  0  0  0  0  0
    0.0174   -3.2814    0.4709 H   0  0  0  0  0  0  0  0  0  0  0  0
   -2.5574   -2.9493    0.9978 C   0  0  0  0  0  0  0  0  0  0  0  0
   -2.3578   -1.8892    1.2609 H   0  0  0  0  0  0  0  0  0  0  0  0
   -2.0928   -3.5864    1.7969 H   0  0  0  0  0  0  0  0  0  0  0  0
   -4.0649   -3.1896    0.9678 C   0  0  0  0  0  0  0  0  0  0  0  0
   -4.5021   -3.0478    1.9766 H   0  0  0  0  0  0  0  0  0  0  0  0
   -4.5328   -2.4458    0.2742 H   0  0  0  0  0  0  0  0  0  0  0  0
   -3.8294   -4.7853   -0.7157 C   0  0  0  0  0  0  0  0  0  0  0  0
   -4.2837   -4.1107   -1.4844 H   0  0  0  0  0  0  0  0  0  0  0  0
   -4.0953   -5.8324   -0.9638 H   0  0  0  0  0  0  0  0  0  0  0  0
   -2.3127   -4.5981   -0.7321 C   0  0  0  0  0  0  0  0  0  0  0  0
   -1.8437   -5.3697   -0.0643 H   0  0  0  0  0  0  0  0  0  0  0  0
   -1.9271   -4.7671   -1.7597 H   0  0  0  0  0  0  0  0  0  0  0  0
  1 30  1  0  0  0  0
  2 36  1  0  0  0  0
  3 51  1  0  0  0  0
  6 27  1  0  0  0  0
  7 39  1  0  0  0  0
  8 54  1  0  0  0  0
  9  5  1  0  0  0  0
 10  9  1  0  0  0  0
 10  4  1  1  0  0  0
 11 18  1  0  0  0  0
 11 10  1  0  0  0  0
 12 11  2  0  0  0  0
 13 12  1  0  0  0  0
 14 12  1  0  0  0  0
 14 15  2  0  0  0  0
 15 17  1  0  0  0  0
 16 15  1  0  0  0  0
 17 48  1  0  0  0  0
 17  9  2  0  0  0  0
 18  1  1  0  0  0  0
 18 19  1  0  0  0  0
 20 18  1  0  0  0  0
 21 24  1  0  0  0  0
 21  1  1  0  0  0  0
 21 23  1  0  0  0  0
 22 21  1  0  0  0  0
 24  6  1  0  0  0  0
 25 24  1  0  0  0  0
 26 24  1  0  0  0  0
 27 29  1  0  0  0  0
 28 27  1  0  0  0  0
 30 27  1  0  0  0  0
 30 32  1  0  0  0  0
 30 31  1  0  0  0  0
 33 14  1  0  0  0  0
 33  2  1  0  0  0  0
 34 33  1  0  0  0  0
 35 33  1  0  0  0  0
 36 38  1  0  0  0  0
 36 39  1  0  0  0  0
 37 36  1  0  0  0  0
 39 40  1  0  0  0  0
 39 41  1  0  0  0  0
 42 44  1  0  0  0  0
 42  7  1  0  0  0  0
 43 42  1  0  0  0  0
 45  2  1  0  0  0  0
 45 42  1  0  0  0  0
 46 45  1  0  0  0  0
 47 45  1  0  0  0  0
 48  3  1  0  0  0  0
 48 50  1  0  0  0  0
 49 48  1  0  0  0  0
 51 52  1  0  0  0  0
 51 53  1  0  0  0  0
 54 51  1  0  0  0  0
 54 55  1  0  0  0  0
 56 54  1  0  0  0  0
 57  8  1  0  0  0  0
 58 57  1  0  0  0  0
 59 57  1  0  0  0  0
 60 57  1  0  0  0  0
 60  3  1  0  0  0  0
 60 61  1  0  0  0  0
 62 60  1  0  0  0  0
M  CHG  1   5  -1
M  END
