2,5
q = -2.0, confidence = 0.936

 24 24  0  0  0  0  0  0  0  0999 V2000
   -1.2091    4.0917   -0.6646 O   0  5  0  0  0  0  0  0  0  0  0  0
   -0.4664    2.3048    0.4925 O   0  0  0  0  0  0  0  0  0  0  0  0
   -2.6750    0.9754    0.1808 O   0  0  0  0  0  0  0  0  0  0  0  0
   -2.3118   -1.6215   -0.1592 O   0  0  0  0  0  0  0  0  0  0  0  0
    0.1702   -2.0955   -0.9676 O   0  5  0  0  0  0  0  0  0  0  0  0
   -0.2325   -4.3087   -1.2982 O   0  0  0  0  0  0  0  0  0  0  0  0
   -3.6132   -1.1963   -0.0503 C   0  0  0  0  0  0  0  0  0  0  0  0
   -4.7238   -2.0513   -0.0930 C   0  0  0  0  0  0  0  0  0  0  0  0
   -4.5763   -3.1337   -0.1988 H   0  0  0  0  0  0  0  0  0  0  0  0
   -6.0257   -1.5265   -0.0062 C   0  0  0  0  0  0  0  0  0  0  0  0
   -6.8859   -2.2105   -0.0455 H   0  0  0  0  0  0  0  0  0  0  0  0
   -6.2211   -0.1483    0.1228 C   0  0  0  0  0  0  0  0  0  0  0  0
   -7.2365    0.2692    0.1824 H   0  0  0  0  0  0  0  0  0  0  0  0
   -5.1138    0.7173    0.1775 C   0  0  0  0  0  0  0  0  0  0  0  0
   -5.2712    1.7989    0.2801 H   0  0  0  0  0  0  0  0  0  0  0  0
   -3.8128    0.2033    0.1044 C   0  0  0  0  0  0  0  0  0  0  0  0
   -2.7811    2.3792   -0.0945 C   0  0  0  0  0  0  0  0  0  0  0  0
   -3.3834    2.8900    0.6895 H   0  0  0  0  0  0  0  0  0  0  0  0
   -3.2654    2.5418   -1.0793 H   0  0  0  0  0  0  0  0  0  0  0  0
   -1.3717    2.9874   -0.0962 C   0  0  0  0  0  0  0  0  0  0  0  0
   -2.0488   -2.9769   -0.5806 C   0  0  0  0  0  0  0  0  0  0  0  0
   -2.6826   -3.2188   -1.4598 H   0  0  0  0  0  0  0  0  0  0  0  0
   -2.2947   -3.6845    0.2389 H   0  0  0  0  0  0  0  0  0  0  0  0
   -0.5637   -3.1729   -0.9856 C   0  0  0  0  0  0  0  0  0  0  0  0
  1 20  1  0  0  0  0
  4  7  1  0  0  0  0
  6 24  2  0  0  0  0
  7 16  1  0  0  0  0
  8  7  2  0  0  0  0
  8 10  1  0  0  0  0
  9  8  1  0  0  0  0
 10 12  2  0  0  0  0
 11 10  1  0  0  0  0
 12 14  1  0  0  0  0
 12 13  1  0  0  0  0
 14 15  1  0  0  0  0
 16 14  2  0  0  0  0
 16  3  1  0  0  0  0
 17  3  1  0  0  0  0
 17 18  1  0  0  0  0
 19 17  1  0  0  0  0
 20 17  1  0  0  0  0
 20  2  2  0  0  0  0
 21  4  1  0  0  0  0
 21 23  1  0  0  0  0
 22 21  1  0  0  0  0
 24  5  1  0  0  0  0
 24 21  1  0  0  0  0
M  CHG  2   1  -1   5  -1
M  END
