17,18
q = -2.0, confidence = 0.804

 21 21  0  0  1  0  0  0  0  0999 V2000
   -3.5274    1.0193   -0.1740 C   0  0  2  0  0  0  0  0  0  0  0  0
   -3.5265    1.0376   -1.3007 H   0  0  0  0  0  0  0  0  0  0  0  0
   -2.2063    0.4185    0.3246 C   0  0  1  0  0  0  0  0  0  0  0  0
   -2.2770    0.4058    1.4439 H   0  0  0  0  0  0  0  0  0  0  0  0
   -2.1123   -1.0180   -0.1774 C   0  0  2  0  0  0  0  0  0  0  0  0
   -2.1671   -0.9701   -1.3014 H   0  0  0  0  0  0  0  0  0  0  0  0
   -3.3023   -1.8571    0.2721 C   0  0  1  0  0  0  0  0  0  0  0  0
   -3.3124   -1.8814    1.3909 H   0  0  0  0  0  0  0  0  0  0  0  0
   -4.5694   -1.1366   -0.2122 C   0  0  0  0  0  0  0  0  0  0  0  0
   -4.5852   -1.1723   -1.3306 H   0  0  0  0  0  0  0  0  0  0  0  0
   -5.4814   -1.6462    0.1586 H   0  0  0  0  0  0  0  0  0  0  0  0
   -4.8239    2.9723   -0.2035 C   0  0  0  0  0  0  0  0  0  0  0  0
   -4.8439    3.9852    0.2435 H   0  0  0  0  0  0  0  0  0  0  0  0
   -5.7787    2.4515    0.0279 H   0  0  0  0  0  0  0  0  0  0  0  0
   -4.7420    3.0719   -1.3134 H   0  0  0  0  0  0  0  0  0  0  0  0
   -3.7083    2.2935    0.3397 O   0  0  0  0  0  0  0  0  0  0  0  0
   -1.0665    1.1148   -0.1260 O   0  0  0  0  0  1  0  0  0  0  0  0
   -0.8894   -1.5920    0.2345 O   0  0  0  0  0  1  0  0  0  0  0  0
   -3.2451   -3.1649   -0.2715 O   0  0  0  0  0  0  0  0  0  0  0  0
   -2.2919   -3.3846   -0.2324 H   0  0  0  0  0  0  0  0  0  0  0  0
   -4.6154    0.1953    0.2711 O   0  0  0  0  0  0  0  0  0  0  0  0
  1  2  1  6  0  0  0
  1 21  1  0  0  0  0
  1  3  1  0  0  0  0
  1 16  1  0  0  0  0
  3  4  1  1  0  0  0
  5  6  1  6  0  0  0
  5 18  1  0  0  0  0
  5  7  1  0  0  0  0
  5  3  1  0  0  0  0
  7  8  1  1  0  0  0
  9 11  1  0  0  0  0
  9 21  1  0  0  0  0
  9  7  1  0  0  0  0
 10  9  1  0  0  0  0
 12 14  1  0  0  0  0
 12 13  1  0  0  0  0
 12 16  1  0  0  0  0
 15 12  1  0  0  0  0
 17  3  1  0  0  0  0
 19 20  1  0  0  0  0
 19  7  1  0  0  0  0
M  END
