1,2
q = -1.0, confidence = 0.016

 15 14  0  0  1  0  0  0  0  0999 V2000
    0.2322    1.5137   -0.6725 O   0  0  0  0  0  1  0  0  0  0  0  0
    1.0237   -0.9910   -0.1006 O   0  5  0  0  0  0  0  0  0  0  0  0
    3.2457   -1.2565    0.0938 O   0  0  0  0  0  0  0  0  0  0  0  0
    1.7993    3.3007   -0.7738 C   0  0  0  0  0  0  0  0  0  0  0  0
    1.4358    3.5931   -1.7800 H   0  0  0  0  0  0  0  0  0  0  0  0
    2.8798    3.5140   -0.6963 H   0  0  0  0  0  0  0  0  0  0  0  0
    1.2511    3.9327   -0.0441 H   0  0  0  0  0  0  0  0  0  0  0  0
    1.4870    1.8565   -0.5257 C   0  0  2  0  0  3  0  0  0  0  0  0
    2.4733    0.9242   -0.2049 C   0  0  0  0  0  0  0  0  0  0  0  0
    3.5265    1.2284   -0.1762 H   0  0  0  0  0  0  0  0  0  0  0  0
    2.1913   -0.4681   -0.0620 C   0  0  0  0  0  0  0  0  0  0  0  0
    3.0330   -2.6759    0.2109 C   0  0  0  0  0  0  0  0  0  0  0  0
    2.3514   -2.9024    1.0540 H   0  0  0  0  0  0  0  0  0  0  0  0
    4.0303   -3.1097    0.3952 H   0  0  0  0  0  0  0  0  0  0  0  0
    2.6065   -3.0825   -0.7271 H   0  0  0  0  0  0  0  0  0  0  0  0
  2 11  1  0  0  0  0
  3 12  1  0  0  0  0
  4  6  1  0  0  0  0
  4  8  1  0  0  0  0
  4  7  1  0  0  0  0
  5  4  1  0  0  0  0
  8  1  1  6  0  0  0
  8  9  1  0  0  0  0
  9 10  1  0  0  0  0
  9 11  2  0  0  0  0
 11  3  1  0  0  0  0
 12 14  1  0  0  0  0
 12 13  1  0  0  0  0
 15 12  1  0  0  0  0
M  CHG  1   2  -1
M  END
