1,17
q = 0.0, confidence = 0.974

 31 30  0  0  0  0  0  0  0  0999 V2000
    2.3278   -1.3253   -0.6193 O   0  0  0  0  0  1  0  0  0  0  0  0
    3.8156   -1.0763   -0.4274 P   0  0  0  0  0  4  0  0  0  0  0  0
    4.6460   -0.9561   -1.8046 O   0  0  0  0  0  0  0  0  0  0  0  0
    3.9791   -0.7859   -3.0727 C   0  0  0  0  0  0  0  0  0  0  0  0
    4.1829   -1.6775   -3.6968 H   0  0  0  0  0  0  0  0  0  0  0  0
    4.3994    0.1157   -3.5573 H   0  0  0  0  0  0  0  0  0  0  0  0
    2.8856   -0.6637   -2.9433 H   0  0  0  0  0  0  0  0  0  0  0  0
    4.6096   -2.2570    0.3270 O   0  0  0  0  0  0  0  0  0  0  0  0
    3.9961   -2.9482    1.4453 C   0  0  0  0  0  0  0  0  0  0  0  0
    4.1858   -2.3819    2.3769 H   0  0  0  0  0  0  0  0  0  0  0  0
    4.4770   -3.9421    1.4962 H   0  0  0  0  0  0  0  0  0  0  0  0
    2.9042   -3.0694    1.2906 H   0  0  0  0  0  0  0  0  0  0  0  0
    4.1655    0.4785    0.5640 C   0  0  0  0  0  0  0  0  0  0  0  0
    3.9648    0.2505    1.9374 O   0  0  0  0  0  0  0  0  0  0  0  0
    3.0124   -0.0302    2.1279 H   0  0  0  0  0  0  0  0  0  0  0  0
    2.9608    1.7957    0.0197 P   0  0  0  0  0  4  0  0  0  0  0  0
    1.4955    1.4615    0.2472 O   0  0  0  0  0  1  0  0  0  0  0  0
    3.4058    2.0736   -1.5088 O   0  0  0  0  0  0  0  0  0  0  0  0
    2.5752    2.8856   -2.3738 C   0  0  0  0  0  0  0  0  0  0  0  0
    1.6856    2.3055   -2.6896 H   0  0  0  0  0  0  0  0  0  0  0  0
    3.2002    3.1387   -3.2495 H   0  0  0  0  0  0  0  0  0  0  0  0
    2.2733    3.8199   -1.8591 H   0  0  0  0  0  0  0  0  0  0  0  0
    3.3942    3.1567    0.7952 O   0  0  0  0  0  0  0  0  0  0  0  0
    2.8365    3.4347    2.0995 C   0  0  0  0  0  0  0  0  0  0  0  0
    3.2069    4.4359    2.3869 H   0  0  0  0  0  0  0  0  0  0  0  0
    3.1722    2.6772    2.8342 H   0  0  0  0  0  0  0  0  0  0  0  0
    1.7295    3.4367    2.0597 H   0  0  0  0  0  0  0  0  0  0  0  0
    5.6098    0.9297    0.3537 C   0  0  0  0  0  0  0  0  0  0  0  0
    5.8191    1.1422   -0.7094 H   0  0  0  0  0  0  0  0  0  0  0  0
    6.2838    0.1260    0.7092 H   0  0  0  0  0  0  0  0  0  0  0  0
    5.7886    1.8390    0.9587 H   0  0  0  0  0  0  0  0  0  0  0  0
  1  2  1  0  0  0  0
  2  8  1  0  0  0  0
  2 13  1  0  0  0  0
  3  2  1  0  0  0  0
  4  7  1  0  0  0  0
  4  3  1  0  0  0  0
  5  4  1  0  0  0  0
  6  4  1  0  0  0  0
  8  9  1  0  0  0  0
  9 11  1  0  0  0  0
  9 10  1  0  0  0  0
 12  9  1  0  0  0  0
 13 14  1  0  0  0  0
 14 15  1  0  0  0  0
 16 17  1  0  0  0  0
 16 13  1  0  0  0  0
 16 23  1  0  0  0  0
 18 16  1  0  0  0  0
 19 22  1  0  0  0  0
 19 18  1  0  0  0  0
 20 19  1  0  0  0  0
 21 19  1  0  0  0  0
 23 24  1  0  0  0  0
 24 25  1  0  0  0  0
 24 26  1  0  0  0  0
 27 24  1  0  0  0  0
 28 13  1  0  0  0  0
 28 30  1  0  0  0  0
 28 31  1  0  0  0  0
 29 28  1  0  0  0  0
M  END
