1,2
q = -1.0, confidence = 0.054

 32 31  0  0  1  0  0  0  0  0999 V2000
   -1.3251   -1.4421   -0.3856 O   0  0  0  0  0  1  0  0  0  0  0  0
   -1.3252    1.4421   -0.3857 O   0  5  0  0  0  0  0  0  0  0  0  0
   -3.2954   -2.5480   -0.9723 C   0  0  0  0  0  0  0  0  0  0  0  0
   -2.6456   -3.3918   -0.6805 H   0  0  0  0  0  0  0  0  0  0  0  0
   -4.2358   -2.5898   -0.3885 H   0  0  0  0  0  0  0  0  0  0  0  0
   -3.5669   -2.6592   -2.0425 H   0  0  0  0  0  0  0  0  0  0  0  0
   -2.5446   -1.2499   -0.7409 C   0  0  2  0  0  3  0  0  0  0  0  0
   -3.1994   -0.0001   -0.9370 C   0  0  0  0  0  0  0  0  0  0  0  0
   -2.5447    1.2498   -0.7410 C   0  0  0  0  0  0  0  0  0  0  0  0
   -3.2955    2.5478   -0.9725 C   0  0  0  0  0  0  0  0  0  0  0  0
   -2.6457    3.3917   -0.6807 H   0  0  0  0  0  0  0  0  0  0  0  0
   -3.5670    2.6590   -2.0427 H   0  0  0  0  0  0  0  0  0  0  0  0
   -4.2360    2.5896   -0.3887 H   0  0  0  0  0  0  0  0  0  0  0  0
   -4.6710   -0.0001   -1.3225 C   0  0  0  0  0  0  0  0  0  0  0  0
   -4.8978    0.8760   -1.9638 H   0  0  0  0  0  0  0  0  0  0  0  0
   -4.8977   -0.8763   -1.9637 H   0  0  0  0  0  0  0  0  0  0  0  0
   -5.6420   -0.0001   -0.1280 C   0  0  0  0  0  0  0  0  0  0  0  0
   -5.4329    0.8825    0.5166 H   0  0  0  0  0  0  0  0  0  0  0  0
   -5.4329   -0.8828    0.5165 H   0  0  0  0  0  0  0  0  0  0  0  0
   -7.1167   -0.0001   -0.5358 C   0  0  0  0  0  0  0  0  0  0  0  0
   -7.3197   -0.8861   -1.1799 H   0  0  0  0  0  0  0  0  0  0  0  0
   -7.3197    0.8858   -1.1799 H   0  0  0  0  0  0  0  0  0  0  0  0
   -8.0877   -0.0001    0.6473 C   0  0  0  0  0  0  0  0  0  0  0  0
   -7.8834   -0.8861    1.2907 H   0  0  0  0  0  0  0  0  0  0  0  0
   -7.8833    0.8860    1.2907 H   0  0  0  0  0  0  0  0  0  0  0  0
   -9.5645   -0.0000    0.2408 C   0  0  0  0  0  0  0  0  0  0  0  0
   -9.7644   -0.8858   -0.4027 H   0  0  0  0  0  0  0  0  0  0  0  0
   -9.7644    0.8858   -0.4027 H   0  0  0  0  0  0  0  0  0  0  0  0
  -10.5250   -0.0000    1.4305 C   0  0  0  0  0  0  0  0  0  0  0  0
  -11.5848   -0.0000    1.1048 H   0  0  0  0  0  0  0  0  0  0  0  0
  -10.3723   -0.8934    2.0717 H   0  0  0  0  0  0  0  0  0  0  0  0
  -10.3723    0.8933    2.0717 H   0  0  0  0  0  0  0  0  0  0  0  0
  3  7  1  0  0  0  0
  3  4  1  0  0  0  0
  3  5  1  0  0  0  0
  6  3  1  0  0  0  0
  7  1  1  6  0  0  0
  8  9  2  0  0  0  0
  8  7  1  0  0  0  0
  9  2  1  0  0  0  0
 10  9  1  0  0  0  0
 10 11  1  0  0  0  0
 10 13  1  0  0  0  0
 12 10  1  0  0  0  0
 14  8  1  0  0  0  0
 14 17  1  0  0  0  0
 15 14  1  0  0  0  0
 16 14  1  0  0  0  0
 17 19  1  0  0  0  0
 17 18  1  0  0  0  0
 20 17  1  0  0  0  0
 20 23  1  0  0  0  0
 21 20  1  0  0  0  0
 22 20  1  0  0  0  0
 23 25  1  0  0  0  0
 23 24  1  0  0  0  0
 26 23  1  0  0  0  0
 26 29  1  0  0  0  0
 27 26  1  0  0  0  0
 28 26  1  0  0  0  0
 29 31  1  0  0  0  0
 29 32  1  0  0  0  0
 30 29  1  0  0  0  0
M  CHG  1   2  -1
M  END
