7,14
q = -1.0, confidence = 0.004

 25 26  0  0  1  0  0  0  0  0999 V2000
    6.1220    0.2947   -0.3715 S   0  0  0  0  0  0  0  0  0  0  0  0
   -0.3705    2.6834    0.3498 C   0  0  0  0  0  0  0  0  0  0  0  0
    0.9593    2.4276   -0.1744 C   0  0  0  0  0  0  0  0  0  0  0  0
    1.4726    1.0732   -0.3402 C   0  0  2  0  0  3  0  0  0  0  0  0
    1.8025    3.5451   -0.4546 C   0  0  0  0  0  0  0  0  0  0  0  0
    2.7944    3.3672   -0.8919 H   0  0  0  0  0  0  0  0  0  0  0  0
    0.7470    0.0262   -0.4157 O   0  0  0  0  0  1  0  0  0  0  0  0
    0.1226    5.0994    0.3167 C   0  0  0  0  0  0  0  0  0  0  0  0
   -0.2055    6.1331    0.5086 H   0  0  0  0  0  0  0  0  0  0  0  0
    7.3027   -0.9127   -0.0046 C   0  0  0  0  0  0  0  0  0  0  0  0
    8.3692   -0.6838   -0.1217 H   0  0  0  0  0  0  0  0  0  0  0  0
    6.7227   -2.0984    0.4174 C   0  0  0  0  0  0  0  0  0  0  0  0
    7.3050   -2.9864    0.6978 H   0  0  0  0  0  0  0  0  0  0  0  0
   -1.2559    1.7767    0.6595 O   0  5  0  0  0  0  0  0  0  0  0  0
    2.9189    0.8300   -0.3426 C   0  0  0  0  0  0  0  0  0  0  0  0
    3.6053    1.6724   -0.5055 H   0  0  0  0  0  0  0  0  0  0  0  0
   -0.7296    4.0459    0.6081 C   0  0  0  0  0  0  0  0  0  0  0  0
   -1.7301    4.2207    1.0301 H   0  0  0  0  0  0  0  0  0  0  0  0
    1.4025    4.8553   -0.2383 C   0  0  0  0  0  0  0  0  0  0  0  0
    2.0706    5.6899   -0.4942 H   0  0  0  0  0  0  0  0  0  0  0  0
    3.4181   -0.4043   -0.0344 C   0  0  0  0  0  0  0  0  0  0  0  0
    2.6898   -1.1896    0.2286 H   0  0  0  0  0  0  0  0  0  0  0  0
    4.8016   -0.7860    0.0440 C   0  0  0  0  0  0  0  0  0  0  0  0
    5.3044   -2.0276    0.4443 C   0  0  0  0  0  0  0  0  0  0  0  0
    4.6430   -2.8494    0.7521 H   0  0  0  0  0  0  0  0  0  0  0  0
  1 10  1  0  0  0  0
  1 23  1  0  0  0  0
  2 17  1  0  0  0  0
  2 14  1  0  0  0  0
  3  2  2  0  0  0  0
  4  7  1  1  0  0  0
  4  3  1  0  0  0  0
  5 19  2  0  0  0  0
  5  3  1  0  0  0  0
  6  5  1  0  0  0  0
  8  9  1  0  0  0  0
  8 17  2  0  0  0  0
 10 12  2  0  0  0  0
 11 10  1  0  0  0  0
 12 24  1  0  0  0  0
 12 13  1  0  0  0  0
 15  4  1  0  0  0  0
 15 21  2  0  0  0  0
 16 15  1  0  0  0  0
 17 18  1  0  0  0  0
 19  8  1  0  0  0  0
 20 19  1  0  0  0  0
 21 23  1  0  0  0  0
 21 22  1  0  0  0  0
 23 24  2  0  0  0  0
 24 25  1  0  0  0  0
M  CHG  1  14  -1
M  END
