2,3
q = -2.0, confidence = 0.848

 32 32  0  0  1  0  0  0  0  0999 V2000
    0.7927   -0.7492    0.0950 N   0  0  0  0  0  0  0  0  0  0  0  0
   -1.0487   -1.6937   -1.8134 O   0  0  0  0  0  1  0  0  0  0  0  0
   -1.4091   -2.3038    0.8829 O   0  0  0  0  0  1  0  0  0  0  0  0
    0.2407   -1.3549   -2.2220 C   0  0  0  0  0  0  0  0  0  0  0  0
    0.2469   -0.2947   -2.5780 H   0  0  0  0  0  0  0  0  0  0  0  0
    0.5385   -1.9925   -3.0869 H   0  0  0  0  0  0  0  0  0  0  0  0
    1.2337   -1.5319   -1.0739 C   0  0  0  0  0  0  0  0  0  0  0  0
    1.2574   -2.6050   -0.8016 H   0  0  0  0  0  0  0  0  0  0  0  0
    2.2666   -1.2634   -1.3907 H   0  0  0  0  0  0  0  0  0  0  0  0
   -0.1432   -2.6602    1.3407 C   0  0  0  0  0  0  0  0  0  0  0  0
    0.2558   -3.4884    0.7022 H   0  0  0  0  0  0  0  0  0  0  0  0
   -0.2173   -3.0770    2.3730 H   0  0  0  0  0  0  0  0  0  0  0  0
    0.8421   -1.4841    1.3614 C   0  0  0  0  0  0  0  0  0  0  0  0
    0.5335   -0.7880    2.1654 H   0  0  0  0  0  0  0  0  0  0  0  0
    1.8616   -1.8682    1.6149 H   0  0  0  0  0  0  0  0  0  0  0  0
    1.3753    0.6238    0.0900 C   0  0  1  0  0  0  0  0  0  0  0  0
    1.0755    1.0383   -0.8958 H   0  0  0  0  0  0  0  0  0  0  0  0
    0.7746    1.5427    1.1541 C   0  0  0  0  0  0  0  0  0  0  0  0
    1.1180    2.5796    0.9731 H   0  0  0  0  0  0  0  0  0  0  0  0
    1.0883    1.2719    2.1814 H   0  0  0  0  0  0  0  0  0  0  0  0
   -0.3266    1.5173    1.1105 H   0  0  0  0  0  0  0  0  0  0  0  0
    2.9030    0.6334    0.1330 C   0  0  0  0  0  0  0  0  0  0  0  0
    3.6411    0.9245   -1.0322 C   0  0  0  0  0  0  0  0  0  0  0  0
    3.0993    1.1716   -1.9600 H   0  0  0  0  0  0  0  0  0  0  0  0
    5.0447    0.9118   -1.0277 C   0  0  0  0  0  0  0  0  0  0  0  0
    5.5981    1.1446   -1.9504 H   0  0  0  0  0  0  0  0  0  0  0  0
    5.7387    0.6038    0.1518 C   0  0  0  0  0  0  0  0  0  0  0  0
    6.8392    0.5911    0.1608 H   0  0  0  0  0  0  0  0  0  0  0  0
    5.0189    0.3189    1.3234 C   0  0  0  0  0  0  0  0  0  0  0  0
    5.5555    0.0860    2.2560 H   0  0  0  0  0  0  0  0  0  0  0  0
    3.6164    0.3379    1.3144 C   0  0  0  0  0  0  0  0  0  0  0  0
    3.0718    0.1308    2.2475 H   0  0  0  0  0  0  0  0  0  0  0  0
  1 13  1  0  0  0  0
  3 10  1  0  0  0  0
  4  2  1  0  0  0  0
  4  7  1  0  0  0  0
  5  4  1  0  0  0  0
  6  4  1  0  0  0  0
  7  8  1  0  0  0  0
  7  1  1  0  0  0  0
  9  7  1  0  0  0  0
 10 13  1  0  0  0  0
 10 12  1  0  0  0  0
 11 10  1  0  0  0  0
 13 15  1  0  0  0  0
 13 14  1  0  0  0  0
 16 17  1  6  0  0  0
 16  1  1  0  0  0  0
 16 22  1  0  0  0  0
 16 18  1  0  0  0  0
 18 20  1  0  0  0  0
 19 18  1  0  0  0  0
 21 18  1  0  0  0  0
 22 31  1  0  0  0  0
 23 25  1  0  0  0  0
 23 22  2  0  0  0  0
 24 23  1  0  0  0  0
 25 27  2  0  0  0  0
 26 25  1  0  0  0  0
 27 28  1  0  0  0  0
 27 29  1  0  0  0  0
 29 30  1  0  0  0  0
 31 29  2  0  0  0  0
 31 32  1  0  0  0  0
M  END
