1,2
q = -2.0, confidence = 0.902

 17 17  0  0  0  0  0  0  0  0999 V2000
    1.3084    0.5256    0.8036 O   0  5  0  0  0  0  0  0  0  0  0  0
    0.4717   -0.6965   -1.7389 O   0  5  0  0  0  0  0  0  0  0  0  0
    2.1347   -1.3157   -3.0552 O   0  0  0  0  0  0  0  0  0  0  0  0
    2.5013    0.2192    0.3203 C   0  0  0  0  0  0  0  0  0  0  0  0
    2.7762   -0.4051   -0.9444 C   0  0  0  0  0  0  0  0  0  0  0  0
    4.1231   -0.6584   -1.3028 C   0  0  0  0  0  0  0  0  0  0  0  0
    5.1922   -0.3274   -0.4734 C   0  0  0  0  0  0  0  0  0  0  0  0
    4.9225    0.2878    0.7644 C   0  0  0  0  0  0  0  0  0  0  0  0
    3.6146    0.5658    1.1709 C   0  0  0  0  0  0  0  0  0  0  0  0
    1.7579   -0.8325   -1.9788 C   0  0  0  0  0  0  0  0  0  0  0  0
    3.3274    1.2317    2.4904 C   0  0  0  0  0  0  0  0  0  0  0  0
    4.2738   -1.1331   -2.2839 H   0  0  0  0  0  0  0  0  0  0  0  0
    6.2277   -0.5383   -0.7796 H   0  0  0  0  0  0  0  0  0  0  0  0
    5.7531    0.5619    1.4366 H   0  0  0  0  0  0  0  0  0  0  0  0
    4.2625    1.4403    3.0459 H   0  0  0  0  0  0  0  0  0  0  0  0
    2.7819    2.1909    2.3579 H   0  0  0  0  0  0  0  0  0  0  0  0
    2.6719    0.6069    3.1345 H   0  0  0  0  0  0  0  0  0  0  0  0
  3 10  2  0  0  0  0
  4  1  1  0  0  0  0
  4  9  1  0  0  0  0
  5  4  2  0  0  0  0
  6  5  1  0  0  0  0
  6  7  2  0  0  0  0
  7  8  1  0  0  0  0
  8  9  2  0  0  0  0
  8 14  1  0  0  0  0
  9 11  1  0  0  0  0
 10  2  1  0  0  0  0
 10  5  1  0  0  0  0
 11 15  1  0  0  0  0
 11 17  1  0  0  0  0
 12  6  1  0  0  0  0
 13  7  1  0  0  0  0
 16 11  1  0  0  0  0
M  CHG  2   1  -1   2  -1
M  END
