1,2
q = -1.0, confidence = 0.004

 30 30  0  0  1  0  0  0  0  0999 V2000
    0.5164   -1.3761   -0.0008 O   0  0  0  0  0  1  0  0  0  0  0  0
    0.1560    1.5472    0.0017 O   0  5  0  0  0  0  0  0  0  0  0  0
    1.4264    1.5384    0.0012 C   0  0  0  0  0  0  0  0  0  0  0  0
    1.7536   -0.9800   -0.0001 C   0  0  2  0  0  3  0  0  0  0  0  0
    2.1377    2.8691    0.0011 C   0  0  0  0  0  0  0  0  0  0  0  0
    2.2138    0.3421    0.0008 C   0  0  0  0  0  0  0  0  0  0  0  0
    3.3019    0.4630    0.0009 H   0  0  0  0  0  0  0  0  0  0  0  0
    1.3998    3.9828    0.7480 C   0  0  0  0  0  0  0  0  0  0  0  0
    0.4665    3.6934    1.2546 H   0  0  0  0  0  0  0  0  0  0  0  0
    2.0244    4.7147    1.2828 H   0  0  0  0  0  0  0  0  0  0  0  0
    1.3994    3.9828   -0.7455 C   0  0  0  0  0  0  0  0  0  0  0  0
    2.0239    4.7147   -1.2805 H   0  0  0  0  0  0  0  0  0  0  0  0
    0.4660    3.6934   -1.2517 H   0  0  0  0  0  0  0  0  0  0  0  0
    2.7902   -2.1355   -0.0006 C   0  0  0  0  0  0  0  0  0  0  0  0
    3.6542    2.9023    0.0008 C   0  0  0  0  0  0  0  0  0  0  0  0
    4.0768    2.4077    0.8989 H   0  0  0  0  0  0  0  0  0  0  0  0
    4.0182    3.9480    0.0008 H   0  0  0  0  0  0  0  0  0  0  0  0
    4.0764    2.4078   -0.8976 H   0  0  0  0  0  0  0  0  0  0  0  0
    3.6690   -2.0217    1.2646 C   0  0  0  0  0  0  0  0  0  0  0  0
    3.0555   -2.0822    2.1871 H   0  0  0  0  0  0  0  0  0  0  0  0
    4.2376   -1.0723    1.2944 H   0  0  0  0  0  0  0  0  0  0  0  0
    4.3997   -2.8554    1.2924 H   0  0  0  0  0  0  0  0  0  0  0  0
    2.0905   -3.5048   -0.0005 C   0  0  0  0  0  0  0  0  0  0  0  0
    1.4522   -3.6426   -0.8951 H   0  0  0  0  0  0  0  0  0  0  0  0
    1.4531   -3.6430    0.8946 H   0  0  0  0  0  0  0  0  0  0  0  0
    2.8523   -4.3089   -0.0010 H   0  0  0  0  0  0  0  0  0  0  0  0
    3.6680   -2.0213   -1.2665 C   0  0  0  0  0  0  0  0  0  0  0  0
    4.3989   -2.8548   -1.2950 H   0  0  0  0  0  0  0  0  0  0  0  0
    4.2364   -1.0717   -1.2964 H   0  0  0  0  0  0  0  0  0  0  0  0
    3.0538   -2.0818   -2.1885 H   0  0  0  0  0  0  0  0  0  0  0  0
  3  2  1  0  0  0  0
  4  1  1  6  0  0  0
  4  6  1  0  0  0  0
  5  3  1  0  0  0  0
  5  8  1  0  0  0  0
  6  7  1  0  0  0  0
  6  3  2  0  0  0  0
  8  9  1  0  0  0  0
  8 10  1  0  0  0  0
 11  5  1  0  0  0  0
 11  8  1  0  0  0  0
 12 11  1  0  0  0  0
 13 11  1  0  0  0  0
 14 23  1  0  0  0  0
 14  4  1  0  0  0  0
 14 19  1  0  0  0  0
 15  5  1  0  0  0  0
 15 16  1  0  0  0  0
 17 15  1  0  0  0  0
 18 15  1  0  0  0  0
 19 22  1  0  0  0  0
 19 21  1  0  0  0  0
 19 20  1  0  0  0  0
 23 25  1  0  0  0  0
 24 23  1  0  0  0  0
 26 23  1  0  0  0  0
 27 14  1  0  0  0  0
 28 27  1  0  0  0  0
 29 27  1  0  0  0  0
 30 27  1  0  0  0  0
M  CHG  1   2  -1
M  END
