1,2
q = -1.0, confidence = 0.046

 14 13  0  0  0  0  0  0  0  0999 V2000
    1.6537   -1.5744    0.4340 O   0  5  0  0  0  0  0  0  0  0  0  0
    2.0894   -0.1057   -1.1883 O   0  0  0  0  0  0  0  0  0  0  0  0
    2.4311   -1.1215   -0.4591 C   0  0  0  0  0  0  0  0  0  0  0  0
    3.7711   -1.7004   -0.7382 C   0  0  0  0  0  0  0  0  0  0  0  0
    4.3013   -1.1907   -1.5586 H   0  0  0  0  0  0  0  0  0  0  0  0
    4.3828   -2.7500   -0.1242 C   0  0  0  0  0  3  0  0  0  0  0  0
    3.7873   -3.5500    0.9995 C   0  0  0  0  0  0  0  0  0  0  0  0
    2.7779   -3.1903    1.2640 H   0  0  0  0  0  0  0  0  0  0  0  0
    4.4478   -3.5000    1.8927 H   0  0  0  0  0  0  0  0  0  0  0  0
    3.7381   -4.6238    0.7154 H   0  0  0  0  0  0  0  0  0  0  0  0
    5.7563   -3.1804   -0.5680 C   0  0  0  0  0  0  0  0  0  0  0  0
    6.1495   -2.5574   -1.3943 H   0  0  0  0  0  0  0  0  0  0  0  0
    5.7446   -4.2408   -0.9025 H   0  0  0  0  0  0  0  0  0  0  0  0
    6.4745   -3.1364    0.2798 H   0  0  0  0  0  0  0  0  0  0  0  0
  2  3  2  0  0  0  0
  3  1  1  0  0  0  0
  4  3  2  0  0  0  0
  4  6  1  0  0  0  0
  5  4  1  0  0  0  0
  6  7  1  0  0  0  0
  7  8  1  0  0  0  0
  7  9  1  0  0  0  0
 10  7  1  0  0  0  0
 11  6  1  0  0  0  0
 11 14  1  0  0  0  0
 12 11  1  0  0  0  0
 13 11  1  0  0  0  0
M  CHG  1   1  -1
M  END
