1,2
q = -1.0, confidence = 0.048

 11 10  0  0  0  0  0  0  0  0999 V2000
   -1.8037   -0.9646   -1.0496 O   0  5  0  0  0  0  0  0  0  0  0  0
   -1.5216   -1.7130    1.0296 O   0  0  0  0  0  0  0  0  0  0  0  0
   -2.2324   -1.6056   -0.0300 C   0  0  0  0  0  0  0  0  0  0  0  0
   -3.5804   -2.2356   -0.0481 C   0  0  0  0  0  0  0  0  0  0  0  0
   -3.8727   -2.7713    0.8703 H   0  0  0  0  0  0  0  0  0  0  0  0
   -4.3984   -2.1677   -1.1193 C   0  0  0  0  0  3  0  0  0  0  0  0
   -4.0139   -1.6144   -1.9957 H   0  0  0  0  0  0  0  0  0  0  0  0
   -5.7593   -2.7770   -1.2176 C   0  0  0  0  0  0  0  0  0  0  0  0
   -5.8114   -3.4998   -2.0611 H   0  0  0  0  0  0  0  0  0  0  0  0
   -6.5293   -2.0044   -1.4342 H   0  0  0  0  0  0  0  0  0  0  0  0
   -6.0491   -3.3067   -0.2886 H   0  0  0  0  0  0  0  0  0  0  0  0
  1  3  1  0  0  0  0
  3  2  2  0  0  0  0
  4  3  2  0  0  0  0
  4  5  1  0  0  0  0
  6  4  1  0  0  0  0
  7  6  1  0  0  0  0
  8  6  1  0  0  0  0
  8 11  1  0  0  0  0
  9  8  1  0  0  0  0
 10  8  1  0  0  0  0
M  CHG  1   1  -1
M  END
