1,5
q = -1.0, confidence = 0.21

 24 25  0  0  1  0  0  0  0  0999 V2000
   -0.2033   -0.6266    2.6465 O   0  0  0  0  0  1  0  0  0  0  0  0
    2.5643   -2.8786    1.7626 C   0  0  0  0  0  0  0  0  0  0  0  0
    2.4617   -3.8254    1.1973 H   0  0  0  0  0  0  0  0  0  0  0  0
    2.6640   -3.1242    2.8359 H   0  0  0  0  0  0  0  0  0  0  0  0
    0.7676   -1.8871    0.4545 O   0  0  0  0  0  1  0  0  0  0  0  0
    4.1552   -2.0203   -0.0818 C   0  0  0  0  0  0  0  0  0  0  0  0
    0.9023   -1.5176    2.7038 O   0  0  0  0  0  0  0  0  0  0  0  0
    5.6916   -1.1574   -1.8250 C   0  0  0  0  0  0  0  0  0  0  0  0
    6.5748   -0.5559   -2.0924 H   0  0  0  0  0  0  0  0  0  0  0  0
    1.3001   -2.0691    1.5655 C   0  0  2  0  0  3  0  0  0  0  0  0
    5.6015   -0.5463    1.8731 C   0  0  0  0  0  0  0  0  0  0  0  0
    6.1484    0.0143    2.6456 H   0  0  0  0  0  0  0  0  0  0  0  0
    3.7703   -2.0752    1.3027 C   0  0  0  0  0  0  0  0  0  0  0  0
    4.9862   -1.8428   -2.8025 C   0  0  0  0  0  0  0  0  0  0  0  0
    5.3034   -1.7905   -3.8548 H   0  0  0  0  0  0  0  0  0  0  0  0
    4.4844   -1.3367    2.2431 C   0  0  0  0  0  0  0  0  0  0  0  0
    4.1756   -1.3733    3.2992 H   0  0  0  0  0  0  0  0  0  0  0  0
    3.4566   -2.7168   -1.1153 C   0  0  0  0  0  0  0  0  0  0  0  0
    2.5689   -3.3114   -0.8616 H   0  0  0  0  0  0  0  0  0  0  0  0
    5.2989   -1.2159   -0.4539 C   0  0  0  0  0  0  0  0  0  0  0  0
    6.0044   -0.4897    0.5490 C   0  0  0  0  0  0  0  0  0  0  0  0
    6.8758    0.1143    0.2524 H   0  0  0  0  0  0  0  0  0  0  0  0
    3.8578   -2.6267   -2.4411 C   0  0  0  0  0  0  0  0  0  0  0  0
    3.3030   -3.1743   -3.2178 H   0  0  0  0  0  0  0  0  0  0  0  0
  1  7  1  0  0  0  0
  2  4  1  0  0  0  0
  3  2  1  0  0  0  0
  6 13  1  0  0  0  0
  8 20  1  0  0  0  0
  9  8  1  0  0  0  0
 10  5  1  6  0  0  0
 10  2  1  0  0  0  0
 10  7  1  0  0  0  0
 11 16  1  0  0  0  0
 11 12  1  0  0  0  0
 13  2  1  0  0  0  0
 13 16  2  0  0  0  0
 14 23  1  0  0  0  0
 14  8  2  0  0  0  0
 15 14  1  0  0  0  0
 16 17  1  0  0  0  0
 18 19  1  0  0  0  0
 18  6  1  0  0  0  0
 20  6  2  0  0  0  0
 20 21  1  0  0  0  0
 21 11  2  0  0  0  0
 22 21  1  0  0  0  0
 23 18  2  0  0  0  0
 24 23  1  0  0  0  0
M  END
