3,4
q = -2.0, confidence = 0.816

 15 15  0  0  0  0  0  0  0  0999 V2000
    2.2927    0.2923   -2.3495 P   0  0  0  0  0  0  0  0  0  0  0  0
    2.9488    0.9348   -3.5383 O   0  0  0  0  0  0  0  0  0  0  0  0
    0.8803   -0.4949   -2.5863 O   0  0  0  0  0  1  0  0  0  0  0  0
    1.8000    1.2646   -1.1287 O   0  0  0  0  0  1  0  0  0  0  0  0
    3.4144   -0.9307   -1.5677 C   0  0  0  0  0  0  0  0  0  0  0  0
    4.6813   -1.1432   -2.1430 C   0  0  0  0  0  0  0  0  0  0  0  0
    5.5753   -2.0619   -1.5699 C   0  0  0  0  0  0  0  0  0  0  0  0
    5.2133   -2.7723   -0.4140 C   0  0  0  0  0  0  0  0  0  0  0  0
    3.9506   -2.5628    0.1682 C   0  0  0  0  0  0  0  0  0  0  0  0
    3.0574   -1.6494   -0.4087 C   0  0  0  0  0  0  0  0  0  0  0  0
    4.9426   -0.5687   -3.0451 H   0  0  0  0  0  0  0  0  0  0  0  0
    6.5641   -2.2230   -2.0272 H   0  0  0  0  0  0  0  0  0  0  0  0
    5.9165   -3.4901    0.0364 H   0  0  0  0  0  0  0  0  0  0  0  0
    3.6631   -3.1105    1.0799 H   0  0  0  0  0  0  0  0  0  0  0  0
    2.0707   -1.4728    0.0514 H   0  0  0  0  0  0  0  0  0  0  0  0
  1  5  1  0  0  0  0
  1  4  1  0  0  0  0
  2  1  2  0  0  0  0
  3  1  1  0  0  0  0
  5 10  1  0  0  0  0
  6  7  1  0  0  0  0
  6  5  2  0  0  0  0
  7  8  2  0  0  0  0
  8 13  1  0  0  0  0
  8  9  1  0  0  0  0
  9 14  1  0  0  0  0
 10 15  1  0  0  0  0
 10  9  2  0  0  0  0
 11  6  1  0  0  0  0
 12  7  1  0  0  0  0
M  END
