9,13
q = -2.0, confidence = 0.98

 29 28  0  0  0  0  0  0  0  0999 V2000
    2.0222   -1.9478   -0.5524 C   0  0  0  0  0  0  0  0  0  0  0  0
    3.1851   -2.1224    0.4237 C   0  0  0  0  0  0  0  0  0  0  0  0
    5.5391   -2.5092    0.2425 C   0  0  0  0  0  0  0  0  0  0  0  0
    6.1924   -1.2138   -0.2216 C   0  0  0  0  0  0  0  0  0  0  0  0
    6.1170    1.1395   -0.0308 C   0  0  0  0  0  0  0  0  0  0  0  0
    5.4436    2.2953    0.7003 C   0  0  0  0  0  0  0  0  0  0  0  0
    3.1289    1.7325    0.5632 C   0  0  0  0  0  0  0  0  0  0  0  0
    1.7879    2.4143    0.2978 C   0  0  0  0  0  0  0  0  0  0  0  0
    0.9221   -1.3731    0.1064 O   0  0  0  0  0  1  0  0  0  0  0  0
    4.2521   -2.7212   -0.2975 O   0  0  0  0  0  0  0  0  0  0  0  0
    5.5839   -0.0983    0.3998 O   0  0  0  0  0  0  0  0  0  0  0  0
    4.1610    2.6425    0.2301 O   0  0  0  0  0  0  0  0  0  0  0  0
    0.7306    1.5689    0.6876 O   0  0  0  0  0  1  0  0  0  0  0  0
    1.7480   -2.9518   -0.9522 H   0  0  0  0  0  0  0  0  0  0  0  0
    2.3651   -1.3285   -1.4135 H   0  0  0  0  0  0  0  0  0  0  0  0
    2.8662   -2.7709    1.2772 H   0  0  0  0  0  0  0  0  0  0  0  0
    3.4751   -1.1339    0.8368 H   0  0  0  0  0  0  0  0  0  0  0  0
    5.5279   -2.5389    1.3587 H   0  0  0  0  0  0  0  0  0  0  0  0
    6.1754   -3.3509   -0.1065 H   0  0  0  0  0  0  0  0  0  0  0  0
    6.1030   -1.1445   -1.3340 H   0  0  0  0  0  0  0  0  0  0  0  0
    7.2865   -1.2476    0.0211 H   0  0  0  0  0  0  0  0  0  0  0  0
    7.2184    1.1776    0.1730 H   0  0  0  0  0  0  0  0  0  0  0  0
    5.9817    1.2721   -1.1332 H   0  0  0  0  0  0  0  0  0  0  0  0
    5.4207    2.0525    1.7925 H   0  0  0  0  0  0  0  0  0  0  0  0
    6.0735    3.1993    0.5650 H   0  0  0  0  0  0  0  0  0  0  0  0
    3.1918    0.8005   -0.0425 H   0  0  0  0  0  0  0  0  0  0  0  0
    3.1952    1.4295    1.6372 H   0  0  0  0  0  0  0  0  0  0  0  0
    1.7352    2.6779   -0.7821 H   0  0  0  0  0  0  0  0  0  0  0  0
    1.7397    3.3611    0.8825 H   0  0  0  0  0  0  0  0  0  0  0  0
  1  9  1  0  0  0  0
  1  2  1  0  0  0  0
  2 17  1  0  0  0  0
  2 16  1  0  0  0  0
  3 18  1  0  0  0  0
  4 21  1  0  0  0  0
  4  3  1  0  0  0  0
  4 11  1  0  0  0  0
  5 22  1  0  0  0  0
  5 11  1  0  0  0  0
  5  6  1  0  0  0  0
  6 24  1  0  0  0  0
  7 27  1  0  0  0  0
  8  7  1  0  0  0  0
  8 13  1  0  0  0  0
  8 29  1  0  0  0  0
 10  3  1  0  0  0  0
 10  2  1  0  0  0  0
 12  7  1  0  0  0  0
 12  6  1  0  0  0  0
 14  1  1  0  0  0  0
 15  1  1  0  0  0  0
 19  3  1  0  0  0  0
 20  4  1  0  0  0  0
 23  5  1  0  0  0  0
 25  6  1  0  0  0  0
 26  7  1  0  0  0  0
 28  8  1  0  0  0  0
M  END
