24,25
q = -1.0, confidence = 0.01

 32 32  0  0  1  0  0  0  0  0999 V2000
    4.3838   -0.7396   -0.2901 C   0  0  0  0  0  0  0  0  0  0  0  0
    3.4804   -0.9768   -0.8730 H   0  0  0  0  0  0  0  0  0  0  0  0
    4.2972   -0.6644    1.1153 C   0  0  0  0  0  0  0  0  0  0  0  0
    5.5971   -0.4926   -0.9435 C   0  0  0  0  0  0  0  0  0  0  0  0
    5.6397   -0.5476   -2.0435 H   0  0  0  0  0  0  0  0  0  0  0  0
    5.4558   -0.3308    1.8391 C   0  0  0  0  0  0  0  0  0  0  0  0
    5.4058   -0.2576    2.9372 H   0  0  0  0  0  0  0  0  0  0  0  0
    6.6700   -0.0886    1.1798 C   0  0  0  0  0  0  0  0  0  0  0  0
    7.5651    0.1715    1.7670 H   0  0  0  0  0  0  0  0  0  0  0  0
    6.7652   -0.1651   -0.2231 C   0  0  0  0  0  0  0  0  0  0  0  0
    8.0762    0.0513   -0.9406 C   0  0  0  0  0  0  0  0  0  0  0  0
    8.7747    0.6152   -0.2845 H   0  0  0  0  0  0  0  0  0  0  0  0
    7.9046    0.6859   -1.8366 H   0  0  0  0  0  0  0  0  0  0  0  0
    9.1185   -2.1615   -0.2098 C   0  0  0  0  0  0  0  0  0  0  0  0
    8.2200   -2.4212    0.3847 H   0  0  0  0  0  0  0  0  0  0  0  0
    9.8391   -1.6596    0.4717 H   0  0  0  0  0  0  0  0  0  0  0  0
    9.5864   -3.1068   -0.5524 H   0  0  0  0  0  0  0  0  0  0  0  0
    8.7713   -1.2557   -1.3957 C   0  0  0  0  0  0  0  0  0  0  0  0
    8.0462   -1.8020   -2.0420 H   0  0  0  0  0  0  0  0  0  0  0  0
   10.0122   -0.9375   -2.2370 C   0  0  0  0  0  0  0  0  0  0  0  0
   10.4991   -1.8636   -2.6049 H   0  0  0  0  0  0  0  0  0  0  0  0
   10.7641   -0.3814   -1.6370 H   0  0  0  0  0  0  0  0  0  0  0  0
    9.7600   -0.3127   -3.1183 H   0  0  0  0  0  0  0  0  0  0  0  0
    1.2513   -0.4718    0.2146 O   0  5  0  0  0  0  0  0  0  0  0  0
    1.6224    1.0371    1.7943 O   0  5  0  0  0  0  0  0  0  0  0  0
    2.6262   -2.4608    1.7727 C   0  0  0  0  0  0  0  0  0  0  0  0
    3.4480   -3.0722    2.1939 H   0  0  0  0  0  0  0  0  0  0  0  0
    2.4588   -2.7695    0.7229 H   0  0  0  0  0  0  0  0  0  0  0  0
    1.6997   -2.6747    2.3424 H   0  0  0  0  0  0  0  0  0  0  0  0
    1.8896   -0.0949    1.2624 C   0  0  0  0  0  3  0  0  0  0  0  0
    2.9892   -0.9693    1.8419 C   0  0  2  0  0  0  0  0  0  0  0  0
    3.1087   -0.6536    2.8970 H   0  0  0  0  0  0  0  0  0  0  0  0
  1  3  1  0  0  0  0
  2  1  1  0  0  0  0
  3  6  2  0  0  0  0
  3 31  1  0  0  0  0
  4  1  2  0  0  0  0
  4 10  1  0  0  0  0
  5  4  1  0  0  0  0
  6  7  1  0  0  0  0
  8  9  1  0  0  0  0
  8  6  1  0  0  0  0
 10  8  2  0  0  0  0
 11 12  1  0  0  0  0
 11 10  1  0  0  0  0
 13 11  1  0  0  0  0
 14 15  1  0  0  0  0
 14 16  1  0  0  0  0
 17 14  1  0  0  0  0
 18 11  1  0  0  0  0
 18 14  1  0  0  0  0
 19 18  1  0  0  0  0
 20 22  1  0  0  0  0
 20 18  1  0  0  0  0
 21 20  1  0  0  0  0
 23 20  1  0  0  0  0
 24 30  1  0  0  0  0
 26 31  1  0  0  0  0
 26 27  1  0  0  0  0
 26 29  1  0  0  0  0
 28 26  1  0  0  0  0
 30 25  1  0  0  0  0
 30 31  1  0  0  0  0
 31 32  1  1  0  0  0
M  CHG  2  24  -1  25  -1
M  END
