51,53
q = 0.0, confidence = 0.986

 54 56  0  0  1  0  0  0  0  0999 V2000
    0.6369    2.8251   -0.1338 C   0  0  0  0  0  0  0  0  0  0  0  0
    2.0373    3.0420   -0.4023 C   0  0  0  0  0  0  0  0  0  0  0  0
    2.4512    4.1668   -1.1039 C   0  0  0  0  0  0  0  0  0  0  0  0
    3.5176    4.3270   -1.3145 H   0  0  0  0  0  0  0  0  0  0  0  0
    1.4962    5.1203   -1.5712 C   0  0  0  0  0  0  0  0  0  0  0  0
    1.8548    5.9989   -2.1261 H   0  0  0  0  0  0  0  0  0  0  0  0
    0.1444    4.9460   -1.3427 C   0  0  0  0  0  0  0  0  0  0  0  0
   -0.5897    5.6787   -1.7116 H   0  0  0  0  0  0  0  0  0  0  0  0
   -0.3171    3.7938   -0.6260 C   0  0  0  0  0  0  0  0  0  0  0  0
   -1.6978    3.5558   -0.4043 C   0  0  0  0  0  3  0  0  0  0  0  0
   -2.4438    4.2739   -0.7941 H   0  0  0  0  0  0  0  0  0  0  0  0
   -3.5527    2.1671    0.4888 C   0  0  2  0  0  0  0  0  0  0  0  0
   -4.1384    3.1122    0.4394 H   0  0  0  0  0  0  0  0  0  0  0  0
   -3.7185    1.5278    1.8747 C   0  0  0  0  0  0  0  0  0  0  0  0
   -3.3409    2.2368    2.6390 H   0  0  0  0  0  0  0  0  0  0  0  0
   -3.0735    0.6259    1.9468 H   0  0  0  0  0  0  0  0  0  0  0  0
   -5.1773    1.1489    2.1495 C   0  0  0  0  0  0  0  0  0  0  0  0
   -5.2435    0.6424    3.1330 H   0  0  0  0  0  0  0  0  0  0  0  0
   -5.8007    2.0688    2.2240 H   0  0  0  0  0  0  0  0  0  0  0  0
   -5.7384    0.2442    1.0464 C   0  0  0  0  0  0  0  0  0  0  0  0
   -6.8062    0.0120    1.2342 H   0  0  0  0  0  0  0  0  0  0  0  0
   -5.1957   -0.7253    1.0626 H   0  0  0  0  0  0  0  0  0  0  0  0
   -5.5898    0.9086   -0.3287 C   0  0  0  0  0  0  0  0  0  0  0  0
   -6.1704    1.8557   -0.3535 H   0  0  0  0  0  0  0  0  0  0  0  0
   -6.0183    0.2825   -1.1385 H   0  0  0  0  0  0  0  0  0  0  0  0
   -4.1292    1.2660   -0.6451 C   0  0  2  0  0  0  0  0  0  0  0  0
   -4.0904    1.8615   -1.5871 H   0  0  0  0  0  0  0  0  0  0  0  0
   -3.6159   -1.0817   -1.3316 C   0  0  0  0  0  3  0  0  0  0  0  0
   -4.6740   -1.2530   -1.5948 H   0  0  0  0  0  0  0  0  0  0  0  0
   -2.6793   -2.1273   -1.5378 C   0  0  0  0  0  0  0  0  0  0  0  0
   -3.0926   -3.3891   -2.0719 C   0  0  0  0  0  0  0  0  0  0  0  0
   -4.1500   -3.5350   -2.3415 H   0  0  0  0  0  0  0  0  0  0  0  0
   -2.1719   -4.4054   -2.2382 C   0  0  0  0  0  0  0  0  0  0  0  0
   -2.4819   -5.3775   -2.6467 H   0  0  0  0  0  0  0  0  0  0  0  0
   -0.8068   -4.2148   -1.8719 C   0  0  0  0  0  0  0  0  0  0  0  0
   -0.0987   -5.0445   -2.0011 H   0  0  0  0  0  0  0  0  0  0  0  0
   -0.3752   -3.0034   -1.3493 C   0  0  0  0  0  0  0  0  0  0  0  0
   -1.2965   -1.9069   -1.1726 C   0  0  0  0  0  0  0  0  0  0  0  0
    1.9059   -3.7318   -1.0624 C   0  0  0  0  0  0  0  0  0  0  0  0
    2.0253   -4.0432   -2.1211 H   0  0  0  0  0  0  0  0  0  0  0  0
    1.6382   -4.6045   -0.4316 H   0  0  0  0  0  0  0  0  0  0  0  0
    2.8423   -3.2778   -0.6949 H   0  0  0  0  0  0  0  0  0  0  0  0
    4.2409    2.1513   -0.0317 C   0  0  0  0  0  0  0  0  0  0  0  0
    4.5376    2.0745   -1.0991 H   0  0  0  0  0  0  0  0  0  0  0  0
    4.6519    1.3013    0.5396 H   0  0  0  0  0  0  0  0  0  0  0  0
    4.6068    3.1068    0.4002 H   0  0  0  0  0  0  0  0  0  0  0  0
   -2.1544    2.4992    0.2554 N   0  0  0  0  0  0  0  0  0  0  0  0
   -1.3631    1.8871    0.6198 H   0  0  0  0  0  0  0  0  0  0  0  0
   -3.2735    0.0960   -0.8335 N   0  0  0  0  0  0  0  0  0  0  0  0
   -2.2258    0.1234   -0.6398 H   0  0  0  0  0  0  0  0  0  0  0  0
    0.2669    1.7803    0.5269 O   0  5  0  0  0  0  0  0  0  0  0  0
    2.8219    2.0527    0.1043 O   0  0  0  0  0  0  0  0  0  0  0  0
   -0.8912   -0.7794   -0.6889 O   0  5  0  0  0  0  0  0  0  0  0  0
    0.9044   -2.7131   -0.9552 O   0  0  0  0  0  0  0  0  0  0  0  0
  1 51  1  0  0  0  0
  2  1  1  0  0  0  0
  2 52  1  0  0  0  0
  3  2  2  0  0  0  0
  4  3  1  0  0  0  0
  5  7  2  0  0  0  0
  5  3  1  0  0  0  0
  6  5  1  0  0  0  0
  7  9  1  0  0  0  0
  8  7  1  0  0  0  0
  9 10  1  0  0  0  0
  9  1  2  0  0  0  0
 10 47  1  0  0  0  0
 11 10  1  0  0  0  0
 12 13  1  6  0  0  0
 12 14  1  0  0  0  0
 14 16  1  0  0  0  0
 14 17  1  0  0  0  0
 14 15  1  0  0  0  0
 17 19  1  0  0  0  0
 17 18  1  0  0  0  0
 20 22  1  0  0  0  0
 20 21  1  0  0  0  0
 20 17  1  0  0  0  0
 23 20  1  0  0  0  0
 24 23  1  0  0  0  0
 25 23  1  0  0  0  0
 26 27  1  6  0  0  0
 26 23  1  0  0  0  0
 26 12  1  0  0  0  0
 28 49  1  0  0  0  0
 29 28  1  0  0  0  0
 30 28  1  0  0  0  0
 30 38  1  0  0  0  0
 31 30  2  0  0  0  0
 32 31  1  0  0  0  0
 33 31  1  0  0  0  0
 33 35  2  0  0  0  0
 34 33  1  0  0  0  0
 35 37  1  0  0  0  0
 36 35  1  0  0  0  0
 37 38  2  0  0  0  0
 37 54  1  0  0  0  0
 38 53  1  0  0  0  0
 39 54  1  0  0  0  0
 39 42  1  0  0  0  0
 39 41  1  0  0  0  0
 40 39  1  0  0  0  0
 43 52  1  0  0  0  0
 43 46  1  0  0  0  0
 43 45  1  0  0  0  0
 44 43  1  0  0  0  0
 47 12  1  0  0  0  0
 47 48  1  0  0  0  0
 49 26  1  0  0  0  0
 49 50  1  0  0  0  0
M  CHG  2  51  -1  53  -1
M  END
