4,5
q = -2.0, confidence = 0.896

 22 22  0  0  1  0  0  0  0  0999 V2000
   -2.6419   -1.6529    1.4164 Cl  0  0  0  0  0  0  0  0  0  0  0  0
   -5.4057   -1.0835    0.6871 Cl  0  0  0  0  0  0  0  0  0  0  0  0
   -3.4060   -1.4278   -1.4216 Cl  0  0  0  0  0  0  0  0  0  0  0  0
    0.3643    1.1954   -1.4029 O   0  0  0  0  0  1  0  0  0  0  0  0
    1.6273    2.0172    0.7292 O   0  0  0  0  0  1  0  0  0  0  0  0
   -4.3774    1.5117   -0.0617 O   0  0  0  0  0  0  0  0  0  0  0  0
   -2.1568    1.1378    0.3745 N   0  0  0  0  0  0  0  0  0  0  0  0
   -1.4055    0.4514    0.5766 H   0  0  0  0  0  0  0  0  0  0  0  0
    0.1831    2.6049   -1.1718 C   0  0  1  0  0  0  0  0  0  0  0  0
    0.7533    3.1551   -1.9538 H   0  0  0  0  0  0  0  0  0  0  0  0
   -1.3127    2.9196   -1.1892 C   0  0  0  0  0  0  0  0  0  0  0  0
   -1.8474    2.3756   -1.9918 H   0  0  0  0  0  0  0  0  0  0  0  0
   -1.4641    4.0078   -1.3534 H   0  0  0  0  0  0  0  0  0  0  0  0
   -1.8097    2.5496    0.2299 C   0  0  2  0  0  0  0  0  0  0  0  0
   -2.7392    3.1031    0.4638 H   0  0  0  0  0  0  0  0  0  0  0  0
   -0.6299    2.9613    1.1377 C   0  0  0  0  0  0  0  0  0  0  0  0
   -0.5092    2.2838    2.0052 H   0  0  0  0  0  0  0  0  0  0  0  0
   -0.8134    3.9770    1.5395 H   0  0  0  0  0  0  0  0  0  0  0  0
    0.6562    2.9578    0.2592 C   0  0  1  0  0  0  0  0  0  0  0  0
    1.1460    3.9556    0.2809 H   0  0  0  0  0  0  0  0  0  0  0  0
   -3.4431    0.7610    0.1916 C   0  0  0  0  0  0  0  0  0  0  0  0
   -3.7116   -0.7904    0.2466 C   0  0  0  0  0  0  0  0  0  0  0  0
  3 22  1  0  0  0  0
  4  9  1  0  0  0  0
  6 21  2  0  0  0  0
  7  8  1  0  0  0  0
  9 10  1  6  0  0  0
  9 19  1  0  0  0  0
 11  9  1  0  0  0  0
 11 14  1  0  0  0  0
 12 11  1  0  0  0  0
 13 11  1  0  0  0  0
 14  7  1  0  0  0  0
 14 15  1  1  0  0  0
 14 16  1  0  0  0  0
 16 18  1  0  0  0  0
 16 17  1  0  0  0  0
 19 20  1  6  0  0  0
 19  5  1  0  0  0  0
 19 16  1  0  0  0  0
 21 22  1  0  0  0  0
 21  7  1  0  0  0  0
 22  2  1  0  0  0  0
 22  1  1  0  0  0  0
M  END
