1,2
q = -1.0, confidence = 0.01

 13 13  0  0  0  0  0  0  0  0999 V2000
   -1.2814   -0.9931   -0.0244 O   0  5  0  0  0  0  0  0  0  0  0  0
   -1.3958    1.2462   -0.0415 O   0  5  0  0  0  0  0  0  0  0  0  0
   -5.4471   -1.3465    0.0370 N   0  0  0  0  0  0  0  0  0  0  0  0
   -1.9593    0.0849   -0.0240 C   0  0  0  0  0  3  0  0  0  0  0  0
   -4.1152   -1.2171    0.0174 C   0  0  0  0  0  0  0  0  0  0  0  0
   -3.5138   -2.1428    0.0181 H   0  0  0  0  0  0  0  0  0  0  0  0
   -3.4507    0.0286   -0.0039 C   0  0  0  0  0  0  0  0  0  0  0  0
   -4.2325    1.2002   -0.0044 C   0  0  0  0  0  0  0  0  0  0  0  0
   -3.7353    2.1810   -0.0209 H   0  0  0  0  0  0  0  0  0  0  0  0
   -5.6251    1.0731    0.0160 C   0  0  0  0  0  0  0  0  0  0  0  0
   -6.2786    1.9580    0.0164 H   0  0  0  0  0  0  0  0  0  0  0  0
   -6.1797   -0.2197    0.0363 C   0  0  0  0  0  0  0  0  0  0  0  0
   -7.2765   -0.3507    0.0526 H   0  0  0  0  0  0  0  0  0  0  0  0
  1  4  1  0  0  0  0
  2  4  1  0  0  0  0
  4  7  1  0  0  0  0
  5  6  1  0  0  0  0
  5  3  2  0  0  0  0
  7  5  1  0  0  0  0
  8  7  2  0  0  0  0
  8 10  1  0  0  0  0
  9  8  1  0  0  0  0
 10 11  1  0  0  0  0
 10 12  2  0  0  0  0
 12  3  1  0  0  0  0
 12 13  1  0  0  0  0
M  CHG  2   1  -1   2  -1
M  END
