1,2
q = -1.0, confidence = 0.086

 19 19  0  0  0  0  0  0  0  0999 V2000
   -1.6153    0.0130   -1.2428 O   0  5  0  0  0  0  0  0  0  0  0  0
   -2.1342   -0.4346    0.8929 O   0  0  0  0  0  0  0  0  0  0  0  0
   -8.3415   -4.4051    1.5212 O   0  0  0  0  0  0  0  0  0  0  0  0
   -7.8827   -4.2413    2.3660 H   0  0  0  0  0  0  0  0  0  0  0  0
   -2.3724   -0.5172   -0.3665 C   0  0  0  0  0  0  0  0  0  0  0  0
   -3.5948   -1.2249   -0.8362 C   0  0  0  0  0  0  0  0  0  0  0  0
   -3.7457   -1.2312   -1.9267 H   0  0  0  0  0  0  0  0  0  0  0  0
   -4.4528   -1.8248    0.0256 C   0  0  0  0  0  3  0  0  0  0  0  0
   -4.1809   -1.7617    1.0942 H   0  0  0  0  0  0  0  0  0  0  0  0
   -5.6862   -2.5460   -0.2970 C   0  0  0  0  0  0  0  0  0  0  0  0
   -6.4221   -3.1269    0.7615 C   0  0  0  0  0  0  0  0  0  0  0  0
   -6.0465   -3.0240    1.7939 H   0  0  0  0  0  0  0  0  0  0  0  0
   -7.6142   -3.8333    0.5215 C   0  0  0  0  0  0  0  0  0  0  0  0
   -8.0910   -3.9648   -0.7975 C   0  0  0  0  0  0  0  0  0  0  0  0
   -9.0241   -4.5193   -0.9722 H   0  0  0  0  0  0  0  0  0  0  0  0
   -7.3660   -3.3901   -1.8518 C   0  0  0  0  0  0  0  0  0  0  0  0
   -7.7412   -3.4965   -2.8812 H   0  0  0  0  0  0  0  0  0  0  0  0
   -6.1781   -2.6881   -1.6172 C   0  0  0  0  0  0  0  0  0  0  0  0
   -5.6256   -2.2466   -2.4584 H   0  0  0  0  0  0  0  0  0  0  0  0
  1  5  1  0  0  0  0
  3  4  1  0  0  0  0
  5  2  2  0  0  0  0
  6  5  2  0  0  0  0
  6  8  1  0  0  0  0
  7  6  1  0  0  0  0
  8  9  1  0  0  0  0
 10  8  1  0  0  0  0
 10 11  1  0  0  0  0
 11 12  1  0  0  0  0
 13 11  2  0  0  0  0
 13  3  1  0  0  0  0
 14 13  1  0  0  0  0
 15 14  1  0  0  0  0
 16 18  1  0  0  0  0
 16 14  2  0  0  0  0
 17 16  1  0  0  0  0
 18 10  2  0  0  0  0
 19 18  1  0  0  0  0
M  CHG  1   1  -1
M  END
