2,4
q = -1.0, confidence = 0.046

 15 15  0  0  1  0  0  0  0  0999 V2000
    7.0330    0.3573   -1.5536 Cl  0  0  0  0  0  0  0  0  0  0  0  0
    1.1371   -0.7416    0.5618 O   0  0  0  0  0  1  0  0  0  0  0  0
    1.7873   -0.4993   -1.5723 O   0  0  0  0  0  0  0  0  0  0  0  0
    0.3582   -0.4036   -1.8136 O   0  0  0  0  0  1  0  0  0  0  0  0
    3.4815   -0.6067    0.0780 C   0  0  0  0  0  0  0  0  0  0  0  0
    5.8041   -0.1663   -0.4337 C   0  0  0  0  0  0  0  0  0  0  0  0
    4.4648   -0.1862   -0.8413 C   0  0  0  0  0  0  0  0  0  0  0  0
    4.1826    0.1377   -1.8513 H   0  0  0  0  0  0  0  0  0  0  0  0
    5.1807   -0.9680    1.7695 C   0  0  0  0  0  0  0  0  0  0  0  0
    5.4681   -1.2708    2.7873 H   0  0  0  0  0  0  0  0  0  0  0  0
    2.0593   -0.6218   -0.2957 C   0  0  1  0  0  3  0  0  0  0  0  0
    3.8347   -0.9945    1.3876 C   0  0  0  0  0  0  0  0  0  0  0  0
    3.0438   -1.3117    2.0808 H   0  0  0  0  0  0  0  0  0  0  0  0
    6.1730   -0.5561    0.8666 C   0  0  0  0  0  0  0  0  0  0  0  0
    7.2319   -0.5287    1.1595 H   0  0  0  0  0  0  0  0  0  0  0  0
  1  6  1  0  0  0  0
  3 11  1  0  0  0  0
  4  3  1  0  0  0  0
  5 12  1  0  0  0  0
  6 14  2  0  0  0  0
  7  6  1  0  0  0  0
  7  5  2  0  0  0  0
  8  7  1  0  0  0  0
  9 10  1  0  0  0  0
 11  5  1  0  0  0  0
 11  2  1  1  0  0  0
 12  9  2  0  0  0  0
 12 13  1  0  0  0  0
 14 15  1  0  0  0  0
 14  9  1  0  0  0  0
M  END
