1,2
q = -1.0, confidence = 0.032

 42 44  0  0  1  0  0  0  0  0999 V2000
   -3.4089    1.3904    0.5326 O   0  5  0  0  0  0  0  0  0  0  0  0
   -0.8627    0.4984   -0.4412 O   0  0  0  0  0  1  0  0  0  0  0  0
    7.3423    1.8337    0.4969 O   0  0  0  0  0  0  0  0  0  0  0  0
   -2.9471    2.5472    0.1420 C   0  0  0  0  0  0  0  0  0  0  0  0
   -3.8198    3.6723    0.2971 C   0  0  0  0  0  0  0  0  0  0  0  0
   -4.8168    3.4692    0.7146 H   0  0  0  0  0  0  0  0  0  0  0  0
   -3.4465    4.9519   -0.0840 C   0  0  0  0  0  0  0  0  0  0  0  0
   -4.1599    5.7832    0.0305 H   0  0  0  0  0  0  0  0  0  0  0  0
   -2.1632    5.1918   -0.6319 C   0  0  0  0  0  0  0  0  0  0  0  0
   -1.8732    6.2003   -0.9595 H   0  0  0  0  0  0  0  0  0  0  0  0
   -1.2745    4.1329   -0.7496 C   0  0  0  0  0  0  0  0  0  0  0  0
   -0.2840    4.3268   -1.1833 H   0  0  0  0  0  0  0  0  0  0  0  0
   -1.6140    2.7986   -0.3744 C   0  0  0  0  0  0  0  0  0  0  0  0
   -0.6038    1.7478   -0.4411 C   0  0  1  0  0  3  0  0  0  0  0  0
    0.8223    2.0925   -0.4248 C   0  0  0  0  0  0  0  0  0  0  0  0
    1.1196    3.1250   -0.6496 H   0  0  0  0  0  0  0  0  0  0  0  0
    1.7498    1.1782   -0.0141 C   0  0  0  0  0  0  0  0  0  0  0  0
    1.3564    0.2002    0.3103 H   0  0  0  0  0  0  0  0  0  0  0  0
    3.1865    1.3621    0.1062 C   0  0  0  0  0  0  0  0  0  0  0  0
    3.8730    2.5229   -0.3420 C   0  0  0  0  0  0  0  0  0  0  0  0
    3.3112    3.3416   -0.8158 H   0  0  0  0  0  0  0  0  0  0  0  0
    5.2507    2.6450   -0.2008 C   0  0  0  0  0  0  0  0  0  0  0  0
    5.7860    3.5416   -0.5452 H   0  0  0  0  0  0  0  0  0  0  0  0
    6.0039    1.6069    0.3982 C   0  0  0  0  0  0  0  0  0  0  0  0
    5.3482    0.4404    0.8441 C   0  0  0  0  0  0  0  0  0  0  0  0
    5.9107   -0.3916    1.2865 H   0  0  0  0  0  0  0  0  0  0  0  0
    3.9614    0.3340    0.6944 C   0  0  0  0  0  0  0  0  0  0  0  0
    3.4518   -0.5770    1.0450 H   0  0  0  0  0  0  0  0  0  0  0  0
    8.1627    0.8590    1.1346 C   0  0  0  0  0  0  0  0  0  0  0  0
    7.7585    0.6056    2.1410 H   0  0  0  0  0  0  0  0  0  0  0  0
    9.1301    1.3803    1.2929 H   0  0  0  0  0  0  0  0  0  0  0  0
    8.3805   -0.3988    0.3172 C   0  0  0  0  0  0  0  0  0  0  0  0
    8.6518   -1.6211    0.9604 C   0  0  0  0  0  0  0  0  0  0  0  0
    8.6661   -1.6666    2.0617 H   0  0  0  0  0  0  0  0  0  0  0  0
    8.8985   -2.7812    0.2108 C   0  0  0  0  0  0  0  0  0  0  0  0
    9.1084   -3.7311    0.7257 H   0  0  0  0  0  0  0  0  0  0  0  0
    8.8652   -2.7320   -1.1917 C   0  0  0  0  0  0  0  0  0  0  0  0
    9.0508   -3.6427   -1.7810 H   0  0  0  0  0  0  0  0  0  0  0  0
    8.5874   -1.5171   -1.8384 C   0  0  0  0  0  0  0  0  0  0  0  0
    8.5547   -1.4731   -2.9377 H   0  0  0  0  0  0  0  0  0  0  0  0
    8.3496   -0.3557   -1.0890 C   0  0  0  0  0  0  0  0  0  0  0  0
    8.1270    0.5969   -1.5924 H   0  0  0  0  0  0  0  0  0  0  0  0
  3 29  1  0  0  0  0
  4  5  1  0  0  0  0
  4  1  1  0  0  0  0
  5  6  1  0  0  0  0
  7  8  1  0  0  0  0
  7  5  2  0  0  0  0
  9  7  1  0  0  0  0
 10  9  1  0  0  0  0
 11  9  2  0  0  0  0
 11 13  1  0  0  0  0
 12 11  1  0  0  0  0
 13  4  2  0  0  0  0
 14  2  1  1  0  0  0
 14 15  1  0  0  0  0
 14 13  1  0  0  0  0
 15 17  2  0  0  0  0
 16 15  1  0  0  0  0
 17 19  1  0  0  0  0
 17 18  1  0  0  0  0
 19 27  1  0  0  0  0
 20 22  1  0  0  0  0
 20 19  2  0  0  0  0
 21 20  1  0  0  0  0
 22 24  2  0  0  0  0
 23 22  1  0  0  0  0
 24  3  1  0  0  0  0
 24 25  1  0  0  0  0
 25 26  1  0  0  0  0
 27 25  2  0  0  0  0
 27 28  1  0  0  0  0
 29 31  1  0  0  0  0
 29 30  1  0  0  0  0
 32 33  1  0  0  0  0
 32 29  1  0  0  0  0
 33 34  1  0  0  0  0
 35 36  1  0  0  0  0
 35 33  2  0  0  0  0
 37 35  1  0  0  0  0
 38 37  1  0  0  0  0
 39 37  2  0  0  0  0
 39 41  1  0  0  0  0
 40 39  1  0  0  0  0
 41 32  2  0  0  0  0
 42 41  1  0  0  0  0
M  CHG  1   1  -1
M  END
