1,3
 OpenBabel05122313063D

 16 16  0  0  0  0  0  0  0  0999 V2000
   -0.7174    1.6530   -0.4251 O   0  5  0  0  0  0  0  0  0  0  0  0
   -2.7997    2.3957   -0.1999 O   0  0  0  0  0  0  0  0  0  0  0  0
   -0.8115   -1.2634   -0.9969 O   0  5  0  0  0  0  0  0  0  0  0  0
   -2.9358   -1.9120   -1.0473 O   0  0  0  0  0  0  0  0  0  0  0  0
   -2.0131    1.4619   -0.1605 C   0  0  0  0  0  0  0  0  0  0  0  0
   -2.4406    0.0524    0.2943 C   0  0  0  0  0  0  0  0  0  0  0  0
   -1.9645   -0.3084    1.7571 C   0  0  0  0  0  0  0  0  0  0  0  0
   -1.1403   -1.0468    1.8390 H   0  0  0  0  0  0  0  0  0  0  0  0
   -1.6745    0.6043    2.3159 H   0  0  0  0  0  0  0  0  0  0  0  0
   -3.4069   -0.7764    2.0716 C   0  0  0  0  0  0  0  0  0  0  0  0
   -3.8344   -0.4535    3.0420 H   0  0  0  0  0  0  0  0  0  0  0  0
   -3.5098   -1.8762    1.9875 H   0  0  0  0  0  0  0  0  0  0  0  0
   -3.9011   -0.0487    0.7971 C   0  0  0  0  0  0  0  0  0  0  0  0
   -4.3032    0.9631    0.9905 H   0  0  0  0  0  0  0  0  0  0  0  0
   -4.5779   -0.6102    0.1275 H   0  0  0  0  0  0  0  0  0  0  0  0
   -2.0949   -1.1119   -0.6646 C   0  0  0  0  0  0  0  0  0  0  0  0
  1  5  1  0  0  0  0
  2  5  2  0  0  0  0
  3 16  1  0  0  0  0
  4 16  2  0  0  0  0
  5  6  1  0  0  0  0
  6 13  1  0  0  0  0
  6  7  1  0  0  0  0
  7  8  1  0  0  0  0
  7 10  1  0  0  0  0
  7  9  1  0  0  0  0
 10 11  1  0  0  0  0
 12 10  1  0  0  0  0
 13 14  1  0  0  0  0
 13 10  1  0  0  0  0
 15 13  1  0  0  0  0
 16  6  1  0  0  0  0
M  CHG  2   1  -1   3  -1
M  END
