1,2
 OpenBabel05122313063D

  7  6  0  0  0  0  0  0  0  0999 V2000
   -0.5663    3.3624    0.4123 O   0  5  0  0  0  0  0  0  0  0  0  0
    1.1033    2.2852    1.3947 O   0  5  0  0  0  0  0  0  0  0  0  0
    0.5157    3.3811    1.0929 C   0  0  0  0  0  3  0  0  0  0  0  0
    1.1242    4.6984    1.5091 C   0  0  0  0  0  0  0  0  0  0  0  0
    1.9772    4.9276    0.8374 H   0  0  0  0  0  0  0  0  0  0  0  0
    1.5247    4.6277    2.5382 H   0  0  0  0  0  0  0  0  0  0  0  0
    0.3848    5.5159    1.4349 H   0  0  0  0  0  0  0  0  0  0  0  0
  1  3  1  0  0  0  0
  3  2  1  0  0  0  0
  3  4  1  0  0  0  0
  4  6  1  0  0  0  0
  5  4  1  0  0  0  0
  7  4  1  0  0  0  0
M  CHG  2   1  -1   2  -1
M  END
