1,2
 OpenBabel05122313063D

 14 14  0  0  0  0  0  0  0  0999 V2000
   -1.8765   -0.0038    1.1050 O   0  5  0  0  0  0  0  0  0  0  0  0
   -1.8765    0.0112   -1.1045 O   0  5  0  0  0  0  0  0  0  0  0  0
   -2.5280    0.0050    0.0003 C   0  0  0  0  0  3  0  0  0  0  0  0
   -4.0155    0.0080    0.0003 C   0  0  0  0  0  0  0  0  0  0  0  0
   -4.7210    0.0673    1.2193 C   0  0  0  0  0  0  0  0  0  0  0  0
   -4.1483    0.1148    2.1569 H   0  0  0  0  0  0  0  0  0  0  0  0
   -6.1218    0.0705    1.2169 C   0  0  0  0  0  0  0  0  0  0  0  0
   -6.6729    0.1189    2.1684 H   0  0  0  0  0  0  0  0  0  0  0  0
   -6.8232    0.0137    0.0003 C   0  0  0  0  0  0  0  0  0  0  0  0
   -7.9241    0.0160    0.0003 H   0  0  0  0  0  0  0  0  0  0  0  0
   -6.1220   -0.0459   -1.2164 C   0  0  0  0  0  0  0  0  0  0  0  0
   -6.6734   -0.0920   -2.1678 H   0  0  0  0  0  0  0  0  0  0  0  0
   -4.7213   -0.0484   -1.2187 C   0  0  0  0  0  0  0  0  0  0  0  0
   -4.1488   -0.0982   -2.1563 H   0  0  0  0  0  0  0  0  0  0  0  0
  2  3  1  0  0  0  0
  3  4  1  0  0  0  0
  3  1  1  0  0  0  0
  4  5  1  0  0  0  0
  5  6  1  0  0  0  0
  7  5  2  0  0  0  0
  7  8  1  0  0  0  0
  9 10  1  0  0  0  0
  9  7  1  0  0  0  0
 11  9  2  0  0  0  0
 12 11  1  0  0  0  0
 13 11  1  0  0  0  0
 13  4  2  0  0  0  0
 14 13  1  0  0  0  0
M  CHG  2   1  -1   2  -1
M  END
