2,3
 OpenBabel05122313063D

  5  4  0  0  0  0  0  0  0  0999 V2000
   -0.7039    2.6563   -0.0006 S   0  0  0  0  0  0  0  0  0  0  0  0
   -0.4104    1.6148    1.2032 O   0  0  0  0  0  0  0  0  0  0  0  0
   -0.4103    1.6144   -1.2040 O   0  0  0  0  0  0  0  0  0  0  0  0
   -2.1427    3.0267   -0.0006 O   0  0  0  0  0  0  0  0  0  0  0  0
    0.2826    3.7498   -0.0008 O   0  0  0  0  0  0  0  0  0  0  0  0
  1  4  1  0  0  0  0
  1  2  1  0  0  0  0
  3  1  1  0  0  0  0
  5  1  1  0  0  0  0
M  END
