1,2
 OpenBabel05122313063D

 34 36  0  0  1  0  0  0  0  0999 V2000
   -0.8968    0.3030    1.2912 O   0  5  0  0  0  0  0  0  0  0  0  0
    1.6089    1.0929   -0.1460 O   0  0  0  0  0  1  0  0  0  0  0  0
   -2.3871    2.0725    0.8335 N   0  0  0  0  0  0  0  0  0  0  0  0
   -2.3390    3.3638    0.3496 N   0  0  0  0  0  0  0  0  0  0  0  0
   -3.6428    1.4241    0.9472 C   0  0  0  0  0  0  0  0  0  0  0  0
   -3.7568    0.1267    1.4926 C   0  0  0  0  0  0  0  0  0  0  0  0
   -2.8648   -0.3820    1.8732 H   0  0  0  0  0  0  0  0  0  0  0  0
   -5.0072   -0.5076    1.5058 C   0  0  0  0  0  0  0  0  0  0  0  0
   -5.0783   -1.5259    1.9179 H   0  0  0  0  0  0  0  0  0  0  0  0
   -6.1501    0.1343    1.0046 C   0  0  0  0  0  0  0  0  0  0  0  0
   -7.1273   -0.3714    1.0225 H   0  0  0  0  0  0  0  0  0  0  0  0
   -6.0320    1.4356    0.4877 C   0  0  0  0  0  0  0  0  0  0  0  0
   -6.9197    1.9579    0.0984 H   0  0  0  0  0  0  0  0  0  0  0  0
   -4.7905    2.0815    0.4535 C   0  0  0  0  0  0  0  0  0  0  0  0
   -4.6739    3.0910    0.0400 H   0  0  0  0  0  0  0  0  0  0  0  0
   -1.1227    1.4942    0.8922 C   0  0  0  0  0  0  0  0  0  0  0  0
   -0.2165    2.5129    0.4215 C   0  0  0  0  0  0  0  0  0  0  0  0
   -1.0655    3.6490    0.1266 C   0  0  0  0  0  0  0  0  0  0  0  0
   -0.7168    4.9794   -0.4661 C   0  0  0  0  0  0  0  0  0  0  0  0
   -1.6423    5.4575   -0.8385 H   0  0  0  0  0  0  0  0  0  0  0  0
    0.0044    4.8753   -1.3009 H   0  0  0  0  0  0  0  0  0  0  0  0
   -0.2484    5.6616    0.2715 H   0  0  0  0  0  0  0  0  0  0  0  0
    1.1613    2.2581    0.1175 C   0  0  2  0  0  3  0  0  0  0  0  0
    2.1566    3.3660    0.0506 C   0  0  0  0  0  0  0  0  0  0  0  0
    2.0976    4.4582    0.9412 C   0  0  0  0  0  0  0  0  0  0  0  0
    1.2920    4.4964    1.6893 H   0  0  0  0  0  0  0  0  0  0  0  0
    3.0755    5.4613    0.8952 C   0  0  0  0  0  0  0  0  0  0  0  0
    3.0304    6.3038    1.6020 H   0  0  0  0  0  0  0  0  0  0  0  0
    4.1155    5.3867   -0.0457 C   0  0  0  0  0  0  0  0  0  0  0  0
    4.8787    6.1789   -0.0863 H   0  0  0  0  0  0  0  0  0  0  0  0
    4.1884    4.2938   -0.9273 C   0  0  0  0  0  0  0  0  0  0  0  0
    5.0082    4.2303   -1.6589 H   0  0  0  0  0  0  0  0  0  0  0  0
    3.2232    3.2816   -0.8709 C   0  0  0  0  0  0  0  0  0  0  0  0
    3.2751    2.4068   -1.5358 H   0  0  0  0  0  0  0  0  0  0  0  0
  3 16  1  0  0  0  0
  3  5  1  0  0  0  0
  4  3  1  0  0  0  0
  5  6  1  0  0  0  0
  6  8  2  0  0  0  0
  6  7  1  0  0  0  0
  8  9  1  0  0  0  0
 10 11  1  0  0  0  0
 10  8  1  0  0  0  0
 12 10  2  0  0  0  0
 13 12  1  0  0  0  0
 14 12  1  0  0  0  0
 14  5  2  0  0  0  0
 15 14  1  0  0  0  0
 16  1  1  0  0  0  0
 17 16  2  0  0  0  0
 18  4  2  0  0  0  0
 18 17  1  0  0  0  0
 19 18  1  0  0  0  0
 19 22  1  0  0  0  0
 20 19  1  0  0  0  0
 21 19  1  0  0  0  0
 23  2  1  6  0  0  0
 23 17  1  0  0  0  0
 24 23  1  0  0  0  0
 24 25  1  0  0  0  0
 25 26  1  0  0  0  0
 27 25  2  0  0  0  0
 27 28  1  0  0  0  0
 29 27  1  0  0  0  0
 30 29  1  0  0  0  0
 31 33  1  0  0  0  0
 31 29  2  0  0  0  0
 32 31  1  0  0  0  0
 33 24  2  0  0  0  0
 34 33  1  0  0  0  0
M  CHG  1   1  -1
M  END
