1,2
 OpenBabel05122313063D

 21 21  0  0  1  0  0  0  0  0999 V2000
   -1.8550   -0.1057    0.1958 O   0  0  0  0  0  1  0  0  0  0  0  0
   -0.0591    1.1388   -1.4958 O   0  5  0  0  0  0  0  0  0  0  0  0
   -2.7428    0.4651   -0.5422 C   0  0  2  0  0  3  0  0  0  0  0  0
   -5.2608    0.8756   -0.6392 C   0  0  0  0  0  0  0  0  0  0  0  0
   -5.1101    1.7436   -1.2965 H   0  0  0  0  0  0  0  0  0  0  0  0
   -0.8825    2.7595   -2.9973 C   0  0  0  0  0  0  0  0  0  0  0  0
   -1.7412    2.9045   -3.6788 H   0  0  0  0  0  0  0  0  0  0  0  0
    0.0397    2.5615   -3.5755 H   0  0  0  0  0  0  0  0  0  0  0  0
   -0.7269    3.6937   -2.4135 H   0  0  0  0  0  0  0  0  0  0  0  0
   -2.4429    1.3358   -1.6114 C   0  0  0  0  0  0  0  0  0  0  0  0
   -3.2628    1.8068   -2.1653 H   0  0  0  0  0  0  0  0  0  0  0  0
   -1.1247    1.6655   -1.9902 C   0  0  0  0  0  0  0  0  0  0  0  0
   -4.3781   -0.9545    0.6998 C   0  0  0  0  0  0  0  0  0  0  0  0
   -3.5056   -1.5182    1.0605 H   0  0  0  0  0  0  0  0  0  0  0  0
   -6.7762   -0.5666    0.6031 C   0  0  0  0  0  0  0  0  0  0  0  0
   -7.7994   -0.8402    0.9022 H   0  0  0  0  0  0  0  0  0  0  0  0
   -6.5615    0.5257   -0.2534 C   0  0  0  0  0  0  0  0  0  0  0  0
   -7.4155    1.1142   -0.6215 H   0  0  0  0  0  0  0  0  0  0  0  0
   -4.1518    0.1378   -0.1697 C   0  0  0  0  0  0  0  0  0  0  0  0
   -5.6795   -1.3049    1.0783 C   0  0  0  0  0  0  0  0  0  0  0  0
   -5.8416   -2.1623    1.7491 H   0  0  0  0  0  0  0  0  0  0  0  0
  3 19  1  0  0  0  0
  3  1  1  1  0  0  0
  4 17  2  0  0  0  0
  4 19  1  0  0  0  0
  5  4  1  0  0  0  0
  6  9  1  0  0  0  0
  6 12  1  0  0  0  0
  7  6  1  0  0  0  0
  8  6  1  0  0  0  0
 10  3  1  0  0  0  0
 11 10  1  0  0  0  0
 12 10  2  0  0  0  0
 12  2  1  0  0  0  0
 13 14  1  0  0  0  0
 13 20  1  0  0  0  0
 15 16  1  0  0  0  0
 15 20  2  0  0  0  0
 17 15  1  0  0  0  0
 18 17  1  0  0  0  0
 19 13  2  0  0  0  0
 20 21  1  0  0  0  0
M  CHG  1   2  -1
M  END
