4,5
 OpenBabel05122313063D

 14 14  0  0  1  0  0  0  0  0999 V2000
    2.2597    0.0018    3.4599 Br  0  0  0  0  0  0  0  0  0  0  0  0
    6.5008   -0.0009   -0.0427 Br  0  0  0  0  0  0  0  0  0  0  0  0
    2.1936   -0.0012   -3.4511 Br  0  0  0  0  0  0  0  0  0  0  0  0
    0.2765   -0.0002   -1.2772 O   0  5  0  0  0  0  0  0  0  0  0  0
    0.3014    0.0000    1.3133 O   0  0  0  0  0  1  0  0  0  0  0  0
    1.4283   -0.0004   -0.7379 C   0  0  0  0  0  0  0  0  0  0  0  0
    1.4401   -0.0000    0.7676 C   0  0  1  0  0  3  0  0  0  0  0  0
    2.6310    0.0005    1.5758 C   0  0  0  0  0  0  0  0  0  0  0  0
    3.9871    0.0002    1.2507 C   0  0  0  0  0  0  0  0  0  0  0  0
    4.6776    0.0006    2.1063 H   0  0  0  0  0  0  0  0  0  0  0  0
    4.5801   -0.0005   -0.0208 C   0  0  0  0  0  0  0  0  0  0  0  0
    3.9579   -0.0011   -1.2753 C   0  0  0  0  0  0  0  0  0  0  0  0
    4.6274   -0.0016   -2.1472 H   0  0  0  0  0  0  0  0  0  0  0  0
    2.5930   -0.0008   -1.5736 C   0  0  0  0  0  0  0  0  0  0  0  0
  2 11  1  0  0  0  0
  3 14  1  0  0  0  0
  4  6  1  0  0  0  0
  6  7  1  0  0  0  0
  7  5  1  6  0  0  0
  7  8  1  0  0  0  0
  8  1  1  0  0  0  0
  9  8  2  0  0  0  0
  9 10  1  0  0  0  0
 11  9  1  0  0  0  0
 12 11  2  0  0  0  0
 13 12  1  0  0  0  0
 14 12  1  0  0  0  0
 14  6  2  0  0  0  0
M  CHG  1   4  -1
M  END
