3,5
 OpenBabel05122313063D

  8  7  0  0  0  0  0  0  0  0999 V2000
   -2.1237   -0.7786   -2.4606 S   0  0  0  0  0  0  0  0  0  0  0  0
   -3.7060   -1.5817   -1.8044 C   0  0  0  0  0  0  0  0  0  0  0  0
   -1.9819    0.5233   -1.6876 O   0  0  0  0  0  0  0  0  0  0  0  0
   -2.3119   -0.7102   -3.9113 O   0  0  0  0  0  0  0  0  0  0  0  0
   -1.0113   -1.6751   -1.9215 O   0  0  0  0  0  0  0  0  0  0  0  0
   -4.7303   -0.7339   -1.9253 F   0  0  0  0  0  0  0  0  0  0  0  0
   -3.5735   -1.9298   -0.5094 F   0  0  0  0  0  0  0  0  0  0  0  0
   -3.9551   -2.6871   -2.5175 F   0  0  0  0  0  0  0  0  0  0  0  0
  1  5  1  0  0  0  0
  1  2  1  0  0  0  0
  1  3  1  0  0  0  0
  2  7  1  0  0  0  0
  4  1  1  0  0  0  0
  6  2  1  0  0  0  0
  8  2  1  0  0  0  0
M  END
