1,2
 OpenBabel05122313063D

 36 36  0  0  0  0  0  0  0  0999 V2000
    1.4290    1.0543   -0.0002 O   0  5  0  0  0  0  0  0  0  0  0  0
    1.3756   -1.4893   -0.0006 O   0  5  0  0  0  0  0  0  0  0  0  0
    2.6450    0.4688   -0.0001 C   0  0  0  0  0  0  0  0  0  0  0  0
    2.6081   -0.9519   -0.0004 C   0  0  0  0  0  0  0  0  0  0  0  0
    3.7911   -1.7122   -0.0003 C   0  0  0  0  0  0  0  0  0  0  0  0
    5.0327   -1.0526   -0.0000 C   0  0  0  0  0  0  0  0  0  0  0  0
    5.0451    0.3653    0.0003 C   0  0  0  0  0  0  0  0  0  0  0  0
    3.8840    1.1619    0.0002 C   0  0  0  0  0  0  0  0  0  0  0  0
    6.3713   -1.8152   -0.0001 C   0  0  0  0  0  0  0  0  0  0  0  0
    6.1691   -3.3401    0.0001 C   0  0  0  0  0  0  0  0  0  0  0  0
    7.1801   -1.4351    1.2612 C   0  0  0  0  0  0  0  0  0  0  0  0
    7.1797   -1.4352   -1.2617 C   0  0  0  0  0  0  0  0  0  0  0  0
    3.9246    2.6979    0.0006 C   0  0  0  0  0  0  0  0  0  0  0  0
    5.3621    3.2445    0.0011 C   0  0  0  0  0  0  0  0  0  0  0  0
    3.2081    3.2227    1.2670 C   0  0  0  0  0  0  0  0  0  0  0  0
    3.2088    3.2233   -1.2659 C   0  0  0  0  0  0  0  0  0  0  0  0
    3.7033   -2.8066   -0.0005 H   0  0  0  0  0  0  0  0  0  0  0  0
    6.0189    0.8725    0.0006 H   0  0  0  0  0  0  0  0  0  0  0  0
    5.6133   -3.6798   -0.8970 H   0  0  0  0  0  0  0  0  0  0  0  0
    5.6133   -3.6796    0.8972 H   0  0  0  0  0  0  0  0  0  0  0  0
    7.1527   -3.8525    0.0001 H   0  0  0  0  0  0  0  0  0  0  0  0
    7.3906   -0.3479    1.3001 H   0  0  0  0  0  0  0  0  0  0  0  0
    8.1535   -1.9695    1.2791 H   0  0  0  0  0  0  0  0  0  0  0  0
    6.6215   -1.7016    2.1812 H   0  0  0  0  0  0  0  0  0  0  0  0
    6.6207   -1.7018   -2.1815 H   0  0  0  0  0  0  0  0  0  0  0  0
    8.1531   -1.9696   -1.2800 H   0  0  0  0  0  0  0  0  0  0  0  0
    7.3901   -0.3480   -1.3008 H   0  0  0  0  0  0  0  0  0  0  0  0
    5.9269    2.9209    0.8989 H   0  0  0  0  0  0  0  0  0  0  0  0
    5.3395    4.3535    0.0014 H   0  0  0  0  0  0  0  0  0  0  0  0
    5.9273    2.9213   -0.8965 H   0  0  0  0  0  0  0  0  0  0  0  0
    3.7428    2.8931    2.1810 H   0  0  0  0  0  0  0  0  0  0  0  0
    2.1720    2.8383    1.3218 H   0  0  0  0  0  0  0  0  0  0  0  0
    3.1785    4.3331    1.2670 H   0  0  0  0  0  0  0  0  0  0  0  0
    3.1791    4.3337   -1.2655 H   0  0  0  0  0  0  0  0  0  0  0  0
    2.1727    2.8389   -1.3215 H   0  0  0  0  0  0  0  0  0  0  0  0
    3.7440    2.8941   -2.1798 H   0  0  0  0  0  0  0  0  0  0  0  0
  1  3  1  0  0  0  0
  2  4  1  0  0  0  0
  3  8  1  0  0  0  0
  4  5  1  0  0  0  0
  4  3  2  0  0  0  0
  5  6  2  0  0  0  0
  6  7  1  0  0  0  0
  7 18  1  0  0  0  0
  8  7  2  0  0  0  0
  8 13  1  0  0  0  0
  9  6  1  0  0  0  0
  9 10  1  0  0  0  0
  9 11  1  0  0  0  0
 10 21  1  0  0  0  0
 10 20  1  0  0  0  0
 11 23  1  0  0  0  0
 11 22  1  0  0  0  0
 11 24  1  0  0  0  0
 12  9  1  0  0  0  0
 13 14  1  0  0  0  0
 13 15  1  0  0  0  0
 14 29  1  0  0  0  0
 14 28  1  0  0  0  0
 15 33  1  0  0  0  0
 15 32  1  0  0  0  0
 15 31  1  0  0  0  0
 16 34  1  0  0  0  0
 16 13  1  0  0  0  0
 17  5  1  0  0  0  0
 19 10  1  0  0  0  0
 25 12  1  0  0  0  0
 26 12  1  0  0  0  0
 27 12  1  0  0  0  0
 30 14  1  0  0  0  0
 35 16  1  0  0  0  0
 36 16  1  0  0  0  0
M  CHG  2   1  -1   2  -1
M  END
