1,2
 OpenBabel05122313063D

 21 21  0  0  1  0  0  0  0  0999 V2000
    2.6346   -1.1192   -0.0015 O   0  5  0  0  0  0  0  0  0  0  0  0
    0.9749    1.2380    0.0279 O   0  0  0  0  0  1  0  0  0  0  0  0
    3.3888    1.1542    0.0017 C   0  0  0  0  0  0  0  0  0  0  0  0
    4.2636    1.8115   -0.0144 H   0  0  0  0  0  0  0  0  0  0  0  0
    2.1390    1.7723    0.0109 C   0  0  2  0  0  3  0  0  0  0  0  0
    5.1125   -2.2320   -0.0896 C   0  0  0  0  0  0  0  0  0  0  0  0
    4.2029   -2.8435   -0.1676 H   0  0  0  0  0  0  0  0  0  0  0  0
    7.3989   -0.6242    0.1177 C   0  0  0  0  0  0  0  0  0  0  0  0
    8.2937    0.0106    0.2032 H   0  0  0  0  0  0  0  0  0  0  0  0
    6.1285   -0.0338    0.1158 C   0  0  0  0  0  0  0  0  0  0  0  0
    6.0510    1.0584    0.2061 H   0  0  0  0  0  0  0  0  0  0  0  0
    3.5823   -0.2585    0.0056 C   0  0  0  0  0  0  0  0  0  0  0  0
    6.3821   -2.8198   -0.0900 C   0  0  0  0  0  0  0  0  0  0  0  0
    6.4781   -3.9132   -0.1715 H   0  0  0  0  0  0  0  0  0  0  0  0
    4.9655   -0.8295    0.0107 C   0  0  0  0  0  0  0  0  0  0  0  0
    3.2767    3.9002   -0.0407 F   0  0  0  0  0  0  0  0  0  0  0  0
    7.5312   -2.0181    0.0133 C   0  0  0  0  0  0  0  0  0  0  0  0
    8.5306   -2.4794    0.0139 H   0  0  0  0  0  0  0  0  0  0  0  0
    1.3569    3.7407   -1.0706 F   0  0  0  0  0  0  0  0  0  0  0  0
    2.0613    3.3095    0.0057 C   0  0  0  0  0  0  0  0  0  0  0  0
    1.4262    3.7569    1.1096 F   0  0  0  0  0  0  0  0  0  0  0  0
  1 12  1  0  0  0  0
  3 12  2  0  0  0  0
  3  5  1  0  0  0  0
  4  3  1  0  0  0  0
  5  2  1  1  0  0  0
  6 15  1  0  0  0  0
  7  6  1  0  0  0  0
  8  9  1  0  0  0  0
 10  8  1  0  0  0  0
 10 11  1  0  0  0  0
 12 15  1  0  0  0  0
 13  6  2  0  0  0  0
 13 17  1  0  0  0  0
 14 13  1  0  0  0  0
 15 10  2  0  0  0  0
 16 20  1  0  0  0  0
 17 18  1  0  0  0  0
 17  8  2  0  0  0  0
 19 20  1  0  0  0  0
 20  5  1  0  0  0  0
 20 21  1  0  0  0  0
M  CHG  1   1  -1
M  END
