1,2
q = -1.0, confidence = 0.038

 40 42  0  0  1  0  0  0  0  0999 V2000
    1.4150   -0.2814    0.0820 O   0  0  0  0  0  1  0  0  0  0  0  0
   -1.4355    0.0157   -0.4473 O   0  5  0  0  0  0  0  0  0  0  0  0
    2.3515    1.8613    0.0412 N   0  0  0  0  0  0  0  0  0  0  0  0
    1.9500    3.1715   -0.1284 N   0  0  0  0  0  0  0  0  0  0  0  0
    3.7106    1.5886    0.3360 C   0  0  0  0  0  0  0  0  0  0  0  0
    4.2358    0.2804    0.2592 C   0  0  0  0  0  0  0  0  0  0  0  0
    3.5836   -0.5481   -0.0384 H   0  0  0  0  0  0  0  0  0  0  0  0
    5.5884    0.0639    0.5576 C   0  0  0  0  0  0  0  0  0  0  0  0
    5.9917   -0.9584    0.4915 H   0  0  0  0  0  0  0  0  0  0  0  0
    6.4272    1.1264    0.9271 C   0  0  0  0  0  0  0  0  0  0  0  0
    7.4873    0.9446    1.1588 H   0  0  0  0  0  0  0  0  0  0  0  0
    5.8981    2.4257    0.9916 C   0  0  0  0  0  0  0  0  0  0  0  0
    6.5434    3.2716    1.2744 H   0  0  0  0  0  0  0  0  0  0  0  0
    4.5500    2.6631    0.6996 C   0  0  0  0  0  0  0  0  0  0  0  0
    4.1200    3.6719    0.7360 H   0  0  0  0  0  0  0  0  0  0  0  0
    1.2930    0.9794   -0.0879 C   0  0  2  0  0  3  0  0  0  0  0  0
    0.6505    3.1534   -0.3642 C   0  0  0  0  0  0  0  0  0  0  0  0
    0.1364    1.7956   -0.3583 C   0  0  0  0  0  0  0  0  0  0  0  0
   -0.0422    4.4562   -0.6184 C   0  0  0  0  0  0  0  0  0  0  0  0
    0.7049    5.2692   -0.5543 H   0  0  0  0  0  0  0  0  0  0  0  0
   -0.8437    4.6581    0.1213 H   0  0  0  0  0  0  0  0  0  0  0  0
   -0.5039    4.4863   -1.6269 H   0  0  0  0  0  0  0  0  0  0  0  0
   -1.1743    1.2659   -0.4688 C   0  0  0  0  0  0  0  0  0  0  0  0
   -2.3937    2.1707   -0.5357 C   0  0  0  0  0  0  0  0  0  0  0  0
   -2.0933    3.1096   -1.0427 H   0  0  0  0  0  0  0  0  0  0  0  0
   -2.8536    2.5414    0.8957 C   0  0  0  0  0  0  0  0  0  0  0  0
   -3.1004    1.6004    1.4357 H   0  0  0  0  0  0  0  0  0  0  0  0
   -2.0174    3.0119    1.4541 H   0  0  0  0  0  0  0  0  0  0  0  0
   -4.0792    3.4621    0.8691 C   0  0  0  0  0  0  0  0  0  0  0  0
   -4.4085    3.6843    1.9060 H   0  0  0  0  0  0  0  0  0  0  0  0
   -3.7895    4.4382    0.4181 H   0  0  0  0  0  0  0  0  0  0  0  0
   -5.2269    2.8505    0.0559 C   0  0  0  0  0  0  0  0  0  0  0  0
   -6.0886    3.5493    0.0166 H   0  0  0  0  0  0  0  0  0  0  0  0
   -5.5898    1.9339    0.5739 H   0  0  0  0  0  0  0  0  0  0  0  0
   -4.7696    2.4771   -1.3602 C   0  0  0  0  0  0  0  0  0  0  0  0
   -5.5995    2.0005   -1.9225 H   0  0  0  0  0  0  0  0  0  0  0  0
   -4.5115    3.4063   -1.9173 H   0  0  0  0  0  0  0  0  0  0  0  0
   -3.5518    1.5462   -1.3321 C   0  0  0  0  0  0  0  0  0  0  0  0
   -3.8246    0.5783   -0.8611 H   0  0  0  0  0  0  0  0  0  0  0  0
   -3.2101    1.3033   -2.3591 H   0  0  0  0  0  0  0  0  0  0  0  0
  3  5  1  0  0  0  0
  4  3  1  0  0  0  0
  5 14  1  0  0  0  0
  6  5  2  0  0  0  0
  6  8  1  0  0  0  0
  7  6  1  0  0  0  0
  8 10  2  0  0  0  0
  9  8  1  0  0  0  0
 10 12  1  0  0  0  0
 10 11  1  0  0  0  0
 12 13  1  0  0  0  0
 14 15  1  0  0  0  0
 14 12  2  0  0  0  0
 16  3  1  0  0  0  0
 16  1  1  1  0  0  0
 17 18  1  0  0  0  0
 17  4  2  0  0  0  0
 18 16  1  0  0  0  0
 19 20  1  0  0  0  0
 19 17  1  0  0  0  0
 19 21  1  0  0  0  0
 22 19  1  0  0  0  0
 23  2  1  0  0  0  0
 23 18  2  0  0  0  0
 24 23  1  0  0  0  0
 24 26  1  0  0  0  0
 25 24  1  0  0  0  0
 26 27  1  0  0  0  0
 26 28  1  0  0  0  0
 29 26  1  0  0  0  0
 29 30  1  0  0  0  0
 31 29  1  0  0  0  0
 32 34  1  0  0  0  0
 32 29  1  0  0  0  0
 33 32  1  0  0  0  0
 35 38  1  0  0  0  0
 35 32  1  0  0  0  0
 36 35  1  0  0  0  0
 37 35  1  0  0  0  0
 38 39  1  0  0  0  0
 38 24  1  0  0  0  0
 40 38  1  0  0  0  0
M  CHG  1   2  -1
M  END
