12,13
 OpenBabel05122313063D

 16 16  0  0  0  0  0  0  0  0999 V2000
   -3.6555   -0.5367   -0.1456 C   0  0  0  0  0  0  0  0  0  0  0  0
   -6.1455   -1.6458   -0.6958 C   0  0  0  0  0  0  0  0  0  0  0  0
   -2.3056    0.0620    0.1406 C   0  0  0  0  0  3  0  0  0  0  0  0
   -4.8014   -0.0673    0.5277 C   0  0  0  0  0  0  0  0  0  0  0  0
   -4.6795    0.7344    1.2701 H   0  0  0  0  0  0  0  0  0  0  0  0
   -3.7730   -1.5724   -1.0946 C   0  0  0  0  0  0  0  0  0  0  0  0
   -2.8599   -1.9182   -1.6002 H   0  0  0  0  0  0  0  0  0  0  0  0
   -6.0571   -0.6211    0.2568 C   0  0  0  0  0  0  0  0  0  0  0  0
   -6.9722   -0.2849    0.7620 H   0  0  0  0  0  0  0  0  0  0  0  0
   -5.0220   -2.1338   -1.3782 C   0  0  0  0  0  0  0  0  0  0  0  0
   -5.1546   -2.9392   -2.1126 H   0  0  0  0  0  0  0  0  0  0  0  0
   -2.2385    1.0707    0.9300 O   0  5  0  0  0  0  0  0  0  0  0  0
   -1.2769   -0.4310   -0.4062 O   0  5  0  0  0  0  0  0  0  0  0  0
   -7.5226   -3.1389   -1.8272 O   0  0  0  0  0  0  0  0  0  0  0  0
   -8.4456   -1.7819   -0.3838 O   0  0  0  0  0  0  0  0  0  0  0  0
   -7.4766   -2.2359   -0.9922 N   0  0  0  0  0  0  0  0  0  0  0  0
  1  3  1  0  0  0  0
  1  4  1  0  0  0  0
  2  8  1  0  0  0  0
  3 12  1  0  0  0  0
  4  5  1  0  0  0  0
  6  1  2  0  0  0  0
  7  6  1  0  0  0  0
  8  4  2  0  0  0  0
  8  9  1  0  0  0  0
 10  6  1  0  0  0  0
 10  2  2  0  0  0  0
 11 10  1  0  0  0  0
 13  3  1  0  0  0  0
 14 16  2  0  0  0  0
 16  2  1  0  0  0  0
 16 15  2  0  0  0  0
M  CHG  2  12  -1  13  -1
M  END
