6,9
 OpenBabel05122313063D

 39 40  0  0  0  0  0  0  0  0999 V2000
   -0.8228    0.0343   -0.8454 P   0  0  0  0  0  0  0  0  0  0  0  0
    1.0683    2.7594   -1.2631 S   0  0  0  0  0  0  0  0  0  0  0  0
   -0.0733   -3.1384   -0.0522 S   0  0  0  0  0  0  0  0  0  0  0  0
    0.0876   -3.0391   -1.5325 O   0  0  0  0  0  1  0  0  0  0  0  0
   -0.0464   -4.4752    0.5731 O   0  0  0  0  0  1  0  0  0  0  0  0
    0.9460   -2.2271    0.7170 O   0  0  0  0  0  1  0  0  0  0  0  0
    0.9600    2.2014   -2.6392 O   0  0  0  0  0  1  0  0  0  0  0  0
    1.6826    4.0931   -1.1089 O   0  0  0  0  0  1  0  0  0  0  0  0
    1.7918    1.7808   -0.2723 O   0  0  0  0  0  1  0  0  0  0  0  0
   -1.4244    1.7236   -0.3340 C   0  0  0  0  0  0  0  0  0  0  0  0
   -2.5993    1.9289    0.4207 C   0  0  0  0  0  0  0  0  0  0  0  0
   -3.0123    3.2012    0.8618 C   0  0  0  0  0  0  0  0  0  0  0  0
   -2.2041    4.3102    0.5469 C   0  0  0  0  0  0  0  0  0  0  0  0
   -1.0016    4.1330   -0.1429 C   0  0  0  0  0  0  0  0  0  0  0  0
   -0.6049    2.8562   -0.5712 C   0  0  0  0  0  0  0  0  0  0  0  0
   -4.2899    3.3683    1.6437 C   0  0  0  0  0  0  0  0  0  0  0  0
   -2.1040   -1.1791   -0.2881 C   0  0  0  0  0  0  0  0  0  0  0  0
   -3.4811   -0.9136   -0.4430 C   0  0  0  0  0  0  0  0  0  0  0  0
   -4.4750   -1.8132   -0.0105 C   0  0  0  0  0  0  0  0  0  0  0  0
   -4.0615   -3.0224    0.5842 C   0  0  0  0  0  0  0  0  0  0  0  0
   -2.7046   -3.3517    0.6631 C   0  0  0  0  0  0  0  0  0  0  0  0
   -1.7312   -2.4478    0.2104 C   0  0  0  0  0  0  0  0  0  0  0  0
   -5.9383   -1.4930   -0.1774 C   0  0  0  0  0  0  0  0  0  0  0  0
   -1.0851   -0.0366   -2.6626 C   0  0  0  0  0  0  0  0  0  0  0  0
   -3.2147    1.0673    0.7091 H   0  0  0  0  0  0  0  0  0  0  0  0
   -2.5030    5.3189    0.8726 H   0  0  0  0  0  0  0  0  0  0  0  0
   -0.3222    4.9740   -0.3433 H   0  0  0  0  0  0  0  0  0  0  0  0
   -4.1313    3.9866    2.5504 H   0  0  0  0  0  0  0  0  0  0  0  0
   -4.7084    2.3933    1.9598 H   0  0  0  0  0  0  0  0  0  0  0  0
   -5.0626    3.8846    1.0353 H   0  0  0  0  0  0  0  0  0  0  0  0
   -3.8032    0.0186   -0.9299 H   0  0  0  0  0  0  0  0  0  0  0  0
   -4.8163   -3.7379    0.9470 H   0  0  0  0  0  0  0  0  0  0  0  0
   -2.3670   -4.3284    1.0395 H   0  0  0  0  0  0  0  0  0  0  0  0
   -6.4654   -2.2987   -0.7283 H   0  0  0  0  0  0  0  0  0  0  0  0
   -6.0914   -0.5454   -0.7287 H   0  0  0  0  0  0  0  0  0  0  0  0
   -6.4412   -1.3976    0.8079 H   0  0  0  0  0  0  0  0  0  0  0  0
   -2.1429    0.2070   -2.8791 H   0  0  0  0  0  0  0  0  0  0  0  0
   -0.8660   -1.0768   -2.9697 H   0  0  0  0  0  0  0  0  0  0  0  0
   -0.4087    0.6890   -3.1490 H   0  0  0  0  0  0  0  0  0  0  0  0
  1 10  1  0  0  0  0
  1 17  1  0  0  0  0
  2  8  1  0  0  0  0
  2 15  1  0  0  0  0
  2  9  1  0  0  0  0
  3 22  1  0  0  0  0
  3  5  1  0  0  0  0
  3  6  1  0  0  0  0
  4  3  1  0  0  0  0
  7  2  1  0  0  0  0
 10 11  1  0  0  0  0
 11 25  1  0  0  0  0
 11 12  2  0  0  0  0
 12 16  1  0  0  0  0
 13 12  1  0  0  0  0
 13 26  1  0  0  0  0
 14 13  2  0  0  0  0
 15 10  2  0  0  0  0
 15 14  1  0  0  0  0
 16 29  1  0  0  0  0
 16 28  1  0  0  0  0
 17 22  1  0  0  0  0
 18 17  2  0  0  0  0
 18 19  1  0  0  0  0
 19 20  2  0  0  0  0
 20 21  1  0  0  0  0
 20 32  1  0  0  0  0
 21 33  1  0  0  0  0
 22 21  2  0  0  0  0
 23 19  1  0  0  0  0
 23 36  1  0  0  0  0
 24  1  1  0  0  0  0
 27 14  1  0  0  0  0
 30 16  1  0  0  0  0
 31 18  1  0  0  0  0
 34 23  1  0  0  0  0
 35 23  1  0  0  0  0
 37 24  1  0  0  0  0
 38 24  1  0  0  0  0
 39 24  1  0  0  0  0
M  END
