4,5
 OpenBabel05122313063D

 18 18  0  0  1  0  0  0  0  0999 V2000
   -2.5718   -3.4423    0.2825 F   0  0  0  0  0  0  0  0  0  0  0  0
   -1.4905   -4.6611   -1.1740 F   0  0  0  0  0  0  0  0  0  0  0  0
   -3.1684   -3.4235   -1.8174 F   0  0  0  0  0  0  0  0  0  0  0  0
   -1.7900   -1.1398   -1.1206 O   0  5  0  0  0  0  0  0  0  0  0  0
    0.9251   -0.1970   -1.5986 O   0  0  0  0  0  1  0  0  0  0  0  0
    2.9238   -3.1627   -1.7140 O   0  0  0  0  0  0  0  0  0  0  0  0
    4.2782   -3.2254   -1.7238 C   0  0  0  0  0  0  0  0  0  0  0  0
    4.7109   -4.2311   -1.7404 H   0  0  0  0  0  0  0  0  0  0  0  0
    4.8245   -1.9577   -1.7112 C   0  0  0  0  0  0  0  0  0  0  0  0
    5.8915   -1.7098   -1.7108 H   0  0  0  0  0  0  0  0  0  0  0  0
    3.7192   -1.0546   -1.6886 C   0  0  0  0  0  0  0  0  0  0  0  0
    3.7304    0.0390   -1.6512 H   0  0  0  0  0  0  0  0  0  0  0  0
    2.5744   -1.8353   -1.6895 C   0  0  0  0  0  0  0  0  0  0  0  0
    1.1591   -1.4516   -1.5953 C   0  0  1  0  0  3  0  0  0  0  0  0
    0.1859   -2.4886   -1.4575 C   0  0  0  0  0  0  0  0  0  0  0  0
    0.5391   -3.5260   -1.4730 H   0  0  0  0  0  0  0  0  0  0  0  0
   -1.1749   -2.2507   -1.2258 C   0  0  0  0  0  0  0  0  0  0  0  0
   -2.0976   -3.4660   -0.9948 C   0  0  0  0  0  0  0  0  0  0  0  0
  2 18  1  0  0  0  0
  3 18  1  0  0  0  0
  6 13  1  0  0  0  0
  7  6  1  0  0  0  0
  7  9  2  0  0  0  0
  8  7  1  0  0  0  0
  9 10  1  0  0  0  0
  9 11  1  0  0  0  0
 11 12  1  0  0  0  0
 13 11  2  0  0  0  0
 13 14  1  0  0  0  0
 14  5  1  1  0  0  0
 14 15  1  0  0  0  0
 15 17  2  0  0  0  0
 16 15  1  0  0  0  0
 17  4  1  0  0  0  0
 17 18  1  0  0  0  0
 18  1  1  0  0  0  0
M  CHG  1   4  -1
M  END
