1,9
 OpenBabel05122313063D

 15 14  0  0  0  0  0  0  0  0999 V2000
   -0.5553    0.0638    1.6828 O   0  0  0  0  0  1  0  0  0  0  0  0
    0.6107   -1.5844    0.0000 O   0  0  0  0  0  0  0  0  0  0  0  0
    0.1647   -1.0206    2.2275 C   0  0  0  0  0  0  0  0  0  0  0  0
    0.1647   -2.1672    1.2217 C   0  0  0  0  0  0  0  0  0  0  0  0
   -0.3127   -1.3434    3.1785 H   0  0  0  0  0  0  0  0  0  0  0  0
    1.2130   -0.7142    2.4511 H   0  0  0  0  0  0  0  0  0  0  0  0
   -0.8676   -2.5672    1.0918 H   0  0  0  0  0  0  0  0  0  0  0  0
    0.8346   -2.9970    1.5407 H   0  0  0  0  0  0  0  0  0  0  0  0
   -0.5553    0.0638   -1.6828 O   0  0  0  0  0  1  0  0  0  0  0  0
    0.1647   -2.1672   -1.2217 C   0  0  0  0  0  0  0  0  0  0  0  0
    0.1647   -1.0206   -2.2275 C   0  0  0  0  0  0  0  0  0  0  0  0
   -0.8676   -2.5672   -1.0918 H   0  0  0  0  0  0  0  0  0  0  0  0
    0.8346   -2.9970   -1.5407 H   0  0  0  0  0  0  0  0  0  0  0  0
   -0.3127   -1.3434   -3.1785 H   0  0  0  0  0  0  0  0  0  0  0  0
    1.2130   -0.7142   -2.4511 H   0  0  0  0  0  0  0  0  0  0  0  0
  1  3  1  0  0  0  0
  2  4  1  0  0  0  0
  3  6  1  0  0  0  0
  3  5  1  0  0  0  0
  4  8  1  0  0  0  0
  4  3  1  0  0  0  0
  7  4  1  0  0  0  0
 10 12  1  0  0  0  0
 10  2  1  0  0  0  0
 11  9  1  0  0  0  0
 11 10  1  0  0  0  0
 13 10  1  0  0  0  0
 14 11  1  0  0  0  0
 15 11  1  0  0  0  0
M  END
