2,8
 OpenBabel05122313063D

 13 12  0  0  1  0  0  0  0  0999 V2000
    2.6794    0.0000    0.0007 O   0  0  0  0  0  0  0  0  0  0  0  0
    0.8351   -1.3823    0.0019 O   0  0  0  0  0  1  0  0  0  0  0  0
    3.0428   -2.3370    0.0000 C   0  0  0  0  0  0  0  0  0  0  0  0
    2.0389   -1.2303    0.0011 C   0  0  1  0  0  3  0  0  0  0  0  0
    3.6913   -2.2515   -0.8949 H   0  0  0  0  0  0  0  0  0  0  0  0
    3.6987   -2.2475    0.8892 H   0  0  0  0  0  0  0  0  0  0  0  0
    2.5197   -3.3079    0.0039 H   0  0  0  0  0  0  0  0  0  0  0  0
    0.8351    1.3823    0.0019 O   0  0  0  0  0  1  0  0  0  0  0  0
    2.0389    1.2303    0.0011 C   0  0  2  0  0  3  0  0  0  0  0  0
    3.0428    2.3370    0.0000 C   0  0  0  0  0  0  0  0  0  0  0  0
    3.6913    2.2515   -0.8949 H   0  0  0  0  0  0  0  0  0  0  0  0
    3.6987    2.2475    0.8892 H   0  0  0  0  0  0  0  0  0  0  0  0
    2.5197    3.3079    0.0039 H   0  0  0  0  0  0  0  0  0  0  0  0
  1  9  1  0  0  0  0
  1  4  1  0  0  0  0
  3  4  1  0  0  0  0
  3  7  1  0  0  0  0
  3  6  1  0  0  0  0
  4  2  1  6  0  0  0
  5  3  1  0  0  0  0
  9  8  1  6  0  0  0
 10  9  1  0  0  0  0
 10 13  1  0  0  0  0
 10 12  1  0  0  0  0
 11 10  1  0  0  0  0
M  END
