1,2
 OpenBabel05122313063D

 14 13  0  0  1  0  0  0  0  0999 V2000
   -0.1551    1.3778   -0.0250 O   0  0  0  0  0  0  0  0  0  0  0  0
    0.3234   -1.4629   -0.1316 O   0  0  0  0  0  0  0  0  0  0  0  0
    1.1124    1.3996    0.0065 C   0  0  2  0  0  0  0  0  0  0  0  0
    1.9673    0.2731   -0.0132 C   0  0  0  0  0  0  0  0  0  0  0  0
    1.5280   -1.0697   -0.0716 C   0  0  0  0  0  0  0  0  0  0  0  0
    1.7681    2.8020    0.0760 C   0  0  0  0  0  0  0  0  0  0  0  0
    2.6064   -2.1825   -0.0616 C   0  0  0  0  0  0  0  0  0  0  0  0
    2.5127    2.9299    1.1944 F   0  0  0  0  0  0  0  0  0  0  0  0
    2.5669    3.0128   -0.9911 F   0  0  0  0  0  0  0  0  0  0  0  0
    0.8241    3.7559    0.0889 F   0  0  0  0  0  0  0  0  0  0  0  0
    2.0252   -3.3922   -0.0942 F   0  0  0  0  0  0  0  0  0  0  0  0
    3.3639   -2.1090    1.0530 F   0  0  0  0  0  0  0  0  0  0  0  0
    3.4189   -2.0753   -1.1339 F   0  0  0  0  0  0  0  0  0  0  0  0
    3.3040    0.4965    0.0328 F   0  0  0  0  0  0  0  0  0  0  0  0
  2  5  1  0  0  0  0
  3  1  1  1  0  0  0
  3  6  1  0  0  0  0
  4  3  1  0  0  0  0
  4 14  1  0  0  0  0
  5  7  1  0  0  0  0
  5  4  2  0  0  0  0
  6 10  1  0  0  0  0
  6  8  1  0  0  0  0
  7 12  1  0  0  0  0
  9  6  1  0  0  0  0
 11  7  1  0  0  0  0
 13  7  1  0  0  0  0
M  END
