2,3
 OpenBabel05122313063D

 14 14  0  0  0  0  0  0  0  0999 V2000
    4.2816    6.2594    1.2142 F   0  0  0  0  0  0  0  0  0  0  0  0
    0.9937    0.8297    0.8204 O   0  5  0  0  0  0  0  0  0  0  0  0
    0.9293    1.4846   -1.3094 O   0  5  0  0  0  0  0  0  0  0  0  0
    1.2814    1.6687   -0.0898 C   0  0  0  0  0  3  0  0  0  0  0  0
    2.0741    2.8931    0.2549 C   0  0  0  0  0  0  0  0  0  0  0  0
    2.5130    3.1017    1.5775 C   0  0  0  0  0  0  0  0  0  0  0  0
    2.2492    2.3494    2.3350 H   0  0  0  0  0  0  0  0  0  0  0  0
    3.2607    4.2376    1.9098 C   0  0  0  0  0  0  0  0  0  0  0  0
    3.6143    4.4240    2.9342 H   0  0  0  0  0  0  0  0  0  0  0  0
    3.5620    5.1640    0.9020 C   0  0  0  0  0  0  0  0  0  0  0  0
    3.1354    4.9838   -0.4209 C   0  0  0  0  0  0  0  0  0  0  0  0
    3.3919    5.7406   -1.1763 H   0  0  0  0  0  0  0  0  0  0  0  0
    2.3891    3.8423   -0.7379 C   0  0  0  0  0  0  0  0  0  0  0  0
    2.0300    3.6622   -1.7615 H   0  0  0  0  0  0  0  0  0  0  0  0
  3  4  1  0  0  0  0
  4  5  1  0  0  0  0
  4  2  1  0  0  0  0
  5  6  1  0  0  0  0
  6  8  2  0  0  0  0
  6  7  1  0  0  0  0
  8  9  1  0  0  0  0
 10  1  1  0  0  0  0
 10  8  1  0  0  0  0
 11 10  2  0  0  0  0
 12 11  1  0  0  0  0
 13 11  1  0  0  0  0
 13  5  2  0  0  0  0
 14 13  1  0  0  0  0
M  CHG  2   2  -1   3  -1
M  END
