2,3
 OpenBabel05122313063D

 53 54  0  0  0  0  0  0  0  0999 V2000
    1.8568   -0.4282   -1.8179 S   0  0  0  0  0  0  0  0  0  0  0  0
    0.1643   -1.4561    0.3456 O   0  5  0  0  0  0  0  0  0  0  0  0
    0.5357    1.3852    0.1074 O   0  5  0  0  0  0  0  0  0  0  0  0
    1.7500    1.8239   -0.2381 C   0  0  0  0  0  0  0  0  0  0  0  0
    2.5863    1.0315   -1.0710 C   0  0  0  0  0  0  0  0  0  0  0  0
    3.8798    1.4304   -1.4267 C   0  0  0  0  0  0  0  0  0  0  0  0
    4.3892    2.6468   -0.9457 C   0  0  0  0  0  0  0  0  0  0  0  0
    3.5380    3.4544   -0.1604 C   0  0  0  0  0  0  0  0  0  0  0  0
    2.2270    3.1023    0.2022 C   0  0  0  0  0  0  0  0  0  0  0  0
    5.7949    3.0908   -1.2606 C   0  0  0  0  0  0  0  0  0  0  0  0
    1.3288    4.0579    1.0091 C   0  0  0  0  0  0  0  0  0  0  0  0
    2.0149    5.4129    1.2623 C   0  0  0  0  0  0  0  0  0  0  0  0
    0.0194    4.3302    0.2297 C   0  0  0  0  0  0  0  0  0  0  0  0
    1.0054    3.4217    2.3787 C   0  0  0  0  0  0  0  0  0  0  0  0
    1.2504   -2.2187    0.1739 C   0  0  0  0  0  0  0  0  0  0  0  0
    2.2529   -1.8132   -0.7463 C   0  0  0  0  0  0  0  0  0  0  0  0
    3.4333   -2.5425   -0.9259 C   0  0  0  0  0  0  0  0  0  0  0  0
    3.6524   -3.7064   -0.1713 C   0  0  0  0  0  0  0  0  0  0  0  0
    2.6246   -4.1359    0.6965 C   0  0  0  0  0  0  0  0  0  0  0  0
    1.4128   -3.4496    0.8858 C   0  0  0  0  0  0  0  0  0  0  0  0
    4.9377   -4.4855   -0.2855 C   0  0  0  0  0  0  0  0  0  0  0  0
    0.2818   -4.0235    1.7590 C   0  0  0  0  0  0  0  0  0  0  0  0
   -0.9686   -4.2485    0.8740 C   0  0  0  0  0  0  0  0  0  0  0  0
   -0.0603   -3.0497    2.9080 C   0  0  0  0  0  0  0  0  0  0  0  0
    0.6729   -5.3753    2.3839 C   0  0  0  0  0  0  0  0  0  0  0  0
    4.4852    0.7897   -2.0860 H   0  0  0  0  0  0  0  0  0  0  0  0
    3.9309    4.4252    0.1717 H   0  0  0  0  0  0  0  0  0  0  0  0
    6.2508    2.4713   -2.0570 H   0  0  0  0  0  0  0  0  0  0  0  0
    5.8216    4.1491   -1.5918 H   0  0  0  0  0  0  0  0  0  0  0  0
    6.4498    3.0182   -0.3658 H   0  0  0  0  0  0  0  0  0  0  0  0
    2.2699    5.9344    0.3175 H   0  0  0  0  0  0  0  0  0  0  0  0
    1.3243    6.0689    1.8291 H   0  0  0  0  0  0  0  0  0  0  0  0
    2.9398    5.3098    1.8655 H   0  0  0  0  0  0  0  0  0  0  0  0
   -0.5587    3.4035    0.0637 H   0  0  0  0  0  0  0  0  0  0  0  0
   -0.6143    5.0402    0.8003 H   0  0  0  0  0  0  0  0  0  0  0  0
    0.2357    4.7802   -0.7601 H   0  0  0  0  0  0  0  0  0  0  0  0
    1.9326    3.2449    2.9615 H   0  0  0  0  0  0  0  0  0  0  0  0
    0.3500    4.0945    2.9698 H   0  0  0  0  0  0  0  0  0  0  0  0
    0.4807    2.4595    2.2551 H   0  0  0  0  0  0  0  0  0  0  0  0
    4.1795   -2.1998   -1.6589 H   0  0  0  0  0  0  0  0  0  0  0  0
    2.7851   -5.0769    1.2404 H   0  0  0  0  0  0  0  0  0  0  0  0
    5.5905   -4.3150    0.5977 H   0  0  0  0  0  0  0  0  0  0  0  0
    4.7481   -5.5769   -0.3383 H   0  0  0  0  0  0  0  0  0  0  0  0
    5.5145   -4.1934   -1.1844 H   0  0  0  0  0  0  0  0  0  0  0  0
   -0.7507   -4.9707    0.0617 H   0  0  0  0  0  0  0  0  0  0  0  0
   -1.7958   -4.6604    1.4884 H   0  0  0  0  0  0  0  0  0  0  0  0
   -1.3162   -3.3085    0.4066 H   0  0  0  0  0  0  0  0  0  0  0  0
   -0.4475   -2.0937    2.5175 H   0  0  0  0  0  0  0  0  0  0  0  0
   -0.8392   -3.4934    3.5617 H   0  0  0  0  0  0  0  0  0  0  0  0
    0.8321   -2.8398    3.5328 H   0  0  0  0  0  0  0  0  0  0  0  0
    1.5481   -5.2861    3.0593 H   0  0  0  0  0  0  0  0  0  0  0  0
   -0.1748   -5.7554    2.9882 H   0  0  0  0  0  0  0  0  0  0  0  0
    0.9012   -6.1409    1.6152 H   0  0  0  0  0  0  0  0  0  0  0  0
  1  5  1  0  0  0  0
  1 16  1  0  0  0  0
  4  3  1  0  0  0  0
  4  9  1  0  0  0  0
  5  4  2  0  0  0  0
  6  5  1  0  0  0  0
  6  7  2  0  0  0  0
  7  8  1  0  0  0  0
  8 27  1  0  0  0  0
  8  9  2  0  0  0  0
  9 11  1  0  0  0  0
 10  7  1  0  0  0  0
 10 30  1  0  0  0  0
 11 12  1  0  0  0  0
 11 14  1  0  0  0  0
 12 32  1  0  0  0  0
 12 33  1  0  0  0  0
 13 35  1  0  0  0  0
 13 11  1  0  0  0  0
 14 37  1  0  0  0  0
 14 38  1  0  0  0  0
 15  2  1  0  0  0  0
 15 20  1  0  0  0  0
 16 15  2  0  0  0  0
 17 16  1  0  0  0  0
 17 18  2  0  0  0  0
 18 19  1  0  0  0  0
 19 20  2  0  0  0  0
 19 41  1  0  0  0  0
 20 22  1  0  0  0  0
 21 18  1  0  0  0  0
 21 42  1  0  0  0  0
 22 25  1  0  0  0  0
 22 24  1  0  0  0  0
 23 46  1  0  0  0  0
 23 22  1  0  0  0  0
 24 50  1  0  0  0  0
 24 49  1  0  0  0  0
 25 52  1  0  0  0  0
 25 51  1  0  0  0  0
 26  6  1  0  0  0  0
 28 10  1  0  0  0  0
 29 10  1  0  0  0  0
 31 12  1  0  0  0  0
 34 13  1  0  0  0  0
 36 13  1  0  0  0  0
 39 14  1  0  0  0  0
 40 17  1  0  0  0  0
 43 21  1  0  0  0  0
 44 21  1  0  0  0  0
 45 23  1  0  0  0  0
 47 23  1  0  0  0  0
 48 24  1  0  0  0  0
 53 25  1  0  0  0  0
M  CHG  2   2  -1   3  -1
M  END
