1,2
 OpenBabel05122313063D

 17 16  0  0  0  0  0  0  0  0999 V2000
    0.7927   -1.1900   -1.0253 O   0  5  0  0  0  0  0  0  0  0  0  0
    0.6359    1.6706   -0.5014 O   0  5  0  0  0  0  0  0  0  0  0  0
    2.6450    2.5114   -0.1197 O   0  0  0  0  0  0  0  0  0  0  0  0
    2.8403   -1.9831   -0.8481 O   0  0  0  0  0  0  0  0  0  0  0  0
    0.8068   -0.5964    2.0777 O   0  0  0  0  0  0  0  0  0  0  0  0
    0.1871   -0.1134    1.4716 H   0  0  0  0  0  0  0  0  0  0  0  0
    4.6801   -0.9122    0.7162 O   0  0  0  0  0  0  0  0  0  0  0  0
    4.3085   -1.6348    0.1524 H   0  0  0  0  0  0  0  0  0  0  0  0
    2.0375   -1.0848   -0.5846 C   0  0  0  0  0  0  0  0  0  0  0  0
    2.4663    0.1341    0.2763 C   0  0  0  0  0  0  0  0  0  0  0  0
    2.1083   -0.1222    1.7826 C   0  0  0  0  0  0  0  0  0  0  0  0
    2.8309   -0.8861    2.1348 H   0  0  0  0  0  0  0  0  0  0  0  0
    2.3329    0.8302    2.3222 H   0  0  0  0  0  0  0  0  0  0  0  0
    4.0313    0.2314    0.2238 C   0  0  0  0  0  0  0  0  0  0  0  0
    4.3133    0.4689   -0.8299 H   0  0  0  0  0  0  0  0  0  0  0  0
    4.3365    1.1022    0.8350 H   0  0  0  0  0  0  0  0  0  0  0  0
    1.9200    1.5279   -0.1555 C   0  0  0  0  0  0  0  0  0  0  0  0
  1  9  1  0  0  0  0
  2 17  1  0  0  0  0
  4  9  2  0  0  0  0
  6  5  1  0  0  0  0
  8  7  1  0  0  0  0
  9 10  1  0  0  0  0
 10 11  1  0  0  0  0
 11  5  1  0  0  0  0
 11 12  1  0  0  0  0
 11 13  1  0  0  0  0
 14 10  1  0  0  0  0
 14  7  1  0  0  0  0
 14 16  1  0  0  0  0
 15 14  1  0  0  0  0
 17  3  2  0  0  0  0
 17 10  1  0  0  0  0
M  CHG  2   1  -1   2  -1
M  END
