1,2
 OpenBabel05122313063D

  9  8  0  0  0  0  0  0  0  0999 V2000
   -1.9646   -1.4151    0.3871 O   0  5  0  0  0  0  0  0  0  0  0  0
   -1.9646    1.4150    0.3868 O   0  5  0  0  0  0  0  0  0  0  0  0
   -3.9450   -2.2194    1.0401 O   0  0  0  0  0  0  0  0  0  0  0  0
   -3.9451    2.2198    1.0387 O   0  0  0  0  0  0  0  0  0  0  0  0
   -3.3000   -1.3032    0.5751 C   0  0  0  0  0  0  0  0  0  0  0  0
   -3.9392   -0.0001    0.0961 C   0  0  0  0  0  0  0  0  0  0  0  0
   -3.8778   -0.0003   -1.0158 H   0  0  0  0  0  0  0  0  0  0  0  0
   -5.0043   -0.0000    0.3835 H   0  0  0  0  0  0  0  0  0  0  0  0
   -3.3001    1.3033    0.5745 C   0  0  0  0  0  0  0  0  0  0  0  0
  1  5  1  0  0  0  0
  2  9  1  0  0  0  0
  5  3  2  0  0  0  0
  6  8  1  0  0  0  0
  6  9  1  0  0  0  0
  6  5  1  0  0  0  0
  7  6  1  0  0  0  0
  9  4  2  0  0  0  0
M  CHG  2   1  -1   2  -1
M  END
