1,3
 OpenBabel05122313063D

 61 64  0  0  0  0  0  0  0  0999 V2000
    0.6201   -0.8199    0.3080 O   0  5  0  0  0  0  0  0  0  0  0  0
    2.2765    1.5232    0.4035 O   0  0  0  0  0  0  0  0  0  0  0  0
   -0.2696    1.5186   -1.0673 O   0  5  0  0  0  0  0  0  0  0  0  0
   -4.2550    1.8451    0.0976 O   0  0  0  0  0  0  0  0  0  0  0  0
   -1.8113   -0.4790    1.0291 O   0  0  0  0  0  0  0  0  0  0  0  0
   -0.8964   -0.7949    0.7231 H   0  0  0  0  0  0  0  0  0  0  0  0
   -0.7074   -3.2972    0.8721 O   0  0  0  0  0  0  0  0  0  0  0  0
    2.3343   -0.4189    1.9192 C   0  0  0  0  0  0  0  0  0  0  0  0
    2.0959    1.0502    1.7687 C   0  0  0  0  0  0  0  0  0  0  0  0
    1.0507    1.2929    2.0654 H   0  0  0  0  0  0  0  0  0  0  0  0
    2.7881    1.6338    2.4154 H   0  0  0  0  0  0  0  0  0  0  0  0
    1.8720    2.9222    0.2709 C   0  0  0  0  0  0  0  0  0  0  0  0
    2.1318    3.1670   -0.7784 H   0  0  0  0  0  0  0  0  0  0  0  0
    2.5174    3.5284    0.9451 H   0  0  0  0  0  0  0  0  0  0  0  0
    0.4237    3.1530    0.5752 C   0  0  0  0  0  0  0  0  0  0  0  0
    0.0425    4.0930    1.5520 C   0  0  0  0  0  0  0  0  0  0  0  0
    0.8363    4.6300    2.1020 H   0  0  0  0  0  0  0  0  0  0  0  0
   -1.3025    4.3682    1.8397 C   0  0  0  0  0  0  0  0  0  0  0  0
   -2.2747    3.6523    1.1055 C   0  0  0  0  0  0  0  0  0  0  0  0
   -3.3476    3.8221    1.2984 H   0  0  0  0  0  0  0  0  0  0  0  0
   -1.9425    2.6984    0.1403 C   0  0  0  0  0  0  0  0  0  0  0  0
   -3.0286    1.9621   -0.6179 C   0  0  0  0  0  0  0  0  0  0  0  0
   -3.2856    2.5199   -1.5460 H   0  0  0  0  0  0  0  0  0  0  0  0
   -2.6370    0.9750   -0.9452 H   0  0  0  0  0  0  0  0  0  0  0  0
   -4.2217    0.8911    1.1681 C   0  0  0  0  0  0  0  0  0  0  0  0
   -5.1767    1.0469    1.7112 H   0  0  0  0  0  0  0  0  0  0  0  0
   -3.3794    1.1101    1.8599 H   0  0  0  0  0  0  0  0  0  0  0  0
   -4.1349   -0.5405    0.6856 C   0  0  0  0  0  0  0  0  0  0  0  0
   -5.2849   -1.2149    0.2506 C   0  0  0  0  0  0  0  0  0  0  0  0
   -6.2572   -0.7005    0.3434 H   0  0  0  0  0  0  0  0  0  0  0  0
   -5.2340   -2.5041   -0.3099 C   0  0  0  0  0  0  0  0  0  0  0  0
   -3.9622   -3.0898   -0.4492 C   0  0  0  0  0  0  0  0  0  0  0  0
   -3.8774   -4.0905   -0.9073 H   0  0  0  0  0  0  0  0  0  0  0  0
   -2.7777   -2.4525   -0.0436 C   0  0  0  0  0  0  0  0  0  0  0  0
   -1.4461   -3.0957   -0.3269 C   0  0  0  0  0  0  0  0  0  0  0  0
   -1.6168   -4.0638   -0.8614 H   0  0  0  0  0  0  0  0  0  0  0  0
   -0.8552   -2.4464   -1.0171 H   0  0  0  0  0  0  0  0  0  0  0  0
    0.6657   -3.6053    0.6558 C   0  0  0  0  0  0  0  0  0  0  0  0
    0.9153   -3.4793   -0.4247 H   0  0  0  0  0  0  0  0  0  0  0  0
    0.8646   -4.6719    0.9191 H   0  0  0  0  0  0  0  0  0  0  0  0
    1.5637   -2.6991    1.4560 C   0  0  0  0  0  0  0  0  0  0  0  0
    2.4988   -3.1763    2.3834 C   0  0  0  0  0  0  0  0  0  0  0  0
    2.5535   -4.2644    2.5628 H   0  0  0  0  0  0  0  0  0  0  0  0
    3.3802   -2.3172    3.0749 C   0  0  0  0  0  0  0  0  0  0  0  0
    3.2762   -0.9367    2.8249 C   0  0  0  0  0  0  0  0  0  0  0  0
    3.9365   -0.2367    3.3654 H   0  0  0  0  0  0  0  0  0  0  0  0
    1.4817   -1.3025    1.2074 C   0  0  0  0  0  0  0  0  0  0  0  0
   -0.5661    2.4124   -0.1501 C   0  0  0  0  0  0  0  0  0  0  0  0
   -2.8604   -1.1652    0.5644 C   0  0  0  0  0  0  0  0  0  0  0  0
    4.4030   -2.8702    4.0381 C   0  0  0  0  0  0  0  0  0  0  0  0
    3.9425   -3.5585    4.7783 H   0  0  0  0  0  0  0  0  0  0  0  0
    4.9087   -2.0608    4.6017 H   0  0  0  0  0  0  0  0  0  0  0  0
    5.1931   -3.4495    3.5120 H   0  0  0  0  0  0  0  0  0  0  0  0
   -1.7058    5.3742    2.8903 C   0  0  0  0  0  0  0  0  0  0  0  0
   -0.8199    5.8500    3.3577 H   0  0  0  0  0  0  0  0  0  0  0  0
   -2.3008    4.9067    3.7053 H   0  0  0  0  0  0  0  0  0  0  0  0
   -2.3359    6.1873    2.4677 H   0  0  0  0  0  0  0  0  0  0  0  0
   -6.4880   -3.2362   -0.7230 C   0  0  0  0  0  0  0  0  0  0  0  0
   -6.2881   -3.9609   -1.5386 H   0  0  0  0  0  0  0  0  0  0  0  0
   -7.2712   -2.5352   -1.0782 H   0  0  0  0  0  0  0  0  0  0  0  0
   -6.9308   -3.8130    0.1202 H   0  0  0  0  0  0  0  0  0  0  0  0
  1 47  1  0  0  0  0
  2  9  1  0  0  0  0
  3 48  1  0  0  0  0
  4 25  1  0  0  0  0
  6  5  1  0  0  0  0
  8 45  1  0  0  0  0
  9  8  1  0  0  0  0
  9 10  1  0  0  0  0
  9 11  1  0  0  0  0
 12  2  1  0  0  0  0
 12 15  1  0  0  0  0
 12 14  1  0  0  0  0
 13 12  1  0  0  0  0
 15 16  1  0  0  0  0
 16 18  2  0  0  0  0
 16 17  1  0  0  0  0
 18 54  1  0  0  0  0
 19 20  1  0  0  0  0
 19 18  1  0  0  0  0
 21 19  2  0  0  0  0
 22  4  1  0  0  0  0
 22 21  1  0  0  0  0
 23 22  1  0  0  0  0
 24 22  1  0  0  0  0
 25 26  1  0  0  0  0
 25 27  1  0  0  0  0
 28 25  1  0  0  0  0
 29 30  1  0  0  0  0
 29 28  2  0  0  0  0
 31 29  1  0  0  0  0
 32 31  2  0  0  0  0
 32 34  1  0  0  0  0
 33 32  1  0  0  0  0
 34 49  2  0  0  0  0
 35 34  1  0  0  0  0
 35  7  1  0  0  0  0
 36 35  1  0  0  0  0
 37 35  1  0  0  0  0
 38  7  1  0  0  0  0
 38 40  1  0  0  0  0
 38 41  1  0  0  0  0
 39 38  1  0  0  0  0
 41 42  2  0  0  0  0
 42 43  1  0  0  0  0
 42 44  1  0  0  0  0
 44 50  1  0  0  0  0
 45 44  2  0  0  0  0
 45 46  1  0  0  0  0
 47 41  1  0  0  0  0
 47  8  2  0  0  0  0
 48 21  1  0  0  0  0
 48 15  2  0  0  0  0
 49 28  1  0  0  0  0
 49  5  1  0  0  0  0
 50 52  1  0  0  0  0
 50 51  1  0  0  0  0
 53 50  1  0  0  0  0
 54 55  1  0  0  0  0
 54 56  1  0  0  0  0
 57 54  1  0  0  0  0
 58 31  1  0  0  0  0
 58 61  1  0  0  0  0
 59 58  1  0  0  0  0
 60 58  1  0  0  0  0
M  CHG  2   1  -1   3  -1
M  END
