1,2
 OpenBabel05122313063D

 21 22  0  0  1  0  0  0  0  0999 V2000
   -1.8212    1.1117   -0.2445 O   0  5  0  0  0  0  0  0  0  0  0  0
   -1.3379   -1.5231   -0.1108 O   0  5  0  0  0  0  0  0  0  0  0  0
   -6.0162   -2.2685    0.1497 O   0  0  0  0  0  0  0  0  0  0  0  0
   -2.8139    0.3513   -0.1279 C   0  0  0  0  0  0  0  0  0  0  0  0
   -2.5786   -1.1287   -0.0563 C   0  0  0  0  0  0  0  0  0  0  0  0
   -3.6618   -2.0049    0.0190 C   0  0  2  0  0  3  0  0  0  0  0  0
   -5.0399   -1.5087    0.0686 C   0  0  0  0  0  0  0  0  0  0  0  0
   -6.5761    0.4818    0.0697 C   0  0  0  0  0  0  0  0  0  0  0  0
   -7.3982   -0.2455    0.1439 H   0  0  0  0  0  0  0  0  0  0  0  0
   -6.8049    1.8674    0.0259 C   0  0  0  0  0  0  0  0  0  0  0  0
   -7.8352    2.2530    0.0662 H   0  0  0  0  0  0  0  0  0  0  0  0
   -5.7259    2.7637   -0.0683 C   0  0  0  0  0  0  0  0  0  0  0  0
   -5.9103    3.8480   -0.1012 H   0  0  0  0  0  0  0  0  0  0  0  0
   -4.4136    2.2745   -0.1196 C   0  0  0  0  0  0  0  0  0  0  0  0
   -3.5488    2.9501   -0.1911 H   0  0  0  0  0  0  0  0  0  0  0  0
   -4.1823    0.8855   -0.0756 C   0  0  0  0  0  0  0  0  0  0  0  0
   -5.2683   -0.0178    0.0193 C   0  0  0  0  0  0  0  0  0  0  0  0
   -3.4200   -3.4806    0.0565 C   0  0  0  0  0  0  0  0  0  0  0  0
   -2.7272   -3.7454    0.8825 H   0  0  0  0  0  0  0  0  0  0  0  0
   -4.3767   -4.0201    0.1792 H   0  0  0  0  0  0  0  0  0  0  0  0
   -2.9234   -3.8267   -0.8756 H   0  0  0  0  0  0  0  0  0  0  0  0
  1  4  1  0  0  0  0
  2  5  1  0  0  0  0
  4 16  1  0  0  0  0
  4  5  2  0  0  0  0
  5  6  1  0  0  0  0
  6 18  1  1  0  0  0
  6  7  1  0  0  0  0
  7  3  2  0  0  0  0
  8  9  1  0  0  0  0
 10 11  1  0  0  0  0
 10  8  1  0  0  0  0
 12 10  2  0  0  0  0
 13 12  1  0  0  0  0
 14 16  2  0  0  0  0
 14 12  1  0  0  0  0
 15 14  1  0  0  0  0
 16 17  1  0  0  0  0
 17  7  1  0  0  0  0
 17  8  2  0  0  0  0
 18 20  1  0  0  0  0
 18 19  1  0  0  0  0
 21 18  1  0  0  0  0
M  CHG  2   1  -1   2  -1
M  END
