1,2
 OpenBabel05122313063D

 18 18  0  0  1  0  0  0  0  0999 V2000
    0.5410   -1.9804   -0.4501 O   0  5  0  0  0  0  0  0  0  0  0  0
   -0.8450    0.2079   -1.4961 O   0  0  0  0  0  1  0  0  0  0  0  0
   -2.9872   -0.1525   -2.0548 O   0  0  0  0  0  0  0  0  0  0  0  0
   -0.6044   -2.5828   -0.5710 C   0  0  0  0  0  0  0  0  0  0  0  0
   -0.7162   -3.9573   -0.1709 C   0  0  0  0  0  0  0  0  0  0  0  0
    0.1964   -4.4303    0.2226 H   0  0  0  0  0  0  0  0  0  0  0  0
   -1.9096   -4.6632   -0.2552 C   0  0  0  0  0  0  0  0  0  0  0  0
   -1.9416   -5.7144    0.0746 H   0  0  0  0  0  0  0  0  0  0  0  0
   -3.0829   -4.0478   -0.7541 C   0  0  0  0  0  0  0  0  0  0  0  0
   -4.0269   -4.6083   -0.8175 H   0  0  0  0  0  0  0  0  0  0  0  0
   -3.0181   -2.7222   -1.1698 C   0  0  0  0  0  0  0  0  0  0  0  0
   -3.9117   -2.2201   -1.5662 H   0  0  0  0  0  0  0  0  0  0  0  0
   -1.8134   -1.9712   -1.0971 C   0  0  0  0  0  0  0  0  0  0  0  0
   -1.8075   -0.5795   -1.5469 C   0  0  2  0  0  3  0  0  0  0  0  0
   -3.0402    1.2293   -2.4326 C   0  0  0  0  0  0  0  0  0  0  0  0
   -4.0576    1.3909   -2.8317 H   0  0  0  0  0  0  0  0  0  0  0  0
   -2.2805    1.4581   -3.2064 H   0  0  0  0  0  0  0  0  0  0  0  0
   -2.8593    1.8860   -1.5575 H   0  0  0  0  0  0  0  0  0  0  0  0
  3 14  1  0  0  0  0
  4  1  1  0  0  0  0
  4  5  1  0  0  0  0
  5  6  1  0  0  0  0
  7  5  2  0  0  0  0
  7  8  1  0  0  0  0
  9  7  1  0  0  0  0
 10  9  1  0  0  0  0
 11 13  1  0  0  0  0
 11  9  2  0  0  0  0
 12 11  1  0  0  0  0
 13  4  2  0  0  0  0
 14  2  1  1  0  0  0
 14 13  1  0  0  0  0
 15  3  1  0  0  0  0
 15 18  1  0  0  0  0
 16 15  1  0  0  0  0
 17 15  1  0  0  0  0
M  CHG  1   1  -1
M  END
