1,3
 OpenBabel05122313063D

 27 28  0  0  0  0  0  0  0  0999 V2000
    1.3977    0.5300    1.2848 O   0  5  0  0  0  0  0  0  0  0  0  0
    2.5168   -0.5241    2.9255 O   0  0  0  0  0  0  0  0  0  0  0  0
   -1.6767    0.3767   -1.0524 O   0  5  0  0  0  0  0  0  0  0  0  0
    0.4790   -1.2983   -0.5378 N   0  0  0  0  0  0  0  0  0  0  0  0
    2.1463   -0.4311    1.7549 C   0  0  0  0  0  0  0  0  0  0  0  0
    2.6106   -1.4112    0.7032 C   0  0  0  0  0  0  0  0  0  0  0  0
    3.8857   -1.9855    0.8550 C   0  0  0  0  0  0  0  0  0  0  0  0
    4.4433   -1.7302    1.7684 H   0  0  0  0  0  0  0  0  0  0  0  0
    4.4202   -2.8376   -0.1188 C   0  0  0  0  0  0  0  0  0  0  0  0
    5.4302   -3.2563    0.0044 H   0  0  0  0  0  0  0  0  0  0  0  0
    3.6591   -3.1440   -1.2591 C   0  0  0  0  0  0  0  0  0  0  0  0
    4.0714   -3.7943   -2.0455 H   0  0  0  0  0  0  0  0  0  0  0  0
    2.3682   -2.6210   -1.4017 C   0  0  0  0  0  0  0  0  0  0  0  0
    1.7775   -2.8536   -2.3001 H   0  0  0  0  0  0  0  0  0  0  0  0
    1.8202   -1.7600   -0.4221 C   0  0  0  0  0  0  0  0  0  0  0  0
   -0.4047   -2.2020   -0.8993 C   0  0  0  0  0  0  0  0  0  0  0  0
   -0.0527   -3.2501   -0.9998 H   0  0  0  0  0  0  0  0  0  0  0  0
   -1.8079   -2.0113   -1.1278 C   0  0  0  0  0  0  0  0  0  0  0  0
   -2.6288   -3.1557   -1.3272 C   0  0  0  0  0  0  0  0  0  0  0  0
   -2.1555   -4.1507   -1.2970 H   0  0  0  0  0  0  0  0  0  0  0  0
   -3.9981   -3.0370   -1.5387 C   0  0  0  0  0  0  0  0  0  0  0  0
   -4.6223   -3.9310   -1.6784 H   0  0  0  0  0  0  0  0  0  0  0  0
   -4.5780   -1.7454   -1.5743 C   0  0  0  0  0  0  0  0  0  0  0  0
   -5.6620   -1.6413   -1.7393 H   0  0  0  0  0  0  0  0  0  0  0  0
   -3.8004   -0.6022   -1.4089 C   0  0  0  0  0  0  0  0  0  0  0  0
   -4.2424    0.4043   -1.4446 H   0  0  0  0  0  0  0  0  0  0  0  0
   -2.3953   -0.6974   -1.1791 C   0  0  0  0  0  0  0  0  0  0  0  0
  1  5  1  0  0  0  0
  4 15  1  0  0  0  0
  5  2  2  0  0  0  0
  6  7  1  0  0  0  0
  6  5  1  0  0  0  0
  7  8  1  0  0  0  0
  9 10  1  0  0  0  0
  9  7  2  0  0  0  0
 11  9  1  0  0  0  0
 12 11  1  0  0  0  0
 13 11  2  0  0  0  0
 13 15  1  0  0  0  0
 14 13  1  0  0  0  0
 15  6  2  0  0  0  0
 16  4  2  0  0  0  0
 17 16  1  0  0  0  0
 18 16  1  0  0  0  0
 19 20  1  0  0  0  0
 19 18  2  0  0  0  0
 21 19  1  0  0  0  0
 22 21  1  0  0  0  0
 23 21  2  0  0  0  0
 23 25  1  0  0  0  0
 24 23  1  0  0  0  0
 25 27  2  0  0  0  0
 26 25  1  0  0  0  0
 27 18  1  0  0  0  0
 27  3  1  0  0  0  0
M  CHG  2   1  -1   3  -1
M  END
