1,2
 OpenBabel05122313063D

 26 27  0  0  0  0  0  0  0  0999 V2000
   -0.0442   -1.1771   -0.7350 O   0  5  0  0  0  0  0  0  0  0  0  0
   -0.0508    0.9876   -0.7628 O   0  0  0  0  0  0  0  0  0  0  0  0
   -0.8595   -0.0985   -0.6530 C   0  0  0  0  0  0  0  0  0  0  0  0
   -2.2094   -0.0539   -0.3880 C   0  0  0  0  0  0  0  0  0  0  0  0
   -2.7783    1.3147   -0.2084 C   0  0  0  0  0  0  0  0  0  0  0  0
   -2.6950    2.2897   -1.2257 C   0  0  0  0  0  0  0  0  0  0  0  0
   -3.1885    3.5870   -1.0222 C   0  0  0  0  0  0  0  0  0  0  0  0
   -3.7810    3.9353    0.2014 C   0  0  0  0  0  0  0  0  0  0  0  0
   -3.8730    2.9753    1.2232 C   0  0  0  0  0  0  0  0  0  0  0  0
   -3.3752    1.6808    1.0206 C   0  0  0  0  0  0  0  0  0  0  0  0
   -3.0659   -1.2448   -0.2369 C   0  0  0  0  0  0  0  0  0  0  0  0
   -2.5590   -2.5740   -0.2200 C   0  0  0  0  0  0  0  0  0  0  0  0
   -3.4113   -3.6731   -0.0634 C   0  0  0  0  0  0  0  0  0  0  0  0
   -4.7982   -3.4971    0.0732 C   0  0  0  0  0  0  0  0  0  0  0  0
   -5.3208   -2.1952    0.0367 C   0  0  0  0  0  0  0  0  0  0  0  0
   -4.4733   -1.0913   -0.1191 C   0  0  0  0  0  0  0  0  0  0  0  0
   -2.2335    2.0178   -2.1862 H   0  0  0  0  0  0  0  0  0  0  0  0
   -3.1128    4.3313   -1.8299 H   0  0  0  0  0  0  0  0  0  0  0  0
   -4.1715    4.9522    0.3595 H   0  0  0  0  0  0  0  0  0  0  0  0
   -4.3317    3.2392    2.1887 H   0  0  0  0  0  0  0  0  0  0  0  0
   -3.4403    0.9327    1.8259 H   0  0  0  0  0  0  0  0  0  0  0  0
   -1.4823   -2.7387   -0.3502 H   0  0  0  0  0  0  0  0  0  0  0  0
   -2.9822   -4.6874   -0.0538 H   0  0  0  0  0  0  0  0  0  0  0  0
   -5.4638   -4.3650    0.1956 H   0  0  0  0  0  0  0  0  0  0  0  0
   -6.4066   -2.0332    0.1233 H   0  0  0  0  0  0  0  0  0  0  0  0
   -4.9089   -0.0832   -0.1611 H   0  0  0  0  0  0  0  0  0  0  0  0
  1  3  1  0  0  0  0
  2  3  2  0  0  0  0
  3  4  2  0  0  0  0
  4 11  1  0  0  0  0
  4  5  1  0  0  0  0
  5 10  1  0  0  0  0
  6  7  1  0  0  0  0
  6  5  2  0  0  0  0
  7  8  2  0  0  0  0
  8 19  1  0  0  0  0
  8  9  1  0  0  0  0
  9 20  1  0  0  0  0
 10  9  2  0  0  0  0
 10 21  1  0  0  0  0
 11 12  2  0  0  0  0
 11 16  1  0  0  0  0
 12 13  1  0  0  0  0
 13 23  1  0  0  0  0
 13 14  2  0  0  0  0
 14 24  1  0  0  0  0
 15 14  1  0  0  0  0
 15 25  1  0  0  0  0
 16 15  2  0  0  0  0
 17  6  1  0  0  0  0
 18  7  1  0  0  0  0
 22 12  1  0  0  0  0
 26 16  1  0  0  0  0
M  CHG  1   1  -1
M  END
