14,15
 OpenBabel05122313063D

 20 19  0  0  1  0  0  0  0  0999 V2000
   -3.3979    2.3173    0.7498 C   0  0  0  0  0  0  0  0  0  0  0  0
   -2.4790    2.7235   -0.4410 C   0  0  0  0  0  0  0  0  0  0  0  0
   -1.0288    2.2311   -0.2769 C   0  0  2  0  0  3  0  0  0  0  0  0
    0.0047    3.1701   -0.1643 C   0  0  0  0  0  0  0  0  0  0  0  0
   -0.2700    4.2323   -0.1841 H   0  0  0  0  0  0  0  0  0  0  0  0
    1.3802    2.8533   -0.0332 C   0  0  0  0  0  0  0  0  0  0  0  0
    2.3755    3.9964    0.0908 C   0  0  0  0  0  0  0  0  0  0  0  0
    2.0760    4.6029    0.9741 H   0  0  0  0  0  0  0  0  0  0  0  0
    2.2216    4.6697   -0.7809 H   0  0  0  0  0  0  0  0  0  0  0  0
    3.8349    3.5664    0.1971 C   0  0  0  0  0  0  0  0  0  0  0  0
    3.9987    2.9214    1.0827 H   0  0  0  0  0  0  0  0  0  0  0  0
    4.4959    4.4506    0.2853 H   0  0  0  0  0  0  0  0  0  0  0  0
    4.1480    2.9877   -0.6943 H   0  0  0  0  0  0  0  0  0  0  0  0
   -0.9499    0.9588   -0.2661 O   0  0  0  0  0  1  0  0  0  0  0  0
    1.8889    1.6753   -0.0084 O   0  5  0  0  0  0  0  0  0  0  0  0
   -3.6066    0.9948    0.7796 F   0  0  0  0  0  0  0  0  0  0  0  0
   -2.8208    2.6944    1.9099 F   0  0  0  0  0  0  0  0  0  0  0  0
   -4.5888    2.9361    0.6456 F   0  0  0  0  0  0  0  0  0  0  0  0
   -3.0118    2.1844   -1.5755 F   0  0  0  0  0  0  0  0  0  0  0  0
   -2.5421    4.0821   -0.5466 F   0  0  0  0  0  0  0  0  0  0  0  0
  1 16  1  0  0  0  0
  1 17  1  0  0  0  0
  2  3  1  0  0  0  0
  2  1  1  0  0  0  0
  3 14  1  6  0  0  0
  3  4  1  0  0  0  0
  4  6  2  0  0  0  0
  5  4  1  0  0  0  0
  6 15  1  0  0  0  0
  6  7  1  0  0  0  0
  7 10  1  0  0  0  0
  7  8  1  0  0  0  0
  9  7  1  0  0  0  0
 10 12  1  0  0  0  0
 10 11  1  0  0  0  0
 13 10  1  0  0  0  0
 18  1  1  0  0  0  0
 19  2  1  0  0  0  0
 20  2  1  0  0  0  0
M  CHG  1  15  -1
M  END
