1,2
 OpenBabel05122313063D

 30 31  0  0  0  0  0  0  0  0999 V2000
   -0.9979    0.9729    0.8039 O   0  5  0  0  0  0  0  0  0  0  0  0
   -1.4967    2.1693   -1.3678 O   0  0  0  0  0  1  0  0  0  0  0  0
   -2.3366    1.1765   -0.9793 N   0  0  0  0  0  0  0  0  0  0  0  0
   -2.0544    0.5852    0.2179 C   0  0  0  0  0  0  0  0  0  0  0  0
   -3.3785    0.8875   -1.8993 C   0  0  0  0  0  0  0  0  0  0  0  0
   -3.7010   -0.4424   -2.2340 C   0  0  0  0  0  0  0  0  0  0  0  0
   -3.1199   -1.2714   -1.8062 H   0  0  0  0  0  0  0  0  0  0  0  0
   -4.7436   -0.6915   -3.1380 C   0  0  0  0  0  0  0  0  0  0  0  0
   -4.9969   -1.7305   -3.3973 H   0  0  0  0  0  0  0  0  0  0  0  0
   -5.4363    0.3738   -3.7339 C   0  0  0  0  0  0  0  0  0  0  0  0
   -6.2458    0.1730   -4.4513 H   0  0  0  0  0  0  0  0  0  0  0  0
   -5.0781    1.6979   -3.4265 C   0  0  0  0  0  0  0  0  0  0  0  0
   -5.6075    2.5370   -3.9022 H   0  0  0  0  0  0  0  0  0  0  0  0
   -4.0518    1.9624   -2.5127 C   0  0  0  0  0  0  0  0  0  0  0  0
   -3.7519    2.9892   -2.2634 H   0  0  0  0  0  0  0  0  0  0  0  0
   -2.9694   -0.3929    0.7978 C   0  0  0  0  0  0  0  0  0  0  0  0
   -3.9441   -0.5358    0.3119 H   0  0  0  0  0  0  0  0  0  0  0  0
   -2.6274   -1.0663    1.9308 C   0  0  0  0  0  3  0  0  0  0  0  0
   -1.6307   -0.8489    2.3509 H   0  0  0  0  0  0  0  0  0  0  0  0
   -3.4380   -2.0431    2.6510 C   0  0  0  0  0  0  0  0  0  0  0  0
   -4.7358   -2.4326    2.2329 C   0  0  0  0  0  0  0  0  0  0  0  0
   -5.1745   -1.9913    1.3255 H   0  0  0  0  0  0  0  0  0  0  0  0
   -5.4692   -3.3736    2.9609 C   0  0  0  0  0  0  0  0  0  0  0  0
   -6.4753   -3.6626    2.6212 H   0  0  0  0  0  0  0  0  0  0  0  0
   -4.9281   -3.9508    4.1246 C   0  0  0  0  0  0  0  0  0  0  0  0
   -5.5095   -4.6907    4.6952 H   0  0  0  0  0  0  0  0  0  0  0  0
   -3.6448   -3.5777    4.5536 C   0  0  0  0  0  0  0  0  0  0  0  0
   -3.2149   -4.0238    5.4631 H   0  0  0  0  0  0  0  0  0  0  0  0
   -2.9093   -2.6353    3.8244 C   0  0  0  0  0  0  0  0  0  0  0  0
   -1.9029   -2.3410    4.1607 H   0  0  0  0  0  0  0  0  0  0  0  0
  2  3  1  0  0  0  0
  3  4  1  0  0  0  0
  4 16  2  0  0  0  0
  4  1  1  0  0  0  0
  5  3  1  0  0  0  0
  6  5  1  0  0  0  0
  6  7  1  0  0  0  0
  8  6  2  0  0  0  0
  9  8  1  0  0  0  0
 10 12  2  0  0  0  0
 10  8  1  0  0  0  0
 11 10  1  0  0  0  0
 12 14  1  0  0  0  0
 13 12  1  0  0  0  0
 14 15  1  0  0  0  0
 14  5  2  0  0  0  0
 16 18  1  0  0  0  0
 17 16  1  0  0  0  0
 18 19  1  0  0  0  0
 18 20  1  0  0  0  0
 20 29  1  0  0  0  0
 21 20  2  0  0  0  0
 21 23  1  0  0  0  0
 22 21  1  0  0  0  0
 23 25  2  0  0  0  0
 24 23  1  0  0  0  0
 25 27  1  0  0  0  0
 25 26  1  0  0  0  0
 27 28  1  0  0  0  0
 29 30  1  0  0  0  0
 29 27  2  0  0  0  0
M  CHG  1   1  -1
M  END
