1,2
 OpenBabel05122313063D

 62 64  0  0  0  0  0  0  0  0999 V2000
   -1.9282   -0.4735   -0.3451 O   0  5  0  0  0  0  0  0  0  0  0  0
    1.9282   -0.4735   -0.3450 O   0  5  0  0  0  0  0  0  0  0  0  0
   -1.4185    2.1470   -0.9265 C   0  0  0  0  0  0  0  0  0  0  0  0
   -0.6986    1.5002   -1.9634 C   0  0  0  0  0  0  0  0  0  0  0  0
   -1.2497    0.9330   -2.7290 H   0  0  0  0  0  0  0  0  0  0  0  0
    0.6986    1.5002   -1.9633 C   0  0  0  0  0  0  0  0  0  0  0  0
    1.2497    0.9330   -2.7288 H   0  0  0  0  0  0  0  0  0  0  0  0
    1.4184    2.1470   -0.9264 C   0  0  0  0  0  0  0  0  0  0  0  0
    0.7035    2.9690   -0.0358 C   0  0  0  0  0  0  0  0  0  0  0  0
    1.2514    3.5116    0.7505 H   0  0  0  0  0  0  0  0  0  0  0  0
   -0.7037    2.9690   -0.0359 C   0  0  0  0  0  0  0  0  0  0  0  0
   -1.2517    3.5116    0.7503 H   0  0  0  0  0  0  0  0  0  0  0  0
   -3.0094    0.3320   -0.4146 C   0  0  0  0  0  0  0  0  0  0  0  0
   -4.3227   -0.1751   -0.1772 C   0  0  0  0  0  0  0  0  0  0  0  0
   -5.3774    0.7570   -0.1825 C   0  0  0  0  0  0  0  0  0  0  0  0
   -6.3994    0.3959   -0.0023 H   0  0  0  0  0  0  0  0  0  0  0  0
   -5.2059    2.1390   -0.4031 C   0  0  0  0  0  0  0  0  0  0  0  0
   -3.9073    2.6072   -0.6534 C   0  0  0  0  0  0  0  0  0  0  0  0
   -3.7314    3.6761   -0.8535 H   0  0  0  0  0  0  0  0  0  0  0  0
   -2.8167    1.7239   -0.6811 C   0  0  0  0  0  0  0  0  0  0  0  0
    3.0093    0.3320   -0.4145 C   0  0  0  0  0  0  0  0  0  0  0  0
    2.8165    1.7240   -0.6810 C   0  0  0  0  0  0  0  0  0  0  0  0
    3.9072    2.6073   -0.6532 C   0  0  0  0  0  0  0  0  0  0  0  0
    3.7312    3.6762   -0.8531 H   0  0  0  0  0  0  0  0  0  0  0  0
    5.2058    2.1391   -0.4030 C   0  0  0  0  0  0  0  0  0  0  0  0
    5.3773    0.7571   -0.1825 C   0  0  0  0  0  0  0  0  0  0  0  0
    6.3993    0.3961   -0.0024 H   0  0  0  0  0  0  0  0  0  0  0  0
    4.3227   -0.1750   -0.1773 C   0  0  0  0  0  0  0  0  0  0  0  0
   -4.5756   -1.6765    0.0638 C   0  0  0  0  0  0  0  0  0  0  0  0
   -4.0814   -2.4857   -1.1592 C   0  0  0  0  0  0  0  0  0  0  0  0
   -4.6469   -2.1985   -2.0689 H   0  0  0  0  0  0  0  0  0  0  0  0
   -4.2406   -3.5701   -0.9865 H   0  0  0  0  0  0  0  0  0  0  0  0
   -3.0065   -2.3262   -1.3600 H   0  0  0  0  0  0  0  0  0  0  0  0
   -3.8434   -2.1412    1.3444 C   0  0  0  0  0  0  0  0  0  0  0  0
   -2.7473   -2.0488    1.2517 H   0  0  0  0  0  0  0  0  0  0  0  0
   -4.0714   -3.2083    1.5446 H   0  0  0  0  0  0  0  0  0  0  0  0
   -4.1778   -1.5520    2.2235 H   0  0  0  0  0  0  0  0  0  0  0  0
   -6.0739   -1.9813    0.2505 C   0  0  0  0  0  0  0  0  0  0  0  0
   -6.4979   -1.4706    1.1390 H   0  0  0  0  0  0  0  0  0  0  0  0
   -6.2077   -3.0714    0.3996 H   0  0  0  0  0  0  0  0  0  0  0  0
   -6.6725   -1.6916   -0.6366 H   0  0  0  0  0  0  0  0  0  0  0  0
   -6.3939    3.0687   -0.4001 C   0  0  0  0  0  0  0  0  0  0  0  0
   -6.0815    4.1308   -0.4282 H   0  0  0  0  0  0  0  0  0  0  0  0
   -7.0242    2.9220    0.5013 H   0  0  0  0  0  0  0  0  0  0  0  0
   -7.0488    2.8912   -1.2799 H   0  0  0  0  0  0  0  0  0  0  0  0
    4.5757   -1.6764    0.0635 C   0  0  0  0  0  0  0  0  0  0  0  0
    4.0815   -2.4855   -1.1596 C   0  0  0  0  0  0  0  0  0  0  0  0
    4.2407   -3.5699   -0.9870 H   0  0  0  0  0  0  0  0  0  0  0  0
    4.6468   -2.1981   -2.0693 H   0  0  0  0  0  0  0  0  0  0  0  0
    3.0065   -2.3261   -1.3603 H   0  0  0  0  0  0  0  0  0  0  0  0
    6.0739   -1.9812    0.2501 C   0  0  0  0  0  0  0  0  0  0  0  0
    6.4980   -1.4706    1.1386 H   0  0  0  0  0  0  0  0  0  0  0  0
    6.6725   -1.6914   -0.6370 H   0  0  0  0  0  0  0  0  0  0  0  0
    6.2079   -3.0713    0.3990 H   0  0  0  0  0  0  0  0  0  0  0  0
    3.8436   -2.1414    1.3441 C   0  0  0  0  0  0  0  0  0  0  0  0
    4.1780   -1.5523    2.2233 H   0  0  0  0  0  0  0  0  0  0  0  0
    4.0717   -3.2086    1.5441 H   0  0  0  0  0  0  0  0  0  0  0  0
    2.7475   -2.0490    1.2514 H   0  0  0  0  0  0  0  0  0  0  0  0
    6.3937    3.0689   -0.3999 C   0  0  0  0  0  0  0  0  0  0  0  0
    7.0245    2.9215    0.5010 H   0  0  0  0  0  0  0  0  0  0  0  0
    6.0813    4.1309   -0.4270 H   0  0  0  0  0  0  0  0  0  0  0  0
    7.0481    2.8921   -1.2803 H   0  0  0  0  0  0  0  0  0  0  0  0
  3 20  1  0  0  0  0
  3 11  1  0  0  0  0
  4  6  1  0  0  0  0
  4  3  2  0  0  0  0
  5  4  1  0  0  0  0
  6  8  2  0  0  0  0
  7  6  1  0  0  0  0
  8 22  1  0  0  0  0
  8  9  1  0  0  0  0
  9 10  1  0  0  0  0
 11  9  2  0  0  0  0
 11 12  1  0  0  0  0
 13  1  1  0  0  0  0
 13 14  1  0  0  0  0
 14 29  1  0  0  0  0
 15 14  2  0  0  0  0
 15 16  1  0  0  0  0
 17 42  1  0  0  0  0
 17 15  1  0  0  0  0
 18 17  2  0  0  0  0
 19 18  1  0  0  0  0
 20 18  1  0  0  0  0
 20 13  2  0  0  0  0
 21  2  1  0  0  0  0
 21 28  1  0  0  0  0
 22 23  1  0  0  0  0
 22 21  2  0  0  0  0
 23 25  2  0  0  0  0
 24 23  1  0  0  0  0
 25 59  1  0  0  0  0
 25 26  1  0  0  0  0
 26 28  2  0  0  0  0
 26 27  1  0  0  0  0
 28 46  1  0  0  0  0
 29 38  1  0  0  0  0
 29 34  1  0  0  0  0
 30 32  1  0  0  0  0
 30 29  1  0  0  0  0
 31 30  1  0  0  0  0
 33 30  1  0  0  0  0
 34 36  1  0  0  0  0
 34 37  1  0  0  0  0
 35 34  1  0  0  0  0
 38 40  1  0  0  0  0
 38 39  1  0  0  0  0
 41 38  1  0  0  0  0
 42 44  1  0  0  0  0
 43 42  1  0  0  0  0
 45 42  1  0  0  0  0
 46 51  1  0  0  0  0
 46 55  1  0  0  0  0
 47 48  1  0  0  0  0
 47 46  1  0  0  0  0
 49 47  1  0  0  0  0
 50 47  1  0  0  0  0
 51 54  1  0  0  0  0
 51 52  1  0  0  0  0
 53 51  1  0  0  0  0
 55 57  1  0  0  0  0
 55 56  1  0  0  0  0
 58 55  1  0  0  0  0
 59 60  1  0  0  0  0
 61 59  1  0  0  0  0
 62 59  1  0  0  0  0
M  CHG  2   1  -1   2  -1
M  END
