1,3
 OpenBabel05122313063D

  4  3  0  0  0  0  0  0  0  0999 V2000
   -0.0003    1.5665   -1.3845 O   0  0  0  0  0  0  0  0  0  0  0  0
   -0.0011    3.0500    0.2599 O   0  0  0  0  0  0  0  0  0  0  0  0
    0.0002    2.0291    1.2034 O   0  0  0  0  0  0  0  0  0  0  0  0
   -0.0013    2.7479   -1.0911 N   0  0  0  0  0  0  0  0  0  0  0  0
  1  4  1  0  0  0  0
  2  3  1  0  0  0  0
  4  2  1  0  0  0  0
M  END
