1,2
 OpenBabel05122313063D

 13 12  0  0  1  0  0  0  0  0999 V2000
    1.0420   -1.2708   -1.4681 O   0  0  0  0  0  1  0  0  0  0  0  0
    1.0398   -1.2699    1.4670 O   0  0  0  0  0  1  0  0  0  0  0  0
    2.2697   -1.2841   -1.2730 C   0  0  2  0  0  3  0  0  0  0  0  0
    2.2678   -1.2830    1.2737 C   0  0  2  0  0  3  0  0  0  0  0  0
    3.1554   -0.8241   -2.1850 N   0  0  0  0  0  0  0  0  0  0  0  0
    2.8735   -1.8782    0.0010 C   0  0  0  0  0  0  0  0  0  0  0  0
    3.1521   -0.8216    2.1863 N   0  0  0  0  0  0  0  0  0  0  0  0
    4.0705   -0.4951   -1.8545 H   0  0  0  0  0  0  0  0  0  0  0  0
    2.7478   -0.3058   -2.9679 H   0  0  0  0  0  0  0  0  0  0  0  0
    3.9767   -1.8145    0.0018 H   0  0  0  0  0  0  0  0  0  0  0  0
    2.5834   -2.9500    0.0013 H   0  0  0  0  0  0  0  0  0  0  0  0
    2.7431   -0.3025    2.9680 H   0  0  0  0  0  0  0  0  0  0  0  0
    4.0675   -0.4926    1.8567 H   0  0  0  0  0  0  0  0  0  0  0  0
  3  1  1  6  0  0  0
  3  6  1  0  0  0  0
  4  2  1  1  0  0  0
  4  7  1  0  0  0  0
  5  8  1  0  0  0  0
  5  3  1  0  0  0  0
  6 11  1  0  0  0  0
  6 10  1  0  0  0  0
  6  4  1  0  0  0  0
  7 12  1  0  0  0  0
  9  5  1  0  0  0  0
 13  7  1  0  0  0  0
M  END
