1,2
 OpenBabel05122313063D

 19 18  0  0  0  0  0  0  0  0999 V2000
    0.6602    1.6184    0.7403 O   0  0  0  0  0  1  0  0  0  0  0  0
    0.7100   -0.5060   -1.6464 O   0  0  0  0  0  1  0  0  0  0  0  0
    2.6245   -0.0564    0.1417 N   0  0  0  0  0  0  0  0  0  0  0  0
    1.9309    2.1931    0.7043 C   0  0  0  0  0  0  0  0  0  0  0  0
    2.3486    2.2684    1.7378 H   0  0  0  0  0  0  0  0  0  0  0  0
    1.8820    3.2383    0.3140 H   0  0  0  0  0  0  0  0  0  0  0  0
    2.0023   -0.7711   -2.1059 C   0  0  0  0  0  0  0  0  0  0  0  0
    2.3572    0.0736   -2.7468 H   0  0  0  0  0  0  0  0  0  0  0  0
    2.0049   -1.6735   -2.7616 H   0  0  0  0  0  0  0  0  0  0  0  0
    2.8429    1.3570   -0.1939 C   0  0  0  0  0  0  0  0  0  0  0  0
    3.9170    1.6503   -0.0988 H   0  0  0  0  0  0  0  0  0  0  0  0
    2.5413    1.5185   -1.2474 H   0  0  0  0  0  0  0  0  0  0  0  0
    2.9494   -1.0034   -0.9290 C   0  0  0  0  0  0  0  0  0  0  0  0
    2.7695   -2.0141   -0.5103 H   0  0  0  0  0  0  0  0  0  0  0  0
    4.0205   -0.9424   -1.2439 H   0  0  0  0  0  0  0  0  0  0  0  0
    3.2864   -0.4135    1.3989 C   0  0  0  0  0  0  0  0  0  0  0  0
    3.0165   -1.4489    1.6723 H   0  0  0  0  0  0  0  0  0  0  0  0
    2.9368    0.2454    2.2152 H   0  0  0  0  0  0  0  0  0  0  0  0
    4.3947   -0.3187    1.3096 H   0  0  0  0  0  0  0  0  0  0  0  0
  3 16  1  0  0  0  0
  4  1  1  0  0  0  0
  4  5  1  0  0  0  0
  6  4  1  0  0  0  0
  7  2  1  0  0  0  0
  7 13  1  0  0  0  0
  8  7  1  0  0  0  0
  9  7  1  0  0  0  0
 10 11  1  0  0  0  0
 10  3  1  0  0  0  0
 10  4  1  0  0  0  0
 12 10  1  0  0  0  0
 13 14  1  0  0  0  0
 13  3  1  0  0  0  0
 15 13  1  0  0  0  0
 16 17  1  0  0  0  0
 16 18  1  0  0  0  0
 19 16  1  0  0  0  0
M  END
