1,2
 OpenBabel05122313063D

 29 31  0  0  1  0  0  0  0  0999 V2000
   -1.5288   -0.9507   -1.0952 O   0  5  0  0  0  0  0  0  0  0  0  0
   -1.7960   -0.2280    0.9903 O   0  5  0  0  0  0  0  0  0  0  0  0
   -7.0327    0.1064    0.7432 O   0  0  0  0  0  0  0  0  0  0  0  0
   -6.7730    0.5217    1.5874 H   0  0  0  0  0  0  0  0  0  0  0  0
   -2.2330   -0.8470   -0.0408 C   0  0  0  0  0  3  0  0  0  0  0  0
   -3.6346   -1.4536    0.0235 C   0  0  2  0  0  0  0  0  0  0  0  0
   -4.6554   -0.3411    0.3714 C   0  0  0  0  0  0  0  0  0  0  0  0
   -4.3540    0.1410    1.3261 H   0  0  0  0  0  0  0  0  0  0  0  0
   -4.6536    0.4461   -0.4131 H   0  0  0  0  0  0  0  0  0  0  0  0
   -3.6732   -2.5192    1.1501 C   0  0  0  0  0  0  0  0  0  0  0  0
   -2.9366   -3.3194    0.9239 H   0  0  0  0  0  0  0  0  0  0  0  0
   -3.3568   -2.0458    2.1019 H   0  0  0  0  0  0  0  0  0  0  0  0
   -4.0497   -2.1092   -1.3080 C   0  0  0  0  0  0  0  0  0  0  0  0
   -3.3146   -2.8947   -1.5770 H   0  0  0  0  0  0  0  0  0  0  0  0
   -4.0105   -1.3542   -2.1206 H   0  0  0  0  0  0  0  0  0  0  0  0
   -6.0769   -0.9218    0.4903 C   0  0  1  0  0  0  0  0  0  0  0  0
   -6.0876   -1.9900    1.6026 C   0  0  0  0  0  0  0  0  0  0  0  0
   -7.1192   -2.3877    1.7066 H   0  0  0  0  0  0  0  0  0  0  0  0
   -5.8177   -1.5116    2.5709 H   0  0  0  0  0  0  0  0  0  0  0  0
   -5.0880   -3.1138    1.2673 C   0  0  1  0  0  0  0  0  0  0  0  0
   -5.1007   -3.8770    2.0746 H   0  0  0  0  0  0  0  0  0  0  0  0
   -5.4883   -3.7638   -0.0708 C   0  0  0  0  0  0  0  0  0  0  0  0
   -6.5008   -4.2147    0.0101 H   0  0  0  0  0  0  0  0  0  0  0  0
   -4.7845   -4.5869   -0.3185 H   0  0  0  0  0  0  0  0  0  0  0  0
   -5.4673   -2.6992   -1.1848 C   0  0  1  0  0  0  0  0  0  0  0  0
   -5.7569   -3.1653   -2.1504 H   0  0  0  0  0  0  0  0  0  0  0  0
   -6.4666   -1.5785   -0.8417 C   0  0  0  0  0  0  0  0  0  0  0  0
   -6.4782   -0.7989   -1.6325 H   0  0  0  0  0  0  0  0  0  0  0  0
   -7.5004   -1.9748   -0.7566 H   0  0  0  0  0  0  0  0  0  0  0  0
  1  5  1  0  0  0  0
  3  4  1  0  0  0  0
  5  2  1  0  0  0  0
  6  5  1  6  0  0  0
  6  7  1  0  0  0  0
  6 10  1  0  0  0  0
  7 16  1  0  0  0  0
  7  8  1  0  0  0  0
  9  7  1  0  0  0  0
 10 20  1  0  0  0  0
 10 12  1  0  0  0  0
 11 10  1  0  0  0  0
 13 25  1  0  0  0  0
 13  6  1  0  0  0  0
 14 13  1  0  0  0  0
 15 13  1  0  0  0  0
 16  3  1  1  0  0  0
 16 17  1  0  0  0  0
 17 18  1  0  0  0  0
 17 19  1  0  0  0  0
 20 17  1  0  0  0  0
 20 21  1  1  0  0  0
 22 23  1  0  0  0  0
 22 20  1  0  0  0  0
 24 22  1  0  0  0  0
 25 26  1  6  0  0  0
 25 27  1  0  0  0  0
 25 22  1  0  0  0  0
 27 29  1  0  0  0  0
 27 16  1  0  0  0  0
 28 27  1  0  0  0  0
M  CHG  2   1  -1   2  -1
M  END
