1,2
 OpenBabel05122313063D

 17 17  0  0  1  0  0  0  0  0999 V2000
   -1.6159    0.3449    1.1035 O   0  5  0  0  0  0  0  0  0  0  0  0
   -1.1723   -0.8408   -1.5192 O   0  0  0  0  0  1  0  0  0  0  0  0
   -2.8454    0.1050    0.7844 C   0  0  0  0  0  0  0  0  0  0  0  0
   -3.8477    0.4996    1.7414 C   0  0  0  0  0  0  0  0  0  0  0  0
   -3.4738    0.9892    2.6527 H   0  0  0  0  0  0  0  0  0  0  0  0
   -5.1976    0.2813    1.5357 C   0  0  0  0  0  0  0  0  0  0  0  0
   -5.9239    0.6034    2.2990 H   0  0  0  0  0  0  0  0  0  0  0  0
   -5.6535   -0.3532    0.3498 C   0  0  0  0  0  0  0  0  0  0  0  0
   -6.7265   -0.5279    0.1850 H   0  0  0  0  0  0  0  0  0  0  0  0
   -4.7243   -0.7474   -0.5978 C   0  0  0  0  0  0  0  0  0  0  0  0
   -5.0864   -1.2363   -1.5126 H   0  0  0  0  0  0  0  0  0  0  0  0
   -3.3149   -0.5422   -0.4388 C   0  0  0  0  0  0  0  0  0  0  0  0
   -2.4307   -0.9876   -1.4986 C   0  0  1  0  0  3  0  0  0  0  0  0
   -2.9973   -1.6851   -2.7235 C   0  0  0  0  0  0  0  0  0  0  0  0
   -2.1568   -1.9519   -3.3881 H   0  0  0  0  0  0  0  0  0  0  0  0
   -3.7034   -1.0317   -3.2748 H   0  0  0  0  0  0  0  0  0  0  0  0
   -3.5497   -2.6058   -2.4483 H   0  0  0  0  0  0  0  0  0  0  0  0
  3  1  1  0  0  0  0
  3  4  1  0  0  0  0
  4  5  1  0  0  0  0
  6  4  2  0  0  0  0
  6  7  1  0  0  0  0
  8  6  1  0  0  0  0
  9  8  1  0  0  0  0
 10 12  1  0  0  0  0
 10  8  2  0  0  0  0
 11 10  1  0  0  0  0
 12  3  2  0  0  0  0
 13  2  1  6  0  0  0
 13 12  1  0  0  0  0
 14 17  1  0  0  0  0
 14 13  1  0  0  0  0
 15 14  1  0  0  0  0
 16 14  1  0  0  0  0
M  CHG  1   1  -1
M  END
