6,24
 OpenBabel05122313063D

 36 36  0  0  0  0  0  0  0  0999 V2000
   -4.8029    0.7928   -0.9737 F   0  0  0  0  0  0  0  0  0  0  0  0
   -5.8417    3.4266   -0.5782 F   0  0  0  0  0  0  0  0  0  0  0  0
   -3.2763    3.3941    0.8264 F   0  0  0  0  0  0  0  0  0  0  0  0
   -5.4933    3.6870    2.9202 F   0  0  0  0  0  0  0  0  0  0  0  0
   -7.2114    4.2909    1.7162 F   0  0  0  0  0  0  0  0  0  0  0  0
    1.1395    1.2395   -0.5006 O   0  5  0  0  0  0  0  0  0  0  0  0
   -4.0405    1.5989    1.8387 F   0  0  0  0  0  0  0  0  0  0  0  0
   -6.4693    1.9081    0.9004 F   0  0  0  0  0  0  0  0  0  0  0  0
   -3.4571    2.4270   -1.5284 F   0  0  0  0  0  0  0  0  0  0  0  0
   -5.2577    5.1832    1.3431 F   0  0  0  0  0  0  0  0  0  0  0  0
   -4.1463    2.3499    0.7180 C   0  0  0  0  0  0  0  0  0  0  0  0
   -1.2691    1.3004   -0.5282 C   0  0  0  0  0  0  0  0  0  0  0  0
   -1.2529    2.3185   -0.9369 H   0  0  0  0  0  0  0  0  0  0  0  0
   -2.4965    0.6570   -0.2793 C   0  0  0  0  0  0  0  0  0  0  0  0
   -0.0463    0.6614   -0.2678 C   0  0  0  0  0  0  0  0  0  0  0  0
   -5.5999    2.9151    0.6546 C   0  0  0  0  0  0  0  0  0  0  0  0
   -3.7242    1.5086   -0.5466 C   0  0  0  0  0  0  0  0  0  0  0  0
   -5.8891    4.0512    1.6889 C   0  0  0  0  0  0  0  0  0  0  0  0
   -4.8029   -0.7929    0.9737 F   0  0  0  0  0  0  0  0  0  0  0  0
   -5.8418   -3.4264    0.5782 F   0  0  0  0  0  0  0  0  0  0  0  0
   -3.2762   -3.3940   -0.8265 F   0  0  0  0  0  0  0  0  0  0  0  0
   -5.4931   -3.6873   -2.9202 F   0  0  0  0  0  0  0  0  0  0  0  0
   -7.2112   -4.2911   -1.7162 F   0  0  0  0  0  0  0  0  0  0  0  0
    1.1395   -1.2394    0.5007 O   0  5  0  0  0  0  0  0  0  0  0  0
   -4.0405   -1.5988   -1.8387 F   0  0  0  0  0  0  0  0  0  0  0  0
   -6.4692   -1.9081   -0.9008 F   0  0  0  0  0  0  0  0  0  0  0  0
   -3.4571   -2.4271    1.5284 F   0  0  0  0  0  0  0  0  0  0  0  0
   -5.2574   -5.1832   -1.3429 F   0  0  0  0  0  0  0  0  0  0  0  0
   -4.1463   -2.3499   -0.7181 C   0  0  0  0  0  0  0  0  0  0  0  0
   -1.2691   -1.3004    0.5283 C   0  0  0  0  0  0  0  0  0  0  0  0
   -1.2529   -2.3185    0.9370 H   0  0  0  0  0  0  0  0  0  0  0  0
   -2.4965   -0.6570    0.2793 C   0  0  0  0  0  0  0  0  0  0  0  0
   -0.0463   -0.6614    0.2679 C   0  0  0  0  0  0  0  0  0  0  0  0
   -5.5999   -2.9151   -0.6547 C   0  0  0  0  0  0  0  0  0  0  0  0
   -3.7242   -1.5086    0.5466 C   0  0  0  0  0  0  0  0  0  0  0  0
   -5.8890   -4.0513   -1.6889 C   0  0  0  0  0  0  0  0  0  0  0  0
  1 17  1  0  0  0  0
  2 16  1  0  0  0  0
  6 15  1  0  0  0  0
  9 17  1  0  0  0  0
 10 18  1  0  0  0  0
 11  3  1  0  0  0  0
 11  7  1  0  0  0  0
 12 14  2  0  0  0  0
 12 15  1  0  0  0  0
 13 12  1  0  0  0  0
 14 32  1  0  0  0  0
 15 33  2  0  0  0  0
 16 11  1  0  0  0  0
 16  8  1  0  0  0  0
 16 18  1  0  0  0  0
 17 14  1  0  0  0  0
 17 11  1  0  0  0  0
 18  5  1  0  0  0  0
 18  4  1  0  0  0  0
 21 29  1  0  0  0  0
 22 36  1  0  0  0  0
 23 36  1  0  0  0  0
 25 29  1  0  0  0  0
 26 34  1  0  0  0  0
 29 34  1  0  0  0  0
 29 35  1  0  0  0  0
 30 31  1  0  0  0  0
 32 30  2  0  0  0  0
 32 35  1  0  0  0  0
 33 24  1  0  0  0  0
 33 30  1  0  0  0  0
 34 20  1  0  0  0  0
 35 19  1  0  0  0  0
 35 27  1  0  0  0  0
 36 28  1  0  0  0  0
 36 34  1  0  0  0  0
M  CHG  2   6  -1  24  -1
M  END
