1,16
 OpenBabel05122313063D

 18 19  0  0  1  0  0  0  0  0999 V2000
    1.5620    1.4559   -0.2363 O   0  5  0  0  0  0  0  0  0  0  0  0
    2.6895    0.9190   -0.1173 C   0  0  0  0  0  0  0  0  0  0  0  0
    2.7508   -0.5837   -0.0380 C   0  0  0  0  0  0  0  0  0  0  0  0
    4.0117   -1.1826    0.0067 C   0  0  1  0  0  3  0  0  0  0  0  0
    5.2755   -0.4393    0.0473 C   0  0  0  0  0  0  0  0  0  0  0  0
    5.1715    1.0676    0.0123 C   0  0  0  0  0  0  0  0  0  0  0  0
    6.3459    1.8296    0.0578 C   0  0  0  0  0  0  0  0  0  0  0  0
    7.3032    1.2913    0.1196 H   0  0  0  0  0  0  0  0  0  0  0  0
    6.2781    3.2326    0.0236 C   0  0  0  0  0  0  0  0  0  0  0  0
    7.2049    3.8252    0.0608 H   0  0  0  0  0  0  0  0  0  0  0  0
    5.0344    3.8827   -0.0576 C   0  0  0  0  0  0  0  0  0  0  0  0
    4.9864    4.9815   -0.0838 H   0  0  0  0  0  0  0  0  0  0  0  0
    3.8538    3.1291   -0.1051 C   0  0  0  0  0  0  0  0  0  0  0  0
    2.8662    3.6087   -0.1679 H   0  0  0  0  0  0  0  0  0  0  0  0
    3.9188    1.7221   -0.0688 C   0  0  0  0  0  0  0  0  0  0  0  0
    1.6235   -1.2147   -0.0690 O   0  5  0  0  0  0  0  0  0  0  0  0
    4.1190   -3.0619    0.0261 Br  0  0  0  0  0  0  0  0  0  0  0  0
    6.3822   -0.9792    0.1057 O   0  0  0  0  0  0  0  0  0  0  0  0
  1  2  1  0  0  0  0
  2 15  1  0  0  0  0
  2  3  2  0  0  0  0
  3  4  1  0  0  0  0
  4 17  1  1  0  0  0
  4  5  1  0  0  0  0
  5 18  2  0  0  0  0
  6  5  1  0  0  0  0
  6  7  1  0  0  0  0
  7  8  1  0  0  0  0
  9  7  2  0  0  0  0
  9 10  1  0  0  0  0
 11  9  1  0  0  0  0
 12 11  1  0  0  0  0
 13 15  1  0  0  0  0
 13 11  2  0  0  0  0
 14 13  1  0  0  0  0
 15  6  2  0  0  0  0
 16  3  1  0  0  0  0
M  CHG  2   1  -1  16  -1
M  END
