1,2
 OpenBabel05122313063D

 13 12  0  0  0  0  0  0  0  0999 V2000
    1.2762    1.9516   -0.0102 O   0  5  0  0  0  0  0  0  0  0  0  0
    1.3809   -1.9825    0.0624 O   0  5  0  0  0  0  0  0  0  0  0  0
    3.0247   -3.4237   -0.5329 O   0  0  0  0  0  0  0  0  0  0  0  0
    3.1227    0.0216    0.3843 O   0  0  0  0  0  0  0  0  0  0  0  0
    2.8567    3.5692    0.1111 O   0  0  0  0  0  0  0  0  0  0  0  0
    2.6142   -2.3066   -0.2541 C   0  0  0  0  0  0  0  0  0  0  0  0
    3.6327   -1.1336   -0.3019 C   0  0  0  0  0  0  0  0  0  0  0  0
    4.5910   -1.4704    0.1456 H   0  0  0  0  0  0  0  0  0  0  0  0
    3.8095   -0.8831   -1.3724 H   0  0  0  0  0  0  0  0  0  0  0  0
    2.5113    2.3974    0.0722 C   0  0  0  0  0  0  0  0  0  0  0  0
    3.6254    1.3146    0.0260 C   0  0  0  0  0  0  0  0  0  0  0  0
    4.0196    1.2905   -1.0154 H   0  0  0  0  0  0  0  0  0  0  0  0
    4.4545    1.6188    0.6983 H   0  0  0  0  0  0  0  0  0  0  0  0
  1 10  1  0  0  0  0
  3  6  2  0  0  0  0
  6  2  1  0  0  0  0
  7  6  1  0  0  0  0
  7  8  1  0  0  0  0
  7  4  1  0  0  0  0
  9  7  1  0  0  0  0
 10  5  2  0  0  0  0
 11 10  1  0  0  0  0
 11  4  1  0  0  0  0
 11 13  1  0  0  0  0
 12 11  1  0  0  0  0
M  CHG  2   1  -1   2  -1
M  END
