1,2
 OpenBabel05122313063D

 16 16  0  0  1  0  0  0  0  0999 V2000
    1.8880   -2.1499    0.1487 O   0  0  0  0  0  1  0  0  0  0  0  0
    1.3130    0.3856    0.0550 O   0  5  0  0  0  0  0  0  0  0  0  0
    2.5716    0.1001    0.0551 C   0  0  0  0  0  0  0  0  0  0  0  0
    4.9008    1.1549   -0.0064 C   0  0  0  0  0  0  0  0  0  0  0  0
    5.4111    2.1288   -0.0515 H   0  0  0  0  0  0  0  0  0  0  0  0
    5.7712    0.0574    0.0324 C   0  0  0  0  0  0  0  0  0  0  0  0
    8.0279   -0.5518    0.0397 O   0  0  0  0  0  0  0  0  0  0  0  0
    4.2058   -1.9176    0.1240 C   0  0  0  0  0  0  0  0  0  0  0  0
    4.1880   -3.0181    0.1706 H   0  0  0  0  0  0  0  0  0  0  0  0
    7.5490    1.5749   -0.0428 O   0  0  0  0  0  0  0  0  0  0  0  0
    7.2281    0.3856    0.0079 N   0  0  0  0  0  0  0  0  0  0  0  0
    3.5078    1.1672    0.0042 C   0  0  0  0  0  0  0  0  0  0  0  0
    3.0212    2.1549   -0.0363 H   0  0  0  0  0  0  0  0  0  0  0  0
    5.4552   -1.3117    0.0912 C   0  0  0  0  0  0  0  0  0  0  0  0
    6.3347   -1.9726    0.1130 H   0  0  0  0  0  0  0  0  0  0  0  0
    2.8948   -1.3546    0.1091 C   0  0  1  0  0  3  0  0  0  0  0  0
  2  3  1  0  0  0  0
  3 16  1  0  0  0  0
  4 12  1  0  0  0  0
  4  6  2  0  0  0  0
  5  4  1  0  0  0  0
  6 14  1  0  0  0  0
  8  9  1  0  0  0  0
 10 11  2  0  0  0  0
 11  6  1  0  0  0  0
 11  7  2  0  0  0  0
 12  3  2  0  0  0  0
 13 12  1  0  0  0  0
 14 15  1  0  0  0  0
 14  8  2  0  0  0  0
 16  8  1  0  0  0  0
 16  1  1  1  0  0  0
M  CHG  1   2  -1
M  END
