2,3
 OpenBabel05122313063D

 14 14  0  0  0  0  0  0  0  0999 V2000
   -4.4658   -1.4355   -1.3811 Cl  0  0  0  0  0  0  0  0  0  0  0  0
   -1.5065    1.5654   -0.3327 O   0  5  0  0  0  0  0  0  0  0  0  0
   -1.6939   -0.3167   -1.5068 O   0  5  0  0  0  0  0  0  0  0  0  0
   -2.1706    0.7805   -1.0975 C   0  0  0  0  0  3  0  0  0  0  0  0
   -3.5727    1.1929   -1.4605 C   0  0  0  0  0  0  0  0  0  0  0  0
   -4.6520    0.2944   -1.6185 C   0  0  0  0  0  0  0  0  0  0  0  0
   -5.9413    0.7548   -1.9353 C   0  0  0  0  0  0  0  0  0  0  0  0
   -6.7565    0.0258   -2.0468 H   0  0  0  0  0  0  0  0  0  0  0  0
   -6.1708    2.1257   -2.1086 C   0  0  0  0  0  0  0  0  0  0  0  0
   -7.1812    2.4779   -2.3657 H   0  0  0  0  0  0  0  0  0  0  0  0
   -5.1168    3.0390   -1.9456 C   0  0  0  0  0  0  0  0  0  0  0  0
   -5.2924    4.1178   -2.0699 H   0  0  0  0  0  0  0  0  0  0  0  0
   -3.8422    2.5703   -1.6119 C   0  0  0  0  0  0  0  0  0  0  0  0
   -3.0052    3.2647   -1.4511 H   0  0  0  0  0  0  0  0  0  0  0  0
  3  4  1  0  0  0  0
  4  2  1  0  0  0  0
  5  4  1  0  0  0  0
  6  5  2  0  0  0  0
  6  1  1  0  0  0  0
  7  6  1  0  0  0  0
  8  7  1  0  0  0  0
  9 11  1  0  0  0  0
  9  7  2  0  0  0  0
 10  9  1  0  0  0  0
 11 13  2  0  0  0  0
 12 11  1  0  0  0  0
 13  5  1  0  0  0  0
 13 14  1  0  0  0  0
M  CHG  2   2  -1   3  -1
M  END
