1,3
 OpenBabel05122313063D

 22 22  0  0  0  0  0  0  0  0999 V2000
    1.3317    1.6502    0.0708 O   0  5  0  0  0  0  0  0  0  0  0  0
   -0.2303    3.1180    0.6546 O   0  0  0  0  0  0  0  0  0  0  0  0
    0.5959   -1.0174    1.1240 O   0  5  0  0  0  0  0  0  0  0  0  0
   -1.2307   -0.7308    2.3529 O   0  0  0  0  0  0  0  0  0  0  0  0
    0.0842    1.9605    0.4332 C   0  0  0  0  0  0  0  0  0  0  0  0
   -0.9368    0.7935    0.4782 C   0  0  0  0  0  0  0  0  0  0  0  0
   -0.9026    0.3592   -0.5484 H   0  0  0  0  0  0  0  0  0  0  0  0
   -0.5352   -0.3727    1.4144 C   0  0  0  0  0  0  0  0  0  0  0  0
   -2.3609    1.2931    0.7760 C   0  0  0  0  0  0  0  0  0  0  0  0
   -2.4988    1.2914    1.8751 H   0  0  0  0  0  0  0  0  0  0  0  0
   -2.4218    2.3445    0.4358 H   0  0  0  0  0  0  0  0  0  0  0  0
   -3.4323    0.4602    0.1088 C   0  0  0  0  0  0  0  0  0  0  0  0
   -3.9259   -0.7213    0.7025 C   0  0  0  0  0  0  0  0  0  0  0  0
   -3.5242   -1.0247    1.6806 H   0  0  0  0  0  0  0  0  0  0  0  0
   -4.8948   -1.5001    0.0518 C   0  0  0  0  0  0  0  0  0  0  0  0
   -5.2707   -2.4162    0.5340 H   0  0  0  0  0  0  0  0  0  0  0  0
   -5.3885   -1.1165   -1.2057 C   0  0  0  0  0  0  0  0  0  0  0  0
   -6.1518   -1.7268   -1.7129 H   0  0  0  0  0  0  0  0  0  0  0  0
   -4.9057    0.0561   -1.8078 C   0  0  0  0  0  0  0  0  0  0  0  0
   -5.2907    0.3716   -2.7902 H   0  0  0  0  0  0  0  0  0  0  0  0
   -3.9378    0.8342   -1.1541 C   0  0  0  0  0  0  0  0  0  0  0  0
   -3.5688    1.7594   -1.6263 H   0  0  0  0  0  0  0  0  0  0  0  0
  1  5  1  0  0  0  0
  3  8  1  0  0  0  0
  5  6  1  0  0  0  0
  5  2  2  0  0  0  0
  6  9  1  0  0  0  0
  6  8  1  0  0  0  0
  7  6  1  0  0  0  0
  8  4  2  0  0  0  0
  9 10  1  0  0  0  0
 11  9  1  0  0  0  0
 12 13  1  0  0  0  0
 12  9  1  0  0  0  0
 13 14  1  0  0  0  0
 15 16  1  0  0  0  0
 15 13  2  0  0  0  0
 17 15  1  0  0  0  0
 18 17  1  0  0  0  0
 19 17  2  0  0  0  0
 19 21  1  0  0  0  0
 20 19  1  0  0  0  0
 21 12  2  0  0  0  0
 22 21  1  0  0  0  0
M  CHG  2   1  -1   3  -1
M  END
