1,2
 OpenBabel05122313063D

 11 10  0  0  0  0  0  0  0  0999 V2000
   -1.7524    0.1451   -1.1673 O   0  5  0  0  0  0  0  0  0  0  0  0
   -1.8226   -0.0909    1.0192 O   0  0  0  0  0  0  0  0  0  0  0  0
   -2.4522    0.0334   -0.0954 C   0  0  0  0  0  0  0  0  0  0  0  0
   -3.9411    0.0419   -0.1125 C   0  0  0  0  0  0  0  0  0  0  0  0
   -4.5755    0.1542   -1.3027 C   0  0  0  0  0  3  0  0  0  0  0  0
   -4.6361   -0.0808    1.2154 C   0  0  0  0  0  0  0  0  0  0  0  0
   -5.6745    0.1662   -1.3642 H   0  0  0  0  0  0  0  0  0  0  0  0
   -4.0008    0.2342   -2.2375 H   0  0  0  0  0  0  0  0  0  0  0  0
   -4.3661   -1.0313    1.7201 H   0  0  0  0  0  0  0  0  0  0  0  0
   -5.7348   -0.0455    1.0970 H   0  0  0  0  0  0  0  0  0  0  0  0
   -4.3256    0.7302    1.9056 H   0  0  0  0  0  0  0  0  0  0  0  0
  1  3  1  0  0  0  0
  3  2  2  0  0  0  0
  4  3  2  0  0  0  0
  4  6  1  0  0  0  0
  5  4  1  0  0  0  0
  6  9  1  0  0  0  0
  6 11  1  0  0  0  0
  7  5  1  0  0  0  0
  8  5  1  0  0  0  0
 10  6  1  0  0  0  0
M  CHG  1   1  -1
M  END
