3,4
 OpenBabel05122313063D

 27 26  0  0  1  0  0  0  0  0999 V2000
   -1.8174   -1.2794    0.2024 P   0  0  0  0  0  4  0  0  0  0  0  0
   -2.7032    1.8579    0.0282 Si  0  0  0  0  0  0  0  0  0  0  0  0
   -0.3666   -1.8515    0.0928 O   0  0  0  0  0  1  0  0  0  0  0  0
   -0.4998    0.5442    1.4468 O   0  0  0  0  0  1  0  0  0  0  0  0
   -2.7484   -1.4126   -1.1208 O   0  0  0  0  0  0  0  0  0  0  0  0
   -2.5105   -2.2618    1.3157 O   0  0  0  0  0  0  0  0  0  0  0  0
   -2.5336   -2.4925   -2.0510 C   0  0  0  0  0  0  0  0  0  0  0  0
   -3.8969   -2.1411    1.6482 C   0  0  0  0  0  0  0  0  0  0  0  0
   -4.4618    1.3350    0.5276 C   0  0  0  0  0  0  0  0  0  0  0  0
   -2.6932    2.1757   -1.8298 C   0  0  0  0  0  0  0  0  0  0  0  0
   -2.1894    3.3550    1.0543 C   0  0  0  0  0  0  0  0  0  0  0  0
   -1.5066    0.4368    0.4472 C   0  0  1  0  0  3  0  0  0  0  0  0
   -3.3653   -2.4461   -2.7776 H   0  0  0  0  0  0  0  0  0  0  0  0
   -2.5492   -3.4742   -1.5338 H   0  0  0  0  0  0  0  0  0  0  0  0
   -1.5656   -2.3507   -2.5713 H   0  0  0  0  0  0  0  0  0  0  0  0
   -4.1372   -2.9825    2.3248 H   0  0  0  0  0  0  0  0  0  0  0  0
   -4.5374   -2.2034    0.7435 H   0  0  0  0  0  0  0  0  0  0  0  0
   -4.1045   -1.1841    2.1702 H   0  0  0  0  0  0  0  0  0  0  0  0
   -4.5411    1.1487    1.6187 H   0  0  0  0  0  0  0  0  0  0  0  0
   -4.7725    0.4162   -0.0110 H   0  0  0  0  0  0  0  0  0  0  0  0
   -5.1891    2.1331    0.2694 H   0  0  0  0  0  0  0  0  0  0  0  0
   -1.7000    2.5418   -2.1538 H   0  0  0  0  0  0  0  0  0  0  0  0
   -3.4650    2.9206   -2.1133 H   0  0  0  0  0  0  0  0  0  0  0  0
   -2.8999    1.2304   -2.3707 H   0  0  0  0  0  0  0  0  0  0  0  0
   -2.9097    4.1874    0.9159 H   0  0  0  0  0  0  0  0  0  0  0  0
   -1.1819    3.7031    0.7554 H   0  0  0  0  0  0  0  0  0  0  0  0
   -2.1600    3.0948    2.1318 H   0  0  0  0  0  0  0  0  0  0  0  0
  1 12  1  0  0  0  0
  1  6  1  0  0  0  0
  2 12  1  0  0  0  0
  2  9  1  0  0  0  0
  2 11  1  0  0  0  0
  3  1  1  0  0  0  0
  5  1  1  0  0  0  0
  6  8  1  0  0  0  0
  7 14  1  0  0  0  0
  7  5  1  0  0  0  0
  8 18  1  0  0  0  0
  8 16  1  0  0  0  0
  9 19  1  0  0  0  0
 10  2  1  0  0  0  0
 11 27  1  0  0  0  0
 12  4  1  1  0  0  0
 13  7  1  0  0  0  0
 15  7  1  0  0  0  0
 17  8  1  0  0  0  0
 20  9  1  0  0  0  0
 21  9  1  0  0  0  0
 22 10  1  0  0  0  0
 23 10  1  0  0  0  0
 24 10  1  0  0  0  0
 25 11  1  0  0  0  0
 26 11  1  0  0  0  0
M  END
