1,17
 OpenBabel05122313063D

 18 18  0  0  0  0  0  0  0  0999 V2000
   -1.0948   -0.0048    1.3617 O   0  5  0  0  0  0  0  0  0  0  0  0
   -2.3191   -2.0270    0.8331 C   0  0  0  0  0  0  0  0  0  0  0  0
   -2.5885    2.1144    1.8778 O   0  0  0  0  0  0  0  0  0  0  0  0
   -4.3775    2.2093    0.6297 O   0  0  0  0  0  0  0  0  0  0  0  0
   -3.4539    0.1280    1.0347 C   0  0  0  0  0  0  0  0  0  0  0  0
   -4.6973   -1.8580    0.4686 C   0  0  0  0  0  0  0  0  0  0  0  0
   -6.9654   -1.7646    0.0342 O   0  0  0  0  0  0  0  0  0  0  0  0
   -2.1848   -0.5960    1.1304 C   0  0  0  0  0  0  0  0  0  0  0  0
   -1.1523   -3.8201   -0.0478 O   0  5  0  0  0  0  0  0  0  0  0  0
   -5.9673   -2.4885    0.0988 N   0  0  0  0  0  0  0  0  0  0  0  0
   -1.1358   -2.8619    0.7349 N   0  3  0  0  0  3  0  0  0  0  0  0
   -4.6593   -0.4770    0.7087 C   0  0  0  0  0  0  0  0  0  0  0  0
   -5.5736    0.1227    0.6215 H   0  0  0  0  0  0  0  0  0  0  0  0
   -3.5319   -2.6285    0.5098 C   0  0  0  0  0  0  0  0  0  0  0  0
   -3.5697   -3.6976    0.2648 H   0  0  0  0  0  0  0  0  0  0  0  0
   -3.4694    1.5820    1.1998 N   0  0  0  0  0  0  0  0  0  0  0  0
   -0.1353   -2.5474    1.4182 O   0  0  0  0  0  1  0  0  0  0  0  0
   -5.9557   -3.6999   -0.1386 O   0  0  0  0  0  0  0  0  0  0  0  0
  2  8  1  0  0  0  0
  4 16  2  0  0  0  0
  5  8  2  0  0  0  0
  5 16  1  0  0  0  0
  6 14  1  0  0  0  0
  6 12  2  0  0  0  0
  7 10  2  0  0  0  0
  8  1  1  0  0  0  0
  9 11  1  0  0  0  0
 10  6  1  0  0  0  0
 11  2  1  0  0  0  0
 11 17  1  0  0  0  0
 12  5  1  0  0  0  0
 13 12  1  0  0  0  0
 14  2  2  0  0  0  0
 15 14  1  0  0  0  0
 16  3  2  0  0  0  0
 18 10  2  0  0  0  0
M  CHG  3   1  -1   9  -1  11   1
M  END
