1,2
 OpenBabel05122313063D

 22 22  0  0  0  0  0  0  0  0999 V2000
    2.3325    0.1298   -1.3747 O   0  5  0  0  0  0  0  0  0  0  0  0
    1.4875   -1.1043    0.2751 O   0  5  0  0  0  0  0  0  0  0  0  0
    7.7860   -2.1890    1.1988 N   0  0  0  0  0  0  0  0  0  0  0  0
    2.4994   -0.6561   -0.3767 C   0  0  0  0  0  3  0  0  0  0  0  0
    3.8710   -1.0531    0.0321 C   0  0  0  0  0  0  0  0  0  0  0  0
    4.9988   -0.6127   -0.6904 C   0  0  0  0  0  0  0  0  0  0  0  0
    4.8349    0.0308   -1.5673 H   0  0  0  0  0  0  0  0  0  0  0  0
    6.2900   -0.9814   -0.3148 C   0  0  0  0  0  0  0  0  0  0  0  0
    7.1389   -0.6178   -0.9078 H   0  0  0  0  0  0  0  0  0  0  0  0
    6.5097   -1.8189    0.8184 C   0  0  0  0  0  0  0  0  0  0  0  0
    5.3646   -2.2614    1.5440 C   0  0  0  0  0  0  0  0  0  0  0  0
    5.4817   -2.9083    2.4229 H   0  0  0  0  0  0  0  0  0  0  0  0
    4.0809   -1.8830    1.1525 C   0  0  0  0  0  0  0  0  0  0  0  0
    3.2007   -2.2275    1.7150 H   0  0  0  0  0  0  0  0  0  0  0  0
    7.9795   -3.0477    2.3486 C   0  0  0  0  0  0  0  0  0  0  0  0
    9.0600   -3.2284    2.4935 H   0  0  0  0  0  0  0  0  0  0  0  0
    7.4826   -4.0370    2.2244 H   0  0  0  0  0  0  0  0  0  0  0  0
    7.5827   -2.5925    3.2845 H   0  0  0  0  0  0  0  0  0  0  0  0
    8.9305   -1.7315    0.4387 C   0  0  0  0  0  0  0  0  0  0  0  0
    9.8557   -2.1269    0.8955 H   0  0  0  0  0  0  0  0  0  0  0  0
    9.0074   -0.6204    0.4229 H   0  0  0  0  0  0  0  0  0  0  0  0
    8.8990   -2.0769   -0.6199 H   0  0  0  0  0  0  0  0  0  0  0  0
  1  4  1  0  0  0  0
  3 15  1  0  0  0  0
  4  5  1  0  0  0  0
  4  2  1  0  0  0  0
  5 13  1  0  0  0  0
  6  8  1  0  0  0  0
  6  5  2  0  0  0  0
  7  6  1  0  0  0  0
  8 10  2  0  0  0  0
  9  8  1  0  0  0  0
 10  3  1  0  0  0  0
 10 11  1  0  0  0  0
 11 12  1  0  0  0  0
 13 11  2  0  0  0  0
 13 14  1  0  0  0  0
 15 16  1  0  0  0  0
 15 18  1  0  0  0  0
 17 15  1  0  0  0  0
 19 20  1  0  0  0  0
 19  3  1  0  0  0  0
 21 19  1  0  0  0  0
 22 19  1  0  0  0  0
M  CHG  2   1  -1   2  -1
M  END
