2,5
 OpenBabel05122313063D

 15 15  0  0  0  0  0  0  0  0999 V2000
    2.5842   -1.7488    0.0088 S   0  0  0  0  0  0  0  0  0  0  0  0
    1.3169   -1.4326   -0.7816 O   0  0  0  0  0  1  0  0  0  0  0  0
    2.2856   -1.9782    1.4687 O   0  0  0  0  0  1  0  0  0  0  0  0
    3.4670   -2.7414   -0.6371 O   0  0  0  0  0  1  0  0  0  0  0  0
    1.6309    1.1362    0.7805 O   0  5  0  0  0  0  0  0  0  0  0  0
    5.5544    0.9344   -0.3749 N   0  0  0  0  0  0  0  0  0  0  0  0
    4.7977   -0.2028   -0.4085 C   0  0  0  0  0  3  0  0  0  0  0  0
    5.2666   -1.1354   -0.7569 H   0  0  0  0  0  0  0  0  0  0  0  0
    3.4842   -0.1815   -0.0112 C   0  0  0  0  0  0  0  0  0  0  0  0
    2.8405    1.0481    0.4419 C   0  0  0  0  0  0  0  0  0  0  0  0
    3.7238    2.2027    0.4759 C   0  0  0  0  0  0  0  0  0  0  0  0
    3.3062    3.1582    0.8214 H   0  0  0  0  0  0  0  0  0  0  0  0
    5.0319    2.1220    0.0691 C   0  0  0  0  0  0  0  0  0  0  0  0
    5.7151    2.9831    0.0692 H   0  0  0  0  0  0  0  0  0  0  0  0
    6.5277    0.8959   -0.6817 H   0  0  0  0  0  0  0  0  0  0  0  0
  1  3  1  0  0  0  0
  2  1  1  0  0  0  0
  4  1  1  0  0  0  0
  6 13  1  0  0  0  0
  7  6  1  0  0  0  0
  7  9  1  0  0  0  0
  8  7  1  0  0  0  0
  9  1  1  0  0  0  0
  9 10  2  0  0  0  0
 10 11  1  0  0  0  0
 10  5  1  0  0  0  0
 11 12  1  0  0  0  0
 13 14  1  0  0  0  0
 13 11  2  0  0  0  0
 15  6  1  0  0  0  0
M  CHG  1   5  -1
M  END
