3,4
 OpenBabel05122313063D

 35 36  0  0  0  0  0  0  0  0999 V2000
    0.6518    0.6447   -0.4400 S   0  0  1  0  0  3  0  0  0  0  0  0
   -0.4784   -1.4140    1.3854 S   0  0  2  0  0  3  0  0  0  0  0  0
   -0.5677    1.5877   -0.3630 O   0  0  0  0  0  1  0  0  0  0  0  0
   -1.4114   -1.1215    0.1730 O   0  0  0  0  0  1  0  0  0  0  0  0
    2.0670    1.7577   -0.2755 C   0  0  0  0  0  0  0  0  0  0  0  0
    1.8514    3.0750    0.1513 C   0  0  0  0  0  0  0  0  0  0  0  0
    0.8278    3.4031    0.3889 H   0  0  0  0  0  0  0  0  0  0  0  0
    2.9518    3.9352    0.2440 C   0  0  0  0  0  0  0  0  0  0  0  0
    2.7960    4.9727    0.5790 H   0  0  0  0  0  0  0  0  0  0  0  0
    4.2552    3.5018   -0.0863 C   0  0  0  0  0  0  0  0  0  0  0  0
    4.4302    2.1709   -0.5217 C   0  0  0  0  0  0  0  0  0  0  0  0
    5.4375    1.8184   -0.7925 H   0  0  0  0  0  0  0  0  0  0  0  0
    3.3418    1.2944   -0.6307 C   0  0  0  0  0  0  0  0  0  0  0  0
    3.4872    0.2630   -0.9899 H   0  0  0  0  0  0  0  0  0  0  0  0
    5.4206    4.4528   -0.0044 C   0  0  0  0  0  0  0  0  0  0  0  0
    5.3897    5.0514    0.9280 H   0  0  0  0  0  0  0  0  0  0  0  0
    5.4001    5.1734   -0.8495 H   0  0  0  0  0  0  0  0  0  0  0  0
    6.3902    3.9205   -0.0442 H   0  0  0  0  0  0  0  0  0  0  0  0
    0.7819   -0.0493    1.2925 C   0  0  0  0  0  0  0  0  0  0  0  0
    0.4600    0.7570    1.9805 H   0  0  0  0  0  0  0  0  0  0  0  0
    1.8000   -0.4338    1.4923 H   0  0  0  0  0  0  0  0  0  0  0  0
    0.5712   -2.7260    0.7000 C   0  0  0  0  0  0  0  0  0  0  0  0
    0.5150   -2.9999   -0.6738 C   0  0  0  0  0  0  0  0  0  0  0  0
   -0.1668   -2.4181   -1.3135 H   0  0  0  0  0  0  0  0  0  0  0  0
    1.3285   -4.0199   -1.1844 C   0  0  0  0  0  0  0  0  0  0  0  0
    1.2957   -4.2419   -2.2627 H   0  0  0  0  0  0  0  0  0  0  0  0
    2.1808   -4.7730   -0.3477 C   0  0  0  0  0  0  0  0  0  0  0  0
    2.1991   -4.4766    1.0321 C   0  0  0  0  0  0  0  0  0  0  0  0
    2.8498   -5.0591    1.7028 H   0  0  0  0  0  0  0  0  0  0  0  0
    1.3910   -3.4636    1.5663 C   0  0  0  0  0  0  0  0  0  0  0  0
    1.4029   -3.2540    2.6479 H   0  0  0  0  0  0  0  0  0  0  0  0
    3.0183   -5.8917   -0.9107 C   0  0  0  0  0  0  0  0  0  0  0  0
    2.4180   -6.8223   -1.0019 H   0  0  0  0  0  0  0  0  0  0  0  0
    3.8859   -6.1224   -0.2628 H   0  0  0  0  0  0  0  0  0  0  0  0
    3.3929   -5.6494   -1.9247 H   0  0  0  0  0  0  0  0  0  0  0  0
  1  3  1  1  0  0  0
  1  5  1  0  0  0  0
  1 19  1  0  0  0  0
  2  4  1  6  0  0  0
  5  6  1  0  0  0  0
  6  8  2  0  0  0  0
  6  7  1  0  0  0  0
  8  9  1  0  0  0  0
 10 15  1  0  0  0  0
 10  8  1  0  0  0  0
 11 10  2  0  0  0  0
 12 11  1  0  0  0  0
 13 11  1  0  0  0  0
 13  5  2  0  0  0  0
 14 13  1  0  0  0  0
 15 16  1  0  0  0  0
 17 15  1  0  0  0  0
 18 15  1  0  0  0  0
 19  2  1  0  0  0  0
 19 21  1  0  0  0  0
 19 20  1  0  0  0  0
 22  2  1  0  0  0  0
 22 30  1  0  0  0  0
 23 22  2  0  0  0  0
 24 23  1  0  0  0  0
 25 23  1  0  0  0  0
 25 27  2  0  0  0  0
 26 25  1  0  0  0  0
 27 28  1  0  0  0  0
 28 30  2  0  0  0  0
 28 29  1  0  0  0  0
 30 31  1  0  0  0  0
 32 27  1  0  0  0  0
 32 34  1  0  0  0  0
 33 32  1  0  0  0  0
 35 32  1  0  0  0  0
M  END
