2,3
 OpenBabel05122313063D

 13 13  0  0  1  0  0  0  0  0999 V2000
   -3.0415    0.7222    0.4865 O   0  0  0  0  0  0  0  0  0  0  0  0
   -0.9542   -1.7600   -0.3812 O   0  0  0  0  0  1  0  0  0  0  0  0
   -0.5817    0.6439   -1.1513 O   0  0  0  0  0  1  0  0  0  0  0  0
   -3.0968   -0.7178    0.4220 C   0  0  0  0  0  0  0  0  0  0  0  0
   -4.1466   -1.0287    0.2256 H   0  0  0  0  0  0  0  0  0  0  0  0
   -2.7808   -1.1359    1.3976 H   0  0  0  0  0  0  0  0  0  0  0  0
   -2.1567   -1.1583   -0.7396 C   0  0  1  0  0  0  0  0  0  0  0  0
   -2.6992   -1.8731   -1.3994 H   0  0  0  0  0  0  0  0  0  0  0  0
   -1.8890    0.2065   -1.4852 C   0  0  1  0  0  0  0  0  0  0  0  0
   -1.9838    0.1219   -2.5906 H   0  0  0  0  0  0  0  0  0  0  0  0
   -2.9454    1.1356   -0.8862 C   0  0  0  0  0  0  0  0  0  0  0  0
   -2.6634    2.2052   -0.9172 H   0  0  0  0  0  0  0  0  0  0  0  0
   -3.9287    1.0025   -1.3944 H   0  0  0  0  0  0  0  0  0  0  0  0
  4  1  1  0  0  0  0
  4  6  1  0  0  0  0
  5  4  1  0  0  0  0
  7  8  1  6  0  0  0
  7  2  1  0  0  0  0
  7  4  1  0  0  0  0
  9 10  1  6  0  0  0
  9  3  1  0  0  0  0
  9 11  1  0  0  0  0
  9  7  1  0  0  0  0
 11  1  1  0  0  0  0
 12 11  1  0  0  0  0
 13 11  1  0  0  0  0
M  END
