1,7
q = -2.0, confidence = 0.718

 10 10  0  0  0  0  0  0  0  0999 V2000
   -0.9700   -0.8744    1.0041 O   0  0  0  0  0  0  0  0  0  0  0  0
   -3.8715   -1.6164    1.8044 O   0  0  0  0  0  0  0  0  0  0  0  0
   -5.5945   -0.0030    0.0001 O   0  0  0  0  0  0  0  0  0  0  0  0
   -2.1104   -0.4720    0.5289 C   0  0  0  0  0  0  0  0  0  0  0  0
   -3.4772   -0.8433    0.9412 C   0  0  0  0  0  0  0  0  0  0  0  0
   -4.3803   -0.0024   -0.0000 C   0  0  0  0  0  0  0  0  0  0  0  0
   -0.9710    0.8730   -1.0044 O   0  0  0  0  0  0  0  0  0  0  0  0
   -3.8732    1.6123   -1.8044 O   0  0  0  0  0  0  0  0  0  0  0  0
   -2.1109    0.4695   -0.5291 C   0  0  0  0  0  0  0  0  0  0  0  0
   -3.4781    0.8393   -0.9414 C   0  0  0  0  0  0  0  0  0  0  0  0
  4  5  1  0  0  0  0
  4  1  1  0  0  0  0
  5  2  2  0  0  0  0
  6  3  2  0  0  0  0
  6  5  1  0  0  0  0
  7  9  1  0  0  0  0
  8 10  2  0  0  0  0
  9  4  2  0  0  0  0
 10  9  1  0  0  0  0
 10  6  1  0  0  0  0
M  END
