1,2
 OpenBabel05122313063D

 14 13  0  0  1  0  0  0  0  0999 V2000
   -0.0229   -0.7066    1.8666 O   0  5  0  0  0  0  0  0  0  0  0  0
    1.1582    0.0114   -0.8747 O   0  0  0  0  0  1  0  0  0  0  0  0
    1.1434   -0.3293    2.2032 C   0  0  0  0  0  0  0  0  0  0  0  0
    2.1770    0.1244    1.3283 C   0  0  0  0  0  0  0  0  0  0  0  0
    2.1093    0.2644   -0.0679 C   0  0  2  0  0  3  0  0  0  0  0  0
    1.4406   -0.3834    3.6881 C   0  0  0  0  0  0  0  0  0  0  0  0
    3.3299    0.8785   -0.7888 C   0  0  0  0  0  0  0  0  0  0  0  0
    4.4140    1.0144    0.0109 F   0  0  0  0  0  0  0  0  0  0  0  0
    3.6900    0.1241   -1.8438 F   0  0  0  0  0  0  0  0  0  0  0  0
    3.0091    2.1125   -1.2492 F   0  0  0  0  0  0  0  0  0  0  0  0
    3.1262    0.4110    1.7967 H   0  0  0  0  0  0  0  0  0  0  0  0
    2.3646    0.1563    3.9651 H   0  0  0  0  0  0  0  0  0  0  0  0
    1.5464   -1.4459    3.9927 H   0  0  0  0  0  0  0  0  0  0  0  0
    0.5795    0.0255    4.2519 H   0  0  0  0  0  0  0  0  0  0  0  0
  1  3  1  0  0  0  0
  3  6  1  0  0  0  0
  4 11  1  0  0  0  0
  4  3  2  0  0  0  0
  5  2  1  1  0  0  0
  5  4  1  0  0  0  0
  6 12  1  0  0  0  0
  6 13  1  0  0  0  0
  6 14  1  0  0  0  0
  7  5  1  0  0  0  0
  7  8  1  0  0  0  0
  9  7  1  0  0  0  0
 10  7  1  0  0  0  0
M  CHG  1   1  -1
M  END
