6,7
 OpenBabel05122313063D

 46 47  0  0  0  0  0  0  0  0999 V2000
   -8.2003    4.1306   -0.2026 O   0  0  0  0  0  0  0  0  0  0  0  0
   -5.9064    5.3863   -0.0173 O   0  0  0  0  0  0  0  0  0  0  0  0
    9.0662    2.7493    0.1817 O   0  0  0  0  0  0  0  0  0  0  0  0
    9.7499    2.0535    0.1820 H   0  0  0  0  0  0  0  0  0  0  0  0
    6.9688    4.3258    0.1772 O   0  0  0  0  0  0  0  0  0  0  0  0
   -1.3618   -0.7666   -0.2401 O   0  5  0  0  0  0  0  0  0  0  0  0
    1.5327   -1.0227   -0.1621 O   0  5  0  0  0  0  0  0  0  0  0  0
   -7.0765    3.3785   -0.1979 C   0  0  0  0  0  0  0  0  0  0  0  0
   -7.1301    1.9819   -0.2882 C   0  0  0  0  0  0  0  0  0  0  0  0
   -8.1145    1.4982   -0.3626 H   0  0  0  0  0  0  0  0  0  0  0  0
   -5.9445    1.2359   -0.2804 C   0  0  0  0  0  0  0  0  0  0  0  0
   -5.9933    0.1386   -0.3485 H   0  0  0  0  0  0  0  0  0  0  0  0
   -4.6772    1.8569   -0.1833 C   0  0  0  0  0  0  0  0  0  0  0  0
   -4.6296    3.2768   -0.0924 C   0  0  0  0  0  0  0  0  0  0  0  0
   -3.6579    3.7821   -0.0167 H   0  0  0  0  0  0  0  0  0  0  0  0
   -5.8063    4.0208   -0.0988 C   0  0  0  0  0  0  0  0  0  0  0  0
   -3.4816    1.0290   -0.1783 C   0  0  0  0  0  0  0  0  0  0  0  0
   -3.6458   -0.0587   -0.2645 H   0  0  0  0  0  0  0  0  0  0  0  0
   -2.1825    1.4290   -0.0736 C   0  0  0  0  0  0  0  0  0  0  0  0
   -1.9157    2.4926    0.0297 H   0  0  0  0  0  0  0  0  0  0  0  0
   -1.0639    0.4780   -0.0740 C   0  0  0  0  0  0  0  0  0  0  0  0
    0.2444    0.9972    0.0725 C   0  0  0  0  0  0  0  0  0  0  0  0
    0.3371    2.0840    0.2025 H   0  0  0  0  0  0  0  0  0  0  0  0
    1.4471    0.2573   -0.0172 C   0  0  0  0  0  0  0  0  0  0  0  0
    2.7105    1.0052    0.0268 C   0  0  0  0  0  0  0  0  0  0  0  0
    2.6231    2.1012    0.0904 H   0  0  0  0  0  0  0  0  0  0  0  0
    3.9279    0.3927    0.0099 C   0  0  0  0  0  3  0  0  0  0  0  0
    3.9139   -0.7099   -0.0317 H   0  0  0  0  0  0  0  0  0  0  0  0
    5.2430    1.0143    0.0518 C   0  0  0  0  0  0  0  0  0  0  0  0
    6.3918    0.1937    0.0547 C   0  0  0  0  0  0  0  0  0  0  0  0
    6.2736   -0.8998    0.0262 H   0  0  0  0  0  0  0  0  0  0  0  0
    7.6753    0.7542    0.0977 C   0  0  0  0  0  0  0  0  0  0  0  0
    8.5657    0.1038    0.1013 H   0  0  0  0  0  0  0  0  0  0  0  0
    7.8529    2.1444    0.1389 C   0  0  0  0  0  0  0  0  0  0  0  0
    6.7025    2.9940    0.1360 C   0  0  0  0  0  0  0  0  0  0  0  0
    5.4277    2.4241    0.0922 C   0  0  0  0  0  0  0  0  0  0  0  0
    4.5454    3.0765    0.0889 H   0  0  0  0  0  0  0  0  0  0  0  0
    5.8736    5.2191    0.1836 C   0  0  0  0  0  0  0  0  0  0  0  0
    6.3006    6.2382    0.2231 H   0  0  0  0  0  0  0  0  0  0  0  0
    5.2181    5.0656    1.0708 H   0  0  0  0  0  0  0  0  0  0  0  0
    5.2528    5.1214   -0.7359 H   0  0  0  0  0  0  0  0  0  0  0  0
   -4.7138    6.1417    0.0934 C   0  0  0  0  0  0  0  0  0  0  0  0
   -5.0146    7.2039    0.1499 H   0  0  0  0  0  0  0  0  0  0  0  0
   -4.0553    5.9947   -0.7914 H   0  0  0  0  0  0  0  0  0  0  0  0
   -4.1455    5.8729    1.0114 H   0  0  0  0  0  0  0  0  0  0  0  0
   -7.8984    5.0621   -0.1272 H   0  0  0  0  0  0  0  0  0  0  0  0
  1  8  1  0  0  0  0
  1 46  1  0  0  0  0
  2 42  1  0  0  0  0
  3  4  1  0  0  0  0
  5 38  1  0  0  0  0
  6 21  1  0  0  0  0
  7 24  1  0  0  0  0
  8 16  1  0  0  0  0
  9 11  1  0  0  0  0
  9  8  2  0  0  0  0
 10  9  1  0  0  0  0
 11 13  2  0  0  0  0
 12 11  1  0  0  0  0
 13 17  1  0  0  0  0
 13 14  1  0  0  0  0
 14 15  1  0  0  0  0
 16 14  2  0  0  0  0
 16  2  1  0  0  0  0
 17 19  2  0  0  0  0
 18 17  1  0  0  0  0
 19 20  1  0  0  0  0
 21 19  1  0  0  0  0
 21 22  2  0  0  0  0
 22 23  1  0  0  0  0
 24 25  2  0  0  0  0
 24 22  1  0  0  0  0
 25 26  1  0  0  0  0
 27 25  1  0  0  0  0
 27 29  1  0  0  0  0
 28 27  1  0  0  0  0
 29 30  2  0  0  0  0
 29 36  1  0  0  0  0
 30 32  1  0  0  0  0
 31 30  1  0  0  0  0
 32 33  1  0  0  0  0
 32 34  2  0  0  0  0
 34  3  1  0  0  0  0
 35 34  1  0  0  0  0
 35  5  1  0  0  0  0
 36 35  2  0  0  0  0
 37 36  1  0  0  0  0
 38 39  1  0  0  0  0
 38 40  1  0  0  0  0
 41 38  1  0  0  0  0
 42 43  1  0  0  0  0
 42 45  1  0  0  0  0
 44 42  1  0  0  0  0
M  CHG  2   6  -1   7  -1
M  END
