2,3
 OpenBabel05122313063D

 31 33  0  0  1  0  0  0  0  0999 V2000
    2.3391   -4.9323   -0.3546 O   0  0  0  0  0  0  0  0  0  0  0  0
    0.3102   -2.0171   -0.2220 O   0  0  0  0  0  1  0  0  0  0  0  0
    1.8974    0.2825   -0.7855 O   0  5  0  0  0  0  0  0  0  0  0  0
    4.1225   -0.2240   -0.2152 N   0  0  0  0  0  0  0  0  0  0  0  0
    4.8513   -1.2953    0.2560 N   0  0  0  0  0  0  0  0  0  0  0  0
    1.8668   -6.2037   -0.3574 C   0  0  0  0  0  0  0  0  0  0  0  0
    2.6115   -6.9895   -0.5221 H   0  0  0  0  0  0  0  0  0  0  0  0
    0.5020   -6.2158   -0.1513 C   0  0  0  0  0  0  0  0  0  0  0  0
   -0.1413   -7.1013   -0.1063 H   0  0  0  0  0  0  0  0  0  0  0  0
    0.1146   -4.8499   -0.0162 C   0  0  0  0  0  0  0  0  0  0  0  0
   -0.8853   -4.4362    0.1492 H   0  0  0  0  0  0  0  0  0  0  0  0
    1.2739   -4.0967   -0.1401 C   0  0  0  0  0  0  0  0  0  0  0  0
    1.4239   -2.6368   -0.1307 C   0  0  1  0  0  3  0  0  0  0  0  0
    2.7875   -0.5515   -0.3984 C   0  0  0  0  0  0  0  0  0  0  0  0
    2.6830   -1.9538   -0.0603 C   0  0  0  0  0  0  0  0  0  0  0  0
    4.0268   -2.3271    0.3400 C   0  0  0  0  0  0  0  0  0  0  0  0
    4.5723   -3.6130    0.8785 C   0  0  0  0  0  0  0  0  0  0  0  0
    5.5630   -3.4116    1.3271 H   0  0  0  0  0  0  0  0  0  0  0  0
    4.6898   -4.3735    0.0826 H   0  0  0  0  0  0  0  0  0  0  0  0
    3.9054   -4.0500    1.6472 H   0  0  0  0  0  0  0  0  0  0  0  0
    4.7606    1.0334   -0.3592 C   0  0  0  0  0  0  0  0  0  0  0  0
    4.0690    2.1707   -0.8347 C   0  0  0  0  0  0  0  0  0  0  0  0
    3.0115    2.0836   -1.1070 H   0  0  0  0  0  0  0  0  0  0  0  0
    4.7470    3.3931   -0.9453 C   0  0  0  0  0  0  0  0  0  0  0  0
    4.1989    4.2727   -1.3176 H   0  0  0  0  0  0  0  0  0  0  0  0
    6.1009    3.5060   -0.5952 C   0  0  0  0  0  0  0  0  0  0  0  0
    6.6228    4.4702   -0.6873 H   0  0  0  0  0  0  0  0  0  0  0  0
    6.7817    2.3698   -0.1282 C   0  0  0  0  0  0  0  0  0  0  0  0
    7.8448    2.4384    0.1493 H   0  0  0  0  0  0  0  0  0  0  0  0
    6.1240    1.1402   -0.0079 C   0  0  0  0  0  0  0  0  0  0  0  0
    6.6381    0.2424    0.3571 H   0  0  0  0  0  0  0  0  0  0  0  0
  1 12  1  0  0  0  0
  3 14  1  0  0  0  0
  4  5  1  0  0  0  0
  5 16  2  0  0  0  0
  6  1  1  0  0  0  0
  6  8  2  0  0  0  0
  7  6  1  0  0  0  0
  8  9  1  0  0  0  0
  8 10  1  0  0  0  0
 10 11  1  0  0  0  0
 12 13  1  0  0  0  0
 12 10  2  0  0  0  0
 13  2  1  6  0  0  0
 13 15  1  0  0  0  0
 14  4  1  0  0  0  0
 14 15  2  0  0  0  0
 15 16  1  0  0  0  0
 16 17  1  0  0  0  0
 17 18  1  0  0  0  0
 17 20  1  0  0  0  0
 19 17  1  0  0  0  0
 21  4  1  0  0  0  0
 21 30  1  0  0  0  0
 22 21  2  0  0  0  0
 23 22  1  0  0  0  0
 24 22  1  0  0  0  0
 24 26  2  0  0  0  0
 25 24  1  0  0  0  0
 26 28  1  0  0  0  0
 27 26  1  0  0  0  0
 28 30  2  0  0  0  0
 28 29  1  0  0  0  0
 30 31  1  0  0  0  0
M  CHG  1   3  -1
M  END
