2,5
 OpenBabel05122313063D

 24 25  0  0  0  0  0  0  0  0999 V2000
   -3.3297    0.0774   -0.1444 C   0  0  0  0  0  0  0  0  0  0  0  0
   -2.3388    0.8663   -0.2418 O   0  5  0  0  0  0  0  0  0  0  0  0
   -3.2594   -1.3701   -0.0808 C   0  0  0  0  0  0  0  0  0  0  0  0
   -2.0353   -2.0807    0.2796 C   0  0  0  0  0  0  0  0  0  0  0  0
   -0.8833   -1.5392    0.5117 O   0  5  0  0  0  0  0  0  0  0  0  0
   -2.1284   -3.5104    0.4130 C   0  0  0  0  0  0  0  0  0  0  0  0
   -3.2926   -4.2048    0.1324 C   0  0  0  0  0  0  0  0  0  0  0  0
   -4.4609   -3.5188   -0.2900 C   0  0  0  0  0  0  0  0  0  0  0  0
   -4.4330   -2.1362   -0.3767 C   0  0  0  0  0  3  0  0  0  0  0  0
   -4.6534    0.7818   -0.0878 C   0  0  0  0  0  0  0  0  0  0  0  0
   -5.6681    0.4036    0.8184 C   0  0  0  0  0  0  0  0  0  0  0  0
   -6.8568    1.1430    0.8987 C   0  0  0  0  0  0  0  0  0  0  0  0
   -7.0514    2.2588    0.0693 C   0  0  0  0  0  0  0  0  0  0  0  0
   -6.0423    2.6473   -0.8284 C   0  0  0  0  0  0  0  0  0  0  0  0
   -4.8458    1.9237   -0.8955 C   0  0  0  0  0  0  0  0  0  0  0  0
   -1.2105   -4.0293    0.7263 H   0  0  0  0  0  0  0  0  0  0  0  0
   -3.3054   -5.3028    0.2234 H   0  0  0  0  0  0  0  0  0  0  0  0
   -5.3729   -4.0746   -0.5512 H   0  0  0  0  0  0  0  0  0  0  0  0
   -5.3299   -1.6024   -0.7207 H   0  0  0  0  0  0  0  0  0  0  0  0
   -5.5104   -0.4617    1.4785 H   0  0  0  0  0  0  0  0  0  0  0  0
   -7.6352    0.8474    1.6184 H   0  0  0  0  0  0  0  0  0  0  0  0
   -7.9891    2.8324    0.1276 H   0  0  0  0  0  0  0  0  0  0  0  0
   -6.1891    3.5245   -1.4768 H   0  0  0  0  0  0  0  0  0  0  0  0
   -4.0392    2.2289   -1.5777 H   0  0  0  0  0  0  0  0  0  0  0  0
  1 10  1  0  0  0  0
  1  3  2  0  0  0  0
  2  1  1  0  0  0  0
  3  4  1  0  0  0  0
  4  6  2  0  0  0  0
  4  5  1  0  0  0  0
  6 16  1  0  0  0  0
  7 17  1  0  0  0  0
  7  6  1  0  0  0  0
  8  7  2  0  0  0  0
  9  8  1  0  0  0  0
  9  3  1  0  0  0  0
 10 11  1  0  0  0  0
 11 12  2  0  0  0  0
 11 20  1  0  0  0  0
 12 21  1  0  0  0  0
 13 22  1  0  0  0  0
 13 12  1  0  0  0  0
 14 13  2  0  0  0  0
 15 14  1  0  0  0  0
 15 10  2  0  0  0  0
 18  8  1  0  0  0  0
 19  9  1  0  0  0  0
 23 14  1  0  0  0  0
 24 15  1  0  0  0  0
M  CHG  2   2  -1   5  -1
M  END
