8,9
 OpenBabel05122313063D

 19 18  0  0  1  0  0  0  0  0999 V2000
   -3.3769   -2.6203   -0.0891 C   0  0  0  0  0  0  0  0  0  0  0  0
   -2.6383   -1.3024   -0.0729 C   0  0  1  0  0  3  0  0  0  0  0  0
   -3.3362   -0.0440   -0.0774 C   0  0  0  0  0  0  0  0  0  0  0  0
   -2.6632    1.2084   -0.2344 C   0  0  0  0  0  0  0  0  0  0  0  0
   -3.4274    2.4970   -0.4730 C   0  0  0  0  0  0  0  0  0  0  0  0
   -4.8359   -0.0814    0.0187 C   0  0  0  0  0  0  0  0  0  0  0  0
   -5.5440    0.8920    0.9628 C   0  0  0  0  0  0  0  0  0  0  0  0
   -1.3678   -1.4508   -0.0386 O   0  0  0  0  0  1  0  0  0  0  0  0
   -1.3964    1.3965   -0.2682 O   0  5  0  0  0  0  0  0  0  0  0  0
   -5.5082   -0.9302   -0.5607 O   0  0  0  0  0  0  0  0  0  0  0  0
   -3.9184   -2.7401   -1.0462 H   0  0  0  0  0  0  0  0  0  0  0  0
   -4.1525   -2.6623    0.6997 H   0  0  0  0  0  0  0  0  0  0  0  0
   -2.6425   -3.4333    0.0501 H   0  0  0  0  0  0  0  0  0  0  0  0
   -4.4002    2.3403   -0.9707 H   0  0  0  0  0  0  0  0  0  0  0  0
   -2.7944    3.1559   -1.0953 H   0  0  0  0  0  0  0  0  0  0  0  0
   -3.6050    3.0232    0.4871 H   0  0  0  0  0  0  0  0  0  0  0  0
   -4.8688    1.4886    1.6018 H   0  0  0  0  0  0  0  0  0  0  0  0
   -6.2077    1.5711    0.3907 H   0  0  0  0  0  0  0  0  0  0  0  0
   -6.2061    0.2803    1.6074 H   0  0  0  0  0  0  0  0  0  0  0  0
  1  2  1  0  0  0  0
  1 13  1  0  0  0  0
  1 12  1  0  0  0  0
  2  8  1  1  0  0  0
  3  2  1  0  0  0  0
  3  6  1  0  0  0  0
  4  3  2  0  0  0  0
  5  4  1  0  0  0  0
  5 16  1  0  0  0  0
  6  7  1  0  0  0  0
  7 17  1  0  0  0  0
  7 19  1  0  0  0  0
  9  4  1  0  0  0  0
 10  6  2  0  0  0  0
 11  1  1  0  0  0  0
 14  5  1  0  0  0  0
 15  5  1  0  0  0  0
 18  7  1  0  0  0  0
M  CHG  1   9  -1
M  END
