9,11
 OpenBabel05122313063D

 32 33  0  0  1  0  0  0  0  0999 V2000
    0.3134    3.2879   -0.4237 O   0  0  0  0  0  0  0  0  0  0  0  0
   -0.1252    2.0370   -0.1828 C   0  0  1  0  0  3  0  0  0  0  0  0
    0.8799    1.3260    0.5020 N   0  0  0  0  0  0  0  0  0  0  0  0
    2.1389    2.0936    0.4403 C   0  0  2  0  0  0  0  0  0  0  0  0
    2.7010    1.9886    1.3874 H   0  0  0  0  0  0  0  0  0  0  0  0
    1.5576    3.5045    0.2738 C   0  0  0  0  0  0  0  0  0  0  0  0
    1.3375    3.9946    1.2453 H   0  0  0  0  0  0  0  0  0  0  0  0
    2.1889    4.1679   -0.3451 H   0  0  0  0  0  0  0  0  0  0  0  0
   -1.2262    1.6537   -0.5244 O   0  0  0  0  0  1  0  0  0  0  0  0
    0.6901    0.0622    1.0685 C   0  0  2  0  0  3  0  0  0  0  0  0
   -0.3392   -0.5799    0.8583 O   0  0  0  0  0  1  0  0  0  0  0  0
    1.7302   -0.4486    2.0367 C   0  0  0  0  0  0  0  0  0  0  0  0
    1.7607    0.2809    2.8791 H   0  0  0  0  0  0  0  0  0  0  0  0
    2.7320   -0.4116    1.5633 H   0  0  0  0  0  0  0  0  0  0  0  0
    1.4068   -1.8537    2.5335 C   0  0  0  0  0  0  0  0  0  0  0  0
    0.4077   -1.8903    3.0077 H   0  0  0  0  0  0  0  0  0  0  0  0
    2.1661   -2.1842    3.2673 H   0  0  0  0  0  0  0  0  0  0  0  0
    1.4006   -2.5701    1.6896 H   0  0  0  0  0  0  0  0  0  0  0  0
    3.0145    1.6869   -0.7731 C   0  0  0  0  0  0  0  0  0  0  0  0
    3.9224    2.3246   -0.7438 H   0  0  0  0  0  0  0  0  0  0  0  0
    2.4565    1.9532   -1.6955 H   0  0  0  0  0  0  0  0  0  0  0  0
    3.3871    0.2262   -0.7921 C   0  0  0  0  0  0  0  0  0  0  0  0
    2.4820   -0.7233   -1.3082 C   0  0  0  0  0  0  0  0  0  0  0  0
    1.5371   -0.4027   -1.7754 H   0  0  0  0  0  0  0  0  0  0  0  0
    2.7505   -2.0964   -1.2026 C   0  0  0  0  0  0  0  0  0  0  0  0
    2.0125   -2.8146   -1.5907 H   0  0  0  0  0  0  0  0  0  0  0  0
    3.9389   -2.5376   -0.6000 C   0  0  0  0  0  0  0  0  0  0  0  0
    4.1512   -3.6142   -0.5164 H   0  0  0  0  0  0  0  0  0  0  0  0
    4.8626   -1.5980   -0.1109 C   0  0  0  0  0  0  0  0  0  0  0  0
    5.8036   -1.9372    0.3482 H   0  0  0  0  0  0  0  0  0  0  0  0
    4.5869   -0.2250   -0.2041 C   0  0  0  0  0  0  0  0  0  0  0  0
    5.3096    0.5071    0.1914 H   0  0  0  0  0  0  0  0  0  0  0  0
  1  2  1  0  0  0  0
  1  6  1  0  0  0  0
  2  9  1  1  0  0  0
  2  3  1  0  0  0  0
  3 10  1  0  0  0  0
  4  3  1  0  0  0  0
  4  5  1  1  0  0  0
  6  4  1  0  0  0  0
  6  7  1  0  0  0  0
  8  6  1  0  0  0  0
 10 11  1  1  0  0  0
 10 12  1  0  0  0  0
 12 15  1  0  0  0  0
 12 13  1  0  0  0  0
 14 12  1  0  0  0  0
 15 16  1  0  0  0  0
 15 17  1  0  0  0  0
 18 15  1  0  0  0  0
 19 20  1  0  0  0  0
 19  4  1  0  0  0  0
 21 19  1  0  0  0  0
 22 19  1  0  0  0  0
 22 31  1  0  0  0  0
 23 25  1  0  0  0  0
 23 22  2  0  0  0  0
 24 23  1  0  0  0  0
 25 27  2  0  0  0  0
 26 25  1  0  0  0  0
 27 28  1  0  0  0  0
 27 29  1  0  0  0  0
 29 30  1  0  0  0  0
 31 29  2  0  0  0  0
 31 32  1  0  0  0  0
M  END
