1,2
 OpenBabel05122313063D

 46 47  0  0  0  0  0  0  0  0999 V2000
    1.1116    0.7306   -0.0125 O   0  5  0  0  0  0  0  0  0  0  0  0
   -1.7039    0.2296   -0.2205 O   0  5  0  0  0  0  0  0  0  0  0  0
    3.2110    1.8752   -0.1772 C   0  0  0  0  0  0  0  0  0  0  0  0
    3.9245    3.0663    0.0509 C   0  0  0  0  0  0  0  0  0  0  0  0
    4.9956    3.1050   -0.1981 H   0  0  0  0  0  0  0  0  0  0  0  0
    3.2981    4.2040    0.5785 C   0  0  0  0  0  0  0  0  0  0  0  0
    3.8801    5.1211    0.7537 H   0  0  0  0  0  0  0  0  0  0  0  0
    1.9251    4.1770    0.8656 C   0  0  0  0  0  0  0  0  0  0  0  0
    1.4224    5.0751    1.2576 H   0  0  0  0  0  0  0  0  0  0  0  0
    1.1663    3.0144    0.6584 C   0  0  0  0  0  0  0  0  0  0  0  0
    1.8331    1.8614    0.1600 C   0  0  0  0  0  0  0  0  0  0  0  0
    3.8440    0.6689   -0.8505 C   0  0  0  0  0  0  0  0  0  0  0  0
    3.2234   -0.2071   -0.5839 H   0  0  0  0  0  0  0  0  0  0  0  0
    3.7590    0.8138   -2.3820 C   0  0  0  0  0  0  0  0  0  0  0  0
    4.1935   -0.0750   -2.8850 H   0  0  0  0  0  0  0  0  0  0  0  0
    2.7066    0.9102   -2.7136 H   0  0  0  0  0  0  0  0  0  0  0  0
    4.3158    1.7096   -2.7271 H   0  0  0  0  0  0  0  0  0  0  0  0
    5.2804    0.3944   -0.3885 C   0  0  0  0  0  0  0  0  0  0  0  0
    5.6511   -0.5565   -0.8235 H   0  0  0  0  0  0  0  0  0  0  0  0
    5.9817    1.1897   -0.7153 H   0  0  0  0  0  0  0  0  0  0  0  0
    5.3488    0.3206    0.7159 H   0  0  0  0  0  0  0  0  0  0  0  0
   -0.3247    2.9715    0.8668 C   0  0  0  0  0  0  0  0  0  0  0  0
   -0.6528    3.8418    1.4692 H   0  0  0  0  0  0  0  0  0  0  0  0
   -0.5941    2.0683    1.4509 H   0  0  0  0  0  0  0  0  0  0  0  0
   -1.0901    2.9611   -0.4864 C   0  0  0  0  0  0  0  0  0  0  0  0
   -1.0801    3.9815   -0.9184 H   0  0  0  0  0  0  0  0  0  0  0  0
   -0.5412    2.3144   -1.2018 H   0  0  0  0  0  0  0  0  0  0  0  0
   -2.5074    2.4678   -0.3707 C   0  0  0  0  0  0  0  0  0  0  0  0
   -3.6106    3.3374   -0.3683 C   0  0  0  0  0  0  0  0  0  0  0  0
   -3.4338    4.4194   -0.4716 H   0  0  0  0  0  0  0  0  0  0  0  0
   -4.9156    2.8414   -0.2422 C   0  0  0  0  0  0  0  0  0  0  0  0
   -5.7697    3.5352   -0.2408 H   0  0  0  0  0  0  0  0  0  0  0  0
   -5.1371    1.4610   -0.1230 C   0  0  0  0  0  0  0  0  0  0  0  0
   -6.1659    1.0850   -0.0295 H   0  0  0  0  0  0  0  0  0  0  0  0
   -4.0710    0.5440   -0.1234 C   0  0  0  0  0  0  0  0  0  0  0  0
   -2.7623    1.0792   -0.2363 C   0  0  0  0  0  0  0  0  0  0  0  0
   -4.2681   -0.9611   -0.0655 C   0  0  0  0  0  0  0  0  0  0  0  0
   -3.4382   -1.3737    0.5458 H   0  0  0  0  0  0  0  0  0  0  0  0
   -5.5859   -1.3879    0.5887 C   0  0  0  0  0  0  0  0  0  0  0  0
   -5.7132   -0.9351    1.5925 H   0  0  0  0  0  0  0  0  0  0  0  0
   -6.4658   -1.1089   -0.0279 H   0  0  0  0  0  0  0  0  0  0  0  0
   -5.6093   -2.4896    0.7060 H   0  0  0  0  0  0  0  0  0  0  0  0
   -4.1270   -1.5664   -1.4769 C   0  0  0  0  0  0  0  0  0  0  0  0
   -3.1580   -1.2987   -1.9414 H   0  0  0  0  0  0  0  0  0  0  0  0
   -4.1809   -2.6727   -1.4310 H   0  0  0  0  0  0  0  0  0  0  0  0
   -4.9395   -1.2027   -2.1398 H   0  0  0  0  0  0  0  0  0  0  0  0
  1 11  1  0  0  0  0
  3  4  2  0  0  0  0
  3 11  1  0  0  0  0
  4  6  1  0  0  0  0
  5  4  1  0  0  0  0
  6  7  1  0  0  0  0
  6  8  2  0  0  0  0
  8  9  1  0  0  0  0
 10  8  1  0  0  0  0
 10 22  1  0  0  0  0
 11 10  2  0  0  0  0
 12 13  1  0  0  0  0
 12 18  1  0  0  0  0
 12  3  1  0  0  0  0
 14 12  1  0  0  0  0
 15 14  1  0  0  0  0
 16 14  1  0  0  0  0
 17 14  1  0  0  0  0
 18 21  1  0  0  0  0
 19 18  1  0  0  0  0
 20 18  1  0  0  0  0
 22 24  1  0  0  0  0
 22 23  1  0  0  0  0
 25 28  1  0  0  0  0
 25 22  1  0  0  0  0
 26 25  1  0  0  0  0
 27 25  1  0  0  0  0
 28 29  2  0  0  0  0
 28 36  1  0  0  0  0
 29 31  1  0  0  0  0
 30 29  1  0  0  0  0
 31 32  1  0  0  0  0
 31 33  2  0  0  0  0
 33 34  1  0  0  0  0
 35 33  1  0  0  0  0
 35 37  1  0  0  0  0
 36  2  1  0  0  0  0
 36 35  2  0  0  0  0
 37 38  1  0  0  0  0
 37 39  1  0  0  0  0
 39 42  1  0  0  0  0
 39 40  1  0  0  0  0
 41 39  1  0  0  0  0
 43 45  1  0  0  0  0
 43 37  1  0  0  0  0
 44 43  1  0  0  0  0
 46 43  1  0  0  0  0
M  CHG  2   1  -1   2  -1
M  END
