3,4
 OpenBabel05122313063D

 58 61  0  0  0  0  0  0  0  0999 V2000
   -4.2018   -0.4647    0.9412 Si  0  0  0  0  0  0  0  0  0  0  0  0
    4.2342   -0.1690   -1.0141 Si  0  0  0  0  0  0  0  0  0  0  0  0
   -1.0830   -0.3670    0.7662 O   0  5  0  0  0  0  0  0  0  0  0  0
    1.0674   -0.3068   -0.7969 O   0  5  0  0  0  0  0  0  0  0  0  0
   -1.6277    0.7580    0.2319 C   0  0  0  0  0  0  0  0  0  0  0  0
   -3.0575    0.8218    0.1179 C   0  0  0  0  0  0  0  0  0  0  0  0
   -3.6006    1.9073   -0.5623 C   0  0  0  0  0  0  0  0  0  0  0  0
   -2.7958    2.9236   -1.1532 C   0  0  0  0  0  0  0  0  0  0  0  0
   -3.3697    3.9841   -1.9131 C   0  0  0  0  0  0  0  0  0  0  0  0
   -2.5742    4.9653   -2.4850 C   0  0  0  0  0  0  0  0  0  0  0  0
   -1.1654    4.9129   -2.3165 C   0  0  0  0  0  0  0  0  0  0  0  0
   -0.5773    3.9009   -1.5709 C   0  0  0  0  0  0  0  0  0  0  0  0
   -1.3682    2.8808   -0.9602 C   0  0  0  0  0  0  0  0  0  0  0  0
   -0.7928    1.8051   -0.1918 C   0  0  0  0  0  0  0  0  0  0  0  0
    1.5544    0.8470   -0.2681 C   0  0  0  0  0  0  0  0  0  0  0  0
    2.9788    0.9838   -0.1429 C   0  0  0  0  0  0  0  0  0  0  0  0
    3.4548    2.0858    0.5654 C   0  0  0  0  0  0  0  0  0  0  0  0
    2.5905    3.0488    1.1579 C   0  0  0  0  0  0  0  0  0  0  0  0
    3.0985    4.1262    1.9415 C   0  0  0  0  0  0  0  0  0  0  0  0
    2.2447    5.0561    2.5135 C   0  0  0  0  0  0  0  0  0  0  0  0
    0.8423    4.9346    2.3226 C   0  0  0  0  0  0  0  0  0  0  0  0
    0.3177    3.9065    1.5530 C   0  0  0  0  0  0  0  0  0  0  0  0
    1.1697    2.9375    0.9403 C   0  0  0  0  0  0  0  0  0  0  0  0
    0.6569    1.8435    0.1548 C   0  0  0  0  0  0  0  0  0  0  0  0
   -5.9277    0.3166    1.0418 C   0  0  0  0  0  0  0  0  0  0  0  0
   -3.5982   -0.8616    2.6874 C   0  0  0  0  0  0  0  0  0  0  0  0
   -4.3325   -2.0433   -0.0942 C   0  0  0  0  0  0  0  0  0  0  0  0
    4.6792   -1.6490    0.0838 C   0  0  0  0  0  0  0  0  0  0  0  0
    3.5771   -0.7514   -2.6837 C   0  0  0  0  0  0  0  0  0  0  0  0
    5.8103    0.8514   -1.2796 C   0  0  0  0  0  0  0  0  0  0  0  0
   -4.6937    2.0008   -0.6648 H   0  0  0  0  0  0  0  0  0  0  0  0
   -4.4635    4.0034   -2.0417 H   0  0  0  0  0  0  0  0  0  0  0  0
   -3.0284    5.7772   -3.0726 H   0  0  0  0  0  0  0  0  0  0  0  0
   -0.5311    5.6813   -2.7845 H   0  0  0  0  0  0  0  0  0  0  0  0
    0.5150    3.8702   -1.4556 H   0  0  0  0  0  0  0  0  0  0  0  0
    4.5398    2.2385    0.6803 H   0  0  0  0  0  0  0  0  0  0  0  0
    4.1878    4.2000    2.0875 H   0  0  0  0  0  0  0  0  0  0  0  0
    2.6475    5.8816    3.1193 H   0  0  0  0  0  0  0  0  0  0  0  0
    0.1632    5.6624    2.7921 H   0  0  0  0  0  0  0  0  0  0  0  0
   -0.7690    3.8201    1.4185 H   0  0  0  0  0  0  0  0  0  0  0  0
   -6.6128   -0.3689    1.5823 H   0  0  0  0  0  0  0  0  0  0  0  0
   -6.3666    0.4969    0.0389 H   0  0  0  0  0  0  0  0  0  0  0  0
   -5.9121    1.2809    1.5894 H   0  0  0  0  0  0  0  0  0  0  0  0
   -3.4172    0.0668    3.2664 H   0  0  0  0  0  0  0  0  0  0  0  0
   -2.6572   -1.4441    2.6480 H   0  0  0  0  0  0  0  0  0  0  0  0
   -4.3577   -1.4631    3.2283 H   0  0  0  0  0  0  0  0  0  0  0  0
   -3.3974   -2.6324   -0.0455 H   0  0  0  0  0  0  0  0  0  0  0  0
   -4.5532   -1.8056   -1.1550 H   0  0  0  0  0  0  0  0  0  0  0  0
   -5.1557   -2.6799    0.2915 H   0  0  0  0  0  0  0  0  0  0  0  0
    3.8610   -2.3952    0.1097 H   0  0  0  0  0  0  0  0  0  0  0  0
    4.9252   -1.3323    1.1185 H   0  0  0  0  0  0  0  0  0  0  0  0
    5.5727   -2.1613   -0.3301 H   0  0  0  0  0  0  0  0  0  0  0  0
    4.3954   -1.2217   -3.2672 H   0  0  0  0  0  0  0  0  0  0  0  0
    3.1764    0.0975   -3.2737 H   0  0  0  0  0  0  0  0  0  0  0  0
    2.7723   -1.4995   -2.5483 H   0  0  0  0  0  0  0  0  0  0  0  0
    6.5413    0.2525   -1.8614 H   0  0  0  0  0  0  0  0  0  0  0  0
    6.3008    1.1316   -0.3250 H   0  0  0  0  0  0  0  0  0  0  0  0
    5.6041    1.7816   -1.8470 H   0  0  0  0  0  0  0  0  0  0  0  0
  1 25  1  0  0  0  0
  1 26  1  0  0  0  0
  2 16  1  0  0  0  0
  2 28  1  0  0  0  0
  4 15  1  0  0  0  0
  5  3  1  0  0  0  0
  6  5  1  0  0  0  0
  6  1  1  0  0  0  0
  7  6  2  0  0  0  0
  8 13  1  0  0  0  0
  8  7  1  0  0  0  0
  9  8  2  0  0  0  0
 10 11  2  0  0  0  0
 10  9  1  0  0  0  0
 11 12  1  0  0  0  0
 12 35  1  0  0  0  0
 12 13  2  0  0  0  0
 13 14  1  0  0  0  0
 14 24  1  0  0  0  0
 14  5  2  0  0  0  0
 15 16  2  0  0  0  0
 15 24  1  0  0  0  0
 16 17  1  0  0  0  0
 17 36  1  0  0  0  0
 17 18  2  0  0  0  0
 18 19  1  0  0  0  0
 19 37  1  0  0  0  0
 19 20  2  0  0  0  0
 20 38  1  0  0  0  0
 21 20  1  0  0  0  0
 21 39  1  0  0  0  0
 22 21  2  0  0  0  0
 23 18  1  0  0  0  0
 23 22  1  0  0  0  0
 24 23  2  0  0  0  0
 25 41  1  0  0  0  0
 25 43  1  0  0  0  0
 26 46  1  0  0  0  0
 26 44  1  0  0  0  0
 27 47  1  0  0  0  0
 27 49  1  0  0  0  0
 27  1  1  0  0  0  0
 28 50  1  0  0  0  0
 28 51  1  0  0  0  0
 29 55  1  0  0  0  0
 29  2  1  0  0  0  0
 30  2  1  0  0  0  0
 30 57  1  0  0  0  0
 31  7  1  0  0  0  0
 32  9  1  0  0  0  0
 33 10  1  0  0  0  0
 34 11  1  0  0  0  0
 40 22  1  0  0  0  0
 42 25  1  0  0  0  0
 45 26  1  0  0  0  0
 48 27  1  0  0  0  0
 52 28  1  0  0  0  0
 53 29  1  0  0  0  0
 54 29  1  0  0  0  0
 56 30  1  0  0  0  0
 58 30  1  0  0  0  0
M  CHG  2   3  -1   4  -1
M  END
