1,2
 OpenBabel05122313063D

 23 23  0  0  0  0  0  0  0  0999 V2000
    1.6444    0.4960   -1.1288 O   0  5  0  0  0  0  0  0  0  0  0  0
    2.2702    0.7897    0.9967 O   0  5  0  0  0  0  0  0  0  0  0  0
    2.5011    0.8641   -0.2566 C   0  0  0  0  0  3  0  0  0  0  0  0
    3.8303    1.4009   -0.7192 C   0  0  0  0  0  0  0  0  0  0  0  0
    4.3086    2.6351   -0.2054 C   0  0  0  0  0  0  0  0  0  0  0  0
    5.5426    3.1262   -0.6658 C   0  0  0  0  0  0  0  0  0  0  0  0
    5.9043    4.0930   -0.2780 H   0  0  0  0  0  0  0  0  0  0  0  0
    6.3288    2.4205   -1.5943 C   0  0  0  0  0  0  0  0  0  0  0  0
    5.8365    1.1955   -2.0769 C   0  0  0  0  0  0  0  0  0  0  0  0
    6.4357    0.6247   -2.8056 H   0  0  0  0  0  0  0  0  0  0  0  0
    4.5961    0.6742   -1.6672 C   0  0  0  0  0  0  0  0  0  0  0  0
    4.1167   -0.6415   -2.2311 C   0  0  0  0  0  0  0  0  0  0  0  0
    3.1585   -0.5121   -2.7703 H   0  0  0  0  0  0  0  0  0  0  0  0
    3.9152   -1.3794   -1.4261 H   0  0  0  0  0  0  0  0  0  0  0  0
    4.8700   -1.0773   -2.9157 H   0  0  0  0  0  0  0  0  0  0  0  0
    3.5214    3.4255    0.8110 C   0  0  0  0  0  0  0  0  0  0  0  0
    2.4802    3.6094    0.4736 H   0  0  0  0  0  0  0  0  0  0  0  0
    3.9992    4.4043    1.0098 H   0  0  0  0  0  0  0  0  0  0  0  0
    3.4354    2.8610    1.7599 H   0  0  0  0  0  0  0  0  0  0  0  0
    7.6714    2.9503   -2.0324 C   0  0  0  0  0  0  0  0  0  0  0  0
    7.6553    4.0520   -2.1554 H   0  0  0  0  0  0  0  0  0  0  0  0
    7.9964    2.5003   -2.9911 H   0  0  0  0  0  0  0  0  0  0  0  0
    8.4560    2.7221   -1.2787 H   0  0  0  0  0  0  0  0  0  0  0  0
  1  3  1  0  0  0  0
  3  2  1  0  0  0  0
  4  3  1  0  0  0  0
  4  5  1  0  0  0  0
  5 16  1  0  0  0  0
  6  7  1  0  0  0  0
  6  5  2  0  0  0  0
  8  6  1  0  0  0  0
  9 11  1  0  0  0  0
  9  8  2  0  0  0  0
 10  9  1  0  0  0  0
 11  4  2  0  0  0  0
 12 11  1  0  0  0  0
 12 14  1  0  0  0  0
 13 12  1  0  0  0  0
 15 12  1  0  0  0  0
 16 18  1  0  0  0  0
 16 19  1  0  0  0  0
 17 16  1  0  0  0  0
 20  8  1  0  0  0  0
 20 23  1  0  0  0  0
 21 20  1  0  0  0  0
 22 20  1  0  0  0  0
M  CHG  2   1  -1   2  -1
M  END
