1,2
 OpenBabel05122313063D

 37 38  0  0  0  0  0  0  0  0999 V2000
   -0.1781   -1.2018    0.9562 O   0  5  0  0  0  0  0  0  0  0  0  0
    0.1014    1.4988    0.7494 O   0  5  0  0  0  0  0  0  0  0  0  0
   -1.5783    0.1164   -1.2611 C   0  0  0  0  0  0  0  0  0  0  0  0
   -0.4737    0.0579   -1.5710 H   0  0  0  0  0  0  0  0  0  0  0  0
   -2.0304    0.1257   -2.2748 H   0  0  0  0  0  0  0  0  0  0  0  0
   -1.4004   -1.6063    0.6201 C   0  0  0  0  0  0  0  0  0  0  0  0
   -2.0853   -1.1090   -0.5241 C   0  0  0  0  0  0  0  0  0  0  0  0
   -3.3254   -1.6648   -0.8906 C   0  0  0  0  0  0  0  0  0  0  0  0
   -3.8386   -1.2692   -1.7837 H   0  0  0  0  0  0  0  0  0  0  0  0
   -3.9411   -2.6824   -0.1424 C   0  0  0  0  0  0  0  0  0  0  0  0
   -3.2781   -3.1189    1.0242 C   0  0  0  0  0  0  0  0  0  0  0  0
   -3.7492   -3.8958    1.6506 H   0  0  0  0  0  0  0  0  0  0  0  0
   -2.0357   -2.6058    1.4227 C   0  0  0  0  0  0  0  0  0  0  0  0
   -1.3466   -3.0664    2.6788 C   0  0  0  0  0  0  0  0  0  0  0  0
   -1.9752   -3.7787    3.2476 H   0  0  0  0  0  0  0  0  0  0  0  0
   -1.1038   -2.2052    3.3362 H   0  0  0  0  0  0  0  0  0  0  0  0
   -0.3770   -3.5625    2.4584 H   0  0  0  0  0  0  0  0  0  0  0  0
   -5.2625   -3.2822   -0.5566 C   0  0  0  0  0  0  0  0  0  0  0  0
   -5.6980   -2.7454   -1.4225 H   0  0  0  0  0  0  0  0  0  0  0  0
   -6.0060   -3.2472    0.2675 H   0  0  0  0  0  0  0  0  0  0  0  0
   -5.1594   -4.3506   -0.8464 H   0  0  0  0  0  0  0  0  0  0  0  0
   -1.1185    1.9539    0.4700 C   0  0  0  0  0  0  0  0  0  0  0  0
   -1.6117    3.0729    1.2162 C   0  0  0  0  0  0  0  0  0  0  0  0
   -2.8542    3.6287    0.8879 C   0  0  0  0  0  0  0  0  0  0  0  0
   -3.2134    4.4914    1.4748 H   0  0  0  0  0  0  0  0  0  0  0  0
   -3.6566    3.1298   -0.1611 C   0  0  0  0  0  0  0  0  0  0  0  0
   -3.1741    2.0146   -0.8620 C   0  0  0  0  0  0  0  0  0  0  0  0
   -3.7909    1.5781   -1.6659 H   0  0  0  0  0  0  0  0  0  0  0  0
   -1.9388    1.4099   -0.5585 C   0  0  0  0  0  0  0  0  0  0  0  0
   -0.7772    3.6177    2.3438 C   0  0  0  0  0  0  0  0  0  0  0  0
    0.1667    4.0777    1.9777 H   0  0  0  0  0  0  0  0  0  0  0  0
   -0.4714    2.8107    3.0411 H   0  0  0  0  0  0  0  0  0  0  0  0
   -1.3269    4.3911    2.9146 H   0  0  0  0  0  0  0  0  0  0  0  0
   -4.9822    3.7675   -0.4971 C   0  0  0  0  0  0  0  0  0  0  0  0
   -5.4974    3.2254   -1.3145 H   0  0  0  0  0  0  0  0  0  0  0  0
   -4.8626    4.8240   -0.8208 H   0  0  0  0  0  0  0  0  0  0  0  0
   -5.6660    3.7793    0.3784 H   0  0  0  0  0  0  0  0  0  0  0  0
  3 29  1  0  0  0  0
  3  7  1  0  0  0  0
  4  3  1  0  0  0  0
  5  3  1  0  0  0  0
  6  1  1  0  0  0  0
  6 13  1  0  0  0  0
  7  6  2  0  0  0  0
  8  7  1  0  0  0  0
  8 10  2  0  0  0  0
  9  8  1  0  0  0  0
 10 11  1  0  0  0  0
 11 13  2  0  0  0  0
 11 12  1  0  0  0  0
 13 14  1  0  0  0  0
 14 15  1  0  0  0  0
 14 16  1  0  0  0  0
 17 14  1  0  0  0  0
 18 10  1  0  0  0  0
 18 20  1  0  0  0  0
 19 18  1  0  0  0  0
 21 18  1  0  0  0  0
 22  2  1  0  0  0  0
 22 23  1  0  0  0  0
 23 30  1  0  0  0  0
 24 23  2  0  0  0  0
 24 25  1  0  0  0  0
 26 24  1  0  0  0  0
 27 29  1  0  0  0  0
 27 26  2  0  0  0  0
 28 27  1  0  0  0  0
 29 22  2  0  0  0  0
 30 33  1  0  0  0  0
 30 32  1  0  0  0  0
 31 30  1  0  0  0  0
 34 26  1  0  0  0  0
 34 37  1  0  0  0  0
 35 34  1  0  0  0  0
 36 34  1  0  0  0  0
M  CHG  2   1  -1   2  -1
M  END
