3,4
q = -1.0, confidence = 0.0

 14 14  0  0  0  0  0  0  0  0999 V2000
   -4.4130    2.4336   -2.2664 F   0  0  0  0  0  0  0  0  0  0  0  0
   -4.6685   -1.6083    0.1978 F   0  0  0  0  0  0  0  0  0  0  0  0
   -2.3541   -0.6965   -1.1884 O   0  5  0  0  0  0  0  0  0  0  0  0
   -2.3658    1.4352   -0.4959 O   0  5  0  0  0  0  0  0  0  0  0  0
   -2.9528    0.3877   -0.9031 C   0  0  0  0  0  3  0  0  0  0  0  0
   -4.4549    0.4111   -1.0327 C   0  0  0  0  0  0  0  0  0  0  0  0
   -5.1306    1.4490   -1.7038 C   0  0  0  0  0  0  0  0  0  0  0  0
   -6.5246    1.4816   -1.8313 C   0  0  0  0  0  0  0  0  0  0  0  0
   -6.9899    2.3132   -2.3781 H   0  0  0  0  0  0  0  0  0  0  0  0
   -7.2821    0.4502   -1.2578 C   0  0  0  0  0  0  0  0  0  0  0  0
   -8.3785    0.4650   -1.3457 H   0  0  0  0  0  0  0  0  0  0  0  0
   -6.6538   -0.5998   -0.5725 C   0  0  0  0  0  0  0  0  0  0  0  0
   -7.2229   -1.4165   -0.1073 H   0  0  0  0  0  0  0  0  0  0  0  0
   -5.2573   -0.6052   -0.4770 C   0  0  0  0  0  0  0  0  0  0  0  0
  1  7  1  0  0  0  0
  3  5  1  0  0  0  0
  5  4  1  0  0  0  0
  6  5  1  0  0  0  0
  6 14  1  0  0  0  0
  7  6  2  0  0  0  0
  8  7  1  0  0  0  0
  8 10  2  0  0  0  0
  9  8  1  0  0  0  0
 10 12  1  0  0  0  0
 11 10  1  0  0  0  0
 12 14  2  0  0  0  0
 12 13  1  0  0  0  0
 14  2  1  0  0  0  0
M  CHG  2   3  -1   4  -1
M  END
