4,5
 OpenBabel05122313063D

 37 37  0  0  1  0  0  0  0  0999 V2000
   -3.2006   -3.1565   -0.1283 Cl  0  0  0  0  0  0  0  0  0  0  0  0
   -5.9531   -2.3352   -0.6842 Cl  0  0  0  0  0  0  0  0  0  0  0  0
   -4.6076   -1.3751    1.7393 Cl  0  0  0  0  0  0  0  0  0  0  0  0
    1.8179    1.2505   -1.4301 O   0  0  0  0  0  1  0  0  0  0  0  0
    0.0199   -0.2555   -0.2789 O   0  0  0  0  0  1  0  0  0  0  0  0
   -4.7204    0.2517   -1.2696 O   0  0  0  0  0  0  0  0  0  0  0  0
   -2.5870   -0.2963   -0.6258 N   0  0  0  0  0  0  0  0  0  0  0  0
    0.4714    1.7605   -1.5013 C   0  0  1  0  0  0  0  0  0  0  0  0
   -0.4726    0.5687   -1.3486 C   0  0  2  0  0  0  0  0  0  0  0  0
   -1.9267    0.9366   -1.0250 C   0  0  2  0  0  0  0  0  0  0  0  0
   -2.0354    2.0156    0.0636 C   0  0  0  0  0  0  0  0  0  0  0  0
   -1.2084    3.2619   -0.2944 C   0  0  2  0  0  0  0  0  0  0  0  0
    0.2640    2.8348   -0.4259 C   0  0  0  0  0  0  0  0  0  0  0  0
   -3.9156   -0.4978   -0.7353 C   0  0  0  0  0  0  0  0  0  0  0  0
   -4.4097   -1.8053   -0.0028 C   0  0  0  0  0  0  0  0  0  0  0  0
   -1.4365    4.4760    0.6701 C   0  0  0  0  0  0  0  0  0  0  0  0
   -2.9285    4.8650    0.6702 C   0  0  0  0  0  0  0  0  0  0  0  0
   -1.0016    4.1455    2.1105 C   0  0  0  0  0  0  0  0  0  0  0  0
   -0.6341    5.6933    0.1687 C   0  0  0  0  0  0  0  0  0  0  0  0
   -1.9858   -0.9706   -0.1396 H   0  0  0  0  0  0  0  0  0  0  0  0
    0.3454    2.2098   -2.5128 H   0  0  0  0  0  0  0  0  0  0  0  0
   -0.4509   -0.0373   -2.2860 H   0  0  0  0  0  0  0  0  0  0  0  0
   -2.4260    1.3052   -1.9462 H   0  0  0  0  0  0  0  0  0  0  0  0
   -1.6725    1.5815    1.0188 H   0  0  0  0  0  0  0  0  0  0  0  0
   -3.1083    2.2567    0.1904 H   0  0  0  0  0  0  0  0  0  0  0  0
   -1.5537    3.6108   -1.2979 H   0  0  0  0  0  0  0  0  0  0  0  0
    0.6231    2.4207    0.5393 H   0  0  0  0  0  0  0  0  0  0  0  0
    0.9221    3.6901   -0.6737 H   0  0  0  0  0  0  0  0  0  0  0  0
   -3.2923    5.0623   -0.3599 H   0  0  0  0  0  0  0  0  0  0  0  0
   -3.5694    4.0757    1.1100 H   0  0  0  0  0  0  0  0  0  0  0  0
   -3.0877    5.7870    1.2661 H   0  0  0  0  0  0  0  0  0  0  0  0
   -1.5768    3.2949    2.5285 H   0  0  0  0  0  0  0  0  0  0  0  0
    0.0750    3.8877    2.1680 H   0  0  0  0  0  0  0  0  0  0  0  0
   -1.1717    5.0182    2.7741 H   0  0  0  0  0  0  0  0  0  0  0  0
   -0.8874    5.9339   -0.8851 H   0  0  0  0  0  0  0  0  0  0  0  0
   -0.8651    6.5880    0.7826 H   0  0  0  0  0  0  0  0  0  0  0  0
    0.4598    5.5285    0.2272 H   0  0  0  0  0  0  0  0  0  0  0  0
  1 15  1  0  0  0  0
  2 15  1  0  0  0  0
  6 14  2  0  0  0  0
  7 20  1  0  0  0  0
  8 21  1  6  0  0  0
  8  4  1  0  0  0  0
  8  9  1  0  0  0  0
  8 13  1  0  0  0  0
  9 22  1  6  0  0  0
  9 10  1  0  0  0  0
  9  5  1  0  0  0  0
 10 23  1  6  0  0  0
 10  7  1  0  0  0  0
 10 11  1  0  0  0  0
 11 25  1  0  0  0  0
 11 24  1  0  0  0  0
 12 26  1  6  0  0  0
 12 11  1  0  0  0  0
 12 16  1  0  0  0  0
 13 12  1  0  0  0  0
 13 27  1  0  0  0  0
 14  7  1  0  0  0  0
 14 15  1  0  0  0  0
 15  3  1  0  0  0  0
 16 17  1  0  0  0  0
 16 18  1  0  0  0  0
 17 30  1  0  0  0  0
 17 31  1  0  0  0  0
 18 33  1  0  0  0  0
 18 32  1  0  0  0  0
 18 34  1  0  0  0  0
 19 37  1  0  0  0  0
 19 16  1  0  0  0  0
 19 36  1  0  0  0  0
 28 13  1  0  0  0  0
 29 17  1  0  0  0  0
 35 19  1  0  0  0  0
M  END
