1,2
 OpenBabel05122313063D

 36 37  0  0  0  0  0  0  0  0999 V2000
   -1.2690    0.0809   -0.2311 O   0  5  0  0  0  0  0  0  0  0  0  0
    1.6196   -0.2523   -0.1200 O   0  5  0  0  0  0  0  0  0  0  0  0
   -5.7966    2.2184   -0.2683 C   0  0  0  0  0  0  0  0  0  0  0  0
   -5.8755    1.1212   -0.3227 H   0  0  0  0  0  0  0  0  0  0  0  0
   -6.9544    3.0061   -0.2798 C   0  0  0  0  0  0  0  0  0  0  0  0
   -7.9430    2.5266   -0.3449 H   0  0  0  0  0  0  0  0  0  0  0  0
   -6.8532    4.4043   -0.2075 C   0  0  0  0  0  0  0  0  0  0  0  0
   -7.7605    5.0271   -0.2165 H   0  0  0  0  0  0  0  0  0  0  0  0
   -5.5840    5.0058   -0.1238 C   0  0  0  0  0  0  0  0  0  0  0  0
   -5.4985    6.1017   -0.0677 H   0  0  0  0  0  0  0  0  0  0  0  0
   -4.4284    4.2195   -0.1123 C   0  0  0  0  0  0  0  0  0  0  0  0
   -3.4440    4.7065   -0.0490 H   0  0  0  0  0  0  0  0  0  0  0  0
   -4.5099    2.8055   -0.1834 C   0  0  0  0  0  0  0  0  0  0  0  0
   -3.3382    1.9342   -0.1728 C   0  0  0  0  0  0  0  0  0  0  0  0
   -3.5346    0.8520   -0.2627 H   0  0  0  0  0  0  0  0  0  0  0  0
   -2.0321    2.2976   -0.0562 C   0  0  0  0  0  0  0  0  0  0  0  0
   -1.7383    3.3529    0.0558 H   0  0  0  0  0  0  0  0  0  0  0  0
   -0.9387    1.3131   -0.0514 C   0  0  0  0  0  0  0  0  0  0  0  0
    0.3803    1.7976    0.1156 C   0  0  0  0  0  0  0  0  0  0  0  0
    0.4997    2.8805    0.2548 H   0  0  0  0  0  0  0  0  0  0  0  0
    1.5635    1.0261    0.0334 C   0  0  0  0  0  0  0  0  0  0  0  0
    2.8466    1.7442    0.0979 C   0  0  0  0  0  0  0  0  0  0  0  0
    2.7861    2.8412    0.1719 H   0  0  0  0  0  0  0  0  0  0  0  0
    4.0461    1.1023    0.0876 C   0  0  0  0  0  3  0  0  0  0  0  0
    4.0074    0.0006    0.0355 H   0  0  0  0  0  0  0  0  0  0  0  0
    5.3776    1.6992    0.1497 C   0  0  0  0  0  0  0  0  0  0  0  0
    6.5090    0.8465    0.1696 C   0  0  0  0  0  0  0  0  0  0  0  0
    6.3519   -0.2432    0.1387 H   0  0  0  0  0  0  0  0  0  0  0  0
    7.8083    1.3653    0.2314 C   0  0  0  0  0  0  0  0  0  0  0  0
    8.6711    0.6821    0.2475 H   0  0  0  0  0  0  0  0  0  0  0  0
    8.0085    2.7540    0.2741 C   0  0  0  0  0  0  0  0  0  0  0  0
    9.0278    3.1660    0.3228 H   0  0  0  0  0  0  0  0  0  0  0  0
    6.8975    3.6170    0.2539 C   0  0  0  0  0  0  0  0  0  0  0  0
    7.0483    4.7069    0.2863 H   0  0  0  0  0  0  0  0  0  0  0  0
    5.6007    3.0990    0.1920 C   0  0  0  0  0  0  0  0  0  0  0  0
    4.7438    3.7886    0.1745 H   0  0  0  0  0  0  0  0  0  0  0  0
  1 18  1  0  0  0  0
  2 21  1  0  0  0  0
  3 13  1  0  0  0  0
  4  3  1  0  0  0  0
  5  3  2  0  0  0  0
  5  7  1  0  0  0  0
  6  5  1  0  0  0  0
  7  9  2  0  0  0  0
  8  7  1  0  0  0  0
  9 11  1  0  0  0  0
  9 10  1  0  0  0  0
 11 12  1  0  0  0  0
 13 14  1  0  0  0  0
 13 11  2  0  0  0  0
 14 16  2  0  0  0  0
 15 14  1  0  0  0  0
 16 18  1  0  0  0  0
 16 17  1  0  0  0  0
 18 19  2  0  0  0  0
 19 20  1  0  0  0  0
 21 22  2  0  0  0  0
 21 19  1  0  0  0  0
 22 23  1  0  0  0  0
 24 22  1  0  0  0  0
 24 26  1  0  0  0  0
 25 24  1  0  0  0  0
 26 27  2  0  0  0  0
 26 35  1  0  0  0  0
 27 29  1  0  0  0  0
 28 27  1  0  0  0  0
 29 30  1  0  0  0  0
 29 31  2  0  0  0  0
 31 32  1  0  0  0  0
 33 31  1  0  0  0  0
 33 34  1  0  0  0  0
 35 33  2  0  0  0  0
 36 35  1  0  0  0  0
M  CHG  2   1  -1   2  -1
M  END
