2,3
 OpenBabel05122313063D

 14 14  0  0  0  0  0  0  0  0999 V2000
    5.7334    0.1090   -0.1244 Cl  0  0  0  0  0  0  0  0  0  0  0  0
   -0.1054    1.0261   -0.1762 O   0  5  0  0  0  0  0  0  0  0  0  0
   -0.3808   -1.4578   -1.0437 O   0  5  0  0  0  0  0  0  0  0  0  0
    1.3949   -2.8337   -1.0097 O   0  0  0  0  0  0  0  0  0  0  0  0
    1.2013    0.7656   -0.1781 C   0  0  0  0  0  0  0  0  0  0  0  0
    2.0985    1.8297    0.1122 C   0  0  0  0  0  0  0  0  0  0  0  0
    1.6691    2.8190    0.3281 H   0  0  0  0  0  0  0  0  0  0  0  0
    3.4782    1.6330    0.1272 C   0  0  0  0  0  0  0  0  0  0  0  0
    4.1613    2.4627    0.3588 H   0  0  0  0  0  0  0  0  0  0  0  0
    4.0033    0.3550   -0.1566 C   0  0  0  0  0  0  0  0  0  0  0  0
    3.1484   -0.7049   -0.4597 C   0  0  0  0  0  0  0  0  0  0  0  0
    3.5334   -1.7084   -0.6901 H   0  0  0  0  0  0  0  0  0  0  0  0
    1.7494   -0.5225   -0.4741 C   0  0  0  0  0  0  0  0  0  0  0  0
    0.9204   -1.7188   -0.8499 C   0  0  0  0  0  0  0  0  0  0  0  0
  3 14  1  0  0  0  0
  4 14  2  0  0  0  0
  5  2  1  0  0  0  0
  5  6  1  0  0  0  0
  6  8  2  0  0  0  0
  6  7  1  0  0  0  0
  8  9  1  0  0  0  0
 10  1  1  0  0  0  0
 10  8  1  0  0  0  0
 11 10  2  0  0  0  0
 12 11  1  0  0  0  0
 13 11  1  0  0  0  0
 13  5  2  0  0  0  0
 14 13  1  0  0  0  0
M  CHG  2   2  -1   3  -1
M  END
