1,2
 OpenBabel05122313063D

 24 24  0  0  1  0  0  0  0  0999 V2000
   -0.9534    1.6244   -0.8145 O   0  5  0  0  0  0  0  0  0  0  0  0
    0.8824    0.1875    0.5062 O   0  0  0  0  0  1  0  0  0  0  0  0
    3.6017   -0.2517   -1.0930 O   0  0  0  0  0  0  0  0  0  0  0  0
    4.2743   -1.2034    0.8653 O   0  0  0  0  0  0  0  0  0  0  0  0
    2.4390    1.8611    0.3443 N   0  0  0  0  0  0  0  0  0  0  0  0
    0.2085    2.1828   -0.5967 C   0  0  0  0  0  0  0  0  0  0  0  0
    1.1796    1.3726    0.1158 C   0  0  1  0  0  3  0  0  0  0  0  0
    2.8285    3.1158   -0.0930 C   0  0  0  0  0  0  0  0  0  0  0  0
    3.8590    3.4089    0.1407 H   0  0  0  0  0  0  0  0  0  0  0  0
    1.9238    3.9111   -0.7638 C   0  0  0  0  0  0  0  0  0  0  0  0
    2.2421    4.9100   -1.0928 H   0  0  0  0  0  0  0  0  0  0  0  0
    0.6074    3.4559   -1.0294 C   0  0  0  0  0  0  0  0  0  0  0  0
   -0.1126    4.0834   -1.5733 H   0  0  0  0  0  0  0  0  0  0  0  0
    3.3622    0.9598    1.0129 C   0  0  0  0  0  0  0  0  0  0  0  0
    2.9055    0.5643    1.9404 H   0  0  0  0  0  0  0  0  0  0  0  0
    4.2807    1.5154    1.2844 H   0  0  0  0  0  0  0  0  0  0  0  0
    3.7404   -0.2189    0.1119 C   0  0  0  0  0  0  0  0  0  0  0  0
    4.7439   -2.3751    0.1540 C   0  0  0  0  0  0  0  0  0  0  0  0
    4.0193   -2.6126   -0.6510 H   0  0  0  0  0  0  0  0  0  0  0  0
    4.7229   -3.1823    0.9114 H   0  0  0  0  0  0  0  0  0  0  0  0
    6.1391   -2.1669   -0.4095 C   0  0  0  0  0  0  0  0  0  0  0  0
    6.5024   -3.1054   -0.8746 H   0  0  0  0  0  0  0  0  0  0  0  0
    6.8522   -1.8793    0.3885 H   0  0  0  0  0  0  0  0  0  0  0  0
    6.1329   -1.3796   -1.1882 H   0  0  0  0  0  0  0  0  0  0  0  0
  1  6  1  0  0  0  0
  3 17  2  0  0  0  0
  5 14  1  0  0  0  0
  6  7  1  0  0  0  0
  7  5  1  0  0  0  0
  7  2  1  6  0  0  0
  8  9  1  0  0  0  0
  8  5  1  0  0  0  0
 10  8  2  0  0  0  0
 11 10  1  0  0  0  0
 12 10  1  0  0  0  0
 12  6  2  0  0  0  0
 13 12  1  0  0  0  0
 14 16  1  0  0  0  0
 14 15  1  0  0  0  0
 17  4  1  0  0  0  0
 17 14  1  0  0  0  0
 18  4  1  0  0  0  0
 18 20  1  0  0  0  0
 19 18  1  0  0  0  0
 21 18  1  0  0  0  0
 21 23  1  0  0  0  0
 22 21  1  0  0  0  0
 24 21  1  0  0  0  0
M  CHG  1   1  -1
M  END
