1,8
 OpenBabel05122313063D

 36 38  0  0  0  0  0  0  0  0999 V2000
    1.9051   -0.9664    0.2468 O   0  5  0  0  0  0  0  0  0  0  0  0
    0.7028   -0.4873    0.2024 C   0  0  0  0  0  0  0  0  0  0  0  0
   -0.4956   -1.1936    0.4715 C   0  0  0  0  0  0  0  0  0  0  0  0
   -1.7487   -0.5579    0.3544 C   0  0  0  0  0  0  0  0  0  0  0  0
   -1.8335    0.8377   -0.0352 C   0  0  0  0  0  0  0  0  0  0  0  0
   -0.6429    1.5460   -0.3145 C   0  0  0  0  0  0  0  0  0  0  0  0
    0.5969    0.9033   -0.1940 C   0  0  0  0  0  0  0  0  0  0  0  0
    1.7641    1.4864   -0.4622 O   0  5  0  0  0  0  0  0  0  0  0  0
   -2.9457   -1.2827    0.5921 C   0  0  0  0  0  0  0  0  0  0  0  0
   -4.0011   -1.8955    0.7702 C   0  0  0  0  0  0  0  0  0  0  0  0
   -5.2390   -2.5711    0.9570 C   0  0  0  0  0  0  0  0  0  0  0  0
   -5.3072   -3.7961    1.6715 C   0  0  0  0  0  0  0  0  0  0  0  0
   -6.5342   -4.4441    1.8525 C   0  0  0  0  0  0  0  0  0  0  0  0
   -7.7152   -3.8919    1.3280 C   0  0  0  0  0  0  0  0  0  0  0  0
   -7.6604   -2.6819    0.6149 C   0  0  0  0  0  0  0  0  0  0  0  0
   -6.4394   -2.0253    0.4274 C   0  0  0  0  0  0  0  0  0  0  0  0
   -3.0966    1.4740   -0.1211 C   0  0  0  0  0  0  0  0  0  0  0  0
   -4.2073    2.0096   -0.1739 C   0  0  0  0  0  0  0  0  0  0  0  0
   -5.5020    2.5962   -0.2117 C   0  0  0  0  0  0  0  0  0  0  0  0
   -6.5984    1.9580    0.4298 C   0  0  0  0  0  0  0  0  0  0  0  0
   -7.8758    2.5268    0.3877 C   0  0  0  0  0  0  0  0  0  0  0  0
   -8.0933    3.7408   -0.2866 C   0  0  0  0  0  0  0  0  0  0  0  0
   -7.0164    4.3853   -0.9190 C   0  0  0  0  0  0  0  0  0  0  0  0
   -5.7347    3.8248   -0.8854 C   0  0  0  0  0  0  0  0  0  0  0  0
   -0.4392   -2.2508    0.7657 H   0  0  0  0  0  0  0  0  0  0  0  0
   -0.6826    2.6045   -0.6078 H   0  0  0  0  0  0  0  0  0  0  0  0
   -4.3818   -4.2240    2.0835 H   0  0  0  0  0  0  0  0  0  0  0  0
   -6.5709   -5.3919    2.4112 H   0  0  0  0  0  0  0  0  0  0  0  0
   -8.6778   -4.4048    1.4742 H   0  0  0  0  0  0  0  0  0  0  0  0
   -8.5810   -2.2451    0.1983 H   0  0  0  0  0  0  0  0  0  0  0  0
   -6.3911   -1.0822   -0.1359 H   0  0  0  0  0  0  0  0  0  0  0  0
   -6.4233    1.0147    0.9670 H   0  0  0  0  0  0  0  0  0  0  0  0
   -8.7124    2.0183    0.8913 H   0  0  0  0  0  0  0  0  0  0  0  0
   -9.0995    4.1854   -0.3165 H   0  0  0  0  0  0  0  0  0  0  0  0
   -7.1786    5.3382   -1.4460 H   0  0  0  0  0  0  0  0  0  0  0  0
   -4.8916    4.3275   -1.3812 H   0  0  0  0  0  0  0  0  0  0  0  0
  2  1  1  0  0  0  0
  2  3  1  0  0  0  0
  3 25  1  0  0  0  0
  4  3  2  0  0  0  0
  4  9  1  0  0  0  0
  5  4  1  0  0  0  0
  6  7  1  0  0  0  0
  6  5  2  0  0  0  0
  7  2  2  0  0  0  0
  8  7  1  0  0  0  0
  9 10  3  0  0  0  0
 10 11  1  0  0  0  0
 11 12  1  0  0  0  0
 12 13  2  0  0  0  0
 12 27  1  0  0  0  0
 13 28  1  0  0  0  0
 14 29  1  0  0  0  0
 14 13  1  0  0  0  0
 15 14  2  0  0  0  0
 16 15  1  0  0  0  0
 16 11  2  0  0  0  0
 17  5  1  0  0  0  0
 18 17  3  0  0  0  0
 19 18  1  0  0  0  0
 19 20  1  0  0  0  0
 20 32  1  0  0  0  0
 21 20  2  0  0  0  0
 21 33  1  0  0  0  0
 22 21  1  0  0  0  0
 23 24  1  0  0  0  0
 23 22  2  0  0  0  0
 24 19  2  0  0  0  0
 26  6  1  0  0  0  0
 30 15  1  0  0  0  0
 31 16  1  0  0  0  0
 34 22  1  0  0  0  0
 35 23  1  0  0  0  0
 36 24  1  0  0  0  0
M  CHG  2   1  -1   8  -1
M  END
