1,2
 OpenBabel05122313063D

 30 30  0  0  1  0  0  0  0  0999 V2000
   -0.5074    1.8883   -1.8241 O   0  0  0  0  0  1  0  0  0  0  0  0
   -0.6465   -1.8081   -1.2318 O   0  5  0  0  0  0  0  0  0  0  0  0
   -2.9603    0.4897   -1.1086 C   0  0  2  0  0  3  0  0  0  0  0  0
   -3.4793   -0.6423   -0.4761 C   0  0  2  0  0  3  0  0  0  0  0  0
   -4.5781   -0.5032    0.5659 C   0  0  0  0  0  0  0  0  0  0  0  0
   -4.1526   -0.7528    1.5661 H   0  0  0  0  0  0  0  0  0  0  0  0
   -5.3422   -1.2903    0.3811 H   0  0  0  0  0  0  0  0  0  0  0  0
   -5.2249    0.8825    0.6192 C   0  0  0  0  0  0  0  0  0  0  0  0
   -5.8715    0.9675    1.5175 H   0  0  0  0  0  0  0  0  0  0  0  0
   -5.8870    1.0231   -0.2640 H   0  0  0  0  0  0  0  0  0  0  0  0
   -4.1419    1.9624    0.6087 C   0  0  0  0  0  0  0  0  0  0  0  0
   -3.4618    1.8007    1.4744 H   0  0  0  0  0  0  0  0  0  0  0  0
   -4.5796    2.9737    0.7392 H   0  0  0  0  0  0  0  0  0  0  0  0
   -3.3462    1.9016   -0.6967 C   0  0  0  0  0  0  0  0  0  0  0  0
   -3.9542    2.3494   -1.5171 H   0  0  0  0  0  0  0  0  0  0  0  0
   -2.4318    2.5275   -0.6385 H   0  0  0  0  0  0  0  0  0  0  0  0
   -2.1699    0.3113   -2.3195 C   0  0  0  0  0  3  0  0  0  0  0  0
   -2.4378   -0.5343   -2.9779 H   0  0  0  0  0  0  0  0  0  0  0  0
   -1.1120    1.1828   -2.7551 C   0  0  2  0  0  3  0  0  0  0  0  0
   -0.6110    1.2325   -4.1734 C   0  0  0  0  0  0  0  0  0  0  0  0
    0.4966    1.2290   -4.1961 H   0  0  0  0  0  0  0  0  0  0  0  0
   -0.9513    2.1771   -4.6492 H   0  0  0  0  0  0  0  0  0  0  0  0
   -1.0000    0.3890   -4.7747 H   0  0  0  0  0  0  0  0  0  0  0  0
   -3.0250   -1.9915   -0.7102 C   0  0  0  0  0  0  0  0  0  0  0  0
   -3.7418   -2.7787   -0.4228 H   0  0  0  0  0  0  0  0  0  0  0  0
   -1.7454   -2.4795   -0.9981 C   0  0  0  0  0  0  0  0  0  0  0  0
   -1.4980   -3.9748   -0.9530 C   0  0  0  0  0  0  0  0  0  0  0  0
   -0.9847   -4.3022   -1.8807 H   0  0  0  0  0  0  0  0  0  0  0  0
   -2.4333   -4.5532   -0.8355 H   0  0  0  0  0  0  0  0  0  0  0  0
   -0.8178   -4.2214   -0.1091 H   0  0  0  0  0  0  0  0  0  0  0  0
  2 26  1  0  0  0  0
  3 17  1  6  0  0  0
  3 14  1  0  0  0  0
  3  4  1  0  0  0  0
  4 24  1  1  0  0  0
  4  5  1  0  0  0  0
  5  8  1  0  0  0  0
  5  6  1  0  0  0  0
  7  5  1  0  0  0  0
  8  9  1  0  0  0  0
 10  8  1  0  0  0  0
 11  8  1  0  0  0  0
 11 13  1  0  0  0  0
 11 12  1  0  0  0  0
 14 16  1  0  0  0  0
 14 11  1  0  0  0  0
 15 14  1  0  0  0  0
 18 17  1  0  0  0  0
 19 17  1  0  0  0  0
 19  1  1  1  0  0  0
 20 19  1  0  0  0  0
 21 20  1  0  0  0  0
 22 20  1  0  0  0  0
 23 20  1  0  0  0  0
 24 25  1  0  0  0  0
 26 27  1  0  0  0  0
 26 24  2  0  0  0  0
 27 29  1  0  0  0  0
 27 30  1  0  0  0  0
 28 27  1  0  0  0  0
M  CHG  1   2  -1
M  END
