1,2
 OpenBabel05122313063D

 35 34  0  0  0  0  0  0  0  0999 V2000
   -0.0491   -0.8875    1.8686 O   0  0  0  0  0  1  0  0  0  0  0  0
    0.6258   -1.1559   -1.0275 O   0  0  0  0  0  1  0  0  0  0  0  0
    0.6993   -0.7466    3.0255 C   0  0  0  0  0  0  0  0  0  0  0  0
    0.3565   -1.4701    3.8054 H   0  0  0  0  0  0  0  0  0  0  0  0
    0.5722    0.2766    3.4579 H   0  0  0  0  0  0  0  0  0  0  0  0
    2.1983   -0.9865    2.7694 C   0  0  0  0  0  0  0  0  0  0  0  0
    2.7562   -0.8650    3.7245 H   0  0  0  0  0  0  0  0  0  0  0  0
    2.3395   -2.0405    2.4397 H   0  0  0  0  0  0  0  0  0  0  0  0
    2.7275   -0.0403    1.6884 C   0  0  0  0  0  0  0  0  0  0  0  0
    2.6014    1.0098    2.0167 H   0  0  0  0  0  0  0  0  0  0  0  0
    2.0738   -0.1643    0.8016 H   0  0  0  0  0  0  0  0  0  0  0  0
    4.1672   -0.3251    1.3115 C   0  0  0  0  0  0  0  0  0  0  0  0
    4.8858    0.0554    2.0664 H   0  0  0  0  0  0  0  0  0  0  0  0
    4.3462   -1.4119    1.2009 H   0  0  0  0  0  0  0  0  0  0  0  0
    6.0289   -0.0686   -0.2614 C   0  0  0  0  0  0  0  0  0  0  0  0
    6.6467    0.2800    0.5860 H   0  0  0  0  0  0  0  0  0  0  0  0
    6.3696    0.4104   -1.1968 H   0  0  0  0  0  0  0  0  0  0  0  0
    6.1066   -1.1662   -0.3531 H   0  0  0  0  0  0  0  0  0  0  0  0
    4.4745    1.7980    0.0598 C   0  0  0  0  0  0  0  0  0  0  0  0
    5.0767    2.1677    0.9095 H   0  0  0  0  0  0  0  0  0  0  0  0
    3.4099    2.0704    0.1843 H   0  0  0  0  0  0  0  0  0  0  0  0
    4.8469    2.2280   -0.8873 H   0  0  0  0  0  0  0  0  0  0  0  0
    3.7296   -0.1732   -1.1822 C   0  0  0  0  0  0  0  0  0  0  0  0
    2.7817    0.3942   -1.0873 H   0  0  0  0  0  0  0  0  0  0  0  0
    4.2440    0.1902   -2.0945 H   0  0  0  0  0  0  0  0  0  0  0  0
    3.4329   -1.6613   -1.2535 C   0  0  0  0  0  0  0  0  0  0  0  0
    4.3554   -2.2681   -1.3779 H   0  0  0  0  0  0  0  0  0  0  0  0
    2.9292   -1.9852   -0.3214 H   0  0  0  0  0  0  0  0  0  0  0  0
    2.4538   -1.9548   -2.4047 C   0  0  0  0  0  0  0  0  0  0  0  0
    2.2140   -3.0383   -2.3713 H   0  0  0  0  0  0  0  0  0  0  0  0
    2.9326   -1.7628   -3.3899 H   0  0  0  0  0  0  0  0  0  0  0  0
    1.1538   -1.1317   -2.3133 C   0  0  0  0  0  0  0  0  0  0  0  0
    1.3474   -0.0764   -2.6333 H   0  0  0  0  0  0  0  0  0  0  0  0
    0.4342   -1.5411   -3.0634 H   0  0  0  0  0  0  0  0  0  0  0  0
    4.6010    0.3004   -0.0147 N   0  3  0  0  0  0  0  0  0  0  0  0
  1  3  1  0  0  0  0
  3  5  1  0  0  0  0
  3  4  1  0  0  0  0
  6  3  1  0  0  0  0
  6  7  1  0  0  0  0
  8  6  1  0  0  0  0
  9 10  1  0  0  0  0
  9  6  1  0  0  0  0
 11  9  1  0  0  0  0
 12  9  1  0  0  0  0
 12 13  1  0  0  0  0
 14 12  1  0  0  0  0
 15 35  1  0  0  0  0
 15 16  1  0  0  0  0
 17 15  1  0  0  0  0
 18 15  1  0  0  0  0
 19 21  1  0  0  0  0
 19 20  1  0  0  0  0
 22 19  1  0  0  0  0
 23 24  1  0  0  0  0
 23 35  1  0  0  0  0
 25 23  1  0  0  0  0
 26 23  1  0  0  0  0
 26 28  1  0  0  0  0
 27 26  1  0  0  0  0
 29 30  1  0  0  0  0
 29 32  1  0  0  0  0
 29 26  1  0  0  0  0
 31 29  1  0  0  0  0
 32  2  1  0  0  0  0
 33 32  1  0  0  0  0
 34 32  1  0  0  0  0
 35 19  1  0  0  0  0
 35 12  1  0  0  0  0
M  CHG  1  35   1
M  END
