7,8
 OpenBabel05122313063D

 11 10  0  0  0  0  0  0  0  0999 V2000
    3.8882    0.2747    1.3628 F   0  0  0  0  0  0  0  0  0  0  0  0
    2.5497    1.9157    0.8467 F   0  0  0  0  0  0  0  0  0  0  0  0
    3.9176    1.1223   -0.6498 F   0  0  0  0  0  0  0  0  0  0  0  0
    1.6849   -2.4314   -0.9970 F   0  0  0  0  0  0  0  0  0  0  0  0
    3.3586   -2.2028    0.3799 F   0  0  0  0  0  0  0  0  0  0  0  0
    3.4759   -1.3645   -1.6332 F   0  0  0  0  0  0  0  0  0  0  0  0
    1.1612   -0.5209    1.0049 O   0  0  0  0  0  0  0  0  0  0  0  0
    1.2213    0.3210   -1.0656 O   0  0  0  0  0  0  0  0  0  0  0  0
    2.0015   -0.2418   -0.0696 C   0  0  0  0  0  0  0  0  0  0  0  0
    3.1141    0.7623    0.3712 C   0  0  0  0  0  0  0  0  0  0  0  0
    2.6487   -1.5715   -0.5837 C   0  0  0  0  0  0  0  0  0  0  0  0
  3 10  1  0  0  0  0
  4 11  1  0  0  0  0
  6 11  1  0  0  0  0
  8  9  1  0  0  0  0
  9 10  1  0  0  0  0
  9  7  1  0  0  0  0
 10  2  1  0  0  0  0
 10  1  1  0  0  0  0
 11  9  1  0  0  0  0
 11  5  1  0  0  0  0
M  END
