1,2
 OpenBabel05122313063D

 28 29  0  0  1  0  0  0  0  0999 V2000
    1.3502    1.4760   -0.0410 O   0  0  0  0  0  1  0  0  0  0  0  0
    1.3502   -1.4760   -0.0408 O   0  5  0  0  0  0  0  0  0  0  0  0
    3.0021    3.6032   -0.9737 C   0  0  0  0  0  0  0  0  0  0  0  0
    3.7388    4.7973   -1.0280 C   0  0  0  0  0  0  0  0  0  0  0  0
    4.9345    4.9141   -0.2988 C   0  0  0  0  0  0  0  0  0  0  0  0
    5.3910    3.8358    0.4778 C   0  0  0  0  0  0  0  0  0  0  0  0
    4.6451    2.6476    0.5185 C   0  0  0  0  0  0  0  0  0  0  0  0
    3.4383    2.5024   -0.2002 C   0  0  0  0  0  0  0  0  0  0  0  0
    2.6171    1.2576   -0.1288 C   0  0  2  0  0  3  0  0  0  0  0  0
    3.2551   -0.0000   -0.1834 C   0  0  0  0  0  0  0  0  0  0  0  0
    4.3464   -0.0000   -0.2685 H   0  0  0  0  0  0  0  0  0  0  0  0
    2.6171   -1.2576   -0.1287 C   0  0  0  0  0  0  0  0  0  0  0  0
    3.4383   -2.5024   -0.1999 C   0  0  0  0  0  0  0  0  0  0  0  0
    3.0021   -3.6033   -0.9734 C   0  0  0  0  0  0  0  0  0  0  0  0
    3.7388   -4.7974   -1.0276 C   0  0  0  0  0  0  0  0  0  0  0  0
    4.9345   -4.9141   -0.2983 C   0  0  0  0  0  0  0  0  0  0  0  0
    5.3910   -3.8357    0.4782 C   0  0  0  0  0  0  0  0  0  0  0  0
    4.6451   -2.6475    0.5188 C   0  0  0  0  0  0  0  0  0  0  0  0
    1.8937    3.5303   -1.7082 F   0  0  0  0  0  0  0  0  0  0  0  0
    3.3176    5.8163   -1.7784 F   0  0  0  0  0  0  0  0  0  0  0  0
    5.6360    6.0440   -0.3465 F   0  0  0  0  0  0  0  0  0  0  0  0
    6.5207    3.9498    1.1781 F   0  0  0  0  0  0  0  0  0  0  0  0
    5.1095    1.6540    1.2855 F   0  0  0  0  0  0  0  0  0  0  0  0
    1.8937   -3.5304   -1.7079 F   0  0  0  0  0  0  0  0  0  0  0  0
    3.3177   -5.8165   -1.7779 F   0  0  0  0  0  0  0  0  0  0  0  0
    5.6360   -6.0440   -0.3460 F   0  0  0  0  0  0  0  0  0  0  0  0
    6.5207   -3.9497    1.1785 F   0  0  0  0  0  0  0  0  0  0  0  0
    5.1095   -1.6539    1.2857 F   0  0  0  0  0  0  0  0  0  0  0  0
  3  8  1  0  0  0  0
  4  3  2  0  0  0  0
  4  5  1  0  0  0  0
  5  6  2  0  0  0  0
  6  7  1  0  0  0  0
  6 22  1  0  0  0  0
  7 23  1  0  0  0  0
  8  9  1  0  0  0  0
  8  7  2  0  0  0  0
  9  1  1  6  0  0  0
 10  9  1  0  0  0  0
 10 12  2  0  0  0  0
 11 10  1  0  0  0  0
 12  2  1  0  0  0  0
 13 12  1  0  0  0  0
 13 18  1  0  0  0  0
 14 13  2  0  0  0  0
 15 14  1  0  0  0  0
 15 16  2  0  0  0  0
 16 17  1  0  0  0  0
 17 18  2  0  0  0  0
 17 27  1  0  0  0  0
 18 28  1  0  0  0  0
 19  3  1  0  0  0  0
 20  4  1  0  0  0  0
 21  5  1  0  0  0  0
 24 14  1  0  0  0  0
 25 15  1  0  0  0  0
 26 16  1  0  0  0  0
M  CHG  1   2  -1
M  END
