1,2
 OpenBabel05122313063D

  8  7  0  0  0  0  0  0  0  0999 V2000
   -0.3514   -2.7410   -0.5818 O   0  5  0  0  0  0  0  0  0  0  0  0
   -2.1672   -1.6033   -1.2424 O   0  0  0  0  0  0  0  0  0  0  0  0
   -3.7234   -3.9761   -0.9470 C   0  0  0  0  0  3  0  0  0  0  0  0
   -4.2441   -3.0539   -1.2531 H   0  0  0  0  0  0  0  0  0  0  0  0
   -4.3073   -4.9034   -0.8349 H   0  0  0  0  0  0  0  0  0  0  0  0
   -2.3970   -3.9346   -0.7295 C   0  0  0  0  0  0  0  0  0  0  0  0
   -1.8289   -4.8292   -0.4256 H   0  0  0  0  0  0  0  0  0  0  0  0
   -1.5999   -2.6683   -0.8742 C   0  0  0  0  0  0  0  0  0  0  0  0
  2  8  2  0  0  0  0
  3  5  1  0  0  0  0
  3  6  1  0  0  0  0
  4  3  1  0  0  0  0
  6  7  1  0  0  0  0
  8  6  2  0  0  0  0
  8  1  1  0  0  0  0
M  CHG  1   1  -1
M  END
