1,2
 OpenBabel05122313063D

 33 32  0  0  1  0  0  0  0  0999 V2000
    1.9456    0.0390   -0.3145 O   0  5  0  0  0  0  0  0  0  0  0  0
   -0.1274    1.9978   -0.3683 O   0  0  0  0  0  1  0  0  0  0  0  0
    6.3300   -1.0903   -0.2250 O   0  0  0  0  0  0  0  0  0  0  0  0
    0.3882    4.2582    0.1148 C   0  0  0  0  0  0  0  0  0  0  0  0
    0.8296    2.7832   -0.0452 C   0  0  1  0  0  3  0  0  0  0  0  0
    2.1707    2.3853    0.1559 C   0  0  0  0  0  0  0  0  0  0  0  0
    2.6476    1.0616    0.0029 C   0  0  0  0  0  0  0  0  0  0  0  0
    4.1270    0.7829    0.2107 C   0  0  0  0  0  0  0  0  0  0  0  0
    4.3951   -0.4804    1.0366 C   0  0  0  0  0  0  0  0  0  0  0  0
    5.8705   -0.8476    1.0885 C   0  0  0  0  0  0  0  0  0  0  0  0
    7.7015   -1.3863   -0.2860 C   0  0  0  0  0  0  0  0  0  0  0  0
    1.5253    5.1999    0.5339 C   0  0  0  0  0  0  0  0  0  0  0  0
   -0.1841    4.7087   -1.2474 C   0  0  0  0  0  0  0  0  0  0  0  0
   -0.7298    4.2860    1.1799 C   0  0  0  0  0  0  0  0  0  0  0  0
    2.9071    3.1456    0.4378 H   0  0  0  0  0  0  0  0  0  0  0  0
    4.6227    1.6675    0.6602 H   0  0  0  0  0  0  0  0  0  0  0  0
    4.5841    0.6334   -0.7923 H   0  0  0  0  0  0  0  0  0  0  0  0
    3.8238   -1.3204    0.5909 H   0  0  0  0  0  0  0  0  0  0  0  0
    4.0233   -0.3490    2.0753 H   0  0  0  0  0  0  0  0  0  0  0  0
    6.0202   -1.7526    1.7312 H   0  0  0  0  0  0  0  0  0  0  0  0
    6.4637   -0.0213    1.5618 H   0  0  0  0  0  0  0  0  0  0  0  0
    7.9655   -1.5566   -1.3481 H   0  0  0  0  0  0  0  0  0  0  0  0
    8.3326   -0.5507    0.1075 H   0  0  0  0  0  0  0  0  0  0  0  0
    7.9621   -2.3056    0.2955 H   0  0  0  0  0  0  0  0  0  0  0  0
    1.1341    6.2329    0.6336 H   0  0  0  0  0  0  0  0  0  0  0  0
    1.9607    4.9130    1.5122 H   0  0  0  0  0  0  0  0  0  0  0  0
    2.3404    5.2248   -0.2170 H   0  0  0  0  0  0  0  0  0  0  0  0
   -0.5875    5.7393   -1.1716 H   0  0  0  0  0  0  0  0  0  0  0  0
    0.6012    4.7032   -2.0308 H   0  0  0  0  0  0  0  0  0  0  0  0
   -0.9968    4.0292   -1.5679 H   0  0  0  0  0  0  0  0  0  0  0  0
   -1.1472    5.3095    1.2719 H   0  0  0  0  0  0  0  0  0  0  0  0
   -1.5438    3.5902    0.9002 H   0  0  0  0  0  0  0  0  0  0  0  0
   -0.3407    3.9828    2.1737 H   0  0  0  0  0  0  0  0  0  0  0  0
  1  7  1  0  0  0  0
  3 10  1  0  0  0  0
  4 12  1  0  0  0  0
  4 14  1  0  0  0  0
  5  2  1  1  0  0  0
  5  4  1  0  0  0  0
  5  6  1  0  0  0  0
  6 15  1  0  0  0  0
  7  6  2  0  0  0  0
  7  8  1  0  0  0  0
  8 16  1  0  0  0  0
  8  9  1  0  0  0  0
  9 10  1  0  0  0  0
  9 19  1  0  0  0  0
 10 21  1  0  0  0  0
 10 20  1  0  0  0  0
 11  3  1  0  0  0  0
 11 23  1  0  0  0  0
 11 24  1  0  0  0  0
 12 25  1  0  0  0  0
 12 26  1  0  0  0  0
 13 28  1  0  0  0  0
 13  4  1  0  0  0  0
 14 31  1  0  0  0  0
 14 33  1  0  0  0  0
 17  8  1  0  0  0  0
 18  9  1  0  0  0  0
 22 11  1  0  0  0  0
 27 12  1  0  0  0  0
 29 13  1  0  0  0  0
 30 13  1  0  0  0  0
 32 14  1  0  0  0  0
M  CHG  1   1  -1
M  END
