1,6
 OpenBabel05122313063D

 23 23  0  0  1  0  0  0  0  0999 V2000
   -1.8905    1.3507   -1.3907 O   0  5  0  0  0  0  0  0  0  0  0  0
   -3.6872    2.2360   -0.3136 O   0  0  0  0  0  0  0  0  0  0  0  0
   -1.5367   -2.7303    1.6321 O   0  0  0  0  0  0  0  0  0  0  0  0
    2.3703   -0.2169    2.3119 O   0  0  0  0  0  0  0  0  0  0  0  0
    0.8783    2.1270    2.2210 O   0  0  0  0  0  0  0  0  0  0  0  0
   -1.7779   -1.4671   -1.1099 O   0  0  0  0  0  1  0  0  0  0  0  0
   -3.0290   -1.1512   -1.1467 N   0  0  0  0  0  0  0  0  0  0  0  0
   -2.9766    1.3272   -0.7101 C   0  0  0  0  0  0  0  0  0  0  0  0
   -3.5237   -0.1539   -0.2636 C   0  0  2  0  0  0  0  0  0  0  0  0
   -3.1906   -0.3566    1.2340 C   0  0  0  0  0  0  0  0  0  0  0  0
   -1.7256   -0.2885    1.6158 C   0  0  0  0  0  0  0  0  0  0  0  0
   -0.9380   -1.5386    1.7939 C   0  0  0  0  0  0  0  0  0  0  0  0
    0.4008   -1.5213    2.1062 C   0  0  0  0  0  0  0  0  0  0  0  0
    1.1443   -0.2808    2.2097 C   0  0  0  0  0  0  0  0  0  0  0  0
    0.3244    1.0418    2.1023 C   0  0  0  0  0  0  0  0  0  0  0  0
   -1.1165    0.9228    1.7941 C   0  0  0  0  0  0  0  0  0  0  0  0
   -3.4865   -1.2256   -2.0750 H   0  0  0  0  0  0  0  0  0  0  0  0
   -2.4698   -2.6131    1.3693 H   0  0  0  0  0  0  0  0  0  0  0  0
   -4.6202   -0.0931   -0.3992 H   0  0  0  0  0  0  0  0  0  0  0  0
   -3.6750   -1.2973    1.5772 H   0  0  0  0  0  0  0  0  0  0  0  0
   -3.7296    0.4566    1.7579 H   0  0  0  0  0  0  0  0  0  0  0  0
    0.9458   -2.4700    2.2132 H   0  0  0  0  0  0  0  0  0  0  0  0
   -1.6793    1.8652    1.7018 H   0  0  0  0  0  0  0  0  0  0  0  0
  1  8  1  0  0  0  0
  3 12  1  0  0  0  0
  7  6  1  0  0  0  0
  7  9  1  0  0  0  0
  8  2  2  0  0  0  0
  8  9  1  0  0  0  0
  9 19  1  6  0  0  0
  9 10  1  0  0  0  0
 10 20  1  0  0  0  0
 10 11  1  0  0  0  0
 10 21  1  0  0  0  0
 11 12  1  0  0  0  0
 11 16  2  0  0  0  0
 12 13  2  0  0  0  0
 13 14  1  0  0  0  0
 13 22  1  0  0  0  0
 14  4  2  0  0  0  0
 15 14  1  0  0  0  0
 15  5  2  0  0  0  0
 16 15  1  0  0  0  0
 17  7  1  0  0  0  0
 18  3  1  0  0  0  0
 23 16  1  0  0  0  0
M  CHG  1   1  -1
M  END
