1,4
 OpenBabel05122313063D

 26 25  0  0  1  0  0  0  0  0999 V2000
   -1.1718    1.2423   -0.1521 O   0  0  0  0  0  1  0  0  0  0  0  0
   -0.7099    2.4248    0.5105 C   0  0  2  0  0  0  0  0  0  0  0  0
    0.8301    2.4475    0.4165 C   0  0  1  0  0  0  0  0  0  0  0  0
    1.2686    1.0860    0.4319 O   0  0  0  0  0  1  0  0  0  0  0  0
   -1.2437    2.4399    1.9450 C   0  0  0  0  0  0  0  0  0  0  0  0
   -2.7704    2.3762    2.0277 C   0  0  0  0  0  0  0  0  0  0  0  0
   -3.2951    2.2426    3.4566 C   0  0  0  0  0  0  0  0  0  0  0  0
    1.3507    3.1633   -0.8336 C   0  0  0  0  0  0  0  0  0  0  0  0
    2.8682    3.0631   -1.0052 C   0  0  0  0  0  0  0  0  0  0  0  0
    3.3717    3.7158   -2.2920 C   0  0  0  0  0  0  0  0  0  0  0  0
   -1.1323    3.2929   -0.0484 H   0  0  0  0  0  0  0  0  0  0  0  0
    1.2618    2.9285    1.3247 H   0  0  0  0  0  0  0  0  0  0  0  0
   -0.8681    3.3549    2.4550 H   0  0  0  0  0  0  0  0  0  0  0  0
   -0.7936    1.5770    2.4867 H   0  0  0  0  0  0  0  0  0  0  0  0
   -3.1960    3.2878    1.5521 H   0  0  0  0  0  0  0  0  0  0  0  0
   -3.1227    1.5245    1.4107 H   0  0  0  0  0  0  0  0  0  0  0  0
   -4.4025    2.1921    3.4822 H   0  0  0  0  0  0  0  0  0  0  0  0
   -2.9844    3.0990    4.0918 H   0  0  0  0  0  0  0  0  0  0  0  0
   -2.9080    1.3207    3.9401 H   0  0  0  0  0  0  0  0  0  0  0  0
    0.8439    2.7312   -1.7262 H   0  0  0  0  0  0  0  0  0  0  0  0
    1.0365    4.2300   -0.7844 H   0  0  0  0  0  0  0  0  0  0  0  0
    3.1545    1.9905   -0.9824 H   0  0  0  0  0  0  0  0  0  0  0  0
    3.3661    3.5243   -0.1229 H   0  0  0  0  0  0  0  0  0  0  0  0
    4.4727    3.6303   -2.3912 H   0  0  0  0  0  0  0  0  0  0  0  0
    2.9176    3.2383   -3.1853 H   0  0  0  0  0  0  0  0  0  0  0  0
    3.1157    4.7958   -2.3300 H   0  0  0  0  0  0  0  0  0  0  0  0
  1  2  1  0  0  0  0
  2 11  1  6  0  0  0
  2  5  1  0  0  0  0
  3  4  1  0  0  0  0
  3  2  1  0  0  0  0
  3 12  1  1  0  0  0
  5  6  1  0  0  0  0
  5 13  1  0  0  0  0
  5 14  1  0  0  0  0
  6  7  1  0  0  0  0
  7 17  1  0  0  0  0
  7 19  1  0  0  0  0
  7 18  1  0  0  0  0
  8 21  1  0  0  0  0
  8  3  1  0  0  0  0
  9 22  1  0  0  0  0
  9  8  1  0  0  0  0
  9 23  1  0  0  0  0
 10  9  1  0  0  0  0
 15  6  1  0  0  0  0
 16  6  1  0  0  0  0
 20  8  1  0  0  0  0
 24 10  1  0  0  0  0
 25 10  1  0  0  0  0
 26 10  1  0  0  0  0
M  END
