1,2
 OpenBabel05122313063D

 11 10  0  0  1  0  0  0  0  0999 V2000
   -1.9578    1.0755    0.5245 O   0  0  0  0  0  1  0  0  0  0  0  0
   -1.7428   -1.4526    0.4494 O   0  0  0  0  0  1  0  0  0  0  0  0
   -3.2180    0.4326    0.7884 C   0  0  2  0  0  0  0  0  0  0  0  0
   -3.6792    0.9524    1.6599 H   0  0  0  0  0  0  0  0  0  0  0  0
   -2.8999   -1.0267    1.1606 C   0  0  0  0  0  0  0  0  0  0  0  0
   -2.7057   -1.1264    2.2549 H   0  0  0  0  0  0  0  0  0  0  0  0
   -3.7477   -1.7061    0.9163 H   0  0  0  0  0  0  0  0  0  0  0  0
   -4.1434    0.5634   -0.4207 C   0  0  0  0  0  0  0  0  0  0  0  0
   -4.2619    1.6299   -0.6959 H   0  0  0  0  0  0  0  0  0  0  0  0
   -5.1469    0.1455   -0.1997 H   0  0  0  0  0  0  0  0  0  0  0  0
   -3.7242    0.0280   -1.2969 H   0  0  0  0  0  0  0  0  0  0  0  0
  1  3  1  0  0  0  0
  2  5  1  0  0  0  0
  3  5  1  0  0  0  0
  3  4  1  1  0  0  0
  5  6  1  0  0  0  0
  7  5  1  0  0  0  0
  8 10  1  0  0  0  0
  8  3  1  0  0  0  0
  9  8  1  0  0  0  0
 11  8  1  0  0  0  0
M  END
