1,5
 OpenBabel05122313063D

 50 53  0  0  0  0  0  0  0  0999 V2000
    0.6725   -1.5729   -0.7488 O   0  0  0  0  0  1  0  0  0  0  0  0
   -0.2301   -1.4386    0.4821 P   0  0  0  0  0  4  0  0  0  0  0  0
   -0.1014    0.0798    1.3066 N   0  0  0  0  0  0  0  0  0  0  0  0
   -0.0886    1.5149    0.3329 P   0  0  0  0  0  4  0  0  0  0  0  0
    0.7449    1.3676   -0.9428 O   0  0  0  0  0  1  0  0  0  0  0  0
   -0.7472   -3.3529    2.5087 C   0  0  0  0  0  0  0  0  0  0  0  0
   -0.3266   -4.2748    3.4781 C   0  0  0  0  0  0  0  0  0  0  0  0
    1.0436   -4.4853    3.7025 C   0  0  0  0  0  0  0  0  0  0  0  0
    1.9989   -3.7809    2.9517 C   0  0  0  0  0  0  0  0  0  0  0  0
    1.5925   -2.8613    1.9747 C   0  0  0  0  0  0  0  0  0  0  0  0
    0.2136   -2.6388    1.7654 C   0  0  0  0  0  0  0  0  0  0  0  0
   -3.0187   -1.3024    0.9031 C   0  0  0  0  0  0  0  0  0  0  0  0
   -4.3454   -1.4375    0.4748 C   0  0  0  0  0  0  0  0  0  0  0  0
   -4.6209   -1.8355   -0.8446 C   0  0  0  0  0  0  0  0  0  0  0  0
   -3.5716   -2.0927   -1.7404 C   0  0  0  0  0  0  0  0  0  0  0  0
   -2.2392   -1.9671   -1.3216 C   0  0  0  0  0  0  0  0  0  0  0  0
   -1.9668   -1.5777    0.0053 C   0  0  0  0  0  0  0  0  0  0  0  0
   -0.2250    3.8775    1.8948 C   0  0  0  0  0  0  0  0  0  0  0  0
    0.3516    4.8574    2.7163 C   0  0  0  0  0  0  0  0  0  0  0  0
    1.7010    4.7600    3.0901 C   0  0  0  0  0  0  0  0  0  0  0  0
    2.4836    3.6886    2.6290 C   0  0  0  0  0  0  0  0  0  0  0  0
    1.9213    2.7066    1.8025 C   0  0  0  0  0  0  0  0  0  0  0  0
    0.5551    2.7903    1.4516 C   0  0  0  0  0  0  0  0  0  0  0  0
   -2.8014    1.9843    0.9430 C   0  0  0  0  0  0  0  0  0  0  0  0
   -4.1390    2.1892    0.5828 C   0  0  0  0  0  0  0  0  0  0  0  0
   -4.5078    2.1928   -0.7737 C   0  0  0  0  0  0  0  0  0  0  0  0
   -3.5408    1.9929   -1.7707 C   0  0  0  0  0  0  0  0  0  0  0  0
   -2.1938    1.8080   -1.4232 C   0  0  0  0  0  0  0  0  0  0  0  0
   -1.8279    1.8094   -0.0633 C   0  0  0  0  0  0  0  0  0  0  0  0
    0.7024    0.0659    1.9527 H   0  0  0  0  0  0  0  0  0  0  0  0
   -1.8205   -3.2028    2.3212 H   0  0  0  0  0  0  0  0  0  0  0  0
   -1.0746   -4.8379    4.0562 H   0  0  0  0  0  0  0  0  0  0  0  0
    1.3690   -5.2119    4.4626 H   0  0  0  0  0  0  0  0  0  0  0  0
    3.0725   -3.9555    3.1181 H   0  0  0  0  0  0  0  0  0  0  0  0
    2.3344   -2.3122    1.3706 H   0  0  0  0  0  0  0  0  0  0  0  0
   -2.7965   -0.9574    1.9240 H   0  0  0  0  0  0  0  0  0  0  0  0
   -5.1701   -1.2161    1.1687 H   0  0  0  0  0  0  0  0  0  0  0  0
   -5.6650   -1.9340   -1.1787 H   0  0  0  0  0  0  0  0  0  0  0  0
   -3.7887   -2.3846   -2.7787 H   0  0  0  0  0  0  0  0  0  0  0  0
   -1.4031   -2.1281   -2.0188 H   0  0  0  0  0  0  0  0  0  0  0  0
   -1.2767    3.9707    1.5888 H   0  0  0  0  0  0  0  0  0  0  0  0
   -0.2577    5.7070    3.0594 H   0  0  0  0  0  0  0  0  0  0  0  0
    2.1494    5.5320    3.7336 H   0  0  0  0  0  0  0  0  0  0  0  0
    3.5476    3.6223    2.9013 H   0  0  0  0  0  0  0  0  0  0  0  0
    2.5434    1.8858    1.4051 H   0  0  0  0  0  0  0  0  0  0  0  0
   -2.5149    1.9426    2.0049 H   0  0  0  0  0  0  0  0  0  0  0  0
   -4.9016    2.3324    1.3631 H   0  0  0  0  0  0  0  0  0  0  0  0
   -5.5617    2.3434   -1.0533 H   0  0  0  0  0  0  0  0  0  0  0  0
   -3.8339    1.9769   -2.8310 H   0  0  0  0  0  0  0  0  0  0  0  0
   -1.4238    1.6284   -2.1907 H   0  0  0  0  0  0  0  0  0  0  0  0
  1  2  1  0  0  0  0
  2  3  1  0  0  0  0
  2 11  1  0  0  0  0
  3 30  1  0  0  0  0
  4  3  1  0  0  0  0
  4 23  1  0  0  0  0
  5  4  1  0  0  0  0
  6  7  1  0  0  0  0
  7  8  2  0  0  0  0
  7 32  1  0  0  0  0
  8 33  1  0  0  0  0
  9 34  1  0  0  0  0
  9  8  1  0  0  0  0
 10  9  2  0  0  0  0
 11 10  1  0  0  0  0
 11  6  2  0  0  0  0
 12 36  1  0  0  0  0
 13 12  1  0  0  0  0
 13 37  1  0  0  0  0
 14 13  2  0  0  0  0
 15 16  2  0  0  0  0
 15 14  1  0  0  0  0
 16 17  1  0  0  0  0
 17  2  1  0  0  0  0
 17 12  2  0  0  0  0
 18 19  1  0  0  0  0
 19 42  1  0  0  0  0
 19 20  2  0  0  0  0
 20 43  1  0  0  0  0
 21 44  1  0  0  0  0
 21 20  1  0  0  0  0
 22 21  2  0  0  0  0
 23 22  1  0  0  0  0
 23 18  2  0  0  0  0
 24 46  1  0  0  0  0
 25 24  1  0  0  0  0
 25 47  1  0  0  0  0
 26 25  2  0  0  0  0
 27 28  2  0  0  0  0
 27 26  1  0  0  0  0
 28 29  1  0  0  0  0
 29  4  1  0  0  0  0
 29 24  2  0  0  0  0
 31  6  1  0  0  0  0
 35 10  1  0  0  0  0
 38 14  1  0  0  0  0
 39 15  1  0  0  0  0
 40 16  1  0  0  0  0
 41 18  1  0  0  0  0
 45 22  1  0  0  0  0
 48 26  1  0  0  0  0
 49 27  1  0  0  0  0
 50 28  1  0  0  0  0
M  END
