1,2
 OpenBabel05122313063D

 11 10  0  0  1  0  0  0  0  0999 V2000
    1.6617    1.5569    0.4261 O   0  0  0  0  0  1  0  0  0  0  0  0
    2.0971   -0.8577   -0.2355 O   0  0  0  0  0  1  0  0  0  0  0  0
    2.9775    1.1274    0.7523 C   0  0  0  0  0  0  0  0  0  0  0  0
    3.0295    0.8985    1.8452 H   0  0  0  0  0  0  0  0  0  0  0  0
    3.6936    1.9572    0.5570 H   0  0  0  0  0  0  0  0  0  0  0  0
    3.3182   -0.1197   -0.0746 C   0  0  1  0  0  0  0  0  0  0  0  0
    3.6547    0.2119   -1.0880 H   0  0  0  0  0  0  0  0  0  0  0  0
    4.3852   -1.0096    0.5454 C   0  0  0  0  0  0  0  0  0  0  0  0
    4.5531   -1.9034   -0.0865 H   0  0  0  0  0  0  0  0  0  0  0  0
    4.0685   -1.3559    1.5509 H   0  0  0  0  0  0  0  0  0  0  0  0
    5.3483   -0.4691    0.6486 H   0  0  0  0  0  0  0  0  0  0  0  0
  1  3  1  0  0  0  0
  2  6  1  0  0  0  0
  3  4  1  0  0  0  0
  5  3  1  0  0  0  0
  6  7  1  6  0  0  0
  6  8  1  0  0  0  0
  6  3  1  0  0  0  0
  8 11  1  0  0  0  0
  8 10  1  0  0  0  0
  9  8  1  0  0  0  0
M  END
