1,17
 OpenBabel05122313063D

 20 19  0  0  0  0  0  0  0  0999 V2000
   -0.3558   -0.6016    1.0562 O   0  0  0  0  0  0  0  0  0  0  0  0
   -1.3142    3.2733   -0.0825 F   0  0  0  0  0  0  0  0  0  0  0  0
   -3.9517    0.9334   -0.9632 F   0  0  0  0  0  0  0  0  0  0  0  0
   -1.0616   -1.7085   -1.5253 F   0  0  0  0  0  0  0  0  0  0  0  0
   -3.1281   -1.8780   -0.8240 F   0  0  0  0  0  0  0  0  0  0  0  0
   -1.5052   -2.8718    0.2369 F   0  0  0  0  0  0  0  0  0  0  0  0
   -2.6413   -1.8216    2.2332 F   0  0  0  0  0  0  0  0  0  0  0  0
   -3.9088   -0.3115    1.3185 F   0  0  0  0  0  0  0  0  0  0  0  0
   -2.5400    0.1970   -2.4516 F   0  0  0  0  0  0  0  0  0  0  0  0
   -1.6154   -0.4846    0.5001 C   0  0  0  0  0  0  0  0  0  0  0  0
   -1.5964    0.8908   -0.3402 C   0  0  0  0  0  0  0  0  0  0  0  0
   -1.6734    2.1603    0.6047 C   0  0  0  0  0  0  0  0  0  0  0  0
   -2.9004    2.3822    1.1146 F   0  0  0  0  0  0  0  0  0  0  0  0
   -0.7954    2.0908    1.6394 F   0  0  0  0  0  0  0  0  0  0  0  0
   -2.7024    1.0767   -1.4498 C   0  0  0  0  0  0  0  0  0  0  0  0
   -2.6269    2.3084   -2.0040 F   0  0  0  0  0  0  0  0  0  0  0  0
   -0.3783    0.9139   -0.9870 O   0  0  0  0  0  0  0  0  0  0  0  0
   -1.8397   -1.7427   -0.4269 C   0  0  0  0  0  0  0  0  0  0  0  0
   -2.3122    0.2658    2.6867 F   0  0  0  0  0  0  0  0  0  0  0  0
   -2.6434   -0.5845    1.6894 C   0  0  0  0  0  0  0  0  0  0  0  0
  2 12  1  0  0  0  0
  4 18  1  0  0  0  0
  5 18  1  0  0  0  0
  8 20  1  0  0  0  0
  9 15  1  0  0  0  0
 10  1  1  0  0  0  0
 10 20  1  0  0  0  0
 11 10  1  0  0  0  0
 11 12  1  0  0  0  0
 12 13  1  0  0  0  0
 12 14  1  0  0  0  0
 15  3  1  0  0  0  0
 15 11  1  0  0  0  0
 16 15  1  0  0  0  0
 17 11  1  0  0  0  0
 18  6  1  0  0  0  0
 18 10  1  0  0  0  0
 20  7  1  0  0  0  0
 20 19  1  0  0  0  0
M  END
