1,2
 OpenBabel05122313063D

 20 21  0  0  0  0  0  0  0  0999 V2000
   -0.4556   -0.4833    0.6047 O   0  5  0  0  0  0  0  0  0  0  0  0
    0.0255    0.9342   -0.9847 O   0  5  0  0  0  0  0  0  0  0  0  0
   -0.8728    0.3461   -0.2775 C   0  0  0  0  0  3  0  0  0  0  0  0
   -2.3120    0.6490   -0.5053 C   0  0  0  0  0  0  0  0  0  0  0  0
   -2.5840    1.6474   -1.4461 C   0  0  0  0  0  0  0  0  0  0  0  0
   -3.9080    2.0311   -1.7549 C   0  0  0  0  0  0  0  0  0  0  0  0
   -4.9706    1.4056   -1.1211 C   0  0  0  0  0  0  0  0  0  0  0  0
   -4.7496    0.3786   -0.1586 C   0  0  0  0  0  0  0  0  0  0  0  0
   -3.3980   -0.0204    0.1719 C   0  0  0  0  0  0  0  0  0  0  0  0
   -3.2259   -1.0550    1.1410 C   0  0  0  0  0  0  0  0  0  0  0  0
   -4.3210   -1.6585    1.7448 C   0  0  0  0  0  0  0  0  0  0  0  0
   -5.6443   -1.2645    1.4188 C   0  0  0  0  0  0  0  0  0  0  0  0
   -5.8495   -0.2633    0.4838 C   0  0  0  0  0  0  0  0  0  0  0  0
   -1.7295    2.1289   -1.9427 H   0  0  0  0  0  0  0  0  0  0  0  0
   -4.0883    2.8224   -2.4975 H   0  0  0  0  0  0  0  0  0  0  0  0
   -6.0083    1.6927   -1.3532 H   0  0  0  0  0  0  0  0  0  0  0  0
   -2.2053   -1.3590    1.4015 H   0  0  0  0  0  0  0  0  0  0  0  0
   -4.1583   -2.4537    2.4884 H   0  0  0  0  0  0  0  0  0  0  0  0
   -6.5011   -1.7528    1.9071 H   0  0  0  0  0  0  0  0  0  0  0  0
   -6.8696    0.0553    0.2182 H   0  0  0  0  0  0  0  0  0  0  0  0
  2  3  1  0  0  0  0
  3  1  1  0  0  0  0
  4  3  1  0  0  0  0
  4  9  1  0  0  0  0
  5  4  2  0  0  0  0
  6  5  1  0  0  0  0
  6  7  2  0  0  0  0
  7  8  1  0  0  0  0
  8  9  2  0  0  0  0
  8 13  1  0  0  0  0
  9 10  1  0  0  0  0
 10 17  1  0  0  0  0
 10 11  2  0  0  0  0
 11 18  1  0  0  0  0
 12 11  1  0  0  0  0
 12 19  1  0  0  0  0
 13 12  2  0  0  0  0
 14  5  1  0  0  0  0
 15  6  1  0  0  0  0
 16  7  1  0  0  0  0
 20 13  1  0  0  0  0
M  CHG  2   1  -1   2  -1
M  END
