12,13
 OpenBabel05122313063D

 18 18  0  0  1  0  0  0  0  0999 V2000
   -2.3570   -1.4696   -0.2063 C   0  0  1  0  0  0  0  0  0  0  0  0
   -3.1065   -2.2632   -0.4833 H   0  0  0  0  0  0  0  0  0  0  0  0
   -2.6276   -0.1491   -0.9514 C   0  0  1  0  0  0  0  0  0  0  0  0
   -2.6581   -0.3738   -2.0458 H   0  0  0  0  0  0  0  0  0  0  0  0
   -3.9531    0.5239   -0.5302 C   0  0  1  0  0  0  0  0  0  0  0  0
   -4.7947   -0.1308   -0.8494 H   0  0  0  0  0  0  0  0  0  0  0  0
   -3.9505    0.6626    1.0055 C   0  0  1  0  0  0  0  0  0  0  0  0
   -4.9465    1.0239    1.3478 H   0  0  0  0  0  0  0  0  0  0  0  0
   -3.6667   -0.7020    1.6475 C   0  0  0  0  0  0  0  0  0  0  0  0
   -3.5970   -0.5877    2.7484 H   0  0  0  0  0  0  0  0  0  0  0  0
   -4.5214   -1.3948    1.4247 H   0  0  0  0  0  0  0  0  0  0  0  0
   -1.0906   -1.9194   -0.5091 O   0  0  0  0  0  1  0  0  0  0  0  0
   -1.5453    0.7430   -0.6476 O   0  0  0  0  0  1  0  0  0  0  0  0
   -4.1368    1.7827   -1.1452 O   0  0  0  0  0  0  0  0  0  0  0  0
   -3.5458    2.3663   -0.6221 H   0  0  0  0  0  0  0  0  0  0  0  0
   -2.9890    1.6472    1.3666 O   0  0  0  0  0  0  0  0  0  0  0  0
   -2.1871    1.3723    0.8310 H   0  0  0  0  0  0  0  0  0  0  0  0
   -2.4351   -1.2539    1.2215 O   0  0  0  0  0  0  0  0  0  0  0  0
  1  2  1  6  0  0  0
  1 18  1  0  0  0  0
  3  4  1  6  0  0  0
  3 13  1  0  0  0  0
  3  5  1  0  0  0  0
  3  1  1  0  0  0  0
  5  6  1  6  0  0  0
  5  7  1  0  0  0  0
  7  8  1  1  0  0  0
  7 16  1  0  0  0  0
  7  9  1  0  0  0  0
  9 10  1  0  0  0  0
 11  9  1  0  0  0  0
 12  1  1  0  0  0  0
 14 15  1  0  0  0  0
 14  5  1  0  0  0  0
 17 16  1  0  0  0  0
 18  9  1  0  0  0  0
M  END
