12,13
 OpenBabel05122313063D

 18 18  0  0  1  0  0  0  0  0999 V2000
   -2.3826   -1.1021   -1.0040 C   0  0  1  0  0  0  0  0  0  0  0  0
   -2.3200   -1.4841   -2.0544 H   0  0  0  0  0  0  0  0  0  0  0  0
   -2.4657    0.4368   -1.0061 C   0  0  1  0  0  0  0  0  0  0  0  0
   -3.2117    0.7883   -1.7598 H   0  0  0  0  0  0  0  0  0  0  0  0
   -2.9241    0.9297    0.3700 C   0  0  2  0  0  0  0  0  0  0  0  0
   -2.1457    0.6180    1.1121 H   0  0  0  0  0  0  0  0  0  0  0  0
   -4.2238    0.2628    0.7836 C   0  0  1  0  0  0  0  0  0  0  0  0
   -5.0047    0.5013    0.0164 H   0  0  0  0  0  0  0  0  0  0  0  0
   -3.9792   -1.2495    0.7813 C   0  0  0  0  0  0  0  0  0  0  0  0
   -3.2200   -1.4889    1.5599 H   0  0  0  0  0  0  0  0  0  0  0  0
   -4.9132   -1.7929    1.0267 H   0  0  0  0  0  0  0  0  0  0  0  0
   -1.2655   -1.4862   -0.2423 O   0  0  0  0  0  1  0  0  0  0  0  0
   -1.2099    1.0108   -1.3312 O   0  0  0  0  0  1  0  0  0  0  0  0
   -3.0700    2.3447    0.3741 O   0  0  0  0  0  0  0  0  0  0  0  0
   -2.3003    2.6460   -0.1542 H   0  0  0  0  0  0  0  0  0  0  0  0
   -4.6353    0.6759    2.0778 O   0  0  0  0  0  0  0  0  0  0  0  0
   -4.4899    1.6421    2.0843 H   0  0  0  0  0  0  0  0  0  0  0  0
   -3.5698   -1.7062   -0.5043 O   0  0  0  0  0  0  0  0  0  0  0  0
  1  2  1  6  0  0  0
  1 18  1  0  0  0  0
  1 12  1  0  0  0  0
  3  4  1  6  0  0  0
  3  1  1  0  0  0  0
  3  5  1  0  0  0  0
  5 14  1  0  0  0  0
  5  7  1  0  0  0  0
  5  6  1  1  0  0  0
  7  8  1  6  0  0  0
  7 16  1  0  0  0  0
  9  7  1  0  0  0  0
  9 11  1  0  0  0  0
  9 10  1  0  0  0  0
 13  3  1  0  0  0  0
 15 14  1  0  0  0  0
 16 17  1  0  0  0  0
 18  9  1  0  0  0  0
M  END
