10,13
 OpenBabel05122313063D

 14 14  0  0  1  0  0  0  0  0999 V2000
    2.8935   -1.1848    0.0289 C   0  0  2  0  0  0  0  0  0  0  0  0
    3.5226   -2.0921   -0.1407 H   0  0  0  0  0  0  0  0  0  0  0  0
    3.4358   -0.0025   -0.8059 C   0  0  1  0  0  0  0  0  0  0  0  0
    2.9730    0.0146   -1.8203 H   0  0  0  0  0  0  0  0  0  0  0  0
    2.9562    1.1874    0.0597 C   0  0  2  0  0  0  0  0  0  0  0  0
    3.5617    2.1000   -0.1777 H   0  0  0  0  0  0  0  0  0  0  0  0
    3.3023    0.6389    1.4601 C   0  0  0  0  0  0  0  0  0  0  0  0
    4.3640    0.8599    1.7242 H   0  0  0  0  0  0  0  0  0  0  0  0
    2.6367    1.0919    2.2262 H   0  0  0  0  0  0  0  0  0  0  0  0
    1.5919   -1.5102   -0.2362 O   0  0  0  0  0  1  0  0  0  0  0  0
    4.8532   -0.1072   -0.8476 O   0  0  0  0  0  0  0  0  0  0  0  0
    5.1856    0.7360   -1.2053 H   0  0  0  0  0  0  0  0  0  0  0  0
    1.6163    1.5048   -0.1216 O   0  0  0  0  0  1  0  0  0  0  0  0
    3.0992   -0.7732    1.3987 O   0  0  0  0  0  0  0  0  0  0  0  0
  1  2  1  6  0  0  0
  1 14  1  0  0  0  0
  3  4  1  6  0  0  0
  3  1  1  0  0  0  0
  3  5  1  0  0  0  0
  5  6  1  6  0  0  0
  5  7  1  0  0  0  0
  7  8  1  0  0  0  0
  7  9  1  0  0  0  0
 10  1  1  0  0  0  0
 11  3  1  0  0  0  0
 12 11  1  0  0  0  0
 13  5  1  0  0  0  0
 14  7  1  0  0  0  0
M  END
