1,2
 OpenBabel05122313063D

 13 12  0  0  1  0  0  0  0  0999 V2000
   -1.2457    1.1960   -0.8992 O   0  0  0  0  0  0  0  0  0  0  0  0
   -1.3369   -1.1043    0.8966 O   0  0  0  0  0  0  0  0  0  0  0  0
   -2.4545    1.1798   -0.4111 C   0  0  2  0  0  0  0  0  0  0  0  0
   -2.4915   -1.1340    0.2865 C   0  0  1  0  0  0  0  0  0  0  0  0
   -3.0116    2.5561   -0.0645 C   0  0  0  0  0  0  0  0  0  0  0  0
   -3.1231    0.0190   -0.1119 C   0  0  0  0  0  0  0  0  0  0  0  0
   -3.0596   -2.5274    0.0240 C   0  0  0  0  0  0  0  0  0  0  0  0
   -2.2025    3.0947    0.9251 F   0  0  0  0  0  0  0  0  0  0  0  0
   -2.9797    3.4071   -1.0971 F   0  0  0  0  0  0  0  0  0  0  0  0
   -4.2541    2.4998    0.4238 F   0  0  0  0  0  0  0  0  0  0  0  0
   -4.2102   -2.4642   -0.6659 F   0  0  0  0  0  0  0  0  0  0  0  0
   -2.1684   -3.2517   -0.6946 F   0  0  0  0  0  0  0  0  0  0  0  0
   -3.2874   -3.1863    1.1785 F   0  0  0  0  0  0  0  0  0  0  0  0
  3  1  1  1  0  0  0
  3  6  1  0  0  0  0
  3  5  1  0  0  0  0
  4  2  1  6  0  0  0
  5 10  1  0  0  0  0
  5  8  1  0  0  0  0
  6  4  1  0  0  0  0
  7  4  1  0  0  0  0
  7 13  1  0  0  0  0
  9  5  1  0  0  0  0
 11  7  1  0  0  0  0
 12  7  1  0  0  0  0
M  END
