1,2
 OpenBabel05122313063D

 38 39  0  0  1  0  0  0  0  0999 V2000
    0.8094    1.4525   -0.7953 O   0  0  0  0  0  1  0  0  0  0  0  0
    0.3721   -0.6903    0.9045 O   0  0  0  0  0  1  0  0  0  0  0  0
   -0.9674    2.8242   -0.7583 O   0  0  0  0  0  0  0  0  0  0  0  0
   -3.4100   -3.5340   -0.4144 C   0  0  0  0  0  0  0  0  0  0  0  0
   -3.4097   -4.6213   -0.2448 H   0  0  0  0  0  0  0  0  0  0  0  0
   -3.3287    0.7646   -0.9329 C   0  0  0  0  0  0  0  0  0  0  0  0
   -4.3467    1.2023   -0.9526 H   0  0  0  0  0  0  0  0  0  0  0  0
   -2.8277    1.0516   -1.8805 H   0  0  0  0  0  0  0  0  0  0  0  0
   -3.2110    3.7242   -0.8064 C   0  0  0  0  0  0  0  0  0  0  0  0
   -2.8426    4.7609   -0.9266 H   0  0  0  0  0  0  0  0  0  0  0  0
   -4.1916    3.7654   -0.2932 H   0  0  0  0  0  0  0  0  0  0  0  0
   -3.3519    3.2905   -1.8127 H   0  0  0  0  0  0  0  0  0  0  0  0
   -4.4950   -1.3666   -0.1931 C   0  0  0  0  0  0  0  0  0  0  0  0
   -5.3476   -0.7592    0.1521 H   0  0  0  0  0  0  0  0  0  0  0  0
   -4.5000   -2.7553    0.0105 C   0  0  0  0  0  0  0  0  0  0  0  0
   -5.3593   -3.2327    0.5056 H   0  0  0  0  0  0  0  0  0  0  0  0
   -1.8789    3.6173    1.3435 C   0  0  0  0  0  0  0  0  0  0  0  0
   -1.1400    3.0318    1.9262 H   0  0  0  0  0  0  0  0  0  0  0  0
   -2.7933    3.7450    1.9557 H   0  0  0  0  0  0  0  0  0  0  0  0
   -1.4462    4.6164    1.1459 H   0  0  0  0  0  0  0  0  0  0  0  0
   -1.1666   -2.1236    2.6755 C   0  0  0  0  0  0  0  0  0  0  0  0
   -1.0099   -2.8988    1.9010 H   0  0  0  0  0  0  0  0  0  0  0  0
   -1.8807   -2.5179    3.4230 H   0  0  0  0  0  0  0  0  0  0  0  0
   -0.1940   -1.9436    3.1712 H   0  0  0  0  0  0  0  0  0  0  0  0
   -2.3278   -2.9206   -1.0646 C   0  0  0  0  0  0  0  0  0  0  0  0
   -1.4643   -3.5109   -1.4063 H   0  0  0  0  0  0  0  0  0  0  0  0
   -2.3301   -1.5339   -1.2800 C   0  0  0  0  0  0  0  0  0  0  0  0
   -1.4657   -1.0783   -1.7888 H   0  0  0  0  0  0  0  0  0  0  0  0
   -1.1858    0.8852    0.3376 N   0  0  0  0  0  0  0  0  0  0  0  0
   -0.3334    1.6941   -0.4400 C   0  0  2  0  0  3  0  0  0  0  0  0
   -2.5569    1.4227    0.2375 C   0  0  1  0  0  0  0  0  0  0  0  0
   -3.0950    1.2776    1.1930 H   0  0  0  0  0  0  0  0  0  0  0  0
   -2.2220    2.9262    0.0240 C   0  0  0  0  0  0  0  0  0  0  0  0
   -0.7721   -0.2461    1.0396 C   0  0  2  0  0  3  0  0  0  0  0  0
   -3.4035   -0.7390   -0.8282 C   0  0  0  0  0  0  0  0  0  0  0  0
   -1.7180   -0.8474    2.0489 C   0  0  0  0  0  0  0  0  0  0  0  0
   -2.7018   -1.0293    1.5719 H   0  0  0  0  0  0  0  0  0  0  0  0
   -1.8924   -0.0612    2.8203 H   0  0  0  0  0  0  0  0  0  0  0  0
  3 30  1  0  0  0  0
  3 33  1  0  0  0  0
  4  5  1  0  0  0  0
  4 15  1  0  0  0  0
  6 35  1  0  0  0  0
  6 31  1  0  0  0  0
  7  6  1  0  0  0  0
  8  6  1  0  0  0  0
  9 11  1  0  0  0  0
  9 33  1  0  0  0  0
 10  9  1  0  0  0  0
 12  9  1  0  0  0  0
 13 15  2  0  0  0  0
 13 14  1  0  0  0  0
 15 16  1  0  0  0  0
 17 18  1  0  0  0  0
 17 19  1  0  0  0  0
 20 17  1  0  0  0  0
 21 24  1  0  0  0  0
 21 23  1  0  0  0  0
 22 21  1  0  0  0  0
 25  4  2  0  0  0  0
 26 25  1  0  0  0  0
 27 25  1  0  0  0  0
 27 35  2  0  0  0  0
 28 27  1  0  0  0  0
 29 34  1  0  0  0  0
 30  1  1  1  0  0  0
 30 29  1  0  0  0  0
 31 29  1  0  0  0  0
 31 32  1  1  0  0  0
 33 31  1  0  0  0  0
 33 17  1  0  0  0  0
 34  2  1  1  0  0  0
 34 36  1  0  0  0  0
 35 13  1  0  0  0  0
 36 21  1  0  0  0  0
 36 38  1  0  0  0  0
 37 36  1  0  0  0  0
M  END
