2,3
 OpenBabel05122313063D

 14 14  0  0  0  0  0  0  0  0999 V2000
    7.6631   -3.2574   -0.3865 Cl  0  0  0  0  0  0  0  0  0  0  0  0
    1.5268   -0.7682    0.9959 O   0  5  0  0  0  0  0  0  0  0  0  0
    1.7758   -0.0058   -1.0814 O   0  5  0  0  0  0  0  0  0  0  0  0
    3.5605   -1.3093   -0.1561 C   0  0  0  0  0  0  0  0  0  0  0  0
    4.0517   -2.0620    0.9284 C   0  0  0  0  0  0  0  0  0  0  0  0
    3.4172   -2.1656    1.8206 H   0  0  0  0  0  0  0  0  0  0  0  0
    5.3131   -2.6653    0.8649 C   0  0  0  0  0  0  0  0  0  0  0  0
    5.7053   -3.2568    1.7041 H   0  0  0  0  0  0  0  0  0  0  0  0
    6.0868   -2.5104   -0.2985 C   0  0  0  0  0  0  0  0  0  0  0  0
    5.6131   -1.7661   -1.3930 C   0  0  0  0  0  0  0  0  0  0  0  0
    6.2372   -1.6641   -2.2920 H   0  0  0  0  0  0  0  0  0  0  0  0
    4.3492   -1.1700   -1.3147 C   0  0  0  0  0  0  0  0  0  0  0  0
    3.9447   -0.5841   -2.1527 H   0  0  0  0  0  0  0  0  0  0  0  0
    2.2117   -0.6629   -0.0772 C   0  0  0  0  0  3  0  0  0  0  0  0
  1  9  1  0  0  0  0
  3 14  1  0  0  0  0
  4 14  1  0  0  0  0
  4  5  1  0  0  0  0
  5  6  1  0  0  0  0
  7  5  2  0  0  0  0
  7  8  1  0  0  0  0
  9  7  1  0  0  0  0
 10 12  1  0  0  0  0
 10  9  2  0  0  0  0
 11 10  1  0  0  0  0
 12  4  2  0  0  0  0
 13 12  1  0  0  0  0
 14  2  1  0  0  0  0
M  CHG  2   2  -1   3  -1
M  END
