1,2
 OpenBabel05122313063D

 12 11  0  0  0  0  0  0  0  0999 V2000
   -0.4460    2.1461    0.2829 O   0  5  0  0  0  0  0  0  0  0  0  0
   -0.0499    1.2708   -1.6811 O   0  5  0  0  0  0  0  0  0  0  0  0
   -0.5416    3.5284   -1.5674 N   0  0  0  0  0  0  0  0  0  0  0  0
   -0.3541    2.3238   -0.9875 C   0  0  0  0  0  3  0  0  0  0  0  0
   -0.8387    4.6976   -0.7601 C   0  0  0  0  0  0  0  0  0  0  0  0
   -1.8269    5.1253   -1.0358 H   0  0  0  0  0  0  0  0  0  0  0  0
   -0.0643    5.4790   -0.9140 H   0  0  0  0  0  0  0  0  0  0  0  0
   -0.8496    4.4084    0.3053 H   0  0  0  0  0  0  0  0  0  0  0  0
   -0.4128    3.6942   -3.0032 C   0  0  0  0  0  0  0  0  0  0  0  0
   -1.3595    4.0810   -3.4383 H   0  0  0  0  0  0  0  0  0  0  0  0
   -0.1750    2.7187   -3.4615 H   0  0  0  0  0  0  0  0  0  0  0  0
    0.3999    4.4141   -3.2399 H   0  0  0  0  0  0  0  0  0  0  0  0
  2  4  1  0  0  0  0
  3  4  1  0  0  0  0
  3  5  1  0  0  0  0
  4  1  1  0  0  0  0
  5  8  1  0  0  0  0
  6  5  1  0  0  0  0
  7  5  1  0  0  0  0
  9  3  1  0  0  0  0
 10  9  1  0  0  0  0
 11  9  1  0  0  0  0
 12  9  1  0  0  0  0
M  CHG  2   1  -1   2  -1
M  END
