15,18
 OpenBabel05122313063D

 29 31  0  0  1  0  0  0  0  0999 V2000
    5.0802    0.8149    1.6299 O   0  0  0  0  0  0  0  0  0  0  0  0
    4.5834   -0.0383    0.9235 C   0  0  0  0  0  0  0  0  0  0  0  0
    5.3147   -1.2364    0.7923 O   0  0  0  0  0  0  0  0  0  0  0  0
    4.8203   -2.3267    0.1476 C   0  0  0  0  0  0  0  0  0  0  0  0
    5.6501   -3.4608    0.0660 C   0  0  0  0  0  0  0  0  0  0  0  0
    6.6577   -3.4081    0.5018 H   0  0  0  0  0  0  0  0  0  0  0  0
    5.1709   -4.6171   -0.5566 C   0  0  0  0  0  0  0  0  0  0  0  0
    5.8205   -5.5033   -0.6209 H   0  0  0  0  0  0  0  0  0  0  0  0
    3.8673   -4.6593   -1.0954 C   0  0  0  0  0  0  0  0  0  0  0  0
    3.5006   -5.5760   -1.5800 H   0  0  0  0  0  0  0  0  0  0  0  0
    3.0483   -3.5329   -1.0095 C   0  0  0  0  0  0  0  0  0  0  0  0
    2.0255   -3.5200   -1.4136 H   0  0  0  0  0  0  0  0  0  0  0  0
    3.5167   -2.3505   -0.3950 C   0  0  0  0  0  0  0  0  0  0  0  0
    2.6691   -1.1486   -0.3119 C   0  0  2  0  0  3  0  0  0  0  0  0
    1.4751   -1.2255   -0.7367 O   0  0  0  0  0  1  0  0  0  0  0  0
    3.2922    0.0359    0.2320 C   0  0  0  0  0  0  0  0  0  0  0  0
    2.6678    1.3391    0.0547 C   0  0  0  0  0  0  0  0  0  0  0  0
    1.4147    1.4909   -0.0630 O   0  5  0  0  0  0  0  0  0  0  0  0
    3.4803    2.5832   -0.0935 C   0  0  0  0  0  0  0  0  0  0  0  0
    4.7436    2.5887   -0.7217 C   0  0  0  0  0  0  0  0  0  0  0  0
    5.1861    1.6435   -1.0679 H   0  0  0  0  0  0  0  0  0  0  0  0
    5.4200    3.7953   -0.9328 C   0  0  0  0  0  0  0  0  0  0  0  0
    6.3998    3.7917   -1.4336 H   0  0  0  0  0  0  0  0  0  0  0  0
    4.8514    5.0074   -0.5060 C   0  0  0  0  0  0  0  0  0  0  0  0
    5.3914    5.9536   -0.6631 H   0  0  0  0  0  0  0  0  0  0  0  0
    3.5915    5.0110    0.1151 C   0  0  0  0  0  0  0  0  0  0  0  0
    3.1430    5.9592    0.4482 H   0  0  0  0  0  0  0  0  0  0  0  0
    2.9033    3.8071    0.3070 C   0  0  0  0  0  0  0  0  0  0  0  0
    1.9080    3.7900    0.7744 H   0  0  0  0  0  0  0  0  0  0  0  0
  2  1  2  0  0  0  0
  3  2  1  0  0  0  0
  4  3  1  0  0  0  0
  5  4  1  0  0  0  0
  5  6  1  0  0  0  0
  7  5  2  0  0  0  0
  8  7  1  0  0  0  0
  9 11  2  0  0  0  0
  9  7  1  0  0  0  0
 10  9  1  0  0  0  0
 11 13  1  0  0  0  0
 12 11  1  0  0  0  0
 13 14  1  0  0  0  0
 13  4  2  0  0  0  0
 14 15  1  6  0  0  0
 14 16  1  0  0  0  0
 16  2  1  0  0  0  0
 17 16  2  0  0  0  0
 18 17  1  0  0  0  0
 19 17  1  0  0  0  0
 19 28  1  0  0  0  0
 20 19  2  0  0  0  0
 21 20  1  0  0  0  0
 22 20  1  0  0  0  0
 22 24  2  0  0  0  0
 23 22  1  0  0  0  0
 24 26  1  0  0  0  0
 25 24  1  0  0  0  0
 26 28  2  0  0  0  0
 26 27  1  0  0  0  0
 28 29  1  0  0  0  0
M  CHG  1  18  -1
M  END
