1,2
 OpenBabel05122313063D

 40 43  0  0  1  0  0  0  0  0999 V2000
    1.8668    0.2436    0.2029 O   0  5  0  0  0  0  0  0  0  0  0  0
   -1.0232    0.1160    0.6755 O   0  0  0  0  0  1  0  0  0  0  0  0
    2.5874   -1.9451   -0.2322 N   0  0  0  0  0  0  0  0  0  0  0  0
    2.0522   -3.2193   -0.3292 N   0  0  0  0  0  0  0  0  0  0  0  0
    3.9797   -1.7654   -0.4200 C   0  0  0  0  0  0  0  0  0  0  0  0
    4.5369   -0.4859   -0.6348 C   0  0  0  0  0  0  0  0  0  0  0  0
    3.8809    0.3910   -0.6710 H   0  0  0  0  0  0  0  0  0  0  0  0
    5.9218   -0.3598   -0.8136 C   0  0  0  0  0  0  0  0  0  0  0  0
    6.3486    0.6404   -0.9854 H   0  0  0  0  0  0  0  0  0  0  0  0
    6.7595   -1.4853   -0.7873 C   0  0  0  0  0  0  0  0  0  0  0  0
    7.8449   -1.3749   -0.9292 H   0  0  0  0  0  0  0  0  0  0  0  0
    6.1946   -2.7552   -0.5850 C   0  0  0  0  0  0  0  0  0  0  0  0
    6.8370   -3.6490   -0.5686 H   0  0  0  0  0  0  0  0  0  0  0  0
    4.8148   -2.9025   -0.4019 C   0  0  0  0  0  0  0  0  0  0  0  0
    4.3530   -3.8866   -0.2520 H   0  0  0  0  0  0  0  0  0  0  0  0
    1.6203   -1.0027    0.0587 C   0  0  0  0  0  0  0  0  0  0  0  0
    0.7587   -3.1173   -0.0846 C   0  0  0  0  0  0  0  0  0  0  0  0
    0.3902   -1.7414    0.1912 C   0  0  0  0  0  0  0  0  0  0  0  0
   -0.1076   -4.3322   -0.1812 C   0  0  0  0  0  0  0  0  0  0  0  0
   -0.9948   -4.1418   -0.8176 H   0  0  0  0  0  0  0  0  0  0  0  0
   -0.4909   -4.6502    0.8087 H   0  0  0  0  0  0  0  0  0  0  0  0
    0.4836   -5.1599   -0.6152 H   0  0  0  0  0  0  0  0  0  0  0  0
   -0.8389   -1.1463    0.5479 C   0  0  1  0  0  3  0  0  0  0  0  0
   -2.0553   -1.9715    0.8265 C   0  0  0  0  0  0  0  0  0  0  0  0
   -3.1930   -1.8647   -0.0446 C   0  0  0  0  0  0  0  0  0  0  0  0
   -3.1856   -1.0607   -1.2250 C   0  0  0  0  0  0  0  0  0  0  0  0
   -2.2841   -0.4848   -1.4899 H   0  0  0  0  0  0  0  0  0  0  0  0
   -4.3075   -1.0015   -2.0392 C   0  0  0  0  0  0  0  0  0  0  0  0
   -4.2856   -0.3769   -2.9452 H   0  0  0  0  0  0  0  0  0  0  0  0
   -5.4789   -1.7387   -1.7180 C   0  0  0  0  0  0  0  0  0  0  0  0
   -6.3601   -1.6792   -2.3747 H   0  0  0  0  0  0  0  0  0  0  0  0
   -5.5099   -2.5363   -0.5846 C   0  0  0  0  0  0  0  0  0  0  0  0
   -6.4106   -3.1178   -0.3327 H   0  0  0  0  0  0  0  0  0  0  0  0
   -4.3770   -2.6257    0.2775 C   0  0  0  0  0  0  0  0  0  0  0  0
   -4.3833   -3.4475    1.4428 C   0  0  0  0  0  0  0  0  0  0  0  0
   -5.2939   -4.0199    1.6794 H   0  0  0  0  0  0  0  0  0  0  0  0
   -3.2691   -3.5286    2.2640 C   0  0  0  0  0  0  0  0  0  0  0  0
   -3.2869   -4.1633    3.1626 H   0  0  0  0  0  0  0  0  0  0  0  0
   -2.0992   -2.7906    1.9506 C   0  0  0  0  0  0  0  0  0  0  0  0
   -1.2165   -2.8532    2.6053 H   0  0  0  0  0  0  0  0  0  0  0  0
  3 16  1  0  0  0  0
  4  3  1  0  0  0  0
  4 17  2  0  0  0  0
  5 14  1  0  0  0  0
  5  3  1  0  0  0  0
  6  5  2  0  0  0  0
  7  6  1  0  0  0  0
  8 10  2  0  0  0  0
  8  6  1  0  0  0  0
  9  8  1  0  0  0  0
 10 12  1  0  0  0  0
 11 10  1  0  0  0  0
 12 13  1  0  0  0  0
 12 14  2  0  0  0  0
 14 15  1  0  0  0  0
 16 18  2  0  0  0  0
 16  1  1  0  0  0  0
 17 18  1  0  0  0  0
 18 23  1  0  0  0  0
 19 17  1  0  0  0  0
 19 21  1  0  0  0  0
 20 19  1  0  0  0  0
 22 19  1  0  0  0  0
 23  2  1  1  0  0  0
 23 24  1  0  0  0  0
 24 39  1  0  0  0  0
 25 34  1  0  0  0  0
 25 24  2  0  0  0  0
 26 25  1  0  0  0  0
 27 26  1  0  0  0  0
 28 30  1  0  0  0  0
 28 26  2  0  0  0  0
 29 28  1  0  0  0  0
 30 32  2  0  0  0  0
 31 30  1  0  0  0  0
 32 33  1  0  0  0  0
 32 34  1  0  0  0  0
 34 35  2  0  0  0  0
 35 36  1  0  0  0  0
 35 37  1  0  0  0  0
 37 38  1  0  0  0  0
 39 37  2  0  0  0  0
 39 40  1  0  0  0  0
M  CHG  1   1  -1
M  END
