1,2
 OpenBabel05122313063D

 20 19  0  0  1  0  0  0  0  0999 V2000
   -1.0191    1.4942   -0.1465 O   0  5  0  0  0  0  0  0  0  0  0  0
   -1.0773   -1.3828    0.4952 O   0  0  0  0  0  1  0  0  0  0  0  0
   -2.3737    3.8904   -0.0367 C   0  0  0  0  0  0  0  0  0  0  0  0
   -3.0365    4.7584   -0.2221 H   0  0  0  0  0  0  0  0  0  0  0  0
   -1.5074    3.9602   -0.7221 H   0  0  0  0  0  0  0  0  0  0  0  0
   -1.9847    3.9723    0.9988 H   0  0  0  0  0  0  0  0  0  0  0  0
   -3.1267    2.5796   -0.2437 C   0  0  0  0  0  0  0  0  0  0  0  0
   -4.0168    2.5142    0.4159 H   0  0  0  0  0  0  0  0  0  0  0  0
   -3.5236    2.5281   -1.2833 H   0  0  0  0  0  0  0  0  0  0  0  0
   -2.2813    1.3244   -0.0576 C   0  0  0  0  0  0  0  0  0  0  0  0
   -2.9465    0.0987    0.1807 C   0  0  0  0  0  0  0  0  0  0  0  0
   -4.0443    0.1302    0.2128 H   0  0  0  0  0  0  0  0  0  0  0  0
   -2.3368   -1.1384    0.4644 C   0  0  1  0  0  3  0  0  0  0  0  0
   -3.2063   -2.3478    0.7704 C   0  0  0  0  0  0  0  0  0  0  0  0
   -4.2699   -2.0414    0.8240 H   0  0  0  0  0  0  0  0  0  0  0  0
   -2.9200   -2.7222    1.7775 H   0  0  0  0  0  0  0  0  0  0  0  0
   -3.0058   -3.4586   -0.2689 C   0  0  0  0  0  0  0  0  0  0  0  0
   -3.2848   -3.1073   -1.2824 H   0  0  0  0  0  0  0  0  0  0  0  0
   -3.6208   -4.3478   -0.0251 H   0  0  0  0  0  0  0  0  0  0  0  0
   -1.9421   -3.7638   -0.3066 H   0  0  0  0  0  0  0  0  0  0  0  0
  1 10  1  0  0  0  0
  3  6  1  0  0  0  0
  4  3  1  0  0  0  0
  5  3  1  0  0  0  0
  7 10  1  0  0  0  0
  7  3  1  0  0  0  0
  7  8  1  0  0  0  0
  9  7  1  0  0  0  0
 10 11  2  0  0  0  0
 11 12  1  0  0  0  0
 11 13  1  0  0  0  0
 13  2  1  6  0  0  0
 13 14  1  0  0  0  0
 14 15  1  0  0  0  0
 14 16  1  0  0  0  0
 17 19  1  0  0  0  0
 17 14  1  0  0  0  0
 18 17  1  0  0  0  0
 20 17  1  0  0  0  0
M  CHG  1   1  -1
M  END
