1,3
 OpenBabel05122313063D

 20 20  0  0  1  0  0  0  0  0999 V2000
    1.1205    1.0198   -1.5978 O   0  5  0  0  0  0  0  0  0  0  0  0
    0.1089    2.5721   -2.9092 O   0  0  0  0  0  0  0  0  0  0  0  0
   -0.6293    0.8703    0.1002 O   0  0  0  0  0  1  0  0  0  0  0  0
    0.1523    1.8785   -1.9092 C   0  0  0  0  0  0  0  0  0  0  0  0
   -0.9579    1.8639   -0.8231 C   0  0  1  0  0  0  0  0  0  0  0  0
   -2.3422    1.6407   -1.4640 C   0  0  0  0  0  0  0  0  0  0  0  0
   -3.4791    1.7504   -0.4786 C   0  0  0  0  0  0  0  0  0  0  0  0
   -4.1900    2.9583   -0.3292 C   0  0  0  0  0  0  0  0  0  0  0  0
   -5.2166    3.0786    0.6201 C   0  0  0  0  0  0  0  0  0  0  0  0
   -5.5485    1.9885    1.4401 C   0  0  0  0  0  0  0  0  0  0  0  0
   -4.8467    0.7802    1.3014 C   0  0  0  0  0  0  0  0  0  0  0  0
   -3.8220    0.6634    0.3516 C   0  0  0  0  0  0  0  0  0  0  0  0
   -0.9589    2.8617   -0.3217 H   0  0  0  0  0  0  0  0  0  0  0  0
   -2.3343    0.6375   -1.9405 H   0  0  0  0  0  0  0  0  0  0  0  0
   -2.4382    2.3924   -2.2733 H   0  0  0  0  0  0  0  0  0  0  0  0
   -3.9347    3.8163   -0.9720 H   0  0  0  0  0  0  0  0  0  0  0  0
   -5.7632    4.0294    0.7176 H   0  0  0  0  0  0  0  0  0  0  0  0
   -6.3547    2.0805    2.1841 H   0  0  0  0  0  0  0  0  0  0  0  0
   -5.0959   -0.0833    1.9377 H   0  0  0  0  0  0  0  0  0  0  0  0
   -3.2738   -0.2837    0.2529 H   0  0  0  0  0  0  0  0  0  0  0  0
  2  4  2  0  0  0  0
  4  1  1  0  0  0  0
  4  5  1  0  0  0  0
  5 13  1  1  0  0  0
  5  3  1  0  0  0  0
  6  5  1  0  0  0  0
  6  7  1  0  0  0  0
  7  8  2  0  0  0  0
  7 12  1  0  0  0  0
  8  9  1  0  0  0  0
  9 17  1  0  0  0  0
  9 10  2  0  0  0  0
 10 18  1  0  0  0  0
 11 10  1  0  0  0  0
 11 19  1  0  0  0  0
 12 11  2  0  0  0  0
 14  6  1  0  0  0  0
 15  6  1  0  0  0  0
 16  8  1  0  0  0  0
 20 12  1  0  0  0  0
M  CHG  1   1  -1
M  END
