2,3
 OpenBabel05122313063D

 32 35  0  0  0  0  0  0  0  0999 V2000
    5.1473   -0.5174   -0.0510 N   0  0  0  0  0  0  0  0  0  0  0  0
   -0.2355   -2.0221   -0.1339 O   0  5  0  0  0  0  0  0  0  0  0  0
    0.3954    0.5488    0.0412 O   0  5  0  0  0  0  0  0  0  0  0  0
    5.3821   -1.4172    2.0570 O   0  0  0  0  0  0  0  0  0  0  0  0
    4.9352    0.3889   -2.1594 O   0  0  0  0  0  0  0  0  0  0  0  0
    1.4123   -0.3284   -0.0229 C   0  0  0  0  0  0  0  0  0  0  0  0
    1.0720   -1.7144   -0.1170 C   0  0  0  0  0  0  0  0  0  0  0  0
    2.0903   -2.6846   -0.1880 C   0  0  0  0  0  0  0  0  0  0  0  0
    1.8109   -3.7458   -0.2585 H   0  0  0  0  0  0  0  0  0  0  0  0
    3.4309   -2.2827   -0.1674 C   0  0  0  0  0  0  0  0  0  0  0  0
    4.2366   -3.0280   -0.2197 H   0  0  0  0  0  0  0  0  0  0  0  0
    3.7585   -0.9156   -0.0713 C   0  0  0  0  0  0  0  0  0  0  0  0
    2.7607    0.0663    0.0036 C   0  0  0  0  0  0  0  0  0  0  0  0
    3.0130    1.1331    0.0734 H   0  0  0  0  0  0  0  0  0  0  0  0
    5.8950   -0.8332    1.1104 C   0  0  0  0  0  0  0  0  0  0  0  0
    7.3264   -0.4147    1.1105 C   0  0  0  0  0  0  0  0  0  0  0  0
    7.8873    0.2642   -0.0069 C   0  0  0  0  0  0  0  0  0  0  0  0
    7.0861    0.5546   -1.1462 C   0  0  0  0  0  0  0  0  0  0  0  0
    5.6499    0.1551   -1.1929 C   0  0  0  0  0  0  0  0  0  0  0  0
    8.1151   -0.6949    2.2250 C   0  0  0  0  0  0  0  0  0  0  0  0
    7.6450   -1.2208    3.0692 H   0  0  0  0  0  0  0  0  0  0  0  0
    9.4766   -0.3087    2.2541 C   0  0  0  0  0  0  0  0  0  0  0  0
   10.0868   -0.5368    3.1409 H   0  0  0  0  0  0  0  0  0  0  0  0
   10.0450    0.3541    1.1721 C   0  0  0  0  0  0  0  0  0  0  0  0
   11.1045    0.6534    1.1949 H   0  0  0  0  0  0  0  0  0  0  0  0
    9.2703    0.6584    0.0152 C   0  0  0  0  0  0  0  0  0  0  0  0
    9.8021    1.3349   -1.1208 C   0  0  0  0  0  0  0  0  0  0  0  0
   10.8605    1.6390   -1.1098 H   0  0  0  0  0  0  0  0  0  0  0  0
    9.0022    1.6073   -2.2248 C   0  0  0  0  0  0  0  0  0  0  0  0
    9.4265    2.1298   -3.0953 H   0  0  0  0  0  0  0  0  0  0  0  0
    7.6414    1.2174   -2.2394 C   0  0  0  0  0  0  0  0  0  0  0  0
    6.9901    1.4231   -3.1017 H   0  0  0  0  0  0  0  0  0  0  0  0
  1 15  1  0  0  0  0
  2  7  1  0  0  0  0
  5 19  2  0  0  0  0
  6 13  1  0  0  0  0
  6  3  1  0  0  0  0
  7  6  2  0  0  0  0
  8 10  2  0  0  0  0
  8  7  1  0  0  0  0
  9  8  1  0  0  0  0
 10 12  1  0  0  0  0
 11 10  1  0  0  0  0
 12  1  1  0  0  0  0
 12 13  2  0  0  0  0
 13 14  1  0  0  0  0
 15 16  1  0  0  0  0
 15  4  2  0  0  0  0
 16 20  1  0  0  0  0
 17 26  1  0  0  0  0
 17 16  2  0  0  0  0
 18 17  1  0  0  0  0
 19 18  1  0  0  0  0
 19  1  1  0  0  0  0
 20 22  2  0  0  0  0
 20 21  1  0  0  0  0
 22 23  1  0  0  0  0
 24 25  1  0  0  0  0
 24 22  1  0  0  0  0
 26 24  2  0  0  0  0
 27 28  1  0  0  0  0
 27 26  1  0  0  0  0
 29 27  2  0  0  0  0
 30 29  1  0  0  0  0
 31 29  1  0  0  0  0
 31 18  2  0  0  0  0
 32 31  1  0  0  0  0
M  CHG  2   2  -1   3  -1
M  END
