1,2
 OpenBabel05122313063D

 16 15  0  0  0  0  0  0  0  0999 V2000
   -2.2313    1.9592    1.1090 O   0  5  0  0  0  0  0  0  0  0  0  0
   -1.5277    2.8292   -1.2090 O   0  0  0  0  0  1  0  0  0  0  0  0
   -4.0480    2.8371    2.0870 O   0  0  0  0  0  0  0  0  0  0  0  0
   -3.3736    2.6509    1.0884 C   0  0  0  0  0  0  0  0  0  0  0  0
   -3.7962    3.1619   -0.3156 C   0  0  0  0  0  0  0  0  0  0  0  0
   -2.5818    3.7462   -1.0780 C   0  0  0  0  0  0  0  0  0  0  0  0
   -4.8490    4.2642   -0.1558 C   0  0  0  0  0  0  0  0  0  0  0  0
   -4.3778    1.9628   -1.0934 C   0  0  0  0  0  0  0  0  0  0  0  0
   -2.2151    4.6600   -0.5532 H   0  0  0  0  0  0  0  0  0  0  0  0
   -2.9149    4.0619   -2.0945 H   0  0  0  0  0  0  0  0  0  0  0  0
   -5.7051    3.8865    0.4338 H   0  0  0  0  0  0  0  0  0  0  0  0
   -4.4389    5.1388    0.3877 H   0  0  0  0  0  0  0  0  0  0  0  0
   -5.2142    4.6043   -1.1468 H   0  0  0  0  0  0  0  0  0  0  0  0
   -4.7194    2.2895   -2.0980 H   0  0  0  0  0  0  0  0  0  0  0  0
   -5.2489    1.5400   -0.5537 H   0  0  0  0  0  0  0  0  0  0  0  0
   -3.6302    1.1568   -1.2262 H   0  0  0  0  0  0  0  0  0  0  0  0
  2  6  1  0  0  0  0
  4  1  1  0  0  0  0
  4  3  2  0  0  0  0
  5  7  1  0  0  0  0
  5  4  1  0  0  0  0
  6  9  1  0  0  0  0
  6  5  1  0  0  0  0
  7 12  1  0  0  0  0
  7 11  1  0  0  0  0
  8 15  1  0  0  0  0
  8  5  1  0  0  0  0
 10  6  1  0  0  0  0
 13  7  1  0  0  0  0
 14  8  1  0  0  0  0
 16  8  1  0  0  0  0
M  CHG  1   1  -1
M  END
