3,4
 OpenBabel05122313063D

 51 54  0  0  0  0  0  0  0  0999 V2000
    0.6393    1.4326   -0.5477 P   0  0  0  0  0  4  0  0  0  0  0  0
   -1.2018   -0.9902   -0.6925 P   0  0  0  0  0  4  0  0  0  0  0  0
    1.0868    0.8221    0.7888 O   0  0  0  0  0  1  0  0  0  0  0  0
   -0.4289   -1.5913    0.4911 O   0  0  0  0  0  1  0  0  0  0  0  0
   -0.1734    0.2022   -1.6522 C   0  0  0  0  0  0  0  0  0  0  0  0
   -0.7783    0.7003   -2.4357 H   0  0  0  0  0  0  0  0  0  0  0  0
    0.6361   -0.4000   -2.1155 H   0  0  0  0  0  0  0  0  0  0  0  0
   -0.6044    2.7182   -0.2200 C   0  0  0  0  0  0  0  0  0  0  0  0
   -1.1840    2.7255    1.0647 C   0  0  0  0  0  0  0  0  0  0  0  0
   -0.8346    2.0058    1.8239 H   0  0  0  0  0  0  0  0  0  0  0  0
   -2.2056    3.6427    1.3513 C   0  0  0  0  0  0  0  0  0  0  0  0
   -2.6649    3.6445    2.3510 H   0  0  0  0  0  0  0  0  0  0  0  0
   -2.6397    4.5492    0.3716 C   0  0  0  0  0  0  0  0  0  0  0  0
   -3.4406    5.2679    0.6032 H   0  0  0  0  0  0  0  0  0  0  0  0
   -2.0499    4.5476   -0.9038 C   0  0  0  0  0  0  0  0  0  0  0  0
   -2.3808    5.2679   -1.6672 H   0  0  0  0  0  0  0  0  0  0  0  0
   -1.0308    3.6326   -1.2033 C   0  0  0  0  0  0  0  0  0  0  0  0
   -0.5619    3.6462   -2.1991 H   0  0  0  0  0  0  0  0  0  0  0  0
    2.0417    2.1131   -1.4738 C   0  0  0  0  0  0  0  0  0  0  0  0
    1.9577    2.4911   -2.8292 C   0  0  0  0  0  0  0  0  0  0  0  0
    1.0206    2.3664   -3.3940 H   0  0  0  0  0  0  0  0  0  0  0  0
    3.0890    3.0085   -3.4759 C   0  0  0  0  0  0  0  0  0  0  0  0
    3.0283    3.3011   -4.5349 H   0  0  0  0  0  0  0  0  0  0  0  0
    4.2992    3.1406   -2.7750 C   0  0  0  0  0  0  0  0  0  0  0  0
    5.1868    3.5419   -3.2871 H   0  0  0  0  0  0  0  0  0  0  0  0
    4.3838    2.7487   -1.4295 C   0  0  0  0  0  0  0  0  0  0  0  0
    5.3371    2.8346   -0.8871 H   0  0  0  0  0  0  0  0  0  0  0  0
    3.2583    2.2311   -0.7730 C   0  0  0  0  0  0  0  0  0  0  0  0
    3.3121    1.8929    0.2731 H   0  0  0  0  0  0  0  0  0  0  0  0
   -1.6601   -2.2836   -1.8801 C   0  0  0  0  0  0  0  0  0  0  0  0
   -2.9256   -2.3427   -2.4953 C   0  0  0  0  0  0  0  0  0  0  0  0
   -3.6960   -1.5945   -2.2549 H   0  0  0  0  0  0  0  0  0  0  0  0
   -3.2054   -3.3753   -3.4030 C   0  0  0  0  0  0  0  0  0  0  0  0
   -4.1949   -3.4289   -3.8814 H   0  0  0  0  0  0  0  0  0  0  0  0
   -2.2296   -4.3433   -3.6899 C   0  0  0  0  0  0  0  0  0  0  0  0
   -2.4545   -5.1541   -4.3994 H   0  0  0  0  0  0  0  0  0  0  0  0
   -0.9714   -4.2868   -3.0668 C   0  0  0  0  0  0  0  0  0  0  0  0
   -0.2114   -5.0522   -3.2841 H   0  0  0  0  0  0  0  0  0  0  0  0
   -0.6798   -3.2617   -2.1568 C   0  0  0  0  0  0  0  0  0  0  0  0
    0.3014   -3.2130   -1.6551 H   0  0  0  0  0  0  0  0  0  0  0  0
   -2.6832   -0.0979   -0.1446 C   0  0  0  0  0  0  0  0  0  0  0  0
   -3.3774    0.8078   -0.9743 C   0  0  0  0  0  0  0  0  0  0  0  0
   -3.0460    0.9960   -2.0071 H   0  0  0  0  0  0  0  0  0  0  0  0
   -4.4909    1.4947   -0.4737 C   0  0  0  0  0  0  0  0  0  0  0  0
   -5.0250    2.2111   -1.1152 H   0  0  0  0  0  0  0  0  0  0  0  0
   -4.9117    1.2797    0.8499 C   0  0  0  0  0  0  0  0  0  0  0  0
   -5.7825    1.8268    1.2421 H   0  0  0  0  0  0  0  0  0  0  0  0
   -4.2185    0.3810    1.6746 C   0  0  0  0  0  0  0  0  0  0  0  0
   -4.5378    0.2236    2.7157 H   0  0  0  0  0  0  0  0  0  0  0  0
   -3.1014   -0.3110    1.1836 C   0  0  0  0  0  0  0  0  0  0  0  0
   -2.5213   -0.9849    1.8323 H   0  0  0  0  0  0  0  0  0  0  0  0
  1  8  1  0  0  0  0
  1  3  1  0  0  0  0
  2 41  1  0  0  0  0
  2  4  1  0  0  0  0
  5  2  1  0  0  0  0
  5  1  1  0  0  0  0
  6  5  1  0  0  0  0
  7  5  1  0  0  0  0
  8  9  1  0  0  0  0
  9 11  2  0  0  0  0
  9 10  1  0  0  0  0
 11 12  1  0  0  0  0
 13 14  1  0  0  0  0
 13 11  1  0  0  0  0
 15 13  2  0  0  0  0
 16 15  1  0  0  0  0
 17 15  1  0  0  0  0
 17  8  2  0  0  0  0
 18 17  1  0  0  0  0
 19 28  1  0  0  0  0
 19  1  1  0  0  0  0
 20 19  2  0  0  0  0
 21 20  1  0  0  0  0
 22 20  1  0  0  0  0
 22 24  2  0  0  0  0
 23 22  1  0  0  0  0
 24 26  1  0  0  0  0
 25 24  1  0  0  0  0
 26 27  1  0  0  0  0
 26 28  2  0  0  0  0
 28 29  1  0  0  0  0
 30  2  1  0  0  0  0
 31 32  1  0  0  0  0
 31 30  2  0  0  0  0
 33 31  1  0  0  0  0
 34 33  1  0  0  0  0
 35 33  2  0  0  0  0
 35 37  1  0  0  0  0
 36 35  1  0  0  0  0
 37 39  2  0  0  0  0
 38 37  1  0  0  0  0
 39 30  1  0  0  0  0
 39 40  1  0  0  0  0
 41 50  1  0  0  0  0
 42 44  1  0  0  0  0
 42 41  2  0  0  0  0
 43 42  1  0  0  0  0
 44 46  2  0  0  0  0
 45 44  1  0  0  0  0
 46 47  1  0  0  0  0
 46 48  1  0  0  0  0
 48 49  1  0  0  0  0
 50 48  2  0  0  0  0
 50 51  1  0  0  0  0
M  END
