30,31
 OpenBabel05122313063D

 31 32  0  0  1  0  0  0  0  0999 V2000
   -2.9840    4.4477    3.0107 N   0  0  0  0  0  0  0  0  0  0  0  0
   -4.3506   -3.0390   -1.0188 C   0  0  0  0  0  0  0  0  0  0  0  0
   -3.3250   -3.3880   -0.8208 H   0  0  0  0  0  0  0  0  0  0  0  0
   -5.3874   -3.9482   -1.2600 C   0  0  0  0  0  0  0  0  0  0  0  0
   -5.1750   -5.0280   -1.2492 H   0  0  0  0  0  0  0  0  0  0  0  0
   -6.6906   -3.4870   -1.5146 C   0  0  0  0  0  0  0  0  0  0  0  0
   -7.5027   -4.2052   -1.7072 H   0  0  0  0  0  0  0  0  0  0  0  0
   -6.9569   -2.1075   -1.5276 C   0  0  0  0  0  0  0  0  0  0  0  0
   -7.9740   -1.7434   -1.7394 H   0  0  0  0  0  0  0  0  0  0  0  0
   -5.9244   -1.1941   -1.2767 C   0  0  0  0  0  0  0  0  0  0  0  0
   -6.1314   -0.1135   -1.3090 H   0  0  0  0  0  0  0  0  0  0  0  0
   -4.6137   -1.6501   -1.0183 C   0  0  0  0  0  0  0  0  0  0  0  0
   -3.4720   -0.7200   -0.7573 C   0  0  1  0  0  3  0  0  0  0  0  0
   -3.7219    0.6348   -0.3250 C   0  0  0  0  0  3  0  0  0  0  0  0
   -4.7215    0.8705    0.0615 H   0  0  0  0  0  0  0  0  0  0  0  0
   -2.6690    1.5585   -0.1444 C   0  0  1  0  0  3  0  0  0  0  0  0
   -2.8586    2.6347    0.8818 C   0  0  0  0  0  0  0  0  0  0  0  0
   -4.0942    3.1241    1.3536 C   0  0  0  0  0  0  0  0  0  0  0  0
   -5.0433    2.7959    0.9094 H   0  0  0  0  0  0  0  0  0  0  0  0
   -4.1338    4.0162    2.4168 C   0  0  0  0  0  3  0  0  0  0  0  0
   -5.0717    4.4087    2.8324 H   0  0  0  0  0  0  0  0  0  0  0  0
   -1.7671    4.0279    2.5430 C   0  0  0  0  0  0  0  0  0  0  0  0
   -0.8866    4.4096    3.0777 H   0  0  0  0  0  0  0  0  0  0  0  0
   -1.6737    3.1290    1.4952 C   0  0  0  0  0  0  0  0  0  0  0  0
   -0.6921    2.7882    1.1323 H   0  0  0  0  0  0  0  0  0  0  0  0
   -3.0398    5.3087    4.1956 C   0  0  0  0  0  0  0  0  0  0  0  0
   -4.0291    5.7959    4.2545 H   0  0  0  0  0  0  0  0  0  0  0  0
   -2.2573    6.0872    4.1293 H   0  0  0  0  0  0  0  0  0  0  0  0
   -2.8750    4.7057    5.1108 H   0  0  0  0  0  0  0  0  0  0  0  0
   -2.3060   -1.1908   -0.8428 O   0  0  0  0  0  1  0  0  0  0  0  0
   -1.5049    1.4778   -0.6540 O   0  0  0  0  0  1  0  0  0  0  0  0
  1 26  1  0  0  0  0
  2 12  1  0  0  0  0
  2  3  1  0  0  0  0
  4  5  1  0  0  0  0
  4  2  2  0  0  0  0
  6  4  1  0  0  0  0
  7  6  1  0  0  0  0
  8  6  2  0  0  0  0
  8 10  1  0  0  0  0
  9  8  1  0  0  0  0
 10 12  2  0  0  0  0
 11 10  1  0  0  0  0
 12 13  1  0  0  0  0
 13 30  1  1  0  0  0
 13 14  1  0  0  0  0
 14 16  1  0  0  0  0
 14 15  1  0  0  0  0
 16 31  1  1  0  0  0
 16 17  1  0  0  0  0
 17 18  2  0  0  0  0
 17 24  1  0  0  0  0
 18 20  1  0  0  0  0
 19 18  1  0  0  0  0
 20 21  1  0  0  0  0
 20  1  1  0  0  0  0
 22  1  1  0  0  0  0
 22 23  1  0  0  0  0
 24 22  2  0  0  0  0
 25 24  1  0  0  0  0
 26 27  1  0  0  0  0
 26 29  1  0  0  0  0
 28 26  1  0  0  0  0
M  END
