2,3
 OpenBabel05122313063D

 35 36  0  0  0  0  0  0  0  0999 V2000
    1.6685    0.4054   -1.4814 S   0  0  0  0  0  0  0  0  0  0  0  0
    0.5651   -1.5864    0.3065 O   0  5  0  0  0  0  0  0  0  0  0  0
    0.2694    1.1271    1.0896 O   0  5  0  0  0  0  0  0  0  0  0  0
    1.8524   -1.8471    0.0257 C   0  0  0  0  0  0  0  0  0  0  0  0
    2.5809   -0.9895   -0.8261 C   0  0  0  0  0  0  0  0  0  0  0  0
    3.9216   -1.2458   -1.1479 C   0  0  0  0  0  0  0  0  0  0  0  0
    4.4572   -0.5585   -1.8204 H   0  0  0  0  0  0  0  0  0  0  0  0
    4.5746   -2.3666   -0.6064 C   0  0  0  0  0  0  0  0  0  0  0  0
    3.8331   -3.2166    0.2442 C   0  0  0  0  0  0  0  0  0  0  0  0
    4.3289   -4.1041    0.6714 H   0  0  0  0  0  0  0  0  0  0  0  0
    2.4867   -2.9938    0.5732 C   0  0  0  0  0  0  0  0  0  0  0  0
    6.0224   -2.6580   -0.9135 C   0  0  0  0  0  0  0  0  0  0  0  0
    6.4301   -1.9509   -1.6616 H   0  0  0  0  0  0  0  0  0  0  0  0
    6.1557   -3.6860   -1.3101 H   0  0  0  0  0  0  0  0  0  0  0  0
    6.6525   -2.5816   -0.0021 H   0  0  0  0  0  0  0  0  0  0  0  0
    1.7127   -3.9191    1.4704 C   0  0  0  0  0  0  0  0  0  0  0  0
    1.2927   -3.3770    2.3420 H   0  0  0  0  0  0  0  0  0  0  0  0
    2.3502   -4.7435    1.8420 H   0  0  0  0  0  0  0  0  0  0  0  0
    0.8459   -4.3619    0.9367 H   0  0  0  0  0  0  0  0  0  0  0  0
    1.3089    1.9039    0.8149 C   0  0  0  0  0  0  0  0  0  0  0  0
    2.1139    1.7253   -0.3437 C   0  0  0  0  0  0  0  0  0  0  0  0
    3.2080    2.5599   -0.6239 C   0  0  0  0  0  0  0  0  0  0  0  0
    3.7964    2.3881   -1.5386 H   0  0  0  0  0  0  0  0  0  0  0  0
    3.5494    3.6035    0.2518 C   0  0  0  0  0  0  0  0  0  0  0  0
    2.7438    3.7876    1.3987 C   0  0  0  0  0  0  0  0  0  0  0  0
    2.9872    4.6110    2.0913 H   0  0  0  0  0  0  0  0  0  0  0  0
    1.6392    2.9788    1.6965 C   0  0  0  0  0  0  0  0  0  0  0  0
    4.7316    4.5020   -0.0140 C   0  0  0  0  0  0  0  0  0  0  0  0
    5.2027    4.2769   -0.9906 H   0  0  0  0  0  0  0  0  0  0  0  0
    5.5125    4.3892    0.7681 H   0  0  0  0  0  0  0  0  0  0  0  0
    4.4376    5.5725   -0.0194 H   0  0  0  0  0  0  0  0  0  0  0  0
    0.7787    3.2021    2.9089 C   0  0  0  0  0  0  0  0  0  0  0  0
    1.1248    4.0731    3.4975 H   0  0  0  0  0  0  0  0  0  0  0  0
    0.7785    2.3077    3.5662 H   0  0  0  0  0  0  0  0  0  0  0  0
   -0.2805    3.3661    2.6197 H   0  0  0  0  0  0  0  0  0  0  0  0
  1  5  1  0  0  0  0
  1 21  1  0  0  0  0
  4  2  1  0  0  0  0
  4 11  1  0  0  0  0
  5  4  2  0  0  0  0
  6  5  1  0  0  0  0
  6  8  2  0  0  0  0
  7  6  1  0  0  0  0
  8  9  1  0  0  0  0
  9 11  2  0  0  0  0
  9 10  1  0  0  0  0
 11 16  1  0  0  0  0
 12  8  1  0  0  0  0
 12 15  1  0  0  0  0
 13 12  1  0  0  0  0
 14 12  1  0  0  0  0
 16 18  1  0  0  0  0
 16 17  1  0  0  0  0
 19 16  1  0  0  0  0
 20  3  1  0  0  0  0
 20 27  1  0  0  0  0
 21 20  2  0  0  0  0
 22 21  1  0  0  0  0
 22 24  2  0  0  0  0
 23 22  1  0  0  0  0
 24 25  1  0  0  0  0
 25 27  2  0  0  0  0
 25 26  1  0  0  0  0
 27 32  1  0  0  0  0
 28 24  1  0  0  0  0
 28 30  1  0  0  0  0
 29 28  1  0  0  0  0
 31 28  1  0  0  0  0
 32 33  1  0  0  0  0
 32 34  1  0  0  0  0
 35 32  1  0  0  0  0
M  CHG  2   2  -1   3  -1
M  END
