1,2
 OpenBabel05122313063D

 29 29  0  0  0  0  0  0  0  0999 V2000
    0.5847    1.3086   -1.0792 O   0  5  0  0  0  0  0  0  0  0  0  0
   -0.0031   -1.4943   -1.3591 O   0  5  0  0  0  0  0  0  0  0  0  0
    2.5015    1.5370   -2.1621 O   0  0  0  0  0  0  0  0  0  0  0  0
    1.7631   -2.5880   -2.1324 O   0  0  0  0  0  0  0  0  0  0  0  0
    1.7794    0.8622   -1.4356 C   0  0  0  0  0  0  0  0  0  0  0  0
    2.2326   -0.5308   -0.8985 C   0  0  0  0  0  0  0  0  0  0  0  0
    1.3072   -1.6242   -1.5325 C   0  0  0  0  0  0  0  0  0  0  0  0
    2.0831   -0.5952    0.6527 C   0  0  0  0  0  0  0  0  0  0  0  0
    2.7643    0.1485    1.1144 H   0  0  0  0  0  0  0  0  0  0  0  0
    1.0422   -0.2757    0.9151 H   0  0  0  0  0  0  0  0  0  0  0  0
    2.3146   -1.9562    1.2403 C   0  0  0  0  0  0  0  0  0  0  0  0
    1.8011   -2.7953    0.7350 H   0  0  0  0  0  0  0  0  0  0  0  0
    3.0712   -2.2185    2.3211 C   0  0  0  0  0  0  0  0  0  0  0  0
    3.6304   -1.4201    2.8363 H   0  0  0  0  0  0  0  0  0  0  0  0
    3.1755   -3.2416    2.7156 H   0  0  0  0  0  0  0  0  0  0  0  0
    3.6972   -0.8195   -1.3256 C   0  0  0  0  0  0  0  0  0  0  0  0
    3.8210   -1.9186   -1.3244 H   0  0  0  0  0  0  0  0  0  0  0  0
    3.7976   -0.4882   -2.3775 H   0  0  0  0  0  0  0  0  0  0  0  0
    4.7844   -0.1898   -0.4786 C   0  0  0  0  0  0  0  0  0  0  0  0
    5.5857   -1.0030    0.3509 C   0  0  0  0  0  0  0  0  0  0  0  0
    5.4051   -2.0888    0.3647 H   0  0  0  0  0  0  0  0  0  0  0  0
    6.5968   -0.4550    1.1555 C   0  0  0  0  0  0  0  0  0  0  0  0
    7.2070   -1.1150    1.7919 H   0  0  0  0  0  0  0  0  0  0  0  0
    6.8305    0.9287    1.1460 C   0  0  0  0  0  0  0  0  0  0  0  0
    7.6227    1.3634    1.7752 H   0  0  0  0  0  0  0  0  0  0  0  0
    6.0508    1.7506    0.3160 C   0  0  0  0  0  0  0  0  0  0  0  0
    6.2347    2.8363    0.2884 H   0  0  0  0  0  0  0  0  0  0  0  0
    5.0423    1.1997   -0.4894 C   0  0  0  0  0  0  0  0  0  0  0  0
    4.4358    1.8386   -1.1470 H   0  0  0  0  0  0  0  0  0  0  0  0
  3  5  2  0  0  0  0
  4  7  2  0  0  0  0
  5  1  1  0  0  0  0
  5  6  1  0  0  0  0
  6  8  1  0  0  0  0
  7  2  1  0  0  0  0
  7  6  1  0  0  0  0
  8 10  1  0  0  0  0
  8  9  1  0  0  0  0
  8 11  1  0  0  0  0
 11 13  2  0  0  0  0
 12 11  1  0  0  0  0
 13 15  1  0  0  0  0
 13 14  1  0  0  0  0
 16 17  1  0  0  0  0
 16  6  1  0  0  0  0
 16 19  1  0  0  0  0
 18 16  1  0  0  0  0
 19 20  1  0  0  0  0
 20 21  1  0  0  0  0
 20 22  2  0  0  0  0
 22 23  1  0  0  0  0
 24 22  1  0  0  0  0
 24 25  1  0  0  0  0
 26 24  2  0  0  0  0
 27 26  1  0  0  0  0
 28 19  2  0  0  0  0
 28 26  1  0  0  0  0
 29 28  1  0  0  0  0
M  CHG  2   1  -1   2  -1
M  END
