2,3
 OpenBabel05122313063D

 27 26  0  0  0  0  0  0  0  0999 V2000
    4.0077    0.1368   -0.2068 S   0  0  0  0  0  0  0  0  0  0  0  0
    0.9889   -1.4268    0.0994 O   0  0  0  0  0  1  0  0  0  0  0  0
    0.9705    1.3179    0.3346 O   0  0  0  0  0  1  0  0  0  0  0  0
    2.2159   -2.1064    0.2715 C   0  0  0  0  0  0  0  0  0  0  0  0
    3.2803   -1.4754   -0.6625 C   0  0  0  0  0  0  0  0  0  0  0  0
    2.8587   -1.4040   -1.6861 H   0  0  0  0  0  0  0  0  0  0  0  0
    4.1536   -2.1585   -0.7071 H   0  0  0  0  0  0  0  0  0  0  0  0
    2.9520    1.3692   -1.0508 C   0  0  0  0  0  0  0  0  0  0  0  0
    3.6512    2.0790   -1.5389 H   0  0  0  0  0  0  0  0  0  0  0  0
    2.3668    0.8608   -1.8436 H   0  0  0  0  0  0  0  0  0  0  0  0
    1.9757    2.1809   -0.1619 C   0  0  0  0  0  0  0  0  0  0  0  0
    2.6050   -2.0311    1.7511 C   0  0  0  0  0  0  0  0  0  0  0  0
    1.7923   -2.4519    2.3736 H   0  0  0  0  0  0  0  0  0  0  0  0
    2.7583   -0.9748    2.0429 H   0  0  0  0  0  0  0  0  0  0  0  0
    3.5415   -2.5937    1.9408 H   0  0  0  0  0  0  0  0  0  0  0  0
    1.9898   -3.5631   -0.1721 C   0  0  0  0  0  0  0  0  0  0  0  0
    1.7168   -3.6049   -1.2459 H   0  0  0  0  0  0  0  0  0  0  0  0
    1.1638   -4.0061    0.4185 H   0  0  0  0  0  0  0  0  0  0  0  0
    2.9003   -4.1753   -0.0162 H   0  0  0  0  0  0  0  0  0  0  0  0
    2.6834    2.8163    1.0401 C   0  0  0  0  0  0  0  0  0  0  0  0
    1.9512    3.3641    1.6651 H   0  0  0  0  0  0  0  0  0  0  0  0
    3.4652    3.5274    0.7046 H   0  0  0  0  0  0  0  0  0  0  0  0
    3.1580    2.0291    1.6575 H   0  0  0  0  0  0  0  0  0  0  0  0
    1.2873    3.2422   -1.0387 C   0  0  0  0  0  0  0  0  0  0  0  0
    0.7198    2.7444   -1.8491 H   0  0  0  0  0  0  0  0  0  0  0  0
    2.0303    3.9349   -1.4820 H   0  0  0  0  0  0  0  0  0  0  0  0
    0.5822    3.8376   -0.4245 H   0  0  0  0  0  0  0  0  0  0  0  0
  2  4  1  0  0  0  0
  4 12  1  0  0  0  0
  5  1  1  0  0  0  0
  5  4  1  0  0  0  0
  6  5  1  0  0  0  0
  7  5  1  0  0  0  0
  8  1  1  0  0  0  0
  8 11  1  0  0  0  0
  9  8  1  0  0  0  0
 10  8  1  0  0  0  0
 11  3  1  0  0  0  0
 11 20  1  0  0  0  0
 12 15  1  0  0  0  0
 12 14  1  0  0  0  0
 12 13  1  0  0  0  0
 16 19  1  0  0  0  0
 16  4  1  0  0  0  0
 16 18  1  0  0  0  0
 17 16  1  0  0  0  0
 20 23  1  0  0  0  0
 20 21  1  0  0  0  0
 22 20  1  0  0  0  0
 24 27  1  0  0  0  0
 24 11  1  0  0  0  0
 25 24  1  0  0  0  0
 26 24  1  0  0  0  0
M  END
