2,4
 OpenBabel05122313063D

 16 16  0  0  0  0  0  0  0  0999 V2000
    5.1610   -0.0307   -0.0150 N   0  0  0  0  0  0  0  0  0  0  0  0
   -0.7536    0.7461   -1.3197 O   0  5  0  0  0  0  0  0  0  0  0  0
    0.8725    2.2548   -1.6870 O   0  0  0  0  0  0  0  0  0  0  0  0
   -0.3132   -1.1541    0.4585 O   0  5  0  0  0  0  0  0  0  0  0  0
    5.9338   -0.8002    0.5629 O   0  0  0  0  0  0  0  0  0  0  0  0
    5.5037    0.9553   -0.6693 O   0  0  0  0  0  0  0  0  0  0  0  0
    0.5097    1.1976   -1.1976 C   0  0  0  0  0  0  0  0  0  0  0  0
    1.4266    0.2671   -0.4594 C   0  0  0  0  0  0  0  0  0  0  0  0
    0.9658   -0.8560    0.3089 C   0  0  0  0  0  0  0  0  0  0  0  0
    1.9303   -1.6928    0.9438 C   0  0  0  0  0  0  0  0  0  0  0  0
    1.5581   -2.5491    1.5245 H   0  0  0  0  0  0  0  0  0  0  0  0
    3.2902   -1.4301    0.8377 C   0  0  0  0  0  0  0  0  0  0  0  0
    4.0463   -2.0609    1.3240 H   0  0  0  0  0  0  0  0  0  0  0  0
    3.7187   -0.3164    0.0879 C   0  0  0  0  0  0  0  0  0  0  0  0
    2.8059    0.5213   -0.5526 C   0  0  0  0  0  0  0  0  0  0  0  0
    3.1546    1.3884   -1.1301 H   0  0  0  0  0  0  0  0  0  0  0  0
  1 14  1  0  0  0  0
  1  5  2  0  0  0  0
  2  7  1  0  0  0  0
  3  7  2  0  0  0  0
  6  1  2  0  0  0  0
  7  8  1  0  0  0  0
  8  9  1  0  0  0  0
  9  4  1  0  0  0  0
  9 10  2  0  0  0  0
 10 11  1  0  0  0  0
 12 10  1  0  0  0  0
 12 13  1  0  0  0  0
 14 12  2  0  0  0  0
 15  8  2  0  0  0  0
 15 14  1  0  0  0  0
 16 15  1  0  0  0  0
M  CHG  2   2  -1   4  -1
M  END
