1,2
 OpenBabel05122313063D

 52 53  0  0  0  0  0  0  0  0999 V2000
    1.3006   -0.4608    0.4906 O   0  5  0  0  0  0  0  0  0  0  0  0
   -1.3060   -0.4472   -0.4900 O   0  5  0  0  0  0  0  0  0  0  0  0
    1.6798   -1.6675    0.0014 C   0  0  0  0  0  0  0  0  0  0  0  0
    0.6972   -2.6723   -0.2402 C   0  0  0  0  0  0  0  0  0  0  0  0
    1.1157   -3.8540   -0.8951 C   0  0  0  0  0  0  0  0  0  0  0  0
    0.3522   -4.6104   -1.1328 H   0  0  0  0  0  0  0  0  0  0  0  0
    2.4475   -4.0891   -1.2555 C   0  0  0  0  0  0  0  0  0  0  0  0
    3.4025   -3.1226   -0.8910 C   0  0  0  0  0  0  0  0  0  0  0  0
    4.4560   -3.3280   -1.1247 H   0  0  0  0  0  0  0  0  0  0  0  0
    3.0638   -1.9161   -0.2554 C   0  0  0  0  0  0  0  0  0  0  0  0
   -1.6975   -1.6501   -0.0011 C   0  0  0  0  0  0  0  0  0  0  0  0
   -0.7253   -2.6651    0.2398 C   0  0  0  0  0  0  0  0  0  0  0  0
   -1.1558   -3.8427    0.8941 C   0  0  0  0  0  0  0  0  0  0  0  0
   -0.4001   -4.6072    1.1312 H   0  0  0  0  0  0  0  0  0  0  0  0
   -2.4900   -4.0642    1.2548 C   0  0  0  0  0  0  0  0  0  0  0  0
   -3.4349   -3.0875    0.8912 C   0  0  0  0  0  0  0  0  0  0  0  0
   -4.4904   -3.2821    1.1252 H   0  0  0  0  0  0  0  0  0  0  0  0
   -3.0838   -1.8843    0.2561 C   0  0  0  0  0  0  0  0  0  0  0  0
    4.1615   -0.9240    0.1899 C   0  0  0  0  0  0  0  0  0  0  0  0
    4.0458   -0.6946    1.7158 C   0  0  0  0  0  0  0  0  0  0  0  0
    4.2442   -1.6357    2.2671 H   0  0  0  0  0  0  0  0  0  0  0  0
    3.0344   -0.3479    1.9976 H   0  0  0  0  0  0  0  0  0  0  0  0
    4.7890    0.0598    2.0511 H   0  0  0  0  0  0  0  0  0  0  0  0
    4.0397    0.4163   -0.5694 C   0  0  0  0  0  0  0  0  0  0  0  0
    3.0859    0.9263   -0.3568 H   0  0  0  0  0  0  0  0  0  0  0  0
    4.0921    0.2560   -1.6644 H   0  0  0  0  0  0  0  0  0  0  0  0
    4.8732    1.0923   -0.2802 H   0  0  0  0  0  0  0  0  0  0  0  0
    5.5760   -1.4714   -0.0834 C   0  0  0  0  0  0  0  0  0  0  0  0
    5.7554   -2.4378    0.4290 H   0  0  0  0  0  0  0  0  0  0  0  0
    6.3266   -0.7481    0.2950 H   0  0  0  0  0  0  0  0  0  0  0  0
    5.7676   -1.6107   -1.1663 H   0  0  0  0  0  0  0  0  0  0  0  0
    2.8512   -5.3308   -2.0112 C   0  0  0  0  0  0  0  0  0  0  0  0
    3.8116   -5.7422   -1.6388 H   0  0  0  0  0  0  0  0  0  0  0  0
    2.9905   -5.1175   -3.0934 H   0  0  0  0  0  0  0  0  0  0  0  0
    2.0839   -6.1258   -1.9304 H   0  0  0  0  0  0  0  0  0  0  0  0
   -4.1713   -0.8805   -0.1882 C   0  0  0  0  0  0  0  0  0  0  0  0
   -4.0542   -0.6522   -1.7142 C   0  0  0  0  0  0  0  0  0  0  0  0
   -3.0393   -0.3162   -1.9967 H   0  0  0  0  0  0  0  0  0  0  0  0
   -4.7896    0.1100   -2.0491 H   0  0  0  0  0  0  0  0  0  0  0  0
   -4.2628   -1.5912   -2.2654 H   0  0  0  0  0  0  0  0  0  0  0  0
   -4.0349    0.4585    0.5709 C   0  0  0  0  0  0  0  0  0  0  0  0
   -3.0764    0.9592    0.3570 H   0  0  0  0  0  0  0  0  0  0  0  0
   -4.0872    0.2987    1.6660 H   0  0  0  0  0  0  0  0  0  0  0  0
   -4.8621    1.1427    0.2831 H   0  0  0  0  0  0  0  0  0  0  0  0
   -5.5913   -1.4129    0.0861 C   0  0  0  0  0  0  0  0  0  0  0  0
   -5.7835   -1.5503    1.1692 H   0  0  0  0  0  0  0  0  0  0  0  0
   -5.7814   -2.3772   -0.4263 H   0  0  0  0  0  0  0  0  0  0  0  0
   -6.3345   -0.6816   -0.2916 H   0  0  0  0  0  0  0  0  0  0  0  0
   -2.9064   -5.3022    2.0096 C   0  0  0  0  0  0  0  0  0  0  0  0
   -2.1461   -6.1041    1.9301 H   0  0  0  0  0  0  0  0  0  0  0  0
   -3.8698   -5.7049    1.6353 H   0  0  0  0  0  0  0  0  0  0  0  0
   -3.0459   -5.0877    3.0915 H   0  0  0  0  0  0  0  0  0  0  0  0
  2 11  1  0  0  0  0
  3  1  1  0  0  0  0
  4  3  1  0  0  0  0
  4 12  1  0  0  0  0
  5  4  2  0  0  0  0
  6  5  1  0  0  0  0
  7  5  1  0  0  0  0
  7  8  2  0  0  0  0
  8 10  1  0  0  0  0
  9  8  1  0  0  0  0
 10  3  2  0  0  0  0
 10 19  1  0  0  0  0
 11 12  2  0  0  0  0
 11 18  1  0  0  0  0
 12 13  1  0  0  0  0
 13 14  1  0  0  0  0
 13 15  2  0  0  0  0
 15 49  1  0  0  0  0
 16 17  1  0  0  0  0
 16 15  1  0  0  0  0
 18 16  2  0  0  0  0
 19 20  1  0  0  0  0
 20 22  1  0  0  0  0
 20 23  1  0  0  0  0
 20 21  1  0  0  0  0
 24 25  1  0  0  0  0
 24 27  1  0  0  0  0
 24 19  1  0  0  0  0
 26 24  1  0  0  0  0
 28 19  1  0  0  0  0
 28 30  1  0  0  0  0
 28 29  1  0  0  0  0
 31 28  1  0  0  0  0
 32 35  1  0  0  0  0
 32 33  1  0  0  0  0
 32  7  1  0  0  0  0
 34 32  1  0  0  0  0
 36 45  1  0  0  0  0
 36 18  1  0  0  0  0
 36 41  1  0  0  0  0
 37 36  1  0  0  0  0
 38 37  1  0  0  0  0
 39 37  1  0  0  0  0
 40 37  1  0  0  0  0
 41 43  1  0  0  0  0
 42 41  1  0  0  0  0
 44 41  1  0  0  0  0
 45 46  1  0  0  0  0
 47 45  1  0  0  0  0
 48 45  1  0  0  0  0
 49 52  1  0  0  0  0
 50 49  1  0  0  0  0
 51 49  1  0  0  0  0
M  CHG  2   1  -1   2  -1
M  END
