1,2
 OpenBabel05122313063D

 27 29  0  0  0  0  0  0  0  0999 V2000
    0.8270   -1.0271   -0.3752 O   0  5  0  0  0  0  0  0  0  0  0  0
   -0.6072    0.9448   -1.4566 O   0  5  0  0  0  0  0  0  0  0  0  0
    3.3244    1.6011   -0.5888 O   0  0  0  0  0  0  0  0  0  0  0  0
    6.5260   -3.1818    1.8935 F   0  0  0  0  0  0  0  0  0  0  0  0
    1.4190    0.1281   -0.5823 C   0  0  0  0  0  0  0  0  0  0  0  0
    0.6200    1.1874   -1.1693 C   0  0  0  0  0  0  0  0  0  0  0  0
    1.2298    2.4671   -1.4203 C   0  0  0  0  0  0  0  0  0  0  0  0
    0.5136    3.5796   -1.9314 C   0  0  0  0  0  3  0  0  0  0  0  0
   -0.5589    3.4516   -2.1323 H   0  0  0  0  0  0  0  0  0  0  0  0
    1.1636    4.7901   -2.1394 C   0  0  0  0  0  0  0  0  0  0  0  0
    0.6073    5.6552   -2.5289 H   0  0  0  0  0  0  0  0  0  0  0  0
    2.5419    4.9205   -1.8357 C   0  0  0  0  0  0  0  0  0  0  0  0
    3.0488    5.8834   -1.9990 H   0  0  0  0  0  0  0  0  0  0  0  0
    3.2647    3.8471   -1.3185 C   0  0  0  0  0  0  0  0  0  0  0  0
    4.3304    3.9297   -1.0628 H   0  0  0  0  0  0  0  0  0  0  0  0
    2.6033    2.6210   -1.1078 C   0  0  0  0  0  0  0  0  0  0  0  0
    2.7788    0.3767   -0.3075 C   0  0  0  0  0  0  0  0  0  0  0  0
    3.7420   -0.5582    0.2642 C   0  0  0  0  0  0  0  0  0  0  0  0
    3.3419   -1.8304    0.7538 C   0  0  0  0  0  0  0  0  0  0  0  0
    2.2803   -2.1014    0.7018 H   0  0  0  0  0  0  0  0  0  0  0  0
    4.2780   -2.7115    1.3037 C   0  0  0  0  0  0  0  0  0  0  0  0
    3.9774   -3.6953    1.6918 H   0  0  0  0  0  0  0  0  0  0  0  0
    5.6243   -2.3324    1.3685 C   0  0  0  0  0  0  0  0  0  0  0  0
    6.0525   -1.0830    0.8991 C   0  0  0  0  0  0  0  0  0  0  0  0
    7.1169   -0.8167    0.9690 H   0  0  0  0  0  0  0  0  0  0  0  0
    5.1145   -0.2041    0.3535 C   0  0  0  0  0  0  0  0  0  0  0  0
    5.4414    0.7775   -0.0139 H   0  0  0  0  0  0  0  0  0  0  0  0
  2  6  1  0  0  0  0
  3 17  1  0  0  0  0
  5  1  1  0  0  0  0
  5 17  2  0  0  0  0
  6  5  1  0  0  0  0
  7  6  2  0  0  0  0
  7 16  1  0  0  0  0
  8  7  1  0  0  0  0
  9  8  1  0  0  0  0
 10  8  1  0  0  0  0
 10 12  2  0  0  0  0
 11 10  1  0  0  0  0
 12 14  1  0  0  0  0
 13 12  1  0  0  0  0
 14 16  2  0  0  0  0
 14 15  1  0  0  0  0
 16  3  1  0  0  0  0
 17 18  1  0  0  0  0
 18 26  2  0  0  0  0
 18 19  1  0  0  0  0
 19 21  2  0  0  0  0
 20 19  1  0  0  0  0
 21 23  1  0  0  0  0
 21 22  1  0  0  0  0
 23  4  1  0  0  0  0
 24 25  1  0  0  0  0
 24 23  2  0  0  0  0
 26 24  1  0  0  0  0
 27 26  1  0  0  0  0
M  CHG  2   1  -1   2  -1
M  END
