3,4
 OpenBabel05122313063D

 32 31  0  0  1  0  0  0  0  0999 V2000
    2.8630    1.2713    0.7028 P   0  0  0  0  0  4  0  0  0  0  0  0
    2.3763   -1.7310    2.6331 N   0  0  0  0  0  0  0  0  0  0  0  0
    1.9175    1.0136   -0.4618 O   0  0  0  0  0  1  0  0  0  0  0  0
    0.5754   -0.8593    1.5540 O   0  0  0  0  0  1  0  0  0  0  0  0
    4.2640    0.4754    0.6709 O   0  0  0  0  0  0  0  0  0  0  0  0
    3.3149    2.8162    0.8378 O   0  0  0  0  0  0  0  0  0  0  0  0
    2.1657    0.7397    2.2985 C   0  0  0  0  0  0  0  0  0  0  0  0
    2.9031    0.9242    3.1000 H   0  0  0  0  0  0  0  0  0  0  0  0
    1.2663    1.3766    2.4509 H   0  0  0  0  0  0  0  0  0  0  0  0
    1.6630   -0.6881    2.1551 C   0  0  2  0  0  3  0  0  0  0  0  0
    3.7419   -1.6568    3.1280 C   0  0  0  0  0  0  0  0  0  0  0  0
    4.1436   -0.6340    3.0570 H   0  0  0  0  0  0  0  0  0  0  0  0
    4.3906   -2.3029    2.5007 H   0  0  0  0  0  0  0  0  0  0  0  0
    3.8012   -2.0118    4.1787 H   0  0  0  0  0  0  0  0  0  0  0  0
    1.8506   -3.0810    2.4331 C   0  0  0  0  0  0  0  0  0  0  0  0
    2.1381   -3.7127    3.2958 H   0  0  0  0  0  0  0  0  0  0  0  0
    2.2607   -3.5072    1.4940 H   0  0  0  0  0  0  0  0  0  0  0  0
    0.7516   -3.0382    2.3406 H   0  0  0  0  0  0  0  0  0  0  0  0
    4.9891    0.2825   -0.5814 C   0  0  0  0  0  0  0  0  0  0  0  0
    5.6839    1.1410   -0.6958 H   0  0  0  0  0  0  0  0  0  0  0  0
    4.2640    0.3037   -1.4214 H   0  0  0  0  0  0  0  0  0  0  0  0
    5.7178   -1.0415   -0.5151 C   0  0  0  0  0  0  0  0  0  0  0  0
    6.3969   -1.0747    0.3603 H   0  0  0  0  0  0  0  0  0  0  0  0
    6.3272   -1.1738   -1.4312 H   0  0  0  0  0  0  0  0  0  0  0  0
    4.9974   -1.8807   -0.4646 H   0  0  0  0  0  0  0  0  0  0  0  0
    2.3469    3.8764    0.5520 C   0  0  0  0  0  0  0  0  0  0  0  0
    1.3351    3.5338    0.8547 H   0  0  0  0  0  0  0  0  0  0  0  0
    2.6466    4.7079    1.2208 H   0  0  0  0  0  0  0  0  0  0  0  0
    2.3936    4.2858   -0.9066 C   0  0  0  0  0  0  0  0  0  0  0  0
    3.4201    4.5804   -1.2026 H   0  0  0  0  0  0  0  0  0  0  0  0
    1.7249    5.1547   -1.0718 H   0  0  0  0  0  0  0  0  0  0  0  0
    2.0483    3.4670   -1.5664 H   0  0  0  0  0  0  0  0  0  0  0  0
  1  6  1  0  0  0  0
  1  7  1  0  0  0  0
  2 11  1  0  0  0  0
  3  1  1  0  0  0  0
  5  1  1  0  0  0  0
  7  9  1  0  0  0  0
  7  8  1  0  0  0  0
 10  4  1  6  0  0  0
 10  7  1  0  0  0  0
 10  2  1  0  0  0  0
 11 14  1  0  0  0  0
 12 11  1  0  0  0  0
 13 11  1  0  0  0  0
 15  2  1  0  0  0  0
 15 16  1  0  0  0  0
 17 15  1  0  0  0  0
 18 15  1  0  0  0  0
 19 22  1  0  0  0  0
 19  5  1  0  0  0  0
 20 19  1  0  0  0  0
 21 19  1  0  0  0  0
 22 25  1  0  0  0  0
 22 23  1  0  0  0  0
 24 22  1  0  0  0  0
 26  6  1  0  0  0  0
 26 27  1  0  0  0  0
 26 28  1  0  0  0  0
 29 26  1  0  0  0  0
 30 29  1  0  0  0  0
 31 29  1  0  0  0  0
 32 29  1  0  0  0  0
M  END
