3,4
 OpenBabel05122313063D

 14 14  0  0  1  0  0  0  0  0999 V2000
    2.4188    2.1099   -1.8645 Cl  0  0  0  0  0  0  0  0  0  0  0  0
    6.7631   -0.1681    0.4821 Cl  0  0  0  0  0  0  0  0  0  0  0  0
    0.9436   -2.7747    0.1945 O   0  5  0  0  0  0  0  0  0  0  0  0
    1.0417   -0.2818   -0.9652 O   0  0  0  0  0  1  0  0  0  0  0  0
    2.2947   -0.3210   -0.6479 C   0  0  2  0  0  3  0  0  0  0  0  0
    2.1747   -2.5822    0.3787 C   0  0  0  0  0  0  0  0  0  0  0  0
    2.7326   -3.4348    0.8310 H   0  0  0  0  0  0  0  0  0  0  0  0
    4.3125   -1.3642    0.3898 C   0  0  0  0  0  0  0  0  0  0  0  0
    4.7693   -2.2077    0.9271 H   0  0  0  0  0  0  0  0  0  0  0  0
    5.0751   -0.2577    0.0477 C   0  0  0  0  0  0  0  0  0  0  0  0
    2.9305   -1.4100    0.0525 C   0  0  0  0  0  0  0  0  0  0  0  0
    4.4907    0.8234   -0.6603 C   0  0  0  0  0  0  0  0  0  0  0  0
    5.1001    1.6937   -0.9390 H   0  0  0  0  0  0  0  0  0  0  0  0
    3.1441    0.7855   -1.0016 C   0  0  0  0  0  0  0  0  0  0  0  0
  1 14  1  0  0  0  0
  3  6  1  0  0  0  0
  5  4  1  1  0  0  0
  5 11  1  0  0  0  0
  6  7  1  0  0  0  0
  8  9  1  0  0  0  0
 10  8  2  0  0  0  0
 10  2  1  0  0  0  0
 11  6  2  0  0  0  0
 11  8  1  0  0  0  0
 12 10  1  0  0  0  0
 13 12  1  0  0  0  0
 14 12  2  0  0  0  0
 14  5  1  0  0  0  0
M  CHG  1   3  -1
M  END
