1,2
 OpenBabel05122313063D

 37 41  0  0  1  0  0  0  0  0999 V2000
    1.6871   -1.8700   -1.2366 O   0  0  0  0  0  1  0  0  0  0  0  0
   -0.1807   -0.1986   -0.5104 O   0  0  0  0  0  1  0  0  0  0  0  0
   -2.4772   -2.8163    2.5615 O   0  0  0  0  0  0  0  0  0  0  0  0
    1.1928   -4.0513    0.4686 O   0  0  0  0  0  0  0  0  0  0  0  0
   -6.0631    3.7099   -1.5662 O   0  0  0  0  0  0  0  0  0  0  0  0
   -4.8186   -1.0017    2.3598 O   0  0  0  0  0  0  0  0  0  0  0  0
   -0.6288   -1.2783   -1.3159 C   0  0  1  0  0  0  0  0  0  0  0  0
   -0.6099   -0.9726   -2.3913 H   0  0  0  0  0  0  0  0  0  0  0  0
    0.3861   -2.4397   -1.1657 C   0  0  2  0  0  0  0  0  0  0  0  0
    0.2857   -3.1620   -2.0102 H   0  0  0  0  0  0  0  0  0  0  0  0
    0.2886   -3.2987    0.1428 C   0  0  0  0  0  0  0  0  0  0  0  0
   -0.9475   -3.0876    0.9180 C   0  0  0  0  0  0  0  0  0  0  0  0
   -1.3097   -3.4113    2.2210 C   0  0  0  0  0  0  0  0  0  0  0  0
   -0.8184   -4.0042    2.9995 H   0  0  0  0  0  0  0  0  0  0  0  0
   -2.8899   -2.0843    1.4681 C   0  0  0  0  0  0  0  0  0  0  0  0
   -3.9938   -1.1333    1.4530 C   0  0  0  0  0  0  0  0  0  0  0  0
   -3.9675   -0.2525    0.2216 C   0  0  0  0  0  0  0  0  0  0  0  0
   -4.8809    0.8297    0.1477 C   0  0  0  0  0  0  0  0  0  0  0  0
   -5.9751    1.2280    1.1185 C   0  0  0  0  0  0  0  0  0  0  0  0
   -5.5506    1.4035    2.1275 H   0  0  0  0  0  0  0  0  0  0  0  0
   -6.6839    0.3894    1.2684 H   0  0  0  0  0  0  0  0  0  0  0  0
   -6.6271    2.4816    0.5008 C   0  0  0  0  0  0  0  0  0  0  0  0
   -7.7002    2.3406    0.2557 H   0  0  0  0  0  0  0  0  0  0  0  0
   -6.5803    3.3736    1.1588 H   0  0  0  0  0  0  0  0  0  0  0  0
   -5.8636    2.7809   -0.7982 C   0  0  0  0  0  0  0  0  0  0  0  0
   -4.8304    1.7202   -0.9389 C   0  0  0  0  0  0  0  0  0  0  0  0
   -3.8965    1.5757   -1.9752 C   0  0  0  0  0  0  0  0  0  0  0  0
   -3.8828    2.3049   -2.7998 H   0  0  0  0  0  0  0  0  0  0  0  0
   -3.0077    0.5013   -1.9208 C   0  0  0  0  0  0  0  0  0  0  0  0
   -2.2663    0.3664   -2.7218 H   0  0  0  0  0  0  0  0  0  0  0  0
   -3.0260   -0.4140   -0.8449 C   0  0  0  0  0  0  0  0  0  0  0  0
   -2.0864   -1.6241   -0.9035 C   0  0  2  0  0  0  0  0  0  0  0  0
   -1.9928   -2.2432    0.4427 C   0  0  0  0  0  0  0  0  0  0  0  0
   -2.6856   -2.6466   -1.9104 C   0  0  0  0  0  0  0  0  0  0  0  0
   -3.7225   -2.9051   -1.6220 H   0  0  0  0  0  0  0  0  0  0  0  0
   -2.0903   -3.5806   -1.9309 H   0  0  0  0  0  0  0  0  0  0  0  0
   -2.7035   -2.2147   -2.9305 H   0  0  0  0  0  0  0  0  0  0  0  0
  1  9  1  0  0  0  0
  5 25  2  0  0  0  0
  7  8  1  6  0  0  0
  7  9  1  0  0  0  0
  7 32  1  0  0  0  0
  7  2  1  0  0  0  0
  9 10  1  6  0  0  0
  9 11  1  0  0  0  0
 11  4  2  0  0  0  0
 11 12  1  0  0  0  0
 12 13  2  0  0  0  0
 13  3  1  0  0  0  0
 13 14  1  0  0  0  0
 15  3  1  0  0  0  0
 16 15  1  0  0  0  0
 16  6  2  0  0  0  0
 17 16  1  0  0  0  0
 18 17  1  0  0  0  0
 18 19  1  0  0  0  0
 19 21  1  0  0  0  0
 19 20  1  0  0  0  0
 22 19  1  0  0  0  0
 22 24  1  0  0  0  0
 23 22  1  0  0  0  0
 25 22  1  0  0  0  0
 26 25  1  0  0  0  0
 26 18  2  0  0  0  0
 27 29  2  0  0  0  0
 27 26  1  0  0  0  0
 28 27  1  0  0  0  0
 29 31  1  0  0  0  0
 30 29  1  0  0  0  0
 31 17  2  0  0  0  0
 32 34  1  6  0  0  0
 32 31  1  0  0  0  0
 32 33  1  0  0  0  0
 33 12  1  0  0  0  0
 33 15  2  0  0  0  0
 34 35  1  0  0  0  0
 36 34  1  0  0  0  0
 37 34  1  0  0  0  0
M  END
