2,3
 OpenBabel05122313063D

 31 32  0  0  1  0  0  0  0  0999 V2000
    1.0289    0.1229    0.1368 P   0  0  0  0  0  4  0  0  0  0  0  0
   -1.5777   -0.8675    1.6235 O   0  0  0  0  0  1  0  0  0  0  0  0
   -0.2320    0.2823   -0.7328 O   0  0  0  0  0  1  0  0  0  0  0  0
   -0.1843   -1.7217    3.1638 O   0  0  0  0  0  0  0  0  0  0  0  0
    0.5837    0.1656    1.9320 C   0  0  0  0  0  0  0  0  0  0  0  0
    1.4732    0.0180    2.5706 H   0  0  0  0  0  0  0  0  0  0  0  0
    0.1456    1.1778    2.0798 H   0  0  0  0  0  0  0  0  0  0  0  0
   -0.5008   -0.8364    2.2099 C   0  0  1  0  0  3  0  0  0  0  0  0
    1.8371   -1.4723   -0.1512 C   0  0  0  0  0  0  0  0  0  0  0  0
    1.3435   -2.2703   -1.2025 C   0  0  0  0  0  0  0  0  0  0  0  0
    0.4852   -1.9159   -1.7934 H   0  0  0  0  0  0  0  0  0  0  0  0
    1.9266   -3.5229   -1.4466 C   0  0  0  0  0  0  0  0  0  0  0  0
    1.5375   -4.1520   -2.2609 H   0  0  0  0  0  0  0  0  0  0  0  0
    2.9910   -3.9751   -0.6516 C   0  0  0  0  0  0  0  0  0  0  0  0
    3.4439   -4.9588   -0.8475 H   0  0  0  0  0  0  0  0  0  0  0  0
    3.4755   -3.1814    0.4025 C   0  0  0  0  0  0  0  0  0  0  0  0
    4.3033   -3.5418    1.0313 H   0  0  0  0  0  0  0  0  0  0  0  0
    2.8987   -1.9302    0.6590 C   0  0  0  0  0  0  0  0  0  0  0  0
    3.2775   -1.3176    1.4922 H   0  0  0  0  0  0  0  0  0  0  0  0
    2.1896    1.4888   -0.1271 C   0  0  0  0  0  0  0  0  0  0  0  0
    3.5610    1.2885   -0.3801 C   0  0  0  0  0  0  0  0  0  0  0  0
    3.9773    0.2712   -0.4222 H   0  0  0  0  0  0  0  0  0  0  0  0
    4.3925    2.3972   -0.5974 C   0  0  0  0  0  0  0  0  0  0  0  0
    5.4633    2.2445   -0.7990 H   0  0  0  0  0  0  0  0  0  0  0  0
    3.8578    3.6949   -0.5682 C   0  0  0  0  0  0  0  0  0  0  0  0
    4.5134    4.5616   -0.7419 H   0  0  0  0  0  0  0  0  0  0  0  0
    2.4869    3.8904   -0.3296 C   0  0  0  0  0  0  0  0  0  0  0  0
    2.0661    4.9070   -0.3208 H   0  0  0  0  0  0  0  0  0  0  0  0
    1.6444    2.7920   -0.1132 C   0  0  0  0  0  0  0  0  0  0  0  0
    0.5637    2.9348    0.0573 H   0  0  0  0  0  0  0  0  0  0  0  0
   -0.9586   -2.3240    3.2490 H   0  0  0  0  0  0  0  0  0  0  0  0
  1  5  1  0  0  0  0
  3  1  1  0  0  0  0
  4 31  1  0  0  0  0
  5  7  1  0  0  0  0
  5  8  1  0  0  0  0
  5  6  1  0  0  0  0
  8  2  1  6  0  0  0
  8  4  1  0  0  0  0
  9  1  1  0  0  0  0
  9 18  1  0  0  0  0
 10  9  2  0  0  0  0
 11 10  1  0  0  0  0
 12 10  1  0  0  0  0
 12 14  2  0  0  0  0
 13 12  1  0  0  0  0
 14 16  1  0  0  0  0
 15 14  1  0  0  0  0
 16 18  2  0  0  0  0
 16 17  1  0  0  0  0
 18 19  1  0  0  0  0
 20 29  1  0  0  0  0
 20  1  1  0  0  0  0
 21 20  2  0  0  0  0
 22 21  1  0  0  0  0
 23 25  2  0  0  0  0
 23 21  1  0  0  0  0
 24 23  1  0  0  0  0
 25 27  1  0  0  0  0
 26 25  1  0  0  0  0
 27 28  1  0  0  0  0
 27 29  2  0  0  0  0
 29 30  1  0  0  0  0
M  END
