2,3
 OpenBabel05122313063D

 16 16  0  0  0  0  0  0  0  0999 V2000
   -1.6347   -3.8219   -0.6173 O   0  5  0  0  0  0  0  0  0  0  0  0
   -0.5110   -1.9306   -0.4221 O   0  0  0  0  0  0  0  0  0  0  0  0
   -1.9947    0.3823   -0.0492 O   0  5  0  0  0  0  0  0  0  0  0  0
   -4.1746   -2.6242   -0.2741 C   0  0  0  0  0  0  0  0  0  0  0  0
   -4.0661   -3.6795   -0.5682 H   0  0  0  0  0  0  0  0  0  0  0  0
   -2.9285   -1.8536   -0.2369 C   0  0  0  0  0  0  0  0  0  0  0  0
   -2.9953   -0.4700   -0.1033 C   0  0  0  0  0  0  0  0  0  0  0  0
   -4.3677    0.1893   -0.1067 C   0  0  0  0  0  0  0  0  0  0  0  0
   -4.2902    1.1840    0.3764 H   0  0  0  0  0  0  0  0  0  0  0  0
   -4.6342    0.3729   -1.1751 H   0  0  0  0  0  0  0  0  0  0  0  0
   -5.4514   -0.6723    0.5515 C   0  0  0  0  0  0  0  0  0  0  0  0
   -5.3158   -0.6496    1.6619 H   0  0  0  0  0  0  0  0  0  0  0  0
   -6.4511   -0.2291    0.3620 H   0  0  0  0  0  0  0  0  0  0  0  0
   -5.3761   -2.1001    0.0704 C   0  0  0  0  0  0  0  0  0  0  0  0
   -6.2854   -2.7213    0.0708 H   0  0  0  0  0  0  0  0  0  0  0  0
   -1.6718   -2.5981   -0.4276 C   0  0  0  0  0  0  0  0  0  0  0  0
  1 16  1  0  0  0  0
  4  6  1  0  0  0  0
  4 14  2  0  0  0  0
  5  4  1  0  0  0  0
  6  7  2  0  0  0  0
  7  3  1  0  0  0  0
  8  7  1  0  0  0  0
  8  9  1  0  0  0  0
  8 11  1  0  0  0  0
 10  8  1  0  0  0  0
 11 12  1  0  0  0  0
 13 11  1  0  0  0  0
 14 15  1  0  0  0  0
 14 11  1  0  0  0  0
 16  2  2  0  0  0  0
 16  6  1  0  0  0  0
M  CHG  2   1  -1   3  -1
M  END
