1,34
 OpenBabel05122313063D

 34 34  0  0  1  0  0  0  0  0999 V2000
    1.3057    1.1504    0.5261 O   0  0  0  0  0  1  0  0  0  0  0  0
   -0.0777    1.7101    0.2770 P   0  0  0  0  0  4  0  0  0  0  0  0
    0.0264    3.3022    0.0223 O   0  0  0  0  0  0  0  0  0  0  0  0
   -1.1104    4.1968    0.1072 C   0  0  0  0  0  0  0  0  0  0  0  0
   -1.9420    3.6943    0.6460 H   0  0  0  0  0  0  0  0  0  0  0  0
   -0.7731    5.0469    0.7343 H   0  0  0  0  0  0  0  0  0  0  0  0
   -1.5274    4.6726   -1.2722 C   0  0  0  0  0  0  0  0  0  0  0  0
   -2.3334    5.4285   -1.1835 H   0  0  0  0  0  0  0  0  0  0  0  0
   -1.9081    3.8405   -1.8981 H   0  0  0  0  0  0  0  0  0  0  0  0
   -0.6722    5.1368   -1.8009 H   0  0  0  0  0  0  0  0  0  0  0  0
   -1.1591    1.4691    1.4588 O   0  0  0  0  0  0  0  0  0  0  0  0
   -0.7528    1.2192    2.8425 C   0  0  0  0  0  0  0  0  0  0  0  0
    0.3243    0.9566    2.8539 H   0  0  0  0  0  0  0  0  0  0  0  0
   -0.9072    2.1642    3.4038 H   0  0  0  0  0  0  0  0  0  0  0  0
   -1.5937    0.0855    3.3858 C   0  0  0  0  0  0  0  0  0  0  0  0
   -1.3401   -0.0866    4.4510 H   0  0  0  0  0  0  0  0  0  0  0  0
   -1.3811   -0.8471    2.8279 H   0  0  0  0  0  0  0  0  0  0  0  0
   -2.6754    0.3160    3.3156 H   0  0  0  0  0  0  0  0  0  0  0  0
   -0.9323    0.9515   -1.1426 C   0  0  0  0  0  0  0  0  0  0  0  0
   -1.8917    1.4696   -1.3150 H   0  0  0  0  0  0  0  0  0  0  0  0
   -0.2368    1.0994   -1.9986 H   0  0  0  0  0  0  0  0  0  0  0  0
   -1.0628   -0.5376   -0.8855 C   0  0  2  0  0  3  0  0  0  0  0  0
   -2.3917   -1.1864   -0.7883 C   0  0  0  0  0  0  0  0  0  0  0  0
   -3.5937   -0.5591   -1.1853 C   0  0  0  0  0  0  0  0  0  0  0  0
   -3.5821    0.4532   -1.6147 H   0  0  0  0  0  0  0  0  0  0  0  0
   -4.8150   -1.2319   -1.0577 C   0  0  0  0  0  0  0  0  0  0  0  0
   -5.7466   -0.7423   -1.3777 H   0  0  0  0  0  0  0  0  0  0  0  0
   -4.8488   -2.5303   -0.5226 C   0  0  0  0  0  0  0  0  0  0  0  0
   -5.8109   -3.0546   -0.4180 H   0  0  0  0  0  0  0  0  0  0  0  0
   -3.6578   -3.1607   -0.1198 C   0  0  0  0  0  0  0  0  0  0  0  0
   -3.6867   -4.1756    0.3037 H   0  0  0  0  0  0  0  0  0  0  0  0
   -2.4355   -2.4976   -0.2557 C   0  0  0  0  0  0  0  0  0  0  0  0
   -1.4888   -2.9620    0.0573 H   0  0  0  0  0  0  0  0  0  0  0  0
   -0.0389   -1.2104   -0.7013 O   0  0  0  0  0  1  0  0  0  0  0  0
  2  1  1  0  0  0  0
  2 11  1  0  0  0  0
  3  4  1  0  0  0  0
  3  2  1  0  0  0  0
  4  5  1  0  0  0  0
  4  6  1  0  0  0  0
  7  8  1  0  0  0  0
  7  4  1  0  0  0  0
  9  7  1  0  0  0  0
 10  7  1  0  0  0  0
 11 12  1  0  0  0  0
 12 13  1  0  0  0  0
 12 15  1  0  0  0  0
 12 14  1  0  0  0  0
 15 16  1  0  0  0  0
 17 15  1  0  0  0  0
 18 15  1  0  0  0  0
 19 22  1  0  0  0  0
 19  2  1  0  0  0  0
 20 19  1  0  0  0  0
 21 19  1  0  0  0  0
 22 23  1  0  0  0  0
 22 34  1  1  0  0  0
 23 32  1  0  0  0  0
 24 26  1  0  0  0  0
 24 23  2  0  0  0  0
 25 24  1  0  0  0  0
 26 28  2  0  0  0  0
 27 26  1  0  0  0  0
 28 29  1  0  0  0  0
 28 30  1  0  0  0  0
 30 31  1  0  0  0  0
 32 30  2  0  0  0  0
 32 33  1  0  0  0  0
M  END
