1,2
 OpenBabel05122313063D

 27 30  0  0  1  0  0  0  0  0999 V2000
    0.8959   -1.5057   -0.3385 O   0  5  0  0  0  0  0  0  0  0  0  0
    1.8179    0.8722    0.8699 O   0  5  0  0  0  0  0  0  0  0  0  0
    6.9248   -0.4427   -0.7914 N   0  0  0  0  0  0  0  0  0  0  0  0
    2.1371   -1.6378   -0.6469 C   0  0  0  0  0  0  0  0  0  0  0  0
    2.4833   -2.8294   -1.4051 C   0  0  0  0  0  0  0  0  0  0  0  0
    1.6433   -3.4969   -1.6475 H   0  0  0  0  0  0  0  0  0  0  0  0
    3.7648   -3.1066   -1.7971 C   0  0  0  0  0  0  0  0  0  0  0  0
    3.9904   -4.0183   -2.3730 H   0  0  0  0  0  0  0  0  0  0  0  0
    4.8427   -2.2163   -1.4678 C   0  0  0  0  0  0  0  0  0  0  0  0
    6.1769   -2.4701   -1.8519 C   0  0  0  0  0  0  0  0  0  0  0  0
    6.4214   -3.3765   -2.4270 H   0  0  0  0  0  0  0  0  0  0  0  0
    7.1736   -1.5587   -1.4920 C   0  0  0  0  0  0  0  0  0  0  0  0
    8.2248   -1.7346   -1.7807 H   0  0  0  0  0  0  0  0  0  0  0  0
    5.6627   -0.1744   -0.4131 C   0  0  0  0  0  0  0  0  0  0  0  0
    5.4250    1.0508    0.3510 C   0  0  0  0  0  0  0  0  0  0  0  0
    6.4887    1.9220    0.6806 C   0  0  0  0  0  0  0  0  0  0  0  0
    7.4962    1.6430    0.3414 H   0  0  0  0  0  0  0  0  0  0  0  0
    6.2475    3.0867    1.4088 C   0  0  0  0  0  0  0  0  0  0  0  0
    7.0833    3.7579    1.6598 H   0  0  0  0  0  0  0  0  0  0  0  0
    4.9368    3.4093    1.8242 C   0  0  0  0  0  0  0  0  0  0  0  0
    4.7512    4.3304    2.3973 H   0  0  0  0  0  0  0  0  0  0  0  0
    3.8781    2.5601    1.5059 C   0  0  0  0  0  0  0  0  0  0  0  0
    2.8461    2.7825    1.8116 H   0  0  0  0  0  0  0  0  0  0  0  0
    4.1064    1.3738    0.7692 C   0  0  0  0  0  0  0  0  0  0  0  0
    2.9610    0.4974    0.4504 C   0  0  0  0  0  0  0  0  0  0  0  0
    3.2060   -0.7185   -0.3040 C   0  0  0  0  0  0  0  0  0  0  0  0
    4.5525   -1.0281   -0.7211 C   0  0  2  0  0  3  0  0  0  0  0  0
  3 14  1  0  0  0  0
  4  1  1  0  0  0  0
  4 26  2  0  0  0  0
  5  4  1  0  0  0  0
  6  5  1  0  0  0  0
  7  9  1  0  0  0  0
  7  5  2  0  0  0  0
  8  7  1  0  0  0  0
 10 12  1  0  0  0  0
 10  9  2  0  0  0  0
 11 10  1  0  0  0  0
 12  3  2  0  0  0  0
 13 12  1  0  0  0  0
 14 15  2  0  0  0  0
 15 16  1  0  0  0  0
 15 24  1  0  0  0  0
 16 18  2  0  0  0  0
 17 16  1  0  0  0  0
 18 19  1  0  0  0  0
 18 20  1  0  0  0  0
 20 21  1  0  0  0  0
 22 23  1  0  0  0  0
 22 20  2  0  0  0  0
 24 22  1  0  0  0  0
 25 24  2  0  0  0  0
 25  2  1  0  0  0  0
 26 25  1  0  0  0  0
 27  9  1  1  0  0  0
 27 14  1  0  0  0  0
 27 26  1  0  0  0  0
M  CHG  2   1  -1   2  -1
M  END
