2,3
 OpenBabel05122313063D

 21 21  0  0  1  0  0  0  0  0999 V2000
    6.6222   -0.3751   -0.1617 I   0  0  0  0  0  0  0  0  0  0  0  0
   -2.5819    1.6278    0.1255 O   0  5  0  0  0  0  0  0  0  0  0  0
   -0.4027   -0.2580   -0.1971 O   0  0  0  0  0  1  0  0  0  0  0  0
   -0.9489    4.7064    0.5610 F   0  0  0  0  0  0  0  0  0  0  0  0
   -2.6645    4.2495   -0.7129 F   0  0  0  0  0  0  0  0  0  0  0  0
   -2.8255    4.0416    1.4536 F   0  0  0  0  0  0  0  0  0  0  0  0
    0.3049    0.7822    0.0418 C   0  0  1  0  0  3  0  0  0  0  0  0
   -1.5738    2.3949    0.2820 C   0  0  0  0  0  0  0  0  0  0  0  0
    1.7798    0.5598   -0.0112 C   0  0  0  0  0  0  0  0  0  0  0  0
    2.7155    1.6133   -0.0969 C   0  0  0  0  0  0  0  0  0  0  0  0
    2.3760    2.6574   -0.1489 H   0  0  0  0  0  0  0  0  0  0  0  0
    4.5429    0.0251   -0.0981 C   0  0  0  0  0  0  0  0  0  0  0  0
    2.2612   -0.7682    0.0251 C   0  0  0  0  0  0  0  0  0  0  0  0
    1.5317   -1.5874    0.0949 H   0  0  0  0  0  0  0  0  0  0  0  0
   -0.2146    2.0755    0.3152 C   0  0  0  0  0  0  0  0  0  0  0  0
    0.4827    2.8966    0.5078 H   0  0  0  0  0  0  0  0  0  0  0  0
   -1.9995    3.8697    0.4052 C   0  0  0  0  0  0  0  0  0  0  0  0
    4.0910    1.3548   -0.1428 C   0  0  0  0  0  0  0  0  0  0  0  0
    4.8062    2.1858   -0.2169 H   0  0  0  0  0  0  0  0  0  0  0  0
    3.6320   -1.0423   -0.0131 C   0  0  0  0  0  0  0  0  0  0  0  0
    3.9910   -2.0804    0.0270 H   0  0  0  0  0  0  0  0  0  0  0  0
  1 12  1  0  0  0  0
  2  8  1  0  0  0  0
  5 17  1  0  0  0  0
  7  3  1  6  0  0  0
  7 15  1  0  0  0  0
  8 15  2  0  0  0  0
  8 17  1  0  0  0  0
  9 13  1  0  0  0  0
  9  7  1  0  0  0  0
 10  9  2  0  0  0  0
 11 10  1  0  0  0  0
 12 20  1  0  0  0  0
 13 14  1  0  0  0  0
 15 16  1  0  0  0  0
 17  4  1  0  0  0  0
 17  6  1  0  0  0  0
 18 12  2  0  0  0  0
 18 10  1  0  0  0  0
 19 18  1  0  0  0  0
 20 13  2  0  0  0  0
 20 21  1  0  0  0  0
M  CHG  1   2  -1
M  END
