1,2
 OpenBabel05122313063D

 33 34  0  0  1  0  0  0  0  0999 V2000
   -1.3724   -0.2237   -0.1358 O   0  5  0  0  0  0  0  0  0  0  0  0
    0.6171    1.7639    0.8936 O   0  0  0  0  0  1  0  0  0  0  0  0
   -3.4707    0.7882    0.0619 N   0  0  0  0  0  0  0  0  0  0  0  0
   -4.0152    1.9928    0.4533 N   0  0  0  0  0  0  0  0  0  0  0  0
   -2.0866    0.7763    0.1994 C   0  0  0  0  0  0  0  0  0  0  0  0
   -1.7405    2.0808    0.7289 C   0  0  0  0  0  0  0  0  0  0  0  0
   -3.0181    2.7643    0.8467 C   0  0  0  0  0  0  0  0  0  0  0  0
   -0.4113    2.5039    1.0264 C   0  0  2  0  0  3  0  0  0  0  0  0
   -0.1113    3.9343    1.4758 C   0  0  0  0  0  0  0  0  0  0  0  0
   -1.0128    4.3497    1.9624 H   0  0  0  0  0  0  0  0  0  0  0  0
    0.1912    4.7739    0.2182 C   0  0  0  0  0  0  0  0  0  0  0  0
    0.3989    5.8283    0.4920 H   0  0  0  0  0  0  0  0  0  0  0  0
   -0.6567    4.7610   -0.4960 H   0  0  0  0  0  0  0  0  0  0  0  0
    1.0816    4.3698   -0.3056 H   0  0  0  0  0  0  0  0  0  0  0  0
    1.0520    3.9767    2.4728 C   0  0  0  0  0  0  0  0  0  0  0  0
    0.8195    3.3991    3.3907 H   0  0  0  0  0  0  0  0  0  0  0  0
    1.2650    5.0223    2.7728 H   0  0  0  0  0  0  0  0  0  0  0  0
    1.9665    3.5428    2.0247 H   0  0  0  0  0  0  0  0  0  0  0  0
   -3.3545    4.1423    1.3292 C   0  0  0  0  0  0  0  0  0  0  0  0
   -4.4462    4.2889    1.2275 H   0  0  0  0  0  0  0  0  0  0  0  0
   -2.8380    4.9305    0.7445 H   0  0  0  0  0  0  0  0  0  0  0  0
   -3.0845    4.2889    2.3957 H   0  0  0  0  0  0  0  0  0  0  0  0
   -4.3290   -0.2278   -0.4294 C   0  0  0  0  0  0  0  0  0  0  0  0
   -3.8441   -1.5040   -0.7949 C   0  0  0  0  0  0  0  0  0  0  0  0
   -2.7762   -1.7283   -0.6998 H   0  0  0  0  0  0  0  0  0  0  0  0
   -4.7409   -2.4687   -1.2766 C   0  0  0  0  0  0  0  0  0  0  0  0
   -4.3509   -3.4589   -1.5583 H   0  0  0  0  0  0  0  0  0  0  0  0
   -6.1102   -2.1901   -1.4004 C   0  0  0  0  0  0  0  0  0  0  0  0
   -6.8036   -2.9557   -1.7797 H   0  0  0  0  0  0  0  0  0  0  0  0
   -6.5840   -0.9202   -1.0320 C   0  0  0  0  0  0  0  0  0  0  0  0
   -7.6555   -0.6831   -1.1204 H   0  0  0  0  0  0  0  0  0  0  0  0
   -5.7072    0.0581   -0.5501 C   0  0  0  0  0  0  0  0  0  0  0  0
   -6.0596    1.0545   -0.2561 H   0  0  0  0  0  0  0  0  0  0  0  0
  1  5  1  0  0  0  0
  3  5  1  0  0  0  0
  3  4  1  0  0  0  0
  4  7  2  0  0  0  0
  5  6  2  0  0  0  0
  6  7  1  0  0  0  0
  6  8  1  0  0  0  0
  7 19  1  0  0  0  0
  8  2  1  6  0  0  0
  8  9  1  0  0  0  0
  9 10  1  0  0  0  0
  9 15  1  0  0  0  0
 11 12  1  0  0  0  0
 11  9  1  0  0  0  0
 13 11  1  0  0  0  0
 14 11  1  0  0  0  0
 15 17  1  0  0  0  0
 15 16  1  0  0  0  0
 18 15  1  0  0  0  0
 19 22  1  0  0  0  0
 20 19  1  0  0  0  0
 21 19  1  0  0  0  0
 23  3  1  0  0  0  0
 24 25  1  0  0  0  0
 24 23  2  0  0  0  0
 26 24  1  0  0  0  0
 27 26  1  0  0  0  0
 28 26  2  0  0  0  0
 28 30  1  0  0  0  0
 29 28  1  0  0  0  0
 30 32  2  0  0  0  0
 31 30  1  0  0  0  0
 32 23  1  0  0  0  0
 32 33  1  0  0  0  0
M  CHG  1   1  -1
M  END
