1,2
 OpenBabel05122313063D

 23 24  0  0  0  0  0  0  0  0999 V2000
   -1.8645   -2.3855    0.1755 O   0  5  0  0  0  0  0  0  0  0  0  0
   -1.1681   -1.5028   -1.7475 O   0  5  0  0  0  0  0  0  0  0  0  0
   -2.0482   -2.1032   -1.0512 C   0  0  0  0  0  3  0  0  0  0  0  0
   -3.4118   -2.3774   -1.6923 C   0  0  0  0  0  0  0  0  0  0  0  0
   -3.2560   -2.5937   -2.7653 H   0  0  0  0  0  0  0  0  0  0  0  0
   -3.8764   -3.2593   -1.2134 H   0  0  0  0  0  0  0  0  0  0  0  0
   -4.2737   -1.1405   -1.5454 C   0  0  0  0  0  0  0  0  0  0  0  0
   -4.2990   -0.1989   -2.5720 C   0  0  0  0  0  0  0  0  0  0  0  0
   -3.7162   -0.3953   -3.4847 H   0  0  0  0  0  0  0  0  0  0  0  0
   -5.0473    1.0002   -2.4647 C   0  0  0  0  0  0  0  0  0  0  0  0
   -5.0461    1.7160   -3.3009 H   0  0  0  0  0  0  0  0  0  0  0  0
   -5.7786    1.2669   -1.3184 C   0  0  0  0  0  0  0  0  0  0  0  0
   -6.3689    2.1923   -1.2281 H   0  0  0  0  0  0  0  0  0  0  0  0
   -5.7734    0.3465   -0.2309 C   0  0  0  0  0  0  0  0  0  0  0  0
   -6.4991    0.6110    0.9693 C   0  0  0  0  0  0  0  0  0  0  0  0
   -7.0927    1.5372    1.0295 H   0  0  0  0  0  0  0  0  0  0  0  0
   -6.4580   -0.2691    2.0401 C   0  0  0  0  0  0  0  0  0  0  0  0
   -7.0222   -0.0503    2.9597 H   0  0  0  0  0  0  0  0  0  0  0  0
   -5.6843   -1.4578    1.9497 C   0  0  0  0  0  0  0  0  0  0  0  0
   -5.6424   -2.1487    2.8054 H   0  0  0  0  0  0  0  0  0  0  0  0
   -4.9786   -1.7536    0.7917 C   0  0  0  0  0  0  0  0  0  0  0  0
   -4.3462   -2.6512    0.7549 H   0  0  0  0  0  0  0  0  0  0  0  0
   -5.0014   -0.8723   -0.3328 C   0  0  0  0  0  0  0  0  0  0  0  0
  2  3  1  0  0  0  0
  3  1  1  0  0  0  0
  4  7  1  0  0  0  0
  4  6  1  0  0  0  0
  4  3  1  0  0  0  0
  5  4  1  0  0  0  0
  7 23  1  0  0  0  0
  8 10  1  0  0  0  0
  8  7  2  0  0  0  0
  9  8  1  0  0  0  0
 10 12  2  0  0  0  0
 11 10  1  0  0  0  0
 12 13  1  0  0  0  0
 12 14  1  0  0  0  0
 14 15  1  0  0  0  0
 15 16  1  0  0  0  0
 15 17  2  0  0  0  0
 17 18  1  0  0  0  0
 19 17  1  0  0  0  0
 19 20  1  0  0  0  0
 21 19  2  0  0  0  0
 22 21  1  0  0  0  0
 23 14  2  0  0  0  0
 23 21  1  0  0  0  0
M  CHG  2   1  -1   2  -1
M  END
