3,5
 OpenBabel05122313063D

 59 61  0  0  0  0  0  0  0  0999 V2000
   -1.2249    3.0546   -0.8439 F   0  0  0  0  0  0  0  0  0  0  0  0
    4.2246    0.6760    2.6431 O   0  5  0  0  0  0  0  0  0  0  0  0
    3.6671   -0.5077    0.8017 O   0  0  0  0  0  0  0  0  0  0  0  0
    0.9680   -0.0565    1.2568 O   0  0  0  0  0  0  0  0  0  0  0  0
    0.3182    0.1074   -1.8944 O   0  5  0  0  0  0  0  0  0  0  0  0
    0.5747   -0.8646   -3.9244 O   0  0  0  0  0  0  0  0  0  0  0  0
   -2.2145   -0.8569   -1.8502 O   0  0  0  0  0  0  0  0  0  0  0  0
   -1.3450   -0.6174    1.3558 C   0  0  0  0  0  0  0  0  0  0  0  0
   -2.3634   -1.4932    1.7569 C   0  0  0  0  0  0  0  0  0  0  0  0
   -3.3964   -1.2769    1.4440 H   0  0  0  0  0  0  0  0  0  0  0  0
   -2.0974   -2.6320    2.5435 C   0  0  0  0  0  0  0  0  0  0  0  0
   -0.7669   -2.8787    2.9150 C   0  0  0  0  0  0  0  0  0  0  0  0
   -0.5320   -3.7765    3.5101 H   0  0  0  0  0  0  0  0  0  0  0  0
    0.2994   -2.0404    2.5290 C   0  0  0  0  0  0  0  0  0  0  0  0
   -0.0113   -0.9012    1.7511 C   0  0  0  0  0  0  0  0  0  0  0  0
    1.7150   -2.4073    2.8970 C   0  0  0  0  0  0  0  0  0  0  0  0
    2.0624   -1.8855    3.8135 H   0  0  0  0  0  0  0  0  0  0  0  0
    2.4270   -2.1425    2.0929 H   0  0  0  0  0  0  0  0  0  0  0  0
    1.7923   -3.4945    3.0900 H   0  0  0  0  0  0  0  0  0  0  0  0
   -3.2175   -3.5504    2.9657 C   0  0  0  0  0  0  0  0  0  0  0  0
   -3.9107   -3.0444    3.6708 H   0  0  0  0  0  0  0  0  0  0  0  0
   -2.8340   -4.4591    3.4692 H   0  0  0  0  0  0  0  0  0  0  0  0
   -3.8289   -3.8715    2.0969 H   0  0  0  0  0  0  0  0  0  0  0  0
   -1.6192    0.6142    0.4991 C   0  0  0  0  0  0  0  0  0  0  0  0
   -0.9063    0.5602   -0.3524 H   0  0  0  0  0  0  0  0  0  0  0  0
   -1.3244    1.9107    1.2382 C   0  0  0  0  0  0  0  0  0  0  0  0
   -1.2380    2.0116    2.6396 C   0  0  0  0  0  0  0  0  0  0  0  0
   -1.3872    1.1003    3.2381 H   0  0  0  0  0  0  0  0  0  0  0  0
   -0.9537    3.2312    3.2751 C   0  0  0  0  0  0  0  0  0  0  0  0
   -0.8858    3.2731    4.3723 H   0  0  0  0  0  0  0  0  0  0  0  0
   -0.7539    4.3909    2.5118 C   0  0  0  0  0  0  0  0  0  0  0  0
   -0.5269    5.3502    3.0004 H   0  0  0  0  0  0  0  0  0  0  0  0
   -0.8465    4.3262    1.1126 C   0  0  0  0  0  0  0  0  0  0  0  0
   -0.7047    5.2137    0.4795 H   0  0  0  0  0  0  0  0  0  0  0  0
   -1.1315    3.0989    0.5084 C   0  0  0  0  0  0  0  0  0  0  0  0
   -3.0095    0.6172   -0.1244 C   0  0  0  0  0  0  0  0  0  0  0  0
   -3.2465   -0.1106   -1.3151 C   0  0  0  0  0  0  0  0  0  0  0  0
   -4.5316   -0.1577   -1.9020 C   0  0  0  0  0  0  0  0  0  0  0  0
   -5.5728    0.5598   -1.2837 C   0  0  0  0  0  0  0  0  0  0  0  0
   -6.5787    0.5220   -1.7336 H   0  0  0  0  0  0  0  0  0  0  0  0
   -5.3730    1.3006   -0.1056 C   0  0  0  0  0  0  0  0  0  0  0  0
   -4.0838    1.3069    0.4609 C   0  0  0  0  0  0  0  0  0  0  0  0
   -3.9022    1.8749    1.3871 H   0  0  0  0  0  0  0  0  0  0  0  0
   -4.7776   -0.9911   -3.1333 C   0  0  0  0  0  0  0  0  0  0  0  0
   -4.4085   -0.4943   -4.0556 H   0  0  0  0  0  0  0  0  0  0  0  0
   -5.8581   -1.1855   -3.2734 H   0  0  0  0  0  0  0  0  0  0  0  0
   -4.2474   -1.9623   -3.0627 H   0  0  0  0  0  0  0  0  0  0  0  0
   -6.4963    2.0824    0.5294 C   0  0  0  0  0  0  0  0  0  0  0  0
   -6.4017    3.1682    0.3120 H   0  0  0  0  0  0  0  0  0  0  0  0
   -6.4938    1.9761    1.6331 H   0  0  0  0  0  0  0  0  0  0  0  0
   -7.4860    1.7558    0.1546 H   0  0  0  0  0  0  0  0  0  0  0  0
   -1.6513   -0.4634   -3.1031 C   0  0  0  0  0  0  0  0  0  0  0  0
   -2.0157    0.5463   -3.3955 H   0  0  0  0  0  0  0  0  0  0  0  0
   -1.9204   -1.1847   -3.9022 H   0  0  0  0  0  0  0  0  0  0  0  0
   -0.1163   -0.4102   -2.9802 C   0  0  0  0  0  0  0  0  0  0  0  0
    1.9200    0.5599    2.1486 C   0  0  0  0  0  0  0  0  0  0  0  0
    1.6871    0.3081    3.2005 H   0  0  0  0  0  0  0  0  0  0  0  0
    1.8001    1.6593    2.0427 H   0  0  0  0  0  0  0  0  0  0  0  0
    3.4012    0.2095    1.8560 C   0  0  0  0  0  0  0  0  0  0  0  0
  1 35  1  0  0  0  0
  3 59  2  0  0  0  0
  4 15  1  0  0  0  0
  4 56  1  0  0  0  0
  6 55  2  0  0  0  0
  7 37  1  0  0  0  0
  8 15  2  0  0  0  0
  8  9  1  0  0  0  0
  9 11  2  0  0  0  0
 10  9  1  0  0  0  0
 11 12  1  0  0  0  0
 11 20  1  0  0  0  0
 12 13  1  0  0  0  0
 14 16  1  0  0  0  0
 14 12  2  0  0  0  0
 15 14  1  0  0  0  0
 16 19  1  0  0  0  0
 16 17  1  0  0  0  0
 18 16  1  0  0  0  0
 20 22  1  0  0  0  0
 20 21  1  0  0  0  0
 23 20  1  0  0  0  0
 24 26  1  0  0  0  0
 24  8  1  0  0  0  0
 25 24  1  0  0  0  0
 26 27  1  0  0  0  0
 27 28  1  0  0  0  0
 27 29  2  0  0  0  0
 29 30  1  0  0  0  0
 31 32  1  0  0  0  0
 31 29  1  0  0  0  0
 33 31  2  0  0  0  0
 34 33  1  0  0  0  0
 35 33  1  0  0  0  0
 35 26  2  0  0  0  0
 36 42  1  0  0  0  0
 36 24  1  0  0  0  0
 37 36  2  0  0  0  0
 38 37  1  0  0  0  0
 38 39  2  0  0  0  0
 39 41  1  0  0  0  0
 40 39  1  0  0  0  0
 41 42  2  0  0  0  0
 41 48  1  0  0  0  0
 42 43  1  0  0  0  0
 44 47  1  0  0  0  0
 44 38  1  0  0  0  0
 45 44  1  0  0  0  0
 46 44  1  0  0  0  0
 48 50  1  0  0  0  0
 49 48  1  0  0  0  0
 51 48  1  0  0  0  0
 52 55  1  0  0  0  0
 52  7  1  0  0  0  0
 53 52  1  0  0  0  0
 54 52  1  0  0  0  0
 55  5  1  0  0  0  0
 56 57  1  0  0  0  0
 58 56  1  0  0  0  0
 59 56  1  0  0  0  0
 59  2  1  0  0  0  0
M  CHG  2   2  -1   5  -1
M  END
