1,2
 OpenBabel05122313063D

 33 32  0  0  1  0  0  0  0  0999 V2000
   -1.1917    1.6155   -0.0013 O   0  0  0  0  0  1  0  0  0  0  0  0
   -1.5245   -1.3029   -0.1259 O   0  5  0  0  0  0  0  0  0  0  0  0
   -5.0472   -1.7249    0.1708 O   0  0  0  0  0  0  0  0  0  0  0  0
   -2.4720    1.5648   -0.0830 C   0  0  1  0  0  3  0  0  0  0  0  0
   -3.2449    0.3879   -0.1677 C   0  0  0  0  0  0  0  0  0  0  0  0
   -4.3342    0.4743   -0.2344 H   0  0  0  0  0  0  0  0  0  0  0  0
   -2.7481   -0.9312   -0.1801 C   0  0  0  0  0  0  0  0  0  0  0  0
   -3.7645   -2.0984   -0.3398 C   0  0  0  0  0  0  0  0  0  0  0  0
   -3.1308    2.9635   -0.0771 C   0  0  0  0  0  0  0  0  0  0  0  0
   -3.9871   -2.3038   -1.8458 C   0  0  0  0  0  0  0  0  0  0  0  0
   -4.6909   -3.1454   -2.0019 H   0  0  0  0  0  0  0  0  0  0  0  0
   -3.0295   -2.5298   -2.3522 H   0  0  0  0  0  0  0  0  0  0  0  0
   -4.4240   -1.3909   -2.2939 H   0  0  0  0  0  0  0  0  0  0  0  0
   -3.2238   -3.3807    0.3068 C   0  0  0  0  0  0  0  0  0  0  0  0
   -3.9807   -4.1844    0.2139 H   0  0  0  0  0  0  0  0  0  0  0  0
   -2.9785   -3.2371    1.3764 H   0  0  0  0  0  0  0  0  0  0  0  0
   -2.2935   -3.6960   -0.1990 H   0  0  0  0  0  0  0  0  0  0  0  0
   -5.1550   -1.6079    1.5762 C   0  0  0  0  0  0  0  0  0  0  0  0
   -5.0940   -2.5917    2.0944 H   0  0  0  0  0  0  0  0  0  0  0  0
   -6.1509   -1.1694    1.7827 H   0  0  0  0  0  0  0  0  0  0  0  0
   -4.3791   -0.9334    2.0087 H   0  0  0  0  0  0  0  0  0  0  0  0
   -2.7193    3.6623    1.2378 C   0  0  0  0  0  0  0  0  0  0  0  0
   -3.1250    4.6943    1.2636 H   0  0  0  0  0  0  0  0  0  0  0  0
   -1.6173    3.7108    1.3254 H   0  0  0  0  0  0  0  0  0  0  0  0
   -3.1132    3.1159    2.1190 H   0  0  0  0  0  0  0  0  0  0  0  0
   -2.5640    3.7473   -1.2816 C   0  0  0  0  0  0  0  0  0  0  0  0
   -2.9664    4.7808   -1.2868 H   0  0  0  0  0  0  0  0  0  0  0  0
   -2.8456    3.2636   -2.2391 H   0  0  0  0  0  0  0  0  0  0  0  0
   -1.4596    3.7956   -1.2303 H   0  0  0  0  0  0  0  0  0  0  0  0
   -4.6623    2.9115   -0.1727 C   0  0  0  0  0  0  0  0  0  0  0  0
   -5.1125    2.3671    0.6813 H   0  0  0  0  0  0  0  0  0  0  0  0
   -5.0031    2.4295   -1.1106 H   0  0  0  0  0  0  0  0  0  0  0  0
   -5.0672    3.9437   -0.1614 H   0  0  0  0  0  0  0  0  0  0  0  0
  3 18  1  0  0  0  0
  4  9  1  0  0  0  0
  4  1  1  1  0  0  0
  5  4  1  0  0  0  0
  6  5  1  0  0  0  0
  7  5  2  0  0  0  0
  7  2  1  0  0  0  0
  8  7  1  0  0  0  0
  8  3  1  0  0  0  0
  8 14  1  0  0  0  0
  9 22  1  0  0  0  0
 10  8  1  0  0  0  0
 11 10  1  0  0  0  0
 12 10  1  0  0  0  0
 13 10  1  0  0  0  0
 14 16  1  0  0  0  0
 15 14  1  0  0  0  0
 17 14  1  0  0  0  0
 18 20  1  0  0  0  0
 18 21  1  0  0  0  0
 18 19  1  0  0  0  0
 22 23  1  0  0  0  0
 22 24  1  0  0  0  0
 22 25  1  0  0  0  0
 26 29  1  0  0  0  0
 26  9  1  0  0  0  0
 27 26  1  0  0  0  0
 28 26  1  0  0  0  0
 30 33  1  0  0  0  0
 30  9  1  0  0  0  0
 30 31  1  0  0  0  0
 32 30  1  0  0  0  0
M  CHG  1   2  -1
M  END
