1,2
 OpenBabel05122313063D

 16 16  0  0  0  0  0  0  0  0999 V2000
   -0.5200    1.1632    0.8720 O   0  5  0  0  0  0  0  0  0  0  0  0
    0.5790    1.1302   -1.0250 O   0  5  0  0  0  0  0  0  0  0  0  0
   -0.3090    3.9071   -1.1226 O   0  0  0  0  0  0  0  0  0  0  0  0
   -0.2765    1.6892   -0.2678 C   0  0  0  0  0  3  0  0  0  0  0  0
   -0.9866    2.9690   -0.7187 C   0  0  0  0  0  0  0  0  0  0  0  0
   -2.4781    2.9988   -0.6655 C   0  0  0  0  0  0  0  0  0  0  0  0
   -3.1266    4.1711   -1.1141 C   0  0  0  0  0  0  0  0  0  0  0  0
   -2.4987    5.0099   -1.4502 H   0  0  0  0  0  0  0  0  0  0  0  0
   -4.5224    4.2419   -1.1303 C   0  0  0  0  0  0  0  0  0  0  0  0
   -5.0239    5.1574   -1.4794 H   0  0  0  0  0  0  0  0  0  0  0  0
   -5.2869    3.1394   -0.7042 C   0  0  0  0  0  0  0  0  0  0  0  0
   -6.3864    3.1947   -0.7210 H   0  0  0  0  0  0  0  0  0  0  0  0
   -4.6505    1.9698   -0.2584 C   0  0  0  0  0  0  0  0  0  0  0  0
   -5.2438    1.1040    0.0727 H   0  0  0  0  0  0  0  0  0  0  0  0
   -3.2511    1.8976   -0.2339 C   0  0  0  0  0  0  0  0  0  0  0  0
   -2.7542    0.9904    0.1338 H   0  0  0  0  0  0  0  0  0  0  0  0
  2  4  1  0  0  0  0
  3  5  2  0  0  0  0
  4  1  1  0  0  0  0
  5  6  1  0  0  0  0
  5  4  1  0  0  0  0
  6 15  1  0  0  0  0
  7  6  2  0  0  0  0
  8  7  1  0  0  0  0
  9  7  1  0  0  0  0
  9 11  2  0  0  0  0
 10  9  1  0  0  0  0
 11 13  1  0  0  0  0
 12 11  1  0  0  0  0
 13 15  2  0  0  0  0
 13 14  1  0  0  0  0
 15 16  1  0  0  0  0
M  CHG  2   1  -1   2  -1
M  END
