1,2
 OpenBabel05122313063D

 34 35  0  0  0  0  0  0  0  0999 V2000
   -1.8173    0.9519    0.9048 O   0  5  0  0  0  0  0  0  0  0  0  0
   -1.8173   -0.9514   -0.9053 O   0  5  0  0  0  0  0  0  0  0  0  0
   -4.0505    0.7443   -0.0023 C   0  0  0  0  0  0  0  0  0  0  0  0
   -2.9567    1.5259    0.4608 C   0  0  0  0  0  0  0  0  0  0  0  0
   -3.0316    2.9448    0.4909 C   0  0  0  0  0  0  0  0  0  0  0  0
   -4.2080    3.5689    0.0558 C   0  0  0  0  0  0  0  0  0  0  0  0
   -5.3139    2.8302   -0.4147 C   0  0  0  0  0  0  0  0  0  0  0  0
   -5.2098    1.4315   -0.4321 C   0  0  0  0  0  0  0  0  0  0  0  0
   -1.8362    3.7191    0.9787 C   0  0  0  0  0  0  0  0  0  0  0  0
   -6.5602    3.5323   -0.8958 C   0  0  0  0  0  0  0  0  0  0  0  0
   -4.0503   -0.7445    0.0024 C   0  0  0  0  0  0  0  0  0  0  0  0
   -2.9564   -1.5258   -0.4611 C   0  0  0  0  0  0  0  0  0  0  0  0
   -3.0310   -2.9447   -0.4912 C   0  0  0  0  0  0  0  0  0  0  0  0
   -4.2070   -3.5691   -0.0559 C   0  0  0  0  0  0  0  0  0  0  0  0
   -5.3130   -2.8308    0.4150 C   0  0  0  0  0  0  0  0  0  0  0  0
   -5.2093   -1.4320    0.4326 C   0  0  0  0  0  0  0  0  0  0  0  0
   -1.8355   -3.7187   -0.9795 C   0  0  0  0  0  0  0  0  0  0  0  0
   -6.5590   -3.5332    0.8966 C   0  0  0  0  0  0  0  0  0  0  0  0
   -4.2602    4.6706    0.0753 H   0  0  0  0  0  0  0  0  0  0  0  0
   -6.0531    0.8363   -0.8160 H   0  0  0  0  0  0  0  0  0  0  0  0
   -1.5673    3.4279    2.0156 H   0  0  0  0  0  0  0  0  0  0  0  0
   -2.0250    4.8097    0.9538 H   0  0  0  0  0  0  0  0  0  0  0  0
   -0.9462    3.4891    0.3572 H   0  0  0  0  0  0  0  0  0  0  0  0
   -6.3487    4.1882   -1.7672 H   0  0  0  0  0  0  0  0  0  0  0  0
   -6.9930    4.1821   -0.1059 H   0  0  0  0  0  0  0  0  0  0  0  0
   -7.3415    2.8097   -1.2027 H   0  0  0  0  0  0  0  0  0  0  0  0
   -4.2590   -4.6708   -0.0754 H   0  0  0  0  0  0  0  0  0  0  0  0
   -6.0526   -0.8371    0.8167 H   0  0  0  0  0  0  0  0  0  0  0  0
   -0.9454   -3.4884   -0.3584 H   0  0  0  0  0  0  0  0  0  0  0  0
   -1.5671   -3.4274   -2.0165 H   0  0  0  0  0  0  0  0  0  0  0  0
   -2.0240   -4.8093   -0.9545 H   0  0  0  0  0  0  0  0  0  0  0  0
   -6.3471   -4.1887    1.7682 H   0  0  0  0  0  0  0  0  0  0  0  0
   -7.3405   -2.8109    1.2033 H   0  0  0  0  0  0  0  0  0  0  0  0
   -6.9916   -4.1835    0.1070 H   0  0  0  0  0  0  0  0  0  0  0  0
  2 12  1  0  0  0  0
  3 11  1  0  0  0  0
  3  4  1  0  0  0  0
  4  5  2  0  0  0  0
  4  1  1  0  0  0  0
  5  9  1  0  0  0  0
  6 19  1  0  0  0  0
  6  5  1  0  0  0  0
  7  6  2  0  0  0  0
  8  7  1  0  0  0  0
  8  3  2  0  0  0  0
  9 21  1  0  0  0  0
 10  7  1  0  0  0  0
 10 25  1  0  0  0  0
 11 16  1  0  0  0  0
 12 11  2  0  0  0  0
 13 12  1  0  0  0  0
 13 14  2  0  0  0  0
 14 15  1  0  0  0  0
 15 16  2  0  0  0  0
 15 18  1  0  0  0  0
 16 28  1  0  0  0  0
 17 31  1  0  0  0  0
 17 13  1  0  0  0  0
 17 29  1  0  0  0  0
 18 33  1  0  0  0  0
 18 32  1  0  0  0  0
 20  8  1  0  0  0  0
 22  9  1  0  0  0  0
 23  9  1  0  0  0  0
 24 10  1  0  0  0  0
 26 10  1  0  0  0  0
 27 14  1  0  0  0  0
 30 17  1  0  0  0  0
 34 18  1  0  0  0  0
M  CHG  2   1  -1   2  -1
M  END
