1,2
 OpenBabel05122313063D

 20 19  0  0  1  0  0  0  0  0999 V2000
   -0.7213    0.9525    0.1365 O   0  0  0  0  0  0  0  0  0  0  0  0
   -0.1224   -1.5597   -0.0861 O   0  0  0  0  0  0  0  0  0  0  0  0
   -2.1800   -2.3032   -0.9933 C   0  0  0  0  0  0  0  0  0  0  0  0
   -1.8837   -1.7438    1.5089 C   0  0  0  0  0  0  0  0  0  0  0  0
   -1.5116   -1.3317    0.0447 C   0  0  0  0  0  0  0  0  0  0  0  0
   -1.7861    0.2018   -0.2730 C   0  0  1  0  0  0  0  0  0  0  0  0
   -3.0812    0.9011    0.2716 C   0  0  0  0  0  0  0  0  0  0  0  0
   -3.3948    2.2810   -0.4064 C   0  0  0  0  0  0  0  0  0  0  0  0
   -3.4856   -2.0380   -1.1762 F   0  0  0  0  0  0  0  0  0  0  0  0
   -2.0793   -3.5837   -0.5727 F   0  0  0  0  0  0  0  0  0  0  0  0
   -1.5576   -2.2237   -2.1787 F   0  0  0  0  0  0  0  0  0  0  0  0
   -1.4037   -0.8436    2.3881 F   0  0  0  0  0  0  0  0  0  0  0  0
   -3.2197   -1.8389    1.6818 F   0  0  0  0  0  0  0  0  0  0  0  0
   -1.3383   -2.9320    1.8197 F   0  0  0  0  0  0  0  0  0  0  0  0
   -1.9133    0.2861   -1.6685 F   0  0  0  0  0  0  0  0  0  0  0  0
   -4.1790    0.1291    0.0710 F   0  0  0  0  0  0  0  0  0  0  0  0
   -2.9556    1.1352    1.6009 F   0  0  0  0  0  0  0  0  0  0  0  0
   -4.3684    2.8828    0.3079 F   0  0  0  0  0  0  0  0  0  0  0  0
   -2.3264    3.0917   -0.4247 F   0  0  0  0  0  0  0  0  0  0  0  0
   -3.8394    2.1157   -1.6603 F   0  0  0  0  0  0  0  0  0  0  0  0
  2  5  1  0  0  0  0
  3 10  1  0  0  0  0
  3  5  1  0  0  0  0
  4 13  1  0  0  0  0
  4 14  1  0  0  0  0
  4 12  1  0  0  0  0
  5  4  1  0  0  0  0
  6 15  1  6  0  0  0
  6  5  1  0  0  0  0
  6  1  1  0  0  0  0
  6  7  1  0  0  0  0
  7 17  1  0  0  0  0
  8  7  1  0  0  0  0
  8 18  1  0  0  0  0
  9  3  1  0  0  0  0
 11  3  1  0  0  0  0
 16  7  1  0  0  0  0
 19  8  1  0  0  0  0
 20  8  1  0  0  0  0
M  END
