2,4
 OpenBabel05122313063D

 21 21  0  0  1  0  0  0  0  0999 V2000
   -4.4716    4.7459    0.1996 Cl  0  0  0  0  0  0  0  0  0  0  0  0
    1.1968    1.2789   -0.3094 O   0  5  0  0  0  0  0  0  0  0  0  0
   -0.9356    2.0876   -0.8767 C   0  0  0  0  0  0  0  0  0  0  0  0
    2.4632   -0.4519   -1.8636 O   0  0  0  0  0  1  0  0  0  0  0  0
   -3.1188    3.7313   -0.2116 C   0  0  0  0  0  0  0  0  0  0  0  0
    0.2447    1.2231   -1.1597 C   0  0  0  0  0  0  0  0  0  0  0  0
   -2.1580    1.9771   -1.5746 C   0  0  0  0  0  0  0  0  0  0  0  0
   -2.2776    1.2334   -2.3749 H   0  0  0  0  0  0  0  0  0  0  0  0
    0.3007    0.4042   -2.3209 C   0  0  0  0  0  0  0  0  0  0  0  0
   -0.5165    0.4368   -3.0499 H   0  0  0  0  0  0  0  0  0  0  0  0
    1.4404   -0.3461   -2.6442 C   0  0  1  0  0  3  0  0  0  0  0  0
   -0.8337    3.0370    0.1651 C   0  0  0  0  0  0  0  0  0  0  0  0
    0.1209    3.1109    0.7054 H   0  0  0  0  0  0  0  0  0  0  0  0
   -3.2488    2.7885   -1.2464 C   0  0  0  0  0  0  0  0  0  0  0  0
   -4.2034    2.6965   -1.7826 H   0  0  0  0  0  0  0  0  0  0  0  0
   -1.9109    3.8613    0.4975 C   0  0  0  0  0  0  0  0  0  0  0  0
   -1.8295    4.6059    1.3016 H   0  0  0  0  0  0  0  0  0  0  0  0
    1.5567   -1.0756   -3.9548 C   0  0  0  0  0  0  0  0  0  0  0  0
    2.4462   -0.7027   -4.5028 H   0  0  0  0  0  0  0  0  0  0  0  0
    0.6586   -0.9583   -4.5875 H   0  0  0  0  0  0  0  0  0  0  0  0
    1.7374   -2.1523   -3.7584 H   0  0  0  0  0  0  0  0  0  0  0  0
  3 12  1  0  0  0  0
  5  1  1  0  0  0  0
  5 16  1  0  0  0  0
  6  3  1  0  0  0  0
  6  2  1  0  0  0  0
  7 14  1  0  0  0  0
  7  3  2  0  0  0  0
  8  7  1  0  0  0  0
  9  6  2  0  0  0  0
 10  9  1  0  0  0  0
 11  9  1  0  0  0  0
 11  4  1  6  0  0  0
 12 16  2  0  0  0  0
 12 13  1  0  0  0  0
 14  5  2  0  0  0  0
 15 14  1  0  0  0  0
 16 17  1  0  0  0  0
 18 21  1  0  0  0  0
 18 11  1  0  0  0  0
 19 18  1  0  0  0  0
 20 18  1  0  0  0  0
M  CHG  1   2  -1
M  END
