1,2
 OpenBabel05122313063D

 38 39  0  0  1  0  0  0  0  0999 V2000
    2.1740   -0.7168   -1.4133 O   0  5  0  0  0  0  0  0  0  0  0  0
    2.0643    0.5171    0.4449 O   0  5  0  0  0  0  0  0  0  0  0  0
   -0.6596    1.0610   -0.2401 O   0  0  0  0  0  0  0  0  0  0  0  0
    0.7158    2.2737   -1.5728 O   0  0  0  0  0  0  0  0  0  0  0  0
   -1.8393   -1.6137   -0.1015 O   0  0  0  0  0  0  0  0  0  0  0  0
   -2.7515   -0.2939    1.5244 O   0  0  0  0  0  0  0  0  0  0  0  0
    1.4250   -2.4868    0.9782 O   0  5  0  0  0  0  0  0  0  0  0  0
    0.1956   -3.3586   -0.7145 O   0  0  0  0  0  0  0  0  0  0  0  0
    1.5112   -0.0586   -0.5588 C   0  0  0  0  0  3  0  0  0  0  0  0
   -0.0035   -0.1444   -0.6453 C   0  0  1  0  0  0  0  0  0  0  0  0
   -0.2778   -0.3982   -1.6888 H   0  0  0  0  0  0  0  0  0  0  0  0
   -0.5110   -1.2702    0.2885 C   0  0  2  0  0  0  0  0  0  0  0  0
   -0.5208   -0.8811    1.3266 H   0  0  0  0  0  0  0  0  0  0  0  0
    0.4059   -2.5204    0.1519 C   0  0  0  0  0  0  0  0  0  0  0  0
   -0.2105    2.2210   -0.7658 C   0  0  0  0  0  0  0  0  0  0  0  0
   -0.9646    3.3901   -0.2449 C   0  0  0  0  0  0  0  0  0  0  0  0
   -1.9924    3.2382    0.7122 C   0  0  0  0  0  0  0  0  0  0  0  0
   -2.2473    2.2340    1.0833 H   0  0  0  0  0  0  0  0  0  0  0  0
   -2.6712    4.3714    1.1783 C   0  0  0  0  0  0  0  0  0  0  0  0
   -3.4713    4.2580    1.9250 H   0  0  0  0  0  0  0  0  0  0  0  0
   -2.3329    5.6478    0.6974 C   0  0  0  0  0  0  0  0  0  0  0  0
   -2.8705    6.5340    1.0682 H   0  0  0  0  0  0  0  0  0  0  0  0
   -1.3097    5.7978   -0.2547 C   0  0  0  0  0  0  0  0  0  0  0  0
   -1.0463    6.7983   -0.6292 H   0  0  0  0  0  0  0  0  0  0  0  0
   -0.6256    4.6716   -0.7257 C   0  0  0  0  0  0  0  0  0  0  0  0
    0.1795    4.7597   -1.4698 H   0  0  0  0  0  0  0  0  0  0  0  0
   -2.8789   -1.0838    0.6028 C   0  0  0  0  0  0  0  0  0  0  0  0
   -4.1821   -1.6006    0.0929 C   0  0  0  0  0  0  0  0  0  0  0  0
   -4.2488   -2.5966   -0.9042 C   0  0  0  0  0  0  0  0  0  0  0  0
   -3.3138   -3.0054   -1.3129 H   0  0  0  0  0  0  0  0  0  0  0  0
   -5.4976   -3.0539   -1.3452 C   0  0  0  0  0  0  0  0  0  0  0  0
   -5.5520   -3.8334   -2.1201 H   0  0  0  0  0  0  0  0  0  0  0  0
   -6.6777   -2.5221   -0.7984 C   0  0  0  0  0  0  0  0  0  0  0  0
   -7.6567   -2.8839   -1.1486 H   0  0  0  0  0  0  0  0  0  0  0  0
   -6.6116   -1.5321    0.1973 C   0  0  0  0  0  0  0  0  0  0  0  0
   -7.5370   -1.1190    0.6264 H   0  0  0  0  0  0  0  0  0  0  0  0
   -5.3669   -1.0735    0.6447 C   0  0  0  0  0  0  0  0  0  0  0  0
   -5.2821   -0.3041    1.4262 H   0  0  0  0  0  0  0  0  0  0  0  0
  1  9  1  0  0  0  0
  4 15  2  0  0  0  0
  5 12  1  0  0  0  0
  5 27  1  0  0  0  0
  8 14  2  0  0  0  0
  9  2  1  0  0  0  0
 10 11  1  6  0  0  0
 10  9  1  0  0  0  0
 10  3  1  0  0  0  0
 10 12  1  0  0  0  0
 12 13  1  1  0  0  0
 14 12  1  0  0  0  0
 14  7  1  0  0  0  0
 15 16  1  0  0  0  0
 15  3  1  0  0  0  0
 16 17  1  0  0  0  0
 17 18  1  0  0  0  0
 17 19  2  0  0  0  0
 19 20  1  0  0  0  0
 21 22  1  0  0  0  0
 21 19  1  0  0  0  0
 23 21  2  0  0  0  0
 24 23  1  0  0  0  0
 25 23  1  0  0  0  0
 25 16  2  0  0  0  0
 26 25  1  0  0  0  0
 27  6  2  0  0  0  0
 28 27  1  0  0  0  0
 28 37  1  0  0  0  0
 29 28  2  0  0  0  0
 30 29  1  0  0  0  0
 31 29  1  0  0  0  0
 31 33  2  0  0  0  0
 32 31  1  0  0  0  0
 33 35  1  0  0  0  0
 34 33  1  0  0  0  0
 35 36  1  0  0  0  0
 35 37  2  0  0  0  0
 37 38  1  0  0  0  0
M  CHG  3   1  -1   2  -1   7  -1
M  END
