1,2
 OpenBabel05122313063D

 17 17  0  0  0  0  0  0  0  0999 V2000
   -0.9885    1.1792   -1.4233 O   0  0  0  0  0  1  0  0  0  0  0  0
    0.6206    0.8371    0.8757 O   0  5  0  0  0  0  0  0  0  0  0  0
    1.1868    2.1735   -1.0736 C   0  0  0  0  0  0  0  0  0  0  0  0
    1.4392    1.6146    0.2353 C   0  0  0  0  0  0  0  0  0  0  0  0
    2.6752    1.9673    0.8629 C   0  0  0  0  0  0  0  0  0  0  0  0
    3.5880    2.7976    0.2328 C   0  0  0  0  0  0  0  0  0  0  0  0
    3.3526    3.3573   -1.0601 C   0  0  0  0  0  0  0  0  0  0  0  0
    2.1516    3.0356   -1.6777 C   0  0  0  0  0  0  0  0  0  0  0  0
   -0.0423    1.9412   -1.7591 C   0  0  0  0  0  3  0  0  0  0  0  0
    4.3825    4.2482   -1.7056 C   0  0  0  0  0  0  0  0  0  0  0  0
    4.0409    4.6169   -2.6923 H   0  0  0  0  0  0  0  0  0  0  0  0
    5.3428    3.7119   -1.8609 H   0  0  0  0  0  0  0  0  0  0  0  0
    4.6103    5.1330   -1.0741 H   0  0  0  0  0  0  0  0  0  0  0  0
    1.9220    3.4470   -2.6752 H   0  0  0  0  0  0  0  0  0  0  0  0
    4.5378    3.0269    0.7438 H   0  0  0  0  0  0  0  0  0  0  0  0
    2.8786    1.5284    1.8499 H   0  0  0  0  0  0  0  0  0  0  0  0
   -0.1981    2.5198   -2.7027 H   0  0  0  0  0  0  0  0  0  0  0  0
  3  4  1  0  0  0  0
  4  5  2  0  0  0  0
  4  2  1  0  0  0  0
  5 16  1  0  0  0  0
  6 15  1  0  0  0  0
  6  5  1  0  0  0  0
  7  6  2  0  0  0  0
  8  3  2  0  0  0  0
  8  7  1  0  0  0  0
  9  1  1  0  0  0  0
  9  3  1  0  0  0  0
 10 13  1  0  0  0  0
 10  7  1  0  0  0  0
 11 10  1  0  0  0  0
 12 10  1  0  0  0  0
 14  8  1  0  0  0  0
 17  9  1  0  0  0  0
M  CHG  1   2  -1
M  END
