1,2
 OpenBabel05122313063D

 71 72  0  0  0  0  0  0  0  0999 V2000
   -1.9524   -1.2789    0.1941 O   0  5  0  0  0  0  0  0  0  0  0  0
    1.9522   -1.2790   -0.1942 O   0  5  0  0  0  0  0  0  0  0  0  0
   -0.0000    0.3537    0.0003 N   0  0  0  0  0  2  0  0  0  0  0  0
    2.8628    2.7224    0.2580 C   0  0  0  0  0  0  0  0  0  0  0  0
    3.6635    0.3890   -0.1831 C   0  0  0  0  0  0  0  0  0  0  0  0
   -2.8625    2.7226   -0.2578 C   0  0  0  0  0  0  0  0  0  0  0  0
   -1.5409    2.3093   -0.2809 C   0  0  0  0  0  0  0  0  0  0  0  0
    4.2041    4.2190    1.7616 C   0  0  0  0  0  0  0  0  0  0  0  0
   -1.2184    0.9374   -0.0554 C   0  0  0  0  0  0  0  0  0  0  0  0
   -2.2891   -0.0380    0.1084 C   0  0  0  0  0  0  0  0  0  0  0  0
    3.2789    4.1756    0.5227 C   0  0  0  0  0  0  0  0  0  0  0  0
   -3.6635    0.3892    0.1826 C   0  0  0  0  0  0  0  0  0  0  0  0
    1.2185    0.9374    0.0558 C   0  0  0  0  0  0  0  0  0  0  0  0
    3.8881    1.7476   -0.0078 C   0  0  0  0  0  0  0  0  0  0  0  0
    1.5412    2.3092    0.2815 C   0  0  0  0  0  0  0  0  0  0  0  0
    2.2891   -0.0381   -0.1084 C   0  0  0  0  0  0  0  0  0  0  0  0
   -3.8880    1.7478    0.0074 C   0  0  0  0  0  0  0  0  0  0  0  0
    2.0669    5.0859    0.7840 C   0  0  0  0  0  0  0  0  0  0  0  0
    4.0381    4.7132   -0.7131 C   0  0  0  0  0  0  0  0  0  0  0  0
   -4.7868   -0.6299    0.4134 C   0  0  0  0  0  0  0  0  0  0  0  0
    4.7866   -0.6301   -0.4144 C   0  0  0  0  0  0  0  0  0  0  0  0
    4.5481   -1.3610   -1.7584 C   0  0  0  0  0  0  0  0  0  0  0  0
   -3.2785    4.1759   -0.5224 C   0  0  0  0  0  0  0  0  0  0  0  0
   -6.1612    0.0591    0.4729 C   0  0  0  0  0  0  0  0  0  0  0  0
   -4.5490   -1.3608    1.7575 C   0  0  0  0  0  0  0  0  0  0  0  0
   -4.8025   -1.6547   -0.7478 C   0  0  0  0  0  0  0  0  0  0  0  0
    6.1609    0.0588   -0.4744 C   0  0  0  0  0  0  0  0  0  0  0  0
    4.8027   -1.6549    0.7468 C   0  0  0  0  0  0  0  0  0  0  0  0
   -4.2031    4.2195   -1.7617 C   0  0  0  0  0  0  0  0  0  0  0  0
   -4.0382    4.7133    0.7132 C   0  0  0  0  0  0  0  0  0  0  0  0
   -2.0663    5.0862   -0.7830 C   0  0  0  0  0  0  0  0  0  0  0  0
   -3.5956   -1.9201    1.7548 H   0  0  0  0  0  0  0  0  0  0  0  0
    4.9256    2.1050   -0.0424 H   0  0  0  0  0  0  0  0  0  0  0  0
    0.7485    3.0162    0.5356 H   0  0  0  0  0  0  0  0  0  0  0  0
   -0.7482    3.0164   -0.5346 H   0  0  0  0  0  0  0  0  0  0  0  0
   -4.9255    2.1053    0.0417 H   0  0  0  0  0  0  0  0  0  0  0  0
   -5.6455   -2.3610   -0.6039 H   0  0  0  0  0  0  0  0  0  0  0  0
    3.5948   -1.9202   -1.7553 H   0  0  0  0  0  0  0  0  0  0  0  0
    3.6802    3.8382    2.6611 H   0  0  0  0  0  0  0  0  0  0  0  0
    4.9482    4.1214   -0.9343 H   0  0  0  0  0  0  0  0  0  0  0  0
    4.9481   -1.1456    1.7212 H   0  0  0  0  0  0  0  0  0  0  0  0
    6.9439   -0.7035   -0.6557 H   0  0  0  0  0  0  0  0  0  0  0  0
    3.8677   -2.2441    0.7909 H   0  0  0  0  0  0  0  0  0  0  0  0
    4.5346   -0.6430   -2.6036 H   0  0  0  0  0  0  0  0  0  0  0  0
   -6.2228    0.7995    1.2969 H   0  0  0  0  0  0  0  0  0  0  0  0
   -5.1176    3.6102   -1.6196 H   0  0  0  0  0  0  0  0  0  0  0  0
    1.3754    5.1119   -0.0829 H   0  0  0  0  0  0  0  0  0  0  0  0
   -3.8676   -2.2439   -0.7915 H   0  0  0  0  0  0  0  0  0  0  0  0
   -6.4136    0.5713   -0.4783 H   0  0  0  0  0  0  0  0  0  0  0  0
   -5.3703   -2.0843    1.9362 H   0  0  0  0  0  0  0  0  0  0  0  0
   -6.9442   -0.7032    0.6538 H   0  0  0  0  0  0  0  0  0  0  0  0
   -3.6788    3.8388   -2.6611 H   0  0  0  0  0  0  0  0  0  0  0  0
   -4.9474   -1.1453   -1.7223 H   0  0  0  0  0  0  0  0  0  0  0  0
    2.4099    6.1238    0.9651 H   0  0  0  0  0  0  0  0  0  0  0  0
   -4.5237    5.2621   -1.9632 H   0  0  0  0  0  0  0  0  0  0  0  0
    5.6456   -2.3614    0.6024 H   0  0  0  0  0  0  0  0  0  0  0  0
    5.3693   -2.0845   -1.9375 H   0  0  0  0  0  0  0  0  0  0  0  0
    1.4939    4.7661    1.6778 H   0  0  0  0  0  0  0  0  0  0  0  0
   -4.5358   -0.6429    2.6027 H   0  0  0  0  0  0  0  0  0  0  0  0
    4.3568    5.7612   -0.5383 H   0  0  0  0  0  0  0  0  0  0  0  0
    6.4138    0.5709    0.4767 H   0  0  0  0  0  0  0  0  0  0  0  0
    6.2223    0.7993   -1.2984 H   0  0  0  0  0  0  0  0  0  0  0  0
   -3.3938    4.6939    1.6150 H   0  0  0  0  0  0  0  0  0  0  0  0
    5.1185    3.6097    1.6190 H   0  0  0  0  0  0  0  0  0  0  0  0
   -4.3568    5.7613    0.5383 H   0  0  0  0  0  0  0  0  0  0  0  0
   -4.9485    4.1214    0.9338 H   0  0  0  0  0  0  0  0  0  0  0  0
    3.3933    4.6940   -1.6147 H   0  0  0  0  0  0  0  0  0  0  0  0
   -1.4930    4.7665   -1.6766 H   0  0  0  0  0  0  0  0  0  0  0  0
   -1.3752    5.1120    0.0841 H   0  0  0  0  0  0  0  0  0  0  0  0
    4.5248    5.2616    1.9631 H   0  0  0  0  0  0  0  0  0  0  0  0
   -2.4092    6.1241   -0.9641 H   0  0  0  0  0  0  0  0  0  0  0  0
  2 16  1  0  0  0  0
  3 13  1  0  0  0  0
  4 15  1  0  0  0  0
  4 11  1  0  0  0  0
  5 16  2  0  0  0  0
  5 14  1  0  0  0  0
  6 17  1  0  0  0  0
  7  6  2  0  0  0  0
  7  9  1  0  0  0  0
  8 70  1  0  0  0  0
  8 39  1  0  0  0  0
  9  3  1  0  0  0  0
  9 10  2  0  0  0  0
 10 12  1  0  0  0  0
 10  1  1  0  0  0  0
 11 18  1  0  0  0  0
 11  8  1  0  0  0  0
 12 20  1  0  0  0  0
 13 15  2  0  0  0  0
 14  4  2  0  0  0  0
 15 34  1  0  0  0  0
 16 13  1  0  0  0  0
 17 36  1  0  0  0  0
 17 12  2  0  0  0  0
 18 54  1  0  0  0  0
 18 58  1  0  0  0  0
 19 60  1  0  0  0  0
 19 11  1  0  0  0  0
 20 24  1  0  0  0  0
 20 25  1  0  0  0  0
 21  5  1  0  0  0  0
 21 28  1  0  0  0  0
 22 38  1  0  0  0  0
 22 21  1  0  0  0  0
 23  6  1  0  0  0  0
 23 30  1  0  0  0  0
 24 51  1  0  0  0  0
 24 45  1  0  0  0  0
 25 50  1  0  0  0  0
 25 59  1  0  0  0  0
 26 37  1  0  0  0  0
 26 20  1  0  0  0  0
 27 21  1  0  0  0  0
 27 61  1  0  0  0  0
 28 43  1  0  0  0  0
 28 41  1  0  0  0  0
 29 46  1  0  0  0  0
 29 23  1  0  0  0  0
 30 66  1  0  0  0  0
 30 63  1  0  0  0  0
 31 23  1  0  0  0  0
 31 69  1  0  0  0  0
 32 25  1  0  0  0  0
 33 14  1  0  0  0  0
 35  7  1  0  0  0  0
 40 19  1  0  0  0  0
 42 27  1  0  0  0  0
 44 22  1  0  0  0  0
 47 18  1  0  0  0  0
 48 26  1  0  0  0  0
 49 24  1  0  0  0  0
 52 29  1  0  0  0  0
 53 26  1  0  0  0  0
 55 29  1  0  0  0  0
 56 28  1  0  0  0  0
 57 22  1  0  0  0  0
 62 27  1  0  0  0  0
 64  8  1  0  0  0  0
 65 30  1  0  0  0  0
 67 19  1  0  0  0  0
 68 31  1  0  0  0  0
 71 31  1  0  0  0  0
M  CHG  2   1  -1   2  -1
M  END
