3,4
 OpenBabel05122313063D

 19 19  0  0  0  0  0  0  0  0999 V2000
    8.7798    0.1891   -0.8095 O   0  0  0  0  0  0  0  0  0  0  0  0
    8.9739   -0.1864   -1.6885 H   0  0  0  0  0  0  0  0  0  0  0  0
   -0.0696   -1.1988   -0.6862 O   0  5  0  0  0  0  0  0  0  0  0  0
    0.5217   -0.1762    1.2046 O   0  0  0  0  0  0  0  0  0  0  0  0
    5.1903   -0.5729   -1.2351 C   0  0  0  0  0  0  0  0  0  0  0  0
    4.5172   -1.0207   -1.9811 H   0  0  0  0  0  0  0  0  0  0  0  0
    6.5538   -0.4862   -1.5195 C   0  0  0  0  0  0  0  0  0  0  0  0
    6.9429   -0.8631   -2.4804 H   0  0  0  0  0  0  0  0  0  0  0  0
    7.4439    0.0815   -0.5812 C   0  0  0  0  0  0  0  0  0  0  0  0
    6.9410    0.5594    0.6453 C   0  0  0  0  0  0  0  0  0  0  0  0
    7.6423    0.9976    1.3697 H   0  0  0  0  0  0  0  0  0  0  0  0
    5.5747    0.4661    0.9169 C   0  0  0  0  0  0  0  0  0  0  0  0
    5.1894    0.8390    1.8788 H   0  0  0  0  0  0  0  0  0  0  0  0
    4.6621   -0.0988   -0.0090 C   0  0  0  0  0  0  0  0  0  0  0  0
    3.2442   -0.1685    0.3326 C   0  0  0  0  0  3  0  0  0  0  0  0
    2.9575    0.2320    1.3212 H   0  0  0  0  0  0  0  0  0  0  0  0
    2.2286   -0.6711   -0.4152 C   0  0  0  0  0  0  0  0  0  0  0  0
    2.3840   -1.1090   -1.4134 H   0  0  0  0  0  0  0  0  0  0  0  0
    0.8292   -0.6765    0.0720 C   0  0  0  0  0  0  0  0  0  0  0  0
  1  9  1  0  0  0  0
  2  1  1  0  0  0  0
  3 19  1  0  0  0  0
  5 14  1  0  0  0  0
  6  5  1  0  0  0  0
  7  5  2  0  0  0  0
  7  9  1  0  0  0  0
  8  7  1  0  0  0  0
  9 10  2  0  0  0  0
 10 12  1  0  0  0  0
 10 11  1  0  0  0  0
 12 13  1  0  0  0  0
 14 15  1  0  0  0  0
 14 12  2  0  0  0  0
 15 16  1  0  0  0  0
 17 19  2  0  0  0  0
 17 15  1  0  0  0  0
 18 17  1  0  0  0  0
 19  4  2  0  0  0  0
M  CHG  1   3  -1
M  END
